drugbank_target|O95835 Serine/threonine-protein kinase LATS1 (DB12010)
 OpenBabel12092121163D

  0  0  0     0  0            999 V3000
M  V30 BEGIN CTAB
M  V30 COUNTS 17630 17876 0 0 0
M  V30 BEGIN ATOM
M  V30 1 H -0.908 1.98254 -0.117106 0
M  V30 2 N 0 1.576 0 0
M  V30 3 C 0.933 2.03868 1.02534 0
M  V30 4 C 1.911 0.928543 1.3348 0
M  V30 5 O 3.095 1.19667 1.45644 0
M  V30 6 C 0.222 2.43627 2.35294 0
M  V30 7 C -0.732 3.65373 2.2001 0
M  V30 8 S 0.101 5.13292 1.52614 0
M  V30 9 C 1.257 5.56322 2.86805 0
M  V30 10 H 1.49 2.90518 0.631377 0
M  V30 11 H -0.977 1.52953 0.210867 0
M  V30 12 H 0.981 2.67203 3.11629 0
M  V30 13 H -0.358 1.57376 2.7183 0
M  V30 14 H -1.165 3.90944 3.18086 0
M  V30 15 H -1.563 3.418 1.51819 0
M  V30 16 H 0.729 5.58782 3.83104 0
M  V30 17 H 1.672 6.56266 2.65933 0
M  V30 18 H 2.08 4.83886 2.90714 0
M  V30 19 N 1.4781 -0.272755 1.55222 0
M  V30 20 C 2.4251 -1.33716 1.88119 0
M  V30 21 C 3.3951 -1.49066 0.73271 0
M  V30 22 O 4.5801 -1.63469 0.984002 0
M  V30 23 C 1.7201 -2.69238 2.15882 0
M  V30 24 C 0.8331 -2.62108 3.43399 0
M  V30 25 C -0.0319 -3.89811 3.60861 0
M  V30 26 C -0.9929 -3.77193 4.8207 0
M  V30 27 N -1.8559 -4.9673 4.96189 0
M  V30 28 H 2.9841 -1.04962 2.78903 0
M  V30 29 H 0.5211 -0.507088 1.38083 0
M  V30 30 H 2.4791 -3.48089 2.29978 0
M  V30 31 H 1.1091 -2.96194 1.28331 0
M  V30 32 H 0.1611 -1.74967 3.37773 0
M  V30 33 H 1.4731 -2.48685 4.32386 0
M  V30 34 H 0.6271 -4.77103 3.74777 0
M  V30 35 H -0.6339 -4.06102 2.7006 0
M  V30 36 H -1.6289 -2.88284 4.68159 0
M  V30 37 H -0.4039 -3.62421 5.74307 0
M  V30 38 H -2.4579 -5.13431 4.08319 0
M  V30 39 H -2.5409 -4.85839 5.79221 0
M  V30 40 H -1.2729 -5.85594 5.1449 0
M  V30 41 N 2.9562 -1.48159 -0.537278 0
M  V30 42 C 4.3722 -1.34118 -0.865129 0
M  V30 43 C 4.5722 -0.346678 -1.98495 0
M  V30 44 O 3.6282 0.234715 -2.51407 0
M  V30 45 C 4.9412 -2.73963 -1.23954 0
M  V30 46 C 6.4892 -2.82397 -1.34984 0
M  V30 47 C 6.9642 -4.22928 -1.75772 0
M  V30 48 N 8.4552 -4.25566 -1.82887 0
M  V30 49 C 9.1902 -5.31235 -2.15817 0
M  V30 50 N 8.6862 -6.47189 -2.47222 0
M  V30 51 N 10.4792 -5.18624 -2.16761 0
M  V30 52 H 2.6302 -2.1144 0.201715 0
M  V30 53 H 4.8932 -0.947598 0.0275949 0
M  V30 54 H 4.5992 -3.48264 -0.490381 0
M  V30 55 H 4.4732 -3.0702 -2.19132 0
M  V30 56 H 6.8602 -2.08356 -2.08978 0
M  V30 57 H 6.9412 -2.5297 -0.379448 0
M  V30 58 H 6.5852 -4.97482 -1.02341 0
M  V30 59 H 6.5152 -4.49794 -2.73848 0
M  V30 60 H 9.0062 -3.41924 -1.60924 0
M  V30 61 H 9.3192 -7.23564 -2.71433 0
M  V30 62 H 7.6642 -6.50476 -2.44757 0
M  V30 63 H 10.8552 -4.27056 -1.91679 0
M  V30 64 H 11.0282 -6.01078 -2.42093 0
M  V30 65 N 4.4343 0.785586 -1.36625 0
M  V30 66 C 5.6593 1.57963 -1.34397 0
M  V30 67 C 6.0843 1.87964 0.071526 0
M  V30 68 O 5.4423 1.48182 1.0446 0
M  V30 69 C 5.4903 2.87511 -2.17646 0
M  V30 70 O 4.5943 3.81281 -1.57158 0
M  V30 71 H 3.9353 0.479014 -0.459828 0
M  V30 72 H 6.4653 0.973411 -1.79961 0
M  V30 73 H 6.4753 3.36745 -2.30362 0
M  V30 74 H 5.1503 2.65002 -3.20541 0
M  V30 75 H 3.7273 3.39885 -1.53403 0
M  V30 76 N 5.9124 1.20967 1.01018 0
M  V30 77 C 6.8224 0.980157 2.13143 0
M  V30 78 C 7.8384 -0.0660665 1.73875 0
M  V30 79 O 9.0144 0.122821 2.01025 0
M  V30 80 C 6.0794 0.54216 3.42435 0
M  V30 81 C 5.1404 1.65999 3.95908 0
M  V30 82 C 4.3734 1.2428 5.19028 0
M  V30 83 O 4.5964 0.114196 5.70286 0
M  V30 84 O 3.5304 2.05271 5.65816 0
M  V30 85 H 7.3564 1.91913 2.35379 0
M  V30 86 H 4.9414 0.994099 1.11526 0
M  V30 87 H 6.8234 0.30744 4.20277 0
M  V30 88 H 5.4984 -0.36815 3.216 0
M  V30 89 H 4.4054 1.94906 3.19316 0
M  V30 90 H 5.7384 2.54753 4.21143 0
M  V30 91 N 7.3905 -1.2043 1.01659 0
M  V30 92 C 8.3375 -2.23215 0.586822 0
M  V30 93 C 9.3075 -1.61382 -0.393085 0
M  V30 94 O 10.4925 -1.88544 -0.292525 0
M  V30 95 C 7.6325 -3.45032 -0.0687464 0
M  V30 96 C 6.7455 -4.21296 0.955724 0
M  V30 97 C 5.8805 -5.30507 0.271208 0
M  V30 98 C 4.9195 -5.98515 1.28244 0
M  V30 99 N 4.0565 -6.99316 0.62459 0
M  V30 100 H 8.8965 -2.59336 1.46796 0
M  V30 101 H 6.4335 -1.27431 0.734836 0
M  V30 102 H 8.3915 -4.1459 -0.465965 0
M  V30 103 H 7.0215 -3.09604 -0.913529 0
M  V30 104 H 6.0735 -3.50803 1.4711 0
M  V30 105 H 7.3855 -4.6803 1.72479 0
M  V30 106 H 6.5395 -6.06428 -0.18151 0
M  V30 107 H 5.2785 -4.8481 -0.530163 0
M  V30 108 H 4.2835 -5.21355 1.74554 0
M  V30 109 H 5.5085 -6.46298 2.08509 0
M  V30 110 H 3.4545 -6.55812 -0.156914 0
M  V30 111 H 3.3715 -7.44178 1.33172 0
M  V30 112 H 4.6395 -7.79255 0.195462 0
M  V30 113 N 8.8686 -0.792821 -1.36206 0
M  V30 114 C 10.2796 -0.429513 -1.81692 0
M  V30 115 C 10.6306 1.04695 -1.65932 0
M  V30 116 O 9.7556 1.81256 -1.18218 0
M  V30 117 C 10.3506 -0.772831 -3.29868 0
M  V30 118 C 8.9096 -0.462307 -3.7355 0
M  V30 119 C 8.0566 -1.00569 -2.5842 0
M  V30 120 H 11.0076 -0.985672 -1.24379 0
M  V30 121 H 11.0286 -0.0651928 -3.80444 0
M  V30 122 H 10.5406 -1.84747 -3.41307 0
M  V30 123 H 8.6416 0.604158 -3.67669 0
M  V30 124 H 8.7546 -0.985299 -4.68859 0
M  V30 125 H 7.1186 -0.428734 -2.51066 0
M  V30 126 H 7.9016 -2.08616 -2.72643 0
M  V30 127 N 10.3467 1.47872 -0.545128 0
M  V30 128 C 11.2567 2.33633 0.212746 0
M  V30 129 C 12.2727 1.4744 0.923983 0
M  V30 130 O 13.4487 1.80393 0.895572 0
M  V30 131 C 10.5137 3.23884 1.23693 0
M  V30 132 C 9.5747 4.25961 0.534417 0
M  V30 133 C 8.8077 5.11899 1.5098 0
M  V30 134 O 9.0307 5.00077 2.7437 0
M  V30 135 O 7.9647 5.92831 1.0409 0
M  V30 136 H 11.7907 2.99714 -0.490416 0
M  V30 137 H 9.3757 1.46235 -0.305871 0
M  V30 138 H 11.2577 3.79666 1.82843 0
M  V30 139 H 9.9327 2.60446 1.92222 0
M  V30 140 H 8.8397 3.73972 -0.0979679 0
M  V30 141 H 10.1727 4.92079 -0.109213 0
M  V30 142 N 11.8248 0.280983 1.55075 0
M  V30 143 C 13.0728 -0.333455 1.9933 0
M  V30 144 C 13.3938 -1.55937 1.17085 0
M  V30 145 O 12.6638 -1.94143 0.261805 0
M  V30 146 H 11.2438 -0.126197 0.736263 0
M  V30 147 H 13.9058 0.387678 1.91005 0
M  V30 148 H 13.0018 -0.619292 3.05894 0
M  V30 149 N 13.3029 -1.57598 0.00835791 0
M  V30 150 C 14.5329 -1.94931 -0.684496 0
M  V30 151 C 14.9409 -0.882233 -1.67372 0
M  V30 152 O 14.2839 0.146621 -1.83114 0
M  V30 153 C 14.3459 -3.283 -1.4649 0
M  V30 154 C 14.0099 -4.52548 -0.63634 0
M  V30 155 C 15.0069 -5.19839 0.0795586 0
M  V30 156 C 12.6919 -4.98942 -0.579849 0
M  V30 157 C 14.6859 -6.3183 0.840843 0
M  V30 158 C 12.3729 -6.10819 0.185155 0
M  V30 159 C 13.3709 -6.77121 0.894227 0
M  V30 160 O 13.0589 -7.86853 1.64673 0
M  V30 161 H 12.7909 -0.647249 -0.19505 0
M  V30 162 H 15.3449 -2.05318 0.0581272 0
M  V30 163 H 13.5749 -3.14345 -2.2522 0
M  V30 164 H 15.2639 -3.50685 -2.04389 0
M  V30 165 H 16.0299 -4.84979 0.0451202 0
M  V30 166 H 11.9089 -4.47155 -1.1213 0
M  V30 167 H 15.4529 -6.83513 1.39483 0
M  V30 168 H 11.3499 -6.4512 0.221384 0
M  V30 169 H 12.1179 -8.03412 1.56432 0
M  V30 170 N 14.781 0.264519 -1.55364 0
M  V30 171 C 16.197 0.61215 -1.47394 0
M  V30 172 C 16.397 1.89134 -0.695018 0
M  V30 173 O 15.453 2.51563 -0.217275 0
M  V30 174 C 16.766 0.731235 -2.91674 0
M  V30 175 C 18.314 0.82473 -3.01939 0
M  V30 176 C 18.789 0.975522 -4.4749 0
M  V30 177 N 20.28 1.04083 -4.51354 0
M  V30 178 C 21.015 1.17646 -5.61201 0
M  V30 179 N 20.511 1.27874 -6.80896 0
M  V30 180 N 22.304 1.20823 -5.48961 0
M  V30 181 H 14.455 -0.575456 -2.04456 0
M  V30 182 H 16.718 -0.196099 -0.927496 0
M  V30 183 H 16.424 -0.138392 -3.51428 0
M  V30 184 H 16.298 1.60883 -3.41169 0
M  V30 185 H 18.685 1.68482 -2.42276 0
M  V30 186 H 18.766 -0.0776479 -2.55682 0
M  V30 187 H 18.41 0.120058 -5.07758 0
M  V30 188 H 18.34 1.89268 -4.91412 0
M  V30 189 H 20.831 0.973846 -3.65136 0
M  V30 190 H 21.144 1.38081 -7.60364 0
M  V30 191 H 19.489 1.24863 -6.83692 0
M  V30 192 H 22.68 1.12469 -4.54388 0
M  V30 193 H 22.853 1.31049 -6.3461 0
M  V30 194 N 16.2591 1.48442 0.529413 0
M  V30 195 C 17.1911 1.59095 1.64989 0
M  V30 196 C 18.2041 0.475212 1.5571 0
M  V30 197 O 19.3931 0.746081 1.6216 0
M  V30 198 C 16.4931 1.50518 3.0364 0
M  V30 199 C 15.6661 2.77142 3.38395 0
M  V30 200 C 14.7251 2.62012 4.56329 0
M  V30 201 O 13.7511 3.35898 4.59522 0
M  V30 202 N 14.9531 1.71667 5.54536 0
M  V30 203 H 17.7181 2.55723 1.56287 0
M  V30 204 H 15.2791 1.45173 0.716697 0
M  V30 205 H 17.2711 1.38091 3.80412 0
M  V30 206 H 15.8411 0.618627 3.06418 0
M  V30 207 H 15.0611 3.0413 2.50796 0
M  V30 208 H 16.3491 3.61146 3.58401 0
M  V30 209 H 15.7471 1.10841 5.54735 0
M  V30 210 H 14.3041 1.65178 6.30523 0
M  V30 211 N 17.7372 -0.778329 1.37039 0
M  V30 212 C 18.6702 -1.8984 1.26633 0
M  V30 213 C 19.6482 -1.61923 0.148197 0
M  V30 214 O 20.8322 -1.85742 0.321265 0
M  V30 215 C 17.9592 -3.24916 0.956403 0
M  V30 216 C 17.0052 -3.71752 2.09051 0
M  V30 217 S 17.8382 -3.86201 3.70957 0
M  V30 218 C 18.9942 -5.24135 3.42101 0
M  V30 219 H 19.2272 -1.98377 2.21436 0
M  V30 220 H 16.7602 -0.938738 1.22585 0
M  V30 221 H 18.7182 -4.02936 0.784409 0
M  V30 222 H 17.3792 -3.14089 0.0259713 0
M  V30 223 H 16.5722 -4.69661 1.8285 0
M  V30 224 H 16.1742 -3.00815 2.2223 0
M  V30 225 H 18.4662 -6.09086 2.96682 0
M  V30 226 H 19.4092 -5.55346 4.39314 0
M  V30 227 H 19.8172 -4.91761 2.77185 0
M  V30 228 N 19.2153 -1.21501 -1.00376 0
M  V30 229 C 20.6313 -0.972629 -1.26539 0
M  V30 230 C 20.8313 0.340257 -1.98606 0
M  V30 231 O 19.8873 1.06561 -2.28913 0
M  V30 232 C 21.2003 -2.16404 -2.08781 0
M  V30 233 C 22.7483 -2.20643 -2.22004 0
M  V30 234 C 23.2233 -3.39306 -3.07629 0
M  V30 235 N 24.7143 -3.39401 -3.15217 0
M  V30 236 C 25.4493 -4.27867 -3.81729 0
M  V30 237 N 24.9453 -5.26533 -4.5026 0
M  V30 238 N 26.7383 -4.15672 -3.78382 0
M  V30 239 H 18.8893 -2.05929 -0.520281 0
M  V30 240 H 21.1523 -0.901803 -0.292328 0
M  V30 241 H 20.8583 -3.11554 -1.63178 0
M  V30 242 H 20.7323 -2.15567 -3.09533 0
M  V30 243 H 23.1193 -1.26048 -2.66825 0
M  V30 244 H 23.2003 -2.25523 -1.20718 0
M  V30 245 H 22.8443 -4.34195 -2.63509 0
M  V30 246 H 22.7743 -3.31665 -4.09031 0
M  V30 247 H 25.2653 -2.67997 -2.66432 0
M  V30 248 H 25.5783 -5.90337 -4.98721 0
M  V30 249 H 23.9233 -5.30457 -4.49044 0
M  V30 250 H 27.1143 -3.3785 -3.23998 0
M  V30 251 H 27.2873 -4.84825 -4.2994 0
M  V30 252 N 20.6934 1.19889 -1.02296 0
M  V30 253 C 22.1044 1.71124 -0.746568 0
M  V30 254 C 22.4554 1.81939 0.734335 0
M  V30 255 O 21.5804 1.48639 1.57275 0
M  V30 256 C 22.1754 3.10804 -1.34857 0
M  V30 257 C 20.7344 3.59323 -1.1209 0
M  V30 258 C 19.8814 2.3635 -1.45031 0
M  V30 259 H 22.8324 1.04813 -1.19163 0
M  V30 260 H 22.8534 3.73186 -0.742437 0
M  V30 261 H 22.3654 3.029 -2.42638 0
M  V30 262 H 20.4664 3.7255 -0.0610337 0
M  V30 263 H 20.5794 4.4378 -1.80544 0
M  V30 264 H 18.9434 2.39399 -0.869487 0
M  V30 265 H 19.7264 2.31081 -2.53883 0
M  V30 266 N 22.1715 0.800033 1.35784 0
M  V30 267 C 23.1185 0.203848 2.29898 0
M  V30 268 C 24.0885 -0.658375 1.52495 0
M  V30 269 O 25.2735 -0.604832 1.8096 0
M  V30 270 C 22.4135 -0.64688 3.38983 0
M  V30 271 C 21.5265 0.235054 4.3136 0
M  V30 272 C 20.6615 -0.623054 5.27533 0
M  V30 273 C 19.7005 0.259682 6.11549 0
M  V30 274 N 18.8375 -0.558019 6.99879 0
M  V30 275 H 23.6775 1.01186 2.80295 0
M  V30 276 H 21.2145 0.51053 1.37957 0
M  V30 277 H 23.1725 -1.15521 4.00887 0
M  V30 278 H 21.8025 -1.42021 2.89879 0
M  V30 279 H 20.8545 0.861438 3.70518 0
M  V30 280 H 22.1665 0.914768 4.9034 0
M  V30 281 H 21.3205 -1.19678 5.94779 0
M  V30 282 H 20.0595 -1.33636 4.69034 0
M  V30 283 H 19.0645 0.845726 5.43256 0
M  V30 284 H 20.2895 0.970748 6.72126 0
M  V30 285 H 18.2355 -1.25542 6.43875 0
M  V30 286 H 18.1525 0.0637872 7.55973 0
M  V30 287 H 19.4205 -1.11523 7.71481 0
M  V30 288 N 23.6496 -1.47581 0.552962 0
M  V30 289 C 24.8776 -2.06875 0.0320556 0
M  V30 290 C 25.2926 -1.40625 -1.25976 0
M  V30 291 O 24.6496 -0.501349 -1.75479 0
M  V30 292 C 24.7006 -3.61092 -0.17167 0
M  V30 293 O 24.4216 -4.24858 1.06899 0
M  V30 294 C 25.9226 -4.37242 -0.730344 0
M  V30 295 H 23.1426 -0.669561 0.043915 0
M  V30 296 H 25.6866 -1.89646 0.765163 0
M  V30 297 H 23.8416 -3.7785 -0.854894 0
M  V30 298 H 24.2556 -5.17334 0.864059 0
M  V30 299 H 25.7296 -5.45842 -0.822203 0
M  V30 300 H 26.2066 -4.03235 -1.74064 0
M  V30 301 H 26.8126 -4.25219 -0.0829543 0
M  V30 302 N 25.1277 -0.289203 -1.54924 0
M  V30 303 C 26.3747 0.323519 -1.99899 0
M  V30 304 C 26.7027 1.54797 -1.17762 0
M  V30 305 O 25.9577 1.94237 -0.238835 0
M  V30 306 C 26.2567 0.736119 -3.49737 0
M  V30 307 C 25.9227 -0.385276 -4.49251 0
M  V30 308 C 24.5847 -0.693156 -4.76181 0
M  V30 309 C 26.9367 -1.14021 -5.08575 0
M  V30 310 C 24.2647 -1.7593 -5.59701 0
M  V30 311 C 26.6167 -2.19619 -5.93254 0
M  V30 312 C 25.2807 -2.51026 -6.185 0
M  V30 313 H 24.5507 0.118384 -0.731482 0
M  V30 314 H 27.1977 -0.405847 -1.8715 0
M  V30 315 H 25.5027 1.54539 -3.60035 0
M  V30 316 H 27.1997 1.22118 -3.81953 0
M  V30 317 H 23.7897 -0.135202 -4.28387 0
M  V30 318 H 27.9737 -0.915611 -4.87781 0
M  V30 319 H 23.2297 -2.0075 -5.77503 0
M  V30 320 H 27.4037 -2.78581 -6.38252 0
M  V30 321 H 25.0307 -3.33772 -6.83008 0
M  V30 322 N 26.6058 1.57591 -0.0167156 0
M  V30 323 C 28.0168 1.79201 0.523834 0
M  V30 324 C 28.3678 0.925796 1.72984 0
M  V30 325 O 27.4928 0.132792 2.15992 0
M  V30 326 C 28.0878 3.25 0.957091 0
M  V30 327 C 26.6468 3.47648 1.44283 0
M  V30 328 C 25.7938 2.74374 0.401757 0
M  V30 329 H 28.7448 1.56831 -0.242816 0
M  V30 330 H 28.7658 3.34031 1.82219 0
M  V30 331 H 28.2778 3.88019 0.0791415 0
M  V30 332 H 26.3788 2.89866 2.34113 0
M  V30 333 H 26.4918 4.56352 1.45877 0
M  V30 334 H 24.8558 2.39485 0.867121 0
M  V30 335 H 25.6388 3.40102 -0.467513 0
M  V30 336 N 28.0839 -0.256276 1.55502 0
M  V30 337 C 29.0469 -1.30047 1.88734 0
M  V30 338 C 30.0469 -1.4154 0.763086 0
M  V30 339 O 31.2369 -1.40403 1.03115 0
M  V30 340 C 28.3689 -2.67953 2.10747 0
M  V30 341 H 29.5619 -1.01802 2.82093 0
M  V30 342 H 27.1149 -0.495134 1.4825 0
M  V30 343 H 27.8499 -3.01351 1.19825 0
M  V30 344 H 27.6349 -2.60993 2.92617 0
M  V30 345 H 29.1249 -3.43368 2.37673 0
M  V30 346 N 29.562 -1.4872 -0.521534 0
M  V30 347 C 30.787 -1.61101 -1.30618 0
M  V30 348 C 31.212 -0.274611 -1.86085 0
M  V30 349 O 30.57 0.754937 -1.64834 0
M  V30 350 C 30.618 -2.66709 -2.4269 0
M  V30 351 O 29.722 -2.24456 -3.45967 0
M  V30 352 H 29.063 -0.539921 -0.386499 0
M  V30 353 H 31.593 -1.94767 -0.626645 0
M  V30 354 H 31.603 -2.88245 -2.88754 0
M  V30 355 H 30.278 -3.63727 -2.01682 0
M  V30 356 H 28.855 -2.13168 -3.05964 0
M  V30 357 N 31.0401 0.771051 -1.3745 0
M  V30 358 C 31.9881 1.90574 -1.33358 0
M  V30 359 C 32.9821 1.67936 -0.22224 0
M  V30 360 O 34.1881 1.75717 -0.390304 0
M  V30 361 H 30.5631 0.626714 -0.415612 0
M  V30 362 H 32.5341 1.91142 -2.29144 0
M  V30 363 C 31.2831 3.27845 -1.15813 0
M  V30 364 H 30.6061 3.45842 -2.00583 0
M  V30 365 H 32.0461 4.07538 -1.17 0
M  V30 366 C 30.5051 3.36625 0.136165 0
M  V30 367 O 31.0351 3.85785 1.11949 0
M  V30 368 N 29.2411 2.89997 0.187099 0
M  V30 369 H 28.7881 2.50182 -0.613753 0
M  V30 370 H 28.7461 2.96252 1.05272 0
M  V30 371 N 32.5182 1.22032 0.997298 0
M  V30 372 C 33.7482 1.06686 1.76923 0
M  V30 373 C 34.1562 -0.385838 1.85224 0
M  V30 374 O 33.4992 -1.27929 1.31833 0
M  V30 375 C 33.5612 1.59802 3.22031 0
M  V30 376 C 33.2252 3.08362 3.37286 0
M  V30 377 C 34.2222 4.05835 3.24952 0
M  V30 378 C 31.9072 3.47727 3.6248 0
M  V30 379 C 33.9012 5.4066 3.37588 0
M  V30 380 C 31.5882 4.82701 3.74757 0
M  V30 381 C 32.5862 5.78977 3.62319 0
M  V30 382 O 32.2742 7.11502 3.74193 0
M  V30 383 H 32.0062 0.374767 0.562606 0
M  V30 384 H 34.5602 1.61991 1.26286 0
M  V30 385 H 32.7902 0.989003 3.73839 0
M  V30 386 H 34.4792 1.40184 3.80924 0
M  V30 387 H 35.2452 3.76766 3.05405 0
M  V30 388 H 31.1242 2.73317 3.7124 0
M  V30 389 H 34.6682 6.15788 3.27796 0
M  V30 390 H 30.5652 5.11453 3.9381 0
M  V30 391 H 31.3332 7.19019 3.91093 0
M  V30 392 N 33.9963 -1.19345 1.0293 0
M  V30 393 C 35.2243 -1.92997 0.745644 0
M  V30 394 C 35.6393 -1.75519 -0.695589 0
M  V30 395 O 34.9963 -1.07737 -1.47306 0
M  V30 396 C 35.0473 -3.44741 1.08792 0
M  V30 397 O 34.7683 -3.61658 2.47256 0
M  V30 398 C 36.2693 -4.35515 0.827129 0
M  V30 399 H 33.4893 -0.613042 0.272801 0
M  V30 400 H 36.0333 -1.51473 1.3739 0
M  V30 401 H 34.1883 -3.84097 0.504832 0
M  V30 402 H 34.6023 -4.55514 2.60015 0
M  V30 403 H 36.0763 -5.40589 1.11658 0
M  V30 404 H 36.5533 -4.38552 -0.238436 0
M  V30 405 H 37.1593 -4.01841 1.39297 0
M  V30 406 N 35.4744 -0.807222 -1.35358 0
M  V30 407 C 36.7204 -0.388463 -1.99045 0
M  V30 408 C 37.0534 1.04184 -1.63888 0
M  V30 409 O 36.3284 1.72292 -0.902535 0
M  V30 410 C 36.6114 -0.572783 -3.55515 0
M  V30 411 C 36.4644 -2.04807 -4.00468 0
M  V30 412 C 37.7834 0.00114064 -4.401 0
M  V30 413 H 34.9024 -0.142619 -0.723069 0
M  V30 414 H 37.5444 -1.01687 -1.60498 0
M  V30 415 H 35.6944 -0.0378425 -3.88482 0
M  V30 416 H 37.3664 -2.64544 -3.77908 0
M  V30 417 H 35.6094 -2.54427 -3.51353 0
M  V30 418 H 36.2804 -2.12792 -5.09337 0
M  V30 419 H 38.7564 -0.455716 -4.13597 0
M  V30 420 H 37.6324 -0.157737 -5.48673 0
M  V30 421 H 37.8934 1.09488 -4.28328 0
M  V30 422 N 36.9525 1.47285 -0.560781 0
M  V30 423 C 38.1775 2.07359 -0.0410566 0
M  V30 424 C 38.6025 1.41017 1.24483 0
M  V30 425 O 37.9605 0.486368 1.74654 0
M  V30 426 C 38.0085 3.6035 0.134123 0
M  V30 427 O 37.1125 3.94681 1.19587 0
M  V30 428 H 36.4535 0.661887 -0.0529291 0
M  V30 429 H 38.9835 1.89252 -0.777482 0
M  V30 430 H 38.9935 4.0652 0.347207 0
M  V30 431 H 37.6685 4.08034 -0.805047 0
M  V30 432 H 36.2455 3.60251 0.962987 0
M  V30 433 N 38.4306 0.297415 1.54768 0
M  V30 434 C 39.6556 -0.318435 2.04941 0
M  V30 435 C 40.0806 -1.4701 1.17345 0
M  V30 436 O 39.4386 -1.80436 0.176758 0
M  V30 437 C 39.4866 -0.755749 3.52592 0
M  V30 438 O 38.5906 -1.86088 3.68028 0
M  V30 439 H 37.9316 -0.062421 0.661059 0
M  V30 440 H 40.4616 0.438215 1.99852 0
M  V30 441 H 40.4716 -1.04552 3.94376 0
M  V30 442 H 39.1466 0.0867233 4.1581 0
M  V30 443 H 37.7236 -1.57193 3.38149 0
M  V30 444 N 39.9087 -1.5758 0.0250728 0
M  V30 445 C 41.3247 -1.56124 -0.331282 0
M  V30 446 C 41.5247 -1.03029 -1.73169 0
M  V30 447 O 40.5807 -0.675215 -2.43305 0
M  V30 448 C 41.8937 -3.00139 -0.183584 0
M  V30 449 C 43.4417 -3.11946 -0.256654 0
M  V30 450 C 43.9167 -4.57793 -0.137792 0
M  V30 451 N 45.4077 -4.6279 -0.194904 0
M  V30 452 C 46.1427 -5.7326 -0.126655 0
M  V30 453 N 45.6387 -6.928 -0.00755288 0
M  V30 454 N 47.4317 -5.61811 -0.180348 0
M  V30 455 H 39.5827 -1.90424 0.94087 0
M  V30 456 H 41.8457 -0.875761 0.362968 0
M  V30 457 H 41.5517 -3.4292 0.780927 0
M  V30 458 H 41.4257 -3.64899 -0.955448 0
M  V30 459 H 43.8127 -2.69079 -1.21162 0
M  V30 460 H 43.8937 -2.49915 0.545517 0
M  V30 461 H 43.5377 -5.01339 0.813739 0
M  V30 462 H 43.4677 -5.17798 -0.958775 0
M  V30 463 H 45.9587 -3.76807 -0.287267 0
M  V30 464 H 46.2717 -7.72791 0.0379428 0
M  V30 465 H 44.6167 -6.94995 0.0271731 0
M  V30 466 H 47.8077 -4.6731 -0.271767 0
M  V30 467 H 47.9807 -6.47882 -0.123697 0
M  V30 468 N 41.3868 0.248026 -1.55636 0
M  V30 469 C 42.3188 1.32993 -1.8667 0
M  V30 470 C 43.3318 1.44345 -0.752877 0
M  V30 471 O 44.5208 1.45715 -1.03098 0
M  V30 472 C 41.6208 2.70863 -2.03682 0
M  V30 473 C 40.7938 2.81792 -3.34532 0
M  V30 474 C 39.8528 4.005 -3.41301 0
M  V30 475 O 38.8788 3.9008 -4.14519 0
M  V30 476 N 40.0808 5.13618 -2.70512 0
M  V30 477 H 42.8458 1.06707 -2.8006 0
M  V30 478 H 40.4068 0.438129 -1.55859 0
M  V30 479 H 42.3988 3.48612 -2.05553 0
M  V30 480 H 40.9688 2.89862 -1.17041 0
M  V30 481 H 40.1888 1.90729 -3.44987 0
M  V30 482 H 41.4768 2.86043 -4.20781 0
M  V30 483 H 40.8748 5.24975 -2.10755 0
M  V30 484 H 39.4318 5.89505 -2.78077 0
M  V30 485 N 42.8649 1.48995 0.513639 0
M  V30 486 C 43.7979 1.59319 1.63379 0
M  V30 487 C 44.7759 0.442816 1.56454 0
M  V30 488 O 45.9599 0.656655 1.76693 0
M  V30 489 C 43.0869 1.5364 3.01848 0
M  V30 490 C 42.1329 2.7372 3.27078 0
M  V30 491 S 42.9659 4.35528 3.1157 0
M  V30 492 C 44.1219 4.32473 4.52458 0
M  V30 493 H 44.3549 2.54079 1.54374 0
M  V30 494 H 41.8879 1.3773 0.697849 0
M  V30 495 H 43.8459 1.51049 3.81699 0
M  V30 496 H 42.5069 0.601898 3.08279 0
M  V30 497 H 41.6999 2.6593 4.28132 0
M  V30 498 H 41.3019 2.73657 2.54927 0
M  V30 499 H 43.5939 4.03414 5.44301 0
M  V30 500 H 44.5369 5.33762 4.65299 0
M  V30 501 H 44.9449 3.62718 4.32546 0
M  V30 502 N 44.343 -0.763751 1.37857 0
M  V30 503 C 45.273 -1.89103 1.36975 0
M  V30 504 C 46.254 -1.68439 0.237152 0
M  V30 505 O 47.439 -1.8918 0.438713 0
M  V30 506 C 44.569 -3.26496 1.18395 0
M  V30 507 C 43.523 -3.61741 2.28751 0
M  V30 508 C 42.849 -4.97762 1.95286 0
M  V30 509 C 44.149 -3.67665 3.70972 0
M  V30 510 H 45.843 -1.90099 2.31307 0
M  V30 511 H 43.389 -0.91319 1.11341 0
M  V30 512 H 45.342 -4.05003 1.16406 0
M  V30 513 H 44.066 -3.25955 0.205215 0
M  V30 514 H 42.725 -2.85547 2.29909 0
M  V30 515 H 42.373 -4.93769 0.959221 0
M  V30 516 H 42.073 -5.22313 2.69189 0
M  V30 517 H 43.597 -5.7866 1.94898 0
M  V30 518 H 45.011 -4.36307 3.719 0
M  V30 519 H 43.408 -4.03718 4.43995 0
M  V30 520 H 44.478 -2.68134 4.0402 0
M  V30 521 N 45.8211 -1.22559 -0.990812 0
M  V30 522 C 46.7531 -0.955325 -2.08342 0
M  V30 523 C 47.7661 0.0668408 -1.62663 0
M  V30 524 O 48.9551 -0.167421 -1.77713 0
M  V30 525 C 46.0551 -0.415566 -3.36342 0
M  V30 526 C 45.2281 -1.49544 -4.11042 0
M  V30 527 C 44.2871 -0.962399 -5.17324 0
M  V30 528 O 43.3131 -1.64907 -5.44788 0
M  V30 529 N 44.5151 0.215134 -5.80101 0
M  V30 530 H 47.2801 -1.89596 -2.32106 0
M  V30 531 H 44.8411 -1.13276 -1.15673 0
M  V30 532 H 46.8331 -0.0442386 -4.04676 0
M  V30 533 H 45.4031 0.430232 -3.09625 0
M  V30 534 H 44.6231 -2.04 -3.37309 0
M  V30 535 H 45.9111 -2.22195 -4.57719 0
M  V30 536 H 45.3091 0.789779 -5.6016 0
M  V30 537 H 43.8661 0.527826 -6.49659 0
M  V30 538 N 47.2992 1.18797 -1.03562 0
M  V30 539 C 48.2092 2.25913 -0.632505 0
M  V30 540 C 49.2252 1.70668 0.338882 0
M  V30 541 O 50.4012 2.00453 0.195076 0
M  V30 542 C 47.4662 3.467 0.00350942 0
M  V30 543 C 46.5272 4.17098 -1.01624 0
M  V30 544 C 45.7602 5.32119 -0.410478 0
M  V30 545 O 45.9832 5.64976 0.784725 0
M  V30 546 O 44.9172 5.9107 -1.13667 0
M  V30 547 H 48.7432 2.62648 -1.52478 0
M  V30 548 H 46.3282 1.25781 -0.806195 0
M  V30 549 H 48.2102 4.19878 0.35781 0
M  V30 550 H 46.8852 3.11798 0.869686 0
M  V30 551 H 45.7922 3.4601 -1.42224 0
M  V30 552 H 47.1252 4.55987 -1.85301 0
M  V30 553 N 48.7773 0.814389 1.34928 0
M  V30 554 C 50.0263 0.394871 1.97797 0
M  V30 555 C 50.3393 -1.04555 1.65311 0
M  V30 556 O 51.5453 -1.56856 2.21604 0
M  V30 557 C 50.0013 0.655103 3.53888 0
M  V30 558 C 49.6093 2.10858 3.95276 0
M  V30 559 C 51.3533 0.301329 4.23429 0
M  V30 560 C 49.2603 2.31415 5.44244 0
M  V30 561 H 48.1903 0.143913 0.740139 0
M  V30 562 H 50.8413 0.999544 1.53888 0
M  V30 563 H 49.2233 -0.0196253 3.95995 0
M  V30 564 H 50.3973 2.82176 3.64298 0
M  V30 565 H 48.7123 2.42297 3.38646 0
M  V30 566 H 51.3093 0.432869 5.32945 0
M  V30 567 H 51.6523 -0.75331 4.09428 0
M  V30 568 H 52.1853 0.930288 3.86769 0
M  V30 569 H 48.9243 3.35353 5.63222 0
M  V30 570 H 48.4443 1.6463 5.76764 0
M  V30 571 H 50.1233 2.13352 6.10811 0
M  V30 572 N 50.2554 -1.46986 0.568584 0
M  V30 573 C 51.6714 -1.57946 0.229189 0
M  V30 574 C 51.8714 -1.56567 -1.26843 0
M  V30 575 O 50.9274 -1.47511 -2.04931 0
M  V30 576 C 52.2404 -2.87963 0.865909 0
M  V30 577 C 53.7884 -3.01568 0.838188 0
M  V30 578 C 54.2634 -4.34301 1.45419 0
M  V30 579 N 55.7544 -4.40965 1.41788 0
M  V30 580 C 56.4894 -5.42256 1.86403 0
M  V30 581 N 55.9854 -6.50297 2.38926 0
M  V30 582 N 57.7784 -5.3337 1.77405 0
M  V30 583 H 49.9294 -1.46126 1.54146 0
M  V30 584 H 52.1924 -0.696156 0.643484 0
M  V30 585 H 51.8984 -2.94742 1.91886 0
M  V30 586 H 51.7724 -3.75423 0.365687 0
M  V30 587 H 54.1594 -2.94379 -0.206106 0
M  V30 588 H 54.2404 -2.1562 1.37629 0
M  V30 589 H 53.8844 -4.42247 2.49761 0
M  V30 590 H 53.8144 -5.19 0.891435 0
M  V30 591 H 56.3054 -3.63484 1.03381 0
M  V30 592 H 56.6184 -7.23777 2.70863 0
M  V30 593 H 54.9634 -6.51155 2.42944 0
M  V30 594 H 58.1544 -4.47865 1.3614 0
M  V30 595 H 58.3274 -6.12169 2.12492 0
M  V30 596 N 51.7335 -0.305618 -1.54608 0
M  V30 597 C 52.6435 0.57778 -2.27374 0
M  V30 598 C 53.6595 1.14451 -1.31061 0
M  V30 599 O 54.8355 1.16831 -1.6405 0
M  V30 600 C 51.9005 1.73123 -3.00382 0
M  V30 601 C 50.9615 1.19812 -4.12242 0
M  V30 602 C 50.1945 2.2966 -4.81759 0
M  V30 603 O 50.4175 3.49651 -4.50666 0
M  V30 604 O 49.3515 1.96091 -5.69062 0
M  V30 605 H 53.1775 -0.012624 -3.03697 0
M  V30 606 H 50.7625 -0.0719184 -1.49227 0
M  V30 607 H 52.6445 2.40315 -3.4616 0
M  V30 608 H 51.3195 2.30815 -2.26949 0
M  V30 609 H 50.2265 0.491798 -3.70853 0
M  V30 610 H 51.5595 0.666566 -4.87666 0
M  V30 611 N 53.2116 1.57565 -0.0334293 0
M  V30 612 C 54.4366 1.96689 0.657895 0
M  V30 613 C 54.8616 0.910057 1.64619 0
M  V30 614 O 54.2196 -0.128598 1.80843 0
M  V30 615 C 54.2676 3.34905 1.33683 0
M  V30 616 O 53.3716 3.31574 2.45219 0
M  V30 617 H 52.7126 0.641205 0.172489 0
M  V30 618 H 55.2426 2.04372 -0.0965621 0
M  V30 619 H 55.2526 3.71234 1.69262 0
M  V30 620 H 53.9276 4.11366 0.612411 0
M  V30 621 H 52.5046 3.06968 2.11719 0
M  V30 622 N 54.6897 -0.239769 1.55765 0
M  V30 623 C 55.6197 -1.30052 1.9393 0
M  V30 624 C 56.6007 -1.49839 0.805132 0
M  V30 625 O 57.7857 -1.62328 1.06599 0
M  V30 626 C 54.9157 -2.65391 2.2402 0
M  V30 627 C 53.8697 -2.60289 3.39755 0
M  V30 628 C 53.1957 -3.99489 3.55405 0
M  V30 629 C 54.4957 -2.16654 4.75246 0
M  V30 630 H 56.1897 -0.983573 2.82783 0
M  V30 631 H 53.7357 -0.471701 1.36055 0
M  V30 632 H 55.6887 -3.3974 2.49308 0
M  V30 633 H 54.4127 -2.98736 1.32 0
M  V30 634 H 53.0717 -1.88398 3.14487 0
M  V30 635 H 52.7197 -4.30112 2.60793 0
M  V30 636 H 52.4197 -3.96962 4.33238 0
M  V30 637 H 53.9437 -4.75528 3.83022 0
M  V30 638 H 55.3577 -2.80737 4.99859 0
M  V30 639 H 53.7547 -2.25223 5.56232 0
M  V30 640 H 54.8247 -1.11835 4.71827 0
M  V30 641 N 56.1678 -1.49265 -0.50573 0
M  V30 642 C 57.5838 -1.35923 -0.836486 0
M  V30 643 C 57.7838 -0.388704 -1.97715 0
M  V30 644 O 56.8398 0.181336 -2.51848 0
M  V30 645 C 58.1528 -2.76531 -1.18115 0
M  V30 646 C 59.7008 -2.85197 -1.28964 0
M  V30 647 C 60.1758 -4.26561 -1.66761 0
M  V30 648 N 61.6668 -4.2935 -1.73819 0
M  V30 649 C 62.4018 -5.35693 -2.045 0
M  V30 650 N 61.8978 -6.52287 -2.33438 0
M  V30 651 N 63.6908 -5.23105 -2.05711 0
M  V30 652 H 55.8418 -2.10965 0.246519 0
M  V30 653 H 58.1048 -0.9468 0.0476887 0
M  V30 654 H 57.8108 -3.49226 -0.416398 0
M  V30 655 H 57.6848 -3.11599 -2.1257 0
M  V30 656 H 60.0718 -2.12742 -2.04511 0
M  V30 657 H 60.1528 -2.53718 -0.325704 0
M  V30 658 H 59.7968 -4.99541 -0.917656 0
M  V30 659 H 59.7268 -4.55502 -2.64246 0
M  V30 660 H 62.2178 -3.4526 -1.53635 0
M  V30 661 H 62.5308 -7.29158 -2.56024 0
M  V30 662 H 60.8758 -6.55521 -2.30905 0
M  V30 663 H 64.0668 -4.31026 -1.82577 0
M  V30 664 H 64.2398 -6.06078 -2.29289 0
M  V30 665 N 57.6459 0.756429 -1.3826 0
M  V30 666 C 58.5939 1.89149 -1.35372 0
M  V30 667 C 59.5879 1.67691 -0.24004 0
M  V30 668 O 60.7939 1.75294 -0.408919 0
M  V30 669 H 57.1689 0.622271 -0.422236 0
M  V30 670 H 59.1399 1.88701 -2.31159 0
M  V30 671 C 57.8889 3.26599 -1.19284 0
M  V30 672 H 57.2119 3.43695 -2.0424 0
M  V30 673 H 58.6519 4.06274 -1.21316 0
M  V30 674 C 57.1109 3.3675 0.100454 0
M  V30 675 O 57.6409 3.86951 1.07851 0
M  V30 676 N 55.8469 2.90179 0.15633 0
M  V30 677 H 55.3939 2.49517 -0.640253 0
M  V30 678 H 55.3519 2.97352 1.02123 0
M  V30 679 N 59.124 1.23083 0.984299 0
M  V30 680 C 60.054 1.03292 2.09411 0
M  V30 681 C 61.035 -0.048923 1.7003 0
M  V30 682 O 62.22 0.114967 1.93859 0
M  V30 683 C 59.35 0.619155 3.41736 0
M  V30 684 C 58.304 1.64791 3.95004 0
M  V30 685 C 57.63 1.0897 5.23478 0
M  V30 686 C 58.93 3.03999 4.24714 0
M  V30 687 H 60.624 1.96119 2.26225 0
M  V30 688 H 58.17 0.944344 1.08711 0
M  V30 689 H 60.123 0.467777 4.18796 0
M  V30 690 H 58.847 -0.344786 3.24775 0
M  V30 691 H 57.506 1.78721 3.20085 0
M  V30 692 H 57.154 0.11686 5.02864 0
M  V30 693 H 56.854 1.77704 5.60085 0
M  V30 694 H 58.378 0.950093 6.03163 0
M  V30 695 H 59.792 2.93393 4.92538 0
M  V30 696 H 58.189 3.69936 4.72512 0
M  V30 697 H 59.259 3.53285 3.32142 0
M  V30 698 N 60.6021 -1.18246 1.0419 0
M  V30 699 C 61.8271 -1.92736 0.765996 0
M  V30 700 C 62.2521 -1.75728 -0.67091 0
M  V30 701 O 61.6101 -1.06825 -1.46486 0
M  V30 702 C 61.6581 -3.42148 1.13875 0
M  V30 703 O 60.7621 -4.11548 0.264954 0
M  V30 704 H 60.1031 -0.601238 0.281797 0
M  V30 705 H 62.6331 -1.49942 1.39207 0
M  V30 706 H 62.6431 -3.92858 1.1012 0
M  V30 707 H 61.3181 -3.53848 2.18551 0
M  V30 708 H 59.8951 -3.71137 0.362226 0
M  V30 709 N 62.0802 -0.821533 -1.34494 0
M  V30 710 C 63.0272 -0.240397 -2.29545 0
M  V30 711 C 63.9972 0.634031 -1.53523 0
M  V30 712 O 65.1822 0.575966 -1.81899 0
M  V30 713 C 62.3222 0.592869 -3.39969 0
M  V30 714 C 61.4352 -0.30365 -4.30932 0
M  V30 715 C 60.5702 0.539049 -5.28458 0
M  V30 716 C 59.6092 -0.356942 -6.11058 0
M  V30 717 N 58.7462 0.446603 -7.00678 0
M  V30 718 H 63.5862 -1.05632 -2.7865 0
M  V30 719 H 61.1232 -0.532413 -1.37127 0
M  V30 720 H 63.0812 1.09129 -4.02675 0
M  V30 721 H 61.7112 1.37392 -2.92102 0
M  V30 722 H 60.7632 -0.920276 -3.691 0
M  V30 723 H 62.0752 -0.992661 -4.88823 0
M  V30 724 H 61.2292 1.102 -5.96608 0
M  V30 725 H 59.9682 1.26157 -4.71101 0
M  V30 726 H 58.9732 -0.932047 -5.41842 0
M  V30 727 H 60.1982 -1.07755 -6.70497 0
M  V30 728 H 58.1442 1.15282 -6.45791 0
M  V30 729 H 58.0612 -0.184048 -7.55776 0
M  V30 730 H 59.3292 0.992352 -7.73158 0
M  V30 731 N 63.5583 1.46682 -0.576371 0
M  V30 732 C 64.9693 1.86112 -0.148091 0
M  V30 733 C 65.3203 1.48073 1.2872 0
M  V30 734 O 64.4453 0.892656 1.97131 0
M  V30 735 C 65.0403 3.37786 -0.261982 0
M  V30 736 C 63.5993 3.76235 0.111384 0
M  V30 737 C 62.7463 2.70713 -0.60083 0
M  V30 738 H 65.6973 1.37927 -0.78497 0
M  V30 739 H 65.7183 3.77007 0.514364 0
M  V30 740 H 65.2303 3.6544 -1.30671 0
M  V30 741 H 63.3313 3.54198 1.15649 0
M  V30 742 H 63.4443 4.78391 -0.26052 0
M  V30 743 H 61.8083 2.54666 -0.0417783 0
M  V30 744 H 62.5913 3.01208 -1.64708 0
M  V30 745 N 65.0364 0.313813 1.54444 0
M  V30 746 C 66.2614 -0.296681 2.05267 0
M  V30 747 C 66.6864 -1.45757 1.18897 0
M  V30 748 O 66.0444 -1.80239 0.195886 0
M  V30 749 C 66.0924 -0.71831 3.53373 0
M  V30 750 O 65.1964 -1.82175 3.69981 0
M  V30 751 H 64.5374 -0.0554061 0.661684 0
M  V30 752 H 67.0674 0.459387 1.99376 0
M  V30 753 H 67.0774 -1.00364 3.95463 0
M  V30 754 H 65.7524 0.130821 4.15694 0
M  V30 755 H 64.3294 -1.53598 3.39797 0
M  V30 756 N 66.5145 -1.57545 0.0417849 0
M  V30 757 C 67.7915 -1.83642 -0.673433 0
M  V30 758 C 68.1715 -0.928298 -1.89594 0
M  V30 759 O 67.5195 0.0129955 -2.28496 0
M  V30 760 C 67.7295 -3.33155 -1.03964 0
M  V30 761 C 69.0775 -3.99941 -1.42592 0
M  V30 762 O 70.1015 -3.37725 -1.13226 0
M  V30 763 O 68.9605 -5.09619 -1.9736 0
M  V30 764 H 66.0545 -0.757638 -0.331533 0
M  V30 765 H 68.6005 -1.69554 0.070433 0
M  V30 766 H 67.3725 -3.9093 -0.170098 0
M  V30 767 H 66.9955 -3.52396 -1.84126 0
M  V30 768 N 67.9926 0.231505 -1.5589 0
M  V30 769 C 68.9556 1.27028 -1.90779 0
M  V30 770 C 69.9556 1.40308 -0.785507 0
M  V30 771 O 71.1456 1.38744 -1.05336 0
M  V30 772 C 68.2776 2.64566 -2.14983 0
M  V30 773 H 69.4706 0.973017 -2.83677 0
M  V30 774 H 67.0236 0.471486 -1.49019 0
M  V30 775 H 67.7586 2.99406 -1.24604 0
M  V30 776 H 67.5436 2.56305 -2.96732 0
M  V30 777 H 69.0336 3.39543 -2.43105 0
M  V30 778 N 69.4707 1.49531 0.497807 0
M  V30 779 C 70.4337 1.65916 1.58128 0
M  V30 780 C 71.4337 0.530825 1.51786 0
M  V30 781 O 72.6237 0.797342 1.54881 0
M  V30 782 C 69.7557 1.65951 2.9778 0
M  V30 783 H 70.9487 2.62556 1.44929 0
M  V30 784 H 68.5017 1.38611 0.722275 0
M  V30 785 H 69.2367 0.709065 3.16453 0
M  V30 786 H 69.0217 2.47897 3.03792 0
M  V30 787 H 70.5117 1.80673 3.76493 0
M  V30 788 N 70.9488 -0.749086 1.3866 0
M  V30 789 C 71.8958 -1.86291 1.36251 0
M  V30 790 C 72.8658 -1.64578 0.224347 0
M  V30 791 O 74.0508 -1.86181 0.417279 0
M  V30 792 C 71.1908 -3.23644 1.19786 0
M  V30 793 C 70.3038 -3.57158 2.43027 0
M  V30 794 C 69.4388 -4.83838 2.19258 0
M  V30 795 C 68.4778 -5.10152 3.38247 0
M  V30 796 N 67.6148 -6.28029 3.13884 0
M  V30 797 H 72.4548 -1.87685 2.3147 0
M  V30 798 H 69.9918 -0.917287 1.14997 0
M  V30 799 H 71.9498 -4.0291 1.08254 0
M  V30 800 H 70.5798 -3.21566 0.282031 0
M  V30 801 H 69.6318 -2.72701 2.65214 0
M  V30 802 H 70.9438 -3.7253 3.31697 0
M  V30 803 H 70.0978 -5.71057 2.04888 0
M  V30 804 H 68.8368 -4.70614 1.2796 0
M  V30 805 H 67.8418 -4.21401 3.53131 0
M  V30 806 H 69.0668 -5.25271 4.30427 0
M  V30 807 H 67.0128 -6.1612 2.25238 0
M  V30 808 H 66.9298 -6.43922 3.96106 0
M  V30 809 H 68.1978 -7.18124 3.03179 0
M  V30 810 N 72.4269 -1.23603 -0.977757 0
M  V30 811 C 73.3899 -1.02069 -2.05218 0
M  V30 812 C 74.3899 0.0184305 -1.60789 0
M  V30 813 O 75.5799 -0.221569 -1.72785 0
M  V30 814 C 72.7119 -0.544926 -3.36517 0
M  V30 815 H 73.9049 -1.9742 -2.25755 0
M  V30 816 H 71.4579 -1.05684 -1.15155 0
M  V30 817 H 72.1929 0.412241 -3.21669 0
M  V30 818 H 71.9779 -1.2948 -3.70105 0
M  V30 819 H 73.4679 -0.414985 -4.15533 0
M  V30 820 N 73.905 1.17692 -1.04816 0
M  V30 821 C 74.815 2.25229 -0.65643 0
M  V30 822 C 75.831 1.71018 0.320761 0
M  V30 823 O 77.007 2.00649 0.173805 0
M  V30 824 C 74.072 3.46684 -0.0332629 0
M  V30 825 C 73.133 4.15997 -1.06042 0
M  V30 826 C 72.366 5.31654 -0.466893 0
M  V30 827 O 72.589 5.65777 0.724758 0
M  V30 828 O 71.523 5.89831 -1.1993 0
M  V30 829 H 75.349 2.61016 -1.55255 0
M  V30 830 H 72.934 1.24919 -0.81949 0
M  V30 831 H 74.816 4.20234 0.313256 0
M  V30 832 H 73.491 3.12703 0.836566 0
M  V30 833 H 72.398 3.44482 -1.45886 0
M  V30 834 H 73.731 4.53996 -1.90127 0
M  V30 835 N 75.3831 0.828654 1.34056 0
M  V30 836 C 76.3331 0.226828 2.26869 0
M  V30 837 C 77.3171 -0.612243 1.48796 0
M  V30 838 O 78.5091 -0.465884 1.70759 0
M  V30 839 C 75.6381 -0.605654 3.37915 0
M  V30 840 C 74.7241 0.244361 4.23395 0
M  V30 841 N 75.1151 1.31815 4.88322 0
M  V30 842 C 73.4131 0.0296616 4.4599 0
M  V30 843 C 74.1141 1.83895 5.51867 0
M  V30 844 N 73.0901 1.14196 5.3147 0
M  V30 845 H 76.8921 1.04811 2.74576 0
M  V30 846 H 74.4061 0.67205 1.47842 0
M  V30 847 H 76.4031 -1.05302 4.03382 0
M  V30 848 H 75.0631 -1.42504 2.91758 0
M  V30 849 H 76.0741 1.70099 4.8917 0
M  V30 850 H 72.7511 -0.757097 4.10578 0
M  V30 851 H 74.1411 2.7376 6.136 0
M  V30 852 N 76.8612 -1.46375 0.584142 0
M  V30 853 C 77.8092 -2.32042 -0.161047 0
M  V30 854 C 78.8032 -1.44569 -0.882966 0
M  V30 855 O 80.0092 -1.61186 -0.801191 0
M  V30 856 H 76.3842 -0.748659 -0.0708033 0
M  V30 857 H 78.3552 -2.92704 0.580269 0
M  V30 858 C 77.1042 -3.27762 -1.1605 0
M  V30 859 H 76.4272 -3.95051 -0.614419 0
M  V30 860 H 77.8672 -3.90481 -1.65228 0
M  V30 861 C 76.3262 -2.53218 -2.22221 0
M  V30 862 O 76.8562 -2.29628 -3.29597 0
M  V30 863 N 75.0622 -2.13756 -1.96868 0
M  V30 864 H 74.6092 -2.33142 -1.09557 0
M  V30 865 H 74.5672 -1.642 -2.68115 0
M  V30 866 N 78.3393 -0.321999 -1.54275 0
M  V30 867 C 79.2723 0.58718 -2.20516 0
M  V30 868 C 80.2503 1.11693 -1.18167 0
M  V30 869 O 81.4343 1.18122 -1.46899 0
M  V30 870 C 78.5613 1.80554 -2.86562 0
M  V30 871 C 77.6073 1.40718 -4.02617 0
M  V30 872 S 78.4403 0.445218 -5.33646 0
M  V30 873 C 79.5963 1.6709 -6.03185 0
M  V30 874 H 79.8293 0.0244875 -2.9729 0
M  V30 875 H 77.3623 -0.106087 -1.54035 0
M  V30 876 H 79.3203 2.50462 -3.25237 0
M  V30 877 H 77.9813 2.33942 -2.09595 0
M  V30 878 H 77.1743 2.31501 -4.47687 0
M  V30 879 H 76.7763 0.78782 -3.65608 0
M  V30 880 H 79.0683 2.60856 -6.25268 0
M  V30 881 H 80.0113 1.26239 -6.96756 0
M  V30 882 H 80.4193 1.85716 -5.33076 0
M  V30 883 N 79.8174 1.5752 -0.0501392 0
M  V30 884 C 81.0424 1.97376 0.636997 0
M  V30 885 C 81.4674 0.927466 1.63645 0
M  V30 886 O 80.8254 -0.10941 1.8097 0
M  V30 887 C 80.8734 3.36304 1.30123 0
M  V30 888 O 79.9774 3.34156 2.41689 0
M  V30 889 H 79.3184 0.642998 0.165679 0
M  V30 890 H 81.8484 2.04258 -0.118233 0
M  V30 891 H 81.8584 3.73008 1.65315 0
M  V30 892 H 80.5334 4.11993 0.568746 0
M  V30 893 H 79.1104 3.09196 2.08451 0
M  V30 894 N 81.2955 -0.223234 1.56011 0
M  V30 895 C 82.2425 -1.27664 1.92277 0
M  V30 896 C 83.2125 -1.46659 0.779763 0
M  V30 897 O 84.3975 -1.60256 1.03551 0
M  V30 898 C 81.5375 -2.62234 2.24338 0
M  V30 899 C 80.6505 -2.51051 3.51564 0
M  V30 900 C 79.7855 -3.78133 3.7308 0
M  V30 901 C 78.8245 -3.61665 4.93827 0
M  V30 902 N 77.9615 -4.80693 5.11741 0
M  V30 903 H 82.8015 -0.960358 2.82101 0
M  V30 904 H 80.3385 -0.462901 1.39627 0
M  V30 905 H 82.2965 -3.40596 2.40936 0
M  V30 906 H 80.9265 -2.91961 1.3769 0
M  V30 907 H 79.9785 -1.64132 3.43169 0
M  V30 908 H 81.2905 -2.34803 4.40079 0
M  V30 909 H 80.4445 -4.64938 3.89766 0
M  V30 910 H 79.1835 -3.97304 2.82844 0
M  V30 911 H 78.1885 -2.73244 4.77093 0
M  V30 912 H 79.4135 -3.43966 5.85546 0
M  V30 913 H 77.3595 -5.00181 4.24446 0
M  V30 914 H 77.2765 -4.67165 5.94384 0
M  V30 915 H 78.5445 -5.6893 5.3286 0
M  V30 916 N 82.7736 -1.49793 -0.48987 0
M  V30 917 C 83.7066 -1.61898 -1.60823 0
M  V30 918 C 84.6846 -0.467651 -1.5573 0
M  V30 919 O 85.8686 -0.684682 -1.75626 0
M  V30 920 C 82.9956 -1.58422 -2.99366 0
M  V30 921 C 82.0416 -2.78889 -3.22682 0
M  V30 922 S 82.8746 -4.40429 -3.04602 0
M  V30 923 C 84.0306 -4.39617 -4.4552 0
M  V30 924 H 84.2636 -2.56502 -1.50312 0
M  V30 925 H 81.7966 -1.38822 -0.675849 0
M  V30 926 H 83.7546 -1.57103 -3.79248 0
M  V30 927 H 82.4156 -0.650866 -3.07283 0
M  V30 928 H 81.6086 -2.72708 -4.23847 0
M  V30 929 H 81.2106 -2.77678 -2.50541 0
M  V30 930 H 83.5026 -4.12022 -5.37814 0
M  V30 931 H 84.4456 -5.41097 -4.56749 0
M  V30 932 H 84.8536 -3.69554 -4.2672 0
M  V30 933 N 84.2517 0.741722 -1.39055 0
M  V30 934 C 85.4767 1.53607 -1.39354 0
M  V30 935 C 85.9017 1.88096 0.0116905 0
M  V30 936 O 85.2597 1.5143 0.996924 0
M  V30 937 C 85.3077 2.80441 -2.26682 0
M  V30 938 O 84.4117 3.76088 -1.69208 0
M  V30 939 H 83.7527 0.464142 -0.474835 0
M  V30 940 H 86.2827 0.915665 -1.82967 0
M  V30 941 H 86.2927 3.29246 -2.40959 0
M  V30 942 H 84.9677 2.5467 -3.2881 0
M  V30 943 H 83.5447 3.34833 -1.64138 0
M  V30 944 N 85.7298 1.2412 0.971189 0
M  V30 945 C 86.9578 1.10575 1.74874 0
M  V30 946 C 87.3728 -0.342017 1.85676 0
M  V30 947 O 86.7298 -1.23617 1.34258 0
M  V30 948 C 86.7808 1.73579 3.171 0
M  V30 949 O 86.5018 3.12695 3.06844 0
M  V30 950 C 88.0028 1.65598 4.11208 0
M  V30 951 H 85.2228 0.386504 0.548503 0
M  V30 952 H 87.7668 1.64156 1.21955 0
M  V30 953 H 85.9218 1.24009 3.67016 0
M  V30 954 H 86.3358 3.43412 3.96445 0
M  V30 955 H 87.8098 2.1437 5.08674 0
M  V30 956 H 88.2868 0.616532 4.34851 0
M  V30 957 H 88.8928 2.14578 3.67201 0
M  V30 958 N 87.2079 -1.17134 1.05439 0
M  V30 959 C 88.1179 -2.24878 0.668365 0
M  V30 960 C 89.1339 -1.71186 -0.311687 0
M  V30 961 O 90.3099 -2.00738 -0.163161 0
M  V30 962 C 87.3749 -3.46662 0.051648 0
M  V30 963 C 86.4359 -4.15429 1.08246 0
M  V30 964 C 85.6689 -5.31399 0.495082 0
M  V30 965 O 85.8919 -5.66153 -0.694743 0
M  V30 966 O 84.8259 -5.89187 1.23056 0
M  V30 967 H 88.6519 -2.60189 1.56637 0
M  V30 968 H 86.2369 -1.24482 0.826104 0
M  V30 969 H 88.1189 -4.20394 -0.290966 0
M  V30 970 H 86.7939 -3.13142 -0.819971 0
M  V30 971 H 85.7009 -3.43704 1.47711 0
M  V30 972 H 87.0339 -4.52982 1.92532 0
M  V30 973 N 88.686 -0.835752 -1.33615 0
M  V30 974 C 89.963 -0.352017 -1.92406 0
M  V30 975 C 90.343 1.16225 -1.76224 0
M  V30 976 O 89.691 1.97526 -1.14873 0
M  V30 977 C 89.901 -0.795485 -3.39813 0
M  V30 978 C 91.249 -0.801703 -4.16963 0
M  V30 979 O 92.273 -0.738889 -3.48452 0
M  V30 980 O 91.132 -0.886607 -5.3926 0
M  V30 981 H 88.226 -0.0989641 -0.821057 0
M  V30 982 H 90.772 -0.921397 -1.42507 0
M  V30 983 H 89.544 -1.83795 -3.45449 0
M  V30 984 H 89.167 -0.202505 -3.97084 0
M  V30 985 N 90.1641 1.46063 -0.591896 0
M  V30 986 C 91.5751 1.85944 -0.167822 0
M  V30 987 C 91.9261 1.49429 1.27143 0
M  V30 988 O 91.0511 0.913515 1.96173 0
M  V30 989 C 91.6461 3.37489 -0.297794 0
M  V30 990 C 90.2051 3.76332 0.0714732 0
M  V30 991 C 89.3521 2.7006 -0.629509 0
M  V30 992 H 92.3031 1.37087 -0.799555 0
M  V30 993 H 92.3241 3.77532 0.474349 0
M  V30 994 H 91.8361 3.64034 -1.3454 0
M  V30 995 H 89.9371 3.55405 1.11886 0
M  V30 996 H 90.0501 4.78088 -0.311245 0
M  V30 997 H 88.4141 2.54607 -0.0687867 0
M  V30 998 H 89.1971 2.99444 -1.67894 0
M  V30 999 N 91.6422 0.330177 1.54103 0
M  V30 1000 C 93.0582 -0.0222371 1.59585 0
M  V30 1001 C 93.2582 -1.49902 1.34654 0
M  V30 1002 O 92.3142 -2.25592 1.13421 0
M  V30 1003 C 93.6272 0.401932 2.98002 0
M  V30 1004 C 95.1752 0.353145 3.11001 0
M  V30 1005 C 95.6502 0.752576 4.51775 0
M  V30 1006 N 97.1412 0.706239 4.57784 0
M  V30 1007 C 97.8762 0.987417 5.64834 0
M  V30 1008 N 97.3722 1.33607 6.79795 0
M  V30 1009 N 99.1652 0.91254 5.54643 0
M  V30 1010 H 91.3162 1.29228 1.68564 0
M  V30 1011 H 93.5792 0.525906 0.78875 0
M  V30 1012 H 93.2852 1.4311 3.21267 0
M  V30 1013 H 93.1592 -0.229699 3.765 0
M  V30 1014 H 95.5462 -0.666822 2.87467 0
M  V30 1015 H 95.6272 1.0198 2.34593 0
M  V30 1016 H 95.2712 1.77049 4.76042 0
M  V30 1017 H 95.2012 0.0635409 5.26562 0
M  V30 1018 H 97.6922 0.44889 3.75224 0
M  V30 1019 H 98.0052 1.53582 7.57385 0
M  V30 1020 H 96.3502 1.37439 6.81275 0
M  V30 1021 H 99.5412 0.639601 4.6371 0
M  V30 1022 H 99.7142 1.13503 6.37982 0
M  V30 1023 N 93.1203 -1.57491 0.0584922 0
M  V30 1024 C 94.0523 -2.08916 -0.942694 0
M  V30 1025 C 95.0653 -1.0185 -1.27006 0
M  V30 1026 O 96.2543 -1.29398 -1.22957 0
M  V30 1027 C 93.3543 -2.52341 -2.26224 0
M  V30 1028 C 92.5273 -3.82827 -2.1157 0
M  V30 1029 C 91.5863 -4.12487 -3.26712 0
M  V30 1030 O 90.6123 -4.82295 -3.02292 0
M  V30 1031 N 91.8143 -3.64978 -4.5141 0
M  V30 1032 H 94.5793 -2.95437 -0.503722 0
M  V30 1033 H 92.1403 -1.61397 -0.12757 0
M  V30 1034 H 94.1323 -2.69254 -3.02133 0
M  V30 1035 H 92.7023 -1.7103 -2.61663 0
M  V30 1036 H 91.9223 -3.75425 -1.20208 0
M  V30 1037 H 93.2103 -4.68263 -1.99015 0
M  V30 1038 H 92.6083 -3.08558 -4.7414 0
M  V30 1039 H 91.1653 -3.87115 -5.2439 0
M  V30 1040 N 94.5984 0.214957 -1.56127 0
M  V30 1041 C 95.8444 0.939762 -1.79712 0
M  V30 1042 C 96.1774 1.83723 -0.629247 0
M  V30 1043 O 95.4524 1.90925 0.371197 0
M  V30 1044 C 95.7354 1.77306 -3.13424 0
M  V30 1045 C 95.5884 0.90164 -4.40671 0
M  V30 1046 C 96.9074 2.74956 -3.43638 0
M  V30 1047 H 94.0264 0.340214 -0.653776 0
M  V30 1048 H 96.6684 0.20824 -1.88855 0
M  V30 1049 H 94.8184 2.39673 -3.0576 0
M  V30 1050 H 96.4904 0.294206 -4.60361 0
M  V30 1051 H 94.7334 0.207368 -4.33304 0
M  V30 1052 H 95.4044 1.51923 -5.30682 0
M  V30 1053 H 97.8804 2.22724 -3.51473 0
M  V30 1054 H 96.7564 3.30358 -4.38355 0
M  V30 1055 H 97.0174 3.53023 -2.66134 0
M  V30 1056 N 96.0765 1.50051 0.48192 0
M  V30 1057 C 97.4925 1.37237 0.814756 0
M  V30 1058 C 97.6925 0.420109 1.97072 0
M  V30 1059 O 96.7485 -0.141246 2.52105 0
M  V30 1060 C 98.0615 2.78375 1.13701 0
M  V30 1061 C 99.6095 2.87213 1.2441 0
M  V30 1062 C 100.084 4.29161 1.59954 0
M  V30 1063 N 101.575 4.32061 1.66967 0
M  V30 1064 C 102.31 5.38879 1.95952 0
M  V30 1065 N 101.806 6.55918 2.23031 0
M  V30 1066 N 103.599 5.26312 1.97363 0
M  V30 1067 H 95.7505 2.10546 -0.28005 0
M  V30 1068 H 98.0135 0.945921 -0.0627454 0
M  V30 1069 H 97.7195 3.49845 0.360787 0
M  V30 1070 H 97.5935 3.14941 2.07586 0
M  V30 1071 H 99.9805 2.15969 2.01101 0
M  V30 1072 H 100.061 2.54204 0.285299 0
M  V30 1073 H 99.7055 5.00938 0.838067 0
M  V30 1074 H 99.6355 4.59648 2.56966 0
M  V30 1075 H 102.126 3.47661 1.48123 0
M  V30 1076 H 102.439 7.33139 2.44391 0
M  V30 1077 H 100.784 6.59112 2.20447 0
M  V30 1078 H 103.975 4.33876 1.75697 0
M  V30 1079 H 104.148 6.09649 2.19618 0
M  V30 1080 N 97.5546 -0.734337 1.39446 0
M  V30 1081 C 98.5026 -1.86971 1.38364 0
M  V30 1082 C 99.4966 -1.67288 0.266687 0
M  V30 1083 O 100.703 -1.74621 0.436755 0
M  V30 1084 H 97.0776 -0.615474 0.432082 0
M  V30 1085 H 99.0486 -1.85 2.34132 0
M  V30 1086 C 97.7976 -3.2466 1.24465 0
M  V30 1087 H 97.1206 -3.40402 2.09682 0
M  V30 1088 H 98.5606 -4.04292 1.27764 0
M  V30 1089 C 97.0196 -3.36867 -0.0468674 0
M  V30 1090 O 97.5496 -3.88618 -1.01681 0
M  V30 1091 N 95.7556 -2.90391 -0.110145 0
M  V30 1092 H 95.3026 -2.48466 0.679868 0
M  V30 1093 H 95.2606 -2.98939 -0.973799 0
M  V30 1094 N 99.0327 -1.24633 -0.964593 0
M  V30 1095 C 100.444 -1.08045 -1.5226 0
M  V30 1096 C 100.795 0.347116 -1.93105 0
M  V30 1097 O 99.9197 1.23588 -1.77637 0
M  V30 1098 C 100.515 -1.95514 -2.76695 0
M  V30 1099 C 99.0737 -1.8314 -3.28841 0
M  V30 1100 C 98.2207 -1.90262 -2.01732 0
M  V30 1101 H 101.172 -1.38064 -0.782553 0
M  V30 1102 H 101.193 -1.48925 -3.50145 0
M  V30 1103 H 100.705 -2.99407 -2.46936 0
M  V30 1104 H 98.8057 -0.82092 -3.63444 0
M  V30 1105 H 98.9187 -2.67406 -3.97531 0
M  V30 1106 H 97.2827 -1.34027 -2.16584 0
M  V30 1107 H 98.0657 -2.9574 -1.74334 0
M  V30 1108 N 100.511 1.16574 -1.06058 0
M  V30 1109 C 101.922 1.68662 -0.800632 0
M  V30 1110 C 102.273 1.84184 0.67608 0
M  V30 1111 O 101.398 1.53568 1.52466 0
M  V30 1112 C 101.993 3.06356 -1.44676 0
M  V30 1113 C 100.552 3.55575 -1.23465 0
M  V30 1114 C 99.6988 2.31616 -1.52477 0
M  V30 1115 H 102.65 1.00969 -1.22438 0
M  V30 1116 H 102.671 3.70636 -0.860788 0
M  V30 1117 H 102.183 2.95027 -2.52152 0
M  V30 1118 H 100.284 3.72167 -0.179527 0
M  V30 1119 H 100.397 4.37812 -1.94571 0
M  V30 1120 H 98.7608 2.36512 -0.945209 0
M  V30 1121 H 99.5438 2.22887 -2.61106 0
M  V30 1122 N 101.989 0.842826 1.3317 0
M  V30 1123 C 102.936 0.276885 2.29133 0
M  V30 1124 C 103.906 -0.609527 1.54512 0
M  V30 1125 O 105.091 -0.546955 1.82792 0
M  V30 1126 C 102.231 -0.538707 3.40869 0
M  V30 1127 C 101.344 0.372169 4.30394 0
M  V30 1128 C 100.479 -0.454908 5.29249 0
M  V30 1129 C 99.5179 0.45411 6.10413 0
M  V30 1130 N 98.6549 -0.335075 7.013 0
M  V30 1131 H 103.495 1.10052 2.76934 0
M  V30 1132 H 101.032 0.554161 1.36262 0
M  V30 1133 H 102.99 -1.02709 4.0436 0
M  V30 1134 H 101.62 -1.32727 2.9425 0
M  V30 1135 H 100.672 0.97888 3.6759 0
M  V30 1136 H 101.984 1.0703 4.87182 0
M  V30 1137 H 101.138 -1.00695 5.98285 0
M  V30 1138 H 99.8769 -1.18646 4.73048 0
M  V30 1139 H 98.8819 1.01813 5.40291 0
M  V30 1140 H 100.107 1.18409 6.68697 0
M  V30 1141 H 98.0529 -1.04994 6.47543 0
M  V30 1142 H 97.9699 0.304262 7.55387 0
M  V30 1143 H 99.2379 -0.869224 7.74638 0
M  V30 1144 N 103.467 -1.45747 0.599634 0
M  V30 1145 C 104.714 -2.02292 0.0917284 0
M  V30 1146 C 105.042 -1.46906 -1.27472 0
M  V30 1147 O 104.297 -0.630652 -1.8526 0
M  V30 1148 C 104.596 -3.57399 -0.00602758 0
M  V30 1149 C 104.262 -4.31902 1.29503 0
M  V30 1150 C 102.924 -4.51974 1.65144 0
M  V30 1151 C 105.276 -4.74551 2.15525 0
M  V30 1152 C 102.604 -5.11949 2.86574 0
M  V30 1153 C 104.956 -5.35868 3.36196 0
M  V30 1154 C 103.62 -5.54165 3.72099 0
M  V30 1155 H 102.89 -0.740239 0.0335658 0
M  V30 1156 H 105.537 -1.7491 0.779661 0
M  V30 1157 H 103.842 -3.84014 -0.777183 0
M  V30 1158 H 105.539 -3.98846 -0.415038 0
M  V30 1159 H 102.129 -4.16588 1.00761 0
M  V30 1160 H 106.313 -4.58784 1.8929 0
M  V30 1161 H 101.569 -5.24305 3.14507 0
M  V30 1162 H 105.743 -5.6787 4.03109 0
M  V30 1163 H 103.37 -6.00406 4.6628 0
M  V30 1164 N 104.945 -0.338344 -1.53925 0
M  V30 1165 C 106.193 0.259245 -2.0043 0
M  V30 1166 C 106.514 1.51484 -1.22791 0
M  V30 1167 O 105.784 1.93037 -0.33368 0
M  V30 1168 H 104.364 0.0987845 -0.740439 0
M  V30 1169 H 107.026 -0.458302 -1.89435 0
M  V30 1170 H 106.122 0.505334 -3.07982 0
M  V30 1171 N 106.423 1.57458 -0.0668435 0
M  V30 1172 C 107.651 1.97624 0.612565 0
M  V30 1173 C 108.066 0.94502 1.63447 0
M  V30 1174 O 107.423 -0.0689276 1.8237 0
M  V30 1175 C 107.474 3.37869 1.28555 0
M  V30 1176 O 107.195 4.3704 0.304557 0
M  V30 1177 C 108.696 3.92882 2.05325 0
M  V30 1178 H 105.916 0.650045 0.166381 0
M  V30 1179 H 108.46 2.04035 -0.137782 0
M  V30 1180 H 106.615 3.3256 1.98702 0
M  V30 1181 H 107.029 5.18565 0.786779 0
M  V30 1182 H 108.503 4.93247 2.47812 0
M  V30 1183 H 108.98 3.29156 2.9078 0
M  V30 1184 H 109.586 4.01577 1.40056 0
M  V30 1185 N 107.901 -0.206675 1.56239 0
M  V30 1186 C 108.851 -1.26 1.90021 0
M  V30 1187 C 109.835 -1.41566 0.764721 0
M  V30 1188 O 111.027 -1.44131 1.02739 0
M  V30 1189 C 108.156 -2.6073 2.23326 0
M  V30 1190 C 107.242 -2.49005 3.43304 0
M  V30 1191 N 107.633 -2.06946 4.61527 0
M  V30 1192 C 105.931 -2.79927 3.47213 0
M  V30 1193 C 106.632 -2.06832 5.43687 0
M  V30 1194 N 105.608 -2.47892 4.83788 0
M  V30 1195 H 109.41 -0.925955 2.78932 0
M  V30 1196 H 106.924 -0.415172 1.57003 0
M  V30 1197 H 108.921 -3.36798 2.45708 0
M  V30 1198 H 107.581 -2.94968 1.35735 0
M  V30 1199 H 108.592 -1.77839 4.86409 0
M  V30 1200 H 105.269 -3.18438 2.70006 0
M  V30 1201 H 106.659 -1.76312 6.48354 0
M  V30 1202 N 109.379 -1.50304 -0.473955 0
M  V30 1203 C 110.329 -1.65347 -1.56985 0
M  V30 1204 C 111.313 -0.508176 -1.52664 0
M  V30 1205 O 112.505 -0.762446 -1.59737 0
M  V30 1206 C 109.634 -1.74832 -2.95447 0
M  V30 1207 C 108.72 -2.95028 -3.04662 0
M  V30 1208 N 109.111 -4.18747 -2.83698 0
M  V30 1209 C 107.409 -2.93527 -3.35795 0
M  V30 1210 C 108.11 -4.99687 -2.97805 0
M  V30 1211 N 107.086 -4.33585 -3.2788 0
M  V30 1212 H 110.888 -2.58698 -1.39472 0
M  V30 1213 H 108.402 -1.47449 -0.680629 0
M  V30 1214 H 110.399 -1.83712 -3.7424 0
M  V30 1215 H 109.059 -0.826376 -3.14008 0
M  V30 1216 H 110.07 -4.48291 -2.59337 0
M  V30 1217 H 106.747 -2.10821 -3.60362 0
M  V30 1218 H 108.137 -6.08057 -2.85861 0
M  V30 1219 N 110.857 0.726932 -1.39834 0
M  V30 1220 C 111.804 1.841 -1.39197 0
M  V30 1221 C 112.774 1.642 -0.250502 0
M  V30 1222 O 113.959 1.85494 -0.446846 0
M  V30 1223 C 111.099 3.21697 -1.24919 0
M  V30 1224 C 110.212 3.53247 -2.48678 0
M  V30 1225 C 109.347 4.80289 -2.26928 0
M  V30 1226 C 108.386 5.04707 -3.4632 0
M  V30 1227 N 107.523 6.22956 -3.23836 0
M  V30 1228 H 112.363 1.83979 -2.34427 0
M  V30 1229 H 109.9 0.898876 -1.16442 0
M  V30 1230 H 111.858 4.01137 -1.1465 0
M  V30 1231 H 110.488 3.21076 -0.333153 0
M  V30 1232 H 109.54 2.68447 -2.69519 0
M  V30 1233 H 110.852 3.67205 -3.37582 0
M  V30 1234 H 110.006 5.67725 -2.13947 0
M  V30 1235 H 108.745 4.68519 -1.35431 0
M  V30 1236 H 107.75 4.1573 -3.5979 0
M  V30 1237 H 108.975 5.18357 -4.38729 0
M  V30 1238 H 106.921 6.12459 -2.35011 0
M  V30 1239 H 106.838 6.37539 -4.063 0
M  V30 1240 H 108.106 7.1321 -3.14566 0
M  V30 1241 N 112.336 1.25143 0.95797 0
M  V30 1242 C 113.299 1.05321 2.03569 0
M  V30 1243 C 114.299 0.007152 1.60798 0
M  V30 1244 O 115.489 0.24903 1.72411 0
M  V30 1245 C 112.621 0.598394 3.35607 0
M  V30 1246 H 113.814 2.00986 2.22586 0
M  V30 1247 H 111.367 1.07502 1.13459 0
M  V30 1248 H 112.102 -0.361014 3.22284 0
M  V30 1249 H 111.887 1.35351 3.67998 0
M  V30 1250 H 113.377 0.48104 4.1482 0
M  V30 1251 N 113.814 -1.1601 1.06675 0
M  V30 1252 C 114.744 -2.22688 0.702307 0
M  V30 1253 C 115.725 -1.67306 -0.307032 0
M  V30 1254 O 116.91 -1.93352 -0.181305 0
M  V30 1255 C 114.04 -3.47178 0.092038 0
M  V30 1256 C 112.994 -4.15477 1.02777 0
M  V30 1257 C 112.32 -5.33963 0.28061 0
M  V30 1258 C 113.62 -4.66019 2.35846 0
M  V30 1259 H 115.314 -2.53429 1.59419 0
M  V30 1260 H 112.86 -1.21813 0.767961 0
M  V30 1261 H 114.813 -4.21037 -0.174814 0
M  V30 1262 H 113.537 -3.15749 -0.834877 0
M  V30 1263 H 112.196 -3.43549 1.27944 0
M  V30 1264 H 111.844 -4.98788 -0.649545 0
M  V30 1265 H 111.544 -5.806 0.904258 0
M  V30 1266 H 113.068 -6.10596 0.021396 0
M  V30 1267 H 114.482 -5.3144 2.15045 0
M  V30 1268 H 112.879 -5.23293 2.93743 0
M  V30 1269 H 113.949 -3.82023 2.98641 0
M  V30 1270 N 115.292 -0.849877 -1.32721 0
M  V30 1271 C 116.224 -0.248332 -2.27851 0
M  V30 1272 C 117.237 0.577218 -1.52224 0
M  V30 1273 O 118.426 0.402489 -1.73903 0
M  V30 1274 C 115.526 0.668107 -3.32249 0
M  V30 1275 C 114.699 -0.120534 -4.37234 0
M  V30 1276 C 113.758 0.720932 -5.21238 0
M  V30 1277 O 112.784 0.156166 -5.68986 0
M  V30 1278 N 113.986 2.03647 -5.43607 0
M  V30 1279 H 116.751 -1.06575 -2.80111 0
M  V30 1280 H 114.312 -0.709395 -1.45531 0
M  V30 1281 H 116.304 1.23627 -3.85355 0
M  V30 1282 H 114.874 1.38621 -2.80184 0
M  V30 1283 H 114.094 -0.870108 -3.84477 0
M  V30 1284 H 115.382 -0.662406 -5.0447 0
M  V30 1285 H 114.78 2.51871 -5.06535 0
M  V30 1286 H 113.337 2.55287 -5.99727 0
M  V30 1287 N 116.77 1.45427 -0.607355 0
M  V30 1288 C 117.68 2.34325 0.113463 0
M  V30 1289 C 118.696 1.51226 0.860617 0
M  V30 1290 O 119.872 1.84029 0.818255 0
M  V30 1291 C 116.937 3.28839 1.09844 0
M  V30 1292 C 115.998 4.27844 0.353271 0
M  V30 1293 C 115.231 5.17842 1.29133 0
M  V30 1294 O 115.454 5.11264 2.52913 0
M  V30 1295 O 114.388 5.96713 0.788523 0
M  V30 1296 H 118.214 2.97364 -0.617094 0
M  V30 1297 H 115.799 1.44807 -0.367619 0
M  V30 1298 H 117.681 3.8708 1.66575 0
M  V30 1299 H 116.356 2.68365 1.81003 0
M  V30 1300 H 115.263 3.7322 -0.256494 0
M  V30 1301 H 116.596 4.91173 -0.317822 0
M  V30 1302 N 118.248 0.346503 1.53744 0
M  V30 1303 C 119.497 -0.250122 2.00143 0
M  V30 1304 C 119.81 -1.51418 1.23822 0
M  V30 1305 O 121.016 -2.18823 1.60713 0
M  V30 1306 C 119.472 -0.496252 3.56462 0
M  V30 1307 C 119.08 0.752077 4.41642 0
M  V30 1308 C 120.824 -1.05157 4.11269 0
M  V30 1309 C 118.731 0.476583 5.89477 0
M  V30 1310 H 117.661 -0.0972409 0.747703 0
M  V30 1311 H 120.312 0.46229 1.77581 0
M  V30 1312 H 118.694 -1.26944 3.75102 0
M  V30 1313 H 119.868 1.5266 4.34778 0
M  V30 1314 H 118.183 1.22925 3.97842 0
M  V30 1315 H 120.78 -1.27269 5.19333 0
M  V30 1316 H 121.123 -2.00799 3.64672 0
M  V30 1317 H 121.656 -0.339019 3.96353 0
M  V30 1318 H 118.395 1.4028 6.40314 0
M  V30 1319 H 117.915 -0.259794 5.99237 0
M  V30 1320 H 119.594 0.0949315 6.4693 0
M  V30 1321 N 119.726 -1.57421 0.075193 0
M  V30 1322 C 121.142 -1.57099 -0.281444 0
M  V30 1323 C 121.342 -1.08486 -1.69803 0
M  V30 1324 O 120.398 -0.752279 -2.41033 0
M  V30 1325 C 121.711 -3.00571 -0.0880041 0
M  V30 1326 C 123.259 -3.12605 -0.157281 0
M  V30 1327 C 123.734 -4.57999 0.0079207 0
M  V30 1328 N 125.225 -4.63176 -0.0475725 0
M  V30 1329 C 125.96 -5.73373 0.0557876 0
M  V30 1330 N 125.456 -6.92473 0.21286 0
M  V30 1331 N 127.249 -5.621 -0.00152098 0
M  V30 1332 H 119.4 -1.87335 1.00098 0
M  V30 1333 H 121.663 -0.86377 0.390646 0
M  V30 1334 H 121.369 -3.40262 0.889629 0
M  V30 1335 H 121.243 -3.67754 -0.838875 0
M  V30 1336 H 123.63 -2.72798 -1.1254 0
M  V30 1337 H 123.711 -2.48053 0.62475 0
M  V30 1338 H 123.355 -4.98496 0.972824 0
M  V30 1339 H 123.285 -5.20586 -0.793556 0
M  V30 1340 H 125.776 -3.7753 -0.167244 0
M  V30 1341 H 126.089 -7.72279 0.283781 0
M  V30 1342 H 124.434 -6.94556 0.248267 0
M  V30 1343 H 127.625 -4.67938 -0.122958 0
M  V30 1344 H 127.798 -6.47948 0.0824844 0
M  V30 1345 N 121.204 0.198386 -1.56346 0
M  V30 1346 C 122.152 1.26538 -1.95169 0
M  V30 1347 C 123.146 1.47295 -0.836685 0
M  V30 1348 O 124.352 1.48195 -1.02167 0
M  V30 1349 H 120.727 0.424744 -0.620561 0
M  V30 1350 H 122.698 0.910904 -2.84157 0
M  V30 1351 C 121.447 2.6035 -2.30463 0
M  V30 1352 H 120.77 2.45192 -3.15786 0
M  V30 1353 H 122.21 3.33762 -2.61494 0
M  V30 1354 C 120.669 3.17096 -1.13806 0
M  V30 1355 O 121.199 3.99588 -0.41135 0
M  V30 1356 N 119.405 2.75795 -0.915736 0
M  V30 1357 H 118.952 2.08816 -1.50843 0
M  V30 1358 H 118.91 3.14101 -0.136979 0
M  V30 1359 N 122.682 1.50554 0.465978 0
M  V30 1360 C 123.907 1.65838 1.24549 0
M  V30 1361 C 124.332 0.343486 1.84937 0
M  V30 1362 O 123.69 -0.69324 1.67523 0
M  V30 1363 C 123.738 2.75533 2.32624 0
M  V30 1364 O 122.842 2.37142 3.37398 0
M  V30 1365 H 122.183 0.553893 0.366194 0
M  V30 1366 H 124.713 1.96959 0.553927 0
M  V30 1367 H 124.723 2.98763 2.77857 0
M  V30 1368 H 123.398 3.70962 1.88043 0
M  V30 1369 H 121.975 2.24377 2.97841 0
M  V30 1370 N 124.16 -0.719506 1.40217 0
M  V30 1371 C 125.09 -1.8465 1.42922 0
M  V30 1372 C 126.071 -1.67599 0.29062 0
M  V30 1373 O 127.256 -1.87688 0.498677 0
M  V30 1374 C 124.386 -3.22565 1.28722 0
M  V30 1375 C 123.34 -3.54281 2.40144 0
M  V30 1376 C 122.666 -4.91298 2.11023 0
M  V30 1377 C 123.966 -3.55676 3.82481 0
M  V30 1378 H 125.66 -1.82644 2.37237 0
M  V30 1379 H 123.206 -0.877305 1.1419 0
M  V30 1380 H 125.159 -4.01095 1.29232 0
M  V30 1381 H 123.883 -3.25137 0.308811 0
M  V30 1382 H 122.542 -2.78088 2.38877 0
M  V30 1383 H 122.19 -4.90468 1.11582 0
M  V30 1384 H 121.89 -5.13485 2.8567 0
M  V30 1385 H 123.414 -5.72166 2.13209 0
M  V30 1386 H 124.828 -4.24254 3.85592 0
M  V30 1387 H 123.225 -3.89388 4.56614 0
M  V30 1388 H 124.295 -2.55144 4.12346 0
M  V30 1389 N 125.638 -1.25649 -0.95132 0
M  V30 1390 C 126.568 -1.08808 -2.06599 0
M  V30 1391 C 127.549 0.00382547 -1.701 0
M  V30 1392 O 128.734 -0.166325 -1.93486 0
M  V30 1393 C 125.864 -0.709542 -3.39975 0
M  V30 1394 C 124.818 -1.75206 -3.90496 0
M  V30 1395 C 124.144 -1.22811 -5.20405 0
M  V30 1396 C 125.444 -3.15153 -4.16504 0
M  V30 1397 H 127.138 -2.02048 -2.20946 0
M  V30 1398 H 124.684 -0.972835 -1.06169 0
M  V30 1399 H 126.637 -0.578649 -4.17408 0
M  V30 1400 H 125.361 0.258556 -3.25575 0
M  V30 1401 H 124.02 -1.87145 -3.15234 0
M  V30 1402 H 123.668 -0.250145 -5.02378 0
M  V30 1403 H 123.368 -1.92492 -5.55176 0
M  V30 1404 H 124.892 -1.10968 -6.00432 0
M  V30 1405 H 126.306 -3.06349 -4.84586 0
M  V30 1406 H 124.703 -3.82333 -4.62538 0
M  V30 1407 H 125.773 -3.61966 -3.22658 0
M  V30 1408 N 127.117 1.15442 -1.07289 0
M  V30 1409 C 128.528 1.67803 -0.818475 0
M  V30 1410 C 128.879 1.8489 0.656507 0
M  V30 1411 O 128.004 1.55176 1.50829 0
M  V30 1412 C 128.599 3.04805 -1.47917 0
M  V30 1413 C 127.158 3.54245 -1.27229 0
M  V30 1414 C 126.305 2.29986 -1.54925 0
M  V30 1415 H 129.256 0.996646 -1.23502 0
M  V30 1416 H 129.277 3.69702 -0.90005 0
M  V30 1417 H 128.789 2.92336 -2.55267 0
M  V30 1418 H 126.89 3.71956 -0.21899 0
M  V30 1419 H 127.003 4.35723 -1.99203 0
M  V30 1420 H 125.367 2.35496 -0.970242 0
M  V30 1421 H 126.15 2.20105 -2.63455 0
M  V30 1422 N 128.595 0.856903 1.32268 0
M  V30 1423 C 129.842 0.461386 1.97174 0
M  V30 1424 C 130.17 -0.983491 1.67803 0
M  V30 1425 O 129.425 -1.70541 0.959903 0
M  V30 1426 C 129.724 0.649919 3.51441 0
M  V30 1427 C 129.39 2.0656 4.00804 0
M  V30 1428 C 128.052 2.45279 4.13995 0
M  V30 1429 C 130.404 2.98947 4.26943 0
M  V30 1430 C 127.732 3.75653 4.50668 0
M  V30 1431 C 130.084 4.28822 4.65075 0
M  V30 1432 C 128.748 4.67472 4.76472 0
M  V30 1433 H 128.018 0.168833 0.72151 0
M  V30 1434 H 130.665 1.08739 1.57633 0
M  V30 1435 H 128.97 -0.0593018 3.91755 0
M  V30 1436 H 130.667 0.32391 3.9969 0
M  V30 1437 H 127.257 1.75495 3.91024 0
M  V30 1438 H 131.441 2.70265 4.16258 0
M  V30 1439 H 126.697 4.05379 4.57688 0
M  V30 1440 H 130.871 5.0047 4.84255 0
M  V30 1441 H 128.498 5.68539 5.04646 0
M  V30 1442 N 130.073 -1.45103 0.615059 0
M  V30 1443 C 131.036 -2.29025 -0.0895485 0
M  V30 1444 C 132.036 -1.40174 -0.787906 0
M  V30 1445 O 133.226 -1.62217 -0.634933 0
M  V30 1446 C 130.358 -3.21376 -1.13711 0
M  V30 1447 H 131.551 -2.92807 0.648382 0
M  V30 1448 H 129.104 -1.51749 0.374444 0
M  V30 1449 H 129.839 -2.6241 -1.90556 0
M  V30 1450 H 129.624 -3.86834 -0.640475 0
M  V30 1451 H 131.114 -3.84459 -1.63036 0
M  V30 1452 N 131.551 -0.354651 -1.53558 0
M  V30 1453 C 132.499 0.512195 -2.26891 0
M  V30 1454 C 133.493 1.09263 -1.29452 0
M  V30 1455 O 134.699 1.03709 -1.47121 0
M  V30 1456 H 131.074 0.183878 -0.729173 0
M  V30 1457 H 133.045 -0.128202 -2.98124 0
M  V30 1458 C 131.794 1.64563 -3.06291 0
M  V30 1459 H 131.117 1.20829 -3.81104 0
M  V30 1460 H 132.557 2.22711 -3.60799 0
M  V30 1461 C 131.016 2.58158 -2.16462 0
M  V30 1462 O 131.546 3.60695 -1.76811 0
M  V30 1463 N 129.752 2.27096 -1.81317 0
M  V30 1464 H 129.299 1.43751 -2.1376 0
M  V30 1465 H 129.257 2.89975 -1.21498 0
M  V30 1466 N 133.029 1.57378 -0.0835403 0
M  V30 1467 C 133.939 2.16897 0.894021 0
M  V30 1468 C 134.955 1.13528 1.31861 0
M  V30 1469 O 136.131 1.45848 1.3889 0
M  V30 1470 C 133.196 2.72831 2.13925 0
M  V30 1471 C 132.257 3.91115 1.76997 0
M  V30 1472 C 131.49 4.44371 2.95584 0
M  V30 1473 O 131.713 3.96596 4.09961 0
M  V30 1474 O 130.647 5.35549 2.74719 0
M  V30 1475 H 134.473 3.00814 0.417679 0
M  V30 1476 H 132.058 1.48741 0.140181 0
M  V30 1477 H 133.94 3.0863 2.86924 0
M  V30 1478 H 132.615 1.91967 2.60635 0
M  V30 1479 H 131.522 3.60148 1.01214 0
M  V30 1480 H 132.855 4.73307 1.3506 0
M  V30 1481 N 134.507 -0.190092 1.56449 0
M  V30 1482 C 135.735 -0.925772 1.85033 0
M  V30 1483 C 136.15 -1.76638 0.666658 0
M  V30 1484 O 135.507 -1.78822 -0.364565 0
M  V30 1485 C 135.558 -1.81786 3.12468 0
M  V30 1486 O 135.279 -1.01118 4.26271 0
M  V30 1487 C 136.78 -2.6648 3.54265 0
M  V30 1488 H 134 -0.269872 0.614337 0
M  V30 1489 H 136.544 -0.195837 2.0356 0
M  V30 1490 H 134.699 -2.50136 2.95822 0
M  V30 1491 H 135.113 -1.61956 4.98869 0
M  V30 1492 H 136.587 -3.24722 4.46385 0
M  V30 1493 H 137.064 -3.40434 2.77491 0
M  V30 1494 H 137.67 -2.03493 3.73458 0
M  V30 1495 N 135.985 -1.50799 -0.457987 0
M  V30 1496 C 136.933 -1.71162 -1.575 0
M  V30 1497 C 137.927 -0.577592 -1.59249 0
M  V30 1498 O 139.133 -0.758443 -1.63241 0
M  V30 1499 H 135.508 -0.540468 -0.522875 0
M  V30 1500 H 137.479 -2.64837 -1.37492 0
M  V30 1501 C 136.228 -1.83496 -2.95338 0
M  V30 1502 H 135.551 -2.70153 -2.94716 0
M  V30 1503 H 136.991 -2.01765 -3.72917 0
M  V30 1504 C 135.45 -0.589694 -3.31699 0
M  V30 1505 O 135.98 0.265163 -4.00824 0
M  V30 1506 N 134.186 -0.439845 -2.87252 0
M  V30 1507 H 133.733 -1.13655 -2.31172 0
M  V30 1508 H 133.691 0.392159 -3.11945 0
M  V30 1509 N 137.463 0.71206 -1.40597 0
M  V30 1510 C 138.688 1.50617 -1.42581 0
M  V30 1511 C 139.113 1.88079 -0.0282102 0
M  V30 1512 O 138.471 1.53511 0.964579 0
M  V30 1513 C 138.519 2.7557 -2.3258 0
M  V30 1514 O 137.623 3.72414 -1.77148 0
M  V30 1515 H 136.964 0.453966 -0.484573 0
M  V30 1516 H 139.494 0.876649 -1.84868 0
M  V30 1517 H 139.504 3.2406 -2.47889 0
M  V30 1518 H 138.179 2.47639 -3.34138 0
M  V30 1519 H 136.756 3.31276 -1.71204 0
M  V30 1520 N 138.941 1.26152 0.944643 0
M  V30 1521 C 140.166 1.14363 1.7302 0
M  V30 1522 C 140.591 -0.29772 1.85729 0
M  V30 1523 O 139.949 -1.2157 1.34501 0
M  V30 1524 C 139.997 1.81378 3.11664 0
M  V30 1525 O 139.101 1.10022 3.97453 0
M  V30 1526 H 138.442 0.398694 0.53098 0
M  V30 1527 H 140.972 1.66906 1.18337 0
M  V30 1528 H 140.982 1.88064 3.62072 0
M  V30 1529 H 139.657 2.86237 3.0173 0
M  V30 1530 H 138.234 1.11287 3.55907 0
M  V30 1531 N 140.419 -1.14872 1.07899 0
M  V30 1532 C 141.835 -1.37776 0.805606 0
M  V30 1533 C 142.035 -1.92743 -0.587555 0
M  V30 1534 O 141.091 -2.13678 -1.34528 0
M  V30 1535 C 142.404 -2.34361 1.88402 0
M  V30 1536 C 143.952 -2.48012 1.90942 0
M  V30 1537 C 144.427 -3.47893 2.97883 0
M  V30 1538 N 145.918 -3.55433 2.97021 0
M  V30 1539 C 146.653 -4.32553 3.76412 0
M  V30 1540 N 146.149 -5.12959 4.65666 0
M  V30 1541 N 147.942 -4.27697 3.64735 0
M  V30 1542 H 140.093 -0.775365 1.97742 0
M  V30 1543 H 142.356 -0.403521 0.857831 0
M  V30 1544 H 142.062 -2.01098 2.88535 0
M  V30 1545 H 141.936 -3.34206 1.74889 0
M  V30 1546 H 144.323 -2.8057 0.914579 0
M  V30 1547 H 144.404 -1.48147 2.08534 0
M  V30 1548 H 144.048 -3.16069 3.97571 0
M  V30 1549 H 143.978 -4.47527 2.77538 0
M  V30 1550 H 146.469 -2.98048 2.32326 0
M  V30 1551 H 146.782 -5.69065 5.22862 0
M  V30 1552 H 145.127 -5.12245 4.69712 0
M  V30 1553 H 148.318 -3.63949 2.94378 0
M  V30 1554 H 148.491 -4.8755 4.26848 0
M  V30 1555 N 141.898 -0.863906 -1.31812 0
M  V30 1556 C 143.123 -0.48527 -2.01643 0
M  V30 1557 C 143.548 0.913058 -1.64453 0
M  V30 1558 O 142.906 1.6014 -0.849985 0
M  V30 1559 C 142.954 -0.642625 -3.54828 0
M  V30 1560 O 142.058 0.320659 -4.11151 0
M  V30 1561 H 141.399 -0.193793 -0.635091 0
M  V30 1562 H 143.929 -1.16565 -1.68148 0
M  V30 1563 H 143.939 -0.533628 -4.04495 0
M  V30 1564 H 142.614 -1.66227 -3.81237 0
M  V30 1565 H 141.191 0.167126 -3.72525 0
M  V30 1566 N 143.376 1.44774 -0.622745 0
M  V30 1567 C 144.604 2.06487 -0.130722 0
M  V30 1568 C 145.019 1.46476 1.19123 0
M  V30 1569 O 144.376 0.584502 1.72887 0
M  V30 1570 C 144.427 3.615 -0.000807207 0
M  V30 1571 O 144.148 4.19274 -1.27048 0
M  V30 1572 C 145.649 4.40229 0.520898 0
M  V30 1573 H 142.869 0.666704 -0.0758106 0
M  V30 1574 H 145.413 1.85779 -0.854774 0
M  V30 1575 H 143.568 3.81498 0.673643 0
M  V30 1576 H 143.982 5.12622 -1.1099 0
M  V30 1577 H 145.456 5.49144 0.560838 0
M  V30 1578 H 145.933 4.1108 1.54627 0
M  V30 1579 H 146.539 4.25131 -0.120018 0
M  V30 1580 N 144.854 0.36279 1.53368 0
M  V30 1581 C 146.079 -0.231226 2.06107 0
M  V30 1582 C 146.504 -1.419 1.23474 0
M  V30 1583 O 145.862 -1.79524 0.253128 0
M  V30 1584 C 145.91 -0.605523 3.5548 0
M  V30 1585 O 145.014 -1.70312 3.7559 0
M  V30 1586 H 144.355 -0.034327 0.663112 0
M  V30 1587 H 146.885 0.522584 1.97814 0
M  V30 1588 H 146.895 -0.877314 3.98456 0
M  V30 1589 H 145.57 0.263004 4.15068 0
M  V30 1590 H 144.147 -1.4271 3.44512 0
M  V30 1591 N 146.332 -1.57332 0.0918853 0
M  V30 1592 C 147.242 -2.17368 -0.882505 0
M  V30 1593 C 148.258 -1.14226 -1.31257 0
M  V30 1594 O 149.434 -1.46582 -1.38115 0
M  V30 1595 C 146.499 -2.73962 -2.12476 0
M  V30 1596 C 145.56 -3.92048 -1.7492 0
M  V30 1597 C 144.793 -4.45933 -2.93223 0
M  V30 1598 O 145.016 -3.98764 -4.07852 0
M  V30 1599 O 143.95 -5.36999 -2.71875 0
M  V30 1600 H 147.776 -3.01031 -0.40172 0
M  V30 1601 H 145.361 -1.48813 -0.132291 0
M  V30 1602 H 147.243 -3.10147 -2.85283 0
M  V30 1603 H 145.918 -1.93347 -2.59613 0
M  V30 1604 H 144.825 -3.6068 -0.993025 0
M  V30 1605 H 146.158 -4.74017 -1.32548 0
M  V30 1606 N 147.81 0.181792 -1.56548 0
M  V30 1607 C 149.056 0.901431 -1.81665 0
M  V30 1608 C 149.389 1.82347 -0.668075 0
M  V30 1609 O 148.664 1.91669 0.330615 0
M  V30 1610 C 148.947 1.70618 -3.17115 0
M  V30 1611 C 148.8 0.807964 -4.42484 0
M  V30 1612 C 150.119 2.67605 -3.49393 0
M  V30 1613 H 147.238 0.32627 -0.660846 0
M  V30 1614 H 149.88 0.168134 -1.89255 0
M  V30 1615 H 148.03 2.33133 -3.10775 0
M  V30 1616 H 149.702 0.19649 -4.60881 0
M  V30 1617 H 147.945 0.115411 -4.33646 0
M  V30 1618 H 148.616 1.40632 -5.33785 0
M  V30 1619 H 151.092 2.15218 -3.56118 0
M  V30 1620 H 149.968 3.20985 -4.45264 0
M  V30 1621 H 150.229 3.47298 -2.73563 0
M  V30 1622 N 149.288 1.51039 0.449983 0
M  V30 1623 C 150.236 1.71995 1.5659 0
M  V30 1624 C 151.23 0.586029 1.5894 0
M  V30 1625 O 152.436 0.76709 1.62837 0
M  V30 1626 H 148.811 0.543233 0.520001 0
M  V30 1627 H 150.782 2.65562 1.36085 0
M  V30 1628 C 149.531 1.8506 2.9436 0
M  V30 1629 H 148.854 2.71712 2.93279 0
M  V30 1630 H 150.294 2.0374 3.71842 0
M  V30 1631 C 148.753 0.607277 3.31382 0
M  V30 1632 O 149.283 -0.243903 4.00959 0
M  V30 1633 N 147.489 0.455073 2.87015 0
M  V30 1634 H 147.036 1.14879 2.30566 0
M  V30 1635 H 146.994 -0.375611 3.12148 0
M  V30 1636 N 150.766 -0.704594 1.40972 0
M  V30 1637 C 152.177 -1.28418 1.3552 0
M  V30 1638 C 152.528 -1.96171 0.0339434 0
M  V30 1639 O 151.653 -1.98231 -0.867944 0
M  V30 1640 C 152.248 -2.33528 2.45459 0
M  V30 1641 C 150.807 -2.87085 2.43433 0
M  V30 1642 C 149.954 -1.61007 2.2577 0
M  V30 1643 H 152.905 -0.499963 1.50619 0
M  V30 1644 H 152.926 -3.14619 2.13998 0
M  V30 1645 H 152.438 -1.84187 3.41609 0
M  V30 1646 H 150.539 -3.40626 1.51013 0
M  V30 1647 H 150.652 -3.3813 3.39419 0
M  V30 1648 H 149.016 -1.86482 1.73483 0
M  V30 1649 H 149.799 -1.13675 3.23933 0
M  V30 1650 N 152.244 -1.26651 -0.937939 0
M  V30 1651 C 153.176 -1.04283 -2.04102 0
M  V30 1652 C 154.189 -0.00221014 -1.628 0
M  V30 1653 O 155.378 -0.242645 -1.76843 0
M  V30 1654 C 152.478 -0.557846 -3.34277 0
M  V30 1655 C 151.651 -1.66843 -4.04329 0
M  V30 1656 C 150.71 -1.18095 -5.12777 0
M  V30 1657 O 149.736 -1.87865 -5.37304 0
M  V30 1658 N 150.938 -0.0311006 -5.80492 0
M  V30 1659 H 153.703 -1.9927 -2.23856 0
M  V30 1660 H 151.264 -1.1808 -1.10764 0
M  V30 1661 H 153.256 -0.215836 -4.04124 0
M  V30 1662 H 151.826 0.298523 -3.11171 0
M  V30 1663 H 151.046 -2.18123 -3.28353 0
M  V30 1664 H 152.334 -2.41408 -4.47883 0
M  V30 1665 H 151.732 0.551486 -5.63005 0
M  V30 1666 H 150.289 0.251809 -6.51313 0
M  V30 1667 N 153.722 1.14298 -1.08507 0
M  V30 1668 C 154.655 2.18447 -0.660004 0
M  V30 1669 C 155.633 1.59242 0.328749 0
M  V30 1670 O 156.817 1.87062 0.232367 0
M  V30 1671 C 153.944 3.38688 0.0290807 0
M  V30 1672 C 152.99 4.1646 -0.919982 0
M  V30 1673 S 153.823 4.77334 -2.42718 0
M  V30 1674 C 154.979 6.00931 -1.75024 0
M  V30 1675 H 155.212 2.54166 -1.54231 0
M  V30 1676 H 152.745 1.25446 -0.900149 0
M  V30 1677 H 154.703 4.08342 0.420378 0
M  V30 1678 H 153.364 3.01289 0.887895 0
M  V30 1679 H 152.557 5.02529 -0.384751 0
M  V30 1680 H 152.159 3.52414 -1.25223 0
M  V30 1681 H 154.451 6.69017 -1.06877 0
M  V30 1682 H 155.394 6.59044 -2.58971 0
M  V30 1683 H 155.802 5.51089 -1.22317 0
M  V30 1684 N 155.201 0.870884 1.31352 0
M  V30 1685 C 156.131 0.343096 2.30966 0
M  V30 1686 C 157.112 -0.566507 1.60389 0
M  V30 1687 O 158.297 -0.483336 1.88089 0
M  V30 1688 C 155.427 -0.455487 3.443 0
M  V30 1689 C 154.381 0.361103 4.26474 0
M  V30 1690 C 153.707 -0.563221 5.31725 0
M  V30 1691 C 155.007 1.59566 4.97329 0
M  V30 1692 H 156.701 1.17548 2.75359 0
M  V30 1693 H 154.247 0.566686 1.32381 0
M  V30 1694 H 156.2 -0.83525 4.13039 0
M  V30 1695 H 154.924 -1.32139 2.98675 0
M  V30 1696 H 153.583 0.722825 3.59403 0
M  V30 1697 H 153.231 -1.42643 4.82351 0
M  V30 1698 H 152.931 -0.0207409 5.87596 0
M  V30 1699 H 154.455 -0.939808 6.03324 0
M  V30 1700 H 155.869 1.28728 5.58661 0
M  V30 1701 H 154.266 2.07728 5.63 0
M  V30 1702 H 155.336 2.34798 4.24262 0
M  V30 1703 N 156.679 -1.44442 0.630414 0
M  V30 1704 C 157.611 -2.2892 -0.113347 0
M  V30 1705 C 158.624 -1.41243 -0.80959 0
M  V30 1706 O 159.813 -1.65402 -0.671156 0
M  V30 1707 C 156.913 -3.17594 -1.18266 0
M  V30 1708 C 156.086 -4.33682 -0.569073 0
M  V30 1709 C 155.145 -5.03397 -1.53226 0
M  V30 1710 O 154.171 -5.59438 -1.04967 0
M  V30 1711 N 155.373 -5.04783 -2.86661 0
M  V30 1712 H 158.138 -2.93392 0.611636 0
M  V30 1713 H 155.699 -1.54881 0.471523 0
M  V30 1714 H 157.691 -3.61097 -1.82732 0
M  V30 1715 H 156.261 -2.54876 -1.80988 0
M  V30 1716 H 155.481 -3.9338 0.254187 0
M  V30 1717 H 156.769 -5.08608 -0.139767 0
M  V30 1718 H 156.167 -4.60584 -3.28449 0
M  V30 1719 H 154.724 -5.52077 -3.46489 0
M  V30 1720 N 158.157 -0.370918 -1.53173 0
M  V30 1721 C 159.434 0.273754 -1.93675 0
M  V30 1722 C 159.814 1.65938 -1.3049 0
M  V30 1723 O 159.162 2.23698 -0.465999 0
M  V30 1724 C 159.372 0.318602 -3.47543 0
M  V30 1725 C 160.72 0.556392 -4.20939 0
M  V30 1726 O 161.744 0.399587 -3.53952 0
M  V30 1727 O 160.603 0.862133 -5.39657 0
M  V30 1728 H 157.697 0.165448 -0.810281 0
M  V30 1729 H 160.243 -0.42409 -1.64315 0
M  V30 1730 H 159.015 -0.652687 -3.85818 0
M  V30 1731 H 158.638 1.06212 -3.83151 0
M  V30 1732 N 159.635 1.57281 -0.100228 0
M  V30 1733 C 160.565 2.17328 0.853857 0
M  V30 1734 C 161.546 1.10804 1.2906 0
M  V30 1735 O 162.731 1.38963 1.35657 0
M  V30 1736 C 159.861 2.75772 2.11109 0
M  V30 1737 C 158.815 3.87713 1.81279 0
M  V30 1738 C 158.141 4.32882 3.13874 0
M  V30 1739 C 159.441 5.10677 1.09574 0
M  V30 1740 H 161.135 2.97305 0.353545 0
M  V30 1741 H 158.681 1.43009 0.168612 0
M  V30 1742 H 160.634 3.16433 2.78296 0
M  V30 1743 H 159.358 1.93057 2.63432 0
M  V30 1744 H 158.017 3.476 1.16489 0
M  V30 1745 H 157.665 3.47051 3.64095 0
M  V30 1746 H 157.365 5.08358 2.94696 0
M  V30 1747 H 158.889 4.7618 3.82211 0
M  V30 1748 H 160.303 5.48474 1.66879 0
M  V30 1749 H 158.7 5.91615 1.00557 0
M  V30 1750 H 159.77 4.84835 0.0793299 0
M  V30 1751 N 161.113 -0.173488 1.56642 0
M  V30 1752 C 162.045 -1.23935 1.92802 0
M  V30 1753 C 163.058 -1.40589 0.820889 0
M  V30 1754 O 164.247 -1.40631 1.09933 0
M  V30 1755 C 161.347 -2.60837 2.16373 0
M  V30 1756 C 160.52 -2.6551 3.47596 0
M  V30 1757 C 159.579 -3.8376 3.60021 0
M  V30 1758 O 158.605 -3.69859 4.32658 0
M  V30 1759 N 159.807 -5.00127 2.94709 0
M  V30 1760 H 162.572 -0.932236 2.84832 0
M  V30 1761 H 160.133 -0.363268 1.57772 0
M  V30 1762 H 162.125 -3.38407 2.21952 0
M  V30 1763 H 160.695 -2.83948 1.30738 0
M  V30 1764 H 159.915 -1.74052 3.53694 0
M  V30 1765 H 161.203 -2.65641 4.33949 0
M  V30 1766 H 160.601 -5.14322 2.35563 0
M  V30 1767 H 159.158 -5.75567 3.05886 0
M  V30 1768 N 162.591 -1.51276 -0.441967 0
M  V30 1769 C 163.554 -1.7167 -1.51862 0
M  V30 1770 C 164.554 -0.586793 -1.49711 0
M  V30 1771 O 165.744 -0.854276 -1.51815 0
M  V30 1772 C 162.876 -1.76889 -2.91416 0
M  V30 1773 H 164.069 -2.67754 -1.35084 0
M  V30 1774 H 161.622 -1.41196 -0.670333 0
M  V30 1775 H 162.357 -0.826026 -3.13604 0
M  V30 1776 H 162.142 -2.59001 -2.94382 0
M  V30 1777 H 163.632 -1.94522 -3.69528 0
M  V30 1778 N 164.069 0.697108 -1.41344 0
M  V30 1779 C 165.032 1.79281 -1.42797 0
M  V30 1780 C 166.032 1.57607 -0.318837 0
M  V30 1781 O 167.222 1.64309 -0.578642 0
M  V30 1782 C 164.354 3.17632 -1.23785 0
M  V30 1783 H 165.547 1.79385 -2.40335 0
M  V30 1784 H 163.1 0.904582 -1.27464 0
M  V30 1785 H 163.835 3.23167 -0.270814 0
M  V30 1786 H 163.62 3.34765 -2.04144 0
M  V30 1787 H 165.11 3.97617 -1.27633 0
M  V30 1788 N 165.547 1.27147 0.931209 0
M  V30 1789 C 166.795 1.13055 1.6752 0
M  V30 1790 C 167.116 -0.324791 1.92276 0
M  V30 1791 O 166.386 -1.22775 1.52654 0
M  V30 1792 H 164.966 0.415391 0.620854 0
M  V30 1793 H 167.628 1.59623 1.11833 0
M  V30 1794 H 166.724 1.65694 2.64485 0
M  V30 1795 N 167.025 -1.13721 1.09112 0
M  V30 1796 C 168.272 -1.84924 0.825192 0
M  V30 1797 C 168.6 -1.83347 -0.649151 0
M  V30 1798 O 167.855 -1.26449 -1.49362 0
M  V30 1799 C 168.154 -3.32861 1.30146 0
M  V30 1800 C 167.82 -3.54621 2.78486 0
M  V30 1801 C 166.482 -3.60268 3.18999 0
M  V30 1802 C 168.834 -3.62855 3.74146 0
M  V30 1803 C 166.162 -3.71679 4.53951 0
M  V30 1804 C 168.514 -3.75793 5.08883 0
M  V30 1805 C 167.178 -3.79692 5.4899 0
M  V30 1806 H 166.448 -0.676684 0.301959 0
M  V30 1807 H 169.095 -1.3428 1.36533 0
M  V30 1808 H 167.4 -3.85835 0.681064 0
M  V30 1809 H 169.097 -3.86395 1.07236 0
M  V30 1810 H 165.687 -3.50879 2.46134 0
M  V30 1811 H 169.871 -3.57775 3.43963 0
M  V30 1812 H 165.127 -3.72963 4.84467 0
M  V30 1813 H 169.301 -3.81107 5.82864 0
M  V30 1814 H 166.928 -3.88287 6.53558 0
M  V30 1815 N 168.503 -0.877838 -1.30888 0
M  V30 1816 C 169.78 -0.413052 -1.91189 0
M  V30 1817 C 170.16 1.1056 -1.79832 0
M  V30 1818 O 169.508 1.93771 -1.21099 0
M  V30 1819 C 169.718 -0.903191 -3.3711 0
M  V30 1820 C 171.066 -0.93395 -4.14201 0
M  V30 1821 O 172.09 -0.849373 -3.45925 0
M  V30 1822 O 170.949 -1.05772 -5.36167 0
M  V30 1823 H 168.043 -0.125035 -0.817493 0
M  V30 1824 H 170.589 -0.966269 -1.39504 0
M  V30 1825 H 169.361 -1.94692 -3.39427 0
M  V30 1826 H 168.984 -0.328732 -3.96239 0
M  V30 1827 N 169.982 1.44106 -0.638065 0
M  V30 1828 C 170.892 2.34513 0.0637334 0
M  V30 1829 C 171.908 1.53018 0.828346 0
M  V30 1830 O 173.084 1.85723 0.779036 0
M  V30 1831 C 170.149 3.31095 1.02844 0
M  V30 1832 C 169.21 4.28497 0.26244 0
M  V30 1833 C 168.443 5.20465 1.1812 0
M  V30 1834 O 168.666 5.16514 2.42011 0
M  V30 1835 O 167.6 5.98251 0.661774 0
M  V30 1836 H 171.426 2.95989 -0.68003 0
M  V30 1837 H 169.011 1.43994 -0.398252 0
M  V30 1838 H 170.893 3.90526 1.58327 0
M  V30 1839 H 169.568 2.72144 1.7527 0
M  V30 1840 H 168.475 3.72592 -0.335602 0
M  V30 1841 H 169.808 4.90388 -0.421936 0
M  V30 1842 N 171.46 0.379036 1.52974 0
M  V30 1843 C 172.737 -0.263479 1.93817 0
M  V30 1844 C 173.117 -1.65244 1.31368 0
M  V30 1845 O 172.465 -2.23448 0.477856 0
M  V30 1846 C 172.675 -0.300166 3.47707 0
M  V30 1847 C 174.023 -0.534061 4.21228 0
M  V30 1848 O 175.047 -0.38081 3.54159 0
M  V30 1849 O 173.906 -0.833501 5.40106 0
M  V30 1850 H 171 -0.161149 0.811147 0
M  V30 1851 H 173.546 0.432798 1.64088 0
M  V30 1852 H 172.318 0.673138 3.85467 0
M  V30 1853 H 171.941 -1.04179 3.83709 0
M  V30 1854 N 172.938 -1.57226 0.108567 0
M  V30 1855 C 173.871 -2.10447 -0.882464 0
M  V30 1856 C 174.849 -1.01829 -1.26766 0
M  V30 1857 O 176.033 -1.29415 -1.37054 0
M  V30 1858 C 173.16 -2.59258 -2.17952 0
M  V30 1859 C 172.206 -3.79662 -1.94318 0
M  V30 1860 S 173.039 -5.22586 -1.16892 0
M  V30 1861 C 174.195 -5.74758 -2.47799 0
M  V30 1862 H 174.428 -2.94178 -0.429745 0
M  V30 1863 H 171.961 -1.54043 -0.105 0
M  V30 1864 H 173.919 -2.88036 -2.92482 0
M  V30 1865 H 172.58 -1.75728 -2.60343 0
M  V30 1866 H 171.773 -4.11928 -2.90399 0
M  V30 1867 H 171.375 -3.51446 -1.27913 0
M  V30 1868 H 173.667 -5.83846 -3.43701 0
M  V30 1869 H 174.61 -6.73027 -2.20093 0
M  V30 1870 H 175.018 -5.02763 -2.56689 0
M  V30 1871 N 174.416 0.165178 -1.56732 0
M  V30 1872 C 175.662 0.882112 -1.82611 0
M  V30 1873 C 175.995 1.81628 -0.687378 0
M  V30 1874 O 175.27 1.92009 0.310267 0
M  V30 1875 C 175.553 1.67245 -3.18906 0
M  V30 1876 C 175.406 0.760987 -4.43316 0
M  V30 1877 C 176.725 2.63884 -3.52212 0
M  V30 1878 H 173.844 0.319242 -0.664269 0
M  V30 1879 H 176.486 0.148052 -1.89422 0
M  V30 1880 H 174.636 2.29824 -3.1323 0
M  V30 1881 H 176.308 0.147596 -4.61064 0
M  V30 1882 H 174.551 0.0694102 -4.33744 0
M  V30 1883 H 175.222 1.34962 -5.35247 0
M  V30 1884 H 177.698 2.11429 -3.58381 0
M  V30 1885 H 176.574 3.16245 -4.48643 0
M  V30 1886 H 176.835 3.44377 -2.77231 0
M  V30 1887 N 175.894 1.51508 0.433938 0
M  V30 1888 C 177.143 1.63578 1.18005 0
M  V30 1889 C 177.456 0.359514 1.92268 0
M  V30 1890 O 178.662 0.359632 2.69108 0
M  V30 1891 C 177.118 2.88901 2.14626 0
M  V30 1892 C 176.726 4.23544 1.45995 0
M  V30 1893 C 178.47 3.10328 2.89649 0
M  V30 1894 C 176.377 5.40014 2.4112 0
M  V30 1895 H 175.307 0.609277 0.444182 0
M  V30 1896 H 177.958 1.77978 0.446773 0
M  V30 1897 H 176.34 2.68142 2.91403 0
M  V30 1898 H 177.514 4.54696 0.747532 0
M  V30 1899 H 175.829 4.08021 0.831115 0
M  V30 1900 H 178.426 3.94518 3.60915 0
M  V30 1901 H 178.769 2.23544 3.51189 0
M  V30 1902 H 179.302 3.31443 2.19978 0
M  V30 1903 H 176.041 6.29068 1.84264 0
M  V30 1904 H 175.561 5.13233 3.10406 0
M  V30 1905 H 177.24 5.72099 3.02177 0
M  V30 1906 N 177.372 -0.689602 1.41712 0
M  V30 1907 C 178.304 -1.815 1.39966 0
M  V30 1908 C 179.317 -1.59995 0.300917 0
M  V30 1909 O 180.506 -1.69387 0.563039 0
M  V30 1910 C 177.606 -3.18364 1.16179 0
M  V30 1911 C 176.779 -3.66847 2.38206 0
M  V30 1912 C 175.838 -4.82398 2.10186 0
M  V30 1913 O 174.864 -4.93706 2.83272 0
M  V30 1914 N 176.066 -5.70064 1.0958 0
M  V30 1915 H 178.831 -1.83488 2.36965 0
M  V30 1916 H 176.392 -0.872149 1.36401 0
M  V30 1917 H 178.384 -3.93301 0.953756 0
M  V30 1918 H 176.954 -3.11365 0.27756 0
M  V30 1919 H 176.174 -2.82751 2.74673 0
M  V30 1920 H 177.462 -3.95978 3.19498 0
M  V30 1921 H 176.86 -5.63565 0.491019 0
M  V30 1922 H 175.417 -6.44874 0.947656 0
M  V30 1923 N 178.85 -1.27639 -0.924453 0
M  V30 1924 C 179.813 -1.10681 -2.00705 0
M  V30 1925 C 180.813 -0.0497823 -1.60723 0
M  V30 1926 O 182.003 -0.294654 -1.7169 0
M  V30 1927 C 179.135 -0.687164 -3.33902 0
M  V30 1928 H 180.328 -2.06817 -2.17179 0
M  V30 1929 H 177.881 -1.10473 -1.10569 0
M  V30 1930 H 178.616 0.275439 -3.23128 0
M  V30 1931 H 178.401 -1.45061 -3.6428 0
M  V30 1932 H 179.891 -0.590853 -4.13399 0
M  V30 1933 N 180.328 1.1314 -1.09713 0
M  V30 1934 C 181.258 2.20748 -0.761102 0
M  V30 1935 C 182.239 1.68061 0.262566 0
M  V30 1936 O 183.424 1.93765 0.129977 0
M  V30 1937 C 180.554 3.46812 -0.184054 0
M  V30 1938 C 179.508 4.12606 -1.13757 0
M  V30 1939 C 178.834 5.33031 -0.422083 0
M  V30 1940 C 180.134 4.59603 -2.48118 0
M  V30 1941 H 181.828 2.49113 -1.66082 0
M  V30 1942 H 179.374 1.19734 -0.799987 0
M  V30 1943 H 181.327 4.21353 0.0631215 0
M  V30 1944 H 180.051 3.17851 0.750868 0
M  V30 1945 H 178.71 3.40036 -1.37007 0
M  V30 1946 H 178.358 5.00335 0.517072 0
M  V30 1947 H 178.058 5.77999 -1.05788 0
M  V30 1948 H 179.582 6.10325 -0.183277 0
M  V30 1949 H 180.996 5.25552 -2.29059 0
M  V30 1950 H 179.393 5.15321 -3.07514 0
M  V30 1951 H 180.463 3.73971 -3.08665 0
M  V30 1952 N 181.806 0.884767 1.30421 0
M  V30 1953 C 182.738 0.308655 2.27112 0
M  V30 1954 C 183.751 -0.536655 1.53701 0
M  V30 1955 O 184.94 -0.35624 1.74909 0
M  V30 1956 C 182.04 -0.579782 3.33904 0
M  V30 1957 C 181.213 0.236417 4.36761 0
M  V30 1958 C 180.272 -0.582482 5.22966 0
M  V30 1959 O 179.298 -0.00525502 5.692 0
M  V30 1960 N 180.5 -1.89163 5.48815 0
M  V30 1961 H 183.265 1.13964 2.77186 0
M  V30 1962 H 180.826 0.747731 1.43599 0
M  V30 1963 H 182.818 -1.13366 3.88497 0
M  V30 1964 H 181.388 -1.31144 2.83761 0
M  V30 1965 H 180.608 0.97174 3.82035 0
M  V30 1966 H 181.896 0.795924 5.02536 0
M  V30 1967 H 181.294 -2.38352 5.13035 0
M  V30 1968 H 179.851 -2.39296 6.06284 0
M  V30 1969 N 183.284 -1.43765 0.645699 0
M  V30 1970 C 184.231 -2.30745 -0.0504648 0
M  V30 1971 C 185.201 -1.4432 -0.822241 0
M  V30 1972 O 186.386 -1.73202 -0.800358 0
M  V30 1973 C 183.526 -3.29802 -1.0161 0
M  V30 1974 C 182.639 -4.31326 -0.241219 0
M  V30 1975 C 181.774 -5.17469 -1.19998 0
M  V30 1976 C 180.813 -6.10691 -0.415094 0
M  V30 1977 N 179.95 -6.89483 -1.32506 0
M  V30 1978 H 184.79 -2.8973 0.697155 0
M  V30 1979 H 182.327 -1.42738 0.355563 0
M  V30 1980 H 184.285 -3.85734 -1.58949 0
M  V30 1981 H 182.915 -2.72483 -1.73069 0
M  V30 1982 H 181.967 -3.77749 0.448334 0
M  V30 1983 H 183.279 -4.9743 0.369437 0
M  V30 1984 H 182.433 -5.7799 -1.84424 0
M  V30 1985 H 181.172 -4.51473 -1.84455 0
M  V30 1986 H 180.177 -5.49265 0.242565 0
M  V30 1987 H 181.402 -6.78727 0.224966 0
M  V30 1988 H 179.348 -6.26142 -1.95657 0
M  V30 1989 H 179.265 -7.52081 -0.768783 0
M  V30 1990 H 180.533 -7.54516 -1.9577 0
M  V30 1991 N 184.763 -0.387143 -1.52771 0
M  V30 1992 C 185.991 0.195869 -2.05971 0
M  V30 1993 C 186.406 1.40691 -1.25903 0
M  V30 1994 O 185.763 1.79931 -0.305134 0
M  V30 1995 C 185.814 0.56812 -3.57008 0
M  V30 1996 O 185.535 -0.594803 -4.34043 0
M  V30 1997 C 187.036 1.20723 -4.26545 0
M  V30 1998 H 184.256 0.0300578 -0.670326 0
M  V30 1999 H 186.8 -0.551749 -1.96916 0
M  V30 2000 H 184.955 1.26564 -3.66143 0
M  V30 2001 H 185.369 -0.289322 -5.23701 0
M  V30 2002 H 186.843 1.41807 -5.33474 0
M  V30 2003 H 187.32 2.17395 -3.81623 0
M  V30 2004 H 187.926 0.550535 -4.21722 0
M  V30 2005 N 186.241 1.57166 -0.116904 0
M  V30 2006 C 187.189 2.16457 0.851418 0
M  V30 2007 C 188.183 1.11323 1.27686 0
M  V30 2008 O 189.389 1.2963 1.24884 0
M  V30 2009 H 185.764 0.69271 0.292672 0
M  V30 2010 H 187.735 2.96605 0.32685 0
M  V30 2011 C 186.484 2.77689 2.09246 0
M  V30 2012 H 185.807 3.58285 1.77402 0
M  V30 2013 H 187.247 3.22716 2.7501 0
M  V30 2014 C 185.706 1.74667 2.88085 0
M  V30 2015 O 186.236 1.19877 3.83396 0
M  V30 2016 N 184.442 1.44656 2.52038 0
M  V30 2017 H 183.989 1.89402 1.74599 0
M  V30 2018 H 183.947 0.759675 3.05084 0
M  V30 2019 N 187.719 -0.156864 1.56817 0
M  V30 2020 C 188.667 -1.21319 1.98455 0
M  V30 2021 C 189.661 -1.45025 0.875444 0
M  V30 2022 O 190.867 -1.45435 1.0606 0
M  V30 2023 H 187.242 -0.408142 0.631605 0
M  V30 2024 H 189.213 -0.835244 2.86472 0
M  V30 2025 C 187.962 -2.54148 2.37285 0
M  V30 2026 H 187.285 -2.36733 3.22176 0
M  V30 2027 H 188.725 -3.26712 2.70251 0
M  V30 2028 C 187.184 -3.13967 1.22173 0
M  V30 2029 O 187.714 -3.98357 0.517149 0
M  V30 2030 N 185.92 -2.7327 0.988536 0
M  V30 2031 H 185.467 -2.04744 1.56326 0
M  V30 2032 H 185.425 -3.13628 0.220209 0
M  V30 2033 N 189.197 -1.51736 -0.425897 0
M  V30 2034 C 190.613 -1.40166 -0.76326 0
M  V30 2035 C 190.813 -0.492962 -1.95377 0
M  V30 2036 O 189.869 0.0475815 -2.52455 0
M  V30 2037 C 191.182 -2.82403 -1.03291 0
M  V30 2038 C 192.73 -2.91632 -1.13665 0
M  V30 2039 C 193.205 -4.34801 -1.43916 0
M  V30 2040 N 194.696 -4.3796 -1.50816 0
M  V30 2041 C 195.431 -5.4578 -1.75817 0
M  V30 2042 N 194.927 -6.63744 -1.98534 0
M  V30 2043 N 196.72 -5.33274 -1.77694 0
M  V30 2044 H 188.871 -2.09361 0.358 0
M  V30 2045 H 191.134 -0.942941 0.0978094 0
M  V30 2046 H 190.84 -3.50943 -0.230696 0
M  V30 2047 H 190.714 -3.22428 -1.95754 0
M  V30 2048 H 193.101 -2.23284 -1.92947 0
M  V30 2049 H 193.182 -2.55088 -0.190756 0
M  V30 2050 H 192.826 -5.03703 -0.65157 0
M  V30 2051 H 192.756 -4.68868 -2.39729 0
M  V30 2052 H 195.247 -3.52919 -1.35118 0
M  V30 2053 H 195.56 -7.41704 -2.17013 0
M  V30 2054 H 193.905 -6.66839 -1.95832 0
M  V30 2055 H 197.096 -4.40098 -1.59473 0
M  V30 2056 H 197.269 -6.1738 -1.9684 0
M  V30 2057 N 190.675 0.682077 -1.42076 0
M  V30 2058 C 191.9 1.47558 -1.45744 0
M  V30 2059 C 192.325 1.87977 -0.0680981 0
M  V30 2060 O 191.683 1.55522 0.9318 0
M  V30 2061 C 191.731 2.70575 -2.38373 0
M  V30 2062 O 190.835 3.68573 -1.85007 0
M  V30 2063 H 190.176 0.443585 -0.494093 0
M  V30 2064 H 192.706 0.837238 -1.86686 0
M  V30 2065 H 192.716 3.18729 -2.54707 0
M  V30 2066 H 191.391 2.40495 -3.39315 0
M  V30 2067 H 189.968 3.2757 -1.78192 0
M  V30 2068 N 192.153 1.28127 0.917671 0
M  V30 2069 C 193.402 1.14432 1.66097 0
M  V30 2070 C 193.715 -0.307247 1.93172 0
M  V30 2071 O 194.921 -0.565259 2.65551 0
M  V30 2072 C 193.377 2.00015 2.99202 0
M  V30 2073 C 192.985 3.49889 2.79789 0
M  V30 2074 C 194.729 1.94996 3.77064 0
M  V30 2075 C 192.636 4.27636 4.08511 0
M  V30 2076 H 191.566 0.424662 0.62304 0
M  V30 2077 H 194.217 1.52628 1.01868 0
M  V30 2078 H 192.599 1.54672 3.64544 0
M  V30 2079 H 193.773 4.03162 2.23152 0
M  V30 2080 H 192.088 3.56392 2.15345 0
M  V30 2081 H 194.685 2.50354 4.72469 0
M  V30 2082 H 195.028 0.925819 4.05875 0
M  V30 2083 H 195.561 2.38287 3.18534 0
M  V30 2084 H 192.3 5.30615 3.84874 0
M  V30 2085 H 191.82 3.79137 4.64774 0
M  V30 2086 H 193.499 4.37346 4.76799 0
M  V30 2087 N 193.631 -1.12557 1.10312 0
M  V30 2088 C 194.541 -2.21841 0.763142 0
M  V30 2089 C 195.557 -1.72354 -0.238801 0
M  V30 2090 O 196.733 -2.01249 -0.0778746 0
M  V30 2091 C 193.798 -3.46131 0.198632 0
M  V30 2092 C 192.859 -4.10464 1.25769 0
M  V30 2093 C 192.092 -5.28821 0.72002 0
M  V30 2094 O 192.315 -5.6859 -0.453993 0
M  V30 2095 O 191.249 -5.83437 1.47935 0
M  V30 2096 H 195.075 -2.53312 1.67532 0
M  V30 2097 H 192.66 -1.20867 0.878157 0
M  V30 2098 H 194.542 -4.2125 -0.112401 0
M  V30 2099 H 193.217 -3.16338 -0.686419 0
M  V30 2100 H 192.124 -3.3713 1.62156 0
M  V30 2101 H 193.457 -4.44408 2.11571 0
M  V30 2102 N 195.109 -0.891671 -1.2995 0
M  V30 2103 C 196.072 -0.36828 -2.26222 0
M  V30 2104 C 197.072 0.493014 -1.53056 0
M  V30 2105 O 198.262 0.299213 -1.71611 0
M  V30 2106 C 195.394 0.47442 -3.37583 0
M  V30 2107 H 196.587 -1.21844 -2.74033 0
M  V30 2108 H 194.14 -0.669107 -1.41254 0
M  V30 2109 H 194.875 1.34489 -2.95099 0
M  V30 2110 H 194.66 -0.142615 -3.91841 0
M  V30 2111 H 196.15 0.83218 -4.09224 0
M  V30 2112 N 196.587 1.43421 -0.653314 0
M  V30 2113 C 197.55 2.29182 0.0287951 0
M  V30 2114 C 198.55 1.42213 0.750465 0
M  V30 2115 O 199.74 1.63843 0.591701 0
M  V30 2116 C 196.872 3.24278 1.05151 0
M  V30 2117 H 198.065 2.90985 -0.725786 0
M  V30 2118 H 195.618 1.50702 -0.414545 0
M  V30 2119 H 196.353 2.6737 1.83532 0
M  V30 2120 H 196.138 3.88396 0.537687 0
M  V30 2121 H 197.628 3.88647 1.52786 0
M  V30 2122 N 198.065 0.39524 1.52563 0
M  V30 2123 C 199.314 -0.186321 2.00838 0
M  V30 2124 C 199.627 -1.47402 1.28577 0
M  V30 2125 O 200.833 -2.13599 1.67593 0
M  V30 2126 C 199.289 -0.382595 3.57861 0
M  V30 2127 C 198.897 0.892202 4.39026 0
M  V30 2128 C 200.641 -0.9202 4.14406 0
M  V30 2129 C 198.548 0.66388 5.87662 0
M  V30 2130 H 197.478 -0.0734041 0.750418 0
M  V30 2131 H 200.129 0.518552 1.76021 0
M  V30 2132 H 198.511 -1.14946 3.7895 0
M  V30 2133 H 199.685 1.66414 4.29701 0
M  V30 2134 H 198 1.35519 3.9373 0
M  V30 2135 H 200.597 -1.10683 5.23119 0
M  V30 2136 H 200.94 -1.89096 3.70875 0
M  V30 2137 H 201.473 -0.212751 3.97231 0
M  V30 2138 H 198.212 1.6058 6.35527 0
M  V30 2139 H 197.732 -0.0690193 5.9976 0
M  V30 2140 H 199.411 0.300699 6.46301 0
M  V30 2141 N 199.544 -1.57102 0.125237 0
M  V30 2142 C 200.454 -2.19191 -0.8362 0
M  V30 2143 C 201.47 -1.16985 -1.28805 0
M  V30 2144 O 202.646 -1.49479 -1.34974 0
M  V30 2145 C 199.711 -2.78407 -2.06617 0
M  V30 2146 C 198.772 -3.9567 -1.66565 0
M  V30 2147 C 198.005 -4.52052 -2.83698 0
M  V30 2148 O 198.228 -4.07326 -3.99302 0
M  V30 2149 O 197.162 -5.42645 -2.60423 0
M  V30 2150 H 200.988 -3.01816 -0.337776 0
M  V30 2151 H 198.573 -1.4906 -0.100695 0
M  V30 2152 H 200.455 -3.16129 -2.7864 0
M  V30 2153 H 199.13 -1.9881 -2.55453 0
M  V30 2154 H 198.037 -3.62705 -0.916296 0
M  V30 2155 H 199.37 -4.76722 -1.22464 0
M  V30 2156 N 201.022 0.148545 -1.56898 0
M  V30 2157 C 202.269 0.861418 -1.83264 0
M  V30 2158 C 202.597 1.81239 -0.705883 0
M  V30 2159 O 201.852 1.93305 0.305212 0
M  V30 2160 C 202.151 1.67064 -3.1595 0
M  V30 2161 C 201.817 0.866591 -4.42494 0
M  V30 2162 C 200.479 0.644762 -4.76861 0
M  V30 2163 C 202.831 0.30418 -5.20312 0
M  V30 2164 C 200.159 -0.15021 -5.86508 0
M  V30 2165 C 202.511 -0.477824 -6.30793 0
M  V30 2166 C 201.175 -0.710244 -6.63711 0
M  V30 2167 H 200.445 0.315215 -0.670612 0
M  V30 2168 H 203.092 0.125142 -1.91091 0
M  V30 2169 H 201.397 2.47698 -3.03567 0
M  V30 2170 H 203.094 2.22566 -3.33565 0
M  V30 2171 H 199.684 1.04955 -4.15551 0
M  V30 2172 H 203.868 0.462844 -4.94137 0
M  V30 2173 H 199.124 -0.339796 -6.10455 0
M  V30 2174 H 203.298 -0.92076 -6.90286 0
M  V30 2175 H 200.925 -1.3281 -7.48509 0
M  V30 2176 N 202.5 1.5196 0.417844 0
M  V30 2177 C 203.749 1.6482 1.16264 0
M  V30 2178 C 204.062 0.379886 1.91876 0
M  V30 2179 O 205.268 0.388154 2.68711 0
M  V30 2180 C 203.724 2.91161 2.1155 0
M  V30 2181 C 203.332 4.25068 1.41495 0
M  V30 2182 C 205.076 3.13383 2.86341 0
M  V30 2183 C 202.983 5.42541 2.35379 0
M  V30 2184 H 201.913 0.613954 0.437694 0
M  V30 2185 H 204.564 1.78442 0.427871 0
M  V30 2186 H 202.946 2.71218 2.88543 0
M  V30 2187 H 204.12 4.55463 0.699263 0
M  V30 2188 H 202.435 4.0888 0.787792 0
M  V30 2189 H 205.032 3.98324 3.5671 0
M  V30 2190 H 205.375 2.27256 3.48798 0
M  V30 2191 H 205.908 3.33757 2.1645 0
M  V30 2192 H 202.647 6.30987 1.77582 0
M  V30 2193 H 202.167 5.16497 3.04945 0
M  V30 2194 H 203.846 5.75272 2.96093 0
M  V30 2195 N 203.978 -0.674533 1.42435 0
M  V30 2196 C 205.203 -1.46784 1.46524 0
M  V30 2197 C 205.628 -1.87938 0.078066 0
M  V30 2198 O 204.986 -1.56014 -0.92354 0
M  V30 2199 C 205.034 -2.69307 2.39805 0
M  V30 2200 O 204.138 -3.67587 1.86959 0
M  V30 2201 H 203.479 -0.440959 0.496439 0
M  V30 2202 H 206.009 -0.827326 1.87127 0
M  V30 2203 H 206.019 -3.17374 2.56393 0
M  V30 2204 H 204.694 -2.38692 3.40586 0
M  V30 2205 H 203.271 -3.2662 1.79927 0
M  V30 2206 N 205.456 -1.28612 -0.910864 0
M  V30 2207 C 206.403 -1.12786 -2.01365 0
M  V30 2208 C 207.373 -0.024201 -1.66082 0
M  V30 2209 O 208.558 -0.189667 -1.89855 0
M  V30 2210 C 205.698 -0.798743 -3.35729 0
M  V30 2211 C 204.811 -1.98173 -3.83864 0
M  V30 2212 C 203.946 -1.59298 -5.06752 0
M  V30 2213 C 202.985 -2.74245 -5.47226 0
M  V30 2214 N 202.122 -2.35842 -6.61304 0
M  V30 2215 H 206.962 -2.07142 -2.14234 0
M  V30 2216 H 204.499 -1.03093 -1.0493 0
M  V30 2217 H 206.457 -0.588662 -4.13026 0
M  V30 2218 H 205.087 0.10789 -3.2262 0
M  V30 2219 H 204.139 -2.30386 -3.02699 0
M  V30 2220 H 205.451 -2.84343 -4.09818 0
M  V30 2221 H 204.605 -1.34513 -5.916 0
M  V30 2222 H 203.344 -0.702618 -4.82612 0
M  V30 2223 H 202.349 -2.99725 -4.60918 0
M  V30 2224 H 203.574 -3.63928 -5.73353 0
M  V30 2225 H 201.52 -1.49279 -6.38789 0
M  V30 2226 H 201.437 -3.15546 -6.86998 0
M  V30 2227 H 202.705 -2.14348 -7.4945 0
M  V30 2228 N 206.934 1.1197 -1.10907 0
M  V30 2229 C 207.867 2.16998 -0.706192 0
M  V30 2230 C 208.845 1.59903 0.294897 0
M  V30 2231 O 210.029 1.87513 0.192636 0
M  V30 2232 C 207.156 3.38673 -0.0427664 0
M  V30 2233 C 206.202 4.14414 -1.00811 0
M  V30 2234 S 207.035 4.72079 -2.52789 0
M  V30 2235 C 208.191 5.97083 -1.87731 0
M  V30 2236 H 208.424 2.50837 -1.59587 0
M  V30 2237 H 205.957 1.23508 -0.926555 0
M  V30 2238 H 207.915 4.09142 0.333668 0
M  V30 2239 H 206.576 3.03105 0.823788 0
M  V30 2240 H 205.769 5.016 -0.491259 0
M  V30 2241 H 205.371 3.49678 -1.3267 0
M  V30 2242 H 207.663 6.66599 -1.21044 0
M  V30 2243 H 208.606 6.53403 -2.72892 0
M  V30 2244 H 209.014 5.4837 -1.33979 0
M  V30 2245 N 208.412 0.89855 1.29475 0
M  V30 2246 C 209.637 0.538561 2.00285 0
M  V30 2247 C 210.062 -0.869135 1.66816 0
M  V30 2248 O 209.42 -1.57831 0.892145 0
M  V30 2249 C 209.468 0.736475 3.52999 0
M  V30 2250 O 208.572 -0.211537 4.11857 0
M  V30 2251 H 207.913 0.210563 0.62973 0
M  V30 2252 H 210.443 1.20982 1.64998 0
M  V30 2253 H 210.453 0.640685 4.02938 0
M  V30 2254 H 209.128 1.76276 3.76696 0
M  V30 2255 H 207.705 -0.0682991 3.72837 0
M  V30 2256 N 209.89 -1.43072 0.660911 0
M  V30 2257 C 211.12 -2.05769 0.185153 0
M  V30 2258 C 211.528 -1.49668 -1.15742 0
M  V30 2259 O 210.871 -0.625649 -1.72717 0
M  V30 2260 C 210.933 -3.59489 0.0278237 0
M  V30 2261 C 210.597 -4.38212 1.2969 0
M  V30 2262 C 211.594 -4.69772 2.22734 0
M  V30 2263 C 209.279 -4.7809 1.54063 0
M  V30 2264 C 211.273 -5.40129 3.38437 0
M  V30 2265 C 208.96 -5.4819 2.70058 0
M  V30 2266 C 209.958 -5.79132 3.62071 0
M  V30 2267 O 209.646 -6.47798 4.76039 0
M  V30 2268 H 209.378 -0.669873 0.0908086 0
M  V30 2269 H 211.932 -1.84436 0.90402 0
M  V30 2270 H 210.162 -3.79426 -0.746489 0
M  V30 2271 H 211.851 -4.03862 -0.406275 0
M  V30 2272 H 212.617 -4.39476 2.05149 0
M  V30 2273 H 208.496 -4.53408 0.833215 0
M  V30 2274 H 212.04 -5.64198 4.10277 0
M  V30 2275 H 207.937 -5.77902 2.87574 0
M  V30 2276 H 208.705 -6.66283 4.75404 0
M  V30 2277 N 211.368 -0.403325 -1.52352 0
M  V30 2278 C 212.3 0.4603 -2.2453 0
M  V30 2279 C 213.313 1.01505 -1.27282 0
M  V30 2280 O 214.502 0.914982 -1.53266 0
M  V30 2281 C 211.602 1.65208 -2.95905 0
M  V30 2282 C 210.775 1.22224 -4.19976 0
M  V30 2283 C 209.834 2.28028 -4.74226 0
M  V30 2284 O 208.86 1.88857 -5.36956 0
M  V30 2285 N 210.062 3.6012 -4.55295 0
M  V30 2286 H 212.827 -0.158156 -2.99282 0
M  V30 2287 H 210.388 -0.230402 -1.60252 0
M  V30 2288 H 212.38 2.35541 -3.29093 0
M  V30 2289 H 210.95 2.17658 -2.24374 0
M  V30 2290 H 210.17 0.34725 -3.92668 0
M  V30 2291 H 211.458 0.911924 -5.00561 0
M  V30 2292 H 210.856 3.94698 -4.05253 0
M  V30 2293 H 209.413 4.26447 -4.92936 0
M  V30 2294 N 212.846 1.57033 -0.133567 0
M  V30 2295 C 214.123 1.87256 0.56522 0
M  V30 2296 C 214.503 1.03726 1.83859 0
M  V30 2297 O 213.851 0.120247 2.28183 0
M  V30 2298 C 214.061 3.3865 0.843636 0
M  V30 2299 C 215.409 4.07574 1.19032 0
M  V30 2300 O 216.433 3.43752 0.933429 0
M  V30 2301 O 215.292 5.20259 1.67312 0
M  V30 2302 H 212.386 0.775678 0.286796 0
M  V30 2303 H 214.932 1.68855 -0.169168 0
M  V30 2304 H 213.704 3.91257 -0.0581149 0
M  V30 2305 H 213.327 3.62532 1.63268 0
M  V30 2306 N 214.325 -0.140222 1.56975 0
M  V30 2307 C 215.736 -0.699596 1.73097 0
M  V30 2308 C 216.087 -1.8134 0.749022 0
M  V30 2309 O 215.212 -2.16241 -0.0828503 0
M  V30 2310 C 215.807 -1.27582 3.1386 0
M  V30 2311 C 214.366 -1.78169 3.31561 0
M  V30 2312 C 213.513 -0.672855 2.69013 0
M  V30 2313 H 216.464 0.0855115 1.58469 0
M  V30 2314 H 216.485 -2.14561 3.14235 0
M  V30 2315 H 215.997 -0.464955 3.85305 0
M  V30 2316 H 214.098 -2.61801 2.65124 0
M  V30 2317 H 214.211 -1.90574 4.39566 0
M  V30 2318 H 212.575 -1.10118 2.29665 0
M  V30 2319 H 213.358 0.126679 3.43066 0
M  V30 2320 N 215.803 -1.52179 -0.40978 0
M  V30 2321 C 217.219 -1.40968 -0.74835 0
M  V30 2322 C 217.419 -0.513657 -1.94843 0
M  V30 2323 O 216.475 0.0208026 -2.52491 0
M  V30 2324 C 217.788 -2.83483 -1.0029 0
M  V30 2325 C 219.336 -2.92821 -1.10565 0
M  V30 2326 C 219.811 -4.36303 -1.39296 0
M  V30 2327 N 221.302 -4.39535 -1.46162 0
M  V30 2328 C 222.037 -5.47614 -1.70018 0
M  V30 2329 N 221.533 -6.65812 -1.91483 0
M  V30 2330 N 223.326 -5.35129 -1.72027 0
M  V30 2331 H 215.477 -2.0897 0.380186 0
M  V30 2332 H 217.74 -0.94185 0.107805 0
M  V30 2333 H 217.446 -3.51168 -0.193461 0
M  V30 2334 H 217.32 -3.24487 -1.92323 0
M  V30 2335 H 219.707 -2.25318 -1.90568 0
M  V30 2336 H 219.788 -2.55276 -0.16369 0
M  V30 2337 H 219.432 -5.04366 -0.598109 0
M  V30 2338 H 219.362 -4.71385 -2.34743 0
M  V30 2339 H 221.853 -3.54332 -1.31367 0
M  V30 2340 H 222.166 -7.43964 -2.09134 0
M  V30 2341 H 220.511 -6.68879 -1.88749 0
M  V30 2342 H 223.702 -4.41764 -1.54796 0
M  V30 2343 H 223.875 -6.19433 -1.9028 0
M  V30 2344 N 217.281 0.66697 -1.42791 0
M  V30 2345 C 218.697 0.981027 -1.25889 0
M  V30 2346 C 218.897 2.00793 -0.168695 0
M  V30 2347 O 217.953 2.48321 0.45747 0
M  V30 2348 C 219.266 1.47838 -2.61848 0
M  V30 2349 C 220.814 1.59575 -2.69267 0
M  V30 2350 C 221.289 2.12704 -4.05612 0
M  V30 2351 N 222.78 2.20026 -4.07606 0
M  V30 2352 C 223.515 2.62227 -5.09926 0
M  V30 2353 N 223.011 3.03824 -6.22626 0
M  V30 2354 N 224.804 2.62045 -4.97281 0
M  V30 2355 H 216.955 -0.0127891 -2.12396 0
M  V30 2356 H 219.218 0.0568258 -0.946295 0
M  V30 2357 H 218.924 0.798299 -3.4252 0
M  V30 2358 H 218.798 2.45579 -2.86305 0
M  V30 2359 H 221.185 2.26687 -1.88936 0
M  V30 2360 H 221.266 0.60302 -2.48591 0
M  V30 2361 H 220.91 1.46198 -4.86404 0
M  V30 2362 H 220.84 3.12782 -4.23645 0
M  V30 2363 H 223.331 1.90708 -3.2625 0
M  V30 2364 H 223.644 3.34734 -6.96544 0
M  V30 2365 H 221.989 3.01662 -6.26119 0
M  V30 2366 H 225.18 2.28916 -4.08308 0
M  V30 2367 H 225.353 2.94613 -5.77154 0
M  V30 2368 N 218.759 1.29093 0.90403 0
M  V30 2369 C 219.669 1.15727 2.0407 0
M  V30 2370 C 220.685 0.0815308 1.73809 0
M  V30 2371 O 221.861 0.292749 1.99261 0
M  V30 2372 C 218.926 0.830424 3.36608 0
M  V30 2373 C 217.987 1.98955 3.80415 0
M  V30 2374 C 217.22 1.6782 5.06628 0
M  V30 2375 O 217.443 0.597105 5.67266 0
M  V30 2376 O 216.377 2.52486 5.46383 0
M  V30 2377 H 220.203 2.11171 2.18267 0
M  V30 2378 H 217.788 1.08504 1.027 0
M  V30 2379 H 219.67 0.662521 4.16159 0
M  V30 2380 H 218.345 -0.0942678 3.23563 0
M  V30 2381 H 217.252 2.21267 3.01648 0
M  V30 2382 H 218.585 2.89529 3.98037 0
M  V30 2383 N 220.237 -1.11381 1.11499 0
M  V30 2384 C 221.169 -2.17207 0.731704 0
M  V30 2385 C 222.182 -1.61066 -0.236957 0
M  V30 2386 O 223.371 -1.78489 -0.0197591 0
M  V30 2387 C 220.471 -3.38846 0.0607624 0
M  V30 2388 C 219.644 -4.24451 1.0564 0
M  V30 2389 C 218.703 -5.24562 0.4149 0
M  V30 2390 O 217.729 -5.59071 1.069 0
M  V30 2391 N 218.931 -5.74651 -0.821943 0
M  V30 2392 H 221.696 -2.50699 1.64225 0
M  V30 2393 H 219.257 -1.26908 1.00529 0
M  V30 2394 H 221.249 -4.02911 -0.380139 0
M  V30 2395 H 219.819 -3.03411 -0.752376 0
M  V30 2396 H 219.039 -3.56833 1.67524 0
M  V30 2397 H 220.327 -4.78486 1.72998 0
M  V30 2398 H 219.725 -5.48797 -1.37252 0
M  V30 2399 H 218.282 -6.40549 -1.20582 0
M  V30 2400 N 221.715 -0.905404 -1.28997 0
M  V30 2401 C 222.648 -0.331959 -2.25773 0
M  V30 2402 C 223.626 0.559099 -1.52685 0
M  V30 2403 O 224.81 0.50463 -1.8162 0
M  V30 2404 C 221.937 0.526276 -3.34586 0
M  V30 2405 C 220.983 -0.298249 -4.25456 0
M  V30 2406 S 221.816 -1.69968 -5.0781 0
M  V30 2407 C 222.972 -0.848519 -6.20122 0
M  V30 2408 H 223.205 -1.15222 -2.74064 0
M  V30 2409 H 220.738 -0.706112 -1.37308 0
M  V30 2410 H 222.696 1.01565 -3.97737 0
M  V30 2411 H 221.357 1.32084 -2.84978 0
M  V30 2412 H 220.55 0.357607 -5.0273 0
M  V30 2413 H 220.152 -0.720968 -3.66985 0
M  V30 2414 H 222.444 -0.0744325 -6.77459 0
M  V30 2415 H 223.387 -1.59353 -6.89937 0
M  V30 2416 H 223.795 -0.400383 -5.63078 0
M  V30 2417 N 223.193 1.4272 -0.668489 0
M  V30 2418 C 224.156 2.292 0.00448567 0
M  V30 2419 C 225.156 1.43001 0.735339 0
M  V30 2420 O 226.346 1.64461 0.57429 0
M  V30 2421 C 223.478 3.25375 1.01705 0
M  V30 2422 H 224.671 2.90199 -0.756608 0
M  V30 2423 H 222.224 1.50254 -0.430506 0
M  V30 2424 H 222.959 2.69301 1.80686 0
M  V30 2425 H 222.744 3.88944 0.496463 0
M  V30 2426 H 224.234 3.90245 1.48655 0
M  V30 2427 N 224.671 0.411399 1.52136 0
M  V30 2428 C 225.634 -0.401089 2.25663 0
M  V30 2429 C 226.634 -0.971732 1.28117 0
M  V30 2430 O 227.824 -0.850254 1.52041 0
M  V30 2431 C 224.956 -1.56483 3.02863 0
M  V30 2432 H 226.149 0.24295 2.98914 0
M  V30 2433 H 223.702 0.163968 1.55438 0
M  V30 2434 H 224.437 -2.24567 2.33967 0
M  V30 2435 H 224.222 -1.16211 3.74483 0
M  V30 2436 H 225.712 -2.13951 3.58629 0
M  V30 2437 N 226.149 -1.5696 0.141893 0
M  V30 2438 C 227.112 -2.15316 -0.785587 0
M  V30 2439 C 228.112 -1.09366 -1.1788 0
M  V30 2440 O 229.302 -1.35031 -1.10056 0
M  V30 2441 C 226.434 -2.71211 -2.06537 0
M  V30 2442 H 227.627 -2.98608 -0.278041 0
M  V30 2443 H 225.18 -1.5593 -0.107519 0
M  V30 2444 H 225.915 -1.91571 -2.6167 0
M  V30 2445 H 225.7 -3.4872 -1.79268 0
M  V30 2446 H 227.19 -3.16189 -2.72789 0
M  V30 2447 N 227.627 0.131896 -1.57047 0
M  V30 2448 C 228.59 1.14638 -1.98471 0
M  V30 2449 C 229.59 1.35029 -0.873148 0
M  V30 2450 O 230.78 1.31764 -1.13946 0
M  V30 2451 C 227.912 2.50358 -2.31373 0
M  V30 2452 H 229.105 0.79064 -2.8929 0
M  V30 2453 H 226.658 0.375761 -1.51716 0
M  V30 2454 H 227.393 2.90876 -1.43393 0
M  V30 2455 H 227.178 2.36915 -3.12432 0
M  V30 2456 H 228.668 3.23395 -2.64207 0
M  V30 2457 N 229.106 1.52395 0.401703 0
M  V30 2458 C 230.069 1.75636 1.47257 0
M  V30 2459 C 231.069 0.62628 1.48103 0
M  V30 2460 O 232.259 0.894227 1.49497 0
M  V30 2461 C 229.391 1.84553 2.86624 0
M  V30 2462 H 230.584 2.71241 1.27938 0
M  V30 2463 H 228.137 1.42923 0.632662 0
M  V30 2464 H 228.872 0.908882 3.11303 0
M  V30 2465 H 228.657 2.66715 2.87412 0
M  V30 2466 H 230.147 2.04251 3.64241 0
M  V30 2467 N 230.584 -0.659388 1.43143 0
M  V30 2468 C 232 -0.974337 1.26407 0
M  V30 2469 C 232.2 -2.007 0.179341 0
M  V30 2470 O 231.256 -2.4856 -0.444295 0
M  V30 2471 C 232.569 -1.46447 2.62628 0
M  V30 2472 C 234.117 -1.58144 2.7011 0
M  V30 2473 C 234.592 -2.1055 4.06734 0
M  V30 2474 N 236.083 -2.17861 4.08767 0
M  V30 2475 C 236.818 -2.59519 5.1131 0
M  V30 2476 N 236.314 -3.00518 6.24228 0
M  V30 2477 N 238.107 -2.59404 4.98664 0
M  V30 2478 H 230.258 0.0240528 2.12386 0
M  V30 2479 H 232.521 -0.0518065 0.946583 0
M  V30 2480 H 232.227 -0.780123 3.42939 0
M  V30 2481 H 232.101 -2.44058 2.87603 0
M  V30 2482 H 234.488 -2.25682 1.90136 0
M  V30 2483 H 234.569 -0.589828 2.48907 0
M  V30 2484 H 234.213 -1.43616 4.87172 0
M  V30 2485 H 234.143 -3.10531 4.25298 0
M  V30 2486 H 236.634 -1.88975 3.27257 0
M  V30 2487 H 236.947 -3.31036 6.98309 0
M  V30 2488 H 235.292 -2.98337 6.2771 0
M  V30 2489 H 238.483 -2.26747 4.09516 0
M  V30 2490 H 238.656 -2.91548 5.78709 0
M  V30 2491 N 232.062 -1.29571 -0.897171 0
M  V30 2492 C 233.473 -1.15964 -1.46319 0
M  V30 2493 C 233.824 0.244267 -1.94674 0
M  V30 2494 O 232.949 1.13998 -1.83939 0
M  V30 2495 C 233.544 -2.09906 -2.65942 0
M  V30 2496 C 232.103 -2.00314 -3.18671 0
M  V30 2497 C 231.25 -2.00687 -1.91363 0
M  V30 2498 H 234.201 -1.42019 -0.708268 0
M  V30 2499 H 234.222 -1.67276 -3.41759 0
M  V30 2500 H 233.734 -3.12075 -2.30718 0
M  V30 2501 H 231.835 -1.01242 -3.58582 0
M  V30 2502 H 231.948 -2.88102 -3.82798 0
M  V30 2503 H 230.312 -1.45319 -2.09175 0
M  V30 2504 H 231.095 -3.04566 -1.58413 0
M  V30 2505 N 233.54 1.10788 -1.12088 0
M  V30 2506 C 234.789 1.82036 -0.868659 0
M  V30 2507 C 235.102 1.85929 0.607426 0
M  V30 2508 O 236.308 2.53346 0.97613 0
M  V30 2509 C 234.764 3.26951 -1.50435 0
M  V30 2510 C 234.372 3.31367 -3.01496 0
M  V30 2511 C 236.116 4.03053 -1.33225 0
M  V30 2512 C 234.023 4.7072 -3.58017 0
M  V30 2513 H 232.953 0.682108 -0.321318 0
M  V30 2514 H 235.604 1.24618 -1.34694 0
M  V30 2515 H 233.986 3.84343 -0.953735 0
M  V30 2516 H 235.16 2.83819 -3.6302 0
M  V30 2517 H 233.475 2.6875 -3.18061 0
M  V30 2518 H 236.072 5.05981 -1.72878 0
M  V30 2519 H 236.415 4.15387 -0.275529 0
M  V30 2520 H 236.948 3.52066 -1.85188 0
M  V30 2521 H 233.687 4.63585 -4.63432 0
M  V30 2522 H 233.207 5.1865 -3.01268 0
M  V30 2523 H 234.886 5.39685 -3.56859 0
M  V30 2524 N 235.018 0.912232 1.28515 0
M  V30 2525 C 235.966 0.389597 2.29314 0
M  V30 2526 C 236.96 -0.517915 1.61289 0
M  V30 2527 O 238.166 -0.399328 1.75515 0
M  V30 2528 H 234.541 0.107386 0.744293 0
M  V30 2529 H 236.512 1.25286 2.70825 0
M  V30 2530 C 235.261 -0.356496 3.45868 0
M  V30 2531 H 234.584 0.332608 3.98414 0
M  V30 2532 H 236.024 -0.686851 4.184 0
M  V30 2533 C 234.483 -1.56383 2.98406 0
M  V30 2534 O 235.013 -2.66294 3.00749 0
M  V30 2535 N 233.219 -1.41029 2.54085 0
M  V30 2536 H 232.766 -0.516089 2.52377 0
M  V30 2537 H 232.724 -2.21939 2.22689 0
M  V30 2538 N 236.496 -1.42363 0.676048 0
M  V30 2539 C 237.459 -2.29199 0.00766941 0
M  V30 2540 C 238.459 -1.43389 -0.727745 0
M  V30 2541 O 239.649 -1.64764 -0.56556 0
M  V30 2542 C 236.781 -3.2591 -0.999785 0
M  V30 2543 H 237.974 -2.89794 0.771988 0
M  V30 2544 H 235.527 -1.50024 0.438468 0
M  V30 2545 H 236.262 -2.70256 -1.79255 0
M  V30 2546 H 236.047 -3.89202 -0.475829 0
M  V30 2547 H 237.537 -3.91028 -1.46583 0
M  V30 2548 N 237.974 -0.419461 -1.51915 0
M  V30 2549 C 239.199 0.154572 -2.06823 0
M  V30 2550 C 239.624 1.3722 -1.28656 0
M  V30 2551 O 238.982 1.78461 -0.319583 0
M  V30 2552 C 239.03 0.473172 -3.57482 0
M  V30 2553 O 238.134 1.56255 -3.81652 0
M  V30 2554 H 237.475 0.0096924 -0.663929 0
M  V30 2555 H 240.005 -0.595642 -1.95738 0
M  V30 2556 H 240.015 0.728825 -4.01438 0
M  V30 2557 H 238.69 -0.416873 -4.13805 0
M  V30 2558 H 237.267 1.29825 -3.49571 0
M  V30 2559 N 239.452 1.56882 -0.150215 0
M  V30 2560 C 240.385 2.12712 0.826358 0
M  V30 2561 C 241.363 1.05154 1.24022 0
M  V30 2562 O 242.547 1.33004 1.33575 0
M  V30 2563 C 239.674 2.64945 2.11002 0
M  V30 2564 C 238.72 3.8468 1.84183 0
M  V30 2565 S 239.553 5.25502 1.02995 0
M  V30 2566 C 240.709 5.81125 2.32474 0
M  V30 2567 H 240.942 2.95214 0.351598 0
M  V30 2568 H 238.475 1.54267 0.0641211 0
M  V30 2569 H 240.433 2.95689 2.84742 0
M  V30 2570 H 239.094 1.82568 2.55593 0
M  V30 2571 H 238.287 4.19482 2.79375 0
M  V30 2572 H 237.889 3.54714 1.1855 0
M  V30 2573 H 240.181 5.92753 3.281 0
M  V30 2574 H 241.124 6.78625 2.02171 0
M  V30 2575 H 241.532 5.09392 2.43269 0
M  V30 2576 N 240.93 -0.123565 1.57115 0
M  V30 2577 C 241.877 -1.15177 2.00007 0
M  V30 2578 C 242.847 -1.41403 0.871454 0
M  V30 2579 O 244.032 -1.53346 1.13533 0
M  V30 2580 C 241.172 -2.47436 2.40561 0
M  V30 2581 C 240.285 -2.28184 3.66819 0
M  V30 2582 C 239.42 -3.53641 3.96373 0
M  V30 2583 C 238.459 -3.29528 5.15827 0
M  V30 2584 N 237.596 -4.47175 5.41275 0
M  V30 2585 H 242.436 -0.779008 2.87638 0
M  V30 2586 H 239.973 -0.373166 1.42288 0
M  V30 2587 H 241.931 -3.24584 2.62109 0
M  V30 2588 H 240.561 -2.82614 1.55978 0
M  V30 2589 H 239.613 -1.41976 3.52912 0
M  V30 2590 H 240.925 -2.0634 4.5412 0
M  V30 2591 H 240.079 -4.39209 4.18545 0
M  V30 2592 H 238.818 -3.78512 3.07538 0
M  V30 2593 H 237.823 -2.42349 4.93505 0
M  V30 2594 H 239.048 -3.06031 6.06236 0
M  V30 2595 H 236.994 -4.72175 4.55397 0
M  V30 2596 H 236.911 -4.28419 6.22891 0
M  V30 2597 H 238.179 -5.3389 5.67963 0
M  V30 2598 N 242.408 -1.52605 -0.393616 0
M  V30 2599 C 243.819 -1.59417 -0.971761 0
M  V30 2600 C 244.17 -0.444173 -1.91106 0
M  V30 2601 O 243.295 0.433382 -2.12016 0
M  V30 2602 C 243.89 -2.88936 -1.76921 0
M  V30 2603 C 242.449 -2.98175 -2.29714 0
M  V30 2604 C 241.596 -2.54491 -1.10135 0
M  V30 2605 H 244.547 -1.57751 -0.173317 0
M  V30 2606 H 244.568 -2.75163 -2.62804 0
M  V30 2607 H 244.08 -3.72616 -1.08532 0
M  V30 2608 H 242.181 -2.19024 -3.01429 0
M  V30 2609 H 242.294 -4.02726 -2.59517 0
M  V30 2610 H 240.658 -2.08702 -1.45999 0
M  V30 2611 H 241.441 -3.4056 -0.432874 0
M  V30 2612 N 243.887 0.651787 -1.4349 0
M  V30 2613 C 245.135 1.40888 -1.44897 0
M  V30 2614 C 245.456 1.94856 -0.0749086 0
M  V30 2615 O 244.726 1.74518 0.889956 0
M  V30 2616 H 243.306 0.522887 -0.533478 0
M  V30 2617 H 245.968 0.768609 -1.79104 0
M  V30 2618 H 245.064 2.25052 -2.16236 0
M  V30 2619 N 245.365 1.30045 0.890287 0
M  V30 2620 C 246.313 1.15873 2.01683 0
M  V30 2621 C 247.307 0.0719403 1.69247 0
M  V30 2622 O 248.513 0.232414 1.78493 0
M  V30 2623 H 244.888 0.358203 0.661207 0
M  V30 2624 H 246.859 2.11229 2.10772 0
M  V30 2625 C 245.608 0.861842 3.36849 0
M  V30 2626 H 244.931 1.69016 3.62317 0
M  V30 2627 H 246.371 0.802762 4.16331 0
M  V30 2628 C 244.83 -0.435132 3.34078 0
M  V30 2629 O 245.36 -1.4583 3.74295 0
M  V30 2630 N 243.566 -0.444377 2.87182 0
M  V30 2631 H 243.113 0.388723 2.5465 0
M  V30 2632 H 243.071 -1.31213 2.85711 0
M  V30 2633 N 246.843 -1.10192 1.12674 0
M  V30 2634 C 248.089 -1.82475 0.884915 0
M  V30 2635 C 248.422 -1.85093 -0.58773 0
M  V30 2636 O 247.697 -1.3134 -1.43457 0
M  V30 2637 C 247.98 -3.29018 1.46353 0
M  V30 2638 C 247.833 -3.34718 3.00473 0
M  V30 2639 C 249.152 -4.25473 1.12519 0
M  V30 2640 H 246.271 -0.662492 0.322915 0
M  V30 2641 H 248.913 -1.2913 1.39375 0
M  V30 2642 H 247.063 -3.74576 1.03077 0
M  V30 2643 H 248.735 -2.97622 3.52447 0
M  V30 2644 H 246.978 -2.74541 3.35872 0
M  V30 2645 H 247.649 -4.37918 3.36053 0
M  V30 2646 H 250.125 -3.88161 1.499 0
M  V30 2647 H 249.001 -5.26365 1.55663 0
M  V30 2648 H 249.262 -4.42084 0.0377407 0
M  V30 2649 N 248.321 -0.919034 -1.28029 0
M  V30 2650 C 249.253 -0.368762 -2.26214 0
M  V30 2651 C 250.266 0.495716 -1.55069 0
M  V30 2652 O 251.455 0.30974 -1.75792 0
M  V30 2653 C 248.555 0.491049 -3.35324 0
M  V30 2654 C 247.728 -0.352133 -4.3598 0
M  V30 2655 C 246.787 0.443622 -5.24327 0
M  V30 2656 O 245.813 -0.14566 -5.69014 0
M  V30 2657 N 247.015 1.74545 -5.53637 0
M  V30 2658 H 249.78 -1.21273 -2.74068 0
M  V30 2659 H 247.341 -0.785541 -1.41566 0
M  V30 2660 H 249.333 1.03026 -3.91366 0
M  V30 2661 H 247.903 1.23574 -2.87138 0
M  V30 2662 H 247.123 -1.07269 -3.79324 0
M  V30 2663 H 248.411 -0.928883 -5.00249 0
M  V30 2664 H 247.809 2.24666 -5.19174 0
M  V30 2665 H 246.366 2.23138 -6.12416 0
M  V30 2666 N 249.799 1.42003 -0.683588 0
M  V30 2667 C 250.731 2.29183 0.0283068 0
M  V30 2668 C 251.744 1.4415 0.756611 0
M  V30 2669 O 252.933 1.67779 0.609306 0
M  V30 2670 C 250.033 3.21765 1.06398 0
M  V30 2671 C 249.206 4.35496 0.407723 0
M  V30 2672 C 248.265 5.08737 1.34437 0
M  V30 2673 O 247.291 5.62948 0.841318 0
M  V30 2674 N 248.493 5.15075 2.67728 0
M  V30 2675 H 251.258 2.9092 -0.720105 0
M  V30 2676 H 248.819 1.53025 -0.528682 0
M  V30 2677 H 250.811 3.6763 1.69204 0
M  V30 2678 H 249.381 2.61418 1.71404 0
M  V30 2679 H 248.601 3.92165 -0.400012 0
M  V30 2680 H 249.889 5.08776 -0.0490956 0
M  V30 2681 H 249.287 4.72457 3.11129 0
M  V30 2682 H 247.844 5.64556 3.2576 0
M  V30 2683 N 251.277 0.427512 1.51691 0
M  V30 2684 C 252.502 -0.143601 2.06902 0
M  V30 2685 C 252.927 -1.36536 1.29382 0
M  V30 2686 O 252.285 -1.78289 0.329043 0
M  V30 2687 C 252.333 -0.454207 3.57728 0
M  V30 2688 O 251.437 -1.54228 3.82475 0
M  V30 2689 H 250.778 -0.00617128 0.663971 0
M  V30 2690 H 253.308 0.606014 1.95419 0
M  V30 2691 H 253.318 -0.707525 4.01818 0
M  V30 2692 H 251.993 0.438812 4.13579 0
M  V30 2693 H 250.57 -1.2797 3.50254 0
M  V30 2694 N 252.755 -1.56801 0.158532 0
M  V30 2695 C 254.001 -1.96781 -0.490405 0
M  V30 2696 C 254.334 -1.04397 -1.63753 0
M  V30 2697 O 253.609 -0.0885805 -1.94298 0
M  V30 2698 C 253.892 -3.4635 -0.985594 0
M  V30 2699 C 253.745 -4.49512 0.160824 0
M  V30 2700 C 255.064 -3.98697 -1.86355 0
M  V30 2701 H 252.183 -0.715482 -0.176788 0
M  V30 2702 H 254.825 -1.88451 0.242088 0
M  V30 2703 H 252.975 -3.53579 -1.60978 0
M  V30 2704 H 254.647 -4.54353 0.797537 0
M  V30 2705 H 252.89 -4.26013 0.818256 0
M  V30 2706 H 253.561 -5.51531 -0.227569 0
M  V30 2707 H 256.037 -3.94019 -1.33746 0
M  V30 2708 H 254.913 -5.03792 -2.17909 0
M  V30 2709 H 255.174 -3.41744 -2.8047 0
M  V30 2710 N 254.233 0.115231 -1.57178 0
M  V30 2711 C 255.181 1.16014 -2.01602 0
M  V30 2712 C 256.175 1.42653 -0.913587 0
M  V30 2713 O 257.381 1.42571 -1.09879 0
M  V30 2714 H 253.756 0.391252 -0.642204 0
M  V30 2715 H 255.727 0.758998 -2.88586 0
M  V30 2716 C 254.476 2.47767 -2.4394 0
M  V30 2717 H 253.799 2.28108 -3.28339 0
M  V30 2718 H 255.239 3.19432 -2.78818 0
M  V30 2719 C 253.698 3.10617 -1.30455 0
M  V30 2720 O 254.228 3.96846 -0.622585 0
M  V30 2721 N 252.434 2.70553 -1.06064 0
M  V30 2722 H 251.981 2.00527 -1.61699 0
M  V30 2723 H 251.939 3.12934 -0.303284 0
M  V30 2724 N 255.711 1.52812 0.385517 0
M  V30 2725 C 257.127 1.4214 0.725829 0
M  V30 2726 C 257.327 0.544589 1.94001 0
M  V30 2727 O 256.383 0.0193693 2.52493 0
M  V30 2728 C 257.696 2.85042 0.957668 0
M  V30 2729 C 259.244 2.94543 1.05892 0
M  V30 2730 C 259.719 4.38464 1.32337 0
M  V30 2731 N 261.21 4.41804 1.39151 0
M  V30 2732 C 261.945 5.5025 1.61285 0
M  V30 2733 N 261.441 6.68775 1.80866 0
M  V30 2734 N 263.234 5.37798 1.63492 0
M  V30 2735 H 255.385 2.08338 -0.413383 0
M  V30 2736 H 257.648 0.940016 -0.122775 0
M  V30 2737 H 257.354 3.51431 0.137568 0
M  V30 2738 H 257.228 3.27505 1.87137 0
M  V30 2739 H 259.615 2.28321 1.86959 0
M  V30 2740 H 259.696 2.55504 0.123057 0
M  V30 2741 H 259.34 5.05254 0.517793 0
M  V30 2742 H 259.27 4.75059 2.27214 0
M  V30 2743 H 261.761 3.56377 1.25713 0
M  V30 2744 H 262.074 7.47197 1.97271 0
M  V30 2745 H 260.419 6.71797 1.78083 0
M  V30 2746 H 263.61 4.44171 1.47749 0
M  V30 2747 H 263.783 6.22382 1.80402 0
M  V30 2748 N 257.189 -0.644168 1.43834 0
M  V30 2749 C 258.136 -1.75671 1.49694 0
M  V30 2750 C 259.106 -1.6246 0.345809 0
M  V30 2751 O 260.291 -1.82573 0.554234 0
M  V30 2752 C 257.431 -3.13867 1.43463 0
M  V30 2753 C 256.544 -3.38147 2.6885 0
M  V30 2754 C 255.679 -4.66241 2.54544 0
M  V30 2755 C 254.718 -4.83657 3.75157 0
M  V30 2756 N 253.855 -6.03016 3.59605 0
M  V30 2757 H 258.695 -1.69998 2.44754 0
M  V30 2758 H 256.232 -0.829458 1.21484 0
M  V30 2759 H 258.19 -3.9377 1.37843 0
M  V30 2760 H 256.82 -3.18588 0.519783 0
M  V30 2761 H 255.872 -2.52276 2.84712 0
M  V30 2762 H 257.184 -3.46899 3.58417 0
M  V30 2763 H 256.338 -5.54285 2.46683 0
M  V30 2764 H 255.077 -4.59826 1.62516 0
M  V30 2765 H 254.082 -3.94046 3.83416 0
M  V30 2766 H 255.307 -4.91896 4.68204 0
M  V30 2767 H 253.253 -5.97715 2.7032 0
M  V30 2768 H 253.17 -6.12766 4.42779 0
M  V30 2769 H 254.438 -6.93657 3.55613 0
M  V30 2770 N 258.668 -1.30515 -0.883378 0
M  V30 2771 C 259.6 -1.12846 -1.99496 0
M  V30 2772 C 260.613 -0.0712571 -1.62644 0
M  V30 2773 O 261.802 -0.317432 -1.75655 0
M  V30 2774 C 258.902 -0.699123 -3.3161 0
M  V30 2775 C 258.075 -1.83842 -3.96889 0
M  V30 2776 C 257.134 -1.39737 -5.07307 0
M  V30 2777 O 256.16 -2.10485 -5.28852 0
M  V30 2778 N 257.362 -0.277279 -5.79837 0
M  V30 2779 H 260.127 -2.08585 -2.15203 0
M  V30 2780 H 257.688 -1.22672 -1.05656 0
M  V30 2781 H 259.68 -0.387044 -4.02845 0
M  V30 2782 H 258.25 0.166276 -3.12157 0
M  V30 2783 H 257.47 -2.31853 -3.18807 0
M  V30 2784 H 258.758 -2.60187 -4.37241 0
M  V30 2785 H 258.156 0.3122 -5.64838 0
M  V30 2786 H 256.713 -0.0246623 -6.51795 0
M  V30 2787 N 260.146 1.09593 -1.13257 0
M  V30 2788 C 261.371 1.8604 -0.916732 0
M  V30 2789 C 261.796 1.80504 0.529146 0
M  V30 2790 O 261.154 1.18127 1.37534 0
M  V30 2791 C 261.202 3.32017 -1.40703 0
M  V30 2792 O 260.306 4.08141 -0.591153 0
M  V30 2793 H 259.647 0.576943 -0.328683 0
M  V30 2794 H 262.177 1.38405 -1.50682 0
M  V30 2795 H 262.187 3.82865 -1.4099 0
M  V30 2796 H 260.862 3.35361 -2.45979 0
M  V30 2797 H 259.439 3.67084 -0.656005 0
M  V30 2798 N 261.624 0.925811 1.2754 0
M  V30 2799 C 262.87 0.575575 1.95086 0
M  V30 2800 C 263.225 -0.873246 1.71441 0
M  V30 2801 O 262.518 -1.61443 1.03183 0
M  V30 2802 C 262.712 0.835296 3.47502 0
M  V30 2803 C 262.541 2.30781 3.85967 0
M  V30 2804 C 261.311 2.96017 4.09514 0
M  V30 2805 C 263.509 3.28519 3.95702 0
M  V30 2806 N 261.491 4.3344 4.34744 0
M  V30 2807 C 262.862 4.51146 4.25285 0
M  V30 2808 C 264.917 3.23753 3.7827 0
M  V30 2809 C 263.62 5.69606 4.39251 0
M  V30 2810 C 265.646 4.41523 3.9346 0
M  V30 2811 C 265.008 5.62928 4.23428 0
M  V30 2812 H 261.107 0.260711 0.737261 0
M  V30 2813 H 263.691 1.19204 1.53943 0
M  V30 2814 H 261.862 0.248005 3.87607 0
M  V30 2815 H 263.594 0.447878 4.02214 0
M  V30 2816 H 260.349 2.46695 4.04275 0
M  V30 2817 H 260.773 5.04528 4.5142 0
M  V30 2818 H 265.415 2.3096 3.54143 0
M  V30 2819 H 263.133 6.62866 4.62205 0
M  V30 2820 H 266.719 4.39351 3.81394 0
M  V30 2821 H 265.599 6.52538 4.34929 0
M  V30 2822 N 263.102 -1.41638 0.69111 0
M  V30 2823 C 264.049 -2.30789 0.0229705 0
M  V30 2824 C 265.019 -1.46863 -0.775911 0
M  V30 2825 O 266.204 -1.75661 -0.74485 0
M  V30 2826 C 263.344 -3.32868 -0.910666 0
M  V30 2827 C 262.457 -4.31875 -0.103874 0
M  V30 2828 C 261.592 -5.21024 -1.03475 0
M  V30 2829 C 260.631 -6.11702 -0.220598 0
M  V30 2830 N 259.768 -6.93349 -1.10504 0
M  V30 2831 H 264.608 -2.87366 0.788978 0
M  V30 2832 H 262.145 -1.41535 0.400794 0
M  V30 2833 H 264.103 -3.90596 -1.46597 0
M  V30 2834 H 262.733 -2.77851 -1.64312 0
M  V30 2835 H 261.785 -3.76131 0.568285 0
M  V30 2836 H 263.097 -4.96003 0.527504 0
M  V30 2837 H 262.251 -5.83565 -1.65943 0
M  V30 2838 H 260.99 -4.57112 -1.69999 0
M  V30 2839 H 259.995 -5.48215 0.417187 0
M  V30 2840 H 261.22 -6.77668 0.440784 0
M  V30 2841 H 259.166 -6.3205 -1.75638 0
M  V30 2842 H 259.083 -7.54146 -0.529125 0
M  V30 2843 H 260.351 -7.60362 -1.71667 0
M  V30 2844 N 264.58 -0.43555 -1.51462 0
M  V30 2845 C 265.828 0.131254 -2.01673 0
M  V30 2846 C 266.149 1.43368 -1.32177 0
M  V30 2847 O 265.419 1.90524 -0.455769 0
M  V30 2848 H 263.999 0.0514954 -0.745223 0
M  V30 2849 H 266.661 -0.577847 -1.86137 0
M  V30 2850 H 265.757 0.308446 -3.10572 0
M  V30 2851 N 266.058 1.56714 -0.166846 0
M  V30 2852 C 267.283 2.01557 0.488833 0
M  V30 2853 C 267.708 1.0463 1.56314 0
M  V30 2854 O 267.066 0.0251304 1.81283 0
M  V30 2855 C 267.114 3.4503 1.04818 0
M  V30 2856 O 266.218 3.51163 2.16236 0
M  V30 2857 H 265.559 0.653516 0.117526 0
M  V30 2858 H 268.089 2.02818 -0.269421 0
M  V30 2859 H 268.099 3.84243 1.37191 0
M  V30 2860 H 266.774 4.15077 0.261572 0
M  V30 2861 H 265.351 3.23807 1.84942 0
M  V30 2862 N 267.536 -0.106894 1.57237 0
M  V30 2863 C 268.483 -1.13049 2.01217 0
M  V30 2864 C 269.453 -1.40471 0.886403 0
M  V30 2865 O 270.638 -1.52133 1.15153 0
M  V30 2866 C 267.778 -2.4487 2.43172 0
M  V30 2867 C 266.891 -2.24281 3.69218 0
M  V30 2868 C 266.026 -3.49417 4.00101 0
M  V30 2869 C 265.065 -3.24038 5.19294 0
M  V30 2870 N 264.202 -4.41409 5.45988 0
M  V30 2871 H 269.042 -0.748456 2.88448 0
M  V30 2872 H 266.579 -0.358054 1.42676 0
M  V30 2873 H 268.537 -3.21786 2.65537 0
M  V30 2874 H 267.167 -2.80944 1.58967 0
M  V30 2875 H 266.219 -1.38224 3.54398 0
M  V30 2876 H 267.531 -2.01512 4.56283 0
M  V30 2877 H 266.685 -4.34746 4.2318 0
M  V30 2878 H 265.424 -3.75229 3.11535 0
M  V30 2879 H 264.429 -2.37102 4.96047 0
M  V30 2880 H 265.654 -2.99584 6.09447 0
M  V30 2881 H 263.6 -4.67319 4.60379 0
M  V30 2882 H 263.517 -4.21788 6.274 0
M  V30 2883 H 264.785 -5.27836 5.73593 0
M  V30 2884 N 269.014 -1.53014 -0.377408 0
M  V30 2885 C 269.924 -1.81557 -1.48574 0
M  V30 2886 C 270.94 -0.703102 -1.59162 0
M  V30 2887 O 272.116 -0.99192 -1.75279 0
M  V30 2888 C 269.181 -1.9889 -2.83978 0
M  V30 2889 C 268.242 -3.22801 -2.83016 0
M  V30 2890 C 267.475 -3.39298 -4.11962 0
M  V30 2891 O 267.698 -2.60345 -5.0752 0
M  V30 2892 O 266.632 -4.32604 -4.18494 0
M  V30 2893 H 270.458 -2.75695 -1.27382 0
M  V30 2894 H 268.043 -1.38248 -0.566373 0
M  V30 2895 H 269.925 -2.11931 -3.6423 0
M  V30 2896 H 268.6 -1.07942 -3.05172 0
M  V30 2897 H 267.507 -3.15193 -2.01505 0
M  V30 2898 H 268.84 -4.13632 -2.66775 0
M  V30 2899 N 270.492 0.636531 -1.44174 0
M  V30 2900 C 271.717 1.42847 -1.50364 0
M  V30 2901 C 272.142 1.87665 -0.127867 0
M  V30 2902 O 271.5 1.58408 0.88185 0
M  V30 2903 C 271.548 2.62854 -2.4686 0
M  V30 2904 O 270.652 3.62501 -1.9664 0
M  V30 2905 H 269.993 0.427642 -0.507955 0
M  V30 2906 H 272.523 0.777422 -1.89255 0
M  V30 2907 H 272.533 3.10465 -2.64718 0
M  V30 2908 H 271.208 2.29578 -3.46795 0
M  V30 2909 H 269.785 3.21735 -1.88523 0
M  V30 2910 N 271.97 1.30982 0.876444 0
M  V30 2911 C 272.9 1.20668 1.99903 0
M  V30 2912 C 273.881 0.095354 1.69833 0
M  V30 2913 O 275.066 0.27885 1.92188 0
M  V30 2914 C 272.196 0.90655 3.3526 0
M  V30 2915 C 271.15 1.97675 3.79617 0
M  V30 2916 C 270.476 1.52943 5.1236 0
M  V30 2917 C 271.776 3.389 3.97422 0
M  V30 2918 H 273.47 2.14586 2.0879 0
M  V30 2919 H 271.016 1.03308 1.00317 0
M  V30 2920 H 272.969 0.821025 4.13324 0
M  V30 2921 H 271.693 -0.0682969 3.26529 0
M  V30 2922 H 270.352 2.05205 3.03787 0
M  V30 2923 H 270 0.54262 5.00065 0
M  V30 2924 H 269.7 2.24532 5.43009 0
M  V30 2925 H 271.224 1.45786 5.92941 0
M  V30 2926 H 272.638 3.34081 4.659 0
M  V30 2927 H 271.035 4.0865 4.3946 0
M  V30 2928 H 272.105 3.80163 3.01006 0
M  V30 2929 N 273.449 -1.08991 1.13837 0
M  V30 2930 C 274.695 -1.81526 0.90422 0
M  V30 2931 C 275.028 -1.85706 -0.568066 0
M  V30 2932 O 274.303 -1.32855 -1.42056 0
M  V30 2933 C 274.586 -3.27447 1.49835 0
M  V30 2934 C 274.439 -3.31512 3.04006 0
M  V30 2935 C 275.758 -4.24256 1.17025 0
M  V30 2936 H 272.877 -0.659029 0.329923 0
M  V30 2937 H 275.519 -1.27644 1.40737 0
M  V30 2938 H 273.669 -3.73462 1.07044 0
M  V30 2939 H 275.341 -2.93867 3.55584 0
M  V30 2940 H 273.584 -2.70963 3.38765 0
M  V30 2941 H 274.255 -4.34329 3.40679 0
M  V30 2942 H 276.731 -3.86549 1.54009 0
M  V30 2943 H 275.607 -5.24684 1.61237 0
M  V30 2944 H 275.868 -4.42019 0.0846274 0
M  V30 2945 N 274.927 -0.932562 -1.27047 0
M  V30 2946 C 276.338 -0.619451 -1.76124 0
M  V30 2947 C 276.689 0.865397 -1.76083 0
M  V30 2948 O 275.814 1.67722 -1.36742 0
M  V30 2949 C 276.409 -1.11771 -3.19832 0
M  V30 2950 C 274.968 -0.855174 -3.66557 0
M  V30 2951 C 274.115 -1.27362 -2.46321 0
M  V30 2952 H 277.066 -1.11181 -1.13245 0
M  V30 2953 H 277.087 -0.46759 -3.77616 0
M  V30 2954 H 276.599 -2.19842 -3.1983 0
M  V30 2955 H 274.7 0.211524 -3.71999 0
M  V30 2956 H 274.813 -1.47613 -4.55793 0
M  V30 2957 H 273.177 -0.692119 -2.45116 0
M  V30 2958 H 273.96 -2.36307 -2.49025 0
M  V30 2959 N 276.405 1.4127 -0.698611 0
M  V30 2960 C 277.337 2.292 0.00399731 0
M  V30 2961 C 278.35 1.44944 0.741279 0
M  V30 2962 O 279.539 1.68416 0.591477 0
M  V30 2963 C 276.639 3.22875 1.02979 0
M  V30 2964 C 275.812 4.35904 0.36151 0
M  V30 2965 C 274.871 5.10134 1.29033 0
M  V30 2966 O 273.897 5.63809 0.781562 0
M  V30 2967 N 275.099 5.17885 2.6225 0
M  V30 2968 H 277.864 2.9014 -0.750921 0
M  V30 2969 H 275.425 1.52455 -0.544882 0
M  V30 2970 H 277.417 3.69404 1.65296 0
M  V30 2971 H 275.987 2.63221 1.68622 0
M  V30 2972 H 275.207 3.91719 -0.441584 0
M  V30 2973 H 276.495 5.08696 -0.103055 0
M  V30 2974 H 275.893 4.7573 3.061 0
M  V30 2975 H 274.45 5.6798 3.19754 0
M  V30 2976 N 277.883 0.443576 1.51229 0
M  V30 2977 C 279.299 0.0962001 1.5931 0
M  V30 2978 C 279.499 -1.39501 1.45402 0
M  V30 2979 O 278.555 -2.16557 1.29843 0
M  V30 2980 C 279.868 0.621875 2.94199 0
M  V30 2981 C 281.416 0.582865 3.07525 0
M  V30 2982 C 281.891 1.08562 4.44948 0
M  V30 2983 N 283.382 1.04387 4.51284 0
M  V30 2984 C 284.117 1.40368 5.55954 0
M  V30 2985 N 283.613 1.83664 6.68011 0
M  V30 2986 N 285.406 1.32145 5.46346 0
M  V30 2987 H 277.557 1.41376 1.58514 0
M  V30 2988 H 279.82 0.582965 0.747567 0
M  V30 2989 H 279.526 1.66546 3.09767 0
M  V30 2990 H 279.4 0.0502125 3.77167 0
M  V30 2991 H 281.787 -0.451749 2.91622 0
M  V30 2992 H 281.868 1.191 2.26382 0
M  V30 2993 H 281.512 2.11873 4.61598 0
M  V30 2994 H 281.442 0.453956 5.2464 0
M  V30 2995 H 283.933 0.725986 3.70861 0
M  V30 2996 H 284.246 2.0934 7.43906 0
M  V30 2997 H 282.591 1.87596 6.69203 0
M  V30 2998 H 285.782 0.981808 4.57688 0
M  V30 2999 H 285.955 1.60514 6.27805 0
M  V30 3000 N 279.361 -1.56624 0.175154 0
M  V30 3001 C 280.311 -2.14747 -0.766004 0
M  V30 3002 C 281.295 -1.08275 -1.19018 0
M  V30 3003 O 282.487 -1.34388 -1.15191 0
M  V30 3004 C 279.616 -2.79478 -1.99366 0
M  V30 3005 C 278.702 -3.93114 -1.5913 0
M  V30 3006 N 279.093 -4.97752 -0.89872 0
M  V30 3007 C 277.391 -4.04345 -1.88204 0
M  V30 3008 C 278.092 -5.77473 -0.700012 0
M  V30 3009 N 277.068 -5.29207 -1.24263 0
M  V30 3010 H 280.87 -2.93015 -0.22793 0
M  V30 3011 H 278.384 -1.6238 -0.0253843 0
M  V30 3012 H 280.381 -3.19498 -2.67818 0
M  V30 3013 H 279.041 -2.02692 -2.53665 0
M  V30 3014 H 280.052 -5.14903 -0.556347 0
M  V30 3015 H 276.729 -3.38667 -2.44153 0
M  V30 3016 H 278.119 -6.71728 -0.152047 0
M  V30 3017 N 280.839 0.0985539 -1.57292 0
M  V30 3018 C 282.087 0.801092 -1.85545 0
M  V30 3019 C 282.408 1.79438 -0.763353 0
M  V30 3020 O 281.678 1.94763 0.21073 0
M  V30 3021 H 280.258 0.29884 -0.684619 0
M  V30 3022 H 282.92 0.0810064 -1.94732 0
M  V30 3023 H 282.016 1.3338 -2.82163 0
M  V30 3024 N 282.317 1.53212 0.369288 0
M  V30 3025 C 283.728 1.60943 0.946276 0
M  V30 3026 C 284.079 0.47452 1.90375 0
M  V30 3027 O 283.204 -0.399597 2.12679 0
M  V30 3028 C 283.799 2.91715 1.72302 0
M  V30 3029 C 282.358 3.01792 2.24941 0
M  V30 3030 C 281.505 2.56211 1.06072 0
M  V30 3031 H 284.456 1.58007 0.148198 0
M  V30 3032 H 284.477 2.79309 2.58393 0
M  V30 3033 H 283.989 3.74295 1.0259 0
M  V30 3034 H 282.09 2.23791 2.97906 0
M  V30 3035 H 282.203 4.06803 2.53077 0
M  V30 3036 H 280.567 2.10998 1.4266 0
M  V30 3037 H 281.35 3.41206 0.378639 0
M  V30 3038 N 283.795 -0.628877 1.44509 0
M  V30 3039 C 285.206 -1.21054 1.42137 0
M  V30 3040 C 285.557 -1.95715 0.137881 0
M  V30 3041 O 284.682 -2.02554 -0.761645 0
M  V30 3042 C 285.277 -2.20189 2.57493 0
M  V30 3043 C 283.836 -2.73777 2.58308 0
M  V30 3044 C 282.983 -1.48813 2.33987 0
M  V30 3045 H 285.934 -0.41942 1.53057 0
M  V30 3046 H 285.955 -3.02833 2.30375 0
M  V30 3047 H 285.467 -1.6582 3.50892 0
M  V30 3048 H 283.568 -3.32142 1.68856 0
M  V30 3049 H 283.681 -3.19662 3.56865 0
M  V30 3050 H 282.045 -1.77024 1.83124 0
M  V30 3051 H 282.828 -0.963442 3.29504 0
M  V30 3052 N 285.273 -1.31445 -0.869486 0
M  V30 3053 C 286.203 -1.21727 -1.99261 0
M  V30 3054 C 287.184 -0.104359 -1.6978 0
M  V30 3055 O 288.369 -0.289038 -1.92037 0
M  V30 3056 C 285.499 -0.924317 -3.34774 0
M  V30 3057 C 284.453 -1.99685 -3.78563 0
M  V30 3058 C 283.779 -1.55658 -5.11541 0
M  V30 3059 C 285.079 -3.41003 -3.95619 0
M  V30 3060 H 286.773 -2.1569 -2.07649 0
M  V30 3061 H 284.319 -1.03839 -0.997675 0
M  V30 3062 H 286.272 -0.842934 -4.12883 0
M  V30 3063 H 284.996 0.0509793 -3.2656 0
M  V30 3064 H 283.655 -2.06813 -3.02694 0
M  V30 3065 H 283.303 -0.569132 -4.9977 0
M  V30 3066 H 283.003 -2.27409 -5.41811 0
M  V30 3067 H 284.527 -1.48928 -5.92159 0
M  V30 3068 H 285.941 -3.36547 -4.64122 0
M  V30 3069 H 284.338 -4.10975 -4.37286 0
M  V30 3070 H 285.408 -3.81754 -2.98985 0
M  V30 3071 N 286.751 1.08385 -1.14413 0
M  V30 3072 C 287.999 1.80419 -0.910679 0
M  V30 3073 C 288.32 1.86658 0.564243 0
M  V30 3074 O 287.59 1.35985 1.41014 0
M  V30 3075 H 286.17 0.668204 -0.333934 0
M  V30 3076 H 288.832 1.31037 -1.44275 0
M  V30 3077 H 287.928 2.83238 -1.31082 0
M  V30 3078 N 288.23 0.939286 1.26551 0
M  V30 3079 C 289.14 0.453432 2.30176 0
M  V30 3080 C 290.156 -0.471649 1.67486 0
M  V30 3081 O 291.332 -0.35164 1.98306 0
M  V30 3082 C 288.397 -0.275326 3.45605 0
M  V30 3083 C 287.458 0.686084 4.23782 0
M  V30 3084 C 286.691 -0.00798994 5.33699 0
M  V30 3085 O 286.914 -1.22528 5.57085 0
M  V30 3086 O 285.848 0.669746 5.98162 0
M  V30 3087 H 289.674 1.31416 2.73795 0
M  V30 3088 H 287.259 0.705095 1.31715 0
M  V30 3089 H 289.141 -0.685911 4.1578 0
M  V30 3090 H 287.816 -1.11147 3.0402 0
M  V30 3091 H 286.723 1.14658 3.56096 0
M  V30 3092 H 288.056 1.48979 4.69112 0
M  V30 3093 N 289.708 -1.40897 0.706093 0
M  V30 3094 C 290.933 -2.05895 0.249435 0
M  V30 3095 C 291.358 -1.52823 -1.09666 0
M  V30 3096 O 290.716 -0.659589 -1.68876 0
M  V30 3097 C 290.764 -3.59872 0.22904 0
M  V30 3098 O 289.868 -4.04708 -0.792784 0
M  V30 3099 H 289.209 -0.653206 0.119241 0
M  V30 3100 H 291.739 -1.80471 0.96391 0
M  V30 3101 H 291.749 -4.07951 0.0634791 0
M  V30 3102 H 290.424 -3.97866 1.21141 0
M  V30 3103 H 289.001 -3.68111 -0.59572 0
M  V30 3104 N 291.186 -0.45159 -1.50991 0
M  V30 3105 C 292.432 0.110237 -2.025 0
M  V30 3106 C 292.765 1.41109 -1.33424 0
M  V30 3107 O 292.04 1.89135 -0.453659 0
M  V30 3108 C 292.323 0.314271 -3.58726 0
M  V30 3109 C 292.176 -1.00623 -4.38401 0
M  V30 3110 C 293.495 1.07767 -4.26702 0
M  V30 3111 H 290.614 0.0385897 -0.735989 0
M  V30 3112 H 293.256 -0.593374 -1.80497 0
M  V30 3113 H 291.406 0.913601 -3.77605 0
M  V30 3114 H 293.078 -1.64064 -4.31139 0
M  V30 3115 H 291.321 -1.6075 -4.02917 0
M  V30 3116 H 291.992 -0.817341 -5.45915 0
M  V30 3117 H 294.468 0.56986 -4.12179 0
M  V30 3118 H 293.344 1.18921 -5.35863 0
M  V30 3119 H 293.605 2.10939 -3.88532 0
M  V30 3120 N 292.664 1.56529 -0.183458 0
M  V30 3121 C 293.627 2.17324 0.728223 0
M  V30 3122 C 294.627 1.12453 1.14939 0
M  V30 3123 O 295.817 1.37902 1.06437 0
M  V30 3124 C 292.949 2.76591 1.99274 0
M  V30 3125 H 294.142 2.99241 0.198772 0
M  V30 3126 H 291.695 1.5616 0.0661391 0
M  V30 3127 H 292.43 1.98441 2.56499 0
M  V30 3128 H 292.215 3.5335 1.69959 0
M  V30 3129 H 293.705 3.23311 2.6431 0
M  V30 3130 N 294.142 -0.090211 1.57342 0
M  V30 3131 C 295.372 -0.805055 1.90269 0
M  V30 3132 C 295.78 -1.72561 0.775842 0
M  V30 3133 O 295.123 -1.81839 -0.260843 0
M  V30 3134 C 295.185 -1.66734 3.18497 0
M  V30 3135 C 294.849 -0.918092 4.47683 0
M  V30 3136 C 295.846 -0.245674 5.19319 0
M  V30 3137 C 293.531 -0.890724 4.94339 0
M  V30 3138 C 295.525 0.444088 6.35851 0
M  V30 3139 C 293.212 -0.197179 6.10782 0
M  V30 3140 C 294.21 0.469044 6.81388 0
M  V30 3141 O 293.898 1.15146 7.95611 0
M  V30 3142 H 293.63 -0.235143 0.633785 0
M  V30 3143 H 296.184 -0.0703805 2.05279 0
M  V30 3144 H 294.414 -2.44437 2.99646 0
M  V30 3145 H 296.103 -2.25919 3.37217 0
M  V30 3146 H 296.869 -0.258246 4.84312 0
M  V30 3147 H 292.748 -1.39873 4.39268 0
M  V30 3148 H 296.292 0.964667 6.90898 0
M  V30 3149 H 292.189 -0.18247 6.45242 0
M  V30 3150 H 292.957 1.05885 8.11622 0
M  V30 3151 N 295.62 -1.53406 -0.361157 0
M  V30 3152 C 296.57 -1.76536 -1.44287 0
M  V30 3153 C 297.554 -0.620019 -1.48474 0
M  V30 3154 O 298.746 -0.878834 -1.53641 0
M  V30 3155 C 295.875 -1.96266 -2.81664 0
M  V30 3156 C 294.961 -3.16815 -2.81938 0
M  V30 3157 N 295.352 -4.38637 -2.51855 0
M  V30 3158 C 293.65 -3.17627 -3.13096 0
M  V30 3159 C 294.351 -5.20401 -2.59919 0
M  V30 3160 N 293.327 -4.56712 -2.94814 0
M  V30 3161 H 297.129 -2.68331 -1.19899 0
M  V30 3162 H 294.643 -1.52091 -0.56938 0
M  V30 3163 H 296.64 -2.10966 -3.59582 0
M  V30 3164 H 295.3 -1.05702 -3.07013 0
M  V30 3165 H 296.311 -4.66293 -2.25369 0
M  V30 3166 H 292.988 -2.36971 -3.43731 0
M  V30 3167 H 294.378 -6.27586 -2.39969 0
M  V30 3168 N 297.098 0.621204 -1.44841 0
M  V30 3169 C 298.323 1.41244 -1.51871 0
M  V30 3170 C 298.748 1.87519 -0.147764 0
M  V30 3171 O 298.106 1.59334 0.865 0
M  V30 3172 C 298.154 2.60221 -2.49634 0
M  V30 3173 O 297.258 3.60395 -2.00473 0
M  V30 3174 H 296.599 0.42223 -0.512463 0
M  V30 3175 H 299.129 0.757305 -1.90069 0
M  V30 3176 H 299.139 3.0764 -2.67996 0
M  V30 3177 H 297.814 2.25887 -3.4921 0
M  V30 3178 H 296.391 3.19717 -1.91925 0
M  V30 3179 N 298.576 1.31904 0.862503 0
M  V30 3180 C 299.486 1.22161 2.00285 0
M  V30 3181 C 300.502 0.136785 1.73462 0
M  V30 3182 O 301.678 0.355994 1.98229 0
M  V30 3183 C 298.743 0.937093 3.33796 0
M  V30 3184 C 297.804 2.10957 3.73893 0
M  V30 3185 C 297.037 1.83853 5.01033 0
M  V30 3186 O 297.26 0.777274 5.65079 0
M  V30 3187 O 296.194 2.69741 5.38074 0
M  V30 3188 H 300.02 2.18008 2.11439 0
M  V30 3189 H 297.605 1.11716 0.991957 0
M  V30 3190 H 299.487 0.794583 4.13841 0
M  V30 3191 H 298.162 0.00871894 3.23699 0
M  V30 3192 H 297.069 2.30752 2.94456 0
M  V30 3193 H 298.402 3.02046 3.88625 0
M  V30 3194 N 300.054 -1.07777 1.14986 0
M  V30 3195 C 301.279 -1.84558 0.946213 0
M  V30 3196 C 301.704 -1.81323 -0.500362 0
M  V30 3197 O 301.062 -1.20301 -1.35637 0
M  V30 3198 C 301.11 -3.29736 1.45968 0
M  V30 3199 O 300.214 -4.07149 0.65601 0
M  V30 3200 H 299.555 -0.571641 0.33782 0
M  V30 3201 H 302.085 -1.35991 1.52865 0
M  V30 3202 H 302.095 -3.80574 1.47063 0
M  V30 3203 H 300.77 -3.31406 2.51283 0
M  V30 3204 H 299.347 -3.65994 0.714322 0
M  V30 3205 N 301.532 -0.945985 -1.26051 0
M  V30 3206 C 302.943 -0.638096 -1.75457 0
M  V30 3207 C 303.294 0.846672 -1.76991 0
M  V30 3208 O 302.419 1.66262 -1.38513 0
M  V30 3209 C 303.014 -1.15157 -3.18629 0
M  V30 3210 C 301.573 -0.894004 -3.65629 0
M  V30 3211 C 300.72 -1.29967 -2.44957 0
M  V30 3212 H 303.671 -1.12376 -1.1206 0
M  V30 3213 H 303.692 -0.507615 -3.77099 0
M  V30 3214 H 303.204 -2.23222 -3.1748 0
M  V30 3215 H 301.305 0.172057 -3.72203 0
M  V30 3216 H 301.418 -1.52439 -4.54202 0
M  V30 3217 H 299.782 -0.718078 -2.44368 0
M  V30 3218 H 300.565 -2.38935 -2.46505 0
M  V30 3219 N 303.011 1.40521 -0.713556 0
M  V30 3220 C 303.959 2.32549 -0.0485227 0
M  V30 3221 C 304.953 1.51931 0.74922 0
M  V30 3222 O 306.159 1.67745 0.652816 0
M  V30 3223 H 302.534 0.751994 0.00311138 0
M  V30 3224 H 304.505 2.86291 -0.841443 0
M  V30 3225 C 303.254 3.36879 0.860687 0
M  V30 3226 H 302.577 3.98978 0.256246 0
M  V30 3227 H 304.017 4.03772 1.294 0
M  V30 3228 C 302.476 2.72197 1.9852 0
M  V30 3229 O 303.006 2.5837 3.07584 0
M  V30 3230 N 301.212 2.30612 1.76823 0
M  V30 3231 H 300.759 2.42059 0.881217 0
M  V30 3232 H 300.717 1.87672 2.52243 0
M  V30 3233 N 304.489 0.459591 1.5075 0
M  V30 3234 C 305.714 -0.0996819 2.0716 0
M  V30 3235 C 306.139 -1.33761 1.32249 0
M  V30 3236 O 305.497 -1.77551 0.366786 0
M  V30 3237 C 305.545 -0.378226 3.58611 0
M  V30 3238 O 304.649 -1.46081 3.85661 0
M  V30 3239 H 303.99 0.00791392 0.663953 0
M  V30 3240 H 306.52 0.647329 1.9409 0
M  V30 3241 H 306.53 -0.622135 4.03229 0
M  V30 3242 H 305.205 0.526439 4.12555 0
M  V30 3243 H 303.782 -1.20511 3.5289 0
M  V30 3244 N 305.967 -1.56429 0.191757 0
M  V30 3245 C 306.899 -2.16154 -0.762245 0
M  V30 3246 C 307.912 -1.12247 -1.17917 0
M  V30 3247 O 309.101 -1.39353 -1.11548 0
M  V30 3248 C 306.201 -2.70606 -2.04024 0
M  V30 3249 C 305.374 -3.99381 -1.78364 0
M  V30 3250 C 304.433 -4.38692 -2.90578 0
M  V30 3251 O 303.459 -5.06179 -2.6033 0
M  V30 3252 N 304.661 -4.01922 -4.18854 0
M  V30 3253 H 307.426 -2.98643 -0.251526 0
M  V30 3254 H 304.987 -1.61897 0.00967373 0
M  V30 3255 H 306.979 -2.93891 -2.78227 0
M  V30 3256 H 305.549 -1.9259 -2.46227 0
M  V30 3257 H 304.769 -3.84262 -0.879581 0
M  V30 3258 H 306.057 -4.83445 -1.58614 0
M  V30 3259 H 305.455 -3.47631 -4.46283 0
M  V30 3260 H 304.012 -4.30165 -4.89695 0
M  V30 3261 N 307.445 0.0818655 -1.57387 0
M  V30 3262 C 308.673 0.796108 -1.9097 0
M  V30 3263 C 309.088 1.71626 -0.786757 0
M  V30 3264 O 308.445 1.80908 0.240513 0
M  V30 3265 C 308.496 1.59829 -3.24248 0
M  V30 3266 O 308.217 0.715131 -4.32224 0
M  V30 3267 C 309.718 2.41442 -3.7178 0
M  V30 3268 H 306.938 0.22691 -0.631469 0
M  V30 3269 H 309.482 0.0551439 -2.04426 0
M  V30 3270 H 307.637 2.29163 -3.12351 0
M  V30 3271 H 308.051 1.27205 -5.08841 0
M  V30 3272 H 309.525 2.932 -4.67694 0
M  V30 3273 H 310.002 3.2051 -3.00283 0
M  V30 3274 H 310.608 1.77283 -3.86589 0
M  V30 3275 N 308.923 1.53595 0.353017 0
M  V30 3276 C 310.2 1.61002 1.11075 0
M  V30 3277 C 310.58 0.425356 2.0677 0
M  V30 3278 O 309.928 -0.583267 2.2093 0
M  V30 3279 C 310.138 2.96631 1.83877 0
M  V30 3280 C 311.486 3.51653 2.37961 0
M  V30 3281 O 312.51 2.98743 1.93987 0
M  V30 3282 O 311.369 4.44177 3.18386 0
M  V30 3283 H 308.463 0.650825 0.510251 0
M  V30 3284 H 311.009 1.6594 0.35527 0
M  V30 3285 H 309.781 3.74293 1.14108 0
M  V30 3286 H 309.404 2.95242 2.66304 0
M  V30 3287 N 310.401 -0.613514 1.45168 0
M  V30 3288 C 311.647 -1.37471 1.49096 0
M  V30 3289 C 311.98 -1.93765 0.129901 0
M  V30 3290 O 311.255 -1.74707 -0.854858 0
M  V30 3291 C 311.538 -2.52701 2.56542 0
M  V30 3292 C 311.391 -2.01643 4.0207 0
M  V30 3293 C 312.71 -3.54849 2.60327 0
M  V30 3294 H 309.829 -0.498502 0.54283 0
M  V30 3295 H 312.471 -0.692125 1.76945 0
M  V30 3296 H 310.621 -3.10931 2.32926 0
M  V30 3297 H 312.293 -1.48108 4.36877 0
M  V30 3298 H 310.536 -1.32688 4.13009 0
M  V30 3299 H 311.207 -2.84681 4.72928 0
M  V30 3300 H 313.683 -3.0645 2.81474 0
M  V30 3301 H 312.559 -4.32973 3.37381 0
M  V30 3302 H 312.82 -4.10079 1.6519 0
M  V30 3303 N 311.879 -1.3236 -0.855495 0
M  V30 3304 C 313.127 -1.22629 -1.60644 0
M  V30 3305 C 313.448 0.212136 -1.93843 0
M  V30 3306 O 312.718 1.13666 -1.59552 0
M  V30 3307 H 311.298 -0.450882 -0.595579 0
M  V30 3308 H 313.96 -1.65871 -1.02337 0
M  V30 3309 H 313.056 -1.80832 -2.54374 0
M  V30 3310 N 313.357 1.07166 -1.15556 0
M  V30 3311 C 314.773 1.31899 -0.898603 0
M  V30 3312 C 314.973 1.96333 0.453383 0
M  V30 3313 O 314.029 2.22438 1.19489 0
M  V30 3314 C 315.342 2.20826 -2.04099 0
M  V30 3315 C 316.89 2.34269 -2.07574 0
M  V30 3316 C 317.365 3.26546 -3.21141 0
M  V30 3317 N 318.856 3.34127 -3.20801 0
M  V30 3318 C 319.591 4.05595 -4.05315 0
M  V30 3319 N 319.087 4.79661 -4.99897 0
M  V30 3320 N 320.88 4.01555 -3.93332 0
M  V30 3321 H 313.031 0.637302 -2.02613 0
M  V30 3322 H 315.294 0.343468 -0.883591 0
M  V30 3323 H 315 1.80744 -3.01703 0
M  V30 3324 H 314.874 3.21364 -1.97496 0
M  V30 3325 H 317.261 2.73603 -1.10568 0
M  V30 3326 H 317.342 1.33429 -2.18244 0
M  V30 3327 H 316.986 2.87931 -4.184 0
M  V30 3328 H 316.916 4.27345 -3.07708 0
M  V30 3329 H 319.407 2.81336 -2.52306 0
M  V30 3330 H 319.72 5.31694 -5.60822 0
M  V30 3331 H 318.065 4.78671 -5.03884 0
M  V30 3332 H 321.256 3.42806 -3.18751 0
M  V30 3333 H 321.429 4.56987 -4.5942 0
M  V30 3334 N 314.835 0.952656 1.25548 0
M  V30 3335 C 316.246 0.647392 1.75116 0
M  V30 3336 C 316.597 -0.837274 1.77438 0
M  V30 3337 O 315.722 -1.65525 1.39393 0
M  V30 3338 C 316.317 1.16845 3.18014 0
M  V30 3339 C 314.876 0.913382 3.6515 0
M  V30 3340 C 314.023 1.31265 2.44264 0
M  V30 3341 H 316.974 1.12968 1.11462 0
M  V30 3342 H 316.995 0.527606 3.76824 0
M  V30 3343 H 316.507 2.24902 3.16292 0
M  V30 3344 H 314.608 -0.152316 3.72289 0
M  V30 3345 H 314.721 1.54845 4.53387 0
M  V30 3346 H 313.085 0.731028 2.43984 0
M  V30 3347 H 313.868 2.40239 2.45234 0
M  V30 3348 N 316.313 -1.40141 0.720998 0
M  V30 3349 C 317.243 -2.33339 0.0867621 0
M  V30 3350 C 318.224 -1.53178 -0.739622 0
M  V30 3351 O 319.409 -1.81625 -0.687449 0
M  V30 3352 C 316.539 -3.37194 -0.831728 0
M  V30 3353 C 315.493 -4.27857 -0.110558 0
M  V30 3354 C 314.819 -5.22294 -1.14513 0
M  V30 3355 C 316.119 -5.11872 1.0385 0
M  V30 3356 H 317.813 -2.86626 0.865219 0
M  V30 3357 H 315.359 -1.37814 0.417516 0
M  V30 3358 H 317.312 -4.01335 -1.28485 0
M  V30 3359 H 316.036 -2.82314 -1.64214 0
M  V30 3360 H 314.695 -3.65176 0.322797 0
M  V30 3361 H 314.343 -4.63717 -1.94874 0
M  V30 3362 H 314.043 -5.83797 -0.667446 0
M  V30 3363 H 315.567 -5.89312 -1.59824 0
M  V30 3364 H 316.981 -5.69436 0.664482 0
M  V30 3365 H 315.378 -5.82445 1.4449 0
M  V30 3366 H 316.448 -4.4753 1.86668 0
M  V30 3367 N 317.792 -0.46758 -1.50504 0
M  V30 3368 C 319.017 0.0886943 -2.0721 0
M  V30 3369 C 319.442 1.33057 -1.32956 0
M  V30 3370 O 318.8 1.77354 -0.376197 0
M  V30 3371 C 318.848 0.359202 -3.58806 0
M  V30 3372 O 317.952 1.44034 -3.8643 0
M  V30 3373 H 317.293 -0.0114349 -0.663902 0
M  V30 3374 H 319.823 -0.657613 -1.93744 0
M  V30 3375 H 319.833 0.600742 -4.03553 0
M  V30 3376 H 318.508 -0.548311 -4.1227 0
M  V30 3377 H 317.085 1.18638 -3.53524 0
M  V30 3378 N 319.27 1.56325 -0.20005 0
M  V30 3379 C 320.518 1.97329 0.436547 0
M  V30 3380 C 320.839 1.08826 1.61808 0
M  V30 3381 O 320.109 0.160604 1.95241 0
M  V30 3382 H 318.689 0.728714 0.164272 0
M  V30 3383 H 321.351 1.92761 -0.287937 0
M  V30 3384 H 320.447 3.02264 0.777353 0
M  V30 3385 N 320.748 -0.0735177 1.57428 0
M  V30 3386 C 321.973 -0.789787 1.91774 0
M  V30 3387 C 322.398 -1.70413 0.796306 0
M  V30 3388 O 321.756 -1.79555 -0.250961 0
M  V30 3389 C 321.804 -1.5609 3.25067 0
M  V30 3390 O 320.908 -2.67144 3.14178 0
M  V30 3391 H 320.249 -0.215582 0.628029 0
M  V30 3392 H 322.779 -0.0422781 2.04556 0
M  V30 3393 H 322.789 -1.94052 3.58898 0
M  V30 3394 H 321.464 -0.890015 4.06265 0
M  V30 3395 H 320.041 -2.32052 2.91901 0
M  V30 3396 N 322.226 -1.5378 -0.344866 0
M  V30 3397 C 323.474 -1.70625 -1.08311 0
M  V30 3398 C 323.795 -0.471447 -1.89215 0
M  V30 3399 O 323.065 0.514616 -1.8902 0
M  V30 3400 H 321.645 -0.629058 -0.402859 0
M  V30 3401 H 324.307 -1.9103 -0.386459 0
M  V30 3402 H 323.403 -2.57656 -1.76124 0
M  V30 3403 N 323.704 0.605807 -1.45491 0
M  V30 3404 C 324.953 1.36086 -1.48874 0
M  V30 3405 C 325.266 1.95131 -0.135333 0
M  V30 3406 O 326.472 2.7146 -0.0468144 0
M  V30 3407 C 324.928 2.46518 -2.62215 0
M  V30 3408 C 324.536 1.93877 -4.03876 0
M  V30 3409 C 326.28 3.23512 -2.74846 0
M  V30 3410 C 324.187 3.01801 -5.08596 0
M  V30 3411 H 323.117 0.511497 -0.553974 0
M  V30 3412 H 325.768 0.649089 -1.71636 0
M  V30 3413 H 324.15 3.20388 -2.32739 0
M  V30 3414 H 325.324 1.26704 -4.43038 0
M  V30 3415 H 323.639 1.29622 -3.95711 0
M  V30 3416 H 326.236 4.04013 -3.50253 0
M  V30 3417 H 326.579 3.74631 -1.81542 0
M  V30 3418 H 327.112 2.56742 -3.03856 0
M  V30 3419 H 323.851 2.55597 -6.03614 0
M  V30 3420 H 323.371 3.67535 -4.74002 0
M  V30 3421 H 325.05 3.66152 -5.33424 0
M  V30 3422 N 325.182 1.32811 0.848464 0
M  V30 3423 C 326.407 1.26882 1.6406 0
M  V30 3424 C 326.832 -0.15913 1.87426 0
M  V30 3425 O 326.19 -1.11258 1.43148 0
M  V30 3426 C 326.238 2.03997 2.97351 0
M  V30 3427 O 325.342 1.39201 3.88197 0
M  V30 3428 H 324.683 0.436982 0.499943 0
M  V30 3429 H 327.213 1.75224 1.0563 0
M  V30 3430 H 327.223 2.14403 3.47124 0
M  V30 3431 H 325.898 3.0783 2.79666 0
M  V30 3432 H 324.475 1.37381 3.46671 0
M  V30 3433 N 326.66 -1.06551 1.16123 0
M  V30 3434 C 327.623 -2.12132 0.867906 0
M  V30 3435 C 328.623 -1.60224 -0.135944 0
M  V30 3436 O 329.813 -1.73943 0.0946422 0
M  V30 3437 C 326.945 -3.396 0.297419 0
M  V30 3438 H 328.138 -2.39586 1.80385 0
M  V30 3439 H 325.691 -1.22574 0.969812 0
M  V30 3440 H 326.426 -3.17794 -0.64633 0
M  V30 3441 H 326.211 -3.78581 1.02073 0
M  V30 3442 H 327.701 -4.17455 0.110052 0
M  V30 3443 N 328.138 -0.959301 -1.25041 0
M  V30 3444 C 329.385 -0.616611 -1.92884 0
M  V30 3445 C 329.713 0.847036 -1.75087 0
M  V30 3446 O 328.968 1.62374 -1.09239 0
M  V30 3447 C 329.267 -0.927136 -3.45165 0
M  V30 3448 C 328.933 -2.37757 -3.83122 0
M  V30 3449 C 327.595 -2.77402 -3.93194 0
M  V30 3450 C 329.947 -3.31929 -4.01836 0
M  V30 3451 C 327.275 -4.10277 -4.19392 0
M  V30 3452 C 329.627 -4.64423 -4.29528 0
M  V30 3453 C 328.291 -5.03857 -4.37818 0
M  V30 3454 H 327.561 -0.225634 -0.705812 0
M  V30 3455 H 330.208 -1.20921 -1.48493 0
M  V30 3456 H 328.513 -0.252195 -3.90987 0
M  V30 3457 H 330.21 -0.6405 -3.95852 0
M  V30 3458 H 326.8 -2.06013 -3.75841 0
M  V30 3459 H 330.984 -3.02488 -3.93465 0
M  V30 3460 H 326.24 -4.40467 -4.24027 0
M  V30 3461 H 330.414 -5.37369 -4.42953 0
M  V30 3462 H 328.041 -6.06843 -4.57871 0
M  V30 3463 N 329.616 1.39756 -0.72842 0
M  V30 3464 C 330.862 2.00942 -0.273892 0
M  V30 3465 C 331.195 1.57656 1.13394 0
M  V30 3466 O 330.47 0.802434 1.77176 0
M  V30 3467 C 330.753 3.58211 -0.368346 0
M  V30 3468 C 330.606 4.11534 -1.81548 0
M  V30 3469 C 331.925 4.39372 0.253054 0
M  V30 3470 H 329.044 0.730047 -0.100996 0
M  V30 3471 H 331.686 1.66056 -0.923337 0
M  V30 3472 H 329.836 3.88061 0.184588 0
M  V30 3473 H 331.508 3.92431 -2.42478 0
M  V30 3474 H 329.751 3.65341 -2.33898 0
M  V30 3475 H 330.422 5.20682 -1.83288 0
M  V30 3476 H 332.898 4.15527 -0.218224 0
M  V30 3477 H 331.774 5.48677 0.156585 0
M  V30 3478 H 332.035 4.21358 1.33826 0
M  V30 3479 N 331.094 0.475555 1.50254 0
M  V30 3480 C 332.026 -0.352649 2.26471 0
M  V30 3481 C 333.039 -0.953165 1.3198 0
M  V30 3482 O 334.228 -0.840815 1.57457 0
M  V30 3483 C 331.328 -1.50902 3.0345 0
M  V30 3484 C 330.501 -1.02047 4.25329 0
M  V30 3485 C 329.56 -2.05142 4.84565 0
M  V30 3486 O 328.586 -1.63023 5.45355 0
M  V30 3487 N 329.788 -3.37987 4.71959 0
M  V30 3488 H 332.553 0.300767 2.98187 0
M  V30 3489 H 330.114 0.306598 1.5897 0
M  V30 3490 H 332.106 -2.19572 3.39956 0
M  V30 3491 H 330.676 -2.06705 2.34504 0
M  V30 3492 H 329.896 -0.159507 3.93877 0
M  V30 3493 H 331.184 -0.672061 5.04342 0
M  V30 3494 H 330.582 -3.74913 4.23623 0
M  V30 3495 H 329.139 -4.02443 5.12721 0
M  V30 3496 N 332.573 -1.56217 0.208337 0
M  V30 3497 C 333.536 -2.18455 -0.693557 0
M  V30 3498 C 334.536 -1.14268 -1.13135 0
M  V30 3499 O 335.726 -1.39577 -1.0423 0
M  V30 3500 C 332.858 -2.79727 -1.94848 0
M  V30 3501 H 334.051 -2.99519 -0.15114 0
M  V30 3502 H 331.604 -1.56245 -0.041287 0
M  V30 3503 H 332.339 -2.02497 -2.53309 0
M  V30 3504 H 332.124 -3.56009 -1.64316 0
M  V30 3505 H 333.614 -3.27475 -2.59133 0
M  V30 3506 N 334.051 0.0651679 -1.57465 0
M  V30 3507 C 335.001 1.0838 -2.00594 0
M  V30 3508 C 335.985 1.34106 -0.889071 0
M  V30 3509 O 337.177 1.34295 -1.15299 0
M  V30 3510 C 334.306 2.39565 -2.45894 0
M  V30 3511 C 333.392 2.17085 -3.64328 0
M  V30 3512 N 333.783 1.64553 -4.78285 0
M  V30 3513 C 332.081 2.4753 -3.71006 0
M  V30 3514 C 332.782 1.57042 -5.60101 0
M  V30 3515 N 331.758 2.03328 -5.04141 0
M  V30 3516 H 335.56 0.671062 -2.86136 0
M  V30 3517 H 333.074 0.27213 -1.60104 0
M  V30 3518 H 335.071 3.13308 -2.75034 0
M  V30 3519 H 333.731 2.81549 -1.61741 0
M  V30 3520 H 334.742 1.33323 -5.00445 0
M  V30 3521 H 331.419 2.92835 -2.9758 0
M  V30 3522 H 332.809 1.17223 -6.61595 0
M  V30 3523 N 335.529 1.53961 0.336706 0
M  V30 3524 C 336.94 1.62914 0.911925 0
M  V30 3525 C 337.291 0.514795 1.89326 0
M  V30 3526 O 336.416 -0.354395 2.13478 0
M  V30 3527 C 337.011 2.95304 1.66076 0
M  V30 3528 C 335.57 3.06496 2.18489 0
M  V30 3529 C 334.717 2.58403 1.00613 0
M  V30 3530 H 337.668 1.58285 0.114649 0
M  V30 3531 H 337.689 2.84727 2.5241 0
M  V30 3532 H 337.201 3.76387 0.946276 0
M  V30 3533 H 335.302 2.3006 2.93092 0
M  V30 3534 H 335.415 4.1208 2.44391 0
M  V30 3535 H 333.779 2.13977 1.38152 0
M  V30 3536 H 334.562 3.41932 0.306179 0
M  V30 3537 N 337.007 -0.598083 1.45811 0
M  V30 3538 C 338.232 -1.3881 1.54099 0
M  V30 3539 C 338.657 -1.8726 0.177578 0
M  V30 3540 O 338.015 -1.6069 -0.839541 0
M  V30 3541 C 338.063 -2.56217 2.53743 0
M  V30 3542 O 337.167 -3.5716 2.06182 0
M  V30 3543 H 336.508 -0.414024 0.519115 0
M  V30 3544 H 339.038 -0.726971 1.91249 0
M  V30 3545 H 339.048 -3.03337 2.72856 0
M  V30 3546 H 337.723 -2.20303 3.5276 0
M  V30 3547 H 336.3 -3.16624 1.96987 0
M  V30 3548 N 338.485 -1.33259 -0.841409 0
M  V30 3549 C 339.433 -1.23279 -1.97244 0
M  V30 3550 C 340.427 -0.134706 -1.68864 0
M  V30 3551 O 341.633 -0.298501 -1.77508 0
M  V30 3552 H 338.008 -0.382497 -0.647457 0
M  V30 3553 H 339.979 -2.18906 -2.02787 0
M  V30 3554 C 338.728 -0.986268 -3.33419 0
M  V30 3555 H 338.051 -1.82347 -3.55794 0
M  V30 3556 H 339.491 -0.956728 -4.13065 0
M  V30 3557 C 337.95 0.310842 -3.35463 0
M  V30 3558 O 338.48 1.31838 -3.79449 0
M  V30 3559 N 336.686 0.337485 -2.88634 0
M  V30 3560 H 336.233 -0.482967 -2.53032 0
M  V30 3561 H 336.191 1.20518 -2.90384 0
M  V30 3562 N 339.963 1.05934 -1.16686 0
M  V30 3563 C 341.211 1.78447 -0.948744 0
M  V30 3564 C 341.532 1.87813 0.524523 0
M  V30 3565 O 340.802 1.38945 1.38098 0
M  V30 3566 H 339.382 0.660971 -0.348033 0
M  V30 3567 H 342.044 1.27947 -1.47022 0
M  V30 3568 H 341.14 2.80394 -1.37061 0
M  V30 3569 N 341.441 0.965919 1.2453 0
M  V30 3570 C 342.373 0.452465 2.2469 0
M  V30 3571 C 343.386 -0.437821 1.56802 0
M  V30 3572 O 344.575 -0.244283 1.76821 0
M  V30 3573 C 341.675 -0.366258 3.36915 0
M  V30 3574 C 340.848 0.513701 4.34373 0
M  V30 3575 C 339.907 -0.248716 5.25612 0
M  V30 3576 O 338.933 0.356745 5.68081 0
M  V30 3577 N 340.135 -1.53877 5.59734 0
M  V30 3578 H 342.9 1.31361 2.69378 0
M  V30 3579 H 340.461 0.837541 1.38553 0
M  V30 3580 H 342.453 -0.884297 3.94921 0
M  V30 3581 H 341.023 -1.12832 2.91526 0
M  V30 3582 H 340.243 1.21273 3.75082 0
M  V30 3583 H 341.531 1.11391 4.96457 0
M  V30 3584 H 340.929 -2.05243 5.27154 0
M  V30 3585 H 339.486 -2.00254 6.20275 0
M  V30 3586 N 342.919 -1.39368 0.735821 0
M  V30 3587 C 344.335 -1.54204 0.411492 0
M  V30 3588 C 344.535 -1.70268 -1.07755 0
M  V30 3589 O 343.591 -1.70364 -1.86366 0
M  V30 3590 C 344.904 -2.75925 1.19523 0
M  V30 3591 C 346.452 -2.89761 1.18354 0
M  V30 3592 C 346.927 -4.14421 1.94986 0
M  V30 3593 N 348.418 -4.21462 1.92156 0
M  V30 3594 C 349.153 -5.16871 2.48258 0
M  V30 3595 N 348.649 -6.18063 3.13001 0
M  V30 3596 N 350.442 -5.09093 2.38287 0
M  V30 3597 H 342.593 -1.27189 1.70108 0
M  V30 3598 H 344.856 -0.616517 0.720147 0
M  V30 3599 H 344.562 -2.70401 2.24892 0
M  V30 3600 H 344.436 -3.68614 0.800222 0
M  V30 3601 H 346.823 -2.94777 0.137975 0
M  V30 3602 H 346.904 -1.98133 1.61793 0
M  V30 3603 H 346.548 -4.10166 2.99543 0
M  V30 3604 H 346.478 -5.05095 1.48953 0
M  V30 3605 H 348.969 -3.48979 1.44991 0
M  V30 3606 H 349.282 -6.87326 3.53275 0
M  V30 3607 H 347.627 -6.18448 3.17091 0
M  V30 3608 H 350.818 -4.28973 1.8735 0
M  V30 3609 H 350.991 -5.83272 2.82308 0
M  V30 3610 N 344.397 -0.483516 -1.5 0
M  V30 3611 C 345.643 0.0672592 -2.02688 0
M  V30 3612 C 345.976 1.38247 -1.36387 0
M  V30 3613 O 345.251 1.88131 -0.493675 0
M  V30 3614 C 345.534 0.238109 -3.59312 0
M  V30 3615 C 345.387 -1.099 -4.36168 0
M  V30 3616 C 346.706 0.986916 -4.28892 0
M  V30 3617 H 343.825 0.0229696 -0.736642 0
M  V30 3618 H 346.467 -0.631527 -1.79197 0
M  V30 3619 H 344.617 0.8333 -3.79458 0
M  V30 3620 H 346.289 -1.73172 -4.27562 0
M  V30 3621 H 344.532 -1.69261 -3.99416 0
M  V30 3622 H 345.203 -0.932954 -5.44059 0
M  V30 3623 H 347.679 0.482302 -4.13295 0
M  V30 3624 H 346.555 1.07527 -5.38265 0
M  V30 3625 H 346.816 2.0265 -3.92919 0
M  V30 3626 N 345.875 1.56104 -0.216619 0
M  V30 3627 C 346.823 2.21434 0.712036 0
M  V30 3628 C 347.817 1.19218 1.20348 0
M  V30 3629 O 349.023 1.3731 1.16387 0
M  V30 3630 H 345.398 0.70992 0.248026 0
M  V30 3631 H 347.369 2.98083 0.137558 0
M  V30 3632 C 346.118 2.90434 1.91163 0
M  V30 3633 H 345.441 3.68842 1.54258 0
M  V30 3634 H 346.881 3.39552 2.5393 0
M  V30 3635 C 345.34 1.92635 2.76394 0
M  V30 3636 O 345.87 1.44017 3.74996 0
M  V30 3637 N 344.076 1.60392 2.42328 0
M  V30 3638 H 343.623 2.00122 1.622 0
M  V30 3639 H 343.581 0.952159 2.99635 0
M  V30 3640 N 347.353 -0.0568162 1.57498 0
M  V30 3641 C 348.764 -0.606858 1.76562 0
M  V30 3642 C 349.115 -1.77114 0.844094 0
M  V30 3643 O 348.24 -2.16376 0.0318911 0
M  V30 3644 C 348.835 -1.10766 3.20182 0
M  V30 3645 C 347.394 -1.60344 3.40539 0
M  V30 3646 C 346.541 -0.529311 2.72201 0
M  V30 3647 H 349.492 0.169393 1.57793 0
M  V30 3648 H 349.513 -1.97602 3.25167 0
M  V30 3649 H 349.025 -0.26006 3.87228 0
M  V30 3650 H 347.126 -2.47379 2.78629 0
M  V30 3651 H 347.239 -1.67006 4.4905 0
M  V30 3652 H 345.603 -0.977893 2.35179 0
M  V30 3653 H 346.386 0.308352 3.41912 0
M  V30 3654 N 348.832 -1.54138 -0.328536 0
M  V30 3655 C 350.243 -1.63395 -0.903272 0
M  V30 3656 C 350.594 -0.524828 -1.8905 0
M  V30 3657 O 349.719 0.343068 -2.13663 0
M  V30 3658 C 350.314 -2.9618 -1.64507 0
M  V30 3659 C 348.873 -3.0765 -2.1686 0
M  V30 3660 C 348.02 -2.58933 -0.992416 0
M  V30 3661 H 350.971 -1.58344 -0.106253 0
M  V30 3662 H 350.992 -2.86061 -2.50897 0
M  V30 3663 H 350.504 -3.76884 -0.926302 0
M  V30 3664 H 348.605 -2.31611 -2.91868 0
M  V30 3665 H 348.718 -4.1337 -2.42202 0
M  V30 3666 H 347.082 -2.14706 -1.37016 0
M  V30 3667 H 347.865 -3.42089 -0.288041 0
M  V30 3668 N 350.31 0.590341 -1.46126 0
M  V30 3669 C 351.721 1.17243 -1.45296 0
M  V30 3670 C 352.072 1.95281 -0.189723 0
M  V30 3671 O 351.197 2.04502 0.707674 0
M  V30 3672 C 351.792 2.13284 -2.6324 0
M  V30 3673 C 350.351 2.66832 -2.65476 0
M  V30 3674 C 349.498 1.42557 -2.3785 0
M  V30 3675 H 352.449 0.378692 -1.54116 0
M  V30 3676 H 352.47 2.96619 -2.38323 0
M  V30 3677 H 351.982 1.56459 -3.55165 0
M  V30 3678 H 350.083 3.27548 -1.77603 0
M  V30 3679 H 350.196 3.10088 -3.65215 0
M  V30 3680 H 348.56 1.72107 -1.87753 0
M  V30 3681 H 349.343 0.875741 -3.31942 0
M  V30 3682 N 351.788 1.33704 0.83433 0
M  V30 3683 C 353.199 1.22813 1.4062 0
M  V30 3684 C 353.55 -0.151107 1.95617 0
M  V30 3685 O 352.675 -1.05092 1.89168 0
M  V30 3686 C 353.27 2.22355 2.55624 0
M  V30 3687 C 351.829 2.1529 3.08751 0
M  V30 3688 C 350.976 2.09589 1.8157 0
M  V30 3689 H 353.927 1.45236 0.639702 0
M  V30 3690 H 353.948 1.83391 3.33389 0
M  V30 3691 H 353.46 3.22728 2.15566 0
M  V30 3692 H 351.561 1.18235 3.53343 0
M  V30 3693 H 351.674 3.06038 3.68616 0
M  V30 3694 H 350.038 1.55134 2.02004 0
M  V30 3695 H 350.821 3.11777 1.43701 0
M  V30 3696 N 353.266 -1.05314 1.17247 0
M  V30 3697 C 354.677 -1.59753 0.96623 0
M  V30 3698 C 355.028 -1.9005 -0.487378 0
M  V30 3699 O 354.153 -1.68126 -1.36245 0
M  V30 3700 C 354.748 -2.90249 1.74759 0
M  V30 3701 C 353.307 -3.41352 1.58606 0
M  V30 3702 C 352.454 -2.15103 1.75002 0
M  V30 3703 H 355.405 -0.881406 1.31973 0
M  V30 3704 H 355.426 -3.60097 1.22925 0
M  V30 3705 H 354.938 -2.68166 2.8055 0
M  V30 3706 H 353.039 -3.68474 0.552985 0
M  V30 3707 H 353.152 -4.16019 2.37624 0
M  V30 3708 H 351.516 -2.25804 1.17833 0
M  V30 3709 H 352.299 -1.95491 2.82202 0
M  V30 3710 N 354.744 -0.972509 -1.24016 0
M  V30 3711 C 355.676 -0.464375 -2.24446 0
M  V30 3712 C 356.689 0.4295 -1.57032 0
M  V30 3713 O 357.878 0.234902 -1.76948 0
M  V30 3714 C 354.978 0.348385 -3.37105 0
M  V30 3715 C 354.151 -0.53673 -4.34094 0
M  V30 3716 C 353.21 0.220838 -5.25736 0
M  V30 3717 O 352.236 -0.386867 -5.67884 0
M  V30 3718 N 353.438 1.50907 -5.60542 0
M  V30 3719 H 356.203 -1.32788 -2.68677 0
M  V30 3720 H 353.764 -0.844877 -1.38107 0
M  V30 3721 H 355.756 0.863341 -3.95384 0
M  V30 3722 H 354.326 1.11285 -2.92121 0
M  V30 3723 H 353.546 -1.23261 -3.74433 0
M  V30 3724 H 354.834 -1.14022 -4.95859 0
M  V30 3725 H 354.232 2.02444 -5.28236 0
M  V30 3726 H 352.789 1.96962 -6.21329 0
M  V30 3727 N 356.222 1.38976 -0.743202 0
M  V30 3728 C 357.468 2.0064 -0.295189 0
M  V30 3729 C 357.801 1.5885 1.11716 0
M  V30 3730 O 357.076 0.821181 1.76315 0
M  V30 3731 C 357.359 3.578 -0.406318 0
M  V30 3732 C 357.212 4.09586 -1.85903 0
M  V30 3733 C 358.531 4.39616 0.206439 0
M  V30 3734 H 355.65 0.728935 -0.108733 0
M  V30 3735 H 358.292 1.65067 -0.940897 0
M  V30 3736 H 356.442 3.88235 0.143419 0
M  V30 3737 H 358.114 3.89837 -2.46627 0
M  V30 3738 H 356.357 3.6284 -2.3776 0
M  V30 3739 H 357.028 5.18708 -1.888 0
M  V30 3740 H 359.504 4.15273 -0.262283 0
M  V30 3741 H 358.38 5.48812 0.0983819 0
M  V30 3742 H 358.641 4.22754 1.2935 0
M  V30 3743 N 357.7 0.491464 1.49741 0
M  V30 3744 C 359.116 0.146835 1.58923 0
M  V30 3745 C 359.316 -1.34804 1.49767 0
M  V30 3746 O 358.372 -2.12317 1.36667 0
M  V30 3747 C 359.685 0.715157 2.92072 0
M  V30 3748 C 361.233 0.680407 3.05515 0
M  V30 3749 C 361.708 1.22663 4.41269 0
M  V30 3750 N 363.199 1.18691 4.47735 0
M  V30 3751 C 363.934 1.57984 5.51207 0
M  V30 3752 N 363.43 2.04824 6.6183 0
M  V30 3753 N 365.223 1.49459 5.41866 0
M  V30 3754 H 357.374 1.46347 1.53936 0
M  V30 3755 H 359.637 0.606453 0.728642 0
M  V30 3756 H 359.343 1.76317 3.04311 0
M  V30 3757 H 359.217 0.17018 3.76816 0
M  V30 3758 H 361.604 -0.358743 2.92911 0
M  V30 3759 H 361.685 1.26242 2.22478 0
M  V30 3760 H 361.329 2.26451 4.54623 0
M  V30 3761 H 361.259 0.620637 5.2293 0
M  V30 3762 H 363.75 0.843605 3.68364 0
M  V30 3763 H 364.063 2.32901 7.3687 0
M  V30 3764 H 362.408 2.08791 6.62896 0
M  V30 3765 H 365.599 1.12692 4.54333 0
M  V30 3766 H 365.772 1.80406 6.22381 0
M  V30 3767 N 359.178 -1.55987 0.224894 0
M  V30 3768 C 360.403 -2.03232 -0.41369 0
M  V30 3769 C 360.828 -1.10359 -1.52323 0
M  V30 3770 O 360.186 -0.092395 -1.81064 0
M  V30 3771 C 360.234 -3.48682 -0.919405 0
M  V30 3772 O 359.338 -3.58947 -2.03054 0
M  V30 3773 H 358.679 -0.657428 -0.0931903 0
M  V30 3774 H 361.209 -2.01679 0.34451 0
M  V30 3775 H 361.219 -3.8907 -1.22835 0
M  V30 3776 H 359.894 -4.15761 -0.107339 0
M  V30 3777 H 358.471 -3.30448 -1.72796 0
M  V30 3778 N 360.656 0.0484629 -1.57525 0
M  V30 3779 C 361.902 0.744226 -1.88651 0
M  V30 3780 C 362.235 1.76029 -0.820212 0
M  V30 3781 O 361.51 1.93782 0.166985 0
M  V30 3782 C 361.793 1.43128 -3.30434 0
M  V30 3783 C 361.646 0.43005 -4.47739 0
M  V30 3784 C 362.965 2.37031 -3.70816 0
M  V30 3785 H 360.084 0.269089 -0.68612 0
M  V30 3786 H 362.726 0.00713532 -1.89999 0
M  V30 3787 H 360.876 2.05956 -3.29415 0
M  V30 3788 H 362.548 -0.194816 -4.60888 0
M  V30 3789 H 360.791 -0.252522 -4.33064 0
M  V30 3790 H 361.462 0.948874 -5.43783 0
M  V30 3791 H 363.938 1.84263 -3.73077 0
M  V30 3792 H 362.814 2.82094 -4.70865 0
M  V30 3793 H 363.075 3.22864 -3.02012 0
M  V30 3794 N 362.134 1.5431 0.320358 0
M  V30 3795 C 363.362 1.76636 1.07738 0
M  V30 3796 C 363.777 0.51649 1.81598 0
M  V30 3797 O 363.134 -0.512942 1.75143 0
M  V30 3798 C 363.185 2.96158 2.07299 0
M  V30 3799 O 362.906 4.16313 1.36438 0
M  V30 3800 C 364.407 3.3072 2.95193 0
M  V30 3801 H 361.627 0.589597 0.320339 0
M  V30 3802 H 364.171 2.01207 0.36551 0
M  V30 3803 H 362.326 2.73851 2.74016 0
M  V30 3804 H 362.74 4.83565 2.03138 0
M  V30 3805 H 364.214 4.17643 3.60941 0
M  V30 3806 H 364.691 2.48026 3.62463 0
M  V30 3807 H 365.297 3.55117 2.34034 0
M  V30 3808 N 363.613 -0.582584 1.46437 0
M  V30 3809 C 365.024 -1.1647 1.45916 0
M  V30 3810 C 365.375 -1.95177 0.200077 0
M  V30 3811 O 364.5 -2.04874 -0.696819 0
M  V30 3812 C 365.095 -2.11885 2.64367 0
M  V30 3813 C 363.654 -2.65421 2.66887 0
M  V30 3814 C 362.801 -1.41294 2.38603 0
M  V30 3815 H 365.752 -0.370514 1.54314 0
M  V30 3816 H 365.773 -2.9535 2.39892 0
M  V30 3817 H 365.285 -1.54573 3.5599 0
M  V30 3818 H 363.386 -3.26602 1.79338 0
M  V30 3819 H 363.499 -3.08147 3.66854 0
M  V30 3820 H 361.863 -1.71109 1.88663 0
M  V30 3821 H 362.646 -0.858125 3.32402 0
M  V30 3822 N 365.091 -1.34144 -0.827227 0
M  V30 3823 C 366.502 -1.23557 -1.39966 0
M  V30 3824 C 366.853 0.140731 -1.95695 0
M  V30 3825 O 365.978 1.04087 -1.89723 0
M  V30 3826 C 366.573 -2.23708 -2.54441 0
M  V30 3827 C 365.132 -2.16924 -3.07605 0
M  V30 3828 C 364.279 -2.10549 -1.80456 0
M  V30 3829 H 367.23 -1.45573 -0.631991 0
M  V30 3830 H 367.251 -1.85157 -3.32411 0
M  V30 3831 H 366.763 -3.23866 -2.13851 0
M  V30 3832 H 364.864 -1.20107 -3.52711 0
M  V30 3833 H 364.977 -3.07988 -3.66988 0
M  V30 3834 H 363.341 -1.56203 -2.01178 0
M  V30 3835 H 364.124 -3.12535 -1.42046 0
M  V30 3836 N 366.569 1.04691 -1.17803 0
M  V30 3837 C 367.98 1.59238 -0.974689 0
M  V30 3838 C 368.331 1.90306 0.477292 0
M  V30 3839 O 367.456 1.68846 1.35352 0
M  V30 3840 C 368.051 2.89318 -1.76296 0
M  V30 3841 C 366.61 3.40506 -1.60414 0
M  V30 3842 C 365.757 2.14172 -1.76141 0
M  V30 3843 H 368.708 0.874395 -1.32439 0
M  V30 3844 H 368.729 3.5944 -1.24833 0
M  V30 3845 H 368.241 2.66675 -2.81968 0
M  V30 3846 H 366.342 3.68175 -0.572519 0
M  V30 3847 H 366.455 4.14753 -2.39827 0
M  V30 3848 H 364.819 2.25176 -1.19028 0
M  V30 3849 H 365.602 1.93992 -2.83235 0
M  V30 3850 N 368.047 0.979072 1.23499 0
M  V30 3851 C 369.458 0.684391 1.73704 0
M  V30 3852 C 369.809 -0.799448 1.79174 0
M  V30 3853 O 368.934 -1.62531 1.42873 0
M  V30 3854 C 369.529 1.23564 3.15464 0
M  V30 3855 C 368.088 0.99063 3.6313 0
M  V30 3856 C 367.235 1.36416 2.41425 0
M  V30 3857 H 370.186 1.15307 1.09041 0
M  V30 3858 H 370.207 0.607417 3.7562 0
M  V30 3859 H 369.719 2.31561 3.1145 0
M  V30 3860 H 367.82 -0.0733136 3.72528 0
M  V30 3861 H 367.933 1.64427 4.5 0
M  V30 3862 H 366.297 0.782616 2.42378 0
M  V30 3863 H 367.08 2.45387 2.40083 0
M  V30 3864 N 369.525 -1.3858 0.750561 0
M  V30 3865 C 370.936 -1.82927 0.373438 0
M  V30 3866 C 371.287 -1.62634 -1.09748 0
M  V30 3867 O 370.412 -1.12588 -1.84805 0
M  V30 3868 C 371.007 -3.32088 0.671029 0
M  V30 3869 C 369.566 -3.74795 0.34722 0
M  V30 3870 C 368.713 -2.61391 0.92575 0
M  V30 3871 H 371.664 -1.27351 0.946958 0
M  V30 3872 H 371.685 -3.80465 -0.0518269 0
M  V30 3873 H 371.197 -3.46826 1.74164 0
M  V30 3874 H 369.298 -3.65638 -0.716933 0
M  V30 3875 H 369.411 -4.71667 0.840656 0
M  V30 3876 H 367.775 -2.52265 0.351327 0
M  V30 3877 H 368.558 -2.78929 2.00133 0
M  V30 3878 N 371.003 -0.499398 -1.49478 0
M  V30 3879 C 372.419 -0.155261 -1.58843 0
M  V30 3880 C 372.619 1.34008 -1.50479 0
M  V30 3881 O 371.675 2.11589 -1.37791 0
M  V30 3882 C 372.988 -0.730636 -2.91689 0
M  V30 3883 C 374.536 -0.696599 -3.0515 0
M  V30 3884 C 375.011 -1.25001 -4.40612 0
M  V30 3885 N 376.502 -1.21064 -4.47099 0
M  V30 3886 C 377.237 -1.60905 -5.50361 0
M  V30 3887 N 376.733 -2.08331 -6.60735 0
M  V30 3888 N 378.526 -1.52331 -5.41065 0
M  V30 3889 H 370.677 -1.47162 -1.53158 0
M  V30 3890 H 372.94 -0.610309 -0.725415 0
M  V30 3891 H 372.646 -1.77928 -3.03372 0
M  V30 3892 H 372.52 -0.190161 -3.7672 0
M  V30 3893 H 374.907 0.343204 -2.93097 0
M  V30 3894 H 374.988 -1.2742 -2.21806 0
M  V30 3895 H 374.632 -2.28859 -4.53416 0
M  V30 3896 H 374.562 -0.64836 -5.22593 0
M  V30 3897 H 377.053 -0.863128 -3.67911 0
M  V30 3898 H 377.366 -2.36805 -7.35624 0
M  V30 3899 H 375.711 -2.12304 -6.6178 0
M  V30 3900 H 378.902 -1.151 -4.53729 0
M  V30 3901 H 379.075 -1.83704 -6.21415 0
M  V30 3902 N 372.481 1.55866 -0.233164 0
M  V30 3903 C 373.729 1.9821 0.394593 0
M  V30 3904 C 374.05 1.12234 1.59463 0
M  V30 3905 O 373.32 0.201981 1.94856 0
M  V30 3906 H 371.9 0.732034 0.148778 0
M  V30 3907 H 374.562 1.92107 -0.32876 0
M  V30 3908 H 373.658 3.03845 0.713063 0
M  V30 3909 N 373.959 -0.0401083 1.57549 0
M  V30 3910 C 374.891 -1.07149 2.02612 0
M  V30 3911 C 375.904 -1.33126 0.937085 0
M  V30 3912 O 377.093 -1.30808 1.21456 0
M  V30 3913 C 374.193 -2.41561 2.37701 0
M  V30 3914 C 373.366 -2.35096 3.68848 0
M  V30 3915 C 372.425 -3.51867 3.91249 0
M  V30 3916 O 371.451 -3.3186 4.62447 0
M  V30 3917 N 372.653 -4.73351 3.36035 0
M  V30 3918 H 375.418 -0.687485 2.91708 0
M  V30 3919 H 372.979 -0.228248 1.60283 0
M  V30 3920 H 374.971 -3.18379 2.49833 0
M  V30 3921 H 373.541 -2.71846 1.54332 0
M  V30 3922 H 372.761 -1.4345 3.67173 0
M  V30 3923 H 374.049 -2.27908 4.54901 0
M  V30 3924 H 373.447 -4.92507 2.78304 0
M  V30 3925 H 372.004 -5.47572 3.53565 0
M  V30 3926 N 375.437 -1.54477 -0.31217 0
M  V30 3927 C 376.665 -1.77205 -1.068 0
M  V30 3928 C 377.08 -0.526114 -1.81321 0
M  V30 3929 O 376.437 0.503647 -1.75413 0
M  V30 3930 C 376.488 -2.97253 -2.05725 0
M  V30 3931 O 376.209 -4.1703 -1.34228 0
M  V30 3932 C 377.71 -3.32281 -2.93435 0
M  V30 3933 H 374.93 -0.591287 -0.317208 0
M  V30 3934 H 377.474 -2.01398 -0.354834 0
M  V30 3935 H 375.629 -2.753 -2.72559 0
M  V30 3936 H 376.043 -4.84636 -2.00571 0
M  V30 3937 H 377.517 -4.19551 -3.58721 0
M  V30 3938 H 377.994 -2.49945 -3.61143 0
M  V30 3939 H 378.6 -3.56353 -2.32147 0
M  V30 3940 N 376.915 0.57481 -1.46744 0
M  V30 3941 C 378.326 1.15695 -1.46532 0
M  V30 3942 C 378.677 1.95068 -0.210425 0
M  V30 3943 O 377.802 2.05241 0.685944 0
M  V30 3944 C 378.397 2.1048 -2.65487 0
M  V30 3945 C 376.956 2.64002 -2.68291 0
M  V30 3946 C 376.103 1.40026 -2.39349 0
M  V30 3947 H 379.054 0.362325 -1.54509 0
M  V30 3948 H 379.075 2.94074 -2.41455 0
M  V30 3949 H 378.587 1.52683 -3.56805 0
M  V30 3950 H 376.688 3.25646 -1.81067 0
M  V30 3951 H 376.801 3.06197 -3.68483 0
M  V30 3952 H 375.165 1.70106 -1.89568 0
M  V30 3953 H 375.948 0.840485 -3.32852 0
M  V30 3954 N 378.394 1.34581 0.820102 0
M  V30 3955 C 379.805 1.24298 1.39309 0
M  V30 3956 C 380.156 -0.130351 1.95767 0
M  V30 3957 O 379.281 -1.0308 1.90272 0
M  V30 3958 C 379.876 2.25054 2.53251 0
M  V30 3959 C 378.435 2.18552 3.0645 0
M  V30 3960 C 377.582 2.11503 1.79337 0
M  V30 3961 H 380.533 1.45906 0.624262 0
M  V30 3962 H 380.554 1.86917 3.31425 0
M  V30 3963 H 380.066 3.24996 2.1213 0
M  V30 3964 H 378.167 1.21976 3.52069 0
M  V30 3965 H 378.28 3.0993 3.65349 0
M  V30 3966 H 376.644 1.57268 2.00347 0
M  V30 3967 H 377.427 3.13284 1.40386 0
M  V30 3968 N 379.872 -1.04064 1.18357 0
M  V30 3969 C 381.283 -1.58719 0.98312 0
M  V30 3970 C 381.634 -1.90556 -0.467193 0
M  V30 3971 O 380.759 -1.69561 -1.34454 0
M  V30 3972 C 381.354 -2.88379 1.77828 0
M  V30 3973 C 379.913 -3.3965 1.62218 0
M  V30 3974 C 379.06 -2.13235 1.77274 0
M  V30 3975 H 382.011 -0.867359 1.32901 0
M  V30 3976 H 382.032 -3.58773 1.26737 0
M  V30 3977 H 381.544 -2.65176 2.83379 0
M  V30 3978 H 379.645 -3.67866 0.592036 0
M  V30 3979 H 379.758 -4.13475 2.42023 0
M  V30 3980 H 378.122 -2.24542 1.20221 0
M  V30 3981 H 378.905 -1.92487 2.8426 0
M  V30 3982 N 381.35 -0.985608 -1.22978 0
M  V30 3983 C 382.766 -0.695104 -1.43668 0
M  V30 3984 C 382.966 0.736866 -1.87543 0
M  V30 3985 O 382.022 1.50868 -2.02473 0
M  V30 3986 C 383.335 -1.69447 -2.48412 0
M  V30 3987 C 384.883 -1.70909 -2.62219 0
M  V30 3988 C 385.358 -2.6969 -3.70178 0
M  V30 3989 N 386.849 -2.6824 -3.77626 0
M  V30 3990 C 387.584 -3.41339 -4.60733 0
M  V30 3991 N 387.08 -4.24015 -5.4789 0
M  V30 3992 N 388.873 -3.30079 -4.54977 0
M  V30 3993 H 381.024 -1.91054 -0.928016 0
M  V30 3994 H 383.287 -0.823553 -0.469536 0
M  V30 3995 H 382.993 -2.7188 -2.23102 0
M  V30 3996 H 382.867 -1.48147 -3.46889 0
M  V30 3997 H 385.254 -0.691785 -2.86877 0
M  V30 3998 H 385.335 -1.96276 -1.6404 0
M  V30 3999 H 384.979 -3.71566 -3.46268 0
M  V30 4000 H 384.909 -2.41595 -4.67909 0
M  V30 4001 H 387.4 -2.08243 -3.15346 0
M  V30 4002 H 387.713 -4.76636 -6.08308 0
M  V30 4003 H 386.058 -4.28104 -5.47496 0
M  V30 4004 H 389.249 -2.64937 -3.85909 0
M  V30 4005 H 389.422 -3.87308 -5.19516 0
M  V30 4006 N 382.828 1.3818 -0.7579 0
M  V30 4007 C 384.076 1.99624 -0.315361 0
M  V30 4008 C 384.397 1.60464 1.10799 0
M  V30 4009 O 383.667 0.863507 1.75842 0
M  V30 4010 H 382.247 0.73831 -0.113611 0
M  V30 4011 H 384.909 1.68878 -0.972952 0
M  V30 4012 H 384.005 3.09754 -0.381931 0
M  V30 4013 N 384.306 0.507319 1.49211 0
M  V30 4014 C 385.534 -0.0315749 2.06876 0
M  V30 4015 C 385.949 -1.30241 1.36685 0
M  V30 4016 O 385.306 -1.76937 0.447152 0
M  V30 4017 C 385.357 -0.282627 3.60393 0
M  V30 4018 O 385.078 0.937835 4.27944 0
M  V30 4019 C 386.579 -0.864453 4.3479 0
M  V30 4020 H 383.799 0.0233048 0.670595 0
M  V30 4021 H 386.343 0.706484 1.91909 0
M  V30 4022 H 384.498 -0.97068 3.75042 0
M  V30 4023 H 384.912 0.704567 5.19746 0
M  V30 4024 H 386.386 -0.989664 5.43056 0
M  V30 4025 H 386.863 -1.86382 3.97692 0
M  V30 4026 H 387.469 -0.213672 4.24763 0
M  V30 4027 N 385.784 -1.5574 0.241426 0
M  V30 4028 C 387.012 -2.03208 -0.389134 0
M  V30 4029 C 387.427 -1.12082 -1.51931 0
M  V30 4030 O 386.784 -0.134183 -1.82006 0
M  V30 4031 C 386.835 -3.50064 -0.902087 0
M  V30 4032 O 386.556 -4.37717 0.18305 0
M  V30 4033 C 388.057 -4.13268 -1.60389 0
M  V30 4034 H 385.277 -0.664509 -0.0931053 0
M  V30 4035 H 387.821 -2.0124 0.36369 0
M  V30 4036 H 385.976 -3.52583 -1.60511 0
M  V30 4037 H 386.39 -5.24097 -0.205579 0
M  V30 4038 H 387.864 -5.17733 -1.91458 0
M  V30 4039 H 388.341 -3.59434 -2.52397 0
M  V30 4040 H 388.947 -4.14655 -0.945576 0
M  V30 4041 N 387.262 0.0317525 -1.57568 0
M  V30 4042 C 388.673 0.578692 -1.77505 0
M  V30 4043 C 389.024 1.75749 -0.872164 0
M  V30 4044 O 388.149 2.16298 -0.0663106 0
M  V30 4045 C 388.744 1.05658 -3.21904 0
M  V30 4046 C 387.303 1.54906 -3.43047 0
M  V30 4047 C 386.45 0.485939 -2.73009 0
M  V30 4048 H 389.401 -0.194475 -1.57504 0
M  V30 4049 H 389.422 1.92404 -3.28269 0
M  V30 4050 H 388.934 0.198422 -3.87592 0
M  V30 4051 H 387.035 2.42915 -2.82529 0
M  V30 4052 H 387.148 1.59841 -4.5165 0
M  V30 4053 H 385.512 0.940354 -2.36705 0
M  V30 4054 H 386.295 -0.362709 -3.41379 0
M  V30 4055 N 388.74 1.54641 0.303973 0
M  V30 4056 C 390.151 1.64811 0.877163 0
M  V30 4057 C 390.502 0.554838 1.88191 0
M  V30 4058 O 389.627 -0.309033 2.14182 0
M  V30 4059 C 390.222 2.9876 1.59775 0
M  V30 4060 C 388.781 3.11061 2.11938 0
M  V30 4061 C 387.928 2.60479 0.951097 0
M  V30 4062 H 390.879 1.58493 0.0810486 0
M  V30 4063 H 390.9 2.90017 2.46314 0
M  V30 4064 H 390.412 3.7831 0.866226 0
M  V30 4065 H 388.513 2.36225 2.88146 0
M  V30 4066 H 388.626 4.17171 2.35595 0
M  V30 4067 H 386.99 2.16859 1.33583 0
M  V30 4068 H 387.773 3.42504 0.233581 0
M  V30 4069 N 390.218 -0.567019 1.47046 0
M  V30 4070 C 391.629 -1.14916 1.47143 0
M  V30 4071 C 391.98 -1.94954 0.220767 0
M  V30 4072 O 391.105 -2.05602 -0.67505 0
M  V30 4073 C 391.7 -2.09069 2.666 0
M  V30 4074 C 390.259 -2.62575 2.69687 0
M  V30 4075 C 389.406 -1.38755 2.40088 0
M  V30 4076 H 392.357 -0.354126 1.54699 0
M  V30 4077 H 392.378 -2.92789 2.43011 0
M  V30 4078 H 391.89 -1.50789 3.57609 0
M  V30 4079 H 389.991 -3.24681 1.82792 0
M  V30 4080 H 390.104 -3.04239 3.70102 0
M  V30 4081 H 388.468 -1.69098 1.90468 0
M  V30 4082 H 389.251 -0.822822 3.33293 0
M  V30 4083 N 391.696 -1.35014 -0.812953 0
M  V30 4084 C 393.107 -1.25035 -1.38648 0
M  V30 4085 C 393.458 0.119967 -1.95833 0
M  V30 4086 O 392.583 1.02069 -1.90816 0
M  V30 4087 C 393.178 -2.26394 -2.52054 0
M  V30 4088 C 391.737 -2.20175 -3.05287 0
M  V30 4089 C 390.884 -2.12451 -1.78213 0
M  V30 4090 H 393.835 -1.46235 -0.616516 0
M  V30 4091 H 393.856 -1.88672 -3.30429 0
M  V30 4092 H 393.368 -3.26116 -2.10404 0
M  V30 4093 H 391.469 -1.23841 -3.51417 0
M  V30 4094 H 391.582 -3.11863 -3.63701 0
M  V30 4095 H 389.946 -1.58328 -1.9951 0
M  V30 4096 H 390.729 -3.14024 -1.38723 0
M  V30 4097 N 393.175 1.03435 -1.18907 0
M  V30 4098 C 394.4 1.80919 -1.01406 0
M  V30 4099 C 394.825 1.83055 0.432721 0
M  V30 4100 O 394.183 1.25252 1.31079 0
M  V30 4101 C 394.231 3.24091 -1.58105 0
M  V30 4102 O 393.335 4.04434 -0.806669 0
M  V30 4103 H 392.676 0.558709 -0.358803 0
M  V30 4104 H 395.206 1.30223 -1.57807 0
M  V30 4105 H 395.216 3.74853 -1.61087 0
M  V30 4106 H 393.891 3.21851 -2.6341 0
M  V30 4107 H 392.468 3.63091 -0.849666 0
M  V30 4108 N 394.653 0.992116 1.22453 0
M  V30 4109 C 395.899 0.678177 1.91761 0
M  V30 4110 C 396.254 -0.781141 1.75829 0
M  V30 4111 O 395.547 -1.55747 1.11595 0
M  V30 4112 C 395.741 1.01832 3.42586 0
M  V30 4113 C 395.57 2.50916 3.73191 0
M  V30 4114 C 394.34 3.17308 3.93248 0
M  V30 4115 C 396.538 3.49032 3.77732 0
M  V30 4116 N 394.52 4.55876 4.11157 0
M  V30 4117 C 395.891 4.73055 4.00773 0
M  V30 4118 C 397.946 3.43349 3.60577 0
M  V30 4119 C 396.649 5.92089 4.0844 0
M  V30 4120 C 398.675 4.61759 3.69503 0
M  V30 4121 C 398.037 5.84582 3.92993 0
M  V30 4122 H 394.136 0.299425 0.722405 0
M  V30 4123 H 396.72 1.27197 1.47408 0
M  V30 4124 H 394.891 0.453118 3.85748 0
M  V30 4125 H 396.623 0.660454 3.99274 0
M  V30 4126 H 393.378 2.67778 3.9063 0
M  V30 4127 H 393.802 5.27748 4.24042 0
M  V30 4128 H 398.444 2.49408 3.41402 0
M  V30 4129 H 396.162 6.86435 4.26418 0
M  V30 4130 H 399.748 4.58951 3.57569 0
M  V30 4131 H 398.628 6.74676 3.99728 0
M  V30 4132 N 396.131 -1.37776 0.765217 0
M  V30 4133 C 397.041 -2.34135 0.147666 0
M  V30 4134 C 398.057 -1.59854 -0.687215 0
M  V30 4135 O 399.233 -1.91983 -0.608659 0
M  V30 4136 C 396.298 -3.3901 -0.72617 0
M  V30 4137 C 395.359 -4.2912 0.124417 0
M  V30 4138 C 394.592 -5.28986 -0.707807 0
M  V30 4139 O 394.815 -5.36205 -1.94525 0
M  V30 4140 O 393.749 -6.01779 -0.12046 0
M  V30 4141 H 397.575 -2.88664 0.943758 0
M  V30 4142 H 395.16 -1.39824 0.526277 0
M  V30 4143 H 397.042 -4.03195 -1.22524 0
M  V30 4144 H 395.717 -2.86819 -1.50056 0
M  V30 4145 H 394.624 -3.68057 0.669696 0
M  V30 4146 H 395.957 -4.84598 0.861736 0
M  V30 4147 N 397.609 -0.515225 -1.4894 0
M  V30 4148 C 399.02 -0.0710067 -1.86565 0
M  V30 4149 C 399.371 1.34733 -1.42623 0
M  V30 4150 O 398.496 2.00653 -0.810379 0
M  V30 4151 C 399.091 -0.122083 -3.3858 0
M  V30 4152 C 397.65 0.266863 -3.75453 0
M  V30 4153 C 396.797 -0.488376 -2.72966 0
M  V30 4154 H 399.748 -0.727266 -1.41055 0
M  V30 4155 H 399.769 0.669818 -3.74558 0
M  V30 4156 H 399.281 -1.15448 -3.70531 0
M  V30 4157 H 397.382 1.30196 -3.49113 0
M  V30 4158 H 397.495 -0.0624811 -4.79059 0
M  V30 4159 H 395.859 0.0635622 -2.54621 0
M  V30 4160 H 396.642 -1.52113 -3.07761 0
M  V30 4161 N 399.087 1.5561 -0.249682 0
M  V30 4162 C 400.035 2.22894 0.664906 0
M  V30 4163 C 401.029 1.21743 1.17792 0
M  V30 4164 O 402.235 1.39748 1.13449 0
M  V30 4165 H 398.61 0.715022 0.232912 0
M  V30 4166 H 400.581 2.98307 0.0742998 0
M  V30 4167 C 399.33 2.94424 1.84959 0
M  V30 4168 H 398.653 3.72031 1.46399 0
M  V30 4169 H 400.093 3.44862 2.4667 0
M  V30 4170 C 398.552 1.98454 2.72245 0
M  V30 4171 O 399.082 1.51939 3.71857 0
M  V30 4172 N 397.288 1.65496 2.38871 0
M  V30 4173 H 396.835 2.03517 1.57919 0
M  V30 4174 H 396.793 1.0155 2.97548 0
M  V30 4175 N 400.565 -0.0233959 1.57583 0
M  V30 4176 C 401.79 -0.728376 1.94189 0
M  V30 4177 C 402.215 -1.67793 0.850119 0
M  V30 4178 O 401.573 -1.80262 -0.19371 0
M  V30 4179 C 401.621 -1.45669 3.29868 0
M  V30 4180 O 400.725 -2.57013 3.22518 0
M  V30 4181 H 400.066 -0.195493 0.63457 0
M  V30 4182 H 402.596 0.0228214 2.04587 0
M  V30 4183 H 402.606 -1.82535 3.6489 0
M  V30 4184 H 401.281 -0.760314 4.08891 0
M  V30 4185 H 399.858 -2.22648 2.99136 0
M  V30 4186 N 402.043 -1.548 -0.295768 0
M  V30 4187 C 402.975 -1.82492 -1.3867 0
M  V30 4188 C 403.988 -0.708134 -1.46592 0
M  V30 4189 O 405.177 -0.985686 -1.48817 0
M  V30 4190 C 402.277 -1.95256 -2.76999 0
M  V30 4191 C 401.45 -3.25709 -2.91946 0
M  V30 4192 C 400.509 -3.28824 -4.10806 0
M  V30 4193 O 399.535 -4.02328 -4.02643 0
M  V30 4194 N 400.737 -2.5459 -5.21694 0
M  V30 4195 H 403.502 -2.76646 -1.15269 0
M  V30 4196 H 401.063 -1.54438 -0.485849 0
M  V30 4197 H 403.055 -1.94736 -3.54768 0
M  V30 4198 H 401.625 -1.08072 -2.93324 0
M  V30 4199 H 400.845 -3.38959 -2.01247 0
M  V30 4200 H 402.133 -4.11786 -2.98847 0
M  V30 4201 H 401.531 -1.94512 -5.31208 0
M  V30 4202 H 400.088 -2.59818 -5.97778 0
M  V30 4203 N 403.521 0.559213 -1.47345 0
M  V30 4204 C 404.749 1.34194 -1.57479 0
M  V30 4205 C 405.164 1.87463 -0.224261 0
M  V30 4206 O 404.521 1.64888 0.782185 0
M  V30 4207 C 404.572 2.51324 -2.59843 0
M  V30 4208 O 404.293 2.00256 -3.89653 0
M  V30 4209 C 405.794 3.43563 -2.80142 0
M  V30 4210 H 403.014 0.409136 -0.531835 0
M  V30 4211 H 405.558 0.677609 -1.92947 0
M  V30 4212 H 403.713 3.13699 -2.27314 0
M  V30 4213 H 404.127 2.76708 -4.4557 0
M  V30 4214 H 405.601 4.2217 -3.55635 0
M  V30 4215 H 406.078 3.9698 -1.87892 0
M  V30 4216 H 406.684 2.87005 -3.1386 0
M  V30 4217 N 404.999 1.35443 0.805782 0
M  V30 4218 C 405.946 1.28431 1.91766 0
M  V30 4219 C 406.916 0.156102 1.65365 0
M  V30 4220 O 408.101 0.339936 1.87747 0
M  V30 4221 C 405.241 1.06301 3.2832 0
M  V30 4222 C 404.354 2.2805 3.66902 0
M  V30 4223 C 403.489 1.99064 4.92491 0
M  V30 4224 C 402.528 3.16863 5.23703 0
M  V30 4225 N 401.665 2.87647 6.40471 0
M  V30 4226 H 406.505 2.23511 1.97096 0
M  V30 4227 H 404.042 1.11105 0.964054 0
M  V30 4228 H 406 0.915012 4.07042 0
M  V30 4229 H 404.63 0.148822 3.22457 0
M  V30 4230 H 403.682 2.53711 2.83434 0
M  V30 4231 H 404.994 3.1601 3.85927 0
M  V30 4232 H 404.148 1.81099 5.7904 0
M  V30 4233 H 402.887 1.0839 4.75503 0
M  V30 4234 H 401.892 3.35404 4.35642 0
M  V30 4235 H 403.117 4.08339 5.4262 0
M  V30 4236 H 401.063 1.99568 6.24907 0
M  V30 4237 H 400.98 3.69141 6.59751 0
M  V30 4238 H 402.248 2.73226 7.30047 0
M  V30 4239 N 406.477 -1.02803 1.19454 0
M  V30 4240 C 407.893 -1.28473 0.946937 0
M  V30 4241 C 408.093 -1.97881 -0.380202 0
M  V30 4242 O 407.149 -2.26719 -1.11151 0
M  V30 4243 C 408.462 -2.13099 2.12154 0
M  V30 4244 C 410.01 -2.26404 2.16126 0
M  V30 4245 C 410.485 -3.14402 3.33039 0
M  V30 4246 N 411.976 -3.21991 3.32981 0
M  V30 4247 C 412.711 -3.90272 4.20089 0
M  V30 4248 N 412.207 -4.60777 5.17355 0
M  V30 4249 N 414 -3.8668 4.07964 0
M  V30 4250 H 406.151 -0.561665 2.04839 0
M  V30 4251 H 408.414 -0.310438 0.89573 0
M  V30 4252 H 408.12 -1.69422 3.08203 0
M  V30 4253 H 407.994 -3.13813 2.09287 0
M  V30 4254 H 410.381 -2.69311 1.20647 0
M  V30 4255 H 410.462 -1.25237 2.23045 0
M  V30 4256 H 410.106 -2.72204 4.28798 0
M  V30 4257 H 410.036 -4.1563 3.23356 0
M  V30 4258 H 412.527 -2.71778 2.62574 0
M  V30 4259 H 412.84 -5.10513 5.80169 0
M  V30 4260 H 411.185 -4.5964 5.21302 0
M  V30 4261 H 414.376 -3.30739 3.31254 0
M  V30 4262 H 414.549 -4.39621 4.76064 0
M  V30 4263 N 407.956 -0.998596 -1.21925 0
M  V30 4264 C 409.186 -0.695276 -1.94549 0
M  V30 4265 C 409.594 0.745079 -1.73911 0
M  V30 4266 O 408.937 1.51507 -1.03881 0
M  V30 4267 C 408.999 -0.928485 -3.47303 0
M  V30 4268 C 408.663 -2.35443 -3.91683 0
M  V30 4269 C 409.66 -3.33428 -3.98901 0
M  V30 4270 C 407.345 -2.69038 -4.24174 0
M  V30 4271 C 409.339 -4.63079 -4.37992 0
M  V30 4272 C 407.026 -3.98906 -4.62944 0
M  V30 4273 C 408.024 -4.95738 -4.69822 0
M  V30 4274 O 407.712 -6.23285 -5.07711 0
M  V30 4275 H 407.444 -0.255902 -0.625692 0
M  V30 4276 H 409.998 -1.33767 -1.5587 0
M  V30 4277 H 408.228 -0.228917 -3.86022 0
M  V30 4278 H 409.917 -0.619539 -4.01144 0
M  V30 4279 H 410.683 -3.08807 -3.73983 0
M  V30 4280 H 406.562 -1.94367 -4.18022 0
M  V30 4281 H 410.106 -5.38658 -4.43275 0
M  V30 4282 H 406.003 -4.23314 -4.87314 0
M  V30 4283 H 406.771 -6.27306 -5.25766 0
M  V30 4284 N 409.434 1.37368 -0.772513 0
M  V30 4285 C 410.659 2.0447 -0.347386 0
M  V30 4286 C 411.084 1.57882 1.0225 0
M  V30 4287 O 410.442 0.73941 1.65537 0
M  V30 4288 C 410.49 3.58369 -0.400479 0
M  V30 4289 O 409.594 4.0803 0.598789 0
M  V30 4290 H 408.935 0.646773 -0.15027 0
M  V30 4291 H 411.465 1.75667 -1.04892 0
M  V30 4292 H 411.475 4.07183 -0.258045 0
M  V30 4293 H 410.15 3.91633 -1.39986 0
M  V30 4294 H 408.727 3.70534 0.419411 0
M  V30 4295 N 410.912 0.523116 1.48665 0
M  V30 4296 C 412.16 -0.0134497 2.02096 0
M  V30 4297 C 412.481 -1.35418 1.40311 0
M  V30 4298 O 411.751 -1.87543 0.566074 0
M  V30 4299 H 410.331 -0.00795915 0.746958 0
M  V30 4300 H 412.993 0.685388 1.82451 0
M  V30 4301 H 412.089 -0.126849 3.11842 0
M  V30 4302 N 412.39 -1.55475 0.257931 0
M  V30 4303 C 413.338 -2.23244 -0.653076 0
M  V30 4304 C 414.332 -1.22366 -1.17144 0
M  V30 4305 O 415.538 -1.40347 -1.12706 0
M  V30 4306 H 411.913 -0.716247 -0.229117 0
M  V30 4307 H 413.884 -2.98343 -0.0584788 0
M  V30 4308 C 412.633 -2.95401 -1.83395 0
M  V30 4309 H 411.956 -3.72802 -1.44424 0
M  V30 4310 H 413.396 -3.46165 -2.44838 0
M  V30 4311 C 411.855 -1.99895 -2.71189 0
M  V30 4312 O 412.385 -1.53909 -3.71046 0
M  V30 4313 N 410.591 -1.6676 -2.3799 0
M  V30 4314 H 410.138 -2.04352 -1.56837 0
M  V30 4315 H 410.096 -1.03127 -2.97005 0
M  V30 4316 N 413.868 0.0150385 -1.57593 0
M  V30 4317 C 414.801 1.04475 -2.0288 0
M  V30 4318 C 415.779 1.3436 -0.915764 0
M  V30 4319 O 416.963 1.46779 -1.18271 0
M  V30 4320 C 414.09 2.37608 -2.41371 0
M  V30 4321 C 413.136 2.23487 -3.63257 0
M  V30 4322 S 413.969 1.57505 -5.11813 0
M  V30 4323 C 415.125 2.921 -5.5356 0
M  V30 4324 H 415.358 0.65907 -2.89903 0
M  V30 4325 H 412.891 0.225452 -1.52745 0
M  V30 4326 H 414.849 3.14165 -2.64217 0
M  V30 4327 H 413.51 2.7332 -1.54775 0
M  V30 4328 H 412.703 3.21802 -3.87891 0
M  V30 4329 H 412.305 1.55074 -3.40335 0
M  V30 4330 H 414.597 3.88419 -5.55101 0
M  V30 4331 H 415.54 2.72184 -6.53698 0
M  V30 4332 H 415.948 2.95318 -4.8109 0
M  V30 4333 N 415.346 1.54954 0.287554 0
M  V30 4334 C 416.256 1.8991 1.37736 0
M  V30 4335 C 417.272 0.794701 1.54792 0
M  V30 4336 O 418.448 1.09243 1.69198 0
M  V30 4337 C 415.513 2.15108 2.71899 0
M  V30 4338 C 414.574 3.38752 2.63715 0
M  V30 4339 C 413.807 3.62739 3.91479 0
M  V30 4340 O 414.03 2.89492 4.91478 0
M  V30 4341 O 412.964 4.56267 3.92561 0
M  V30 4342 H 416.79 2.82652 1.11092 0
M  V30 4343 H 414.375 1.41315 0.484807 0
M  V30 4344 H 416.257 2.32806 3.51254 0
M  V30 4345 H 414.932 1.25551 2.9836 0
M  V30 4346 H 413.839 3.26405 1.82786 0
M  V30 4347 H 415.172 4.28483 2.42205 0
M  V30 4348 N 416.824 -0.551391 1.4764 0
M  V30 4349 C 418.054 -1.33163 1.57959 0
M  V30 4350 C 418.462 -1.87785 0.23094 0
M  V30 4351 O 417.805 -1.65996 -0.786825 0
M  V30 4352 C 417.867 -2.53449 2.54958 0
M  V30 4353 C 417.531 -2.20071 4.00522 0
M  V30 4354 C 418.528 -1.77017 4.88836 0
M  V30 4355 C 416.213 -2.31252 4.45901 0
M  V30 4356 C 418.207 -1.4558 6.20552 0
M  V30 4357 C 415.894 -1.99427 5.77644 0
M  V30 4358 C 416.892 -1.56659 6.64791 0
M  V30 4359 O 416.58 -1.25242 7.94084 0
M  V30 4360 H 416.312 -0.412022 0.535923 0
M  V30 4361 H 418.866 -0.674186 1.9402 0
M  V30 4362 H 417.096 -3.22104 2.13976 0
M  V30 4363 H 418.785 -3.15523 2.55343 0
M  V30 4364 H 419.551 -1.67867 4.55023 0
M  V30 4365 H 415.43 -2.63498 3.78272 0
M  V30 4366 H 418.974 -1.12125 6.8853 0
M  V30 4367 H 414.871 -2.08211 6.10998 0
M  V30 4368 H 415.639 -1.38822 8.06642 0
M  V30 4369 N 418.302 -1.35869 -0.798587 0
M  V30 4370 C 419.548 -1.2978 -1.55836 0
M  V30 4371 C 419.881 0.125322 -1.93795 0
M  V30 4372 O 419.156 1.07658 -1.61987 0
M  V30 4373 C 419.439 -2.21188 -2.84162 0
M  V30 4374 C 419.292 -3.72155 -2.52628 0
M  V30 4375 C 420.611 -2.11545 -3.85923 0
M  V30 4376 H 417.73 -0.472769 -0.565383 0
M  V30 4377 H 420.372 -1.66341 -0.918192 0
M  V30 4378 H 418.522 -1.90139 -3.38791 0
M  V30 4379 H 420.194 -4.13682 -2.04121 0
M  V30 4380 H 418.437 -3.92042 -1.85704 0
M  V30 4381 H 419.108 -4.31511 -3.44242 0
M  V30 4382 H 421.584 -2.38855 -3.40716 0
M  V30 4383 H 420.46 -2.77688 -4.73477 0
M  V30 4384 H 420.721 -1.09987 -4.282 0
M  V30 4385 N 419.78 1.02168 -1.19998 0
M  V30 4386 C 421.029 1.75091 -1.0013 0
M  V30 4387 C 421.342 1.89923 0.467835 0
M  V30 4388 O 422.548 2.59888 0.785515 0
M  V30 4389 C 421.004 3.14892 -1.74273 0
M  V30 4390 C 420.612 3.0809 -3.25245 0
M  V30 4391 C 422.356 3.9206 -1.62755 0
M  V30 4392 C 420.263 4.42867 -3.91948 0
M  V30 4393 H 419.193 0.656394 -0.37103 0
M  V30 4394 H 421.844 1.14284 -1.43567 0
M  V30 4395 H 420.226 3.7621 -1.2362 0
M  V30 4396 H 421.4 2.5611 -3.83072 0
M  V30 4397 H 419.715 2.44416 -3.3712 0
M  V30 4398 H 422.312 4.91764 -2.09934 0
M  V30 4399 H 422.655 4.12199 -0.582894 0
M  V30 4400 H 423.188 3.37359 -2.10793 0
M  V30 4401 H 419.927 4.27931 -4.96543 0
M  V30 4402 H 419.447 4.94874 -3.3891 0
M  V30 4403 H 421.126 5.11728 -3.95909 0
M  V30 4404 N 421.258 1.00505 1.21394 0
M  V30 4405 C 422.483 0.706367 1.95001 0
M  V30 4406 C 422.908 -0.72463 1.73582 0
M  V30 4407 O 422.266 -1.49702 1.0227 0
M  V30 4408 C 422.314 1.03299 3.45487 0
M  V30 4409 O 421.418 0.138275 4.12168 0
M  V30 4410 H 420.759 0.263175 0.609619 0
M  V30 4411 H 423.289 1.34531 1.54151 0
M  V30 4412 H 423.299 0.979872 3.96059 0
M  V30 4413 H 421.974 2.07567 3.60401 0
M  V30 4414 H 420.551 0.247928 3.72075 0
M  V30 4415 N 422.737 -1.36956 0.779787 0
M  V30 4416 C 424.153 -1.52817 0.460342 0
M  V30 4417 C 424.353 -1.7361 -1.02283 0
M  V30 4418 O 423.409 -1.76207 -1.80852 0
M  V30 4419 C 424.722 -2.71983 1.28241 0
M  V30 4420 C 426.27 -2.85849 1.27512 0
M  V30 4421 C 426.745 -4.08008 2.08072 0
M  V30 4422 N 428.236 -4.15135 2.05467 0
M  V30 4423 C 428.971 -5.08711 2.64577 0
M  V30 4424 N 428.467 -6.07792 3.32506 0
M  V30 4425 N 430.26 -5.01254 2.54363 0
M  V30 4426 H 422.411 -1.21713 1.74068 0
M  V30 4427 H 424.674 -0.593294 0.739396 0
M  V30 4428 H 424.38 -2.63109 2.33381 0
M  V30 4429 H 424.254 -3.65882 0.917088 0
M  V30 4430 H 426.641 -2.94189 0.231686 0
M  V30 4431 H 426.722 -1.92886 1.68014 0
M  V30 4432 H 426.366 -4.00429 3.12441 0
M  V30 4433 H 426.296 -5.001 1.64947 0
M  V30 4434 H 428.787 -3.44189 1.5602 0
M  V30 4435 H 429.1 -6.75739 3.74963 0
M  V30 4436 H 427.445 -6.08047 3.36606 0
M  V30 4437 H 430.636 -4.22795 2.00902 0
M  V30 4438 H 430.809 -5.73995 3.00722 0
M  V30 4439 N 424.215 -0.530993 -1.48385 0
M  V30 4440 C 425.464 0.00474348 -2.01699 0
M  V30 4441 C 425.777 1.35227 -1.41325 0
M  V30 4442 O 426.983 1.97643 -1.86144 0
M  V30 4443 C 425.439 0.0588473 -3.59852 0
M  V30 4444 C 425.047 -1.28385 -4.2921 0
M  V30 4445 C 426.791 0.543358 -4.21008 0
M  V30 4446 C 424.698 -1.19028 -5.79298 0
M  V30 4447 H 423.628 0.00554317 -0.75398 0
M  V30 4448 H 426.279 -0.674924 -1.70637 0
M  V30 4449 H 424.661 0.803612 -3.8776 0
M  V30 4450 H 425.835 -2.04426 -4.12973 0
M  V30 4451 H 424.15 -1.70418 -3.7993 0
M  V30 4452 H 426.747 0.631351 -5.3096 0
M  V30 4453 H 427.09 1.54937 -3.86394 0
M  V30 4454 H 427.623 -0.145754 -3.97533 0
M  V30 4455 H 424.362 -2.17147 -6.18488 0
M  V30 4456 H 423.882 -0.471246 -5.97946 0
M  V30 4457 H 425.561 -0.881365 -6.40969 0
M  V30 4458 N 425.693 1.55336 -0.266172 0
M  V30 4459 C 426.918 2.04258 0.359661 0
M  V30 4460 C 427.343 1.14359 1.49344 0
M  V30 4461 O 426.701 0.140369 1.80756 0
M  V30 4462 C 426.749 3.50997 0.826635 0
M  V30 4463 O 425.853 3.64204 1.93466 0
M  V30 4464 H 425.194 0.659668 0.075727 0
M  V30 4465 H 427.724 2.00694 -0.39786 0
M  V30 4466 H 427.734 3.9219 1.12477 0
M  V30 4467 H 426.409 4.159 -0.00293032 0
M  V30 4468 H 424.986 3.34913 1.63974 0
M  V30 4469 N 427.171 -0.0066808 1.57599 0
M  V30 4470 C 428.582 -0.550379 1.78403 0
M  V30 4471 C 428.933 -1.74339 0.900014 0
M  V30 4472 O 428.058 -2.16166 0.100713 0
M  V30 4473 C 428.653 -1.00523 3.23544 0
M  V30 4474 C 427.212 -1.49428 3.45468 0
M  V30 4475 C 426.359 -0.442444 2.73748 0
M  V30 4476 H 429.31 0.219508 1.57175 0
M  V30 4477 H 429.331 -1.87157 3.31289 0
M  V30 4478 H 428.843 -0.136735 3.87859 0
M  V30 4479 H 426.944 -2.3839 2.86358 0
M  V30 4480 H 427.057 -1.52635 4.54136 0
M  V30 4481 H 425.421 -0.902578 2.38171 0
M  V30 4482 H 426.204 0.416973 3.40758 0
M  V30 4483 N 428.649 -1.55105 -0.279332 0
M  V30 4484 C 429.895 -1.75672 -1.01327 0
M  V30 4485 C 430.228 -0.552739 -1.86168 0
M  V30 4486 O 429.503 0.449827 -1.89227 0
M  V30 4487 C 429.786 -3.05825 -1.90114 0
M  V30 4488 C 429.639 -4.36565 -1.08309 0
M  V30 4489 C 430.958 -3.31975 -2.8893 0
M  V30 4490 H 428.077 -0.639149 -0.366957 0
M  V30 4491 H 430.719 -1.87833 -0.286154 0
M  V30 4492 H 428.869 -2.95588 -2.52111 0
M  V30 4493 H 430.541 -4.58751 -0.484314 0
M  V30 4494 H 428.784 -4.32076 -0.386362 0
M  V30 4495 H 429.455 -5.23946 -1.73737 0
M  V30 4496 H 431.931 -3.41963 -2.37067 0
M  V30 4497 H 430.807 -4.2432 -3.48201 0
M  V30 4498 H 431.068 -2.51309 -3.63725 0
M  V30 4499 N 430.127 0.543554 -1.4793 0
M  V30 4500 C 431.538 1.12561 -1.48953 0
M  V30 4501 C 431.889 1.94578 -0.251754 0
M  V30 4502 O 431.014 2.0665 0.642255 0
M  V30 4503 C 431.609 2.04801 -2.69892 0
M  V30 4504 C 430.168 2.58251 -2.73831 0
M  V30 4505 C 429.315 1.34918 -2.42265 0
M  V30 4506 H 432.266 0.32947 -1.55242 0
M  V30 4507 H 432.287 2.88886 -2.47639 0
M  V30 4508 H 431.799 1.4508 -3.59963 0
M  V30 4509 H 429.9 3.21732 -1.87934 0
M  V30 4510 H 430.013 2.98312 -3.74895 0
M  V30 4511 H 428.377 1.66046 -1.93134 0
M  V30 4512 H 429.16 0.769693 -3.3456 0
M  V30 4513 N 431.605 1.3629 0.791371 0
M  V30 4514 C 433.016 1.27225 1.36641 0
M  V30 4515 C 433.367 -0.0887968 1.95999 0
M  V30 4516 O 432.492 -0.990207 1.92416 0
M  V30 4517 C 433.087 2.30375 2.48421 0
M  V30 4518 C 431.646 2.25004 3.01746 0
M  V30 4519 C 430.793 2.15259 1.7481 0
M  V30 4520 H 433.744 1.47198 0.593173 0
M  V30 4521 H 433.765 1.93905 3.27385 0
M  V30 4522 H 433.277 3.29422 2.05189 0
M  V30 4523 H 431.378 1.29417 3.49403 0
M  V30 4524 H 431.491 3.1761 3.58693 0
M  V30 4525 H 429.855 1.61482 1.96966 0
M  V30 4526 H 430.638 3.16191 1.33709 0
M  V30 4527 N 433.083 -1.0153 1.20538 0
M  V30 4528 C 434.331 -1.74803 1.01432 0
M  V30 4529 C 434.652 -1.8963 -0.454456 0
M  V30 4530 O 433.922 -1.43975 -1.32846 0
M  V30 4531 H 432.502 -0.647598 0.372324 0
M  V30 4532 H 435.164 -1.22402 1.5167 0
M  V30 4533 H 434.26 -2.75114 1.47373 0
M  V30 4534 N 434.561 -1.01147 -1.20859 0
M  V30 4535 C 435.524 -0.582224 -2.21682 0
M  V30 4536 C 436.524 0.344887 -1.57058 0
M  V30 4537 O 437.714 0.134281 -1.73682 0
M  V30 4538 C 434.846 0.150496 -3.40568 0
M  V30 4539 H 436.039 -1.47408 -2.61172 0
M  V30 4540 H 433.592 -0.800695 -1.34233 0
M  V30 4541 H 434.327 1.0575 -3.06574 0
M  V30 4542 H 434.112 -0.515444 -3.88697 0
M  V30 4543 H 435.602 0.438344 -4.15293 0
M  V30 4544 N 436.039 1.36541 -0.78704 0
M  V30 4545 C 437.285 2.00044 -0.367938 0
M  V30 4546 C 437.64 1.61345 1.04812 0
M  V30 4547 O 436.933 0.856936 1.71368 0
M  V30 4548 C 437.127 3.54343 -0.466485 0
M  V30 4549 C 436.956 4.08029 -1.89058 0
M  V30 4550 C 435.726 4.38284 -2.51466 0
M  V30 4551 C 437.924 4.27954 -2.85236 0
M  V30 4552 N 435.906 4.77778 -3.85488 0
M  V30 4553 C 437.277 4.70227 -4.04088 0
M  V30 4554 C 439.332 4.10119 -2.82324 0
M  V30 4555 C 438.035 4.96532 -5.20432 0
M  V30 4556 C 440.061 4.37569 -3.97854 0
M  V30 4557 C 439.423 4.80095 -5.15449 0
M  V30 4558 H 435.522 0.760525 -0.182004 0
M  V30 4559 H 438.106 1.65589 -1.02413 0
M  V30 4560 H 436.277 3.88072 0.159606 0
M  V30 4561 H 438.009 4.04693 -0.0238577 0
M  V30 4562 H 434.764 4.27905 -2.02965 0
M  V30 4563 H 435.188 5.01813 -4.54437 0
M  V30 4564 H 439.83 3.76399 -1.92571 0
M  V30 4565 H 437.548 5.29134 -6.10773 0
M  V30 4566 H 441.134 4.25341 -3.96958 0
M  V30 4567 H 440.014 5.00925 -6.0336 0
M  V30 4568 N 437.518 0.538854 1.48102 0
M  V30 4569 C 438.45 -0.256278 2.27763 0
M  V30 4570 C 439.463 -0.89633 1.35904 0
M  V30 4571 O 440.652 -0.773275 1.60881 0
M  V30 4572 C 437.752 -1.37896 3.09577 0
M  V30 4573 C 436.925 -0.839159 4.29275 0
M  V30 4574 C 435.984 -1.84405 4.9283 0
M  V30 4575 O 435.01 -1.39746 5.51779 0
M  V30 4576 N 436.212 -3.17666 4.85869 0
M  V30 4577 H 438.977 0.426968 2.96643 0
M  V30 4578 H 436.538 0.373747 1.57527 0
M  V30 4579 H 438.53 -2.04955 3.48963 0
M  V30 4580 H 437.1 -1.96572 2.4306 0
M  V30 4581 H 436.32 0.00769287 3.94199 0
M  V30 4582 H 437.608 -0.457548 5.06739 0
M  V30 4583 H 437.006 -3.56609 4.39143 0
M  V30 4584 H 435.563 -3.80334 5.29329 0
M  V30 4585 N 438.996 -1.55193 0.274407 0
M  V30 4586 C 439.906 -2.26164 -0.623473 0
M  V30 4587 C 440.922 -1.28729 -1.17068 0
M  V30 4588 O 442.098 -1.61663 -1.20112 0
M  V30 4589 C 439.163 -2.96833 -1.7914 0
M  V30 4590 C 438.224 -4.09745 -1.28093 0
M  V30 4591 C 437.457 -4.77034 -2.3932 0
M  V30 4592 O 437.68 -4.4353 -3.5866 0
M  V30 4593 O 436.614 -5.64996 -2.07516 0
M  V30 4594 H 440.44 -3.03661 -0.0485661 0
M  V30 4595 H 438.025 -1.49341 0.0418382 0
M  V30 4596 H 439.907 -3.41248 -2.4724 0
M  V30 4597 H 438.582 -2.22253 -2.35341 0
M  V30 4598 H 437.489 -3.69787 -0.566416 0
M  V30 4599 H 438.822 -4.86224 -0.764683 0
M  V30 4600 N 440.474 -0.00167713 -1.576 0
M  V30 4601 C 441.722 0.681471 -1.90264 0
M  V30 4602 C 442.043 1.7422 -0.875924 0
M  V30 4603 O 441.313 1.95709 0.0864412 0
M  V30 4604 H 439.893 0.254696 -0.702239 0
M  V30 4605 H 442.555 -0.0429996 -1.94853 0
M  V30 4606 H 441.651 1.15166 -2.90075 0
M  V30 4607 N 441.952 1.55251 0.271103 0
M  V30 4608 C 443.182 1.79713 1.01916 0
M  V30 4609 C 443.59 0.571613 1.80359 0
M  V30 4610 O 442.933 -0.468853 1.77616 0
M  V30 4611 C 442.995 2.97138 2.02359 0
M  V30 4612 C 442.659 4.34104 1.42837 0
M  V30 4613 C 443.656 5.13019 0.843071 0
M  V30 4614 C 441.341 4.80765 1.455 0
M  V30 4615 C 443.335 6.36729 0.292333 0
M  V30 4616 C 441.022 6.0443 0.900402 0
M  V30 4617 C 442.02 6.8225 0.32007 0
M  V30 4618 O 441.708 8.03582 -0.226031 0
M  V30 4619 H 441.44 0.602431 0.306681 0
M  V30 4620 H 443.994 2.03097 0.306701 0
M  V30 4621 H 442.224 2.6945 2.77369 0
M  V30 4622 H 443.913 3.08907 2.63309 0
M  V30 4623 H 444.679 4.781 0.815178 0
M  V30 4624 H 440.558 4.20202 1.89609 0
M  V30 4625 H 444.102 6.97414 -0.161274 0
M  V30 4626 H 439.999 6.3883 0.925541 0
M  V30 4627 H 440.767 8.18418 -0.115572 0
M  V30 4628 N 443.43 -0.535701 1.48216 0
M  V30 4629 C 444.841 -1.11769 1.49548 0
M  V30 4630 C 445.192 -1.94442 0.26207 0
M  V30 4631 O 444.317 -2.06987 -0.631287 0
M  V30 4632 C 444.912 -2.03367 2.70975 0
M  V30 4633 C 443.471 -2.56795 2.75196 0
M  V30 4634 C 442.618 -1.33631 2.42977 0
M  V30 4635 H 445.569 -0.321232 1.55415 0
M  V30 4636 H 445.59 -2.87569 2.49167 0
M  V30 4637 H 445.102 -1.43169 3.60727 0
M  V30 4638 H 443.203 -3.20731 1.89638 0
M  V30 4639 H 443.316 -2.9632 3.76472 0
M  V30 4640 H 441.68 -1.6502 1.94012 0
M  V30 4641 H 442.463 -0.75194 3.34964 0
M  V30 4642 N 444.908 -1.36708 -0.784132 0
M  V30 4643 C 446.319 -1.27947 -1.35965 0
M  V30 4644 C 446.67 0.0784013 -1.96043 0
M  V30 4645 O 445.795 0.979989 -1.92938 0
M  V30 4646 C 446.39 -2.31689 -2.47195 0
M  V30 4647 C 444.949 -2.26601 -3.00548 0
M  V30 4648 C 444.096 -2.16184 -1.73666 0
M  V30 4649 H 447.047 -1.4751 -0.585358 0
M  V30 4650 H 447.068 -1.95638 -3.26352 0
M  V30 4651 H 446.58 -3.30506 -2.03439 0
M  V30 4652 H 444.681 -1.31268 -3.48711 0
M  V30 4653 H 444.794 -3.19508 -3.57004 0
M  V30 4654 H 443.158 -1.62524 -1.96107 0
M  V30 4655 H 443.941 -3.16896 -1.32031 0
M  V30 4656 N 446.386 1.0089 -1.21074 0
M  V30 4657 C 447.797 1.56056 -1.02486 0
M  V30 4658 C 448.148 1.91728 0.416506 0
M  V30 4659 O 447.273 1.73066 1.29912 0
M  V30 4660 C 447.868 2.83563 -1.85411 0
M  V30 4661 C 446.427 3.3523 -1.71166 0
M  V30 4662 C 445.574 2.0846 -1.82865 0
M  V30 4663 H 448.525 0.831818 -1.35154 0
M  V30 4664 H 448.546 3.55286 -1.36205 0
M  V30 4665 H 448.058 2.57569 -2.9031 0
M  V30 4666 H 446.159 3.66167 -0.689361 0
M  V30 4667 H 446.272 4.06913 -2.52901 0
M  V30 4668 H 444.636 2.21275 -1.26132 0
M  V30 4669 H 445.419 1.84883 -2.89263 0
M  V30 4670 N 447.864 1.01787 1.20321 0
M  V30 4671 C 449.275 0.739307 1.71438 0
M  V30 4672 C 449.626 -0.742041 1.81627 0
M  V30 4673 O 448.751 -1.57903 1.47971 0
M  V30 4674 C 449.346 1.33538 3.11373 0
M  V30 4675 C 447.905 1.10566 3.59795 0
M  V30 4676 C 447.052 1.44028 2.36962 0
M  V30 4677 H 450.003 1.18718 1.05317 0
M  V30 4678 H 450.024 0.726611 3.73498 0
M  V30 4679 H 449.536 2.41352 3.03926 0
M  V30 4680 H 447.637 0.0452405 3.72573 0
M  V30 4681 H 447.75 1.78661 4.44542 0
M  V30 4682 H 446.114 0.85933 2.39766 0
M  V30 4683 H 446.897 2.52901 2.32155 0
M  V30 4684 N 449.342 -1.36122 0.79427 0
M  V30 4685 C 450.272 -2.32551 0.210328 0
M  V30 4686 C 451.253 -1.56884 -0.657386 0
M  V30 4687 O 452.438 -1.85014 -0.590207 0
M  V30 4688 C 449.568 -3.41128 -0.651819 0
M  V30 4689 C 448.522 -4.27842 0.116395 0
M  V30 4690 C 447.848 -5.2763 -0.86666 0
M  V30 4691 C 449.148 -5.05647 1.30837 0
M  V30 4692 H 450.842 -2.81636 1.01594 0
M  V30 4693 H 448.388 -1.35407 0.489981 0
M  V30 4694 H 450.341 -4.07581 -1.07031 0
M  V30 4695 H 449.065 -2.90622 -1.49019 0
M  V30 4696 H 447.724 -3.62952 0.515915 0
M  V30 4697 H 447.372 -4.73395 -1.70019 0
M  V30 4698 H 447.072 -5.86514 -0.35705 0
M  V30 4699 H 448.596 -5.96955 -1.28361 0
M  V30 4700 H 450.01 -5.65113 0.965393 0
M  V30 4701 H 448.407 -5.73967 1.75161 0
M  V30 4702 H 449.477 -4.37006 2.10128 0
M  V30 4703 N 450.82 -0.546701 -1.47814 0
M  V30 4704 C 451.768 0.220048 -2.31557 0
M  V30 4705 C 452.762 0.919472 -1.42275 0
M  V30 4706 O 453.968 0.841953 -1.59095 0
M  V30 4707 H 450.343 0.0898334 -0.746615 0
M  V30 4708 H 452.314 -0.505589 -2.94086 0
M  V30 4709 C 451.063 1.24353 -3.24702 0
M  V30 4710 H 450.386 0.714758 -3.93359 0
M  V30 4711 H 451.826 1.75112 -3.8615 0
M  V30 4712 C 450.285 2.28593 -2.47481 0
M  V30 4713 O 450.815 3.35334 -2.21165 0
M  V30 4714 N 449.021 2.02244 -2.08676 0
M  V30 4715 H 448.568 1.15455 -2.30278 0
M  V30 4716 H 448.526 2.72207 -1.57323 0
M  V30 4717 N 452.299 1.55045 -0.282633 0
M  V30 4718 C 453.527 2.04168 0.33512 0
M  V30 4719 C 453.942 1.16071 1.48906 0
M  V30 4720 O 453.299 0.182391 1.81586 0
M  V30 4721 C 453.35 3.52332 0.808957 0
M  V30 4722 O 453.071 4.37078 -0.299038 0
M  V30 4723 C 454.572 4.17375 1.49375 0
M  V30 4724 H 451.792 0.666744 0.0754543 0
M  V30 4725 H 454.336 2.00205 -0.416918 0
M  V30 4726 H 452.491 3.56715 1.51106 0
M  V30 4727 H 452.905 5.24458 0.0665514 0
M  V30 4728 H 454.379 5.22627 1.77664 0
M  V30 4729 H 454.856 3.65999 2.42778 0
M  V30 4730 H 455.462 4.17016 0.835305 0
M  V30 4731 N 453.777 0.010035 1.57597 0
M  V30 4732 C 455.002 -0.687021 1.95691 0
M  V30 4733 C 455.427 -1.65952 0.885519 0
M  V30 4734 O 454.785 -1.80633 -0.15543 0
M  V30 4735 C 454.833 -1.3864 3.32884 0
M  V30 4736 O 453.937 -2.50115 3.27897 0
M  V30 4737 H 453.278 -0.181989 0.638573 0
M  V30 4738 H 455.808 0.0662122 2.04493 0
M  V30 4739 H 455.818 -1.74754 3.6868 0
M  V30 4740 H 454.493 -0.673411 4.10412 0
M  V30 4741 H 453.07 -2.16253 3.03791 0
M  V30 4742 N 455.255 -1.55392 -0.262866 0
M  V30 4743 C 456.666 -1.67079 -0.833158 0
M  V30 4744 C 457.017 -0.604539 -1.86654 0
M  V30 4745 O 456.142 0.252138 -2.14926 0
M  V30 4746 C 456.737 -3.02891 -1.51797 0
M  V30 4747 C 455.296 -3.16571 -2.03617 0
M  V30 4748 C 454.443 -2.62909 -0.881701 0
M  V30 4749 H 457.394 -1.58652 -0.0389986 0
M  V30 4750 H 457.415 -2.96445 -2.38538 0
M  V30 4751 H 456.927 -3.80473 -0.765619 0
M  V30 4752 H 455.028 -2.43782 -2.81782 0
M  V30 4753 H 455.141 -4.23271 -2.24452 0
M  V30 4754 H 453.505 -2.20324 -1.27786 0
M  V30 4755 H 454.288 -3.43003 -0.14269 0
M  V30 4756 N 456.733 0.527833 -1.48498 0
M  V30 4757 C 457.666 1.64892 -1.57753 0
M  V30 4758 C 458.644 1.5687 -0.427867 0
M  V30 4759 O 459.828 1.77311 -0.639764 0
M  V30 4760 C 456.955 3.03301 -1.50752 0
M  V30 4761 C 456.001 3.29675 -2.70586 0
M  V30 4762 S 456.834 3.15712 -4.32535 0
M  V30 4763 C 457.99 4.56564 -4.28136 0
M  V30 4764 H 458.223 1.56792 -2.52594 0
M  V30 4765 H 455.756 0.710959 -1.37057 0
M  V30 4766 H 457.714 3.83123 -1.474 0
M  V30 4767 H 456.375 3.08839 -0.572454 0
M  V30 4768 H 455.568 4.3065 -2.61833 0
M  V30 4769 H 455.17 2.57526 -2.71212 0
M  V30 4770 H 457.462 5.48126 -3.98201 0
M  V30 4771 H 458.405 4.70371 -5.29298 0
M  V30 4772 H 458.813 4.35987 -3.58574 0
M  V30 4773 N 458.211 1.37122 0.776871 0
M  V30 4774 C 459.159 1.32549 1.91138 0
M  V30 4775 C 460.153 0.215119 1.68029 0
M  V30 4776 O 461.359 0.382852 1.75881 0
M  V30 4777 H 457.734 0.412952 0.62847 0
M  V30 4778 H 459.705 2.28332 1.92112 0
M  V30 4779 C 458.454 1.14422 3.28333 0
M  V30 4780 H 457.777 1.99115 3.46689 0
M  V30 4781 H 459.217 1.15272 4.0803 0
M  V30 4782 C 457.676 -0.150434 3.36564 0
M  V30 4783 O 458.206 -1.13584 3.85307 0
M  V30 4784 N 456.412 -0.19939 2.89915 0
M  V30 4785 H 455.959 0.603142 2.5044 0
M  V30 4786 H 455.917 -1.06526 2.95803 0
M  V30 4787 N 459.689 -1.00246 1.21608 0
M  V30 4788 C 461.1 -1.55511 1.03312 0
M  V30 4789 C 461.451 -1.91946 -0.406332 0
M  V30 4790 O 460.576 -1.73753 -1.28992 0
M  V30 4791 C 461.171 -2.82576 1.86913 0
M  V30 4792 C 459.73 -3.34318 1.72941 0
M  V30 4793 C 458.877 -2.07487 1.83968 0
M  V30 4794 H 461.828 -0.824638 1.35593 0
M  V30 4795 H 461.849 -3.54559 1.38087 0
M  V30 4796 H 461.361 -2.56026 2.91672 0
M  V30 4797 H 459.462 -3.65797 0.70877 0
M  V30 4798 H 459.575 -4.05566 2.55055 0
M  V30 4799 H 457.939 -2.20603 1.27304 0
M  V30 4800 H 458.722 -1.83346 2.9024 0
M  V30 4801 N 461.167 -1.02423 -1.1978 0
M  V30 4802 C 462.578 -0.748389 -1.71044 0
M  V30 4803 C 462.929 0.732398 -1.82017 0
M  V30 4804 O 462.054 1.57116 -1.48807 0
M  V30 4805 C 462.649 -1.35187 -3.1066 0
M  V30 4806 C 461.208 -1.12472 -3.59203 0
M  V30 4807 C 460.355 -1.45283 -2.36195 0
M  V30 4808 H 463.306 -1.19275 -1.04686 0
M  V30 4809 H 463.327 -0.746408 -3.73107 0
M  V30 4810 H 462.839 -2.4296 -3.02642 0
M  V30 4811 H 460.94 -0.0649983 -3.72543 0
M  V30 4812 H 461.053 -1.81016 -4.43588 0
M  V30 4813 H 459.417 -0.872034 -2.39307 0
M  V30 4814 H 460.2 -2.54129 -2.30811 0
M  V30 4815 N 462.645 1.35699 -0.801477 0
M  V30 4816 C 463.593 2.3177 -0.196317 0
M  V30 4817 C 464.587 1.56388 0.651081 0
M  V30 4818 O 465.793 1.71557 0.544815 0
M  V30 4819 H 462.168 0.750669 -0.0447189 0
M  V30 4820 H 464.139 2.8036 -1.02181 0
M  V30 4821 C 462.888 3.41671 0.644702 0
M  V30 4822 H 462.211 3.998 0.0019921 0
M  V30 4823 H 463.651 4.11184 1.0346 0
M  V30 4824 C 462.11 2.84271 1.80808 0
M  V30 4825 O 462.64 2.77408 2.9053 0
M  V30 4826 N 460.846 2.41391 1.61799 0
M  V30 4827 H 460.393 2.47173 0.725493 0
M  V30 4828 H 460.351 2.03334 2.39797 0
M  V30 4829 N 464.123 0.554532 1.47522 0
M  V30 4830 C 465.055 -0.232106 2.28022 0
M  V30 4831 C 466.068 -0.881865 1.36847 0
M  V30 4832 O 467.257 -0.756168 1.61692 0
M  V30 4833 C 464.357 -1.34604 3.11022 0
M  V30 4834 C 463.53 -0.793582 4.30141 0
M  V30 4835 C 462.589 -1.79168 4.94758 0
M  V30 4836 O 461.615 -1.33886 5.5323 0
M  V30 4837 N 462.817 -3.12495 4.89211 0
M  V30 4838 H 465.582 0.458407 2.96173 0
M  V30 4839 H 463.143 0.390433 1.57122 0
M  V30 4840 H 465.135 -2.01243 3.51118 0
M  V30 4841 H 463.705 -1.93983 2.45131 0
M  V30 4842 H 462.925 0.0495025 3.94169 0
M  V30 4843 H 464.213 -0.403776 5.07195 0
M  V30 4844 H 463.611 -3.51931 4.42901 0
M  V30 4845 H 462.168 -3.74698 5.33333 0
M  V30 4846 N 465.601 -1.54893 0.290851 0
M  V30 4847 C 466.849 -1.99538 -0.320756 0
M  V30 4848 C 467.17 -1.18075 -1.55188 0
M  V30 4849 O 466.44 -0.274162 -1.93972 0
M  V30 4850 H 465.02 -0.737052 -0.121507 0
M  V30 4851 H 467.682 -1.90755 0.399832 0
M  V30 4852 H 466.778 -3.06282 -0.599802 0
M  V30 4853 N 467.08 -0.0183926 -1.57589 0
M  V30 4854 C 468.012 0.995557 -2.06449 0
M  V30 4855 C 469.025 1.29556 -0.985849 0
M  V30 4856 O 470.214 1.2621 -1.26227 0
M  V30 4857 C 467.314 2.32572 -2.46502 0
M  V30 4858 C 466.487 2.21245 -3.77319 0
M  V30 4859 C 465.546 3.37104 -4.04039 0
M  V30 4860 O 464.572 3.14468 -4.74445 0
M  V30 4861 N 465.774 4.60553 -3.53372 0
M  V30 4862 H 468.539 0.578746 -2.94059 0
M  V30 4863 H 466.1 0.168603 -1.6102 0
M  V30 4864 H 468.092 3.08887 -2.61478 0
M  V30 4865 H 466.662 2.65931 -1.64315 0
M  V30 4866 H 465.882 1.29723 -3.72244 0
M  V30 4867 H 467.17 2.10868 -4.63047 0
M  V30 4868 H 466.568 4.81839 -2.96391 0
M  V30 4869 H 465.125 5.34072 -3.73644 0
M  V30 4870 N 468.558 1.5553 0.254621 0
M  V30 4871 C 469.974 1.4778 0.602753 0
M  V30 4872 C 470.174 0.707047 1.88688 0
M  V30 4873 O 469.23 0.233288 2.5142 0
M  V30 4874 C 470.543 2.92133 0.712648 0
M  V30 4875 C 472.091 3.02458 0.805488 0
M  V30 4876 C 472.566 4.48102 0.947009 0
M  V30 4877 N 474.057 4.52008 1.01207 0
M  V30 4878 C 474.792 5.61939 1.1407 0
M  V30 4879 N 474.288 6.81697 1.23536 0
M  V30 4880 N 476.081 5.49719 1.17325 0
M  V30 4881 H 468.232 2.04085 -0.588463 0
M  V30 4882 H 470.495 0.926229 -0.202001 0
M  V30 4883 H 470.201 3.51332 -0.160766 0
M  V30 4884 H 470.075 3.42187 1.58707 0
M  V30 4885 H 472.462 2.43344 1.66936 0
M  V30 4886 H 472.543 2.55627 -0.0939266 0
M  V30 4887 H 472.187 5.07824 0.087725 0
M  V30 4888 H 472.117 4.92607 1.86135 0
M  V30 4889 H 474.608 3.65749 0.950577 0
M  V30 4890 H 474.921 7.61228 1.33236 0
M  V30 4891 H 473.266 6.84473 1.20508 0
M  V30 4892 H 476.457 4.55095 1.09573 0
M  V30 4893 H 476.63 6.35432 1.27005 0
M  V30 4894 N 470.036 -0.519951 1.48776 0
M  V30 4895 C 471.284 -1.2727 1.56993 0
M  V30 4896 C 471.605 -1.9339 0.25004 0
M  V30 4897 O 470.875 -1.81822 -0.729216 0
M  V30 4898 H 469.455 -0.472732 0.578389 0
M  V30 4899 H 472.117 -0.604234 1.85297 0
M  V30 4900 H 471.213 -2.04669 2.3562 0
M  V30 4901 N 471.514 -1.37532 -0.769588 0
M  V30 4902 C 472.763 -1.32183 -1.5235 0
M  V30 4903 C 473.076 0.0906555 -1.9539 0
M  V30 4904 O 474.282 0.266628 -2.70188 0
M  V30 4905 C 472.738 -2.32029 -2.75119 0
M  V30 4906 C 472.346 -3.78816 -2.3917 0
M  V30 4907 C 474.09 -2.35694 -3.53056 0
M  V30 4908 C 471.997 -4.70388 -3.58453 0
M  V30 4909 H 470.927 -0.491275 -0.571984 0
M  V30 4910 H 473.578 -1.63004 -0.842739 0
M  V30 4911 H 471.96 -1.94229 -3.45096 0
M  V30 4912 H 473.134 -4.25466 -1.76962 0
M  V30 4913 H 471.449 -3.78117 -1.74402 0
M  V30 4914 H 474.046 -3.01312 -4.41718 0
M  V30 4915 H 474.389 -1.37117 -3.93071 0
M  V30 4916 H 474.922 -2.72212 -2.90078 0
M  V30 4917 H 471.661 -5.70102 -3.23518 0
M  V30 4918 H 471.181 -4.28442 -4.19758 0
M  V30 4919 H 472.86 -4.87628 -4.25239 0
M  V30 4920 N 472.992 0.995999 -1.22138 0
M  V30 4921 C 474.217 1.77601 -1.0711 0
M  V30 4922 C 474.642 1.84339 0.374264 0
M  V30 4923 O 474 1.29359 1.27028 0
M  V30 4924 C 474.048 3.18897 -1.68336 0
M  V30 4925 O 473.152 4.01663 -0.934928 0
M  V30 4926 H 472.493 0.547011 -0.376397 0
M  V30 4927 H 475.023 1.25137 -1.6187 0
M  V30 4928 H 475.033 3.69539 -1.72931 0
M  V30 4929 H 473.708 3.13308 -2.73516 0
M  V30 4930 H 472.285 3.60204 -0.964751 0
M  V30 4931 N 474.47 1.03057 1.19235 0
M  V30 4932 C 475.695 0.74757 1.93458 0
M  V30 4933 C 476.12 -0.687648 1.7508 0
M  V30 4934 O 475.478 -1.47499 1.05422 0
M  V30 4935 C 475.526 1.10604 3.43219 0
M  V30 4936 O 474.63 0.225671 4.11782 0
M  V30 4937 H 473.971 0.276047 0.603899 0
M  V30 4938 H 476.501 1.3777 1.51263 0
M  V30 4939 H 476.511 1.06366 3.93891 0
M  V30 4940 H 475.186 2.15165 3.55917 0
M  V30 4941 H 473.763 0.326795 3.71465 0
M  V30 4942 N 475.948 -1.35272 0.808662 0
M  V30 4943 C 477.194 -1.99003 0.390581 0
M  V30 4944 C 477.527 -1.63999 -1.0401 0
M  V30 4945 O 476.802 -0.904368 -1.72196 0
M  V30 4946 C 477.085 -3.55454 0.576566 0
M  V30 4947 C 476.938 -4.00249 2.05233 0
M  V30 4948 C 478.257 -4.401 0.00354277 0
M  V30 4949 H 475.376 -0.722917 0.143388 0
M  V30 4950 H 478.018 -1.6039 1.01858 0
M  V30 4951 H 476.168 -3.88477 0.0419766 0
M  V30 4952 H 477.84 -3.77626 2.64946 0
M  V30 4953 H 476.083 -3.51082 2.54801 0
M  V30 4954 H 476.754 -5.0911 2.13333 0
M  V30 4955 H 479.23 -4.13548 0.460117 0
M  V30 4956 H 478.106 -5.48656 0.163575 0
M  V30 4957 H 478.367 -4.28444 -1.09032 0
M  V30 4958 N 477.426 -0.562348 -1.47226 0
M  V30 4959 C 478.837 -0.130325 -1.86245 0
M  V30 4960 C 479.188 1.30128 -1.46838 0
M  V30 4961 O 478.313 1.97974 -0.873805 0
M  V30 4962 C 478.908 -0.229738 -3.3802 0
M  V30 4963 C 477.467 0.14728 -3.76112 0
M  V30 4964 C 476.614 -0.574971 -2.71274 0
M  V30 4965 H 479.565 -0.771773 -1.3867 0
M  V30 4966 H 479.586 0.550316 -3.76499 0
M  V30 4967 H 479.098 -1.27178 -3.66671 0
M  V30 4968 H 477.199 1.19023 -3.53078 0
M  V30 4969 H 477.312 -0.214858 -4.78618 0
M  V30 4970 H 475.676 -0.0174756 -2.54694 0
M  V30 4971 H 476.459 -1.61827 -3.02766 0
M  V30 4972 N 478.904 1.54736 -0.299062 0
M  V30 4973 C 480.15 2.00397 0.311244 0
M  V30 4974 C 480.483 1.18716 1.53688 0
M  V30 4975 O 479.758 0.263154 1.92712 0
M  V30 4976 C 480.041 3.53817 0.669761 0
M  V30 4977 C 479.894 4.46239 -0.564882 0
M  V30 4978 C 481.213 4.13856 1.49702 0
M  V30 4979 H 478.332 0.728493 0.111653 0
M  V30 4980 H 480.974 1.85506 -0.410774 0
M  V30 4981 H 479.124 3.66637 1.28491 0
M  V30 4982 H 480.796 4.45328 -1.20337 0
M  V30 4983 H 479.039 4.16916 -1.19849 0
M  V30 4984 H 479.71 5.5134 -0.269918 0
M  V30 4985 H 482.186 4.04461 0.977284 0
M  V30 4986 H 481.062 5.21365 1.71666 0
M  V30 4987 H 481.323 3.65608 2.48563 0
M  V30 4988 N 480.382 0.0267497 1.57577 0
M  V30 4989 C 481.63 -0.651116 1.91324 0
M  V30 4990 C 481.951 -1.72804 0.90353 0
M  V30 4991 O 481.221 -1.95822 -0.0552946 0
M  V30 4992 H 479.801 -0.243491 0.706202 0
M  V30 4993 H 482.463 0.0739935 1.94759 0
M  V30 4994 H 481.559 -1.10536 2.9187 0
M  V30 4995 N 481.861 -1.55662 -0.24637 0
M  V30 4996 C 483.277 -1.48098 -0.594907 0
M  V30 4997 C 483.477 -0.717044 -1.8831 0
M  V30 4998 O 482.533 -0.246618 -2.51293 0
M  V30 4999 C 483.846 -2.92507 -0.697146 0
M  V30 5000 C 485.394 -3.02881 -0.789436 0
M  V30 5001 C 485.869 -4.48598 -0.923232 0
M  V30 5002 N 487.36 -4.52538 -0.988088 0
M  V30 5003 C 488.095 -5.62536 -1.11089 0
M  V30 5004 N 487.591 -6.82342 -1.19919 0
M  V30 5005 N 489.384 -5.50334 -1.14408 0
M  V30 5006 H 481.535 -2.0377 0.599278 0
M  V30 5007 H 483.798 -0.925145 0.20691 0
M  V30 5008 H 483.504 -3.51242 0.179396 0
M  V30 5009 H 483.378 -3.43024 -1.5689 0
M  V30 5010 H 485.765 -2.44226 -1.65643 0
M  V30 5011 H 485.846 -2.55574 0.107482 0
M  V30 5012 H 485.49 -5.07864 -0.0607927 0
M  V30 5013 H 485.42 -4.93587 -1.8352 0
M  V30 5014 H 487.911 -3.66248 -0.931167 0
M  V30 5015 H 488.224 -7.61924 -1.29197 0
M  V30 5016 H 486.569 -6.85102 -1.16876 0
M  V30 5017 H 489.76 -4.5567 -1.07158 0
M  V30 5018 H 489.933 -6.36096 -1.23634 0
M  V30 5019 N 483.339 0.512053 -1.4905 0
M  V30 5020 C 484.271 1.63121 -1.6101 0
M  V30 5021 C 485.284 1.55145 -0.493352 0
M  V30 5022 O 486.473 1.61278 -0.764955 0
M  V30 5023 C 483.573 3.01863 -1.54052 0
M  V30 5024 C 482.746 3.35138 -2.81072 0
M  V30 5025 C 481.805 4.5324 -2.67319 0
M  V30 5026 O 480.831 4.55571 -3.41238 0
M  V30 5027 N 482.033 5.52495 -1.78127 0
M  V30 5028 H 484.798 1.53292 -2.5753 0
M  V30 5029 H 482.359 0.699706 -1.45999 0
M  V30 5030 H 484.351 3.78774 -1.42521 0
M  V30 5031 H 482.921 3.05675 -0.654345 0
M  V30 5032 H 482.141 2.4723 -3.07036 0
M  V30 5033 H 483.429 3.54162 -3.65304 0
M  V30 5034 H 482.827 5.53403 -1.17308 0
M  V30 5035 H 481.384 6.28553 -1.72525 0
M  V30 5036 N 484.817 1.37938 0.762283 0
M  V30 5037 C 486.228 1.30094 1.33912 0
M  V30 5038 C 486.579 -0.0472026 1.96143 0
M  V30 5039 O 485.704 -0.94917 1.94473 0
M  V30 5040 C 486.299 2.35592 2.43478 0
M  V30 5041 C 484.858 2.31353 2.96905 0
M  V30 5042 C 484.005 2.18919 1.70205 0
M  V30 5043 H 486.956 1.48423 0.561816 0
M  V30 5044 H 486.977 2.00806 3.23199 0
M  V30 5045 H 486.489 3.33701 1.98155 0
M  V30 5046 H 484.59 1.36799 3.46579 0
M  V30 5047 H 484.703 3.25147 3.51875 0
M  V30 5048 H 483.067 1.65624 1.93496 0
M  V30 5049 H 483.85 3.18956 1.26973 0
M  V30 5050 N 486.295 -0.989507 1.22664 0
M  V30 5051 C 487.544 -1.72375 1.04737 0
M  V30 5052 C 487.857 -1.91096 -0.417316 0
M  V30 5053 O 489.063 -2.6188 -0.716334 0
M  V30 5054 C 487.519 -3.10161 1.82561 0
M  V30 5055 C 487.127 -2.99358 3.333 0
M  V30 5056 C 488.871 -3.87607 1.73093 0
M  V30 5057 C 486.778 -4.32319 4.03552 0
M  V30 5058 H 485.708 -0.646326 0.388302 0
M  V30 5059 H 488.359 -1.10437 1.46546 0
M  V30 5060 H 486.741 -3.728 1.33552 0
M  V30 5061 H 487.915 -2.45863 3.89728 0
M  V30 5062 H 486.23 -2.35392 3.43481 0
M  V30 5063 H 488.827 -4.86025 2.22899 0
M  V30 5064 H 489.17 -4.10509 0.691976 0
M  V30 5065 H 489.703 -3.31652 2.19663 0
M  V30 5066 H 486.442 -4.14616 5.07714 0
M  V30 5067 H 485.962 -4.85714 3.51911 0
M  V30 5068 H 487.641 -5.01051 4.09337 0
M  V30 5069 N 487.773 -1.03688 -1.18687 0
M  V30 5070 C 489.022 -0.733235 -1.879 0
M  V30 5071 C 489.335 0.741745 -1.8099 0
M  V30 5072 O 490.541 1.15875 -2.4553 0
M  V30 5073 C 488.997 -1.26127 -3.37076 0
M  V30 5074 C 488.605 -2.76461 -3.52524 0
M  V30 5075 C 490.349 -1.03398 -4.11715 0
M  V30 5076 C 488.256 -3.22642 -4.95637 0
M  V30 5077 H 487.186 -0.270584 -0.703776 0
M  V30 5078 H 489.837 -1.25222 -1.34133 0
M  V30 5079 H 488.219 -0.670165 -3.90288 0
M  V30 5080 H 489.393 -3.41296 -3.09602 0
M  V30 5081 H 487.708 -2.97559 -2.91286 0
M  V30 5082 H 490.305 -1.3542 -5.17267 0
M  V30 5083 H 490.648 0.0289246 -4.1629 0
M  V30 5084 H 491.181 -1.5895 -3.64664 0
M  V30 5085 H 487.92 -4.28296 -4.96228 0
M  V30 5086 H 487.44 -2.62539 -5.39289 0
M  V30 5087 H 489.119 -3.16444 -5.64333 0
M  V30 5088 N 489.251 1.34841 -0.815825 0
M  V30 5089 C 490.184 2.27504 -0.178062 0
M  V30 5090 C 491.162 1.48542 0.661373 0
M  V30 5091 O 492.346 1.77779 0.626653 0
M  V30 5092 C 489.473 3.30246 0.752002 0
M  V30 5093 C 488.519 4.26499 -0.00899172 0
M  V30 5094 S 489.352 5.18169 -1.35134 0
M  V30 5095 C 490.508 6.24449 -0.42596 0
M  V30 5096 H 490.741 2.81248 -0.963684 0
M  V30 5097 H 488.274 1.41781 -0.611355 0
M  V30 5098 H 490.232 3.89933 1.28308 0
M  V30 5099 H 488.893 2.75363 1.51109 0
M  V30 5100 H 488.086 4.99146 0.697766 0
M  V30 5101 H 487.688 3.7103 -0.470396 0
M  V30 5102 H 489.98 6.76404 0.385234 0
M  V30 5103 H 490.923 6.99156 -1.1219 0
M  V30 5104 H 491.331 5.64497 -0.0175461 0
M  V30 5105 N 490.729 0.570148 1.46925 0
M  V30 5106 C 491.661 -0.207909 2.28255 0
M  V30 5107 C 492.674 -0.867301 1.37774 0
M  V30 5108 O 493.863 -0.738976 1.62485 0
M  V30 5109 C 490.963 -1.31298 3.12433 0
M  V30 5110 C 490.136 -0.747915 4.30958 0
M  V30 5111 C 489.195 -1.7391 4.9663 0
M  V30 5112 O 488.221 -1.2801 5.54619 0
M  V30 5113 N 489.423 -3.07288 4.92498 0
M  V30 5114 H 492.188 0.489794 2.95671 0
M  V30 5115 H 489.749 0.407076 1.56699 0
M  V30 5116 H 491.741 -1.97507 3.53232 0
M  V30 5117 H 490.311 -1.91373 2.47175 0
M  V30 5118 H 489.531 0.0913066 3.94094 0
M  V30 5119 H 490.819 -0.349958 5.07595 0
M  V30 5120 H 490.217 -3.47213 4.46609 0
M  V30 5121 H 488.774 -3.69021 5.37277 0
M  V30 5122 N 492.207 -1.54576 0.307264 0
M  V30 5123 C 493.432 -2.05139 -0.305379 0
M  V30 5124 C 493.857 -1.18278 -1.46259 0
M  V30 5125 O 493.215 -0.188243 -1.8032 0
M  V30 5126 C 493.263 -3.53066 -0.733283 0
M  V30 5127 O 492.367 -3.69206 -1.83741 0
M  V30 5128 H 491.708 -0.661444 -0.0582105 0
M  V30 5129 H 494.238 -1.99569 0.450931 0
M  V30 5130 H 494.248 -3.95034 -1.02039 0
M  V30 5131 H 492.923 -4.15746 0.113198 0
M  V30 5132 H 491.5 -3.39143 -1.55037 0
M  V30 5133 N 493.685 -0.035106 -1.57561 0
M  V30 5134 C 494.91 0.655802 -1.96759 0
M  V30 5135 C 495.335 1.64523 -0.911809 0
M  V30 5136 O 494.693 1.80857 0.126673 0
M  V30 5137 C 494.741 1.33326 -3.35047 0
M  V30 5138 O 493.845 2.44866 -3.31835 0
M  V30 5139 H 493.186 0.171807 -0.641388 0
M  V30 5140 H 495.716 -0.0987369 -2.04362 0
M  V30 5141 H 495.726 1.68867 -3.71413 0
M  V30 5142 H 494.401 0.608033 -4.11431 0
M  V30 5143 H 492.978 2.11392 -3.07193 0
M  V30 5144 N 495.163 1.55791 0.238111 0
M  V30 5145 C 496.388 1.8244 0.986432 0
M  V30 5146 C 496.813 0.613314 1.7782 0
M  V30 5147 O 496.171 -0.437767 1.75935 0
M  V30 5148 C 496.219 3.06917 1.893 0
M  V30 5149 O 495.323 2.84449 2.98601 0
M  V30 5150 H 494.664 0.601975 0.280218 0
M  V30 5151 H 497.194 2.02987 0.256437 0
M  V30 5152 H 497.204 3.36583 2.30598 0
M  V30 5153 H 495.879 3.947 1.31091 0
M  V30 5154 H 494.456 2.65972 2.61368 0
M  V30 5155 N 496.642 -0.504142 1.49319 0
M  V30 5156 C 497.589 -1.60603 1.65756 0
M  V30 5157 C 498.559 -1.58425 0.499082 0
M  V30 5158 O 499.744 -1.76459 0.725728 0
M  V30 5159 C 496.884 -2.98764 1.72726 0
M  V30 5160 C 495.997 -3.10982 2.99857 0
M  V30 5161 C 495.132 -4.39857 2.97824 0
M  V30 5162 C 494.171 -4.45697 4.19548 0
M  V30 5163 N 493.308 -5.65995 4.15444 0
M  V30 5164 H 498.148 -1.45895 2.59843 0
M  V30 5165 H 495.685 -0.709891 1.28837 0
M  V30 5166 H 497.643 -3.78839 1.74747 0
M  V30 5167 H 496.273 -3.12183 0.821075 0
M  V30 5168 H 495.325 -2.23991 3.07461 0
M  V30 5169 H 496.637 -3.11157 3.89849 0
M  V30 5170 H 495.791 -5.2825 2.98391 0
M  V30 5171 H 494.53 -4.42242 2.05604 0
M  V30 5172 H 493.535 -3.55707 4.19229 0
M  V30 5173 H 494.76 -4.4503 5.12957 0
M  V30 5174 H 492.706 -5.69229 3.26059 0
M  V30 5175 H 492.623 -5.67773 4.99169 0
M  V30 5176 H 493.891 -6.56604 4.20109 0
M  V30 5177 N 498.12 -1.38341 -0.754957 0
M  V30 5178 C 499.367 -1.34473 -1.51404 0
M  V30 5179 C 499.695 0.0656458 -1.94389 0
M  V30 5180 O 498.95 1.04244 -1.65625 0
M  V30 5181 C 499.249 -2.2452 -2.78075 0
M  V30 5182 C 498.915 -3.72512 -2.54059 0
M  V30 5183 C 497.577 -4.1284 -2.47218 0
M  V30 5184 C 499.929 -4.66197 -2.33044 0
M  V30 5185 C 497.257 -5.44945 -2.17376 0
M  V30 5186 C 499.609 -5.98558 -2.04723 0
M  V30 5187 C 498.273 -6.37972 -1.96337 0
M  V30 5188 H 497.543 -0.492072 -0.554027 0
M  V30 5189 H 500.19 -1.70687 -0.868223 0
M  V30 5190 H 498.495 -1.81357 -3.473 0
M  V30 5191 H 500.192 -2.18832 -3.36026 0
M  V30 5192 H 496.782 -3.40538 -2.60253 0
M  V30 5193 H 500.966 -4.35888 -2.37309 0
M  V30 5194 H 496.222 -5.74426 -2.09391 0
M  V30 5195 H 500.396 -6.70693 -1.87465 0
M  V30 5196 H 498.023 -7.40258 -1.72978 0
M  V30 5197 N 499.598 0.982988 -1.23187 0
M  V30 5198 C 500.546 2.09616 -1.00817 0
M  V30 5199 C 501.54 1.6932 0.0519995 0
M  V30 5200 O 502.746 1.79715 -0.101284 0
M  V30 5201 H 499.121 0.685628 -0.308899 0
M  V30 5202 H 501.092 2.25652 -1.95253 0
M  V30 5203 C 499.841 3.42249 -0.613243 0
M  V30 5204 H 499.164 3.73705 -1.42073 0
M  V30 5205 H 500.604 4.21086 -0.496208 0
M  V30 5206 C 499.063 3.30002 0.678233 0
M  V30 5207 O 499.593 3.6263 1.72807 0
M  V30 5208 N 497.799 2.83164 0.653165 0
M  V30 5209 H 497.346 2.56811 -0.201492 0
M  V30 5210 H 497.304 2.75352 1.51752 0
M  V30 5211 N 501.076 1.04316 1.18135 0
M  V30 5212 C 502.323 0.74802 1.88178 0
M  V30 5213 C 502.651 -0.72441 1.80506 0
M  V30 5214 O 501.906 -1.54463 1.20165 0
M  V30 5215 C 502.205 1.16271 3.37958 0
M  V30 5216 C 501.871 2.63585 3.65833 0
M  V30 5217 C 500.533 3.03829 3.73151 0
M  V30 5218 C 502.885 3.58822 3.78016 0
M  V30 5219 C 500.213 4.38194 3.90132 0
M  V30 5220 C 502.565 4.92909 3.96514 0
M  V30 5221 C 501.229 5.3282 4.02068 0
M  V30 5222 H 500.499 0.27372 0.688592 0
M  V30 5223 H 503.146 1.30863 1.39811 0
M  V30 5224 H 501.451 0.520938 3.88321 0
M  V30 5225 H 503.148 0.911672 3.90499 0
M  V30 5226 H 499.738 2.31414 3.60757 0
M  V30 5227 H 503.922 3.28875 3.71692 0
M  V30 5228 H 499.178 4.68631 3.92677 0
M  V30 5229 H 503.352 5.66606 4.04883 0
M  V30 5230 H 500.979 6.36943 4.14979 0
M  V30 5231 N 502.554 -1.34406 0.822964 0
M  V30 5232 C 503.965 -1.8069 0.469879 0
M  V30 5233 C 504.316 -1.68223 -1.00972 0
M  V30 5234 O 503.441 -1.22226 -1.78577 0
M  V30 5235 C 504.036 -3.28064 0.846118 0
M  V30 5236 C 502.595 -3.72428 0.545402 0
M  V30 5237 C 501.742 -2.56116 1.06301 0
M  V30 5238 H 504.693 -1.22153 1.01313 0
M  V30 5239 H 504.714 -3.80205 0.149922 0
M  V30 5240 H 504.226 -3.37107 1.92304 0
M  V30 5241 H 502.327 -3.68924 -0.522109 0
M  V30 5242 H 502.44 -4.66548 1.0895 0
M  V30 5243 H 500.804 -2.50048 0.484554 0
M  V30 5244 H 501.587 -2.67928 2.14638 0
M  V30 5245 N 504.032 -0.577932 -1.46621 0
M  V30 5246 C 505.257 -0.0652536 -2.07297 0
M  V30 5247 C 505.682 1.22828 -1.4246 0
M  V30 5248 O 505.04 1.74075 -0.506718 0
M  V30 5249 C 505.088 0.0920589 -3.60482 0
M  V30 5250 O 504.192 1.14972 -3.96049 0
M  V30 5251 H 503.533 -0.06065 -0.661224 0
M  V30 5252 H 506.063 -0.799515 -1.88332 0
M  V30 5253 H 506.073 0.299741 -4.06897 0
M  V30 5254 H 504.748 -0.852612 -4.07067 0
M  V30 5255 H 503.325 0.920879 -3.61351 0
M  V30 5256 N 505.51 1.54411 -0.315457 0
M  V30 5257 C 506.758 2.00023 0.288971 0
M  V30 5258 C 507.079 1.20529 1.5329 0
M  V30 5259 O 506.349 0.304986 1.93511 0
M  V30 5260 H 504.929 0.738891 0.109766 0
M  V30 5261 H 507.591 1.90094 -0.430129 0
M  V30 5262 H 506.687 3.07198 0.550999 0
M  V30 5263 N 506.988 0.0434614 1.5754 0
M  V30 5264 C 508.404 -0.313039 1.565 0
M  V30 5265 C 508.604 -1.71954 1.05043 0
M  V30 5266 O 507.66 -2.425 0.703564 0
M  V30 5267 C 508.973 -0.148544 3.00333 0
M  V30 5268 C 510.521 -0.220231 3.12224 0
M  V30 5269 C 510.996 -0.0843565 4.57922 0
M  V30 5270 N 512.487 -0.140881 4.62986 0
M  V30 5271 C 513.222 -0.0597443 5.73369 0
M  V30 5272 N 512.718 0.0733004 6.92761 0
M  V30 5273 N 514.511 -0.11477 5.61983 0
M  V30 5274 H 506.662 0.96303 1.89313 0
M  V30 5275 H 508.925 0.373164 0.871466 0
M  V30 5276 H 508.631 0.820894 3.41986 0
M  V30 5277 H 508.505 -0.912798 3.65989 0
M  V30 5278 H 510.892 -1.18014 2.70475 0
M  V30 5279 H 510.973 0.574646 2.49262 0
M  V30 5280 H 510.617 0.872192 5.00355 0
M  V30 5281 H 510.547 -0.898281 5.18882 0
M  V30 5282 H 513.038 -0.243273 3.77116 0
M  V30 5283 H 513.351 0.128128 7.72694 0
M  V30 5284 H 511.696 0.10828 6.94916 0
M  V30 5285 H 514.887 -0.217212 4.67596 0
M  V30 5286 H 515.06 -0.0480779 6.47982 0
M  V30 5287 N 508.466 -1.55915 -0.229846 0
M  V30 5288 C 509.877 -1.68809 -0.797531 0
M  V30 5289 C 510.228 -0.643995 -1.8533 0
M  V30 5290 O 509.353 0.206492 -2.15413 0
M  V30 5291 C 509.948 -3.06043 -1.45338 0
M  V30 5292 C 508.507 -3.20819 -1.96856 0
M  V30 5293 C 507.654 -2.6472 -0.825736 0
M  V30 5294 H 510.605 -1.58699 -0.00533733 0
M  V30 5295 H 510.626 -3.01438 -2.32196 0
M  V30 5296 H 510.138 -3.82012 -0.684743 0
M  V30 5297 H 508.239 -2.49704 -2.76548 0
M  V30 5298 H 508.352 -4.27937 -2.15423 0
M  V30 5299 H 506.716 -2.22985 -1.23084 0
M  V30 5300 H 507.499 -3.43229 -0.0699019 0
M  V30 5301 N 509.944 0.496216 -1.49584 0
M  V30 5302 C 511.192 1.24756 -1.58998 0
M  V30 5303 C 511.513 1.92968 -0.280775 0
M  V30 5304 O 510.783 1.82959 0.700198 0
M  V30 5305 H 509.363 0.463471 -0.585836 0
M  V30 5306 H 512.025 0.574678 -1.86235 0
M  V30 5307 H 511.121 2.00895 -2.38847 0
M  V30 5308 N 511.423 1.38739 0.74761 0
M  V30 5309 C 512.356 1.3083 1.86972 0
M  V30 5310 C 513.334 0.184229 1.61553 0
M  V30 5311 O 514.518 0.36256 1.8498 0
M  V30 5312 C 511.645 1.02854 3.22705 0
M  V30 5313 C 510.691 2.17281 3.67003 0
M  V30 5314 S 511.524 3.79468 3.77842 0
M  V30 5315 C 512.68 3.53692 5.16385 0
M  V30 5316 H 512.913 2.258 1.93395 0
M  V30 5317 H 510.446 1.24646 0.911199 0
M  V30 5318 H 512.404 0.87397 4.01089 0
M  V30 5319 H 511.065 0.0959295 3.13953 0
M  V30 5320 H 510.258 1.93267 4.65472 0
M  V30 5321 H 509.86 2.28876 2.9579 0
M  V30 5322 H 512.152 3.10176 6.02327 0
M  V30 5323 H 513.095 4.51576 5.45422 0
M  V30 5324 H 513.503 2.8807 4.85464 0
M  V30 5325 N 512.901 -0.976442 1.23707 0
M  V30 5326 C 513.833 -2.07212 0.979574 0
M  V30 5327 C 514.846 -1.6273 -0.0478528 0
M  V30 5328 O 516.035 -1.77506 0.18815 0
M  V30 5329 C 513.135 -3.35835 0.45479 0
M  V30 5330 C 512.308 -4.09268 1.54331 0
M  V30 5331 C 511.367 -5.16166 1.02271 0
M  V30 5332 O 510.393 -5.42827 1.71254 0
M  V30 5333 N 511.595 -5.80313 -0.147419 0
M  V30 5334 H 514.36 -2.29878 1.92292 0
M  V30 5335 H 511.921 -1.14343 1.14618 0
M  V30 5336 H 513.913 -4.04597 0.0914631 0
M  V30 5337 H 512.483 -3.10106 -0.394068 0
M  V30 5338 H 511.703 -3.34906 2.07923 0
M  V30 5339 H 512.991 -4.55095 2.27522 0
M  V30 5340 H 512.389 -5.61043 -0.724353 0
M  V30 5341 H 510.946 -6.50231 -0.451972 0
M  V30 5342 N 514.379 -1.04941 -1.1758 0
M  V30 5343 C 515.327 -0.64204 -2.23563 0
M  V30 5344 C 516.321 0.335453 -1.66045 0
M  V30 5345 O 517.527 0.20179 -1.78865 0
M  V30 5346 H 513.902 -0.18944 -0.727748 0
M  V30 5347 H 515.873 -1.54609 -2.55223 0
M  V30 5348 C 514.622 -0.0301051 -3.47687 0
M  V30 5349 H 513.945 -0.773339 -3.92249 0
M  V30 5350 H 515.385 0.217592 -4.23441 0
M  V30 5351 C 513.844 1.2225 -3.13937 0
M  V30 5352 O 514.374 2.3122 -3.28482 0
M  V30 5353 N 512.58 1.11917 -2.68185 0
M  V30 5354 H 512.127 0.232403 -2.5655 0
M  V30 5355 H 512.085 1.95814 -2.45976 0
M  V30 5356 N 515.857 1.33968 -0.830081 0
M  V30 5357 C 517.105 1.97672 -0.420734 0
M  V30 5358 C 517.426 1.66111 1.02138 0
M  V30 5359 O 516.696 0.955503 1.71017 0
M  V30 5360 H 515.276 0.73125 -0.152587 0
M  V30 5361 H 517.938 1.63483 -1.0611 0
M  V30 5362 H 517.034 3.07294 -0.545588 0
M  V30 5363 N 517.335 0.585699 1.46312 0
M  V30 5364 C 518.563 0.0781299 2.06752 0
M  V30 5365 C 518.978 -1.22812 1.43396 0
M  V30 5366 O 518.335 -1.74318 0.540314 0
M  V30 5367 C 518.386 -0.0911927 3.61385 0
M  V30 5368 O 518.107 1.16336 4.22371 0
M  V30 5369 C 519.608 -0.632765 4.38761 0
M  V30 5370 H 516.828 0.0588188 0.668417 0
M  V30 5371 H 519.372 0.807218 1.87894 0
M  V30 5372 H 517.527 -0.770514 3.7966 0
M  V30 5373 H 517.941 0.979082 5.15281 0
M  V30 5374 H 519.415 -0.70041 5.47538 0
M  V30 5375 H 519.892 -1.65039 4.07012 0
M  V30 5376 H 520.498 0.0117856 4.25298 0
M  V30 5377 N 518.813 -1.54241 0.323641 0
M  V30 5378 C 520.061 -2.00174 -0.278359 0
M  V30 5379 C 520.382 -1.2134 -1.52648 0
M  V30 5380 O 519.652 -0.315244 -1.93347 0
M  V30 5381 H 518.232 -0.739463 -0.105845 0
M  V30 5382 H 520.894 -1.89864 0.440204 0
M  V30 5383 H 519.99 -3.07486 -0.5347 0
M  V30 5384 N 520.291 -0.0518155 -1.57515 0
M  V30 5385 C 521.223 0.951542 -2.08515 0
M  V30 5386 C 522.236 1.27436 -1.01311 0
M  V30 5387 O 523.425 1.23504 -1.28876 0
M  V30 5388 C 520.525 2.27291 -2.5138 0
M  V30 5389 C 519.698 2.13191 -3.81927 0
M  V30 5390 C 518.757 3.28458 -4.11098 0
M  V30 5391 O 517.783 3.04334 -4.81009 0
M  V30 5392 N 518.985 4.52954 -3.63061 0
M  V30 5393 H 521.75 0.516242 -2.9522 0
M  V30 5394 H 519.311 0.13441 -1.61341 0
M  V30 5395 H 521.303 3.03272 -2.67971 0
M  V30 5396 H 519.873 2.62386 -1.69919 0
M  V30 5397 H 519.093 1.21798 -3.74912 0
M  V30 5398 H 520.381 2.00999 -4.67415 0
M  V30 5399 H 519.779 4.75444 -3.06545 0
M  V30 5400 H 518.336 5.26026 -3.84889 0
M  V30 5401 N 521.769 1.56035 0.221574 0
M  V30 5402 C 522.997 1.8313 0.962864 0
M  V30 5403 C 523.412 0.630934 1.77946 0
M  V30 5404 O 522.769 -0.400519 1.78051 0
M  V30 5405 C 522.82 3.08742 1.88045 0
M  V30 5406 O 522.541 4.24147 1.09686 0
M  V30 5407 C 524.042 3.48824 2.73563 0
M  V30 5408 H 521.262 0.608775 0.282194 0
M  V30 5409 H 523.806 2.03124 0.23681 0
M  V30 5410 H 521.961 2.90723 2.56045 0
M  V30 5411 H 522.375 4.95505 1.71974 0
M  V30 5412 H 523.849 4.39752 3.3365 0
M  V30 5413 H 524.326 2.70575 3.45956 0
M  V30 5414 H 524.932 3.69282 2.10976 0
M  V30 5415 N 523.247 -0.488276 1.49845 0
M  V30 5416 C 524.524 -1.24959 1.50481 0
M  V30 5417 C 524.904 -2.09735 0.239698 0
M  V30 5418 O 524.252 -2.14865 -0.777524 0
M  V30 5419 C 524.462 -2.0954 2.79095 0
M  V30 5420 C 525.81 -2.68305 3.29086 0
M  V30 5421 O 526.834 -2.19797 2.80299 0
M  V30 5422 O 525.693 -3.56643 4.14087 0
M  V30 5423 H 522.787 -0.566133 0.602845 0
M  V30 5424 H 525.333 -0.501504 1.6212 0
M  V30 5425 H 524.105 -1.46958 3.62656 0
M  V30 5426 H 523.728 -2.91517 2.70377 0
M  V30 5427 N 524.725 -1.39134 -0.740242 0
M  V30 5428 C 525.972 -1.36071 -1.49969 0
M  V30 5429 C 526.3 0.0450245 -1.94448 0
M  V30 5430 O 525.555 1.02482 -1.66721 0
M  V30 5431 C 525.854 -2.27457 -2.75678 0
M  V30 5432 C 525.52 -3.75185 -2.50094 0
M  V30 5433 C 524.182 -4.15439 -2.42825 0
M  V30 5434 C 526.534 -4.68643 -2.28086 0
M  V30 5435 C 523.862 -5.4722 -2.11584 0
M  V30 5436 C 526.214 -6.00695 -1.98363 0
M  V30 5437 C 524.878 -6.40018 -1.8956 0
M  V30 5438 H 524.148 -0.497921 -0.548777 0
M  V30 5439 H 526.795 -1.71599 -0.85007 0
M  V30 5440 H 525.1 -1.8503 -3.45356 0
M  V30 5441 H 526.797 -2.22384 -3.33686 0
M  V30 5442 H 523.387 -3.43279 -2.56627 0
M  V30 5443 H 527.571 -4.3838 -2.32672 0
M  V30 5444 H 522.827 -5.76615 -2.03287 0
M  V30 5445 H 527.001 -6.72644 -1.80341 0
M  V30 5446 H 524.628 -7.42051 -1.65117 0
M  V30 5447 N 526.204 0.969867 -1.24223 0
M  V30 5448 C 527.137 2.06279 -0.975926 0
M  V30 5449 C 528.115 1.62353 0.0895385 0
M  V30 5450 O 529.299 1.88442 -0.0469418 0
M  V30 5451 C 526.426 3.35391 -0.472315 0
M  V30 5452 C 525.472 3.98266 -1.526 0
M  V30 5453 S 526.305 4.36172 -3.10667 0
M  V30 5454 C 527.461 5.68423 -2.62003 0
M  V30 5455 H 527.694 2.28551 -1.90137 0
M  V30 5456 H 525.227 1.10748 -1.07584 0
M  V30 5457 H 527.185 4.10068 -0.188376 0
M  V30 5458 H 525.846 3.1111 0.432378 0
M  V30 5459 H 525.039 4.91307 -1.12399 0
M  V30 5460 H 524.641 3.30009 -1.75983 0
M  V30 5461 H 526.933 6.45842 -2.0468 0
M  V30 5462 H 527.876 6.13478 -3.53625 0
M  V30 5463 H 528.284 5.26928 -2.02502 0
M  V30 5464 N 527.682 1.05563 1.17022 0
M  V30 5465 C 528.931 0.763036 1.8671 0
M  V30 5466 C 529.244 -0.712857 1.82147 0
M  V30 5467 O 530.45 -1.11955 2.47343 0
M  V30 5468 C 528.906 1.31474 3.35026 0
M  V30 5469 C 528.514 2.82034 3.48081 0
M  V30 5470 C 530.258 1.09935 4.10018 0
M  V30 5471 C 528.165 3.30486 4.90442 0
M  V30 5472 H 527.095 0.281747 0.699382 0
M  V30 5473 H 529.746 1.2734 1.32124 0
M  V30 5474 H 528.128 0.732171 3.89173 0
M  V30 5475 H 529.302 3.46178 3.04133 0
M  V30 5476 H 527.617 3.02156 2.86515 0
M  V30 5477 H 530.214 1.43632 5.15048 0
M  V30 5478 H 530.557 0.0373072 4.16283 0
M  V30 5479 H 531.09 1.64732 3.62089 0
M  V30 5480 H 527.829 4.36137 4.89352 0
M  V30 5481 H 527.349 2.71086 5.35044 0
M  V30 5482 H 529.028 3.25382 5.59227 0
M  V30 5483 N 529.16 -1.33526 0.837174 0
M  V30 5484 C 530.11 -2.2672 0.241269 0
M  V30 5485 C 531.094 -1.49183 -0.602756 0
M  V30 5486 O 532.286 -1.71052 -0.455002 0
M  V30 5487 C 529.415 -3.38294 -0.584125 0
M  V30 5488 C 528.501 -4.23231 0.271315 0
M  V30 5489 N 528.892 -4.87473 1.34922 0
M  V30 5490 C 527.19 -4.45962 0.0580589 0
M  V30 5491 C 527.891 -5.50685 1.87405 0
M  V30 5492 N 526.867 -5.30732 1.17578 0
M  V30 5493 H 530.669 -2.73903 1.06558 0
M  V30 5494 H 528.183 -1.47411 0.68145 0
M  V30 5495 H 530.18 -4.04044 -1.02731 0
M  V30 5496 H 528.84 -2.9266 -1.40643 0
M  V30 5497 H 529.851 -4.88077 1.7321 0
M  V30 5498 H 526.528 -4.11052 -0.730938 0
M  V30 5499 H 527.918 -6.11845 2.77661 0
M  V30 5500 N 530.638 -0.59345 -1.46 0
M  V30 5501 C 531.57 0.171569 -2.28557 0
M  V30 5502 C 532.583 0.845273 -1.39137 0
M  V30 5503 O 533.772 0.713033 -1.6364 0
M  V30 5504 C 530.872 1.26311 -3.14482 0
M  V30 5505 C 530.045 0.679258 -4.32094 0
M  V30 5506 C 529.104 1.65987 -4.99334 0
M  V30 5507 O 528.13 1.19171 -5.56585 0
M  V30 5508 N 529.332 2.99414 -4.97324 0
M  V30 5509 H 532.097 -0.536771 -2.94854 0
M  V30 5510 H 529.658 -0.431954 -1.56031 0
M  V30 5511 H 531.65 1.91863 -3.5633 0
M  V30 5512 H 530.22 1.87416 -2.50188 0
M  V30 5513 H 529.44 -0.153992 -3.93899 0
M  V30 5514 H 530.728 0.26916 -5.08088 0
M  V30 5515 H 530.126 3.40064 -4.52076 0
M  V30 5516 H 528.683 3.60426 -5.4308 0
M  V30 5517 N 532.116 1.54067 -0.331816 0
M  V30 5518 C 533.064 2.26105 0.54582 0
M  V30 5519 C 534.058 1.27816 1.11173 0
M  V30 5520 O 535.264 1.45565 1.05882 0
M  V30 5521 H 531.639 0.726363 0.194683 0
M  V30 5522 H 533.61 2.98282 -0.083931 0
M  V30 5523 C 532.359 3.03814 1.69092 0
M  V30 5524 H 531.682 3.79269 1.26473 0
M  V30 5525 H 533.122 3.57453 2.28043 0
M  V30 5526 C 531.581 2.12606 2.61343 0
M  V30 5527 O 532.111 1.71437 3.6328 0
M  V30 5528 N 530.317 1.77925 2.29763 0
M  V30 5529 H 529.864 2.11602 1.46909 0
M  V30 5530 H 529.822 1.1718 2.91747 0
M  V30 5531 N 533.594 0.0601682 1.57485 0
M  V30 5532 C 534.84 -0.612501 1.93329 0
M  V30 5533 C 535.173 -1.6996 0.939526 0
M  V30 5534 O 534.448 -1.94472 -0.0330957 0
M  V30 5535 C 534.731 -1.20025 3.39508 0
M  V30 5536 C 534.584 -0.12059 4.49638 0
M  V30 5537 C 535.903 -2.10923 3.86264 0
M  V30 5538 H 533.022 -0.221185 0.703027 0
M  V30 5539 H 535.664 0.123768 1.89596 0
M  V30 5540 H 533.814 -1.82774 3.42821 0
M  V30 5541 H 535.486 0.51185 4.58452 0
M  V30 5542 H 533.729 0.550251 4.30296 0
M  V30 5543 H 534.4 -0.572019 5.49028 0
M  V30 5544 H 536.876 -1.58124 3.84884 0
M  V30 5545 H 535.752 -2.48987 4.8918 0
M  V30 5546 H 536.013 -3.01292 3.23536 0
M  V30 5547 N 535.072 -1.5615 -0.213296 0
M  V30 5548 C 536.318 -1.79812 -0.937849 0
M  V30 5549 C 536.651 -0.631201 -1.83656 0
M  V30 5550 O 535.926 0.369165 -1.90964 0
M  V30 5551 C 536.209 -3.13613 -1.76972 0
M  V30 5552 C 536.062 -4.40766 -0.89695 0
M  V30 5553 C 537.381 -3.43931 -2.7459 0
M  V30 5554 H 534.5 -0.654138 -0.339518 0
M  V30 5555 H 537.142 -1.88877 -0.20623 0
M  V30 5556 H 535.292 -3.06015 -2.39347 0
M  V30 5557 H 536.964 -4.60392 -0.289306 0
M  V30 5558 H 535.207 -4.33326 -0.202756 0
M  V30 5559 H 535.878 -5.30843 -1.51358 0
M  V30 5560 H 538.354 -3.5171 -2.22349 0
M  V30 5561 H 537.23 -4.38706 -3.29891 0
M  V30 5562 H 537.491 -2.6651 -3.52739 0
M  V30 5563 N 536.55 0.480323 -1.50102 0
M  V30 5564 C 537.961 1.06142 -1.53593 0
M  V30 5565 C 538.312 1.93335 -0.334055 0
M  V30 5566 O 537.437 2.09188 0.55403 0
M  V30 5567 C 538.032 1.9317 -2.78336 0
M  V30 5568 C 536.591 2.46405 -2.84538 0
M  V30 5569 C 535.738 1.24521 -2.4777 0
M  V30 5570 H 538.689 0.26333 -1.565 0
M  V30 5571 H 538.71 2.78123 -2.59669 0
M  V30 5572 H 538.222 1.29683 -3.65792 0
M  V30 5573 H 536.323 3.13472 -2.01411 0
M  V30 5574 H 536.436 2.82143 -3.87211 0
M  V30 5575 H 534.8 1.57706 -2.00003 0
M  V30 5576 H 535.583 0.627102 -3.37524 0
M  V30 5577 N 538.028 1.39524 0.732853 0
M  V30 5578 C 538.991 1.38189 1.82857 0
M  V30 5579 C 539.991 0.278624 1.58368 0
M  V30 5580 O 541.181 0.536639 1.65728 0
M  V30 5581 C 538.313 1.15661 3.2068 0
M  V30 5582 H 539.506 2.35692 1.85444 0
M  V30 5583 H 537.059 1.2512 0.936728 0
M  V30 5584 H 537.794 0.188482 3.23752 0
M  V30 5585 H 537.579 1.95559 3.39852 0
M  V30 5586 H 539.069 1.17472 4.00737 0
M  V30 5587 N 539.506 -0.963266 1.24736 0
M  V30 5588 C 540.754 -1.70343 1.08755 0
M  V30 5589 C 541.075 -1.91387 -0.373619 0
M  V30 5590 O 540.345 -1.4948 -1.2662 0
M  V30 5591 H 538.925 -0.631224 0.399456 0
M  V30 5592 H 541.587 -1.15859 1.56725 0
M  V30 5593 H 540.683 -2.68616 1.58909 0
M  V30 5594 N 540.985 -1.06182 -1.16461 0
M  V30 5595 C 542.213 -0.798583 -1.90867 0
M  V30 5596 C 542.628 0.646921 -1.77371 0
M  V30 5597 O 541.985 1.44279 -1.11758 0
M  V30 5598 C 542.036 -1.18258 -3.4161 0
M  V30 5599 O 541.757 -2.57135 -3.54701 0
M  V30 5600 C 543.258 -0.946917 -4.33069 0
M  V30 5601 H 540.478 -0.289603 -0.605286 0
M  V30 5602 H 543.022 -1.41515 -1.47627 0
M  V30 5603 H 541.177 -0.610562 -3.82558 0
M  V30 5604 H 541.591 -2.72477 -4.4817 0
M  V30 5605 H 543.065 -1.26523 -5.37304 0
M  V30 5606 H 543.542 0.117406 -4.39043 0
M  V30 5607 H 544.148 -1.50326 -3.97847 0
M  V30 5608 N 542.463 1.3308 -0.844243 0
M  V30 5609 C 543.709 1.97898 -0.443206 0
M  V30 5610 C 544.042 1.66699 0.99625 0
M  V30 5611 O 543.317 0.949704 1.69738 0
M  V30 5612 C 543.6 3.53801 -0.670606 0
M  V30 5613 C 543.453 3.94667 -2.15772 0
M  V30 5614 C 544.772 4.39936 -0.120226 0
M  V30 5615 H 541.891 0.718861 -0.162504 0
M  V30 5616 H 544.533 1.57633 -1.06075 0
M  V30 5617 H 542.683 3.88229 -0.14496 0
M  V30 5618 H 544.355 3.70469 -2.74865 0
M  V30 5619 H 542.598 3.44203 -2.6402 0
M  V30 5620 H 543.269 5.03275 -2.26757 0
M  V30 5621 H 545.745 4.12183 -0.5696 0
M  V30 5622 H 544.621 5.4803 -0.308984 0
M  V30 5623 H 544.882 4.31184 0.976347 0
M  V30 5624 N 543.941 0.601185 1.45683 0
M  V30 5625 C 544.889 -0.133955 2.32214 0
M  V30 5626 C 545.883 -0.866034 1.45589 0
M  V30 5627 O 547.089 -0.782326 1.6211 0
M  V30 5628 H 543.464 -0.0620613 0.749435 0
M  V30 5629 H 545.435 0.614389 2.92007 0
M  V30 5630 C 544.184 -1.12216 3.29094 0
M  V30 5631 H 543.507 -0.568273 3.95741 0
M  V30 5632 H 544.947 -1.60659 3.92383 0
M  V30 5633 C 543.406 -2.19251 2.55794 0
M  V30 5634 O 543.936 -3.26894 2.33459 0
M  V30 5635 N 542.142 -1.9436 2.16039 0
M  V30 5636 H 541.689 -1.06829 2.34404 0
M  V30 5637 H 541.647 -2.66181 1.67318 0
M  V30 5638 N 545.419 -1.53889 0.339982 0
M  V30 5639 C 546.835 -1.59595 -0.0120752 0
M  V30 5640 C 547.035 -1.35605 -1.49042 0
M  V30 5641 O 546.091 -1.14856 -2.24865 0
M  V30 5642 C 547.404 -2.9774 0.420898 0
M  V30 5643 C 548.952 -3.1077 0.37294 0
M  V30 5644 C 549.427 -4.51286 0.781327 0
M  V30 5645 N 550.918 -4.57325 0.735374 0
M  V30 5646 C 551.653 -5.64194 1.02336 0
M  V30 5647 N 551.149 -6.7893 1.37933 0
M  V30 5648 N 552.942 -5.54051 0.947838 0
M  V30 5649 H 545.093 -1.67738 1.30299 0
M  V30 5650 H 547.356 -0.785385 0.530918 0
M  V30 5651 H 547.062 -3.20349 1.45152 0
M  V30 5652 H 546.936 -3.76639 -0.205721 0
M  V30 5653 H 549.323 -2.87886 -0.648505 0
M  V30 5654 H 549.404 -2.33939 1.03472 0
M  V30 5655 H 549.048 -4.74905 1.80077 0
M  V30 5656 H 548.978 -5.26511 0.0970679 0
M  V30 5657 H 551.469 -3.74931 0.472773 0
M  V30 5658 H 551.782 -7.56392 1.58402 0
M  V30 5659 H 550.127 -6.80386 1.41774 0
M  V30 5660 H 553.318 -4.63293 0.669115 0
M  V30 5661 H 553.491 -6.37246 1.17563 0
M  V30 5662 N 546.897 -0.0685191 -1.57451 0
M  V30 5663 C 547.829 0.929372 -2.09512 0
M  V30 5664 C 548.842 1.26354 -1.02657 0
M  V30 5665 O 550.031 1.2213 -1.30179 0
M  V30 5666 C 547.131 2.24612 -2.53777 0
M  V30 5667 C 546.304 2.09128 -3.84167 0
M  V30 5668 C 545.363 3.24079 -4.14559 0
M  V30 5669 O 544.389 2.99215 -4.8421 0
M  V30 5670 N 545.591 4.49077 -3.67845 0
M  V30 5671 H 548.356 0.484901 -2.95751 0
M  V30 5672 H 545.917 0.11729 -1.61475 0
M  V30 5673 H 547.909 3.00412 -2.71172 0
M  V30 5674 H 546.479 2.60569 -1.72692 0
M  V30 5675 H 545.699 1.17815 -3.76182 0
M  V30 5676 H 546.987 1.9603 -4.69521 0
M  V30 5677 H 546.385 4.72165 -3.11571 0
M  V30 5678 H 544.942 5.21915 -3.90446 0
M  V30 5679 N 548.375 1.56261 0.205012 0
M  V30 5680 C 549.786 1.70056 0.770574 0
M  V30 5681 C 550.137 0.673398 1.84282 0
M  V30 5682 O 549.262 -0.172196 2.15714 0
M  V30 5683 C 549.857 3.08316 1.40451 0
M  V30 5684 C 548.416 3.2391 1.91727 0
M  V30 5685 C 547.563 2.66001 0.783516 0
M  V30 5686 H 550.514 1.58688 -0.019911 0
M  V30 5687 H 550.535 3.05094 2.27371 0
M  V30 5688 H 550.047 3.83053 0.623882 0
M  V30 5689 H 548.148 2.54072 2.7254 0
M  V30 5690 H 548.261 4.3131 2.08588 0
M  V30 5691 H 546.625 2.24915 1.19521 0
M  V30 5692 H 547.408 3.43297 0.0152883 0
M  V30 5693 N 549.853 -0.472356 1.50355 0
M  V30 5694 C 551.264 -1.05326 1.54154 0
M  V30 5695 C 551.615 -1.93155 0.344303 0
M  V30 5696 O 550.74 -2.09479 -0.542928 0
M  V30 5697 C 551.335 -1.91691 2.79356 0
M  V30 5698 C 549.894 -2.44892 2.8584 0
M  V30 5699 C 549.041 -1.23205 2.48426 0
M  V30 5700 H 551.992 -0.255027 1.56637 0
M  V30 5701 H 552.013 -2.76742 2.6114 0
M  V30 5702 H 551.525 -1.27741 3.66475 0
M  V30 5703 H 549.626 -3.12399 2.0307 0
M  V30 5704 H 549.739 -2.80086 3.88701 0
M  V30 5705 H 548.103 -1.56643 2.00836 0
M  V30 5706 H 548.886 -0.609194 3.37852 0
M  V30 5707 N 551.331 -1.39911 -0.725443 0
M  V30 5708 C 552.742 -1.33599 -1.30415 0
M  V30 5709 C 553.093 -0.00481792 -1.96199 0
M  V30 5710 O 552.218 0.897275 -1.96921 0
M  V30 5711 C 552.813 -2.41965 -2.37146 0
M  V30 5712 C 551.372 -2.39144 -2.90667 0
M  V30 5713 C 550.519 -2.23355 -1.64341 0
M  V30 5714 H 553.47 -1.4986 -0.522267 0
M  V30 5715 H 553.491 -2.09304 -3.17761 0
M  V30 5716 H 553.003 -3.38837 -1.89238 0
M  V30 5717 H 551.104 -1.4594 -3.4283 0
M  V30 5718 H 551.217 -3.34362 -3.43131 0
M  V30 5719 H 549.581 -1.70696 -1.89037 0
M  V30 5720 H 550.364 -3.2221 -1.18471 0
M  V30 5721 N 552.809 0.956637 -1.25245 0
M  V30 5722 C 554.22 1.51569 -1.09012 0
M  V30 5723 C 554.571 1.93322 0.334813 0
M  V30 5724 O 553.696 1.78421 1.22454 0
M  V30 5725 C 554.291 2.75444 -1.97271 0
M  V30 5726 C 552.85 3.27669 -1.8523 0
M  V30 5727 C 551.997 2.00517 -1.91542 0
M  V30 5728 H 554.948 0.773746 -1.3856 0
M  V30 5729 H 554.969 3.4919 -1.51151 0
M  V30 5730 H 554.481 2.45024 -3.00973 0
M  V30 5731 H 552.582 3.62914 -0.844045 0
M  V30 5732 H 552.695 3.9582 -2.69932 0
M  V30 5733 H 551.059 2.15727 -1.35404 0
M  V30 5734 H 551.842 1.72448 -2.96844 0
M  V30 5735 N 554.287 1.06798 1.15896 0
M  V30 5736 C 555.517 0.807522 1.90165 0
M  V30 5737 C 555.925 -0.642417 1.7796 0
M  V30 5738 O 555.268 -1.45193 1.12537 0
M  V30 5739 C 555.33 1.12939 3.41299 0
M  V30 5740 C 554.994 2.57879 3.7729 0
M  V30 5741 C 555.991 3.56118 3.78782 0
M  V30 5742 C 553.676 2.93311 4.07767 0
M  V30 5743 C 555.67 4.87827 4.10248 0
M  V30 5744 C 553.357 4.25219 4.38899 0
M  V30 5745 C 554.355 5.22287 4.4012 0
M  V30 5746 O 554.043 6.51826 4.70508 0
M  V30 5747 H 553.775 0.291946 0.609708 0
M  V30 5748 H 556.329 1.42627 1.47806 0
M  V30 5749 H 554.559 0.45359 3.84031 0
M  V30 5750 H 556.248 0.852363 3.9685 0
M  V30 5751 H 557.014 3.30086 3.55342 0
M  V30 5752 H 552.893 2.18409 4.05979 0
M  V30 5753 H 556.437 5.63586 4.11116 0
M  V30 5754 H 552.334 4.51006 4.61805 0
M  V30 5755 H 553.102 6.56893 4.88298 0
M  V30 5756 N 555.766 -1.3263 0.851289 0
M  V30 5757 C 557.177 -1.79653 0.5081 0
M  V30 5758 C 557.528 -1.70327 -0.973815 0
M  V30 5759 O 556.653 -1.25986 -1.75944 0
M  V30 5760 C 557.248 -3.26196 0.915515 0
M  V30 5761 C 555.807 -3.71187 0.624277 0
M  V30 5762 C 554.954 -2.53804 1.11709 0
M  V30 5763 H 557.905 -1.19976 1.03882 0
M  V30 5764 H 557.926 -3.79801 0.230535 0
M  V30 5765 H 557.438 -3.32952 1.99411 0
M  V30 5766 H 555.539 -3.69948 -0.443737 0
M  V30 5767 H 555.652 -4.64132 1.18821 0
M  V30 5768 H 554.016 -2.48964 0.537484 0
M  V30 5769 H 554.799 -2.63315 2.20272 0
M  V30 5770 N 557.244 -0.608902 -1.45362 0
M  V30 5771 C 558.174 0.0964526 -2.33301 0
M  V30 5772 C 559.155 0.857444 -1.46908 0
M  V30 5773 O 560.34 0.827735 -1.75676 0
M  V30 5774 C 557.47 1.09354 -3.29635 0
M  V30 5775 C 556.424 0.445676 -4.25673 0
M  V30 5776 C 555.75 1.5511 -5.11708 0
M  V30 5777 C 557.05 -0.633972 -5.18438 0
M  V30 5778 H 558.744 -0.637829 -2.92527 0
M  V30 5779 H 556.29 -0.308178 -1.40664 0
M  V30 5780 H 558.243 1.59556 -3.90025 0
M  V30 5781 H 556.967 1.85843 -2.6857 0
M  V30 5782 H 555.626 -0.0354897 -3.66583 0
M  V30 5783 H 555.274 2.30631 -4.4701 0
M  V30 5784 H 554.974 1.12311 -5.76767 0
M  V30 5785 H 556.498 2.05537 -5.74967 0
M  V30 5786 H 557.912 -0.215974 -5.72893 0
M  V30 5787 H 556.309 -0.983789 -5.91981 0
M  V30 5788 H 557.379 -1.51005 -4.60788 0
M  V30 5789 N 558.722 1.53707 -0.348139 0
M  V30 5790 C 559.95 2.05406 0.248224 0
M  V30 5791 C 560.365 1.22282 1.43849 0
M  V30 5792 O 559.722 0.259244 1.80649 0
M  V30 5793 C 559.773 3.55446 0.658793 0
M  V30 5794 O 559.494 4.35417 -0.484149 0
M  V30 5795 C 560.995 4.23335 1.31539 0
M  V30 5796 H 558.215 0.669344 0.0471075 0
M  V30 5797 H 560.759 1.98257 -0.501456 0
M  V30 5798 H 558.914 3.62803 1.35841 0
M  V30 5799 H 559.328 5.24268 -0.155949 0
M  V30 5800 H 560.802 5.29692 1.55338 0
M  V30 5801 H 561.279 3.75967 2.27036 0
M  V30 5802 H 561.885 4.20184 0.657683 0
M  V30 5803 N 560.2 0.0768682 1.57412 0
M  V30 5804 C 561.163 -0.873949 2.11884 0
M  V30 5805 C 562.163 -1.22301 1.04398 0
M  V30 5806 O 563.353 -1.15545 1.30365 0
M  V30 5807 C 560.485 -2.17575 2.62438 0
M  V30 5808 H 561.678 -0.401278 2.97203 0
M  V30 5809 H 559.231 -0.171904 1.55352 0
M  V30 5810 H 559.966 -2.69368 1.80587 0
M  V30 5811 H 559.751 -1.93534 3.41009 0
M  V30 5812 H 561.241 -2.85631 3.04639 0
M  V30 5813 N 561.678 -1.56367 -0.196722 0
M  V30 5814 C 562.641 -1.93561 -1.22746 0
M  V30 5815 C 563.641 -0.816566 -1.38524 0
M  V30 5816 O 564.831 -1.084 -1.36363 0
M  V30 5817 C 561.963 -2.20823 -2.59712 0
M  V30 5818 H 563.156 -2.85774 -0.909586 0
M  V30 5819 H 560.709 -1.50032 -0.438174 0
M  V30 5820 H 561.444 -1.31243 -2.96557 0
M  V30 5821 H 561.229 -3.02368 -2.49632 0
M  V30 5822 H 562.719 -2.50608 -3.34044 0
M  V30 5823 N 563.156 0.464375 -1.50603 0
M  V30 5824 C 564.104 1.58224 -1.70493 0
M  V30 5825 C 565.098 1.59492 -0.570836 0
M  V30 5826 O 566.304 1.63561 -0.751517 0
M  V30 5827 H 562.679 0.525161 -0.538247 0
M  V30 5828 H 564.65 1.38613 -2.64252 0
M  V30 5829 C 563.399 2.96113 -1.82243 0
M  V30 5830 H 562.722 2.95858 -2.68901 0
M  V30 5831 H 564.162 3.73769 -2.00182 0
M  V30 5832 C 562.621 3.31946 -0.575628 0
M  V30 5833 O 563.151 4.00708 0.282152 0
M  V30 5834 N 561.357 2.87436 -0.427665 0
M  V30 5835 H 560.904 2.31652 -1.12674 0
M  V30 5836 H 560.862 3.11776 0.405379 0
M  V30 5837 N 564.634 1.40294 0.718013 0
M  V30 5838 C 565.882 1.38167 1.47494 0
M  V30 5839 C 566.203 -0.01607 1.94993 0
M  V30 5840 O 565.473 -0.970396 1.70177 0
M  V30 5841 H 564.053 0.508505 0.547203 0
M  V30 5842 H 566.715 1.75324 0.851322 0
M  V30 5843 H 565.811 2.05503 2.34894 0
M  V30 5844 N 566.112 -0.949982 1.2575 0
M  V30 5845 C 567.044 -2.05088 1.02331 0
M  V30 5846 C 568.057 -1.62795 -0.0133247 0
M  V30 5847 O 569.246 -1.77067 0.225759 0
M  V30 5848 C 566.346 -3.34794 0.525924 0
M  V30 5849 C 565.519 -4.05903 1.62978 0
M  V30 5850 C 564.578 -5.1388 1.13196 0
M  V30 5851 O 563.604 -5.39072 1.82729 0
M  V30 5852 N 564.806 -5.80495 -0.0242926 0
M  V30 5853 H 567.571 -2.25747 1.97125 0
M  V30 5854 H 565.132 -1.11886 1.17018 0
M  V30 5855 H 567.124 -4.04312 0.177263 0
M  V30 5856 H 565.694 -3.10872 -0.328202 0
M  V30 5857 H 564.914 -3.3042 2.1498 0
M  V30 5858 H 566.202 -4.50166 2.37124 0
M  V30 5859 H 565.6 -5.62454 -0.605184 0
M  V30 5860 H 564.157 -6.51043 -0.313947 0
M  V30 5861 N 567.59 -1.07411 -1.15328 0
M  V30 5862 C 568.815 -0.818856 -1.90551 0
M  V30 5863 C 569.24 0.622194 -1.77512 0
M  V30 5864 O 568.598 1.43484 -1.10824 0
M  V30 5865 C 568.646 -1.23267 -3.38877 0
M  V30 5866 O 567.75 -0.378345 -4.10661 0
M  V30 5867 H 567.091 -0.29827 -0.593238 0
M  V30 5868 H 569.621 -1.43289 -1.46046 0
M  V30 5869 H 569.631 -1.20912 -3.89672 0
M  V30 5870 H 568.306 -2.28226 -3.47686 0
M  V30 5871 H 566.883 -0.464437 -3.69996 0
M  V30 5872 N 569.068 1.32177 -0.85831 0
M  V30 5873 C 570.479 1.79381 -0.517621 0
M  V30 5874 C 570.83 1.70841 0.964769 0
M  V30 5875 O 569.955 1.26917 1.75274 0
M  V30 5876 C 570.55 3.25706 -0.932801 0
M  V30 5877 C 569.109 3.70851 -0.643953 0
M  V30 5878 C 568.256 2.53208 -1.13054 0
M  V30 5879 H 571.207 1.19424 -1.04516 0
M  V30 5880 H 571.228 3.79673 -0.250674 0
M  V30 5881 H 570.74 3.31889 -2.01174 0
M  V30 5882 H 568.841 3.70178 0.424112 0
M  V30 5883 H 568.954 4.63495 -1.21281 0
M  V30 5884 H 567.318 2.48676 -0.550679 0
M  V30 5885 H 568.101 2.62143 -2.21666 0
M  V30 5886 N 570.547 0.616602 1.45037 0
M  V30 5887 C 571.772 0.120192 2.07051 0
M  V30 5888 C 572.197 -1.19008 1.45666 0
M  V30 5889 O 571.555 -1.7267 0.552692 0
M  V30 5890 C 571.603 0.00354901 3.606 0
M  V30 5891 O 570.707 -1.04431 3.98958 0
M  V30 5892 H 570.048 0.0781599 0.659384 0
M  V30 5893 H 572.578 0.849167 1.86146 0
M  V30 5894 H 572.588 -0.191754 4.07549 0
M  V30 5895 H 571.263 0.960239 4.04663 0
M  V30 5896 H 569.84 -0.824749 3.63665 0
M  V30 5897 N 572.025 -1.5352 0.356285 0
M  V30 5898 C 572.988 -2.24071 -0.482182 0
M  V30 5899 C 573.988 -1.24531 -1.01729 0
M  V30 5900 O 575.178 -1.48876 -0.904513 0
M  V30 5901 C 572.31 -2.97025 -1.67299 0
M  V30 5902 H 573.503 -2.99596 0.135031 0
M  V30 5903 H 571.056 -1.55928 0.107825 0
M  V30 5904 H 571.791 -2.25719 -2.32855 0
M  V30 5905 H 571.576 -3.7005 -1.29636 0
M  V30 5906 H 573.066 -3.50683 -2.26741 0
M  V30 5907 N 573.503 -0.0852151 -1.57369 0
M  V30 5908 C 574.433 0.874556 -2.16503 0
M  V30 5909 C 575.414 1.30111 -1.09568 0
M  V30 5910 O 576.599 1.36977 -1.37662 0
M  V30 5911 C 573.729 2.13731 -2.73745 0
M  V30 5912 C 572.683 1.84971 -3.85966 0
M  V30 5913 C 572.009 3.17991 -4.29867 0
M  V30 5914 C 573.309 1.14442 -5.09608 0
M  V30 5915 H 575.003 0.381899 -2.96954 0
M  V30 5916 H 572.549 0.18225 -1.42842 0
M  V30 5917 H 574.502 2.81302 -3.13763 0
M  V30 5918 H 573.226 2.65263 -1.90534 0
M  V30 5919 H 571.885 1.19801 -3.46473 0
M  V30 5920 H 571.533 3.6739 -3.4356 0
M  V30 5921 H 571.233 2.99534 -5.05523 0
M  V30 5922 H 572.757 3.86737 -4.72511 0
M  V30 5923 H 574.171 1.72105 -5.46857 0
M  V30 5924 H 572.568 1.06197 -5.90629 0
M  V30 5925 H 573.638 0.12559 -4.84737 0
M  V30 5926 N 574.981 1.5647 0.188427 0
M  V30 5927 C 575.913 1.91611 1.25769 0
M  V30 5928 C 576.926 0.807436 1.41366 0
M  V30 5929 O 578.115 1.08586 1.41673 0
M  V30 5930 C 575.215 2.13874 2.6289 0
M  V30 5931 C 574.388 3.45047 2.68815 0
M  V30 5932 C 573.447 3.56342 3.87178 0
M  V30 5933 O 572.473 4.29109 3.73971 0
M  V30 5934 N 573.675 2.89924 5.02916 0
M  V30 5935 H 576.44 2.8393 0.959373 0
M  V30 5936 H 574.001 1.57418 0.378306 0
M  V30 5937 H 575.993 2.18713 3.4051 0
M  V30 5938 H 574.563 1.28022 2.85183 0
M  V30 5939 H 573.783 3.52017 1.77419 0
M  V30 5940 H 575.071 4.31395 2.6977 0
M  V30 5941 H 574.469 2.30644 5.16546 0
M  V30 5942 H 573.026 3.0038 5.78459 0
M  V30 5943 N 576.459 -0.456382 1.50847 0
M  V30 5944 C 577.687 -1.23026 1.66349 0
M  V30 5945 C 578.102 -1.85473 0.352868 0
M  V30 5946 O 577.459 -1.69885 -0.666739 0
M  V30 5947 C 577.51 -2.32827 2.76539 0
M  V30 5948 O 577.231 -1.72938 4.02522 0
M  V30 5949 C 578.732 -3.23448 3.03144 0
M  V30 5950 H 575.952 -0.371527 0.558756 0
M  V30 5951 H 578.496 -0.543082 1.97157 0
M  V30 5952 H 576.651 -2.97294 2.48384 0
M  V30 5953 H 577.065 -2.45357 4.63573 0
M  V30 5954 H 578.539 -3.96669 3.83872 0
M  V30 5955 H 579.016 -3.83094 2.14793 0
M  V30 5956 H 579.622 -2.64702 3.32886 0
M  V30 5957 N 577.937 -1.40673 -0.710563 0
M  V30 5958 C 579.185 -1.38947 -1.46759 0
M  V30 5959 C 579.506 0.00572879 -1.94999 0
M  V30 5960 O 578.776 0.961358 -1.70689 0
M  V30 5961 H 577.356 -0.5114 -0.544499 0
M  V30 5962 H 580.018 -1.75773 -0.842012 0
M  V30 5963 H 579.114 -2.06745 -2.33801 0
M  V30 5964 N 579.415 0.9433 -1.26252 0
M  V30 5965 C 580.663 1.68592 -1.11451 0
M  V30 5966 C 580.984 1.91957 0.343123 0
M  V30 5967 O 580.254 1.51475 1.24226 0
M  V30 5968 H 578.834 0.624789 -0.409448 0
M  V30 5969 H 581.496 1.13351 -1.58548 0
M  V30 5970 H 580.592 2.66054 -1.63162 0
M  V30 5971 N 580.893 1.08022 1.14757 0
M  V30 5972 C 582.118 0.82895 1.90114 0
M  V30 5973 C 582.543 -0.612772 1.77839 0
M  V30 5974 O 581.901 -1.42895 1.11583 0
M  V30 5975 C 581.949 1.25062 3.38219 0
M  V30 5976 O 581.053 0.400119 4.10454 0
M  V30 5977 H 580.394 0.301412 0.591648 0
M  V30 5978 H 582.924 1.44062 1.45284 0
M  V30 5979 H 582.934 1.22977 3.89025 0
M  V30 5980 H 581.609 2.30067 3.46471 0
M  V30 5981 H 580.186 0.484052 3.69745 0
M  V30 5982 N 582.371 -1.3172 0.865308 0
M  V30 5983 C 583.334 -2.26918 0.322627 0
M  V30 5984 C 584.334 -1.52031 -0.523751 0
M  V30 5985 O 585.524 -1.70973 -0.333727 0
M  V30 5986 C 582.656 -3.36558 -0.542338 0
M  V30 5987 H 583.849 -2.76432 1.16298 0
M  V30 5988 H 581.402 -1.42573 0.640512 0
M  V30 5989 H 582.137 -2.92329 -1.40407 0
M  V30 5990 H 581.922 -3.92048 0.0636395 0
M  V30 5991 H 583.412 -4.07465 -0.91446 0
M  V30 5992 N 583.85 -0.624285 -1.44708 0
M  V30 5993 C 584.812 0.0749638 -2.29077 0
M  V30 5994 C 585.812 0.778965 -1.40673 0
M  V30 5995 O 587.003 0.624591 -1.62618 0
M  V30 5996 C 584.135 1.11663 -3.22094 0
M  V30 5997 H 585.327 -0.667013 -2.92388 0
M  V30 5998 H 582.88 -0.384098 -1.51507 0
M  V30 5999 H 583.615 1.88881 -2.63618 0
M  V30 6000 H 583.401 0.61583 -3.87234 0
M  V30 6001 H 584.891 1.60585 -3.8549 0
M  V30 6002 N 585.328 1.53329 -0.364422 0
M  V30 6003 C 586.739 1.86345 0.115039 0
M  V30 6004 C 587.09 1.28505 1.4826 0
M  V30 6005 O 586.215 0.606639 2.07723 0
M  V30 6006 C 586.81 3.38114 0.215522 0
M  V30 6007 C 585.369 3.70932 0.639237 0
M  V30 6008 C 584.516 2.76471 -0.214261 0
M  V30 6009 H 587.467 1.47593 -0.583258 0
M  V30 6010 H 587.488 3.66031 1.0393 0
M  V30 6011 H 587 3.80182 -0.779948 0
M  V30 6012 H 585.101 3.3442 1.64298 0
M  V30 6013 H 585.214 4.77302 0.41465 0
M  V30 6014 H 583.578 2.52724 0.316678 0
M  V30 6015 H 584.361 3.21373 -1.20725 0
M  V30 6016 N 586.806 0.0935595 1.57322 0
M  V30 6017 C 588.031 -0.582324 1.99057 0
M  V30 6018 C 588.456 -1.61025 0.972242 0
M  V30 6019 O 587.814 -1.81202 -0.0594622 0
M  V30 6020 C 587.862 -1.20799 3.39765 0
M  V30 6021 O 586.966 -2.32382 3.40694 0
M  V30 6022 H 586.307 -0.147884 0.647323 0
M  V30 6023 H 588.837 0.174516 2.03854 0
M  V30 6024 H 588.847 -1.54966 3.77425 0
M  V30 6025 H 587.522 -0.454914 4.13405 0
M  V30 6026 H 586.099 -1.99845 3.14827 0
M  V30 6027 N 588.284 -1.56567 -0.180126 0
M  V30 6028 C 589.509 -1.85975 -0.918041 0
M  V30 6029 C 589.934 -0.678888 -1.75422 0
M  V30 6030 O 589.292 0.372168 -1.77439 0
M  V30 6031 C 589.34 -3.13731 -1.77779 0
M  V30 6032 O 588.444 -2.95335 -2.87838 0
M  V30 6033 H 587.785 -0.61196 -0.257683 0
M  V30 6034 H 590.315 -2.03798 -0.180923 0
M  V30 6035 H 590.325 -3.4491 -2.17948 0
M  V30 6036 H 589 -3.99293 -1.16352 0
M  V30 6037 H 587.577 -2.7549 -2.51316 0
M  V30 6038 N 589.762 0.448376 -1.51087 0
M  V30 6039 C 590.992 1.21965 -1.66757 0
M  V30 6040 C 591.4 1.85748 -0.359753 0
M  V30 6041 O 590.743 1.71022 0.670604 0
M  V30 6042 C 590.805 2.35284 -2.71812 0
M  V30 6043 C 590.469 1.91957 -4.1473 0
M  V30 6044 C 591.466 1.42921 -4.9987 0
M  V30 6045 C 589.151 1.99985 -4.60772 0
M  V30 6046 C 591.145 1.02485 -6.29107 0
M  V30 6047 C 588.832 1.5916 -5.90009 0
M  V30 6048 C 589.83 1.10491 -6.74004 0
M  V30 6049 O 589.518 0.702413 -8.00825 0
M  V30 6050 H 589.25 0.374125 -0.563034 0
M  V30 6051 H 591.804 0.538927 -1.98204 0
M  V30 6052 H 590.034 3.06599 -2.35657 0
M  V30 6053 H 591.723 2.97184 -2.76472 0
M  V30 6054 H 592.489 1.36123 -4.65506 0
M  V30 6055 H 588.368 2.36814 -3.95525 0
M  V30 6056 H 591.912 0.644271 -6.94619 0
M  V30 6057 H 587.809 1.65626 -6.2389 0
M  V30 6058 H 588.577 0.829248 -8.14288 0
M  V30 6059 N 591.24 1.41047 0.703093 0
M  V30 6060 C 592.468 1.4334 1.49202 0
M  V30 6061 C 592.883 0.0365596 1.88765 0
M  V30 6062 O 592.24 -0.942419 1.56284 0
M  V30 6063 C 592.291 2.33538 2.75939 0
M  V30 6064 O 592.012 3.67786 2.38045 0
M  V30 6065 C 593.513 2.44555 3.6974 0
M  V30 6066 H 590.733 0.488472 0.460039 0
M  V30 6067 H 593.277 1.85245 0.86629 0
M  V30 6068 H 591.432 1.94962 3.34766 0
M  V30 6069 H 591.846 4.15816 3.19683 0
M  V30 6070 H 593.32 3.11849 4.55471 0
M  V30 6071 H 593.797 1.47447 4.1371 0
M  V30 6072 H 594.403 2.83735 3.16819 0
M  V30 6073 N 592.718 -0.936591 1.26751 0
M  V30 6074 C 593.666 -2.0573 1.08527 0
M  V30 6075 C 594.66 -1.69397 0.0108784 0
M  V30 6076 O 595.866 -1.79215 0.167915 0
M  V30 6077 H 592.241 -0.673691 0.334133 0
M  V30 6078 H 594.212 -2.1825 2.03493 0
M  V30 6079 C 592.961 -3.39738 0.739845 0
M  V30 6080 H 592.284 -3.68174 1.55845 0
M  V30 6081 H 593.724 -4.18955 0.652149 0
M  V30 6082 C 592.183 -3.32292 -0.555288 0
M  V30 6083 O 592.713 -3.68794 -1.59229 0
M  V30 6084 N 590.919 -2.85394 -0.54762 0
M  V30 6085 H 590.466 -2.55886 0.296667 0
M  V30 6086 H 590.424 -2.80795 -1.41427 0
M  V30 6087 N 594.196 -1.08629 -1.14182 0
M  V30 6088 C 595.444 -0.815731 -1.84906 0
M  V30 6089 C 595.765 0.660441 -1.83475 0
M  V30 6090 O 595.035 1.47888 -1.28476 0
M  V30 6091 H 593.615 -0.298773 -0.684648 0
M  V30 6092 H 596.277 -1.37274 -1.38354 0
M  V30 6093 H 595.373 -1.16193 -2.89665 0
M  V30 6094 N 595.674 1.31259 -0.872281 0
M  V30 6095 C 596.899 2.0133 -0.498099 0
M  V30 6096 C 597.324 1.65031 0.902568 0
M  V30 6097 O 596.682 0.860164 1.59596 0
M  V30 6098 C 596.73 3.54411 -0.665205 0
M  V30 6099 O 595.834 4.11347 0.294473 0
M  V30 6100 H 595.175 0.633844 -0.197832 0
M  V30 6101 H 597.705 1.67402 -1.17633 0
M  V30 6102 H 597.715 4.04147 -0.559373 0
M  V30 6103 H 596.39 3.80171 -1.68651 0
M  V30 6104 H 594.967 3.72624 0.143403 0
M  V30 6105 N 597.152 0.631951 1.44375 0
M  V30 6106 C 598.401 0.134214 2.01253 0
M  V30 6107 C 598.714 -1.25171 1.50305 0
M  V30 6108 O 599.92 -1.8435 1.99317 0
M  V30 6109 C 598.376 0.189187 3.59402 0
M  V30 6110 C 597.984 1.57647 4.19346 0
M  V30 6111 C 599.728 -0.252044 4.23751 0
M  V30 6112 C 597.635 1.58651 5.69722 0
M  V30 6113 H 596.565 0.0464101 0.75257 0
M  V30 6114 H 599.216 0.790868 1.65582 0
M  V30 6115 H 597.598 -0.534584 3.92375 0
M  V30 6116 H 598.772 2.32389 3.97909 0
M  V30 6117 H 597.087 1.96186 3.67288 0
M  V30 6118 H 599.684 -0.264084 5.34047 0
M  V30 6119 H 600.027 -1.27951 3.96149 0
M  V30 6120 H 600.56 0.41926 3.95584 0
M  V30 6121 H 597.299 2.59237 6.0206 0
M  V30 6122 H 596.819 0.882039 5.93279 0
M  V30 6123 H 598.498 1.32082 6.33375 0
M  V30 6124 N 598.631 -1.53133 0.372548 0
M  V30 6125 C 600.042 -1.86404 -0.105155 0
M  V30 6126 C 600.393 -1.29289 -1.47576 0
M  V30 6127 O 599.518 -0.617646 -2.07398 0
M  V30 6128 C 600.113 -3.38223 -0.197588 0
M  V30 6129 C 598.672 -3.71266 -0.619556 0
M  V30 6130 C 597.819 -2.76353 0.228919 0
M  V30 6131 H 600.77 -1.47282 0.591077 0
M  V30 6132 H 600.791 -3.66577 -1.01987 0
M  V30 6133 H 600.303 -3.79763 0.800099 0
M  V30 6134 H 598.404 -3.35287 -1.62522 0
M  V30 6135 H 598.517 -4.77515 -0.389332 0
M  V30 6136 H 596.881 -2.52888 -0.303271 0
M  V30 6137 H 597.664 -3.20728 1.22428 0
M  V30 6138 N 600.109 -0.101901 -1.5727 0
M  V30 6139 C 601.041 0.884723 -2.11436 0
M  V30 6140 C 602.054 1.24149 -1.05314 0
M  V30 6141 O 603.243 1.19341 -1.3274 0
M  V30 6142 C 600.343 2.19179 -2.58484 0
M  V30 6143 C 599.516 2.00933 -3.88516 0
M  V30 6144 C 598.575 3.15213 -4.2134 0
M  V30 6145 O 597.601 2.88877 -4.90448 0
M  V30 6146 N 598.803 4.41174 -3.77288 0
M  V30 6147 H 601.568 0.422058 -2.96713 0
M  V30 6148 H 599.129 0.0830128 -1.61687 0
M  V30 6149 H 601.121 2.94593 -2.77484 0
M  V30 6150 H 599.691 2.56847 -1.7818 0
M  V30 6151 H 598.911 1.09809 -3.78597 0
M  V30 6152 H 600.199 1.86026 -4.73573 0
M  V30 6153 H 599.597 4.6545 -3.21516 0
M  V30 6154 H 598.154 5.13515 -4.01429 0
M  V30 6155 N 601.587 1.56661 0.17182 0
M  V30 6156 C 602.812 1.86459 0.908165 0
M  V30 6157 C 603.237 0.688181 1.75059 0
M  V30 6158 O 602.595 -0.362753 1.77634 0
M  V30 6159 C 602.643 3.14669 1.76112 0
M  V30 6160 O 601.747 2.96858 2.86268 0
M  V30 6161 H 601.088 0.613318 0.254434 0
M  V30 6162 H 603.618 2.03892 0.170113 0
M  V30 6163 H 603.628 3.46061 2.16115 0
M  V30 6164 H 602.303 3.99905 1.14233 0
M  V30 6165 H 600.88 2.76819 2.49852 0
M  V30 6166 N 603.065 -0.440357 1.51323 0
M  V30 6167 C 603.998 -1.55414 1.67098 0
M  V30 6168 C 604.976 -1.54108 0.518599 0
M  V30 6169 O 606.16 -1.7328 0.742054 0
M  V30 6170 C 603.287 -2.93996 1.68179 0
M  V30 6171 C 602.333 -3.13338 2.89347 0
M  V30 6172 S 603.166 -2.89957 4.50206 0
M  V30 6173 C 604.322 -4.30826 4.54027 0
M  V30 6174 H 604.555 -1.41798 2.61306 0
M  V30 6175 H 602.088 -0.629841 1.40969 0
M  V30 6176 H 604.046 -3.73878 1.69487 0
M  V30 6177 H 602.707 -3.04976 0.751542 0
M  V30 6178 H 601.9 -4.14652 2.86495 0
M  V30 6179 H 601.502 -2.41276 2.85766 0
M  V30 6180 H 603.794 -5.23977 4.29481 0
M  V30 6181 H 604.737 -4.38712 5.55822 0
M  V30 6182 H 605.145 -4.1434 3.83384 0
M  V30 6183 N 604.543 -1.41418 -0.695603 0
M  V30 6184 C 605.476 -1.3768 -1.81988 0
M  V30 6185 C 606.454 -0.244061 -1.60758 0
M  V30 6186 O 607.638 -0.430965 -1.83507 0
M  V30 6187 C 604.765 -1.1476 -3.18666 0
M  V30 6188 C 603.811 -2.30752 -3.58686 0
M  V30 6189 S 604.644 -3.9323 -3.63498 0
M  V30 6190 C 605.8 -3.72613 -5.02902 0
M  V30 6191 H 606.033 -2.32822 -1.84882 0
M  V30 6192 H 603.566 -1.27942 -0.86431 0
M  V30 6193 H 605.524 -1.02223 -3.97569 0
M  V30 6194 H 604.185 -0.212385 -3.13381 0
M  V30 6195 H 603.378 -2.10409 -4.57978 0
M  V30 6196 H 602.98 -2.39696 -2.87092 0
M  V30 6197 H 605.272 -3.32317 -5.904 0
M  V30 6198 H 606.215 -4.71507 -5.28286 0
M  V30 6199 H 606.623 -3.0589 -4.74438 0
M  V30 6200 N 606.021 0.929856 -1.27246 0
M  V30 6201 C 607.267 1.6798 -1.13625 0
M  V30 6202 C 607.6 1.91586 0.317589 0
M  V30 6203 O 606.875 1.50467 1.23247 0
M  V30 6204 C 607.158 3.04766 -1.91806 0
M  V30 6205 C 607.011 2.88415 -3.45162 0
M  V30 6206 C 608.33 4.05063 -1.72082 0
M  V30 6207 H 605.449 0.609632 -0.414147 0
M  V30 6208 H 608.091 1.0792 -1.56376 0
M  V30 6209 H 606.241 3.56034 -1.55474 0
M  V30 6210 H 607.913 2.44282 -3.91311 0
M  V30 6211 H 606.156 2.23802 -3.71611 0
M  V30 6212 H 606.827 3.85482 -3.95105 0
M  V30 6213 H 609.303 3.62798 -2.03757 0
M  V30 6214 H 608.179 4.98765 -2.29182 0
M  V30 6215 H 608.44 4.37021 -0.668206 0
M  V30 6216 N 607.499 1.09233 1.13605 0
M  V30 6217 C 608.91 0.846839 1.6639 0
M  V30 6218 C 609.261 -0.625031 1.85978 0
M  V30 6219 O 608.386 -1.48173 1.57714 0
M  V30 6220 C 608.981 1.5307 3.0225 0
M  V30 6221 C 607.54 1.33223 3.52035 0
M  V30 6222 C 606.687 1.58806 2.27323 0
M  V30 6223 H 609.638 1.25175 0.975541 0
M  V30 6224 H 609.659 0.96267 3.68121 0
M  V30 6225 H 609.171 2.60192 2.87961 0
M  V30 6226 H 607.272 0.282091 3.71531 0
M  V30 6227 H 607.385 2.0657 4.32279 0
M  V30 6228 H 605.749 1.01007 2.33815 0
M  V30 6229 H 606.532 2.67153 2.15602 0
M  V30 6230 N 608.977 -1.30795 0.87923 0
M  V30 6231 C 609.925 -2.30231 0.331112 0
M  V30 6232 C 610.919 -1.59918 -0.558794 0
M  V30 6233 O 612.125 -1.74441 -0.443866 0
M  V30 6234 H 608.5 -0.746785 0.088409 0
M  V30 6235 H 610.471 -2.73925 1.18353 0
M  V30 6236 C 609.22 -3.44848 -0.444401 0
M  V30 6237 H 608.543 -3.99131 0.231106 0
M  V30 6238 H 609.983 -4.16516 -0.793109 0
M  V30 6239 C 608.442 -2.94329 -1.63926 0
M  V30 6240 O 608.972 -2.93875 -2.73862 0
M  V30 6241 N 607.178 -2.50413 -1.4745 0
M  V30 6242 H 606.725 -2.50982 -0.58015 0
M  V30 6243 H 606.683 -2.16969 -2.27534 0
M  V30 6244 N 610.455 -0.639598 -1.44038 0
M  V30 6245 C 611.871 -0.305953 -1.5664 0
M  V30 6246 C 612.071 1.19055 -1.62567 0
M  V30 6247 O 611.127 1.97492 -1.57331 0
M  V30 6248 C 612.44 -1.00533 -2.83397 0
M  V30 6249 C 613.988 -0.984278 -2.97121 0
M  V30 6250 C 614.463 -1.66428 -4.26691 0
M  V30 6251 N 615.954 -1.63127 -4.33525 0
M  V30 6252 C 616.689 -2.12629 -5.32519 0
M  V30 6253 N 616.185 -2.70359 -6.3787 0
M  V30 6254 N 617.978 -2.03208 -5.24083 0
M  V30 6255 H 610.129 -1.6109 -1.38434 0
M  V30 6256 H 612.392 -0.676672 -0.663942 0
M  V30 6257 H 612.098 -2.06034 -2.85032 0
M  V30 6258 H 611.972 -0.548362 -3.73193 0
M  V30 6259 H 614.359 0.0622792 -2.95034 0
M  V30 6260 H 614.44 -1.47981 -2.08651 0
M  V30 6261 H 614.084 -2.71034 -4.29538 0
M  V30 6262 H 614.014 -1.14351 -5.14034 0
M  V30 6263 H 616.505 -1.20987 -3.58009 0
M  V30 6264 H 616.818 -3.05842 -7.09704 0
M  V30 6265 H 615.163 -2.74414 -6.38531 0
M  V30 6266 H 618.354 -1.57823 -4.40692 0
M  V30 6267 H 618.527 -2.42097 -6.01077 0
M  V30 6268 N 611.933 1.52934 -0.380664 0
M  V30 6269 C 612.881 2.27727 0.47361 0
M  V30 6270 C 613.875 1.31288 1.0705 0
M  V30 6271 O 615.081 1.4886 1.01197 0
M  V30 6272 H 611.456 0.732189 0.171475 0
M  V30 6273 H 613.427 2.97864 -0.178785 0
M  V30 6274 C 612.176 3.0904 1.59341 0
M  V30 6275 H 611.499 3.831 1.14343 0
M  V30 6276 H 612.939 3.64527 2.16555 0
M  V30 6277 C 611.398 2.20813 2.54447 0
M  V30 6278 O 611.928 1.82907 3.57642 0
M  V30 6279 N 610.134 1.85145 2.23986 0
M  V30 6280 H 609.681 2.16169 1.40103 0
M  V30 6281 H 609.639 1.26402 2.87871 0
M  V30 6282 N 613.412 0.11024 1.57214 0
M  V30 6283 C 614.637 -0.561179 1.99664 0
M  V30 6284 C 615.062 -1.59985 0.989266 0
M  V30 6285 O 614.42 -1.81255 -0.0402399 0
M  V30 6286 C 614.468 -1.17189 3.41027 0
M  V30 6287 O 613.572 -2.28755 3.4314 0
M  V30 6288 H 612.913 -0.14101 0.648855 0
M  V30 6289 H 615.443 0.196128 2.03658 0
M  V30 6290 H 615.453 -1.50954 3.79047 0
M  V30 6291 H 614.128 -0.411041 4.13864 0
M  V30 6292 H 612.705 -1.96495 3.16929 0
M  V30 6293 N 614.89 -1.56749 -0.16351 0
M  V30 6294 C 615.84 -1.93424 -1.20712 0
M  V30 6295 C 616.824 -0.803469 -1.39403 0
M  V30 6296 O 618.016 -1.06675 -1.41243 0
M  V30 6297 C 615.145 -2.30431 -2.54473 0
M  V30 6298 C 614.231 -3.5004 -2.39443 0
M  V30 6299 N 614.622 -4.67058 -1.9414 0
M  V30 6300 C 612.92 -3.548 -2.70246 0
M  V30 6301 C 613.621 -5.49184 -1.9176 0
M  V30 6302 N 612.597 -4.9044 -2.34457 0
M  V30 6303 H 616.399 -2.8138 -0.848681 0
M  V30 6304 H 613.913 -1.58089 -0.371717 0
M  V30 6305 H 615.91 -2.54903 -3.29894 0
M  V30 6306 H 614.57 -1.43818 -2.91112 0
M  V30 6307 H 615.581 -4.91128 -1.64357 0
M  V30 6308 H 612.258 -2.78685 -3.10871 0
M  V30 6309 H 613.648 -6.5297 -1.58366 0
M  V30 6310 N 616.368 0.432326 -1.51554 0
M  V30 6311 C 617.316 1.54572 -1.73811 0
M  V30 6312 C 618.31 1.58246 -0.604539 0
M  V30 6313 O 619.516 1.6193 -0.786041 0
M  V30 6314 H 615.891 0.513626 -0.549265 0
M  V30 6315 H 617.862 1.32977 -2.67132 0
M  V30 6316 C 616.611 2.92181 -1.88483 0
M  V30 6317 H 615.934 2.90088 -2.75116 0
M  V30 6318 H 617.374 3.69439 -2.08065 0
M  V30 6319 C 615.833 3.3065 -0.645909 0
M  V30 6320 O 616.363 4.01216 0.197093 0
M  V30 6321 N 614.569 2.86464 -0.488538 0
M  V30 6322 H 614.116 2.29209 -1.17562 0
M  V30 6323 H 614.074 3.12565 0.339156 0
M  V30 6324 N 617.846 1.41785 0.688094 0
M  V30 6325 C 618.779 1.38643 1.81255 0
M  V30 6326 C 619.757 0.252583 1.60626 0
M  V30 6327 O 620.941 0.440691 1.83276 0
M  V30 6328 C 618.068 1.16449 3.18053 0
M  V30 6329 C 617.114 2.32651 3.57457 0
M  V30 6330 S 617.947 3.95152 3.61407 0
M  V30 6331 C 619.103 3.75275 5.00919 0
M  V30 6332 H 619.336 2.33799 1.83644 0
M  V30 6333 H 616.869 1.28398 0.857513 0
M  V30 6334 H 618.827 1.0433 3.97021 0
M  V30 6335 H 617.488 0.229002 3.13264 0
M  V30 6336 H 616.681 2.12835 4.56856 0
M  V30 6337 H 616.283 2.41215 2.85817 0
M  V30 6338 H 618.575 3.35443 5.88629 0
M  V30 6339 H 619.518 4.74302 5.25778 0
M  V30 6340 H 619.926 3.08401 4.7281 0
M  V30 6341 N 619.324 -0.923095 1.27737 0
M  V30 6342 C 620.234 -2.05765 1.12685 0
M  V30 6343 C 621.25 -1.73911 0.0557197 0
M  V30 6344 O 622.426 -1.99674 0.263137 0
M  V30 6345 C 619.491 -3.37804 0.780363 0
M  V30 6346 C 618.552 -3.83326 1.93286 0
M  V30 6347 C 617.785 -5.09064 1.60281 0
M  V30 6348 O 618.008 -5.6809 0.512828 0
M  V30 6349 O 616.942 -5.50071 2.44347 0
M  V30 6350 H 620.768 -2.21378 2.07907 0
M  V30 6351 H 618.353 -1.04299 1.06968 0
M  V30 6352 H 620.235 -4.17097 0.600668 0
M  V30 6353 H 618.91 -3.23387 -0.142291 0
M  V30 6354 H 617.817 -3.049 2.16764 0
M  V30 6355 H 619.15 -4.02292 2.83588 0
M  V30 6356 N 620.802 -1.09834 -1.13024 0
M  V30 6357 C 621.732 -0.763451 -2.20666 0
M  V30 6358 C 622.713 0.260778 -1.68089 0
M  V30 6359 O 623.898 0.127915 -1.93778 0
M  V30 6360 C 621.028 -0.187744 -3.46792 0
M  V30 6361 C 619.982 -1.14196 -4.12484 0
M  V30 6362 C 619.308 -0.427755 -5.32986 0
M  V30 6363 C 620.608 -2.48607 -4.59338 0
M  V30 6364 H 622.302 -1.66347 -2.48936 0
M  V30 6365 H 619.848 -0.801261 -1.19649 0
M  V30 6366 H 621.801 0.0586375 -4.21359 0
M  V30 6367 H 620.525 0.747485 -3.17931 0
M  V30 6368 H 619.184 -1.37369 -3.3989 0
M  V30 6369 H 618.832 0.511747 -5.0039 0
M  V30 6370 H 618.532 -1.06403 -5.77886 0
M  V30 6371 H 620.056 -0.189772 -6.10305 0
M  V30 6372 H 621.47 -2.29618 -5.25308 0
M  V30 6373 H 619.867 -3.08062 -5.14993 0
M  V30 6374 H 620.937 -3.09062 -3.73642 0
M  V30 6375 N 622.28 1.30327 -0.886154 0
M  V30 6376 C 623.51 1.99964 -0.519421 0
M  V30 6377 C 623.918 1.66593 0.89686 0
M  V30 6378 O 623.261 0.899886 1.60149 0
M  V30 6379 C 623.323 3.54187 -0.615795 0
M  V30 6380 C 622.987 4.11078 -1.9966 0
M  V30 6381 C 623.984 4.26985 -2.96614 0
M  V30 6382 C 621.669 4.46429 -2.30231 0
M  V30 6383 C 623.663 4.77456 -4.22273 0
M  V30 6384 C 621.35 4.966 -3.56135 0
M  V30 6385 C 622.348 5.12066 -4.5197 0
M  V30 6386 O 622.036 5.61154 -5.7564 0
M  V30 6387 H 621.768 0.645979 -0.199217 0
M  V30 6388 H 624.322 1.67154 -1.19368 0
M  V30 6389 H 622.552 3.86528 0.115448 0
M  V30 6390 H 624.241 4.05065 -0.26017 0
M  V30 6391 H 625.007 3.99975 -2.74308 0
M  V30 6392 H 620.886 4.33658 -1.56404 0
M  V30 6393 H 624.43 4.89444 -4.97082 0
M  V30 6394 H 620.327 5.23045 -3.78277 0
M  V30 6395 H 621.095 5.79494 -5.78039 0
M  V30 6396 N 623.758 0.647228 1.43697 0
M  V30 6397 C 624.706 -0.0600105 2.32523 0
M  V30 6398 C 625.7 -0.819277 1.48271 0
M  V30 6399 O 626.906 -0.730356 1.64517 0
M  V30 6400 H 623.281 -0.0381872 0.75103 0
M  V30 6401 H 625.252 0.706978 2.89904 0
M  V30 6402 C 624.001 -1.0169 3.32497 0
M  V30 6403 H 623.324 -0.442083 3.97348 0
M  V30 6404 H 624.764 -1.48095 3.97296 0
M  V30 6405 C 623.223 -2.11002 2.6264 0
M  V30 6406 O 623.753 -3.19302 2.4374 0
M  V30 6407 N 621.959 -1.87388 2.22113 0
M  V30 6408 H 621.506 -0.993174 2.37684 0
M  V30 6409 H 621.464 -2.60723 1.75701 0
M  V30 6410 N 625.236 -1.5273 0.388769 0
M  V30 6411 C 626.485 -2.00757 -0.194833 0
M  V30 6412 C 626.798 -1.27951 -1.47946 0
M  V30 6413 O 628.004 -1.66686 -2.14308 0
M  V30 6414 C 626.46 -3.57695 -0.397762 0
M  V30 6415 C 626.068 -4.394 0.873583 0
M  V30 6416 C 627.812 -4.14012 -0.937759 0
M  V30 6417 C 625.719 -5.87938 0.638962 0
M  V30 6418 H 624.649 -0.750101 -0.0765845 0
M  V30 6419 H 627.3 -1.76239 0.511086 0
M  V30 6420 H 625.682 -3.7846 -1.16552 0
M  V30 6421 H 626.856 -4.30403 1.64591 0
M  V30 6422 H 625.171 -3.94301 1.33849 0
M  V30 6423 H 627.768 -5.22645 -1.12899 0
M  V30 6424 H 628.111 -3.7007 -1.90666 0
M  V30 6425 H 628.644 -3.97137 -0.229588 0
M  V30 6426 H 625.383 -6.36202 1.57885 0
M  V30 6427 H 624.903 -5.99726 -0.094443 0
M  V30 6428 H 626.582 -6.46423 0.273299 0
M  V30 6429 N 626.714 -0.118576 -1.57153 0
M  V30 6430 C 627.939 0.550582 -1.99958 0
M  V30 6431 C 628.364 1.59458 -0.997736 0
M  V30 6432 O 627.722 1.81274 0.0306269 0
M  V30 6433 C 627.77 1.15379 -3.41643 0
M  V30 6434 O 626.874 2.26932 -3.44348 0
M  V30 6435 H 626.215 0.137567 -0.649593 0
M  V30 6436 H 628.745 -0.206926 -2.03551 0
M  V30 6437 H 628.755 1.48942 -3.79843 0
M  V30 6438 H 627.43 0.389087 -4.14076 0
M  V30 6439 H 626.007 1.94812 -3.17967 0
M  V30 6440 N 628.193 1.56834 0.155195 0
M  V30 6441 C 629.439 1.83169 0.870467 0
M  V30 6442 C 629.772 0.698929 1.81187 0
M  V30 6443 O 629.047 -0.298035 1.92203 0
M  V30 6444 C 629.33 3.19965 1.65211 0
M  V30 6445 C 629.183 4.43792 0.732744 0
M  V30 6446 C 630.502 3.53885 2.61636 0
M  V30 6447 H 627.621 0.666288 0.315006 0
M  V30 6448 H 630.263 1.89513 0.135988 0
M  V30 6449 H 628.413 3.14687 2.27825 0
M  V30 6450 H 630.085 4.61148 0.118236 0
M  V30 6451 H 628.328 4.3378 0.0417906 0
M  V30 6452 H 628.999 5.36095 1.31552 0
M  V30 6453 H 631.475 3.5972 2.09143 0
M  V30 6454 H 630.351 4.50648 3.13381 0
M  V30 6455 H 630.612 2.79418 3.42605 0
M  V30 6456 N 629.671 -0.424282 1.51781 0
M  V30 6457 C 631.082 -1.00368 1.57427 0
M  V30 6458 C 631.433 -1.91962 0.40558 0
M  V30 6459 O 630.558 -2.111 -0.47601 0
M  V30 6460 C 631.153 -1.82707 2.85313 0
M  V30 6461 C 629.712 -2.35675 2.93487 0
M  V30 6462 C 628.859 -1.1524 2.5222 0
M  V30 6463 H 631.81 -0.205064 1.5737 0
M  V30 6464 H 631.831 -2.68294 2.69812 0
M  V30 6465 H 631.343 -1.16017 3.70353 0
M  V30 6466 H 629.444 -3.05781 2.12906 0
M  V30 6467 H 629.557 -2.67578 3.97415 0
M  V30 6468 H 627.921 -1.50174 2.05718 0
M  V30 6469 H 628.704 -0.5014 3.39619 0
M  V30 6470 N 631.149 -1.42148 -0.680565 0
M  V30 6471 C 632.397 -1.42029 -1.43779 0
M  V30 6472 C 632.718 -0.0356347 -1.94967 0
M  V30 6473 O 631.988 0.924936 -1.7269 0
M  V30 6474 H 630.568 -0.522835 -0.533529 0
M  V30 6475 H 633.23 -1.7752 -0.804538 0
M  V30 6476 H 632.326 -2.11658 -2.29363 0
M  V30 6477 N 632.627 0.916307 -1.28225 0
M  V30 6478 C 633.557 2.0352 -1.14464 0
M  V30 6479 C 634.538 1.70045 -0.0430844 0
M  V30 6480 O 635.723 1.92954 -0.219619 0
M  V30 6481 C 632.853 3.37889 -0.803027 0
M  V30 6482 C 631.807 3.85516 -1.85908 0
M  V30 6483 C 631.133 5.1682 -1.37116 0
M  V30 6484 C 632.433 4.07655 -3.26519 0
M  V30 6485 H 634.127 2.1529 -2.08064 0
M  V30 6486 H 631.673 1.03446 -1.00174 0
M  V30 6487 H 633.626 4.15654 -0.693537 0
M  V30 6488 H 632.35 3.26164 0.168674 0
M  V30 6489 H 631.009 3.09953 -1.95767 0
M  V30 6490 H 630.657 5.01497 -0.38859 0
M  V30 6491 H 630.357 5.49657 -2.07728 0
M  V30 6492 H 631.881 5.97143 -1.27484 0
M  V30 6493 H 633.295 4.75953 -3.19596 0
M  V30 6494 H 631.692 4.51818 -3.94943 0
M  V30 6495 H 632.762 3.12553 -3.70727 0
M  V30 6496 N 634.105 1.10431 1.1244 0
M  V30 6497 C 635.037 0.710945 2.17895 0
M  V30 6498 C 636.05 -0.252315 1.60833 0
M  V30 6499 O 637.239 -0.03679 1.78462 0
M  V30 6500 C 634.339 0.0284262 3.38888 0
M  V30 6501 C 633.512 1.01585 4.2544 0
M  V30 6502 C 632.571 0.364826 5.24934 0
M  V30 6503 O 631.597 1.01561 5.60066 0
M  V30 6504 N 632.799 -0.87674 5.73841 0
M  V30 6505 H 635.564 1.61826 2.52255 0
M  V30 6506 H 633.125 0.993132 1.27861 0
M  V30 6507 H 635.117 -0.418568 4.0253 0
M  V30 6508 H 633.687 -0.781294 3.02679 0
M  V30 6509 H 632.907 1.64111 3.58415 0
M  V30 6510 H 634.195 1.68425 4.80115 0
M  V30 6511 H 633.593 -1.42483 5.47462 0
M  V30 6512 H 632.15 -1.26688 6.39369 0
M  V30 6513 N 635.583 -1.29855 0.893053 0
M  V30 6514 C 636.811 -1.99976 0.530788 0
M  V30 6515 C 637.226 -1.66889 -0.882799 0
M  V30 6516 O 636.583 -0.910352 -1.58173 0
M  V30 6517 C 636.634 -3.54547 0.705587 0
M  V30 6518 O 636.355 -3.86458 2.06353 0
M  V30 6519 C 637.856 -4.41937 0.347387 0
M  V30 6520 H 635.076 -0.639129 0.204339 0
M  V30 6521 H 637.62 -1.65549 1.20057 0
M  V30 6522 H 635.775 -3.87311 0.0830685 0
M  V30 6523 H 636.189 -4.81146 2.08803 0
M  V30 6524 H 637.663 -5.4954 0.520557 0
M  V30 6525 H 638.14 -4.33339 -0.715139 0
M  V30 6526 H 638.746 -4.14633 0.946567 0
M  V30 6527 N 637.061 -0.65484 -1.43351 0
M  V30 6528 C 638.009 0.0476784 -2.32551 0
M  V30 6529 C 639.003 0.811403 -1.48703 0
M  V30 6530 O 640.209 0.721621 -1.64902 0
M  V30 6531 H 636.584 0.0342038 -0.751222 0
M  V30 6532 H 638.555 -0.722342 -2.89525 0
M  V30 6533 C 637.304 0.999251 -3.33032 0
M  V30 6534 H 636.627 0.421005 -3.97577 0
M  V30 6535 H 638.067 1.45986 -3.98076 0
M  V30 6536 C 636.526 2.09606 -2.63756 0
M  V30 6537 O 637.056 3.18004 -2.4543 0
M  V30 6538 N 635.262 1.86207 -2.23103 0
M  V30 6539 H 634.809 0.980555 -2.38208 0
M  V30 6540 H 634.767 2.59787 -1.77081 0
M  V30 6541 N 638.539 1.52521 -0.396863 0
M  V30 6542 C 639.785 2.02641 0.175606 0
M  V30 6543 C 640.14 1.27782 1.43839 0
M  V30 6544 O 639.433 0.371921 1.87956 0
M  V30 6545 C 639.627 3.5403 0.489677 0
M  V30 6546 C 639.456 4.43551 -0.741113 0
M  V30 6547 C 638.226 4.8927 -1.26265 0
M  V30 6548 C 640.424 4.88263 -1.61565 0
M  V30 6549 N 638.406 5.62884 -2.4502 0
M  V30 6550 C 639.777 5.60534 -2.64955 0
M  V30 6551 C 641.832 4.70294 -1.63486 0
M  V30 6552 C 640.535 6.16744 -3.70162 0
M  V30 6553 C 642.561 5.27392 -2.67603 0
M  V30 6554 C 641.923 5.99575 -3.69715 0
M  V30 6555 H 638.022 0.781563 0.0261477 0
M  V30 6556 H 640.606 1.86816 -0.548454 0
M  V30 6557 H 638.777 3.69952 1.18279 0
M  V30 6558 H 640.509 3.90843 1.04996 0
M  V30 6559 H 637.264 4.66403 -0.822509 0
M  V30 6560 H 637.688 6.04339 -3.05128 0
M  V30 6561 H 642.33 4.13985 -0.858848 0
M  V30 6562 H 640.048 6.72131 -4.48626 0
M  V30 6563 H 643.634 5.15365 -2.69982 0
M  V30 6564 H 642.514 6.42967 -4.48958 0
M  V30 6565 N 640.017 0.126909 1.57088 0
M  V30 6566 C 641.428 -0.397201 1.82426 0
M  V30 6567 C 641.779 -1.66084 1.04453 0
M  V30 6568 O 640.904 -2.14534 0.283552 0
M  V30 6569 C 641.499 -0.727411 3.30899 0
M  V30 6570 C 640.058 -1.19612 3.56889 0
M  V30 6571 C 639.205 -0.20885 2.76512 0
M  V30 6572 H 642.156 0.351924 1.54749 0
M  V30 6573 H 642.177 -1.58407 3.45959 0
M  V30 6574 H 641.689 0.19247 3.87622 0
M  V30 6575 H 639.79 -2.13263 3.05532 0
M  V30 6576 H 639.903 -1.13598 4.65438 0
M  V30 6577 H 638.267 -0.697479 2.44964 0
M  V30 6578 H 639.05 0.704267 3.35998 0
M  V30 6579 N 641.495 -1.56914 -0.146875 0
M  V30 6580 C 642.427 -1.94878 -1.20645 0
M  V30 6581 C 643.44 -0.844633 -1.39175 0
M  V30 6582 O 644.629 -1.12304 -1.38744 0
M  V30 6583 C 641.729 -2.20769 -2.57127 0
M  V30 6584 C 640.902 -3.52053 -2.59572 0
M  V30 6585 C 639.961 -3.66482 -3.77594 0
M  V30 6586 O 638.987 -4.38873 -3.62462 0
M  V30 6587 N 640.189 -3.03156 -4.95052 0
M  V30 6588 H 642.954 -2.86374 -0.883757 0
M  V30 6589 H 640.515 -1.58366 -0.336436 0
M  V30 6590 H 642.507 -2.27664 -3.34591 0
M  V30 6591 H 641.077 -1.35538 -2.81688 0
M  V30 6592 H 640.297 -3.56598 -1.68023 0
M  V30 6593 H 641.585 -4.38396 -2.58238 0
M  V30 6594 H 640.983 -2.44258 -5.10249 0
M  V30 6595 H 639.54 -3.15611 -5.70292 0
M  V30 6596 N 642.974 0.416227 -1.52004 0
M  V30 6597 C 644.199 1.19029 -1.69843 0
M  V30 6598 C 644.624 1.83708 -0.404103 0
M  V30 6599 O 643.982 1.69711 0.637787 0
M  V30 6600 C 644.03 2.23439 -2.83032 0
M  V30 6601 O 643.134 3.29419 -2.48106 0
M  V30 6602 H 642.475 0.347785 -0.565634 0
M  V30 6603 H 645.005 0.488871 -1.98674 0
M  V30 6604 H 645.015 2.67884 -3.07737 0
M  V30 6605 H 643.69 1.75745 -3.76944 0
M  V30 6606 H 642.267 2.90303 -2.34048 0
M  V30 6607 N 644.452 1.42507 0.673017 0
M  V30 6608 C 645.677 1.4668 1.46627 0
M  V30 6609 C 646.102 0.080066 1.8793 0
M  V30 6610 O 645.46 -0.921879 1.56112 0
M  V30 6611 C 645.508 2.40091 2.69051 0
M  V30 6612 O 644.612 1.8735 3.67387 0
M  V30 6613 H 643.953 0.496908 0.44043 0
M  V30 6614 H 646.483 1.87215 0.825334 0
M  V30 6615 H 646.493 2.56731 3.17101 0
M  V30 6616 H 645.168 3.4084 2.3833 0
M  V30 6617 H 643.745 1.80274 3.26429 0
M  V30 6618 N 645.93 -0.909495 1.28709 0
M  V30 6619 C 647.155 -1.69801 1.1909 0
M  V30 6620 C 647.58 -1.86479 -0.246388 0
M  V30 6621 O 646.938 -1.37802 -1.17815 0
M  V30 6622 C 646.986 -3.06543 1.89904 0
M  V30 6623 O 646.09 -3.94268 1.2094 0
M  V30 6624 H 645.431 -0.519783 0.413185 0
M  V30 6625 H 647.961 -1.13689 1.70106 0
M  V30 6626 H 647.971 -3.56748 1.97977 0
M  V30 6627 H 646.646 -2.93722 2.94449 0
M  V30 6628 H 645.223 -3.52702 1.2106 0
M  V30 6629 N 647.408 -1.11026 -1.11852 0
M  V30 6630 C 648.371 -0.768006 -2.1595 0
M  V30 6631 C 649.371 0.210538 -1.59416 0
M  V30 6632 O 650.561 -0.0133978 -1.74195 0
M  V30 6633 C 647.693 -0.138678 -3.40618 0
M  V30 6634 H 648.886 -1.69012 -2.4774 0
M  V30 6635 H 646.439 -0.911578 -1.26964 0
M  V30 6636 H 647.174 0.793872 -3.14433 0
M  V30 6637 H 646.959 -0.843012 -3.8293 0
M  V30 6638 H 648.449 0.0848039 -4.17514 0
M  V30 6639 N 648.886 1.2938 -0.899927 0
M  V30 6640 C 650.297 1.77644 -0.574427 0
M  V30 6641 C 650.648 1.73824 0.909928 0
M  V30 6642 O 649.773 1.32429 1.71147 0
M  V30 6643 C 650.368 3.22573 -1.03595 0
M  V30 6644 C 648.927 3.68614 -0.76161 0
M  V30 6645 C 648.074 2.49483 -1.21052 0
M  V30 6646 H 651.025 1.16038 -1.08263 0
M  V30 6647 H 651.046 3.78684 -0.371337 0
M  V30 6648 H 650.558 3.25321 -2.11631 0
M  V30 6649 H 648.659 3.7134 0.306127 0
M  V30 6650 H 648.772 4.59402 -1.35965 0
M  V30 6651 H 647.136 2.46798 -0.629515 0
M  V30 6652 H 647.919 2.54959 -2.29893 0
M  V30 6653 N 650.364 0.662433 1.43002 0
M  V30 6654 C 651.327 -0.0142016 2.29196 0
M  V30 6655 C 652.327 -0.741394 1.42688 0
M  V30 6656 O 653.517 -0.581257 1.64216 0
M  V30 6657 C 650.649 -1.03084 3.24941 0
M  V30 6658 H 651.842 0.7443 2.90517 0
M  V30 6659 H 649.395 0.424133 1.50435 0
M  V30 6660 H 650.13 -1.81826 2.68533 0
M  V30 6661 H 649.915 -0.512946 3.8873 0
M  V30 6662 H 651.405 -1.50308 3.89612 0
M  V30 6663 N 651.842 -1.52309 0.404946 0
M  V30 6664 C 652.774 -2.24579 -0.45791 0
M  V30 6665 C 653.787 -1.2739 -1.01369 0
M  V30 6666 O 654.976 -1.53363 -0.91335 0
M  V30 6667 C 652.076 -2.9608 -1.64893 0
M  V30 6668 C 651.249 -4.20106 -1.21777 0
M  V30 6669 C 650.308 -4.74468 -2.27523 0
M  V30 6670 O 649.334 -5.37157 -1.88285 0
M  V30 6671 N 650.536 -4.55678 -3.59635 0
M  V30 6672 H 653.301 -2.99265 0.161341 0
M  V30 6673 H 650.862 -1.60228 0.232107 0
M  V30 6674 H 652.854 -3.29344 -2.35191 0
M  V30 6675 H 651.424 -2.24606 -2.17419 0
M  V30 6676 H 650.644 -3.92704 -0.343071 0
M  V30 6677 H 651.932 -5.00658 -0.906596 0
M  V30 6678 H 651.33 -4.05673 -3.94266 0
M  V30 6679 H 649.887 -4.9339 -4.25922 0
M  V30 6680 N 653.32 -0.135238 -1.57019 0
M  V30 6681 C 654.545 0.529343 -2.00531 0
M  V30 6682 C 654.97 1.58391 -1.01459 0
M  V30 6683 O 654.328 1.81296 0.0113986 0
M  V30 6684 C 654.376 1.11748 -3.42848 0
M  V30 6685 O 653.48 2.23267 -3.46736 0
M  V30 6686 H 652.821 0.130669 -0.651016 0
M  V30 6687 H 655.351 -0.228503 -2.0332 0
M  V30 6688 H 655.361 1.44905 -3.81401 0
M  V30 6689 H 654.036 0.345147 -4.14465 0
M  V30 6690 H 652.613 1.91428 -3.20015 0
M  V30 6691 N 654.798 1.5699 0.138552 0
M  V30 6692 C 656.023 1.88344 0.86841 0
M  V30 6693 C 656.448 0.725159 1.7356 0
M  V30 6694 O 655.806 -0.324992 1.78363 0
M  V30 6695 C 655.854 3.18334 1.69398 0
M  V30 6696 O 654.958 3.02863 2.79907 0
M  V30 6697 H 654.299 0.618577 0.241367 0
M  V30 6698 H 656.829 2.04207 0.126826 0
M  V30 6699 H 656.839 3.50567 2.08726 0
M  V30 6700 H 655.514 4.02238 1.05725 0
M  V30 6701 H 654.091 2.82056 2.43924 0
M  V30 6702 N 656.276 -0.40816 1.52223 0
M  V30 6703 C 657.687 -0.986929 1.58482 0
M  V30 6704 C 658.038 -1.91521 0.425917 0
M  V30 6705 O 657.163 -2.11593 -0.453593 0
M  V30 6706 C 657.758 -1.7967 2.87235 0
M  V30 6707 C 656.317 -2.32549 2.9597 0
M  V30 6708 C 655.464 -1.12558 2.53428 0
M  V30 6709 H 658.415 -0.188362 1.57578 0
M  V30 6710 H 658.436 -2.65417 2.72642 0
M  V30 6711 H 657.948 -1.12082 3.71563 0
M  V30 6712 H 656.049 -3.03505 2.16137 0
M  V30 6713 H 656.162 -2.63348 4.00231 0
M  V30 6714 H 654.526 -1.47984 2.07299 0
M  V30 6715 H 655.309 -0.465351 3.40131 0
M  V30 6716 N 657.755 -1.42862 -0.66545 0
M  V30 6717 C 658.98 -1.47456 -1.45848 0
M  V30 6718 C 659.405 -0.0900312 -1.87884 0
M  V30 6719 O 658.763 0.913587 -1.56599 0
M  V30 6720 C 658.811 -2.41514 -2.67774 0
M  V30 6721 O 657.915 -1.89296 -3.66389 0
M  V30 6722 H 657.256 -0.499236 -0.437789 0
M  V30 6723 H 659.786 -1.8765 -0.815394 0
M  V30 6724 H 659.796 -2.58409 -3.15735 0
M  V30 6725 H 658.471 -3.42099 -2.36519 0
M  V30 6726 H 657.048 -1.82003 -3.25468 0
M  V30 6727 N 659.233 0.902656 -1.29189 0
M  V30 6728 C 660.458 1.69167 -1.19989 0
M  V30 6729 C 660.883 1.86607 0.236495 0
M  V30 6730 O 660.241 1.38425 1.17082 0
M  V30 6731 C 660.289 3.05532 -1.91527 0
M  V30 6732 O 659.393 3.93621 -1.2303 0
M  V30 6733 H 658.734 0.517584 -0.415936 0
M  V30 6734 H 661.264 1.12785 -1.70706 0
M  V30 6735 H 661.274 3.55693 -1.99866 0
M  V30 6736 H 659.949 2.92156 -2.96003 0
M  V30 6737 H 658.526 3.52055 -1.22928 0
M  V30 6738 N 660.711 1.11618 1.11262 0
M  V30 6739 C 661.959 0.864469 1.82678 0
M  V30 6740 C 662.28 -0.611564 1.85162 0
M  V30 6741 O 661.55 -1.44429 1.32352 0
M  V30 6742 H 660.13 0.316821 0.676486 0
M  V30 6743 H 662.792 1.40894 1.34666 0
M  V30 6744 H 661.888 1.23832 2.86482 0
M  V30 6745 N 662.189 -1.289 0.906776 0
M  V30 6746 C 663.139 -2.25122 0.361109 0
M  V30 6747 C 664.123 -1.52169 -0.52283 0
M  V30 6748 O 665.315 -1.73223 -0.363691 0
M  V30 6749 C 662.444 -3.40915 -0.403982 0
M  V30 6750 C 661.53 -4.21198 0.495279 0
M  V30 6751 N 661.921 -4.79636 1.60572 0
M  V30 6752 C 660.219 -4.45027 0.294372 0
M  V30 6753 C 660.92 -5.39977 2.16332 0
M  V30 6754 N 659.896 -5.23753 1.45546 0
M  V30 6755 H 663.698 -2.67869 1.20927 0
M  V30 6756 H 661.212 -1.43592 0.758632 0
M  V30 6757 H 663.209 -4.08922 -0.811695 0
M  V30 6758 H 661.869 -2.99703 -1.24932 0
M  V30 6759 H 662.88 -4.78209 1.98838 0
M  V30 6760 H 659.557 -4.14348 -0.512021 0
M  V30 6761 H 660.947 -5.96266 3.09704 0
M  V30 6762 N 663.667 -0.670007 -1.42649 0
M  V30 6763 C 664.577 0.0114788 -2.34597 0
M  V30 6764 C 665.593 0.794055 -1.54825 0
M  V30 6765 O 666.769 0.737472 -1.87412 0
M  V30 6766 C 663.834 0.954436 -3.33304 0
M  V30 6767 C 662.895 0.166925 -4.28975 0
M  V30 6768 C 662.128 1.06497 -5.22967 0
M  V30 6769 O 662.351 2.30446 -5.21777 0
M  V30 6770 O 661.285 0.528347 -5.99577 0
M  V30 6771 H 665.111 -0.745794 -2.944 0
M  V30 6772 H 662.696 -0.430228 -1.43071 0
M  V30 6773 H 664.578 1.49589 -3.93956 0
M  V30 6774 H 663.253 1.69164 -2.7598 0
M  V30 6775 H 662.16 -0.418515 -3.71752 0
M  V30 6776 H 663.493 -0.531067 -4.89327 0
M  V30 6777 N 665.145 1.52092 -0.413018 0
M  V30 6778 C 666.394 2.01041 0.16287 0
M  V30 6779 C 666.707 1.30288 1.45892 0
M  V30 6780 O 667.913 1.70075 2.11629 0
M  V30 6781 C 666.369 3.58283 0.340806 0
M  V30 6782 C 665.977 4.37955 -0.943377 0
M  V30 6783 C 667.721 4.15452 0.871774 0
M  V30 6784 C 665.628 5.86847 -0.732417 0
M  V30 6785 H 664.558 0.751224 0.0646414 0
M  V30 6786 H 667.209 1.75404 -0.539059 0
M  V30 6787 H 665.591 3.80266 1.10516 0
M  V30 6788 H 666.765 4.2773 -1.71418 0
M  V30 6789 H 665.08 3.92122 -1.40105 0
M  V30 6790 H 667.677 5.24375 1.0457 0
M  V30 6791 H 668.02 3.73057 1.84755 0
M  V30 6792 H 668.553 3.97452 0.166377 0
M  V30 6793 H 665.292 6.33609 -1.67986 0
M  V30 6794 H 664.812 5.998 -0.000980058 0
M  V30 6795 H 666.491 6.45906 -0.376105 0
M  V30 6796 N 666.623 0.143563 1.56945 0
M  V30 6797 C 668.034 -0.37783 1.82837 0
M  V30 6798 C 668.385 -1.64967 1.06209 0
M  V30 6799 O 667.51 -2.14221 0.306291 0
M  V30 6800 C 668.105 -0.692274 3.31652 0
M  V30 6801 C 666.664 -1.1582 3.58138 0
M  V30 6802 C 665.811 -0.17951 2.76718 0
M  V30 6803 H 668.762 0.368317 1.54367 0
M  V30 6804 H 668.783 -1.54729 3.47619 0
M  V30 6805 H 668.295 0.233572 3.87397 0
M  V30 6806 H 666.396 -2.10011 3.07776 0
M  V30 6807 H 666.509 -1.08655 4.66616 0
M  V30 6808 H 664.873 -0.671458 2.4569 0
M  V30 6809 H 665.656 0.739865 3.35233 0
M  V30 6810 N 668.101 -1.57061 -0.130224 0
M  V30 6811 C 669.329 -1.88432 -0.854456 0
M  V30 6812 C 669.744 -0.733608 -1.73964 0
M  V30 6813 O 669.101 0.296029 -1.80083 0
M  V30 6814 C 669.152 -3.1918 -1.69724 0
M  V30 6815 O 668.873 -4.2982 -0.847705 0
M  V30 6816 C 670.374 -3.6418 -2.5276 0
M  V30 6817 H 667.594 -0.624193 -0.246221 0
M  V30 6818 H 670.138 -2.04159 -0.11798 0
M  V30 6819 H 668.293 -3.05156 -2.3866 0
M  V30 6820 H 668.707 -5.04689 -1.42792 0
M  V30 6821 H 670.181 -4.58457 -3.07443 0
M  V30 6822 H 670.658 -2.90285 -3.29592 0
M  V30 6823 H 671.264 -3.80954 -1.89087 0
M  V30 6824 N 669.579 0.400081 -1.52437 0
M  V30 6825 C 670.825 1.14456 -1.68141 0
M  V30 6826 C 671.18 1.87965 -0.410722 0
M  V30 6827 O 670.473 1.82121 0.595195 0
M  V30 6828 C 670.667 2.15914 -2.84808 0
M  V30 6829 C 670.496 1.5237 -4.231 0
M  V30 6830 C 669.266 1.29252 -4.8849 0
M  V30 6831 C 671.464 0.979722 -5.04882 0
M  V30 6832 N 669.446 0.616955 -6.10792 0
M  V30 6833 C 670.817 0.43159 -6.18496 0
M  V30 6834 C 672.872 0.875059 -4.9015 0
M  V30 6835 C 671.575 -0.210958 -7.18991 0
M  V30 6836 C 673.601 0.246351 -5.90887 0
M  V30 6837 C 672.963 -0.291062 -7.03798 0
M  V30 6838 H 669.062 0.405181 -0.668844 0
M  V30 6839 H 671.646 0.435655 -1.89763 0
M  V30 6840 H 669.817 2.84154 -2.64785 0
M  V30 6841 H 671.549 2.8279 -2.89503 0
M  V30 6842 H 668.304 1.56451 -4.47012 0
M  V30 6843 H 668.728 0.295536 -6.76355 0
M  V30 6844 H 673.37 1.27636 -4.03074 0
M  V30 6845 H 671.088 -0.6243 -8.05685 0
M  V30 6846 H 674.674 0.166765 -5.81561 0
M  V30 6847 H 673.554 -0.76988 -7.80412 0
M  V30 6848 N 671.057 1.43213 0.657864 0
M  V30 6849 C 671.989 1.43974 1.78337 0
M  V30 6850 C 673.002 0.336482 1.59285 0
M  V30 6851 O 674.191 0.600631 1.68091 0
M  V30 6852 C 671.291 1.23242 3.15697 0
M  V30 6853 C 670.464 2.46319 3.61449 0
M  V30 6854 C 669.523 2.2088 4.77597 0
M  V30 6855 O 668.549 2.942 4.87273 0
M  V30 6856 N 669.751 1.22251 5.67481 0
M  V30 6857 H 672.516 2.40993 1.78164 0
M  V30 6858 H 670.077 1.3831 0.841549 0
M  V30 6859 H 672.069 1.04113 3.91079 0
M  V30 6860 H 670.639 0.346849 3.1067 0
M  V30 6861 H 669.859 2.80904 2.76563 0
M  V30 6862 H 671.147 3.28239 3.88763 0
M  V30 6863 H 670.545 0.616433 5.62331 0
M  V30 6864 H 669.102 1.09107 6.42603 0
M  V30 6865 N 672.536 -0.895792 1.29666 0
M  V30 6866 C 673.947 -1.46195 1.1612 0
M  V30 6867 C 674.298 -1.94699 -0.242195 0
M  V30 6868 O 673.423 -1.8406 -1.13802 0
M  V30 6869 C 674.018 -2.65718 2.10189 0
M  V30 6870 C 672.577 -3.18458 2.00653 0
M  V30 6871 C 671.724 -1.91149 2.00891 0
M  V30 6872 H 674.675 -0.706756 1.42094 0
M  V30 6873 H 674.696 -3.4158 1.6764 0
M  V30 6874 H 674.208 -2.30386 3.12321 0
M  V30 6875 H 672.309 -3.58474 1.01623 0
M  V30 6876 H 672.422 -3.82491 2.88509 0
M  V30 6877 H 670.786 -2.09021 1.45542 0
M  V30 6878 H 671.569 -1.58089 3.04734 0
M  V30 6879 N 674.014 -1.12206 -1.10668 0
M  V30 6880 C 674.962 -0.782918 -2.19028 0
M  V30 6881 C 675.956 0.229175 -1.67843 0
M  V30 6882 O 677.162 0.0876295 -1.79787 0
M  V30 6883 H 673.537 -0.235339 -0.714227 0
M  V30 6884 H 675.508 -1.70527 -2.44874 0
M  V30 6885 C 674.257 -0.25116 -3.46792 0
M  V30 6886 H 673.58 -1.02123 -3.86537 0
M  V30 6887 H 675.02 -0.0521409 -4.23968 0
M  V30 6888 C 673.479 1.02037 -3.21076 0
M  V30 6889 O 674.009 2.09862 -3.42522 0
M  V30 6890 N 672.215 0.946348 -2.74759 0
M  V30 6891 H 671.762 0.068777 -2.57508 0
M  V30 6892 H 671.72 1.79775 -2.57931 0
M  V30 6893 N 675.492 1.28418 -0.913599 0
M  V30 6894 C 676.741 1.94265 -0.542572 0
M  V30 6895 C 677.054 1.72709 0.918207 0
M  V30 6896 O 678.26 2.32778 1.39738 0
M  V30 6897 C 676.716 3.47956 -0.919507 0
M  V30 6898 C 676.324 3.78291 -2.4 0
M  V30 6899 C 678.068 4.19962 -0.619057 0
M  V30 6900 C 675.975 5.2529 -2.71707 0
M  V30 6901 H 674.905 0.727213 -0.199192 0
M  V30 6902 H 677.556 1.45931 -1.11249 0
M  V30 6903 H 675.938 3.9502 -0.278372 0
M  V30 6904 H 677.112 3.42035 -3.08786 0
M  V30 6905 H 675.427 3.19456 -2.67089 0
M  V30 6906 H 678.024 5.28178 -0.832623 0
M  V30 6907 H 678.367 4.13935 0.443126 0
M  V30 6908 H 678.9 3.78674 -1.21865 0
M  V30 6909 H 675.639 5.36394 -3.76778 0
M  V30 6910 H 675.159 5.62743 -2.07559 0
M  V30 6911 H 676.838 5.93027 -2.58703 0
M  V30 6912 N 676.97 0.677563 1.42291 0
M  V30 6913 C 678.381 0.277912 1.8462 0
M  V30 6914 C 678.732 -1.18048 1.56714 0
M  V30 6915 O 677.857 -1.90404 1.02836 0
M  V30 6916 C 678.452 0.497619 3.35126 0
M  V30 6917 C 677.011 0.152063 3.76093 0
M  V30 6918 C 676.158 0.78872 2.65847 0
M  V30 6919 H 679.109 0.879527 1.32098 0
M  V30 6920 H 679.13 -0.24939 3.79682 0
M  V30 6921 H 678.642 1.55913 3.55405 0
M  V30 6922 H 676.743 -0.905896 3.6142 0
M  V30 6923 H 676.856 0.594514 4.75397 0
M  V30 6924 H 675.22 0.219813 2.5375 0
M  V30 6925 H 676.003 1.85374 2.88949 0
M  V30 6926 N 678.448 -1.51871 0.421078 0
M  V30 6927 C 679.694 -2.02237 -0.151014 0
M  V30 6928 C 680.027 -1.30554 -1.43768 0
M  V30 6929 O 679.302 -0.41546 -1.90011 0
M  V30 6930 C 679.585 -3.5802 -0.386482 0
M  V30 6931 C 679.438 -4.40339 0.9177 0
M  V30 6932 C 680.757 -4.24444 -1.16342 0
M  V30 6933 H 677.876 -0.735062 -0.0534102 0
M  V30 6934 H 680.518 -1.81656 0.556888 0
M  V30 6935 H 678.668 -3.75688 -0.989494 0
M  V30 6936 H 680.34 -4.34357 1.55344 0
M  V30 6937 H 678.583 -4.06073 1.526 0
M  V30 6938 H 679.254 -5.47451 0.707187 0
M  V30 6939 H 681.73 -4.10948 -0.652788 0
M  V30 6940 H 680.606 -5.33358 -1.29693 0
M  V30 6941 H 680.867 -3.84204 -2.18724 0
M  V30 6942 N 679.926 -0.151884 -1.56866 0
M  V30 6943 C 681.342 0.204486 -1.58285 0
M  V30 6944 C 681.542 1.6431 -1.16639 0
M  V30 6945 O 680.598 2.37077 -0.868946 0
M  V30 6946 C 681.911 -0.0587019 -3.00643 0
M  V30 6947 C 683.459 0.00462303 -3.13 0
M  V30 6948 C 683.934 -0.231297 -4.57416 0
M  V30 6949 N 685.425 -0.178394 -4.62856 0
M  V30 6950 C 686.16 -0.335379 -5.72418 0
M  V30 6951 N 685.656 -0.550355 -6.90611 0
M  V30 6952 N 687.449 -0.272641 -5.61438 0
M  V30 6953 H 679.6 -1.09116 -1.82229 0
M  V30 6954 H 681.863 -0.432311 -0.843689 0
M  V30 6955 H 681.569 -1.05453 -3.35518 0
M  V30 6956 H 681.443 0.658508 -3.71407 0
M  V30 6957 H 683.83 0.991009 -2.77962 0
M  V30 6958 H 683.911 -0.744992 -2.44711 0
M  V30 6959 H 683.555 -1.2148 -4.93158 0
M  V30 6960 H 683.485 0.5387 -5.23837 0
M  V30 6961 H 685.976 -0.0170923 -3.77896 0
M  V30 6962 H 686.289 -0.660116 -7.69976 0
M  V30 6963 H 684.634 -0.586736 -6.92519 0
M  V30 6964 H 687.825 -0.105421 -4.67981 0
M  V30 6965 H 687.998 -0.398418 -6.46774 0
M  V30 6966 N 681.404 1.57128 0.121893 0
M  V30 6967 C 682.629 1.89254 0.848385 0
M  V30 6968 C 683.054 0.743527 1.72781 0
M  V30 6969 O 682.412 -0.306056 1.78698 0
M  V30 6970 C 682.46 3.20113 1.66012 0
M  V30 6971 O 681.564 3.05815 2.76679 0
M  V30 6972 H 680.905 0.621103 0.234793 0
M  V30 6973 H 683.435 2.0433 0.10516 0
M  V30 6974 H 683.445 3.52761 2.04996 0
M  V30 6975 H 682.12 4.03336 1.01452 0
M  V30 6976 H 680.697 2.84627 2.40918 0
M  V30 6977 N 682.882 -0.391992 1.52647 0
M  V30 6978 C 683.83 -1.4991 1.77848 0
M  V30 6979 C 684.824 -1.56587 0.646282 0
M  V30 6980 O 686.03 -1.59789 0.828698 0
M  V30 6981 H 682.405 -0.498883 0.56269 0
M  V30 6982 H 684.376 -1.25847 2.70564 0
M  V30 6983 C 683.125 -2.87081 1.96163 0
M  V30 6984 H 682.448 -2.82692 2.82711 0
M  V30 6985 H 683.888 -3.63792 2.17787 0
M  V30 6986 C 682.347 -3.28822 0.733348 0
M  V30 6987 O 682.877 -4.01598 -0.0906481 0
M  V30 6988 N 681.083 -2.85068 0.564317 0
M  V30 6989 H 680.63 -2.26012 1.23598 0
M  V30 6990 H 680.588 -3.13355 -0.256166 0
M  V30 6991 N 684.36 -1.4356 -0.65026 0
M  V30 6992 C 685.585 -1.48995 -1.44275 0
M  V30 6993 C 686.01 -0.109954 -1.87778 0
M  V30 6994 O 685.368 0.896926 -1.57559 0
M  V30 6995 C 685.416 -2.44341 -2.65198 0
M  V30 6996 O 684.52 -1.93172 -3.6436 0
M  V30 6997 H 683.861 -0.503852 -0.432469 0
M  V30 6998 H 686.391 -1.88504 -0.795446 0
M  V30 6999 H 686.401 -2.61743 -3.12977 0
M  V30 7000 H 685.076 -3.44588 -2.32877 0
M  V30 7001 H 683.653 -1.85445 -3.23519 0
M  V30 7002 N 685.838 0.888903 -1.30139 0
M  V30 7003 C 687.085 1.64037 -1.18736 0
M  V30 7004 C 687.413 1.92771 0.258801 0
M  V30 7005 O 686.668 1.54427 1.20212 0
M  V30 7006 C 686.967 2.99041 -1.95728 0
M  V30 7007 C 686.633 2.89874 -3.45375 0
M  V30 7008 C 685.295 2.87082 -3.86183 0
M  V30 7009 C 687.647 2.78289 -4.40687 0
M  V30 7010 C 684.975 2.70536 -5.20603 0
M  V30 7011 C 687.327 2.63282 -5.75209 0
M  V30 7012 C 685.991 2.58861 -6.15262 0
M  V30 7013 H 685.261 0.600253 -0.434485 0
M  V30 7014 H 687.908 1.0338 -1.61198 0
M  V30 7015 H 686.213 3.63626 -1.45888 0
M  V30 7016 H 687.91 3.56139 -1.843 0
M  V30 7017 H 684.5 2.92856 -3.12943 0
M  V30 7018 H 688.684 2.79516 -4.10103 0
M  V30 7019 H 683.94 2.65526 -5.50732 0
M  V30 7020 H 688.114 2.5329 -6.48704 0
M  V30 7021 H 685.741 2.45799 -7.19366 0
M  V30 7022 N 687.317 1.12792 1.10072 0
M  V30 7023 C 688.265 0.794523 2.18609 0
M  V30 7024 C 689.259 -0.220271 1.67962 0
M  V30 7025 O 690.465 -0.0780938 1.79831 0
M  V30 7026 H 686.84 0.239123 0.712969 0
M  V30 7027 H 688.811 1.71823 2.43966 0
M  V30 7028 C 687.56 0.269548 3.46654 0
M  V30 7029 H 686.883 1.04171 3.8599 0
M  V30 7030 H 688.323 0.0746242 4.23934 0
M  V30 7031 C 686.782 -1.00333 3.21613 0
M  V30 7032 O 687.312 -2.08042 3.4363 0
M  V30 7033 N 685.518 -0.931763 2.75257 0
M  V30 7034 H 685.065 -0.0551197 2.57541 0
M  V30 7035 H 685.023 -1.78405 2.58881 0
M  V30 7036 N 688.795 -1.27931 0.920396 0
M  V30 7037 C 689.743 -2.29061 0.404191 0
M  V30 7038 C 690.737 -1.61615 -0.507634 0
M  V30 7039 O 691.943 -1.75765 -0.388144 0
M  V30 7040 H 688.318 -0.743594 0.112123 0
M  V30 7041 H 690.289 -2.70021 1.27008 0
M  V30 7042 C 689.038 -3.46088 -0.334466 0
M  V30 7043 H 688.361 -3.98194 0.35797 0
M  V30 7044 H 689.801 -4.18829 -0.660196 0
M  V30 7045 C 688.26 -2.99396 -1.54479 0
M  V30 7046 O 688.79 -3.02439 -2.64374 0
M  V30 7047 N 686.996 -2.54978 -1.39408 0
M  V30 7048 H 686.543 -2.52701 -0.500009 0
M  V30 7049 H 686.501 -2.24098 -2.20516 0
M  V30 7050 N 690.273 -0.685099 -1.4193 0
M  V30 7051 C 691.684 -0.287699 -1.8447 0
M  V30 7052 C 692.035 1.17215 -1.57338 0
M  V30 7053 O 691.16 1.89856 -1.03845 0
M  V30 7054 C 691.755 -0.515385 -3.34857 0
M  V30 7055 C 690.314 -0.172006 -3.76007 0
M  V30 7056 C 689.461 -0.802808 -2.65425 0
M  V30 7057 H 692.412 -0.88652 -1.3163 0
M  V30 7058 H 692.433 0.229251 -3.79809 0
M  V30 7059 H 691.945 -1.57796 -3.54573 0
M  V30 7060 H 690.046 0.886716 -3.61895 0
M  V30 7061 H 690.159 -0.619717 -4.75075 0
M  V30 7062 H 688.523 -0.233267 -2.5363 0
M  V30 7063 H 689.306 -1.86904 -2.87961 0
M  V30 7064 N 691.751 1.51645 -0.429126 0
M  V30 7065 C 692.681 2.30434 0.377148 0
M  V30 7066 C 693.662 1.35493 1.02838 0
M  V30 7067 O 694.847 1.6441 1.03359 0
M  V30 7068 C 691.977 3.14038 1.48315 0
M  V30 7069 C 690.931 4.1719 0.955855 0
M  V30 7070 C 690.257 4.89263 2.15698 0
M  V30 7071 C 691.557 5.223 -0.00402136 0
M  V30 7072 H 693.251 2.98085 -0.280336 0
M  V30 7073 H 690.797 1.43354 -0.136265 0
M  V30 7074 H 692.75 3.67933 2.05435 0
M  V30 7075 H 691.474 2.44193 2.16881 0
M  V30 7076 H 690.133 3.64335 0.406929 0
M  V30 7077 H 689.781 4.15929 2.82864 0
M  V30 7078 H 689.481 5.59009 1.81059 0
M  V30 7079 H 691.005 5.45978 2.73387 0
M  V30 7080 H 692.419 5.71315 0.476607 0
M  V30 7081 H 690.816 5.99525 -0.26258 0
M  V30 7082 H 691.886 4.75638 -0.943236 0
M  V30 7083 N 693.229 0.160201 1.56784 0
M  V30 7084 C 694.477 -0.486625 1.96154 0
M  V30 7085 C 694.798 -1.64525 1.04673 0
M  V30 7086 O 694.068 -1.95586 0.110864 0
M  V30 7087 H 692.648 -0.182764 0.724297 0
M  V30 7088 H 695.31 0.238787 1.93432 0
M  V30 7089 H 694.406 -0.854025 3.00188 0
M  V30 7090 N 694.707 -1.5719 -0.113559 0
M  V30 7091 C 695.655 -2.01725 -1.158 0
M  V30 7092 C 696.649 -0.915105 -1.42556 0
M  V30 7093 O 697.855 -1.10031 -1.42454 0
M  V30 7094 H 694.23 -0.64262 -0.390569 0
M  V30 7095 H 696.201 -2.88666 -0.755926 0
M  V30 7096 C 694.95 -2.44203 -2.47507 0
M  V30 7097 H 694.273 -3.28582 -2.27758 0
M  V30 7098 H 695.713 -2.79158 -3.19135 0
M  V30 7099 C 694.172 -1.30785 -3.10478 0
M  V30 7100 O 694.702 -0.626807 -3.9678 0
M  V30 7101 N 692.908 -1.06352 -2.7044 0
M  V30 7102 H 692.455 -1.61913 -2.00355 0
M  V30 7103 H 692.413 -0.306614 -3.12901 0
M  V30 7104 N 696.185 0.383891 -1.52853 0
M  V30 7105 C 697.601 0.724316 -1.42218 0
M  V30 7106 C 697.801 1.93943 -0.546654 0
M  V30 7107 O 696.857 2.5249 -0.0220562 0
M  V30 7108 C 698.17 0.954635 -2.85144 0
M  V30 7109 C 699.718 1.05579 -2.94656 0
M  V30 7110 C 700.193 1.3187 -4.38605 0
M  V30 7111 N 701.684 1.38681 -4.41952 0
M  V30 7112 C 702.419 1.60699 -5.50421 0
M  V30 7113 N 701.915 1.80154 -6.68967 0
M  V30 7114 N 703.708 1.6292 -5.37972 0
M  V30 7115 H 695.859 -0.4156 -2.08294 0
M  V30 7116 H 698.122 -0.123776 -0.939885 0
M  V30 7117 H 697.828 0.133829 -3.51445 0
M  V30 7118 H 697.702 1.86788 -3.27704 0
M  V30 7119 H 700.089 1.86716 -2.2852 0
M  V30 7120 H 700.17 0.120338 -2.55517 0
M  V30 7121 H 699.814 0.512416 -5.05309 0
M  V30 7122 H 699.744 2.26708 -4.75301 0
M  V30 7123 H 702.235 1.25334 -3.56511 0
M  V30 7124 H 702.548 1.96476 -7.47407 0
M  V30 7125 H 700.893 1.77368 -6.71986 0
M  V30 7126 H 704.084 1.47276 -4.44328 0
M  V30 7127 H 704.257 1.79739 -6.22574 0
M  V30 7128 N 697.663 1.43903 0.642637 0
M  V30 7129 C 698.626 1.49538 1.73698 0
M  V30 7130 C 699.626 0.378776 1.56275 0
M  V30 7131 O 700.816 0.64095 1.6198 0
M  V30 7132 C 697.948 1.35821 3.12675 0
M  V30 7133 H 699.141 2.47008 1.70079 0
M  V30 7134 H 696.694 1.30824 0.85526 0
M  V30 7135 H 697.429 0.393994 3.21898 0
M  V30 7136 H 697.214 2.16776 3.26727 0
M  V30 7137 H 698.704 1.4272 3.92455 0
M  V30 7138 N 699.141 -0.881989 1.30609 0
M  V30 7139 C 700.366 -1.67236 1.22665 0
M  V30 7140 C 700.791 -1.8696 -0.206777 0
M  V30 7141 O 700.149 -1.4027 -1.14865 0
M  V30 7142 C 700.197 -3.02446 1.96363 0
M  V30 7143 O 699.301 -3.91614 1.29276 0
M  V30 7144 H 698.642 -0.510902 0.424117 0
M  V30 7145 H 701.172 -1.10055 1.72479 0
M  V30 7146 H 701.182 -3.52468 2.055 0
M  V30 7147 H 699.857 -2.8741 3.00613 0
M  V30 7148 H 698.434 -3.50055 1.28514 0
M  V30 7149 N 700.619 -1.13374 -1.09472 0
M  V30 7150 C 701.569 -0.77946 -2.14263 0
M  V30 7151 C 702.553 0.226271 -1.59301 0
M  V30 7152 O 703.745 0.0302581 -1.76974 0
M  V30 7153 C 700.874 -0.246635 -3.42413 0
M  V30 7154 C 699.96 -1.28124 -4.04283 0
M  V30 7155 N 700.351 -2.48201 -4.40715 0
M  V30 7156 C 698.649 -1.12892 -4.31476 0
M  V30 7157 C 699.35 -3.14347 -4.8945 0
M  V30 7158 N 698.326 -2.41771 -4.86876 0
M  V30 7159 H 702.128 -1.69305 -2.40235 0
M  V30 7160 H 699.642 -1.01598 -1.26695 0
M  V30 7161 H 701.639 0.0254131 -4.16892 0
M  V30 7162 H 700.299 0.661287 -3.17895 0
M  V30 7163 H 701.31 -2.85511 -4.32093 0
M  V30 7164 H 697.987 -0.279117 -4.16566 0
M  V30 7165 H 699.377 -4.16663 -5.27107 0
M  V30 7166 N 702.098 1.27442 -0.927168 0
M  V30 7167 C 703.323 1.99036 -0.583042 0
M  V30 7168 C 703.748 1.68711 0.83176 0
M  V30 7169 O 703.106 0.927081 1.55804 0
M  V30 7170 C 703.154 3.51271 -0.814925 0
M  V30 7171 O 702.258 4.12226 0.119742 0
M  V30 7172 H 701.599 0.624883 -0.224538 0
M  V30 7173 H 704.129 1.62263 -1.24628 0
M  V30 7174 H 704.139 4.01411 -0.730282 0
M  V30 7175 H 702.814 3.72676 -1.84623 0
M  V30 7176 H 701.391 3.72897 -0.0147688 0
M  V30 7177 N 703.576 0.692616 1.41565 0
M  V30 7178 C 704.539 0.0344174 2.29174 0
M  V30 7179 C 705.539 -0.710961 1.44229 0
M  V30 7180 O 706.729 -0.546293 1.65412 0
M  V30 7181 C 703.861 -0.961682 3.27054 0
M  V30 7182 H 705.054 0.805755 2.88873 0
M  V30 7183 H 702.607 0.455947 1.49502 0
M  V30 7184 H 703.342 -1.76089 2.72329 0
M  V30 7185 H 703.127 -0.430375 3.89731 0
M  V30 7186 H 704.617 -1.4201 3.92712 0
M  V30 7187 N 705.054 -1.51416 0.437162 0
M  V30 7188 C 706.002 -2.29328 -0.388765 0
M  V30 7189 C 706.996 -1.35171 -1.02104 0
M  V30 7190 O 708.202 -1.52513 -0.956024 0
M  V30 7191 H 704.577 -0.738048 -0.144183 0
M  V30 7192 H 706.548 -2.96995 0.289212 0
M  V30 7193 C 705.297 -3.14741 -1.47761 0
M  V30 7194 H 704.62 -3.8708 -1.00045 0
M  V30 7195 H 706.06 -3.72313 -2.02877 0
M  V30 7196 C 704.519 -2.30105 -2.46076 0
M  V30 7197 O 705.049 -1.96055 -3.50607 0
M  V30 7198 N 703.255 -1.93331 -2.1696 0
M  V30 7199 H 702.802 -2.2122 -1.31983 0
M  V30 7200 H 702.76 -1.36999 -2.82982 0
M  V30 7201 N 706.532 -0.168513 -1.56696 0
M  V30 7202 C 707.757 0.486688 -2.01609 0
M  V30 7203 C 708.182 1.56203 -1.04796 0
M  V30 7204 O 707.54 1.8128 -0.0270596 0
M  V30 7205 C 707.588 1.04451 -3.45141 0
M  V30 7206 O 706.692 2.15862 -3.51393 0
M  V30 7207 H 706.033 0.116831 -0.653641 0
M  V30 7208 H 708.563 -0.271579 -2.0279 0
M  V30 7209 H 708.573 1.36782 -3.84389 0
M  V30 7210 H 707.248 0.257155 -4.15104 0
M  V30 7211 H 705.825 1.84597 -3.24004 0
M  V30 7212 N 708.01 1.57248 0.105221 0
M  V30 7213 C 708.942 1.98008 1.15436 0
M  V30 7214 C 709.955 0.881236 1.36887 0
M  V30 7215 O 711.144 1.15943 1.35718 0
M  V30 7216 C 708.244 2.27509 2.51183 0
M  V30 7217 C 707.417 3.58811 2.50147 0
M  V30 7218 C 706.476 3.76365 3.67745 0
M  V30 7219 O 705.502 4.48329 3.50699 0
M  V30 7220 N 706.704 3.16174 4.86841 0
M  V30 7221 H 709.469 2.88616 0.807519 0
M  V30 7222 H 707.03 1.59202 0.29433 0
M  V30 7223 H 709.022 2.36455 3.28438 0
M  V30 7224 H 707.592 1.42959 2.77995 0
M  V30 7225 H 706.812 3.60927 1.5851 0
M  V30 7226 H 708.1 4.45088 2.46524 0
M  V30 7227 H 707.498 2.57701 5.03594 0
M  V30 7228 H 706.055 3.30621 5.61723 0
M  V30 7229 N 709.488 -0.375779 1.53054 0
M  V30 7230 C 710.899 -0.95309 1.6054 0
M  V30 7231 C 711.25 -1.90575 0.466446 0
M  V30 7232 O 710.375 -2.12507 -0.408609 0
M  V30 7233 C 710.97 -1.73537 2.90982 0
M  V30 7234 C 709.529 -2.26218 3.00836 0
M  V30 7235 C 708.676 -1.07157 2.55759 0
M  V30 7236 H 711.627 -0.154895 1.57942 0
M  V30 7237 H 711.648 -2.59574 2.78211 0
M  V30 7238 H 711.16 -1.04176 3.73857 0
M  V30 7239 H 709.261 -2.98852 2.22527 0
M  V30 7240 H 709.374 -2.54799 4.05727 0
M  V30 7241 H 707.738 -1.43553 2.10391 0
M  V30 7242 H 708.521 -0.393099 3.41042 0
M  V30 7243 N 710.966 -1.44241 -0.634997 0
M  V30 7244 C 712.191 -1.50516 -1.42687 0
M  V30 7245 C 712.616 -0.129864 -1.87651 0
M  V30 7246 O 711.974 0.880164 -1.58502 0
M  V30 7247 C 712.022 -2.4714 -2.62591 0
M  V30 7248 O 711.126 -1.97025 -3.62291 0
M  V30 7249 H 710.467 -0.50841 -0.427101 0
M  V30 7250 H 712.997 -1.89337 -0.775408 0
M  V30 7251 H 713.007 -2.65048 -3.10183 0
M  V30 7252 H 711.682 -3.47039 -2.29209 0
M  V30 7253 H 710.259 -1.88866 -3.21534 0
M  V30 7254 N 712.444 0.87505 -1.31075 0
M  V30 7255 C 713.407 1.96333 -1.18263 0
M  V30 7256 C 714.407 1.60416 -0.111106 0
M  V30 7257 O 715.597 1.7044 -0.359987 0
M  V30 7258 C 712.729 3.31036 -0.81414 0
M  V30 7259 H 713.922 2.09125 -2.14958 0
M  V30 7260 H 711.475 1.06271 -1.14614 0
M  V30 7261 H 712.21 3.23944 0.151875 0
M  V30 7262 H 711.995 3.58476 -1.58862 0
M  V30 7263 H 713.485 4.10842 -0.748249 0
M  V30 7264 N 713.922 1.13953 1.08869 0
M  V30 7265 C 715.15 0.92817 1.84912 0
M  V30 7266 C 715.565 -0.523197 1.81406 0
M  V30 7267 O 714.922 -1.36237 1.21432 0
M  V30 7268 C 714.973 1.41509 3.32652 0
M  V30 7269 O 714.694 2.80959 3.36145 0
M  V30 7270 C 716.195 1.243 4.25517 0
M  V30 7271 H 713.415 0.330612 0.583898 0
M  V30 7272 H 715.959 1.51349 1.37527 0
M  V30 7273 H 714.114 0.872648 3.77444 0
M  V30 7274 H 714.528 3.02704 4.28335 0
M  V30 7275 H 716.002 1.63237 5.27312 0
M  V30 7276 H 716.479 0.18532 4.38809 0
M  V30 7277 H 717.085 1.77375 3.86546 0
M  V30 7278 N 715.4 -1.26948 0.933913 0
M  V30 7279 C 716.628 -1.98186 0.59414 0
M  V30 7280 C 717.043 -1.69614 -0.829257 0
M  V30 7281 O 716.4 -0.960213 -1.55197 0
M  V30 7282 C 716.451 -3.52123 0.818026 0
M  V30 7283 O 716.172 -3.79698 2.18543 0
M  V30 7284 C 717.673 -4.40608 0.48781 0
M  V30 7285 H 714.893 -0.632305 0.224569 0
M  V30 7286 H 717.437 -1.61646 1.25263 0
M  V30 7287 H 715.592 -3.86851 0.206246 0
M  V30 7288 H 716.006 -4.7426 2.24005 0
M  V30 7289 H 717.48 -5.47606 0.695126 0
M  V30 7290 H 717.957 -4.35394 -0.576913 0
M  V30 7291 H 718.563 -4.11411 1.078 0
M  V30 7292 N 716.879 -0.700114 -1.41195 0
M  V30 7293 C 718.125 -0.233351 -2.01453 0
M  V30 7294 C 718.458 1.16548 -1.55339 0
M  V30 7295 O 717.733 1.78756 -0.766575 0
M  V30 7296 C 718.016 -0.2961 -3.58881 0
M  V30 7297 C 717.869 -1.7322 -4.15108 0
M  V30 7298 C 719.188 0.341525 -4.38773 0
M  V30 7299 H 716.307 -0.0862667 -0.731934 0
M  V30 7300 H 718.949 -0.889693 -1.67882 0
M  V30 7301 H 717.099 0.262736 -3.87611 0
M  V30 7302 H 718.771 -2.34523 -3.97236 0
M  V30 7303 H 717.014 -2.2649 -3.69979 0
M  V30 7304 H 717.685 -1.7276 -5.24269 0
M  V30 7305 H 720.161 -0.134461 -4.15883 0
M  V30 7306 H 719.037 0.267098 -5.4825 0
M  V30 7307 H 719.298 1.42289 -4.18577 0
M  V30 7308 N 718.357 1.51182 -0.445186 0
M  V30 7309 C 719.585 2.06568 0.117091 0
M  V30 7310 C 720 1.31182 1.35781 0
M  V30 7311 O 719.357 0.373605 1.78635 0
M  V30 7312 C 719.408 3.58917 0.431408 0
M  V30 7313 O 719.129 4.31456 -0.760078 0
M  V30 7314 C 720.63 4.30843 1.0435 0
M  V30 7315 H 717.85 0.670985 0.00444436 0
M  V30 7316 H 720.394 1.94666 -0.626525 0
M  V30 7317 H 718.549 3.70708 1.12493 0
M  V30 7318 H 718.963 5.22215 -0.489048 0
M  V30 7319 H 720.437 5.38499 1.21337 0
M  V30 7320 H 720.914 3.89644 2.02667 0
M  V30 7321 H 721.52 4.23516 0.38913 0
M  V30 7322 N 719.835 0.176821 1.56605 0
M  V30 7323 C 720.798 -0.737429 2.17013 0
M  V30 7324 C 721.798 -1.15414 1.11965 0
M  V30 7325 O 722.988 -1.0702 1.37449 0
M  V30 7326 C 720.12 -2.00445 2.75744 0
M  V30 7327 H 721.313 -0.211455 2.99154 0
M  V30 7328 H 718.866 -0.0727582 1.56131 0
M  V30 7329 H 719.601 -2.57338 1.97352 0
M  V30 7330 H 719.386 -1.71456 3.52626 0
M  V30 7331 H 720.876 -2.65679 3.22187 0
M  V30 7332 N 721.313 -1.57302 -0.09688 0
M  V30 7333 C 722.562 -1.85183 -0.799388 0
M  V30 7334 C 722.875 -0.765818 -1.79985 0
M  V30 7335 O 724.081 -0.931696 -2.55013 0
M  V30 7336 C 722.537 -3.28399 -1.47249 0
M  V30 7337 C 722.145 -4.45066 -0.511888 0
M  V30 7338 C 723.889 -3.65506 -2.15883 0
M  V30 7339 C 721.796 -5.79315 -1.18948 0
M  V30 7340 H 720.726 -0.690752 -0.302287 0
M  V30 7341 H 723.377 -1.83425 -0.0523104 0
M  V30 7342 H 721.759 -3.24692 -2.26697 0
M  V30 7343 H 722.933 -4.60116 0.250962 0
M  V30 7344 H 721.248 -4.16343 0.0686576 0
M  V30 7345 H 723.845 -4.63087 -2.67309 0
M  V30 7346 H 724.188 -2.94041 -2.94696 0
M  V30 7347 H 724.721 -3.71094 -1.43298 0
M  V30 7348 H 721.46 -6.54007 -0.442198 0
M  V30 7349 H 720.98 -5.68111 -1.9238 0
M  V30 7350 H 722.659 -6.23816 -1.71646 0
M  V30 7351 N 722.791 0.367657 -1.53252 0
M  V30 7352 C 724.019 1.13119 -1.73239 0
M  V30 7353 C 724.434 1.831 -0.460404 0
M  V30 7354 O 723.791 1.73483 0.566557 0
M  V30 7355 C 723.842 2.16308 -2.89643 0
M  V30 7356 O 723.563 1.49175 -4.1192 0
M  V30 7357 C 725.064 3.05224 -3.21486 0
M  V30 7358 H 722.284 0.338318 -0.579467 0
M  V30 7359 H 724.828 0.42721 -1.99988 0
M  V30 7360 H 722.983 2.82307 -2.65295 0
M  V30 7361 H 723.397 2.17912 -4.7709 0
M  V30 7362 H 724.871 3.73613 -4.06346 0
M  V30 7363 H 725.348 3.69919 -2.36763 0
M  V30 7364 H 725.954 2.44843 -3.47753 0
M  V30 7365 N 724.269 1.44576 0.627338 0
M  V30 7366 C 725.68 1.42266 1.20902 0
M  V30 7367 C 726.031 0.139964 1.957 0
M  V30 7368 O 725.156 -0.759489 2.02634 0
M  V30 7369 C 725.751 2.57727 2.19914 0
M  V30 7370 C 724.31 2.58599 2.73502 0
M  V30 7371 C 723.457 2.34145 1.48564 0
M  V30 7372 H 726.408 1.53102 0.417791 0
M  V30 7373 H 726.429 2.30697 3.02588 0
M  V30 7374 H 725.941 3.51068 1.65447 0
M  V30 7375 H 724.042 1.6921 3.31962 0
M  V30 7376 H 724.155 3.57205 3.19282 0
M  V30 7377 H 722.519 1.83313 1.76829 0
M  V30 7378 H 723.302 3.29606 0.959935 0
M  V30 7379 N 725.747 -0.868086 1.31537 0
M  V30 7380 C 726.71 -1.95703 1.19302 0
M  V30 7381 C 727.71 -1.60355 0.119612 0
M  V30 7382 O 728.9 -1.70247 0.36902 0
M  V30 7383 C 726.032 -3.30599 0.831684 0
M  V30 7384 H 727.225 -2.07982 2.16064 0
M  V30 7385 H 724.778 -1.05661 1.15176 0
M  V30 7386 H 725.513 -3.2402 -0.134694 0
M  V30 7387 H 725.298 -3.57629 1.60761 0
M  V30 7388 H 726.788 -4.10439 0.770026 0
M  V30 7389 N 727.225 -1.14528 -1.08264 0
M  V30 7390 C 728.636 -0.925261 -1.6216 0
M  V30 7391 C 728.987 0.535587 -1.88748 0
M  V30 7392 O 728.112 1.4048 -1.64604 0
M  V30 7393 C 728.707 -1.67316 -2.94603 0
M  V30 7394 C 727.266 -1.49868 -3.45278 0
M  V30 7395 C 726.413 -1.69471 -2.19487 0
M  V30 7396 H 729.364 -1.29687 -0.914707 0
M  V30 7397 H 729.385 -1.13721 -3.63109 0
M  V30 7398 H 728.897 -2.73635 -2.75219 0
M  V30 7399 H 726.998 -0.459032 -3.69762 0
M  V30 7400 H 727.111 -2.2696 -4.21931 0
M  V30 7401 H 725.475 -1.12048 -2.2873 0
M  V30 7402 H 726.258 -2.77136 -2.0261 0
M  V30 7403 N 728.703 1.26451 -0.940633 0
M  V30 7404 C 729.952 1.93071 -0.583656 0
M  V30 7405 C 730.265 1.74618 0.881366 0
M  V30 7406 O 731.471 2.35689 1.34769 0
M  V30 7407 C 729.927 3.45927 -0.993106 0
M  V30 7408 C 729.535 3.73115 -2.4797 0
M  V30 7409 C 731.279 4.18554 -0.707998 0
M  V30 7410 C 729.186 5.19408 -2.82788 0
M  V30 7411 H 728.116 0.722824 -0.214572 0
M  V30 7412 H 730.767 1.43538 -1.1432 0
M  V30 7413 H 729.149 3.94341 -0.362099 0
M  V30 7414 H 730.323 3.35408 -3.15971 0
M  V30 7415 H 728.638 3.13719 -2.73805 0
M  V30 7416 H 731.235 5.26293 -0.94447 0
M  V30 7417 H 731.578 4.14782 0.355225 0
M  V30 7418 H 732.111 3.76003 -1.2987 0
M  V30 7419 H 728.85 5.28281 -3.88071 0
M  V30 7420 H 728.37 5.58214 -2.19449 0
M  V30 7421 H 730.049 5.87407 -2.71224 0
M  V30 7422 N 730.181 0.707592 1.40822 0
M  V30 7423 C 731.113 0.0105968 2.29198 0
M  V30 7424 C 732.126 -0.732035 1.45414 0
M  V30 7425 O 733.315 -0.580741 1.68789 0
M  V30 7426 C 730.415 -1.00921 3.23525 0
M  V30 7427 C 729.588 -0.333747 4.36125 0
M  V30 7428 C 728.647 -1.25783 5.10945 0
M  V30 7429 O 727.673 -0.745646 5.64295 0
M  V30 7430 N 728.875 -2.58947 5.19545 0
M  V30 7431 H 731.64 0.76938 2.89656 0
M  V30 7432 H 729.201 0.554579 1.52105 0
M  V30 7433 H 731.193 -1.6294 3.70449 0
M  V30 7434 H 729.763 -1.66942 2.6429 0
M  V30 7435 H 728.983 0.466518 3.9143 0
M  V30 7436 H 730.271 0.135444 5.0862 0
M  V30 7437 H 729.669 -3.03065 4.7767 0
M  V30 7438 H 728.226 -3.16131 5.70004 0
M  V30 7439 N 731.66 -1.50943 0.453197 0
M  V30 7440 C 732.592 -2.25922 -0.38623 0
M  V30 7441 C 733.605 -1.3055 -0.972652 0
M  V30 7442 O 734.794 -1.56191 -0.864097 0
M  V30 7443 C 731.894 -3.01176 -1.5539 0
M  V30 7444 C 731.067 -4.23768 -1.0835 0
M  V30 7445 C 730.126 -4.81466 -2.12313 0
M  V30 7446 O 729.152 -5.42875 -1.71101 0
M  V30 7447 N 730.354 -4.66889 -3.44956 0
M  V30 7448 H 733.119 -2.98601 0.256468 0
M  V30 7449 H 730.68 -1.59408 0.282965 0
M  V30 7450 H 732.672 -3.36659 -2.24594 0
M  V30 7451 H 731.242 -2.31409 -2.10163 0
M  V30 7452 H 730.462 -3.93597 -0.217961 0
M  V30 7453 H 731.75 -5.03289 -0.746857 0
M  V30 7454 H 731.148 -4.18011 -3.81161 0
M  V30 7455 H 729.705 -5.06691 -4.1001 0
M  V30 7456 N 733.138 -0.185124 -1.56509 0
M  V30 7457 C 734.549 0.329221 -1.83774 0
M  V30 7458 C 734.9 1.62093 -1.10545 0
M  V30 7459 O 734.025 2.13334 -0.36298 0
M  V30 7460 C 734.62 0.604099 -3.33371 0
M  V30 7461 C 733.179 1.06284 -3.61083 0
M  V30 7462 C 732.326 0.10608 -2.77097 0
M  V30 7463 H 735.277 -0.409116 -1.53336 0
M  V30 7464 H 735.298 1.45458 -3.51599 0
M  V30 7465 H 734.81 -0.336201 -3.86641 0
M  V30 7466 H 732.911 2.01777 -3.13236 0
M  V30 7467 H 733.024 0.962453 -4.69333 0
M  V30 7468 H 731.388 0.606082 -2.47384 0
M  V30 7469 H 732.171 -0.828486 -3.33153 0
M  V30 7470 N 734.616 1.57351 0.0885366 0
M  V30 7471 C 735.862 1.86696 0.791996 0
M  V30 7472 C 736.195 0.775148 1.78059 0
M  V30 7473 O 735.47 -0.216247 1.93294 0
M  V30 7474 C 735.753 3.26684 1.51491 0
M  V30 7475 C 735.606 4.465 0.543858 0
M  V30 7476 C 736.925 3.64664 2.46391 0
M  V30 7477 H 734.044 0.679049 0.286463 0
M  V30 7478 H 736.686 1.89919 0.0554866 0
M  V30 7479 H 734.836 3.24067 2.14273 0
M  V30 7480 H 736.508 4.61235 -0.0774597 0
M  V30 7481 H 734.751 4.33567 -0.142228 0
M  V30 7482 H 735.422 5.41192 1.08696 0
M  V30 7483 H 737.898 3.68267 1.93698 0
M  V30 7484 H 736.774 4.63534 2.93986 0
M  V30 7485 H 737.035 2.93698 3.30445 0
M  V30 7486 N 736.094 -0.359525 1.53444 0
M  V30 7487 C 737.041 -1.44073 1.8031 0
M  V30 7488 C 738.011 -1.52946 0.647811 0
M  V30 7489 O 739.196 -1.68739 0.890614 0
M  V30 7490 C 736.336 -2.80941 2.00416 0
M  V30 7491 C 735.449 -2.80986 3.28132 0
M  V30 7492 C 734.584 -4.09468 3.38393 0
M  V30 7493 C 733.623 -4.03679 4.60119 0
M  V30 7494 N 732.76 -5.23821 4.675 0
M  V30 7495 H 737.6 -1.20464 2.72566 0
M  V30 7496 H 735.137 -0.583859 1.35017 0
M  V30 7497 H 737.095 -3.60459 2.1006 0
M  V30 7498 H 735.725 -3.02936 1.11489 0
M  V30 7499 H 734.777 -1.93666 3.27411 0
M  V30 7500 H 736.089 -2.72583 4.17732 0
M  V30 7501 H 735.243 -4.97404 3.47382 0
M  V30 7502 H 733.982 -4.20632 2.4682 0
M  V30 7503 H 732.987 -3.14129 4.51224 0
M  V30 7504 H 734.212 -3.94112 5.5304 0
M  V30 7505 H 732.158 -5.35559 3.7883 0
M  V30 7506 H 732.075 -5.17611 5.51013 0
M  V30 7507 H 733.343 -6.13572 4.8078 0
M  V30 7508 N 737.572 -1.44907 -0.619662 0
M  V30 7509 C 738.797 -1.52021 -1.41083 0
M  V30 7510 C 739.222 -0.14976 -1.87503 0
M  V30 7511 O 738.58 0.863303 -1.59426 0
M  V30 7512 C 738.628 -2.49911 -2.59955 0
M  V30 7513 O 737.732 -2.00857 -3.60181 0
M  V30 7514 H 737.073 -0.512912 -0.421684 0
M  V30 7515 H 739.603 -1.90149 -0.755282 0
M  V30 7516 H 739.613 -2.68323 -3.07354 0
M  V30 7517 H 738.288 -3.4945 -2.25516 0
M  V30 7518 H 736.865 -1.92265 -3.19513 0
M  V30 7519 N 739.05 0.861098 -1.31996 0
M  V30 7520 C 739.983 1.97266 -1.14724 0
M  V30 7521 C 740.961 1.62528 -0.0483789 0
M  V30 7522 O 742.145 1.87366 -0.206478 0
M  V30 7523 C 739.272 3.30181 -0.754861 0
M  V30 7524 C 738.318 3.839 -1.85804 0
M  V30 7525 S 739.151 4.08274 -3.46515 0
M  V30 7526 C 740.307 5.44174 -3.09235 0
M  V30 7527 H 740.54 2.11614 -2.08822 0
M  V30 7528 H 738.073 1.01232 -1.16582 0
M  V30 7529 H 740.031 4.06996 -0.535232 0
M  V30 7530 H 738.692 3.13655 0.167155 0
M  V30 7531 H 737.885 4.80013 -1.53633 0
M  V30 7532 H 737.487 3.13907 -2.03318 0
M  V30 7533 H 739.779 6.26172 -2.58679 0
M  V30 7534 H 740.722 5.81301 -4.04345 0
M  V30 7535 H 741.13 5.0787 -2.46431 0
M  V30 7536 N 740.528 1.15101 1.07655 0
M  V30 7537 C 741.944 0.893004 1.32279 0
M  V30 7538 C 742.144 -0.461701 1.96139 0
M  V30 7539 O 741.2 -1.20431 2.21929 0
M  V30 7540 C 742.513 2.03161 2.21689 0
M  V30 7541 C 744.061 2.06579 2.35147 0
M  V30 7542 C 744.536 3.19754 3.27905 0
M  V30 7543 N 746.027 3.19382 3.35484 0
M  V30 7544 C 746.762 4.03592 4.07309 0
M  V30 7545 N 746.258 4.97859 4.81776 0
M  V30 7546 N 748.051 3.91626 4.03219 0
M  V30 7547 H 740.202 2.02341 0.645886 0
M  V30 7548 H 742.465 0.882127 0.347211 0
M  V30 7549 H 742.171 3.00934 1.82021 0
M  V30 7550 H 742.045 1.96132 3.22199 0
M  V30 7551 H 744.432 1.09408 2.74069 0
M  V30 7552 H 744.513 2.17676 1.34353 0
M  V30 7553 H 744.157 4.17175 2.89702 0
M  V30 7554 H 744.087 3.05893 4.28645 0
M  V30 7555 H 746.578 2.51112 2.82403 0
M  V30 7556 H 746.891 5.58563 5.34067 0
M  V30 7557 H 745.236 5.0185 4.80803 0
M  V30 7558 H 748.427 3.17295 3.44154 0
M  V30 7559 H 748.6 4.57479 4.5893 0
M  V30 7560 N 742.006 -1.2595 0.947325 0
M  V30 7561 C 743.252 -1.9375 0.599064 0
M  V30 7562 C 743.585 -1.74088 -0.860632 0
M  V30 7563 O 742.86 -1.08158 -1.61654 0
M  V30 7564 C 743.143 -3.47353 0.949634 0
M  V30 7565 C 742.996 -3.76273 2.46452 0
M  V30 7566 C 744.315 -4.37589 0.469442 0
M  V30 7567 H 741.434 -0.703674 0.219115 0
M  V30 7568 H 744.076 -1.48705 1.18266 0
M  V30 7569 H 742.226 -3.8585 0.453008 0
M  V30 7570 H 743.898 -3.47455 3.03435 0
M  V30 7571 H 742.141 -3.22135 2.90537 0
M  V30 7572 H 742.812 -4.83664 2.66032 0
M  V30 7573 H 745.288 -4.06353 0.89534 0
M  V30 7574 H 744.164 -5.43841 0.7435 0
M  V30 7575 H 744.425 -4.37579 -0.630618 0
M  V30 7576 N 743.484 -0.715051 -1.40445 0
M  V30 7577 C 744.414 -0.0768699 -2.33373 0
M  V30 7578 C 745.395 0.746109 -1.52863 0
M  V30 7579 O 746.58 0.695142 -1.81332 0
M  V30 7580 C 743.71 0.846014 -3.36838 0
M  V30 7581 C 742.664 0.128694 -4.27806 0
M  V30 7582 C 741.99 1.16726 -5.21804 0
M  V30 7583 C 743.29 -1.01679 -5.12307 0
M  V30 7584 H 744.984 -0.853061 -2.8699 0
M  V30 7585 H 742.53 -0.41167 -1.3799 0
M  V30 7586 H 744.483 1.30185 -4.00786 0
M  V30 7587 H 743.207 1.6541 -2.81615 0
M  V30 7588 H 741.866 -0.307314 -3.6531 0
M  V30 7589 H 741.514 1.96838 -4.62887 0
M  V30 7590 H 741.214 0.692188 -5.83509 0
M  V30 7591 H 742.738 1.62321 -5.88629 0
M  V30 7592 H 744.152 -0.640337 -5.69713 0
M  V30 7593 H 742.549 -1.4202 -5.83053 0
M  V30 7594 H 743.619 -1.84769 -4.48317 0
M  V30 7595 N 744.962 1.50701 -0.461195 0
M  V30 7596 C 745.909 2.2831 0.338094 0
M  V30 7597 C 746.879 1.32928 0.995957 0
M  V30 7598 O 748.064 1.61857 1.0103 0
M  V30 7599 C 745.204 3.14539 1.41983 0
M  V30 7600 C 744.317 4.24942 0.77773 0
M  V30 7601 C 743.452 4.98443 1.83652 0
M  V30 7602 C 742.491 6.00733 1.17413 0
M  V30 7603 N 741.628 6.6755 2.17533 0
M  V30 7604 H 746.468 2.96167 -0.330051 0
M  V30 7605 H 744.005 1.4606 -0.174611 0
M  V30 7606 H 745.963 3.62877 2.05855 0
M  V30 7607 H 744.593 2.48749 2.05727 0
M  V30 7608 H 743.645 3.80391 0.0266924 0
M  V30 7609 H 744.957 4.98151 0.254362 0
M  V30 7610 H 744.111 5.50449 2.55129 0
M  V30 7611 H 742.85 4.24917 2.39367 0
M  V30 7612 H 741.855 5.47997 0.444944 0
M  V30 7613 H 743.08 6.76227 0.624006 0
M  V30 7614 H 741.026 5.96823 2.72284 0
M  V30 7615 H 740.943 7.36603 1.70154 0
M  V30 7616 H 742.211 7.24178 2.88421 0
M  V30 7617 N 746.441 0.193421 1.56409 0
M  V30 7618 C 747.852 -0.319471 1.83946 0
M  V30 7619 C 748.203 -1.61505 1.11403 0
M  V30 7620 O 747.328 -2.13139 0.374289 0
M  V30 7621 C 747.923 -0.586411 3.33686 0
M  V30 7622 C 746.482 -1.04368 3.61641 0
M  V30 7623 C 745.629 -0.0913834 2.77149 0
M  V30 7624 H 748.58 0.417242 1.53117 0
M  V30 7625 H 748.601 -1.43591 3.52366 0
M  V30 7626 H 748.113 0.356701 3.86457 0
M  V30 7627 H 746.214 -2.00113 3.14302 0
M  V30 7628 H 746.327 -0.937549 4.69837 0
M  V30 7629 H 744.691 -0.592954 2.47702 0
M  V30 7630 H 745.474 0.846142 3.32709 0
M  V30 7631 N 747.919 -1.57396 -0.0801906 0
M  V30 7632 C 748.829 -2.06451 -1.11423 0
M  V30 7633 C 749.845 -0.992352 -1.42928 0
M  V30 7634 O 751.021 -1.30651 -1.53272 0
M  V30 7635 C 748.086 -2.49164 -2.41077 0
M  V30 7636 C 747.147 -3.70641 -2.16619 0
M  V30 7637 C 746.38 -4.11307 -3.40092 0
M  V30 7638 O 746.603 -3.51922 -4.48895 0
M  V30 7639 O 745.537 -5.04157 -3.288 0
M  V30 7640 H 749.363 -2.94857 -0.727519 0
M  V30 7641 H 746.948 -1.46484 -0.293743 0
M  V30 7642 H 748.83 -2.77196 -3.17396 0
M  V30 7643 H 747.505 -1.6389 -2.79145 0
M  V30 7644 H 746.412 -3.47703 -1.38033 0
M  V30 7645 H 747.745 -4.5674 -1.83437 0
M  V30 7646 N 749.397 0.351382 -1.53633 0
M  V30 7647 C 750.327 1.43688 -1.84055 0
M  V30 7648 C 751.308 1.55251 -0.695073 0
M  V30 7649 O 752.493 1.69587 -0.946257 0
M  V30 7650 C 749.623 2.80843 -2.04315 0
M  V30 7651 C 748.577 2.84094 -3.20117 0
M  V30 7652 C 747.903 4.2406 -3.25696 0
M  V30 7653 C 749.203 2.50334 -4.58399 0
M  V30 7654 H 750.897 1.18478 -2.74961 0
M  V30 7655 H 748.443 0.568509 -1.32303 0
M  V30 7656 H 750.396 3.56821 -2.2418 0
M  V30 7657 H 749.12 3.07471 -1.10132 0
M  V30 7658 H 747.779 2.10568 -3.00094 0
M  V30 7659 H 747.427 4.47785 -2.29123 0
M  V30 7660 H 747.127 4.27147 -4.03509 0
M  V30 7661 H 748.651 5.0189 -3.47762 0
M  V30 7662 H 750.065 3.16025 -4.78332 0
M  V30 7663 H 748.462 2.64717 -5.38558 0
M  V30 7664 H 749.532 1.45542 -4.62543 0
M  V30 7665 N 750.875 1.45233 0.611969 0
M  V30 7666 C 751.807 1.49575 1.73666 0
M  V30 7667 C 752.82 0.386987 1.58134 0
M  V30 7668 O 754.009 0.653804 1.66095 0
M  V30 7669 C 751.109 1.33223 3.11617 0
M  V30 7670 C 750.282 2.57694 3.5343 0
M  V30 7671 C 749.341 2.35962 4.70328 0
M  V30 7672 O 748.367 3.09553 4.77667 0
M  V30 7673 N 749.569 1.40243 5.63305 0
M  V30 7674 H 752.334 2.46539 1.70407 0
M  V30 7675 H 749.895 1.40917 0.79712 0
M  V30 7676 H 751.887 1.16502 3.87569 0
M  V30 7677 H 750.457 0.44551 3.09409 0
M  V30 7678 H 749.677 2.8956 2.67486 0
M  V30 7679 H 750.965 3.40441 3.78124 0
M  V30 7680 H 750.363 0.795023 5.60086 0
M  V30 7681 H 748.92 1.29496 6.38807 0
M  V30 7682 N 752.353 -0.854086 1.3245 0
M  V30 7683 C 753.581 -1.64074 1.26045 0
M  V30 7684 C 753.996 -1.8802 -0.171456 0
M  V30 7685 O 753.353 -1.4496 -1.10873 0
M  V30 7686 C 753.404 -2.9997 2.01743 0
M  V30 7687 O 753.125 -2.77084 3.39346 0
M  V30 7688 C 754.626 -3.94414 2.02368 0
M  V30 7689 H 751.846 -0.511015 0.434862 0
M  V30 7690 H 754.39 -1.06494 1.74583 0
M  V30 7691 H 752.545 -3.54193 1.56926 0
M  V30 7692 H 752.959 -3.63514 3.78098 0
M  V30 7693 H 754.433 -4.87032 2.59815 0
M  V30 7694 H 754.91 -4.27427 1.01009 0
M  V30 7695 H 755.516 -3.46127 2.47135 0
M  V30 7696 N 753.831 -1.1567 -1.07043 0
M  V30 7697 C 754.794 -0.858906 -2.12498 0
M  V30 7698 C 755.794 0.142735 -1.60165 0
M  V30 7699 O 756.984 -0.0872678 -1.73981 0
M  V30 7700 C 754.116 -0.283021 -3.39723 0
M  V30 7701 H 755.309 -1.79368 -2.40348 0
M  V30 7702 H 752.862 -0.964608 -1.22984 0
M  V30 7703 H 753.597 0.659796 -3.17517 0
M  V30 7704 H 753.382 -1.00467 -3.7901 0
M  V30 7705 H 754.872 -0.0923543 -4.17498 0
M  V30 7706 N 755.309 1.25446 -0.953992 0
M  V30 7707 C 756.239 2.28264 -0.491717 0
M  V30 7708 C 757.22 1.63717 0.461617 0
M  V30 7709 O 758.405 1.90821 0.36071 0
M  V30 7710 C 755.535 3.46525 0.231915 0
M  V30 7711 C 754.489 4.23247 -0.636098 0
M  V30 7712 C 753.815 5.34254 0.218238 0
M  V30 7713 C 755.115 4.85971 -1.91389 0
M  V30 7714 H 756.809 2.67183 -1.35106 0
M  V30 7715 H 754.355 1.2844 -0.651095 0
M  V30 7716 H 756.308 4.17576 0.566439 0
M  V30 7717 H 755.032 3.06594 1.12551 0
M  V30 7718 H 753.691 3.53978 -0.953696 0
M  V30 7719 H 753.339 4.90564 1.11156 0
M  V30 7720 H 753.039 5.86501 -0.359232 0
M  V30 7721 H 754.563 6.08138 0.547743 0
M  V30 7722 H 755.977 5.49168 -1.64581 0
M  V30 7723 H 754.374 5.48391 -2.43696 0
M  V30 7724 H 755.444 4.08192 -2.61738 0
M  V30 7725 N 756.787 0.722489 1.40064 0
M  V30 7726 C 757.75 0.0830209 2.2905 0
M  V30 7727 C 758.75 -0.680208 1.45705 0
M  V30 7728 O 759.94 -0.511084 1.66534 0
M  V30 7729 C 757.072 -0.892092 3.29021 0
M  V30 7730 H 758.265 0.866848 2.87099 0
M  V30 7731 H 755.818 0.487556 1.48501 0
M  V30 7732 H 756.553 -1.70273 2.76003 0
M  V30 7733 H 756.338 -0.34761 3.90556 0
M  V30 7734 H 757.828 -1.33648 3.95636 0
M  V30 7735 N 758.265 -1.50454 0.469181 0
M  V30 7736 C 759.676 -1.86695 0.0136034 0
M  V30 7737 C 760.027 -1.38413 -1.39055 0
M  V30 7738 O 759.152 -0.748294 -2.03051 0
M  V30 7739 C 759.747 -3.38795 0.0179098 0
M  V30 7740 C 758.306 -3.74455 -0.382191 0
M  V30 7741 C 757.453 -2.74338 0.404207 0
M  V30 7742 H 760.404 -1.43225 0.683547 0
M  V30 7743 H 760.425 -3.72321 -0.78468 0
M  V30 7744 H 759.937 -3.73906 1.04 0
M  V30 7745 H 758.038 -3.44944 -1.4087 0
M  V30 7746 H 758.151 -4.79025 -0.084862 0
M  V30 7747 H 756.515 -2.54305 -0.141829 0
M  V30 7748 H 757.298 -3.12293 1.42577 0
M  V30 7749 N 759.743 -0.201713 -1.56304 0
M  V30 7750 C 760.971 0.440723 -2.02152 0
M  V30 7751 C 761.386 1.54735 -1.08179 0
M  V30 7752 O 760.743 1.82289 -0.0878196 0
M  V30 7753 C 760.794 0.990884 -3.47655 0
M  V30 7754 O 760.515 -0.0715937 -4.38041 0
M  V30 7755 C 762.016 1.70854 -4.09052 0
M  V30 7756 H 759.236 0.109987 -0.661924 0
M  V30 7757 H 761.78 -0.312358 -2.021 0
M  V30 7758 H 759.935 1.69432 -3.48384 0
M  V30 7759 H 760.349 0.338892 -5.23404 0
M  V30 7760 H 761.823 2.04572 -5.12693 0
M  V30 7761 H 762.3 2.61462 -3.52894 0
M  V30 7762 H 762.906 1.0508 -4.12114 0
M  V30 7763 N 761.222 1.57436 0.0718424 0
M  V30 7764 C 762.172 2.00132 1.09229 0
M  V30 7765 C 763.156 0.883379 1.34481 0
M  V30 7766 O 764.348 1.14728 1.34783 0
M  V30 7767 C 761.477 2.44876 2.40605 0
M  V30 7768 C 760.563 3.63405 2.18627 0
M  V30 7769 N 760.954 4.77583 1.66579 0
M  V30 7770 C 759.252 3.69953 2.491 0
M  V30 7771 C 759.953 5.5943 1.59415 0
M  V30 7772 N 758.929 5.03275 2.05464 0
M  V30 7773 H 762.731 2.85849 0.683185 0
M  V30 7774 H 760.245 1.59987 0.278914 0
M  V30 7775 H 762.242 2.73703 3.14471 0
M  V30 7776 H 760.902 1.60546 2.82232 0
M  V30 7777 H 761.913 4.99875 1.35443 0
M  V30 7778 H 758.59 2.96336 2.94094 0
M  V30 7779 H 759.98 6.61093 1.20026 0
M  V30 7780 N 762.7 -0.34323 1.53817 0
M  V30 7781 C 764.111 -0.918823 1.62525 0
M  V30 7782 C 764.462 -1.89542 0.506765 0
M  V30 7783 O 763.587 -2.13326 -0.363441 0
M  V30 7784 C 764.182 -1.67326 2.94597 0
M  V30 7785 C 762.741 -2.19786 3.05567 0
M  V30 7786 C 761.888 -1.01708 2.57974 0
M  V30 7787 H 764.839 -0.121358 1.58235 0
M  V30 7788 H 764.86 -2.53615 2.83654 0
M  V30 7789 H 764.372 -0.962223 3.75983 0
M  V30 7790 H 762.473 -2.94065 2.28816 0
M  V30 7791 H 762.586 -2.46135 4.1104 0
M  V30 7792 H 760.95 -1.39058 2.13389 0
M  V30 7793 H 761.733 -0.320671 3.41799 0
M  V30 7794 N 764.178 -1.45556 -0.604258 0
M  V30 7795 C 765.403 -1.53509 -1.39462 0
M  V30 7796 C 765.828 -0.169638 -1.87333 0
M  V30 7797 O 765.186 0.846346 -1.60333 0
M  V30 7798 C 765.234 -2.52654 -2.5729 0
M  V30 7799 O 764.338 -2.04666 -3.5803 0
M  V30 7800 H 763.679 -0.517355 -0.416221 0
M  V30 7801 H 766.209 -1.90939 -0.735072 0
M  V30 7802 H 766.219 -2.71568 -3.04491 0
M  V30 7803 H 764.894 -3.51823 -2.21797 0
M  V30 7804 H 763.471 -1.95643 -3.17456 0
M  V30 7805 N 765.656 0.84705 -1.32902 0
M  V30 7806 C 766.902 1.60389 -1.25088 0
M  V30 7807 C 767.257 1.91521 0.183723 0
M  V30 7808 O 766.55 1.55197 1.12359 0
M  V30 7809 C 766.744 2.92663 -2.05142 0
M  V30 7810 C 766.573 2.74449 -3.56241 0
M  V30 7811 C 765.343 2.72434 -4.25567 0
M  V30 7812 C 767.541 2.47666 -4.5074 0
M  V30 7813 N 765.523 2.45512 -5.62669 0
M  V30 7814 C 766.894 2.30219 -5.75673 0
M  V30 7815 C 768.949 2.33196 -4.39914 0
M  V30 7816 C 767.652 1.99772 -6.91002 0
M  V30 7817 C 769.678 2.0414 -5.5505 0
M  V30 7818 C 769.04 1.875 -6.78987 0
M  V30 7819 H 765.139 0.590296 -0.512908 0
M  V30 7820 H 767.723 0.995058 -1.67352 0
M  V30 7821 H 765.894 3.51511 -1.65211 0
M  V30 7822 H 767.626 3.5777 -1.89163 0
M  V30 7823 H 764.381 2.85647 -3.7776 0
M  V30 7824 H 764.805 2.34958 -6.3492 0
M  V30 7825 H 769.447 2.44777 -3.44738 0
M  V30 7826 H 767.165 1.86928 -7.86183 0
M  V30 7827 H 770.751 1.93711 -5.48605 0
M  V30 7828 H 769.631 1.65339 -7.66572 0
M  V30 7829 N 767.134 1.16236 1.06428 0
M  V30 7830 C 768.383 0.937523 1.78587 0
M  V30 7831 C 768.696 -0.536 1.88113 0
M  V30 7832 O 769.902 -0.878697 2.56887 0
M  V30 7833 C 768.358 1.62808 3.2097 0
M  V30 7834 C 767.966 3.13927 3.19615 0
M  V30 7835 C 769.71 1.48515 3.97673 0
M  V30 7836 C 767.617 3.75727 4.56709 0
M  V30 7837 H 766.547 0.347125 0.669343 0
M  V30 7838 H 769.198 1.39353 1.19385 0
M  V30 7839 H 767.58 1.09977 3.80422 0
M  V30 7840 H 768.754 3.7359 2.69753 0
M  V30 7841 H 767.069 3.28089 2.56411 0
M  V30 7842 H 769.666 1.92069 4.99013 0
M  V30 7843 H 770.009 0.433913 4.14032 0
M  V30 7844 H 770.542 1.98494 3.44739 0
M  V30 7845 H 767.281 4.80793 4.45554 0
M  V30 7846 H 766.801 3.20849 5.0677 0
M  V30 7847 H 768.48 3.77203 5.25668 0
M  V30 7848 N 768.612 -1.24939 0.960631 0
M  V30 7849 C 770.023 -1.74701 0.658529 0
M  V30 7850 C 770.374 -1.77967 -0.825959 0
M  V30 7851 O 769.499 -1.40444 -1.64634 0
M  V30 7852 C 770.094 -3.17263 1.18867 0
M  V30 7853 C 768.653 -3.64561 0.936614 0
M  V30 7854 C 767.8 -2.43423 1.32817 0
M  V30 7855 H 770.751 -1.10741 1.13676 0
M  V30 7856 H 770.772 -3.76481 0.551589 0
M  V30 7857 H 770.284 -3.14854 2.26912 0
M  V30 7858 H 768.385 -3.72378 -0.128608 0
M  V30 7859 H 768.498 -4.52392 1.57729 0
M  V30 7860 H 766.862 -2.43513 0.746548 0
M  V30 7861 H 767.645 -2.437 2.41796 0
M  V30 7862 N 770.09 -0.729906 -1.39679 0
M  V30 7863 C 771.022 -0.0470588 -2.29152 0
M  V30 7864 C 772.035 0.708808 -1.4656 0
M  V30 7865 O 773.224 0.553815 -1.69691 0
M  V30 7866 C 770.324 0.957612 -3.25089 0
M  V30 7867 C 769.497 0.264321 -4.36601 0
M  V30 7868 C 768.556 1.17638 -5.12882 0
M  V30 7869 O 767.582 0.655777 -5.6541 0
M  V30 7870 N 768.784 2.50649 -5.23598 0
M  V30 7871 H 771.549 -0.815364 -2.88395 0
M  V30 7872 H 769.11 -0.578707 -1.51204 0
M  V30 7873 H 771.102 1.57026 -3.72995 0
M  V30 7874 H 769.672 1.62716 -2.66912 0
M  V30 7875 H 768.892 -0.528732 -3.90638 0
M  V30 7876 H 770.18 -0.216344 -5.0834 0
M  V30 7877 H 769.578 2.95427 -4.82431 0
M  V30 7878 H 768.135 3.07022 -5.74961 0
M  V30 7879 N 771.568 1.50203 -0.477153 0
M  V30 7880 C 772.979 1.86685 -0.0235041 0
M  V30 7881 C 773.33 1.39148 1.38319 0
M  V30 7882 O 772.455 0.759051 2.02651 0
M  V30 7883 C 773.05 3.38781 -0.0358767 0
M  V30 7884 C 771.609 3.74652 0.362327 0
M  V30 7885 C 770.756 2.7412 -0.41875 0
M  V30 7886 H 773.707 1.4286 -0.691133 0
M  V30 7887 H 773.728 3.72732 0.764924 0
M  V30 7888 H 773.24 3.73349 -1.05981 0
M  V30 7889 H 771.341 3.45686 1.39039 0
M  V30 7890 H 771.454 4.79063 0.059457 0
M  V30 7891 H 769.818 2.54376 0.128341 0
M  V30 7892 H 770.601 3.11532 -1.44231 0
M  V30 7893 N 773.046 0.209999 1.56195 0
M  V30 7894 C 774.295 -0.425106 1.97169 0
M  V30 7895 C 774.608 -1.61718 1.10031 0
M  V30 7896 O 775.814 -2.32105 1.40853 0
M  V30 7897 C 774.27 -0.80771 3.50719 0
M  V30 7898 C 773.878 0.360902 4.46544 0
M  V30 7899 C 775.622 -1.40906 4.00432 0
M  V30 7900 C 773.529 -0.0434919 5.91384 0
M  V30 7901 H 772.459 -0.162598 0.736259 0
M  V30 7902 H 775.11 0.304382 1.80958 0
M  V30 7903 H 773.492 -1.59429 3.62489 0
M  V30 7904 H 774.666 1.13846 4.46515 0
M  V30 7905 H 772.981 0.874729 4.07109 0
M  V30 7906 H 775.578 -1.72433 5.06133 0
M  V30 7907 H 775.921 -2.32081 3.45607 0
M  V30 7908 H 776.454 -0.686154 3.91838 0
M  V30 7909 H 773.193 0.834448 6.50167 0
M  V30 7910 H 772.713 -0.785598 5.94633 0
M  V30 7911 H 774.392 -0.474176 6.4526 0
M  V30 7912 N 774.524 -1.57472 -0.0634922 0
M  V30 7913 C 775.456 -2.00999 -1.10145 0
M  V30 7914 C 776.469 -0.917219 -1.34503 0
M  V30 7915 O 777.658 -1.19501 -1.32596 0
M  V30 7916 C 774.758 -2.34089 -2.45063 0
M  V30 7917 C 773.931 -3.65317 -2.40546 0
M  V30 7918 C 772.99 -3.85982 -3.57637 0
M  V30 7919 O 772.016 -4.5747 -3.38689 0
M  V30 7920 N 773.218 -3.28971 -4.78287 0
M  V30 7921 H 775.983 -2.90656 -0.730714 0
M  V30 7922 H 773.544 -1.59926 -0.252017 0
M  V30 7923 H 775.536 -2.4508 -3.22053 0
M  V30 7924 H 774.106 -1.50279 -2.74107 0
M  V30 7925 H 773.326 -3.65003 -1.48885 0
M  V30 7926 H 774.614 -4.51468 -2.34636 0
M  V30 7927 H 774.012 -2.70962 -4.96584 0
M  V30 7928 H 772.569 -3.45398 -5.5276 0
M  V30 7929 N 776.003 0.335068 -1.53997 0
M  V30 7930 C 777.231 1.09418 -1.756 0
M  V30 7931 C 777.646 1.82083 -0.499138 0
M  V30 7932 O 777.003 1.74646 0.529631 0
M  V30 7933 C 777.054 2.10115 -2.94166 0
M  V30 7934 O 776.775 1.40404 -4.14992 0
M  V30 7935 C 778.276 2.98336 -3.27888 0
M  V30 7936 H 775.496 0.32595 -0.586513 0
M  V30 7937 H 778.04 0.384693 -2.00849 0
M  V30 7938 H 776.195 2.76616 -2.71224 0
M  V30 7939 H 776.609 2.07743 -4.81605 0
M  V30 7940 H 778.083 3.6491 -4.1418 0
M  V30 7941 H 778.56 3.64814 -2.44556 0
M  V30 7942 H 779.166 2.37412 -3.52868 0
M  V30 7943 N 777.481 1.45874 0.596531 0
M  V30 7944 C 778.727 1.5069 1.35722 0
M  V30 7945 C 779.06 0.152506 1.936 0
M  V30 7946 O 778.335 -0.834411 1.75692 0
M  V30 7947 C 778.618 2.59474 2.4969 0
M  V30 7948 C 778.471 4.04396 1.96937 0
M  V30 7949 C 779.79 2.64451 3.51787 0
M  V30 7950 H 776.909 0.548611 0.492133 0
M  V30 7951 H 779.551 1.77741 0.671428 0
M  V30 7952 H 777.701 2.36539 3.08191 0
M  V30 7953 H 779.373 4.38576 1.43 0
M  V30 7954 H 777.616 4.14529 1.27859 0
M  V30 7955 H 778.287 4.76218 2.79143 0
M  V30 7956 H 780.763 2.85031 3.03145 0
M  V30 7957 H 779.639 3.42411 4.29006 0
M  V30 7958 H 779.9 1.69965 4.08123 0
M  V30 7959 N 778.959 -0.83999 1.33349 0
M  V30 7960 C 779.891 -1.95678 1.19344 0
M  V30 7961 C 780.904 -1.62322 0.124692 0
M  V30 7962 O 782.093 -1.74516 0.375012 0
M  V30 7963 C 779.193 -3.29133 0.807771 0
M  V30 7964 C 778.366 -3.9063 1.96792 0
M  V30 7965 C 777.425 -5.02438 1.56341 0
M  V30 7966 O 776.451 -5.21646 2.27759 0
M  V30 7967 N 777.653 -5.78612 0.467767 0
M  V30 7968 H 780.418 -2.08229 2.15548 0
M  V30 7969 H 777.979 -1.01566 1.26079 0
M  V30 7970 H 779.971 -4.01355 0.519282 0
M  V30 7971 H 778.541 -3.12535 -0.063555 0
M  V30 7972 H 777.761 -3.11011 2.4221 0
M  V30 7973 H 779.049 -4.2845 2.74422 0
M  V30 7974 H 778.447 -5.65559 -0.126324 0
M  V30 7975 H 777.004 -6.51362 0.238945 0
M  V30 7976 N 780.437 -1.16799 -1.0581 0
M  V30 7977 C 781.848 -0.95945 -1.60161 0
M  V30 7978 C 782.199 0.49543 -1.89842 0
M  V30 7979 O 781.324 1.36957 -1.67546 0
M  V30 7980 C 781.919 -1.73527 -2.90987 0
M  V30 7981 C 780.478 -1.57158 -3.42021 0
M  V30 7982 C 779.625 -1.74089 -2.15843 0
M  V30 7983 H 782.576 -1.31598 -0.886992 0
M  V30 7984 H 782.597 -1.21397 -3.60615 0
M  V30 7985 H 782.109 -2.79411 -2.69353 0
M  V30 7986 H 780.21 -0.537361 -3.68705 0
M  V30 7987 H 780.323 -2.35858 -4.17022 0
M  V30 7988 H 778.687 -1.16874 -2.26302 0
M  V30 7989 H 779.47 -2.81371 -1.96686 0
M  V30 7990 N 781.915 1.24427 -0.967243 0
M  V30 7991 C 783.14 1.9708 -0.646069 0
M  V30 7992 C 783.565 1.71272 0.777665 0
M  V30 7993 O 782.923 0.976179 1.52776 0
M  V30 7994 C 782.971 3.48501 -0.926266 0
M  V30 7995 O 782.075 4.12398 -0.0114653 0
M  V30 7996 H 781.416 0.617423 -0.244304 0
M  V30 7997 H 783.946 1.58215 -1.29727 0
M  V30 7998 H 783.956 3.98885 -0.857619 0
M  V30 7999 H 782.631 3.66613 -1.96386 0
M  V30 8000 H 781.208 3.72661 -0.133396 0
M  V30 8001 N 783.393 0.737304 1.3929 0
M  V30 8002 C 784.804 0.355966 1.83275 0
M  V30 8003 C 785.155 -1.11295 1.6158 0
M  V30 8004 O 784.28 -1.85871 1.10819 0
M  V30 8005 C 784.875 0.63931 3.32713 0
M  V30 8006 C 783.434 0.31144 3.75109 0
M  V30 8007 C 782.581 0.900765 2.62262 0
M  V30 8008 H 785.532 0.934763 1.28249 0
M  V30 8009 H 785.553 -0.0881293 3.80398 0
M  V30 8010 H 785.065 1.70847 3.48472 0
M  V30 8011 H 783.166 -0.751791 3.64937 0
M  V30 8012 H 783.279 0.795611 4.72448 0
M  V30 8013 H 781.643 0.327239 2.52589 0
M  V30 8014 H 782.426 1.97463 2.80826 0
M  V30 8015 N 784.871 -1.49948 0.485112 0
M  V30 8016 C 786.118 -2.02396 -0.0650059 0
M  V30 8017 C 786.446 -1.36606 -1.38452 0
M  V30 8018 O 785.701 -0.485476 -1.89583 0
M  V30 8019 C 786 -3.56282 -0.282434 0
M  V30 8020 C 785.666 -4.40625 0.957106 0
M  V30 8021 C 784.328 -4.63393 1.29692 0
M  V30 8022 C 786.68 -4.89799 1.78176 0
M  V30 8023 C 784.008 -5.3258 2.4612 0
M  V30 8024 C 786.36 -5.60266 2.93743 0
M  V30 8025 C 785.024 -5.81284 3.28124 0
M  V30 8026 H 784.294 -0.740618 -0.0237873 0
M  V30 8027 H 786.941 -1.80416 0.642044 0
M  V30 8028 H 785.246 -3.76853 -1.07186 0
M  V30 8029 H 786.943 -3.94442 -0.722276 0
M  V30 8030 H 783.533 -4.23133 0.682384 0
M  V30 8031 H 787.717 -4.7205 1.53239 0
M  V30 8032 H 782.973 -5.47059 2.73014 0
M  V30 8033 H 787.147 -5.97347 3.5798 0
M  V30 8034 H 784.774 -6.34671 4.18446 0
M  V30 8035 N 786.349 -0.21828 -1.56081 0
M  V30 8036 C 787.76 0.290166 -1.84431 0
M  V30 8037 C 788.111 1.59712 -1.13958 0
M  V30 8038 O 787.236 2.12516 -0.40815 0
M  V30 8039 C 787.831 0.53325 -3.34577 0
M  V30 8040 C 786.39 0.986011 -3.63256 0
M  V30 8041 C 785.537 0.0472798 -2.7726 0
M  V30 8042 H 788.488 -0.441548 -1.52434 0
M  V30 8043 H 788.509 1.37967 -3.54606 0
M  V30 8044 H 788.021 -0.418137 -3.85841 0
M  V30 8045 H 786.122 1.95087 -3.17446 0
M  V30 8046 H 786.235 0.862684 -4.71269 0
M  V30 8047 H 784.599 0.553471 -2.48614 0
M  V30 8048 H 785.382 -0.898966 -3.31321 0
M  V30 8049 N 787.827 1.57504 0.0551401 0
M  V30 8050 C 788.737 2.08198 1.08124 0
M  V30 8051 C 789.753 1.01496 1.41331 0
M  V30 8052 O 790.929 1.33073 1.51174 0
M  V30 8053 C 787.994 2.52968 2.37083 0
M  V30 8054 C 787.055 3.7404 2.10696 0
M  V30 8055 C 786.288 4.16665 3.33505 0
M  V30 8056 O 786.511 3.59019 4.4324 0
M  V30 8057 O 785.445 5.09324 3.20737 0
M  V30 8058 H 789.271 2.95977 0.680518 0
M  V30 8059 H 786.856 1.46933 0.270401 0
M  V30 8060 H 788.738 2.82211 3.12946 0
M  V30 8061 H 787.413 1.6831 2.76502 0
M  V30 8062 H 786.32 3.49855 1.32484 0
M  V30 8063 H 787.653 4.59601 1.76148 0
M  V30 8064 N 789.305 -0.326896 1.54172 0
M  V30 8065 C 790.553 -1.06313 1.71878 0
M  V30 8066 C 790.874 -1.88652 0.493498 0
M  V30 8067 O 790.144 -1.89608 -0.492522 0
M  V30 8068 H 788.724 -0.39549 0.633716 0
M  V30 8069 H 791.386 -0.364139 1.91468 0
M  V30 8070 H 790.482 -1.73105 2.59694 0
M  V30 8071 N 790.784 -1.46188 -0.588786 0
M  V30 8072 C 792.012 -1.54743 -1.37339 0
M  V30 8073 C 792.427 -0.186446 -1.87877 0
M  V30 8074 O 791.784 0.815247 -1.63279 0
M  V30 8075 C 791.835 -2.54727 -2.56508 0
M  V30 8076 O 791.556 -3.85539 -2.08066 0
M  V30 8077 C 793.057 -2.73163 -3.49137 0
M  V30 8078 H 790.277 -0.523484 -0.419768 0
M  V30 8079 H 792.821 -1.91543 -0.716345 0
M  V30 8080 H 790.976 -2.20948 -3.18215 0
M  V30 8081 H 791.39 -4.39905 -2.85629 0
M  V30 8082 H 792.864 -3.47057 -4.2925 0
M  V30 8083 H 793.341 -1.79856 -4.00685 0
M  V30 8084 H 793.947 -3.08014 -2.9327 0
M  V30 8085 N 792.262 0.832906 -1.33792 0
M  V30 8086 C 793.225 1.92471 -1.24449 0
M  V30 8087 C 794.225 1.59981 -0.162085 0
M  V30 8088 O 795.415 1.69208 -0.414029 0
M  V30 8089 C 792.547 3.28278 -0.919044 0
M  V30 8090 H 793.74 2.0218 -2.21502 0
M  V30 8091 H 791.293 1.0257 -1.17936 0
M  V30 8092 H 792.028 3.24263 0.048738 0
M  V30 8093 H 791.813 3.53241 -1.70187 0
M  V30 8094 H 793.303 4.08253 -0.878576 0
M  V30 8095 N 793.74 1.17359 1.05189 0
M  V30 8096 C 794.965 0.98709 1.82404 0
M  V30 8097 C 795.39 -0.459848 1.82392 0
M  V30 8098 O 794.748 -1.32924 1.23292 0
M  V30 8099 C 794.796 1.53276 3.26403 0
M  V30 8100 O 793.9 0.746541 4.05587 0
M  V30 8101 H 793.241 0.35047 0.563974 0
M  V30 8102 H 795.771 1.55856 1.32552 0
M  V30 8103 H 795.781 1.55504 3.77203 0
M  V30 8104 H 794.456 2.58603 3.25726 0
M  V30 8105 H 793.033 0.795671 3.64312 0
M  V30 8106 N 795.218 -1.23913 0.973828 0
M  V30 8107 C 796.166 -2.27141 0.50098 0
M  V30 8108 C 797.16 -1.63623 -0.438631 0
M  V30 8109 O 798.366 -1.77253 -0.313247 0
M  V30 8110 H 794.741 -0.73817 0.14356 0
M  V30 8111 H 796.712 -2.64392 1.38346 0
M  V30 8112 C 795.461 -3.47195 -0.187377 0
M  V30 8113 H 794.784 -3.96318 0.526535 0
M  V30 8114 H 796.224 -4.21252 -0.481962 0
M  V30 8115 C 794.683 -3.05678 -1.41642 0
M  V30 8116 O 795.213 -3.1338 -2.51309 0
M  V30 8117 N 793.419 -2.60661 -1.28469 0
M  V30 8118 H 792.966 -2.54594 -0.39238 0
M  V30 8119 H 792.924 -2.33249 -2.10813 0
M  V30 8120 N 796.696 -0.74468 -1.38897 0
M  V30 8121 C 797.942 -0.297324 -2.00609 0
M  V30 8122 C 798.275 1.11547 -1.58968 0
M  V30 8123 O 797.55 1.76227 -0.823057 0
M  V30 8124 C 797.833 -0.410125 -3.57757 0
M  V30 8125 C 797.686 -1.86338 -4.09387 0
M  V30 8126 C 799.005 0.20176 -4.39637 0
M  V30 8127 H 796.124 -0.109509 -0.728819 0
M  V30 8128 H 798.766 -0.942653 -1.64967 0
M  V30 8129 H 796.916 0.139287 -3.8825 0
M  V30 8130 H 798.588 -2.47042 -3.89574 0
M  V30 8131 H 796.831 -2.38146 -3.62586 0
M  V30 8132 H 797.502 -1.89352 -5.18507 0
M  V30 8133 H 799.978 -0.266703 -4.15244 0
M  V30 8134 H 798.854 0.0925415 -5.48822 0
M  V30 8135 H 799.115 1.289 -4.22891 0
M  V30 8136 N 798.174 1.49689 -0.493057 0
M  V30 8137 C 799.402 2.06836 0.0513141 0
M  V30 8138 C 799.817 1.35436 1.31539 0
M  V30 8139 O 799.174 0.430248 1.77356 0
M  V30 8140 C 799.225 3.60107 0.317003 0
M  V30 8141 O 798.946 4.2882 -0.896957 0
M  V30 8142 C 800.447 4.33945 0.905902 0
M  V30 8143 H 797.667 0.670787 -0.0169048 0
M  V30 8144 H 800.211 1.92574 -0.688139 0
M  V30 8145 H 798.366 3.74099 1.00642 0
M  V30 8146 H 798.78 5.20395 -0.654939 0
M  V30 8147 H 800.254 5.42087 1.04144 0
M  V30 8148 H 800.731 3.95895 1.90168 0
M  V30 8149 H 801.337 4.2454 0.254195 0
M  V30 8150 N 799.652 0.226554 1.55963 0
M  V30 8151 C 800.898 -0.404387 1.98727 0
M  V30 8152 C 801.231 -1.59059 1.11418 0
M  V30 8153 O 800.506 -1.93729 0.172971 0
M  V30 8154 C 800.789 -0.834081 3.50307 0
M  V30 8155 C 800.642 0.356104 4.48388 0
M  V30 8156 C 801.961 -1.68845 4.06423 0
M  V30 8157 H 799.08 -0.145515 0.722492 0
M  V30 8158 H 801.722 0.323791 1.87221 0
M  V30 8159 H 799.872 -1.45454 3.60244 0
M  V30 8160 H 801.544 0.99432 4.50456 0
M  V30 8161 H 799.787 1.0027 4.22053 0
M  V30 8162 H 800.458 0.0124333 5.51999 0
M  V30 8163 H 802.934 -1.16489 3.99461 0
M  V30 8164 H 801.81 -1.958 5.1279 0
M  V30 8165 H 802.071 -2.65347 3.53615 0
M  V30 8166 N 801.13 -1.57531 -0.0467866 0
M  V30 8167 C 802.063 -2.00734 -1.08541 0
M  V30 8168 C 803.041 -0.888508 -1.36177 0
M  V30 8169 O 804.225 -1.1529 -1.49132 0
M  V30 8170 C 801.352 -2.36535 -2.42423 0
M  V30 8171 C 800.398 -3.58681 -2.3076 0
M  V30 8172 S 801.231 -5.08536 -1.67785 0
M  V30 8173 C 802.387 -5.47562 -3.03194 0
M  V30 8174 H 802.62 -2.88516 -0.717345 0
M  V30 8175 H 800.153 -1.5226 -0.256181 0
M  V30 8176 H 802.111 -2.57834 -3.19424 0
M  V30 8177 H 800.772 -1.49236 -2.76382 0
M  V30 8178 H 799.965 -3.81329 -3.29552 0
M  V30 8179 H 799.567 -3.37142 -1.61899 0
M  V30 8180 H 801.859 -5.47163 -3.99524 0
M  V30 8181 H 802.802 -6.48082 -2.85299 0
M  V30 8182 H 803.21 -4.75042 -3.04951 0
M  V30 8183 N 802.608 0.318715 -1.54344 0
M  V30 8184 C 804.019 0.89285 -1.63967 0
M  V30 8185 C 804.37 1.88712 -0.536855 0
M  V30 8186 O 803.495 2.13877 0.329457 0
M  V30 8187 C 804.09 1.62618 -2.97222 0
M  V30 8188 C 802.649 2.14897 -3.09025 0
M  V30 8189 C 801.796 0.975909 -2.5956 0
M  V30 8190 H 804.747 0.0961687 -1.58408 0
M  V30 8191 H 804.768 2.4907 -2.87653 0
M  V30 8192 H 804.28 0.902286 -3.77466 0
M  V30 8193 H 802.381 2.90387 -2.33465 0
M  V30 8194 H 802.494 2.39565 -4.14904 0
M  V30 8195 H 800.858 1.35646 -2.15574 0
M  V30 8196 H 801.641 0.266253 -3.42266 0
M  V30 8197 N 804.086 1.46499 0.581025 0
M  V30 8198 C 805.497 1.4604 1.16315 0
M  V30 8199 C 805.848 0.202154 1.95156 0
M  V30 8200 O 804.973 -0.694638 2.04948 0
M  V30 8201 C 805.568 2.64593 2.11604 0
M  V30 8202 C 804.127 2.6717 2.65136 0
M  V30 8203 C 803.274 2.38753 1.4104 0
M  V30 8204 H 806.225 1.54354 0.368871 0
M  V30 8205 H 806.246 2.40207 2.95095 0
M  V30 8206 H 805.758 3.56154 1.54194 0
M  V30 8207 H 803.859 1.79685 3.26411 0
M  V30 8208 H 803.972 3.67182 3.07757 0
M  V30 8209 H 802.336 1.88845 1.70908 0
M  V30 8210 H 803.119 3.32493 0.854588 0
M  V30 8211 N 805.565 -0.825799 1.34232 0
M  V30 8212 C 806.811 -1.58419 1.26614 0
M  V30 8213 C 807.144 -1.93503 -0.164341 0
M  V30 8214 O 806.419 -1.59785 -1.109 0
M  V30 8215 C 806.702 -2.8856 2.15418 0
M  V30 8216 C 806.555 -2.60075 3.66989 0
M  V30 8217 C 807.874 -3.90107 2.03726 0
M  V30 8218 H 804.993 -0.574794 0.461282 0
M  V30 8219 H 807.635 -0.951519 1.64457 0
M  V30 8220 H 805.785 -3.42553 1.83275 0
M  V30 8221 H 807.457 -2.12414 4.09485 0
M  V30 8222 H 805.7 -1.93565 3.88221 0
M  V30 8223 H 806.371 -3.52866 4.24488 0
M  V30 8224 H 808.847 -3.45459 2.31942 0
M  V30 8225 H 807.723 -4.78976 2.68092 0
M  V30 8226 H 807.984 -4.30329 1.01337 0
M  V30 8227 N 807.043 -1.17915 -1.04565 0
M  V30 8228 C 808.006 -0.903787 -2.10628 0
M  V30 8229 C 809.006 0.10873 -1.60432 0
M  V30 8230 O 810.196 -0.124152 -1.73757 0
M  V30 8231 C 807.328 -0.355017 -3.39046 0
M  V30 8232 H 808.521 -1.84425 -2.3649 0
M  V30 8233 H 806.074 -0.990477 -1.2091 0
M  V30 8234 H 806.809 0.592297 -3.18845 0
M  V30 8235 H 806.594 -1.08484 -3.76794 0
M  V30 8236 H 808.084 -0.180891 -4.17208 0
M  V30 8237 N 808.521 1.23394 -0.980386 0
M  V30 8238 C 809.431 2.28561 -0.528864 0
M  V30 8239 C 810.447 1.68946 0.416329 0
M  V30 8240 O 811.623 1.99355 0.286251 0
M  V30 8241 C 808.688 3.46323 0.16155 0
M  V30 8242 C 807.749 4.21297 -0.825044 0
M  V30 8243 C 806.982 5.33437 -0.167483 0
M  V30 8244 O 807.205 5.60812 1.04146 0
M  V30 8245 O 806.139 5.95637 -0.866047 0
M  V30 8246 H 809.965 2.69326 -1.40346 0
M  V30 8247 H 807.55 1.29325 -0.748019 0
M  V30 8248 H 809.432 4.17811 0.548841 0
M  V30 8249 H 808.107 3.0751 1.01092 0
M  V30 8250 H 807.014 3.52134 -1.26303 0
M  V30 8251 H 808.347 4.6396 -1.64322 0
M  V30 8252 N 809.999 0.752036 1.385 0
M  V30 8253 C 810.962 0.131587 2.28822 0
M  V30 8254 C 811.962 -0.649149 1.47115 0
M  V30 8255 O 813.152 -0.475645 1.67581 0
M  V30 8256 C 810.284 -0.822101 3.30839 0
M  V30 8257 H 811.477 0.927551 2.85196 0
M  V30 8258 H 809.03 0.518945 1.47434 0
M  V30 8259 H 809.765 -1.6438 2.79553 0
M  V30 8260 H 809.55 -0.264689 3.91206 0
M  V30 8261 H 811.04 -1.25226 3.98382 0
M  V30 8262 N 811.477 -1.49425 0.500989 0
M  V30 8263 C 812.888 -1.86624 0.0532011 0
M  V30 8264 C 813.239 -1.41331 -1.36088 0
M  V30 8265 O 812.364 -0.791195 -2.01418 0
M  V30 8266 C 812.959 -3.38681 0.0897693 0
M  V30 8267 C 811.518 -3.75181 -0.302677 0
M  V30 8268 C 810.665 -2.73419 0.462307 0
M  V30 8269 H 813.616 -1.41743 0.713773 0
M  V30 8270 H 813.637 -3.73902 -0.705528 0
M  V30 8271 H 813.149 -3.71616 1.11907 0
M  V30 8272 H 811.25 -3.47855 -1.33521 0
M  V30 8273 H 811.363 -4.79097 0.0167653 0
M  V30 8274 H 809.727 -2.54548 -0.0878557 0
M  V30 8275 H 810.51 -3.09198 1.49169 0
M  V30 8276 N 812.955 -0.234822 -1.55841 0
M  V30 8277 C 813.903 0.686145 -2.22249 0
M  V30 8278 C 814.897 1.18948 -1.20614 0
M  V30 8279 O 816.103 1.14777 -1.38659 0
M  V30 8280 H 812.478 0.239724 -0.712767 0
M  V30 8281 H 814.449 0.102762 -2.98223 0
M  V30 8282 C 813.198 1.8776 -2.92646 0
M  V30 8283 H 812.521 1.49943 -3.70617 0
M  V30 8284 H 813.961 2.4995 -3.42493 0
M  V30 8285 C 812.42 2.74127 -1.95847 0
M  V30 8286 O 812.95 3.7329 -1.48384 0
M  V30 8287 N 811.156 2.4044 -1.63209 0
M  V30 8288 H 810.703 1.59854 -2.02001 0
M  V30 8289 H 810.661 2.98504 -0.987063 0
M  V30 8290 N 814.433 1.57553 0.0384317 0
M  V30 8291 C 815.663 1.92813 0.742064 0
M  V30 8292 C 816.071 0.832157 1.69917 0
M  V30 8293 O 815.414 -0.200917 1.82598 0
M  V30 8294 C 815.476 3.23806 1.56172 0
M  V30 8295 C 815.14 4.50459 0.770407 0
M  V30 8296 C 816.137 5.19846 0.0748006 0
M  V30 8297 C 813.822 4.97001 0.727714 0
M  V30 8298 C 815.816 6.34047 -0.652902 0
M  V30 8299 C 813.503 6.111 -0.00373992 0
M  V30 8300 C 814.501 6.79477 -0.692816 0
M  V30 8301 O 814.189 7.91395 -1.41241 0
M  V30 8302 H 813.921 0.641174 0.214179 0
M  V30 8303 H 816.475 2.054 0.00285095 0
M  V30 8304 H 814.705 3.0752 2.34453 0
M  V30 8305 H 816.394 3.44463 2.14709 0
M  V30 8306 H 817.16 4.84899 0.098875 0
M  V30 8307 H 813.039 4.43629 1.25355 0
M  V30 8308 H 816.583 6.87353 -1.1913 0
M  V30 8309 H 812.48 6.45493 -0.0297703 0
M  V30 8310 H 813.248 8.07702 -1.32512 0
M  V30 8311 N 815.911 -0.310526 1.54511 0
M  V30 8312 C 816.843 -1.40405 1.8116 0
M  V30 8313 C 817.856 -1.47261 0.694114 0
M  V30 8314 O 819.045 -1.49751 0.971441 0
M  V30 8315 C 816.145 -2.78849 1.92604 0
M  V30 8316 C 815.318 -2.95041 3.22908 0
M  V30 8317 C 814.377 -4.13925 3.24889 0
M  V30 8318 O 813.403 -4.06463 3.98467 0
M  V30 8319 N 814.605 -5.24099 2.496 0
M  V30 8320 H 817.37 -1.17903 2.75534 0
M  V30 8321 H 814.931 -0.500564 1.53967 0
M  V30 8322 H 816.923 -3.5661 1.91342 0
M  V30 8323 H 815.493 -2.94342 1.05268 0
M  V30 8324 H 814.713 -2.04472 3.37023 0
M  V30 8325 H 816.001 -3.02763 4.08916 0
M  V30 8326 H 815.399 -5.33039 1.89435 0
M  V30 8327 H 813.956 -6.0023 2.54102 0
M  V30 8328 N 817.389 -1.46805 -0.573248 0
M  V30 8329 C 818.637 -1.52302 -1.32847 0
M  V30 8330 C 818.958 -0.180159 -1.94166 0
M  V30 8331 O 818.228 0.794291 -1.79075 0
M  V30 8332 H 816.808 -0.56097 -0.493276 0
M  V30 8333 H 819.47 -1.82998 -0.670642 0
M  V30 8334 H 818.566 -2.28089 -2.13031 0
M  V30 8335 N 818.867 0.818669 -1.34668 0
M  V30 8336 C 820.278 1.39177 -1.24446 0
M  V30 8337 C 820.629 1.9578 0.128268 0
M  V30 8338 O 819.754 1.90382 1.02877 0
M  V30 8339 C 820.349 2.53012 -2.25323 0
M  V30 8340 C 818.908 3.06218 -2.18878 0
M  V30 8341 C 818.055 1.79112 -2.11694 0
M  V30 8342 H 821.006 0.622709 -1.45973 0
M  V30 8343 H 821.027 3.31226 -1.8727 0
M  V30 8344 H 820.539 2.11784 -3.25221 0
M  V30 8345 H 818.64 3.51939 -1.22351 0
M  V30 8346 H 818.753 3.65019 -3.10319 0
M  V30 8347 H 817.117 2.0018 -1.57481 0
M  V30 8348 H 817.9 1.40053 -3.13433 0
M  V30 8349 N 820.346 1.18468 1.03938 0
M  V30 8350 C 821.757 0.984808 1.58614 0
M  V30 8351 C 822.108 -0.465165 1.90606 0
M  V30 8352 O 821.233 -1.34274 1.69704 0
M  V30 8353 C 821.828 1.78135 2.8819 0
M  V30 8354 C 820.387 1.62579 3.39478 0
M  V30 8355 C 819.534 1.77501 2.13046 0
M  V30 8356 H 822.485 1.32993 0.865944 0
M  V30 8357 H 822.506 1.27119 3.58638 0
M  V30 8358 H 822.018 2.83661 2.64874 0
M  V30 8359 H 820.119 0.59595 3.67803 0
M  V30 8360 H 820.232 2.42463 4.13217 0
M  V30 8361 H 818.596 1.2046 2.24414 0
M  V30 8362 H 819.379 2.84464 1.92185 0
M  V30 8363 N 821.824 -1.22873 0.986916 0
M  V30 8364 C 823.235 -1.73264 0.695438 0
M  V30 8365 C 823.586 -1.79679 -0.788023 0
M  V30 8366 O 822.711 -1.43905 -1.61618 0
M  V30 8367 C 823.306 -3.14671 1.2557 0
M  V30 8368 C 821.865 -3.62492 1.01373 0
M  V30 8369 C 821.012 -2.40551 1.37951 0
M  V30 8370 H 823.963 -1.08304 1.15999 0
M  V30 8371 H 823.984 -3.75226 0.631322 0
M  V30 8372 H 823.496 -3.0997 2.33539 0
M  V30 8373 H 821.597 -3.72567 -0.0495917 0
M  V30 8374 H 821.71 -4.48944 1.67289 0
M  V30 8375 H 820.074 -2.41875 0.798033 0
M  V30 8376 H 820.857 -2.38516 2.46911 0
M  V30 8377 N 823.302 -0.75937 -1.38099 0
M  V30 8378 C 824.713 -0.385078 -1.82686 0
M  V30 8379 C 825.064 1.0871 -1.6333 0
M  V30 8380 O 824.189 1.84084 -1.13762 0
M  V30 8381 C 824.784 -0.692161 -3.31654 0
M  V30 8382 C 823.343 -0.371077 -3.74566 0
M  V30 8383 C 822.49 -0.942375 -2.60796 0
M  V30 8384 H 825.441 -0.955048 -1.26746 0
M  V30 8385 H 825.462 0.0276001 -3.8049 0
M  V30 8386 H 824.974 -1.76369 -3.4571 0
M  V30 8387 H 823.075 0.693637 -3.66087 0
M  V30 8388 H 823.188 -0.870672 -4.71122 0
M  V30 8389 H 821.552 -0.367383 -2.52036 0
M  V30 8390 H 822.335 -2.01905 -2.77649 0
M  V30 8391 N 824.78 1.49157 -0.508906 0
M  V30 8392 C 826.01 2.06579 0.0293308 0
M  V30 8393 C 826.418 1.36852 1.30645 0
M  V30 8394 O 825.761 0.443079 1.78276 0
M  V30 8395 C 825.823 3.57838 0.345296 0
M  V30 8396 C 825.487 4.49302 -0.835256 0
M  V30 8397 C 826.484 4.90345 -1.72793 0
M  V30 8398 C 824.169 4.91494 -1.0363 0
M  V30 8399 C 826.163 5.72327 -2.80573 0
M  V30 8400 C 823.85 5.7325 -2.11726 0
M  V30 8401 C 824.848 6.13572 -3.00032 0
M  V30 8402 O 824.536 6.93691 -4.06261 0
M  V30 8403 H 824.268 0.675679 -0.0208193 0
M  V30 8404 H 826.822 1.9282 -0.707789 0
M  V30 8405 H 825.052 3.69634 1.13612 0
M  V30 8406 H 826.741 3.97467 0.823089 0
M  V30 8407 H 827.507 4.58388 -1.58446 0
M  V30 8408 H 823.386 4.59605 -0.358308 0
M  V30 8409 H 826.93 6.03719 -3.49527 0
M  V30 8410 H 822.827 6.0462 -2.26065 0
M  V30 8411 H 823.595 7.12011 -4.03711 0
M  V30 8412 N 826.258 0.243083 1.55714 0
M  V30 8413 C 827.669 -0.260788 1.8487 0
M  V30 8414 C 828.02 -1.57879 1.16485 0
M  V30 8415 O 827.145 -2.1184 0.441908 0
M  V30 8416 C 827.74 -0.479954 3.35383 0
M  V30 8417 C 826.299 -0.928096 3.64778 0
M  V30 8418 C 825.446 -0.00316416 2.773 0
M  V30 8419 H 828.397 0.465743 1.51712 0
M  V30 8420 H 828.418 -1.32308 3.56756 0
M  V30 8421 H 827.93 0.479468 3.85127 0
M  V30 8422 H 826.031 -1.90012 3.20509 0
M  V30 8423 H 826.144 -0.7876 4.72582 0
M  V30 8424 H 824.508 -0.513849 2.49463 0
M  V30 8425 H 825.291 0.951562 3.29849 0
M  V30 8426 N 827.736 -1.57571 -0.0300757 0
M  V30 8427 C 828.683 -2.06492 -1.03101 0
M  V30 8428 C 829.653 -0.953862 -1.3598 0
M  V30 8429 O 830.838 -1.22436 -1.46335 0
M  V30 8430 C 827.978 -2.54826 -2.32718 0
M  V30 8431 C 827.091 -3.79718 -2.06006 0
M  V30 8432 C 826.226 -4.16668 -3.29487 0
M  V30 8433 C 825.265 -5.3448 -2.98324 0
M  V30 8434 N 824.402 -5.66867 -4.14254 0
M  V30 8435 H 829.242 -2.91755 -0.606877 0
M  V30 8436 H 826.779 -1.44252 -0.288038 0
M  V30 8437 H 828.737 -2.80916 -3.08451 0
M  V30 8438 H 827.367 -1.72481 -2.72856 0
M  V30 8439 H 826.419 -3.60718 -1.20774 0
M  V30 8440 H 827.731 -4.65569 -1.79017 0
M  V30 8441 H 826.885 -4.43881 -4.13588 0
M  V30 8442 H 825.624 -3.29466 -3.59588 0
M  V30 8443 H 824.629 -5.07021 -2.12625 0
M  V30 8444 H 825.854 -6.23334 -2.69502 0
M  V30 8445 H 823.8 -4.82625 -4.44308 0
M  V30 8446 H 823.717 -6.47226 -3.90685 0
M  V30 8447 H 824.985 -5.98656 -4.99231 0
M  V30 8448 N 829.214 0.302327 -1.54673 0
M  V30 8449 C 830.164 1.37443 -1.81916 0
M  V30 8450 C 831.148 1.45999 -0.676251 0
M  V30 8451 O 832.34 1.50174 -0.93685 0
M  V30 8452 C 829.469 2.73966 -2.06876 0
M  V30 8453 C 828.555 2.69637 -3.27348 0
M  V30 8454 N 828.946 2.34926 -4.47933 0
M  V30 8455 C 827.244 3.00742 -3.29348 0
M  V30 8456 C 827.945 2.39862 -5.29944 0
M  V30 8457 N 826.921 2.77163 -4.67634 0
M  V30 8458 H 830.723 1.09567 -2.72713 0
M  V30 8459 H 828.237 0.5109 -1.54154 0
M  V30 8460 H 830.234 3.51265 -2.2454 0
M  V30 8461 H 828.894 3.02754 -1.17346 0
M  V30 8462 H 829.905 2.07403 -4.74557 0
M  V30 8463 H 826.582 3.34434 -2.49921 0
M  V30 8464 H 827.972 2.15835 -6.3629 0
M  V30 8465 N 830.692 1.47107 0.565454 0
M  V30 8466 C 831.622 1.61846 1.68309 0
M  V30 8467 C 832.603 0.468159 1.63531 0
M  V30 8468 O 833.788 0.696504 1.8128 0
M  V30 8469 C 830.918 1.62474 3.06952 0
M  V30 8470 C 829.872 2.76649 3.26572 0
M  V30 8471 C 829.198 2.62345 4.65917 0
M  V30 8472 C 830.498 4.18319 3.12741 0
M  V30 8473 H 832.192 2.55407 1.5623 0
M  V30 8474 H 829.738 1.22916 0.750179 0
M  V30 8475 H 831.691 1.71378 3.84977 0
M  V30 8476 H 830.415 0.654692 3.19971 0
M  V30 8477 H 829.074 2.67242 2.50952 0
M  V30 8478 H 828.722 1.63386 4.75725 0
M  V30 8479 H 828.422 3.38936 4.79996 0
M  V30 8480 H 829.946 2.73165 5.46089 0
M  V30 8481 H 831.36 4.28745 3.80593 0
M  V30 8482 H 829.757 4.95632 3.38333 0
M  V30 8483 H 830.827 4.37263 2.09592 0
M  V30 8484 N 832.17 -0.811516 1.35101 0
M  V30 8485 C 833.1 -1.9378 1.30275 0
M  V30 8486 C 834.081 -1.69165 0.178075 0
M  V30 8487 O 835.266 -1.90599 0.372256 0
M  V30 8488 C 832.396 -3.30439 1.06899 0
M  V30 8489 C 831.35 -3.69523 2.15955 0
M  V30 8490 C 830.676 -5.0429 1.77751 0
M  V30 8491 C 831.976 -3.80419 3.57881 0
M  V30 8492 H 833.67 -1.98075 2.24514 0
M  V30 8493 H 831.216 -0.951586 1.08078 0
M  V30 8494 H 833.169 -4.08828 1.02164 0
M  V30 8495 H 831.893 -3.26473 0.0910462 0
M  V30 8496 H 830.552 -2.93416 2.19778 0
M  V30 8497 H 830.2 -4.96823 0.785876 0
M  V30 8498 H 829.9 -5.31411 2.5075 0
M  V30 8499 H 831.424 -5.85125 1.74533 0
M  V30 8500 H 832.838 -4.49051 3.56407 0
M  V30 8501 H 831.235 -4.19005 4.29598 0
M  V30 8502 H 832.305 -2.82105 3.94391 0
M  V30 8503 N 833.648 -1.19017 -1.03309 0
M  V30 8504 C 834.598 -0.89194 -2.0983 0
M  V30 8505 C 835.582 0.14151 -1.60277 0
M  V30 8506 O 836.774 -0.0635946 -1.76886 0
M  V30 8507 C 833.903 -0.427793 -3.40624 0
M  V30 8508 C 832.989 -1.49374 -3.96923 0
M  V30 8509 N 833.38 -2.71213 -4.26939 0
M  V30 8510 C 831.678 -1.35605 -4.24885 0
M  V30 8511 C 832.379 -3.39849 -4.72099 0
M  V30 8512 N 831.355 -2.67239 -4.73375 0
M  V30 8513 H 835.157 -1.81801 -2.30923 0
M  V30 8514 H 832.671 -1.08171 -1.21131 0
M  V30 8515 H 834.668 -0.195608 -4.16441 0
M  V30 8516 H 833.328 0.491848 -3.20953 0
M  V30 8517 H 834.339 -3.08014 -4.16351 0
M  V30 8518 H 831.016 -0.499537 -4.14501 0
M  V30 8519 H 832.406 -4.44018 -5.04279 0
M  V30 8520 N 835.127 1.22348 -0.993418 0
M  V30 8521 C 836.059 2.23626 -0.502404 0
M  V30 8522 C 837.072 1.57739 0.402784 0
M  V30 8523 O 838.261 1.77321 0.204835 0
M  V30 8524 C 835.361 3.37647 0.291118 0
M  V30 8525 C 834.534 4.33121 -0.610332 0
M  V30 8526 C 833.593 5.26035 0.131572 0
M  V30 8527 O 832.619 5.67145 -0.483199 0
M  V30 8528 N 833.821 5.63023 1.41371 0
M  V30 8529 H 836.586 2.66385 -1.37329 0
M  V30 8530 H 834.147 1.36653 -0.868196 0
M  V30 8531 H 836.139 3.96792 0.796107 0
M  V30 8532 H 834.709 2.93967 1.0631 0
M  V30 8533 H 833.929 3.72287 -1.29598 0
M  V30 8534 H 835.217 4.93853 -1.22422 0
M  V30 8535 H 834.615 5.31596 1.93449 0
M  V30 8536 H 833.172 6.24582 1.86388 0
M  V30 8537 N 836.605 0.766683 1.37694 0
M  V30 8538 C 837.553 0.137269 2.32195 0
M  V30 8539 C 838.547 -0.69067 1.54681 0
M  V30 8540 O 839.753 -0.588299 1.70115 0
M  V30 8541 H 836.128 0.0256003 0.751564 0
M  V30 8542 H 838.099 0.950129 2.82869 0
M  V30 8543 C 836.848 -0.731446 3.39919 0
M  V30 8544 H 836.171 -0.103738 3.99665 0
M  V30 8545 H 837.611 -1.13891 4.08417 0
M  V30 8546 C 836.07 -1.87984 2.79578 0
M  V30 8547 O 836.6 -2.97496 2.69924 0
M  V30 8548 N 834.806 -1.6789 2.37195 0
M  V30 8549 H 834.353 -0.788162 2.45246 0
M  V30 8550 H 834.311 -2.44894 1.97165 0
M  V30 8551 N 838.083 -1.48885 0.516809 0
M  V30 8552 C 839.494 -1.86557 0.0729921 0
M  V30 8553 C 839.845 -1.42767 -1.34581 0
M  V30 8554 O 838.97 -0.812514 -2.00567 0
M  V30 8555 C 839.565 -3.38567 0.125686 0
M  V30 8556 C 838.124 -3.75481 -0.262867 0
M  V30 8557 C 837.271 -2.72913 0.491281 0
M  V30 8558 H 840.222 -1.40978 0.728767 0
M  V30 8559 H 840.243 -3.74629 -0.665831 0
M  V30 8560 H 839.755 -3.70408 1.15842 0
M  V30 8561 H 837.856 -3.49251 -1.29824 0
M  V30 8562 H 837.969 -4.79052 0.067579 0
M  V30 8563 H 836.333 -2.54627 -0.0608525 0
M  V30 8564 H 837.116 -3.07599 1.5244 0
M  V30 8565 N 839.561 -0.251338 -1.55583 0
M  V30 8566 C 840.786 0.379136 -2.03905 0
M  V30 8567 C 841.211 1.50428 -1.12929 0
M  V30 8568 O 840.569 1.80882 -0.123114 0
M  V30 8569 C 840.617 0.86009 -3.50193 0
M  V30 8570 O 839.721 1.96932 -3.62342 0
M  V30 8571 H 839.062 0.0820183 -0.658915 0
M  V30 8572 H 841.592 -0.378692 -2.01065 0
M  V30 8573 H 841.602 1.16214 -3.91099 0
M  V30 8574 H 840.277 0.0367559 -4.15884 0
M  V30 8575 H 838.854 1.67163 -3.33333 0
M  V30 8576 N 841.039 1.57585 0.0217189 0
M  V30 8577 C 842.285 1.89887 0.712099 0
M  V30 8578 C 842.618 0.849971 1.74611 0
M  V30 8579 O 841.893 -0.13407 1.94037 0
M  V30 8580 C 842.176 3.32815 1.37499 0
M  V30 8581 C 842.029 4.48405 0.353993 0
M  V30 8582 C 843.348 3.74786 2.30703 0
M  V30 8583 H 840.467 0.690588 0.257405 0
M  V30 8584 H 843.109 1.89983 -0.0251145 0
M  V30 8585 H 841.259 3.32863 2.00335 0
M  V30 8586 H 842.931 4.60491 -0.273015 0
M  V30 8587 H 841.174 4.32573 -0.32599 0
M  V30 8588 H 841.845 5.45316 0.85644 0
M  V30 8589 H 844.321 3.76151 1.77904 0
M  V30 8590 H 843.197 4.75585 2.74061 0
M  V30 8591 H 843.458 3.07449 3.17691 0
M  V30 8592 N 842.517 -0.29412 1.54831 0
M  V30 8593 C 843.928 -0.866651 1.65366 0
M  V30 8594 C 844.279 -1.87834 0.56681 0
M  V30 8595 O 843.404 -2.14374 -0.295389 0
M  V30 8596 C 843.999 -1.57869 2.99771 0
M  V30 8597 C 842.558 -2.09954 3.12404 0
M  V30 8598 C 841.705 -0.934492 2.6108 0
M  V30 8599 H 844.656 -0.0709551 1.58541 0
M  V30 8600 H 844.677 -2.44462 2.91579 0
M  V30 8601 H 844.189 -0.84212 3.78853 0
M  V30 8602 H 842.29 -2.86637 2.38055 0
M  V30 8603 H 842.403 -2.32934 4.18663 0
M  V30 8604 H 840.767 -1.32199 2.17705 0
M  V30 8605 H 841.55 -0.211768 3.42646 0
M  V30 8606 N 843.995 -1.47404 -0.557645 0
M  V30 8607 C 845.406 -1.47872 -1.13977 0
M  V30 8608 C 845.757 -0.233176 -1.94809 0
M  V30 8609 O 844.882 0.661945 -2.06027 0
M  V30 8610 C 845.477 -2.67926 -2.07368 0
M  V30 8611 C 844.036 -2.71354 -2.60852 0
M  V30 8612 C 843.183 -2.40967 -1.37223 0
M  V30 8613 H 846.134 -1.54921 -0.344268 0
M  V30 8614 H 846.155 -2.44871 -2.91236 0
M  V30 8615 H 845.667 -3.58562 -1.48509 0
M  V30 8616 H 843.768 -1.84855 -3.23511 0
M  V30 8617 H 843.881 -3.72032 -3.01876 0
M  V30 8618 H 842.245 -1.91541 -1.67882 0
M  V30 8619 H 843.028 -3.33811 -0.801583 0
M  V30 8620 N 845.473 0.80434 -1.35529 0
M  V30 8621 C 846.703 1.59052 -1.31856 0
M  V30 8622 C 847.111 1.88905 0.105549 0
M  V30 8623 O 846.454 1.49422 1.06858 0
M  V30 8624 C 846.516 2.94626 -2.06 0
M  V30 8625 C 846.18 2.87576 -3.55175 0
M  V30 8626 C 847.177 2.60856 -4.49722 0
M  V30 8627 C 844.862 3.06623 -3.97854 0
M  V30 8628 C 846.856 2.53262 -5.84925 0
M  V30 8629 C 844.543 2.98652 -5.33151 0
M  V30 8630 C 845.541 2.72007 -6.26499 0
M  V30 8631 O 845.229 2.64003 -7.59314 0
M  V30 8632 H 844.961 0.500486 -0.454411 0
M  V30 8633 H 847.515 1.0074 -1.78999 0
M  V30 8634 H 845.745 3.5493 -1.53498 0
M  V30 8635 H 847.434 3.55785 -1.95376 0
M  V30 8636 H 848.2 2.45858 -4.18066 0
M  V30 8637 H 844.079 3.26372 -3.2558 0
M  V30 8638 H 847.623 2.32386 -6.57756 0
M  V30 8639 H 843.52 3.13208 -5.64421 0
M  V30 8640 H 844.288 2.79595 -7.69265 0
M  V30 8641 N 846.951 1.19563 1.02676 0
M  V30 8642 C 847.861 0.950691 2.14474 0
M  V30 8643 C 848.877 -0.0900219 1.73767 0
M  V30 8644 O 850.053 0.0951063 2.01175 0
M  V30 8645 C 847.118 0.494917 3.43149 0
M  V30 8646 C 846.179 1.60527 3.98158 0
M  V30 8647 C 845.412 1.17115 5.20692 0
M  V30 8648 O 845.635 0.0355937 5.70389 0
M  V30 8649 O 844.569 1.97454 5.68591 0
M  V30 8650 H 848.395 1.88651 2.38001 0
M  V30 8651 H 845.98 0.978635 1.12885 0
M  V30 8652 H 847.862 0.249492 4.20661 0
M  V30 8653 H 846.537 -0.412434 3.21062 0
M  V30 8654 H 845.444 1.90487 3.21971 0
M  V30 8655 H 846.777 2.48925 4.24614 0
M  V30 8656 N 848.429 -1.21819 0.999893 0
M  V30 8657 C 849.654 -1.95298 0.698094 0
M  V30 8658 C 850.079 -1.73273 -0.731982 0
M  V30 8659 O 849.437 -1.01634 -1.50134 0
M  V30 8660 C 849.485 -3.45922 1.01834 0
M  V30 8661 O 848.589 -4.12223 0.120801 0
M  V30 8662 H 847.93 -0.610729 0.260588 0
M  V30 8663 H 850.46 -1.5472 1.33876 0
M  V30 8664 H 850.47 -3.96471 0.963074 0
M  V30 8665 H 849.145 -3.61278 2.06037 0
M  V30 8666 H 847.722 -3.72177 0.232153 0
M  V30 8667 N 849.908 -0.773975 -1.37286 0
M  V30 8668 C 851.157 -0.335977 -1.98882 0
M  V30 8669 C 851.47 1.09416 -1.62134 0
M  V30 8670 O 852.676 1.63366 -2.1685 0
M  V30 8671 C 851.132 -0.549756 -3.55676 0
M  V30 8672 C 850.74 -1.9903 -4.01361 0
M  V30 8673 C 852.484 -0.175493 -4.24137 0
M  V30 8674 C 850.391 -2.15156 -5.50874 0
M  V30 8675 H 849.321 -0.121877 -0.744085 0
M  V30 8676 H 851.972 -0.953419 -1.56787 0
M  V30 8677 H 850.354 0.137175 -3.95762 0
M  V30 8678 H 851.528 -2.71237 -3.72515 0
M  V30 8679 H 849.843 -2.32137 -3.4569 0
M  V30 8680 H 852.44 -0.274463 -5.33995 0
M  V30 8681 H 852.783 0.874524 -4.07011 0
M  V30 8682 H 853.316 -0.815058 -3.89361 0
M  V30 8683 H 850.055 -3.18485 -5.72929 0
M  V30 8684 H 849.575 -1.47435 -5.81397 0
M  V30 8685 H 851.254 -1.95124 -6.16876 0
M  V30 8686 N 851.386 1.48609 -0.524698 0
M  V30 8687 C 852.611 2.07398 0.00952139 0
M  V30 8688 C 853.036 1.37939 1.27884 0
M  V30 8689 O 852.394 0.443633 1.75788 0
M  V30 8690 C 852.442 3.59916 0.221956 0
M  V30 8691 O 851.546 3.91647 1.29175 0
M  V30 8692 H 850.887 0.662981 -0.0367729 0
M  V30 8693 H 853.417 1.91092 -0.7311 0
M  V30 8694 H 853.427 4.05552 0.446236 0
M  V30 8695 H 852.102 4.09876 -0.705306 0
M  V30 8696 H 850.679 3.57796 1.05055 0
M  V30 8697 N 852.864 0.259585 1.55447 0
M  V30 8698 C 853.811 -0.634578 2.21905 0
M  V30 8699 C 854.781 -1.16168 1.18719 0
M  V30 8700 O 855.966 -1.21383 1.4721 0
M  V30 8701 C 853.106 -1.82005 2.93203 0
M  V30 8702 C 852.219 -1.32828 4.11073 0
M  V30 8703 C 851.354 -2.47431 4.70055 0
M  V30 8704 C 850.393 -1.95179 5.80148 0
M  V30 8705 N 849.53 -3.03197 6.33258 0
M  V30 8706 H 854.37 -0.0611886 2.97937 0
M  V30 8707 H 851.907 -0.0184378 1.47088 0
M  V30 8708 H 853.865 -2.51664 3.32748 0
M  V30 8709 H 852.495 -2.36571 2.19622 0
M  V30 8710 H 851.547 -0.525301 3.76756 0
M  V30 8711 H 852.859 -0.905435 4.90513 0
M  V30 8712 H 852.013 -3.25111 5.12238 0
M  V30 8713 H 850.752 -2.93023 3.89857 0
M  V30 8714 H 849.757 -1.15974 5.37429 0
M  V30 8715 H 850.982 -1.50541 6.62204 0
M  V30 8716 H 848.928 -3.48199 5.55961 0
M  V30 8717 H 848.845 -2.65282 7.07928 0
M  V30 8718 H 850.113 -3.80898 6.80101 0
M  V30 8719 N 854.342 -1.57594 -0.0133615 0
M  V30 8720 C 855.753 -1.78168 -0.557937 0
M  V30 8721 C 856.104 -0.892616 -1.74719 0
M  V30 8722 O 855.229 -0.0915491 -2.16206 0
M  V30 8723 C 855.824 -3.23115 -1.01894 0
M  V30 8724 C 854.383 -3.44831 -1.50892 0
M  V30 8725 C 853.53 -2.73558 -0.454044 0
M  V30 8726 H 856.481 -1.57266 0.212843 0
M  V30 8727 H 856.502 -3.30493 -1.8856 0
M  V30 8728 H 856.014 -3.87798 -0.153175 0
M  V30 8729 H 854.115 -2.85345 -2.39602 0
M  V30 8730 H 854.228 -4.53485 -1.54559 0
M  V30 8731 H 852.592 -2.37787 -0.912666 0
M  V30 8732 H 853.375 -3.40932 0.402524 0
M  V30 8733 N 855.82 0.285905 -1.54985 0
M  V30 8734 C 857.045 1.04207 -1.7932 0
M  V30 8735 C 857.47 1.79622 -0.558343 0
M  V30 8736 O 856.828 1.74506 0.491661 0
M  V30 8737 C 856.876 1.98648 -3.0095 0
M  V30 8738 O 855.98 3.07207 -2.75132 0
M  V30 8739 H 855.321 0.298596 -0.593074 0
M  V30 8740 H 857.851 0.318736 -2.02102 0
M  V30 8741 H 857.861 2.4084 -3.29333 0
M  V30 8742 H 856.536 1.43167 -3.90482 0
M  V30 8743 H 855.113 2.69423 -2.57809 0
M  V30 8744 N 857.298 1.47698 0.54982 0
M  V30 8745 C 858.245 1.60739 1.65625 0
M  V30 8746 C 859.215 0.450129 1.59884 0
M  V30 8747 O 860.4 0.671123 1.78607 0
M  V30 8748 C 857.54 1.63457 3.03934 0
M  V30 8749 C 856.653 2.90152 3.20056 0
M  V30 8750 C 855.788 2.84157 4.48807 0
M  V30 8751 C 854.827 4.05644 4.58387 0
M  V30 8752 N 853.964 3.97843 5.78503 0
M  V30 8753 H 858.804 2.55234 1.53817 0
M  V30 8754 H 856.341 1.26593 0.749173 0
M  V30 8755 H 858.299 1.63015 3.84034 0
M  V30 8756 H 856.929 0.724689 3.1456 0
M  V30 8757 H 855.981 3.00428 2.33339 0
M  V30 8758 H 857.293 3.80097 3.22998 0
M  V30 8759 H 856.447 2.82006 5.37175 0
M  V30 8760 H 855.186 1.91908 4.48356 0
M  V30 8761 H 854.191 4.08092 3.6843 0
M  V30 8762 H 855.416 4.9903 4.60593 0
M  V30 8763 H 853.362 3.08401 5.78986 0
M  V30 8764 H 853.279 4.81473 5.82855 0
M  V30 8765 H 854.547 3.99719 6.69212 0
M  V30 8766 N 858.776 -0.797141 1.35954 0
M  V30 8767 C 859.686 -1.94088 1.31784 0
M  V30 8768 C 860.702 -1.72588 0.221227 0
M  V30 8769 O 861.878 -1.96256 0.452255 0
M  V30 8770 C 858.943 -3.28828 1.09878 0
M  V30 8771 C 858.004 -3.63158 2.28942 0
M  V30 8772 C 857.237 -4.91469 2.08072 0
M  V30 8773 O 857.46 -5.60616 1.05196 0
M  V30 8774 O 856.394 -5.24277 2.95664 0
M  V30 8775 H 860.22 -2.00554 2.28061 0
M  V30 8776 H 857.805 -0.936288 1.16422 0
M  V30 8777 H 859.687 -4.09473 0.995485 0
M  V30 8778 H 858.362 -3.23271 0.16659 0
M  V30 8779 H 857.269 -2.82851 2.44839 0
M  V30 8780 H 858.602 -3.7343 3.20641 0
M  V30 8781 N 860.254 -1.20106 -1.0204 0
M  V30 8782 C 861.531 -0.918029 -1.72718 0
M  V30 8783 C 861.911 0.574163 -2.03142 0
M  V30 8784 O 861.259 1.53476 -1.69285 0
M  V30 8785 C 861.469 -1.78698 -2.9978 0
M  V30 8786 C 862.817 -2.02648 -3.7312 0
M  V30 8787 O 863.841 -1.75919 -3.09727 0
M  V30 8788 O 862.7 -2.47767 -4.87107 0
M  V30 8789 H 859.794 -0.342904 -0.752559 0
M  V30 8790 H 862.34 -1.30961 -1.07923 0
M  V30 8791 H 861.112 -2.79757 -2.7359 0
M  V30 8792 H 860.735 -1.39522 -3.72316 0
M  V30 8793 N 861.732 1.21287 -1.00634 0
M  V30 8794 C 862.664 2.2308 -0.526094 0
M  V30 8795 C 863.677 1.58157 0.386031 0
M  V30 8796 O 864.866 1.77528 0.186016 0
M  V30 8797 C 861.966 3.37937 0.255289 0
M  V30 8798 C 861.139 4.32449 -0.656236 0
M  V30 8799 C 860.198 5.26145 0.0757714 0
M  V30 8800 O 859.224 5.66601 -0.543325 0
M  V30 8801 N 860.426 5.6449 1.35391 0
M  V30 8802 H 863.191 2.64913 -1.40147 0
M  V30 8803 H 860.752 1.35724 -0.882641 0
M  V30 8804 H 862.744 3.97614 0.753977 0
M  V30 8805 H 861.314 2.95078 1.03187 0
M  V30 8806 H 860.534 3.70892 -1.3354 0
M  V30 8807 H 861.822 4.92526 -1.27653 0
M  V30 8808 H 861.22 5.33617 1.878 0
M  V30 8809 H 859.777 6.26524 1.79753 0
M  V30 8810 N 863.21 0.781244 1.36873 0
M  V30 8811 C 864.621 0.414093 1.8205 0
M  V30 8812 C 864.972 -1.06098 1.65039 0
M  V30 8813 O 864.097 -1.82251 1.16677 0
M  V30 8814 C 864.692 0.744837 3.30511 0
M  V30 8815 C 863.251 0.430621 3.73929 0
M  V30 8816 C 862.398 0.983746 2.59264 0
M  V30 8817 H 865.349 0.975091 1.2521 0
M  V30 8818 H 865.37 0.032936 3.80486 0
M  V30 8819 H 864.882 1.81847 3.42861 0
M  V30 8820 H 862.983 -0.635308 3.67144 0
M  V30 8821 H 863.096 0.945514 4.69677 0
M  V30 8822 H 861.46 0.407433 2.5142 0
M  V30 8823 H 862.243 2.06297 2.74402 0
M  V30 8824 N 864.689 -1.48329 0.532571 0
M  V30 8825 C 865.914 -2.074 0.00147755 0
M  V30 8826 C 866.339 -1.38615 -1.27151 0
M  V30 8827 O 865.697 -0.452949 -1.75551 0
M  V30 8828 C 865.745 -3.60029 -0.202866 0
M  V30 8829 O 864.849 -3.92327 -1.27097 0
M  V30 8830 H 864.19 -0.662777 0.0402883 0
M  V30 8831 H 866.72 -1.90701 0.741224 0
M  V30 8832 H 866.73 -4.05783 -0.424722 0
M  V30 8833 H 865.405 -4.09496 0.727033 0
M  V30 8834 H 863.982 -3.58348 -1.03156 0
M  V30 8835 N 866.167 -0.267825 -1.55308 0
M  V30 8836 C 867.097 0.616585 -2.25212 0
M  V30 8837 C 868.078 1.16472 -1.23969 0
M  V30 8838 O 869.263 1.20021 -1.52672 0
M  V30 8839 C 866.393 1.80412 -2.96764 0
M  V30 8840 C 865.347 1.38784 -4.04874 0
M  V30 8841 C 864.673 2.65789 -4.63961 0
M  V30 8842 C 865.973 0.543415 -5.19465 0
M  V30 8843 H 867.667 0.0336257 -2.99381 0
M  V30 8844 H 865.213 0.0147328 -1.43992 0
M  V30 8845 H 867.166 2.42866 -3.44375 0
M  V30 8846 H 865.89 2.4128 -2.20118 0
M  V30 8847 H 864.549 0.786541 -3.58063 0
M  V30 8848 H 864.197 3.24899 -3.83992 0
M  V30 8849 H 863.897 2.38651 -5.36954 0
M  V30 8850 H 865.421 3.29104 -5.14318 0
M  V30 8851 H 866.835 1.07277 -5.63174 0
M  V30 8852 H 865.232 0.367219 -5.98975 0
M  V30 8853 H 866.302 -0.439534 -4.82904 0
M  V30 8854 N 867.645 1.57599 0.00500368 0
M  V30 8855 C 869.056 1.78462 0.54848 0
M  V30 8856 C 869.407 0.901869 1.74243 0
M  V30 8857 O 868.532 0.103014 2.16155 0
M  V30 8858 C 869.127 3.2365 1.00179 0
M  V30 8859 C 867.686 3.45627 1.49061 0
M  V30 8860 C 866.833 2.73794 0.439531 0
M  V30 8861 H 869.784 1.57151 -0.22118 0
M  V30 8862 H 869.805 3.31488 1.86805 0
M  V30 8863 H 869.317 3.87873 0.132607 0
M  V30 8864 H 867.418 2.86612 2.38085 0
M  V30 8865 H 867.531 4.54298 1.52152 0
M  V30 8866 H 865.895 2.38267 0.900043 0
M  V30 8867 H 866.678 3.40714 -0.420599 0
M  V30 8868 N 869.123 -0.277682 1.55134 0
M  V30 8869 C 870.07 -1.34313 1.87693 0
M  V30 8870 C 871.04 -1.49298 0.727973 0
M  V30 8871 O 872.225 -1.6378 0.978807 0
M  V30 8872 C 869.365 -2.69922 2.15026 0
M  V30 8873 C 868.478 -2.63197 3.42565 0
M  V30 8874 C 867.613 -3.90955 3.59622 0
M  V30 8875 C 866.652 -3.78722 4.8087 0
M  V30 8876 N 865.789 -4.98303 4.94609 0
M  V30 8877 H 870.629 -1.05847 2.78569 0
M  V30 8878 H 868.166 -0.511469 1.37922 0
M  V30 8879 H 870.124 -3.48817 2.28872 0
M  V30 8880 H 868.754 -2.966 1.2739 0
M  V30 8881 H 867.806 -1.76038 3.37216 0
M  V30 8882 H 869.118 -2.50056 4.31594 0
M  V30 8883 H 868.272 -4.78291 3.7326 0
M  V30 8884 H 867.011 -4.06957 2.6877 0
M  V30 8885 H 866.016 -2.89769 4.67241 0
M  V30 8886 H 867.241 -3.64242 5.73153 0
M  V30 8887 H 865.187 -5.14725 4.06687 0
M  V30 8888 H 865.104 -4.87675 5.77676 0
M  V30 8889 H 866.372 -5.87225 5.12628 0
M  V30 8890 N 870.601 -1.47988 -0.541979 0
M  V30 8891 C 871.511 -1.64276 -1.67483 0
M  V30 8892 C 872.527 -0.525387 -1.65879 0
M  V30 8893 O 873.703 -0.794912 -1.85049 0
M  V30 8894 C 870.768 -1.66744 -3.03969 0
M  V30 8895 C 869.829 -2.90021 -3.16522 0
M  V30 8896 C 869.062 -2.92362 -4.46498 0
M  V30 8897 O 869.285 -2.03462 -5.32878 0
M  V30 8898 O 868.219 -3.84399 -4.63164 0
M  V30 8899 H 872.045 -2.60164 -1.5668 0
M  V30 8900 H 869.63 -1.31249 -0.71372 0
M  V30 8901 H 871.512 -1.70958 -3.85164 0
M  V30 8902 H 870.187 -0.740277 -3.15122 0
M  V30 8903 H 869.094 -2.91345 -2.34667 0
M  V30 8904 H 870.427 -3.82082 -3.10281 0
M  V30 8905 N 872.079 0.78992 -1.36375 0
M  V30 8906 C 873.356 1.53584 -1.21126 0
M  V30 8907 C 873.736 2.10124 0.202785 0
M  V30 8908 O 873.084 1.93936 1.20835 0
M  V30 8909 C 873.294 2.63117 -2.29282 0
M  V30 8910 C 874.642 3.31013 -2.65924 0
M  V30 8911 O 875.666 2.734 -2.28321 0
M  V30 8912 O 874.525 4.35129 -3.30643 0
M  V30 8913 H 871.619 0.679366 -0.471583 0
M  V30 8914 H 874.165 0.828446 -1.48104 0
M  V30 8915 H 872.937 2.19329 -3.24053 0
M  V30 8916 H 872.56 3.41476 -2.03666 0
M  V30 8917 N 873.557 1.20646 1.01402 0
M  V30 8918 C 874.467 0.973385 2.13453 0
M  V30 8919 C 875.483 -0.0715865 1.73853 0
M  V30 8920 O 876.659 0.116438 2.01063 0
M  V30 8921 C 873.724 0.531285 3.42605 0
M  V30 8922 C 872.785 1.64741 3.96433 0
M  V30 8923 C 872.018 1.22631 5.1942 0
M  V30 8924 O 872.241 0.0960891 5.70319 0
M  V30 8925 O 871.175 2.03474 5.66465 0
M  V30 8926 H 875.001 1.91164 2.35987 0
M  V30 8927 H 872.586 0.990553 1.11841 0
M  V30 8928 H 874.468 0.294095 4.20373 0
M  V30 8929 H 873.143 -0.378358 3.21481 0
M  V30 8930 H 872.05 1.93891 3.19933 0
M  V30 8931 H 873.383 2.53415 4.2195 0
M  V30 8932 N 875.035 -1.20752 1.01276 0
M  V30 8933 C 876.26 -1.94547 0.718769 0
M  V30 8934 C 876.685 -1.7404 -0.713563 0
M  V30 8935 O 876.043 -1.03221 -1.49047 0
M  V30 8936 C 876.091 -3.44823 1.05497 0
M  V30 8937 O 875.195 -4.12072 0.164516 0
M  V30 8938 H 874.536 -0.607931 0.267051 0
M  V30 8939 H 877.066 -1.53292 1.35509 0
M  V30 8940 H 877.076 -3.95427 1.00507 0
M  V30 8941 H 875.751 -3.59072 2.09858 0
M  V30 8942 H 874.328 -3.71909 0.271615 0
M  V30 8943 N 876.513 -0.788492 -1.36457 0
M  V30 8944 C 877.423 -0.187385 -2.3385 0
M  V30 8945 C 878.439 0.659984 -1.60998 0
M  V30 8946 O 879.615 0.575986 -1.92988 0
M  V30 8947 C 876.68 0.668525 -3.40194 0
M  V30 8948 C 875.741 -0.197234 -4.28847 0
M  V30 8949 C 874.974 0.61792 -5.30111 0
M  V30 8950 O 875.197 1.85396 -5.3943 0
M  V30 8951 O 874.131 0.0183016 -6.01897 0
M  V30 8952 H 877.957 -0.992617 -2.87021 0
M  V30 8953 H 875.542 -0.549934 -1.3891 0
M  V30 8954 H 877.424 1.15663 -4.05216 0
M  V30 8955 H 876.099 1.45166 -2.89324 0
M  V30 8956 H 875.006 -0.73207 -3.66867 0
M  V30 8957 H 876.339 -0.943863 -4.83065 0
M  V30 8958 N 877.991 1.48044 -0.54043 0
M  V30 8959 C 878.938 2.29781 0.216597 0
M  V30 8960 C 879.908 1.38021 0.924094 0
M  V30 8961 O 881.093 1.66985 0.923078 0
M  V30 8962 C 878.233 3.21623 1.2511 0
M  V30 8963 C 877.346 4.28467 0.551384 0
M  V30 8964 C 876.481 5.07477 1.56972 0
M  V30 8965 C 875.52 6.06113 0.854048 0
M  V30 8966 N 874.657 6.78143 1.81842 0
M  V30 8967 H 879.497 2.94001 -0.486578 0
M  V30 8968 H 877.034 1.44929 -0.251789 0
M  V30 8969 H 878.992 3.73279 1.8633 0
M  V30 8970 H 877.622 2.59305 1.92252 0
M  V30 8971 H 876.674 3.79997 -0.174982 0
M  V30 8972 H 877.986 4.98799 -0.0100542 0
M  V30 8973 H 877.14 5.63199 2.25592 0
M  V30 8974 H 875.879 4.37008 2.16507 0
M  V30 8975 H 874.884 5.49585 0.153838 0
M  V30 8976 H 876.109 6.78584 0.264675 0
M  V30 8977 H 874.055 6.10417 2.40265 0
M  V30 8978 H 873.972 7.44587 1.3087 0
M  V30 8979 H 875.24 7.38448 2.49628 0
M  V30 8980 N 879.47 0.276058 1.55163 0
M  V30 8981 C 880.695 -0.346648 2.04483 0
M  V30 8982 C 881.12 -1.48613 1.15308 0
M  V30 8983 O 880.478 -1.80663 0.151875 0
M  V30 8984 C 880.526 -0.804268 3.51517 0
M  V30 8985 O 879.63 -1.91143 3.65429 0
M  V30 8986 H 878.971 -0.0715251 0.660136 0
M  V30 8987 H 881.501 0.410631 2.00437 0
M  V30 8988 H 881.511 -1.09977 3.92898 0
M  V30 8989 H 880.186 0.0294123 4.1589 0
M  V30 8990 H 878.763 -1.61839 3.3595 0
M  V30 8991 N 880.948 -1.576 0.00335426 0
M  V30 8992 C 882.178 -1.94713 -0.690682 0
M  V30 8993 C 882.586 -0.876915 -1.67651 0
M  V30 8994 O 881.929 0.152434 -1.83066 0
M  V30 8995 C 881.991 -3.27833 -1.47532 0
M  V30 8996 C 881.655 -4.52344 -0.650704 0
M  V30 8997 C 882.652 -5.19862 0.0630537 0
M  V30 8998 C 880.337 -4.98755 -0.595687 0
M  V30 8999 C 882.331 -6.32093 0.820779 0
M  V30 9000 C 880.018 -6.10875 0.165761 0
M  V30 9001 C 881.016 -6.77401 0.872724 0
M  V30 9002 O 880.704 -7.87372 1.62174 0
M  V30 9003 H 880.436 -0.646627 -0.197104 0
M  V30 9004 H 882.99 -2.05335 0.0516082 0
M  V30 9005 H 881.22 -3.13628 -2.26217 0
M  V30 9006 H 882.909 -3.50034 -2.05501 0
M  V30 9007 H 883.675 -4.84991 0.0297223 0
M  V30 9008 H 879.554 -4.46797 -1.13549 0
M  V30 9009 H 883.098 -6.83953 1.37312 0
M  V30 9010 H 878.995 -6.45187 0.200901 0
M  V30 9011 H 879.763 -8.03905 1.5388 0
M  V30 9012 N 882.426 0.269451 -1.5528 0
M  V30 9013 C 883.336 1.35511 -1.91505 0
M  V30 9014 C 884.352 1.53854 -0.812712 0
M  V30 9015 O 885.528 1.67912 -1.1121 0
M  V30 9016 C 882.593 2.6937 -2.18267 0
M  V30 9017 C 881.654 2.59743 -3.41807 0
M  V30 9018 C 880.887 3.87219 -3.67283 0
M  V30 9019 O 881.11 4.88066 -2.95208 0
M  V30 9020 O 880.044 3.87209 -4.60818 0
M  V30 9021 H 883.87 1.07785 -2.8393 0
M  V30 9022 H 881.455 0.468282 -1.41871 0
M  V30 9023 H 883.337 3.48513 -2.36889 0
M  V30 9024 H 882.012 2.96874 -1.29024 0
M  V30 9025 H 880.919 1.78964 -3.28516 0
M  V30 9026 H 882.252 2.37188 -4.3128 0
M  V30 9027 N 883.904 1.48273 0.534124 0
M  V30 9028 C 884.852 1.62926 1.66005 0
M  V30 9029 C 885.846 0.495814 1.61982 0
M  V30 9030 O 887.052 0.6744 1.66889 0
M  V30 9031 H 883.427 0.513163 0.549698 0
M  V30 9032 H 885.398 2.57498 1.50789 0
M  V30 9033 C 884.147 1.68231 3.04292 0
M  V30 9034 H 883.47 2.54807 3.0808 0
M  V30 9035 H 884.91 1.82528 3.827 0
M  V30 9036 C 883.369 0.420154 3.3427 0
M  V30 9037 O 883.899 -0.468769 3.98955 0
M  V30 9038 N 882.105 0.293115 2.89118 0
M  V30 9039 H 881.652 1.01745 2.36655 0
M  V30 9040 H 881.61 -0.550376 3.09545 0
M  V30 9041 N 885.382 -0.782676 1.36792 0
M  V30 9042 C 886.628 -1.54311 1.3159 0
M  V30 9043 C 886.961 -1.93928 -0.102696 0
M  V30 9044 O 886.236 -1.63233 -1.05761 0
M  V30 9045 C 886.519 -2.81561 2.24489 0
M  V30 9046 C 886.372 -2.48268 3.75078 0
M  V30 9047 C 887.691 -3.83428 2.16034 0
M  V30 9048 H 884.81 -0.559828 0.479335 0
M  V30 9049 H 887.452 -0.898717 1.67401 0
M  V30 9050 H 885.602 -3.36549 1.9408 0
M  V30 9051 H 887.274 -1.99279 4.16036 0
M  V30 9052 H 885.517 -1.81116 3.94182 0
M  V30 9053 H 886.188 -3.39183 4.35499 0
M  V30 9054 H 888.664 -3.37905 2.42815 0
M  V30 9055 H 887.54 -4.70204 2.83194 0
M  V30 9056 H 887.801 -4.26887 1.14976 0
M  V30 9057 N 886.86 -1.21182 -1.00761 0
M  V30 9058 C 888.137 -0.936297 -1.71735 0
M  V30 9059 C 888.517 0.552585 -2.03739 0
M  V30 9060 O 887.865 1.51672 -1.70903 0
M  V30 9061 C 888.075 -1.81867 -2.97868 0
M  V30 9062 C 889.423 -2.06594 -3.7095 0
M  V30 9063 O 890.447 -1.79194 -3.07844 0
M  V30 9064 O 889.306 -2.5292 -4.84452 0
M  V30 9065 H 886.4 -0.350867 -0.74888 0
M  V30 9066 H 888.946 -1.32098 -1.06527 0
M  V30 9067 H 887.718 -2.82643 -2.70607 0
M  V30 9068 H 887.341 -1.43463 -3.70815 0
M  V30 9069 N 888.338 1.20213 -1.01915 0
M  V30 9070 C 889.563 1.94163 -0.729076 0
M  V30 9071 C 889.988 1.74416 0.704323 0
M  V30 9072 O 889.346 1.0401 1.48498 0
M  V30 9073 C 889.394 3.44258 -1.07324 0
M  V30 9074 O 888.498 4.11979 -0.186367 0
M  V30 9075 H 887.839 0.606506 -0.270272 0
M  V30 9076 H 890.369 1.52571 -1.3632 0
M  V30 9077 H 890.379 3.94888 -1.02603 0
M  V30 9078 H 889.054 3.57954 -2.11759 0
M  V30 9079 H 887.631 3.7176 -0.291334 0
M  V30 9080 N 889.816 0.795718 1.36037 0
M  V30 9081 C 891.064 0.370291 1.98679 0
M  V30 9082 C 891.385 -1.06332 1.63458 0
M  V30 9083 O 890.655 -1.73394 0.911671 0
M  V30 9084 H 889.235 0.133928 0.734896 0
M  V30 9085 H 891.897 1.01915 1.6613 0
M  V30 9086 H 890.993 0.467207 3.08583 0
M  V30 9087 N 891.294 -1.47756 0.548274 0
M  V30 9088 C 892.571 -1.9555 -0.0443603 0
M  V30 9089 C 892.951 -1.49079 -1.49462 0
M  V30 9090 O 892.299 -0.725538 -2.16675 0
M  V30 9091 C 892.509 -3.48879 0.0918425 0
M  V30 9092 C 893.857 -4.2456 -0.0580879 0
M  V30 9093 O 894.881 -3.56195 0.018946 0
M  V30 9094 O 893.74 -5.46048 -0.222261 0
M  V30 9095 H 890.834 -0.824106 -0.0691235 0
M  V30 9096 H 893.38 -1.58196 0.614166 0
M  V30 9097 H 892.152 -3.7548 1.10137 0
M  V30 9098 H 891.775 -3.92975 -0.604704 0
M  V30 9099 N 892.772 -0.284283 -1.55015 0
M  V30 9100 C 893.719 0.599194 -2.22886 0
M  V30 9101 C 894.689 1.14264 -1.20553 0
M  V30 9102 O 895.874 1.19025 -1.49123 0
M  V30 9103 C 893.014 1.77317 -2.96062 0
M  V30 9104 C 892.127 1.26271 -4.13134 0
M  V30 9105 C 891.262 2.39922 -4.73931 0
M  V30 9106 C 890.301 1.85925 -5.8318 0
M  V30 9107 N 889.438 2.93084 -6.38002 0
M  V30 9108 H 894.278 0.0137816 -2.97997 0
M  V30 9109 H 891.815 -0.00496503 -1.47099 0
M  V30 9110 H 893.773 2.46339 -3.36709 0
M  V30 9111 H 892.403 2.33047 -2.23358 0
M  V30 9112 H 891.455 0.465296 -3.77544 0
M  V30 9113 H 892.767 0.827284 -4.91892 0
M  V30 9114 H 891.921 3.1692 -5.17346 0
M  V30 9115 H 890.66 2.86784 -3.9447 0
M  V30 9116 H 889.665 1.07409 -5.39206 0
M  V30 9117 H 890.89 1.39987 -6.64515 0
M  V30 9118 H 888.836 3.3931 -5.61431 0
M  V30 9119 H 888.753 2.53986 -7.12058 0
M  V30 9120 H 890.021 3.7003 -6.86075 0
M  V30 9121 N 894.251 1.57596 -0.0117121 0
M  V30 9122 C 895.161 2.12596 0.991964 0
M  V30 9123 C 896.177 1.07399 1.36899 0
M  V30 9124 O 897.353 1.39365 1.45394 0
M  V30 9125 C 894.418 2.62796 2.2614 0
M  V30 9126 C 893.479 3.8264 1.94642 0
M  V30 9127 C 892.712 4.30435 3.15533 0
M  V30 9128 O 892.935 3.77495 4.27614 0
M  V30 9129 O 891.869 5.22469 2.98847 0
M  V30 9130 H 895.695 2.98597 0.554371 0
M  V30 9131 H 893.28 1.47947 0.207839 0
M  V30 9132 H 895.162 2.9523 3.00695 0
M  V30 9133 H 893.837 1.79886 2.69114 0
M  V30 9134 H 892.744 3.5516 1.17526 0
M  V30 9135 H 894.077 4.66658 1.56496 0
M  V30 9136 N 895.729 -0.261212 1.5542 0
M  V30 9137 C 896.676 -1.32315 1.89107 0
M  V30 9138 C 897.646 -1.48517 0.743767 0
M  V30 9139 O 898.831 -1.62733 0.996123 0
M  V30 9140 C 895.971 -2.67626 2.17877 0
M  V30 9141 C 895.084 -2.59549 3.45338 0
M  V30 9142 C 894.219 -3.87118 3.63748 0
M  V30 9143 C 893.258 -3.736 4.8486 0
M  V30 9144 N 892.395 -4.93029 4.99867 0
M  V30 9145 H 897.235 -1.02886 2.79675 0
M  V30 9146 H 894.772 -0.496812 1.38456 0
M  V30 9147 H 896.73 -3.4637 2.32559 0
M  V30 9148 H 895.36 -2.95232 1.30529 0
M  V30 9149 H 894.412 -1.72452 3.39064 0
M  V30 9150 H 895.724 -2.45465 4.34222 0
M  V30 9151 H 894.878 -4.74305 3.78312 0
M  V30 9152 H 893.617 -4.04084 2.73071 0
M  V30 9153 H 892.622 -2.84797 4.70288 0
M  V30 9154 H 893.847 -3.58143 5.76984 0
M  V30 9155 H 891.793 -5.10383 4.12123 0
M  V30 9156 H 891.71 -4.81521 5.82815 0
M  V30 9157 H 892.978 -5.81754 5.18828 0
M  V30 9158 N 897.207 -1.48554 -0.526253 0
M  V30 9159 C 898.154 -1.63354 -1.63046 0
M  V30 9160 C 899.124 -0.475509 -1.59148 0
M  V30 9161 O 900.309 -0.699453 -1.77517 0
M  V30 9162 C 897.449 -1.68271 -3.01295 0
M  V30 9163 C 896.562 -2.95207 -3.15399 0
M  V30 9164 C 895.697 -2.91262 -4.4423 0
M  V30 9165 C 894.736 -4.12886 -4.51876 0
M  V30 9166 N 893.873 -4.06996 -5.721 0
M  V30 9167 H 898.713 -2.57649 -1.49737 0
M  V30 9168 H 896.25 -1.27769 -0.728938 0
M  V30 9169 H 898.208 -1.69104 -3.81392 0
M  V30 9170 H 896.838 -0.774641 -3.13367 0
M  V30 9171 H 895.89 -3.04102 -2.2853 0
M  V30 9172 H 897.202 -3.85187 -3.1691 0
M  V30 9173 H 896.356 -2.90516 -5.32621 0
M  V30 9174 H 895.095 -1.99016 -4.45246 0
M  V30 9175 H 894.1 -4.13902 -3.61891 0
M  V30 9176 H 895.325 -5.06294 -4.52596 0
M  V30 9177 H 893.271 -3.17573 -5.74006 0
M  V30 9178 H 893.188 -4.90685 -5.75121 0
M  V30 9179 H 894.456 -4.10315 -6.62768 0
M  V30 9180 N 898.685 0.775411 -1.37205 0
M  V30 9181 C 899.617 1.89761 -1.28544 0
M  V30 9182 C 900.63 1.61542 -0.201996 0
M  V30 9183 O 901.819 1.72528 -0.457848 0
M  V30 9184 C 898.919 3.24904 -0.963885 0
M  V30 9185 C 898.092 3.80796 -2.15205 0
M  V30 9186 C 897.151 4.94407 -1.80135 0
M  V30 9187 O 896.177 5.10185 -2.52388 0
M  V30 9188 N 897.379 5.75722 -0.743298 0
M  V30 9189 H 900.144 1.97708 -2.25237 0
M  V30 9190 H 897.705 0.954348 -1.30782 0
M  V30 9191 H 899.697 3.9842 -0.710182 0
M  V30 9192 H 898.267 3.12483 -0.085632 0
M  V30 9193 H 897.487 2.99101 -2.56773 0
M  V30 9194 H 898.775 4.1487 -2.94552 0
M  V30 9195 H 898.173 5.65518 -0.143655 0
M  V30 9196 H 896.73 6.4948 -0.549446 0
M  V30 9197 N 900.163 1.21714 1.00117 0
M  V30 9198 C 901.412 1.03087 1.73367 0
M  V30 9199 C 901.725 -0.435532 1.90689 0
M  V30 9200 O 902.931 -0.741291 2.61184 0
M  V30 9201 C 901.387 1.79593 3.11888 0
M  V30 9202 C 900.995 3.30428 3.02525 0
M  V30 9203 C 902.739 1.69386 3.89241 0
M  V30 9204 C 900.646 3.99408 4.3615 0
M  V30 9205 H 899.576 0.382117 0.650002 0
M  V30 9206 H 902.227 1.45486 1.11831 0
M  V30 9207 H 900.609 1.29988 3.74058 0
M  V30 9208 H 901.783 3.87364 2.49571 0
M  V30 9209 H 900.098 3.4122 2.38659 0
M  V30 9210 H 902.695 2.18251 4.8813 0
M  V30 9211 H 903.038 0.652773 4.1115 0
M  V30 9212 H 903.571 2.16489 3.33733 0
M  V30 9213 H 900.31 5.03735 4.19442 0
M  V30 9214 H 899.83 3.47261 4.8905 0
M  V30 9215 H 901.509 4.04537 5.04934 0
M  V30 9216 N 901.641 -1.19671 1.02551 0
M  V30 9217 C 902.869 -1.93233 0.739513 0
M  V30 9218 C 903.284 -1.75298 -0.701158 0
M  V30 9219 O 902.641 -1.07269 -1.47647 0
M  V30 9220 C 902.692 -3.45085 1.07697 0
M  V30 9221 O 902.413 -3.62441 2.46106 0
M  V30 9222 C 903.914 -4.35776 0.813298 0
M  V30 9223 H 901.134 -0.613905 0.270853 0
M  V30 9224 H 903.678 -1.51909 1.36909 0
M  V30 9225 H 901.833 -3.84255 0.492635 0
M  V30 9226 H 902.247 -4.56337 2.58567 0
M  V30 9227 H 903.721 -5.40941 1.09941 0
M  V30 9228 H 904.198 -4.38474 -0.252359 0
M  V30 9229 H 904.804 -4.02282 1.38021 0
M  V30 9230 N 903.119 -0.802921 -1.35613 0
M  V30 9231 C 904.347 -0.39393 -2.03115 0
M  V30 9232 C 904.762 0.993961 -1.60517 0
M  V30 9233 O 904.119 1.63984 -0.800973 0
M  V30 9234 C 904.17 -0.463486 -3.58516 0
M  V30 9235 O 903.891 -1.79666 -3.99565 0
M  V30 9236 C 905.392 -0.0468377 -4.43275 0
M  V30 9237 H 902.612 -0.160519 -0.651517 0
M  V30 9238 H 905.156 -1.08552 -1.73311 0
M  V30 9239 H 903.311 0.179821 -3.86982 0
M  V30 9240 H 903.725 -1.75688 -4.942 0
M  V30 9241 H 905.199 -0.146626 -5.51805 0
M  V30 9242 H 905.676 1.00741 -4.2749 0
M  V30 9243 H 906.282 -0.663158 -4.20098 0
M  V30 9244 N 904.597 1.47463 -0.556102 0
M  V30 9245 C 905.822 2.07371 -0.0344729 0
M  V30 9246 C 906.247 1.40621 1.2493 0
M  V30 9247 O 905.605 0.48082 1.74808 0
M  V30 9248 C 905.653 3.60306 0.145563 0
M  V30 9249 O 904.757 3.94299 1.20839 0
M  V30 9250 H 904.098 0.662052 -0.0508274 0
M  V30 9251 H 906.628 1.89498 -0.771469 0
M  V30 9252 H 906.638 4.06408 0.360112 0
M  V30 9253 H 905.313 4.08288 -0.792089 0
M  V30 9254 H 903.89 3.59944 0.97442 0
M  V30 9255 N 906.075 0.2925 1.54862 0
M  V30 9256 C 907.486 -0.201841 1.85606 0
M  V30 9257 C 907.837 -1.54093 1.21449 0
M  V30 9258 O 906.962 -2.10327 0.509079 0
M  V30 9259 C 907.557 -0.373011 3.3674 0
M  V30 9260 C 906.116 -0.811574 3.67547 0
M  V30 9261 C 905.263 0.0850583 2.7717 0
M  V30 9262 H 908.214 0.513774 1.50153 0
M  V30 9263 H 908.235 -1.20892 3.60785 0
M  V30 9264 H 907.747 0.601751 3.83407 0
M  V30 9265 H 905.848 -1.79719 3.26392 0
M  V30 9266 H 905.961 -0.636853 4.74848 0
M  V30 9267 H 904.325 -0.434224 2.50971 0
M  V30 9268 H 905.108 1.05602 3.26654 0
M  V30 9269 N 907.553 -1.57587 0.0200696 0
M  V30 9270 C 908.802 -1.90602 -0.659822 0
M  V30 9271 C 909.115 -0.897216 -1.73808 0
M  V30 9272 O 910.321 -1.11829 -2.47399 0
M  V30 9273 C 908.777 -3.38416 -1.22484 0
M  V30 9274 C 908.385 -4.47637 -0.180339 0
M  V30 9275 C 910.129 -3.80513 -1.88176 0
M  V30 9276 C 908.036 -5.86542 -0.756482 0
M  V30 9277 H 906.966 -0.711272 -0.250216 0
M  V30 9278 H 909.617 -1.83308 0.0838942 0
M  V30 9279 H 907.999 -3.40613 -2.01987 0
M  V30 9280 H 909.173 -4.56987 0.591573 0
M  V30 9281 H 907.488 -4.14687 0.377302 0
M  V30 9282 H 910.085 -4.8164 -2.32222 0
M  V30 9283 H 910.428 -3.15091 -2.72073 0
M  V30 9284 H 910.961 -3.80701 -1.15377 0
M  V30 9285 H 907.7 -6.55485 0.0441468 0
M  V30 9286 H 907.22 -5.80816 -1.49709 0
M  V30 9287 H 908.899 -6.3483 -1.249 0
M  V30 9288 N 909.032 0.252966 -1.55557 0
M  V30 9289 C 910.26 0.999565 -1.81153 0
M  V30 9290 C 910.675 1.79181 -0.594955 0
M  V30 9291 O 910.032 1.77208 0.436311 0
M  V30 9292 C 910.083 1.94227 -3.04891 0
M  V30 9293 O 909.804 1.18209 -4.21851 0
M  V30 9294 C 911.305 2.80536 -3.43241 0
M  V30 9295 H 908.525 0.294402 -0.602966 0
M  V30 9296 H 911.069 0.277686 -2.02606 0
M  V30 9297 H 909.224 2.6185 -2.85505 0
M  V30 9298 H 909.638 1.81922 -4.9194 0
M  V30 9299 H 911.112 3.42442 -4.32941 0
M  V30 9300 H 911.589 3.51337 -2.6355 0
M  V30 9301 H 912.195 2.18373 -3.64956 0
M  V30 9302 N 910.51 1.48831 0.518367 0
M  V30 9303 C 911.756 1.57672 1.27543 0
M  V30 9304 C 912.089 0.254915 1.9252 0
M  V30 9305 O 911.364 -0.740107 1.79868 0
M  V30 9306 C 911.647 2.72345 2.35585 0
M  V30 9307 C 911.5 4.14267 1.75224 0
M  V30 9308 C 912.819 2.82726 3.37274 0
M  V30 9309 H 909.938 0.573926 0.462361 0
M  V30 9310 H 912.58 1.8105 0.576267 0
M  V30 9311 H 910.73 2.52543 2.95219 0
M  V30 9312 H 912.402 4.45539 1.19551 0
M  V30 9313 H 910.645 4.20724 1.05706 0
M  V30 9314 H 911.316 4.90345 2.53507 0
M  V30 9315 H 913.792 3.00699 2.8761 0
M  V30 9316 H 912.668 3.6467 4.10252 0
M  V30 9317 H 912.929 1.9136 3.9854 0
M  V30 9318 N 911.988 -0.768124 1.37614 0
M  V30 9319 C 913.404 -1.06919 1.18493 0
M  V30 9320 C 913.604 -2.01486 0.0235753 0
M  V30 9321 O 912.66 -2.4438 -0.635209 0
M  V30 9322 C 913.973 -1.66321 2.50515 0
M  V30 9323 C 915.521 -1.78562 2.57069 0
M  V30 9324 C 915.996 -2.41377 3.89231 0
M  V30 9325 N 917.487 -2.48824 3.90693 0
M  V30 9326 C 918.222 -2.98288 4.89706 0
M  V30 9327 N 917.718 -3.47897 5.99115 0
M  V30 9328 N 919.511 -2.97196 4.77107 0
M  V30 9329 H 911.662 -0.140286 2.11936 0
M  V30 9330 H 913.925 -0.124863 0.939741 0
M  V30 9331 H 913.631 -1.04303 3.35878 0
M  V30 9332 H 913.505 -2.65571 2.67866 0
M  V30 9333 H 915.892 -2.39712 1.72111 0
M  V30 9334 H 915.973 -0.780574 2.43599 0
M  V30 9335 H 915.617 -1.80866 4.74605 0
M  V30 9336 H 915.547 -3.42495 4.00006 0
M  V30 9337 H 918.038 -2.1372 3.1166 0
M  V30 9338 H 918.351 -3.84053 6.70614 0
M  V30 9339 H 916.696 -3.45993 6.02755 0
M  V30 9340 H 919.887 -2.57741 3.90752 0
M  V30 9341 H 920.06 -3.35434 5.54426 0
M  V30 9342 N 913.466 -1.22244 -0.994698 0
M  V30 9343 C 914.413 -0.990906 -2.08446 0
M  V30 9344 C 915.383 0.086737 -1.65873 0
M  V30 9345 O 916.568 -0.0624882 -1.90698 0
M  V30 9346 C 913.708 -0.572813 -3.40313 0
M  V30 9347 C 912.821 -1.72103 -3.96238 0
M  V30 9348 C 911.956 -1.2511 -5.16257 0
M  V30 9349 C 910.995 -2.37098 -5.64315 0
M  V30 9350 N 910.132 -1.91164 -6.75574 0
M  V30 9351 H 914.972 -1.92377 -2.27585 0
M  V30 9352 H 912.509 -0.958576 -1.11578 0
M  V30 9353 H 914.467 -0.311594 -4.16035 0
M  V30 9354 H 913.097 0.323044 -3.21179 0
M  V30 9355 H 912.149 -2.09662 -3.17405 0
M  V30 9356 H 913.461 -2.56347 -4.27888 0
M  V30 9357 H 912.615 -0.947152 -5.99261 0
M  V30 9358 H 911.354 -0.378836 -4.86226 0
M  V30 9359 H 910.359 -2.68283 -4.799 0
M  V30 9360 H 911.584 -3.24837 -5.96371 0
M  V30 9361 H 909.53 -1.06298 -6.47331 0
M  V30 9362 H 909.447 -2.68975 -7.06533 0
M  V30 9363 H 910.715 -1.63833 -7.62088 0
M  V30 9364 N 914.944 1.19125 -1.03184 0
M  V30 9365 C 915.892 2.24492 -0.608781 0
M  V30 9366 C 916.886 1.65529 0.360065 0
M  V30 9367 O 918.092 1.78546 0.22832 0
M  V30 9368 H 914.467 0.73048 -0.178616 0
M  V30 9369 H 916.438 2.5749 -1.50803 0
M  V30 9370 C 915.187 3.47693 0.0215126 0
M  V30 9371 H 914.51 3.93354 -0.715024 0
M  V30 9372 H 915.95 4.23072 0.280429 0
M  V30 9373 C 914.409 3.12088 1.26896 0
M  V30 9374 O 914.939 3.25013 2.36071 0
M  V30 9375 N 913.145 2.66494 1.15886 0
M  V30 9376 H 912.692 2.56176 0.270463 0
M  V30 9377 H 912.65 2.43042 1.99444 0
M  V30 9378 N 916.422 0.810101 1.35185 0
M  V30 9379 C 917.369 0.220927 2.2974 0
M  V30 9380 C 918.339 -0.647024 1.5298 0
M  V30 9381 O 919.524 -0.591367 1.81404 0
M  V30 9382 C 916.664 -0.62167 3.39454 0
M  V30 9383 C 915.777 0.267104 4.31173 0
M  V30 9384 C 914.912 -0.583833 5.27982 0
M  V30 9385 C 913.951 0.305123 6.11339 0
M  V30 9386 N 913.088 -0.505992 7.00274 0
M  V30 9387 H 917.928 1.03266 2.79536 0
M  V30 9388 H 915.465 0.520768 1.37573 0
M  V30 9389 H 917.423 -1.12539 4.01735 0
M  V30 9390 H 916.053 -1.39863 2.90926 0
M  V30 9391 H 915.105 0.88895 3.69867 0
M  V30 9392 H 916.417 0.951182 4.89647 0
M  V30 9393 H 915.571 -1.15254 5.95652 0
M  V30 9394 H 914.31 -1.30146 4.70014 0
M  V30 9395 H 913.315 0.886075 5.42613 0
M  V30 9396 H 914.54 1.02067 6.71386 0
M  V30 9397 H 912.486 -1.20753 6.4479 0
M  V30 9398 H 912.403 0.119966 7.55905 0
M  V30 9399 H 913.671 -1.05787 7.72288 0
M  V30 9400 N 917.9 -1.47166 0.563914 0
M  V30 9401 C 918.847 -2.30097 -0.180013 0
M  V30 9402 C 919.817 -1.39473 -0.902019 0
M  V30 9403 O 921.002 -1.68432 -0.896396 0
M  V30 9404 C 918.142 -3.23573 -1.19978 0
M  V30 9405 C 917.255 -4.2929 -0.483149 0
M  V30 9406 C 916.39 -5.0991 -1.48879 0
M  V30 9407 C 915.429 -6.07395 -0.757513 0
M  V30 9408 N 914.566 -6.8095 -1.71031 0
M  V30 9409 H 919.406 -2.93189 0.53329 0
M  V30 9410 H 916.943 -1.4451 0.274814 0
M  V30 9411 H 918.901 -3.76196 -1.80368 0
M  V30 9412 H 917.531 -2.6233 -1.88103 0
M  V30 9413 H 916.583 -3.79671 0.235414 0
M  V30 9414 H 917.895 -4.9872 0.0894075 0
M  V30 9415 H 917.049 -5.66717 -2.16603 0
M  V30 9416 H 915.788 -4.40397 -2.09527 0
M  V30 9417 H 914.793 -5.4976 -0.0663841 0
M  V30 9418 H 916.018 -6.78919 -0.156685 0
M  V30 9419 H 913.964 -6.14162 -2.30524 0
M  V30 9420 H 913.881 -7.46574 -1.19007 0
M  V30 9421 H 915.149 -7.42326 -2.37849 0
M  V30 9422 N 919.378 -0.300708 -1.54705 0
M  V30 9423 C 920.655 0.361757 -1.92226 0
M  V30 9424 C 921.035 1.71714 -1.2279 0
M  V30 9425 O 920.383 2.2559 -0.363542 0
M  V30 9426 C 920.593 0.476699 -3.45729 0
M  V30 9427 C 921.941 0.7477 -4.17965 0
M  V30 9428 O 922.965 0.560521 -3.51762 0
M  V30 9429 O 921.824 1.10724 -5.35166 0
M  V30 9430 H 918.918 0.202213 -0.801897 0
M  V30 9431 H 921.464 -0.348746 -1.66078 0
M  V30 9432 H 920.236 -0.476132 -3.88392 0
M  V30 9433 H 919.859 1.23568 -3.77911 0
M  V30 9434 N 920.856 1.57574 -0.0284266 0
M  V30 9435 C 921.766 2.13637 0.96936 0
M  V30 9436 C 922.782 1.08845 1.35752 0
M  V30 9437 O 923.958 1.40899 1.43908 0
M  V30 9438 C 921.023 2.65179 2.2334 0
M  V30 9439 C 920.084 3.84683 1.90572 0
M  V30 9440 C 919.317 4.33758 3.1095 0
M  V30 9441 O 919.54 3.82009 4.23586 0
M  V30 9442 O 918.474 5.2561 2.93288 0
M  V30 9443 H 922.3 2.99169 0.52267 0
M  V30 9444 H 919.885 1.48159 0.192135 0
M  V30 9445 H 921.767 2.98402 2.97547 0
M  V30 9446 H 920.442 1.82731 2.67191 0
M  V30 9447 H 919.349 3.56386 1.13753 0
M  V30 9448 H 920.682 4.68292 1.51538 0
M  V30 9449 N 922.334 -0.244713 1.55689 0
M  V30 9450 C 923.244 -1.32447 1.93636 0
M  V30 9451 C 924.26 -1.52541 0.837086 0
M  V30 9452 O 925.436 -1.66121 1.13867 0
M  V30 9453 C 922.501 -2.65864 2.22525 0
M  V30 9454 C 921.562 -2.54273 3.45896 0
M  V30 9455 C 920.795 -3.81327 3.73397 0
M  V30 9456 O 921.018 -4.83307 3.02936 0
M  V30 9457 O 919.952 -3.79829 4.66919 0
M  V30 9458 H 923.778 -1.03255 2.85608 0
M  V30 9459 H 921.363 -0.445652 1.42598 0
M  V30 9460 H 923.245 -3.447 2.42404 0
M  V30 9461 H 921.92 -2.94784 1.33731 0
M  V30 9462 H 920.827 -1.73715 3.31321 0
M  V30 9463 H 922.16 -2.30297 4.34999 0
M  V30 9464 N 923.813 -1.49104 -0.510467 0
M  V30 9465 C 925.229 -1.35657 -0.840797 0
M  V30 9466 C 925.429 -0.382425 -1.97838 0
M  V30 9467 O 924.485 0.189331 -2.51789 0
M  V30 9468 C 925.798 -2.76155 -1.18992 0
M  V30 9469 C 927.346 -2.84786 -1.29868 0
M  V30 9470 C 927.821 -4.2603 -1.68115 0
M  V30 9471 N 929.312 -4.28796 -1.75181 0
M  V30 9472 C 930.047 -5.35041 -2.062 0
M  V30 9473 N 929.543 -6.51543 -2.35508 0
M  V30 9474 N 931.336 -5.2245 -2.07371 0
M  V30 9475 H 923.487 -2.11042 0.23982 0
M  V30 9476 H 925.75 -0.946946 0.0446824 0
M  V30 9477 H 925.456 -3.49092 -0.427484 0
M  V30 9478 H 925.33 -3.10922 -2.13558 0
M  V30 9479 H 927.717 -2.12092 -2.05186 0
M  V30 9480 H 927.798 -2.53613 -0.333758 0
M  V30 9481 H 927.442 -4.99247 -0.933512 0
M  V30 9482 H 927.372 -4.5466 -2.65691 0
M  V30 9483 H 929.863 -3.44771 -1.5473 0
M  V30 9484 H 930.176 -7.28342 -2.58337 0
M  V30 9485 H 928.521 -6.54785 -2.32985 0
M  V30 9486 H 931.712 -4.30444 -1.83945 0
M  V30 9487 H 931.885 -6.05347 -2.31212 0
M  V30 9488 N 925.291 0.760815 -1.38019 0
M  V30 9489 C 926.707 1.06289 -1.19058 0
M  V30 9490 C 926.907 2.01471 -0.0342603 0
M  V30 9491 O 925.963 2.44713 0.62224 0
M  V30 9492 C 927.276 1.6499 -2.51394 0
M  V30 9493 C 928.824 1.77196 -2.58013 0
M  V30 9494 C 929.299 2.3931 -3.90506 0
M  V30 9495 N 930.79 2.46749 -3.92007 0
M  V30 9496 C 931.525 2.95687 -4.91281 0
M  V30 9497 N 931.021 3.44715 -6.00952 0
M  V30 9498 N 932.814 2.94661 -4.78677 0
M  V30 9499 H 924.965 0.129045 -2.12008 0
M  V30 9500 H 927.228 0.119878 -0.94039 0
M  V30 9501 H 926.934 1.0252 -3.36426 0
M  V30 9502 H 926.808 2.64146 -2.6927 0
M  V30 9503 H 929.195 2.38796 -1.7338 0
M  V30 9504 H 929.276 0.767645 -2.4401 0
M  V30 9505 H 928.92 1.78346 -4.75558 0
M  V30 9506 H 928.85 3.40369 -4.01817 0
M  V30 9507 H 931.341 2.12064 -3.12789 0
M  V30 9508 H 931.654 3.80492 -6.72641 0
M  V30 9509 H 929.999 3.42791 -6.04582 0
M  V30 9510 H 933.19 2.55665 -3.92113 0
M  V30 9511 H 933.363 3.32489 -5.56197 0
M  V30 9512 N 926.769 1.22769 0.988202 0
M  V30 9513 C 927.679 1.01844 2.11341 0
M  V30 9514 C 928.695 -0.0346937 1.73965 0
M  V30 9515 O 929.871 0.159061 2.00771 0
M  V30 9516 C 926.936 0.603837 3.41401 0
M  V30 9517 C 925.997 1.73113 3.92849 0
M  V30 9518 C 925.23 1.33621 5.16702 0
M  V30 9519 O 925.453 0.217041 5.69987 0
M  V30 9520 O 924.387 2.15444 5.62021 0
M  V30 9521 H 928.213 1.96127 2.31879 0
M  V30 9522 H 925.798 1.01405 1.09715 0
M  V30 9523 H 927.68 0.383196 4.19654 0
M  V30 9524 H 926.355 -0.310082 3.22211 0
M  V30 9525 H 925.262 2.00634 3.15748 0
M  V30 9526 H 926.595 2.62308 4.1648 0
M  V30 9527 N 928.247 -1.18576 1.03814 0
M  V30 9528 C 929.472 -1.92978 0.759873 0
M  V30 9529 C 929.897 -1.75514 -0.676486 0
M  V30 9530 O 929.255 -1.06359 -1.46824 0
M  V30 9531 C 929.303 -3.42507 1.12788 0
M  V30 9532 O 928.407 -4.1163 0.251886 0
M  V30 9533 H 927.748 -0.602129 0.279886 0
M  V30 9534 H 930.278 -1.50383 1.3873 0
M  V30 9535 H 930.288 -3.93206 1.08872 0
M  V30 9536 H 928.963 -3.5454 2.17427 0
M  V30 9537 H 927.54 -3.7125 0.350441 0
M  V30 9538 N 929.725 -0.817259 -1.34754 0
M  V30 9539 C 931.141 -0.502309 -1.51489 0
M  V30 9540 C 931.341 0.974568 -1.76364 0
M  V30 9541 O 930.397 1.75924 -1.81127 0
M  V30 9542 C 931.71 -1.35693 -2.68343 0
M  V30 9543 C 933.258 -1.35347 -2.82224 0
M  V30 9544 C 933.733 -2.19244 -4.02114 0
M  V30 9545 N 935.224 -2.16837 -4.09311 0
M  V30 9546 C 935.959 -2.78505 -5.01221 0
M  V30 9547 N 935.455 -3.4914 -5.98392 0
M  V30 9548 N 937.248 -2.68089 -4.94049 0
M  V30 9549 H 929.399 -1.77359 -1.16866 0
M  V30 9550 H 931.662 -0.755476 -0.572678 0
M  V30 9551 H 931.368 -2.40548 -2.56573 0
M  V30 9552 H 931.242 -1.01764 -3.63213 0
M  V30 9553 H 933.629 -0.312727 -2.93438 0
M  V30 9554 H 933.71 -1.7327 -1.88179 0
M  V30 9555 H 933.354 -3.23365 -3.9166 0
M  V30 9556 H 933.284 -1.78675 -4.95361 0
M  V30 9557 H 935.775 -1.65452 -3.39756 0
M  V30 9558 H 936.088 -3.93455 -6.65141 0
M  V30 9559 H 934.433 -3.53246 -5.98533 0
M  V30 9560 H 937.624 -2.12485 -4.17094 0
M  V30 9561 H 937.797 -3.16436 -5.65484 0
M  V30 9562 N 931.203 1.46865 -0.571711 0
M  V30 9563 C 932.452 2.01636 -0.050881 0
M  V30 9564 C 932.765 1.45001 1.31279 0
M  V30 9565 O 933.971 1.91523 1.92435 0
M  V30 9566 C 932.427 3.59877 -0.0404114 0
M  V30 9567 C 932.035 4.25506 -1.40172 0
M  V30 9568 C 933.779 4.22346 0.42705 0
M  V30 9569 C 931.686 5.75795 -1.34958 0
M  V30 9570 H 930.616 0.753846 -0.0152514 0
M  V30 9571 H 933.267 1.68711 -0.721723 0
M  V30 9572 H 931.649 3.89829 0.696374 0
M  V30 9573 H 932.823 4.07178 -2.15737 0
M  V30 9574 H 931.138 3.75086 -1.8083 0
M  V30 9575 H 933.735 5.32499 0.484688 0
M  V30 9576 H 934.078 3.9052 1.44222 0
M  V30 9577 H 934.611 3.9698 -0.255326 0
M  V30 9578 H 931.35 6.12265 -2.3412 0
M  V30 9579 H 930.87 5.96419 -0.635962 0
M  V30 9580 H 932.549 6.38294 -1.05779 0
M  V30 9581 N 932.681 0.308908 1.54543 0
M  V30 9582 C 933.613 -0.597453 2.21276 0
M  V30 9583 C 934.626 -1.09137 1.20801 0
M  V30 9584 O 935.815 -1.00747 1.47351 0
M  V30 9585 C 932.915 -1.83085 2.85189 0
M  V30 9586 C 932.088 -1.4781 4.11669 0
M  V30 9587 C 931.147 -2.56748 4.59311 0
M  V30 9588 O 930.173 -2.21507 5.24331 0
M  V30 9589 N 931.375 -3.87427 4.32297 0
M  V30 9590 H 934.14 -0.0261183 2.99689 0
M  V30 9591 H 931.701 0.131456 1.61365 0
M  V30 9592 H 933.693 -2.55326 3.13992 0
M  V30 9593 H 932.263 -2.31039 2.1057 0
M  V30 9594 H 931.483 -0.587974 3.8979 0
M  V30 9595 H 932.771 -1.2179 4.94009 0
M  V30 9596 H 932.169 -4.18863 3.80224 0
M  V30 9597 H 930.726 -4.55942 4.6579 0
M  V30 9598 N 934.159 -1.57557 0.0367827 0
M  V30 9599 C 935.384 -1.96828 -0.653707 0
M  V30 9600 C 935.809 -0.913559 -1.64425 0
M  V30 9601 O 935.167 0.124749 -1.8087 0
M  V30 9602 C 935.215 -3.35189 -1.32969 0
M  V30 9603 O 934.319 -3.32095 -2.44513 0
M  V30 9604 H 933.66 -0.64157 -0.171124 0
M  V30 9605 H 936.19 -2.04351 0.100912 0
M  V30 9606 H 936.2 -3.71593 -1.68472 0
M  V30 9607 H 934.875 -4.11496 -0.603654 0
M  V30 9608 H 933.452 -3.07418 -2.11065 0
M  V30 9609 N 935.637 0.236453 -1.55816 0
M  V30 9610 C 936.867 0.978873 -1.81939 0
M  V30 9611 C 937.275 1.79041 -0.611647 0
M  V30 9612 O 936.618 1.78616 0.429172 0
M  V30 9613 C 936.68 1.9569 -3.01572 0
M  V30 9614 C 936.344 1.33131 -4.37178 0
M  V30 9615 C 937.341 0.728585 -5.1477 0
M  V30 9616 C 935.026 1.34755 -4.83887 0
M  V30 9617 C 937.02 0.150427 -6.37222 0
M  V30 9618 C 934.707 0.765539 -6.06286 0
M  V30 9619 C 935.705 0.168017 -6.82793 0
M  V30 9620 O 935.393 -0.404976 -8.02879 0
M  V30 9621 H 935.125 0.293186 -0.609113 0
M  V30 9622 H 937.679 0.261384 -2.0373 0
M  V30 9623 H 935.909 2.71298 -2.75562 0
M  V30 9624 H 937.598 2.56362 -3.14695 0
M  V30 9625 H 938.364 0.708477 -4.79797 0
M  V30 9626 H 934.243 1.80202 -4.24321 0
M  V30 9627 H 937.787 -0.316586 -6.96881 0
M  V30 9628 H 933.684 0.78301 -6.40733 0
M  V30 9629 H 934.452 -0.29785 -8.17958 0
M  V30 9630 N 937.115 1.49373 0.502552 0
M  V30 9631 C 938.34 1.62752 1.28556 0
M  V30 9632 C 938.765 0.298285 1.8572 0
M  V30 9633 O 938.123 -0.733885 1.65782 0
M  V30 9634 C 938.171 2.69778 2.39274 0
M  V30 9635 O 937.275 2.28843 3.43081 0
M  V30 9636 H 936.616 0.544799 0.379592 0
M  V30 9637 H 939.146 1.9555 0.601792 0
M  V30 9638 H 939.156 2.91899 2.8506 0
M  V30 9639 H 937.831 3.66266 1.97033 0
M  V30 9640 H 936.408 2.17047 3.03224 0
M  V30 9641 N 938.594 -0.753485 1.38421 0
M  V30 9642 C 940.005 -1.33081 1.30944 0
M  V30 9643 C 940.356 -1.96169 -0.0347124 0
M  V30 9644 O 939.481 -1.95073 -0.936768 0
M  V30 9645 C 940.076 -2.41973 2.37138 0
M  V30 9646 C 938.635 -2.95426 2.33239 0
M  V30 9647 C 937.782 -1.68808 2.19998 0
M  V30 9648 H 940.733 -0.552354 1.48777 0
M  V30 9649 H 940.754 -3.21913 2.02859 0
M  V30 9650 H 940.266 -1.96027 3.34956 0
M  V30 9651 H 938.367 -3.45701 1.39003 0
M  V30 9652 H 938.48 -3.49798 3.27381 0
M  V30 9653 H 936.844 -1.92438 1.66852 0
M  V30 9654 H 937.627 -1.24939 3.19758 0
M  V30 9655 N 940.072 -1.23292 -0.981677 0
M  V30 9656 C 941.004 -0.970782 -2.07626 0
M  V30 9657 C 942.017 0.0547506 -1.62708 0
M  V30 9658 O 943.206 -0.180623 -1.77584 0
M  V30 9659 C 940.306 -0.44055 -3.36024 0
M  V30 9660 C 939.479 -1.52595 -4.09919 0
M  V30 9661 C 938.538 -1.00082 -5.16595 0
M  V30 9662 O 937.564 -1.68951 -5.43548 0
M  V30 9663 N 938.766 0.172017 -5.80245 0
M  V30 9664 H 941.531 -1.91316 -2.30691 0
M  V30 9665 H 939.092 -1.14133 -1.14828 0
M  V30 9666 H 941.084 -0.0743111 -4.04632 0
M  V30 9667 H 939.654 0.407211 -3.09936 0
M  V30 9668 H 938.874 -2.06501 -3.35784 0
M  V30 9669 H 940.162 -2.2559 -4.56055 0
M  V30 9670 H 939.56 0.748129 -5.60731 0
M  V30 9671 H 938.117 0.479532 -6.50034 0
M  V30 9672 N 941.55 1.18024 -1.04442 0
M  V30 9673 C 942.513 2.19992 -0.643136 0
M  V30 9674 C 943.513 1.57949 0.301444 0
M  V30 9675 O 944.703 1.73986 0.0863341 0
M  V30 9676 C 941.835 3.40853 0.0565208 0
M  V30 9677 H 943.028 2.57008 -1.54554 0
M  V30 9678 H 940.581 1.31974 -0.837408 0
M  V30 9679 H 941.316 3.09373 0.972553 0
M  V30 9680 H 941.101 3.87128 -0.622439 0
M  V30 9681 H 942.591 4.16344 0.323652 0
M  V30 9682 N 943.028 0.824394 1.34319 0
M  V30 9683 C 944.275 0.413167 1.9824 0
M  V30 9684 C 944.603 -1.02412 1.65354 0
M  V30 9685 O 943.858 -1.72831 0.91803 0
M  V30 9686 C 944.157 0.564024 3.52921 0
M  V30 9687 C 943.823 1.96725 4.05722 0
M  V30 9688 C 942.485 2.35111 4.19853 0
M  V30 9689 C 944.837 2.88447 4.34106 0
M  V30 9690 C 942.165 3.64551 4.59695 0
M  V30 9691 C 944.517 4.17353 4.75394 0
M  V30 9692 C 943.181 4.55714 4.8773 0
M  V30 9693 H 942.451 0.151188 0.725412 0
M  V30 9694 H 945.098 1.04863 1.60238 0
M  V30 9695 H 943.403 -0.154816 3.91494 0
M  V30 9696 H 945.1 0.226347 4.00361 0
M  V30 9697 H 941.69 1.65908 3.95187 0
M  V30 9698 H 945.874 2.60034 4.22725 0
M  V30 9699 H 941.13 3.94097 4.67437 0
M  V30 9700 H 945.304 4.88512 4.96315 0
M  V30 9701 H 942.931 5.56064 5.1836 0
M  V30 9702 N 944.506 -1.46559 0.579492 0
M  V30 9703 C 945.453 -2.30275 -0.155598 0
M  V30 9704 C 946.423 -1.40422 -0.887175 0
M  V30 9705 O 947.608 -1.69373 -0.878481 0
M  V30 9706 C 944.748 -3.24827 -1.16539 0
M  V30 9707 C 943.861 -4.29778 -0.43759 0
M  V30 9708 C 942.996 -5.11461 -1.43462 0
M  V30 9709 C 942.035 -6.08164 -0.693048 0
M  V30 9710 N 941.172 -6.82726 -1.63799 0
M  V30 9711 H 946.012 -2.92607 0.564356 0
M  V30 9712 H 943.549 -1.44211 0.290126 0
M  V30 9713 H 945.507 -3.78088 -1.76368 0
M  V30 9714 H 944.137 -2.64311 -1.8531 0
M  V30 9715 H 943.189 -3.794 0.27567 0
M  V30 9716 H 944.501 -4.98597 0.142298 0
M  V30 9717 H 943.655 -5.68982 -2.1058 0
M  V30 9718 H 942.394 -4.42595 -2.04844 0
M  V30 9719 H 941.399 -5.49799 -0.00807093 0
M  V30 9720 H 942.624 -6.79047 -0.0846678 0
M  V30 9721 H 940.57 -6.16572 -2.23997 0
M  V30 9722 H 940.487 -7.47795 -1.11082 0
M  V30 9723 H 941.755 -7.44807 -2.29962 0
M  V30 9724 N 945.984 -0.3171 -1.54377 0
M  V30 9725 C 947.231 0.28741 -2.0045 0
M  V30 9726 C 947.559 1.52648 -1.20535 0
M  V30 9727 O 946.814 1.93775 -0.273831 0
M  V30 9728 C 947.113 0.672917 -3.51008 0
M  V30 9729 C 946.779 -0.466245 -4.48483 0
M  V30 9730 C 945.441 -0.778933 -4.74854 0
M  V30 9731 C 947.793 -1.23176 -5.06436 0
M  V30 9732 C 945.121 -1.85997 -5.56437 0
M  V30 9733 C 947.473 -2.30284 -5.89196 0
M  V30 9734 C 946.137 -2.62141 -6.13872 0
M  V30 9735 H 945.407 0.105171 -0.733499 0
M  V30 9736 H 948.054 -0.439538 -1.86388 0
M  V30 9737 H 946.359 1.48019 -3.62764 0
M  V30 9738 H 948.056 1.15209 -3.84094 0
M  V30 9739 H 944.646 -0.212449 -4.28073 0
M  V30 9740 H 948.83 -1.00344 -4.8605 0
M  V30 9741 H 944.086 -2.11134 -5.73788 0
M  V30 9742 H 948.26 -2.90048 -6.33123 0
M  V30 9743 H 945.887 -3.46037 -6.76877 0
M  V30 9744 N 947.462 1.57535 -0.0451378 0
M  V30 9745 C 948.709 1.92451 0.629987 0
M  V30 9746 C 949.037 0.92298 1.71206 0
M  V30 9747 O 948.292 -0.0656626 1.9559 0
M  V30 9748 C 948.591 3.34065 1.27024 0
M  V30 9749 C 948.257 4.49785 0.316971 0
M  V30 9750 C 946.919 4.81169 0.0546406 0
M  V30 9751 C 949.271 5.20111 -0.336693 0
M  V30 9752 C 946.599 5.8023 -0.86889 0
M  V30 9753 C 948.951 6.2016 -1.24838 0
M  V30 9754 C 947.615 6.49976 -1.51944 0
M  V30 9755 H 946.885 0.704228 0.230529 0
M  V30 9756 H 949.532 1.91182 -0.110328 0
M  V30 9757 H 947.837 3.31672 2.08568 0
M  V30 9758 H 949.534 3.58359 1.79945 0
M  V30 9759 H 946.124 4.2529 0.531614 0
M  V30 9760 H 950.308 4.96082 -0.147105 0
M  V30 9761 H 945.564 6.0167 -1.08643 0
M  V30 9762 H 949.738 6.73767 -1.76098 0
M  V30 9763 H 947.365 7.26551 -2.2367 0
M  V30 9764 N 948.94 -0.228186 1.55939 0
M  V30 9765 C 949.873 -1.30971 1.86874 0
M  V30 9766 C 950.851 -1.45517 0.725496 0
M  V30 9767 O 952.035 -1.61436 0.973181 0
M  V30 9768 C 949.162 -2.68089 2.06992 0
M  V30 9769 C 948.208 -2.70594 3.29669 0
M  V30 9770 S 949.041 -2.25325 4.85787 0
M  V30 9771 C 950.197 -3.64331 5.08934 0
M  V30 9772 H 950.43 -1.04536 2.78315 0
M  V30 9773 H 947.963 -0.430103 1.48288 0
M  V30 9774 H 949.921 -3.47033 2.19267 0
M  V30 9775 H 948.582 -2.91752 1.16359 0
M  V30 9776 H 947.775 -3.71338 3.4077 0
M  V30 9777 H 947.377 -1.99708 3.16216 0
M  V30 9778 H 949.669 -4.59972 4.97425 0
M  V30 9779 H 950.612 -3.58151 6.10847 0
M  V30 9780 H 951.02 -3.57711 4.36695 0
M  V30 9781 N 950.418 -1.49637 -0.494624 0
M  V30 9782 C 951.328 -1.69522 -1.62172 0
M  V30 9783 C 952.344 -0.577894 -1.64123 0
M  V30 9784 O 953.52 -0.853382 -1.82426 0
M  V30 9785 C 950.585 -1.7633 -2.9851 0
M  V30 9786 C 949.646 -2.99944 -3.07135 0
M  V30 9787 C 948.879 -3.06419 -4.36971 0
M  V30 9788 O 949.102 -2.20312 -5.26136 0
M  V30 9789 O 948.036 -3.9894 -4.507 0
M  V30 9790 H 951.862 -2.65017 -1.48324 0
M  V30 9791 H 949.447 -1.33454 -0.671603 0
M  V30 9792 H 951.329 -1.83125 -3.7953 0
M  V30 9793 H 950.004 -0.840155 -3.12607 0
M  V30 9794 H 948.911 -2.98664 -2.2528 0
M  V30 9795 H 950.244 -3.9176 -2.97968 0
M  V30 9796 N 951.896 0.746133 -1.38819 0
M  V30 9797 C 952.828 1.86991 -1.3254 0
M  V30 9798 C 953.841 1.61077 -0.236216 0
M  V30 9799 O 955.03 1.71518 -0.494341 0
M  V30 9800 C 952.13 3.22786 -1.03258 0
M  V30 9801 C 951.303 3.76145 -2.23234 0
M  V30 9802 C 950.362 4.90474 -1.90581 0
M  V30 9803 O 949.388 5.04717 -2.63153 0
M  V30 9804 N 950.59 5.74015 -0.86525 0
M  V30 9805 H 953.355 1.92885 -2.2938 0
M  V30 9806 H 950.916 0.926392 -1.32776 0
M  V30 9807 H 952.908 3.96824 -0.794533 0
M  V30 9808 H 951.478 3.12231 -0.151895 0
M  V30 9809 H 950.698 2.93587 -2.63059 0
M  V30 9810 H 951.986 4.08528 -3.03285 0
M  V30 9811 H 951.384 5.65086 -0.263577 0
M  V30 9812 H 949.941 6.48168 -0.687087 0
M  V30 9813 N 953.375 1.23811 0.975125 0
M  V30 9814 C 954.325 0.991036 2.05335 0
M  V30 9815 C 955.309 -0.0648793 1.60769 0
M  V30 9816 O 956.501 0.147917 1.76381 0
M  V30 9817 C 953.63 0.589822 3.38195 0
M  V30 9818 C 952.716 1.68142 3.89344 0
M  V30 9819 N 953.107 2.91274 4.13513 0
M  V30 9820 C 951.405 1.55722 4.17931 0
M  V30 9821 C 952.106 3.61987 4.55347 0
M  V30 9822 N 951.082 2.8952 4.60086 0
M  V30 9823 H 954.884 1.92612 2.21986 0
M  V30 9824 H 952.398 1.13827 1.15832 0
M  V30 9825 H 954.395 0.394075 4.15033 0
M  V30 9826 H 953.055 -0.338157 3.22934 0
M  V30 9827 H 954.066 3.27528 4.01181 0
M  V30 9828 H 950.743 0.696732 4.11645 0
M  V30 9829 H 952.133 4.67572 4.8252 0
M  V30 9830 N 954.853 -1.17469 1.05066 0
M  V30 9831 C 956.099 -1.87976 0.761113 0
M  V30 9832 C 956.432 -1.80756 -0.709995 0
M  V30 9833 O 955.707 -1.21469 -1.51906 0
M  V30 9834 C 955.99 -3.38055 1.2406 0
M  V30 9835 C 955.843 -3.54032 2.77455 0
M  V30 9836 C 957.162 -4.32036 0.838612 0
M  V30 9837 H 954.281 -0.682573 0.277963 0
M  V30 9838 H 956.923 -1.38147 1.30443 0
M  V30 9839 H 955.073 -3.80622 0.778388 0
M  V30 9840 H 956.745 -3.20489 3.3179 0
M  V30 9841 H 954.988 -2.96352 3.16793 0
M  V30 9842 H 955.659 -4.59377 3.06066 0
M  V30 9843 H 958.135 -3.97303 1.23651 0
M  V30 9844 H 957.011 -5.35583 1.20173 0
M  V30 9845 H 957.272 -4.41349 -0.257498 0
M  V30 9846 N 956.331 -0.831506 -1.3388 0
M  V30 9847 C 957.241 -0.261688 -2.33136 0
M  V30 9848 C 958.257 0.608429 -1.63016 0
M  V30 9849 O 959.433 0.514297 -1.94723 0
M  V30 9850 C 956.498 0.559957 -3.42148 0
M  V30 9851 C 955.559 -0.333569 -4.28002 0
M  V30 9852 C 954.792 0.448956 -5.31808 0
M  V30 9853 O 955.015 1.6814 -5.45055 0
M  V30 9854 O 953.949 -0.173197 -6.01651 0
M  V30 9855 H 957.775 -1.08343 -2.83717 0
M  V30 9856 H 955.36 -0.593849 -1.3709 0
M  V30 9857 H 957.242 1.02712 -4.08691 0
M  V30 9858 H 955.917 1.35888 -2.93796 0
M  V30 9859 H 954.824 -0.848416 -3.64352 0
M  V30 9860 H 956.157 -1.09707 -4.79818 0
M  V30 9861 N 957.809 1.4625 -0.587256 0
M  V30 9862 C 958.757 2.32076 0.156108 0
M  V30 9863 C 959.751 1.44756 0.879887 0
M  V30 9864 O 960.957 1.61356 0.797759 0
M  V30 9865 H 957.332 0.748808 0.0692098 0
M  V30 9866 H 959.303 2.9258 -0.586497 0
M  V30 9867 C 958.052 3.28008 1.15352 0
M  V30 9868 H 957.375 3.9518 0.60601 0
M  V30 9869 H 958.815 3.90832 1.64396 0
M  V30 9870 C 957.274 2.53691 2.21681 0
M  V30 9871 O 957.804 2.30329 3.29107 0
M  V30 9872 N 956.01 2.14174 1.96412 0
M  V30 9873 H 955.557 2.33374 1.09061 0
M  V30 9874 H 955.515 1.6477 2.67765 0
M  V30 9875 N 959.287 0.325282 1.54207 0
M  V30 9876 C 960.533 -0.277185 2.00897 0
M  V30 9877 C 960.866 -1.51651 1.21308 0
M  V30 9878 O 960.141 -1.92237 0.295825 0
M  V30 9879 C 960.424 -0.60961 3.54902 0
M  V30 9880 C 960.277 0.640542 4.45216 0
M  V30 9881 C 961.596 -1.42656 4.16338 0
M  V30 9882 H 958.715 -0.0992722 0.730284 0
M  V30 9883 H 961.357 0.442201 1.84783 0
M  V30 9884 H 959.507 -1.22249 3.68765 0
M  V30 9885 H 961.179 1.27878 4.43221 0
M  V30 9886 H 959.422 1.26908 4.14821 0
M  V30 9887 H 960.093 0.363459 5.50802 0
M  V30 9888 H 962.569 -0.908494 4.06061 0
M  V30 9889 H 961.445 -1.62792 5.24204 0
M  V30 9890 H 961.706 -2.42321 3.69774 0
M  V30 9891 N 960.765 -1.57509 0.0534917 0
M  V30 9892 C 961.695 -2.14698 -0.917999 0
M  V30 9893 C 962.676 -1.06924 -1.32292 0
M  V30 9894 O 963.861 -1.34875 -1.39723 0
M  V30 9895 C 960.991 -2.69383 -2.19203 0
M  V30 9896 C 959.945 -3.82161 -1.9271 0
M  V30 9897 C 959.271 -4.23373 -3.26587 0
M  V30 9898 C 960.571 -5.07199 -1.24686 0
M  V30 9899 H 962.265 -2.96125 -0.44165 0
M  V30 9900 H 959.811 -1.42446 -0.210993 0
M  V30 9901 H 961.764 -3.08031 -2.87567 0
M  V30 9902 H 960.488 -1.85151 -2.69048 0
M  V30 9903 H 959.147 -3.43989 -1.26757 0
M  V30 9904 H 958.795 -3.36089 -3.74237 0
M  V30 9905 H 958.495 -4.99385 -3.09658 0
M  V30 9906 H 960.019 -4.64623 -3.96178 0
M  V30 9907 H 961.433 -5.43279 -1.83088 0
M  V30 9908 H 959.83 -5.88369 -1.18076 0
M  V30 9909 H 960.9 -4.84386 -0.223227 0
M  V30 9910 N 962.243 0.219913 -1.56058 0
M  V30 9911 C 963.19 1.27254 -1.92549 0
M  V30 9912 C 964.16 1.46493 -0.782883 0
M  V30 9913 O 965.345 1.60035 -1.03892 0
M  V30 9914 C 962.485 2.61756 -2.24896 0
M  V30 9915 C 961.598 2.50302 -3.52098 0
M  V30 9916 C 960.733 3.77338 -3.73884 0
M  V30 9917 C 959.772 3.60613 -4.94595 0
M  V30 9918 N 958.909 4.79603 -5.12763 0
M  V30 9919 H 963.749 0.954352 -2.82305 0
M  V30 9920 H 961.286 0.459928 -1.39725 0
M  V30 9921 H 963.244 3.40082 -2.4166 0
M  V30 9922 H 961.874 2.91668 -1.38311 0
M  V30 9923 H 960.926 1.63401 -3.43517 0
M  V30 9924 H 962.238 2.33866 -4.40577 0
M  V30 9925 H 961.392 4.64108 -3.90754 0
M  V30 9926 H 960.131 3.96702 -2.83689 0
M  V30 9927 H 959.136 2.72228 -4.77674 0
M  V30 9928 H 960.361 3.42719 -5.86277 0
M  V30 9929 H 958.307 4.99277 -4.2551 0
M  V30 9930 H 958.224 4.65899 -5.95377 0
M  V30 9931 H 959.492 5.67794 -5.34069 0
M  V30 9932 N 963.721 1.49897 0.486681 0
M  V30 9933 C 964.946 1.64106 1.26823 0
M  V30 9934 C 965.371 0.317967 1.85393 0
M  V30 9935 O 964.729 -0.71626 1.66551 0
M  V30 9936 C 964.777 2.72301 2.36399 0
M  V30 9937 O 963.881 2.32469 3.40634 0
M  V30 9938 H 963.222 0.548794 0.373793 0
M  V30 9939 H 965.752 1.96177 0.581017 0
M  V30 9940 H 965.762 2.94906 2.81948 0
M  V30 9941 H 964.437 3.68335 1.93137 0
M  V30 9942 H 963.014 2.20251 3.00905 0
M  V30 9943 N 965.199 -0.738761 1.39212 0
M  V30 9944 C 966.149 -1.84376 1.34125 0
M  V30 9945 C 967.133 -1.5935 0.222793 0
M  V30 9946 O 968.325 -1.70918 0.460014 0
M  V30 9947 C 965.454 -3.22261 1.18334 0
M  V30 9948 C 964.54 -3.53129 2.34864 0
M  V30 9949 N 964.931 -3.54957 3.60332 0
M  V30 9950 C 963.229 -3.83472 2.27739 0
M  V30 9951 C 963.93 -3.83513 4.3737 0
M  V30 9952 N 962.906 -4.01097 3.66909 0
M  V30 9953 H 966.708 -1.84089 2.29104 0
M  V30 9954 H 964.222 -0.936826 1.32655 0
M  V30 9955 H 966.219 -4.01358 1.12772 0
M  V30 9956 H 964.879 -3.23789 0.243016 0
M  V30 9957 H 965.89 -3.36359 3.93806 0
M  V30 9958 H 962.567 -3.92628 1.41949 0
M  V30 9959 H 963.957 -3.91427 5.46109 0
M  V30 9960 N 966.677 -1.24326 -0.968545 0
M  V30 9961 C 967.609 -0.992749 -2.06584 0
M  V30 9962 C 968.622 0.0374902 -1.62757 0
M  V30 9963 O 969.811 -0.199448 -1.77382 0
M  V30 9964 C 966.911 -0.476165 -3.35538 0
M  V30 9965 C 966.084 -1.56934 -4.08277 0
M  V30 9966 C 965.143 -1.05555 -5.15504 0
M  V30 9967 O 964.169 -1.74707 -5.41725 0
M  V30 9968 N 965.371 0.110465 -5.80395 0
M  V30 9969 H 968.136 -1.93752 -2.28649 0
M  V30 9970 H 965.697 -1.15344 -1.13611 0
M  V30 9971 H 967.689 -0.117223 -4.0453 0
M  V30 9972 H 966.259 0.374315 -3.10351 0
M  V30 9973 H 965.479 -2.10051 -3.33575 0
M  V30 9974 H 966.767 -2.30415 -4.53637 0
M  V30 9975 H 966.165 0.688614 -5.61493 0
M  V30 9976 H 964.722 0.41056 -6.50506 0
M  V30 9977 N 968.156 1.1691 -1.05688 0
M  V30 9978 C 969.088 2.20648 -0.620237 0
M  V30 9979 C 970.101 1.59652 0.318604 0
M  V30 9980 O 971.29 1.78157 0.110553 0
M  V30 9981 C 968.39 3.38716 0.111729 0
M  V30 9982 C 967.563 4.29277 -0.839062 0
M  V30 9983 C 966.622 5.25993 -0.147453 0
M  V30 9984 O 965.648 5.63787 -0.783151 0
M  V30 9985 N 966.85 5.69725 1.11327 0
M  V30 9986 H 969.615 2.58731 -1.51256 0
M  V30 9987 H 967.176 1.31858 -0.939412 0
M  V30 9988 H 969.168 4.00455 0.584657 0
M  V30 9989 H 967.738 2.99189 0.905784 0
M  V30 9990 H 966.958 3.64894 -1.4915 0
M  V30 9991 H 968.246 4.86669 -1.48428 0
M  V30 9992 H 967.644 5.41103 1.64999 0
M  V30 9993 H 966.201 6.33584 1.53018 0
M  V30 9994 N 969.634 0.838594 1.33437 0
M  V30 9995 C 971.05 0.526347 1.50671 0
M  V30 9996 C 971.25 -0.946387 1.77893 0
M  V30 9997 O 970.306 -1.7302 1.83903 0
M  V30 9998 C 971.619 1.39945 2.6615 0
M  V30 9999 C 973.167 1.3982 2.80035 0
M  V30 10000 C 973.642 2.25614 3.98576 0
M  V30 10001 N 975.133 2.23322 4.0581 0
M  V30 10002 C 975.868 2.86443 4.96727 0
M  V30 10003 N 975.364 3.58616 5.92762 0
M  V30 10004 N 977.157 2.75915 4.89722 0
M  V30 10005 H 969.308 1.79195 1.1403 0
M  V30 10006 H 971.571 0.764491 0.560586 0
M  V30 10007 H 971.277 2.44599 2.52714 0
M  V30 10008 H 971.151 1.07529 3.61548 0
M  V30 10009 H 973.538 0.35937 2.92904 0
M  V30 10010 H 973.619 1.76241 1.85399 0
M  V30 10011 H 973.263 3.29555 3.86466 0
M  V30 10012 H 973.193 1.86533 4.92456 0
M  V30 10013 H 975.684 1.70836 3.37081 0
M  V30 10014 H 975.997 4.03987 6.58798 0
M  V30 10015 H 974.342 3.62724 5.92838 0
M  V30 10016 H 977.533 2.19094 4.13661 0
M  V30 10017 H 977.706 3.25393 5.60378 0
M  V30 10018 N 971.112 -1.45937 0.595003 0
M  V30 10019 C 972.042 -2.33198 -0.11871 0
M  V30 10020 C 973.023 -1.46083 -0.871423 0
M  V30 10021 O 974.208 -1.74879 -0.844461 0
M  V30 10022 C 971.338 -3.28576 -1.12495 0
M  V30 10023 C 970.292 -4.25229 -0.486275 0
M  V30 10024 C 969.618 -5.10204 -1.59986 0
M  V30 10025 C 970.918 -5.19019 0.584473 0
M  V30 10026 H 972.612 -2.93122 0.609886 0
M  V30 10027 H 970.158 -1.40951 0.294742 0
M  V30 10028 H 972.111 -3.88485 -1.6327 0
M  V30 10029 H 970.835 -2.66784 -1.88398 0
M  V30 10030 H 969.494 -3.666 0.000507962 0
M  V30 10031 H 969.142 -4.44789 -2.34886 0
M  V30 10032 H 968.842 -5.75669 -1.1781 0
M  V30 10033 H 970.366 -5.7298 -2.11014 0
M  V30 10034 H 971.78 -5.73073 0.161297 0
M  V30 10035 H 970.177 -5.92893 0.927256 0
M  V30 10036 H 971.247 -4.62208 1.46601 0
M  V30 10037 N 972.59 -0.333456 -1.54032 0
M  V30 10038 C 973.54 0.543745 -2.21421 0
M  V30 10039 C 974.524 1.07396 -1.19812 0
M  V30 10040 O 975.716 1.00934 -1.45401 0
M  V30 10041 C 972.845 1.69925 -2.98296 0
M  V30 10042 C 971.931 1.18345 -4.07253 0
M  V30 10043 N 972.322 0.388098 -5.04309 0
M  V30 10044 C 970.62 1.46128 -4.21382 0
M  V30 10045 C 971.321 0.109383 -5.81597 0
M  V30 10046 N 970.297 0.69825 -5.39097 0
M  V30 10047 H 974.099 -0.0711018 -2.93814 0
M  V30 10048 H 971.613 -0.139807 -1.61797 0
M  V30 10049 H 973.61 2.33954 -3.45067 0
M  V30 10050 H 972.27 2.31747 -2.27428 0
M  V30 10051 H 973.281 0.0300645 -5.17891 0
M  V30 10052 H 969.958 2.08463 -3.61731 0
M  V30 10053 H 971.348 -0.531554 -6.69794 0
M  V30 10054 N 974.068 1.57479 -0.061844 0
M  V30 10055 C 975.484 1.56855 0.294753 0
M  V30 10056 C 975.684 1.07042 1.70717 0
M  V30 10057 O 974.74 0.731817 2.41662 0
M  V30 10058 C 976.053 3.00486 0.113484 0
M  V30 10059 C 977.601 3.1246 0.183778 0
M  V30 10060 C 978.076 4.5799 0.0309092 0
M  V30 10061 N 979.567 4.63119 0.0868393 0
M  V30 10062 C 980.302 5.734 -0.00717446 0
M  V30 10063 N 979.798 6.92628 -0.154144 0
M  V30 10064 N 981.591 5.62078 0.0491763 0
M  V30 10065 H 973.742 1.88176 -0.985058 0
M  V30 10066 H 976.005 0.867051 -0.383309 0
M  V30 10067 H 975.711 3.41004 -0.86075 0
M  V30 10068 H 975.585 3.67029 0.870023 0
M  V30 10069 H 977.972 2.71834 1.14849 0
M  V30 10070 H 978.053 2.48574 -0.603697 0
M  V30 10071 H 977.697 4.99303 -0.930526 0
M  V30 10072 H 977.627 5.19895 0.837664 0
M  V30 10073 H 980.118 3.77374 0.199245 0
M  V30 10074 H 980.431 7.72492 -0.218296 0
M  V30 10075 H 978.776 6.94742 -0.189372 0
M  V30 10076 H 981.967 4.67817 0.162626 0
M  V30 10077 H 982.14 6.47994 -0.0275478 0
M  V30 10078 N 975.546 -0.211634 1.56173 0
M  V30 10079 C 976.493 -1.26231 1.93221 0
M  V30 10080 C 977.463 -1.46076 0.790641 0
M  V30 10081 O 978.648 -1.59482 1.04739 0
M  V30 10082 C 975.788 -2.60559 2.26281 0
M  V30 10083 C 974.901 -2.48431 3.5342 0
M  V30 10084 C 974.036 -3.7535 3.7588 0
M  V30 10085 C 973.075 -3.57985 4.96501 0
M  V30 10086 N 972.212 -4.76877 5.15299 0
M  V30 10087 H 977.052 -0.939367 2.82807 0
M  V30 10088 H 974.589 -0.452511 1.39967 0
M  V30 10089 H 976.547 -3.38796 2.43461 0
M  V30 10090 H 975.177 -2.9093 1.39855 0
M  V30 10091 H 974.229 -1.61577 3.44379 0
M  V30 10092 H 975.541 -2.31526 4.41811 0
M  V30 10093 H 974.695 -4.62029 3.9321 0
M  V30 10094 H 973.434 -3.95191 2.85788 0
M  V30 10095 H 972.439 -2.69691 4.79111 0
M  V30 10096 H 973.664 -3.39605 5.88086 0
M  V30 10097 H 971.61 -4.97013 4.28152 0
M  V30 10098 H 971.527 -4.62735 5.9784 0
M  V30 10099 H 972.795 -5.64954 5.37073 0
M  V30 10100 N 977.024 -1.50153 -0.478725 0
M  V30 10101 C 977.971 -1.68458 -1.57767 0
M  V30 10102 C 978.941 -0.5259 -1.57555 0
M  V30 10103 O 980.126 -0.755574 -1.75202 0
M  V30 10104 C 977.266 -1.77772 -2.95789 0
M  V30 10105 C 976.379 -3.05092 -3.05848 0
M  V30 10106 C 975.514 -3.05247 -4.34739 0
M  V30 10107 C 974.553 -4.27053 -4.38512 0
M  V30 10108 N 973.69 -4.24991 -5.58862 0
M  V30 10109 H 978.53 -2.62282 -1.41464 0
M  V30 10110 H 976.067 -1.30023 -0.687921 0
M  V30 10111 H 978.025 -1.81152 -3.75819 0
M  V30 10112 H 976.655 -0.873944 -3.10744 0
M  V30 10113 H 975.707 -3.11219 -2.1874 0
M  V30 10114 H 977.019 -3.95075 -3.04495 0
M  V30 10115 H 976.173 -3.07314 -5.23109 0
M  V30 10116 H 974.912 -2.13081 -4.38689 0
M  V30 10117 H 973.917 -4.25206 -3.4854 0
M  V30 10118 H 975.142 -5.20437 -4.36259 0
M  V30 10119 H 973.088 -3.35674 -5.63612 0
M  V30 10120 H 973.005 -5.08734 -5.59219 0
M  V30 10121 H 974.273 -4.31193 -6.49379 0
M  V30 10122 N 978.502 0.731368 -1.39602 0
M  V30 10123 C 979.434 1.85575 -1.34516 0
M  V30 10124 C 980.447 1.60818 -0.253287 0
M  V30 10125 O 981.636 1.70984 -0.512505 0
M  V30 10126 C 978.736 3.21673 -1.06676 0
M  V30 10127 C 977.909 3.73757 -2.27211 0
M  V30 10128 C 976.968 4.88426 -1.95773 0
M  V30 10129 O 975.994 5.01898 -2.68491 0
M  V30 10130 N 977.196 5.73065 -0.926083 0
M  V30 10131 H 979.961 1.90442 -2.31413 0
M  V30 10132 H 977.522 0.912258 -1.33752 0
M  V30 10133 H 979.514 3.95959 -0.836577 0
M  V30 10134 H 978.084 3.12052 -0.185003 0
M  V30 10135 H 977.304 2.90781 -2.66158 0
M  V30 10136 H 978.592 4.05289 -3.07601 0
M  V30 10137 H 977.99 5.64774 -0.323497 0
M  V30 10138 H 976.547 6.47403 -0.755795 0
M  V30 10139 N 979.98 1.24838 0.961938 0
M  V30 10140 C 980.91 1.07053 2.07514 0
M  V30 10141 C 981.891 -0.0182465 1.7009 0
M  V30 10142 O 983.076 0.149915 1.9362 0
M  V30 10143 C 980.206 0.680693 3.40564 0
M  V30 10144 C 979.16 1.71889 3.91967 0
M  V30 10145 C 978.486 1.18395 5.21428 0
M  V30 10146 C 979.786 3.1161 4.19161 0
M  V30 10147 H 981.48 2.00167 2.22651 0
M  V30 10148 H 979.026 0.963799 1.0699 0
M  V30 10149 H 980.979 0.54324 4.17884 0
M  V30 10150 H 979.703 -0.28615 3.25344 0
M  V30 10151 H 978.362 1.84465 3.16809 0
M  V30 10152 H 978.01 0.207543 5.02572 0
M  V30 10153 H 977.71 1.87778 5.56788 0
M  V30 10154 H 979.234 1.05873 6.01351 0
M  V30 10155 H 980.648 3.0223 4.87165 0
M  V30 10156 H 979.045 3.78398 4.65763 0
M  V30 10157 H 980.115 3.59218 3.25715 0
M  V30 10158 N 981.458 -1.16348 1.06306 0
M  V30 10159 C 982.368 -2.24375 0.685059 0
M  V30 10160 C 983.384 -1.71413 -0.298956 0
M  V30 10161 O 984.56 -2.00854 -0.148239 0
M  V30 10162 C 981.625 -3.46614 0.0774088 0
M  V30 10163 C 980.686 -4.14613 1.11331 0
M  V30 10164 C 979.919 -5.31016 0.534559 0
M  V30 10165 O 980.142 -5.66654 -0.65265 0
M  V30 10166 O 979.076 -5.88256 1.27431 0
M  V30 10167 H 982.902 -2.59018 1.58566 0
M  V30 10168 H 980.487 -1.23865 0.835332 0
M  V30 10169 H 982.369 -4.20599 -0.259716 0
M  V30 10170 H 981.044 -3.13743 -0.796677 0
M  V30 10171 H 979.951 -3.42597 1.50261 0
M  V30 10172 H 981.284 -4.51538 1.95893 0
M  V30 10173 N 982.937 -0.845659 -1.3299 0
M  V30 10174 C 983.885 -0.272412 -2.30999 0
M  V30 10175 C 984.879 0.599311 -1.58444 0
M  V30 10176 O 986.085 0.488117 -1.73255 0
M  V30 10177 H 982.46 -0.0693751 -0.748793 0
M  V30 10178 H 984.431 -1.11343 -2.76849 0
M  V30 10179 C 983.18 0.532019 -3.43606 0
M  V30 10180 H 982.503 -0.129455 -3.9959 0
M  V30 10181 H 983.943 0.898853 -4.14363 0
M  V30 10182 C 982.402 1.71364 -2.90062 0
M  V30 10183 O 982.932 2.81252 -2.8681 0
M  V30 10184 N 981.138 1.53775 -2.4658 0
M  V30 10185 H 980.685 0.643836 -2.49424 0
M  V30 10186 H 980.643 2.32982 -2.11108 0
M  V30 10187 N 984.415 1.45619 -0.602734 0
M  V30 10188 C 985.325 2.34288 0.120902 0
M  V30 10189 C 986.341 1.50952 0.865414 0
M  V30 10190 O 987.517 1.83768 0.824094 0
M  V30 10191 C 984.582 3.28489 1.10888 0
M  V30 10192 C 983.643 4.2773 0.366853 0
M  V30 10193 C 982.876 5.17429 1.30776 0
M  V30 10194 O 983.099 5.10459 2.54535 0
M  V30 10195 O 982.033 5.96459 0.807464 0
M  V30 10196 H 985.859 2.97559 -0.60765 0
M  V30 10197 H 983.444 1.44922 -0.363019 0
M  V30 10198 H 985.326 3.86549 1.67803 0
M  V30 10199 H 984.001 2.67789 1.81854 0
M  V30 10200 H 982.908 3.73299 -0.244643 0
M  V30 10201 H 984.241 4.91271 -0.302226 0
M  V30 10202 N 985.893 0.34162 1.53853 0
M  V30 10203 C 986.826 -0.559051 2.21246 0
M  V30 10204 C 987.804 -1.10179 1.1958 0
M  V30 10205 O 988.988 -1.16242 1.48392 0
M  V30 10206 C 986.115 -1.7689 2.88838 0
M  V30 10207 C 985.161 -1.3558 4.04377 0
M  V30 10208 S 985.994 -0.377225 5.3417 0
M  V30 10209 C 987.15 -1.59395 6.05264 0
M  V30 10210 H 987.383 0.013373 2.97297 0
M  V30 10211 H 984.916 0.125694 1.53888 0
M  V30 10212 H 986.874 -2.463 3.284 0
M  V30 10213 H 985.535 -2.31254 2.12557 0
M  V30 10214 H 984.728 -2.25781 4.50599 0
M  V30 10215 H 984.33 -0.741197 3.66582 0
M  V30 10216 H 986.622 -2.52872 6.2854 0
M  V30 10217 H 987.565 -1.17356 6.98307 0
M  V30 10218 H 987.973 -1.78913 5.35397 0
M  V30 10219 N 987.371 -1.57444 0.0701946 0
M  V30 10220 C 988.304 -2.08232 -0.93352 0
M  V30 10221 C 989.282 -0.987073 -1.29212 0
M  V30 10222 O 990.466 -1.26035 -1.40169 0
M  V30 10223 C 987.593 -2.53866 -2.2421 0
M  V30 10224 C 986.639 -3.7481 -2.03518 0
M  V30 10225 S 987.472 -5.1958 -1.29601 0
M  V30 10226 C 988.628 -5.68544 -2.61742 0
M  V30 10227 H 988.861 -2.93042 -0.501354 0
M  V30 10228 H 986.394 -1.53741 -0.142533 0
M  V30 10229 H 988.352 -2.80818 -2.99419 0
M  V30 10230 H 987.013 -1.69327 -2.64551 0
M  V30 10231 H 986.206 -4.04724 -3.00358 0
M  V30 10232 H 985.808 -3.48222 -1.36445 0
M  V30 10233 H 988.1 -5.75291 -3.57836 0
M  V30 10234 H 989.043 -6.67459 -2.3644 0
M  V30 10235 H 989.451 -4.96354 -2.68873 0
M  V30 10236 N 988.849 0.203349 -1.56283 0
M  V30 10237 C 990.265 0.55384 -1.49682 0
M  V30 10238 C 990.465 1.86261 -0.768701 0
M  V30 10239 O 989.521 2.50517 -0.315824 0
M  V30 10240 C 990.834 0.616216 -2.94318 0
M  V30 10241 C 992.382 0.705611 -3.04943 0
M  V30 10242 C 992.857 0.79917 -4.50974 0
M  V30 10243 N 994.348 0.862916 -4.55091 0
M  V30 10244 C 995.083 0.955334 -5.65386 0
M  V30 10245 N 994.579 1.01057 -6.8539 0
M  V30 10246 N 996.372 0.991884 -5.53279 0
M  V30 10247 H 988.523 -0.655244 -2.0204 0
M  V30 10248 H 990.786 -0.232344 -0.919087 0
M  V30 10249 H 990.492 -0.27619 -3.50614 0
M  V30 10250 H 990.366 1.47371 -3.4722 0
M  V30 10251 H 992.753 1.58845 -2.48701 0
M  V30 10252 H 992.834 -0.177921 -2.5518 0
M  V30 10253 H 992.478 -0.0792841 -5.07838 0
M  V30 10254 H 992.408 1.69838 -4.9846 0
M  V30 10255 H 994.899 0.829812 -3.68677 0
M  V30 10256 H 995.212 1.08137 -7.65197 0
M  V30 10257 H 993.557 0.979384 -6.88065 0
M  V30 10258 H 996.748 0.945514 -4.58451 0
M  V30 10259 H 996.921 1.06045 -6.39264 0
M  V30 10260 N 990.327 1.50405 0.470755 0
M  V30 10261 C 991.573 1.6165 1.22462 0
M  V30 10262 C 991.906 0.316034 1.91611 0
M  V30 10263 O 991.181 -0.682509 1.82132 0
M  V30 10264 C 991.464 2.79702 2.26801 0
M  V30 10265 C 991.317 4.19631 1.61955 0
M  V30 10266 C 992.636 2.93313 3.28109 0
M  V30 10267 H 989.755 0.588345 0.443868 0
M  V30 10268 H 992.397 1.82792 0.518376 0
M  V30 10269 H 990.547 2.61807 2.87036 0
M  V30 10270 H 992.219 4.49117 1.05316 0
M  V30 10271 H 990.462 4.23874 0.922674 0
M  V30 10272 H 991.133 4.98162 2.37779 0
M  V30 10273 H 993.609 3.09697 2.77897 0
M  V30 10274 H 992.485 3.77537 3.98443 0
M  V30 10275 H 992.746 2.03942 3.9225 0
M  V30 10276 N 991.805 -0.723954 1.39988 0
M  V30 10277 C 993.053 -1.48078 1.3754 0
M  V30 10278 C 993.374 -1.94985 -0.0243358 0
M  V30 10279 O 992.644 -1.69764 -0.977602 0
M  V30 10280 H 991.224 -0.549354 0.506181 0
M  V30 10281 H 993.886 -0.858746 1.74962 0
M  V30 10282 H 992.982 -2.35763 2.04505 0
M  V30 10283 N 993.283 -1.25346 -0.955304 0
M  V30 10284 C 994.213 -1.08152 -2.06943 0
M  V30 10285 C 995.194 0.00922598 -1.70097 0
M  V30 10286 O 996.379 -0.160181 -1.93538 0
M  V30 10287 C 993.509 -0.698745 -3.40198 0
M  V30 10288 C 992.463 -1.73965 -3.9105 0
M  V30 10289 C 991.789 -1.21158 -5.20792 0
M  V30 10290 C 993.089 -3.13829 -4.17503 0
M  V30 10291 H 994.783 -2.01345 -2.21586 0
M  V30 10292 H 992.329 -0.969459 -1.06478 0
M  V30 10293 H 994.282 -0.565394 -4.1759 0
M  V30 10294 H 993.006 0.268892 -3.25491 0
M  V30 10295 H 991.665 -1.86143 -3.15827 0
M  V30 10296 H 991.313 -0.234193 -5.02455 0
M  V30 10297 H 991.013 -1.90728 -5.55785 0
M  V30 10298 H 992.537 -1.09061 -6.00781 0
M  V30 10299 H 993.951 -3.04809 -4.85556 0
M  V30 10300 H 992.348 -3.80863 -4.63749 0
M  V30 10301 H 993.418 -3.6094 -3.23806 0
M  V30 10302 N 994.761 1.15782 -1.06922 0
M  V30 10303 C 995.986 1.90896 -0.810771 0
M  V30 10304 C 996.411 1.77246 0.629714 0
M  V30 10305 O 995.769 1.10215 1.43953 0
M  V30 10306 C 995.817 3.39397 -1.21829 0
M  V30 10307 O 994.921 4.10818 -0.360934 0
M  V30 10308 H 994.262 0.594497 -0.295752 0
M  V30 10309 H 996.792 1.46652 -1.42669 0
M  V30 10310 H 996.802 3.90181 -1.19259 0
M  V30 10311 H 995.477 3.4865 -2.2675 0
M  V30 10312 H 994.054 3.7019 -0.448748 0
M  V30 10313 N 996.239 0.8527 1.3254 0
M  V30 10314 C 997.171 0.253181 2.27797 0
M  V30 10315 C 998.184 -0.573977 1.52346 0
M  V30 10316 O 999.373 -0.398786 1.73988 0
M  V30 10317 C 996.473 -0.661034 3.32391 0
M  V30 10318 C 995.646 0.12984 4.37207 0
M  V30 10319 C 994.705 -0.709837 5.2139 0
M  V30 10320 O 993.731 -0.144056 5.69018 0
M  V30 10321 N 994.933 -2.0249 5.44039 0
M  V30 10322 H 997.698 1.07171 2.79883 0
M  V30 10323 H 995.259 0.712491 1.45379 0
M  V30 10324 H 997.251 -1.22806 3.85617 0
M  V30 10325 H 995.821 -1.38025 2.80478 0
M  V30 10326 H 995.041 0.878289 3.84291 0
M  V30 10327 H 996.329 0.673141 5.04328 0
M  V30 10328 H 995.727 -2.50792 5.0707 0
M  V30 10329 H 994.284 -2.5401 6.00269 0
M  V30 10330 N 997.718 -1.45297 0.610449 0
M  V30 10331 C 998.995 -1.95562 0.0386189 0
M  V30 10332 C 999.375 -1.55284 -1.43004 0
M  V30 10333 O 998.723 -0.816785 -2.13403 0
M  V30 10334 C 998.933 -3.48176 0.239731 0
M  V30 10335 C 1000.28 -4.24425 0.122035 0
M  V30 10336 O 1001.3 -3.55794 0.170003 0
M  V30 10337 O 1000.16 -5.46499 0.00953695 0
M  V30 10338 H 997.258 -0.826296 -0.0341081 0
M  V30 10339 H 999.804 -1.55449 0.68071 0
M  V30 10340 H 998.576 -3.70471 1.25963 0
M  V30 10341 H 998.199 -3.95186 -0.437486 0
M  V30 10342 N 999.196 -0.349774 -1.5367 0
M  V30 10343 C 1000.16 0.491676 -2.23864 0
M  V30 10344 C 1001.16 1.02256 -1.24098 0
M  V30 10345 O 1002.35 0.910816 -1.48492 0
M  V30 10346 C 999.481 1.68557 -2.96313 0
M  V30 10347 H 1000.67 -0.12233 -2.9965 0
M  V30 10348 H 998.227 -0.101214 -1.55972 0
M  V30 10349 H 998.962 2.3381 -2.2473 0
M  V30 10350 H 998.747 1.31203 -3.69497 0
M  V30 10351 H 1000.24 2.28225 -3.49718 0
M  V30 10352 N 1000.67 1.57404 -0.0785433 0
M  V30 10353 C 1001.61 2.101 0.916013 0
M  V30 10354 C 1002.62 1.03459 1.25698 0
M  V30 10355 O 1003.81 1.30954 1.21299 0
M  V30 10356 C 1000.91 2.55202 2.22992 0
M  V30 10357 C 1000.08 3.85491 2.06678 0
M  V30 10358 C 999.14 4.16614 3.21433 0
M  V30 10359 O 998.166 4.86105 2.96126 0
M  V30 10360 N 999.368 3.70697 4.46726 0
M  V30 10361 H 1002.13 2.96054 0.466059 0
M  V30 10362 H 999.694 1.61546 0.107006 0
M  V30 10363 H 1001.69 2.7308 2.9868 0
M  V30 10364 H 1000.26 1.74348 2.59464 0
M  V30 10365 H 999.476 3.76925 1.15417 0
M  V30 10366 H 1000.76 4.70759 1.93036 0
M  V30 10367 H 1000.16 3.14571 4.70172 0
M  V30 10368 H 998.719 3.93762 5.19418 0
M  V30 10369 N 1002.15 -0.195058 1.56388 0
M  V30 10370 C 1003.43 -0.941335 1.71459 0
M  V30 10371 C 1003.81 -2.01375 0.633336 0
M  V30 10372 O 1003.16 -2.25715 -0.35567 0
M  V30 10373 C 1003.37 -1.52772 3.13786 0
M  V30 10374 C 1004.71 -2.00983 3.7402 0
M  V30 10375 O 1005.74 -1.62614 3.16915 0
M  V30 10376 O 1004.6 -2.71586 4.7424 0
M  V30 10377 H 1001.69 -0.441451 0.699321 0
M  V30 10378 H 1004.24 -0.184752 1.68691 0
M  V30 10379 H 1003.01 -0.754699 3.83953 0
M  V30 10380 H 1002.63 -2.34914 3.20782 0
M  V30 10381 N 1003.63 -1.50653 -0.462772 0
M  V30 10382 C 1004.56 -1.66286 -1.5774 0
M  V30 10383 C 1005.57 -0.544094 -1.53439 0
M  V30 10384 O 1006.76 -0.817566 -1.58676 0
M  V30 10385 C 1003.86 -1.63893 -2.96635 0
M  V30 10386 C 1003.04 -2.91939 -3.25716 0
M  V30 10387 C 1002.1 -2.82076 -4.44206 0
M  V30 10388 O 1001.12 -3.56032 -4.44106 0
M  V30 10389 N 1002.32 -1.96196 -5.4634 0
M  V30 10390 H 1005.09 -2.6243 -1.44742 0
M  V30 10391 H 1002.65 -1.48221 -0.651326 0
M  V30 10392 H 1004.64 -1.54897 -3.73884 0
M  V30 10393 H 1003.21 -0.75449 -3.03358 0
M  V30 10394 H 1002.43 -3.14998 -2.37002 0
M  V30 10395 H 1003.72 -3.7675 -3.4196 0
M  V30 10396 H 1003.12 -1.35439 -5.49247 0
M  V30 10397 H 1001.67 -1.93097 -6.2254 0
M  V30 10398 N 1005.11 0.71652 -1.4037 0
M  V30 10399 C 1006.04 1.84012 -1.34963 0
M  V30 10400 C 1007.02 1.61102 -0.22017 0
M  V30 10401 O 1008.2 1.84127 -0.403676 0
M  V30 10402 C 1005.33 3.20334 -1.10017 0
M  V30 10403 C 1004.38 3.62072 -2.25402 0
M  V30 10404 S 1005.21 3.69295 -3.8779 0
M  V30 10405 C 1006.37 5.08378 -3.65107 0
M  V30 10406 H 1006.6 1.88318 -2.30052 0
M  V30 10407 H 1004.13 0.883208 -1.26644 0
M  V30 10408 H 1006.09 3.99042 -0.963097 0
M  V30 10409 H 1004.75 3.13662 -0.16584 0
M  V30 10410 H 1003.94 4.61051 -2.03587 0
M  V30 10411 H 1003.55 2.90619 -2.35408 0
M  V30 10412 H 1005.84 5.95268 -3.23516 0
M  V30 10413 H 1006.78 5.35228 -4.63613 0
M  V30 10414 H 1007.19 4.78927 -2.98813 0
M  V30 10415 N 1006.59 1.25851 0.948643 0
M  V30 10416 C 1008 1.02802 1.22081 0
M  V30 10417 C 1008.2 -0.251461 1.99925 0
M  V30 10418 O 1007.26 -0.962592 2.33432 0
M  V30 10419 C 1008.57 2.25489 1.98936 0
M  V30 10420 C 1010.12 2.30312 2.11956 0
M  V30 10421 C 1010.59 3.52671 2.92211 0
M  V30 10422 N 1012.09 3.53103 2.99787 0
M  V30 10423 C 1012.82 4.44445 3.62294 0
M  V30 10424 N 1012.32 5.46065 4.26362 0
M  V30 10425 N 1014.11 4.32113 3.59493 0
M  V30 10426 H 1006.26 2.08042 0.428044 0
M  V30 10427 H 1008.52 0.913928 0.251872 0
M  V30 10428 H 1008.23 3.18513 1.4914 0
M  V30 10429 H 1008.1 2.2914 2.99624 0
M  V30 10430 H 1010.49 1.37808 2.60946 0
M  V30 10431 H 1010.57 2.30676 1.10554 0
M  V30 10432 H 1010.22 4.45501 2.43909 0
M  V30 10433 H 1010.15 3.49554 3.93853 0
M  V30 10434 H 1012.64 2.79597 2.54232 0
M  V30 10435 H 1012.95 6.11964 4.71932 0
M  V30 10436 H 1011.29 5.49931 4.24972 0
M  V30 10437 H 1014.49 3.51946 3.08629 0
M  V30 10438 H 1014.66 5.03493 4.0792 0
M  V30 10439 N 1008.06 -1.15214 1.07534 0
M  V30 10440 C 1009.01 -2.20013 0.697337 0
M  V30 10441 C 1009.98 -1.6314 -0.312168 0
M  V30 10442 O 1011.17 -1.89768 -0.198196 0
M  V30 10443 C 1008.31 -3.44945 0.103293 0
M  V30 10444 C 1007.42 -4.16009 1.1645 0
M  V30 10445 C 1006.55 -5.28496 0.535261 0
M  V30 10446 C 1005.59 -5.9138 1.57912 0
M  V30 10447 N 1004.73 -6.95335 0.972332 0
M  V30 10448 H 1009.57 -2.51698 1.59538 0
M  V30 10449 H 1007.11 -1.2361 0.797431 0
M  V30 10450 H 1009.07 -4.16397 -0.258766 0
M  V30 10451 H 1007.7 -3.13772 -0.758096 0
M  V30 10452 H 1006.75 -3.43035 1.64411 0
M  V30 10453 H 1008.06 -4.58853 1.9559 0
M  V30 10454 H 1007.21 -6.06579 0.120942 0
M  V30 10455 H 1005.95 -4.8685 -0.287889 0
M  V30 10456 H 1004.96 -5.12008 2.0032 0
M  V30 10457 H 1006.18 -6.35103 2.40459 0
M  V30 10458 H 1004.13 -6.55779 0.170119 0
M  V30 10459 H 1004.05 -7.36616 1.70095 0
M  V30 10460 H 1005.31 -7.77312 0.583577 0
M  V30 10461 N 1009.54 -0.859717 -1.32086 0
M  V30 10462 C 1010.48 -0.252764 -2.26796 0
M  V30 10463 C 1011.45 0.612178 -1.50636 0
M  V30 10464 O 1012.64 0.567865 -1.79743 0
M  V30 10465 C 1009.76 0.643017 -3.3254 0
M  V30 10466 C 1008.81 -0.149211 -4.26239 0
M  V30 10467 S 1009.64 -1.52097 -5.13446 0
M  V30 10468 C 1010.8 -0.631035 -6.22711 0
M  V30 10469 H 1011.03 -1.05563 -2.77928 0
M  V30 10470 H 1008.57 -0.657639 -1.39694 0
M  V30 10471 H 1010.52 1.15418 -3.9394 0
M  V30 10472 H 1009.18 1.41974 -2.80183 0
M  V30 10473 H 1008.38 0.53328 -5.01171 0
M  V30 10474 H 1007.98 -0.592128 -3.69283 0
M  V30 10475 H 1010.27 0.162638 -6.77305 0
M  V30 10476 H 1011.21 -1.35116 -6.95089 0
M  V30 10477 H 1011.62 -0.203131 -5.64134 0
M  V30 10478 N 1011.02 1.44971 -0.618145 0
M  V30 10479 C 1011.95 2.33357 0.0815955 0
M  V30 10480 C 1012.93 1.47451 0.848072 0
M  V30 10481 O 1014.12 1.762 0.816532 0
M  V30 10482 C 1011.25 3.30324 1.07253 0
M  V30 10483 C 1010.2 4.25948 0.418563 0
M  V30 10484 C 1009.53 5.12685 1.51849 0
M  V30 10485 C 1010.83 5.18024 -0.66697 0
M  V30 10486 H 1012.52 2.92115 -0.656442 0
M  V30 10487 H 1010.07 1.40465 -0.317129 0
M  V30 10488 H 1012.02 3.91033 1.57069 0
M  V30 10489 H 1010.74 2.69748 1.8413 0
M  V30 10490 H 1009.4 3.66553 -0.0588308 0
M  V30 10491 H 1009.05 4.4847 2.2778 0
M  V30 10492 H 1008.75 5.7747 1.08637 0
M  V30 10493 H 1010.27 5.76264 2.01871 0
M  V30 10494 H 1011.69 5.72744 -0.252448 0
M  V30 10495 H 1010.09 5.91343 -1.02146 0
M  V30 10496 H 1011.16 4.59817 -1.53936 0
M  V30 10497 N 1012.5 0.357919 1.53482 0
M  V30 10498 C 1013.74 -0.23433 2.03052 0
M  V30 10499 C 1014.1 -1.46614 1.23969 0
M  V30 10500 O 1015.3 -2.13351 1.63508 0
M  V30 10501 C 1013.57 -0.526653 3.53498 0
M  V30 10502 S 1015.13 -1.09366 4.24952 0
M  V30 10503 H 1011.95 -0.0687848 0.707665 0
M  V30 10504 H 1014.55 0.499011 1.89024 0
M  V30 10505 H 1013.26 0.377463 4.0866 0
M  V30 10506 H 1012.79 -1.28927 3.71674 0
M  V30 10507 H 1014.8 -2.37845 4.35481 0
M  V30 10508 N 1013.98 -1.5736 0.0868897 0
M  V30 10509 C 1014.91 -2.10582 -0.904858 0
M  V30 10510 C 1015.92 -1.04124 -1.25148 0
M  V30 10511 O 1017.11 -1.31595 -1.20603 0
M  V30 10512 C 1014.21 -2.56381 -2.21635 0
M  V30 10513 C 1013.38 -3.86581 -2.04631 0
M  V30 10514 C 1012.44 -4.18313 -3.19219 0
M  V30 10515 O 1011.47 -4.87669 -2.93544 0
M  V30 10516 N 1012.67 -3.73061 -4.44754 0
M  V30 10517 H 1015.44 -2.96297 -0.450352 0
M  V30 10518 H 1013 -1.616 -0.0984376 0
M  V30 10519 H 1014.99 -2.7466 -2.97227 0
M  V30 10520 H 1013.56 -1.75721 -2.58536 0
M  V30 10521 H 1012.78 -3.77532 -1.13417 0
M  V30 10522 H 1014.07 -4.71777 -1.90537 0
M  V30 10523 H 1013.46 -3.1706 -4.68497 0
M  V30 10524 H 1012.02 -3.96511 -5.17322 0
M  V30 10525 N 1015.45 0.186762 -1.56489 0
M  V30 10526 C 1016.4 1.23141 -1.95205 0
M  V30 10527 C 1017.37 1.44799 -0.81378 0
M  V30 10528 O 1018.56 1.57795 -1.07263 0
M  V30 10529 C 1015.7 2.56926 -2.30397 0
M  V30 10530 C 1014.81 2.42777 -3.57328 0
M  V30 10531 C 1013.94 3.69323 -3.81804 0
M  V30 10532 C 1012.98 3.50041 -5.02133 0
M  V30 10533 N 1012.12 4.68619 -5.2282 0
M  V30 10534 H 1016.96 0.894256 -2.84266 0
M  V30 10535 H 1014.5 0.430187 -1.40669 0
M  V30 10536 H 1016.46 3.3488 -2.4882 0
M  V30 10537 H 1015.09 2.88668 -1.44466 0
M  V30 10538 H 1014.14 1.56078 -3.46906 0
M  V30 10539 H 1015.45 2.24468 -4.45439 0
M  V30 10540 H 1014.6 4.55715 -4.00511 0
M  V30 10541 H 1013.34 3.90595 -2.92039 0
M  V30 10542 H 1012.35 2.62034 -4.8334 0
M  V30 10543 H 1013.57 3.30206 -5.93414 0
M  V30 10544 H 1011.52 4.90139 -4.36005 0
M  V30 10545 H 1011.44 4.53165 -6.05126 0
M  V30 10546 H 1012.7 5.56338 -5.45993 0
M  V30 10547 N 1016.93 1.50896 0.454776 0
M  V30 10548 C 1017.84 1.73762 1.5762 0
M  V30 10549 C 1018.86 0.621206 1.62533 0
M  V30 10550 O 1020.03 0.901449 1.801 0
M  V30 10551 C 1017.1 1.84183 2.9373 0
M  V30 10552 C 1016.16 3.07982 2.99075 0
M  V30 10553 C 1015.39 3.17896 4.28693 0
M  V30 10554 O 1015.62 2.34184 5.20109 0
M  V30 10555 O 1014.55 4.10749 4.39964 0
M  V30 10556 H 1018.38 2.68856 1.41245 0
M  V30 10557 H 1015.96 1.35187 0.635984 0
M  V30 10558 H 1017.84 1.93123 3.74542 0
M  V30 10559 H 1016.52 0.922742 3.10269 0
M  V30 10560 H 1015.43 3.04531 2.17282 0
M  V30 10561 H 1016.76 3.99523 2.87476 0
M  V30 10562 N 1018.41 -0.709066 1.40748 0
M  V30 10563 C 1019.64 -1.50313 1.42901 0
M  V30 10564 C 1020.06 -1.88072 0.032213 0
M  V30 10565 O 1019.42 -1.53716 -0.96131 0
M  V30 10566 C 1019.47 -2.75074 2.33166 0
M  V30 10567 O 1018.57 -3.72036 1.7794 0
M  V30 10568 H 1017.91 -0.452934 0.485538 0
M  V30 10569 H 1020.44 -0.872712 1.85054 0
M  V30 10570 H 1020.45 -3.23532 2.48578 0
M  V30 10571 H 1019.13 -2.46927 3.34664 0
M  V30 10572 H 1017.7 -3.30911 1.71908 0
M  V30 10573 N 1019.89 -1.26353 -0.941956 0
M  V30 10574 C 1020.84 -1.07654 -2.06188 0
M  V30 10575 C 1021.83 -0.00369741 -1.694 0
M  V30 10576 O 1023.04 -0.160316 -1.79285 0
M  V30 10577 H 1019.41 -0.331274 -0.675101 0
M  V30 10578 H 1021.38 -2.02566 -2.19111 0
M  V30 10579 C 1020.13 -0.725436 -3.40048 0
M  V30 10580 H 1019.46 -1.54283 -3.68832 0
M  V30 10581 H 1020.9 -0.634383 -4.19227 0
M  V30 10582 C 1019.35 0.569369 -3.32054 0
M  V30 10583 O 1019.88 1.60791 -3.68116 0
M  V30 10584 N 1018.09 0.559714 -2.85159 0
M  V30 10585 H 1017.64 -0.285817 -2.56009 0
M  V30 10586 H 1017.6 1.42617 -2.80193 0
M  V30 10587 N 1021.37 1.14642 -1.08144 0
M  V30 10588 C 1022.6 1.89209 -0.82966 0
M  V30 10589 C 1023.01 1.78697 0.621604 0
M  V30 10590 O 1022.35 1.14224 1.4387 0
M  V30 10591 C 1022.41 3.39958 -1.16915 0
M  V30 10592 C 1022.07 3.74254 -2.62264 0
M  V30 10593 C 1023.07 3.746 -3.60514 0
M  V30 10594 C 1020.76 4.04316 -2.9805 0
M  V30 10595 C 1022.75 4.04527 -4.92582 0
M  V30 10596 C 1020.44 4.33906 -4.30312 0
M  V30 10597 C 1021.44 4.33995 -5.27388 0
M  V30 10598 O 1021.12 4.62869 -6.57273 0
M  V30 10599 H 1020.86 0.606259 -0.299042 0
M  V30 10600 H 1023.41 1.46132 -1.44342 0
M  V30 10601 H 1021.64 3.83475 -0.498377 0
M  V30 10602 H 1023.33 3.95828 -0.89862 0
M  V30 10603 H 1024.09 3.51466 -3.34211 0
M  V30 10604 H 1019.97 4.03402 -2.23132 0
M  V30 10605 H 1023.52 4.04511 -5.68346 0
M  V30 10606 H 1019.41 4.5651 -4.56365 0
M  V30 10607 H 1020.18 4.80598 -6.62546 0
M  V30 10608 N 1022.85 0.866709 1.31628 0
M  V30 10609 C 1024.09 0.472185 1.96095 0
M  V30 10610 C 1024.41 -0.979873 1.69286 0
M  V30 10611 O 1025.61 -1.48039 2.27589 0
M  V30 10612 C 1024.07 0.793468 3.51044 0
M  V30 10613 C 1023.68 2.26206 3.86697 0
M  V30 10614 C 1025.42 0.467255 4.21921 0
M  V30 10615 C 1023.33 2.52593 5.34743 0
M  V30 10616 H 1022.26 0.172846 0.733921 0
M  V30 10617 H 1024.91 1.05916 1.49847 0
M  V30 10618 H 1023.29 0.135783 3.95767 0
M  V30 10619 H 1024.47 2.96254 3.52945 0
M  V30 10620 H 1022.78 2.55399 3.28877 0
M  V30 10621 H 1025.38 0.641669 5.30836 0
M  V30 10622 H 1025.72 -0.592065 4.12068 0
M  V30 10623 H 1026.25 1.08134 3.82821 0
M  V30 10624 H 1022.99 3.57196 5.49628 0
M  V30 10625 H 1022.51 1.87136 5.6986 0
M  V30 10626 H 1024.19 2.37156 6.01968 0
M  V30 10627 N 1024.32 -1.44642 0.625825 0
M  V30 10628 C 1025.74 -1.56925 0.290992 0
M  V30 10629 C 1025.94 -1.61424 -1.20601 0
M  V30 10630 O 1025 -1.55439 -1.98985 0
M  V30 10631 C 1026.31 -2.84343 0.978242 0
M  V30 10632 C 1027.86 -2.98047 0.955882 0
M  V30 10633 C 1028.33 -4.2826 1.62349 0
M  V30 10634 N 1029.82 -4.35062 1.58983 0
M  V30 10635 C 1030.56 -5.34524 2.07538 0
M  V30 10636 N 1030.05 -6.4042 2.6426 0
M  V30 10637 N 1031.85 -5.25998 1.98198 0
M  V30 10638 H 1024 -1.39965 1.59761 0
M  V30 10639 H 1026.26 -0.670368 0.670306 0
M  V30 10640 H 1025.97 -2.86985 2.03304 0
M  V30 10641 H 1025.84 -3.73699 0.512726 0
M  V30 10642 H 1028.23 -2.94961 -0.0904292 0
M  V30 10643 H 1028.31 -2.10053 1.45984 0
M  V30 10644 H 1027.95 -4.32105 2.66923 0
M  V30 10645 H 1027.88 -5.15102 1.09441 0
M  V30 10646 H 1030.37 -3.59147 1.17565 0
M  V30 10647 H 1030.69 -7.1259 2.99056 0
M  V30 10648 H 1029.03 -6.41121 2.68308 0
M  V30 10649 H 1032.22 -4.42178 1.5361 0
M  V30 10650 H 1032.4 -6.03359 2.3635 0
M  V30 10651 N 1025.8 -0.366053 -1.5329 0
M  V30 10652 C 1026.73 0.47211 -2.28677 0
M  V30 10653 C 1027.71 1.08353 -1.31125 0
M  V30 10654 O 1028.9 1.10069 -1.59995 0
M  V30 10655 C 1026.03 1.61174 -3.07637 0
M  V30 10656 C 1024.98 1.12755 -4.12881 0
M  V30 10657 C 1024.31 2.35745 -4.79925 0
M  V30 10658 C 1025.61 0.211954 -5.2187 0
M  V30 10659 H 1027.3 -0.156838 -2.98989 0
M  V30 10660 H 1024.85 -0.0768709 -1.43795 0
M  V30 10661 H 1026.8 2.20473 -3.59123 0
M  V30 10662 H 1025.52 2.26793 -2.35016 0
M  V30 10663 H 1024.18 0.557234 -3.6234 0
M  V30 10664 H 1023.83 2.99821 -4.03877 0
M  V30 10665 H 1023.53 2.04019 -5.51044 0
M  V30 10666 H 1025.06 2.95729 -5.34207 0
M  V30 10667 H 1026.47 0.71244 -5.68856 0
M  V30 10668 H 1024.87 -0.0144501 -6.00098 0
M  V30 10669 H 1025.94 -0.745753 -4.79131 0
M  V30 10670 N 1027.28 1.57312 -0.0952337 0
M  V30 10671 C 1028.23 2.14032 0.863657 0
M  V30 10672 C 1029.2 1.0589 1.27971 0
M  V30 10673 O 1030.38 1.33678 1.36143 0
M  V30 10674 C 1027.52 2.72513 2.11733 0
M  V30 10675 C 1026.63 3.94887 1.7518 0
M  V30 10676 C 1025.77 4.41533 2.95334 0
M  V30 10677 C 1024.81 5.56496 2.54908 0
M  V30 10678 N 1023.95 5.97993 3.67897 0
M  V30 10679 H 1028.79 2.95655 0.373115 0
M  V30 10680 H 1026.32 1.46085 0.172497 0
M  V30 10681 H 1028.28 3.04539 2.85153 0
M  V30 10682 H 1026.91 1.93618 2.58287 0
M  V30 10683 H 1025.96 3.69175 0.917279 0
M  V30 10684 H 1027.27 4.78322 1.41455 0
M  V30 10685 H 1026.43 4.75343 3.77007 0
M  V30 10686 H 1025.17 3.56999 3.3227 0
M  V30 10687 H 1024.17 5.22314 1.71662 0
M  V30 10688 H 1025.4 6.42779 2.19117 0
M  V30 10689 H 1023.34 5.16405 4.04551 0
M  V30 10690 H 1023.26 6.76225 3.38018 0
M  V30 10691 H 1024.53 6.36434 4.5008 0
M  V30 10692 N 1028.76 -0.17846 1.56586 0
M  V30 10693 C 1030.17 -0.529957 1.50544 0
M  V30 10694 C 1030.37 -1.85015 0.798237 0
M  V30 10695 O 1029.43 -2.49983 0.355639 0
M  V30 10696 C 1030.74 -0.569314 2.95261 0
M  V30 10697 C 1032.29 -0.657008 3.06027 0
M  V30 10698 C 1032.77 -0.727323 4.52188 0
M  V30 10699 N 1034.26 -0.790406 4.56406 0
M  V30 10700 C 1034.99 -0.865265 5.66834 0
M  V30 10701 N 1034.49 -0.901398 6.86911 0
M  V30 10702 N 1036.28 -0.903736 5.54787 0
M  V30 10703 H 1028.43 0.687304 2.00972 0
M  V30 10704 H 1030.69 0.246936 0.915274 0
M  V30 10705 H 1030.4 0.331934 3.5013 0
M  V30 10706 H 1030.27 -1.41828 3.4952 0
M  V30 10707 H 1032.66 -1.54868 2.51197 0
M  V30 10708 H 1032.74 0.218495 2.54865 0
M  V30 10709 H 1032.39 0.160067 5.07648 0
M  V30 10710 H 1032.32 -1.61887 5.01099 0
M  V30 10711 H 1034.81 -0.771054 3.6995 0
M  V30 10712 H 1035.12 -0.959494 7.6682 0
M  V30 10713 H 1033.47 -0.869795 6.89536 0
M  V30 10714 H 1036.66 -0.872459 4.59898 0
M  V30 10715 H 1036.83 -0.958615 6.4087 0
M  V30 10716 N 1030.24 -1.51135 -0.446768 0
M  V30 10717 C 1031.2 -1.71187 -1.52406 0
M  V30 10718 C 1032.2 -0.582037 -1.49897 0
M  V30 10719 O 1033.39 -0.849452 -1.52085 0
M  V30 10720 C 1030.52 -1.75962 -2.91976 0
M  V30 10721 H 1031.71 -2.67324 -1.35934 0
M  V30 10722 H 1029.27 -1.40982 -0.674813 0
M  V30 10723 H 1030 -0.816065 -3.13864 0
M  V30 10724 H 1029.79 -2.58065 -2.95203 0
M  V30 10725 H 1031.28 -1.93347 -3.70144 0
M  V30 10726 N 1031.71 0.701592 -1.41122 0
M  V30 10727 C 1032.66 1.81559 -1.42495 0
M  V30 10728 C 1033.63 1.63722 -0.280078 0
M  V30 10729 O 1034.82 1.84658 -0.480231 0
M  V30 10730 C 1031.96 3.19392 -1.30702 0
M  V30 10731 C 1031.07 3.48704 -2.55009 0
M  V30 10732 C 1030.2 4.76118 -2.35554 0
M  V30 10733 C 1029.24 4.98378 -3.55367 0
M  V30 10734 N 1028.38 6.17014 -3.3502 0
M  V30 10735 H 1033.22 1.7972 -2.37707 0
M  V30 10736 H 1030.76 0.877727 -1.18044 0
M  V30 10737 H 1032.71 3.99004 -1.21867 0
M  V30 10738 H 1031.34 3.20423 -0.391012 0
M  V30 10739 H 1030.4 2.63542 -2.74317 0
M  V30 10740 H 1031.71 3.61057 -3.44151 0
M  V30 10741 H 1030.86 5.63774 -2.24152 0
M  V30 10742 H 1029.6 4.66 -1.43859 0
M  V30 10743 H 1028.61 4.09172 -3.6723 0
M  V30 10744 H 1029.83 5.10359 -4.48007 0
M  V30 10745 H 1027.78 6.0812 -2.4602 0
M  V30 10746 H 1027.69 6.30107 -4.17733 0
M  V30 10747 H 1028.96 7.0742 -3.27379 0
M  V30 10748 N 1033.19 1.2685 0.935242 0
M  V30 10749 C 1034.12 1.03244 2.03509 0
M  V30 10750 C 1035.1 -0.0447323 1.62538 0
M  V30 10751 O 1036.29 0.0988905 1.8824 0
M  V30 10752 C 1033.41 0.564626 3.33961 0
M  V30 10753 C 1032.46 1.63524 3.93906 0
M  V30 10754 S 1033.29 3.22577 4.27439 0
M  V30 10755 C 1034.45 2.77579 5.60982 0
M  V30 10756 H 1034.68 1.96367 2.2322 0
M  V30 10757 H 1032.21 1.10597 1.07739 0
M  V30 10758 H 1034.17 0.301388 4.09392 0
M  V30 10759 H 1032.83 -0.346419 3.12184 0
M  V30 10760 H 1032.03 1.25905 4.8802 0
M  V30 10761 H 1031.63 1.85017 3.25031 0
M  V30 10762 H 1033.92 2.22412 6.39952 0
M  V30 10763 H 1034.86 3.70408 6.03493 0
M  V30 10764 H 1035.27 2.16956 5.21143 0
M  V30 10765 N 1034.67 -1.14067 1.0875 0
M  V30 10766 C 1035.95 -1.81389 0.73195 0
M  V30 10767 C 1036.33 -1.96005 -0.78391 0
M  V30 10768 O 1035.68 -1.52267 -1.70373 0
M  V30 10769 C 1035.89 -3.16858 1.46294 0
M  V30 10770 C 1037.23 -3.92305 1.62426 0
M  V30 10771 O 1038.26 -3.26459 1.42488 0
M  V30 10772 O 1037.12 -5.10393 1.9535 0
M  V30 10773 H 1034.21 -0.784354 0.262141 0
M  V30 10774 H 1036.76 -1.21054 1.18929 0
M  V30 10775 H 1035.53 -3.01404 2.49542 0
M  V30 10776 H 1035.15 -3.84889 0.997318 0
M  V30 10777 N 1036.15 -0.873678 -1.31166 0
M  V30 10778 C 1037.1 -0.330288 -2.28424 0
M  V30 10779 C 1038.07 0.573299 -1.55893 0
M  V30 10780 O 1039.25 0.504143 -1.84019 0
M  V30 10781 C 1036.39 0.459004 -3.42034 0
M  V30 10782 C 1035.5 -0.472519 -4.29408 0
M  V30 10783 C 1034.64 0.331261 -5.30166 0
M  V30 10784 C 1033.68 -0.596453 -6.09187 0
M  V30 10785 N 1032.81 0.171305 -7.01891 0
M  V30 10786 H 1037.65 -1.16485 -2.7429 0
M  V30 10787 H 1035.19 -0.585813 -1.34932 0
M  V30 10788 H 1037.15 0.932432 -4.06647 0
M  V30 10789 H 1035.78 1.25824 -2.97268 0
M  V30 10790 H 1034.83 -1.06441 -3.65205 0
M  V30 10791 H 1036.14 -1.18372 -4.84551 0
M  V30 10792 H 1035.3 0.867038 -6.00473 0
M  V30 10793 H 1034.04 1.07573 -4.75688 0
M  V30 10794 H 1033.04 -1.14395 -5.37767 0
M  V30 10795 H 1034.27 -1.33983 -6.65752 0
M  V30 10796 H 1032.21 0.89852 -6.49817 0
M  V30 10797 H 1032.13 -0.480481 -7.54472 0
M  V30 10798 H 1033.4 0.688192 -7.76456 0
M  V30 10799 N 1037.63 1.44308 -0.633487 0
M  V30 10800 C 1038.85 2.06897 -0.144347 0
M  V30 10801 C 1039.28 1.47045 1.173 0
M  V30 10802 O 1038.63 0.572806 1.72013 0
M  V30 10803 C 1038.68 3.60571 -0.0456324 0
M  V30 10804 O 1037.79 4.0015 0.997682 0
M  V30 10805 H 1037.13 0.658427 -0.0858499 0
M  V30 10806 H 1039.66 1.85142 -0.870833 0
M  V30 10807 H 1039.67 4.07745 0.144178 0
M  V30 10808 H 1038.34 4.03515 -1.0074 0
M  V30 10809 H 1036.92 3.64603 0.782252 0
M  V30 10810 N 1039.1 0.374177 1.53094 0
M  V30 10811 C 1040.04 -0.511995 2.22382 0
M  V30 10812 C 1041.02 -1.07617 1.2189 0
M  V30 10813 O 1042.2 -1.13068 1.50824 0
M  V30 10814 C 1039.33 -1.70724 2.92525 0
M  V30 10815 C 1038.37 -1.26972 4.07161 0
M  V30 10816 S 1039.21 -0.263835 5.3485 0
M  V30 10817 C 1040.36 -1.46521 6.08508 0
M  V30 10818 H 1040.59 0.0764311 2.97202 0
M  V30 10819 H 1038.13 0.158307 1.53586 0
M  V30 10820 H 1040.09 -2.39279 3.3355 0
M  V30 10821 H 1038.75 -2.26693 2.17414 0
M  V30 10822 H 1037.94 -2.16172 4.55286 0
M  V30 10823 H 1037.54 -0.663273 3.68072 0
M  V30 10824 H 1039.83 -2.39483 6.33762 0
M  V30 10825 H 1040.78 -1.02517 7.0064 0
M  V30 10826 H 1041.18 -1.67516 5.39072 0
M  V30 10827 N 1040.58 -1.57259 0.103575 0
M  V30 10828 C 1041.83 -1.94657 -0.558126 0
M  V30 10829 C 1042.16 -0.985886 -1.67662 0
M  V30 10830 O 1041.41 -0.0069745 -1.95699 0
M  V30 10831 C 1041.71 -3.38549 -1.14538 0
M  V30 10832 C 1041.38 -4.50651 -0.149818 0
M  V30 10833 C 1040.04 -4.8104 0.12398 0
M  V30 10834 C 1042.39 -5.18503 0.529497 0
M  V30 10835 C 1039.72 -5.76606 1.08364 0
M  V30 10836 C 1042.07 -6.15099 1.47769 0
M  V30 10837 C 1040.74 -6.43889 1.75963 0
M  V30 10838 H 1040.01 -0.712299 -0.204233 0
M  V30 10839 H 1042.65 -1.90641 0.181208 0
M  V30 10840 H 1040.96 -3.39185 -1.96115 0
M  V30 10841 H 1042.65 -3.6479 -1.66521 0
M  V30 10842 H 1039.24 -4.2697 -0.373404 0
M  V30 10843 H 1043.43 -4.95194 0.331121 0
M  V30 10844 H 1038.68 -5.97223 1.30899 0
M  V30 10845 H 1042.86 -6.66767 2.00983 0
M  V30 10846 H 1040.49 -7.17749 2.50481 0
M  V30 10847 N 1042.06 0.170153 -1.56679 0
M  V30 10848 C 1043.31 0.887906 -1.8233 0
M  V30 10849 C 1043.64 1.81845 -0.681608 0
M  V30 10850 O 1042.91 1.9191 0.316362 0
M  V30 10851 C 1043.2 1.68256 -3.18374 0
M  V30 10852 C 1043.05 0.775059 -4.43072 0
M  V30 10853 C 1044.37 2.65001 -3.51372 0
M  V30 10854 H 1041.49 0.32135 -0.663252 0
M  V30 10855 H 1044.13 0.154065 -1.89374 0
M  V30 10856 H 1042.28 2.30817 -3.12499 0
M  V30 10857 H 1043.95 0.162234 -4.61015 0
M  V30 10858 H 1042.2 0.0831809 -4.3372 0
M  V30 10859 H 1042.87 1.36661 -5.34816 0
M  V30 10860 H 1045.34 2.12566 -3.57708 0
M  V30 10861 H 1044.22 3.17667 -4.47637 0
M  V30 10862 H 1044.48 3.45255 -2.76136 0
M  V30 10863 N 1043.54 1.5137 0.438746 0
M  V30 10864 C 1044.49 1.72582 1.53245 0
M  V30 10865 C 1045.46 0.567488 1.56105 0
M  V30 10866 O 1046.64 0.80176 1.73137 0
M  V30 10867 C 1043.78 1.85551 2.90972 0
M  V30 10868 C 1042.89 3.13094 2.97652 0
M  V30 10869 C 1042.03 3.16666 4.26493 0
M  V30 10870 C 1041.07 4.38529 4.27035 0
M  V30 10871 N 1040.2 4.39659 5.47398 0
M  V30 10872 H 1045.04 2.65941 1.3446 0
M  V30 10873 H 1042.58 1.31801 0.653206 0
M  V30 10874 H 1044.54 1.91053 3.70884 0
M  V30 10875 H 1043.17 0.956025 3.08318 0
M  V30 10876 H 1042.22 3.16909 2.10412 0
M  V30 10877 H 1043.53 4.03009 2.93914 0
M  V30 10878 H 1042.69 3.21075 5.14777 0
M  V30 10879 H 1041.43 2.24637 4.32885 0
M  V30 10880 H 1040.43 4.34297 3.37144 0
M  V30 10881 H 1041.66 5.31821 4.22307 0
M  V30 10882 H 1039.6 3.50499 5.54514 0
M  V30 10883 H 1039.52 5.23382 5.45534 0
M  V30 10884 H 1040.79 4.48259 6.37718 0
M  V30 10885 N 1045.02 -0.694098 1.41492 0
M  V30 10886 C 1046.27 -1.4498 1.40227 0
M  V30 10887 C 1046.58 -1.95594 0.0151253 0
M  V30 10888 O 1047.78 -2.71234 -0.120146 0
M  V30 10889 C 1046.24 -2.62171 2.46565 0
M  V30 10890 C 1045.85 -2.18337 3.91194 0
M  V30 10891 C 1047.59 -3.39796 2.54439 0
M  V30 10892 C 1045.5 -3.32495 4.89082 0
M  V30 10893 H 1044.43 -0.544584 0.521483 0
M  V30 10894 H 1047.08 -0.75337 1.67322 0
M  V30 10895 H 1045.46 -3.34089 2.12604 0
M  V30 10896 H 1046.64 -1.53698 4.34412 0
M  V30 10897 H 1044.95 -1.53702 3.86994 0
M  V30 10898 H 1047.55 -4.2478 3.24755 0
M  V30 10899 H 1047.89 -3.85082 1.5817 0
M  V30 10900 H 1048.42 -2.74935 2.87499 0
M  V30 10901 H 1045.16 -2.92219 5.86761 0
M  V30 10902 H 1044.68 -3.95978 4.50512 0
M  V30 10903 H 1046.36 -3.98251 5.09907 0
M  V30 10904 N 1046.49 -1.27344 -0.928501 0
M  V30 10905 C 1047.44 -1.10001 -2.029 0
M  V30 10906 C 1048.41 -0.00131084 -1.661 0
M  V30 10907 O 1049.6 -0.163485 -1.90098 0
M  V30 10908 C 1046.74 -0.7524 -3.36798 0
M  V30 10909 C 1045.85 -1.92865 -3.86558 0
M  V30 10910 C 1044.98 -1.52299 -5.08899 0
M  V30 10911 C 1044.02 -2.66677 -5.50953 0
M  V30 10912 N 1043.16 -2.26706 -6.64491 0
M  V30 10913 H 1048 -2.0417 -2.17068 0
M  V30 10914 H 1045.54 -1.01637 -1.0634 0
M  V30 10915 H 1047.5 -0.531687 -4.13798 0
M  V30 10916 H 1046.13 0.15234 -3.2244 0
M  V30 10917 H 1045.18 -2.26192 -3.05845 0
M  V30 10918 H 1046.49 -2.78668 -4.13698 0
M  V30 10919 H 1045.64 -1.26348 -5.93398 0
M  V30 10920 H 1044.38 -0.636042 -4.83535 0
M  V30 10921 H 1043.39 -2.93344 -4.65004 0
M  V30 10922 H 1044.61 -3.55992 -5.78313 0
M  V30 10923 H 1042.56 -1.40462 -6.40786 0
M  V30 10924 H 1042.48 -3.06049 -6.91281 0
M  V30 10925 H 1043.74 -2.04 -7.52333 0
M  V30 10926 N 1047.97 1.13488 -1.09353 0
M  V30 10927 C 1049.2 1.88592 -0.850915 0
M  V30 10928 C 1049.62 1.79087 0.597761 0
M  V30 10929 O 1048.97 1.15695 1.41142 0
M  V30 10930 C 1049.02 3.38219 -1.27633 0
M  V30 10931 O 1048.74 3.47476 -2.66819 0
M  V30 10932 C 1050.25 4.30293 -1.06598 0
M  V30 10933 H 1047.47 0.597069 -0.306185 0
M  V30 10934 H 1050.01 1.43668 -1.45533 0
M  V30 10935 H 1048.16 3.80729 -0.715828 0
M  V30 10936 H 1048.58 4.40485 -2.84733 0
M  V30 10937 H 1050.05 5.33611 -1.41293 0
M  V30 10938 H 1050.53 4.392 -0.0037135 0
M  V30 10939 H 1051.14 3.9355 -1.6124 0
M  V30 10940 N 1049.45 0.880621 1.30701 0
M  V30 10941 C 1050.38 0.360251 2.30704 0
M  V30 10942 C 1051.36 -0.554572 1.60806 0
M  V30 10943 O 1052.55 -0.469345 1.88443 0
M  V30 10944 C 1049.68 -0.429888 3.44629 0
M  V30 10945 C 1048.63 0.392786 4.26194 0
M  V30 10946 C 1047.96 -0.52369 5.32129 0
M  V30 10947 C 1049.26 1.63258 4.96129 0
M  V30 10948 H 1050.95 1.19591 2.74478 0
M  V30 10949 H 1048.5 0.576508 1.31956 0
M  V30 10950 H 1050.45 -0.804532 4.13649 0
M  V30 10951 H 1049.17 -1.29916 2.99649 0
M  V30 10952 H 1047.83 0.749514 3.58856 0
M  V30 10953 H 1047.48 -1.39054 4.83397 0
M  V30 10954 H 1047.18 0.0229272 5.87596 0
M  V30 10955 H 1048.71 -0.894946 6.04006 0
M  V30 10956 H 1050.12 1.32877 5.57689 0
M  V30 10957 H 1048.52 2.11906 5.61441 0
M  V30 10958 H 1049.59 2.37944 4.22505 0
M  V30 10959 N 1050.93 -1.4397 0.641131 0
M  V30 10960 C 1052.18 -2.01548 0.149333 0
M  V30 10961 C 1052.5 -1.50759 -1.23679 0
M  V30 10962 O 1051.77 -0.715257 -1.82376 0
M  V30 10963 H 1050.35 -0.745173 0.0522161 0
M  V30 10964 H 1053.01 -1.7634 0.830082 0
M  V30 10965 H 1052.11 -3.11851 0.124676 0
M  V30 10966 N 1052.41 -0.382291 -1.52893 0
M  V30 10967 C 1053.66 0.203342 -2.00672 0
M  V30 10968 C 1053.97 1.48487 -1.27322 0
M  V30 10969 O 1055.18 2.15013 -1.65776 0
M  V30 10970 C 1053.63 0.412922 -3.57523 0
M  V30 10971 C 1053.24 -0.854949 -4.39767 0
M  V30 10972 C 1054.98 0.955301 -4.13611 0
M  V30 10973 C 1052.89 -0.614033 -5.88204 0
M  V30 10974 H 1051.82 0.0797635 -0.749769 0
M  V30 10975 H 1054.47 -0.50361 -1.76454 0
M  V30 10976 H 1052.85 1.18155 -3.77962 0
M  V30 10977 H 1054.03 -1.62765 -4.31096 0
M  V30 10978 H 1052.34 -1.32176 -3.94865 0
M  V30 10979 H 1054.94 1.15114 -5.22162 0
M  V30 10980 H 1055.28 1.92233 -3.69259 0
M  V30 10981 H 1055.82 0.24642 -3.97036 0
M  V30 10982 H 1052.55 -1.55187 -6.36865 0
M  V30 10983 H 1052.07 0.119865 -5.9968 0
M  V30 10984 H 1053.75 -0.245895 -6.46533 0
M  V30 10985 N 1053.89 1.57202 -0.111913 0
M  V30 10986 C 1055.13 1.94565 0.546713 0
M  V30 10987 C 1055.45 0.995644 1.67666 0
M  V30 10988 O 1054.72 0.0506681 1.95834 0
M  V30 10989 H 1053.3 0.718334 0.204951 0
M  V30 10990 H 1055.97 1.94074 -0.179193 0
M  V30 10991 H 1055.06 2.9742 0.945931 0
M  V30 10992 N 1055.36 -0.161842 1.56767 0
M  V30 10993 C 1056.33 -1.18404 1.96247 0
M  V30 10994 C 1057.33 -1.3667 0.84722 0
M  V30 10995 O 1058.52 -1.33915 1.11411 0
M  V30 10996 C 1055.65 -2.54728 2.26553 0
M  V30 10997 H 1056.84 -0.845703 2.87729 0
M  V30 10998 H 1054.39 -0.404645 1.50971 0
M  V30 10999 H 1055.13 -2.93559 1.37816 0
M  V30 11000 H 1054.91 -2.42834 3.07854 0
M  V30 11001 H 1056.4 -3.28378 2.57987 0
M  V30 11002 N 1056.84 -1.516 -0.430713 0
M  V30 11003 C 1058.09 -1.64596 -1.17959 0
M  V30 11004 C 1058.42 -0.365382 -1.91037 0
M  V30 11005 O 1057.67 0.650826 -1.84561 0
M  V30 11006 C 1057.97 -2.804 -2.21609 0
M  V30 11007 C 1057.64 -4.19431 -1.65495 0
M  V30 11008 C 1056.3 -4.57252 -1.49915 0
M  V30 11009 C 1058.65 -5.0616 -1.24304 0
M  V30 11010 C 1055.98 -5.79501 -0.916276 0
M  V30 11011 C 1058.33 -6.28995 -0.674437 0
M  V30 11012 C 1056.99 -6.65582 -0.505591 0
M  V30 11013 H 1056.26 -0.602301 -0.431642 0
M  V30 11014 H 1058.91 -1.8565 -0.469726 0
M  V30 11015 H 1057.22 -2.53595 -2.98658 0
M  V30 11016 H 1058.91 -2.87654 -2.79385 0
M  V30 11017 H 1055.5 -3.89615 -1.78599 0
M  V30 11018 H 1059.69 -4.77541 -1.35159 0
M  V30 11019 H 1054.94 -6.0649 -0.77328 0
M  V30 11020 H 1059.12 -6.95536 -0.346779 0
M  V30 11021 H 1056.74 -7.60182 -0.0518188 0
M  V30 11022 N 1058.32 0.686584 -1.41858 0
M  V30 11023 C 1059.57 1.44379 -1.41418 0
M  V30 11024 C 1059.89 1.94981 -0.0273696 0
M  V30 11025 O 1059.16 1.72296 0.932248 0
M  V30 11026 H 1057.74 0.53574 -0.520568 0
M  V30 11027 H 1060.4 0.812056 -1.77177 0
M  V30 11028 H 1059.5 2.30258 -2.10684 0
M  V30 11029 N 1059.8 1.27835 0.921735 0
M  V30 11030 C 1060.71 1.12904 2.05645 0
M  V30 11031 C 1061.72 0.0575704 1.73905 0
M  V30 11032 O 1062.9 0.265261 1.99645 0
M  V30 11033 C 1059.96 0.783957 3.3772 0
M  V30 11034 C 1059.03 1.93694 3.8312 0
M  V30 11035 C 1058.26 1.60823 5.08893 0
M  V30 11036 O 1058.48 0.518873 5.68035 0
M  V30 11037 O 1057.42 2.44932 5.49811 0
M  V30 11038 H 1061.24 2.08143 2.21157 0
M  V30 11039 H 1058.83 1.07078 1.04185 0
M  V30 11040 H 1060.71 0.605107 4.17033 0
M  V30 11041 H 1059.38 -0.138849 3.23402 0
M  V30 11042 H 1058.29 2.17089 3.04669 0
M  V30 11043 H 1059.62 2.84016 4.0199 0
M  V30 11044 N 1061.28 -1.12907 1.09954 0
M  V30 11045 C 1062.52 -1.84579 0.840155 0
M  V30 11046 C 1062.85 -1.83605 -0.632692 0
M  V30 11047 O 1062.13 -1.27803 -1.46617 0
M  V30 11048 C 1062.41 -3.32489 1.38286 0
M  V30 11049 C 1062.27 -3.41946 2.92221 0
M  V30 11050 C 1063.58 -4.28091 1.0211 0
M  V30 11051 H 1060.7 -0.670169 0.306663 0
M  V30 11052 H 1063.35 -1.3249 1.36185 0
M  V30 11053 H 1061.5 -3.76978 0.939123 0
M  V30 11054 H 1063.17 -3.06128 3.45085 0
M  V30 11055 H 1061.41 -2.8265 3.29077 0
M  V30 11056 H 1062.08 -4.45983 3.25274 0
M  V30 11057 H 1064.56 -3.91701 1.4039 0
M  V30 11058 H 1063.43 -5.30005 1.42781 0
M  V30 11059 H 1063.69 -4.42044 -0.0700753 0
M  V30 11060 N 1062.75 -0.88754 -1.30232 0
M  V30 11061 C 1063.99 -0.514017 -1.97831 0
M  V30 11062 C 1064.36 0.920151 -1.68515 0
M  V30 11063 O 1065.56 1.39993 -2.29468 0
M  V30 11064 C 1063.83 -0.784155 -3.48692 0
M  V30 11065 S 1065.39 -0.513119 -4.3579 0
M  V30 11066 H 1062.21 -0.191157 -0.684821 0
M  V30 11067 H 1064.81 -1.14736 -1.58291 0
M  V30 11068 H 1063.51 -1.82639 -3.6752 0
M  V30 11069 H 1063.04 -0.138468 -3.93156 0
M  V30 11070 H 1065.06 0.647155 -4.91962 0
M  V30 11071 N 1064.23 1.43628 -0.648757 0
M  V30 11072 C 1065.16 2.33478 0.0320785 0
M  V30 11073 C 1066.14 1.49217 0.816605 0
M  V30 11074 O 1067.33 1.77892 0.778974 0
M  V30 11075 C 1064.46 3.32525 1.00222 0
M  V30 11076 C 1063.41 4.2674 0.328119 0
M  V30 11077 C 1062.74 5.15791 1.4094 0
M  V30 11078 C 1064.04 5.16493 -0.776701 0
M  V30 11079 H 1065.73 2.90657 -0.718257 0
M  V30 11080 H 1063.28 1.3976 -0.346852 0
M  V30 11081 H 1065.23 3.94277 1.4874 0
M  V30 11082 H 1063.96 2.73593 1.78366 0
M  V30 11083 H 1062.61 3.66346 -0.136569 0
M  V30 11084 H 1062.26 4.53201 2.18216 0
M  V30 11085 H 1061.96 5.79645 0.963631 0
M  V30 11086 H 1063.49 5.80416 1.89603 0
M  V30 11087 H 1064.9 5.7208 -0.373878 0
M  V30 11088 H 1063.3 5.89043 -1.14667 0
M  V30 11089 H 1064.37 4.56448 -1.63654 0
M  V30 11090 N 1065.71 0.390394 1.52688 0
M  V30 11091 C 1066.67 -0.432149 2.25089 0
M  V30 11092 C 1067.67 -0.989296 1.26766 0
M  V30 11093 O 1068.86 -0.871126 1.50854 0
M  V30 11094 C 1066 -1.60642 3.00678 0
M  V30 11095 H 1067.19 0.201734 2.99221 0
M  V30 11096 H 1064.74 0.142531 1.55649 0
M  V30 11097 H 1065.48 -2.2777 2.3085 0
M  V30 11098 H 1065.26 -1.21361 3.72846 0
M  V30 11099 H 1066.75 -2.18873 3.55647 0
M  V30 11100 N 1067.19 -1.57141 0.120249 0
M  V30 11101 C 1068.6 -1.5784 -0.236335 0
M  V30 11102 C 1068.8 -1.13304 -1.66626 0
M  V30 11103 O 1067.86 -0.821004 -2.3878 0
M  V30 11104 C 1069.17 -3.007 -0.00188211 0
M  V30 11105 C 1070.72 -3.12927 -0.0676838 0
M  V30 11106 C 1071.2 -4.57789 0.139092 0
M  V30 11107 N 1072.69 -4.63122 0.085104 0
M  V30 11108 C 1073.42 -5.72978 0.219983 0
M  V30 11109 N 1072.92 -6.91579 0.411102 0
M  V30 11110 N 1074.71 -5.61874 0.159469 0
M  V30 11111 H 1066.86 -1.84391 1.05422 0
M  V30 11112 H 1069.13 -0.852228 0.415225 0
M  V30 11113 H 1068.83 -3.37575 0.986718 0
M  V30 11114 H 1068.71 -3.70005 -0.733203 0
M  V30 11115 H 1071.09 -2.75909 -1.04681 0
M  V30 11116 H 1071.17 -2.46162 0.695538 0
M  V30 11117 H 1070.82 -4.95506 1.1152 0
M  V30 11118 H 1070.75 -5.22646 -0.644131 0
M  V30 11119 H 1073.24 -3.77854 -0.0590479 0
M  V30 11120 H 1073.55 -7.71149 0.504851 0
M  V30 11121 H 1071.9 -6.9356 0.447091 0
M  V30 11122 H 1075.09 -4.68099 0.0111131 0
M  V30 11123 H 1075.26 -6.47445 0.268028 0
M  V30 11124 N 1068.67 0.153526 -1.5685 0
M  V30 11125 C 1069.61 1.18973 -1.97773 0
M  V30 11126 C 1070.58 1.43041 -0.844311 0
M  V30 11127 O 1071.77 1.55484 -1.10586 0
M  V30 11128 C 1068.91 2.51981 -2.35795 0
M  V30 11129 C 1068.02 2.35143 -3.62397 0
M  V30 11130 C 1067.16 3.61141 -3.89552 0
M  V30 11131 C 1066.2 3.39311 -5.09445 0
M  V30 11132 N 1065.33 4.57423 -5.32643 0
M  V30 11133 H 1070.17 0.833758 -2.86099 0
M  V30 11134 H 1067.71 0.400252 -1.4155 0
M  V30 11135 H 1069.67 3.29527 -2.55867 0
M  V30 11136 H 1068.3 2.85539 -1.50557 0
M  V30 11137 H 1067.35 1.48684 -3.50139 0
M  V30 11138 H 1068.66 2.14969 -4.501 0
M  V30 11139 H 1067.82 4.47117 -4.10087 0
M  V30 11140 H 1066.55 3.84312 -3.00259 0
M  V30 11141 H 1065.56 2.51723 -4.8879 0
M  V30 11142 H 1066.78 3.17545 -6.00285 0
M  V30 11143 H 1064.73 4.8078 -4.46303 0
M  V30 11144 H 1064.65 4.40228 -6.14602 0
M  V30 11145 H 1065.92 5.44632 -5.57671 0
M  V30 11146 N 1070.14 1.51827 0.422667 0
M  V30 11147 C 1071.39 1.65464 1.17258 0
M  V30 11148 C 1071.72 0.376834 1.90509 0
M  V30 11149 O 1071 -0.624219 1.84211 0
M  V30 11150 C 1071.28 2.86776 2.17788 0
M  V30 11151 C 1071.13 4.24571 1.48523 0
M  V30 11152 C 1072.45 3.03603 3.18611 0
M  V30 11153 H 1069.57 0.602169 0.424925 0
M  V30 11154 H 1072.21 1.84349 0.45996 0
M  V30 11155 H 1070.36 2.70806 2.78561 0
M  V30 11156 H 1072.04 4.5224 0.909739 0
M  V30 11157 H 1070.28 4.26595 0.787354 0
M  V30 11158 H 1070.95 5.05475 2.2181 0
M  V30 11159 H 1073.43 3.18381 2.67904 0
M  V30 11160 H 1072.3 3.90022 3.8623 0
M  V30 11161 H 1072.56 2.16318 3.85563 0
M  V30 11162 N 1071.62 -0.679052 1.4222 0
M  V30 11163 C 1072.9 -1.43473 1.32947 0
M  V30 11164 C 1073.28 -2.11071 -0.0351689 0
M  V30 11165 O 1072.63 -2.02925 -1.05042 0
M  V30 11166 C 1072.84 -2.44065 2.49466 0
M  V30 11167 C 1074.19 -3.08834 2.91387 0
M  V30 11168 O 1075.21 -2.54392 2.49325 0
M  V30 11169 O 1074.07 -4.07478 3.64175 0
M  V30 11170 H 1071.16 -0.639743 0.524078 0
M  V30 11171 H 1073.71 -0.708134 1.54219 0
M  V30 11172 H 1072.48 -1.92884 3.40457 0
M  V30 11173 H 1072.1 -3.24212 2.30158 0
M  V30 11174 N 1073.1 -1.28322 -0.914942 0
M  V30 11175 C 1074.33 -1.18254 -1.69775 0
M  V30 11176 C 1074.74 0.258978 -1.87015 0
M  V30 11177 O 1074.1 1.17514 -1.3963 0
M  V30 11178 C 1074.15 -1.8753 -3.09054 0
M  V30 11179 O 1073.87 -3.26051 -2.92613 0
M  V30 11180 C 1075.37 -1.83749 -4.03424 0
M  V30 11181 H 1072.59 -0.41055 -0.530744 0
M  V30 11182 H 1075.14 -1.69425 -1.14523 0
M  V30 11183 H 1073.29 -1.40233 -3.61128 0
M  V30 11184 H 1073.71 -3.60729 -3.80756 0
M  V30 11185 H 1075.18 -2.36813 -4.98622 0
M  V30 11186 H 1075.66 -0.809601 -4.31674 0
M  V30 11187 H 1076.26 -2.3072 -3.57279 0
M  V30 11188 N 1074.58 1.12322 -1.10551 0
M  V30 11189 C 1075.53 2.18087 -0.755424 0
M  V30 11190 C 1076.5 1.6391 0.268805 0
M  V30 11191 O 1077.68 1.90227 0.147813 0
M  V30 11192 C 1074.82 3.4455 -0.194713 0
M  V30 11193 C 1073.93 4.12775 -1.27439 0
M  V30 11194 C 1073.07 5.26891 -0.675194 0
M  V30 11195 C 1072.11 5.86985 -1.73536 0
M  V30 11196 N 1071.24 6.92512 -1.15635 0
M  V30 11197 H 1076.08 2.47379 -1.66155 0
M  V30 11198 H 1073.62 1.21452 -0.829924 0
M  V30 11199 H 1075.58 4.16936 0.148275 0
M  V30 11200 H 1074.21 3.15671 0.674638 0
M  V30 11201 H 1073.26 3.38556 -1.73448 0
M  V30 11202 H 1074.57 4.53506 -2.07687 0
M  V30 11203 H 1073.73 6.06046 -0.281723 0
M  V30 11204 H 1072.47 4.87442 0.158708 0
M  V30 11205 H 1071.47 5.06517 -2.13825 0
M  V30 11206 H 1072.7 6.28505 -2.57213 0
M  V30 11207 H 1070.64 6.55098 -0.343928 0
M  V30 11208 H 1070.56 7.31848 -1.89565 0
M  V30 11209 H 1071.83 7.75492 -0.789463 0
M  V30 11210 N 1076.06 0.894434 1.2976 0
M  V30 11211 C 1077.02 0.373094 2.26143 0
M  V30 11212 C 1078.02 -0.489756 1.5316 0
M  V30 11213 O 1079.21 -0.29556 1.71674 0
M  V30 11214 C 1076.34 -0.467234 3.37683 0
M  V30 11215 H 1077.53 1.22427 2.73773 0
M  V30 11216 H 1075.09 0.672112 1.41111 0
M  V30 11217 H 1075.82 -1.33861 2.95384 0
M  V30 11218 H 1075.61 0.150954 3.91809 0
M  V30 11219 H 1077.1 -0.823469 4.094 0
M  V30 11220 N 1077.53 -1.43282 0.656365 0
M  V30 11221 C 1078.46 -2.33492 -0.0196962 0
M  V30 11222 C 1079.45 -1.49647 -0.80868 0
M  V30 11223 O 1080.63 -1.78303 -0.769529 0
M  V30 11224 C 1077.76 -3.33052 -0.984574 0
M  V30 11225 C 1076.71 -4.26908 -0.305483 0
M  V30 11226 C 1076.04 -5.16531 -1.38202 0
M  V30 11227 C 1077.34 -5.16073 0.804081 0
M  V30 11228 H 1079.03 -2.90272 0.733661 0
M  V30 11229 H 1076.58 -1.39574 0.354259 0
M  V30 11230 H 1078.53 -3.9506 -1.46647 0
M  V30 11231 H 1077.26 -2.74535 -1.76913 0
M  V30 11232 H 1075.92 -3.66268 0.155995 0
M  V30 11233 H 1075.56 -4.54351 -2.1581 0
M  V30 11234 H 1075.26 -5.80148 -0.932878 0
M  V30 11235 H 1076.79 -5.81414 -1.86522 0
M  V30 11236 H 1078.2 -5.71873 0.404212 0
M  V30 11237 H 1076.6 -5.88427 1.17789 0
M  V30 11238 H 1077.67 -4.55574 1.66073 0
M  V30 11239 N 1079.01 -0.398486 -1.52479 0
M  V30 11240 C 1080.24 0.180295 -2.05812 0
M  V30 11241 C 1080.65 1.40301 -1.26934 0
M  V30 11242 O 1079.99 1.81039 -0.311544 0
M  V30 11243 C 1080.06 0.60601 -3.54355 0
M  V30 11244 C 1079.72 -0.504508 -4.54207 0
M  V30 11245 C 1080.72 -1.36478 -5.01667 0
M  V30 11246 C 1078.4 -0.674161 -4.97755 0
M  V30 11247 C 1080.4 -2.37975 -5.91309 0
M  V30 11248 C 1078.08 -1.69246 -5.87196 0
M  V30 11249 C 1079.08 -2.54367 -6.33866 0
M  V30 11250 O 1078.77 -3.54454 -7.21538 0
M  V30 11251 H 1078.5 0.0286396 -0.675393 0
M  V30 11252 H 1081.06 -0.564912 -1.97479 0
M  V30 11253 H 1079.29 1.40334 -3.60338 0
M  V30 11254 H 1080.97 1.1115 -3.90385 0
M  V30 11255 H 1081.74 -1.24506 -4.68746 0
M  V30 11256 H 1077.62 -0.0213029 -4.60995 0
M  V30 11257 H 1081.16 -3.0445 -6.27659 0
M  V30 11258 H 1077.06 -1.81252 -6.1953 0
M  V30 11259 H 1077.83 -3.50571 -7.39623 0
M  V30 11260 N 1080.49 1.57075 -0.12858 0
M  V30 11261 C 1081.45 2.14643 0.803813 0
M  V30 11262 C 1082.45 1.08363 1.18803 0
M  V30 11263 O 1083.64 1.34093 1.11197 0
M  V30 11264 C 1080.78 2.6945 2.08829 0
M  V30 11265 H 1081.97 2.98362 0.303347 0
M  V30 11266 H 1079.52 1.55833 0.120735 0
M  V30 11267 H 1080.26 1.89345 2.63285 0
M  V30 11268 H 1080.04 3.47187 1.82218 0
M  V30 11269 H 1081.53 3.13865 2.7546 0
M  V30 11270 N 1081.97 -0.145205 1.5693 0
M  V30 11271 C 1083.2 -0.872398 1.87608 0
M  V30 11272 C 1083.61 -1.74657 0.716975 0
M  V30 11273 O 1082.97 -1.79792 -0.3132 0
M  V30 11274 C 1083.02 -1.72762 3.17546 0
M  V30 11275 O 1082.74 -0.888681 4.28992 0
M  V30 11276 C 1084.24 -2.56224 3.61751 0
M  V30 11277 H 1081.46 -0.252166 0.621815 0
M  V30 11278 H 1084.01 -0.137456 2.04038 0
M  V30 11279 H 1082.16 -2.41561 3.02865 0
M  V30 11280 H 1082.58 -1.47601 5.03303 0
M  V30 11281 H 1084.05 -3.11804 4.55502 0
M  V30 11282 H 1084.53 -3.32347 2.87127 0
M  V30 11283 H 1085.13 -1.92714 3.79133 0
M  V30 11284 N 1083.45 -1.52049 -0.414609 0
M  V30 11285 C 1084.39 -1.74998 -1.5048 0
M  V30 11286 C 1085.36 -0.592251 -1.55182 0
M  V30 11287 O 1086.55 -0.829203 -1.7184 0
M  V30 11288 C 1083.69 -1.90157 -2.87983 0
M  V30 11289 C 1082.8 -3.17789 -2.92633 0
M  V30 11290 C 1081.94 -3.23411 -4.21401 0
M  V30 11291 C 1080.98 -4.45267 -4.20004 0
M  V30 11292 N 1080.11 -4.48312 -5.40334 0
M  V30 11293 H 1084.95 -2.68046 -1.30212 0
M  V30 11294 H 1082.49 -1.32824 -0.632154 0
M  V30 11295 H 1084.45 -1.96929 -3.67797 0
M  V30 11296 H 1083.08 -1.00496 -3.06758 0
M  V30 11297 H 1082.13 -3.20216 -2.05343 0
M  V30 11298 H 1083.44 -4.07634 -2.87465 0
M  V30 11299 H 1082.6 -3.29224 -5.09604 0
M  V30 11300 H 1081.34 -2.31495 -4.29257 0
M  V30 11301 H 1080.34 -4.39606 -3.30192 0
M  V30 11302 H 1081.57 -5.38472 -4.13793 0
M  V30 11303 H 1079.51 -3.59277 -5.48868 0
M  V30 11304 H 1079.43 -5.31994 -5.37139 0
M  V30 11305 H 1080.7 -4.58347 -6.30506 0
M  V30 11306 N 1084.93 0.6715 -1.42579 0
M  V30 11307 C 1086.15 1.45972 -1.46628 0
M  V30 11308 C 1086.57 1.88636 -0.0785986 0
M  V30 11309 O 1085.93 1.58345 0.907372 0
M  V30 11310 C 1085.98 2.70668 -2.39627 0
M  V30 11311 O 1085.7 2.29793 -3.72997 0
M  V30 11312 C 1087.2 3.64201 -2.52731 0
M  V30 11313 H 1084.42 0.449044 -0.498598 0
M  V30 11314 H 1086.96 0.824811 -1.87129 0
M  V30 11315 H 1085.12 3.3034 -2.02371 0
M  V30 11316 H 1085.53 3.10341 -4.22834 0
M  V30 11317 H 1087.01 4.48412 -3.21918 0
M  V30 11318 H 1087.48 4.10323 -1.56626 0
M  V30 11319 H 1088.09 3.1042 -2.90722 0
M  V30 11320 N 1086.4 1.28806 0.908124 0
M  V30 11321 C 1087.33 1.15758 2.02787 0
M  V30 11322 C 1088.31 0.053911 1.70015 0
M  V30 11323 O 1089.5 0.231901 1.9281 0
M  V30 11324 C 1086.63 0.824526 3.37371 0
M  V30 11325 C 1085.58 1.88359 3.84324 0
M  V30 11326 C 1084.91 1.40404 5.15937 0
M  V30 11327 C 1086.21 3.29108 4.05568 0
M  V30 11328 H 1087.9 2.09431 2.13961 0
M  V30 11329 H 1085.45 1.00831 1.02806 0
M  V30 11330 H 1087.4 0.71999 4.15204 0
M  V30 11331 H 1086.13 -0.147902 3.26265 0
M  V30 11332 H 1084.79 1.97736 3.087 0
M  V30 11333 H 1084.43 0.420515 5.01239 0
M  V30 11334 H 1084.13 2.11224 5.48323 0
M  V30 11335 H 1085.66 1.31283 5.9632 0
M  V30 11336 H 1087.07 3.2262 4.73909 0
M  V30 11337 H 1085.47 3.97812 4.49294 0
M  V30 11338 H 1086.54 3.72709 3.10187 0
M  V30 11339 N 1087.88 -1.11734 1.11145 0
M  V30 11340 C 1089.3 -1.35412 0.844736 0
M  V30 11341 C 1089.5 -1.94347 -0.532111 0
M  V30 11342 O 1088.55 -2.17443 -1.28353 0
M  V30 11343 C 1089.87 -2.28869 1.95037 0
M  V30 11344 C 1091.41 -2.42442 1.97967 0
M  V30 11345 C 1091.89 -3.39219 3.07725 0
M  V30 11346 N 1093.38 -3.4678 3.07079 0
M  V30 11347 C 1094.12 -4.21595 3.88646 0
M  V30 11348 N 1093.61 -4.99411 4.80167 0
M  V30 11349 N 1095.4 -4.17075 3.76835 0
M  V30 11350 H 1087.56 -0.718412 1.99881 0
M  V30 11351 H 1089.82 -0.378787 0.869037 0
M  V30 11352 H 1089.52 -1.92752 2.94176 0
M  V30 11353 H 1089.4 -3.2906 1.84389 0
M  V30 11354 H 1091.79 -2.77835 0.994561 0
M  V30 11355 H 1091.87 -1.42113 2.12691 0
M  V30 11356 H 1091.51 -3.04553 4.0646 0
M  V30 11357 H 1091.44 -4.39394 2.90242 0
M  V30 11358 H 1093.93 -2.91272 2.40767 0
M  V30 11359 H 1094.24 -5.53856 5.38946 0
M  V30 11360 H 1092.59 -4.98582 4.84191 0
M  V30 11361 H 1095.78 -3.55369 3.04681 0
M  V30 11362 H 1095.95 -4.75125 4.40637 0
M  V30 11363 N 1089.36 -0.901303 -1.29284 0
M  V30 11364 C 1090.31 -0.378666 -2.27672 0
M  V30 11365 C 1091.28 0.540102 -1.57074 0
M  V30 11366 O 1092.46 0.464997 -1.85047 0
M  V30 11367 C 1089.6 0.38635 -3.42931 0
M  V30 11368 C 1088.71 -0.563496 -4.28309 0
M  V30 11369 C 1087.85 0.218731 -5.30749 0
M  V30 11370 C 1086.89 -0.725536 -6.07785 0
M  V30 11371 N 1086.03 0.0223854 -7.02096 0
M  V30 11372 H 1090.87 -1.22277 -2.71758 0
M  V30 11373 H 1088.4 -0.614302 -1.33659 0
M  V30 11374 H 1090.36 0.845967 -4.08533 0
M  V30 11375 H 1088.99 1.1949 -2.9987 0
M  V30 11376 H 1088.04 -1.14163 -3.62865 0
M  V30 11377 H 1089.35 -1.28623 -4.81931 0
M  V30 11378 H 1088.51 0.739473 -6.02177 0
M  V30 11379 H 1087.25 0.97459 -4.77863 0
M  V30 11380 H 1086.25 -1.25776 -5.3522 0
M  V30 11381 H 1087.48 -1.48075 -6.6276 0
M  V30 11382 H 1085.42 0.760482 -6.51577 0
M  V30 11383 H 1085.34 -0.640408 -7.53283 0
M  V30 11384 H 1086.61 0.523339 -7.77741 0
M  V30 11385 N 1090.84 1.42931 -0.663954 0
M  V30 11386 C 1091.78 2.3079 0.0210764 0
M  V30 11387 C 1092.75 1.45356 0.803796 0
M  V30 11388 O 1093.94 1.74207 0.778237 0
M  V30 11389 C 1091.08 3.31069 0.974023 0
M  V30 11390 C 1090.19 4.31598 0.186273 0
M  V30 11391 C 1089.33 5.18955 1.13399 0
M  V30 11392 C 1088.37 6.1117 0.337292 0
M  V30 11393 N 1087.5 6.91114 1.23715 0
M  V30 11394 H 1092.34 2.88819 -0.733995 0
M  V30 11395 H 1089.88 1.42274 -0.373711 0
M  V30 11396 H 1091.84 3.87727 1.54024 0
M  V30 11397 H 1090.47 2.74665 1.69585 0
M  V30 11398 H 1089.52 3.77147 -0.496402 0
M  V30 11399 H 1090.83 4.96919 -0.432753 0
M  V30 11400 H 1089.99 5.80292 1.77049 0
M  V30 11401 H 1088.73 4.53785 1.78691 0
M  V30 11402 H 1087.73 5.48911 -0.312492 0
M  V30 11403 H 1088.96 6.78386 -0.31138 0
M  V30 11404 H 1086.9 6.28583 1.87668 0
M  V30 11405 H 1086.82 7.52999 0.672946 0
M  V30 11406 H 1088.09 7.56948 1.86146 0
M  V30 11407 N 1092.32 0.406567 1.52266 0
M  V30 11408 C 1093.59 -0.228477 1.94261 0
M  V30 11409 C 1093.97 -1.62848 1.34328 0
M  V30 11410 O 1093.32 -2.22549 0.518082 0
M  V30 11411 C 1093.53 -0.237401 3.48192 0
M  V30 11412 C 1094.88 -0.457997 4.22123 0
M  V30 11413 O 1095.9 -0.316868 3.54788 0
M  V30 11414 O 1094.76 -0.735946 5.41522 0
M  V30 11415 H 1091.86 -0.146492 0.813922 0
M  V30 11416 H 1094.4 0.462325 1.63281 0
M  V30 11417 H 1093.17 0.742556 3.8419 0
M  V30 11418 H 1092.8 -0.972408 3.85526 0
M  V30 11419 N 1093.79 -1.57004 0.136909 0
M  V30 11420 C 1095.04 -1.96087 -0.517477 0
M  V30 11421 C 1095.37 -1.0213 -1.65176 0
M  V30 11422 O 1094.65 -0.0617958 -1.94402 0
M  V30 11423 C 1094.93 -3.44958 -1.03323 0
M  V30 11424 C 1094.78 -4.49691 0.0988609 0
M  V30 11425 C 1096.1 -3.96091 -1.91832 0
M  V30 11426 H 1093.22 -0.712978 -0.186632 0
M  V30 11427 H 1095.86 -1.88767 0.216095 0
M  V30 11428 H 1094.01 -3.51327 -1.65836 0
M  V30 11429 H 1095.69 -4.55409 0.734847 0
M  V30 11430 H 1093.93 -4.271 0.75947 0
M  V30 11431 H 1094.6 -5.51165 -0.303554 0
M  V30 11432 H 1097.08 -3.92139 -1.39164 0
M  V30 11433 H 1095.95 -5.00742 -2.24831 0
M  V30 11434 H 1096.21 -3.37846 -2.85153 0
M  V30 11435 N 1095.27 0.136881 -1.57004 0
M  V30 11436 C 1096.2 1.17026 -2.02057 0
M  V30 11437 C 1097.18 1.44223 -0.901866 0
M  V30 11438 O 1098.37 1.54971 -1.17037 0
M  V30 11439 C 1095.5 2.50095 -2.40977 0
M  V30 11440 C 1094.45 2.37398 -3.56127 0
M  V30 11441 C 1093.78 3.75268 -3.80891 0
M  V30 11442 C 1095.08 1.84952 -4.88457 0
M  V30 11443 H 1096.77 0.795601 -2.88636 0
M  V30 11444 H 1094.32 0.381266 -1.38861 0
M  V30 11445 H 1096.27 3.22621 -2.71097 0
M  V30 11446 H 1095 2.89416 -1.51348 0
M  V30 11447 H 1093.65 1.67322 -3.26188 0
M  V30 11448 H 1093.3 4.12043 -2.88496 0
M  V30 11449 H 1093 3.67631 -4.5839 0
M  V30 11450 H 1094.53 4.49327 -4.13446 0
M  V30 11451 H 1095.94 2.4728 -5.17229 0
M  V30 11452 H 1094.34 1.88181 -5.69832 0
M  V30 11453 H 1095.41 0.805848 -4.78157 0
M  V30 11454 N 1096.75 1.52266 0.40654 0
M  V30 11455 C 1097.68 1.78755 1.50229 0
M  V30 11456 C 1098.66 0.638652 1.57655 0
M  V30 11457 O 1099.85 0.884505 1.72888 0
M  V30 11458 C 1096.98 1.94057 2.88026 0
M  V30 11459 C 1095.93 3.09667 2.95449 0
M  V30 11460 C 1095.26 3.10196 4.35526 0
M  V30 11461 C 1096.56 4.49077 2.66697 0
M  V30 11462 H 1098.25 2.70511 1.28313 0
M  V30 11463 H 1095.8 1.30167 0.615836 0
M  V30 11464 H 1097.75 2.11171 3.64671 0
M  V30 11465 H 1096.47 0.989755 3.11242 0
M  V30 11466 H 1095.13 2.92308 2.2125 0
M  V30 11467 H 1094.78 2.12831 4.55754 0
M  V30 11468 H 1094.48 3.87847 4.41416 0
M  V30 11469 H 1096 3.29443 5.14101 0
M  V30 11470 H 1097.42 4.66628 3.33064 0
M  V30 11471 H 1095.82 5.28665 2.8396 0
M  V30 11472 H 1096.89 4.56995 1.62122 0
M  V30 11473 N 1098.23 -0.663929 1.42933 0
M  V30 11474 C 1099.64 -0.978346 1.26097 0
M  V30 11475 C 1099.84 -2.00756 0.172968 0
M  V30 11476 O 1098.9 -2.48418 -0.452184 0
M  V30 11477 C 1100.21 -1.4728 2.62162 0
M  V30 11478 C 1101.76 -1.59001 2.69606 0
M  V30 11479 C 1102.24 -2.1184 4.06064 0
M  V30 11480 N 1103.73 -2.19158 4.08074 0
M  V30 11481 C 1104.46 -2.61141 5.10483 0
M  V30 11482 N 1103.96 -3.02498 6.23271 0
M  V30 11483 N 1105.75 -2.60986 4.97838 0
M  V30 11484 H 1097.9 0.0173096 2.12393 0
M  V30 11485 H 1100.17 -0.0548116 0.946414 0
M  V30 11486 H 1099.87 -0.791008 3.42689 0
M  V30 11487 H 1099.75 -2.4497 2.86827 0
M  V30 11488 H 1102.13 -2.26284 1.89418 0
M  V30 11489 H 1102.21 -0.597728 2.48718 0
M  V30 11490 H 1101.86 -1.45162 4.86714 0
M  V30 11491 H 1101.79 -3.1188 4.2431 0
M  V30 11492 H 1104.28 -1.90013 3.26655 0
M  V30 11493 H 1104.59 -3.33251 6.97254 0
M  V30 11494 H 1102.94 -3.00328 6.2676 0
M  V30 11495 H 1106.13 -2.28046 4.08794 0
M  V30 11496 H 1106.3 -2.93384 5.7778 0
M  V30 11497 N 1099.71 -1.29285 -0.901281 0
M  V30 11498 C 1100.65 -1.14159 -2.02659 0
M  V30 11499 C 1101.65 -0.0575887 -1.69302 0
M  V30 11500 O 1102.85 -0.217273 -1.78684 0
M  V30 11501 H 1099.23 -0.352584 -0.66422 0
M  V30 11502 H 1101.2 -2.09434 -2.12555 0
M  V30 11503 C 1099.95 -0.833253 -3.37568 0
M  V30 11504 H 1099.27 -1.65939 -3.63737 0
M  V30 11505 H 1100.71 -0.767436 -4.16997 0
M  V30 11506 C 1099.17 0.46344 -3.33697 0
M  V30 11507 O 1099.7 1.48998 -3.73045 0
M  V30 11508 N 1097.91 0.468709 -2.86795 0
M  V30 11509 H 1097.45 -0.36712 -2.54971 0
M  V30 11510 H 1097.41 1.3363 -2.84588 0
M  V30 11511 N 1101.18 1.11143 -1.11736 0
M  V30 11512 C 1102.12 2.1705 -0.736325 0
M  V30 11513 C 1103.13 1.61116 0.233528 0
M  V30 11514 O 1104.32 1.78493 0.0159602 0
M  V30 11515 C 1101.42 3.38832 -0.067974 0
M  V30 11516 C 1100.59 4.24226 -1.06543 0
M  V30 11517 C 1099.65 5.24472 -0.426063 0
M  V30 11518 O 1098.68 5.58843 -1.0809 0
M  V30 11519 N 1099.88 5.74825 0.809711 0
M  V30 11520 H 1102.64 2.50349 -1.64758 0
M  V30 11521 H 1100.2 1.26693 -1.00799 0
M  V30 11522 H 1102.2 4.02991 0.371563 0
M  V30 11523 H 1100.77 3.0357 0.745917 0
M  V30 11524 H 1099.99 3.56475 -1.68283 0
M  V30 11525 H 1101.27 4.78117 -1.74016 0
M  V30 11526 H 1100.67 5.49088 1.36084 0
M  V30 11527 H 1099.23 6.40804 1.19218 0
M  V30 11528 N 1102.66 0.908147 1.28804 0
M  V30 11529 C 1103.91 0.539201 1.95501 0
M  V30 11530 C 1104.24 -0.913759 1.7136 0
M  V30 11531 O 1103.52 -1.64904 1.03136 0
M  V30 11532 C 1103.8 0.842372 3.50109 0
M  V30 11533 C 1103.65 2.34765 3.83673 0
M  V30 11534 C 1104.97 0.334658 4.38826 0
M  V30 11535 H 1102.09 0.197373 0.71008 0
M  V30 11536 H 1104.73 1.13637 1.52272 0
M  V30 11537 H 1102.88 0.334143 3.8706 0
M  V30 11538 H 1104.55 2.92607 3.56621 0
M  V30 11539 H 1102.8 2.80494 3.30916 0
M  V30 11540 H 1103.47 2.51034 4.91616 0
M  V30 11541 H 1105.94 0.769961 4.08914 0
M  V30 11542 H 1104.82 0.575914 5.4587 0
M  V30 11543 H 1105.08 -0.764878 4.35433 0
M  V30 11544 N 1104.14 -1.42577 0.671525 0
M  V30 11545 C 1105.1 -2.292 0.000392482 0
M  V30 11546 C 1106.1 -1.43158 -0.732294 0
M  V30 11547 O 1107.29 -1.64583 -0.570789 0
M  V30 11548 C 1104.43 -3.25591 -1.01013 0
M  V30 11549 H 1105.62 -2.90037 0.762783 0
M  V30 11550 H 1103.17 -1.50162 0.433703 0
M  V30 11551 H 1103.91 -2.69685 -1.80112 0
M  V30 11552 H 1103.69 -3.89049 -0.488183 0
M  V30 11553 H 1105.18 -3.90561 -1.47824 0
M  V30 11554 N 1105.62 -0.414636 -1.52048 0
M  V30 11555 C 1106.57 0.42561 -2.23992 0
M  V30 11556 C 1107.55 1.00894 -1.25337 0
M  V30 11557 O 1108.74 0.930842 -1.50547 0
M  V30 11558 C 1105.87 1.53874 -3.06884 0
M  V30 11559 C 1104.96 0.965913 -4.12954 0
M  V30 11560 N 1105.35 0.12023 -5.05657 0
M  V30 11561 C 1103.65 1.23586 -4.28535 0
M  V30 11562 C 1104.35 -0.199063 -5.81359 0
M  V30 11563 N 1103.33 0.411505 -5.4204 0
M  V30 11564 H 1107.13 -0.226746 -2.93024 0
M  V30 11565 H 1104.64 -0.225376 -1.60829 0
M  V30 11566 H 1106.64 2.15334 -3.56983 0
M  V30 11567 H 1105.3 2.19366 -2.39392 0
M  V30 11568 H 1106.31 -0.244501 -5.17323 0
M  V30 11569 H 1102.99 1.88995 -3.72273 0
M  V30 11570 H 1104.38 -0.88585 -6.66035 0
M  V30 11571 N 1107.1 1.56929 -0.145233 0
M  V30 11572 C 1108.34 1.96358 0.50707 0
M  V30 11573 C 1108.68 1.03005 1.64632 0
M  V30 11574 O 1107.95 0.0721045 1.94366 0
M  V30 11575 C 1108.23 3.45502 1.01492 0
M  V30 11576 C 1108.09 4.49633 -0.122708 0
M  V30 11577 C 1109.41 3.97103 1.89729 0
M  V30 11578 H 1106.52 0.713958 0.182848 0
M  V30 11579 H 1109.17 1.8865 -0.226102 0
M  V30 11580 H 1107.32 3.52202 1.6397 0
M  V30 11581 H 1108.99 4.55013 -0.758988 0
M  V30 11582 H 1107.23 4.26691 -0.782109 0
M  V30 11583 H 1107.9 5.51318 0.27432 0
M  V30 11584 H 1110.38 3.92871 1.37082 0
M  V30 11585 H 1109.25 5.01927 2.22173 0
M  V30 11586 H 1109.52 3.39354 2.83357 0
M  V30 11587 N 1108.58 -0.128553 1.57075 0
M  V30 11588 C 1109.52 -1.15812 1.9964 0
M  V30 11589 C 1110.49 -1.41679 0.86696 0
M  V30 11590 O 1111.68 -1.53705 1.13046 0
M  V30 11591 C 1108.82 -2.48198 2.39774 0
M  V30 11592 C 1107.93 -2.29348 3.66092 0
M  V30 11593 C 1107.07 -3.54898 3.95248 0
M  V30 11594 C 1106.1 -3.31164 5.14779 0
M  V30 11595 N 1105.24 -4.48891 5.39853 0
M  V30 11596 H 1110.08 -0.788136 2.87389 0
M  V30 11597 H 1107.62 -0.377682 1.42169 0
M  V30 11598 H 1109.58 -3.25414 2.61077 0
M  V30 11599 H 1108.21 -2.83108 1.5508 0
M  V30 11600 H 1107.26 -1.43095 3.5246 0
M  V30 11601 H 1108.57 -2.07781 4.53463 0
M  V30 11602 H 1107.72 -4.40536 4.17148 0
M  V30 11603 H 1106.46 -3.79487 3.06335 0
M  V30 11604 H 1105.47 -2.43915 4.92733 0
M  V30 11605 H 1106.69 -3.07954 6.05261 0
M  V30 11606 H 1104.64 -4.73619 4.53895 0
M  V30 11607 H 1104.56 -4.30394 6.21528 0
M  V30 11608 H 1105.82 -5.35691 5.66265 0
M  V30 11609 N 1110.05 -1.5248 -0.398459 0
M  V30 11610 C 1111.02 -1.75949 -1.46883 0
M  V30 11611 C 1112.02 -0.629431 -1.47969 0
M  V30 11612 O 1113.21 -0.897407 -1.49306 0
M  V30 11613 C 1110.34 -1.85162 -2.8623 0
M  V30 11614 H 1111.53 -2.71513 -1.2736 0
M  V30 11615 H 1109.08 -1.43058 -0.629619 0
M  V30 11616 H 1109.82 -0.915505 -3.11109 0
M  V30 11617 H 1109.6 -2.67326 -2.86844 0
M  V30 11618 H 1111.09 -2.05025 -3.63805 0
M  V30 11619 N 1111.53 0.65634 -1.43283 0
M  V30 11620 C 1112.44 1.79847 -1.50639 0
M  V30 11621 C 1113.46 1.69487 -0.393714 0
M  V30 11622 O 1114.63 1.90712 -0.647379 0
M  V30 11623 C 1111.7 3.16107 -1.42398 0
M  V30 11624 C 1110.76 3.38287 -2.64312 0
M  V30 11625 C 1109.99 4.68046 -2.56454 0
M  V30 11626 O 1110.22 5.4719 -1.61056 0
M  V30 11627 O 1109.15 4.91877 -3.46902 0
M  V30 11628 H 1112.98 1.76596 -2.47078 0
M  V30 11629 H 1110.56 0.814428 -1.25249 0
M  V30 11630 H 1112.44 3.97382 -1.40233 0
M  V30 11631 H 1111.12 3.19956 -0.490929 0
M  V30 11632 H 1110.02 2.56788 -2.72049 0
M  V30 11633 H 1111.36 3.39282 -3.56579 0
M  V30 11634 N 1113.01 1.29761 0.894412 0
M  V30 11635 C 1114.43 1.07888 1.17611 0
M  V30 11636 C 1114.63 -0.16644 2.00811 0
M  V30 11637 O 1113.68 -0.86272 2.37304 0
M  V30 11638 C 1114.99 2.33723 1.89193 0
M  V30 11639 C 1116.54 2.39095 2.01997 0
M  V30 11640 C 1117.02 3.64747 2.7699 0
M  V30 11641 N 1118.51 3.65501 2.84541 0
M  V30 11642 C 1119.24 4.59411 3.43117 0
M  V30 11643 N 1118.74 5.63657 4.02818 0
M  V30 11644 N 1120.53 4.46971 3.40842 0
M  V30 11645 H 1112.68 2.0967 0.339421 0
M  V30 11646 H 1114.95 0.923788 0.212882 0
M  V30 11647 H 1114.65 3.24551 1.35496 0
M  V30 11648 H 1114.53 2.41642 2.89636 0
M  V30 11649 H 1116.91 1.48751 2.54867 0
M  V30 11650 H 1116.99 2.35158 1.0067 0
M  V30 11651 H 1116.64 4.55445 2.24794 0
M  V30 11652 H 1116.57 3.65944 3.78672 0
M  V30 11653 H 1119.06 2.90129 2.42144 0
M  V30 11654 H 1119.37 6.31429 4.45552 0
M  V30 11655 H 1117.72 5.67461 4.01265 0
M  V30 11656 H 1120.91 3.64719 2.93424 0
M  V30 11657 H 1121.08 5.20341 3.86198 0
M  V30 11658 N 1114.49 -1.10549 1.12324 0
M  V30 11659 C 1115.76 -1.78968 0.789287 0
M  V30 11660 C 1116.14 -1.984 -0.721156 0
M  V30 11661 O 1115.49 -1.5761 -1.65443 0
M  V30 11662 C 1115.7 -3.12044 1.563 0
M  V30 11663 C 1117.05 -3.86939 1.74825 0
M  V30 11664 O 1118.07 -3.21761 1.52802 0
M  V30 11665 O 1116.93 -5.0392 2.11488 0
M  V30 11666 H 1114.03 -0.775617 0.286962 0
M  V30 11667 H 1116.57 -1.17209 1.2272 0
M  V30 11668 H 1115.35 -2.93313 2.59005 0
M  V30 11669 H 1114.97 -3.81521 1.11926 0
M  V30 11670 N 1115.97 -0.914965 -1.28321 0
M  V30 11671 C 1117.21 -0.544639 -1.94208 0
M  V30 11672 C 1117.53 0.916368 -1.72806 0
M  V30 11673 O 1118.73 1.39491 -2.32926 0
M  V30 11674 C 1117.19 -0.923209 -3.47858 0
M  V30 11675 C 1116.8 -2.40403 -3.78035 0
M  V30 11676 C 1118.54 -0.623526 -4.19896 0
M  V30 11677 C 1116.45 -2.72266 -5.25 0
M  V30 11678 H 1115.38 -0.199966 -0.727 0
M  V30 11679 H 1118.03 -1.11405 -1.45812 0
M  V30 11680 H 1116.41 -0.282576 -3.94991 0
M  V30 11681 H 1117.59 -3.09149 -3.41706 0
M  V30 11682 H 1115.9 -2.67429 -3.19172 0
M  V30 11683 H 1118.5 -0.838243 -5.28089 0
M  V30 11684 H 1118.84 0.438721 -4.13982 0
M  V30 11685 H 1119.37 -1.22268 -3.78544 0
M  V30 11686 H 1116.11 -3.77349 -5.35993 0
M  V30 11687 H 1115.63 -2.08157 -5.62522 0
M  V30 11688 H 1117.31 -2.59334 -5.92752 0
M  V30 11689 N 1117.44 1.42219 -0.679077 0
M  V30 11690 C 1118.37 2.33493 -0.0174528 0
M  V30 11691 C 1119.35 1.50915 0.78477 0
M  V30 11692 O 1120.54 1.79504 0.741065 0
M  V30 11693 C 1117.67 3.34576 0.931463 0
M  V30 11694 C 1116.62 4.2734 0.237527 0
M  V30 11695 C 1115.95 5.18664 1.29967 0
M  V30 11696 C 1117.25 5.14729 -0.886082 0
M  V30 11697 H 1118.94 2.89068 -0.779748 0
M  V30 11698 H 1116.49 1.38993 -0.376419 0
M  V30 11699 H 1118.44 3.97343 1.40343 0
M  V30 11700 H 1117.17 2.77315 1.72523 0
M  V30 11701 H 1115.83 3.65973 -0.214245 0
M  V30 11702 H 1115.47 4.57727 2.08554 0
M  V30 11703 H 1115.17 5.81558 0.840463 0
M  V30 11704 H 1116.7 5.84308 1.77249 0
M  V30 11705 H 1118.11 5.71158 -0.495141 0
M  V30 11706 H 1116.51 5.86478 -1.27135 0
M  V30 11707 H 1117.58 4.52874 -1.733 0
M  V30 11708 N 1118.92 0.422693 1.51826 0
M  V30 11709 C 1119.88 -0.384307 2.25955 0
M  V30 11710 C 1120.88 -0.962184 1.28836 0
M  V30 11711 O 1122.07 -0.838931 1.52668 0
M  V30 11712 C 1119.21 -1.54228 3.04018 0
M  V30 11713 H 1120.4 0.265157 2.98726 0
M  V30 11714 H 1117.95 0.175515 1.55311 0
M  V30 11715 H 1118.69 -2.22822 2.35629 0
M  V30 11716 H 1118.47 -1.13425 3.75336 0
M  V30 11717 H 1119.96 -2.1128 3.60209 0
M  V30 11718 N 1120.4 -1.5685 0.153553 0
M  V30 11719 C 1121.31 -2.20664 -0.796528 0
M  V30 11720 C 1122.33 -1.19289 -1.26674 0
M  V30 11721 O 1123.5 -1.51889 -1.32256 0
M  V30 11722 C 1120.57 -2.82088 -2.01561 0
M  V30 11723 C 1119.63 -3.9861 -1.59401 0
M  V30 11724 C 1118.86 -4.57096 -2.75498 0
M  V30 11725 O 1119.08 -4.14462 -3.9189 0
M  V30 11726 O 1118.02 -5.47254 -2.50593 0
M  V30 11727 H 1121.84 -3.02376 -0.283282 0
M  V30 11728 H 1119.43 -1.49218 -0.0737927 0
M  V30 11729 H 1121.31 -3.21103 -2.72893 0
M  V30 11730 H 1119.99 -2.03385 -2.51826 0
M  V30 11731 H 1118.89 -3.64299 -0.850725 0
M  V30 11732 H 1120.23 -4.78853 -1.13845 0
M  V30 11733 N 1121.88 0.120221 -1.57141 0
M  V30 11734 C 1122.84 1.13159 -1.99318 0
M  V30 11735 C 1123.84 1.34376 -0.883158 0
M  V30 11736 O 1125.03 1.30914 -1.14922 0
M  V30 11737 C 1122.16 2.48632 -2.33227 0
M  V30 11738 H 1123.36 0.769119 -2.8987 0
M  V30 11739 H 1120.91 0.364475 -1.51991 0
M  V30 11740 H 1121.64 2.89802 -1.45551 0
M  V30 11741 H 1121.43 2.34587 -3.14184 0
M  V30 11742 H 1122.92 3.21423 -2.66603 0
M  V30 11743 N 1123.36 1.52689 0.390367 0
M  V30 11744 C 1124.63 1.58246 1.14968 0
M  V30 11745 C 1125.01 0.374808 2.07746 0
M  V30 11746 O 1124.36 -0.636969 2.19442 0
M  V30 11747 C 1124.57 2.92059 1.91056 0
M  V30 11748 C 1125.92 3.45745 2.46466 0
M  V30 11749 O 1126.94 2.93924 2.01214 0
M  V30 11750 O 1125.8 4.3628 3.29122 0
M  V30 11751 H 1122.9 0.638189 0.52597 0
M  V30 11752 H 1125.44 1.65024 0.39563 0
M  V30 11753 H 1124.21 3.71399 1.23201 0
M  V30 11754 H 1123.84 2.8866 2.73425 0
M  V30 11755 N 1124.83 -0.648732 1.43629 0
M  V30 11756 C 1125.78 -1.78269 1.49409 0
M  V30 11757 C 1126.78 -1.6537 0.367288 0
M  V30 11758 O 1127.98 -1.71663 0.541476 0
M  V30 11759 H 1124.36 -0.58824 0.468484 0
M  V30 11760 H 1126.33 -1.70514 2.44883 0
M  V30 11761 C 1125.08 -3.16545 1.43856 0
M  V30 11762 H 1124.4 -3.2711 2.29868 0
M  V30 11763 H 1125.84 -3.95833 1.51961 0
M  V30 11764 C 1124.3 -3.36535 0.156779 0
M  V30 11765 O 1124.83 -3.94052 -0.780124 0
M  V30 11766 N 1123.04 -2.90526 0.0655319 0
M  V30 11767 H 1122.58 -2.43904 0.828768 0
M  V30 11768 H 1122.54 -3.04277 -0.791379 0
M  V30 11769 N 1126.31 -1.30234 -0.887518 0
M  V30 11770 C 1127.22 -1.18316 -2.02579 0
M  V30 11771 C 1128.24 -0.103658 -1.73691 0
M  V30 11772 O 1129.41 -0.3181 -1.98872 0
M  V30 11773 C 1126.48 -0.873222 -3.35523 0
M  V30 11774 C 1125.54 -2.03783 -3.7785 0
M  V30 11775 C 1124.77 -1.74258 -5.0445 0
M  V30 11776 O 1125 -0.669295 -5.6646 0
M  V30 11777 O 1123.93 -2.59423 -5.43124 0
M  V30 11778 H 1127.76 -2.13933 -2.15561 0
M  V30 11779 H 1125.34 -1.09803 -1.0131 0
M  V30 11780 H 1127.22 -0.715463 -4.15282 0
M  V30 11781 H 1125.9 0.053056 -3.23657 0
M  V30 11782 H 1124.81 -2.2509 -2.98806 0
M  V30 11783 H 1126.14 -2.94574 -3.94318 0
M  V30 11784 N 1127.79 1.09952 -1.12909 0
M  V30 11785 C 1129.04 1.82467 -0.898733 0
M  V30 11786 C 1129.39 1.83788 0.569196 0
M  V30 11787 O 1128.68 1.29117 1.4156 0
M  V30 11788 C 1128.88 3.28252 -1.41369 0
M  V30 11789 C 1128.71 3.41133 -2.93015 0
M  V30 11790 C 1127.48 3.53253 -3.61304 0
M  V30 11791 C 1129.68 3.34118 -3.90986 0
M  V30 11792 N 1127.66 3.54762 -5.01016 0
M  V30 11793 C 1129.03 3.42431 -5.16857 0
M  V30 11794 C 1131.08 3.1775 -3.83327 0
M  V30 11795 C 1129.79 3.36063 -6.35967 0
M  V30 11796 C 1131.81 3.12705 -5.01966 0
M  V30 11797 C 1131.17 3.21605 -6.26697 0
M  V30 11798 H 1127.27 0.682232 -0.382208 0
M  V30 11799 H 1129.86 1.31446 -1.43631 0
M  V30 11800 H 1128.03 3.77755 -0.903097 0
M  V30 11801 H 1129.76 3.88752 -1.12489 0
M  V30 11802 H 1126.52 3.56472 -3.11809 0
M  V30 11803 H 1126.94 3.59115 -5.73904 0
M  V30 11804 H 1131.58 3.09742 -2.87784 0
M  V30 11805 H 1129.3 3.42835 -7.31772 0
M  V30 11806 H 1132.89 3.01183 -4.97775 0
M  V30 11807 H 1131.77 3.1771 -7.16959 0
M  V30 11808 N 1129.27 0.921757 1.27833 0
M  V30 11809 C 1130.51 0.559906 1.94918 0
M  V30 11810 C 1130.85 -0.895532 1.72319 0
M  V30 11811 O 1130.12 -1.638 1.04879 0
M  V30 11812 C 1130.41 0.879458 3.49196 0
M  V30 11813 C 1130.26 2.38821 3.81162 0
M  V30 11814 C 1131.58 0.381183 4.38446 0
M  V30 11815 H 1128.7 0.204893 0.707946 0
M  V30 11816 H 1131.34 1.15246 1.51058 0
M  V30 11817 H 1129.49 0.375177 3.86684 0
M  V30 11818 H 1131.16 2.96373 3.53498 0
M  V30 11819 H 1129.4 2.83988 3.27923 0
M  V30 11820 H 1130.07 2.56234 4.88926 0
M  V30 11821 H 1132.55 0.813289 4.08075 0
M  V30 11822 H 1131.43 0.633778 5.45229 0
M  V30 11823 H 1131.69 -0.718651 4.3622 0
M  V30 11824 N 1130.75 -1.41857 0.686609 0
M  V30 11825 C 1131.99 -2.01666 0.214118 0
M  V30 11826 C 1132.33 -1.5422 -1.18025 0
M  V30 11827 O 1131.6 -0.749482 -1.7948 0
M  V30 11828 C 1131.88 -3.59147 0.261841 0
M  V30 11829 C 1131.74 -4.16742 1.69251 0
M  V30 11830 C 1133.06 -4.38427 -0.383378 0
M  V30 11831 H 1130.17 -0.732724 0.0792785 0
M  V30 11832 H 1132.82 -1.68724 0.873633 0
M  V30 11833 H 1130.97 -3.87342 -0.29971 0
M  V30 11834 H 1132.64 -3.99456 2.30722 0
M  V30 11835 H 1130.88 -3.72124 2.2295 0
M  V30 11836 H 1131.55 -5.25894 1.6775 0
M  V30 11837 H 1134.03 -4.15992 0.0947701 0
M  V30 11838 H 1132.9 -5.4797 -0.319401 0
M  V30 11839 H 1133.17 -4.172 -1.46276 0
M  V30 11840 N 1132.22 -0.430739 -1.51599 0
M  V30 11841 C 1133.64 -0.0826902 -1.59386 0
M  V30 11842 C 1133.84 1.40729 -1.44214 0
M  V30 11843 O 1132.9 2.1765 -1.28002 0
M  V30 11844 C 1134.21 -0.59691 -2.94716 0
M  V30 11845 C 1135.76 -0.556772 -3.08008 0
M  V30 11846 C 1136.23 -1.04786 -4.45852 0
M  V30 11847 N 1137.72 -1.00557 -4.52153 0
M  V30 11848 C 1138.46 -1.35649 -5.57124 0
M  V30 11849 N 1137.95 -1.77994 -6.69545 0
M  V30 11850 N 1139.75 -1.27508 -5.47447 0
M  V30 11851 H 1131.9 -1.40027 -1.59707 0
M  V30 11852 H 1134.16 -0.576606 -0.752482 0
M  V30 11853 H 1133.87 -1.63914 -3.11167 0
M  V30 11854 H 1133.74 -0.0182342 -3.77196 0
M  V30 11855 H 1136.13 0.476457 -2.91228 0
M  V30 11856 H 1136.21 -1.17177 -2.27383 0
M  V30 11857 H 1135.85 -2.07952 -4.63377 0
M  V30 11858 H 1135.78 -0.409461 -5.25006 0
M  V30 11859 H 1138.27 -0.694518 -3.71463 0
M  V30 11860 H 1138.59 -2.03026 -7.45654 0
M  V30 11861 H 1136.93 -1.81916 -6.70769 0
M  V30 11862 H 1140.12 -0.942969 -4.58504 0
M  V30 11863 H 1140.3 -1.55185 -6.29143 0
M  V30 11864 N 1133.7 1.56767 -0.161869 0
M  V30 11865 C 1134.63 2.20511 0.767918 0
M  V30 11866 C 1135.61 1.15783 1.24612 0
M  V30 11867 O 1136.8 1.44179 1.301 0
M  V30 11868 C 1133.93 2.83844 2.00125 0
M  V30 11869 C 1132.88 3.94528 1.65926 0
M  V30 11870 C 1132.21 4.44866 2.96646 0
M  V30 11871 C 1133.51 5.14583 0.894497 0
M  V30 11872 H 1135.2 2.98464 0.236607 0
M  V30 11873 H 1132.75 1.43561 0.112363 0
M  V30 11874 H 1134.7 3.27109 2.65664 0
M  V30 11875 H 1133.43 2.03246 2.55654 0
M  V30 11876 H 1132.08 3.51904 1.02759 0
M  V30 11877 H 1131.73 3.61071 3.50196 0
M  V30 11878 H 1131.43 5.19531 2.74521 0
M  V30 11879 H 1132.96 4.90812 3.6323 0
M  V30 11880 H 1134.37 5.54601 1.45228 0
M  V30 11881 H 1132.77 5.95105 0.772636 0
M  V30 11882 H 1133.84 4.84773 -0.110986 0
M  V30 11883 N 1135.18 -0.111886 1.57202 0
M  V30 11884 C 1136.41 -0.8312 1.89142 0
M  V30 11885 C 1136.82 -1.73614 0.751987 0
M  V30 11886 O 1136.16 -1.81462 -0.285877 0
M  V30 11887 C 1136.22 -1.71107 3.16169 0
M  V30 11888 C 1135.89 -0.9797 4.46375 0
M  V30 11889 C 1136.88 -0.317219 5.18931 0
M  V30 11890 C 1134.57 -0.958764 4.93065 0
M  V30 11891 C 1136.56 0.356419 6.36403 0
M  V30 11892 C 1134.25 -0.281332 6.10452 0
M  V30 11893 C 1135.25 0.375098 6.81969 0
M  V30 11894 O 1134.94 1.0417 7.97122 0
M  V30 11895 H 1134.67 -0.243855 0.630484 0
M  V30 11896 H 1137.22 -0.0986634 2.05163 0
M  V30 11897 H 1135.45 -2.48543 2.96249 0
M  V30 11898 H 1137.14 -2.30544 3.34072 0
M  V30 11899 H 1137.91 -0.324965 4.8391 0
M  V30 11900 H 1133.79 -1.45913 4.37299 0
M  V30 11901 H 1137.33 0.869362 6.92162 0
M  V30 11902 H 1133.23 -0.271374 6.44929 0
M  V30 11903 H 1134 0.946899 8.13004 0
M  V30 11904 N 1136.66 -1.52894 -0.382264 0
M  V30 11905 C 1137.89 -1.71902 -1.146 0
M  V30 11906 C 1138.3 -0.44017 -1.84009 0
M  V30 11907 O 1137.64 0.595616 -1.73776 0
M  V30 11908 C 1137.7 -2.81785 -2.23244 0
M  V30 11909 C 1137.37 -4.22684 -1.73745 0
M  V30 11910 C 1138.36 -5.05611 -1.21054 0
M  V30 11911 C 1136.05 -4.69031 -1.79763 0
M  V30 11912 C 1138.04 -6.32968 -0.750368 0
M  V30 11913 C 1135.73 -5.96371 -1.33358 0
M  V30 11914 C 1136.73 -6.7817 -0.810832 0
M  V30 11915 O 1136.41 -8.03122 -0.353577 0
M  V30 11916 H 1136.15 -0.578767 -0.349292 0
M  V30 11917 H 1138.7 -2.00359 -0.452246 0
M  V30 11918 H 1136.93 -2.48764 -2.96063 0
M  V30 11919 H 1138.62 -2.89131 -2.84883 0
M  V30 11920 H 1139.39 -4.70984 -1.15755 0
M  V30 11921 H 1135.26 -4.05447 -2.19394 0
M  V30 11922 H 1138.81 -6.96763 -0.341666 0
M  V30 11923 H 1134.71 -6.30501 -1.38344 0
M  V30 11924 H 1135.47 -8.17124 -0.474439 0
M  V30 11925 N 1138.14 0.641106 -1.43971 0
M  V30 11926 C 1139.36 1.43324 -1.4991 0
M  V30 11927 C 1139.79 1.87705 -0.121908 0
M  V30 11928 O 1139.15 1.58127 0.886875 0
M  V30 11929 C 1139.19 2.63637 -2.46025 0
M  V30 11930 O 1138.3 3.63123 -1.95488 0
M  V30 11931 H 1137.64 0.429252 -0.506595 0
M  V30 11932 H 1140.17 0.783427 -1.89007 0
M  V30 11933 H 1140.18 3.11304 -2.63731 0
M  V30 11934 H 1138.85 2.30678 -3.46064 0
M  V30 11935 H 1137.43 3.22332 -1.87501 0
M  V30 11936 N 1139.62 1.30703 0.880598 0
M  V30 11937 C 1140.86 1.19778 1.63277 0
M  V30 11938 C 1141.19 -0.246521 1.92931 0
M  V30 11939 O 1140.45 -1.19226 1.55189 0
M  V30 11940 C 1140.74 1.97628 2.97789 0
M  V30 11941 C 1140.41 3.47213 2.87669 0
M  V30 11942 C 1139.07 3.88004 2.84617 0
M  V30 11943 C 1141.42 4.4245 2.75477 0
M  V30 11944 C 1138.75 5.22315 2.67216 0
M  V30 11945 C 1141.1 5.76874 2.59614 0
M  V30 11946 C 1139.77 6.16898 2.54939 0
M  V30 11947 H 1139.04 0.438298 0.597475 0
M  V30 11948 H 1141.69 1.61853 1.02352 0
M  V30 11949 H 1139.99 1.48201 3.6269 0
M  V30 11950 H 1141.69 1.86563 3.54958 0
M  V30 11951 H 1138.28 3.14802 2.90857 0
M  V30 11952 H 1142.46 4.11875 2.76899 0
M  V30 11953 H 1137.72 5.52412 2.62014 0
M  V30 11954 H 1141.89 6.50304 2.49155 0
M  V30 11955 H 1139.52 7.20916 2.41214 0
M  V30 11956 N 1141.09 -1.09351 1.1349 0
M  V30 11957 C 1142.03 -2.15852 0.770763 0
M  V30 11958 C 1143.04 -1.61468 -0.207866 0
M  V30 11959 O 1144.23 -1.78496 0.0124385 0
M  V30 11960 C 1141.33 -3.38681 0.121871 0
M  V30 11961 C 1140.5 -4.22477 1.13279 0
M  V30 11962 C 1139.56 -5.23728 0.509448 0
M  V30 11963 O 1138.59 -5.57052 1.16967 0
M  V30 11964 N 1139.79 -5.76041 -0.718159 0
M  V30 11965 H 1142.55 -2.47696 1.6872 0
M  V30 11966 H 1140.11 -1.25074 1.02801 0
M  V30 11967 H 1142.11 -4.03531 -0.307404 0
M  V30 11968 H 1140.68 -3.04718 -0.697527 0
M  V30 11969 H 1139.9 -3.53753 1.73933 0
M  V30 11970 H 1141.18 -4.75288 1.81601 0
M  V30 11971 H 1140.58 -5.51183 -1.27331 0
M  V30 11972 H 1139.14 -6.4262 -1.09008 0
M  V30 11973 N 1142.57 -0.928524 -1.27343 0
M  V30 11974 C 1143.85 -0.487758 -1.89421 0
M  V30 11975 C 1144.23 1.03418 -1.84032 0
M  V30 11976 O 1143.58 1.8887 -1.2861 0
M  V30 11977 C 1143.79 -1.03478 -3.33307 0
M  V30 11978 C 1145.13 -1.09577 -4.10217 0
M  V30 11979 O 1146.16 -0.984463 -3.42326 0
M  V30 11980 O 1145.02 -1.2673 -5.31603 0
M  V30 11981 H 1142.11 -0.157018 -0.811957 0
M  V30 11982 H 1144.66 -1.02027 -1.35605 0
M  V30 11983 H 1143.43 -2.07861 -3.31526 0
M  V30 11984 H 1143.05 -0.483967 -3.94644 0
M  V30 11985 N 1144.05 1.41491 -0.694123 0
M  V30 11986 C 1145 2.30783 -0.0278824 0
M  V30 11987 C 1145.97 1.47028 0.772783 0
M  V30 11988 O 1147.15 1.75819 0.74111 0
M  V30 11989 C 1144.29 3.33061 0.903579 0
M  V30 11990 C 1143.4 4.31896 0.0946823 0
M  V30 11991 C 1142.54 5.21243 1.02365 0
M  V30 11992 C 1141.58 6.11748 0.207578 0
M  V30 11993 N 1140.72 6.93583 1.09028 0
M  V30 11994 H 1145.56 2.87197 -0.795092 0
M  V30 11995 H 1143.09 1.41449 -0.403806 0
M  V30 11996 H 1145.05 3.90907 1.45765 0
M  V30 11997 H 1143.68 2.782 1.6372 0
M  V30 11998 H 1142.73 3.76009 -0.576289 0
M  V30 11999 H 1144.04 4.95889 -0.538059 0
M  V30 12000 H 1143.2 5.83917 1.647 0
M  V30 12001 H 1141.94 4.57473 1.69025 0
M  V30 12002 H 1140.94 5.48125 -0.428854 0
M  V30 12003 H 1142.17 6.77573 -0.455206 0
M  V30 12004 H 1140.11 6.32422 1.74292 0
M  V30 12005 H 1140.03 7.54257 0.513073 0
M  V30 12006 H 1141.3 7.60726 1.70048 0
M  V30 12007 N 1145.53 0.438773 1.51369 0
M  V30 12008 C 1146.8 -0.18722 1.94702 0
M  V30 12009 C 1147.18 -1.59962 1.37752 0
M  V30 12010 O 1146.53 -2.214 0.565171 0
M  V30 12011 C 1146.74 -0.163491 3.48617 0
M  V30 12012 C 1148.09 -0.368355 4.22999 0
M  V30 12013 O 1149.11 -0.241541 3.5538 0
M  V30 12014 O 1147.97 -0.620916 5.42961 0
M  V30 12015 H 1145.07 -0.129194 0.816846 0
M  V30 12016 H 1147.61 0.496855 1.62263 0
M  V30 12017 H 1146.39 0.823882 3.82528 0
M  V30 12018 H 1146.01 -0.890414 3.87501 0
M  V30 12019 N 1147.01 -1.56678 0.170181 0
M  V30 12020 C 1147.95 -2.19222 -0.777459 0
M  V30 12021 C 1148.95 -1.15592 -1.23834 0
M  V30 12022 O 1150.15 -1.33794 -1.20412 0
M  V30 12023 H 1146.53 -0.702244 -0.268992 0
M  V30 12024 H 1148.5 -2.97543 -0.225989 0
M  V30 12025 C 1147.25 -2.84631 -1.997 0
M  V30 12026 H 1146.57 -3.641 -1.65139 0
M  V30 12027 H 1148.01 -3.31864 -2.63898 0
M  V30 12028 C 1146.47 -1.84345 -2.81991 0
M  V30 12029 O 1147 -1.32821 -3.79106 0
M  V30 12030 N 1145.21 -1.53127 -2.46983 0
M  V30 12031 H 1144.75 -1.95219 -1.6807 0
M  V30 12032 H 1144.71 -0.862787 -3.0233 0
M  V30 12033 N 1148.48 0.103547 -1.57259 0
M  V30 12034 C 1149.41 1.12714 -2.04494 0
M  V30 12035 C 1150.39 1.42278 -0.932255 0
M  V30 12036 O 1151.58 1.52453 -1.20298 0
M  V30 12037 C 1148.71 2.44927 -2.46228 0
M  V30 12038 C 1147.66 2.2979 -3.61082 0
M  V30 12039 C 1146.99 3.67105 -3.88765 0
M  V30 12040 C 1148.29 1.7455 -4.9227 0
M  V30 12041 H 1149.98 0.734198 -2.90258 0
M  V30 12042 H 1147.53 0.351725 -1.39638 0
M  V30 12043 H 1149.48 3.16798 -2.77879 0
M  V30 12044 H 1148.21 2.8614 -1.57453 0
M  V30 12045 H 1146.87 1.60366 -3.29664 0
M  V30 12046 H 1146.51 4.05831 -2.97171 0
M  V30 12047 H 1146.21 3.57825 -4.66084 0
M  V30 12048 H 1147.74 4.40456 -4.22884 0
M  V30 12049 H 1149.15 2.36253 -5.22358 0
M  V30 12050 H 1147.55 1.76051 -5.73695 0
M  V30 12051 H 1148.62 0.704242 -4.79759 0
M  V30 12052 N 1149.96 1.53094 0.37415 0
M  V30 12053 C 1151.19 1.72508 1.13687 0
M  V30 12054 C 1151.6 0.449922 1.83773 0
M  V30 12055 O 1150.94 -0.586391 1.74089 0
M  V30 12056 C 1151 2.82965 2.21746 0
M  V30 12057 C 1150.67 4.23599 1.71501 0
M  V30 12058 C 1151.67 5.06245 1.1837 0
M  V30 12059 C 1149.35 4.69978 1.77273 0
M  V30 12060 C 1151.34 6.33357 0.71679 0
M  V30 12061 C 1149.03 5.9707 1.30194 0
M  V30 12062 C 1150.03 6.7859 0.774856 0
M  V30 12063 O 1149.72 8.03298 0.310981 0
M  V30 12064 H 1149.45 0.580611 0.346218 0
M  V30 12065 H 1152 2.00596 0.441614 0
M  V30 12066 H 1150.23 2.5033 2.9474 0
M  V30 12067 H 1151.92 2.90638 2.83345 0
M  V30 12068 H 1152.69 4.71591 1.13256 0
M  V30 12069 H 1148.57 4.06605 2.17241 0
M  V30 12070 H 1152.11 6.96934 0.30471 0
M  V30 12071 H 1148.01 6.31225 1.34999 0
M  V30 12072 H 1148.78 8.17364 0.431098 0
M  V30 12073 N 1151.44 -0.633461 1.44309 0
M  V30 12074 C 1152.69 -1.39306 1.46969 0
M  V30 12075 C 1153.01 -1.94235 0.101403 0
M  V30 12076 O 1152.27 -1.73959 -0.896475 0
M  V30 12077 C 1152.57 -2.57783 2.47554 0
M  V30 12078 C 1152.23 -2.21156 3.92939 0
M  V30 12079 C 1150.9 -2.1088 4.32531 0
M  V30 12080 C 1153.25 -1.9218 4.84475 0
M  V30 12081 C 1150.58 -1.69812 5.61588 0
M  V30 12082 C 1152.93 -1.52605 6.13917 0
M  V30 12083 C 1151.59 -1.40868 6.52466 0
M  V30 12084 H 1150.86 -0.509758 0.537799 0
M  V30 12085 H 1153.51 -0.718552 1.77508 0
M  V30 12086 H 1151.81 -3.30456 2.1049 0
M  V30 12087 H 1153.51 -3.16009 2.46859 0
M  V30 12088 H 1150.1 -2.30072 3.61614 0
M  V30 12089 H 1154.29 -1.9903 4.54644 0
M  V30 12090 H 1149.54 -1.59327 5.90275 0
M  V30 12091 H 1153.72 -1.29221 6.84306 0
M  V30 12092 H 1151.34 -1.08818 7.52371 0
M  V30 12093 N 1152.92 -1.31168 -0.873655 0
M  V30 12094 C 1154.16 -1.20821 -1.62881 0
M  V30 12095 C 1154.5 0.233994 -1.92785 0
M  V30 12096 O 1153.77 1.16588 -1.55684 0
M  V30 12097 C 1154.06 -2.04875 -2.96139 0
M  V30 12098 C 1153.91 -3.57375 -2.73136 0
M  V30 12099 C 1155.23 -1.8953 -3.97198 0
M  V30 12100 H 1152.35 -0.44026 -0.59105 0
M  V30 12101 H 1154.99 -1.6092 -1.01019 0
M  V30 12102 H 1153.14 -1.70806 -3.48938 0
M  V30 12103 H 1154.81 -4.01561 -2.27038 0
M  V30 12104 H 1153.05 -3.8099 -2.07434 0
M  V30 12105 H 1153.72 -4.1149 -3.6794 0
M  V30 12106 H 1156.2 -2.19337 -3.53596 0
M  V30 12107 H 1155.08 -2.5065 -4.8833 0
M  V30 12108 H 1155.34 -0.857576 -4.33703 0
M  V30 12109 N 1154.4 1.08748 -1.14068 0
M  V30 12110 C 1155.33 2.14886 -0.768052 0
M  V30 12111 C 1156.31 1.60682 0.248979 0
M  V30 12112 O 1157.49 1.87988 0.138852 0
M  V30 12113 C 1154.62 3.38412 -0.139747 0
M  V30 12114 C 1153.66 4.11357 -1.12639 0
M  V30 12115 S 1154.5 4.64645 -2.66206 0
M  V30 12116 C 1155.65 5.91461 -2.04755 0
M  V30 12117 H 1155.89 2.46163 -1.66706 0
M  V30 12118 H 1153.42 1.20804 -0.961549 0
M  V30 12119 H 1155.38 4.09929 0.21635 0
M  V30 12120 H 1154.04 3.0534 0.736638 0
M  V30 12121 H 1153.23 4.99987 -0.634719 0
M  V30 12122 H 1152.83 3.45735 -1.4263 0
M  V30 12123 H 1155.13 6.62859 -1.40086 0
M  V30 12124 H 1156.07 6.45319 -2.91494 0
M  V30 12125 H 1156.48 5.44308 -1.49629 0
M  V30 12126 N 1155.87 0.935264 1.26849 0
M  V30 12127 C 1157.15 0.497797 1.8916 0
M  V30 12128 C 1157.53 -1.02441 1.84578 0
M  V30 12129 O 1156.88 -1.88185 1.29609 0
M  V30 12130 C 1157.09 1.05244 3.32753 0
M  V30 12131 C 1158.44 1.11751 4.0963 0
M  V30 12132 O 1159.46 1.0026 3.41799 0
M  V30 12133 O 1158.32 1.29548 5.30923 0
M  V30 12134 H 1155.41 0.161322 0.811113 0
M  V30 12135 H 1157.96 1.02744 1.35062 0
M  V30 12136 H 1156.73 2.09617 3.30419 0
M  V30 12137 H 1156.36 0.504889 3.94381 0
M  V30 12138 N 1157.35 -1.41121 0.701616 0
M  V30 12139 C 1158.58 -2.05154 0.244011 0
M  V30 12140 C 1158.99 -1.52922 -1.11407 0
M  V30 12141 O 1158.33 -0.67486 -1.70855 0
M  V30 12142 C 1158.4 -3.59262 0.130773 0
M  V30 12143 C 1158.06 -4.34318 1.42187 0
M  V30 12144 C 1159.06 -4.632 2.36097 0
M  V30 12145 C 1156.74 -4.73481 1.67693 0
M  V30 12146 C 1158.74 -5.30214 3.53768 0
M  V30 12147 C 1156.42 -5.4023 2.85648 0
M  V30 12148 C 1157.42 -5.68524 3.78509 0
M  V30 12149 O 1157.11 -6.33898 4.94397 0
M  V30 12150 H 1156.84 -0.666997 0.109957 0
M  V30 12151 H 1159.39 -1.81771 0.956473 0
M  V30 12152 H 1157.62 -3.81409 -0.637512 0
M  V30 12153 H 1159.31 -4.0486 -0.29044 0
M  V30 12154 H 1160.08 -4.3342 2.17652 0
M  V30 12155 H 1155.96 -4.50835 0.962733 0
M  V30 12156 H 1159.5 -5.52215 4.26267 0
M  V30 12157 H 1155.4 -5.69429 3.04008 0
M  V30 12158 H 1156.17 -6.52394 4.94292 0
M  V30 12159 N 1158.83 -0.446794 -1.51134 0
M  V30 12160 C 1160.08 0.118047 -2.01354 0
M  V30 12161 C 1160.39 1.42953 -1.33505 0
M  V30 12162 O 1161.6 2.07788 -1.74747 0
M  V30 12163 C 1160.05 0.260912 -3.58953 0
M  V30 12164 C 1159.66 -1.0407 -4.35745 0
M  V30 12165 C 1161.41 0.779014 -4.17291 0
M  V30 12166 C 1159.31 -0.862958 -5.8507 0
M  V30 12167 H 1158.24 0.0478915 -0.752478 0
M  V30 12168 H 1160.89 -0.577997 -1.74159 0
M  V30 12169 H 1159.28 1.02018 -3.82633 0
M  V30 12170 H 1160.45 -1.80903 -4.23805 0
M  V30 12171 H 1158.77 -1.48805 -3.88904 0
M  V30 12172 H 1161.36 0.928636 -5.26574 0
M  V30 12173 H 1161.71 1.76399 -3.7708 0
M  V30 12174 H 1162.24 0.0778022 -3.97724 0
M  V30 12175 H 1158.98 -1.82059 -6.2971 0
M  V30 12176 H 1158.5 -0.134588 -5.99649 0
M  V30 12177 H 1160.18 -0.51989 -6.44908 0
M  V30 12178 N 1160.31 1.56586 -0.178487 0
M  V30 12179 C 1161.72 1.83633 0.337009 0
M  V30 12180 C 1162.07 1.09857 1.6256 0
M  V30 12181 O 1161.2 0.353933 2.13486 0
M  V30 12182 C 1161.79 3.33112 0.618225 0
M  V30 12183 C 1160.35 3.60629 1.07814 0
M  V30 12184 C 1159.5 2.7705 0.117825 0
M  V30 12185 H 1162.45 1.53508 -0.402612 0
M  V30 12186 H 1162.47 3.5098 1.46947 0
M  V30 12187 H 1161.98 3.8678 -0.319808 0
M  V30 12188 H 1160.08 3.12378 2.03103 0
M  V30 12189 H 1160.19 4.68921 0.982339 0
M  V30 12190 H 1158.56 2.47125 0.616563 0
M  V30 12191 H 1159.34 3.33501 -0.814356 0
M  V30 12192 N 1161.79 -0.095206 1.57312 0
M  V30 12193 C 1163.03 -0.797142 1.85715 0
M  V30 12194 C 1163.36 -1.79275 0.767171 0
M  V30 12195 O 1162.63 -1.94808 -0.206584 0
M  V30 12196 H 1161.21 -0.297382 0.685254 0
M  V30 12197 H 1163.87 -0.0768617 1.94748 0
M  V30 12198 H 1162.96 -1.32779 2.82447 0
M  V30 12199 N 1163.26 -1.53291 -0.366026 0
M  V30 12200 C 1164.51 -1.69117 -1.10653 0
M  V30 12201 C 1164.83 -0.445327 -1.89847 0
M  V30 12202 O 1164.1 0.540616 -1.88293 0
M  V30 12203 H 1162.68 -0.623446 -0.41149 0
M  V30 12204 H 1165.35 -1.90479 -0.412749 0
M  V30 12205 H 1164.44 -2.55205 -1.79658 0
M  V30 12206 N 1164.74 0.6258 -1.44643 0
M  V30 12207 C 1166.02 1.38439 -1.38181 0
M  V30 12208 C 1166.4 2.11056 -0.0431928 0
M  V30 12209 O 1165.75 2.06683 0.974383 0
M  V30 12210 C 1165.96 2.34639 -2.58352 0
M  V30 12211 C 1167.31 2.97807 -3.02649 0
M  V30 12212 O 1168.33 2.44963 -2.58595 0
M  V30 12213 O 1167.19 3.93682 -3.79048 0
M  V30 12214 H 1164.28 0.619852 -0.54746 0
M  V30 12215 H 1166.83 0.650409 -1.56741 0
M  V30 12216 H 1165.6 1.80116 -3.47382 0
M  V30 12217 H 1165.22 3.15446 -2.42032 0
M  V30 12218 N 1166.22 1.31629 0.866686 0
M  V30 12219 C 1167.15 1.13886 1.9775 0
M  V30 12220 C 1168.13 0.0414887 1.62547 0
M  V30 12221 O 1169.32 0.198534 1.87452 0
M  V30 12222 C 1166.44 0.740858 3.30498 0
M  V30 12223 C 1165.49 1.84175 3.84684 0
M  V30 12224 S 1166.32 3.44781 4.09739 0
M  V30 12225 C 1167.48 3.06925 5.45479 0
M  V30 12226 H 1167.71 2.07923 2.12497 0
M  V30 12227 H 1165.24 1.16152 1.01725 0
M  V30 12228 H 1167.2 0.517974 4.07219 0
M  V30 12229 H 1165.86 -0.18045 3.13581 0
M  V30 12230 H 1165.06 1.51597 4.8066 0
M  V30 12231 H 1164.66 2.01986 3.14766 0
M  V30 12232 H 1166.95 2.56022 6.27263 0
M  V30 12233 H 1167.89 4.01877 5.8301 0
M  V30 12234 H 1168.3 2.44276 5.0891 0
M  V30 12235 N 1167.7 -1.08142 1.14644 0
M  V30 12236 C 1168.63 -2.14476 0.779437 0
M  V30 12237 C 1169.61 -1.60812 -0.240454 0
M  V30 12238 O 1170.79 -1.88059 -0.128881 0
M  V30 12239 C 1167.92 -3.38333 0.157692 0
M  V30 12240 C 1166.97 -4.10754 1.14819 0
M  V30 12241 S 1167.8 -4.63227 2.68666 0
M  V30 12242 C 1168.96 -5.90367 2.07888 0
M  V30 12243 H 1169.19 -2.45276 1.68009 0
M  V30 12244 H 1166.72 -1.20292 0.967942 0
M  V30 12245 H 1168.68 -4.10038 -0.194607 0
M  V30 12246 H 1167.34 -3.05726 -0.720435 0
M  V30 12247 H 1166.53 -4.99644 0.661226 0
M  V30 12248 H 1166.14 -3.44974 1.44462 0
M  V30 12249 H 1168.43 -6.62107 1.43599 0
M  V30 12250 H 1169.37 -6.43764 2.94913 0
M  V30 12251 H 1169.78 -5.43507 1.52514 0
M  V30 12252 N 1169.18 -0.941978 -1.26351 0
M  V30 12253 C 1170.4 -0.606231 -1.98342 0
M  V30 12254 C 1170.83 0.812014 -1.6967 0
M  V30 12255 O 1170.19 1.54712 -0.9452 0
M  V30 12256 C 1170.23 -0.855864 -3.50296 0
M  V30 12257 O 1169.34 0.0716251 -4.12338 0
M  V30 12258 H 1168.68 -0.231815 -0.62222 0
M  V30 12259 H 1171.21 -1.26513 -1.60797 0
M  V30 12260 H 1171.22 -0.777079 -4.00531 0
M  V30 12261 H 1169.89 -1.8896 -3.70496 0
M  V30 12262 H 1168.47 -0.0582866 -3.72854 0
M  V30 12263 N 1170.66 1.40747 -0.709091 0
M  V30 12264 C 1171.59 2.33404 -0.0669763 0
M  V30 12265 C 1172.57 1.52546 0.752582 0
M  V30 12266 O 1173.75 1.81036 0.702823 0
M  V30 12267 C 1170.88 3.36476 0.860285 0
M  V30 12268 C 1169.84 4.27748 0.146828 0
M  V30 12269 C 1169.16 5.21304 1.18937 0
M  V30 12270 C 1170.46 5.12734 -0.995064 0
M  V30 12271 H 1172.16 2.87349 -0.840888 0
M  V30 12272 H 1169.7 1.38163 -0.405817 0
M  V30 12273 H 1171.65 4.00231 1.31883 0
M  V30 12274 H 1170.38 2.80912 1.66602 0
M  V30 12275 H 1169.04 3.65437 -0.291826 0
M  V30 12276 H 1168.69 4.62048 1.98798 0
M  V30 12277 H 1168.39 5.8321 0.716917 0
M  V30 12278 H 1169.91 5.87936 1.64815 0
M  V30 12279 H 1171.32 5.69979 -0.61618 0
M  V30 12280 H 1169.72 5.83649 -1.39547 0
M  V30 12281 H 1170.79 4.49097 -1.82867 0
M  V30 12282 N 1172.13 0.454803 1.50895 0
M  V30 12283 C 1173.06 -0.337982 2.31041 0
M  V30 12284 C 1174.04 -1.00523 1.37219 0
M  V30 12285 O 1175.23 -1.00553 1.66141 0
M  V30 12286 C 1172.36 -1.42964 3.1651 0
M  V30 12287 C 1171.31 -0.884907 4.18752 0
M  V30 12288 C 1170.64 -2.07363 4.92854 0
M  V30 12289 C 1171.94 0.0926716 5.22218 0
M  V30 12290 H 1173.63 0.33089 2.97566 0
M  V30 12291 H 1171.18 0.160577 1.43102 0
M  V30 12292 H 1173.13 -1.9916 3.71367 0
M  V30 12293 H 1171.86 -2.12705 2.47839 0
M  V30 12294 H 1170.52 -0.345031 3.64973 0
M  V30 12295 H 1170.16 -2.75764 4.2067 0
M  V30 12296 H 1169.86 -1.71545 5.62002 0
M  V30 12297 H 1171.39 -2.6408 5.5054 0
M  V30 12298 H 1172.8 -0.379568 5.72042 0
M  V30 12299 H 1171.2 0.3643 5.98993 0
M  V30 12300 H 1172.27 1.02383 4.73968 0
M  V30 12301 N 1173.61 -1.56489 0.186789 0
M  V30 12302 C 1174.86 -1.96517 -0.45433 0
M  V30 12303 C 1175.17 -1.07618 -1.63333 0
M  V30 12304 O 1176.38 -1.37392 -2.3417 0
M  V30 12305 C 1174.84 -3.49482 -0.859685 0
M  V30 12306 C 1174.44 -4.47031 0.294572 0
M  V30 12307 C 1176.19 -3.98296 -1.46835 0
M  V30 12308 C 1174.09 -5.91254 -0.131279 0
M  V30 12309 H 1173.02 -0.733765 -0.17351 0
M  V30 12310 H 1175.68 -1.8139 0.277485 0
M  V30 12311 H 1174.06 -3.60082 -1.64793 0
M  V30 12312 H 1175.23 -4.48156 1.07205 0
M  V30 12313 H 1173.55 -4.08362 0.814197 0
M  V30 12314 H 1176.14 -5.03518 -1.79928 0
M  V30 12315 H 1176.49 -3.42123 -2.37186 0
M  V30 12316 H 1177.02 -3.90776 -0.744247 0
M  V30 12317 H 1173.76 -6.51334 0.737839 0
M  V30 12318 H 1173.28 -5.93401 -0.873786 0
M  V30 12319 H 1174.96 -6.44485 -0.569913 0
M  V30 12320 N 1175.09 0.086862 -1.5736 0
M  V30 12321 C 1176.51 0.441284 -1.53378 0
M  V30 12322 C 1176.71 1.80046 -0.904748 0
M  V30 12323 O 1175.76 2.47484 -0.500781 0
M  V30 12324 C 1177.07 0.3962 -2.98078 0
M  V30 12325 C 1178.62 0.477468 -3.09337 0
M  V30 12326 C 1179.1 0.462448 -4.55659 0
M  V30 12327 N 1180.59 0.522963 -4.60238 0
M  V30 12328 C 1181.32 0.533313 -5.70914 0
M  V30 12329 N 1180.82 0.499376 -6.90998 0
M  V30 12330 N 1182.61 0.578742 -5.59113 0
M  V30 12331 H 1174.76 -0.803308 -1.96623 0
M  V30 12332 H 1177.03 -0.299879 -0.89932 0
M  V30 12333 H 1176.73 -0.535505 -3.47599 0
M  V30 12334 H 1176.61 1.21209 -3.57195 0
M  V30 12335 H 1178.99 1.39959 -2.59799 0
M  V30 12336 H 1179.07 -0.366717 -2.53158 0
M  V30 12337 H 1178.72 -0.455768 -5.05851 0
M  V30 12338 H 1178.65 1.32396 -5.09685 0
M  V30 12339 H 1181.14 0.554051 -3.73816 0
M  V30 12340 H 1181.45 0.510784 -7.7111 0
M  V30 12341 H 1179.8 0.466296 -6.93434 0
M  V30 12342 H 1182.99 0.602841 -4.64202 0
M  V30 12343 H 1183.16 0.583339 -6.45369 0
M  V30 12344 N 1176.57 1.53483 0.357892 0
M  V30 12345 C 1177.5 1.75257 1.46151 0
M  V30 12346 C 1178.48 0.601167 1.51079 0
M  V30 12347 O 1179.66 0.834661 1.69014 0
M  V30 12348 C 1176.79 1.8383 2.84472 0
M  V30 12349 C 1175.84 3.05866 2.97234 0
M  V30 12350 S 1176.67 4.65225 2.6519 0
M  V30 12351 C 1177.82 4.76657 4.05646 0
M  V30 12352 H 1178.06 2.6859 1.27462 0
M  V30 12353 H 1175.59 1.44169 0.552697 0
M  V30 12354 H 1177.55 1.89454 3.64167 0
M  V30 12355 H 1176.21 0.915345 3.00467 0
M  V30 12356 H 1175.4 3.08497 3.98555 0
M  V30 12357 H 1175 2.98393 2.25471 0
M  V30 12358 H 1177.3 4.57185 4.99988 0
M  V30 12359 H 1178.24 5.7873 4.08016 0
M  V30 12360 H 1178.65 4.05226 3.93004 0
M  V30 12361 N 1178.05 -0.61812 1.44973 0
M  V30 12362 C 1179.29 -1.37468 1.48145 0
M  V30 12363 C 1179.61 -1.94628 0.120366 0
M  V30 12364 O 1178.88 -1.76548 -0.848982 0
M  V30 12365 H 1177.46 -0.510293 0.545536 0
M  V30 12366 H 1180.13 -0.726598 1.8085 0
M  V30 12367 H 1179.22 -2.19944 2.2143 0
M  V30 12368 N 1179.52 -1.32087 -0.859693 0
M  V30 12369 C 1180.77 -1.21716 -1.60836 0
M  V30 12370 C 1181.09 0.220904 -1.94349 0
M  V30 12371 O 1182.29 0.446422 -2.67805 0
M  V30 12372 C 1180.75 -2.13143 -2.89997 0
M  V30 12373 C 1180.36 -3.62003 -2.63928 0
M  V30 12374 C 1182.1 -2.11596 -3.68004 0
M  V30 12375 C 1180.01 -4.45407 -3.89059 0
M  V30 12376 H 1178.94 -0.45199 -0.603507 0
M  V30 12377 H 1181.59 -1.57013 -0.949687 0
M  V30 12378 H 1179.97 -1.70755 -3.57294 0
M  V30 12379 H 1181.14 -4.12701 -2.04974 0
M  V30 12380 H 1179.46 -3.6563 -1.99258 0
M  V30 12381 H 1182.06 -2.71149 -4.6085 0
M  V30 12382 H 1182.4 -1.10568 -4.01348 0
M  V30 12383 H 1182.93 -2.52238 -3.07605 0
M  V30 12384 H 1179.67 -5.4723 -3.60859 0
M  V30 12385 H 1179.19 -3.99462 -4.47427 0
M  V30 12386 H 1180.87 -4.58149 -4.56846 0
M  V30 12387 N 1181 1.07532 -1.15215 0
M  V30 12388 C 1182.25 1.80093 -0.925891 0
M  V30 12389 C 1182.58 1.86648 0.547079 0
M  V30 12390 O 1181.83 1.34492 1.42164 0
M  V30 12391 C 1182.13 3.2518 -1.483 0
M  V30 12392 C 1181.8 3.38728 -2.97614 0
M  V30 12393 C 1180.46 3.42133 -3.38376 0
M  V30 12394 C 1182.81 3.41676 -3.93583 0
M  V30 12395 C 1180.14 3.46086 -4.73752 0
M  V30 12396 C 1182.49 3.47166 -5.28828 0
M  V30 12397 C 1181.15 3.48847 -5.69089 0
M  V30 12398 H 1180.42 0.659007 -0.338808 0
M  V30 12399 H 1183.07 1.26548 -1.43728 0
M  V30 12400 H 1181.38 3.81493 -0.892751 0
M  V30 12401 H 1183.07 3.79895 -1.28376 0
M  V30 12402 H 1179.66 3.36775 -2.65105 0
M  V30 12403 H 1183.85 3.38268 -3.63165 0
M  V30 12404 H 1179.1 3.45686 -5.04293 0
M  V30 12405 H 1183.28 3.48393 -6.02989 0
M  V30 12406 H 1180.9 3.51663 -6.73971 0
M  V30 12407 N 1182.48 0.948665 1.2585 0
M  V30 12408 C 1183.89 0.641829 1.75321 0
M  V30 12409 C 1184.24 -0.842903 1.77171 0
M  V30 12410 O 1183.37 -1.65967 1.38867 0
M  V30 12411 C 1183.96 1.15835 3.18383 0
M  V30 12412 C 1182.52 0.901784 3.65438 0
M  V30 12413 C 1181.67 1.30489 2.44679 0
M  V30 12414 H 1184.62 1.12614 1.1182 0
M  V30 12415 H 1184.64 0.515639 3.7699 0
M  V30 12416 H 1184.15 2.23897 3.17004 0
M  V30 12417 H 1182.25 -0.164135 3.72238 0
M  V30 12418 H 1182.37 1.53405 4.53876 0
M  V30 12419 H 1180.73 0.723278 2.44215 0
M  V30 12420 H 1181.51 2.3946 2.45996 0
M  V30 12421 N 1183.96 -1.40369 0.716545 0
M  V30 12422 C 1184.87 -2.34508 0.065658 0
M  V30 12423 C 1185.88 -1.57352 -0.742723 0
M  V30 12424 O 1187.06 -1.89735 -0.675456 0
M  V30 12425 C 1184.13 -3.36262 -0.844337 0
M  V30 12426 C 1183.19 -4.29292 -0.0257971 0
M  V30 12427 C 1182.42 -5.26185 -0.892452 0
M  V30 12428 O 1182.64 -5.29071 -2.13166 0
M  V30 12429 O 1181.58 -6.0099 -0.330933 0
M  V30 12430 H 1185.4 -2.91789 0.842184 0
M  V30 12431 H 1182.99 -1.41579 0.477034 0
M  V30 12432 H 1184.87 -3.98661 -1.36555 0
M  V30 12433 H 1183.54 -2.81393 -1.59999 0
M  V30 12434 H 1182.45 -3.70175 0.540512 0
M  V30 12435 H 1183.78 -4.87316 0.69166 0
M  V30 12436 N 1185.44 -0.462799 -1.50652 0
M  V30 12437 C 1186.66 0.0952726 -2.07181 0
M  V30 12438 C 1187.09 1.33479 -1.32533 0
M  V30 12439 O 1186.44 1.77473 -0.370564 0
M  V30 12440 C 1186.49 0.370592 -3.58691 0
M  V30 12441 O 1185.6 1.4526 -3.85971 0
M  V30 12442 H 1184.94 -0.00932702 -0.663934 0
M  V30 12443 H 1187.47 -0.651458 -1.93951 0
M  V30 12444 H 1187.48 0.613551 -4.0336 0
M  V30 12445 H 1186.15 -0.535219 -4.12442 0
M  V30 12446 H 1184.73 1.1976 -3.53146 0
M  V30 12447 N 1186.91 1.56388 -0.195085 0
M  V30 12448 C 1187.84 2.22091 0.720971 0
M  V30 12449 C 1188.83 1.184 1.22128 0
M  V30 12450 O 1190.01 1.46907 1.27012 0
M  V30 12451 C 1187.14 2.88025 1.94059 0
M  V30 12452 C 1186.09 3.97959 1.5752 0
M  V30 12453 C 1185.42 4.51058 2.87143 0
M  V30 12454 C 1186.72 5.16365 0.785145 0
M  V30 12455 H 1188.41 2.98898 0.173245 0
M  V30 12456 H 1185.96 1.43767 0.0818868 0
M  V30 12457 H 1187.91 3.32671 2.58666 0
M  V30 12458 H 1186.64 2.08623 2.51285 0
M  V30 12459 H 1185.3 3.54004 0.952715 0
M  V30 12460 H 1184.94 3.68418 3.42458 0
M  V30 12461 H 1184.64 5.25237 2.63439 0
M  V30 12462 H 1186.17 4.98406 3.52738 0
M  V30 12463 H 1187.58 5.57556 1.33431 0
M  V30 12464 H 1185.98 5.9661 0.646231 0
M  V30 12465 H 1187.05 4.84428 -0.213789 0
M  V30 12466 N 1188.39 -0.0785156 1.57404 0
M  V30 12467 C 1189.36 -1.07835 2.02248 0
M  V30 12468 C 1190.36 -1.31987 0.918475 0
M  V30 12469 O 1191.55 -1.27821 1.18353 0
M  V30 12470 C 1188.68 -2.42361 2.39737 0
M  V30 12471 H 1189.87 -0.691995 2.91807 0
M  V30 12472 H 1187.42 -0.32405 1.52904 0
M  V30 12473 H 1188.16 -2.85841 1.53183 0
M  V30 12474 H 1187.94 -2.26174 3.20293 0
M  V30 12475 H 1189.43 -3.14241 2.75031 0
M  V30 12476 N 1189.87 -1.5367 -0.349747 0
M  V30 12477 C 1191.29 -1.43796 -0.692457 0
M  V30 12478 C 1191.49 -0.58972 -1.92677 0
M  V30 12479 O 1190.54 -0.078294 -2.52379 0
M  V30 12480 C 1191.86 -2.872 -0.890881 0
M  V30 12481 C 1193.4 -2.96935 -0.989892 0
M  V30 12482 C 1193.88 -4.41433 -1.22068 0
M  V30 12483 N 1195.37 -4.44932 -1.28802 0
M  V30 12484 C 1196.1 -5.53864 -1.48398 0
M  V30 12485 N 1195.6 -6.72814 -1.65208 0
M  V30 12486 N 1197.39 -5.41467 -1.50896 0
M  V30 12487 H 1189.54 -2.07317 0.461895 0
M  V30 12488 H 1191.81 -0.936895 0.144681 0
M  V30 12489 H 1191.51 -3.51656 -0.0555095 0
M  V30 12490 H 1191.39 -3.31784 -1.79442 0
M  V30 12491 H 1193.77 -2.32622 -1.81579 0
M  V30 12492 H 1193.86 -2.55721 -0.0633906 0
M  V30 12493 H 1193.5 -5.06325 -0.399729 0
M  V30 12494 H 1193.43 -4.80233 -2.16064 0
M  V30 12495 H 1195.92 -3.59214 -1.17361 0
M  V30 12496 H 1196.23 -7.51598 -1.79779 0
M  V30 12497 H 1194.58 -6.7577 -1.62356 0
M  V30 12498 H 1197.77 -4.47498 -1.37342 0
M  V30 12499 H 1197.94 -6.26423 -1.65826 0
M  V30 12500 N 1191.35 0.610423 -1.45298 0
M  V30 12501 C 1192.6 1.36951 -1.49167 0
M  V30 12502 C 1192.92 1.9405 -0.132292 0
M  V30 12503 O 1192.18 1.75363 0.868686 0
M  V30 12504 C 1192.48 2.53812 -2.51623 0
M  V30 12505 C 1192.14 2.14877 -3.96407 0
M  V30 12506 C 1190.81 2.03972 -4.35831 0
M  V30 12507 C 1193.16 1.84448 -4.87472 0
M  V30 12508 C 1190.49 1.60856 -5.64218 0
M  V30 12509 C 1192.84 1.42818 -6.16268 0
M  V30 12510 C 1191.5 1.3047 -6.54625 0
M  V30 12511 H 1190.77 0.501138 -0.54584 0
M  V30 12512 H 1193.42 0.690221 -1.78629 0
M  V30 12513 H 1191.72 3.27066 -2.1572 0
M  V30 12514 H 1193.42 3.12041 -2.51856 0
M  V30 12515 H 1190.01 2.2429 -3.65229 0
M  V30 12516 H 1194.19 1.91771 -4.57753 0
M  V30 12517 H 1189.45 1.49916 -5.92735 0
M  V30 12518 H 1193.62 1.18318 -6.86275 0
M  V30 12519 H 1191.25 0.968347 -7.54007 0
M  V30 12520 N 1192.83 1.32541 0.852676 0
M  V30 12521 C 1194.06 1.26037 1.63702 0
M  V30 12522 C 1194.46 -0.173583 1.88402 0
M  V30 12523 O 1193.81 -1.12175 1.45473 0
M  V30 12524 C 1193.87 1.95245 3.01861 0
M  V30 12525 C 1193.53 3.44576 3.00193 0
M  V30 12526 C 1194.53 4.40026 2.76899 0
M  V30 12527 C 1192.22 3.86541 3.20766 0
M  V30 12528 C 1194.21 5.75414 2.74185 0
M  V30 12529 C 1191.9 5.22038 3.17678 0
M  V30 12530 C 1192.89 6.16286 2.94416 0
M  V30 12531 O 1192.58 7.49303 2.91206 0
M  V30 12532 H 1192.31 0.436073 0.516543 0
M  V30 12533 H 1194.87 1.75251 1.07127 0
M  V30 12534 H 1193.1 1.40603 3.60233 0
M  V30 12535 H 1194.79 1.82423 3.62597 0
M  V30 12536 H 1195.55 4.0893 2.6077 0
M  V30 12537 H 1191.43 3.13603 3.37897 0
M  V30 12538 H 1194.98 6.4895 2.55947 0
M  V30 12539 H 1190.87 5.52762 3.33353 0
M  V30 12540 H 1191.64 7.58686 3.07146 0
M  V30 12541 N 1194.3 -1.0692 1.15784 0
M  V30 12542 C 1195.55 -1.78983 0.929944 0
M  V30 12543 C 1195.87 -1.87884 -0.543969 0
M  V30 12544 O 1197.07 -2.56513 -0.889578 0
M  V30 12545 C 1195.53 -3.21657 1.61446 0
M  V30 12546 C 1195.14 -3.20943 3.12569 0
M  V30 12547 C 1196.88 -3.98299 1.46828 0
M  V30 12548 C 1194.79 -4.58298 3.73788 0
M  V30 12549 H 1193.72 -0.670809 0.344284 0
M  V30 12550 H 1196.37 -1.19975 1.38846 0
M  V30 12551 H 1194.75 -3.80885 1.08364 0
M  V30 12552 H 1195.92 -2.71334 3.72444 0
M  V30 12553 H 1194.24 -2.57799 3.26999 0
M  V30 12554 H 1196.84 -4.99822 1.89952 0
M  V30 12555 H 1197.18 -4.14213 0.416358 0
M  V30 12556 H 1197.71 -3.45577 1.97031 0
M  V30 12557 H 1194.45 -4.47588 4.789 0
M  V30 12558 H 1193.97 -5.08126 3.18698 0
M  V30 12559 H 1195.65 -5.27262 3.74972 0
M  V30 12560 N 1195.78 -0.955326 -1.25345 0
M  V30 12561 C 1196.75 -0.480564 -2.24105 0
M  V30 12562 C 1197.75 0.416123 -1.55322 0
M  V30 12563 O 1198.94 0.213315 -1.72889 0
M  V30 12564 C 1196.07 0.305589 -3.39528 0
M  V30 12565 H 1197.26 -1.35349 -2.6762 0
M  V30 12566 H 1194.81 -0.738673 -1.37744 0
M  V30 12567 H 1195.55 1.19615 -3.01434 0
M  V30 12568 H 1195.33 -0.337719 -3.90643 0
M  V30 12569 H 1196.82 0.627201 -4.12863 0
M  V30 12570 N 1197.26 1.39987 -0.723979 0
M  V30 12571 C 1198.17 2.3447 -0.0780936 0
M  V30 12572 C 1199.19 1.57744 0.734368 0
M  V30 12573 O 1200.36 1.90091 0.665385 0
M  V30 12574 C 1197.43 3.36705 0.826492 0
M  V30 12575 C 1196.49 4.293 0.00303036 0
M  V30 12576 C 1195.72 5.26651 0.864535 0
M  V30 12577 O 1195.95 5.30194 2.10357 0
M  V30 12578 O 1194.88 6.01157 0.299057 0
M  V30 12579 H 1198.71 2.91338 -0.857646 0
M  V30 12580 H 1196.29 1.41324 -0.484536 0
M  V30 12581 H 1198.17 3.9938 1.34439 0
M  V30 12582 H 1196.85 2.82237 1.58505 0
M  V30 12583 H 1195.75 3.69883 -0.560136 0
M  V30 12584 H 1197.09 4.86942 -0.717494 0
M  V30 12585 N 1198.74 0.470782 1.50404 0
M  V30 12586 C 1199.67 -0.313458 2.31386 0
M  V30 12587 C 1200.65 -0.990623 1.38278 0
M  V30 12588 O 1201.84 -0.987854 1.67198 0
M  V30 12589 C 1198.97 -1.39599 3.18009 0
M  V30 12590 C 1197.92 -0.840443 4.19667 0
M  V30 12591 C 1197.25 -2.02124 4.95025 0
M  V30 12592 C 1198.55 0.148055 5.2209 0
M  V30 12593 H 1200.24 0.362432 2.97198 0
M  V30 12594 H 1197.79 0.175745 1.42924 0
M  V30 12595 H 1199.74 -1.9521 3.73458 0
M  V30 12596 H 1198.46 -2.10064 2.50081 0
M  V30 12597 H 1197.12 -0.306302 3.65318 0
M  V30 12598 H 1196.77 -2.71286 4.23571 0
M  V30 12599 H 1196.47 -1.65574 5.6379 0
M  V30 12600 H 1197.99 -2.58226 5.5331 0
M  V30 12601 H 1199.41 -0.318874 5.72413 0
M  V30 12602 H 1197.8 0.427811 5.98573 0
M  V30 12603 H 1198.87 1.07404 4.72855 0
M  V30 12604 N 1200.22 -1.56282 0.203376 0
M  V30 12605 C 1201.45 -2.02198 -0.438572 0
M  V30 12606 C 1201.86 -1.08343 -1.54619 0
M  V30 12607 O 1201.22 -0.0897594 -1.82279 0
M  V30 12608 C 1201.27 -3.4776 -0.987184 0
M  V30 12609 O 1200.99 -4.38034 0.0762552 0
M  V30 12610 C 1202.49 -4.09234 -1.70419 0
M  V30 12611 H 1199.71 -0.662041 -0.109282 0
M  V30 12612 H 1202.25 -2.02067 0.314509 0
M  V30 12613 H 1200.41 -3.48564 -1.69061 0
M  V30 12614 H 1200.82 -5.2344 -0.333322 0
M  V30 12615 H 1202.3 -5.1291 -2.04027 0
M  V30 12616 H 1202.77 -3.53172 -2.61087 0
M  V30 12617 H 1203.38 -4.12226 -1.04641 0
M  V30 12618 N 1201.7 0.070167 -1.57444 0
M  V30 12619 C 1202.94 0.774338 -1.89165 0
M  V30 12620 C 1203.3 1.7466 -0.797353 0
M  V30 12621 O 1204.5 2.49599 -0.997682 0
M  V30 12622 C 1202.77 1.46235 -3.26114 0
M  V30 12623 S 1204.33 2.20136 -3.79586 0
M  V30 12624 H 1201.15 0.257464 -0.662747 0
M  V30 12625 H 1203.75 0.0303734 -1.95476 0
M  V30 12626 H 1202.45 0.740942 -4.03656 0
M  V30 12627 H 1201.99 2.24571 -3.23004 0
M  V30 12628 H 1204 3.4668 -3.55003 0
M  V30 12629 N 1203.17 1.53854 0.341593 0
M  V30 12630 C 1204.14 1.8128 1.40251 0
M  V30 12631 C 1205.14 0.683915 1.45531 0
M  V30 12632 O 1206.33 0.952202 1.45872 0
M  V30 12633 C 1203.46 1.95658 2.79161 0
M  V30 12634 H 1204.65 2.76053 1.17195 0
M  V30 12635 H 1202.2 1.45296 0.57609 0
M  V30 12636 H 1202.94 1.03034 3.07497 0
M  V30 12637 H 1202.72 2.77788 2.76724 0
M  V30 12638 H 1204.21 2.18387 3.55945 0
M  V30 12639 N 1204.65 -0.602709 1.4562 0
M  V30 12640 C 1205.9 -1.36359 1.50113 0
M  V30 12641 C 1206.23 -1.93663 0.144297 0
M  V30 12642 O 1205.51 -1.75337 -0.841851 0
M  V30 12643 C 1205.79 -2.50788 2.58413 0
M  V30 12644 C 1205.64 -1.98649 4.03557 0
M  V30 12645 C 1206.96 -3.52905 2.62957 0
M  V30 12646 H 1204.08 -0.494455 0.54652 0
M  V30 12647 H 1206.72 -0.678957 1.77455 0
M  V30 12648 H 1204.87 -3.09191 2.3523 0
M  V30 12649 H 1206.54 -1.44857 4.37966 0
M  V30 12650 H 1204.79 -1.29615 4.13984 0
M  V30 12651 H 1205.46 -2.81159 4.7503 0
M  V30 12652 H 1207.93 -3.0435 2.83743 0
M  V30 12653 H 1206.81 -4.30454 3.40589 0
M  V30 12654 H 1207.07 -4.0884 1.68233 0
M  V30 12655 N 1206.13 -1.32992 -0.845635 0
M  V30 12656 C 1207.04 -1.24701 -1.98713 0
M  V30 12657 C 1208.06 -0.158864 -1.73273 0
M  V30 12658 O 1209.23 -0.381209 -1.97759 0
M  V30 12659 C 1206.3 -0.979524 -3.32575 0
M  V30 12660 C 1205.36 -2.15701 -3.71176 0
M  V30 12661 C 1204.59 -1.90219 -4.98651 0
M  V30 12662 O 1204.81 -0.849171 -5.64044 0
M  V30 12663 O 1203.75 -2.76571 -5.34595 0
M  V30 12664 H 1207.57 -2.20683 -2.08645 0
M  V30 12665 H 1205.16 -1.12971 -0.97765 0
M  V30 12666 H 1207.04 -0.847219 -4.12796 0
M  V30 12667 H 1205.72 -0.0499398 -3.23661 0
M  V30 12668 H 1204.62 -2.34483 -2.91494 0
M  V30 12669 H 1205.96 -3.0697 -3.84747 0
M  V30 12670 N 1207.61 1.06304 -1.1635 0
M  V30 12671 C 1208.83 1.83338 -0.969639 0
M  V30 12672 C 1209.26 1.81945 0.477231 0
M  V30 12673 O 1208.62 1.22018 1.34094 0
M  V30 12674 C 1208.66 3.2785 -1.50155 0
M  V30 12675 O 1207.77 4.06281 -0.707805 0
M  V30 12676 H 1207.11 0.567293 -0.345072 0
M  V30 12677 H 1209.64 1.34033 -1.54584 0
M  V30 12678 H 1209.65 3.7867 -1.51898 0
M  V30 12679 H 1208.32 3.28179 -2.55483 0
M  V30 12680 H 1206.9 3.65055 -0.760872 0
M  V30 12681 N 1209.09 0.96196 1.24836 0
M  V30 12682 C 1210.33 0.621634 1.93038 0
M  V30 12683 C 1210.66 -0.840257 1.75081 0
M  V30 12684 O 1209.94 -1.60381 1.10038 0
M  V30 12685 C 1210.22 0.990107 3.46221 0
M  V30 12686 C 1210.08 2.50827 3.73371 0
M  V30 12687 C 1211.39 0.520478 4.37011 0
M  V30 12688 H 1208.51 0.227312 0.701069 0
M  V30 12689 H 1211.16 1.19993 1.47315 0
M  V30 12690 H 1209.31 0.498008 3.85295 0
M  V30 12691 H 1210.98 3.07469 3.4389 0
M  V30 12692 H 1209.22 2.94277 3.18722 0
M  V30 12693 H 1209.89 2.71659 4.80526 0
M  V30 12694 H 1212.37 0.942703 4.05281 0
M  V30 12695 H 1211.24 0.806918 5.42937 0
M  V30 12696 H 1211.5 -0.579507 4.38285 0
M  V30 12697 N 1210.56 -1.39601 0.731392 0
M  V30 12698 C 1211.51 -2.27907 0.0651931 0
M  V30 12699 C 1212.5 -1.44075 -0.716334 0
M  V30 12700 O 1213.69 -1.6702 -0.585936 0
M  V30 12701 C 1210.82 -3.32763 -0.844023 0
M  V30 12702 C 1209.9 -4.24062 -0.0568388 0
M  V30 12703 N 1210.3 -4.96448 0.968146 0
M  V30 12704 C 1208.59 -4.45075 -0.287037 0
M  V30 12705 C 1209.29 -5.6353 1.44252 0
M  V30 12706 N 1208.27 -5.38236 0.761772 0
M  V30 12707 H 1212.07 -2.81324 0.850539 0
M  V30 12708 H 1209.59 -1.5224 0.565396 0
M  V30 12709 H 1211.58 -3.94888 -1.33674 0
M  V30 12710 H 1210.24 -2.80905 -1.62857 0
M  V30 12711 H 1211.25 -5.00011 1.34942 0
M  V30 12712 H 1207.93 -4.04167 -1.04667 0
M  V30 12713 H 1209.32 -6.31487 2.29508 0
M  V30 12714 N 1212.04 -0.478751 -1.50152 0
M  V30 12715 C 1212.99 0.311426 -2.28689 0
M  V30 12716 C 1213.96 0.980375 -1.34082 0
M  V30 12717 O 1215.14 0.991337 -1.63025 0
M  V30 12718 C 1212.28 1.38302 -3.16175 0
M  V30 12719 C 1211.4 0.728084 -4.2582 0
M  V30 12720 C 1210.53 1.77822 -5.00552 0
M  V30 12721 C 1209.57 1.10395 -6.02063 0
M  V30 12722 N 1208.71 2.09728 -6.70044 0
M  V30 12723 H 1213.55 -0.364592 -2.95761 0
M  V30 12724 H 1211.09 -0.191645 -1.45846 0
M  V30 12725 H 1213.04 2.01606 -3.65255 0
M  V30 12726 H 1211.67 2.0281 -2.51133 0
M  V30 12727 H 1210.73 -0.0177026 -3.80396 0
M  V30 12728 H 1212.04 0.196209 -4.98414 0
M  V30 12729 H 1211.19 2.48687 -5.53389 0
M  V30 12730 H 1209.93 2.34392 -4.27682 0
M  V30 12731 H 1208.94 0.38096 -5.48479 0
M  V30 12732 H 1210.16 0.545045 -6.76909 0
M  V30 12733 H 1208.11 2.65301 -5.9996 0
M  V30 12734 H 1208.02 1.61546 -7.38538 0
M  V30 12735 H 1209.29 2.7995 -7.27495 0
M  V30 12736 N 1213.52 1.56172 -0.211661 0
M  V30 12737 C 1214.45 2.15791 0.74225 0
M  V30 12738 C 1215.43 1.0994 1.198 0
M  V30 12739 O 1216.62 1.38143 1.28253 0
M  V30 12740 C 1213.74 2.73021 2.00443 0
M  V30 12741 C 1212.79 3.91611 1.68946 0
M  V30 12742 S 1213.62 5.29139 0.822949 0
M  V30 12743 C 1214.78 5.898 2.09491 0
M  V30 12744 H 1215.01 2.96366 0.235482 0
M  V30 12745 H 1212.54 1.544 0.0035357 0
M  V30 12746 H 1214.5 3.06635 2.7292 0
M  V30 12747 H 1213.16 1.92457 2.48232 0
M  V30 12748 H 1212.36 4.30122 2.62699 0
M  V30 12749 H 1211.96 3.59093 1.04539 0
M  V30 12750 H 1214.25 6.05172 3.04587 0
M  V30 12751 H 1215.19 6.86036 1.75386 0
M  V30 12752 H 1215.6 5.18546 2.23093 0
M  V30 12753 N 1215 -0.0618163 1.57479 0
M  V30 12754 C 1216.25 -0.757569 1.87364 0
M  V30 12755 C 1216.57 -1.77607 0.805025 0
M  V30 12756 O 1215.84 -1.95202 -0.165216 0
M  V30 12757 H 1214.42 -0.28278 0.691408 0
M  V30 12758 H 1217.08 -0.0355354 1.94868 0
M  V30 12759 H 1216.18 -1.26758 2.85199 0
M  V30 12760 N 1216.48 -1.54033 -0.333429 0
M  V30 12761 C 1217.72 -1.71765 -1.07252 0
M  V30 12762 C 1218.05 -0.486135 -1.88327 0
M  V30 12763 O 1217.31 0.532135 -1.88326 0
M  V30 12764 C 1217.61 -2.93926 -2.03328 0
M  V30 12765 C 1217.27 -4.29107 -1.38486 0
M  V30 12766 C 1215.93 -4.6586 -1.20532 0
M  V30 12767 C 1218.29 -5.13041 -0.918624 0
M  V30 12768 C 1215.61 -5.84155 -0.545881 0
M  V30 12769 C 1217.97 -6.3201 -0.273055 0
M  V30 12770 C 1216.63 -6.67451 -0.0812815 0
M  V30 12771 H 1215.9 -0.628532 -0.392464 0
M  V30 12772 H 1218.55 -1.88261 -0.350709 0
M  V30 12773 H 1216.85 -2.72075 -2.81926 0
M  V30 12774 H 1218.55 -3.0484 -2.60526 0
M  V30 12775 H 1215.14 -4.00185 -1.5346 0
M  V30 12776 H 1219.32 -4.8517 -1.04515 0
M  V30 12777 H 1214.58 -6.1018 -0.386009 0
M  V30 12778 H 1218.75 -6.96333 0.0962582 0
M  V30 12779 H 1216.38 -7.58973 0.431734 0
M  V30 12780 N 1217.95 0.594978 -1.45938 0
M  V30 12781 C 1219.2 1.34976 -1.49881 0
M  V30 12782 C 1219.52 1.95025 -0.14983 0
M  V30 12783 O 1220.72 2.71417 -0.0669868 0
M  V30 12784 C 1219.18 2.44563 -2.6404 0
M  V30 12785 C 1218.79 1.9087 -4.05306 0
M  V30 12786 C 1220.53 3.21461 -2.77242 0
M  V30 12787 C 1218.44 2.98013 -5.10825 0
M  V30 12788 H 1217.37 0.507366 -0.55776 0
M  V30 12789 H 1220.02 0.636316 -1.72114 0
M  V30 12790 H 1218.4 3.1865 -2.35114 0
M  V30 12791 H 1219.57 1.23408 -4.43968 0
M  V30 12792 H 1217.89 1.26678 -3.96663 0
M  V30 12793 H 1220.49 4.01399 -3.53246 0
M  V30 12794 H 1220.83 3.73271 -1.84321 0
M  V30 12795 H 1221.36 2.54477 -3.05756 0
M  V30 12796 H 1218.1 2.51104 -6.05497 0
M  V30 12797 H 1217.62 3.64003 -4.7672 0
M  V30 12798 H 1219.3 3.62178 -5.36131 0
M  V30 12799 N 1219.43 1.33438 0.838571 0
M  V30 12800 C 1220.38 1.20285 1.93689 0
M  V30 12801 C 1221.37 0.105686 1.60553 0
M  V30 12802 O 1222.56 0.333814 1.73824 0
M  V30 12803 C 1219.69 0.944544 3.3005 0
M  V30 12804 C 1218.77 2.08416 3.69356 0
M  V30 12805 N 1219.16 3.33415 3.80353 0
M  V30 12806 C 1217.46 1.99092 3.99097 0
M  V30 12807 C 1218.16 4.08159 4.14465 0
M  V30 12808 N 1217.14 3.36601 4.2685 0
M  V30 12809 H 1220.94 2.1503 2.00348 0
M  V30 12810 H 1218.46 1.2545 1.03131 0
M  V30 12811 H 1220.45 0.831242 4.08529 0
M  V30 12812 H 1219.11 0.00562273 3.247 0
M  V30 12813 H 1220.12 3.68159 3.64252 0
M  V30 12814 H 1216.8 1.12861 4.01956 0
M  V30 12815 H 1218.19 5.16027 4.30308 0
M  V30 12816 N 1220.91 -1.05686 1.16912 0
M  V30 12817 C 1222.33 -1.30744 0.915327 0
M  V30 12818 C 1222.53 -1.96895 -0.428344 0
M  V30 12819 O 1221.58 -2.23941 -1.16647 0
M  V30 12820 C 1222.9 -2.18209 2.06894 0
M  V30 12821 C 1224.44 -2.31607 2.1054 0
M  V30 12822 C 1224.92 -3.2243 3.25273 0
M  V30 12823 N 1226.41 -3.30015 3.2503 0
M  V30 12824 C 1227.14 -4.00401 4.10447 0
M  V30 12825 N 1226.64 -4.73256 5.05965 0
M  V30 12826 N 1228.43 -3.96514 3.98413 0
M  V30 12827 H 1220.58 -0.611449 2.03409 0
M  V30 12828 H 1222.85 -0.332188 0.887894 0
M  V30 12829 H 1222.55 -1.76887 3.0398 0
M  V30 12830 H 1222.43 -3.18823 2.01573 0
M  V30 12831 H 1224.81 -2.72173 1.14044 0
M  V30 12832 H 1224.9 -1.30639 2.19925 0
M  V30 12833 H 1224.54 -2.82579 4.22032 0
M  V30 12834 H 1224.47 -4.23392 3.13125 0
M  V30 12835 H 1226.96 -2.781 2.55869 0
M  V30 12836 H 1227.27 -5.24509 5.67547 0
M  V30 12837 H 1225.62 -4.72215 5.09939 0
M  V30 12838 H 1228.81 -3.38719 3.2309 0
M  V30 12839 H 1228.98 -4.511 4.65202 0
M  V30 12840 N 1222.39 -0.968567 -1.24324 0
M  V30 12841 C 1223.67 -0.547774 -1.87773 0
M  V30 12842 C 1224.05 0.975107 -1.87229 0
M  V30 12843 O 1223.39 1.84683 -1.34553 0
M  V30 12844 C 1223.6 -1.1403 -3.29846 0
M  V30 12845 C 1224.95 -1.22572 -4.06523 0
M  V30 12846 O 1225.98 -1.09287 -3.3902 0
M  V30 12847 O 1224.83 -1.43579 -5.27302 0
M  V30 12848 H 1221.93 -0.182771 -0.806551 0
M  V30 12849 H 1224.47 -1.06289 -1.3229 0
M  V30 12850 H 1223.25 -2.18303 -3.24745 0
M  V30 12851 H 1222.87 -0.609275 -3.92904 0
M  V30 12852 N 1223.87 1.39211 -0.738786 0
M  V30 12853 C 1225.12 1.99673 -0.285254 0
M  V30 12854 C 1225.43 1.59297 1.13507 0
M  V30 12855 O 1226.63 2.12622 1.68832 0
M  V30 12856 C 1225.09 3.5696 -0.45906 0
M  V30 12857 C 1224.7 4.06297 -1.88751 0
M  V30 12858 C 1226.44 4.24446 -0.0674954 0
M  V30 12859 C 1224.35 5.56171 -2.01067 0
M  V30 12860 H 1223.28 0.746945 -0.102901 0
M  V30 12861 H 1225.93 1.59163 -0.913209 0
M  V30 12862 H 1224.31 3.95285 0.23785 0
M  V30 12863 H 1225.49 3.79297 -2.61669 0
M  V30 12864 H 1223.8 3.51486 -2.23264 0
M  V30 12865 H 1226.4 5.34521 -0.138475 0
M  V30 12866 H 1226.74 4.04653 0.977823 0
M  V30 12867 H 1227.27 3.91309 -0.715704 0
M  V30 12868 H 1224.01 5.80849 -3.03801 0
M  V30 12869 H 1223.53 5.84961 -1.32591 0
M  V30 12870 H 1225.21 6.21642 -1.79362 0
M  V30 12871 N 1225.34 0.486708 1.49896 0
M  V30 12872 C 1226.29 -0.299294 2.28851 0
M  V30 12873 C 1227.26 -0.973251 1.346 0
M  V30 12874 O 1228.45 -0.982678 1.63548 0
M  V30 12875 C 1225.59 -1.36624 3.16904 0
M  V30 12876 C 1224.7 -0.705492 4.262 0
M  V30 12877 C 1223.83 -1.75165 5.01488 0
M  V30 12878 C 1222.87 -1.072 6.0264 0
M  V30 12879 N 1222.01 -2.06172 6.71147 0
M  V30 12880 H 1226.85 0.380272 2.95564 0
M  V30 12881 H 1224.39 0.199377 1.45743 0
M  V30 12882 H 1226.35 -1.99666 3.66319 0
M  V30 12883 H 1224.98 -2.01476 2.52205 0
M  V30 12884 H 1224.03 0.0378757 3.80381 0
M  V30 12885 H 1225.34 -0.169774 4.98511 0
M  V30 12886 H 1224.49 -2.45749 5.547 0
M  V30 12887 H 1223.23 -2.3212 4.28919 0
M  V30 12888 H 1222.24 -0.351868 5.48673 0
M  V30 12889 H 1223.46 -0.509139 6.77189 0
M  V30 12890 H 1221.41 -2.62115 6.01358 0
M  V30 12891 H 1221.33 -1.57627 7.39385 0
M  V30 12892 H 1222.59 -2.76088 7.28969 0
M  V30 12893 N 1226.82 -1.56058 0.219941 0
M  V30 12894 C 1228.23 -1.84462 -0.288203 0
M  V30 12895 C 1228.59 -1.14128 -1.59591 0
M  V30 12896 O 1227.71 -0.410411 -2.12473 0
M  V30 12897 C 1228.31 -3.34634 -0.529689 0
M  V30 12898 C 1226.86 -3.63361 -0.982145 0
M  V30 12899 C 1226.01 -2.77265 -0.0443292 0
M  V30 12900 H 1228.96 -1.52387 0.44317 0
M  V30 12901 H 1228.98 -3.54752 -1.3759 0
M  V30 12902 H 1228.5 -3.85796 0.422243 0
M  V30 12903 H 1226.6 -3.17653 -1.94749 0
M  V30 12904 H 1226.71 -4.71361 -0.857668 0
M  V30 12905 H 1225.07 -2.48672 -0.550825 0
M  V30 12906 H 1225.86 -3.31225 0.902491 0
M  V30 12907 N 1228.3 0.053464 -1.57509 0
M  V30 12908 C 1229.58 0.783141 -1.79238 0
M  V30 12909 C 1229.96 1.94855 -0.812069 0
M  V30 12910 O 1229.31 2.28 0.151006 0
M  V30 12911 C 1229.52 1.239 -3.26266 0
M  V30 12912 C 1230.86 1.66492 -3.90596 0
M  V30 12913 O 1231.89 1.33421 -3.30269 0
M  V30 12914 O 1230.75 2.27785 -4.96766 0
M  V30 12915 H 1227.84 0.376696 -0.736226 0
M  V30 12916 H 1230.39 0.0321229 -1.6967 0
M  V30 12917 H 1229.16 0.405948 -3.89189 0
M  V30 12918 H 1228.78 2.05078 -3.4063 0
M  V30 12919 N 1229.78 1.54207 0.325255 0
M  V30 12920 C 1230.73 1.84197 1.42036 0
M  V30 12921 C 1231.72 0.71375 1.53629 0
M  V30 12922 O 1232.93 0.897385 1.56035 0
M  V30 12923 H 1229.3 0.583848 0.473947 0
M  V30 12924 H 1231.27 2.7578 1.13965 0
M  V30 12925 C 1230.02 2.08459 2.78281 0
M  V30 12926 H 1229.35 2.94734 2.70133 0
M  V30 12927 H 1230.79 2.33398 3.5398 0
M  V30 12928 C 1229.24 0.875615 3.25322 0
M  V30 12929 O 1229.77 0.0840387 4.01612 0
M  V30 12930 N 1227.98 0.687721 2.82345 0
M  V30 12931 H 1227.53 1.33307 2.20425 0
M  V30 12932 H 1227.49 -0.119687 3.14172 0
M  V30 12933 N 1231.26 -0.58723 1.46251 0
M  V30 12934 C 1232.51 -1.34179 1.50595 0
M  V30 12935 C 1232.82 -1.94943 0.160171 0
M  V30 12936 O 1234.03 -2.71378 0.0813797 0
M  V30 12937 C 1232.48 -2.43159 2.65333 0
M  V30 12938 C 1232.09 -1.88718 4.06312 0
M  V30 12939 C 1233.83 -3.19986 2.78943 0
M  V30 12940 C 1231.74 -2.953 5.12398 0
M  V30 12941 H 1230.67 -0.504401 0.560442 0
M  V30 12942 H 1233.32 -0.627179 1.72449 0
M  V30 12943 H 1231.7 -3.17398 2.368 0
M  V30 12944 H 1232.88 -1.21051 4.44616 0
M  V30 12945 H 1231.19 -1.24572 3.97329 0
M  V30 12946 H 1233.79 -3.9952 3.5537 0
M  V30 12947 H 1234.13 -3.72288 1.86298 0
M  V30 12948 H 1234.67 -2.52852 3.07101 0
M  V30 12949 H 1231.4 -2.4789 6.0682 0
M  V30 12950 H 1230.92 -3.61469 4.78644 0
M  V30 12951 H 1232.6 -3.5933 5.38044 0
M  V30 12952 N 1232.74 -1.33881 -0.831482 0
M  V30 12953 C 1233.67 -1.27384 -1.95693 0
M  V30 12954 C 1234.65 -0.152943 -1.69411 0
M  V30 12955 O 1235.83 -0.34392 -1.9113 0
M  V30 12956 C 1232.96 -1.01982 -3.31989 0
M  V30 12957 C 1231.92 -2.10445 -3.72689 0
M  V30 12958 C 1231.24 -1.70245 -5.06873 0
M  V30 12959 C 1232.54 -3.52194 -3.8569 0
M  V30 12960 H 1234.24 -2.21549 -2.01386 0
M  V30 12961 H 1231.78 -1.06653 -0.967526 0
M  V30 12962 H 1233.73 -0.960841 -4.103 0
M  V30 12963 H 1232.46 -0.0425709 -3.26572 0
M  V30 12964 H 1231.12 -2.15398 -2.96647 0
M  V30 12965 H 1230.77 -0.712036 -4.97935 0
M  V30 12966 H 1230.47 -2.42834 -5.35075 0
M  V30 12967 H 1231.99 -1.65827 -5.87651 0
M  V30 12968 H 1233.4 -3.49701 -4.54293 0
M  V30 12969 H 1231.8 -4.23331 -4.25336 0
M  V30 12970 H 1232.87 -3.9016 -2.87929 0
M  V30 12971 N 1234.21 1.05064 -1.1747 0
M  V30 12972 C 1235.46 1.77481 -0.958301 0
M  V30 12973 C 1235.78 1.88725 0.51401 0
M  V30 12974 O 1236.98 2.57895 0.848657 0
M  V30 12975 C 1235.44 3.19048 -1.66543 0
M  V30 12976 C 1235.05 3.1593 -3.17636 0
M  V30 12977 C 1236.79 3.95912 -1.53146 0
M  V30 12978 C 1234.7 4.52293 -3.81032 0
M  V30 12979 H 1233.63 0.665247 -0.354913 0
M  V30 12980 H 1236.28 1.17751 -1.40737 0
M  V30 12981 H 1234.66 3.79113 -1.1441 0
M  V30 12982 H 1235.83 2.65375 -3.76713 0
M  V30 12983 H 1234.15 2.52564 -3.31059 0
M  V30 12984 H 1236.75 4.96737 -1.9788 0
M  V30 12985 H 1237.09 4.13498 -0.482203 0
M  V30 12986 H 1237.62 3.42399 -2.02504 0
M  V30 12987 H 1234.36 4.39913 -4.8596 0
M  V30 12988 H 1233.88 5.02991 -3.26741 0
M  V30 12989 H 1235.56 5.2123 -3.83312 0
M  V30 12990 N 1235.69 0.975146 1.23809 0
M  V30 12991 C 1236.97 0.557725 1.8748 0
M  V30 12992 C 1237.35 -0.965164 1.87744 0
M  V30 12993 O 1236.7 -1.83966 1.35531 0
M  V30 12994 C 1236.91 1.15777 3.29236 0
M  V30 12995 C 1238.25 1.24726 4.05868 0
M  V30 12996 O 1239.28 1.11084 3.38436 0
M  V30 12997 O 1238.14 1.46373 5.26533 0
M  V30 12998 H 1235.23 0.187045 0.80557 0
M  V30 12999 H 1237.78 1.06989 1.31725 0
M  V30 13000 H 1236.55 2.20023 3.23583 0
M  V30 13001 H 1236.17 0.630103 3.92575 0
M  V30 13002 N 1237.17 -1.38817 0.746158 0
M  V30 13003 C 1238.59 -1.53894 0.42294 0
M  V30 13004 C 1238.79 -1.71064 -1.06486 0
M  V30 13005 O 1237.84 -1.71744 -1.85095 0
M  V30 13006 C 1239.15 -2.75029 1.2157 0
M  V30 13007 C 1240.7 -2.88873 1.20504 0
M  V30 13008 C 1241.18 -4.1296 1.9806 0
M  V30 13009 N 1242.67 -4.20022 1.95283 0
M  V30 13010 C 1243.4 -5.15011 2.52093 0
M  V30 13011 N 1242.9 -6.1572 3.17586 0
M  V30 13012 N 1244.69 -5.07308 2.42064 0
M  V30 13013 H 1236.84 -1.25921 1.71049 0
M  V30 13014 H 1239.11 -0.611148 0.724708 0
M  V30 13015 H 1238.81 -2.68722 2.26895 0
M  V30 13016 H 1238.69 -3.68009 0.827593 0
M  V30 13017 H 1241.07 -2.94667 0.159877 0
M  V30 13018 H 1241.15 -1.96925 1.63261 0
M  V30 13019 H 1240.8 -4.07929 3.02583 0
M  V30 13020 H 1240.73 -5.03974 1.52702 0
M  V30 13021 H 1243.22 -3.47892 1.4758 0
M  V30 13022 H 1243.53 -6.84682 3.58373 0
M  V30 13023 H 1241.88 -6.16075 3.21678 0
M  V30 13024 H 1245.07 -4.27569 1.90532 0
M  V30 13025 H 1245.24 -5.81158 2.86635 0
M  V30 13026 N 1238.65 -0.49465 -1.49636 0
M  V30 13027 C 1239.92 0.114829 -1.95263 0
M  V30 13028 C 1240.3 1.54739 -1.43593 0
M  V30 13029 O 1239.65 2.1915 -0.646953 0
M  V30 13030 C 1239.86 0.0339912 -3.48983 0
M  V30 13031 C 1241.21 0.211108 -4.24075 0
M  V30 13032 O 1242.23 0.109478 -3.56032 0
M  V30 13033 O 1241.09 0.418971 -5.44892 0
M  V30 13034 H 1238.19 0.0987883 -0.821078 0
M  V30 13035 H 1240.73 -0.556736 -1.60308 0
M  V30 13036 H 1239.51 -0.965287 -3.79207 0
M  V30 13037 H 1239.13 0.745982 -3.90539 0
M  V30 13038 N 1240.13 1.55939 -0.228214 0
M  V30 13039 C 1241.37 1.98084 0.400884 0
M  V30 13040 C 1241.69 1.11727 1.59819 0
M  V30 13041 O 1240.96 0.195794 1.94919 0
M  V30 13042 H 1239.54 0.731558 0.151102 0
M  V30 13043 H 1242.21 1.92211 -0.322659 0
M  V30 13044 H 1241.3 3.03617 0.722706 0
M  V30 13045 N 1241.6 -0.0451101 1.57535 0
M  V30 13046 C 1242.55 -1.05817 2.01958 0
M  V30 13047 C 1243.54 -1.32963 0.906077 0
M  V30 13048 O 1244.73 -1.32816 1.16999 0
M  V30 13049 C 1241.86 -2.36414 2.48924 0
M  V30 13050 C 1240.95 -2.12428 3.67063 0
M  V30 13051 N 1241.34 -1.58448 4.80341 0
M  V30 13052 C 1239.63 -2.42785 3.74128 0
M  V30 13053 C 1240.34 -1.49896 5.62055 0
M  V30 13054 N 1239.31 -1.96892 5.0669 0
M  V30 13055 H 1243.11 -0.634569 2.86968 0
M  V30 13056 H 1240.63 -0.251719 1.60437 0
M  V30 13057 H 1242.62 -3.09781 2.79001 0
M  V30 13058 H 1241.28 -2.79467 1.65313 0
M  V30 13059 H 1242.3 -1.26939 5.02102 0
M  V30 13060 H 1238.97 -2.89022 3.01285 0
M  V30 13061 H 1240.36 -1.08788 6.63035 0
M  V30 13062 N 1243.08 -1.54377 -0.317073 0
M  V30 13063 C 1244.33 -1.72105 -1.0518 0
M  V30 13064 C 1244.64 -0.505166 -1.88964 0
M  V30 13065 O 1245.85 -0.563912 -2.65579 0
M  V30 13066 C 1244.31 -3.04435 -1.91957 0
M  V30 13067 C 1243.91 -4.33449 -1.13253 0
M  V30 13068 C 1245.66 -3.31524 -2.65127 0
M  V30 13069 C 1243.57 -5.56837 -1.99214 0
M  V30 13070 H 1242.5 -0.641392 -0.396399 0
M  V30 13071 H 1245.15 -1.80868 -0.309673 0
M  V30 13072 H 1243.53 -2.89595 -2.70094 0
M  V30 13073 H 1244.7 -4.59074 -0.39842 0
M  V30 13074 H 1243.02 -4.13173 -0.517372 0
M  V30 13075 H 1245.61 -4.20906 -3.29761 0
M  V30 13076 H 1245.96 -2.49688 -3.33109 0
M  V30 13077 H 1246.49 -3.47261 -1.94048 0
M  V30 13078 H 1243.23 -6.41294 -1.35729 0
M  V30 13079 H 1242.75 -5.35421 -2.70341 0
M  V30 13080 H 1244.43 -5.93488 -2.57646 0
M  V30 13081 N 1244.56 0.579466 -1.4656 0
M  V30 13082 C 1245.51 1.68829 -1.5737 0
M  V30 13083 C 1246.48 1.60759 -0.417825 0
M  V30 13084 O 1247.66 1.79923 -0.635001 0
M  V30 13085 C 1244.8 3.07166 -1.573 0
M  V30 13086 C 1243.92 3.25837 -2.83645 0
M  V30 13087 C 1243.05 4.54441 -2.75057 0
M  V30 13088 C 1242.09 4.66467 -3.96327 0
M  V30 13089 N 1241.23 5.86401 -3.86107 0
M  V30 13090 H 1246.07 1.58928 -2.52083 0
M  V30 13091 H 1243.6 0.774526 -1.25058 0
M  V30 13092 H 1245.56 3.8724 -1.55245 0
M  V30 13093 H 1244.19 3.15956 -0.661166 0
M  V30 13094 H 1243.24 2.39345 -2.95666 0
M  V30 13095 H 1244.56 3.30591 -3.73512 0
M  V30 13096 H 1243.71 5.42748 -2.71126 0
M  V30 13097 H 1242.45 4.52131 -1.82836 0
M  V30 13098 H 1241.45 3.76577 -4.00587 0
M  V30 13099 H 1242.68 4.70554 -4.89649 0
M  V30 13100 H 1240.62 5.85082 -2.96673 0
M  V30 13101 H 1240.54 5.92437 -4.69632 0
M  V30 13102 H 1241.81 6.7713 -3.86155 0
M  V30 13103 N 1246.04 1.3432 0.824371 0
M  V30 13104 C 1246.97 1.2842 1.95014 0
M  V30 13105 C 1247.95 0.161925 1.69328 0
M  V30 13106 O 1249.13 0.354052 1.90945 0
M  V30 13107 C 1246.26 1.03741 3.31444 0
M  V30 13108 C 1245.22 2.12419 3.71567 0
M  V30 13109 C 1244.54 1.72931 5.05963 0
M  V30 13110 C 1245.84 3.54235 3.83817 0
M  V30 13111 H 1247.54 2.22614 2.00209 0
M  V30 13112 H 1245.08 1.07165 0.961856 0
M  V30 13113 H 1247.04 0.982586 4.09784 0
M  V30 13114 H 1245.76 0.0598892 3.26545 0
M  V30 13115 H 1244.42 2.16968 2.955 0
M  V30 13116 H 1244.07 0.738433 4.9755 0
M  V30 13117 H 1243.77 2.45668 5.3378 0
M  V30 13118 H 1245.29 1.68941 5.86763 0
M  V30 13119 H 1246.71 3.52106 4.52432 0
M  V30 13120 H 1245.1 4.25581 4.23085 0
M  V30 13121 H 1246.17 3.91682 2.85856 0
M  V30 13122 N 1247.52 -1.0444 1.18026 0
M  V30 13123 C 1248.74 -1.81234 0.998089 0
M  V30 13124 C 1249.16 -1.83271 -0.453559 0
M  V30 13125 O 1248.52 -1.26545 -1.31502 0
M  V30 13126 C 1248.57 -3.27007 1.54106 0
M  V30 13127 O 1248.29 -3.25174 2.93587 0
M  V30 13128 C 1249.79 -4.20461 1.40455 0
M  V30 13129 H 1247.01 -0.57085 0.352663 0
M  V30 13130 H 1249.55 -1.31649 1.56489 0
M  V30 13131 H 1247.71 -3.73837 1.01611 0
M  V30 13132 H 1248.12 -4.16466 3.18836 0
M  V30 13133 H 1249.6 -5.20695 1.83249 0
M  V30 13134 H 1250.07 -4.37781 0.352713 0
M  V30 13135 H 1250.68 -3.79493 1.92004 0
M  V30 13136 N 1248.99 -0.981699 -1.2329 0
M  V30 13137 C 1250.27 -0.567659 -1.87182 0
M  V30 13138 C 1250.65 0.955194 -1.88253 0
M  V30 13139 O 1250 1.83245 -1.36504 0
M  V30 13140 C 1250.21 -1.17522 -3.28618 0
M  V30 13141 C 1251.56 -1.26877 -4.052 0
M  V30 13142 O 1252.58 -1.12877 -3.37842 0
M  V30 13143 O 1251.44 -1.49163 -5.2575 0
M  V30 13144 H 1248.53 -0.191315 -0.804567 0
M  V30 13145 H 1251.08 -1.07686 -1.31155 0
M  V30 13146 H 1249.85 -2.21735 -3.22411 0
M  V30 13147 H 1249.48 -0.650913 -3.92236 0
M  V30 13148 N 1250.47 1.3842 -0.753509 0
M  V30 13149 C 1251.72 2.00119 -0.309633 0
M  V30 13150 C 1252.05 1.59811 1.10863 0
M  V30 13151 O 1251.3 0.827013 1.77367 0
M  V30 13152 C 1251.6 3.55375 -0.379937 0
M  V30 13153 C 1251.27 4.15393 -1.75384 0
M  V30 13154 C 1249.93 4.31499 -2.12984 0
M  V30 13155 C 1252.28 4.48503 -2.65508 0
M  V30 13156 C 1249.61 4.78011 -3.4018 0
M  V30 13157 C 1251.96 4.96431 -3.92095 0
M  V30 13158 C 1250.63 5.10744 -4.29764 0
M  V30 13159 H 1249.9 0.732286 -0.113303 0
M  V30 13160 H 1252.54 1.65468 -0.963975 0
M  V30 13161 H 1250.85 3.90161 0.357969 0
M  V30 13162 H 1252.54 4.00996 -0.0180738 0
M  V30 13163 H 1249.13 4.03271 -1.45156 0
M  V30 13164 H 1253.32 4.35661 -2.37724 0
M  V30 13165 H 1248.57 4.87277 -3.69284 0
M  V30 13166 H 1252.75 5.21021 -4.62072 0
M  V30 13167 H 1250.38 5.46545 -5.28387 0
M  V30 13168 N 1251.95 0.502579 1.49372 0
M  V30 13169 C 1253.2 -0.0412993 2.02058 0
M  V30 13170 C 1253.52 -1.37338 1.38431 0
M  V30 13171 O 1252.79 -1.88305 0.540175 0
M  V30 13172 H 1251.37 -0.0182522 0.746777 0
M  V30 13173 H 1254.03 0.660179 1.83378 0
M  V30 13174 H 1253.13 -0.169812 3.11638 0
M  V30 13175 N 1253.43 -1.55816 0.23648 0
M  V30 13176 C 1254.36 -2.23924 -0.661834 0
M  V30 13177 C 1255.34 -1.21597 -1.18946 0
M  V30 13178 O 1256.52 -1.50222 -1.23073 0
M  V30 13179 C 1253.65 -2.93069 -1.86355 0
M  V30 13180 C 1252.61 -4.01996 -1.46913 0
M  V30 13181 C 1251.93 -4.58512 -2.75083 0
M  V30 13182 C 1253.23 -5.18265 -0.647964 0
M  V30 13183 H 1254.93 -2.99253 -0.0939368 0
M  V30 13184 H 1252.47 -1.43934 -0.0437407 0
M  V30 13185 H 1254.43 -3.39412 -2.49755 0
M  V30 13186 H 1253.15 -2.15212 -2.45665 0
M  V30 13187 H 1251.81 -3.56406 -0.858522 0
M  V30 13188 H 1251.46 -3.77368 -3.3257 0
M  V30 13189 H 1251.16 -5.32037 -2.49421 0
M  V30 13190 H 1252.68 -5.07583 -3.39399 0
M  V30 13191 H 1254.1 -5.60898 -1.18602 0
M  V30 13192 H 1252.49 -5.98114 -0.487823 0
M  V30 13193 H 1253.56 -4.83691 0.342151 0
M  V30 13194 N 1254.91 0.036755 -1.57557 0
M  V30 13195 C 1256.15 0.734039 -1.90765 0
M  V30 13196 C 1256.51 1.7293 -0.834222 0
M  V30 13197 O 1257.71 2.47427 -1.0504 0
M  V30 13198 C 1255.98 1.39285 -3.29142 0
M  V30 13199 S 1257.54 2.12035 -3.8417 0
M  V30 13200 H 1254.36 0.243349 -0.668059 0
M  V30 13201 H 1256.96 -0.0110968 -1.95497 0
M  V30 13202 H 1255.67 0.655154 -4.05137 0
M  V30 13203 H 1255.2 2.17669 -3.27694 0
M  V30 13204 H 1257.21 3.39072 -3.62277 0
M  V30 13205 N 1256.39 1.54543 0.308881 0
M  V30 13206 C 1257.61 1.77431 1.06422 0
M  V30 13207 C 1258.03 0.529972 1.81209 0
M  V30 13208 O 1257.39 -0.499912 1.7552 0
M  V30 13209 C 1257.44 2.9769 2.05092 0
M  V30 13210 O 1257.16 4.17315 1.33341 0
M  V30 13211 C 1258.66 3.32905 2.92727 0
M  V30 13212 H 1255.88 0.591961 0.315948 0
M  V30 13213 H 1258.42 2.01473 0.350547 0
M  V30 13214 H 1256.58 2.7588 2.71973 0
M  V30 13215 H 1256.99 4.85061 1.99539 0
M  V30 13216 H 1258.47 4.20314 3.57827 0
M  V30 13217 H 1258.94 2.50713 3.6061 0
M  V30 13218 H 1259.55 3.56847 2.31388 0
M  V30 13219 N 1257.86 -0.571685 1.46866 0
M  V30 13220 C 1259.11 -1.32685 1.52444 0
M  V30 13221 C 1259.43 -1.94147 0.182225 0
M  V30 13222 O 1258.7 -1.79159 -0.792385 0
M  V30 13223 H 1257.28 -0.492679 0.561495 0
M  V30 13224 H 1259.94 -0.668694 1.8307 0
M  V30 13225 H 1259.04 -2.12788 2.28315 0
M  V30 13226 N 1259.34 -1.34755 -0.817236 0
M  V30 13227 C 1260.59 -1.27432 -1.57377 0
M  V30 13228 C 1260.92 0.15419 -1.93888 0
M  V30 13229 O 1260.17 1.11686 -1.60701 0
M  V30 13230 C 1260.47 -2.11611 -2.8802 0
M  V30 13231 C 1260.14 -3.60543 -2.70776 0
M  V30 13232 C 1258.8 -4.01141 -2.6578 0
M  V30 13233 C 1261.15 -4.55089 -2.54053 0
M  V30 13234 C 1258.48 -5.34469 -2.41991 0
M  V30 13235 C 1260.83 -5.88603 -2.31795 0
M  V30 13236 C 1259.49 -6.28358 -2.25215 0
M  V30 13237 H 1258.76 -0.466305 -0.575882 0
M  V30 13238 H 1261.41 -1.66552 -0.945128 0
M  V30 13239 H 1259.72 -1.65336 -3.55206 0
M  V30 13240 H 1261.41 -2.03287 -3.45652 0
M  V30 13241 H 1258 -3.2832 -2.75506 0
M  V30 13242 H 1262.19 -4.24617 -2.56932 0
M  V30 13243 H 1257.44 -5.64284 -2.35359 0
M  V30 13244 H 1261.62 -6.61451 -2.17844 0
M  V30 13245 H 1259.24 -7.31604 -2.06543 0
M  V30 13246 N 1260.82 1.03812 -1.18578 0
M  V30 13247 C 1262.24 1.29271 -0.936011 0
M  V30 13248 C 1262.44 1.97551 0.396965 0
M  V30 13249 O 1261.49 2.25769 1.13069 0
M  V30 13250 C 1262.8 2.1489 -2.1034 0
M  V30 13251 C 1264.35 2.28228 -2.14198 0
M  V30 13252 C 1264.83 3.17214 -3.30362 0
M  V30 13253 N 1266.32 3.24802 -3.30239 0
M  V30 13254 C 1267.05 3.9382 -4.16765 0
M  V30 13255 N 1266.55 4.65147 -5.1343 0
M  V30 13256 N 1268.34 3.90125 -4.04671 0
M  V30 13257 H 1260.49 0.579011 -2.04356 0
M  V30 13258 H 1262.76 0.318021 -0.893066 0
M  V30 13259 H 1262.46 1.72029 -3.06755 0
M  V30 13260 H 1262.34 3.15576 -2.06619 0
M  V30 13261 H 1264.72 2.70324 -1.18359 0
M  V30 13262 H 1264.8 1.27124 -2.21976 0
M  V30 13263 H 1264.45 2.75829 -4.26475 0
M  V30 13264 H 1264.38 4.18356 -3.19821 0
M  V30 13265 H 1266.87 2.73994 -2.60261 0
M  V30 13266 H 1267.18 5.15414 -5.7582 0
M  V30 13267 H 1265.53 4.64043 -5.17387 0
M  V30 13268 H 1268.72 3.33536 -3.28438 0
M  V30 13269 H 1268.89 4.43641 -4.7232 0
M  V30 13270 N 1262.3 0.988223 1.22768 0
M  V30 13271 C 1263.54 0.672085 1.91975 0
M  V30 13272 C 1263.9 -0.786719 1.7558 0
M  V30 13273 O 1263.19 -1.561 1.111 0
M  V30 13274 C 1263.39 1.00744 3.42907 0
M  V30 13275 C 1263.21 2.4973 3.73985 0
M  V30 13276 C 1261.98 3.16058 3.94253 0
M  V30 13277 C 1264.18 3.47831 3.78838 0
M  V30 13278 N 1262.16 4.54568 4.12603 0
M  V30 13279 C 1263.54 4.7178 4.02273 0
M  V30 13280 C 1265.59 3.42203 3.61665 0
M  V30 13281 C 1264.29 5.90789 4.10318 0
M  V30 13282 C 1266.32 4.60584 3.70967 0
M  V30 13283 C 1265.68 5.83331 3.94847 0
M  V30 13284 H 1261.78 0.297129 0.723352 0
M  V30 13285 H 1264.36 1.26728 1.47811 0
M  V30 13286 H 1262.54 0.440869 3.8589 0
M  V30 13287 H 1264.27 0.647774 3.99482 0
M  V30 13288 H 1261.02 2.66536 3.91479 0
M  V30 13289 H 1261.45 5.26399 4.25715 0
M  V30 13290 H 1266.09 2.48323 3.42193 0
M  V30 13291 H 1263.81 6.85078 4.28596 0
M  V30 13292 H 1267.39 4.57813 3.59024 0
M  V30 13293 H 1266.27 6.73403 4.01868 0
M  V30 13294 N 1263.78 -1.38018 0.760839 0
M  V30 13295 C 1265 -2.04231 0.331285 0
M  V30 13296 C 1265.42 -1.57385 -1.04285 0
M  V30 13297 O 1264.78 -0.750168 -1.66369 0
M  V30 13298 C 1264.83 -3.59772 0.353021 0
M  V30 13299 O 1264.55 -4.049 1.67294 0
M  V30 13300 C 1266.05 -4.4321 -0.0894942 0
M  V30 13301 H 1263.27 -0.656145 0.140408 0
M  V30 13302 H 1265.81 -1.76567 1.03172 0
M  V30 13303 H 1263.97 -3.86246 -0.298735 0
M  V30 13304 H 1264.38 -4.99369 1.60408 0
M  V30 13305 H 1265.86 -5.51995 -0.0231262 0
M  V30 13306 H 1266.33 -4.2419 -1.13839 0
M  V30 13307 H 1266.94 -4.21939 0.533661 0
M  V30 13308 N 1265.25 -0.510493 -1.49103 0
M  V30 13309 C 1266.2 0.282297 -2.26246 0
M  V30 13310 C 1267.19 0.927187 -1.31499 0
M  V30 13311 O 1268.38 0.833216 -1.56162 0
M  V30 13312 C 1265.51 1.34046 -3.16049 0
M  V30 13313 C 1264.59 0.701334 -4.18261 0
M  V30 13314 N 1264.99 -0.201593 -5.05398 0
M  V30 13315 C 1263.28 0.960822 -4.35527 0
M  V30 13316 C 1263.98 -0.568383 -5.78916 0
M  V30 13317 N 1262.96 0.0659546 -5.4356 0
M  V30 13318 H 1266.76 -0.41264 -2.90989 0
M  V30 13319 H 1264.28 -0.327201 -1.5907 0
M  V30 13320 H 1266.27 1.92195 -3.69955 0
M  V30 13321 H 1264.93 2.03697 -2.52859 0
M  V30 13322 H 1265.94 -0.573004 -5.1472 0
M  V30 13323 H 1262.62 1.64938 -3.83539 0
M  V30 13324 H 1264.01 -1.30763 -6.59053 0
M  V30 13325 N 1266.73 1.55688 -0.24474 0
M  V30 13326 C 1268.01 1.90796 0.430821 0
M  V30 13327 C 1268.39 1.1652 1.76029 0
M  V30 13328 O 1267.74 0.281978 2.26753 0
M  V30 13329 C 1267.95 3.43786 0.601027 0
M  V30 13330 C 1269.29 4.14998 0.897894 0
M  V30 13331 O 1270.32 3.49513 0.68697 0
M  V30 13332 O 1269.18 5.30826 1.29945 0
M  V30 13333 H 1266.27 0.794086 0.230991 0
M  V30 13334 H 1268.82 1.67227 -0.288646 0
M  V30 13335 H 1267.59 3.89856 -0.335804 0
M  V30 13336 H 1267.21 3.73211 1.37112 0
M  V30 13337 N 1268.21 -0.0283989 1.57574 0
M  V30 13338 C 1269.43 -0.734537 1.93957 0
M  V30 13339 C 1269.86 -1.68062 0.844787 0
M  V30 13340 O 1269.22 -1.802 -0.199432 0
M  V30 13341 C 1269.27 -1.46716 3.29404 0
M  V30 13342 O 1268.37 -2.58036 3.217 0
M  V30 13343 H 1267.71 -0.197507 0.633946 0
M  V30 13344 H 1270.24 0.0163258 2.04593 0
M  V30 13345 H 1270.25 -1.83693 3.64309 0
M  V30 13346 H 1268.93 -0.773292 4.08648 0
M  V30 13347 H 1267.5 -2.23597 2.98427 0
M  V30 13348 N 1269.69 -1.54705 -0.300681 0
M  V30 13349 C 1270.63 -1.85678 -1.37084 0
M  V30 13350 C 1271.6 -0.70573 -1.50362 0
M  V30 13351 O 1272.79 -0.954385 -1.65215 0
M  V30 13352 C 1269.93 -2.10995 -2.73084 0
M  V30 13353 C 1269.04 -3.38621 -2.68254 0
M  V30 13354 C 1268.18 -3.53779 -3.9625 0
M  V30 13355 C 1267.22 -4.75195 -3.85818 0
M  V30 13356 N 1266.35 -4.87157 -5.05591 0
M  V30 13357 H 1271.19 -2.76967 -1.09971 0
M  V30 13358 H 1268.73 -1.37147 -0.531887 0
M  V30 13359 H 1270.69 -2.23669 -3.52176 0
M  V30 13360 H 1269.32 -1.22973 -2.98458 0
M  V30 13361 H 1268.37 -3.34566 -1.81025 0
M  V30 13362 H 1269.68 -4.27834 -2.56436 0
M  V30 13363 H 1268.84 -3.66119 -4.83779 0
M  V30 13364 H 1267.58 -2.62699 -4.10902 0
M  V30 13365 H 1266.58 -4.62888 -2.96673 0
M  V30 13366 H 1267.81 -5.67683 -3.72711 0
M  V30 13367 H 1265.75 -3.99001 -5.20706 0
M  V30 13368 H 1265.67 -5.70372 -4.96197 0
M  V30 13369 H 1266.94 -5.03854 -5.9477 0
M  V30 13370 N 1271.17 0.563888 -1.47167 0
M  V30 13371 C 1272.4 1.34498 -1.56825 0
M  V30 13372 C 1272.8 1.87974 -0.215011 0
M  V30 13373 O 1272.15 1.65323 0.80087 0
M  V30 13374 C 1272.21 2.55602 -2.528 0
M  V30 13375 C 1271.87 2.23459 -3.98642 0
M  V30 13376 C 1272.87 1.81155 -4.87318 0
M  V30 13377 C 1270.56 2.35024 -4.43925 0
M  V30 13378 C 1272.55 1.50835 -6.19296 0
M  V30 13379 C 1270.24 2.04317 -5.75932 0
M  V30 13380 C 1271.23 1.6229 -6.63439 0
M  V30 13381 O 1270.92 1.31969 -7.92994 0
M  V30 13382 H 1270.65 0.416551 -0.532411 0
M  V30 13383 H 1273.21 0.690611 -1.93442 0
M  V30 13384 H 1271.44 3.23907 -2.11237 0
M  V30 13385 H 1273.13 3.17677 -2.52659 0
M  V30 13386 H 1273.89 1.71719 -4.53583 0
M  V30 13387 H 1269.77 2.66696 -3.76024 0
M  V30 13388 H 1273.32 1.17958 -6.87555 0
M  V30 13389 H 1269.21 2.13383 -6.09211 0
M  V30 13390 H 1269.98 1.45656 -8.05436 0
M  V30 13391 N 1272.64 1.35187 0.810078 0
M  V30 13392 C 1273.87 1.31181 1.59609 0
M  V30 13393 C 1274.28 -0.113556 1.88859 0
M  V30 13394 O 1273.63 -1.07491 1.48968 0
M  V30 13395 C 1273.69 2.04749 2.95496 0
M  V30 13396 C 1273.35 3.53952 2.89079 0
M  V30 13397 C 1274.35 4.48612 2.6276 0
M  V30 13398 C 1272.03 3.96551 3.08306 0
M  V30 13399 C 1274.03 5.83846 2.5574 0
M  V30 13400 C 1271.71 5.31881 3.00909 0
M  V30 13401 C 1272.71 6.2534 2.74661 0
M  V30 13402 O 1272.4 7.58188 2.6722 0
M  V30 13403 H 1272.13 0.452285 0.502408 0
M  V30 13404 H 1274.69 1.78571 1.01497 0
M  V30 13405 H 1272.92 1.51992 3.55577 0
M  V30 13406 H 1274.61 1.93866 3.5661 0
M  V30 13407 H 1275.37 4.1702 2.47628 0
M  V30 13408 H 1271.25 3.24194 3.27749 0
M  V30 13409 H 1274.79 6.56765 2.35172 0
M  V30 13410 H 1270.69 5.63088 3.15598 0
M  V30 13411 H 1271.46 7.68073 2.82853 0
M  V30 13412 N 1274.12 -1.03182 1.19127 0
M  V30 13413 C 1275.05 -2.11462 0.884098 0
M  V30 13414 C 1276.07 -1.62342 -0.121984 0
M  V30 13415 O 1277.26 -1.78179 0.107038 0
M  V30 13416 C 1274.36 -3.37559 0.301227 0
M  V30 13417 C 1273.53 -4.15878 1.35514 0
M  V30 13418 C 1272.59 -5.20291 0.786349 0
M  V30 13419 O 1271.61 -5.50069 1.46331 0
M  V30 13420 N 1272.82 -5.79038 -0.411803 0
M  V30 13421 H 1275.58 -2.38405 1.81613 0
M  V30 13422 H 1273.14 -1.19449 1.09287 0
M  V30 13423 H 1275.13 -4.04593 -0.0930685 0
M  V30 13424 H 1273.7 -3.07987 -0.535022 0
M  V30 13425 H 1272.92 -3.44036 1.9244 0
M  V30 13426 H 1274.21 -4.64993 2.06539 0
M  V30 13427 H 1273.61 -5.57158 -0.979353 0
M  V30 13428 H 1272.17 -6.47495 -0.747912 0
M  V30 13429 N 1275.6 -0.99472 -1.22242 0
M  V30 13430 C 1276.83 -0.689809 -1.95592 0
M  V30 13431 C 1277.25 0.739321 -1.72961 0
M  V30 13432 O 1276.61 1.50563 -1.00997 0
M  V30 13433 C 1276.66 -1.00367 -3.46351 0
M  V30 13434 O 1275.76 -0.103326 -4.12271 0
M  V30 13435 H 1275.1 -0.257997 -0.611828 0
M  V30 13436 H 1277.63 -1.33219 -1.55286 0
M  V30 13437 H 1277.64 -0.946259 -3.96875 0
M  V30 13438 H 1276.32 -2.04504 -3.62148 0
M  V30 13439 H 1274.89 -0.216374 -3.72272 0
M  V30 13440 N 1277.08 1.37613 -0.768148 0
M  V30 13441 C 1278.33 1.99384 -0.330187 0
M  V30 13442 C 1278.65 1.61283 1.09604 0
M  V30 13443 O 1277.92 0.876551 1.75195 0
M  V30 13444 H 1276.5 0.737445 -0.119095 0
M  V30 13445 H 1279.16 1.6815 -0.985476 0
M  V30 13446 H 1278.26 3.09462 -0.40494 0
M  V30 13447 N 1278.56 0.518393 1.4883 0
M  V30 13448 C 1279.83 -0.0837498 1.95421 0
M  V30 13449 C 1280.21 -1.52435 1.46037 0
M  V30 13450 O 1279.56 -2.18093 0.681736 0
M  V30 13451 C 1279.77 0.0215333 3.48993 0
M  V30 13452 C 1281.12 -0.143615 4.24357 0
M  V30 13453 O 1282.14 -0.0528223 3.56161 0
M  V30 13454 O 1281 -0.332231 5.45489 0
M  V30 13455 H 1278.1 -0.0857132 0.822546 0
M  V30 13456 H 1280.64 0.582169 1.59402 0
M  V30 13457 H 1279.41 1.02549 3.77623 0
M  V30 13458 H 1279.04 -0.683756 3.91677 0
M  V30 13459 N 1280.03 -1.55556 0.252993 0
M  V30 13460 C 1280.98 -2.18298 -0.658028 0
M  V30 13461 C 1281.97 -1.14072 -1.13474 0
M  V30 13462 O 1283.16 -1.39962 -1.0835 0
M  V30 13463 C 1280.29 -2.89067 -1.8519 0
M  V30 13464 C 1279.38 -4.00556 -1.3934 0
M  V30 13465 N 1279.77 -5.01612 -0.649538 0
M  V30 13466 C 1278.06 -4.13222 -1.67819 0
M  V30 13467 C 1278.77 -5.80244 -0.411347 0
M  V30 13468 N 1277.74 -5.34742 -0.977342 0
M  V30 13469 H 1281.54 -2.93787 -0.0816162 0
M  V30 13470 H 1279.06 -1.62305 0.0555728 0
M  V30 13471 H 1281.05 -3.32448 -2.51563 0
M  V30 13472 H 1279.71 -2.15082 -2.43248 0
M  V30 13473 H 1280.73 -5.17036 -0.299043 0
M  V30 13474 H 1277.4 -3.50414 -2.26972 0
M  V30 13475 H 1278.79 -6.71651 0.182911 0
M  V30 13476 N 1281.51 0.0200419 -1.57587 0
M  V30 13477 C 1282.92 0.565484 -1.7793 0
M  V30 13478 C 1283.27 1.75096 -0.885201 0
M  V30 13479 O 1282.4 2.16243 -0.0823831 0
M  V30 13480 C 1282.99 1.03263 -3.2268 0
M  V30 13481 C 1281.55 1.52352 -3.44189 0
M  V30 13482 C 1280.7 0.465637 -2.73363 0
M  V30 13483 H 1283.65 -0.206174 -1.57355 0
M  V30 13484 H 1283.67 1.89959 -3.2969 0
M  V30 13485 H 1283.18 0.169613 -3.87729 0
M  V30 13486 H 1281.29 2.40809 -2.84327 0
M  V30 13487 H 1281.4 1.5648 -4.52825 0
M  V30 13488 H 1279.76 0.922738 -2.37398 0
M  V30 13489 H 1280.55 -0.388068 -3.411 0
M  V30 13490 N 1282.99 1.54862 0.292472 0
M  V30 13491 C 1284.41 1.46267 0.638611 0
M  V30 13492 C 1284.61 0.660824 1.90356 0
M  V30 13493 O 1283.66 0.171909 2.51914 0
M  V30 13494 C 1284.98 2.90309 0.783675 0
M  V30 13495 C 1286.52 3.00404 0.879004 0
M  V30 13496 C 1287 4.4566 1.056 0
M  V30 13497 N 1288.49 4.49406 1.122 0
M  V30 13498 C 1289.22 5.5899 1.2774 0
M  V30 13499 N 1288.72 6.78482 1.40123 0
M  V30 13500 N 1290.51 5.46695 1.30696 0
M  V30 13501 H 1282.66 2.0546 -0.538521 0
M  V30 13502 H 1284.93 0.930879 -0.179354 0
M  V30 13503 H 1284.63 3.5162 -0.0750437 0
M  V30 13504 H 1284.51 3.38215 1.67004 0
M  V30 13505 H 1286.89 2.39201 1.7282 0
M  V30 13506 H 1286.98 2.55781 -0.0315624 0
M  V30 13507 H 1286.62 5.07459 0.211535 0
M  V30 13508 H 1286.55 4.87921 1.98092 0
M  V30 13509 H 1289.04 3.63322 1.03948 0
M  V30 13510 H 1289.35 7.57752 1.5176 0
M  V30 13511 H 1287.7 6.81331 1.37163 0
M  V30 13512 H 1290.89 4.52288 1.20638 0
M  V30 13513 H 1291.06 6.32146 1.42463 0
M  V30 13514 N 1284.47 -0.556076 1.47464 0
M  V30 13515 C 1285.4 -1.67829 1.56096 0
M  V30 13516 C 1286.41 -1.56541 0.447077 0
M  V30 13517 O 1287.6 -1.63478 0.716739 0
M  V30 13518 C 1284.7 -3.06303 1.45023 0
M  V30 13519 C 1283.88 -3.43334 2.70999 0
M  V30 13520 C 1282.93 -4.60976 2.53746 0
M  V30 13521 O 1281.96 -4.65501 3.27564 0
M  V30 13522 N 1283.16 -5.5754 1.61647 0
M  V30 13523 H 1285.93 -1.6087 2.52865 0
M  V30 13524 H 1283.49 -0.74274 1.43857 0
M  V30 13525 H 1285.48 -3.82838 1.31214 0
M  V30 13526 H 1284.05 -3.07483 0.563311 0
M  V30 13527 H 1283.27 -2.56236 2.99561 0
M  V30 13528 H 1284.56 -3.64851 3.54629 0
M  V30 13529 H 1283.96 -5.56642 1.00827 0
M  V30 13530 H 1282.51 -6.33397 1.53789 0
M  V30 13531 N 1285.95 -1.35615 -0.802897 0
M  V30 13532 C 1287.22 -1.19655 -1.54732 0
M  V30 13533 C 1287.6 0.222827 -2.09921 0
M  V30 13534 O 1286.95 1.2268 -1.92774 0
M  V30 13535 C 1287.16 -2.26761 -2.65293 0
M  V30 13536 C 1288.51 -2.62754 -3.33535 0
M  V30 13537 O 1289.53 -2.25702 -2.75567 0
M  V30 13538 O 1288.39 -3.26476 -4.38264 0
M  V30 13539 H 1285.49 -0.465079 -0.683835 0
M  V30 13540 H 1288.03 -1.47307 -0.84254 0
M  V30 13541 H 1286.81 -3.21946 -2.22411 0
M  V30 13542 H 1286.43 -2.00399 -3.43404 0
M  V30 13543 N 1287.43 1.02549 -1.19673 0
M  V30 13544 C 1288.65 1.8016 -1.02748 0
M  V30 13545 C 1289.08 1.83372 0.419105 0
M  V30 13546 O 1288.43 1.26222 1.30144 0
M  V30 13547 C 1288.48 3.22907 -1.60509 0
M  V30 13548 O 1287.59 4.03823 -0.836702 0
M  V30 13549 H 1286.93 0.556027 -0.362946 0
M  V30 13550 H 1289.46 1.29047 -1.5877 0
M  V30 13551 H 1289.47 3.73646 -1.63868 0
M  V30 13552 H 1288.14 3.19885 -2.65794 0
M  V30 13553 H 1286.72 3.6245 -0.876626 0
M  V30 13554 N 1288.9 1.00119 1.21713 0
M  V30 13555 C 1289.84 0.503256 2.22582 0
M  V30 13556 C 1290.81 -0.440971 1.56506 0
M  V30 13557 O 1292 -0.364583 1.84941 0
M  V30 13558 C 1289.13 -0.269453 3.37626 0
M  V30 13559 C 1288.17 0.622002 4.2194 0
M  V30 13560 S 1289 2.08218 4.93361 0
M  V30 13561 C 1290.16 1.3192 6.1184 0
M  V30 13562 H 1290.39 1.35798 2.64474 0
M  V30 13563 H 1287.93 0.808819 1.3152 0
M  V30 13564 H 1289.88 -0.709213 4.04327 0
M  V30 13565 H 1288.55 -1.09955 2.94226 0
M  V30 13566 H 1287.74 0.0270176 5.03993 0
M  V30 13567 H 1287.34 0.998876 3.60414 0
M  V30 13568 H 1289.63 0.591116 6.74916 0
M  V30 13569 H 1290.58 2.1153 6.75767 0
M  V30 13570 H 1290.98 0.828844 5.58382 0
M  V30 13571 N 1290.38 -1.37203 0.775435 0
M  V30 13572 C 1291.66 -1.93783 0.266005 0
M  V30 13573 C 1292.04 -1.70875 -1.23956 0
M  V30 13574 O 1291.39 -1.05965 -2.02444 0
M  V30 13575 C 1291.6 -3.43018 0.643404 0
M  V30 13576 C 1292.94 -4.20119 0.615267 0
M  V30 13577 O 1293.97 -3.51396 0.583018 0
M  V30 13578 O 1292.83 -5.42673 0.645637 0
M  V30 13579 H 1289.92 -0.824649 0.0623107 0
M  V30 13580 H 1292.47 -1.46468 0.857036 0
M  V30 13581 H 1291.24 -3.5329 1.68232 0
M  V30 13582 H 1290.86 -3.97592 0.0255138 0
M  V30 13583 N 1291.86 -0.526279 -1.48553 0
M  V30 13584 C 1293.11 0.0091665 -2.02498 0
M  V30 13585 C 1293.43 1.34632 -1.40373 0
M  V30 13586 O 1292.69 1.88172 -0.537573 0
M  V30 13587 C 1292.99 0.184075 -3.56926 0
M  V30 13588 C 1292.65 -1.07825 -4.37818 0
M  V30 13589 C 1291.32 -1.42422 -4.59641 0
M  V30 13590 C 1293.67 -1.91616 -4.84699 0
M  V30 13591 C 1291 -2.60713 -5.25591 0
M  V30 13592 C 1293.35 -3.09082 -5.51952 0
M  V30 13593 C 1292.01 -3.44029 -5.72014 0
M  V30 13594 H 1291.28 0.00335426 -0.740992 0
M  V30 13595 H 1293.93 -0.691553 -1.78577 0
M  V30 13596 H 1292.23 0.967532 -3.79666 0
M  V30 13597 H 1293.93 0.613226 -3.96283 0
M  V30 13598 H 1290.52 -0.798812 -4.2109 0
M  V30 13599 H 1294.71 -1.66199 -4.67645 0
M  V30 13600 H 1289.96 -2.87996 -5.39322 0
M  V30 13601 H 1294.14 -3.74317 -5.87247 0
M  V30 13602 H 1291.76 -4.35789 -6.2289 0
M  V30 13603 N 1293.34 1.5542 -0.261239 0
M  V30 13604 C 1294.56 2.04142 0.366144 0
M  V30 13605 C 1294.99 1.13884 1.49706 0
M  V30 13606 O 1294.35 0.134629 1.80799 0
M  V30 13607 C 1294.39 3.50733 0.837774 0
M  V30 13608 O 1293.5 3.63588 1.94621 0
M  V30 13609 H 1292.84 0.659424 0.077821 0
M  V30 13610 H 1295.37 2.0082 -0.391487 0
M  V30 13611 H 1295.38 3.91831 1.13721 0
M  V30 13612 H 1294.05 4.15899 0.0102742 0
M  V30 13613 H 1292.63 3.34391 1.65037 0
M  V30 13614 N 1294.82 -0.0116844 1.57596 0
M  V30 13615 C 1295.76 -1.02514 2.08791 0
M  V30 13616 C 1296.76 -1.36341 1.00536 0
M  V30 13617 O 1297.96 -1.35042 1.19011 0
M  V30 13618 H 1294.34 -0.348201 0.666528 0
M  V30 13619 H 1296.31 -0.567698 2.9295 0
M  V30 13620 C 1295.06 -2.312 2.59696 0
M  V30 13621 H 1294.38 -2.06036 3.42621 0
M  V30 13622 H 1295.82 -3.00417 2.99208 0
M  V30 13623 C 1294.28 -3.01372 1.50586 0
M  V30 13624 O 1294.81 -3.91896 0.882046 0
M  V30 13625 N 1293.02 -2.62997 1.23616 0
M  V30 13626 H 1292.56 -1.89466 1.74529 0
M  V30 13627 H 1292.52 -3.10264 0.508289 0
M  V30 13628 N 1296.29 -1.55015 -0.284256 0
M  V30 13629 C 1297.2 -1.90203 -1.37332 0
M  V30 13630 C 1298.22 -0.797994 -1.54622 0
M  V30 13631 O 1299.4 -1.09602 -1.68965 0
M  V30 13632 C 1296.46 -2.15687 -2.71441 0
M  V30 13633 C 1295.52 -3.39313 -2.62993 0
M  V30 13634 C 1294.75 -3.63571 -3.90707 0
M  V30 13635 O 1294.98 -2.90538 -4.9086 0
M  V30 13636 O 1293.91 -4.57102 -3.91589 0
M  V30 13637 H 1297.74 -2.82888 -1.1049 0
M  V30 13638 H 1295.32 -1.41418 -0.481798 0
M  V30 13639 H 1297.2 -2.33553 -3.50758 0
M  V30 13640 H 1295.88 -1.26185 -2.98092 0
M  V30 13641 H 1294.79 -3.26793 -1.82091 0
M  V30 13642 H 1296.12 -4.28997 -2.41293 0
M  V30 13643 N 1297.77 0.548248 -1.47757 0
M  V30 13644 C 1299.02 1.30458 -1.56052 0
M  V30 13645 C 1299.37 1.91096 -0.22363 0
M  V30 13646 O 1298.67 1.75375 0.771644 0
M  V30 13647 C 1298.86 2.42911 -2.62162 0
M  V30 13648 C 1298.69 1.93293 -4.06039 0
M  V30 13649 C 1297.46 1.76727 -4.73387 0
M  V30 13650 C 1299.66 1.47214 -4.9278 0
M  V30 13651 N 1297.64 1.21543 -6.01748 0
M  V30 13652 C 1299.01 1.03855 -6.1124 0
M  V30 13653 C 1301.06 1.35348 -4.79151 0
M  V30 13654 C 1299.77 0.498086 -7.17573 0
M  V30 13655 C 1301.79 0.827023 -5.85589 0
M  V30 13656 C 1301.16 0.40341 -7.03244 0
M  V30 13657 H 1297.25 0.469075 -0.625694 0
M  V30 13658 H 1299.84 0.620405 -1.84551 0
M  V30 13659 H 1298.01 3.08847 -2.35516 0
M  V30 13660 H 1299.74 3.09924 -2.60249 0
M  V30 13661 H 1296.5 1.99709 -4.29433 0
M  V30 13662 H 1296.92 0.960132 -6.70157 0
M  V30 13663 H 1301.56 1.66708 -3.88546 0
M  V30 13664 H 1299.28 0.172123 -8.07917 0
M  V30 13665 H 1302.87 0.738641 -5.77092 0
M  V30 13666 H 1301.75 0.00236338 -7.842 0
M  V30 13667 N 1299.25 1.36039 0.795694 0
M  V30 13668 C 1300.5 1.29663 1.55023 0
M  V30 13669 C 1300.82 -0.125588 1.94595 0
M  V30 13670 O 1300.09 -1.06447 1.64456 0
M  V30 13671 H 1298.67 0.476962 0.574906 0
M  V30 13672 H 1301.33 1.70265 0.948471 0
M  V30 13673 H 1300.43 1.91982 2.46068 0
M  V30 13674 N 1300.73 -1.01913 1.20215 0
M  V30 13675 C 1302.01 -1.7262 0.919867 0
M  V30 13676 C 1302.39 -2.03203 -0.572001 0
M  V30 13677 O 1301.73 -1.69448 -1.53296 0
M  V30 13678 C 1301.94 -2.9959 1.79016 0
M  V30 13679 C 1303.29 -3.72905 2.03045 0
M  V30 13680 O 1304.32 -3.0954 1.76249 0
M  V30 13681 O 1303.17 -4.86844 2.48285 0
M  V30 13682 H 1300.27 -0.752194 0.343705 0
M  V30 13683 H 1302.81 -1.07783 1.31076 0
M  V30 13684 H 1301.59 -2.73292 2.80048 0
M  V30 13685 H 1301.21 -3.72168 1.39918 0
M  V30 13686 N 1302.21 -1.00763 -1.2118 0
M  V30 13687 C 1303.62 -0.724746 -1.72059 0
M  V30 13688 C 1303.97 0.757413 -1.80991 0
M  V30 13689 O 1303.09 1.59152 -1.46627 0
M  V30 13690 C 1303.69 -1.30893 -3.12494 0
M  V30 13691 C 1302.25 -1.07511 -3.60719 0
M  V30 13692 C 1301.39 -1.42014 -2.38175 0
M  V30 13693 H 1304.35 -1.17821 -1.0632 0
M  V30 13694 H 1304.37 -0.694919 -3.741 0
M  V30 13695 H 1303.88 -2.38767 -3.05961 0
M  V30 13696 H 1301.98 -0.0136518 -3.72597 0
M  V30 13697 H 1302.09 -1.74885 -4.4604 0
M  V30 13698 H 1300.46 -0.838972 -2.40486 0
M  V30 13699 H 1301.24 -2.50924 -2.34291 0
M  V30 13700 N 1303.68 1.3679 -0.7827 0
M  V30 13701 C 1304.91 2.04206 -0.362571 0
M  V30 13702 C 1305.33 1.58637 1.01074 0
M  V30 13703 O 1304.69 0.751692 1.64983 0
M  V30 13704 C 1304.74 3.58062 -0.4271 0
M  V30 13705 O 1303.84 4.08463 0.56845 0
M  V30 13706 H 1303.19 0.645638 -0.155073 0
M  V30 13707 H 1305.72 1.74883 -1.06194 0
M  V30 13708 H 1305.73 4.0698 -0.288298 0
M  V30 13709 H 1304.4 3.90582 -1.42893 0
M  V30 13710 H 1302.98 3.70835 0.391863 0
M  V30 13711 N 1305.16 0.53415 1.48272 0
M  V30 13712 C 1306.39 0.00368464 2.074 0
M  V30 13713 C 1306.81 -1.27003 1.38751 0
M  V30 13714 O 1306.17 -1.75502 0.454817 0
M  V30 13715 C 1306.22 -0.199034 3.6005 0
M  V30 13716 O 1305.32 -1.26679 3.92462 0
M  V30 13717 H 1304.66 0.0409936 0.662733 0
M  V30 13718 H 1307.19 0.743253 1.90622 0
M  V30 13719 H 1307.2 -0.420404 4.05828 0
M  V30 13720 H 1305.88 0.731391 4.09418 0
M  V30 13721 H 1304.46 -1.02775 3.58457 0
M  V30 13722 N 1306.64 -1.55279 0.269478 0
M  V30 13723 C 1307.88 -2.01378 -0.350174 0
M  V30 13724 C 1308.24 -1.15373 -1.5347 0
M  V30 13725 O 1309.45 -1.51027 -2.22361 0
M  V30 13726 C 1307.72 -3.49904 -0.728134 0
M  V30 13727 S 1309.28 -4.17995 -1.33512 0
M  V30 13728 H 1306.09 -0.702567 -0.109179 0
M  V30 13729 H 1308.7 -1.91571 0.389994 0
M  V30 13730 H 1307.4 -4.10151 0.142925 0
M  V30 13731 H 1306.93 -3.63684 -1.49991 0
M  V30 13732 H 1308.95 -4.21153 -2.62383 0
M  V30 13733 N 1308.12 0.00332656 -1.576 0
M  V30 13734 C 1309.53 0.359361 -1.55502 0
M  V30 13735 C 1309.73 1.74997 -0.998914 0
M  V30 13736 O 1308.79 2.44482 -0.631263 0
M  V30 13737 C 1310.1 0.237638 -2.9976 0
M  V30 13738 C 1311.65 0.312824 -3.11433 0
M  V30 13739 C 1312.13 0.220262 -4.5747 0
M  V30 13740 N 1313.62 0.278265 -4.62363 0
M  V30 13741 C 1314.35 0.229933 -5.72939 0
M  V30 13742 N 1313.85 0.132391 -6.92673 0
M  V30 13743 N 1315.64 0.281555 -5.61394 0
M  V30 13744 H 1307.79 -0.906404 -1.92089 0
M  V30 13745 H 1310.06 -0.347129 -0.88216 0
M  V30 13746 H 1309.76 -0.719007 -3.44272 0
M  V30 13747 H 1309.64 1.02105 -3.63118 0
M  V30 13748 H 1312.02 1.25991 -2.66852 0
M  V30 13749 H 1312.1 -0.500395 -2.50858 0
M  V30 13750 H 1311.75 -0.723267 -5.02724 0
M  V30 13751 H 1311.68 1.05192 -5.15987 0
M  V30 13752 H 1314.17 0.35512 -3.76228 0
M  V30 13753 H 1314.48 0.101317 -7.72734 0
M  V30 13754 H 1312.83 0.0980665 -6.94931 0
M  V30 13755 H 1316.02 0.355931 -4.66745 0
M  V30 13756 H 1316.19 0.240423 -6.47554 0
M  V30 13757 N 1309.6 1.55164 0.276031 0
M  V30 13758 C 1310.84 1.77377 1.01572 0
M  V30 13759 C 1311.2 0.56142 1.83608 0
M  V30 13760 O 1312.4 0.661745 2.60527 0
M  V30 13761 C 1310.67 3.0412 1.87738 0
M  V30 13762 S 1312.23 3.4744 2.68013 0
M  V30 13763 H 1309.05 0.62326 0.342153 0
M  V30 13764 H 1311.65 1.9339 0.286456 0
M  V30 13765 H 1310.36 3.90453 1.26389 0
M  V30 13766 H 1309.89 2.90764 2.6499 0
M  V30 13767 H 1311.9 3.06474 3.90241 0
M  V30 13768 N 1311.07 -0.540404 1.48045 0
M  V30 13769 C 1312.32 -1.29422 1.55224 0
M  V30 13770 C 1312.64 -1.93716 0.223365 0
M  V30 13771 O 1311.91 -1.808 -0.754204 0
M  V30 13772 H 1310.49 -0.480658 0.571819 0
M  V30 13773 H 1313.16 -0.629712 1.84447 0
M  V30 13774 H 1312.25 -2.07897 2.32777 0
M  V30 13775 N 1312.55 -1.36459 -0.788468 0
M  V30 13776 C 1313.83 -1.21289 -1.53455 0
M  V30 13777 C 1314.21 0.200549 -2.10145 0
M  V30 13778 O 1313.56 1.20629 -1.94064 0
M  V30 13779 C 1313.77 -2.29562 -2.62873 0
M  V30 13780 C 1315.12 -2.66277 -3.30729 0
M  V30 13781 O 1316.14 -2.28612 -2.73157 0
M  V30 13782 O 1315 -3.31106 -4.34777 0
M  V30 13783 H 1312.09 -0.472306 -0.678864 0
M  V30 13784 H 1314.64 -1.48192 -0.826869 0
M  V30 13785 H 1313.41 -3.24286 -2.18984 0
M  V30 13786 H 1313.03 -2.0403 -3.41259 0
M  V30 13787 N 1314.03 1.01274 -1.20754 0
M  V30 13788 C 1315.45 1.27256 -0.963221 0
M  V30 13789 C 1315.65 1.98349 0.354972 0
M  V30 13790 O 1314.7 2.28116 1.08255 0
M  V30 13791 C 1316.02 2.1038 -2.14851 0
M  V30 13792 C 1317.56 2.23633 -2.18991 0
M  V30 13793 C 1318.04 3.10136 -3.37016 0
M  V30 13794 N 1319.53 3.17724 -3.37054 0
M  V30 13795 C 1320.26 3.84891 -4.25025 0
M  V30 13796 N 1319.76 4.54152 -5.23181 0
M  V30 13797 N 1321.55 3.81454 -4.12855 0
M  V30 13798 H 1313.7 0.535534 -2.05538 0
M  V30 13799 H 1315.97 0.299006 -0.899611 0
M  V30 13800 H 1315.67 1.65484 -3.10335 0
M  V30 13801 H 1315.55 3.11122 -2.13267 0
M  V30 13802 H 1317.93 2.67753 -1.24067 0
M  V30 13803 H 1318.02 1.22387 -2.24622 0
M  V30 13804 H 1317.66 2.66721 -4.32229 0
M  V30 13805 H 1317.59 4.11478 -3.28623 0
M  V30 13806 H 1320.08 2.68412 -2.66014 0
M  V30 13807 H 1320.39 5.03084 -5.86623 0
M  V30 13808 H 1318.74 4.52964 -5.27113 0
M  V30 13809 H 1321.93 3.26494 -3.35439 0
M  V30 13810 H 1322.1 4.33523 -4.81624 0
M  V30 13811 N 1315.51 1.01404 1.20644 0
M  V30 13812 C 1316.44 0.602465 2.25594 0
M  V30 13813 C 1317.42 -0.381216 1.65773 0
M  V30 13814 O 1318.61 -0.267209 1.92353 0
M  V30 13815 C 1315.74 -0.0626245 3.47244 0
M  V30 13816 C 1314.69 0.841776 4.1964 0
M  V30 13817 C 1314.02 0.0426002 5.34683 0
M  V30 13818 C 1315.32 2.14864 4.76058 0
M  V30 13819 H 1317.01 1.47977 2.60275 0
M  V30 13820 H 1314.56 0.712966 1.25111 0
M  V30 13821 H 1316.51 -0.362095 4.19841 0
M  V30 13822 H 1315.23 -0.974627 3.11719 0
M  V30 13823 H 1313.89 1.12521 3.48905 0
M  V30 13824 H 1313.54 -0.870973 4.95402 0
M  V30 13825 H 1313.24 0.644866 5.84051 0
M  V30 13826 H 1314.76 -0.250476 6.10086 0
M  V30 13827 H 1316.18 1.9117 5.40488 0
M  V30 13828 H 1314.57 2.70153 5.35852 0
M  V30 13829 H 1315.64 2.81336 3.9494 0
M  V30 13830 N 1316.99 -1.36373 0.789944 0
M  V30 13831 C 1317.93 -2.30043 0.186798 0
M  V30 13832 C 1318.9 -1.52002 -0.669663 0
M  V30 13833 O 1320.09 -1.80506 -0.618232 0
M  V30 13834 C 1317.23 -3.38494 -0.671994 0
M  V30 13835 C 1316.34 -4.31522 0.203067 0
M  V30 13836 C 1315.48 -5.27057 -0.662148 0
M  V30 13837 C 1314.52 -6.11725 0.214335 0
M  V30 13838 N 1313.65 -6.99446 -0.609892 0
M  V30 13839 H 1318.49 -2.81038 0.991048 0
M  V30 13840 H 1316.03 -1.38331 0.500288 0
M  V30 13841 H 1317.99 -4.0002 -1.1849 0
M  V30 13842 H 1316.62 -2.88818 -1.44167 0
M  V30 13843 H 1315.67 -3.71146 0.833945 0
M  V30 13844 H 1316.98 -4.91005 0.878389 0
M  V30 13845 H 1316.14 -5.93875 -1.24084 0
M  V30 13846 H 1314.88 -4.6803 -1.37109 0
M  V30 13847 H 1313.88 -5.43868 0.805426 0
M  V30 13848 H 1315.11 -6.72827 0.92089 0
M  V30 13849 H 1313.05 -6.42927 -1.30312 0
M  V30 13850 H 1312.97 -7.56 0.00773786 0
M  V30 13851 H 1314.24 -7.70633 -1.1724 0
M  V30 13852 N 1318.47 -0.542005 -1.47987 0
M  V30 13853 C 1319.88 -0.104646 -1.86406 0
M  V30 13854 C 1320.23 1.32139 -1.4503 0
M  V30 13855 O 1319.35 1.99159 -0.846439 0
M  V30 13856 C 1319.95 -0.183133 -3.38305 0
M  V30 13857 C 1318.51 0.199098 -3.75873 0
M  V30 13858 C 1317.65 -0.537532 -2.7204 0
M  V30 13859 H 1320.6 -0.75259 -1.3972 0
M  V30 13860 H 1320.63 0.602149 -3.75705 0
M  V30 13861 H 1320.14 -1.22113 -3.68389 0
M  V30 13862 H 1318.24 1.23878 -3.51404 0
M  V30 13863 H 1318.35 -0.14888 -4.78869 0
M  V30 13864 H 1316.72 0.0176255 -2.54694 0
M  V30 13865 H 1317.5 -1.57639 -3.04967 0
M  V30 13866 N 1319.94 1.55134 -0.277709 0
M  V30 13867 C 1320.87 2.256 0.602232 0
M  V30 13868 C 1321.85 1.24708 1.15681 0
M  V30 13869 O 1323.04 1.53433 1.19046 0
M  V30 13870 C 1320.17 2.97907 1.78519 0
M  V30 13871 C 1319.12 4.0575 1.36203 0
M  V30 13872 C 1318.45 4.65644 2.62829 0
M  V30 13873 C 1319.75 5.19801 0.510327 0
M  V30 13874 H 1321.44 2.99396 0.0145622 0
M  V30 13875 H 1318.99 1.43999 0.00556389 0
M  V30 13876 H 1320.94 3.45915 2.40668 0
M  V30 13877 H 1319.67 2.21649 2.39873 0
M  V30 13878 H 1318.33 3.58557 0.763726 0
M  V30 13879 H 1317.97 3.86053 3.22447 0
M  V30 13880 H 1317.67 5.38463 2.35227 0
M  V30 13881 H 1319.2 5.16403 3.25823 0
M  V30 13882 H 1320.61 5.63845 1.03689 0
M  V30 13883 H 1319.01 5.99197 0.329073 0
M  V30 13884 H 1320.08 4.82614 -0.470273 0
M  V30 13885 N 1321.42 0.00503138 1.57599 0
M  V30 13886 C 1322.33 -1.00097 2.12174 0
M  V30 13887 C 1323.35 -1.37353 1.06818 0
M  V30 13888 O 1324.52 -1.45984 1.38747 0
M  V30 13889 C 1321.59 -2.27252 2.61835 0
M  V30 13890 C 1320.65 -1.96262 3.81811 0
M  V30 13891 C 1319.88 -3.17355 4.29094 0
M  V30 13892 O 1320.11 -4.2921 3.75679 0
M  V30 13893 O 1319.04 -3.01059 5.21198 0
M  V30 13894 H 1322.87 -0.567024 2.9836 0
M  V30 13895 H 1320.45 -0.214109 1.47858 0
M  V30 13896 H 1322.33 -3.01944 2.93952 0
M  V30 13897 H 1321.01 -2.69875 1.78744 0
M  V30 13898 H 1319.91 -1.19031 3.54658 0
M  V30 13899 H 1321.25 -1.58473 4.65991 0
M  V30 13900 N 1322.9 -1.55308 -0.267798 0
M  V30 13901 C 1324.32 -1.47264 -0.61526 0
M  V30 13902 C 1324.52 -0.691025 -1.8928 0
M  V30 13903 O 1323.57 -0.211964 -2.51609 0
M  V30 13904 C 1324.88 -2.91519 -0.73739 0
M  V30 13905 C 1326.43 -3.01764 -0.831102 0
M  V30 13906 C 1326.91 -4.47283 -0.984965 0
M  V30 13907 N 1328.4 -4.51134 -1.05036 0
M  V30 13908 C 1329.13 -5.60952 -1.1883 0
M  V30 13909 N 1328.63 -6.80625 -1.29311 0
M  V30 13910 N 1330.42 -5.48705 -1.21982 0
M  V30 13911 H 1322.57 -2.04577 0.57114 0
M  V30 13912 H 1324.84 -0.927908 0.194141 0
M  V30 13913 H 1324.54 -3.51456 0.130974 0
M  V30 13914 H 1324.42 -3.40829 -1.61603 0
M  V30 13915 H 1326.8 -2.4192 -1.68993 0
M  V30 13916 H 1326.88 -2.55698 0.0722509 0
M  V30 13917 H 1326.53 -5.07732 -0.130776 0
M  V30 13918 H 1326.46 -4.91011 -1.90305 0
M  V30 13919 H 1328.95 -3.6493 -0.981551 0
M  V30 13920 H 1329.26 -7.60071 -1.39685 0
M  V30 13921 H 1327.61 -6.83426 -1.26306 0
M  V30 13922 H 1330.8 -4.5415 -1.13428 0
M  V30 13923 H 1330.97 -6.34332 -1.32388 0
M  V30 13924 N 1324.38 0.532545 -1.4833 0
M  V30 13925 C 1325.79 0.860843 -1.34394 0
M  V30 13926 C 1325.99 1.98384 -0.353013 0
M  V30 13927 O 1325.05 2.5148 0.226688 0
M  V30 13928 C 1326.36 1.23079 -2.74358 0
M  V30 13929 C 1327.91 1.34082 -2.82827 0
M  V30 13930 C 1328.39 1.74421 -4.23487 0
M  V30 13931 N 1329.88 1.81528 -4.26148 0
M  V30 13932 C 1330.61 2.1412 -5.31921 0
M  V30 13933 N 1330.11 2.45154 -6.47975 0
M  V30 13934 N 1331.9 2.15104 -5.19314 0
M  V30 13935 H 1324.05 -0.208464 -2.11375 0
M  V30 13936 H 1326.31 -0.03062 -0.947505 0
M  V30 13937 H 1326.02 0.47926 -3.48419 0
M  V30 13938 H 1325.89 2.18151 -3.07718 0
M  V30 13939 H 1328.28 2.08311 -2.09022 0
M  V30 13940 H 1328.36 0.37137 -2.5309 0
M  V30 13941 H 1328.01 1.00752 -4.97807 0
M  V30 13942 H 1327.94 2.72411 -4.50666 0
M  V30 13943 H 1330.43 1.59832 -3.42436 0
M  V30 13944 H 1330.74 2.69121 -7.24426 0
M  V30 13945 H 1329.09 2.42679 -6.51254 0
M  V30 13946 H 1332.28 1.90315 -4.27666 0
M  V30 13947 H 1332.45 2.40173 -6.01848 0
M  V30 13948 N 1325.86 1.36875 0.78122 0
M  V30 13949 C 1326.82 1.31706 1.8758 0
M  V30 13950 C 1327.82 0.223044 1.59246 0
M  V30 13951 O 1329.01 0.478327 1.67504 0
M  V30 13952 C 1326.14 1.0437 3.2453 0
M  V30 13953 H 1327.33 2.29059 1.93576 0
M  V30 13954 H 1324.89 1.21766 0.979931 0
M  V30 13955 H 1325.62 0.0750941 3.24213 0
M  V30 13956 H 1325.41 1.83548 3.46486 0
M  V30 13957 H 1326.9 1.0338 4.04602 0
M  V30 13958 N 1327.33 -1.00632 1.21289 0
M  V30 13959 C 1328.3 -2.07543 0.972548 0
M  V30 13960 C 1329.3 -1.60703 -0.0559244 0
M  V30 13961 O 1330.49 -1.73255 0.181213 0
M  V30 13962 C 1327.62 -3.37696 0.466297 0
M  V30 13963 H 1328.81 -2.30298 1.92101 0
M  V30 13964 H 1326.36 -1.17588 1.02969 0
M  V30 13965 H 1327.1 -3.2062 -0.487148 0
M  V30 13966 H 1326.88 -3.73024 1.20813 0
M  V30 13967 H 1328.37 -4.16388 0.317962 0
M  V30 13968 N 1328.81 -1.02043 -1.20104 0
M  V30 13969 C 1330.23 -0.735967 -1.41618 0
M  V30 13970 C 1330.43 0.68285 -1.89577 0
M  V30 13971 O 1329.48 1.45007 -2.06711 0
M  V30 13972 C 1330.8 -1.76492 -2.43457 0
M  V30 13973 C 1332.34 -1.78349 -2.57217 0
M  V30 13974 C 1332.82 -2.80181 -3.62302 0
M  V30 13975 N 1334.31 -2.78945 -3.69789 0
M  V30 13976 C 1335.05 -3.54395 -4.50768 0
M  V30 13977 N 1334.54 -4.39533 -5.35521 0
M  V30 13978 N 1336.33 -3.42974 -4.45337 0
M  V30 13979 H 1328.49 -1.93634 -0.872916 0
M  V30 13980 H 1330.75 -0.836663 -0.445757 0
M  V30 13981 H 1330.45 -2.78158 -2.15223 0
M  V30 13982 H 1330.33 -1.58022 -3.42504 0
M  V30 13983 H 1332.72 -0.773665 -2.84778 0
M  V30 13984 H 1332.8 -2.00894 -1.58352 0
M  V30 13985 H 1332.44 -3.81331 -3.35484 0
M  V30 13986 H 1332.37 -2.54898 -4.60798 0
M  V30 13987 H 1334.86 -2.17189 -3.09253 0
M  V30 13988 H 1335.17 -4.93863 -5.94407 0
M  V30 13989 H 1333.52 -4.43609 -5.3501 0
M  V30 13990 H 1336.71 -2.75881 -3.78163 0
M  V30 13991 H 1336.88 -4.02028 -5.0821 0
M  V30 13992 N 1330.29 1.35952 -0.797165 0
M  V30 13993 C 1331.22 2.28649 -0.15877 0
M  V30 13994 C 1332.24 1.49842 0.636481 0
M  V30 13995 O 1333.42 1.72191 0.47039 0
M  V30 13996 C 1330.52 3.29373 0.797913 0
M  V30 13997 C 1329.7 4.3737 0.0510574 0
M  V30 13998 C 1328.76 5.18009 0.924826 0
M  V30 13999 O 1327.78 5.67935 0.379223 0
M  V30 14000 N 1328.98 5.352 2.24813 0
M  V30 14001 H 1331.75 2.84075 -0.955056 0
M  V30 14002 H 1329.31 1.48201 -0.651767 0
M  V30 14003 H 1331.3 3.80209 1.38646 0
M  V30 14004 H 1329.87 2.74531 1.49504 0
M  V30 14005 H 1329.09 3.87594 -0.718633 0
M  V30 14006 H 1330.38 5.0668 -0.464025 0
M  V30 14007 H 1329.78 4.96266 2.71545 0
M  V30 14008 H 1328.34 5.89252 2.78614 0
M  V30 14009 N 1331.77 0.549846 1.47697 0
M  V30 14010 C 1332.72 -0.222213 2.26915 0
M  V30 14011 C 1333.7 -0.891996 1.33911 0
M  V30 14012 O 1334.89 -0.791519 1.58316 0
M  V30 14013 C 1332.02 -1.25619 3.19491 0
M  V30 14014 C 1331.11 -0.590193 4.19973 0
M  V30 14015 N 1331.5 0.335519 5.04686 0
M  V30 14016 C 1329.8 -0.845012 4.37922 0
M  V30 14017 C 1330.5 0.721672 5.77206 0
M  V30 14018 N 1329.48 0.078184 5.43544 0
M  V30 14019 H 1333.28 0.489645 2.89792 0
M  V30 14020 H 1330.79 0.36926 1.58146 0
M  V30 14021 H 1332.79 -1.82319 3.74921 0
M  V30 14022 H 1331.45 -1.96922 2.5817 0
M  V30 14023 H 1332.46 0.709271 5.1302 0
M  V30 14024 H 1329.14 -1.54711 3.87777 0
M  V30 14025 H 1330.53 1.48191 6.55354 0
M  V30 14026 N 1333.25 -1.54984 0.285932 0
M  V30 14027 C 1334.18 -2.20365 -0.630236 0
M  V30 14028 C 1335.19 -1.19168 -1.10918 0
M  V30 14029 O 1336.38 -1.45839 -1.02923 0
M  V30 14030 C 1333.48 -2.8244 -1.87299 0
M  V30 14031 C 1332.65 -4.09429 -1.53905 0
M  V30 14032 C 1331.71 -4.55449 -2.63538 0
M  V30 14033 O 1330.74 -5.20985 -2.29267 0
M  V30 14034 N 1331.94 -4.26498 -3.93802 0
M  V30 14035 H 1334.71 -2.99617 -0.0706044 0
M  V30 14036 H 1332.27 -1.61543 0.107486 0
M  V30 14037 H 1334.26 -3.10167 -2.59959 0
M  V30 14038 H 1332.83 -2.07117 -2.34139 0
M  V30 14039 H 1332.05 -3.88875 -0.645774 0
M  V30 14040 H 1333.34 -4.92146 -1.29111 0
M  V30 14041 H 1332.73 -3.73964 -4.24461 0
M  V30 14042 H 1331.29 -4.5897 -4.62807 0
M  V30 14043 N 1334.72 -0.0133892 -1.57594 0
M  V30 14044 C 1336.14 0.342848 -1.55874 0
M  V30 14045 C 1336.34 1.73928 -1.01742 0
M  V30 14046 O 1335.4 2.43798 -0.657158 0
M  V30 14047 C 1336.71 0.205831 -2.99995 0
M  V30 14048 C 1338.26 0.279774 -3.11747 0
M  V30 14049 C 1338.73 0.171729 -4.57678 0
M  V30 14050 N 1340.22 0.22921 -4.62633 0
M  V30 14051 C 1340.96 0.169153 -5.7315 0
M  V30 14052 N 1340.45 0.0589166 -6.92775 0
M  V30 14053 N 1342.25 0.221995 -5.61661 0
M  V30 14054 H 1334.4 -0.926727 -1.91117 0
M  V30 14055 H 1336.66 -0.356466 -0.878428 0
M  V30 14056 H 1336.37 -0.755482 -3.4349 0
M  V30 14057 H 1336.24 0.982476 -3.6418 0
M  V30 14058 H 1338.63 1.23154 -2.68174 0
M  V30 14059 H 1338.71 -0.526974 -2.50313 0
M  V30 14060 H 1338.35 -0.776547 -5.01928 0
M  V30 14061 H 1338.28 0.997138 -5.17073 0
M  V30 14062 H 1340.77 0.315196 -3.76583 0
M  V30 14063 H 1341.09 0.0193526 -7.72798 0
M  V30 14064 H 1339.43 0.0243543 -6.94996 0
M  V30 14065 H 1342.62 0.306406 -4.67096 0
M  V30 14066 H 1342.8 0.171727 -6.47772 0
M  V30 14067 N 1336.2 1.55448 0.259558 0
M  V30 14068 C 1337.44 1.78444 0.996849 0
M  V30 14069 C 1337.81 0.580862 1.83003 0
M  V30 14070 O 1339.01 0.68934 2.59811 0
M  V30 14071 C 1337.28 3.06094 1.84502 0
M  V30 14072 S 1338.84 3.50263 2.64313 0
M  V30 14073 H 1335.66 0.626854 0.335523 0
M  V30 14074 H 1338.26 1.93683 0.265929 0
M  V30 14075 H 1336.96 3.91772 1.22241 0
M  V30 14076 H 1336.49 2.93558 2.61891 0
M  V30 14077 H 1338.51 3.10596 3.86968 0
M  V30 14078 N 1337.68 -0.524672 1.4861 0
M  V30 14079 C 1338.61 -1.63782 1.66426 0
M  V30 14080 C 1339.59 -1.62177 0.513077 0
M  V30 14081 O 1340.78 -1.7929 0.74623 0
M  V30 14082 C 1337.91 -3.02354 1.70877 0
M  V30 14083 C 1336.86 -3.18819 2.85549 0
M  V30 14084 C 1336.19 -4.58506 2.75094 0
M  V30 14085 C 1337.49 -3.01086 4.26784 0
M  V30 14086 H 1339.18 -1.49127 2.59618 0
M  V30 14087 H 1336.73 -0.715997 1.24938 0
M  V30 14088 H 1338.68 -3.80105 1.81929 0
M  V30 14089 H 1337.4 -3.18044 0.742682 0
M  V30 14090 H 1336.06 -2.43487 2.74061 0
M  V30 14091 H 1335.71 -4.71038 1.76443 0
M  V30 14092 H 1335.41 -4.70466 3.52044 0
M  V30 14093 H 1336.93 -5.38348 2.88121 0
M  V30 14094 H 1338.35 -3.68624 4.39077 0
M  V30 14095 H 1336.75 -3.24536 5.04774 0
M  V30 14096 H 1337.82 -1.97454 4.42877 0
M  V30 14097 N 1339.16 -1.37287 -0.77395 0
M  V30 14098 C 1340.12 -1.32699 -1.86878 0
M  V30 14099 C 1341.12 -0.231486 -1.59125 0
M  V30 14100 O 1342.31 -0.487203 -1.67248 0
M  V30 14101 C 1339.44 -1.0609 -3.23972 0
M  V30 14102 H 1340.64 -2.30083 -1.92359 0
M  V30 14103 H 1338.19 -1.22284 -0.973459 0
M  V30 14104 H 1338.92 -0.0922868 -3.24169 0
M  V30 14105 H 1338.71 -1.85383 -3.45508 0
M  V30 14106 H 1340.2 -1.05524 -4.04048 0
M  V30 14107 N 1340.64 0.999871 -1.21821 0
M  V30 14108 C 1341.59 2.0729 -0.949465 0
M  V30 14109 C 1342.57 1.60606 0.0972572 0
M  V30 14110 O 1343.76 1.76643 -0.11235 0
M  V30 14111 C 1340.89 3.39315 -0.521565 0
M  V30 14112 C 1339.98 3.92653 -1.60264 0
M  V30 14113 N 1340.37 4.19297 -2.82884 0
M  V30 14114 C 1338.67 4.20984 -1.4727 0
M  V30 14115 C 1339.37 4.62547 -3.52739 0
M  V30 14116 N 1338.34 4.65826 -2.80191 0
M  V30 14117 H 1342.15 2.25822 -1.881 0
M  V30 14118 H 1339.66 1.18102 -1.1147 0
M  V30 14119 H 1341.66 4.15743 -0.310376 0
M  V30 14120 H 1340.32 3.22187 0.403152 0
M  V30 14121 H 1341.33 4.07698 -3.19378 0
M  V30 14122 H 1338 4.12966 -0.613654 0
M  V30 14123 H 1339.39 4.91843 -4.57756 0
M  V30 14124 N 1342.11 1.02678 1.19562 0
M  V30 14125 C 1343.34 0.741424 1.93695 0
M  V30 14126 C 1343.76 -0.693203 1.74861 0
M  V30 14127 O 1343.12 -1.47833 1.04953 0
M  V30 14128 C 1343.17 1.09514 3.43568 0
M  V30 14129 O 1342.27 0.212596 4.11852 0
M  V30 14130 H 1341.62 0.274128 0.604773 0
M  V30 14131 H 1344.15 1.37289 1.517 0
M  V30 14132 H 1344.16 1.05115 3.94227 0
M  V30 14133 H 1342.83 2.14034 3.56598 0
M  V30 14134 H 1341.41 0.315 3.71567 0
M  V30 14135 N 1343.59 -1.35528 0.804364 0
M  V30 14136 C 1344.52 -2.32388 0.227604 0
M  V30 14137 C 1345.5 -1.57368 -0.645709 0
M  V30 14138 O 1346.69 -1.85448 -0.576441 0
M  V30 14139 C 1343.82 -3.41603 -0.62645 0
M  V30 14140 C 1342.77 -4.27743 0.148187 0
M  V30 14141 C 1342.1 -5.28259 -0.827425 0
M  V30 14142 C 1343.4 -5.04661 1.34591 0
M  V30 14143 H 1345.09 -2.80874 1.03684 0
M  V30 14144 H 1342.64 -1.3504 0.500031 0
M  V30 14145 H 1344.59 -4.08365 -1.03999 0
M  V30 14146 H 1343.32 -2.91721 -1.46855 0
M  V30 14147 H 1341.97 -3.62558 0.542874 0
M  V30 14148 H 1341.62 -4.74645 -1.66496 0
M  V30 14149 H 1341.32 -5.86763 -0.313453 0
M  V30 14150 H 1342.85 -5.97893 -1.23921 0
M  V30 14151 H 1344.26 -5.6438 1.00736 0
M  V30 14152 H 1342.66 -5.7265 1.79422 0
M  V30 14153 H 1343.73 -4.35432 2.1337 0
M  V30 14154 N 1345.07 -0.557671 -1.47404 0
M  V30 14155 C 1346.32 -0.0338384 -2.02772 0
M  V30 14156 C 1346.65 1.31278 -1.43107 0
M  V30 14157 O 1345.93 1.85436 -0.58682 0
M  V30 14158 C 1346.21 0.0587427 -3.60052 0
M  V30 14159 C 1346.06 -1.315 -4.30148 0
M  V30 14160 C 1347.38 0.771942 -4.33277 0
M  V30 14161 H 1344.5 -0.0137711 -0.736871 0
M  V30 14162 H 1347.14 -0.720049 -1.75827 0
M  V30 14163 H 1345.29 0.643154 -3.83139 0
M  V30 14164 H 1346.96 -1.94265 -4.184 0
M  V30 14165 H 1345.21 -1.88956 -3.90484 0
M  V30 14166 H 1345.88 -1.20294 -5.38733 0
M  V30 14167 H 1348.35 0.275729 -4.15185 0
M  V30 14168 H 1347.23 0.805683 -5.42955 0
M  V30 14169 H 1347.49 1.82816 -4.0253 0
M  V30 14170 N 1346.55 1.54831 -0.294147 0
M  V30 14171 C 1347.8 1.99606 0.316509 0
M  V30 14172 C 1348.12 1.18405 1.54936 0
M  V30 14173 O 1347.39 0.278289 1.93913 0
M  V30 14174 H 1345.97 0.737309 0.119938 0
M  V30 14175 H 1348.63 1.90669 -0.403891 0
M  V30 14176 H 1347.73 3.06409 0.593282 0
M  V30 14177 N 1348.03 0.0217466 1.57585 0
M  V30 14178 C 1349.26 -0.668881 1.9579 0
M  V30 14179 C 1349.67 -1.66085 0.897849 0
M  V30 14180 O 1349.03 -1.82098 -0.121099 0
M  V30 14181 C 1349.08 -1.38174 3.34051 0
M  V30 14182 O 1348.8 -0.429527 4.35989 0
M  V30 14183 C 1350.3 -2.16487 3.86844 0
M  V30 14184 H 1347.52 -0.184919 0.645016 0
M  V30 14185 H 1350.06 0.0793241 2.04346 0
M  V30 14186 H 1348.22 -2.0814 3.26736 0
M  V30 14187 H 1348.63 -0.934887 5.16101 0
M  V30 14188 H 1350.11 -2.61829 4.85952 0
M  V30 14189 H 1350.58 -3.00082 3.20698 0
M  V30 14190 H 1351.19 -1.51493 3.97404 0
M  V30 14191 N 1349.51 -1.55583 -0.251311 0
M  V30 14192 C 1350.92 -1.67693 -0.820719 0
M  V30 14193 C 1351.27 -0.618393 -1.862 0
M  V30 14194 O 1350.39 0.236158 -2.15108 0
M  V30 14195 C 1350.99 -3.04011 -1.49542 0
M  V30 14196 C 1349.55 -3.18075 -2.01259 0
M  V30 14197 C 1348.69 -2.63557 -0.862138 0
M  V30 14198 H 1351.64 -1.58677 -0.0272072 0
M  V30 14199 H 1351.67 -2.9821 -2.36328 0
M  V30 14200 H 1351.18 -3.81032 -0.737323 0
M  V30 14201 H 1349.28 -2.45869 -2.79963 0
M  V30 14202 H 1349.39 -4.24927 -2.213 0
M  V30 14203 H 1347.76 -2.21268 -1.26145 0
M  V30 14204 H 1348.54 -3.431 -0.117196 0
M  V30 14205 N 1350.98 0.516783 -1.48886 0
M  V30 14206 C 1351.93 1.64093 -1.64853 0
M  V30 14207 C 1352.93 1.61392 -0.514685 0
M  V30 14208 O 1354.13 1.6609 -0.693831 0
M  V30 14209 H 1350.51 0.543672 -0.519543 0
M  V30 14210 H 1352.48 1.47774 -2.5924 0
M  V30 14211 C 1351.23 3.02308 -1.71771 0
M  V30 14212 H 1350.55 3.05085 -2.58385 0
M  V30 14213 H 1351.99 3.80544 -1.86982 0
M  V30 14214 C 1350.45 3.33757 -0.459136 0
M  V30 14215 O 1350.98 3.99475 0.422177 0
M  V30 14216 N 1349.18 2.88756 -0.326837 0
M  V30 14217 H 1348.73 2.35452 -1.045 0
M  V30 14218 H 1348.69 3.10166 0.514213 0
M  V30 14219 N 1352.46 1.37696 0.766659 0
M  V30 14220 C 1353.69 1.36192 1.55355 0
M  V30 14221 C 1354.1 -0.0534148 1.89125 0
M  V30 14222 O 1353.44 -1.02697 1.52312 0
M  V30 14223 C 1353.5 2.14047 2.88833 0
M  V30 14224 C 1353.17 3.6297 2.77672 0
M  V30 14225 C 1354.17 4.56745 2.48355 0
M  V30 14226 C 1351.85 4.06158 2.95534 0
M  V30 14227 C 1353.84 5.91687 2.37035 0
M  V30 14228 C 1351.53 5.41185 2.83835 0
M  V30 14229 C 1352.53 6.33762 2.54627 0
M  V30 14230 O 1352.22 7.66305 2.42963 0
M  V30 14231 H 1351.95 0.46804 0.487765 0
M  V30 14232 H 1354.5 1.81709 0.95765 0
M  V30 14233 H 1352.73 1.63227 3.50562 0
M  V30 14234 H 1354.42 2.05113 3.50262 0
M  V30 14235 H 1355.19 4.24687 2.34236 0
M  V30 14236 H 1351.07 3.34457 3.17269 0
M  V30 14237 H 1354.61 6.63914 2.14158 0
M  V30 14238 H 1350.51 5.72844 2.97524 0
M  V30 14239 H 1351.28 7.76683 2.58274 0
M  V30 14240 N 1353.94 -0.993397 1.22349 0
M  V30 14241 C 1355.19 -1.72707 1.04189 0
M  V30 14242 C 1355.5 -1.90963 -0.423381 0
M  V30 14243 O 1356.71 -2.61651 -0.724645 0
M  V30 14244 C 1355.16 -3.10739 1.81575 0
M  V30 14245 C 1354.77 -3.00415 3.32347 0
M  V30 14246 C 1356.52 -3.88155 1.71861 0
M  V30 14247 C 1354.42 -4.33598 4.02177 0
M  V30 14248 H 1353.35 -0.647556 0.386248 0
M  V30 14249 H 1356 -1.10902 1.46195 0
M  V30 14250 H 1354.39 -3.73222 1.32367 0
M  V30 14251 H 1355.56 -2.47099 3.88946 0
M  V30 14252 H 1353.87 -2.36482 3.42732 0
M  V30 14253 H 1356.47 -4.8673 2.21354 0
M  V30 14254 H 1356.81 -4.10726 0.678939 0
M  V30 14255 H 1357.35 -3.32347 2.18609 0
M  V30 14256 H 1354.09 -4.16226 5.06395 0
M  V30 14257 H 1353.61 -4.86829 3.50367 0
M  V30 14258 H 1355.29 -5.02348 4.07744 0
M  V30 14259 N 1355.42 -1.03311 -1.19015 0
M  V30 14260 C 1356.38 -0.622114 -2.20596 0
M  V30 14261 C 1357.38 0.316502 -1.57654 0
M  V30 14262 O 1358.57 0.102932 -1.73896 0
M  V30 14263 C 1355.7 0.0890432 -3.40784 0
M  V30 14264 H 1356.9 -1.52095 -2.58471 0
M  V30 14265 H 1354.45 -0.824777 -1.32767 0
M  V30 14266 H 1355.18 1.00203 -3.08431 0
M  V30 14267 H 1354.97 -0.58547 -3.87704 0
M  V30 14268 H 1356.46 0.363366 -4.16016 0
M  V30 14269 N 1356.9 1.35099 -0.81154 0
M  V30 14270 C 1358.31 1.81082 -0.454543 0
M  V30 14271 C 1358.66 1.67361 1.02395 0
M  V30 14272 O 1357.78 1.20707 1.79607 0
M  V30 14273 C 1358.38 3.2877 -0.818274 0
M  V30 14274 C 1356.94 3.72877 -0.513808 0
M  V30 14275 C 1356.08 2.57008 -1.04125 0
M  V30 14276 H 1359.03 1.23007 -1.00274 0
M  V30 14277 H 1359.06 3.80318 -0.117683 0
M  V30 14278 H 1358.57 3.38725 -1.89439 0
M  V30 14279 H 1356.67 3.68468 0.553368 0
M  V30 14280 H 1356.78 4.67455 -1.0499 0
M  V30 14281 H 1355.15 2.5045 -0.463337 0
M  V30 14282 H 1355.93 2.69738 -2.12358 0
M  V30 14283 N 1358.37 0.56548 1.47106 0
M  V30 14284 C 1359.28 -0.180488 2.33905 0
M  V30 14285 C 1360.3 -0.90355 1.48701 0
M  V30 14286 O 1361.48 -0.870595 1.81611 0
M  V30 14287 C 1358.54 -1.19212 3.2556 0
M  V30 14288 C 1357.6 -0.475589 4.26658 0
M  V30 14289 C 1356.83 -1.43902 5.13934 0
M  V30 14290 O 1357.06 -2.67443 5.03816 0
M  V30 14291 O 1355.99 -0.958998 5.94211 0
M  V30 14292 H 1359.82 0.531726 2.99009 0
M  V30 14293 H 1357.4 0.32602 1.45799 0
M  V30 14294 H 1359.28 -1.77586 3.82153 0
M  V30 14295 H 1357.96 -1.8861 2.63074 0
M  V30 14296 H 1356.87 0.149561 3.73801 0
M  V30 14297 H 1358.2 0.177103 4.91881 0
M  V30 14298 N 1359.85 -1.54672 0.302354 0
M  V30 14299 C 1361.1 -2.00463 -0.306978 0
M  V30 14300 C 1361.43 -1.19043 -1.53435 0
M  V30 14301 O 1360.71 -0.267255 -1.92655 0
M  V30 14302 C 1360.99 -3.53958 -0.662229 0
M  V30 14303 C 1360.84 -4.46118 0.574378 0
M  V30 14304 C 1362.16 -4.14174 -1.48821 0
M  V30 14305 H 1359.28 -0.728729 -0.110102 0
M  V30 14306 H 1361.92 -1.85419 0.414722 0
M  V30 14307 H 1360.07 -3.66909 -1.2771 0
M  V30 14308 H 1361.74 -4.45071 1.21284 0
M  V30 14309 H 1359.99 -4.1666 1.20736 0
M  V30 14310 H 1360.66 -5.51281 0.281651 0
M  V30 14311 H 1363.13 -4.04668 -0.968674 0
M  V30 14312 H 1362.01 -5.2173 -1.70556 0
M  V30 14313 H 1362.27 -3.66136 -2.47784 0
M  V30 14314 N 1361.33 -0.0301034 -1.57571 0
M  V30 14315 C 1362.26 0.94977 -2.13311 0
M  V30 14316 C 1363.24 1.33865 -1.04948 0
M  V30 14317 O 1364.43 1.4171 -1.32786 0
M  V30 14318 C 1361.56 2.23178 -2.66099 0
M  V30 14319 C 1360.51 1.98362 -3.79258 0
M  V30 14320 C 1359.84 3.32836 -4.18479 0
M  V30 14321 C 1361.14 1.32201 -5.05292 0
M  V30 14322 H 1362.83 0.485562 -2.95436 0
M  V30 14323 H 1360.38 0.232116 -1.42117 0
M  V30 14324 H 1362.33 2.92108 -3.03728 0
M  V30 14325 H 1361.05 2.71766 -1.81137 0
M  V30 14326 H 1359.71 1.31849 -3.42069 0
M  V30 14327 H 1359.36 3.79185 -3.30496 0
M  V30 14328 H 1359.06 3.17037 -4.94733 0
M  V30 14329 H 1360.58 4.03032 -4.58691 0
M  V30 14330 H 1362 1.91133 -5.40501 0
M  V30 14331 H 1360.4 1.26797 -5.86551 0
M  V30 14332 H 1361.47 0.29511 -4.84001 0
M  V30 14333 N 1362.81 1.55714 0.243056 0
M  V30 14334 C 1363.74 1.93655 1.30461 0
M  V30 14335 C 1364.72 0.801968 1.50008 0
M  V30 14336 O 1365.9 1.06256 1.62552 0
M  V30 14337 C 1363.03 2.23459 2.65863 0
M  V30 14338 C 1361.99 3.39205 2.61006 0
M  V30 14339 C 1361.31 3.5456 4.00239 0
M  V30 14340 C 1362.61 4.74787 2.17656 0
M  V30 14341 H 1364.31 2.82575 0.98954 0
M  V30 14342 H 1361.85 1.35955 0.474572 0
M  V30 14343 H 1363.81 2.48591 3.40266 0
M  V30 14344 H 1362.53 1.31369 2.99014 0
M  V30 14345 H 1361.19 3.14088 1.89061 0
M  V30 14346 H 1360.84 2.59884 4.30661 0
M  V30 14347 H 1360.54 4.32399 3.97876 0
M  V30 14348 H 1362.06 3.82017 4.76335 0
M  V30 14349 H 1363.48 4.99266 2.81792 0
M  V30 14350 H 1361.87 5.55756 2.26397 0
M  V30 14351 H 1362.94 4.7159 1.12831 0
M  V30 14352 N 1364.29 -0.50888 1.49158 0
M  V30 14353 C 1365.7 -0.839353 1.35746 0
M  V30 14354 C 1365.9 -1.97797 0.38453 0
M  V30 14355 O 1364.96 -2.51809 -0.186651 0
M  V30 14356 C 1366.27 -1.18698 2.76281 0
M  V30 14357 C 1367.82 -1.29565 2.84924 0
M  V30 14358 C 1368.29 -1.67661 4.26209 0
M  V30 14359 N 1369.79 -1.74725 4.28982 0
M  V30 14360 C 1370.52 -2.05631 5.3526 0
M  V30 14361 N 1370.02 -2.34814 6.51793 0
M  V30 14362 N 1371.81 -2.06815 5.2267 0
M  V30 14363 H 1363.96 0.242065 2.11016 0
M  V30 14364 H 1366.22 0.0456901 0.946898 0
M  V30 14365 H 1365.93 -0.423769 3.49138 0
M  V30 14366 H 1365.8 -2.13227 3.11149 0
M  V30 14367 H 1368.19 -2.0496 2.1231 0
M  V30 14368 H 1368.27 -0.331059 2.53649 0
M  V30 14369 H 1367.92 -0.928198 4.99346 0
M  V30 14370 H 1367.85 -2.65207 4.54943 0
M  V30 14371 H 1370.34 -1.54364 3.44935 0
M  V30 14372 H 1370.65 -2.57562 7.28616 0
M  V30 14373 H 1368.99 -2.32288 6.55032 0
M  V30 14374 H 1372.19 -1.83487 4.30639 0
M  V30 14375 H 1372.36 -2.30568 6.05593 0
M  V30 14376 N 1365.76 -1.381 -0.759346 0
M  V30 14377 C 1366.99 -1.37213 -1.54855 0
M  V30 14378 C 1367.41 0.0395175 -1.88759 0
M  V30 14379 O 1366.76 1.00462 -1.5236 0
M  V30 14380 C 1366.82 -2.22232 -2.85123 0
M  V30 14381 O 1366.54 -3.57897 -2.52668 0
M  V30 14382 C 1368.04 -2.29461 -3.79292 0
M  V30 14383 H 1365.26 -0.469542 -0.479345 0
M  V30 14384 H 1367.8 -1.81604 -0.940216 0
M  V30 14385 H 1365.96 -1.81317 -3.42349 0
M  V30 14386 H 1366.37 -4.02599 -3.36176 0
M  V30 14387 H 1367.84 -2.93246 -4.67665 0
M  V30 14388 H 1368.32 -1.3066 -4.19315 0
M  V30 14389 H 1368.93 -2.70741 -3.27993 0
M  V30 14390 N 1367.24 0.986894 -1.22875 0
M  V30 14391 C 1368.49 1.72388 -1.05484 0
M  V30 14392 C 1368.81 1.90639 0.410074 0
M  V30 14393 O 1368.08 1.47036 1.2945 0
M  V30 14394 H 1366.66 0.638732 -0.387337 0
M  V30 14395 H 1369.32 1.18829 -1.54485 0
M  V30 14396 H 1368.42 2.71599 -1.53754 0
M  V30 14397 N 1368.72 1.0394 1.18466 0
M  V30 14398 C 1369.95 0.760909 1.92077 0
M  V30 14399 C 1370.36 -0.685622 1.7634 0
M  V30 14400 O 1369.7 -1.47894 1.08963 0
M  V30 14401 C 1369.76 1.04583 3.43952 0
M  V30 14402 C 1369.43 2.48602 3.83466 0
M  V30 14403 C 1370.42 3.46775 3.87354 0
M  V30 14404 C 1368.11 2.8328 4.14798 0
M  V30 14405 C 1370.1 4.77678 4.22022 0
M  V30 14406 C 1367.79 4.1439 4.49138 0
M  V30 14407 C 1368.79 5.11399 4.52725 0
M  V30 14408 O 1368.48 6.40159 4.86264 0
M  V30 14409 H 1368.21 0.276991 0.616646 0
M  V30 14410 H 1370.76 1.3898 1.5124 0
M  V30 14411 H 1368.99 0.359807 3.85022 0
M  V30 14412 H 1370.68 0.755336 3.9881 0
M  V30 14413 H 1371.45 3.21323 3.63286 0
M  V30 14414 H 1367.33 2.08444 4.11184 0
M  V30 14415 H 1370.87 5.53393 4.24737 0
M  V30 14416 H 1366.77 4.39611 4.72666 0
M  V30 14417 H 1367.54 6.4479 5.04171 0
M  V30 14418 N 1370.2 -1.34667 0.818693 0
M  V30 14419 C 1371.43 -2.02642 0.417608 0
M  V30 14420 C 1371.84 -1.61667 -0.97516 0
M  V30 14421 O 1371.2 -0.820056 -1.63038 0
M  V30 14422 C 1371.25 -3.57951 0.505295 0
M  V30 14423 O 1370.97 -3.97441 1.84317 0
M  V30 14424 C 1372.47 -4.4319 0.0985667 0
M  V30 14425 H 1369.69 -0.6496 0.168111 0
M  V30 14426 H 1372.24 -1.72032 1.10568 0
M  V30 14427 H 1370.39 -3.87166 -0.134646 0
M  V30 14428 H 1370.8 -4.92116 1.81444 0
M  V30 14429 H 1372.28 -5.51597 0.211015 0
M  V30 14430 H 1372.76 -4.28637 -0.95745 0
M  V30 14431 H 1373.36 -4.19295 0.71214 0
M  V30 14432 N 1371.68 -0.573274 -1.46804 0
M  V30 14433 C 1372.61 0.20305 -2.28299 0
M  V30 14434 C 1373.62 0.864367 -1.37958 0
M  V30 14435 O 1374.81 0.735516 -1.62642 0
M  V30 14436 C 1371.91 1.30633 -3.12711 0
M  V30 14437 C 1371.08 0.738741 -4.31116 0
M  V30 14438 C 1370.14 1.72853 -4.96999 0
M  V30 14439 O 1369.17 1.2683 -5.5489 0
M  V30 14440 N 1370.37 3.06239 -4.93151 0
M  V30 14441 H 1373.14 -0.496086 -2.95566 0
M  V30 14442 H 1370.7 -0.410411 -1.56612 0
M  V30 14443 H 1372.69 1.96755 -3.53652 0
M  V30 14444 H 1371.26 1.90846 -2.47581 0
M  V30 14445 H 1370.48 -0.0996941 -3.94074 0
M  V30 14446 H 1371.77 0.339154 -5.07668 0
M  V30 14447 H 1371.16 3.46262 -4.47347 0
M  V30 14448 H 1369.72 3.67876 -5.38062 0
M  V30 14449 N 1373.15 1.5451 -0.310553 0
M  V30 14450 C 1374.08 2.26827 0.554243 0
M  V30 14451 C 1375.07 1.27133 1.13009 0
M  V30 14452 O 1376.25 1.55923 1.15765 0
M  V30 14453 C 1373.38 3.01626 1.7216 0
M  V30 14454 C 1372.33 4.08547 1.27566 0
M  V30 14455 C 1371.66 4.71115 2.52893 0
M  V30 14456 C 1372.96 5.20766 0.399955 0
M  V30 14457 H 1374.65 2.9936 -0.0489475 0
M  V30 14458 H 1372.2 1.43978 -0.0249817 0
M  V30 14459 H 1374.15 3.50942 2.33276 0
M  V30 14460 H 1372.88 2.26688 2.35118 0
M  V30 14461 H 1371.54 3.60096 0.687499 0
M  V30 14462 H 1371.18 3.92805 3.14186 0
M  V30 14463 H 1370.88 5.43331 2.23752 0
M  V30 14464 H 1372.41 5.23198 3.14796 0
M  V30 14465 H 1373.82 5.65918 0.917054 0
M  V30 14466 H 1372.22 5.9976 0.2019 0
M  V30 14467 H 1373.29 4.81508 -0.572537 0
M  V30 14468 N 1374.63 0.0384594 1.57553 0
M  V30 14469 C 1375.87 -0.642187 1.9405 0
M  V30 14470 C 1376.24 -1.68753 0.915779 0
M  V30 14471 O 1377.44 -2.42133 1.16726 0
M  V30 14472 C 1375.71 -1.23422 3.35413 0
M  V30 14473 S 1377.27 -1.93464 3.93849 0
M  V30 14474 H 1374.09 -0.211198 0.678908 0
M  V30 14475 H 1376.69 0.104358 1.95221 0
M  V30 14476 H 1375.39 -0.461112 4.07801 0
M  V30 14477 H 1374.92 -2.01787 3.37707 0
M  V30 14478 H 1376.94 -3.21401 3.78042 0
M  V30 14479 N 1376.11 -1.55841 -0.234795 0
M  V30 14480 C 1377.39 -1.69008 -0.984665 0
M  V30 14481 C 1377.77 -0.581882 -2.02922 0
M  V30 14482 O 1377.12 0.412998 -2.24737 0
M  V30 14483 C 1377.33 -3.09796 -1.60708 0
M  V30 14484 C 1378.67 -3.68784 -2.10436 0
M  V30 14485 O 1379.7 -3.12674 -1.70627 0
M  V30 14486 O 1378.56 -4.67175 -2.83567 0
M  V30 14487 H 1375.65 -0.68786 -0.459105 0
M  V30 14488 H 1378.2 -1.68166 -0.227623 0
M  V30 14489 H 1376.97 -3.81908 -0.852169 0
M  V30 14490 H 1376.59 -3.147 -2.43001 0
M  V30 14491 N 1377.59 0.500963 -1.49426 0
M  V30 14492 C 1378.84 1.25427 -1.60124 0
M  V30 14493 C 1379.19 1.90288 -0.284312 0
M  V30 14494 O 1378.48 1.77741 0.715459 0
M  V30 14495 C 1378.68 2.34448 -2.69757 0
M  V30 14496 C 1378.51 1.80278 -4.11983 0
M  V30 14497 C 1377.28 1.61577 -4.7877 0
M  V30 14498 C 1379.47 1.31462 -4.97215 0
M  V30 14499 N 1377.46 1.02337 -6.0531 0
M  V30 14500 C 1378.83 0.843562 -6.14235 0
M  V30 14501 C 1380.88 1.20035 -4.83214 0
M  V30 14502 C 1379.59 0.269543 -7.18795 0
M  V30 14503 C 1381.61 0.640304 -5.87924 0
M  V30 14504 C 1380.97 0.179474 -7.04171 0
M  V30 14505 H 1377.07 0.448932 -0.6403 0
M  V30 14506 H 1379.66 0.561377 -1.86431 0
M  V30 14507 H 1377.83 3.01198 -2.45223 0
M  V30 14508 H 1379.56 3.01487 -2.69977 0
M  V30 14509 H 1376.31 1.85946 -4.3557 0
M  V30 14510 H 1376.74 0.746441 -6.72872 0
M  V30 14511 H 1381.38 1.54263 -3.93653 0
M  V30 14512 H 1379.1 -0.0849963 -8.08055 0
M  V30 14513 H 1382.68 0.554669 -5.7915 0
M  V30 14514 H 1381.56 -0.247125 -7.83811 0
M  V30 14515 N 1379.07 1.38501 0.752011 0
M  V30 14516 C 1380.31 1.36 1.51246 0
M  V30 14517 C 1380.67 -0.049305 1.92337 0
M  V30 14518 O 1379.96 -1.01227 1.62676 0
M  V30 14519 C 1380.16 2.25111 2.77596 0
M  V30 14520 C 1379.98 3.74566 2.48858 0
M  V30 14521 C 1378.75 4.43582 2.41999 0
M  V30 14522 C 1380.95 4.6696 2.1553 0
M  V30 14523 N 1378.93 5.78465 2.05553 0
M  V30 14524 C 1380.31 5.90366 1.89388 0
M  V30 14525 C 1382.36 4.55148 2.01853 0
M  V30 14526 C 1381.06 7.03283 1.50948 0
M  V30 14527 C 1383.09 5.6797 1.64815 0
M  V30 14528 C 1382.45 6.90439 1.39546 0
M  V30 14529 H 1378.55 0.552942 0.552973 0
M  V30 14530 H 1381.13 1.73902 0.875559 0
M  V30 14531 H 1379.31 1.89395 3.39093 0
M  V30 14532 H 1381.04 2.13725 3.43662 0
M  V30 14533 H 1377.79 3.96816 2.58523 0
M  V30 14534 H 1378.22 6.498 1.8997 0
M  V30 14535 H 1382.86 3.61015 2.20063 0
M  V30 14536 H 1380.58 7.97333 1.31477 0
M  V30 14537 H 1384.16 5.60811 1.54862 0
M  V30 14538 H 1383.04 7.7626 1.11313 0
M  V30 14539 N 1380.55 -0.980364 1.23396 0
M  V30 14540 C 1381.77 -1.76223 1.09363 0
M  V30 14541 C 1382.2 -1.84801 -0.350759 0
M  V30 14542 O 1381.55 -1.30966 -1.2537 0
M  V30 14543 C 1381.6 -3.16728 1.72383 0
M  V30 14544 O 1380.71 -4.00439 0.986002 0
M  V30 14545 H 1380.05 -0.542174 0.383332 0
M  V30 14546 H 1382.58 -1.23066 1.6345 0
M  V30 14547 H 1382.59 -3.67307 1.77623 0
M  V30 14548 H 1381.26 -3.098 2.77483 0
M  V30 14549 H 1379.84 -3.58946 1.01054 0
M  V30 14550 N 1382.02 -1.04567 -1.17913 0
M  V30 14551 C 1383.27 -0.753137 -1.88297 0
M  V30 14552 C 1383.6 0.717651 -1.80453 0
M  V30 14553 O 1382.88 1.5242 -1.20824 0
M  V30 14554 C 1383.16 -1.22626 -3.38578 0
M  V30 14555 C 1383.01 -2.75952 -3.55205 0
M  V30 14556 C 1384.33 -0.82029 -4.32388 0
M  V30 14557 H 1381.45 -0.275067 -0.683745 0
M  V30 14558 H 1384.09 -1.29856 -1.38699 0
M  V30 14559 H 1382.24 -0.762246 -3.80949 0
M  V30 14560 H 1383.92 -3.30429 -3.21892 0
M  V30 14561 H 1382.16 -3.15534 -2.97693 0
M  V30 14562 H 1382.83 -3.04116 -4.60671 0
M  V30 14563 H 1385.31 -1.21965 -3.97824 0
M  V30 14564 H 1384.18 -1.17902 -5.36088 0
M  V30 14565 H 1384.44 0.276205 -4.41236 0
M  V30 14566 N 1383.5 1.34231 -0.825823 0
M  V30 14567 C 1384.75 1.97805 -0.414456 0
M  V30 14568 C 1385.07 1.65786 1.02664 0
M  V30 14569 O 1384.34 0.950069 1.7132 0
M  V30 14570 H 1382.92 0.73173 -0.150265 0
M  V30 14571 H 1385.58 1.63819 -1.05591 0
M  V30 14572 H 1384.68 3.07466 -0.535829 0
M  V30 14573 N 1384.98 0.581051 1.46498 0
M  V30 14574 C 1386.23 0.0660934 2.02692 0
M  V30 14575 C 1386.56 -1.28985 1.45178 0
M  V30 14576 O 1385.83 -1.84479 0.616247 0
M  V30 14577 C 1386.12 -0.00145411 3.601 0
M  V30 14578 C 1385.97 1.38327 4.28002 0
M  V30 14579 C 1387.29 -0.702914 4.3445 0
M  V30 14580 H 1384.41 0.0254923 0.736559 0
M  V30 14581 H 1387.05 0.74793 1.7466 0
M  V30 14582 H 1385.2 -0.582118 3.84114 0
M  V30 14583 H 1386.87 2.00897 4.15257 0
M  V30 14584 H 1385.11 1.95144 3.87429 0
M  V30 14585 H 1385.79 1.28849 5.36751 0
M  V30 14586 H 1388.26 -0.209641 4.15572 0
M  V30 14587 H 1387.14 -0.719202 5.44168 0
M  V30 14588 H 1387.4 -1.76389 4.05388 0
M  V30 14589 N 1386.46 -1.54343 0.318742 0
M  V30 14590 C 1387.71 -1.9966 -0.286146 0
M  V30 14591 C 1388.02 -1.21073 -1.53625 0
M  V30 14592 O 1389.23 -1.56744 -2.21684 0
M  V30 14593 C 1387.68 -3.5551 -0.560405 0
M  V30 14594 C 1387.29 -4.42926 0.672373 0
M  V30 14595 C 1389.03 -4.09307 -1.12551 0
M  V30 14596 C 1386.94 -5.9024 0.370285 0
M  V30 14597 H 1385.87 -0.74583 -0.110698 0
M  V30 14598 H 1388.52 -1.78386 0.430215 0
M  V30 14599 H 1386.9 -3.72753 -1.33683 0
M  V30 14600 H 1388.08 -4.37458 1.448 0
M  V30 14601 H 1386.39 -3.99993 1.15736 0
M  V30 14602 H 1388.99 -5.16955 -1.36607 0
M  V30 14603 H 1389.33 -3.60994 -2.07338 0
M  V30 14604 H 1389.87 -3.95677 -0.410385 0
M  V30 14605 H 1386.6 -6.42738 1.28719 0
M  V30 14606 H 1386.12 -5.98672 -0.367731 0
M  V30 14607 H 1387.8 -6.46996 -0.0216582 0
M  V30 14608 N 1387.94 -0.0468143 -1.5753 0
M  V30 14609 C 1388.87 0.927092 -2.14306 0
M  V30 14610 C 1389.85 1.32745 -1.06362 0
M  V30 14611 O 1391.03 1.40293 -1.34281 0
M  V30 14612 C 1388.16 2.20343 -2.68452 0
M  V30 14613 C 1387.12 1.94328 -3.81341 0
M  V30 14614 C 1386.44 3.28379 -4.21985 0
M  V30 14615 C 1387.74 1.26835 -5.06666 0
M  V30 14616 H 1389.44 0.454199 -2.95935 0
M  V30 14617 H 1386.98 0.217029 -1.42355 0
M  V30 14618 H 1388.93 2.8887 -3.0681 0
M  V30 14619 H 1387.66 2.6983 -1.84009 0
M  V30 14620 H 1386.32 1.28214 -3.43448 0
M  V30 14621 H 1385.97 3.75658 -3.34499 0
M  V30 14622 H 1385.67 3.11772 -4.98068 0
M  V30 14623 H 1387.19 3.98145 -4.6294 0
M  V30 14624 H 1388.6 1.85389 -5.42498 0
M  V30 14625 H 1387 1.20569 -5.87863 0
M  V30 14626 H 1388.07 0.243759 -4.84287 0
M  V30 14627 N 1389.41 1.55964 0.226527 0
M  V30 14628 C 1390.66 1.78745 0.95165 0
M  V30 14629 C 1390.99 0.614714 1.84531 0
M  V30 14630 O 1390.24 -0.401137 1.91545 0
M  V30 14631 C 1390.54 3.07235 1.82597 0
M  V30 14632 C 1390.21 4.37627 1.08596 0
M  V30 14633 C 1388.87 4.73057 0.881531 0
M  V30 14634 C 1391.22 5.1815 0.563019 0
M  V30 14635 C 1388.55 5.86528 0.142172 0
M  V30 14636 C 1390.9 6.3239 -0.162972 0
M  V30 14637 C 1389.57 6.66425 -0.378704 0
M  V30 14638 H 1388.84 0.654075 0.348233 0
M  V30 14639 H 1391.48 1.9023 0.220187 0
M  V30 14640 H 1389.79 2.9085 2.62514 0
M  V30 14641 H 1391.49 3.22063 2.38907 0
M  V30 14642 H 1388.08 4.09806 1.25527 0
M  V30 14643 H 1392.26 4.91218 0.708446 0
M  V30 14644 H 1387.52 6.1139 -0.0352481 0
M  V30 14645 H 1391.69 6.94016 -0.575719 0
M  V30 14646 H 1389.32 7.54196 -0.953549 0
M  V30 14647 N 1390.89 -0.493031 1.4969 0
M  V30 14648 C 1391.8 -1.61991 1.69694 0
M  V30 14649 C 1392.82 -1.64061 0.579641 0
M  V30 14650 O 1393.99 -1.82335 0.855323 0
M  V30 14651 C 1391.06 -2.98323 1.76648 0
M  V30 14652 C 1390.12 -3.06816 3.00271 0
M  V30 14653 C 1389.35 -4.36644 3.06883 0
M  V30 14654 O 1389.58 -5.25901 2.20872 0
M  V30 14655 O 1388.51 -4.50275 3.99419 0
M  V30 14656 H 1392.34 -1.48042 2.65174 0
M  V30 14657 H 1389.92 -0.670182 1.33525 0
M  V30 14658 H 1391.8 -3.79335 1.83529 0
M  V30 14659 H 1390.48 -3.12517 0.843482 0
M  V30 14660 H 1389.39 -2.24962 2.98903 0
M  V30 14661 H 1390.72 -2.97551 3.92077 0
M  V30 14662 N 1392.37 -1.38898 -0.744656 0
M  V30 14663 C 1393.3 -1.31228 -1.86693 0
M  V30 14664 C 1394.28 -0.187667 -1.61513 0
M  V30 14665 O 1395.47 -0.366497 -1.84903 0
M  V30 14666 C 1392.59 -1.03541 -3.22486 0
M  V30 14667 C 1391.64 -2.18061 -3.6654 0
M  V30 14668 S 1392.47 -3.80271 -3.77033 0
M  V30 14669 C 1393.63 -3.5479 -5.15631 0
M  V30 14670 H 1393.86 -2.26211 -1.92914 0
M  V30 14671 H 1391.39 -1.24839 -0.908544 0
M  V30 14672 H 1393.35 -0.882504 -4.00902 0
M  V30 14673 H 1392.01 -0.102611 -3.13932 0
M  V30 14674 H 1391.21 -1.94257 -4.65059 0
M  V30 14675 H 1390.81 -2.29505 -2.95302 0
M  V30 14676 H 1393.1 -3.11457 -6.01665 0
M  V30 14677 H 1394.04 -4.52735 -5.4446 0
M  V30 14678 H 1394.45 -2.89103 -4.8485 0
M  V30 14679 N 1393.85 0.973806 -1.23914 0
M  V30 14680 C 1394.78 2.08526 -1.05068 0
M  V30 14681 C 1395.76 1.70065 0.0344761 0
M  V30 14682 O 1396.94 1.93755 -0.131432 0
M  V30 14683 C 1394.07 3.41198 -0.648165 0
M  V30 14684 C 1393.03 3.9359 -1.6814 0
M  V30 14685 C 1392.35 5.22534 -1.13414 0
M  V30 14686 C 1393.65 4.22116 -3.07597 0
M  V30 14687 H 1395.35 2.24551 -1.98034 0
M  V30 14688 H 1392.89 1.07905 -0.953546 0
M  V30 14689 H 1394.85 4.18383 -0.50334 0
M  V30 14690 H 1393.57 3.25056 0.317182 0
M  V30 14691 H 1392.23 3.18555 -1.81434 0
M  V30 14692 H 1391.88 5.02747 -0.159578 0
M  V30 14693 H 1391.58 5.58555 -1.82456 0
M  V30 14694 H 1393.1 6.02334 -1.0013 0
M  V30 14695 H 1394.52 4.90027 -2.97567 0
M  V30 14696 H 1392.91 4.69352 -3.73937 0
M  V30 14697 H 1393.98 3.29128 -3.56094 0
M  V30 14698 N 1395.33 1.05191 1.17357 0
M  V30 14699 C 1396.57 0.763113 1.87895 0
M  V30 14700 C 1396.91 -0.708071 1.80831 0
M  V30 14701 O 1396.18 -1.51777 1.21631 0
M  V30 14702 C 1396.46 1.2442 3.37923 0
M  V30 14703 C 1396.32 2.77832 3.53737 0
M  V30 14704 C 1397.64 0.843209 4.31947 0
M  V30 14705 H 1394.75 0.27869 0.682276 0
M  V30 14706 H 1397.4 1.3059 1.38008 0
M  V30 14707 H 1395.55 0.782438 3.80539 0
M  V30 14708 H 1397.22 3.32131 3.20135 0
M  V30 14709 H 1395.46 3.17108 2.96015 0
M  V30 14710 H 1396.13 3.06555 4.59052 0
M  V30 14711 H 1398.61 1.24073 3.97171 0
M  V30 14712 H 1397.48 1.20743 5.35455 0
M  V30 14713 H 1397.75 -0.252802 4.41377 0
M  V30 14714 N 1396.8 -1.33791 0.83293 0
M  V30 14715 C 1398.05 -1.97582 0.42494 0
M  V30 14716 C 1398.37 -1.66328 -1.01784 0
M  V30 14717 O 1397.64 -0.959141 -1.70814 0
M  V30 14718 H 1396.22 -0.730923 0.154143 0
M  V30 14719 H 1398.89 -1.63257 1.06458 0
M  V30 14720 H 1397.98 -3.07177 0.552127 0
M  V30 14721 N 1398.28 -0.588812 -1.46187 0
M  V30 14722 C 1399.21 0.178825 -2.28501 0
M  V30 14723 C 1400.23 0.849686 -1.38867 0
M  V30 14724 O 1401.42 0.718224 -1.63413 0
M  V30 14725 C 1398.52 1.27309 -3.14079 0
M  V30 14726 C 1397.69 0.692974 -4.31876 0
M  V30 14727 C 1396.75 1.67572 -4.98805 0
M  V30 14728 O 1395.77 1.20937 -5.56204 0
M  V30 14729 N 1396.98 3.00992 -4.96371 0
M  V30 14730 H 1399.74 -0.527407 -2.95023 0
M  V30 14731 H 1397.3 -0.426998 -1.56168 0
M  V30 14732 H 1399.29 1.92993 -3.55719 0
M  V30 14733 H 1397.86 1.88209 -2.49592 0
M  V30 14734 H 1397.08 -0.141485 -3.93946 0
M  V30 14735 H 1398.37 0.28529 -5.08 0
M  V30 14736 H 1397.77 3.41498 -4.50994 0
M  V30 14737 H 1396.33 3.62149 -5.41933 0
M  V30 14738 N 1399.76 1.54172 -0.326923 0
M  V30 14739 C 1401.17 1.86009 0.160446 0
M  V30 14740 C 1401.52 1.24851 1.51349 0
M  V30 14741 O 1400.65 0.555804 2.09141 0
M  V30 14742 C 1401.24 3.37488 0.297909 0
M  V30 14743 C 1399.8 3.69263 0.7295 0
M  V30 14744 C 1398.95 2.76911 -0.146778 0
M  V30 14745 H 1401.9 1.48972 -0.547093 0
M  V30 14746 H 1401.92 3.63388 1.12825 0
M  V30 14747 H 1401.43 3.81971 -0.687007 0
M  V30 14748 H 1399.53 3.30314 1.72404 0
M  V30 14749 H 1399.65 4.76149 0.53092 0
M  V30 14750 H 1398.01 2.51876 0.378212 0
M  V30 14751 H 1398.79 3.24221 -1.12852 0
M  V30 14752 N 1401.24 0.0551678 1.57503 0
M  V30 14753 C 1402.65 -0.479948 1.80426 0
M  V30 14754 C 1403 -1.70673 0.967733 0
M  V30 14755 O 1402.13 -2.15604 0.185462 0
M  V30 14756 C 1402.72 -0.877496 3.27239 0
M  V30 14757 C 1401.28 -1.35757 3.51066 0
M  V30 14758 C 1400.43 -0.334681 2.75273 0
M  V30 14759 H 1403.38 0.281016 1.56192 0
M  V30 14760 H 1403.4 -1.74013 3.38378 0
M  V30 14761 H 1402.91 0.015571 3.88097 0
M  V30 14762 H 1401.01 -2.26969 2.95492 0
M  V30 14763 H 1401.12 -1.34697 4.59776 0
M  V30 14764 H 1399.49 -0.808421 2.4153 0
M  V30 14765 H 1400.27 0.550369 3.3886 0
M  V30 14766 N 1402.72 -1.56081 -0.218252 0
M  V30 14767 C 1403.96 -1.79247 -0.942157 0
M  V30 14768 C 1404.29 -0.624492 -1.84202 0
M  V30 14769 O 1403.55 0.390973 -1.91755 0
M  V30 14770 C 1403.85 -3.08199 -1.80965 0
M  V30 14771 C 1403.51 -4.38197 -1.06274 0
M  V30 14772 C 1402.17 -4.73517 -0.856432 0
M  V30 14773 C 1404.53 -5.18441 -0.535532 0
M  V30 14774 C 1401.85 -5.86595 -0.111065 0
M  V30 14775 C 1404.21 -6.32295 0.196507 0
M  V30 14776 C 1402.87 -6.66215 0.414041 0
M  V30 14777 H 1402.14 -0.655913 -0.34476 0
M  V30 14778 H 1404.79 -1.90344 -0.210095 0
M  V30 14779 H 1403.09 -2.92238 -2.60967 0
M  V30 14780 H 1404.79 -3.23325 -2.37196 0
M  V30 14781 H 1401.38 -4.10466 -1.23352 0
M  V30 14782 H 1405.56 -4.91586 -0.682386 0
M  V30 14783 H 1400.82 -6.11363 0.0676711 0
M  V30 14784 H 1404.99 -6.93701 0.612516 0
M  V30 14785 H 1402.62 -7.5368 0.993532 0
M  V30 14786 N 1404.2 0.485086 -1.49949 0
M  V30 14787 C 1405.13 1.59312 -1.7071 0
M  V30 14788 C 1406.11 1.6076 -0.555896 0
M  V30 14789 O 1407.29 1.77249 -0.793504 0
M  V30 14790 C 1404.42 2.97718 -1.78834 0
M  V30 14791 C 1403.38 3.11136 -2.93902 0
M  V30 14792 C 1402.7 4.51051 -2.87154 0
M  V30 14793 C 1404 2.89665 -4.34617 0
M  V30 14794 H 1405.7 1.42192 -2.6348 0
M  V30 14795 H 1403.24 0.68262 -1.26792 0
M  V30 14796 H 1405.19 3.75148 -1.91943 0
M  V30 14797 H 1403.92 3.15963 -0.826744 0
M  V30 14798 H 1402.58 2.36135 -2.80421 0
M  V30 14799 H 1402.23 4.66195 -1.88869 0
M  V30 14800 H 1401.93 4.60967 -3.64394 0
M  V30 14801 H 1403.45 5.3052 -3.02293 0
M  V30 14802 H 1404.86 3.56853 -4.48697 0
M  V30 14803 H 1403.26 3.11039 -5.13201 0
M  V30 14804 H 1404.33 1.85642 -4.47956 0
M  V30 14805 N 1405.67 1.39291 0.737279 0
M  V30 14806 C 1406.64 1.37607 1.83294 0
M  V30 14807 C 1407.64 0.273594 1.58455 0
M  V30 14808 O 1408.83 0.531375 1.65898 0
M  V30 14809 C 1405.96 1.14642 3.21045 0
M  V30 14810 H 1407.15 2.35102 1.86191 0
M  V30 14811 H 1404.7 1.24822 0.940696 0
M  V30 14812 H 1405.44 0.178202 3.2381 0
M  V30 14813 H 1405.22 1.94479 3.40471 0
M  V30 14814 H 1406.71 1.162 4.01108 0
M  V30 14815 N 1407.15 -0.967221 1.24429 0
M  V30 14816 C 1408.08 -2.06479 0.994946 0
M  V30 14817 C 1409.1 -1.62761 -0.0357582 0
M  V30 14818 O 1410.29 -1.77361 0.201336 0
M  V30 14819 C 1407.39 -3.35487 0.479736 0
M  V30 14820 C 1406.56 -4.0811 1.57368 0
M  V30 14821 C 1405.62 -5.15392 1.06104 0
M  V30 14822 O 1404.64 -5.41539 1.75283 0
M  V30 14823 N 1405.85 -5.80406 -0.104288 0
M  V30 14824 H 1408.61 -2.28443 1.93995 0
M  V30 14825 H 1406.17 -1.13488 1.15465 0
M  V30 14826 H 1408.16 -4.04517 0.121528 0
M  V30 14827 H 1406.73 -3.1039 -0.371012 0
M  V30 14828 H 1405.95 -3.33351 2.10406 0
M  V30 14829 H 1407.24 -4.53391 2.30897 0
M  V30 14830 H 1406.64 -5.61566 -0.682638 0
M  V30 14831 H 1405.2 -6.50549 -0.403638 0
M  V30 14832 N 1408.63 -1.05812 -1.16797 0
M  V30 14833 C 1409.86 -0.792519 -1.9112 0
M  V30 14834 C 1410.27 0.652549 -1.77164 0
M  V30 14835 O 1409.63 1.44633 -1.113 0
M  V30 14836 C 1409.68 -1.17172 -3.41984 0
M  V30 14837 O 1409.4 -2.56008 -3.55516 0
M  V30 14838 C 1410.9 -0.933162 -4.33367 0
M  V30 14839 H 1408.12 -0.28768 -0.606202 0
M  V30 14840 H 1410.67 -1.41046 -1.48075 0
M  V30 14841 H 1408.82 -0.598413 -3.8275 0
M  V30 14842 H 1409.24 -2.71053 -4.49033 0
M  V30 14843 H 1410.71 -1.24817 -5.37703 0
M  V30 14844 H 1411.19 0.131345 -4.39004 0
M  V30 14845 H 1411.79 -1.49062 -3.98322 0
M  V30 14846 N 1410.11 1.33347 -0.840014 0
M  V30 14847 C 1411.52 1.80077 -0.492851 0
M  V30 14848 C 1411.87 1.69495 0.988221 0
M  V30 14849 O 1410.99 1.2449 1.77006 0
M  V30 14850 C 1411.59 3.2696 -0.887827 0
M  V30 14851 C 1410.15 3.71703 -0.592785 0
M  V30 14852 C 1409.3 2.54742 -1.09554 0
M  V30 14853 H 1412.25 1.20853 -1.02861 0
M  V30 14854 H 1412.27 3.79983 -0.198327 0
M  V30 14855 H 1411.78 3.3463 -1.96581 0
M  V30 14856 H 1409.88 3.69559 0.475086 0
M  V30 14857 H 1409.99 4.65123 -1.14882 0
M  V30 14858 H 1408.36 2.49411 -0.516357 0
M  V30 14859 H 1409.14 2.65173 -2.18032 0
M  V30 14860 N 1411.59 0.596556 1.45873 0
M  V30 14861 C 1412.52 -0.116229 2.33211 0
M  V30 14862 C 1413.5 -0.869868 1.46176 0
M  V30 14863 O 1414.68 -0.842599 1.74968 0
M  V30 14864 C 1411.81 -1.12145 3.28696 0
M  V30 14865 C 1410.77 -0.481749 4.2528 0
M  V30 14866 C 1410.09 -1.59443 5.10374 0
M  V30 14867 C 1411.39 0.589996 5.18957 0
M  V30 14868 H 1413.09 0.613005 2.93057 0
M  V30 14869 H 1410.63 0.296242 1.4092 0
M  V30 14870 H 1412.58 -1.62857 3.88659 0
M  V30 14871 H 1411.31 -1.88114 2.66985 0
M  V30 14872 H 1409.97 0.0044092 3.666 0
M  V30 14873 H 1409.62 -2.34413 4.45039 0
M  V30 14874 H 1409.32 -1.17197 5.75794 0
M  V30 14875 H 1410.84 -2.10404 5.73204 0
M  V30 14876 H 1412.25 0.167395 5.73056 0
M  V30 14877 H 1410.65 0.933565 5.92794 0
M  V30 14878 H 1411.72 1.47093 4.62052 0
M  V30 14879 N 1413.06 -1.53996 0.335095 0
M  V30 14880 C 1413.97 -2.28436 -0.534244 0
M  V30 14881 C 1414.99 -1.33224 -1.11926 0
M  V30 14882 O 1416.17 -1.66252 -1.13676 0
M  V30 14883 C 1413.23 -3.03634 -1.67354 0
M  V30 14884 C 1412.29 -4.14455 -1.11916 0
M  V30 14885 C 1411.52 -4.86058 -2.20416 0
M  V30 14886 O 1411.75 -4.57263 -3.40979 0
M  V30 14887 O 1410.68 -5.72704 -1.85185 0
M  V30 14888 H 1414.51 -3.03618 0.0706314 0
M  V30 14889 H 1412.09 -1.49062 0.100409 0
M  V30 14890 H 1413.97 -3.50687 -2.33659 0
M  V30 14891 H 1412.65 -2.31317 -2.26438 0
M  V30 14892 H 1411.56 -3.71725 -0.420871 0
M  V30 14893 H 1412.89 -4.8885 -0.573295 0
M  V30 14894 N 1414.54 -0.0635198 -1.57472 0
M  V30 14895 C 1415.77 0.616735 -1.97494 0
M  V30 14896 C 1416.18 1.63646 -0.941568 0
M  V30 14897 O 1415.54 1.82355 0.0727768 0
M  V30 14898 C 1415.59 1.29268 -3.37597 0
M  V30 14899 O 1415.31 0.313781 -4.36975 0
M  V30 14900 C 1416.81 2.06154 -3.92448 0
M  V30 14901 H 1414.03 0.167753 -0.649692 0
M  V30 14902 H 1416.58 -0.133475 -2.04064 0
M  V30 14903 H 1414.73 1.99404 -3.3214 0
M  V30 14904 H 1415.15 0.797723 -5.18398 0
M  V30 14905 H 1416.62 2.48853 -4.92723 0
M  V30 14906 H 1417.1 2.91474 -3.28541 0
M  V30 14907 H 1417.7 1.40903 -4.01281 0
M  V30 14908 N 1416.02 1.56195 0.209972 0
M  V30 14909 C 1416.95 1.89859 1.28398 0
M  V30 14910 C 1417.96 0.787878 1.42465 0
M  V30 14911 O 1419.15 1.06623 1.43156 0
M  V30 14912 C 1416.25 2.10231 2.65812 0
M  V30 14913 C 1415.43 3.41309 2.73545 0
M  V30 14914 C 1414.49 3.50973 3.92052 0
M  V30 14915 O 1413.51 4.23915 3.79849 0
M  V30 14916 N 1414.71 2.82965 5.06864 0
M  V30 14917 H 1417.48 2.82581 0.998411 0
M  V30 14918 H 1415.04 1.56882 0.399964 0
M  V30 14919 H 1417.03 2.13999 3.43492 0
M  V30 14920 H 1415.6 1.2408 2.8692 0
M  V30 14921 H 1414.82 3.49539 1.82253 0
M  V30 14922 H 1416.11 4.27636 2.7569 0
M  V30 14923 H 1415.51 2.23504 5.19676 0
M  V30 14924 H 1414.06 2.9238 5.82544 0
M  V30 14925 N 1417.5 -0.477127 1.50204 0
M  V30 14926 C 1418.43 -1.59442 1.63259 0
M  V30 14927 C 1419.41 -1.55327 0.480864 0
M  V30 14928 O 1420.59 -1.75038 0.699578 0
M  V30 14929 C 1417.72 -2.98009 1.6096 0
M  V30 14930 C 1416.77 -3.20301 2.8162 0
M  V30 14931 S 1417.6 -3.00849 4.43001 0
M  V30 14932 C 1418.75 -4.41769 4.43386 0
M  V30 14933 H 1418.99 -1.48128 2.5777 0
M  V30 14934 H 1416.52 -0.66403 1.39392 0
M  V30 14935 H 1418.48 -3.779 1.60319 0
M  V30 14936 H 1417.14 -3.06718 0.676948 0
M  V30 14937 H 1416.33 -4.21515 2.76299 0
M  V30 14938 H 1415.93 -2.48173 2.79797 0
M  V30 14939 H 1418.23 -5.34294 4.16576 0
M  V30 14940 H 1419.17 -4.52135 5.44958 0
M  V30 14941 H 1419.58 -4.23565 3.73166 0
M  V30 14942 N 1418.98 -1.3968 -0.729882 0
M  V30 14943 C 1419.92 -1.38808 -1.84393 0
M  V30 14944 C 1420.89 -0.247035 -1.64253 0
M  V30 14945 O 1422.08 -0.44293 -1.85588 0
M  V30 14946 C 1419.22 -1.2424 -3.2196 0
M  V30 14947 C 1418.33 -2.47932 -3.53771 0
M  V30 14948 C 1417.47 -2.25913 -4.80767 0
M  V30 14949 C 1416.51 -3.45254 -5.05436 0
M  V30 14950 N 1415.64 -3.2252 -6.23638 0
M  V30 14951 H 1420.48 -2.34038 -1.84473 0
M  V30 14952 H 1418.02 -1.16252 -0.901332 0
M  V30 14953 H 1419.98 -1.13804 -4.01378 0
M  V30 14954 H 1418.61 -0.326375 -3.21146 0
M  V30 14955 H 1417.66 -2.68952 -2.69015 0
M  V30 14956 H 1418.97 -3.36806 -3.67917 0
M  V30 14957 H 1418.13 -2.12748 -5.68175 0
M  V30 14958 H 1416.86 -1.34441 -4.68804 0
M  V30 14959 H 1415.87 -3.58912 -4.16488 0
M  V30 14960 H 1417.09 -4.37634 -5.19282 0
M  V30 14961 H 1415.04 -2.33718 -6.12953 0
M  V30 14962 H 1414.96 -4.04954 -6.38395 0
M  V30 14963 H 1416.23 -3.1306 -7.13872 0
M  V30 14964 N 1420.45 0.960609 -1.2494 0
M  V30 14965 C 1421.7 1.70701 -1.09495 0
M  V30 14966 C 1422.03 1.90754 0.364214 0
M  V30 14967 O 1421.31 1.47417 1.26879 0
M  V30 14968 C 1421.59 3.09353 -1.84317 0
M  V30 14969 C 1421.44 2.96747 -3.38026 0
M  V30 14970 C 1422.76 4.09139 -1.62153 0
M  V30 14971 H 1419.88 0.61955 -0.399158 0
M  V30 14972 H 1422.52 1.11701 -1.53698 0
M  V30 14973 H 1420.67 3.59719 -1.46746 0
M  V30 14974 H 1422.35 2.53752 -3.85237 0
M  V30 14975 H 1420.59 2.32798 -3.66043 0
M  V30 14976 H 1421.26 3.95002 -3.85587 0
M  V30 14977 H 1423.74 3.67659 -1.94849 0
M  V30 14978 H 1422.61 5.04206 -2.16951 0
M  V30 14979 H 1422.87 4.38521 -0.561437 0
M  V30 14980 N 1421.93 1.0643 1.16234 0
M  V30 14981 C 1423.18 0.77689 1.86138 0
M  V30 14982 C 1423.49 -0.699301 1.82672 0
M  V30 14983 O 1424.7 -1.10113 2.48168 0
M  V30 14984 C 1423.16 1.3396 3.3404 0
M  V30 14985 C 1422.76 2.84613 3.45976 0
M  V30 14986 C 1424.51 1.12979 4.09189 0
M  V30 14987 C 1422.42 3.34122 4.87972 0
M  V30 14988 H 1421.35 0.286936 0.697269 0
M  V30 14989 H 1424 1.28318 1.31174 0
M  V30 14990 H 1422.38 0.761073 3.88618 0
M  V30 14991 H 1423.55 3.48429 3.01552 0
M  V30 14992 H 1421.87 3.04277 2.84262 0
M  V30 14993 H 1424.46 1.47456 5.13966 0
M  V30 14994 H 1424.81 0.0682424 4.16244 0
M  V30 14995 H 1425.34 1.67418 3.60855 0
M  V30 14996 H 1422.08 4.39761 4.86097 0
M  V30 14997 H 1421.6 2.75055 5.33015 0
M  V30 14998 H 1423.28 3.29529 5.56794 0
M  V30 14999 N 1423.41 -1.329 0.847073 0
M  V30 15000 C 1424.36 -2.3097 0.27487 0
M  V30 15001 C 1425.35 -1.58508 -0.597625 0
M  V30 15002 O 1426.56 -1.73307 -0.486273 0
M  V30 15003 H 1422.93 -0.748719 0.0701719 0
M  V30 15004 H 1424.9 -2.7673 1.11638 0
M  V30 15005 C 1423.65 -3.43662 -0.528363 0
M  V30 15006 H 1422.98 -3.99576 0.133707 0
M  V30 15007 H 1424.42 -4.14458 -0.894443 0
M  V30 15008 C 1422.88 -2.90244 -1.71055 0
M  V30 15009 O 1423.41 -2.87109 -2.80947 0
M  V30 15010 N 1421.61 -2.46743 -1.53512 0
M  V30 15011 H 1421.16 -2.49493 -0.641181 0
M  V30 15012 H 1421.12 -2.11356 -2.32757 0
M  V30 15013 N 1424.89 -0.604284 -1.45555 0
M  V30 15014 C 1426.13 -0.106748 -2.0312 0
M  V30 15015 C 1426.49 1.24754 -1.46472 0
M  V30 15016 O 1425.78 1.80993 -0.628659 0
M  V30 15017 C 1425.98 -0.00538243 -3.574 0
M  V30 15018 C 1425.81 -1.3483 -4.29012 0
M  V30 15019 C 1424.58 -1.92813 -4.67067 0
M  V30 15020 C 1426.77 -2.27634 -4.6118 0
M  V30 15021 N 1424.76 -3.20619 -5.23523 0
M  V30 15022 C 1426.13 -3.40037 -5.18435 0
M  V30 15023 C 1428.18 -2.27047 -4.43119 0
M  V30 15024 C 1426.88 -4.52014 -5.59531 0
M  V30 15025 C 1428.91 -3.38069 -4.85245 0
M  V30 15026 C 1428.27 -4.49194 -5.4259 0
M  V30 15027 H 1424.37 -0.0823527 -0.777652 0
M  V30 15028 H 1426.96 -0.801912 -1.77419 0
M  V30 15029 H 1425.13 0.658995 -3.82769 0
M  V30 15030 H 1426.86 0.498511 -4.01618 0
M  V30 15031 H 1423.61 -1.46056 -4.50516 0
M  V30 15032 H 1424.04 -3.8589 -5.56253 0
M  V30 15033 H 1428.68 -1.42395 -3.981 0
M  V30 15034 H 1426.4 -5.37394 -6.03518 0
M  V30 15035 H 1429.98 -3.38759 -4.73005 0
M  V30 15036 H 1428.86 -5.33683 -5.74588 0
M  V30 15037 N 1426.37 1.53816 -0.343257 0
M  V30 15038 C 1427.3 2.22552 0.548015 0
M  V30 15039 C 1428.31 1.23202 1.06419 0
M  V30 15040 O 1429.5 1.49559 0.974394 0
M  V30 15041 C 1426.6 2.89197 1.76687 0
M  V30 15042 C 1425.77 4.14859 1.38603 0
M  V30 15043 C 1424.83 4.64917 2.46453 0
M  V30 15044 O 1423.86 5.29135 2.09773 0
M  V30 15045 N 1425.06 4.4082 3.77701 0
M  V30 15046 H 1427.83 2.99672 -0.040645 0
M  V30 15047 H 1425.39 1.61033 -0.167368 0
M  V30 15048 H 1427.38 3.19601 2.48268 0
M  V30 15049 H 1425.95 2.15664 2.26291 0
M  V30 15050 H 1425.17 3.91003 0.501001 0
M  V30 15051 H 1426.46 4.96599 1.10756 0
M  V30 15052 H 1425.85 3.8946 4.1029 0
M  V30 15053 H 1424.41 4.7583 4.45453 0
M  V30 15054 N 1427.84 0.0718701 1.57436 0
M  V30 15055 C 1429.07 -0.606253 1.97819 0
M  V30 15056 C 1429.49 -1.63144 0.950233 0
M  V30 15057 O 1428.84 -1.82391 -0.0631051 0
M  V30 15058 C 1428.9 -1.27476 3.38278 0
M  V30 15059 O 1428.62 -0.290603 4.37135 0
M  V30 15060 C 1430.12 -2.0407 3.93536 0
M  V30 15061 H 1427.34 -0.164305 0.650573 0
M  V30 15062 H 1429.88 0.144295 2.0399 0
M  V30 15063 H 1428.04 -1.97639 3.33193 0
M  V30 15064 H 1428.45 -0.77022 5.18814 0
M  V30 15065 H 1429.92 -2.46237 4.94036 0
M  V30 15066 H 1430.4 -2.89728 3.30083 0
M  V30 15067 H 1431.01 -1.38773 4.02022 0
M  V30 15068 N 1429.32 -1.56304 -0.201686 0
M  V30 15069 C 1430.55 -1.84692 -0.943583 0
M  V30 15070 C 1430.97 -0.654649 -1.7634 0
M  V30 15071 O 1430.33 0.396586 -1.76909 0
M  V30 15072 C 1430.38 -3.11251 -1.82085 0
M  V30 15073 O 1429.48 -2.9134 -2.91881 0
M  V30 15074 H 1428.82 -0.608351 -0.266092 0
M  V30 15075 H 1431.35 -2.0353 -0.208992 0
M  V30 15076 H 1431.36 -3.41874 -2.2268 0
M  V30 15077 H 1430.04 -3.97652 -1.21844 0
M  V30 15078 H 1428.62 -2.72 -2.55089 0
M  V30 15079 N 1430.8 0.469154 -1.50455 0
M  V30 15080 C 1431.73 1.57493 -1.7239 0
M  V30 15081 C 1432.71 1.60161 -0.572915 0
M  V30 15082 O 1433.9 1.76397 -0.812259 0
M  V30 15083 C 1431.03 2.95804 -1.81981 0
M  V30 15084 C 1429.98 3.08001 -2.97185 0
M  V30 15085 C 1429.31 4.4798 -2.91922 0
M  V30 15086 C 1430.61 2.85039 -4.37665 0
M  V30 15087 H 1432.3 1.39389 -2.64974 0
M  V30 15088 H 1429.85 0.669133 -1.27509 0
M  V30 15089 H 1431.8 3.73091 -1.95911 0
M  V30 15090 H 1430.52 3.15068 -0.86021 0
M  V30 15091 H 1429.18 2.33148 -2.82909 0
M  V30 15092 H 1428.83 4.64165 -1.93803 0
M  V30 15093 H 1428.53 4.57076 -3.69263 0
M  V30 15094 H 1430.05 5.27284 -3.07903 0
M  V30 15095 H 1431.47 3.52074 -4.52456 0
M  V30 15096 H 1429.87 3.05578 -5.16471 0
M  V30 15097 H 1430.94 1.8088 -4.499 0
M  V30 15098 N 1432.28 1.40065 0.722464 0
M  V30 15099 C 1433.23 1.36267 1.82798 0
M  V30 15100 C 1434.21 0.241375 1.59079 0
M  V30 15101 O 1435.4 0.479929 1.70369 0
M  V30 15102 C 1432.53 1.22086 3.20858 0
M  V30 15103 C 1431.62 2.38969 3.50364 0
M  V30 15104 N 1432.01 3.6445 3.50727 0
M  V30 15105 C 1430.31 2.32199 3.80788 0
M  V30 15106 C 1431.01 4.41816 3.78383 0
M  V30 15107 N 1429.99 3.71565 3.96787 0
M  V30 15108 H 1433.79 2.31236 1.81403 0
M  V30 15109 H 1431.3 1.33739 0.92128 0
M  V30 15110 H 1433.3 1.17448 4.00014 0
M  V30 15111 H 1431.96 0.280787 3.23484 0
M  V30 15112 H 1432.97 3.97705 3.3174 0
M  V30 15113 H 1429.65 1.46521 3.90945 0
M  V30 15114 H 1431.04 5.5064 3.85027 0
M  V30 15115 N 1433.76 -0.95397 1.25448 0
M  V30 15116 C 1435.01 -1.69305 1.09631 0
M  V30 15117 C 1435.32 -1.92213 -0.362413 0
M  V30 15118 O 1436.53 -2.63824 -0.641036 0
M  V30 15119 C 1434.98 -3.04805 1.91369 0
M  V30 15120 C 1434.59 -2.8969 3.41737 0
M  V30 15121 C 1436.33 -3.82491 1.84123 0
M  V30 15122 C 1434.24 -4.20584 4.15768 0
M  V30 15123 H 1433.17 -0.63494 0.406654 0
M  V30 15124 H 1435.82 -1.06195 1.49649 0
M  V30 15125 H 1434.2 -3.68822 1.44174 0
M  V30 15126 H 1435.38 -2.346 3.9661 0
M  V30 15127 H 1433.69 -2.25458 3.50082 0
M  V30 15128 H 1436.29 -4.79442 2.36727 0
M  V30 15129 H 1436.63 -4.08358 0.809265 0
M  V30 15130 H 1437.17 -3.25224 2.29072 0
M  V30 15131 H 1433.9 -3.99905 5.19381 0
M  V30 15132 H 1433.42 -4.75436 3.65678 0
M  V30 15133 H 1435.1 -4.89122 4.2352 0
M  V30 15134 N 1435.24 -1.07045 -1.15668 0
M  V30 15135 C 1436.65 -0.814932 -1.67975 0
M  V30 15136 C 1437 0.660408 -1.84751 0
M  V30 15137 O 1436.12 1.51156 -1.54857 0
M  V30 15138 C 1436.72 -1.47274 -3.05116 0
M  V30 15139 C 1435.28 -1.26481 -3.54513 0
M  V30 15140 C 1434.42 -1.54439 -2.30312 0
M  V30 15141 H 1437.37 -1.23291 -0.999251 0
M  V30 15142 H 1437.4 -0.892244 -3.69891 0
M  V30 15143 H 1436.91 -2.54649 -2.92874 0
M  V30 15144 H 1435.01 -0.211138 -3.72001 0
M  V30 15145 H 1435.12 -1.98283 -4.36143 0
M  V30 15146 H 1433.49 -0.965269 -2.357 0
M  V30 15147 H 1434.27 -2.6299 -2.20661 0
M  V30 15148 N 1436.71 1.32449 -0.85411 0
M  V30 15149 C 1438.12 1.79545 -0.511923 0
M  V30 15150 C 1438.48 1.70534 0.970188 0
M  V30 15151 O 1437.6 1.2636 1.75676 0
M  V30 15152 C 1438.2 3.26 -0.922456 0
M  V30 15153 C 1436.75 3.71053 -0.632176 0
M  V30 15154 C 1435.9 2.53565 -1.12249 0
M  V30 15155 H 1438.85 1.19755 -1.04137 0
M  V30 15156 H 1438.87 3.79751 -0.238618 0
M  V30 15157 H 1438.39 3.32526 -2.00119 0
M  V30 15158 H 1436.49 3.70042 0.435862 0
M  V30 15159 H 1436.6 4.63878 -1.19809 0
M  V30 15160 H 1434.96 2.48849 -0.542781 0
M  V30 15161 H 1435.75 2.62846 -2.20832 0
M  V30 15162 N 1438.19 0.611994 1.45232 0
M  V30 15163 C 1439.12 -0.142449 2.28757 0
M  V30 15164 C 1440.14 -0.827486 1.40202 0
M  V30 15165 O 1441.33 -0.692136 1.64535 0
M  V30 15166 C 1438.43 -1.22296 3.16065 0
M  V30 15167 C 1437.6 -0.624178 4.32924 0
M  V30 15168 C 1436.66 -1.59615 5.01408 0
M  V30 15169 O 1435.68 -1.12073 5.58058 0
M  V30 15170 N 1436.89 -2.93057 5.01097 0
M  V30 15171 H 1439.65 0.574276 2.94147 0
M  V30 15172 H 1437.21 0.451789 1.55469 0
M  V30 15173 H 1439.2 -1.87309 3.58744 0
M  V30 15174 H 1437.77 -1.84215 2.52554 0
M  V30 15175 H 1436.99 0.204141 3.93671 0
M  V30 15176 H 1438.28 -0.204435 5.08389 0
M  V30 15177 H 1437.68 -3.3428 4.5637 0
M  V30 15178 H 1436.24 -3.53481 5.47626 0
M  V30 15179 N 1439.67 -1.53632 0.351409 0
M  V30 15180 C 1440.63 -2.23916 -0.489293 0
M  V30 15181 C 1441.63 -1.24207 -1.02124 0
M  V30 15182 O 1442.82 -1.48589 -0.909235 0
M  V30 15183 C 1439.95 -2.96492 -1.68242 0
M  V30 15184 H 1441.15 -2.99637 0.125518 0
M  V30 15185 H 1438.7 -1.55961 0.102874 0
M  V30 15186 H 1439.44 -2.24978 -2.33571 0
M  V30 15187 H 1439.22 -3.69637 -1.3081 0
M  V30 15188 H 1440.71 -3.49961 -2.27853 0
M  V30 15189 N 1441.15 -0.0802183 -1.57396 0
M  V30 15190 C 1442.09 0.884041 -2.13198 0
M  V30 15191 C 1443.06 1.28975 -1.04664 0
M  V30 15192 O 1444.25 1.37413 -1.32372 0
M  V30 15193 C 1441.39 2.14323 -2.7048 0
M  V30 15194 C 1440.5 1.7894 -3.93198 0
M  V30 15195 C 1439.64 2.99534 -4.38695 0
M  V30 15196 C 1438.68 2.60207 -5.54039 0
M  V30 15197 N 1437.81 3.73587 -5.94455 0
M  V30 15198 H 1442.65 0.40131 -2.95285 0
M  V30 15199 H 1440.19 0.186429 -1.45914 0
M  V30 15200 H 1442.15 2.88046 -3.01804 0
M  V30 15201 H 1440.78 2.60122 -1.91144 0
M  V30 15202 H 1439.83 0.952465 -3.68283 0
M  V30 15203 H 1441.14 1.46012 -4.76951 0
M  V30 15204 H 1440.3 3.81526 -4.71724 0
M  V30 15205 H 1439.04 3.35661 -3.53812 0
M  V30 15206 H 1438.04 1.76638 -5.20652 0
M  V30 15207 H 1439.27 2.2524 -6.40659 0
M  V30 15208 H 1437.21 4.0946 -5.12521 0
M  V30 15209 H 1437.13 3.44455 -6.72969 0
M  V30 15210 H 1438.4 4.56133 -6.3211 0
M  V30 15211 N 1442.63 1.56409 0.193394 0
M  V30 15212 C 1443.56 1.97707 1.24234 0
M  V30 15213 C 1444.54 0.849286 1.47381 0
M  V30 15214 O 1445.72 1.11374 1.59089 0
M  V30 15215 C 1442.85 2.31804 2.5862 0
M  V30 15216 C 1441.81 3.47337 2.50082 0
M  V30 15217 C 1441.13 3.67114 3.88756 0
M  V30 15218 C 1442.43 4.81472 2.02441 0
M  V30 15219 H 1444.13 2.8558 0.89914 0
M  V30 15220 H 1441.67 1.37396 0.431078 0
M  V30 15221 H 1443.62 2.5929 3.32185 0
M  V30 15222 H 1442.35 1.40816 2.94684 0
M  V30 15223 H 1441.01 3.19944 1.78973 0
M  V30 15224 H 1440.66 2.73454 4.22175 0
M  V30 15225 H 1440.36 4.44838 3.83918 0
M  V30 15226 H 1441.88 3.96978 4.6394 0
M  V30 15227 H 1443.29 5.07978 2.65766 0
M  V30 15228 H 1441.69 5.62677 2.08601 0
M  V30 15229 H 1442.76 4.74941 0.977704 0
M  V30 15230 N 1444.1 -0.461169 1.50702 0
M  V30 15231 C 1445.33 -1.24019 1.66235 0
M  V30 15232 C 1445.75 -1.84827 0.349388 0
M  V30 15233 O 1445.11 -1.67743 -0.687888 0
M  V30 15234 C 1445.16 -2.31743 2.76274 0
M  V30 15235 O 1444.26 -3.3664 2.38217 0
M  V30 15236 H 1443.6 -0.364424 0.55506 0
M  V30 15237 H 1446.13 -0.547636 1.97135 0
M  V30 15238 H 1446.14 -2.76902 2.99649 0
M  V30 15239 H 1444.82 -1.86858 3.7156 0
M  V30 15240 H 1443.4 -2.97123 2.25327 0
M  V30 15241 N 1445.58 -1.40446 -0.715026 0
M  V30 15242 C 1446.99 -1.34564 -1.29419 0
M  V30 15243 C 1447.34 -0.0193984 -1.9619 0
M  V30 15244 O 1446.47 0.882616 -1.97582 0
M  V30 15245 C 1447.06 -2.43721 -2.35342 0
M  V30 15246 C 1445.62 -2.41297 -2.88881 0
M  V30 15247 C 1444.77 -2.2457 -1.62676 0
M  V30 15248 H 1447.72 -1.50244 -0.511116 0
M  V30 15249 H 1447.74 -2.1166 -3.16197 0
M  V30 15250 H 1447.25 -3.40234 -1.86715 0
M  V30 15251 H 1445.35 -1.48483 -3.41736 0
M  V30 15252 H 1445.47 -3.36903 -3.40637 0
M  V30 15253 H 1443.83 -1.72096 -1.87763 0
M  V30 15254 H 1444.61 -3.23082 -1.16074 0
M  V30 15255 N 1447.06 0.947303 -1.25952 0
M  V30 15256 C 1447.97 2.07878 -1.08738 0
M  V30 15257 C 1448.99 1.73985 -0.0225212 0
M  V30 15258 O 1450.16 2.00139 -0.224984 0
M  V30 15259 C 1447.23 3.39231 -0.715756 0
M  V30 15260 C 1446.29 3.86945 -1.85935 0
M  V30 15261 C 1445.52 5.1203 -1.50537 0
M  V30 15262 O 1445.74 5.68965 -0.404323 0
M  V30 15263 O 1444.68 5.54634 -2.33805 0
M  V30 15264 H 1448.5 2.25305 -2.03645 0
M  V30 15265 H 1446.09 1.06321 -1.04958 0
M  V30 15266 H 1447.97 4.18167 -0.520962 0
M  V30 15267 H 1446.65 3.23057 0.203978 0
M  V30 15268 H 1445.55 3.08981 -2.10906 0
M  V30 15269 H 1446.89 4.0763 -2.75859 0
M  V30 15270 N 1448.54 1.07657 1.15099 0
M  V30 15271 C 1449.5 0.703558 2.18135 0
M  V30 15272 C 1450.5 -0.257771 1.5872 0
M  V30 15273 O 1451.69 -0.0383211 1.74158 0
M  V30 15274 C 1448.82 0.0374978 3.40879 0
M  V30 15275 H 1450.02 1.61583 2.52648 0
M  V30 15276 H 1447.57 0.873484 1.29615 0
M  V30 15277 H 1448.3 -0.886868 3.11938 0
M  V30 15278 H 1448.09 0.728961 3.85264 0
M  V30 15279 H 1449.58 -0.208714 4.17078 0
M  V30 15280 N 1450.02 -1.31994 0.861122 0
M  V30 15281 C 1451.24 -2.01745 0.481013 0
M  V30 15282 C 1451.67 -1.6426 -0.916527 0
M  V30 15283 O 1451.02 -0.846603 -1.60319 0
M  V30 15284 C 1451.07 -3.54963 0.635134 0
M  V30 15285 O 1450.18 -4.11083 -0.329337 0
M  V30 15286 H 1449.52 -0.635499 0.192452 0
M  V30 15287 H 1452.05 -1.68394 1.1621 0
M  V30 15288 H 1452.06 -4.04607 0.525089 0
M  V30 15289 H 1450.73 -3.81587 1.65422 0
M  V30 15290 H 1449.31 -3.72489 -0.174989 0
M  V30 15291 N 1451.49 -0.619688 -1.44906 0
M  V30 15292 C 1452.77 -0.0510703 -1.95533 0
M  V30 15293 C 1453.15 1.42013 -1.56191 0
M  V30 15294 O 1452.5 2.12879 -0.830356 0
M  V30 15295 C 1452.71 -0.261896 -3.48016 0
M  V30 15296 C 1454.06 -0.149057 -4.24338 0
M  V30 15297 O 1455.08 -0.192655 -3.55679 0
M  V30 15298 O 1453.94 -0.0443345 -5.46482 0
M  V30 15299 H 1451.03 0.0288461 -0.826497 0
M  V30 15300 H 1453.58 -0.690594 -1.55013 0
M  V30 15301 H 1452.35 -1.28319 -3.69662 0
M  V30 15302 H 1451.98 0.412314 -3.95456 0
M  V30 15303 N 1452.97 1.53444 -0.359552 0
M  V30 15304 C 1453.9 2.28475 0.4818 0
M  V30 15305 C 1454.88 1.30664 1.08908 0
M  V30 15306 O 1456.07 1.59527 1.10746 0
M  V30 15307 C 1453.2 3.06951 1.62477 0
M  V30 15308 C 1452.15 4.12399 1.14504 0
M  V30 15309 C 1451.48 4.78922 2.37777 0
M  V30 15310 C 1452.78 5.21775 0.234075 0
M  V30 15311 H 1454.47 2.99053 -0.144162 0
M  V30 15312 H 1452.02 1.43826 -0.0707746 0
M  V30 15313 H 1453.97 3.58186 2.21993 0
M  V30 15314 H 1452.7 2.34053 2.27787 0
M  V30 15315 H 1451.35 3.62101 0.572589 0
M  V30 15316 H 1451 4.02602 3.0153 0
M  V30 15317 H 1450.7 5.50175 2.06353 0
M  V30 15318 H 1452.23 5.32948 2.97991 0
M  V30 15319 H 1453.64 5.68549 0.736548 0
M  V30 15320 H 1452.04 6.00099 0.0109887 0
M  V30 15321 H 1453.11 4.79443 -0.725435 0
M  V30 15322 N 1454.45 0.0885642 1.57351 0
M  V30 15323 C 1455.7 -0.57633 1.93291 0
M  V30 15324 C 1456.01 -1.69743 0.971934 0
M  V30 15325 O 1457.22 -2.42304 1.22479 0
M  V30 15326 C 1455.67 -1.07655 3.43422 0
M  V30 15327 C 1455.28 0.0144488 4.47998 0
M  V30 15328 C 1457.03 -1.71455 3.88334 0
M  V30 15329 C 1454.93 -0.500758 5.89276 0
M  V30 15330 H 1453.86 -0.219055 0.721478 0
M  V30 15331 H 1456.51 0.163511 1.8277 0
M  V30 15332 H 1454.9 -1.86988 3.49072 0
M  V30 15333 H 1456.07 0.789696 4.53983 0
M  V30 15334 H 1454.39 0.557237 4.12655 0
M  V30 15335 H 1456.98 -2.11063 4.91281 0
M  V30 15336 H 1457.33 -2.58116 3.26621 0
M  V30 15337 H 1457.86 -0.987159 3.85357 0
M  V30 15338 H 1454.6 0.329088 6.54673 0
M  V30 15339 H 1454.12 -1.24315 5.86776 0
M  V30 15340 H 1455.8 -0.971821 6.3966 0
M  V30 15341 N 1455.93 -1.56509 -0.185096 0
M  V30 15342 C 1457.18 -1.804 -0.902158 0
M  V30 15343 C 1457.49 -0.663496 -1.84003 0
M  V30 15344 O 1458.7 -0.786963 -2.59844 0
M  V30 15345 C 1457.15 -3.19608 -1.65466 0
M  V30 15346 C 1456.76 -4.41487 -0.761109 0
M  V30 15347 C 1458.5 -3.52801 -2.36076 0
M  V30 15348 C 1456.41 -5.71717 -1.51305 0
M  V30 15349 H 1455.34 -0.67268 -0.340614 0
M  V30 15350 H 1457.99 -1.82842 -0.155273 0
M  V30 15351 H 1456.37 -3.11443 -2.44579 0
M  V30 15352 H 1457.55 -4.60799 -0.00791878 0
M  V30 15353 H 1455.86 -4.16072 -0.165344 0
M  V30 15354 H 1458.46 -4.47339 -2.92902 0
M  V30 15355 H 1458.8 -2.77021 -3.10749 0
M  V30 15356 H 1459.34 -3.62457 -1.63919 0
M  V30 15357 H 1456.08 -6.5049 -0.808907 0
M  V30 15358 H 1455.6 -5.56406 -2.23992 0
M  V30 15359 H 1457.27 -6.13188 -2.0642 0
M  V30 15360 N 1457.41 0.45317 -1.50944 0
M  V30 15361 C 1458.35 1.54885 -1.71112 0
M  V30 15362 C 1459.32 1.56639 -0.552566 0
M  V30 15363 O 1460.51 1.73894 -0.785203 0
M  V30 15364 C 1457.65 2.92729 -1.82766 0
M  V30 15365 C 1456.76 3.00626 -3.10239 0
M  V30 15366 C 1455.9 4.29495 -3.12582 0
M  V30 15367 C 1454.94 4.312 -4.34434 0
M  V30 15368 N 1454.07 5.51568 -4.34415 0
M  V30 15369 H 1458.91 1.36992 -2.64645 0
M  V30 15370 H 1456.45 0.665753 -1.31172 0
M  V30 15371 H 1458.41 3.7269 -1.87505 0
M  V30 15372 H 1457.04 3.09216 -0.926561 0
M  V30 15373 H 1456.09 2.13426 -3.14886 0
M  V30 15374 H 1457.4 2.97746 -4.00186 0
M  V30 15375 H 1456.56 5.17817 -3.16149 0
M  V30 15376 H 1455.29 4.35009 -2.20496 0
M  V30 15377 H 1454.3 3.41272 -4.3106 0
M  V30 15378 H 1455.52 4.27363 -5.27767 0
M  V30 15379 H 1453.47 5.57834 -3.45192 0
M  V30 15380 H 1453.39 5.50504 -5.18152 0
M  V30 15381 H 1454.66 6.41966 -4.42153 0
M  V30 15382 N 1458.88 1.40823 0.707568 0
M  V30 15383 C 1459.81 1.44485 1.83429 0
M  V30 15384 C 1460.8 0.304848 1.67346 0
M  V30 15385 O 1461.98 0.514605 1.87258 0
M  V30 15386 C 1459.11 1.31458 3.21459 0
M  V30 15387 C 1458.06 2.43145 3.52228 0
M  V30 15388 C 1457.39 2.15189 4.89487 0
M  V30 15389 C 1458.69 3.85489 3.52414 0
M  V30 15390 H 1460.38 2.38781 1.80622 0
M  V30 15391 H 1457.93 1.14931 0.867572 0
M  V30 15392 H 1459.88 1.32635 3.99983 0
M  V30 15393 H 1458.61 0.336422 3.24863 0
M  V30 15394 H 1457.27 2.41231 2.76049 0
M  V30 15395 H 1456.91 1.15745 4.89502 0
M  V30 15396 H 1456.61 2.90022 5.11039 0
M  V30 15397 H 1458.14 2.18062 5.70334 0
M  V30 15398 H 1459.55 3.89183 4.20963 0
M  V30 15399 H 1457.95 4.59906 3.85495 0
M  V30 15400 H 1459.02 4.14499 2.51632 0
M  V30 15401 N 1460.36 -0.94061 1.26453 0
M  V30 15402 C 1461.6 -1.70157 1.13252 0
M  V30 15403 C 1461.97 -1.89337 -0.318684 0
M  V30 15404 O 1463.17 -2.62625 -0.57283 0
M  V30 15405 C 1461.44 -3.03896 1.88101 0
M  V30 15406 S 1463 -3.95069 1.9096 0
M  V30 15407 H 1459.82 -0.584699 0.404534 0
M  V30 15408 H 1462.42 -1.12084 1.6018 0
M  V30 15409 H 1461.12 -2.87617 2.92753 0
M  V30 15410 H 1460.65 -3.67026 1.41616 0
M  V30 15411 H 1462.67 -4.86086 0.996721 0
M  V30 15412 N 1461.84 -1.08266 -1.14527 0
M  V30 15413 C 1463.26 -0.810001 -1.37518 0
M  V30 15414 C 1463.46 0.581399 -1.9293 0
M  V30 15415 O 1462.51 1.33846 -2.14107 0
M  V30 15416 C 1463.83 -1.89149 -2.33759 0
M  V30 15417 C 1465.37 -1.91733 -2.47401 0
M  V30 15418 C 1465.85 -2.98992 -3.4694 0
M  V30 15419 N 1467.34 -2.98155 -3.54483 0
M  V30 15420 C 1468.07 -3.77791 -4.31349 0
M  V30 15421 N 1467.57 -4.67302 -5.11469 0
M  V30 15422 N 1469.36 -3.66099 -4.2653 0
M  V30 15423 H 1461.51 -1.97988 -0.769048 0
M  V30 15424 H 1463.78 -0.859115 -0.40078 0
M  V30 15425 H 1463.48 -2.89175 -2.00176 0
M  V30 15426 H 1463.36 -1.75955 -3.33646 0
M  V30 15427 H 1465.74 -0.923531 -2.80276 0
M  V30 15428 H 1465.83 -2.09005 -1.4748 0
M  V30 15429 H 1465.47 -3.98578 -3.14799 0
M  V30 15430 H 1465.4 -2.78965 -4.46639 0
M  V30 15431 H 1467.89 -2.33277 -2.97305 0
M  V30 15432 H 1468.2 -5.24676 -5.67393 0
M  V30 15433 H 1466.55 -4.71345 -5.10743 0
M  V30 15434 H 1469.74 -2.95539 -3.63008 0
M  V30 15435 H 1469.91 -4.28402 -4.86185 0
M  V30 15436 N 1463.32 1.31536 -0.86811 0
M  V30 15437 C 1464.57 1.96386 -0.477176 0
M  V30 15438 C 1464.89 1.68968 0.973381 0
M  V30 15439 O 1464.16 1.00409 1.68211 0
M  V30 15440 H 1462.74 0.726579 -0.173468 0
M  V30 15441 H 1465.4 1.60377 -1.10749 0
M  V30 15442 H 1464.5 3.05606 -0.633376 0
M  V30 15443 N 1464.8 0.627364 1.44575 0
M  V30 15444 C 1466.21 0.213149 1.85479 0
M  V30 15445 C 1466.56 -1.23458 1.52488 0
M  V30 15446 O 1465.68 -1.93885 0.961115 0
M  V30 15447 C 1466.28 0.380063 3.36661 0
M  V30 15448 C 1464.84 0.020385 3.76394 0
M  V30 15449 C 1463.99 0.695225 2.68444 0
M  V30 15450 H 1466.94 0.832771 1.35095 0
M  V30 15451 H 1466.96 -0.382078 3.78577 0
M  V30 15452 H 1466.47 1.43383 3.60642 0
M  V30 15453 H 1464.57 -1.03179 3.58029 0
M  V30 15454 H 1464.68 0.42782 4.77186 0
M  V30 15455 H 1463.05 0.130898 2.54363 0
M  V30 15456 H 1463.83 1.75151 2.95257 0
M  V30 15457 N 1466.28 -1.53251 0.367684 0
M  V30 15458 C 1467.19 -2.29518 -0.485669 0
M  V30 15459 C 1468.2 -1.35568 -1.09075 0
M  V30 15460 O 1469.38 -1.68626 -1.10124 0
M  V30 15461 C 1466.44 -3.07115 -1.60876 0
M  V30 15462 C 1465.5 -4.16736 -1.031 0
M  V30 15463 C 1464.74 -4.90624 -2.10056 0
M  V30 15464 O 1464.96 -4.64393 -3.31203 0
M  V30 15465 O 1463.89 -5.76503 -1.72996 0
M  V30 15466 H 1467.72 -3.034 0.135017 0
M  V30 15467 H 1465.3 -1.48816 0.132005 0
M  V30 15468 H 1467.19 -3.55564 -2.26168 0
M  V30 15469 H 1465.86 -2.36068 -2.21481 0
M  V30 15470 H 1464.77 -3.72534 -0.341928 0
M  V30 15471 H 1466.1 -4.89956 -0.469473 0
M  V30 15472 N 1467.75 -0.0969077 -1.57302 0
M  V30 15473 C 1469.03 0.608737 -1.85886 0
M  V30 15474 C 1469.41 1.86228 -0.994096 0
M  V30 15475 O 1468.76 2.28402 -0.0669975 0
M  V30 15476 C 1468.97 0.922385 -3.3659 0
M  V30 15477 C 1470.32 1.28505 -4.04687 0
M  V30 15478 O 1471.34 1.01334 -3.41482 0
M  V30 15479 O 1470.2 1.794 -5.16215 0
M  V30 15480 H 1467.29 0.304808 -0.768779 0
M  V30 15481 H 1469.84 -0.129742 -1.69203 0
M  V30 15482 H 1468.61 0.0331488 -3.91286 0
M  V30 15483 H 1468.23 1.71678 -3.58626 0
M  V30 15484 N 1469.23 1.56605 0.176793 0
M  V30 15485 C 1470.65 1.50601 0.528354 0
M  V30 15486 C 1470.85 0.800205 1.8493 0
M  V30 15487 O 1469.9 0.358299 2.49945 0
M  V30 15488 C 1471.22 2.95322 0.566172 0
M  V30 15489 C 1472.76 3.06097 0.653751 0
M  V30 15490 C 1473.24 4.52265 0.722511 0
M  V30 15491 N 1474.73 4.5649 0.785548 0
M  V30 15492 C 1475.47 5.66926 0.859232 0
M  V30 15493 N 1474.96 6.87006 0.894088 0
M  V30 15494 N 1476.75 5.54883 0.897832 0
M  V30 15495 H 1468.91 2.00899 -0.689442 0
M  V30 15496 H 1471.17 0.915011 -0.24791 0
M  V30 15497 H 1470.87 3.50095 -0.33566 0
M  V30 15498 H 1470.75 3.49671 1.41456 0
M  V30 15499 H 1473.14 2.51361 1.54601 0
M  V30 15500 H 1473.22 2.54842 -0.221207 0
M  V30 15501 H 1472.86 5.0763 -0.165469 0
M  V30 15502 H 1472.79 5.01271 1.61353 0
M  V30 15503 H 1475.28 3.70032 0.767117 0
M  V30 15504 H 1475.59 7.66922 0.951333 0
M  V30 15505 H 1473.94 6.89628 0.862457 0
M  V30 15506 H 1477.13 4.5999 0.867564 0
M  V30 15507 H 1477.3 6.40972 0.951795 0
M  V30 15508 N 1470.71 -0.445159 1.51182 0
M  V30 15509 C 1471.64 -1.5473 1.74874 0
M  V30 15510 C 1472.62 -1.5923 0.598323 0
M  V30 15511 O 1473.81 -1.75083 0.840219 0
M  V30 15512 C 1470.94 -2.92872 1.86664 0
M  V30 15513 C 1469.89 -3.03235 3.02048 0
M  V30 15514 C 1469.22 -4.43279 2.99012 0
M  V30 15515 C 1470.52 -2.7804 4.42144 0
M  V30 15516 H 1472.21 -1.35156 2.67158 0
M  V30 15517 H 1469.76 -0.648763 1.28558 0
M  V30 15518 H 1471.71 -3.69927 2.01822 0
M  V30 15519 H 1470.43 -3.1366 0.910225 0
M  V30 15520 H 1469.09 -2.28617 2.86583 0
M  V30 15521 H 1468.74 -4.61023 2.01163 0
M  V30 15522 H 1468.44 -4.51144 3.76488 0
M  V30 15523 H 1469.96 -5.22319 3.16252 0
M  V30 15524 H 1471.38 -3.44831 4.58 0
M  V30 15525 H 1469.77 -2.97323 5.21267 0
M  V30 15526 H 1470.84 -1.737 4.52721 0
M  V30 15527 N 1472.19 -1.41197 -0.700089 0
M  V30 15528 C 1473.44 -1.40034 -1.45722 0
M  V30 15529 C 1473.76 -0.00876281 -1.94998 0
M  V30 15530 O 1473.03 0.948647 -1.71399 0
M  V30 15531 H 1471.61 -0.515433 -0.540683 0
M  V30 15532 H 1474.27 -1.76394 -0.828926 0
M  V30 15533 H 1473.36 -2.08477 -2.32258 0
M  V30 15534 N 1473.67 0.933891 -1.2695 0
M  V30 15535 C 1474.61 2.03365 -1.09139 0
M  V30 15536 C 1475.58 1.66099 0.00573029 0
M  V30 15537 O 1476.77 1.90166 -0.155425 0
M  V30 15538 C 1473.91 3.37114 -0.738117 0
M  V30 15539 C 1473.02 3.87372 -1.91224 0
M  V30 15540 C 1472.16 5.0954 -1.50141 0
M  V30 15541 C 1471.19 5.52079 -2.64339 0
M  V30 15542 N 1470.33 6.65446 -2.23887 0
M  V30 15543 H 1475.17 2.17932 -2.03248 0
M  V30 15544 H 1472.71 1.0677 -1.01186 0
M  V30 15545 H 1474.67 4.1402 -0.514141 0
M  V30 15546 H 1473.3 3.22373 0.166007 0
M  V30 15547 H 1472.35 3.06801 -2.24894 0
M  V30 15548 H 1473.66 4.14875 -2.76912 0
M  V30 15549 H 1472.81 5.93928 -1.23831 0
M  V30 15550 H 1471.55 4.838 -0.615539 0
M  V30 15551 H 1470.56 4.66244 -2.9137 0
M  V30 15552 H 1471.78 5.79817 -3.53537 0
M  V30 15553 H 1469.73 6.41376 -1.37744 0
M  V30 15554 H 1469.65 6.92573 -3.03116 0
M  V30 15555 H 1470.91 7.53191 -2.00809 0
M  V30 15556 N 1475.14 1.08871 1.13951 0
M  V30 15557 C 1476.09 0.71755 2.21255 0
M  V30 15558 C 1477.09 -0.278901 1.67088 0
M  V30 15559 O 1478.29 -0.140964 1.79447 0
M  V30 15560 H 1474.67 0.214032 0.720898 0
M  V30 15561 H 1476.64 1.63182 2.49828 0
M  V30 15562 C 1475.39 0.148098 3.47384 0
M  V30 15563 H 1474.71 0.906028 3.89398 0
M  V30 15564 H 1476.15 -0.0737451 4.23936 0
M  V30 15565 C 1474.61 -1.11524 3.17906 0
M  V30 15566 O 1475.14 -2.19937 3.3614 0
M  V30 15567 N 1473.34 -1.0275 2.71829 0
M  V30 15568 H 1472.89 -0.145193 2.5719 0
M  V30 15569 H 1472.85 -1.87353 2.5248 0
M  V30 15570 N 1476.62 -1.31073 0.875073 0
M  V30 15571 C 1477.87 -1.9613 0.487584 0
M  V30 15572 C 1478.19 -1.69482 -0.964407 0
M  V30 15573 O 1477.46 -1.013 -1.67676 0
M  V30 15574 H 1476.04 -0.725649 0.177319 0
M  V30 15575 H 1478.7 -1.59787 1.11598 0
M  V30 15576 H 1477.8 -3.05265 0.649574 0
M  V30 15577 N 1478.1 -0.635022 -1.4424 0
M  V30 15578 C 1479.06 0.0579377 -2.29127 0
M  V30 15579 C 1480.06 0.768489 -1.41248 0
M  V30 15580 O 1481.25 0.612489 -1.63077 0
M  V30 15581 C 1478.39 1.09266 -3.22914 0
M  V30 15582 H 1479.58 -0.688723 -2.91885 0
M  V30 15583 H 1477.13 -0.395347 -1.51217 0
M  V30 15584 H 1477.87 1.86917 -2.65014 0
M  V30 15585 H 1477.65 0.587036 -3.87681 0
M  V30 15586 H 1479.14 1.57716 -3.86672 0
M  V30 15587 N 1479.58 1.53054 -0.375806 0
M  V30 15588 C 1480.86 1.93761 0.26757 0
M  V30 15589 C 1481.24 1.31019 1.65521 0
M  V30 15590 O 1480.58 0.473138 2.23548 0
M  V30 15591 C 1480.79 3.47643 0.307505 0
M  V30 15592 C 1482.14 4.21114 0.542951 0
M  V30 15593 O 1483.17 3.54077 0.388285 0
M  V30 15594 O 1482.02 5.39929 0.8449 0
M  V30 15595 H 1479.12 0.810805 0.16286 0
M  V30 15596 H 1481.66 1.64179 -0.429334 0
M  V30 15597 H 1480.44 3.85608 -0.665001 0
M  V30 15598 H 1480.06 3.83488 1.04988 0
M  V30 15599 N 1481.06 0.105248 1.57248 0
M  V30 15600 C 1481.97 -0.864007 2.1811 0
M  V30 15601 C 1482.98 -1.30282 1.15337 0
M  V30 15602 O 1484.16 -1.36864 1.4775 0
M  V30 15603 C 1481.22 -2.1014 2.75757 0
M  V30 15604 C 1480.28 -1.71583 3.9352 0
M  V30 15605 C 1479.52 -2.89424 4.48408 0
M  V30 15606 O 1479.74 -4.04449 4.02215 0
M  V30 15607 O 1478.67 -2.67303 5.39289 0
M  V30 15608 H 1482.5 -0.376131 3.01362 0
M  V30 15609 H 1480.09 -0.119643 1.4892 0
M  V30 15610 H 1481.97 -2.82638 3.1256 0
M  V30 15611 H 1480.64 -2.57961 1.95545 0
M  V30 15612 H 1479.55 -0.962347 3.6151 0
M  V30 15613 H 1480.88 -1.28517 4.75126 0
M  V30 15614 N 1482.53 -1.56697 -0.168486 0
M  V30 15615 C 1483.78 -1.81346 -0.882973 0
M  V30 15616 C 1484.1 -0.682975 -1.83289 0
M  V30 15617 O 1485.3 -0.814479 -2.58995 0
M  V30 15618 C 1483.76 -3.21345 -1.62066 0
M  V30 15619 C 1483.37 -4.4227 -0.714241 0
M  V30 15620 C 1485.11 -3.55285 -2.32321 0
M  V30 15621 C 1483.02 -5.7329 -1.45233 0
M  V30 15622 H 1481.95 -0.676254 -0.333461 0
M  V30 15623 H 1484.6 -1.82996 -0.135871 0
M  V30 15624 H 1482.98 -3.1402 -2.41262 0
M  V30 15625 H 1484.15 -4.60782 0.0409556 0
M  V30 15626 H 1482.47 -4.16224 -0.121205 0
M  V30 15627 H 1485.07 -4.50421 -2.88141 0
M  V30 15628 H 1485.41 -2.80301 -3.07793 0
M  V30 15629 H 1485.94 -3.64176 -1.60066 0
M  V30 15630 H 1482.68 -6.51311 -0.739869 0
M  V30 15631 H 1482.2 -5.58751 -2.18077 0
M  V30 15632 H 1483.88 -6.15343 -1.99905 0
M  V30 15633 N 1484.01 0.437135 -1.51416 0
M  V30 15634 C 1484.96 1.53061 -1.72745 0
M  V30 15635 C 1485.93 1.56045 -0.569149 0
M  V30 15636 O 1487.11 1.73052 -0.803602 0
M  V30 15637 C 1484.25 2.90774 -1.85861 0
M  V30 15638 C 1483.37 2.97318 -3.1341 0
M  V30 15639 C 1482.5 4.26156 -3.1712 0
M  V30 15640 C 1481.54 4.26568 -4.38983 0
M  V30 15641 N 1480.68 5.4693 -4.40241 0
M  V30 15642 H 1485.52 1.34177 -2.66084 0
M  V30 15643 H 1483.06 0.651803 -1.31871 0
M  V30 15644 H 1485.01 3.7068 -1.91447 0
M  V30 15645 H 1483.64 3.08216 -0.959306 0
M  V30 15646 H 1482.7 2.10074 -3.17132 0
M  V30 15647 H 1484.01 2.93485 -4.03321 0
M  V30 15648 H 1483.16 5.14435 -3.21623 0
M  V30 15649 H 1481.9 4.32646 -2.25098 0
M  V30 15650 H 1480.91 3.36681 -4.34656 0
M  V30 15651 H 1482.13 4.21741 -5.3227 0
M  V30 15652 H 1480.08 5.54141 -3.51089 0
M  V30 15653 H 1479.99 5.44977 -5.23962 0
M  V30 15654 H 1481.26 6.37241 -4.48937 0
M  V30 15655 N 1485.49 1.41566 0.692592 0
M  V30 15656 C 1486.45 1.43369 1.78824 0
M  V30 15657 C 1487.45 0.323867 1.57505 0
M  V30 15658 O 1488.64 0.583885 1.64123 0
M  V30 15659 C 1485.78 1.24798 3.17235 0
M  V30 15660 H 1486.97 2.40906 1.78617 0
M  V30 15661 H 1484.52 1.27752 0.900508 0
M  V30 15662 H 1485.26 0.281129 3.23079 0
M  V30 15663 H 1485.04 2.05212 3.34111 0
M  V30 15664 H 1486.53 1.28902 3.97208 0
M  V30 15665 N 1486.97 -0.927146 1.27443 0
M  V30 15666 C 1487.92 -2.01402 1.06871 0
M  V30 15667 C 1488.9 -1.609 -0.00345395 0
M  V30 15668 O 1490.09 -1.75688 0.215147 0
M  V30 15669 C 1487.22 -3.35697 0.718508 0
M  V30 15670 C 1486.31 -3.82641 1.82884 0
M  V30 15671 N 1486.7 -4.02091 3.06849 0
M  V30 15672 C 1485 -4.11682 1.71564 0
M  V30 15673 C 1485.7 -4.41195 3.79107 0
M  V30 15674 N 1484.68 -4.48697 3.06874 0
M  V30 15675 H 1488.48 -2.14471 2.00946 0
M  V30 15676 H 1485.99 -1.11402 1.18166 0
M  V30 15677 H 1487.99 -4.13226 0.552238 0
M  V30 15678 H 1486.65 -3.2399 -0.214622 0
M  V30 15679 H 1487.66 -3.88384 3.42605 0
M  V30 15680 H 1484.34 -4.08685 0.853381 0
M  V30 15681 H 1485.73 -4.64318 4.85653 0
M  V30 15682 N 1488.45 -1.09474 -1.13372 0
M  V30 15683 C 1489.86 -0.850378 -1.66209 0
M  V30 15684 C 1490.21 0.621071 -1.86111 0
M  V30 15685 O 1489.33 1.47837 -1.58029 0
M  V30 15686 C 1489.93 -1.53713 -3.01924 0
M  V30 15687 C 1488.49 -1.33972 -3.5175 0
M  V30 15688 C 1487.63 -1.5929 -2.26985 0
M  V30 15689 H 1490.59 -1.25383 -0.972874 0
M  V30 15690 H 1490.61 -0.970503 -3.67915 0
M  V30 15691 H 1490.12 -2.60804 -2.87407 0
M  V30 15692 H 1488.22 -0.289998 -3.7147 0
M  V30 15693 H 1488.33 -2.0749 -4.31839 0
M  V30 15694 H 1486.7 -1.01505 -2.336 0
M  V30 15695 H 1487.48 -2.67611 -2.15033 0
M  V30 15696 N 1489.92 1.30607 -0.882012 0
M  V30 15697 C 1491.17 1.96256 -0.498964 0
M  V30 15698 C 1491.5 1.69651 0.951259 0
M  V30 15699 O 1490.75 0.992303 1.68677 0
M  V30 15700 C 1491.05 3.50136 -0.716929 0
M  V30 15701 C 1490.72 3.96785 -2.14178 0
M  V30 15702 C 1489.38 4.09234 -2.53142 0
M  V30 15703 C 1491.73 4.21154 -3.07048 0
M  V30 15704 C 1489.06 4.43411 -3.84192 0
M  V30 15705 C 1491.41 4.56799 -4.37627 0
M  V30 15706 C 1490.08 4.67456 -4.76488 0
M  V30 15707 H 1489.35 0.718153 -0.182584 0
M  V30 15708 H 1491.99 1.55527 -1.1173 0
M  V30 15709 H 1490.3 3.91797 -0.0155388 0
M  V30 15710 H 1492 3.98998 -0.400196 0
M  V30 15711 H 1488.59 3.876 -1.82932 0
M  V30 15712 H 1492.77 4.1102 -2.78167 0
M  V30 15713 H 1488.03 4.49861 -4.14047 0
M  V30 15714 H 1492.2 4.74607 -5.09629 0
M  V30 15715 H 1489.83 4.93694 -5.78074 0
M  V30 15716 N 1491.4 0.642663 1.43901 0
M  V30 15717 C 1492.65 0.151778 2.0193 0
M  V30 15718 C 1492.98 -1.23052 1.50627 0
M  V30 15719 O 1492.23 -1.83305 0.685404 0
M  V30 15720 C 1492.53 0.100139 3.5726 0
M  V30 15721 C 1492.2 1.42276 4.27865 0
M  V30 15722 C 1490.86 1.78497 4.46869 0
M  V30 15723 C 1493.21 2.29526 4.67939 0
M  V30 15724 C 1490.54 3.01655 5.03211 0
M  V30 15725 C 1492.89 3.51966 5.25645 0
M  V30 15726 C 1491.56 3.88396 5.42867 0
M  V30 15727 H 1490.83 0.0555394 0.738916 0
M  V30 15728 H 1493.47 0.831273 1.72517 0
M  V30 15729 H 1491.78 -0.66277 3.86154 0
M  V30 15730 H 1493.47 -0.29638 3.99903 0
M  V30 15731 H 1490.06 1.13091 4.13411 0
M  V30 15732 H 1494.25 2.02835 4.52959 0
M  V30 15733 H 1489.5 3.29943 5.14731 0
M  V30 15734 H 1493.68 4.19799 5.55645 0
M  V30 15735 H 1491.31 4.83909 5.8629 0
M  V30 15736 N 1492.88 -1.52852 0.383918 0
M  V30 15737 C 1493.83 -2.26294 -0.453826 0
M  V30 15738 C 1494.8 -1.27688 -1.0623 0
M  V30 15739 O 1495.98 -1.56507 -1.09134 0
M  V30 15740 C 1493.12 -3.06907 -1.57803 0
M  V30 15741 C 1492.24 -4.20434 -0.992943 0
M  V30 15742 C 1491.37 -4.88453 -2.08776 0
M  V30 15743 C 1490.41 -5.93981 -1.47828 0
M  V30 15744 N 1489.55 -6.55617 -2.51218 0
M  V30 15745 H 1494.39 -2.97462 0.178927 0
M  V30 15746 H 1491.92 -1.46759 0.100066 0
M  V30 15747 H 1493.88 -3.51933 -2.24052 0
M  V30 15748 H 1492.51 -2.37959 -2.18118 0
M  V30 15749 H 1491.56 -3.79762 -0.22021 0
M  V30 15750 H 1492.88 -4.96211 -0.507504 0
M  V30 15751 H 1492.03 -5.36755 -2.82806 0
M  V30 15752 H 1490.77 -4.12187 -2.60678 0
M  V30 15753 H 1489.77 -5.45023 -0.723202 0
M  V30 15754 H 1491 -6.72176 -0.967278 0
M  V30 15755 H 1488.95 -5.82195 -3.02299 0
M  V30 15756 H 1488.86 -7.26991 -2.07414 0
M  V30 15757 H 1490.13 -7.08564 -3.24895 0
M  V30 15758 N 1494.36 -0.113586 -1.5719 0
M  V30 15759 C 1495.59 0.553592 -1.99356 0
M  V30 15760 C 1496 1.60567 -0.993154 0
M  V30 15761 O 1495.36 1.82494 0.0147252 0
M  V30 15762 C 1495.41 1.18462 -3.41539 0
M  V30 15763 O 1495.13 0.174602 -4.37752 0
M  V30 15764 C 1496.63 1.93564 -3.98808 0
M  V30 15765 H 1493.85 0.146998 -0.6547 0
M  V30 15766 H 1496.4 -0.198329 -2.03536 0
M  V30 15767 H 1494.55 1.88736 -3.38316 0
M  V30 15768 H 1494.97 0.632395 -5.20674 0
M  V30 15769 H 1496.44 2.33051 -5.00391 0
M  V30 15770 H 1496.92 2.80874 -3.37648 0
M  V30 15771 H 1497.52 1.28066 -4.0556 0
M  V30 15772 N 1495.84 1.56784 0.160173 0
M  V30 15773 C 1497.09 1.81812 0.873344 0
M  V30 15774 C 1497.4 0.692686 1.82924 0
M  V30 15775 O 1498.61 0.828202 2.5856 0
M  V30 15776 C 1497.06 3.222 1.6036 0
M  V30 15777 C 1496.67 4.42642 0.690776 0
M  V30 15778 C 1498.41 3.56512 2.30433 0
M  V30 15779 C 1496.32 5.74052 1.4219 0
M  V30 15780 H 1495.25 0.678013 0.32987 0
M  V30 15781 H 1497.9 1.83066 0.126164 0
M  V30 15782 H 1496.28 3.15295 2.39593 0
M  V30 15783 H 1497.46 4.60754 -0.0653914 0
M  V30 15784 H 1495.77 4.16282 0.09913 0
M  V30 15785 H 1498.37 4.51942 2.85749 0
M  V30 15786 H 1498.71 2.8193 3.06303 0
M  V30 15787 H 1499.25 3.65019 1.58132 0
M  V30 15788 H 1495.98 6.51694 0.705318 0
M  V30 15789 H 1495.5 5.59899 2.15111 0
M  V30 15790 H 1497.18 6.16395 1.96639 0
M  V30 15791 N 1497.32 -0.429099 1.51646 0
M  V30 15792 C 1498.59 -1.18958 1.55269 0
M  V30 15793 C 1498.97 -2.08633 0.321816 0
M  V30 15794 O 1498.32 -2.1775 -0.69261 0
M  V30 15795 C 1498.53 -1.98427 2.87102 0
M  V30 15796 C 1499.88 -2.55185 3.39361 0
M  V30 15797 O 1500.9 -2.08629 2.88708 0
M  V30 15798 O 1499.76 -3.40119 4.27763 0
M  V30 15799 H 1496.86 -0.542041 0.624596 0
M  V30 15800 H 1499.4 -0.437499 1.63964 0
M  V30 15801 H 1498.17 -1.32613 3.68143 0
M  V30 15802 H 1497.8 -2.80683 2.81608 0
M  V30 15803 N 1498.79 -1.41931 -0.685074 0
M  V30 15804 C 1500.04 -1.41852 -1.44514 0
M  V30 15805 C 1500.37 -0.0313137 -1.94475 0
M  V30 15806 O 1499.62 0.958606 -1.70614 0
M  V30 15807 C 1499.92 -2.38099 -2.6654 0
M  V30 15808 C 1499.59 -3.8471 -2.35178 0
M  V30 15809 C 1498.25 -4.24647 -2.26336 0
M  V30 15810 C 1500.6 -4.77232 -2.0952 0
M  V30 15811 C 1497.93 -5.55101 -1.89947 0
M  V30 15812 C 1500.28 -6.08017 -1.74638 0
M  V30 15813 C 1498.95 -6.46964 -1.64299 0
M  V30 15814 H 1498.22 -0.519072 -0.528815 0
M  V30 15815 H 1500.86 -1.74802 -0.782078 0
M  V30 15816 H 1499.17 -1.9844 -3.3783 0
M  V30 15817 H 1500.87 -2.35306 -3.24703 0
M  V30 15818 H 1497.46 -3.53085 -2.42959 0
M  V30 15819 H 1501.64 -4.47173 -2.1529 0
M  V30 15820 H 1496.9 -5.84148 -1.80503 0
M  V30 15821 H 1501.07 -6.79203 -1.53807 0
M  V30 15822 H 1498.7 -7.47959 -1.35871 0
M  V30 15823 N 1500.27 0.920374 -1.27933 0
M  V30 15824 C 1501.5 1.70804 -1.17647 0
M  V30 15825 C 1501.92 1.86264 0.262189 0
M  V30 15826 O 1501.28 1.36798 1.18979 0
M  V30 15827 C 1501.33 3.08142 -1.87298 0
M  V30 15828 O 1500.43 3.95279 -1.17593 0
M  V30 15829 H 1499.77 0.523267 -0.408763 0
M  V30 15830 H 1502.3 1.15127 -1.69136 0
M  V30 15831 H 1502.31 3.58414 -1.94945 0
M  V30 15832 H 1500.99 2.96208 -2.91948 0
M  V30 15833 H 1499.56 3.53716 -1.18065 0
M  V30 15834 N 1501.75 1.10074 1.1279 0
M  V30 15835 C 1502.97 0.863106 1.88587 0
M  V30 15836 C 1503.4 -0.580595 1.78915 0
M  V30 15837 O 1502.76 -1.40859 1.14142 0
M  V30 15838 C 1502.81 1.31142 3.35908 0
M  V30 15839 O 1501.91 0.474088 4.09666 0
M  V30 15840 H 1501.25 0.312034 0.586115 0
M  V30 15841 H 1503.78 1.46659 1.42662 0
M  V30 15842 H 1503.79 1.29974 3.86744 0
M  V30 15843 H 1502.47 2.36279 3.42265 0
M  V30 15844 H 1501.04 0.550665 3.68812 0
M  V30 15845 N 1503.23 -1.30138 0.888926 0
M  V30 15846 C 1504.5 -1.90831 0.42928 0
M  V30 15847 C 1504.88 -1.80765 -1.09028 0
M  V30 15848 O 1504.23 -1.22741 -1.92735 0
M  V30 15849 C 1504.44 -3.36331 0.931798 0
M  V30 15850 C 1505.79 -4.13393 0.969106 0
M  V30 15851 O 1506.81 -3.45191 0.878731 0
M  V30 15852 O 1505.67 -5.35249 1.10323 0
M  V30 15853 H 1502.77 -0.816401 0.131976 0
M  V30 15854 H 1505.31 -1.38678 0.978086 0
M  V30 15855 H 1504.09 -3.37761 1.97568 0
M  V30 15856 H 1503.71 -3.95945 0.362383 0
M  V30 15857 N 1504.71 -0.650285 -1.43559 0
M  V30 15858 C 1505.64 0.0295939 -2.33481 0
M  V30 15859 C 1506.62 0.815017 -1.49303 0
M  V30 15860 O 1507.8 0.77708 -1.77975 0
M  V30 15861 C 1504.93 0.998683 -3.32631 0
M  V30 15862 C 1503.89 0.323577 -4.26775 0
M  V30 15863 C 1503.21 1.40391 -5.1594 0
M  V30 15864 C 1504.51 -0.782197 -5.1641 0
M  V30 15865 H 1506.21 -0.721349 -2.9058 0
M  V30 15866 H 1503.75 -0.348339 -1.39723 0
M  V30 15867 H 1505.7 1.4832 -3.94435 0
M  V30 15868 H 1504.43 1.78075 -2.73782 0
M  V30 15869 H 1503.09 -0.140467 -3.66331 0
M  V30 15870 H 1502.74 2.17734 -4.53432 0
M  V30 15871 H 1502.44 0.957462 -5.79747 0
M  V30 15872 H 1503.96 1.88985 -5.80618 0
M  V30 15873 H 1505.37 -0.379966 -5.72039 0
M  V30 15874 H 1503.77 -1.15293 -5.88921 0
M  V30 15875 H 1504.84 -1.6414 -4.56274 0
M  V30 15876 N 1506.18 1.52647 -0.392018 0
M  V30 15877 C 1507.6 1.59544 -0.0421007 0
M  V30 15878 C 1507.8 1.40586 1.44353 0
M  V30 15879 O 1506.86 1.22422 2.20837 0
M  V30 15880 C 1508.17 2.9614 -0.521713 0
M  V30 15881 C 1509.72 3.09325 -0.478205 0
M  V30 15882 C 1510.19 4.48374 -0.93405 0
M  V30 15883 N 1511.68 4.54566 -0.890173 0
M  V30 15884 C 1512.42 5.60395 -1.21427 0
M  V30 15885 N 1511.91 6.73858 -1.60897 0
M  V30 15886 N 1513.71 5.50515 -1.13534 0
M  V30 15887 H 1505.86 1.63219 -1.35917 0
M  V30 15888 H 1508.12 0.766913 -0.557269 0
M  V30 15889 H 1507.83 3.15238 -1.55942 0
M  V30 15890 H 1507.7 3.7712 0.0777658 0
M  V30 15891 H 1510.09 2.89921 0.550418 0
M  V30 15892 H 1510.17 2.30292 -1.11352 0
M  V30 15893 H 1509.81 4.68519 -1.96092 0
M  V30 15894 H 1509.74 5.25878 -0.275717 0
M  V30 15895 H 1512.23 3.7311 -0.599758 0
M  V30 15896 H 1512.55 7.5058 -1.83983 0
M  V30 15897 H 1510.89 6.75182 -1.64786 0
M  V30 15898 H 1514.08 4.60755 -0.825977 0
M  V30 15899 H 1514.26 6.32889 -1.39124 0
M  V30 15900 N 1507.66 0.121921 1.57128 0
M  V30 15901 C 1508.59 -0.857725 2.12546 0
M  V30 15902 C 1509.61 -1.22797 1.06886 0
M  V30 15903 O 1510.8 -1.17641 1.34249 0
M  V30 15904 C 1507.9 -2.15869 2.61254 0
M  V30 15905 C 1507.07 -1.95969 3.91043 0
M  V30 15906 C 1506.13 -3.09822 4.2532 0
M  V30 15907 O 1505.15 -2.82608 4.94087 0
M  V30 15908 N 1506.36 -4.36333 3.82875 0
M  V30 15909 H 1509.12 -0.384239 2.97227 0
M  V30 15910 H 1506.68 -0.062416 1.6178 0
M  V30 15911 H 1508.67 -2.91035 2.81213 0
M  V30 15912 H 1507.24 -2.54557 1.81437 0
M  V30 15913 H 1506.46 -1.04979 3.79965 0
M  V30 15914 H 1507.75 -1.79981 4.75904 0
M  V30 15915 H 1507.15 -4.61318 3.27417 0
M  V30 15916 H 1505.71 -5.08362 4.07936 0
M  V30 15917 N 1509.14 -1.56867 -0.151857 0
M  V30 15918 C 1510.07 -1.94494 -1.21263 0
M  V30 15919 C 1511.09 -0.84021 -1.39443 0
M  V30 15920 O 1512.27 -1.11863 -1.391 0
M  V30 15921 C 1509.37 -2.19952 -2.57826 0
M  V30 15922 C 1508.55 -3.51227 -2.60689 0
M  V30 15923 C 1507.61 -3.65282 -3.78756 0
M  V30 15924 O 1506.63 -4.3772 -3.63854 0
M  V30 15925 N 1507.83 -3.01582 -4.96012 0
M  V30 15926 H 1510.6 -2.86092 -0.892845 0
M  V30 15927 H 1508.16 -1.58258 -0.341463 0
M  V30 15928 H 1510.15 -2.266 -3.35312 0
M  V30 15929 H 1508.72 -1.34643 -2.82117 0
M  V30 15930 H 1507.94 -3.56062 -1.69155 0
M  V30 15931 H 1509.23 -4.37574 -2.59628 0
M  V30 15932 H 1508.63 -2.42637 -5.11022 0
M  V30 15933 H 1507.19 -3.13799 -5.71291 0
M  V30 15934 N 1510.62 0.421051 -1.51871 0
M  V30 15935 C 1511.84 1.19568 -1.69465 0
M  V30 15936 C 1512.27 1.83835 -0.398269 0
M  V30 15937 O 1511.63 1.69508 0.643172 0
M  V30 15938 C 1511.67 2.24337 -2.82321 0
M  V30 15939 O 1510.78 3.30205 -2.47059 0
M  V30 15940 H 1510.12 0.349579 -0.564527 0
M  V30 15941 H 1512.65 0.495177 -1.98517 0
M  V30 15942 H 1512.66 2.6886 -3.06885 0
M  V30 15943 H 1511.33 1.76941 -3.76384 0
M  V30 15944 H 1509.91 2.91045 -2.33125 0
M  V30 15945 N 1512.1 1.42293 0.677538 0
M  V30 15946 C 1513.06 1.45258 1.77293 0
M  V30 15947 C 1514.06 0.340554 1.57152 0
M  V30 15948 O 1515.25 0.601259 1.63495 0
M  V30 15949 C 1512.38 1.28156 3.15894 0
M  V30 15950 H 1513.57 2.42787 1.76052 0
M  V30 15951 H 1511.13 1.287 0.886908 0
M  V30 15952 H 1511.86 0.315381 3.22763 0
M  V30 15953 H 1511.65 2.08744 3.31916 0
M  V30 15954 H 1513.14 1.33107 3.95818 0
M  V30 15955 N 1513.57 -0.913576 1.28419 0
M  V30 15956 C 1514.8 -1.70178 1.18551 0
M  V30 15957 C 1515.22 -1.864 -0.252307 0
M  V30 15958 O 1514.58 -1.37427 -1.18252 0
M  V30 15959 C 1514.63 -3.07145 1.8893 0
M  V30 15960 O 1513.73 -3.9465 1.19688 0
M  V30 15961 H 1513.08 -0.521092 0.411533 0
M  V30 15962 H 1515.61 -1.14228 1.69744 0
M  V30 15963 H 1515.62 -3.57375 1.96843 0
M  V30 15964 H 1514.29 -2.94655 2.93515 0
M  V30 15965 H 1512.87 -3.53085 1.19939 0
M  V30 15966 N 1515.05 -1.1067 -1.12204 0
M  V30 15967 C 1516.28 -0.871601 -1.87314 0
M  V30 15968 C 1516.69 0.581644 -1.80038 0
M  V30 15969 O 1516.03 1.4129 -1.17401 0
M  V30 15970 C 1516.1 -1.24458 -3.37269 0
M  V30 15971 C 1515.76 -2.70536 -3.6832 0
M  V30 15972 C 1516.76 -3.68769 -3.66477 0
M  V30 15973 C 1514.44 -3.06982 -3.97577 0
M  V30 15974 C 1516.44 -5.01471 -3.93454 0
M  V30 15975 C 1514.12 -4.39871 -4.24213 0
M  V30 15976 C 1515.12 -5.36924 -4.22139 0
M  V30 15977 O 1514.81 -6.6742 -4.48113 0
M  V30 15978 H 1514.54 -0.312472 -0.599447 0
M  V30 15979 H 1517.09 -1.47562 -1.4288 0
M  V30 15980 H 1515.32 -0.583674 -3.8227 0
M  V30 15981 H 1517.01 -0.986569 -3.93728 0
M  V30 15982 H 1517.78 -3.41957 -3.43934 0
M  V30 15983 H 1513.66 -2.32062 -3.98332 0
M  V30 15984 H 1517.2 -5.77215 -3.9175 0
M  V30 15985 H 1513.1 -4.6642 -4.46231 0
M  V30 15986 H 1513.87 -6.73088 -4.6572 0
M  V30 15987 N 1516.53 1.29665 -0.895815 0
M  V30 15988 C 1517.78 1.94995 -0.515749 0
M  V30 15989 C 1518.09 1.71427 0.94192 0
M  V30 15990 O 1519.3 2.3083 1.42933 0
M  V30 15991 C 1517.75 3.4919 -0.871468 0
M  V30 15992 C 1517.36 3.81562 -2.34764 0
M  V30 15993 C 1519.11 4.20775 -0.561123 0
M  V30 15994 C 1517.01 5.28984 -2.64442 0
M  V30 15995 H 1515.94 0.729889 -0.189151 0
M  V30 15996 H 1518.59 1.4745 -1.09228 0
M  V30 15997 H 1516.98 3.95366 -0.223908 0
M  V30 15998 H 1518.15 3.46258 -3.04043 0
M  V30 15999 H 1516.47 3.23107 -2.62661 0
M  V30 16000 H 1519.06 5.29275 -0.759755 0
M  V30 16001 H 1519.41 4.13285 0.500129 0
M  V30 16002 H 1519.94 3.80317 -1.16635 0
M  V30 16003 H 1516.68 5.41535 -3.69351 0
M  V30 16004 H 1516.2 5.6555 -1.99784 0
M  V30 16005 H 1517.88 5.96536 -2.50506 0
M  V30 16006 N 1518.01 0.657889 1.43212 0
M  V30 16007 C 1519.42 0.252443 1.84985 0
M  V30 16008 C 1519.77 -1.20196 1.55072 0
M  V30 16009 O 1518.9 -1.91803 1.00202 0
M  V30 16010 C 1519.49 0.451388 3.3578 0
M  V30 16011 C 1518.05 0.100219 3.76267 0
M  V30 16012 C 1517.2 0.752009 2.66908 0
M  V30 16013 H 1520.15 0.861239 1.33298 0
M  V30 16014 H 1520.17 -0.30169 3.79302 0
M  V30 16015 H 1519.68 1.51001 3.5752 0
M  V30 16016 H 1517.78 -0.955618 3.60137 0
M  V30 16017 H 1517.89 0.528942 4.76171 0
M  V30 16018 H 1516.26 0.184823 2.54029 0
M  V30 16019 H 1517.04 1.81375 2.91476 0
M  V30 16020 N 1519.49 -1.52437 0.400108 0
M  V30 16021 C 1520.43 -2.26763 -0.429799 0
M  V30 16022 C 1521.4 -1.28808 -1.0487 0
M  V30 16023 O 1522.59 -1.57655 -1.07468 0
M  V30 16024 C 1519.73 -3.08564 -1.54539 0
M  V30 16025 C 1518.84 -4.21463 -0.948294 0
M  V30 16026 C 1517.98 -4.9064 -2.03584 0
M  V30 16027 C 1517.02 -5.95515 -1.4152 0
M  V30 16028 N 1516.15 -6.58245 -2.4425 0
M  V30 16029 H 1520.99 -2.97256 0.210467 0
M  V30 16030 H 1518.53 -1.46645 0.115627 0
M  V30 16031 H 1520.49 -3.54289 -2.20307 0
M  V30 16032 H 1519.12 -2.40259 -2.15582 0
M  V30 16033 H 1518.17 -3.79974 -0.179918 0
M  V30 16034 H 1519.48 -4.96722 -0.454845 0
M  V30 16035 H 1518.64 -5.39724 -2.77097 0
M  V30 16036 H 1517.37 -4.14929 -2.56291 0
M  V30 16037 H 1516.38 -5.45759 -0.665354 0
M  V30 16038 H 1517.6 -6.73164 -0.89593 0
M  V30 16039 H 1515.55 -5.85369 -2.96107 0
M  V30 16040 H 1515.47 -7.2915 -1.99692 0
M  V30 16041 H 1516.74 -7.1197 -3.17362 0
M  V30 16042 N 1520.96 -0.130252 -1.57061 0
M  V30 16043 C 1522.21 0.52488 -1.94751 0
M  V30 16044 C 1522.53 1.67107 -1.0166 0
M  V30 16045 O 1523.73 2.38971 -1.28861 0
M  V30 16046 C 1522.19 0.985118 -3.46155 0
M  V30 16047 C 1521.8 -0.133222 -4.47802 0
M  V30 16048 C 1523.54 1.61099 -3.92743 0
M  V30 16049 C 1521.45 0.344346 -5.90397 0
M  V30 16050 H 1520.38 0.19985 -0.727032 0
M  V30 16051 H 1523.03 -0.211912 -1.82272 0
M  V30 16052 H 1521.41 1.77667 -3.53907 0
M  V30 16053 H 1522.58 -0.909784 -4.5173 0
M  V30 16054 H 1520.9 -0.666449 -4.11032 0
M  V30 16055 H 1523.5 1.97963 -4.96704 0
M  V30 16056 H 1523.84 2.49366 -3.3335 0
M  V30 16057 H 1524.37 0.884641 -3.87839 0
M  V30 16058 H 1521.11 -0.502547 -6.53571 0
M  V30 16059 H 1520.63 1.08714 -5.89865 0
M  V30 16060 H 1522.31 0.801885 -6.42012 0
M  V30 16061 N 1522.44 1.56945 0.143535 0
M  V30 16062 C 1523.67 1.87701 0.870401 0
M  V30 16063 C 1524.09 0.718833 1.7458 0
M  V30 16064 O 1523.44 -0.311286 1.79826 0
M  V30 16065 C 1523.49 3.1773 1.72424 0
M  V30 16066 O 1523.22 4.29086 0.884115 0
M  V30 16067 C 1524.72 3.62024 2.55839 0
M  V30 16068 H 1521.94 0.622083 0.251504 0
M  V30 16069 H 1524.48 2.04052 0.135285 0
M  V30 16070 H 1522.64 3.03122 2.41238 0
M  V30 16071 H 1523.05 5.0346 1.47065 0
M  V30 16072 H 1524.52 4.55834 3.11319 0
M  V30 16073 H 1525 2.87481 3.32041 0
M  V30 16074 H 1525.61 3.79338 1.9231 0
M  V30 16075 N 1523.92 -0.412991 1.52093 0
M  V30 16076 C 1524.87 -1.50193 1.7154 0
M  V30 16077 C 1525.86 -1.50492 0.569294 0
M  V30 16078 O 1527.05 -1.56534 0.826207 0
M  V30 16079 C 1524.18 -2.8816 1.86598 0
M  V30 16080 C 1523.26 -2.92524 3.07068 0
M  V30 16081 N 1523.65 -2.66591 4.29841 0
M  V30 16082 C 1521.95 -3.23691 3.06822 0
M  V30 16083 C 1522.65 -2.77424 5.11284 0
M  V30 16084 N 1521.63 -3.10138 4.46448 0
M  V30 16085 H 1525.43 -1.28932 2.64109 0
M  V30 16086 H 1522.94 -0.620648 1.50072 0
M  V30 16087 H 1524.94 -3.66532 1.98646 0
M  V30 16088 H 1523.6 -3.10422 0.952263 0
M  V30 16089 H 1524.61 -2.41058 4.58379 0
M  V30 16090 H 1521.29 -3.51572 2.25174 0
M  V30 16091 H 1522.68 -2.61121 6.19084 0
M  V30 16092 N 1525.4 -1.4265 -0.669982 0
M  V30 16093 C 1526.81 -1.38614 -1.25072 0
M  V30 16094 C 1527.16 -0.0818051 -1.96029 0
M  V30 16095 O 1526.29 0.81931 -2.0029 0
M  V30 16096 C 1526.88 -2.51085 -2.27469 0
M  V30 16097 C 1525.44 -2.50366 -2.81059 0
M  V30 16098 C 1524.59 -2.29632 -1.5545 0
M  V30 16099 H 1527.54 -1.51794 -0.463058 0
M  V30 16100 H 1527.56 -2.21612 -3.09303 0
M  V30 16101 H 1527.07 -3.46002 -1.75796 0
M  V30 16102 H 1525.17 -1.5928 -3.36839 0
M  V30 16103 H 1525.29 -3.47569 -3.29746 0
M  V30 16104 H 1523.65 -1.77982 -1.82193 0
M  V30 16105 H 1524.43 -3.26611 -1.05736 0
M  V30 16106 N 1526.88 0.906753 -1.28902 0
M  V30 16107 C 1528.11 1.69019 -1.19333 0
M  V30 16108 C 1528.52 1.87176 0.247065 0
M  V30 16109 O 1527.88 1.40376 1.16623 0
M  V30 16110 C 1527.93 3.07854 -1.89495 0
M  V30 16111 O 1527.65 2.90531 -3.27908 0
M  V30 16112 C 1529.15 4.02246 -1.86314 0
M  V30 16113 H 1526.37 0.528119 -0.413922 0
M  V30 16114 H 1528.91 1.13441 -1.70151 0
M  V30 16115 H 1527.07 3.60228 -1.42529 0
M  V30 16116 H 1527.48 3.78451 -3.63146 0
M  V30 16117 H 1528.96 4.97104 -2.39983 0
M  V30 16118 H 1529.43 4.31149 -0.837071 0
M  V30 16119 H 1530.04 3.55803 -2.3299 0
M  V30 16120 N 1528.36 1.11264 1.11616 0
M  V30 16121 C 1529.63 0.772174 1.79713 0
M  V30 16122 C 1530.01 -0.740055 1.97703 0
M  V30 16123 O 1529.36 -1.66939 1.56024 0
M  V30 16124 C 1529.57 1.53316 3.13521 0
M  V30 16125 C 1530.92 1.71124 3.88589 0
M  V30 16126 O 1531.94 1.49725 3.23204 0
M  V30 16127 O 1530.8 2.0667 5.05915 0
M  V30 16128 H 1527.9 0.279548 0.77832 0
M  V30 16129 H 1530.44 1.21596 1.18375 0
M  V30 16130 H 1529.21 2.56194 2.95771 0
M  V30 16131 H 1528.84 1.08281 3.82572 0
M  V30 16132 N 1529.83 -1.29188 0.902679 0
M  V30 16133 C 1531.06 -1.99576 0.545635 0
M  V30 16134 C 1531.48 -1.67541 -0.870372 0
M  V30 16135 O 1530.83 -0.922082 -1.57493 0
M  V30 16136 C 1530.88 -3.54013 0.731916 0
M  V30 16137 O 1530.61 -3.84914 2.09219 0
M  V30 16138 C 1532.11 -4.41666 0.38022 0
M  V30 16139 H 1529.33 -0.637593 0.209083 0
M  V30 16140 H 1531.87 -1.64652 1.21284 0
M  V30 16141 H 1530.03 -3.87239 0.111849 0
M  V30 16142 H 1530.44 -4.79581 2.12373 0
M  V30 16143 H 1531.91 -5.49138 0.561382 0
M  V30 16144 H 1532.39 -4.33858 -0.682915 0
M  V30 16145 H 1533 -4.13918 0.977354 0
M  V30 16146 N 1531.31 -0.665475 -1.42861 0
M  V30 16147 C 1532.54 -0.190399 -2.06524 0
M  V30 16148 C 1532.96 1.13995 -1.49622 0
M  V30 16149 O 1532.32 1.70695 -0.610981 0
M  V30 16150 C 1532.37 -0.12594 -3.6038 0
M  V30 16151 O 1531.47 0.908299 -4.02273 0
M  V30 16152 H 1530.81 -0.100495 -0.656351 0
M  V30 16153 H 1533.34 -0.911858 -1.83156 0
M  V30 16154 H 1533.35 0.0533153 -4.07965 0
M  V30 16155 H 1532.03 -1.09703 -4.01171 0
M  V30 16156 H 1530.6 0.700841 -3.66255 0
M  V30 16157 N 1532.79 1.52222 -0.408187 0
M  V30 16158 C 1533.74 2.28544 0.432458 0
M  V30 16159 C 1534.73 1.33198 1.04665 0
M  V30 16160 O 1535.94 1.50661 0.984954 0
M  V30 16161 H 1532.31 0.735162 0.158241 0
M  V30 16162 H 1534.28 2.97493 -0.232482 0
M  V30 16163 C 1533.03 3.11864 1.53741 0
M  V30 16164 H 1532.36 3.851 1.07414 0
M  V30 16165 H 1533.8 3.68374 2.09945 0
M  V30 16166 C 1532.25 2.25367 2.50423 0
M  V30 16167 O 1532.78 1.89329 3.54285 0
M  V30 16168 N 1530.99 1.89155 2.2061 0
M  V30 16169 H 1530.54 2.18661 1.36181 0
M  V30 16170 H 1530.5 1.31574 2.85544 0
M  V30 16171 N 1534.27 0.138579 1.5699 0
M  V30 16172 C 1535.51 -0.514627 1.95852 0
M  V30 16173 C 1535.84 -1.65424 1.02299 0
M  V30 16174 O 1535.1 -1.95635 0.0505654 0
M  V30 16175 C 1535.4 -1.06969 3.41017 0
M  V30 16176 C 1535.06 -0.049396 4.50873 0
M  V30 16177 C 1533.72 0.231103 4.80645 0
M  V30 16178 C 1536.08 0.644865 5.17195 0
M  V30 16179 C 1533.4 1.21181 5.74049 0
M  V30 16180 C 1535.76 1.61434 6.11655 0
M  V30 16181 C 1534.42 1.90262 6.3981 0
M  V30 16182 H 1533.69 -0.188315 0.716672 0
M  V30 16183 H 1536.34 0.223629 1.9019 0
M  V30 16184 H 1534.64 -1.88511 3.43469 0
M  V30 16185 H 1536.34 -1.58354 3.68409 0
M  V30 16186 H 1532.93 -0.278202 4.27696 0
M  V30 16187 H 1537.11 0.441346 4.94334 0
M  V30 16188 H 1532.37 1.4417 5.94159 0
M  V30 16189 H 1536.54 2.15786 6.62125 0
M  V30 16190 H 1534.17 2.66407 7.11991 0
M  V30 16191 N 1535.75 -1.57019 -0.13521 0
M  V30 16192 C 1537.02 -1.74928 -0.875189 0
M  V30 16193 C 1537.4 -0.709755 -1.98811 0
M  V30 16194 O 1536.75 0.269237 -2.26908 0
M  V30 16195 C 1536.96 -3.1939 -1.40681 0
M  V30 16196 C 1538.31 -3.8142 -1.86557 0
M  V30 16197 O 1539.33 -3.22892 -1.50397 0
M  V30 16198 O 1538.19 -4.84263 -2.53282 0
M  V30 16199 H 1535.29 -0.715665 -0.414431 0
M  V30 16200 H 1537.83 -1.69274 -0.120215 0
M  V30 16201 H 1536.6 -3.86554 -0.607564 0
M  V30 16202 H 1536.23 -3.29517 -2.22496 0
M  V30 16203 N 1537.22 0.404919 -1.52309 0
M  V30 16204 C 1538.64 0.983553 -1.58692 0
M  V30 16205 C 1538.99 1.9143 -0.429993 0
M  V30 16206 O 1538.11 2.11689 0.449088 0
M  V30 16207 C 1538.71 1.79059 -2.87617 0
M  V30 16208 C 1537.27 2.31918 -2.96464 0
M  V30 16209 C 1536.41 1.12018 -2.53667 0
M  V30 16210 H 1539.36 0.185007 -1.57618 0
M  V30 16211 H 1539.38 2.64836 -2.73207 0
M  V30 16212 H 1538.9 1.11291 -3.71801 0
M  V30 16213 H 1537 3.03044 -2.16783 0
M  V30 16214 H 1537.11 2.62495 -4.00791 0
M  V30 16215 H 1535.47 1.47542 -2.07614 0
M  V30 16216 H 1536.26 0.458111 -3.4023 0
M  V30 16217 N 1538.7 1.43003 0.662408 0
M  V30 16218 C 1539.95 1.44346 1.4245 0
M  V30 16219 C 1540.28 0.064094 1.94094 0
M  V30 16220 O 1539.56 -0.913633 1.71706 0
M  V30 16221 C 1539.84 2.47822 2.61259 0
M  V30 16222 C 1539.69 3.94998 2.15166 0
M  V30 16223 C 1541.01 2.48139 3.63476 0
M  V30 16224 H 1538.13 0.525606 0.51663 0
M  V30 16225 H 1540.77 1.74495 0.751754 0
M  V30 16226 H 1538.92 2.22244 3.18653 0
M  V30 16227 H 1540.59 4.31601 1.62843 0
M  V30 16228 H 1538.84 4.0827 1.46622 0
M  V30 16229 H 1539.51 4.62998 3.00561 0
M  V30 16230 H 1541.98 2.70916 3.15823 0
M  V30 16231 H 1540.86 3.22498 4.44169 0
M  V30 16232 H 1541.12 1.51184 4.15447 0
M  V30 16233 N 1540.18 -0.899904 1.29381 0
M  V30 16234 C 1541.46 -1.63067 1.08021 0
M  V30 16235 C 1541.84 -2.0773 -0.375716 0
M  V30 16236 O 1541.19 -1.83288 -1.36447 0
M  V30 16237 C 1541.4 -2.81163 2.06757 0
M  V30 16238 C 1542.74 -3.51854 2.37664 0
M  V30 16239 O 1543.77 -2.91332 2.0495 0
M  V30 16240 O 1542.63 -4.60962 2.93558 0
M  V30 16241 H 1539.72 -0.71601 0.413835 0
M  V30 16242 H 1542.27 -0.947991 1.40752 0
M  V30 16243 H 1541.04 -2.45355 3.04822 0
M  V30 16244 H 1540.66 -3.57137 1.74754 0
M  V30 16245 N 1541.66 -1.11854 -1.11024 0
M  V30 16246 C 1543.07 -0.885443 -1.64368 0
M  V30 16247 C 1543.42 0.581455 -1.87386 0
M  V30 16248 O 1542.55 1.44452 -1.61129 0
M  V30 16249 C 1543.14 -1.60082 -2.98595 0
M  V30 16250 C 1541.7 -1.41403 -3.4883 0
M  V30 16251 C 1540.85 -1.64069 -2.23555 0
M  V30 16252 H 1543.8 -1.27418 -0.94606 0
M  V30 16253 H 1543.82 -1.04832 -3.65774 0
M  V30 16254 H 1543.33 -2.66842 -2.8181 0
M  V30 16255 H 1541.43 -0.368727 -3.70771 0
M  V30 16256 H 1541.54 -2.16603 -4.27341 0
M  V30 16257 H 1539.91 -1.06437 -2.31394 0
M  V30 16258 H 1540.69 -2.72112 -2.09308 0
M  V30 16259 N 1543.14 1.28707 -0.909517 0
M  V30 16260 C 1544.41 1.90124 -0.459585 0
M  V30 16261 C 1544.79 1.82477 1.06139 0
M  V30 16262 O 1544.14 1.25792 1.90758 0
M  V30 16263 C 1544.35 3.34806 -0.985188 0
M  V30 16264 C 1545.7 4.11799 -1.03475 0
M  V30 16265 O 1546.72 3.43749 -0.933536 0
M  V30 16266 O 1545.58 5.33426 -1.18825 0
M  V30 16267 H 1542.68 0.814199 -0.144948 0
M  V30 16268 H 1545.22 1.37104 -1.00002 0
M  V30 16269 H 1543.99 3.34575 -2.02917 0
M  V30 16270 H 1543.62 3.95318 -0.425329 0
M  V30 16271 N 1544.61 0.673042 1.42506 0
M  V30 16272 C 1545.56 -0.00638067 2.30799 0
M  V30 16273 C 1546.53 -0.794524 1.45865 0
M  V30 16274 O 1547.72 -0.767129 1.74699 0
M  V30 16275 C 1544.86 -0.952923 3.31683 0
M  V30 16276 C 1543.97 -0.158787 4.31708 0
M  V30 16277 C 1543.1 -1.10092 5.19666 0
M  V30 16278 C 1542.14 -0.29837 6.11372 0
M  V30 16279 N 1541.28 -1.19312 6.91888 0
M  V30 16280 H 1546.12 0.75237 2.88346 0
M  V30 16281 H 1543.66 0.382763 1.42033 0
M  V30 16282 H 1545.62 -1.51552 3.887 0
M  V30 16283 H 1544.25 -1.67832 2.75739 0
M  V30 16284 H 1543.3 0.520406 3.76823 0
M  V30 16285 H 1544.61 0.464385 4.96634 0
M  V30 16286 H 1543.76 -1.7335 5.81407 0
M  V30 16287 H 1542.5 -1.75798 4.54914 0
M  V30 16288 H 1541.51 0.347437 5.48701 0
M  V30 16289 H 1542.73 0.354569 6.78174 0
M  V30 16290 H 1540.68 -1.83661 6.29765 0
M  V30 16291 H 1540.6 -0.624986 7.53412 0
M  V30 16292 H 1541.86 -1.81323 7.58118 0
M  V30 16293 N 1546.09 -1.52004 0.416254 0
M  V30 16294 C 1547.02 -2.30106 -0.396671 0
M  V30 16295 C 1548 -1.34616 -1.03983 0
M  V30 16296 O 1549.19 -1.63528 -1.04749 0
M  V30 16297 C 1546.32 -3.12769 -1.50972 0
M  V30 16298 C 1545.27 -4.16365 -0.99119 0
M  V30 16299 C 1544.6 -4.87417 -2.19838 0
M  V30 16300 C 1545.9 -5.22284 -0.0402599 0
M  V30 16301 H 1547.59 -2.98312 0.255054 0
M  V30 16302 H 1545.14 -1.43464 0.124106 0
M  V30 16303 H 1547.09 -3.66178 -2.08547 0
M  V30 16304 H 1545.82 -2.42346 -2.18943 0
M  V30 16305 H 1544.47 -3.63976 -0.437803 0
M  V30 16306 H 1544.12 -4.13516 -2.8638 0
M  V30 16307 H 1543.82 -5.57454 -1.85792 0
M  V30 16308 H 1545.35 -5.43641 -2.78006 0
M  V30 16309 H 1546.76 -5.70891 -0.525027 0
M  V30 16310 H 1545.16 -5.99726 0.211742 0
M  V30 16311 H 1546.23 -4.7642 0.902877 0
M  V30 16312 N 1547.57 -0.146903 -1.56914 0
M  V30 16313 C 1548.82 0.498591 -1.97194 0
M  V30 16314 C 1549.17 1.62484 -1.03037 0
M  V30 16315 O 1548.46 1.91488 -0.0654079 0
M  V30 16316 C 1548.66 1.05159 -3.41579 0
M  V30 16317 C 1548.49 -0.0195532 -4.49696 0
M  V30 16318 C 1547.26 -0.46094 -5.03193 0
M  V30 16319 C 1549.46 -0.810985 -5.07866 0
M  V30 16320 N 1547.44 -1.51493 -5.94914 0
M  V30 16321 C 1548.81 -1.71548 -5.95795 0
M  V30 16322 C 1550.86 -0.858784 -4.90438 0
M  V30 16323 C 1549.57 -2.66368 -6.68162 0
M  V30 16324 C 1551.59 -1.79481 -5.63507 0
M  V30 16325 C 1550.95 -2.68683 -6.51144 0
M  V30 16326 H 1547.05 0.151258 -0.767232 0
M  V30 16327 H 1549.64 -0.241482 -1.93197 0
M  V30 16328 H 1547.81 1.76127 -3.4617 0
M  V30 16329 H 1549.54 1.66369 -3.68922 0
M  V30 16330 H 1546.3 -0.0632145 -4.73558 0
M  V30 16331 H 1546.72 -2.04169 -6.4548 0
M  V30 16332 H 1551.36 -0.183218 -4.22403 0
M  V30 16333 H 1549.08 -3.34924 -7.35426 0
M  V30 16334 H 1552.67 -1.83759 -5.52018 0
M  V30 16335 H 1551.55 -3.39933 -7.06693 0
M  V30 16336 N 1549.05 1.57088 0.126881 0
M  V30 16337 C 1550.27 1.88984 0.854389 0
M  V30 16338 C 1550.7 0.738037 1.73016 0
M  V30 16339 O 1550.06 -0.311728 1.786 0
M  V30 16340 C 1550.1 3.19584 1.67028 0
M  V30 16341 O 1549.21 3.04935 2.77648 0
M  V30 16342 H 1548.55 0.620354 0.236763 0
M  V30 16343 H 1551.08 2.04295 0.111647 0
M  V30 16344 H 1551.09 3.52109 2.06115 0
M  V30 16345 H 1549.76 4.03012 1.02732 0
M  V30 16346 H 1548.34 2.83861 2.41821 0
M  V30 16347 N 1550.53 -0.396836 1.52522 0
M  V30 16348 C 1551.8 -1.15638 1.57757 0
M  V30 16349 C 1552.18 -2.07903 0.365998 0
M  V30 16350 O 1551.53 -2.1917 -0.646266 0
M  V30 16351 C 1551.74 -1.92292 2.91247 0
M  V30 16352 C 1553.09 -2.47929 3.44697 0
M  V30 16353 O 1554.11 -2.02458 2.93069 0
M  V30 16354 O 1552.97 -3.30969 4.34881 0
M  V30 16355 H 1550.07 -0.52867 0.635953 0
M  V30 16356 H 1552.61 -0.402622 1.64855 0
M  V30 16357 H 1551.38 -1.24775 3.70873 0
M  V30 16358 H 1551.01 -2.74646 2.87498 0
M  V30 16359 N 1552.01 -1.43353 -0.654814 0
M  V30 16360 C 1553.28 -1.35363 -1.41195 0
M  V30 16361 C 1553.66 -0.000661523 -2.111 0
M  V30 16362 O 1553.01 1.01583 -2.04678 0
M  V30 16363 C 1553.22 -2.53572 -2.39796 0
M  V30 16364 C 1554.57 -2.96587 -3.03844 0
M  V30 16365 O 1555.59 -2.53607 -2.50124 0
M  V30 16366 O 1554.45 -3.71039 -4.01239 0
M  V30 16367 H 1551.55 -0.534861 -0.630756 0
M  V30 16368 H 1554.09 -1.55399 -0.681857 0
M  V30 16369 H 1552.86 -3.43682 -1.87078 0
M  V30 16370 H 1552.49 -2.35628 -3.20258 0
M  V30 16371 N 1553.48 0.89303 -1.29857 0
M  V30 16372 C 1554.43 2.01928 -1.15447 0
M  V30 16373 C 1555.43 1.69262 -0.0683677 0
M  V30 16374 O 1556.63 1.78542 -0.228646 0
M  V30 16375 H 1553.01 0.661961 -0.356807 0
M  V30 16376 H 1554.98 2.11218 -2.10784 0
M  V30 16377 C 1553.73 3.37031 -0.85473 0
M  V30 16378 H 1553.05 3.62673 -1.68251 0
M  V30 16379 H 1554.49 4.165 -0.793973 0
M  V30 16380 C 1552.95 3.33986 0.442183 0
M  V30 16381 O 1553.48 3.73986 1.4662 0
M  V30 16382 N 1551.68 2.87088 0.450438 0
M  V30 16383 H 1551.23 2.54732 -0.383347 0
M  V30 16384 H 1551.19 2.85433 1.31815 0
M  V30 16385 N 1554.96 1.12442 1.10429 0
M  V30 16386 C 1555.87 0.805377 2.20343 0
M  V30 16387 C 1556.89 -0.205836 1.72778 0
M  V30 16388 O 1558.06 -0.0394195 2.01361 0
M  V30 16389 C 1555.13 0.264711 3.45688 0
M  V30 16390 C 1554.19 1.33586 4.07987 0
M  V30 16391 C 1553.42 0.8209 5.27349 0
M  V30 16392 O 1553.65 -0.345303 5.69354 0
M  V30 16393 O 1552.58 1.59052 5.80505 0
M  V30 16394 H 1556.41 1.7234 2.50065 0
M  V30 16395 H 1553.99 0.901084 1.19167 0
M  V30 16396 H 1555.87 -0.0319164 4.21388 0
M  V30 16397 H 1554.55 -0.625869 3.17592 0
M  V30 16398 H 1553.45 1.68566 3.33971 0
M  V30 16399 H 1554.79 2.20021 4.40286 0
M  V30 16400 N 1556.44 -1.28223 0.91633 0
M  V30 16401 C 1557.35 -2.30956 0.411882 0
M  V30 16402 C 1558.37 -1.66609 -0.501753 0
M  V30 16403 O 1559.54 -1.97641 -0.387317 0
M  V30 16404 C 1556.61 -3.45053 -0.337558 0
M  V30 16405 C 1555.67 -4.2495 0.609609 0
M  V30 16406 C 1554.9 -5.33598 -0.104159 0
M  V30 16407 O 1555.12 -5.54786 -1.32546 0
M  V30 16408 O 1554.06 -5.99272 0.561851 0
M  V30 16409 H 1557.88 -2.76118 1.26461 0
M  V30 16410 H 1555.47 -1.32964 0.681246 0
M  V30 16411 H 1557.35 -4.14477 -0.760722 0
M  V30 16412 H 1556.03 -3.01968 -1.16607 0
M  V30 16413 H 1554.93 -3.58104 1.08222 0
M  V30 16414 H 1556.27 -4.7172 1.40502 0
M  V30 16415 N 1557.92 -0.68059 -1.42147 0
M  V30 16416 C 1558.83 -0.00595573 -2.34599 0
M  V30 16417 C 1559.84 0.782528 -1.55411 0
M  V30 16418 O 1561.02 0.723524 -1.87955 0
M  V30 16419 C 1558.08 0.92964 -3.34004 0
M  V30 16420 C 1557.15 0.135041 -4.29088 0
M  V30 16421 C 1556.38 1.02607 -5.23744 0
M  V30 16422 O 1556.6 2.26562 -5.23475 0
M  V30 16423 O 1555.54 0.483774 -5.99953 0
M  V30 16424 H 1559.36 -0.767652 -2.93838 0
M  V30 16425 H 1556.95 -0.440849 -1.42748 0
M  V30 16426 H 1558.83 1.46657 -3.95057 0
M  V30 16427 H 1557.5 1.67109 -2.7723 0
M  V30 16428 H 1556.41 -0.44613 -3.7143 0
M  V30 16429 H 1557.74 -0.567417 -4.88918 0
M  V30 16430 N 1559.4 1.51781 -0.424309 0
M  V30 16431 C 1560.34 2.2899 0.408193 0
M  V30 16432 C 1561.34 1.34301 1.03246 0
M  V30 16433 O 1562.54 1.51697 0.968919 0
M  V30 16434 H 1558.92 0.736799 0.150435 0
M  V30 16435 H 1560.89 2.9723 -0.264022 0
M  V30 16436 C 1559.64 3.13477 1.50425 0
M  V30 16437 H 1558.96 3.86218 1.03324 0
M  V30 16438 H 1560.4 3.7058 2.06026 0
M  V30 16439 C 1558.86 2.2801 2.48018 0
M  V30 16440 O 1559.39 1.93076 3.52257 0
M  V30 16441 N 1557.6 1.91484 2.18591 0
M  V30 16442 H 1557.14 2.20093 1.33854 0
M  V30 16443 H 1557.1 1.34595 2.84133 0
M  V30 16444 N 1560.87 0.155222 1.56834 0
M  V30 16445 C 1562.12 -0.494557 1.96677 0
M  V30 16446 C 1562.45 -1.63973 1.04051 0
M  V30 16447 O 1561.73 -1.94316 0.0844791 0
M  V30 16448 C 1562.01 -0.992902 3.46141 0
M  V30 16449 C 1561.86 0.151335 4.49545 0
M  V30 16450 C 1563.18 -1.87197 3.98303 0
M  V30 16451 H 1560.3 -0.178298 0.715107 0
M  V30 16452 H 1562.94 0.23811 1.88502 0
M  V30 16453 H 1561.09 -1.61724 3.53239 0
M  V30 16454 H 1562.77 0.787945 4.54521 0
M  V30 16455 H 1561.01 0.809262 4.26185 0
M  V30 16456 H 1561.68 -0.23921 5.51481 0
M  V30 16457 H 1564.16 -1.34578 3.93736 0
M  V30 16458 H 1563.03 -2.18972 5.03331 0
M  V30 16459 H 1563.29 -2.81191 3.41151 0
M  V30 16460 N 1562.35 -1.57153 -0.118549 0
M  V30 16461 C 1563.3 -2.01357 -1.1644 0
M  V30 16462 C 1564.29 -0.910574 -1.42846 0
M  V30 16463 O 1565.5 -1.09578 -1.42803 0
M  V30 16464 H 1561.87 -0.641376 -0.392607 0
M  V30 16465 H 1563.85 -2.88425 -0.765087 0
M  V30 16466 C 1562.59 -2.43416 -2.48282 0
M  V30 16467 H 1561.92 -3.27857 -2.288 0
M  V30 16468 H 1563.36 -2.78143 -3.20019 0
M  V30 16469 C 1561.82 -1.29799 -3.10892 0
M  V30 16470 O 1562.35 -0.614207 -3.96977 0
M  V30 16471 N 1560.55 -1.05493 -2.70776 0
M  V30 16472 H 1560.1 -1.61276 -2.00868 0
M  V30 16473 H 1560.06 -0.296678 -3.12997 0
M  V30 16474 N 1563.83 0.388742 -1.5273 0
M  V30 16475 C 1565.11 1.14799 -1.58368 0
M  V30 16476 C 1565.49 2.07706 -0.377018 0
M  V30 16477 O 1564.83 2.1951 0.634634 0
M  V30 16478 C 1565.04 1.90745 -2.92262 0
M  V30 16479 C 1566.39 2.46098 -3.46007 0
M  V30 16480 O 1567.42 2.00901 -2.94138 0
M  V30 16481 O 1566.28 3.28658 -4.3663 0
M  V30 16482 H 1563.37 0.52529 -0.638748 0
M  V30 16483 H 1565.92 0.393874 -1.65066 0
M  V30 16484 H 1564.69 1.22806 -3.7153 0
M  V30 16485 H 1564.31 2.73118 -2.88951 0
M  V30 16486 N 1565.31 1.43698 0.647203 0
M  V30 16487 C 1566.54 1.49085 1.43462 0
M  V30 16488 C 1566.95 0.110605 1.88476 0
M  V30 16489 O 1566.31 -0.880365 1.59862 0
M  V30 16490 C 1566.36 2.44186 2.66562 0
M  V30 16491 O 1566.08 3.76844 2.23429 0
M  V30 16492 C 1567.58 2.58876 3.59858 0
M  V30 16493 H 1564.8 0.506148 0.440517 0
M  V30 16494 H 1567.34 1.88502 0.792931 0
M  V30 16495 H 1565.5 2.07949 3.26858 0
M  V30 16496 H 1565.91 4.2804 3.0312 0
M  V30 16497 H 1567.39 3.29482 4.42883 0
M  V30 16498 H 1567.86 1.63567 4.07606 0
M  V30 16499 H 1568.47 2.95949 3.05441 0
M  V30 16500 N 1566.79 -0.886131 1.30328 0
M  V30 16501 C 1567.72 -2.00793 1.19183 0
M  V30 16502 C 1568.7 -1.69899 0.08276 0
M  V30 16503 O 1569.88 -1.92389 0.264593 0
M  V30 16504 C 1567.01 -3.35922 0.881669 0
M  V30 16505 C 1565.97 -3.81072 1.94855 0
M  V30 16506 C 1565.29 -5.1348 1.4914 0
M  V30 16507 C 1566.59 -3.99923 3.35944 0
M  V30 16508 H 1568.29 -2.10375 2.13032 0
M  V30 16509 H 1565.83 -1.0108 1.02561 0
M  V30 16510 H 1567.79 -4.13922 0.790359 0
M  V30 16511 H 1566.51 -3.26469 -0.0925037 0
M  V30 16512 H 1565.17 -3.053 2.02947 0
M  V30 16513 H 1564.82 -5.00453 0.50553 0
M  V30 16514 H 1564.52 -5.44659 2.205 0
M  V30 16515 H 1566.04 -5.94005 1.41386 0
M  V30 16516 H 1567.45 -4.68364 3.30617 0
M  V30 16517 H 1565.85 -4.42477 4.05381 0
M  V30 16518 H 1566.92 -3.03816 3.77921 0
M  V30 16519 N 1568.26 -1.13026 -1.09832 0
M  V30 16520 C 1569.21 -0.799174 -2.1844 0
M  V30 16521 C 1570.21 0.216695 -1.68008 0
M  V30 16522 O 1571.41 0.0742662 -1.79847 0
M  V30 16523 H 1567.79 -0.24064 -0.712458 0
M  V30 16524 H 1569.76 -1.72342 -2.436 0
M  V30 16525 C 1568.51 -0.276925 -3.46595 0
M  V30 16526 H 1567.83 -1.04993 -3.85768 0
M  V30 16527 H 1569.27 -0.0836468 -4.23917 0
M  V30 16528 C 1567.73 0.996479 -3.21826 0
M  V30 16529 O 1568.26 2.0731 -3.44072 0
M  V30 16530 N 1566.47 0.925903 -2.75455 0
M  V30 16531 H 1566.01 0.0496383 -2.57552 0
M  V30 16532 H 1565.97 1.77853 -2.5926 0
M  V30 16533 N 1569.74 1.27735 -0.923117 0
M  V30 16534 C 1570.99 1.94185 -0.56004 0
M  V30 16535 C 1571.31 1.72945 0.90084 0
M  V30 16536 O 1570.58 1.07453 1.63801 0
M  V30 16537 H 1569.16 0.718568 -0.204129 0
M  V30 16538 H 1571.82 1.55535 -1.17451 0
M  V30 16539 H 1570.92 3.02644 -0.762424 0
M  V30 16540 N 1571.22 0.688118 1.41784 0
M  V30 16541 C 1572.47 0.224991 2.02152 0
M  V30 16542 C 1572.82 -1.16002 1.53497 0
M  V30 16543 O 1572.11 -1.7702 0.733114 0
M  V30 16544 C 1572.31 0.213747 3.5676 0
M  V30 16545 C 1572.14 1.59613 4.20421 0
M  V30 16546 C 1570.91 2.19716 4.55031 0
M  V30 16547 C 1573.11 2.54135 4.47124 0
M  V30 16548 N 1571.09 3.50597 5.0394 0
M  V30 16549 C 1572.46 3.69685 4.97728 0
M  V30 16550 C 1574.51 2.52496 4.29127 0
M  V30 16551 C 1573.22 4.83868 5.32226 0
M  V30 16552 C 1575.24 3.65785 4.6471 0
M  V30 16553 C 1574.6 4.80065 5.15478 0
M  V30 16554 H 1570.7 0.127552 0.771527 0
M  V30 16555 H 1573.29 0.903988 1.72442 0
M  V30 16556 H 1571.46 -0.434709 3.8596 0
M  V30 16557 H 1573.19 -0.263508 4.03841 0
M  V30 16558 H 1569.95 1.72074 4.41234 0
M  V30 16559 H 1570.37 4.17665 5.32809 0
M  V30 16560 H 1575.01 1.65363 3.89121 0
M  V30 16561 H 1572.73 5.71667 5.71159 0
M  V30 16562 H 1576.32 3.6576 4.5245 0
M  V30 16563 H 1575.2 5.66276 5.42496 0
M  V30 16564 N 1572.7 -1.51554 0.432352 0
M  V30 16565 C 1573.93 -2.06162 -0.134405 0
M  V30 16566 C 1574.34 -1.30027 -1.37439 0
M  V30 16567 O 1573.68 -0.351793 -1.803 0
M  V30 16568 C 1573.74 -3.55617 -0.526926 0
M  V30 16569 C 1573.41 -4.5297 0.605559 0
M  V30 16570 C 1574.4 -4.98502 1.47619 0
M  V30 16571 C 1572.09 -4.9613 0.784871 0
M  V30 16572 C 1574.08 -5.85861 2.51088 0
M  V30 16573 C 1571.77 -5.8328 1.82284 0
M  V30 16574 C 1572.77 -6.28043 2.68423 0
M  V30 16575 O 1572.45 -7.13464 3.70438 0
M  V30 16576 H 1572.19 -0.675863 -0.0135879 0
M  V30 16577 H 1574.74 -1.96172 0.608761 0
M  V30 16578 H 1572.97 -3.63374 -1.32272 0
M  V30 16579 H 1574.66 -3.92764 -1.02426 0
M  V30 16580 H 1575.43 -4.65857 1.34917 0
M  V30 16581 H 1571.3 -4.60833 0.123986 0
M  V30 16582 H 1574.85 -6.20722 3.18356 0
M  V30 16583 H 1570.75 -6.15339 1.95008 0
M  V30 16584 H 1571.51 -7.3163 3.6696 0
M  V30 16585 N 1574.18 -0.163538 -1.56749 0
M  V30 16586 C 1575.12 0.769787 -2.17584 0
M  V30 16587 C 1576.09 1.23246 -1.11354 0
M  V30 16588 O 1577.28 1.30203 -1.3947 0
M  V30 16589 C 1574.42 1.99685 -2.81461 0
M  V30 16590 C 1573.53 1.57846 -4.0213 0
M  V30 16591 C 1572.67 2.75858 -4.53955 0
M  V30 16592 C 1571.71 2.30473 -5.67053 0
M  V30 16593 N 1570.84 3.41551 -6.13423 0
M  V30 16594 H 1575.68 0.244221 -2.96998 0
M  V30 16595 H 1573.22 0.108821 -1.46697 0
M  V30 16596 H 1575.18 2.71643 -3.16648 0
M  V30 16597 H 1573.81 2.49624 -2.04664 0
M  V30 16598 H 1572.86 0.755907 -3.72814 0
M  V30 16599 H 1574.17 1.20525 -4.8402 0
M  V30 16600 H 1573.33 3.55984 -4.91284 0
M  V30 16601 H 1572.06 3.16434 -3.71107 0
M  V30 16602 H 1571.07 1.48791 -5.29284 0
M  V30 16603 H 1572.29 1.90964 -6.51698 0
M  V30 16604 H 1570.24 3.81717 -5.33506 0
M  V30 16605 H 1570.16 3.08298 -6.90281 0
M  V30 16606 H 1571.43 4.21985 -6.554 0
M  V30 16607 N 1575.65 1.57214 0.110213 0
M  V30 16608 C 1576.6 2.01971 1.1537 0
M  V30 16609 C 1577.6 0.918137 1.42361 0
M  V30 16610 O 1578.8 1.10334 1.4222 0
M  V30 16611 H 1575.18 0.64345 0.3892 0
M  V30 16612 H 1577.15 2.88827 0.749781 0
M  V30 16613 C 1575.9 2.4473 2.46987 0
M  V30 16614 H 1575.22 3.29066 2.27059 0
M  V30 16615 H 1576.66 2.79836 3.1854 0
M  V30 16616 C 1575.12 1.31445 3.10199 0
M  V30 16617 O 1575.65 0.635251 3.96645 0
M  V30 16618 N 1573.86 1.06927 2.70213 0
M  V30 16619 H 1573.4 1.62339 2.0001 0
M  V30 16620 H 1573.36 0.313273 3.12835 0
M  V30 16621 N 1577.13 -0.380637 1.52934 0
M  V30 16622 C 1578.38 -1.12261 1.68053 0
M  V30 16623 C 1578.7 -1.90263 0.427191 0
M  V30 16624 O 1577.97 -1.87768 -0.558559 0
M  V30 16625 H 1576.55 -0.41742 0.619491 0
M  V30 16626 H 1579.21 -0.430906 1.90077 0
M  V30 16627 H 1578.31 -1.82085 2.53479 0
M  V30 16628 N 1578.61 -1.44039 -0.639573 0
M  V30 16629 C 1579.56 -1.50254 -1.75192 0
M  V30 16630 C 1580.53 -0.350994 -1.62349 0
M  V30 16631 O 1581.71 -0.56006 -1.82395 0
M  V30 16632 C 1578.85 -1.44464 -3.13407 0
M  V30 16633 C 1577.97 -2.69929 -3.37287 0
M  V30 16634 C 1577.1 -2.56031 -4.65426 0
M  V30 16635 C 1576.14 -3.76699 -4.82456 0
M  V30 16636 N 1575.28 -3.61529 -6.01865 0
M  V30 16637 H 1580.12 -2.45296 -1.69216 0
M  V30 16638 H 1577.65 -1.21748 -0.825576 0
M  V30 16639 H 1579.61 -1.39099 -3.93328 0
M  V30 16640 H 1578.24 -0.529951 -3.1842 0
M  V30 16641 H 1577.29 -2.85516 -2.51366 0
M  V30 16642 H 1578.61 -3.59523 -3.45753 0
M  V30 16643 H 1577.76 -2.48451 -5.53495 0
M  V30 16644 H 1576.5 -1.63983 -4.59305 0
M  V30 16645 H 1575.5 -3.84672 -3.92819 0
M  V30 16646 H 1576.73 -4.69772 -4.90398 0
M  V30 16647 H 1574.67 -2.72226 -5.96849 0
M  V30 16648 H 1574.59 -4.44733 -6.1135 0
M  V30 16649 H 1575.86 -3.57826 -6.92518 0
M  V30 16650 N 1580.09 0.879207 -1.30796 0
M  V30 16651 C 1581.04 1.97297 -1.14272 0
M  V30 16652 C 1582.02 1.60802 -0.0562653 0
M  V30 16653 O 1583.21 1.74768 -0.280204 0
M  V30 16654 C 1580.34 3.32799 -0.842604 0
M  V30 16655 C 1579.43 3.7559 -1.96959 0
M  V30 16656 N 1579.82 3.90426 -3.21561 0
M  V30 16657 C 1578.12 4.05031 -1.86725 0
M  V30 16658 C 1578.82 4.2682 -3.9522 0
M  V30 16659 N 1577.8 4.36999 -3.23316 0
M  V30 16660 H 1581.6 2.06865 -2.08768 0
M  V30 16661 H 1579.11 1.0694 -1.2222 0
M  V30 16662 H 1581.11 4.10892 -0.705224 0
M  V30 16663 H 1579.77 3.24563 0.0942269 0
M  V30 16664 H 1580.78 3.75401 -3.56783 0
M  V30 16665 H 1577.46 4.05236 -1.00447 0
M  V30 16666 H 1578.85 4.45973 -5.02551 0
M  V30 16667 N 1581.57 1.13606 1.09231 0
M  V30 16668 C 1582.98 0.91148 1.62938 0
M  V30 16669 C 1583.33 -0.55157 1.88287 0
M  V30 16670 O 1582.45 -1.4187 1.63407 0
M  V30 16671 C 1583.05 1.64812 2.96011 0
M  V30 16672 C 1581.61 1.46935 3.46536 0
M  V30 16673 C 1580.76 1.67605 2.20916 0
M  V30 16674 H 1583.71 1.28907 0.925669 0
M  V30 16675 H 1583.73 1.10638 3.6406 0
M  V30 16676 H 1583.24 2.71291 2.77529 0
M  V30 16677 H 1581.34 0.427667 3.70138 0
M  V30 16678 H 1581.45 2.23374 4.2384 0
M  V30 16679 H 1579.82 1.10105 2.29672 0
M  V30 16680 H 1580.6 2.75408 2.04952 0
M  V30 16681 N 1583.05 -1.27244 0.929878 0
M  V30 16682 C 1583.96 -2.30506 0.436355 0
M  V30 16683 C 1584.97 -1.67131 -0.484054 0
M  V30 16684 O 1586.15 -1.9804 -0.366332 0
M  V30 16685 C 1583.21 -3.45391 -0.300942 0
M  V30 16686 C 1582.27 -4.24279 0.654647 0
M  V30 16687 C 1581.51 -5.33679 -0.047558 0
M  V30 16688 O 1581.73 -5.56161 -1.26654 0
M  V30 16689 O 1580.66 -5.98642 0.62538 0
M  V30 16690 H 1584.49 -2.74762 1.29382 0
M  V30 16691 H 1582.07 -1.32234 0.695311 0
M  V30 16692 H 1583.96 -4.1526 -0.716718 0
M  V30 16693 H 1582.63 -3.03187 -1.13398 0
M  V30 16694 H 1581.54 -3.56936 1.12015 0
M  V30 16695 H 1582.87 -4.70204 1.45497 0
M  V30 16696 N 1584.52 -0.695628 -1.41417 0
M  V30 16697 C 1585.47 -0.00717107 -2.27999 0
M  V30 16698 C 1586.46 0.752768 -1.42205 0
M  V30 16699 O 1587.65 0.628252 -1.65475 0
M  V30 16700 C 1584.78 0.928436 -3.30507 0
M  V30 16701 C 1583.86 0.164742 -4.2378 0
M  V30 16702 N 1584.26 -0.841489 -4.98751 0
M  V30 16703 C 1582.55 0.400213 -4.44201 0
M  V30 16704 C 1583.25 -1.29863 -5.67019 0
M  V30 16705 N 1582.23 -0.624547 -5.4 0
M  V30 16706 H 1586.03 -0.778669 -2.83397 0
M  V30 16707 H 1583.55 -0.526469 -1.5363 0
M  V30 16708 H 1585.54 1.4368 -3.91359 0
M  V30 16709 H 1584.2 1.69953 -2.7667 0
M  V30 16710 H 1585.21 -1.22173 -5.03283 0
M  V30 16711 H 1581.89 1.14919 -4.01373 0
M  V30 16712 H 1583.28 -2.13362 -6.37123 0
M  V30 16713 N 1586 1.51322 -0.440383 0
M  V30 16714 C 1586.96 2.26388 0.357911 0
M  V30 16715 C 1587.96 1.2995 0.947083 0
M  V30 16716 O 1589.15 1.53637 0.821057 0
M  V30 16717 C 1586.29 3.05797 1.50669 0
M  V30 16718 H 1587.48 2.98396 -0.300002 0
M  V30 16719 H 1585.03 1.55096 -0.193628 0
M  V30 16720 H 1585.77 2.38213 2.20057 0
M  V30 16721 H 1585.55 3.76634 1.09037 0
M  V30 16722 H 1587.04 3.6265 2.07062 0
M  V30 16723 N 1587.48 0.171848 1.5666 0
M  V30 16724 C 1588.73 -0.472968 1.96899 0
M  V30 16725 C 1589.05 -1.63217 1.05785 0
M  V30 16726 O 1588.31 -1.95483 0.0920511 0
M  V30 16727 C 1588.61 -0.99711 3.43209 0
M  V30 16728 C 1588.27 0.0462519 4.50876 0
M  V30 16729 C 1586.94 0.333002 4.80046 0
M  V30 16730 C 1589.29 0.754424 5.15711 0
M  V30 16731 C 1586.62 1.3333 5.71349 0
M  V30 16732 C 1588.97 1.74371 6.08093 0
M  V30 16733 C 1587.63 2.03791 6.3563 0
M  V30 16734 H 1586.9 -0.173071 0.720505 0
M  V30 16735 H 1589.55 0.263921 1.89673 0
M  V30 16736 H 1587.85 -1.81183 3.4739 0
M  V30 16737 H 1589.55 -1.50503 3.71685 0
M  V30 16738 H 1586.14 -0.187419 4.2819 0
M  V30 16739 H 1590.33 0.546102 4.93286 0
M  V30 16740 H 1585.58 1.56741 5.90967 0
M  V30 16741 H 1589.76 2.29782 6.57399 0
M  V30 16742 H 1587.38 2.8145 7.0618 0
M  V30 16743 N 1588.96 -1.5727 -0.101874 0
M  V30 16744 C 1590.19 -1.89667 -0.81914 0
M  V30 16745 C 1590.6 -0.763027 -1.73132 0
M  V30 16746 O 1589.94 0.274317 -1.8164 0
M  V30 16747 C 1590 -3.17252 -1.6909 0
M  V30 16748 C 1589.66 -4.4699 -0.951257 0
M  V30 16749 C 1590.66 -5.19123 -0.28417 0
M  V30 16750 C 1588.35 -4.93665 -0.927349 0
M  V30 16751 C 1590.34 -6.36163 0.396934 0
M  V30 16752 C 1588.03 -6.10619 -0.242456 0
M  V30 16753 C 1589.03 -6.81717 0.418514 0
M  V30 16754 O 1588.71 -7.96443 1.09244 0
M  V30 16755 H 1588.45 -0.632024 -0.239836 0
M  V30 16756 H 1591 -2.05222 -0.0855979 0
M  V30 16757 H 1589.23 -2.97825 -2.46651 0
M  V30 16758 H 1590.92 -3.35533 -2.28413 0
M  V30 16759 H 1591.68 -4.84107 -0.294146 0
M  V30 16760 H 1587.56 -4.38219 -1.43126 0
M  V30 16761 H 1591.11 -6.91594 0.913417 0
M  V30 16762 H 1587 -6.45089 -0.230303 0
M  V30 16763 H 1587.77 -8.12385 0.998647 0
M  V30 16764 N 1590.44 0.372521 -1.53134 0
M  V30 16765 C 1591.35 1.47994 -1.8203 0
M  V30 16766 C 1592.36 1.58937 -0.708179 0
M  V30 16767 O 1593.54 1.74962 -0.997511 0
M  V30 16768 C 1590.6 2.83342 -1.99796 0
M  V30 16769 C 1589.66 2.81984 -3.23702 0
M  V30 16770 C 1588.9 4.10877 -3.40611 0
M  V30 16771 O 1589.12 5.06686 -2.61964 0
M  V30 16772 O 1588.05 4.17111 -4.33938 0
M  V30 16773 H 1591.88 1.26501 -2.761 0
M  V30 16774 H 1589.46 0.561957 -1.38428 0
M  V30 16775 H 1591.35 3.63551 -2.13092 0
M  V30 16776 H 1590.02 3.04826 -1.08916 0
M  V30 16777 H 1588.93 2.00498 -3.15834 0
M  V30 16778 H 1590.26 2.65453 -4.14482 0
M  V30 16779 N 1591.91 1.44376 0.631925 0
M  V30 16780 C 1593.16 1.47117 1.3915 0
M  V30 16781 C 1593.49 0.10347 1.94225 0
M  V30 16782 O 1592.74 -0.894623 1.74055 0
M  V30 16783 C 1593.04 2.47828 2.57519 0
M  V30 16784 C 1592.71 3.93174 2.20738 0
M  V30 16785 C 1591.37 4.32755 2.1042 0
M  V30 16786 C 1593.72 4.8468 1.91664 0
M  V30 16787 C 1591.05 5.61768 1.69214 0
M  V30 16788 C 1593.4 6.14079 1.51951 0
M  V30 16789 C 1592.07 6.52616 1.40174 0
M  V30 16790 H 1591.34 0.538341 0.509186 0
M  V30 16791 H 1593.98 1.77584 0.716663 0
M  V30 16792 H 1592.29 2.10841 3.30232 0
M  V30 16793 H 1593.99 2.47196 3.15746 0
M  V30 16794 H 1590.58 3.61859 2.29687 0
M  V30 16795 H 1594.76 4.54855 1.98546 0
M  V30 16796 H 1590.02 5.90444 1.58699 0
M  V30 16797 H 1594.19 6.84443 1.28493 0
M  V30 16798 H 1591.82 7.52487 1.08017 0
M  V30 16799 N 1593.39 -0.872258 1.31261 0
M  V30 16800 C 1594.62 -1.65795 1.23772 0
M  V30 16801 C 1595.03 -1.87766 -0.197351 0
M  V30 16802 O 1594.39 -1.43418 -1.1286 0
M  V30 16803 C 1594.44 -3.02722 1.9759 0
M  V30 16804 O 1594.16 -2.81734 3.35496 0
M  V30 16805 C 1595.66 -3.97165 1.96913 0
M  V30 16806 H 1592.88 -0.516959 0.427778 0
M  V30 16807 H 1595.43 -1.0889 1.73099 0
M  V30 16808 H 1593.58 -3.56322 1.5203 0
M  V30 16809 H 1594 -3.6869 3.73052 0
M  V30 16810 H 1595.47 -4.90566 2.53079 0
M  V30 16811 H 1595.95 -4.28778 0.951089 0
M  V30 16812 H 1596.55 -3.495 2.42342 0
M  V30 16813 N 1594.87 -1.14184 -1.08627 0
M  V30 16814 C 1596.12 -0.908664 -1.80968 0
M  V30 16815 C 1596.44 0.564864 -1.86117 0
M  V30 16816 O 1595.7 1.4344 -1.33129 0
M  V30 16817 C 1596 -1.4519 -3.2658 0
M  V30 16818 C 1595.66 -2.94368 -3.41552 0
M  V30 16819 C 1594.33 -3.35096 -3.45346 0
M  V30 16820 C 1596.68 -3.90304 -3.45416 0
M  V30 16821 C 1594.01 -4.70428 -3.50591 0
M  V30 16822 C 1596.36 -5.25491 -3.52196 0
M  V30 16823 C 1595.02 -5.65734 -3.54262 0
M  V30 16824 H 1594.29 -0.332504 -0.66221 0
M  V30 16825 H 1596.94 -1.42514 -1.27914 0
M  V30 16826 H 1595.24 -0.856308 -3.82328 0
M  V30 16827 H 1596.94 -1.24746 -3.81103 0
M  V30 16828 H 1593.53 -2.61879 -3.3929 0
M  V30 16829 H 1597.72 -3.59921 -3.41718 0
M  V30 16830 H 1592.97 -5.00971 -3.50482 0
M  V30 16831 H 1597.15 -5.99637 -3.54131 0
M  V30 16832 H 1594.77 -6.70585 -3.58079 0
M  V30 16833 N 1596.35 1.26749 -0.936613 0
M  V30 16834 C 1597.76 1.46284 -0.638218 0
M  V30 16835 C 1597.96 1.84509 0.80986 0
M  V30 16836 O 1597.02 1.96399 1.58693 0
M  V30 16837 C 1598.33 2.54867 -1.59573 0
M  V30 16838 C 1599.88 2.68721 -1.60493 0
M  V30 16839 C 1600.36 3.80471 -2.54963 0
M  V30 16840 N 1601.85 3.87857 -2.53221 0
M  V30 16841 C 1602.58 4.73767 -3.23005 0
M  V30 16842 N 1602.08 5.641 -4.02198 0
M  V30 16843 N 1603.87 4.67574 -3.11979 0
M  V30 16844 H 1596.02 1.00224 -1.87267 0
M  V30 16845 H 1598.29 0.501478 -0.804502 0
M  V30 16846 H 1597.99 2.33594 -2.62919 0
M  V30 16847 H 1597.87 3.52433 -1.34427 0
M  V30 16848 H 1600.25 2.8937 -0.578729 0
M  V30 16849 H 1600.33 1.71613 -1.89691 0
M  V30 16850 H 1599.98 3.60575 -3.57698 0
M  V30 16851 H 1599.91 4.77026 -2.23056 0
M  V30 16852 H 1602.4 3.23272 -1.95714 0
M  V30 16853 H 1602.71 6.26535 -4.52409 0
M  V30 16854 H 1601.06 5.63866 -4.063 0
M  V30 16855 H 1604.25 3.96004 -2.49596 0
M  V30 16856 H 1604.42 5.34308 -3.66633 0
M  V30 16857 N 1597.83 0.703118 1.41046 0
M  V30 16858 C 1599.24 0.375417 1.55122 0
M  V30 16859 C 1599.44 -1.11696 1.67709 0
M  V30 16860 O 1598.5 -1.90289 1.65971 0
M  V30 16861 C 1599.81 1.13056 2.78638 0
M  V30 16862 C 1601.36 1.11564 2.92442 0
M  V30 16863 C 1601.83 1.85268 4.18855 0
M  V30 16864 N 1603.33 1.82275 4.25829 0
M  V30 16865 C 1604.06 2.36137 5.2252 0
M  V30 16866 N 1603.56 2.98502 6.25195 0
M  V30 16867 N 1605.35 2.26349 5.14512 0
M  V30 16868 H 1597.5 1.67096 1.31121 0
M  V30 16869 H 1599.76 0.705573 0.633144 0
M  V30 16870 H 1599.47 2.18524 2.75572 0
M  V30 16871 H 1599.34 0.714037 3.7038 0
M  V30 16872 H 1601.73 0.0691901 2.95019 0
M  V30 16873 H 1601.81 1.57128 2.01853 0
M  V30 16874 H 1601.46 2.89896 4.1704 0
M  V30 16875 H 1601.39 1.37133 5.08431 0
M  V30 16876 H 1603.88 1.36812 3.52265 0
M  V30 16877 H 1604.19 3.37149 6.95378 0
M  V30 16878 H 1602.53 3.02582 6.25675 0
M  V30 16879 H 1605.73 1.77294 4.33226 0
M  V30 16880 H 1605.9 2.68629 5.89697 0
M  V30 16881 N 1599.3 -1.51086 0.448402 0
M  V30 16882 C 1600.55 -2.02177 -0.114342 0
M  V30 16883 C 1600.88 -1.3319 -1.41742 0
M  V30 16884 O 1600.13 -0.439101 -1.9071 0
M  V30 16885 C 1600.43 -3.55488 -0.369232 0
M  V30 16886 C 1600.1 -4.42828 0.849372 0
M  V30 16887 C 1598.76 -4.66418 1.18354 0
M  V30 16888 C 1601.11 -4.93998 1.66179 0
M  V30 16889 C 1598.44 -5.38424 2.33059 0
M  V30 16890 C 1600.79 -5.67262 2.79994 0
M  V30 16891 C 1599.46 -5.89113 3.13851 0
M  V30 16892 H 1598.73 -0.739818 -0.0418407 0
M  V30 16893 H 1601.37 -1.81928 0.597857 0
M  V30 16894 H 1599.68 -3.74127 -1.16344 0
M  V30 16895 H 1601.38 -3.92563 -0.818248 0
M  V30 16896 H 1597.97 -4.24671 0.578998 0
M  V30 16897 H 1602.15 -4.75647 1.41683 0
M  V30 16898 H 1597.41 -5.53554 2.59592 0
M  V30 16899 H 1601.58 -6.05899 3.43307 0
M  V30 16900 H 1599.21 -6.44686 4.02844 0
M  V30 16901 N 1600.78 -0.180154 -1.56567 0
M  V30 16902 C 1602.03 0.46252 -1.97147 0
M  V30 16903 C 1602.36 1.62654 -1.06649 0
M  V30 16904 O 1601.61 1.95432 -0.102417 0
M  V30 16905 C 1601.91 0.978895 -3.43733 0
M  V30 16906 C 1601.58 -0.0701623 -4.50845 0
M  V30 16907 C 1600.24 -0.358456 -4.79863 0
M  V30 16908 C 1602.59 -0.781763 -5.15304 0
M  V30 16909 C 1599.92 -1.36359 -5.70634 0
M  V30 16910 C 1602.27 -1.77594 -6.0716 0
M  V30 16911 C 1600.94 -2.07159 -6.3454 0
M  V30 16912 H 1600.21 0.169248 -0.721413 0
M  V30 16913 H 1602.85 -0.273976 -1.8953 0
M  V30 16914 H 1601.16 1.79338 -3.48346 0
M  V30 16915 H 1602.85 1.4853 -3.72478 0
M  V30 16916 H 1599.44 0.164708 -4.28283 0
M  V30 16917 H 1603.63 -0.572254 -4.9299 0
M  V30 16918 H 1598.88 -1.59872 -5.90128 0
M  V30 16919 H 1603.06 -2.33265 -6.56171 0
M  V30 16920 H 1600.69 -2.85191 -7.04677 0
M  V30 16921 N 1602.26 1.57322 0.0935319 0
M  V30 16922 C 1603.54 1.77187 0.828503 0
M  V30 16923 C 1603.92 0.762216 1.96859 0
M  V30 16924 O 1603.27 -0.208982 2.27542 0
M  V30 16925 C 1603.48 3.23007 1.32163 0
M  V30 16926 C 1604.82 3.86233 1.76379 0
M  V30 16927 O 1605.85 3.26766 1.41783 0
M  V30 16928 O 1604.71 4.90808 2.40354 0
M  V30 16929 H 1601.8 0.726401 0.395311 0
M  V30 16930 H 1604.35 1.69533 0.0752924 0
M  V30 16931 H 1603.12 3.88029 0.504863 0
M  V30 16932 H 1602.74 3.353 2.13681 0
M  V30 16933 N 1603.74 -0.364395 1.53329 0
M  V30 16934 C 1605.02 -1.12265 1.60174 0
M  V30 16935 C 1605.4 -2.0708 0.410015 0
M  V30 16936 O 1604.74 -2.20492 -0.599631 0
M  V30 16937 C 1604.95 -1.86071 2.9526 0
M  V30 16938 C 1606.3 -2.40562 3.49879 0
M  V30 16939 O 1607.33 -1.96196 2.97297 0
M  V30 16940 O 1606.18 -3.2167 4.41804 0
M  V30 16941 H 1603.28 -0.515062 0.647024 0
M  V30 16942 H 1605.82 -0.367563 1.65672 0
M  V30 16943 H 1604.6 -1.1688 3.73436 0
M  V30 16944 H 1604.22 -2.68486 2.93259 0
M  V30 16945 N 1605.22 -1.44709 -0.62426 0
M  V30 16946 C 1606.16 -1.52413 -1.75707 0
M  V30 16947 C 1607.16 -0.395303 -1.64723 0
M  V30 16948 O 1608.36 -0.570535 -1.70719 0
M  V30 16949 H 1604.74 -0.478401 -0.580204 0
M  V30 16950 H 1606.71 -2.47742 -1.66333 0
M  V30 16951 C 1605.46 -1.49208 -3.14058 0
M  V30 16952 H 1604.78 -2.35387 -3.23161 0
M  V30 16953 H 1606.22 -1.58658 -3.93197 0
M  V30 16954 C 1604.68 -0.213877 -3.3622 0
M  V30 16955 O 1605.21 0.713128 -3.95319 0
M  V30 16956 N 1603.42 -0.114834 -2.90373 0
M  V30 16957 H 1602.96 -0.870047 -2.42462 0
M  V30 16958 H 1602.92 0.739619 -3.05576 0
M  V30 16959 N 1606.69 0.865285 -1.31722 0
M  V30 16960 C 1607.94 1.61549 -1.21435 0
M  V30 16961 C 1608.26 1.9368 0.226501 0
M  V30 16962 O 1607.53 1.58705 1.14846 0
M  V30 16963 H 1606.11 0.598905 -0.446454 0
M  V30 16964 H 1608.78 1.03563 -1.65108 0
M  V30 16965 H 1607.87 2.55708 -1.78941 0
M  V30 16966 N 1608.17 1.14759 1.0802 0
M  V30 16967 C 1609.4 0.940521 1.8395 0
M  V30 16968 C 1609.81 -0.514424 1.82072 0
M  V30 16969 O 1609.15 -1.36835 1.22564 0
M  V30 16970 C 1609.22 1.3689 3.32417 0
M  V30 16971 C 1608.88 2.84019 3.58025 0
M  V30 16972 C 1609.88 3.82117 3.52538 0
M  V30 16973 C 1607.56 3.21526 3.85909 0
M  V30 16974 C 1609.56 5.15728 3.74571 0
M  V30 16975 C 1607.24 4.55312 4.07596 0
M  V30 16976 C 1608.24 5.52222 4.01921 0
M  V30 16977 O 1607.93 6.83592 4.23034 0
M  V30 16978 H 1607.66 0.334505 0.587437 0
M  V30 16979 H 1610.21 1.52763 1.37305 0
M  V30 16980 H 1608.44 0.725149 3.7984 0
M  V30 16981 H 1610.13 1.13202 3.89795 0
M  V30 16982 H 1610.9 3.54486 3.31005 0
M  V30 16983 H 1606.78 2.46686 3.89444 0
M  V30 16984 H 1610.32 5.91357 3.70057 0
M  V30 16985 H 1606.22 4.82661 4.28613 0
M  V30 16986 H 1606.99 6.89909 4.40418 0
M  V30 16987 N 1609.65 -1.26251 0.943322 0
M  V30 16988 C 1611.06 -1.75591 0.634391 0
M  V30 16989 C 1611.41 -1.76812 -0.850406 0
M  V30 16990 O 1610.54 -1.38162 -1.66554 0
M  V30 16991 C 1611.13 -3.18871 1.14484 0
M  V30 16992 C 1609.69 -3.65817 0.886285 0
M  V30 16993 C 1608.84 -2.4523 1.2945 0
M  V30 16994 H 1611.79 -1.12297 1.12139 0
M  V30 16995 H 1611.81 -3.77205 0.499654 0
M  V30 16996 H 1611.32 -3.17951 2.22551 0
M  V30 16997 H 1609.42 -3.72165 -0.179913 0
M  V30 16998 H 1609.54 -4.54523 1.5148 0
M  V30 16999 H 1607.9 -2.44519 0.712919 0
M  V30 17000 H 1608.68 -2.47009 2.38415 0
M  V30 17001 N 1611.13 -0.710588 -1.40671 0
M  V30 17002 C 1612.36 -0.257069 -2.04994 0
M  V30 17003 C 1612.77 1.10431 -1.53628 0
M  V30 17004 O 1612.11 1.70422 -0.685726 0
M  V30 17005 C 1612.17 -0.153646 -3.59172 0
M  V30 17006 C 1611.84 -1.4495 -4.33403 0
M  V30 17007 C 1612.83 -2.39042 -4.61687 0
M  V30 17008 C 1610.52 -1.70704 -4.72404 0
M  V30 17009 C 1612.51 -3.57137 -5.27951 0
M  V30 17010 C 1610.2 -2.89082 -5.384 0
M  V30 17011 C 1611.2 -3.82121 -5.66103 0
M  V30 17012 O 1610.89 -4.98424 -6.30737 0
M  V30 17013 H 1610.62 -0.114202 -0.666284 0
M  V30 17014 H 1613.17 -0.968028 -1.81158 0
M  V30 17015 H 1611.4 0.613213 -3.81807 0
M  V30 17016 H 1613.09 0.264655 -4.05036 0
M  V30 17017 H 1613.86 -2.20407 -4.32025 0
M  V30 17018 H 1609.74 -0.99142 -4.50213 0
M  V30 17019 H 1613.28 -4.29775 -5.4949 0
M  V30 17020 H 1609.18 -3.07627 -5.67482 0
M  V30 17021 H 1609.94 -4.98436 -6.49233 0
M  V30 17022 N 1612.61 1.50847 -0.456408 0
M  V30 17023 C 1613.56 2.29805 0.359529 0
M  V30 17024 C 1614.55 1.3646 1.00374 0
M  V30 17025 O 1615.76 1.53718 0.936524 0
M  V30 17026 H 1612.13 0.739825 0.134772 0
M  V30 17027 H 1614.1 2.96603 -0.327009 0
M  V30 17028 C 1612.85 3.16597 1.43741 0
M  V30 17029 H 1612.17 3.88323 0.95108 0
M  V30 17030 H 1613.61 3.74866 1.98119 0
M  V30 17031 C 1612.07 2.3322 2.43126 0
M  V30 17032 O 1612.6 2.00504 3.48082 0
M  V30 17033 N 1610.81 1.96078 2.1448 0
M  V30 17034 H 1610.36 2.22883 1.29155 0
M  V30 17035 H 1610.31 1.40592 2.81214 0
M  V30 17036 N 1614.09 0.188454 1.56469 0
M  V30 17037 C 1615.32 -0.457182 2.01478 0
M  V30 17038 C 1615.72 -1.5619 1.06777 0
M  V30 17039 O 1615.07 -1.8359 0.063659 0
M  V30 17040 C 1615.13 -1.08002 3.42893 0
M  V30 17041 C 1614.79 -0.114858 4.56856 0
M  V30 17042 C 1615.79 0.673269 5.15522 0
M  V30 17043 C 1613.47 -0.00570411 5.023 0
M  V30 17044 C 1615.47 1.55758 6.18076 0
M  V30 17045 C 1613.16 0.882173 6.04699 0
M  V30 17046 C 1614.15 1.66239 6.6246 0
M  V30 17047 O 1613.84 2.5354 7.62871 0
M  V30 17048 H 1613.57 -0.119784 0.665303 0
M  V30 17049 H 1616.13 0.292446 2.03307 0
M  V30 17050 H 1614.36 -1.87811 3.3803 0
M  V30 17051 H 1616.05 -1.62962 3.7175 0
M  V30 17052 H 1616.81 0.599207 4.81284 0
M  V30 17053 H 1612.69 -0.602804 4.57042 0
M  V30 17054 H 1616.24 2.16701 6.63088 0
M  V30 17055 H 1612.13 0.957375 6.38361 0
M  V30 17056 H 1612.9 2.47245 7.80264 0
M  V30 17057 N 1615.56 -1.5737 -0.0851874 0
M  V30 17058 C 1616.97 -1.7544 -0.638575 0
M  V30 17059 C 1617.33 -0.812041 -1.78607 0
M  V30 17060 O 1616.45 0.00710428 -2.16399 0
M  V30 17061 C 1617.05 -3.18134 -1.16517 0
M  V30 17062 C 1615.6 -3.37594 -1.66454 0
M  V30 17063 C 1614.75 -2.71203 -0.578274 0
M  V30 17064 H 1617.7 -1.58073 0.140931 0
M  V30 17065 H 1617.72 -3.21553 -2.0343 0
M  V30 17066 H 1617.24 -3.86696 -0.329794 0
M  V30 17067 H 1615.34 -2.74126 -2.5236 0
M  V30 17068 H 1615.45 -4.45968 -1.75071 0
M  V30 17069 H 1613.81 -2.33379 -1.02011 0
M  V30 17070 H 1614.6 -3.42413 0.246691 0
M  V30 17071 N 1617.04 0.356258 -1.53521 0
M  V30 17072 C 1617.99 1.43689 -1.80616 0
M  V30 17073 C 1618.96 1.52808 -0.651064 0
M  V30 17074 O 1620.14 1.68549 -0.894203 0
M  V30 17075 C 1617.28 2.80513 -2.01013 0
M  V30 17076 C 1616.4 2.80287 -3.2873 0
M  V30 17077 C 1615.53 4.08747 -3.39263 0
M  V30 17078 C 1614.57 4.02699 -4.60977 0
M  V30 17079 N 1613.71 5.22825 -4.68614 0
M  V30 17080 H 1618.55 1.19884 -2.72822 0
M  V30 17081 H 1616.08 0.580984 -1.35141 0
M  V30 17082 H 1618.04 3.60011 -2.10827 0
M  V30 17083 H 1616.67 3.02698 -1.12134 0
M  V30 17084 H 1615.72 1.92968 -3.27822 0
M  V30 17085 H 1617.04 2.71693 -4.18311 0
M  V30 17086 H 1616.19 4.96663 -3.4844 0
M  V30 17087 H 1614.93 4.20106 -2.47715 0
M  V30 17088 H 1613.93 3.13168 -4.51892 0
M  V30 17089 H 1615.16 3.92934 -5.53877 0
M  V30 17090 H 1613.11 5.34752 -3.79969 0
M  V30 17091 H 1613.02 5.16437 -5.52113 0
M  V30 17092 H 1614.29 6.12548 -4.82085 0
M  V30 17093 N 1618.52 1.45038 0.616577 0
M  V30 17094 C 1619.93 1.4316 1.19842 0
M  V30 17095 C 1620.28 0.154504 1.95591 0
M  V30 17096 O 1619.41 -0.744409 2.03193 0
M  V30 17097 C 1620 2.59354 2.17993 0
M  V30 17098 C 1618.56 2.60625 2.71573 0
M  V30 17099 C 1617.71 2.35243 1.4682 0
M  V30 17100 H 1620.66 1.53408 0.406402 0
M  V30 17101 H 1620.68 2.32939 3.00865 0
M  V30 17102 H 1620.19 3.52288 1.62833 0
M  V30 17103 H 1618.29 1.71672 3.30695 0
M  V30 17104 H 1618.41 3.59568 3.16619 0
M  V30 17105 H 1616.77 1.84622 1.75462 0
M  V30 17106 H 1617.55 3.3031 0.935414 0
M  V30 17107 N 1620 -0.858287 1.32179 0
M  V30 17108 C 1621.25 -1.60706 1.21887 0
M  V30 17109 C 1621.56 -1.94372 -0.218836 0
M  V30 17110 O 1622.77 -2.67852 -0.443572 0
M  V30 17111 C 1621.22 -2.8977 2.13452 0
M  V30 17112 C 1620.83 -2.63542 3.62284 0
M  V30 17113 C 1622.57 -3.67779 2.11988 0
M  V30 17114 C 1620.48 -3.88584 4.45821 0
M  V30 17115 H 1619.41 -0.603026 0.452632 0
M  V30 17116 H 1622.06 -0.948016 1.57114 0
M  V30 17117 H 1620.44 -3.57112 1.71135 0
M  V30 17118 H 1621.62 -2.04534 4.12919 0
M  V30 17119 H 1619.93 -1.98869 3.65842 0
M  V30 17120 H 1622.53 -4.60561 2.71639 0
M  V30 17121 H 1622.87 -4.0123 1.10995 0
M  V30 17122 H 1623.41 -3.07336 2.52565 0
M  V30 17123 H 1620.14 -3.60276 5.47614 0
M  V30 17124 H 1619.66 -4.47001 3.99937 0
M  V30 17125 H 1621.34 -4.56358 4.58635 0
M  V30 17126 N 1621.48 -1.1533 -1.07409 0
M  V30 17127 C 1622.39 -0.863514 -2.1813 0
M  V30 17128 C 1623.4 0.159954 -1.73263 0
M  V30 17129 O 1624.58 -0.0139818 -2.01395 0
M  V30 17130 C 1621.64 -0.356271 -3.44865 0
M  V30 17131 C 1620.7 -1.44356 -4.04302 0
M  V30 17132 C 1619.94 -0.960429 -5.24987 0
M  V30 17133 O 1620.16 0.194227 -5.70069 0
M  V30 17134 O 1619.09 -1.74387 -5.76084 0
M  V30 17135 H 1622.92 -1.78909 -2.45408 0
M  V30 17136 H 1620.5 -0.932362 -1.16736 0
M  V30 17137 H 1622.39 -0.0798183 -4.21324 0
M  V30 17138 H 1621.06 0.541445 -3.1914 0
M  V30 17139 H 1619.97 -1.77361 -3.29384 0
M  V30 17140 H 1621.3 -2.31617 -4.34298 0
M  V30 17141 N 1622.95 1.25748 -0.950004 0
M  V30 17142 C 1624.18 1.97127 -0.618432 0
M  V30 17143 C 1624.59 1.70855 0.81272 0
M  V30 17144 O 1623.93 0.978581 1.55465 0
M  V30 17145 C 1624 3.50678 -0.791546 0
M  V30 17146 C 1623.66 4.00617 -2.19899 0
M  V30 17147 C 1624.66 4.11672 -3.17525 0
M  V30 17148 C 1622.34 4.34401 -2.52193 0
M  V30 17149 C 1624.34 4.55818 -4.45543 0
M  V30 17150 C 1622.02 4.78234 -3.80441 0
M  V30 17151 C 1623.02 4.88905 -4.76929 0
M  V30 17152 O 1622.71 5.31768 -6.02891 0
M  V30 17153 H 1622.44 0.635248 -0.231163 0
M  V30 17154 H 1625 1.60997 -1.2755 0
M  V30 17155 H 1623.23 3.86623 -0.0773298 0
M  V30 17156 H 1624.91 4.03265 -0.461719 0
M  V30 17157 H 1625.68 3.85807 -2.93901 0
M  V30 17158 H 1621.56 4.25324 -1.77821 0
M  V30 17159 H 1625.1 4.64062 -5.20857 0
M  V30 17160 H 1621 5.03543 -4.03874 0
M  V30 17161 H 1621.77 5.49966 -6.06201 0
M  V30 17162 N 1624.43 0.718038 1.40292 0
M  V30 17163 C 1625.34 0.0681535 2.34501 0
M  V30 17164 C 1626.36 -0.741048 1.57431 0
M  V30 17165 O 1627.53 -0.673437 1.89807 0
M  V30 17166 C 1624.6 -0.840758 3.36351 0
M  V30 17167 C 1623.66 -0.0212287 4.29295 0
M  V30 17168 C 1622.89 -0.886852 5.2628 0
M  V30 17169 O 1623.12 -2.12603 5.29298 0
M  V30 17170 O 1622.05 -0.324537 6.01024 0
M  V30 17171 H 1625.88 0.845288 2.91699 0
M  V30 17172 H 1623.46 0.478541 1.41529 0
M  V30 17173 H 1625.34 -1.36131 3.98806 0
M  V30 17174 H 1624.02 -1.597 2.81563 0
M  V30 17175 H 1622.92 0.544451 3.70117 0
M  V30 17176 H 1624.26 0.696846 4.87242 0
M  V30 17177 N 1625.91 -1.50602 0.464402 0
M  V30 17178 C 1627.14 -2.06401 -0.0906449 0
M  V30 17179 C 1627.55 -1.32913 -1.3465 0
M  V30 17180 O 1626.89 -0.389959 -1.79513 0
M  V30 17181 C 1626.95 -3.56655 -0.451375 0
M  V30 17182 C 1626.62 -4.51584 0.701504 0
M  V30 17183 C 1627.61 -4.95259 1.5816 0
M  V30 17184 C 1625.3 -4.94354 0.88993 0
M  V30 17185 C 1627.29 -5.80404 2.63458 0
M  V30 17186 C 1624.98 -5.79283 1.94615 0
M  V30 17187 C 1625.98 -6.22208 2.81684 0
M  V30 17188 O 1625.67 -7.05446 3.85489 0
M  V30 17189 H 1625.4 -0.676 0.000751268 0
M  V30 17190 H 1627.95 -1.94836 0.650235 0
M  V30 17191 H 1626.18 -3.66098 -1.24535 0
M  V30 17192 H 1627.87 -3.94848 -0.940722 0
M  V30 17193 H 1628.64 -4.6289 1.44768 0
M  V30 17194 H 1624.52 -4.60467 0.221708 0
M  V30 17195 H 1628.06 -6.13829 3.3145 0
M  V30 17196 H 1623.96 -6.11064 2.08016 0
M  V30 17197 H 1624.73 -7.23682 3.82396 0
M  V30 17198 N 1627.39 -0.19675 -1.56367 0
M  V30 17199 C 1628.64 0.441807 -1.96802 0
M  V30 17200 C 1628.95 1.62645 -1.08656 0
M  V30 17201 O 1630.16 2.33291 -1.3888 0
M  V30 17202 C 1628.61 0.837415 -3.50022 0
M  V30 17203 C 1628.22 -0.323031 -4.46834 0
M  V30 17204 C 1629.96 1.44296 -3.99223 0
M  V30 17205 C 1627.87 0.0936285 -5.91326 0
M  V30 17206 H 1626.8 0.168834 -0.734854 0
M  V30 17207 H 1629.45 -0.289029 -1.81209 0
M  V30 17208 H 1627.83 1.62497 -3.61124 0
M  V30 17209 H 1629.01 -1.10056 -4.47464 0
M  V30 17210 H 1627.32 -0.840182 -4.07836 0
M  V30 17211 H 1629.92 1.76718 -5.04653 0
M  V30 17212 H 1630.26 2.35003 -3.43627 0
M  V30 17213 H 1630.8 0.71935 -3.91242 0
M  V30 17214 H 1627.54 -0.779297 -6.50851 0
M  V30 17215 H 1627.06 0.835984 -5.93946 0
M  V30 17216 H 1628.73 0.528864 -6.44835 0
M  V30 17217 N 1628.87 1.57413 0.0768405 0
M  V30 17218 C 1629.81 2.04373 1.1106 0
M  V30 17219 C 1630.81 0.948127 1.40381 0
M  V30 17220 O 1632.01 1.13325 1.39848 0
M  V30 17221 H 1628.39 0.65156 0.375464 0
M  V30 17222 H 1630.36 2.90352 0.688348 0
M  V30 17223 C 1629.11 2.49914 2.41741 0
M  V30 17224 H 1628.43 3.33808 2.20027 0
M  V30 17225 H 1629.87 2.8653 3.12532 0
M  V30 17226 C 1628.33 1.37996 3.07341 0
M  V30 17227 O 1628.86 0.719242 3.95209 0
M  V30 17228 N 1627.07 1.12635 2.67884 0
M  V30 17229 H 1626.61 1.66545 1.96521 0
M  V30 17230 H 1626.57 0.37956 3.121 0
M  V30 17231 N 1630.34 -0.348112 1.53707 0
M  V30 17232 C 1631.57 -1.11346 1.74976 0
M  V30 17233 C 1631.99 -1.81726 0.485525 0
M  V30 17234 O 1631.35 -1.72384 -0.561565 0
M  V30 17235 C 1631.4 -2.10611 2.92703 0
M  V30 17236 O 1630.5 -3.18042 2.62532 0
M  V30 17237 H 1629.85 -0.322247 0.580563 0
M  V30 17238 H 1632.38 -0.399898 2.00654 0
M  V30 17239 H 1632.39 -2.53912 3.19363 0
M  V30 17240 H 1631.06 -1.58782 3.84397 0
M  V30 17241 H 1629.64 -2.79591 2.46746 0
M  V30 17242 N 1631.82 -1.45363 -0.608876 0
M  V30 17243 C 1632.75 -1.49944 -1.73348 0
M  V30 17244 C 1633.77 -0.390352 -1.58051 0
M  V30 17245 O 1634.96 -0.657338 -1.65956 0
M  V30 17246 C 1632.06 -1.33886 -3.11332 0
M  V30 17247 C 1631.23 -2.58445 -3.52881 0
M  V30 17248 C 1630.29 -2.36963 -4.69825 0
M  V30 17249 O 1629.31 -3.10569 -4.77007 0
M  V30 17250 N 1630.52 -1.41442 -5.63005 0
M  V30 17251 H 1633.28 -2.46902 -1.69882 0
M  V30 17252 H 1630.84 -1.41086 -0.794119 0
M  V30 17253 H 1632.83 -1.17327 -3.8732 0
M  V30 17254 H 1631.4 -0.452095 -3.09314 0
M  V30 17255 H 1630.62 -2.90129 -2.66869 0
M  V30 17256 H 1631.91 -3.41245 -3.77398 0
M  V30 17257 H 1631.31 -0.806941 -5.59915 0
M  V30 17258 H 1629.87 -1.30855 -6.3853 0
M  V30 17259 N 1633.3 0.851265 -1.32632 0
M  V30 17260 C 1634.55 1.60252 -1.23141 0
M  V30 17261 C 1634.87 1.93909 0.205946 0
M  V30 17262 O 1634.14 1.59914 1.13156 0
M  V30 17263 H 1632.72 0.594137 -0.452781 0
M  V30 17264 H 1635.38 1.01806 -1.66197 0
M  V30 17265 H 1634.48 2.53796 -1.81643 0
M  V30 17266 N 1634.78 1.15898 1.06796 0
M  V30 17267 C 1636 0.961859 1.83747 0
M  V30 17268 C 1636.43 -0.48494 1.81741 0
M  V30 17269 O 1635.79 -1.3461 1.21449 0
M  V30 17270 C 1635.83 1.48764 3.28484 0
M  V30 17271 O 1634.94 0.690576 4.06577 0
M  V30 17272 H 1634.28 0.342664 0.568751 0
M  V30 17273 H 1636.81 1.54015 1.34687 0
M  V30 17274 H 1636.82 1.50291 3.79311 0
M  V30 17275 H 1635.49 2.54089 3.29259 0
M  V30 17276 H 1634.07 0.74539 3.65374 0
M  V30 17277 N 1636.26 -1.25243 0.956659 0
M  V30 17278 C 1637.17 -2.29529 0.48515 0
M  V30 17279 C 1638.18 -1.68121 -0.448494 0
M  V30 17280 O 1639.36 -1.98773 -0.324243 0
M  V30 17281 C 1636.42 -3.45952 -0.227611 0
M  V30 17282 C 1635.48 -4.22795 0.744495 0
M  V30 17283 C 1634.72 -5.3366 0.0656539 0
M  V30 17284 O 1634.94 -5.58722 -1.14829 0
M  V30 17285 O 1633.87 -5.97181 0.75222 0
M  V30 17286 H 1637.7 -2.71955 1.35181 0
M  V30 17287 H 1635.29 -1.30729 0.723203 0
M  V30 17288 H 1637.17 -4.16687 -0.628474 0
M  V30 17289 H 1635.84 -3.05524 -1.06942 0
M  V30 17290 H 1634.75 -3.5448 1.1956 0
M  V30 17291 H 1636.08 -4.67012 1.55438 0
M  V30 17292 N 1637.73 -0.725468 -1.3991 0
M  V30 17293 C 1638.67 -0.0397832 -2.29165 0
M  V30 17294 C 1639.68 0.713458 -1.46334 0
M  V30 17295 O 1640.87 0.559199 -1.69515 0
M  V30 17296 C 1637.97 0.967929 -3.24784 0
M  V30 17297 C 1637.14 0.278181 -4.36515 0
M  V30 17298 C 1636.2 1.19266 -5.12506 0
M  V30 17299 O 1635.23 0.673726 -5.65199 0
M  V30 17300 N 1636.43 2.5231 -5.228 0
M  V30 17301 H 1639.19 -0.806204 -2.88653 0
M  V30 17302 H 1636.75 -0.573904 -1.51387 0
M  V30 17303 H 1638.75 1.58209 -3.72494 0
M  V30 17304 H 1637.32 1.63563 -2.66394 0
M  V30 17305 H 1636.54 -0.516326 -3.90804 0
M  V30 17306 H 1637.82 -0.200203 -5.08406 0
M  V30 17307 H 1637.22 2.96957 -4.8149 0
M  V30 17308 H 1635.78 3.08846 -5.73984 0
M  V30 17309 N 1639.21 1.50354 -0.472382 0
M  V30 17310 C 1640.14 2.26396 0.357429 0
M  V30 17311 C 1641.16 1.31778 0.955949 0
M  V30 17312 O 1642.35 1.57279 0.844136 0
M  V30 17313 C 1639.45 3.03131 1.51542 0
M  V30 17314 C 1638.62 4.25113 1.02945 0
M  V30 17315 C 1637.68 4.84131 2.06164 0
M  V30 17316 O 1636.7 5.4501 1.64174 0
M  V30 17317 N 1637.91 4.71244 3.38983 0
M  V30 17318 H 1640.67 2.9825 -0.294473 0
M  V30 17319 H 1638.23 1.59035 -0.303242 0
M  V30 17320 H 1640.22 3.39492 2.20289 0
M  V30 17321 H 1638.79 2.34067 2.07199 0
M  V30 17322 H 1638.01 3.93843 0.167821 0
M  V30 17323 H 1639.3 5.04199 0.682705 0
M  V30 17324 H 1638.7 4.22831 3.75807 0
M  V30 17325 H 1637.26 5.11871 4.03524 0
M  V30 17326 N 1640.69 0.205039 1.56261 0
M  V30 17327 C 1641.92 -0.439502 2.0269 0
M  V30 17328 C 1642.34 -1.53715 1.08413 0
M  V30 17329 O 1641.7 -1.81167 0.0693616 0
M  V30 17330 C 1641.75 -0.963672 3.47485 0
M  V30 17331 O 1640.85 -2.07602 3.56336 0
M  V30 17332 H 1640.19 -0.101543 0.65619 0
M  V30 17333 H 1642.72 0.318835 2.021 0
M  V30 17334 H 1642.73 -1.27773 3.87476 0
M  V30 17335 H 1641.41 -0.160203 4.15591 0
M  V30 17336 H 1639.98 -1.76985 3.28224 0
M  V30 17337 N 1642.17 -1.57451 -0.0684915 0
M  V30 17338 C 1643.45 -1.78483 -0.800209 0
M  V30 17339 C 1643.83 -0.793438 -1.95621 0
M  V30 17340 O 1643.17 0.172756 -2.27846 0
M  V30 17341 C 1643.38 -3.25069 -1.27008 0
M  V30 17342 C 1644.73 -3.8899 -1.70212 0
M  V30 17343 O 1645.76 -3.2898 -1.36566 0
M  V30 17344 O 1644.62 -4.94569 -2.32515 0
M  V30 17345 H 1641.71 -0.732598 -0.383704 0
M  V30 17346 H 1644.26 -1.69631 -0.0483117 0
M  V30 17347 H 1643.03 -3.88784 -0.443067 0
M  V30 17348 H 1642.65 -3.38657 -2.08319 0
M  V30 17349 N 1643.65 0.339955 -1.5389 0
M  V30 17350 C 1644.56 1.441 -1.85128 0
M  V30 17351 C 1645.57 1.57399 -0.741733 0
M  V30 17352 O 1646.75 1.72807 -1.0344 0
M  V30 17353 C 1643.81 2.7904 -2.05761 0
M  V30 17354 C 1642.88 2.75055 -3.29611 0
M  V30 17355 C 1642.11 4.0356 -3.4925 0
M  V30 17356 O 1642.33 5.01015 -2.72653 0
M  V30 17357 O 1641.27 4.07813 -4.42687 0
M  V30 17358 H 1645.09 1.20616 -2.78721 0
M  V30 17359 H 1642.68 0.532468 -1.39589 0
M  V30 17360 H 1644.56 3.5895 -2.20756 0
M  V30 17361 H 1643.23 3.02447 -1.15357 0
M  V30 17362 H 1642.14 1.93753 -3.20016 0
M  V30 17363 H 1643.47 2.56602 -4.20019 0
M  V30 17364 N 1645.13 1.45684 0.601159 0
M  V30 17365 C 1646.4 1.4051 1.36074 0
M  V30 17366 C 1646.78 0.0790095 2.10952 0
M  V30 17367 O 1646.13 -0.939162 2.08307 0
M  V30 17368 C 1646.34 2.62297 2.3022 0
M  V30 17369 C 1647.69 3.0766 2.92627 0
M  V30 17370 O 1648.71 2.62716 2.40539 0
M  V30 17371 O 1647.57 3.85675 3.87191 0
M  V30 17372 H 1644.67 0.557902 0.61047 0
M  V30 17373 H 1647.21 1.57822 0.623712 0
M  V30 17374 H 1645.98 3.50389 1.74194 0
M  V30 17375 H 1645.61 2.47351 3.11293 0
M  V30 17376 N 1646.6 -0.84422 1.33082 0
M  V30 17377 C 1647.88 -1.58339 1.1484 0
M  V30 17378 C 1648.26 -2.09136 -0.287273 0
M  V30 17379 O 1647.61 -1.8891 -1.2855 0
M  V30 17380 C 1647.82 -2.72141 2.18496 0
M  V30 17381 C 1649.17 -3.41457 2.52373 0
M  V30 17382 O 1650.19 -2.82377 2.17122 0
M  V30 17383 O 1649.05 -4.48096 3.12845 0
M  V30 17384 H 1646.14 -0.697813 0.443831 0
M  V30 17385 H 1648.69 -0.88744 1.44646 0
M  V30 17386 H 1647.46 -2.32206 3.14954 0
M  V30 17387 H 1647.08 -3.49404 1.89744 0
M  V30 17388 N 1648.08 -1.16463 -1.0618 0
M  V30 17389 C 1649.01 -0.829995 -2.13644 0
M  V30 17390 C 1650.03 0.16326 -1.61979 0
M  V30 17391 O 1651.22 -0.0616575 -1.78393 0
M  V30 17392 C 1648.32 -0.215222 -3.38216 0
M  V30 17393 C 1647.49 -1.24886 -4.19192 0
M  V30 17394 C 1646.55 -0.653683 -5.22124 0
M  V30 17395 O 1645.57 -1.32285 -5.53615 0
M  V30 17396 N 1646.78 0.559031 -5.77802 0
M  V30 17397 H 1649.54 -1.75487 -2.42949 0
M  V30 17398 H 1647.1 -1.06212 -1.22191 0
M  V30 17399 H 1649.09 0.196005 -4.04225 0
M  V30 17400 H 1647.66 0.613229 -3.06526 0
M  V30 17401 H 1646.88 -1.83622 -3.48822 0
M  V30 17402 H 1648.17 -1.94639 -4.70099 0
M  V30 17403 H 1647.57 1.12083 -5.54485 0
M  V30 17404 H 1646.13 0.912453 -6.45382 0
M  V30 17405 N 1649.56 1.24734 -0.963288 0
M  V30 17406 C 1650.51 2.27557 -0.481704 0
M  V30 17407 C 1651.5 1.63245 0.452488 0
M  V30 17408 O 1652.71 1.76981 0.328263 0
M  V30 17409 H 1649.08 0.73936 -0.137297 0
M  V30 17410 H 1651.05 2.65555 -1.361 0
M  V30 17411 C 1649.8 3.47023 0.216806 0
M  V30 17412 H 1649.13 3.9675 -0.492916 0
M  V30 17413 H 1650.57 4.20828 0.517659 0
M  V30 17414 C 1649.02 3.04466 1.44229 0
M  V30 17415 O 1649.55 3.11238 2.53956 0
M  V30 17416 N 1647.76 2.59563 1.30674 0
M  V30 17417 H 1647.31 2.54252 0.41395 0
M  V30 17418 H 1647.27 2.31453 2.12783 0
M  V30 17419 N 1651.04 0.732878 1.39523 0
M  V30 17420 C 1652.27 0.29007 2.04857 0
M  V30 17421 C 1652.68 -1.07435 1.55252 0
M  V30 17422 O 1652.04 -1.67847 0.716497 0
M  V30 17423 C 1652.09 0.280464 3.6041 0
M  V30 17424 O 1651.81 1.59102 4.08189 0
M  V30 17425 C 1653.31 -0.178772 4.42939 0
M  V30 17426 H 1650.53 0.12716 0.658841 0
M  V30 17427 H 1653.07 0.995933 1.7861 0
M  V30 17428 H 1651.23 -0.376494 3.85566 0
M  V30 17429 H 1651.64 1.50314 5.025 0
M  V30 17430 H 1653.12 -0.134335 5.51837 0
M  V30 17431 H 1653.59 -1.22362 4.21811 0
M  V30 17432 H 1654.2 0.448543 4.22928 0
M  V30 17433 N 1652.52 -1.50101 0.480349 0
M  V30 17434 C 1653.76 -2.01974 -0.0712904 0
M  V30 17435 C 1654.08 -1.36377 -1.39378 0
M  V30 17436 O 1653.35 -0.512162 -1.89087 0
M  V30 17437 H 1651.93 -0.746424 -0.0293362 0
M  V30 17438 H 1654.6 -1.84338 0.632883 0
M  V30 17439 H 1653.69 -3.11351 -0.216057 0
M  V30 17440 N 1653.99 -0.213323 -1.5615 0
M  V30 17441 C 1655.22 0.428746 -2.0292 0
M  V30 17442 C 1655.64 1.53137 -1.09227 0
M  V30 17443 O 1655 1.81128 -0.0789684 0
M  V30 17444 C 1655.05 0.945231 -3.47991 0
M  V30 17445 O 1654.15 2.05709 -3.57432 0
M  V30 17446 H 1653.49 0.0980619 -0.656719 0
M  V30 17447 H 1656.02 -0.329548 -2.01929 0
M  V30 17448 H 1656.03 1.25717 -3.88149 0
M  V30 17449 H 1654.71 0.138161 -4.1567 0
M  V30 17450 H 1653.29 1.75242 -3.29158 0
M  V30 17451 N 1655.47 1.57485 0.0601405 0
M  V30 17452 C 1656.38 2.07853 1.08785 0
M  V30 17453 C 1657.4 1.01047 1.41653 0
M  V30 17454 O 1658.57 1.32592 1.51596 0
M  V30 17455 C 1655.64 2.52214 2.37885 0
M  V30 17456 C 1654.7 3.73369 2.11882 0
M  V30 17457 C 1653.93 4.15604 3.34827 0
M  V30 17458 O 1654.16 3.5761 4.44377 0
M  V30 17459 O 1653.09 5.08303 3.22353 0
M  V30 17460 H 1656.92 2.9576 0.689912 0
M  V30 17461 H 1654.5 1.46846 0.275065 0
M  V30 17462 H 1656.38 2.81216 3.1384 0
M  V30 17463 H 1655.06 1.67432 2.77035 0
M  V30 17464 H 1653.97 3.49433 1.33594 0
M  V30 17465 H 1655.3 4.59039 1.77606 0
M  V30 17466 N 1656.95 -0.331789 1.54068 0
M  V30 17467 C 1658.2 -1.06818 1.71093 0
M  V30 17468 C 1658.51 -1.89438 0.487111 0
M  V30 17469 O 1659.72 -2.66105 0.538544 0
M  V30 17470 C 1658.17 -1.94853 3.02589 0
M  V30 17471 C 1657.78 -1.17384 4.32348 0
M  V30 17472 C 1659.53 -2.68278 3.28979 0
M  V30 17473 C 1657.43 -2.04518 5.54911 0
M  V30 17474 H 1656.36 -0.402501 0.63758 0
M  V30 17475 H 1659.01 -0.326918 1.80564 0
M  V30 17476 H 1657.4 -2.72845 2.87004 0
M  V30 17477 H 1658.57 -0.442208 4.58673 0
M  V30 17478 H 1656.89 -0.556775 4.12661 0
M  V30 17479 H 1659.48 -3.33762 4.1774 0
M  V30 17480 H 1659.83 -3.35476 2.46498 0
M  V30 17481 H 1660.36 -1.97353 3.45394 0
M  V30 17482 H 1657.1 -1.41842 6.3997 0
M  V30 17483 H 1656.62 -2.75438 5.32817 0
M  V30 17484 H 1658.3 -2.63297 5.91002 0
M  V30 17485 N 1658.43 -1.46001 -0.593424 0
M  V30 17486 C 1659.38 -1.55752 -1.70323 0
M  V30 17487 C 1660.35 -0.402466 -1.6115 0
M  V30 17488 O 1661.53 -0.617804 -1.80521 0
M  V30 17489 C 1658.67 -1.54362 -3.08653 0
M  V30 17490 C 1657.78 -2.80523 -3.28529 0
M  V30 17491 C 1656.92 -2.70709 -4.57045 0
M  V30 17492 C 1655.96 -3.91857 -4.70228 0
M  V30 17493 N 1655.09 -3.80494 -5.90059 0
M  V30 17494 H 1659.93 -2.50555 -1.61326 0
M  V30 17495 H 1657.47 -1.24313 -0.786425 0
M  V30 17496 H 1659.43 -1.51542 -3.88704 0
M  V30 17497 H 1658.06 -0.630986 -3.16573 0
M  V30 17498 H 1657.11 -2.93368 -2.42155 0
M  V30 17499 H 1658.42 -3.70341 -3.3414 0
M  V30 17500 H 1657.58 -2.65935 -5.45311 0
M  V30 17501 H 1656.32 -1.78513 -4.53855 0
M  V30 17502 H 1655.32 -3.96975 -3.80383 0
M  V30 17503 H 1656.55 -4.85136 -4.75205 0
M  V30 17504 H 1654.49 -2.91077 -5.87886 0
M  V30 17505 H 1654.41 -4.63958 -5.96891 0
M  V30 17506 H 1655.68 -3.79676 -6.80783 0
M  V30 17507 N 1659.91 0.83715 -1.33527 0
M  V30 17508 C 1660.85 1.96849 -1.23908 0
M  V30 17509 C 1661.85 1.6882 -0.140096 0
M  V30 17510 O 1663.05 1.77411 -0.304166 0
M  V30 17511 H 1659.43 0.646232 -0.384562 0
M  V30 17512 H 1661.4 2.02087 -2.19552 0
M  V30 17513 C 1660.15 3.33102 -0.996907 0
M  V30 17514 H 1659.47 3.5521 -1.83482 0
M  V30 17515 H 1660.91 4.12757 -0.96991 0
M  V30 17516 C 1659.37 3.3556 0.30013 0
M  V30 17517 O 1659.9 3.79868 1.30626 0
M  V30 17518 N 1658.11 2.8874 0.328269 0
M  V30 17519 H 1657.65 2.52877 -0.491043 0
M  V30 17520 H 1657.61 2.90767 1.19591 0
M  V30 17521 N 1661.38 1.17024 1.05561 0
M  V30 17522 C 1662.8 0.916718 1.30646 0
M  V30 17523 C 1663 -0.426248 1.9694 0
M  V30 17524 O 1662.06 -1.16408 2.24065 0
M  V30 17525 C 1663.37 2.07126 2.17989 0
M  V30 17526 C 1664.92 2.10787 2.31383 0
M  V30 17527 C 1665.39 3.25616 3.22084 0
M  V30 17528 N 1666.88 3.25381 3.29669 0
M  V30 17529 C 1667.62 4.10873 3.99964 0
M  V30 17530 N 1667.11 5.06468 4.72718 0
M  V30 17531 N 1668.91 3.98835 3.9609 0
M  V30 17532 H 1661.06 2.03474 0.609284 0
M  V30 17533 H 1663.32 0.888247 0.331243 0
M  V30 17534 H 1663.03 3.04168 1.76564 0
M  V30 17535 H 1662.9 2.01912 3.18609 0
M  V30 17536 H 1665.29 1.14333 2.72051 0
M  V30 17537 H 1665.37 2.20064 1.30405 0
M  V30 17538 H 1665.01 4.22333 2.8213 0
M  V30 17539 H 1664.94 3.13575 4.23058 0
M  V30 17540 H 1667.43 2.56164 2.77828 0
M  V30 17541 H 1667.75 5.68105 5.23905 0
M  V30 17542 H 1666.09 5.10441 4.71673 0
M  V30 17543 H 1669.28 3.23451 3.38375 0
M  V30 17544 H 1669.46 4.65682 4.50604 0
M  V30 17545 N 1662.86 -1.24221 0.969889 0
M  V30 17546 C 1664.14 -1.87715 0.549772 0
M  V30 17547 C 1664.52 -1.87333 -0.973114 0
M  V30 17548 O 1663.87 -1.3475 -1.84539 0
M  V30 17549 C 1664.08 -3.29724 1.14381 0
M  V30 17550 C 1665.43 -4.06393 1.23005 0
M  V30 17551 O 1666.45 -3.38904 1.09648 0
M  V30 17552 O 1665.31 -5.27149 1.4414 0
M  V30 17553 H 1662.4 -0.806356 0.183629 0
M  V30 17554 H 1664.95 -1.32177 1.0643 0
M  V30 17555 H 1663.72 -3.24513 2.18649 0
M  V30 17556 H 1663.34 -3.92839 0.613456 0
M  V30 17557 N 1664.34 -0.740267 -1.39132 0
M  V30 17558 C 1665.27 -0.118951 -2.33197 0
M  V30 17559 C 1666.25 0.718416 -1.54184 0
M  V30 17560 O 1667.44 0.662322 -1.82557 0
M  V30 17561 C 1664.57 0.78512 -3.38309 0
M  V30 17562 C 1663.52 0.0515093 -4.27969 0
M  V30 17563 C 1662.85 1.07295 -5.23824 0
M  V30 17564 C 1664.15 -1.10903 -5.1039 0
M  V30 17565 H 1665.84 -0.904687 -2.85405 0
M  V30 17566 H 1663.39 -0.436493 -1.37225 0
M  V30 17567 H 1665.34 1.22935 -4.03069 0
M  V30 17568 H 1664.06 1.60303 -2.84553 0
M  V30 17569 H 1662.72 -0.373156 -3.64696 0
M  V30 17570 H 1662.37 1.88456 -4.66362 0
M  V30 17571 H 1662.07 0.586827 -5.84662 0
M  V30 17572 H 1663.59 1.51677 -5.91461 0
M  V30 17573 H 1665.01 -0.742993 -5.68465 0
M  V30 17574 H 1663.41 -1.52513 -5.80396 0
M  V30 17575 H 1664.48 -1.92825 -4.44912 0
M  V30 17576 N 1665.82 1.49844 -0.488302 0
M  V30 17577 C 1667.06 2.02709 0.060788 0
M  V30 17578 C 1667.4 1.36828 1.37811 0
M  V30 17579 O 1666.67 0.499679 1.87972 0
M  V30 17580 C 1666.96 3.59386 0.226637 0
M  V30 17581 C 1666.81 4.35814 -1.11292 0
M  V30 17582 C 1668.13 4.29204 0.973218 0
M  V30 17583 H 1665.25 0.736712 0.0206177 0
M  V30 17584 H 1667.89 1.78995 -0.637245 0
M  V30 17585 H 1666.04 3.79722 0.821182 0
M  V30 17586 H 1667.71 4.27007 -1.74536 0
M  V30 17587 H 1665.95 3.98874 -1.70535 0
M  V30 17588 H 1666.62 5.43758 -0.950319 0
M  V30 17589 H 1669.1 4.13447 0.469106 0
M  V30 17590 H 1667.98 5.38605 1.05809 0
M  V30 17591 H 1668.24 3.93564 2.01394 0
M  V30 17592 N 1667.3 0.221601 1.56034 0
M  V30 17593 C 1668.53 -0.414343 2.02402 0
M  V30 17594 C 1668.93 -1.5389 1.10066 0
M  V30 17595 O 1668.28 -1.83413 0.102587 0
M  V30 17596 C 1668.34 -1.00704 3.45107 0
M  V30 17597 C 1668 -0.0179259 4.56996 0
M  V30 17598 C 1669 0.782467 5.13978 0
M  V30 17599 C 1666.69 0.100842 5.02199 0
M  V30 17600 C 1668.68 1.68833 6.14633 0
M  V30 17601 C 1666.37 1.01024 6.02692 0
M  V30 17602 C 1667.36 1.80253 6.58785 0
M  V30 17603 O 1667.05 2.69664 7.57322 0
M  V30 17604 H 1666.78 -0.105645 0.667694 0
M  V30 17605 H 1669.34 0.335505 2.02641 0
M  V30 17606 H 1667.57 -1.80598 3.41937 0
M  V30 17607 H 1669.26 -1.5504 3.75123 0
M  V30 17608 H 1670.02 0.70116 4.79905 0
M  V30 17609 H 1665.9 -0.505723 4.58218 0
M  V30 17610 H 1669.45 2.30718 6.58343 0
M  V30 17611 H 1665.34 1.09256 6.36187 0
M  V30 17612 H 1666.11 2.6374 7.74844 0
M  V30 17613 N 1668.77 -1.57515 -0.0517878 0
M  V30 17614 C 1670.02 -1.88493 -0.748206 0
M  V30 17615 C 1670.35 -0.816494 -1.76202 0
M  V30 17616 O 1669.63 0.171075 -1.93746 0
M  V30 17617 C 1669.91 -3.30131 -1.43825 0
M  V30 17618 C 1669.76 -4.47648 -0.4395 0
M  V30 17619 C 1671.08 -3.70315 -2.37813 0
M  V30 17620 H 1668.2 -0.68555 -0.270537 0
M  V30 17621 H 1670.84 -1.89997 -0.0111457 0
M  V30 17622 H 1668.99 -3.2898 -2.06651 0
M  V30 17623 H 1670.67 -4.60929 0.185088 0
M  V30 17624 H 1668.91 -4.33117 0.243381 0
M  V30 17625 H 1669.58 -5.43582 -0.96035 0
M  V30 17626 H 1672.06 -3.72687 -1.8505 0
M  V30 17627 H 1670.93 -4.70269 -2.83087 0
M  V30 17628 H 1671.19 -3.0133 -3.23501 0
M  V30 17629 O 1670.29 0.195051 -1.60318 0
M  V30 17630 H 1670.98 0.833919 -1.7483 0
M  V30 END ATOM
M  V30 BEGIN BOND
M  V30 END BOND
M  V30 END CTAB
M  END
$$$$
