drugbank_target|P0A3D9 Flavodoxin (DB03247)
 OpenBabel12092120273D

  0  0  0     0  0            999 V3000
M  V30 BEGIN CTAB
M  V30 COUNTS 2600 2625 0 0 0
M  V30 BEGIN ATOM
M  V30 1 H -0.908 1.98254 -0.117106 0
M  V30 2 N 0 1.576 0 0
M  V30 3 C 0.933 2.03868 1.02534 0
M  V30 4 C 1.911 0.928543 1.3348 0
M  V30 5 O 3.095 1.19667 1.45644 0
M  V30 6 C 0.222 2.43627 2.35294 0
M  V30 7 C -0.732 3.65373 2.2001 0
M  V30 8 S 0.101 5.13292 1.52614 0
M  V30 9 C 1.257 5.56322 2.86805 0
M  V30 10 H 1.49 2.90518 0.631377 0
M  V30 11 H -0.977 1.52953 0.210867 0
M  V30 12 H 0.981 2.67203 3.11629 0
M  V30 13 H -0.358 1.57376 2.7183 0
M  V30 14 H -1.165 3.90944 3.18086 0
M  V30 15 H -1.563 3.418 1.51819 0
M  V30 16 H 0.729 5.58782 3.83104 0
M  V30 17 H 1.672 6.56266 2.65933 0
M  V30 18 H 2.08 4.83886 2.90714 0
M  V30 19 N 1.4781 -0.272755 1.55222 0
M  V30 20 C 2.7031 -1.02683 1.80197 0
M  V30 21 C 3.1281 -1.79142 0.573551 0
M  V30 22 O 2.4861 -1.74917 -0.476849 0
M  V30 23 C 2.5341 -1.9609 3.02624 0
M  V30 24 O 1.6381 -3.04863 2.77727 0
M  V30 25 H 0.9791 -0.293557 0.595584 0
M  V30 26 H 3.5091 -0.30159 2.02365 0
M  V30 27 H 3.5191 -2.38039 3.31363 0
M  V30 28 H 2.1941 -1.39851 3.91682 0
M  V30 29 H 0.7711 -2.67228 2.60084 0
M  V30 30 N 2.9562 -1.48159 -0.537278 0
M  V30 31 C 3.9032 -1.62138 -1.64256 0
M  V30 32 C 4.8732 -0.463668 -1.59497 0
M  V30 33 O 6.0582 -0.686241 -1.78032 0
M  V30 34 C 3.1982 -1.66028 -3.02537 0
M  V30 35 C 2.3112 -2.92855 -3.17585 0
M  V30 36 C 1.4462 -2.87952 -4.46382 0
M  V30 37 C 0.4852 -4.09516 -4.54932 0
M  V30 38 N -0.3778 -4.02733 -5.75109 0
M  V30 39 H 4.4622 -2.56529 -1.51647 0
M  V30 40 H 1.9992 -1.27224 -0.738414 0
M  V30 41 H 3.9572 -1.66265 -3.82638 0
M  V30 42 H 2.5872 -0.751331 -3.13934 0
M  V30 43 H 1.6392 -3.02395 -2.30784 0
M  V30 44 H 2.9512 -3.82822 -3.19764 0
M  V30 45 H 2.1052 -2.8655 -5.34765 0
M  V30 46 H 0.8442 -1.95702 -4.46712 0
M  V30 47 H -0.1508 -4.11201 -3.64957 0
M  V30 48 H 1.0742 -5.02917 -4.56346 0
M  V30 49 H -0.9798 -3.13299 -5.76351 0
M  V30 50 H -1.0628 -4.86397 -5.78752 0
M  V30 51 H 0.2052 -4.05379 -6.65799 0
M  V30 52 N 4.4343 0.785586 -1.36625 0
M  V30 53 C 5.3813 1.89838 -1.31264 0
M  V30 54 C 6.3513 1.65115 -0.180633 0
M  V30 55 O 7.5363 1.87222 -0.36777 0
M  V30 56 C 4.6763 3.26706 -1.11163 0
M  V30 57 C 3.7893 3.63476 -2.33472 0
M  V30 58 C 2.9243 4.89481 -2.06353 0
M  V30 59 C 1.9633 5.18941 -3.24602 0
M  V30 60 N 1.1003 6.36131 -2.97123 0
M  V30 61 H 5.9403 1.93756 -2.26413 0
M  V30 62 H 3.4773 0.947454 -1.12524 0
M  V30 63 H 5.4353 4.05639 -0.975337 0
M  V30 64 H 4.0653 3.222 -0.196674 0
M  V30 65 H 3.1173 2.79636 -2.57891 0
M  V30 66 H 4.4293 3.81193 -3.21704 0
M  V30 67 H 3.5833 5.76288 -1.89675 0
M  V30 68 H 2.3223 4.73841 -1.15437 0
M  V30 69 H 1.3273 4.30615 -3.41834 0
M  V30 70 H 2.5523 5.36498 -4.16349 0
M  V30 71 H 0.4983 6.21875 -2.08823 0
M  V30 72 H 0.4153 6.54198 -3.78894 0
M  V30 73 H 1.6833 7.2591 -2.84033 0
M  V30 74 N 5.9124 1.20967 1.01018 0
M  V30 75 C 7.1614 1.01796 1.74128 0
M  V30 76 C 7.4744 -0.449691 1.90361 0
M  V30 77 O 8.6804 -0.76068 2.60626 0
M  V30 78 C 7.1364 1.7727 3.13215 0
M  V30 79 C 6.7444 3.28171 3.04972 0
M  V30 80 C 8.4884 1.66489 3.90489 0
M  V30 81 C 6.3954 3.96156 4.39107 0
M  V30 82 H 5.3254 0.377276 0.652824 0
M  V30 83 H 7.9764 1.44651 1.12909 0
M  V30 84 H 6.3584 1.27205 3.75013 0
M  V30 85 H 7.5324 3.85499 2.52443 0
M  V30 86 H 5.8474 3.39437 2.41188 0
M  V30 87 H 8.4444 2.14617 4.89738 0
M  V30 88 H 8.7874 0.6222 4.11624 0
M  V30 89 H 9.3204 2.14003 3.35332 0
M  V30 90 H 6.0594 5.00604 4.23174 0
M  V30 91 H 5.5794 3.43617 4.91617 0
M  V30 92 H 7.2584 4.00774 5.07926 0
M  V30 93 N 7.3905 -1.2043 1.01659 0
M  V30 94 C 8.6385 -1.89423 0.704522 0
M  V30 95 C 8.9595 -1.79231 -0.768197 0
M  V30 96 O 8.2295 -1.1947 -1.55254 0
M  V30 97 H 6.8095 -0.701178 0.257602 0
M  V30 98 H 9.4715 -1.4626 1.28818 0
M  V30 99 H 8.5675 -2.96052 0.987916 0
M  V30 100 N 8.8686 -0.792821 -1.36206 0
M  V30 101 C 9.7986 -0.207853 -2.32573 0
M  V30 102 C 10.7796 0.659055 -1.56813 0
M  V30 103 O 11.9646 0.592176 -1.84951 0
M  V30 104 C 9.0946 0.655449 -3.41059 0
M  V30 105 C 8.0486 -0.111842 -4.27854 0
M  V30 106 C 7.3746 0.872274 -5.27537 0
M  V30 107 C 8.6746 -1.30299 -5.05786 0
M  V30 108 H 10.3686 -1.01294 -2.81744 0
M  V30 109 H 7.9146 -0.48854 -1.3546 0
M  V30 110 H 9.8676 1.07464 -4.07467 0
M  V30 111 H 8.5916 1.49328 -2.90463 0
M  V30 112 H 7.2506 -0.512053 -3.63006 0
M  V30 113 H 6.8986 1.70523 -4.73214 0
M  V30 114 H 6.5986 0.363291 -5.86476 0
M  V30 115 H 8.1226 1.28996 -5.96818 0
M  V30 116 H 9.5366 -0.959379 -5.65216 0
M  V30 117 H 7.9336 -1.7455 -5.74154 0
M  V30 118 H 9.0036 -2.09663 -4.37229 0
M  V30 119 N 10.3467 1.47872 -0.545128 0
M  V30 120 C 11.5937 2.02493 -0.0165858 0
M  V30 121 C 11.9217 1.42073 1.32836 0
M  V30 122 O 11.1767 0.561459 1.87473 0
M  V30 123 C 11.4757 3.57131 0.13867 0
M  V30 124 C 11.1417 4.36411 -1.13384 0
M  V30 125 C 9.8037 4.57792 -1.48256 0
M  V30 126 C 12.1557 4.82223 -1.97764 0
M  V30 127 C 9.4837 5.22233 -2.67376 0
M  V30 128 C 11.8357 5.47977 -3.16076 0
M  V30 129 C 10.4997 5.67593 -3.51275 0
M  V30 130 H 9.7697 0.740975 -0.00606918 0
M  V30 131 H 12.4167 1.77683 -0.714207 0
M  V30 132 H 10.7217 3.80865 0.919172 0
M  V30 133 H 12.4187 3.97031 0.562782 0
M  V30 134 H 9.0087 4.2004 -0.852297 0
M  V30 135 H 13.1927 4.65493 -1.72132 0
M  V30 136 H 8.4487 5.35616 -2.94831 0
M  V30 137 H 12.6227 5.8244 -3.81755 0
M  V30 138 H 10.2497 6.17298 -4.43675 0
M  V30 139 N 11.8248 0.280983 1.55075 0
M  V30 140 C 13.0548 -0.336804 2.03836 0
M  V30 141 C 13.4628 -1.49577 1.15859 0
M  V30 142 O 12.8058 -1.82888 0.172503 0
M  V30 143 C 12.8678 -0.874616 3.48699 0
M  V30 144 C 12.5318 0.156478 4.56732 0
M  V30 145 C 13.5288 0.978032 5.10618 0
M  V30 146 C 11.2138 0.292409 5.01448 0
M  V30 147 C 13.2078 1.92165 6.07743 0
M  V30 148 C 10.8948 1.23949 5.98398 0
M  V30 149 C 11.8928 2.05261 6.51427 0
M  V30 150 O 11.5808 2.98367 7.4648 0
M  V30 151 H 11.3128 -0.0800885 0.671239 0
M  V30 152 H 13.8668 0.412589 2.01213 0
M  V30 153 H 12.0968 -1.67418 3.4858 0
M  V30 154 H 13.7858 -1.40612 3.80766 0
M  V30 155 H 14.5518 0.883782 4.7688 0
M  V30 156 H 10.4308 -0.330498 4.59814 0
M  V30 157 H 13.9748 2.55672 6.49059 0
M  V30 158 H 9.8718 1.33454 6.31554 0
M  V30 159 H 10.6398 2.93116 7.64215 0
M  V30 160 N 13.3029 -1.57598 0.00835791 0
M  V30 161 C 14.5509 -1.90551 -0.6734 0
M  V30 162 C 14.8719 -0.883301 -1.73847 0
M  V30 163 O 14.1419 0.0781442 -1.95744 0
M  V30 164 H 12.7219 -0.703312 -0.251717 0
M  V30 165 H 15.3839 -1.94833 0.0512592 0
M  V30 166 H 14.4799 -2.9056 -1.13935 0
M  V30 167 N 14.781 0.264519 -1.55364 0
M  V30 168 C 16.009 1.013 -1.80405 0
M  V30 169 C 16.424 1.79618 -0.581622 0
M  V30 170 O 15.781 1.76879 0.449468 0
M  V30 171 C 15.832 1.96487 -3.03439 0
M  V30 172 O 15.553 1.21341 -4.20961 0
M  V30 173 C 17.054 2.83079 -3.41147 0
M  V30 174 H 14.274 0.298875 -0.600762 0
M  V30 175 H 16.818 0.292736 -2.02394 0
M  V30 176 H 14.973 2.63965 -2.83551 0
M  V30 177 H 15.387 1.85573 -4.90574 0
M  V30 178 H 16.861 3.4565 -4.30384 0
M  V30 179 H 17.338 3.53286 -2.60932 0
M  V30 180 H 17.944 2.2108 -3.63323 0
M  V30 181 N 16.2591 1.48442 0.529413 0
M  V30 182 C 17.1911 1.59095 1.64989 0
M  V30 183 C 18.2041 0.475212 1.5571 0
M  V30 184 O 19.3931 0.746081 1.6216 0
M  V30 185 C 16.4931 1.50518 3.0364 0
M  V30 186 C 15.6661 2.77142 3.38395 0
M  V30 187 C 14.7251 2.62012 4.56329 0
M  V30 188 O 13.7511 3.35898 4.59522 0
M  V30 189 N 14.9531 1.71667 5.54536 0
M  V30 190 H 17.7181 2.55723 1.56287 0
M  V30 191 H 15.2791 1.45173 0.716697 0
M  V30 192 H 17.2711 1.38091 3.80412 0
M  V30 193 H 15.8411 0.618627 3.06418 0
M  V30 194 H 15.0611 3.0413 2.50796 0
M  V30 195 H 16.3491 3.61146 3.58401 0
M  V30 196 H 15.7471 1.10841 5.54735 0
M  V30 197 H 14.3041 1.65178 6.30523 0
M  V30 198 N 17.7372 -0.778329 1.37039 0
M  V30 199 C 18.9652 -1.56734 1.35063 0
M  V30 200 C 19.3802 -1.88686 -0.0655597 0
M  V30 201 O 18.7372 -1.5096 -1.02554 0
M  V30 202 C 18.7882 -2.88163 2.18276 0
M  V30 203 O 18.5092 -2.57583 3.54376 0
M  V30 204 C 20.0102 -3.82422 2.24206 0
M  V30 205 H 17.2302 -0.485778 0.462883 0
M  V30 206 H 19.7742 -0.965185 1.8029 0
M  V30 207 H 17.9292 -3.44818 1.76576 0
M  V30 208 H 18.3432 -3.41699 3.97922 0
M  V30 209 H 19.8172 -4.71667 2.86765 0
M  V30 210 H 20.2942 -4.21078 1.24861 0
M  V30 211 H 20.9002 -3.31697 2.6619 0
M  V30 212 N 19.2153 -1.21501 -1.00376 0
M  V30 213 C 20.4633 -1.03095 -1.73827 0
M  V30 214 C 20.7843 0.436341 -1.90055 0
M  V30 215 O 20.0543 1.31466 -1.45236 0
M  V30 216 H 18.6343 -0.378487 -0.644016 0
M  V30 217 H 21.2963 -1.52831 -1.20949 0
M  V30 218 H 20.3923 -1.49991 -2.73695 0
M  V30 219 N 20.6934 1.19889 -1.02296 0
M  V30 220 C 21.6404 2.22901 -0.598651 0
M  V30 221 C 22.6104 1.61588 0.384521 0
M  V30 222 O 23.7954 1.88697 0.282522 0
M  V30 223 C 20.9354 3.45063 0.0504476 0
M  V30 224 C 20.0484 4.20783 -0.978053 0
M  V30 225 C 19.1834 5.30356 -0.299338 0
M  V30 226 C 18.2224 5.97826 -1.31416 0
M  V30 227 N 17.3594 6.98975 -0.661667 0
M  V30 228 H 22.1994 2.58554 -1.48169 0
M  V30 229 H 19.7364 1.27039 -0.741584 0
M  V30 230 H 21.6944 4.14831 0.443971 0
M  V30 231 H 20.3244 3.10084 0.897097 0
M  V30 232 H 19.3764 3.50018 -1.48969 0
M  V30 233 H 20.6884 4.67109 -1.74958 0
M  V30 234 H 19.8424 6.06516 0.149347 0
M  V30 235 H 18.5814 4.85084 0.504445 0
M  V30 236 H 17.5864 5.20422 -1.77317 0
M  V30 237 H 18.8114 6.45183 -2.11933 0
M  V30 238 H 16.7574 6.55886 0.122132 0
M  V30 239 H 16.6744 7.43461 -1.37117 0
M  V30 240 H 17.9424 7.7914 -0.236785 0
M  V30 241 N 22.1715 0.800033 1.35784 0
M  V30 242 C 23.3995 0.389606 2.03199 0
M  V30 243 C 23.8145 -0.997375 1.60306 0
M  V30 244 O 23.1715 -1.64154 0.797481 0
M  V30 245 C 23.2225 0.455855 3.58614 0
M  V30 246 O 22.9435 1.78815 3.99946 0
M  V30 247 C 24.4445 0.0374032 4.43284 0
M  V30 248 H 21.6645 0.159132 0.651857 0
M  V30 249 H 24.2085 1.08183 1.73541 0
M  V30 250 H 22.3635 -0.188057 3.86943 0
M  V30 251 H 22.7775 1.74636 4.94573 0
M  V30 252 H 24.2515 0.134882 5.51835 0
M  V30 253 H 24.7285 -1.01651 4.27275 0
M  V30 254 H 25.3345 0.654215 4.20238 0
M  V30 255 N 23.6496 -1.47581 0.552962 0
M  V30 256 C 24.5596 -2.33743 -0.200353 0
M  V30 257 C 25.5756 -1.47928 -0.916151 0
M  V30 258 O 26.7516 -1.80865 -0.885993 0
M  V30 259 C 23.8166 -3.24536 -1.21973 0
M  V30 260 C 22.8776 -4.26238 -0.511819 0
M  V30 261 C 22.1106 -5.12693 -1.48263 0
M  V30 262 O 22.3336 -5.01525 -2.71714 0
M  V30 263 O 21.2676 -5.93375 -1.00945 0
M  V30 264 H 25.0936 -2.9945 0.506304 0
M  V30 265 H 22.6786 -1.46071 0.313622 0
M  V30 266 H 24.5606 -3.80631 -1.80827 0
M  V30 267 H 23.2356 -2.61462 -1.90839 0
M  V30 268 H 22.1426 -3.73914 0.117799 0
M  V30 269 H 23.4756 -4.92014 0.135308 0
M  V30 270 N 25.1277 -0.289203 -1.54924 0
M  V30 271 C 26.3527 0.329299 -2.04769 0
M  V30 272 C 26.7777 1.4763 -1.16564 0
M  V30 273 O 26.1357 1.80527 -0.167186 0
M  V30 274 C 26.1837 0.774438 -3.52186 0
M  V30 275 O 25.2877 1.88038 -3.67036 0
M  V30 276 H 24.6287 0.0659259 -0.660719 0
M  V30 277 H 27.1587 -0.42761 -2.00082 0
M  V30 278 H 27.1687 1.06642 -3.93816 0
M  V30 279 H 25.8437 -0.0646707 -4.1585 0
M  V30 280 H 24.4207 1.58985 -3.3731 0
M  V30 281 N 26.6058 1.57591 -0.0167156 0
M  V30 282 C 27.8518 1.91567 0.665582 0
M  V30 283 C 28.1848 0.892298 1.72487 0
M  V30 284 O 27.4598 -0.0867127 1.94307 0
M  V30 285 C 27.7428 3.36069 1.29342 0
M  V30 286 C 27.5958 4.49135 0.244541 0
M  V30 287 C 28.9148 3.803 2.21495 0
M  V30 288 H 26.0338 0.69666 0.240488 0
M  V30 289 H 28.6758 1.89866 -0.0714356 0
M  V30 290 H 26.8258 3.3765 1.92158 0
M  V30 291 H 28.4978 4.59689 -0.385228 0
M  V30 292 H 26.7408 4.3165 -0.431379 0
M  V30 293 H 27.4118 5.47242 0.723207 0
M  V30 294 H 29.8878 3.80377 1.68678 0
M  V30 295 H 28.7638 4.82127 2.62382 0
M  V30 296 H 29.0248 3.15104 3.101 0
M  V30 297 N 28.0839 -0.256276 1.55502 0
M  V30 298 C 29.0469 -1.30047 1.88734 0
M  V30 299 C 30.0469 -1.4154 0.763086 0
M  V30 300 O 31.2369 -1.40403 1.03115 0
M  V30 301 C 28.3689 -2.67953 2.10747 0
M  V30 302 H 29.5619 -1.01802 2.82093 0
M  V30 303 H 27.1149 -0.495134 1.4825 0
M  V30 304 H 27.8499 -3.01351 1.19825 0
M  V30 305 H 27.6349 -2.60993 2.92617 0
M  V30 306 H 29.1249 -3.43368 2.37673 0
M  V30 307 N 29.562 -1.4872 -0.521534 0
M  V30 308 C 30.472 -1.66569 -1.65203 0
M  V30 309 C 31.488 -0.548197 -1.65139 0
M  V30 310 O 32.664 -0.820339 -1.83936 0
M  V30 311 C 29.729 -1.70917 -3.01642 0
M  V30 312 C 28.79 -2.94356 -3.12495 0
M  V30 313 C 28.023 -2.98487 -4.42426 0
M  V30 314 O 28.246 -2.10786 -5.30024 0
M  V30 315 O 27.18 -3.90746 -4.57822 0
M  V30 316 H 31.006 -2.62298 -1.5308 0
M  V30 317 H 28.591 -1.3222 -0.695565 0
M  V30 318 H 30.473 -1.7625 -3.82771 0
M  V30 319 H 29.148 -0.783633 -3.14071 0
M  V30 320 H 28.055 -2.94552 -2.3063 0
M  V30 321 H 29.388 -3.86322 -3.04986 0
M  V30 322 N 31.0401 0.771051 -1.3745 0
M  V30 323 C 32.2891 1.52491 -1.3202 0
M  V30 324 C 32.6021 1.9538 0.0927347 0
M  V30 325 O 33.8081 2.70159 0.269503 0
M  V30 326 C 32.2641 2.75366 -2.31736 0
M  V30 327 C 31.8721 2.39573 -3.78562 0
M  V30 328 C 33.6161 3.53307 -2.35318 0
M  V30 329 C 31.5231 3.58954 -4.70007 0
M  V30 330 H 30.4531 0.572506 -0.490666 0
M  V30 331 H 33.1041 0.844474 -1.62914 0
M  V30 332 H 31.4861 3.45303 -1.93861 0
M  V30 333 H 32.6601 1.77415 -4.25277 0
M  V30 334 H 30.9751 1.74805 -3.77932 0
M  V30 335 H 33.5721 4.42039 -3.00842 0
M  V30 336 H 33.9151 3.93217 -1.36698 0
M  V30 337 H 34.4481 2.90367 -2.71904 0
M  V30 338 H 31.1871 3.24125 -5.69757 0
M  V30 339 H 30.7071 4.20214 -4.27996 0
M  V30 340 H 32.3861 4.25758 -4.87175 0
M  V30 341 N 32.5182 1.22032 0.997298 0
M  V30 342 C 33.7672 1.03637 1.73038 0
M  V30 343 C 34.0802 -0.429475 1.90827 0
M  V30 344 O 35.2862 -0.732995 2.61418 0
M  V30 345 C 33.7422 1.80582 3.11317 0
M  V30 346 C 33.3502 3.31387 3.01474 0
M  V30 347 C 35.0942 1.70621 3.88701 0
M  V30 348 C 33.0012 4.00791 4.3488 0
M  V30 349 H 31.9312 0.384179 0.648785 0
M  V30 350 H 34.5822 1.4584 1.11368 0
M  V30 351 H 32.9642 1.31175 3.73643 0
M  V30 352 H 34.1382 3.88155 2.4834 0
M  V30 353 H 32.4532 3.41976 2.37575 0
M  V30 354 H 35.0502 2.19799 4.87434 0
M  V30 355 H 35.3932 0.665823 4.10941 0
M  V30 356 H 35.9262 2.17547 3.33044 0
M  V30 357 H 32.6652 5.05064 4.1784 0
M  V30 358 H 32.1852 3.48811 4.87945 0
M  V30 359 H 33.8642 4.06139 5.03647 0
M  V30 360 N 33.9963 -1.19345 1.0293 0
M  V30 361 C 35.4123 -1.41069 0.746446 0
M  V30 362 C 35.6123 -1.90078 -0.668776 0
M  V30 363 O 34.6683 -2.0778 -1.4347 0
M  V30 364 C 35.9813 -2.42141 1.78292 0
M  V30 365 C 37.5293 -2.55887 1.80252 0
M  V30 366 C 38.0043 -3.60214 2.8286 0
M  V30 367 N 39.4953 -3.67711 2.81679 0
M  V30 368 C 40.2303 -4.48128 3.57727 0
M  V30 369 N 39.7263 -5.32248 4.43491 0
M  V30 370 N 41.5193 -4.42782 3.46267 0
M  V30 371 H 33.6703 -0.858536 1.94275 0
M  V30 372 H 35.9333 -0.439541 0.839945 0
M  V30 373 H 35.6393 -2.13155 2.79746 0
M  V30 374 H 35.5133 -3.41323 1.60557 0
M  V30 375 H 37.9003 -2.84196 0.794757 0
M  V30 376 H 37.9813 -1.56858 2.02062 0
M  V30 377 H 37.6253 -3.32647 3.83807 0
M  V30 378 H 37.5553 -4.58895 2.58307 0
M  V30 379 H 40.0463 -3.07634 2.19476 0
M  V30 380 H 40.3593 -5.90729 4.98256 0
M  V30 381 H 38.7043 -5.31707 4.47564 0
M  V30 382 H 41.8953 -3.76107 2.78677 0
M  V30 383 H 42.0683 -5.05215 4.05785 0
M  V30 384 N 35.4744 -0.807222 -1.35358 0
M  V30 385 C 36.7514 -0.311126 -1.9311 0
M  V30 386 C 37.1314 1.19937 -1.73719 0
M  V30 387 O 36.4794 1.99918 -1.10657 0
M  V30 388 C 36.6894 -0.723226 -3.41424 0
M  V30 389 C 38.0374 -0.713078 -4.18569 0
M  V30 390 O 39.0614 -0.664811 -3.49941 0
M  V30 391 O 37.9204 -0.772022 -5.41019 0
M  V30 392 H 35.0144 -0.081526 -0.822972 0
M  V30 393 H 37.5604 -0.890962 -1.4443 0
M  V30 394 H 36.3324 -1.76426 -3.4927 0
M  V30 395 H 35.9554 -0.118232 -3.97424 0
M  V30 396 N 36.9525 1.47285 -0.560781 0
M  V30 397 C 37.8625 2.33846 0.187954 0
M  V30 398 C 38.8785 1.48412 0.908293 0
M  V30 399 O 40.0545 1.81332 0.876388 0
M  V30 400 C 37.1195 3.25178 1.2025 0
M  V30 401 C 36.1805 4.26504 0.489208 0
M  V30 402 C 35.4135 5.13472 1.45542 0
M  V30 403 O 35.6365 5.02959 2.6905 0
M  V30 404 O 34.5705 5.93902 0.977963 0
M  V30 405 H 38.3965 2.99177 -0.522177 0
M  V30 406 H 35.9815 1.45903 -0.321364 0
M  V30 407 H 37.8635 3.81584 1.78805 0
M  V30 408 H 36.5385 2.6247 1.89449 0
M  V30 409 H 35.4455 3.73847 -0.137627 0
M  V30 410 H 36.7785 4.91935 -0.161399 0
M  V30 411 N 38.4306 0.297415 1.54768 0
M  V30 412 C 39.6776 -0.312913 2.00068 0
M  V30 413 C 40.0056 -1.54171 1.18582 0
M  V30 414 O 39.2606 -1.94108 0.249133 0
M  V30 415 C 39.5596 -0.717561 3.50123 0
M  V30 416 C 39.2256 0.409095 4.4904 0
M  V30 417 C 37.8876 0.718399 4.75807 0
M  V30 418 C 40.2396 1.16717 5.07963 0
M  V30 419 C 37.5676 1.78896 5.5876 0
M  V30 420 C 39.9196 2.22762 5.92081 0
M  V30 421 C 38.5836 2.54303 6.1716 0
M  V30 422 H 37.8536 -0.114503 0.7321 0
M  V30 423 H 40.5006 0.415767 1.86932 0
M  V30 424 H 38.8056 -1.52627 3.60849 0
M  V30 425 H 40.5026 -1.20091 3.82595 0
M  V30 426 H 37.0926 0.157918 4.28309 0
M  V30 427 H 41.2766 0.941466 4.87289 0
M  V30 428 H 36.5326 2.0381 5.7643 0
M  V30 429 H 40.7066 2.81962 6.36765 0
M  V30 430 H 38.3336 3.3739 6.81229 0
M  V30 431 N 39.9087 -1.5758 0.0250728 0
M  V30 432 C 41.1567 -1.91255 -0.653151 0
M  V30 433 C 41.4777 -0.901691 -1.729 0
M  V30 434 O 40.7477 0.0573785 -1.95816 0
M  V30 435 H 39.3277 -0.705942 -0.244243 0
M  V30 436 H 41.9897 -1.94767 0.0719209 0
M  V30 437 H 41.0857 -2.91752 -1.10847 0
M  V30 438 N 41.3868 0.248026 -1.55636 0
M  V30 439 C 42.3348 1.32683 -1.91045 0
M  V30 440 C 43.3288 1.49883 -0.789401 0
M  V30 441 O 44.5348 1.51371 -0.974007 0
M  V30 442 H 40.9098 0.444272 -0.606734 0
M  V30 443 H 42.8808 1.00085 -2.81115 0
M  V30 444 C 41.6298 2.6755 -2.22064 0
M  V30 445 H 40.9528 2.55114 -3.07826 0
M  V30 446 H 42.3928 3.41912 -2.50743 0
M  V30 447 C 40.8518 3.20556 -1.0366 0
M  V30 448 O 41.3818 4.00695 -0.284016 0
M  V30 449 N 39.5878 2.78568 -0.82753 0
M  V30 450 H 39.1348 2.1351 -1.44123 0
M  V30 451 H 39.0928 3.14378 -0.0369803 0
M  V30 452 N 42.8649 1.48995 0.513639 0
M  V30 453 C 44.1419 1.48338 1.27495 0
M  V30 454 C 44.5219 0.204065 2.10111 0
M  V30 455 O 43.8699 -0.813881 2.13514 0
M  V30 456 C 44.0799 2.75498 2.14247 0
M  V30 457 C 45.4279 3.24484 2.73852 0
M  V30 458 O 46.4519 2.76528 2.24523 0
M  V30 459 O 45.3109 4.07974 3.6362 0
M  V30 460 H 42.4049 0.593149 0.576284 0
M  V30 461 H 44.9509 1.61246 0.528948 0
M  V30 462 H 43.7229 3.60109 1.53092 0
M  V30 463 H 43.3459 2.6539 2.96064 0
M  V30 464 N 44.343 -0.763751 1.37857 0
M  V30 465 C 45.589 -1.52483 1.33704 0
M  V30 466 C 45.922 -1.94051 -0.0759612 0
M  V30 467 O 45.197 -1.64675 -1.03501 0
M  V30 468 C 45.48 -2.78441 2.28348 0
M  V30 469 C 45.333 -2.43075 3.78463 0
M  V30 470 C 46.652 -3.80415 2.21298 0
M  V30 471 H 43.771 -0.553169 0.487005 0
M  V30 472 H 46.413 -0.875562 1.68624 0
M  V30 473 H 44.563 -3.33842 1.987 0
M  V30 474 H 46.235 -1.93527 4.18742 0
M  V30 475 H 44.478 -1.75666 3.96641 0
M  V30 476 H 45.149 -3.33149 4.40132 0
M  V30 477 H 47.625 -3.34527 2.47449 0
M  V30 478 H 46.501 -4.66257 2.89647 0
M  V30 479 H 46.762 -4.25262 1.20849 0
M  V30 480 N 45.8211 -1.22559 -0.990812 0
M  V30 481 C 47.0671 -1.05297 -1.73322 0
M  V30 482 C 47.4001 0.410655 -1.89808 0
M  V30 483 O 46.6751 1.30439 -1.44277 0
M  V30 484 C 46.9581 -1.76713 -3.13759 0
M  V30 485 C 46.8111 -3.30684 -3.04907 0
M  V30 486 C 48.1301 -1.52121 -4.12974 0
M  V30 487 H 45.2491 -0.38392 -0.629106 0
M  V30 488 H 47.8911 -1.50926 -1.15418 0
M  V30 489 H 46.0411 -1.37924 -3.63193 0
M  V30 490 H 47.7131 -3.7893 -2.63077 0
M  V30 491 H 45.9561 -3.60253 -2.41661 0
M  V30 492 H 46.6271 -3.75833 -4.04294 0
M  V30 493 H 49.1031 -1.85819 -3.72304 0
M  V30 494 H 47.9791 -2.04582 -5.0935 0
M  V30 495 H 48.2401 -0.454257 -4.3976 0
M  V30 496 N 47.2992 1.18797 -1.03562 0
M  V30 497 C 48.5272 1.92599 -0.755869 0
M  V30 498 C 48.9422 1.75886 0.686271 0
M  V30 499 O 48.2992 1.08517 1.46732 0
M  V30 500 C 48.3502 3.44159 -1.10619 0
M  V30 501 O 48.0712 3.60341 -2.4917 0
M  V30 502 C 49.5722 4.3507 -0.850214 0
M  V30 503 H 46.7922 0.611587 -0.276048 0
M  V30 504 H 49.3362 1.50742 -1.38192 0
M  V30 505 H 47.4912 3.83823 -0.525194 0
M  V30 506 H 47.9052 4.54128 -2.62427 0
M  V30 507 H 49.3792 5.39989 -1.14523 0
M  V30 508 H 49.8562 4.38673 0.215176 0
M  V30 509 H 50.4622 4.01097 -1.41426 0
M  V30 510 N 48.7773 0.814389 1.34928 0
M  V30 511 C 49.7073 0.244827 2.32213 0
M  V30 512 C 50.6883 -0.634024 1.57842 0
M  V30 513 O 51.8733 -0.562676 1.8587 0
M  V30 514 C 49.0033 -0.601106 3.42058 0
M  V30 515 C 47.9573 0.179896 4.27622 0
M  V30 516 C 47.2833 -0.788237 5.28858 0
M  V30 517 C 48.5833 1.38329 5.03649 0
M  V30 518 H 50.2773 1.05763 2.80097 0
M  V30 519 H 47.8233 0.510029 1.34665 0
M  V30 520 H 49.7763 -1.00968 4.09125 0
M  V30 521 H 48.5003 -1.44688 2.92802 0
M  V30 522 H 47.1593 0.569739 3.62146 0
M  V30 523 H 46.8073 -1.62973 4.75866 0
M  V30 524 H 46.5073 -0.269942 5.8698 0
M  V30 525 H 48.0313 -1.19485 5.98795 0
M  V30 526 H 49.4453 1.04918 5.63618 0
M  V30 527 H 47.8423 1.83662 5.71304 0
M  V30 528 H 48.9123 2.16592 4.33839 0
M  V30 529 N 50.2554 -1.46986 0.568584 0
M  V30 530 C 51.2054 -2.27179 -0.193339 0
M  V30 531 C 52.1894 -1.35035 -0.874895 0
M  V30 532 O 53.3814 -1.5931 -0.771322 0
M  V30 533 C 50.5104 -3.21063 -1.21546 0
M  V30 534 C 49.5964 -4.2069 -0.536738 0
M  V30 535 N 49.9874 -5.04218 0.399673 0
M  V30 536 C 48.2854 -4.38961 -0.789254 0
M  V30 537 C 48.9864 -5.76242 0.795017 0
M  V30 538 N 47.9624 -5.434 0.1473 0
M  V30 539 H 51.7644 -2.89146 0.526458 0
M  V30 540 H 49.2784 -1.57664 0.389342 0
M  V30 541 H 51.2754 -3.77209 -1.77536 0
M  V30 542 H 49.9354 -2.60654 -1.93623 0
M  V30 543 H 50.9464 -5.12077 0.774454 0
M  V30 544 H 47.6234 -3.89713 -1.49767 0
M  V30 545 H 49.0134 -6.53417 1.56513 0
M  V30 546 N 51.7335 -0.305618 -1.54608 0
M  V30 547 C 53.0105 0.355652 -1.92339 0
M  V30 548 C 53.3905 1.71324 -1.23335 0
M  V30 549 O 52.7385 2.25473 -0.370702 0
M  V30 550 C 52.9485 0.46572 -3.45879 0
M  V30 551 C 54.2965 0.734426 -4.182 0
M  V30 552 O 55.3205 0.54935 -3.51938 0
M  V30 553 O 54.1795 1.09024 -5.35515 0
M  V30 554 H 51.2735 0.199666 -0.802535 0
M  V30 555 H 53.8195 -0.354017 -1.65966 0
M  V30 556 H 52.5915 -0.488461 -3.88239 0
M  V30 557 H 52.2145 1.22367 -3.78301 0
M  V30 558 N 53.2116 1.57565 -0.0334293 0
M  V30 559 C 54.4576 1.92262 0.645226 0
M  V30 560 C 54.7906 0.910543 1.71531 0
M  V30 561 O 54.0656 -0.066099 1.94388 0
M  V30 562 C 54.3486 3.37422 1.2577 0
M  V30 563 C 54.2016 4.49369 0.196891 0
M  V30 564 C 55.5206 3.82628 2.17449 0
M  V30 565 H 52.6396 0.699171 0.233085 0
M  V30 566 H 55.2816 1.89779 -0.0915694 0
M  V30 567 H 53.4316 3.39669 1.88566 0
M  V30 568 H 55.1036 4.59254 -0.433962 0
M  V30 569 H 53.3466 4.31168 -0.477137 0
M  V30 570 H 54.0176 5.47978 0.665124 0
M  V30 571 H 56.4936 3.82145 1.64634 0
M  V30 572 H 55.3696 4.84883 2.57254 0
M  V30 573 H 55.6306 3.18376 3.0674 0
M  V30 574 N 54.6897 -0.239769 1.55765 0
M  V30 575 C 55.9147 -0.988373 1.82335 0
M  V30 576 C 56.3397 -1.77886 0.611421 0
M  V30 577 O 55.6977 -1.75889 -0.439639 0
M  V30 578 C 55.7457 -1.89627 3.06715 0
M  V30 579 O 54.8497 -2.98904 2.84131 0
M  V30 580 H 54.1907 -0.280858 0.601677 0
M  V30 581 H 56.7207 -0.258597 2.02959 0
M  V30 582 H 56.7307 -2.30957 3.36338 0
M  V30 583 H 55.4057 -1.31511 3.9456 0
M  V30 584 H 53.9827 -2.61651 2.65694 0
M  V30 585 N 56.1678 -1.49265 -0.50573 0
M  V30 586 C 57.0998 -1.617 -1.62437 0
M  V30 587 C 58.1128 -0.499924 -1.54934 0
M  V30 588 O 59.3018 -0.771785 -1.60953 0
M  V30 589 C 56.4018 -1.5533 -3.01207 0
M  V30 590 C 55.5748 -2.8249 -3.33943 0
M  V30 591 C 54.6338 -2.69238 -4.52103 0
M  V30 592 O 53.6598 -3.43167 -4.5412 0
M  V30 593 N 54.8618 -1.80468 -5.51735 0
M  V30 594 H 57.6268 -2.58177 -1.52199 0
M  V30 595 H 55.1878 -1.46294 -0.693511 0
M  V30 596 H 57.1798 -1.44125 -3.78167 0
M  V30 597 H 55.7498 -0.667297 -3.05395 0
M  V30 598 H 54.9698 -3.08081 -2.45926 0
M  V30 599 H 56.2578 -3.66802 -3.5261 0
M  V30 600 H 55.6558 -1.19653 -5.52901 0
M  V30 601 H 54.2128 -1.75188 -6.27816 0
M  V30 602 N 57.6459 0.756429 -1.3826 0
M  V30 603 C 58.6089 1.85176 -1.35065 0
M  V30 604 C 59.6089 1.58818 -0.251703 0
M  V30 605 O 60.7989 1.66615 -0.508433 0
M  V30 606 C 57.9309 3.22596 -1.10201 0
M  V30 607 H 59.1239 1.89417 -2.3251 0
M  V30 608 H 56.6769 0.95783 -1.23512 0
M  V30 609 H 57.4119 3.24025 -0.133504 0
M  V30 610 H 57.1969 3.43122 -1.89762 0
M  V30 611 H 58.6869 4.02673 -1.10654 0
M  V30 612 N 59.124 1.23083 0.984299 0
M  V30 613 C 60.034 1.02515 2.11016 0
M  V30 614 C 61.05 -0.0291702 1.73976 0
M  V30 615 O 62.226 0.165434 2.00719 0
M  V30 616 C 59.291 0.614673 3.41208 0
M  V30 617 C 58.352 1.74359 3.92297 0
M  V30 618 C 57.585 1.35261 5.16275 0
M  V30 619 O 57.808 0.235136 5.69915 0
M  V30 620 O 56.742 2.17227 5.61334 0
M  V30 621 H 60.568 1.96862 2.31255 0
M  V30 622 H 58.153 1.01753 1.09392 0
M  V30 623 H 60.035 0.396518 4.1953 0
M  V30 624 H 58.71 -0.299851 3.22308 0
M  V30 625 H 57.617 2.01635 3.1511 0
M  V30 626 H 58.95 2.63629 4.15645 0
M  V30 627 N 60.6021 -1.18246 1.0419 0
M  V30 628 C 61.8481 -1.88536 0.747122 0
M  V30 629 C 62.1811 -1.80223 -0.723409 0
M  V30 630 O 61.4561 -1.20337 -1.52804 0
M  V30 631 C 61.7391 -3.38968 1.21544 0
M  V30 632 C 61.5921 -3.56084 2.74816 0
M  V30 633 C 62.9111 -4.32648 0.806482 0
M  V30 634 H 60.0301 -0.684619 0.272883 0
M  V30 635 H 62.6721 -1.39113 1.29413 0
M  V30 636 H 60.8221 -3.8119 0.750081 0
M  V30 637 H 62.4941 -3.22946 3.29399 0
M  V30 638 H 60.7371 -2.98699 3.14582 0
M  V30 639 H 61.4081 -4.61639 3.02644 0
M  V30 640 H 63.8841 -3.98211 1.20695 0
M  V30 641 H 62.7601 -5.36462 1.1619 0
M  V30 642 H 63.0211 -4.41146 -0.29029 0
M  V30 643 N 62.0802 -0.821533 -1.34494 0
M  V30 644 C 63.3082 -0.421884 -2.02553 0
M  V30 645 C 63.7232 0.971745 -1.61872 0
M  V30 646 O 63.0802 1.62864 -0.823496 0
M  V30 647 C 63.1312 -0.51285 -3.57844 0
M  V30 648 O 62.8522 -1.85155 -3.97051 0
M  V30 649 C 64.3532 -0.107921 -4.43169 0
M  V30 650 H 61.5732 -0.169482 -0.649243 0
M  V30 651 H 64.1172 -1.1093 -1.71798 0
M  V30 652 H 62.2722 0.126474 -3.87193 0
M  V30 653 H 62.6862 -1.82482 -4.91732 0
M  V30 654 H 64.1602 -0.222657 -5.51551 0
M  V30 655 H 64.6372 0.948401 -4.28838 0
M  V30 656 H 65.2432 -0.720989 -4.19144 0
M  V30 657 N 63.5583 1.46682 -0.576371 0
M  V30 658 C 64.8353 1.95599 0.00703437 0
M  V30 659 C 65.2153 1.51904 1.46589 0
M  V30 660 O 64.5633 0.766755 2.15251 0
M  V30 661 C 64.7733 3.4864 -0.158404 0
M  V30 662 C 66.1213 4.24594 -0.0229439 0
M  V30 663 O 67.1453 3.56094 -0.0869173 0
M  V30 664 O 66.0043 5.46373 0.118015 0
M  V30 665 H 63.0983 0.825275 0.053384 0
M  V30 666 H 65.6443 1.56996 -0.644244 0
M  V30 667 H 64.4163 3.7331 -1.17282 0
M  V30 668 H 64.0393 3.94057 0.5296 0
M  V30 669 N 65.0364 0.313813 1.54444 0
M  V30 670 C 65.9664 -0.549454 2.26943 0
M  V30 671 C 66.9474 -1.12741 1.27372 0
M  V30 672 O 68.1324 -1.15436 1.56167 0
M  V30 673 C 65.2624 -1.71523 3.01989 0
M  V30 674 C 64.2164 -1.26703 4.08816 0
M  V30 675 C 63.5424 -2.51898 4.71647 0
M  V30 676 C 64.8424 -0.388962 5.2085 0
M  V30 677 H 66.5364 0.0552661 2.99349 0
M  V30 678 H 64.0824 0.0280207 1.43973 0
M  V30 679 H 66.0354 -2.32535 3.51433 0
M  V30 680 H 64.7594 -2.34639 2.27183 0
M  V30 681 H 63.4184 -0.679896 3.6024 0
M  V30 682 H 63.0664 -3.13356 3.93468 0
M  V30 683 H 62.7664 -2.22605 5.43802 0
M  V30 684 H 64.2904 -3.1369 5.23861 0
M  V30 685 H 65.7044 -0.905107 5.6611 0
M  V30 686 H 64.1014 -0.18924 5.99802 0
M  V30 687 H 65.1714 0.582699 4.81386 0
M  V30 688 N 66.5145 -1.57545 0.0417849 0
M  V30 689 C 67.4625 -2.12148 -0.953723 0
M  V30 690 C 68.4565 -1.05104 -1.32852 0
M  V30 691 O 69.6625 -1.23524 -1.30927 0
M  V30 692 H 66.0375 -0.677957 -0.325389 0
M  V30 693 H 68.0085 -2.94707 -0.467991 0
M  V30 694 C 66.7575 -2.6739 -2.22257 0
M  V30 695 H 66.0805 -3.49413 -1.94295 0
M  V30 696 H 67.5205 -3.09227 -2.90094 0
M  V30 697 C 65.9795 -1.60723 -2.96091 0
M  V30 698 O 66.5095 -1.01449 -3.88679 0
M  V30 699 N 64.7155 -1.32466 -2.58652 0
M  V30 700 H 64.2625 -1.80856 -1.83437 0
M  V30 701 H 64.2205 -0.61325 -3.08361 0
M  V30 702 N 67.9926 0.231505 -1.5589 0
M  V30 703 C 69.2696 0.981096 -1.69215 0
M  V30 704 C 69.6496 2.02799 -0.586164 0
M  V30 705 O 68.9976 2.24823 0.408253 0
M  V30 706 C 69.2076 1.60054 -3.10135 0
M  V30 707 C 70.5556 2.09658 -3.69227 0
M  V30 708 O 71.5796 1.69967 -3.13033 0
M  V30 709 O 70.4386 2.8258 -4.67772 0
M  V30 710 H 67.5326 0.457653 -0.688827 0
M  V30 711 H 70.0786 0.224073 -1.68214 0
M  V30 712 H 68.8506 0.844105 -3.82087 0
M  V30 713 H 68.4736 2.42336 -3.15212 0
M  V30 714 N 69.4707 1.49531 0.497807 0
M  V30 715 C 70.7007 1.62657 1.27382 0
M  V30 716 C 71.1087 0.298488 1.86831 0
M  V30 717 O 70.4517 -0.72647 1.68725 0
M  V30 718 C 70.5137 2.6393 2.44093 0
M  V30 719 C 70.1777 4.08195 2.05489 0
M  V30 720 C 71.1747 4.949 1.59279 0
M  V30 721 C 68.8597 4.53948 2.15026 0
M  V30 722 C 70.8537 6.25397 1.23113 0
M  V30 723 C 68.5407 5.84458 1.78473 0
M  V30 724 C 69.5387 6.70006 1.32591 0
M  V30 725 O 69.2267 7.98083 0.965327 0
M  V30 726 H 68.9587 0.550429 0.392434 0
M  V30 727 H 71.5127 1.96325 0.603801 0
M  V30 728 H 69.7427 2.25449 3.14181 0
M  V30 729 H 71.4317 2.66552 3.06113 0
M  V30 730 H 72.1977 4.60779 1.51354 0
M  V30 731 H 68.0767 3.87525 2.4969 0
M  V30 732 H 71.6207 6.92125 0.872299 0
M  V30 733 H 67.5177 6.18107 1.86048 0
M  V30 734 H 68.2857 8.11122 1.09652 0
M  V30 735 N 70.9488 -0.749086 1.3866 0
M  V30 736 C 71.8808 -1.87273 1.32142 0
M  V30 737 C 72.8938 -1.61127 0.232787 0
M  V30 738 O 74.0828 -1.71623 0.49069 0
M  V30 739 C 71.1828 -3.23005 1.02571 0
M  V30 740 C 70.3558 -3.7662 2.22433 0
M  V30 741 C 69.4148 -4.90879 1.89537 0
M  V30 742 O 68.4408 -5.05276 2.62078 0
M  V30 743 N 69.6428 -5.74198 0.853031 0
M  V30 744 H 72.4078 -1.93373 2.28969 0
M  V30 745 H 69.9688 -0.929216 1.32579 0
M  V30 746 H 71.9608 -3.96992 0.786085 0
M  V30 747 H 70.5308 -3.12262 0.145249 0
M  V30 748 H 69.7508 -2.94147 2.62434 0
M  V30 749 H 71.0388 -4.09173 3.02415 0
M  V30 750 H 70.4368 -5.6514 0.25155 0
M  V30 751 H 68.9938 -6.48313 0.67329 0
M  V30 752 N 72.4269 -1.23603 -0.977757 0
M  V30 753 C 73.6569 -1.09487 -1.75203 0
M  V30 754 C 74.0649 0.356321 -1.85814 0
M  V30 755 O 73.4079 1.25816 -1.33851 0
M  V30 756 C 73.4699 -1.64905 -3.19447 0
M  V30 757 C 73.1339 -3.13688 -3.32338 0
M  V30 758 C 74.1309 -4.10953 -3.18455 0
M  V30 759 C 71.8159 -3.53449 -3.56902 0
M  V30 760 C 73.8099 -5.45962 -3.28944 0
M  V30 761 C 71.4969 -4.88602 -3.6703 0
M  V30 762 C 72.4949 -5.84668 -3.53062 0
M  V30 763 O 72.1829 -7.17365 -3.62826 0
M  V30 764 H 71.9149 -0.38367 -0.556573 0
M  V30 765 H 74.4689 -1.6398 -1.23693 0
M  V30 766 H 72.6989 -1.04835 -3.72218 0
M  V30 767 H 74.3879 -1.46226 -3.78646 0
M  V30 768 H 75.1539 -3.81577 -2.99372 0
M  V30 769 H 71.0329 -2.79188 -3.66844 0
M  V30 770 H 74.5769 -6.20925 -3.17958 0
M  V30 771 H 70.4739 -5.17653 -3.85623 0
M  V30 772 H 71.2419 -7.2515 -3.79605 0
M  V30 773 N 73.905 1.17692 -1.04816 0
M  V30 774 C 74.835 2.23777 -0.666791 0
M  V30 775 C 75.816 1.66796 0.33361 0
M  V30 776 O 77.001 1.93039 0.212042 0
M  V30 777 C 74.131 3.47281 -0.0367933 0
M  V30 778 C 73.085 4.17059 -0.961546 0
M  V30 779 C 72.411 5.34342 -0.195626 0
M  V30 780 C 73.711 4.69713 -2.28402 0
M  V30 781 H 75.405 2.55933 -1.55367 0
M  V30 782 H 72.951 1.23019 -0.748484 0
M  V30 783 H 74.904 4.20706 0.241775 0
M  V30 784 H 73.628 3.14381 0.885004 0
M  V30 785 H 72.287 3.45541 -1.22462 0
M  V30 786 H 71.935 4.97692 0.728816 0
M  V30 787 H 71.635 5.81966 -0.811775 0
M  V30 788 H 73.159 6.10553 0.0757473 0
M  V30 789 H 74.573 5.34794 -2.06563 0
M  V30 790 H 72.97 5.279 -2.8538 0
M  V30 791 H 74.04 3.86726 -2.92525 0
M  V30 792 N 75.3831 0.828654 1.34056 0
M  V30 793 C 76.6321 0.415828 1.97367 0
M  V30 794 C 76.9451 -1.02796 1.6641 0
M  V30 795 O 78.1511 -1.54497 2.23255 0
M  V30 796 C 76.6071 0.692601 3.53173 0
M  V30 797 C 76.2151 2.15038 3.93017 0
M  V30 798 C 77.9591 0.346222 4.23086 0
M  V30 799 C 75.8661 2.37174 5.41758 0
M  V30 800 H 74.7961 0.151755 0.738571 0
M  V30 801 H 77.4471 1.01581 1.52819 0
M  V30 802 H 75.8291 0.0223764 3.95994 0
M  V30 803 H 77.0031 2.86024 3.61285 0
M  V30 804 H 75.3181 2.45875 3.36057 0
M  V30 805 H 77.9151 0.48937 5.32456 0
M  V30 806 H 78.2581 -0.709842 4.10204 0
M  V30 807 H 78.7911 0.971258 3.85761 0
M  V30 808 H 75.5301 3.41308 5.59633 0
M  V30 809 H 75.0501 1.70738 5.74986 0
M  V30 810 H 76.7291 2.19818 6.08514 0
M  V30 811 N 76.8612 -1.46375 0.584142 0
M  V30 812 C 78.1102 -2.01585 0.0679741 0
M  V30 813 C 78.4232 -1.46109 -1.30045 0
M  V30 814 O 79.6292 -1.93148 -1.90804 0
M  V30 815 C 78.0852 -3.5983 0.0709207 0
M  V30 816 C 77.6932 -4.24303 1.43775 0
M  V30 817 C 79.4372 -4.22693 -0.391228 0
M  V30 818 C 77.3442 -5.74631 1.39834 0
M  V30 819 H 76.2742 -0.753689 0.0216421 0
M  V30 820 H 78.9252 -1.68093 0.736001 0
M  V30 821 H 77.3072 -3.90405 -0.663299 0
M  V30 822 H 78.4812 -4.05335 2.19181 0
M  V30 823 H 76.7962 -3.73539 1.84004 0
M  V30 824 H 79.3932 -5.3289 -0.439524 0
M  V30 825 H 79.7362 -3.91728 -1.40906 0
M  V30 826 H 80.2692 -3.96749 0.288974 0
M  V30 827 H 77.0082 -6.10258 2.39303 0
M  V30 828 H 76.5282 -5.95858 0.686505 0
M  V30 829 H 78.2072 -6.37375 1.11187 0
M  V30 830 N 78.3393 -0.321999 -1.54275 0
M  V30 831 C 79.5873 0.280489 -2.00144 0
M  V30 832 C 79.9083 1.52777 -1.21178 0
M  V30 833 O 79.1783 1.9338 -0.313187 0
M  V30 834 H 77.7583 0.106632 -0.73935 0
M  V30 835 H 80.4203 -0.438184 -1.8991 0
M  V30 836 H 79.5163 0.537972 -3.07428 0
M  V30 837 N 79.8174 1.5752 -0.0501392 0
M  V30 838 C 81.0574 1.94521 0.627783 0
M  V30 839 C 81.4214 0.928265 1.68069 0
M  V30 840 O 82.6224 1.18517 2.41261 0
M  V30 841 C 80.8934 3.36319 1.20932 0
M  V30 842 S 82.4524 3.95272 1.90539 0
M  V30 843 H 79.2704 0.680456 0.206158 0
M  V30 844 H 81.8724 1.95139 -0.118829 0
M  V30 845 H 80.5764 4.08132 0.430865 0
M  V30 846 H 80.1074 3.39193 1.99277 0
M  V30 847 H 82.1224 3.80415 3.18589 0
M  V30 848 N 81.2955 -0.223234 1.56011 0
M  V30 849 C 82.7065 -0.790368 1.69145 0
M  V30 850 C 83.0575 -1.85055 0.651845 0
M  V30 851 O 82.1825 -2.15498 -0.197359 0
M  V30 852 C 82.7775 -1.4404 3.06656 0
M  V30 853 C 81.3365 -1.95494 3.2165 0
M  V30 854 C 80.4835 -0.814506 2.65068 0
M  V30 855 H 83.4345 0.00139011 1.587 0
M  V30 856 H 83.4555 -2.30916 3.0242 0
M  V30 857 H 82.9675 -0.668543 3.82298 0
M  V30 858 H 81.0685 -2.75487 2.50874 0
M  V30 859 H 81.1815 -2.13607 4.28846 0
M  V30 860 H 79.5455 -1.22137 2.23505 0
M  V30 861 H 80.3285 -0.0553515 3.43255 0
M  V30 862 N 82.7736 -1.49793 -0.48987 0
M  V30 863 C 84.0016 -1.63568 -1.26701 0
M  V30 864 C 84.4166 -0.311465 -1.86213 0
M  V30 865 O 83.7736 0.704416 -1.68357 0
M  V30 866 C 83.8246 -2.71284 -2.38929 0
M  V30 867 O 83.5456 -3.9857 -1.81861 0
M  V30 868 C 85.0466 -2.95864 -3.3012 0
M  V30 869 H 82.2666 -0.550342 -0.383881 0
M  V30 870 H 84.8106 -1.95898 -0.586864 0
M  V30 871 H 82.9656 -2.417 -3.02753 0
M  V30 872 H 83.3796 -4.57993 -2.55622 0
M  V30 873 H 84.8536 -3.74941 -4.05121 0
M  V30 874 H 85.3306 -2.06206 -3.87783 0
M  V30 875 H 85.9366 -3.26907 -2.72051 0
M  V30 876 N 84.2517 0.741722 -1.39055 0
M  V30 877 C 85.4977 1.50234 -1.37118 0
M  V30 878 C 85.8527 1.92368 0.0350439 0
M  V30 879 O 85.1457 1.63422 1.00019 0
M  V30 880 C 85.3397 2.7592 -2.27163 0
M  V30 881 C 85.1687 2.46074 -3.76401 0
M  V30 882 C 83.9387 2.38704 -4.45364 0
M  V30 883 C 86.1367 2.12062 -4.68545 0
M  V30 884 N 84.1187 2.01258 -5.79973 0
M  V30 885 C 85.4897 1.85005 -5.91754 0
M  V30 886 C 87.5447 1.98473 -4.56632 0
M  V30 887 C 86.2477 1.4573 -7.04383 0
M  V30 888 C 88.2737 1.60599 -5.69176 0
M  V30 889 C 87.6357 1.34423 -6.91455 0
M  V30 890 H 83.7347 0.548858 -0.557027 0
M  V30 891 H 86.3187 0.862642 -1.74547 0
M  V30 892 H 84.4897 3.3768 -1.91904 0
M  V30 893 H 86.2217 3.42068 -2.16267 0
M  V30 894 H 82.9767 2.55574 -3.98721 0
M  V30 895 H 83.4007 1.85147 -6.51191 0
M  V30 896 H 88.0427 2.17381 -3.62637 0
M  V30 897 H 85.7607 1.25562 -7.98286 0
M  V30 898 H 89.3467 1.507 -5.61944 0
M  V30 899 H 88.2267 1.05555 -7.77064 0
M  V30 900 N 85.7298 1.2412 0.971189 0
M  V30 901 C 86.6778 1.02812 2.08644 0
M  V30 902 C 87.6718 -0.0358403 1.69362 0
M  V30 903 O 88.8778 0.118429 1.7961 0
M  V30 904 H 85.2528 0.315428 0.682649 0
M  V30 905 H 87.2238 1.97397 2.23779 0
M  V30 906 C 85.9728 0.645874 3.41649 0
M  V30 907 H 85.2958 1.45632 3.72332 0
M  V30 908 H 86.7358 0.536366 4.20594 0
M  V30 909 C 85.1948 -0.646713 3.30635 0
M  V30 910 O 85.7248 -1.69338 3.64263 0
M  V30 911 N 83.9308 -0.626115 2.83775 0
M  V30 912 H 83.4778 0.225988 2.56607 0
M  V30 913 H 83.4358 -1.49117 2.76788 0
M  V30 914 N 87.2079 -1.17134 1.05439 0
M  V30 915 C 88.4569 -1.86791 0.761049 0
M  V30 916 C 88.7699 -1.82072 -0.714795 0
M  V30 917 O 89.9759 -2.47223 -1.12218 0
M  V30 918 C 88.4319 -3.35166 1.31117 0
M  V30 919 C 88.0399 -3.48381 2.81664 0
M  V30 920 C 89.7839 -4.10134 1.09499 0
M  V30 921 C 87.6909 -4.90793 3.29964 0
M  V30 922 H 86.6209 -0.699681 0.281002 0
M  V30 923 H 89.2719 -1.3226 1.27199 0
M  V30 924 H 87.6539 -3.8925 0.72803 0
M  V30 925 H 88.8279 -3.04502 3.45855 0
M  V30 926 H 87.1429 -2.86836 3.01851 0
M  V30 927 H 89.7399 -5.152 1.43084 0
M  V30 928 H 90.0829 -4.16287 0.0328772 0
M  V30 929 H 90.6159 -3.62264 1.64346 0
M  V30 930 H 87.3549 -4.89816 4.35616 0
M  V30 931 H 86.8749 -5.35333 2.70516 0
M  V30 932 H 88.5539 -5.59573 3.24787 0
M  V30 933 N 88.686 -0.835752 -1.33615 0
M  V30 934 C 89.934 -0.429109 -1.97492 0
M  V30 935 C 90.255 1.01433 -1.66543 0
M  V30 936 O 89.525 1.70611 -0.962744 0
M  V30 937 H 88.105 -0.155686 -0.730596 0
M  V30 938 H 90.767 -1.06802 -1.63031 0
M  V30 939 H 89.863 -0.55861 -3.0706 0
M  V30 940 N 90.1641 1.46063 -0.591896 0
M  V30 941 C 91.0741 2.34192 0.13831 0
M  V30 942 C 92.0901 1.50305 0.876608 0
M  V30 943 O 93.2661 1.8315 0.837728 0
M  V30 944 C 90.3311 3.27656 1.13326 0
M  V30 945 C 89.3921 4.27445 0.39863 0
M  V30 946 C 88.6251 5.16443 1.34618 0
M  V30 947 O 88.8481 5.08553 2.58321 0
M  V30 948 O 87.7821 5.95843 0.851768 0
M  V30 949 H 91.6081 2.98002 -0.58552 0
M  V30 950 H 89.1931 1.45188 -0.352239 0
M  V30 951 H 91.0751 3.85291 1.70671 0
M  V30 952 H 89.7501 2.6643 1.83839 0
M  V30 953 H 88.6571 3.73471 -0.216895 0
M  V30 954 H 89.9901 4.91482 -0.265709 0
M  V30 955 N 91.6422 0.330177 1.54103 0
M  V30 956 C 92.5722 -0.525353 2.27513 0
M  V30 957 C 93.5532 -1.11383 1.2856 0
M  V30 958 O 94.7382 -1.13773 1.57383 0
M  V30 959 C 91.8682 -1.6831 3.03791 0
M  V30 960 C 90.8222 -1.2236 4.10137 0
M  V30 961 C 90.1482 -2.46882 4.74293 0
M  V30 962 C 91.4482 -0.333697 5.21233 0
M  V30 963 H 93.1422 0.087013 2.99274 0
M  V30 964 H 90.6882 0.0432893 1.43935 0
M  V30 965 H 92.6412 -2.28795 3.5388 0
M  V30 966 H 91.3652 -2.32216 2.29659 0
M  V30 967 H 90.0242 -0.64165 3.60941 0
M  V30 968 H 89.6722 -3.09165 3.96769 0
M  V30 969 H 89.3722 -2.16825 5.46133 0
M  V30 970 H 90.8962 -3.08117 5.27159 0
M  V30 971 H 92.3102 -0.845013 5.67038 0
M  V30 972 H 90.7072 -0.125612 5.99969 0
M  V30 973 H 91.7772 0.633724 4.80741 0
M  V30 974 N 93.1203 -1.57491 0.0584922 0
M  V30 975 C 94.0523 -2.08916 -0.942694 0
M  V30 976 C 95.0653 -1.0185 -1.27006 0
M  V30 977 O 96.2543 -1.29398 -1.22957 0
M  V30 978 C 93.3543 -2.52341 -2.26224 0
M  V30 979 C 92.5273 -3.82827 -2.1157 0
M  V30 980 C 91.5863 -4.12487 -3.26712 0
M  V30 981 O 90.6123 -4.82295 -3.02292 0
M  V30 982 N 91.8143 -3.64978 -4.5141 0
M  V30 983 H 94.5793 -2.95437 -0.503722 0
M  V30 984 H 92.1403 -1.61397 -0.12757 0
M  V30 985 H 94.1323 -2.69254 -3.02133 0
M  V30 986 H 92.7023 -1.7103 -2.61663 0
M  V30 987 H 91.9223 -3.75425 -1.20208 0
M  V30 988 H 93.2103 -4.68263 -1.99015 0
M  V30 989 H 92.6083 -3.08558 -4.7414 0
M  V30 990 H 91.1653 -3.87115 -5.2439 0
M  V30 991 N 94.5984 0.214957 -1.56127 0
M  V30 992 C 95.8234 0.95924 -1.83884 0
M  V30 993 C 96.2484 1.7689 -0.639644 0
M  V30 994 O 95.6064 1.76566 0.411601 0
M  V30 995 C 95.6544 1.84723 -3.09693 0
M  V30 996 O 94.7584 2.94346 -2.8885 0
M  V30 997 H 94.0994 0.27125 -0.606069 0
M  V30 998 H 96.6294 0.226276 -2.03345 0
M  V30 999 H 96.6394 2.25576 -3.39969 0
M  V30 1000 H 95.3144 1.25218 -3.96602 0
M  V30 1001 H 93.8914 2.57391 -2.69823 0
M  V30 1002 N 96.0765 1.50051 0.48192 0
M  V30 1003 C 97.3535 1.51009 1.2432 0
M  V30 1004 C 97.7335 0.248587 2.09631 0
M  V30 1005 O 97.0815 -0.768409 2.15192 0
M  V30 1006 C 97.2915 2.79981 2.08355 0
M  V30 1007 C 98.6395 3.3022 2.66908 0
M  V30 1008 O 99.6635 2.81228 2.18607 0
M  V30 1009 O 98.5225 4.15595 3.54884 0
M  V30 1010 H 95.6165 0.605239 0.563573 0
M  V30 1011 H 98.1625 1.62332 0.494627 0
M  V30 1012 H 96.9345 3.63275 1.45419 0
M  V30 1013 H 96.5575 2.7161 2.90368 0
M  V30 1014 N 97.5546 -0.734337 1.39446 0
M  V30 1015 C 98.8006 -1.49505 1.37913 0
M  V30 1016 C 99.1556 -1.92384 -0.0248416 0
M  V30 1017 O 98.4486 -1.6395 -0.991506 0
M  V30 1018 C 98.6426 -2.74711 2.28623 0
M  V30 1019 C 98.4716 -2.44075 3.777 0
M  V30 1020 C 97.2416 -2.36338 4.46623 0
M  V30 1021 C 99.4396 -2.09574 4.69663 0
M  V30 1022 N 97.4216 -1.9818 5.81032 0
M  V30 1023 C 98.7926 -1.81865 5.92727 0
M  V30 1024 C 100.848 -1.96048 4.57678 0
M  V30 1025 C 99.5506 -1.41992 7.05146 0
M  V30 1026 C 101.577 -1.57579 5.7002 0
M  V30 1027 C 100.939 -1.30754 6.92158 0
M  V30 1028 H 97.0376 -0.545896 0.55993 0
M  V30 1029 H 99.6216 -0.853373 1.75002 0
M  V30 1030 H 97.7926 -3.36657 1.93692 0
M  V30 1031 H 99.5246 -3.40916 2.18078 0
M  V30 1032 H 96.2796 -2.53456 4.00071 0
M  V30 1033 H 96.7036 -1.81691 6.52163 0
M  V30 1034 H 101.346 -2.15455 3.63784 0
M  V30 1035 H 99.0636 -1.21327 7.9894 0
M  V30 1036 H 102.65 -1.47718 5.62735 0
M  V30 1037 H 101.53 -1.01432 7.77612 0
M  V30 1038 N 99.0327 -1.24633 -0.964593 0
M  V30 1039 C 99.9427 -1.05859 -2.09359 0
M  V30 1040 C 100.959 0.00148855 -1.74 0
M  V30 1041 O 102.135 -0.197346 -2.00431 0
M  V30 1042 C 99.1997 -0.668879 -3.40187 0
M  V30 1043 C 98.2607 -1.80578 -3.89474 0
M  V30 1044 C 97.4937 -1.43457 -5.14058 0
M  V30 1045 O 97.7167 -0.325775 -5.69469 0
M  V30 1046 O 96.6507 -2.2613 -5.57807 0
M  V30 1047 H 100.477 -2.00516 -2.28094 0
M  V30 1048 H 98.0617 -1.03481 -1.0776 0
M  V30 1049 H 99.9437 -0.463211 -4.18846 0
M  V30 1050 H 98.6187 0.248536 -3.22744 0
M  V30 1051 H 97.5257 -2.06623 -3.11862 0
M  V30 1052 H 98.8587 -2.70208 -4.11398 0
M  V30 1053 N 100.511 1.16574 -1.06058 0
M  V30 1054 C 101.759 1.86677 -0.77434 0
M  V30 1055 C 102.08 1.81959 0.701147 0
M  V30 1056 O 101.35 1.2515 1.50713 0
M  V30 1057 H 99.9298 0.691134 -0.283449 0
M  V30 1058 H 102.592 1.41378 -1.34158 0
M  V30 1059 H 101.688 2.92181 -1.09711 0
M  V30 1060 N 101.989 0.842826 1.3317 0
M  V30 1061 C 102.919 0.294028 2.31641 0
M  V30 1062 C 103.9 -0.600401 1.59151 0
M  V30 1063 O 105.085 -0.523124 1.87022 0
M  V30 1064 C 102.215 -0.528416 3.43257 0
M  V30 1065 C 101.169 0.27056 4.27144 0
M  V30 1066 C 100.495 -0.675881 5.30411 0
M  V30 1067 C 101.795 1.48981 5.00602 0
M  V30 1068 H 103.489 1.11681 2.77791 0
M  V30 1069 H 101.035 0.538478 1.33553 0
M  V30 1070 H 102.988 -0.922674 4.11175 0
M  V30 1071 H 101.712 -1.38445 2.95805 0
M  V30 1072 H 100.371 0.646427 3.60856 0
M  V30 1073 H 100.019 -1.52842 4.79216 0
M  V30 1074 H 99.7189 -0.145374 5.8742 0
M  V30 1075 H 101.243 -1.06757 6.01195 0
M  V30 1076 H 102.657 1.16849 5.61266 0
M  V30 1077 H 101.054 1.95739 5.6728 0
M  V30 1078 H 102.124 2.25746 4.29147 0
M  V30 1079 N 103.467 -1.45747 0.599634 0
M  V30 1080 C 104.697 -2.06369 0.0977132 0
M  V30 1081 C 105.105 -1.44624 -1.21985 0
M  V30 1082 O 104.448 -0.551831 -1.75216 0
M  V30 1083 C 104.51 -3.59284 -0.124673 0
M  V30 1084 C 104.174 -4.43318 1.10987 0
M  V30 1085 C 105.171 -4.78796 2.02609 0
M  V30 1086 C 102.856 -4.84194 1.33647 0
M  V30 1087 C 104.85 -5.53997 3.15224 0
M  V30 1088 C 102.537 -5.5915 2.46565 0
M  V30 1089 C 103.535 -5.93968 3.37182 0
M  V30 1090 O 103.223 -6.67405 4.48136 0
M  V30 1091 H 102.955 -0.673122 0.0623153 0
M  V30 1092 H 105.509 -1.88104 0.824981 0
M  V30 1093 H 103.739 -3.75919 -0.906745 0
M  V30 1094 H 105.428 -4.01775 -0.577201 0
M  V30 1095 H 106.194 -4.47781 1.86325 0
M  V30 1096 H 102.073 -4.56534 0.64016 0
M  V30 1097 H 105.617 -5.81091 3.85978 0
M  V30 1098 H 101.514 -5.89579 2.62805 0
M  V30 1099 H 102.282 -6.85847 4.46717 0
M  V30 1100 N 104.945 -0.338344 -1.53925 0
M  V30 1101 C 106.17 0.263987 -2.05713 0
M  V30 1102 C 106.595 1.43847 -1.21201 0
M  V30 1103 O 105.953 1.79904 -0.224535 0
M  V30 1104 C 106.001 0.662 -3.54471 0
M  V30 1105 O 105.105 1.76265 -3.72833 0
M  V30 1106 H 104.446 0.0448722 -0.662482 0
M  V30 1107 H 106.976 -0.491048 -1.9862 0
M  V30 1108 H 106.986 0.940594 -3.9701 0
M  V30 1109 H 105.661 -0.196937 -4.15433 0
M  V30 1110 H 104.238 1.48173 -3.42198 0
M  V30 1111 N 106.423 1.57458 -0.0668435 0
M  V30 1112 C 107.333 2.15937 0.916975 0
M  V30 1113 C 108.349 1.12123 1.33058 0
M  V30 1114 O 109.525 1.44366 1.40429 0
M  V30 1115 C 106.59 2.70547 2.16807 0
M  V30 1116 C 105.651 3.89215 1.81135 0
M  V30 1117 C 104.884 4.41211 3.0028 0
M  V30 1118 O 105.107 3.92225 4.14144 0
M  V30 1119 O 104.041 5.32605 2.80384 0
M  V30 1120 H 107.867 3.00354 0.449561 0
M  V30 1121 H 105.452 1.48584 0.155949 0
M  V30 1122 H 107.334 3.0557 2.90181 0
M  V30 1123 H 106.009 1.89192 2.62656 0
M  V30 1124 H 104.916 3.59054 1.05028 0
M  V30 1125 H 106.249 4.71848 1.40073 0
M  V30 1126 N 107.901 -0.206675 1.56239 0
M  V30 1127 C 108.831 -1.25909 1.96645 0
M  V30 1128 C 109.812 -1.48097 0.836734 0
M  V30 1129 O 110.997 -1.6003 1.10019 0
M  V30 1130 C 108.127 -2.6058 2.29599 0
M  V30 1131 C 107.081 -2.53024 3.452 0
M  V30 1132 C 106.407 -3.91861 3.63798 0
M  V30 1133 C 107.707 -2.06524 4.79734 0
M  V30 1134 H 109.401 -0.923369 2.84806 0
M  V30 1135 H 106.947 -0.442735 1.37025 0
M  V30 1136 H 108.9 -3.34375 2.56459 0
M  V30 1137 H 107.624 -2.95869 1.38307 0
M  V30 1138 H 106.283 -1.81684 3.18412 0
M  V30 1139 H 105.931 -4.24483 2.69857 0
M  V30 1140 H 105.631 -3.87683 4.4156 0
M  V30 1141 H 107.155 -4.67296 3.93022 0
M  V30 1142 H 108.569 -2.70072 5.05702 0
M  V30 1143 H 106.966 -2.13374 5.60885 0
M  V30 1144 H 108.036 -1.01802 4.74093 0
M  V30 1145 N 109.379 -1.50304 -0.473955 0
M  V30 1146 C 110.656 -1.51667 -1.23518 0
M  V30 1147 C 111.036 -0.259701 -2.09496 0
M  V30 1148 O 110.384 0.756986 -2.15597 0
M  V30 1149 C 110.594 -2.81082 -2.06868 0
M  V30 1150 C 111.942 -3.31631 -2.65153 0
M  V30 1151 O 112.966 -2.82384 -2.17113 0
M  V30 1152 O 111.825 -4.17471 -3.52675 0
M  V30 1153 H 108.919 -0.60822 -0.560355 0
M  V30 1154 H 111.465 -1.62592 -0.486011 0
M  V30 1155 H 110.237 -3.64041 -1.4349 0
M  V30 1156 H 109.86 -2.73146 -2.88924 0
M  V30 1157 N 110.857 0.726932 -1.39834 0
M  V30 1158 C 112.134 1.47902 -1.28001 0
M  V30 1159 C 112.514 2.1083 0.106789 0
M  V30 1160 O 111.862 1.99242 1.11869 0
M  V30 1161 C 112.072 2.52392 -2.41038 0
M  V30 1162 C 113.42 3.18546 -2.80737 0
M  V30 1163 O 114.444 2.62708 -2.40547 0
M  V30 1164 O 113.303 4.19604 -3.50135 0
M  V30 1165 H 110.397 0.657163 -0.502062 0
M  V30 1166 H 112.943 0.760071 -1.51727 0
M  V30 1167 H 111.715 2.04329 -3.33715 0
M  V30 1168 H 111.338 3.31837 -2.19021 0
M  V30 1169 N 112.336 1.25143 0.95797 0
M  V30 1170 C 113.582 1.09855 1.70469 0
M  V30 1171 C 113.915 -0.360187 1.90831 0
M  V30 1172 O 113.19 -1.26568 1.47685 0
M  V30 1173 C 113.473 1.8497 3.08963 0
M  V30 1174 C 113.326 3.38652 2.96032 0
M  V30 1175 C 114.645 1.63016 4.08795 0
M  V30 1176 H 111.764 0.400465 0.618706 0
M  V30 1177 H 114.406 1.53933 1.11376 0
M  V30 1178 H 112.556 1.47505 3.59409 0
M  V30 1179 H 114.228 3.85772 2.52938 0
M  V30 1180 H 112.471 3.66534 2.32025 0
M  V30 1181 H 113.142 3.8642 3.94187 0
M  V30 1182 H 115.618 1.95625 3.67247 0
M  V30 1183 H 114.494 2.18015 5.03747 0
M  V30 1184 H 114.755 0.570692 4.38401 0
M  V30 1185 N 113.814 -1.1601 1.06675 0
M  V30 1186 C 115.091 -1.82679 0.699114 0
M  V30 1187 C 115.471 -1.94559 -0.819137 0
M  V30 1188 O 114.819 -1.49169 -1.73092 0
M  V30 1189 C 115.029 -3.19445 1.40555 0
M  V30 1190 C 116.377 -3.95171 1.55323 0
M  V30 1191 O 117.401 -3.28976 1.36577 0
M  V30 1192 O 116.26 -5.13833 1.86112 0
M  V30 1193 H 113.354 -0.788954 0.247951 0
M  V30 1194 H 115.9 -1.23179 1.16726 0
M  V30 1195 H 114.672 -3.05856 2.44065 0
M  V30 1196 H 114.295 -3.86625 0.927733 0
M  V30 1197 N 115.292 -0.849877 -1.32721 0
M  V30 1198 C 116.539 -0.450923 -1.97416 0
M  V30 1199 C 116.867 0.992376 -1.67279 0
M  V30 1200 O 116.122 1.71048 -0.950845 0
M  V30 1201 C 116.421 -0.631272 -3.51781 0
M  V30 1202 C 116.087 -2.04432 -4.01894 0
M  V30 1203 C 114.749 -2.4308 -4.1529 0
M  V30 1204 C 117.101 -2.96679 -4.28522 0
M  V30 1205 C 114.429 -3.73257 -4.52654 0
M  V30 1206 C 116.781 -4.26349 -4.67343 0
M  V30 1207 C 115.445 -4.64939 -4.78945 0
M  V30 1208 H 114.715 -0.165004 -0.722395 0
M  V30 1209 H 117.362 -1.07901 -1.58207 0
M  V30 1210 H 115.667 0.0800767 -3.91718 0
M  V30 1211 H 117.364 -0.302709 -3.99856 0
M  V30 1212 H 113.954 -1.73419 -3.91949 0
M  V30 1213 H 118.138 -2.68054 -4.17685 0
M  V30 1214 H 113.394 -4.02946 -4.59831 0
M  V30 1215 H 117.568 -4.97895 -4.86902 0
M  V30 1216 H 115.195 -5.65855 -5.07654 0
M  V30 1217 N 116.77 1.45427 -0.607355 0
M  V30 1218 C 117.718 2.32269 0.12411 0
M  V30 1219 C 118.712 1.45955 0.859854 0
M  V30 1220 O 119.918 1.6244 0.775447 0
M  V30 1221 H 116.293 0.749691 0.0588839 0
M  V30 1222 H 118.264 2.91743 -0.626762 0
M  V30 1223 C 117.013 3.29567 1.1082 0
M  V30 1224 H 116.336 3.95978 0.551492 0
M  V30 1225 H 117.776 3.93061 1.58995 0
M  V30 1226 C 116.235 2.56722 2.18164 0
M  V30 1227 O 116.765 2.34842 3.25902 0
M  V30 1228 N 114.971 2.16861 1.93442 0
M  V30 1229 H 114.518 2.34855 1.05834 0
M  V30 1230 H 114.476 1.68444 2.65469 0
M  V30 1231 N 118.248 0.346503 1.53744 0
M  V30 1232 C 119.496 -0.248612 2.00565 0
M  V30 1233 C 119.817 -1.5083 1.23593 0
M  V30 1234 O 119.087 -1.92858 0.343912 0
M  V30 1235 H 117.667 -0.0948564 0.740953 0
M  V30 1236 H 120.329 0.468341 1.89189 0
M  V30 1237 H 119.425 -0.488994 3.08245 0
M  V30 1238 N 119.726 -1.57421 0.075193 0
M  V30 1239 C 120.673 -2.12915 -0.890843 0
M  V30 1240 C 121.643 -1.04252 -1.29309 0
M  V30 1241 O 122.828 -1.31933 -1.37834 0
M  V30 1242 C 119.968 -2.69795 -2.15186 0
M  V30 1243 C 119.081 -3.92624 -1.80194 0
M  V30 1244 C 118.216 -4.37736 -3.00933 0
M  V30 1245 C 117.255 -5.53205 -2.61974 0
M  V30 1246 N 116.392 -5.9326 -3.75483 0
M  V30 1247 H 121.232 -2.95156 -0.410735 0
M  V30 1248 H 118.769 -1.45854 -0.191086 0
M  V30 1249 H 120.727 -3.00883 -2.89008 0
M  V30 1250 H 119.357 -1.90313 -2.60731 0
M  V30 1251 H 118.409 -3.67977 -0.964218 0
M  V30 1252 H 119.721 -4.76482 -1.47534 0
M  V30 1253 H 118.875 -4.70503 -3.8303 0
M  V30 1254 H 117.614 -3.52739 -3.36789 0
M  V30 1255 H 116.619 -5.20086 -1.783 0
M  V30 1256 H 117.844 -6.39936 -2.27284 0
M  V30 1257 H 115.79 -5.11212 -4.11094 0
M  V30 1258 H 115.707 -6.71865 -3.46602 0
M  V30 1259 H 116.975 -6.30651 -4.58148 0
M  V30 1260 N 121.204 0.198386 -1.56346 0
M  V30 1261 C 122.134 1.24865 -1.9731 0
M  V30 1262 C 123.115 1.47651 -0.844576 0
M  V30 1263 O 124.3 1.59444 -1.10866 0
M  V30 1264 C 121.43 2.59358 -2.30977 0
M  V30 1265 C 120.384 2.5119 -3.46537 0
M  V30 1266 C 119.71 3.89926 -3.65871 0
M  V30 1267 C 121.01 2.03977 -4.80823 0
M  V30 1268 H 122.704 0.908252 -2.85291 0
M  V30 1269 H 120.25 0.435462 -1.37258 0
M  V30 1270 H 122.203 3.33011 -2.58228 0
M  V30 1271 H 120.927 2.95132 -1.39874 0
M  V30 1272 H 119.586 1.79993 -3.19371 0
M  V30 1273 H 119.234 4.23046 -2.72105 0
M  V30 1274 H 118.934 3.85336 -4.4361 0
M  V30 1275 H 120.458 4.65205 -3.95495 0
M  V30 1276 H 121.872 2.67386 -5.07127 0
M  V30 1277 H 120.269 2.10397 -5.62008 0
M  V30 1278 H 121.339 0.992861 -4.74626 0
M  V30 1279 N 122.682 1.50554 0.465978 0
M  V30 1280 C 123.928 1.62038 1.21949 0
M  V30 1281 C 124.261 0.322116 1.9151 0
M  V30 1282 O 123.536 -0.676723 1.82348 0
M  V30 1283 C 123.819 2.80421 2.25912 0
M  V30 1284 C 123.672 4.20144 1.60622 0
M  V30 1285 C 124.991 2.94354 3.27176 0
M  V30 1286 H 122.11 0.589752 0.441998 0
M  V30 1287 H 124.752 1.82956 0.51257 0
M  V30 1288 H 122.902 2.62717 2.86203 0
M  V30 1289 H 124.574 4.49449 1.03889 0
M  V30 1290 H 122.817 4.24165 0.909211 0
M  V30 1291 H 123.488 4.98914 2.36196 0
M  V30 1292 H 125.964 3.10578 2.76913 0
M  V30 1293 H 124.84 3.788 3.97242 0
M  V30 1294 H 125.101 2.05186 3.916 0
M  V30 1295 N 124.16 -0.719506 1.40217 0
M  V30 1296 C 125.123 -1.8153 1.39927 0
M  V30 1297 C 126.123 -1.58095 0.293723 0
M  V30 1298 O 127.313 -1.65209 0.552429 0
M  V30 1299 C 124.445 -3.19561 1.18716 0
M  V30 1300 H 125.638 -1.83186 2.37451 0
M  V30 1301 H 123.191 -0.924746 1.26008 0
M  V30 1302 H 123.926 -3.23557 0.219366 0
M  V30 1303 H 123.711 -3.3797 1.98793 0
M  V30 1304 H 125.201 -3.99598 1.21291 0
M  V30 1305 N 125.638 -1.25649 -0.95132 0
M  V30 1306 C 126.868 -1.13179 -1.72841 0
M  V30 1307 C 127.276 0.316827 -1.86528 0
M  V30 1308 O 126.619 1.22948 -1.3649 0
M  V30 1309 C 126.681 -1.71644 -3.15878 0
M  V30 1310 C 126.345 -3.20667 -3.25609 0
M  V30 1311 C 127.342 -4.17616 -3.09666 0
M  V30 1312 C 125.027 -3.6094 -3.49324 0
M  V30 1313 C 127.021 -5.52817 -3.17289 0
M  V30 1314 C 124.708 -4.96278 -3.56584 0
M  V30 1315 C 125.706 -5.92025 -3.40581 0
M  V30 1316 O 125.394 -7.24899 -3.47528 0
M  V30 1317 H 125.126 -0.395389 -0.54831 0
M  V30 1318 H 127.68 -1.66566 -1.20187 0
M  V30 1319 H 125.91 -1.12707 -3.69911 0
M  V30 1320 H 127.599 -1.54225 -3.75459 0
M  V30 1321 H 128.365 -3.87842 -2.91211 0
M  V30 1322 H 124.244 -2.86907 -3.6084 0
M  V30 1323 H 127.788 -6.2753 -3.04716 0
M  V30 1324 H 123.685 -5.25716 -3.74556 0
M  V30 1325 H 124.453 -7.33039 -3.64138 0
M  V30 1326 N 127.117 1.15442 -1.07289 0
M  V30 1327 C 128.364 1.86213 -0.795668 0
M  V30 1328 C 128.692 1.82291 0.678238 0
M  V30 1329 O 127.947 1.24057 1.51355 0
M  V30 1330 C 128.246 3.3489 -1.24834 0
M  V30 1331 C 127.912 3.59007 -2.72809 0
M  V30 1332 C 126.574 3.65298 -3.13227 0
M  V30 1333 C 128.926 3.68762 -3.68326 0
M  V30 1334 C 126.254 3.78854 -4.4798 0
M  V30 1335 C 128.606 3.83842 -5.0284 0
M  V30 1336 C 127.27 3.88378 -5.4288 0
M  V30 1337 H 126.54 0.681403 -0.291155 0
M  V30 1338 H 129.187 1.36435 -1.34379 0
M  V30 1339 H 127.492 3.8687 -0.619595 0
M  V30 1340 H 129.189 3.88052 -1.01076 0
M  V30 1341 H 125.779 3.5475 -2.40521 0
M  V30 1342 H 129.963 3.63202 -3.38227 0
M  V30 1343 H 125.219 3.80623 -4.78472 0
M  V30 1344 H 129.393 3.90332 -5.76727 0
M  V30 1345 H 127.02 3.98635 -6.47298 0
M  V30 1346 N 128.595 0.856903 1.32268 0
M  V30 1347 C 129.843 0.460474 1.96784 0
M  V30 1348 C 130.164 -0.987701 1.68135 0
M  V30 1349 O 129.434 -1.69058 0.989765 0
M  V30 1350 H 128.014 0.167289 0.728027 0
M  V30 1351 H 130.676 1.09383 1.61312 0
M  V30 1352 H 129.772 0.60739 3.06133 0
M  V30 1353 N 130.073 -1.45103 0.615059 0
M  V30 1354 C 131.301 -2.06553 0.11977 0
M  V30 1355 C 131.716 -1.45842 -1.19898 0
M  V30 1356 O 131.073 -0.575325 -1.73194 0
M  V30 1357 C 131.124 -3.61495 -0.018364 0
M  V30 1358 O 130.845 -4.19942 1.24822 0
M  V30 1359 C 132.346 -4.39947 -0.544237 0
M  V30 1360 H 129.566 -0.667096 0.0722739 0
M  V30 1361 H 132.11 -1.8623 0.84491 0
M  V30 1362 H 130.265 -3.81135 -0.693865 0
M  V30 1363 H 130.679 -5.13204 1.0827 0
M  V30 1364 H 132.153 -5.48838 -0.589953 0
M  V30 1365 H 132.63 -4.10255 -1.56805 0
M  V30 1366 H 133.236 -4.25188 0.0974703 0
M  V30 1367 N 131.551 -0.354651 -1.53558 0
M  V30 1368 C 132.799 0.237972 -2.00694 0
M  V30 1369 C 133.12 1.50173 -1.24391 0
M  V30 1370 O 132.39 1.92673 -0.354135 0
M  V30 1371 H 130.97 0.0909256 -0.741446 0
M  V30 1372 H 133.632 -0.478368 -1.88938 0
M  V30 1373 H 132.728 0.47264 -3.085 0
M  V30 1374 N 133.029 1.57378 -0.0835403 0
M  V30 1375 C 134.306 1.85363 0.624507 0
M  V30 1376 C 134.686 0.978239 1.87066 0
M  V30 1377 O 134.034 0.0475908 2.2845 0
M  V30 1378 C 134.244 3.35795 0.950947 0
M  V30 1379 C 135.592 4.03581 1.31939 0
M  V30 1380 O 136.616 3.40609 1.04232 0
M  V30 1381 O 135.475 5.14672 1.83779 0
M  V30 1382 H 132.569 0.766162 0.311329 0
M  V30 1383 H 135.115 1.69307 -0.115362 0
M  V30 1384 H 133.887 3.91244 0.0663899 0
M  V30 1385 H 133.51 3.57154 1.74719 0
M  V30 1386 N 134.507 -0.190092 1.56449 0
M  V30 1387 C 135.439 -1.25973 1.91477 0
M  V30 1388 C 136.452 -1.41452 0.805931 0
M  V30 1389 O 137.641 -1.41789 1.08435 0
M  V30 1390 C 134.741 -2.63117 2.13594 0
M  V30 1391 C 133.914 -2.69182 3.4476 0
M  V30 1392 C 132.973 -3.87557 3.5593 0
M  V30 1393 O 131.999 -3.74427 4.28711 0
M  V30 1394 N 133.201 -5.03224 2.89388 0
M  V30 1395 H 135.966 -0.962394 2.83828 0
M  V30 1396 H 133.527 -0.379981 1.57378 0
M  V30 1397 H 135.519 -3.40742 2.1835 0
M  V30 1398 H 134.089 -2.85319 1.27719 0
M  V30 1399 H 133.309 -1.77793 3.51828 0
M  V30 1400 H 134.597 -2.70229 4.31107 0
M  V30 1401 H 133.995 -5.16791 2.30094 0
M  V30 1402 H 132.552 -5.78778 2.99764 0
M  V30 1403 N 135.985 -1.50799 -0.457987 0
M  V30 1404 C 137.234 -1.6168 -1.20593 0
M  V30 1405 C 137.547 -0.32888 -1.92815 0
M  V30 1406 O 138.753 -0.316773 -2.69646 0
M  V30 1407 C 137.209 -2.8545 -2.19195 0
M  V30 1408 C 136.817 -4.21168 -1.52715 0
M  V30 1409 C 138.561 -3.05681 -2.94549 0
M  V30 1410 C 136.468 -5.3611 -2.4968 0
M  V30 1411 H 135.398 -0.602134 -0.453818 0
M  V30 1412 H 138.049 -1.77245 -0.475031 0
M  V30 1413 H 136.431 -2.63472 -2.95632 0
M  V30 1414 H 137.605 -4.53449 -0.819775 0
M  V30 1415 H 135.92 -4.06648 -0.895922 0
M  V30 1416 H 138.517 -3.88727 -3.67145 0
M  V30 1417 H 138.86 -2.17929 -3.54701 0
M  V30 1418 H 139.393 -3.27901 -2.25223 0
M  V30 1419 H 136.132 -6.26057 -1.94249 0
M  V30 1420 H 135.652 -5.0823 -3.18532 0
M  V30 1421 H 137.331 -5.6722 -3.11241 0
M  V30 1422 N 137.463 0.71206 -1.40597 0
M  V30 1423 C 138.711 1.46907 -1.38791 0
M  V30 1424 C 139.032 1.94998 0.00780391 0
M  V30 1425 O 138.302 1.70587 0.963174 0
M  V30 1426 H 136.882 0.545043 -0.51082 0
M  V30 1427 H 139.544 0.843882 -1.75683 0
M  V30 1428 H 138.64 2.34021 -2.06496 0
M  V30 1429 N 138.941 1.26152 0.944643 0
M  V30 1430 C 140.171 1.14094 1.72239 0
M  V30 1431 C 140.579 -0.306931 1.86694 0
M  V30 1432 O 139.922 -1.22222 1.3714 0
M  V30 1433 C 139.984 1.73316 3.14963 0
M  V30 1434 C 139.648 3.2239 3.23904 0
M  V30 1435 C 140.645 4.19252 3.07447 0
M  V30 1436 C 138.33 3.62788 3.47405 0
M  V30 1437 C 140.324 5.54491 3.14353 0
M  V30 1438 C 138.011 4.98162 3.53947 0
M  V30 1439 C 139.009 5.93823 3.37436 0
M  V30 1440 O 138.697 7.26732 3.43679 0
M  V30 1441 H 138.429 0.398292 0.546205 0
M  V30 1442 H 140.983 1.67201 1.19301 0
M  V30 1443 H 139.213 1.14667 3.69308 0
M  V30 1444 H 140.902 1.56214 3.74636 0
M  V30 1445 H 141.668 3.8938 2.8915 0
M  V30 1446 H 137.547 2.88816 3.59313 0
M  V30 1447 H 141.091 6.29137 3.01384 0
M  V30 1448 H 136.988 5.27695 3.71763 0
M  V30 1449 H 137.756 7.3496 3.60245 0
M  V30 1450 N 140.419 -1.14872 1.07899 0
M  V30 1451 C 141.382 -2.17986 0.708161 0
M  V30 1452 C 142.382 -1.58775 -0.25442 0
M  V30 1453 O 143.572 -1.74166 -0.034645 0
M  V30 1454 C 140.704 -3.40871 0.0446929 0
M  V30 1455 H 141.897 -2.52306 1.62116 0
M  V30 1456 H 139.45 -1.2943 0.876218 0
M  V30 1457 H 140.185 -3.12124 -0.880281 0
M  V30 1458 H 139.97 -3.8511 0.737091 0
M  V30 1459 H 141.46 -4.17121 -0.19991 0
M  V30 1460 N 141.898 -0.863906 -1.31812 0
M  V30 1461 C 143.175 -0.39275 -1.91616 0
M  V30 1462 C 143.555 1.12461 -1.7865 0
M  V30 1463 O 142.903 1.95045 -1.19037 0
M  V30 1464 C 143.113 -0.867385 -3.38049 0
M  V30 1465 C 144.461 -0.889966 -4.15168 0
M  V30 1466 O 145.485 -0.812635 -3.46806 0
M  V30 1467 O 144.344 -1.00079 -5.37258 0
M  V30 1468 H 141.438 -0.116358 -0.818773 0
M  V30 1469 H 143.984 -0.951418 -1.40521 0
M  V30 1470 H 142.756 -1.91081 -3.41473 0
M  V30 1471 H 142.379 -0.286687 -3.96565 0
M  V30 1472 N 143.376 1.44774 -0.622745 0
M  V30 1473 C 144.324 2.32387 0.0994683 0
M  V30 1474 C 145.318 1.46859 0.844326 0
M  V30 1475 O 146.524 1.63254 0.758174 0
M  V30 1476 H 142.899 0.750273 0.0509291 0
M  V30 1477 H 144.87 2.91062 -0.65767 0
M  V30 1478 C 143.619 3.30723 1.07319 0
M  V30 1479 H 142.942 3.96541 0.509462 0
M  V30 1480 H 144.382 3.94725 1.54817 0
M  V30 1481 C 142.841 2.59021 2.15429 0
M  V30 1482 O 143.371 2.38286 3.23393 0
M  V30 1483 N 141.577 2.189 1.91131 0
M  V30 1484 H 141.124 2.35964 1.03337 0
M  V30 1485 H 141.082 1.71251 2.63668 0
M  V30 1486 N 144.854 0.36279 1.53368 0
M  V30 1487 C 146.101 -0.227776 2.01215 0
M  V30 1488 C 146.429 -1.49003 1.25014 0
M  V30 1489 O 145.684 -1.92876 0.331236 0
M  V30 1490 C 145.983 -0.568417 3.52851 0
M  V30 1491 C 145.649 0.59918 4.46901 0
M  V30 1492 C 144.311 0.919559 4.72332 0
M  V30 1493 C 146.663 1.38156 5.02556 0
M  V30 1494 C 143.991 2.02434 5.5067 0
M  V30 1495 C 146.343 2.47674 5.821 0
M  V30 1496 C 145.007 2.8025 6.05819 0
M  V30 1497 H 144.277 -0.083349 0.736297 0
M  V30 1498 H 146.924 0.494677 1.85001 0
M  V30 1499 H 145.229 -1.37185 3.66998 0
M  V30 1500 H 146.926 -1.03756 3.87344 0
M  V30 1501 H 143.516 0.339437 4.27254 0
M  V30 1502 H 147.7 1.14729 4.82857 0
M  V30 1503 H 142.956 2.28075 5.67267 0
M  V30 1504 H 147.13 3.08716 6.24234 0
M  V30 1505 H 144.757 3.65979 6.66306 0
M  V30 1506 N 146.332 -1.57332 0.0918853 0
M  V30 1507 C 147.264 -2.10869 -0.898168 0
M  V30 1508 C 148.277 -1.04521 -1.24817 0
M  V30 1509 O 149.466 -1.31977 -1.20184 0
M  V30 1510 C 146.566 -2.57083 -2.2082 0
M  V30 1511 C 145.739 -3.87229 -2.03402 0
M  V30 1512 C 144.798 -4.19324 -3.17889 0
M  V30 1513 O 143.824 -4.88598 -2.91994 0
M  V30 1514 N 145.026 -3.74471 -4.43567 0
M  V30 1515 H 147.791 -2.96439 -0.440943 0
M  V30 1516 H 145.352 -1.61631 -0.0933064 0
M  V30 1517 H 147.344 -2.75602 -2.96354 0
M  V30 1518 H 145.914 -1.76541 -2.57977 0
M  V30 1519 H 145.134 -3.7789 -1.12218 0
M  V30 1520 H 146.422 -4.72379 -1.89038 0
M  V30 1521 H 145.82 -3.18546 -4.67488 0
M  V30 1522 H 144.377 -3.98151 -5.16061 0
M  V30 1523 N 147.81 0.181792 -1.56548 0
M  V30 1524 C 149.087 0.926765 -1.72251 0
M  V30 1525 C 149.467 2.00831 -0.650386 0
M  V30 1526 O 148.815 2.26008 0.336521 0
M  V30 1527 C 149.025 1.50106 -3.1507 0
M  V30 1528 C 150.373 1.97805 -3.75711 0
M  V30 1529 O 151.397 1.59922 -3.18282 0
M  V30 1530 O 150.256 2.67555 -4.76525 0
M  V30 1531 H 147.35 0.435506 -0.703039 0
M  V30 1532 H 149.896 0.170443 -1.68842 0
M  V30 1533 H 148.668 0.72212 -3.84579 0
M  V30 1534 H 148.291 2.32186 -3.22763 0
M  V30 1535 N 149.288 1.51039 0.449983 0
M  V30 1536 C 150.251 1.70863 1.5277 0
M  V30 1537 C 151.251 0.578846 1.5002 0
M  V30 1538 O 152.441 0.846213 1.52266 0
M  V30 1539 C 149.573 1.75341 2.9235 0
M  V30 1540 H 150.766 2.67034 1.36502 0
M  V30 1541 H 148.319 1.40838 0.677812 0
M  V30 1542 H 149.054 0.809383 3.14037 0
M  V30 1543 H 148.839 2.57436 2.95752 0
M  V30 1544 H 150.329 1.92559 3.70555 0
M  V30 1545 N 150.766 -0.704594 1.40972 0
M  V30 1546 C 152.015 -1.46018 1.39146 0
M  V30 1547 C 152.328 -1.956 0.000589254 0
M  V30 1548 O 153.534 -2.71137 -0.1403 0
M  V30 1549 C 151.99 -2.63996 2.4461 0
M  V30 1550 C 151.598 -2.21238 3.89561 0
M  V30 1551 C 153.342 -3.41677 2.51907 0
M  V30 1552 C 151.249 -3.3612 4.86598 0
M  V30 1553 H 150.179 -0.548444 0.517422 0
M  V30 1554 H 152.83 -0.765784 1.66757 0
M  V30 1555 H 151.212 -3.3566 2.10115 0
M  V30 1556 H 152.386 -1.56923 4.33257 0
M  V30 1557 H 150.701 -1.56574 3.85841 0
M  V30 1558 H 153.298 -4.27182 3.2159 0
M  V30 1559 H 153.641 -3.86247 1.55303 0
M  V30 1560 H 154.174 -2.77064 2.85448 0
M  V30 1561 H 150.913 -2.96572 5.84573 0
M  V30 1562 H 150.433 -3.99315 4.47557 0
M  V30 1563 H 152.112 -4.02029 5.06934 0
M  V30 1564 N 152.244 -1.26651 -0.937939 0
M  V30 1565 C 153.492 -1.12165 -1.68118 0
M  V30 1566 C 153.813 0.334983 -1.92101 0
M  V30 1567 O 153.083 1.23583 -1.52 0
M  V30 1568 H 151.663 -0.412093 -0.623048 0
M  V30 1569 H 154.325 -1.59027 -1.12678 0
M  V30 1570 H 153.421 -1.64289 -2.6536 0
M  V30 1571 N 153.722 1.14298 -1.08507 0
M  V30 1572 C 154.971 1.84708 -0.810305 0
M  V30 1573 C 155.284 1.83903 0.666271 0
M  V30 1574 O 156.49 2.50112 1.05624 0
M  V30 1575 C 154.946 3.31572 -1.39957 0
M  V30 1576 C 154.554 3.40791 -2.90801 0
M  V30 1577 C 156.298 4.07087 -1.20334 0
M  V30 1578 C 154.205 4.81872 -3.4286 0
M  V30 1579 H 153.135 0.691985 -0.299454 0
M  V30 1580 H 155.786 1.28841 -1.30661 0
M  V30 1581 H 154.168 3.87183 -0.830976 0
M  V30 1582 H 155.342 2.95225 -3.53806 0
M  V30 1583 H 153.657 2.78732 -3.0935 0
M  V30 1584 H 156.254 5.11225 -1.56693 0
M  V30 1585 H 156.597 4.16054 -0.143237 0
M  V30 1586 H 157.13 3.57779 -1.73893 0
M  V30 1587 H 153.869 4.78094 -4.48449 0
M  V30 1588 H 153.389 5.27972 -2.84615 0
M  V30 1589 H 155.068 5.50765 -3.39509 0
M  V30 1590 N 155.201 0.870884 1.31352 0
M  V30 1591 C 156.131 0.343096 2.30966 0
M  V30 1592 C 157.112 -0.566507 1.60389 0
M  V30 1593 O 158.297 -0.483336 1.88089 0
M  V30 1594 C 155.427 -0.455487 3.443 0
M  V30 1595 C 154.381 0.361103 4.26474 0
M  V30 1596 C 153.707 -0.563221 5.31725 0
M  V30 1597 C 155.007 1.59566 4.97329 0
M  V30 1598 H 156.701 1.17548 2.75359 0
M  V30 1599 H 154.247 0.566686 1.32381 0
M  V30 1600 H 156.2 -0.83525 4.13039 0
M  V30 1601 H 154.924 -1.32139 2.98675 0
M  V30 1602 H 153.583 0.722825 3.59403 0
M  V30 1603 H 153.231 -1.42643 4.82351 0
M  V30 1604 H 152.931 -0.0207409 5.87596 0
M  V30 1605 H 154.455 -0.939808 6.03324 0
M  V30 1606 H 155.869 1.28728 5.58661 0
M  V30 1607 H 154.266 2.07728 5.63 0
M  V30 1608 H 155.336 2.34798 4.24262 0
M  V30 1609 N 156.679 -1.44442 0.630414 0
M  V30 1610 C 157.589 -2.34476 -0.0761693 0
M  V30 1611 C 158.605 -1.52576 -0.836449 0
M  V30 1612 O 159.781 -1.85307 -0.788874 0
M  V30 1613 C 156.846 -3.30545 -1.04599 0
M  V30 1614 C 155.907 -4.28352 -0.28516 0
M  V30 1615 C 155.14 -5.19831 -1.20878 0
M  V30 1616 O 155.363 -5.15223 -2.44747 0
M  V30 1617 O 154.297 -5.97892 -0.693491 0
M  V30 1618 H 158.123 -2.96345 0.664324 0
M  V30 1619 H 155.708 -1.44203 0.39061 0
M  V30 1620 H 157.59 -3.89681 -1.60396 0
M  V30 1621 H 156.265 -2.7121 -1.76711 0
M  V30 1622 H 155.172 -3.72764 0.315837 0
M  V30 1623 H 156.505 -4.90605 0.395924 0
M  V30 1624 N 158.157 -0.370918 -1.53173 0
M  V30 1625 C 159.067 0.480823 -2.2962 0
M  V30 1626 C 160.083 1.08789 -1.35798 0
M  V30 1627 O 161.259 1.09768 -1.68858 0
M  V30 1628 C 158.324 1.60227 -3.07454 0
M  V30 1629 C 157.385 1.0222 -4.16953 0
M  V30 1630 C 156.618 2.0902 -4.91066 0
M  V30 1631 O 156.841 3.30222 -4.65091 0
M  V30 1632 O 155.775 1.71778 -5.76867 0
M  V30 1633 H 159.601 -0.141421 -3.03371 0
M  V30 1634 H 157.186 -0.135146 -1.48787 0
M  V30 1635 H 159.068 2.25417 -3.56041 0
M  V30 1636 H 157.743 2.20982 -2.36535 0
M  V30 1637 H 156.65 0.334064 -3.72605 0
M  V30 1638 H 157.983 0.459131 -4.90054 0
M  V30 1639 N 159.635 1.57281 -0.100228 0
M  V30 1640 C 160.582 2.14305 0.856858 0
M  V30 1641 C 161.552 1.06296 1.27634 0
M  V30 1642 O 162.737 1.34109 1.35718 0
M  V30 1643 C 159.877 2.73184 2.10866 0
M  V30 1644 C 158.99 3.95442 1.73925 0
M  V30 1645 C 158.125 4.42468 2.93931 0
M  V30 1646 C 157.164 5.57303 2.5314 0
M  V30 1647 N 156.301 5.99158 3.65997 0
M  V30 1648 H 161.141 2.95772 0.363726 0
M  V30 1649 H 158.678 1.46139 0.167858 0
M  V30 1650 H 160.636 3.05442 2.84185 0
M  V30 1651 H 159.266 1.94437 2.57671 0
M  V30 1652 H 158.318 3.69464 0.905554 0
M  V30 1653 H 159.63 4.78769 1.39935 0
M  V30 1654 H 158.784 4.76537 3.75496 0
M  V30 1655 H 157.523 3.58052 3.31134 0
M  V30 1656 H 156.528 5.22857 1.70003 0
M  V30 1657 H 157.753 6.43471 2.17075 0
M  V30 1658 H 155.699 5.17687 4.02909 0
M  V30 1659 H 155.616 6.77295 3.35869 0
M  V30 1660 H 156.884 6.3786 4.48057 0
M  V30 1661 N 161.113 -0.173488 1.56642 0
M  V30 1662 C 162.362 -0.888758 1.81063 0
M  V30 1663 C 162.675 -1.83506 0.67712 0
M  V30 1664 O 163.881 -2.59254 0.806206 0
M  V30 1665 C 162.337 -1.63091 3.20826 0
M  V30 1666 C 161.945 -0.728357 4.4204 0
M  V30 1667 C 163.689 -2.33454 3.54541 0
M  V30 1668 C 161.596 -1.47062 5.72823 0
M  V30 1669 H 160.526 -0.335618 0.675186 0
M  V30 1670 H 163.177 -0.141712 1.82952 0
M  V30 1671 H 161.559 -2.42263 3.13248 0
M  V30 1672 H 162.733 0.0262449 4.60793 0
M  V30 1673 H 161.048 -0.134492 4.16183 0
M  V30 1674 H 163.645 -2.89578 4.49498 0
M  V30 1675 H 163.988 -3.08687 2.79317 0
M  V30 1676 H 164.521 -1.61227 3.63663 0
M  V30 1677 H 161.26 -0.760658 6.51072 0
M  V30 1678 H 160.78 -2.1986 5.58052 0
M  V30 1679 H 162.459 -2.01868 6.14702 0
M  V30 1680 N 162.591 -1.51276 -0.441967 0
M  V30 1681 C 163.816 -1.67799 -1.21895 0
M  V30 1682 C 164.241 -0.372864 -1.84367 0
M  V30 1683 O 163.599 0.666501 -1.68604 0
M  V30 1684 C 163.647 -2.79199 -2.28211 0
M  V30 1685 O 162.751 -2.42479 -3.33583 0
M  V30 1686 H 162.092 -0.559649 -0.357336 0
M  V30 1687 H 164.622 -1.97815 -0.522522 0
M  V30 1688 H 164.632 -3.03146 -2.73069 0
M  V30 1689 H 163.307 -3.73906 -1.82118 0
M  V30 1690 H 161.884 -2.29087 -2.94234 0
M  V30 1691 N 164.069 0.697108 -1.41344 0
M  V30 1692 C 165.001 1.8224 -1.39001 0
M  V30 1693 C 166.014 1.60152 -0.292428 0
M  V30 1694 O 167.203 1.69684 -0.554048 0
M  V30 1695 C 164.303 3.18976 -1.14489 0
M  V30 1696 C 163.476 3.68105 -2.36258 0
M  V30 1697 C 162.535 4.83506 -2.07625 0
M  V30 1698 O 161.561 4.95201 -2.8065 0
M  V30 1699 N 162.763 5.70637 -1.06555 0
M  V30 1700 H 165.528 1.84742 -2.35988 0
M  V30 1701 H 163.089 0.87937 -1.35936 0
M  V30 1702 H 165.081 3.93801 -0.932885 0
M  V30 1703 H 163.651 3.11508 -0.261043 0
M  V30 1704 H 162.871 2.84204 -2.7317 0
M  V30 1705 H 164.159 3.97667 -3.17393 0
M  V30 1706 H 163.557 5.63817 -0.461125 0
M  V30 1707 H 162.114 6.45368 -0.913444 0
M  V30 1708 N 165.547 1.27147 0.931209 0
M  V30 1709 C 166.963 1.04475 1.20653 0
M  V30 1710 C 167.163 -0.223885 2.00252 0
M  V30 1711 O 166.219 -0.930332 2.34736 0
M  V30 1712 C 167.532 2.28209 1.95809 0
M  V30 1713 C 169.08 2.33211 2.08762 0
M  V30 1714 C 169.555 3.56665 2.87323 0
M  V30 1715 N 171.046 3.57201 2.94892 0
M  V30 1716 C 171.781 4.49395 3.56134 0
M  V30 1717 N 171.277 5.51889 4.18796 0
M  V30 1718 N 173.07 4.37026 3.53504 0
M  V30 1719 H 165.221 2.08612 0.399333 0
M  V30 1720 H 167.484 0.917312 0.239253 0
M  V30 1721 H 167.19 3.20538 1.44736 0
M  V30 1722 H 167.064 2.33247 2.96438 0
M  V30 1723 H 169.451 1.41391 2.59023 0
M  V30 1724 H 169.532 2.32178 1.07364 0
M  V30 1725 H 169.176 4.4882 2.37746 0
M  V30 1726 H 169.106 3.54948 3.88998 0
M  V30 1727 H 171.597 2.83074 2.50354 0
M  V30 1728 H 171.91 6.18409 4.63454 0
M  V30 1729 H 170.255 5.55735 4.17353 0
M  V30 1730 H 173.446 3.56166 3.03749 0
M  V30 1731 H 173.619 5.09067 4.00942 0
M  V30 1732 N 167.025 -1.13721 1.09112 0
M  V30 1733 C 168.273 -1.84559 0.823562 0
M  V30 1734 C 168.594 -1.83754 -0.652658 0
M  V30 1735 O 167.864 -1.29102 -1.47342 0
M  V30 1736 H 166.444 -0.683376 0.301673 0
M  V30 1737 H 169.106 -1.37771 1.37859 0
M  V30 1738 H 168.202 -2.8917 1.17419 0
M  V30 1739 N 168.503 -0.877838 -1.30888 0
M  V30 1740 C 169.751 -0.491723 -1.96027 0
M  V30 1741 C 170.072 0.960827 -1.69685 0
M  V30 1742 O 169.342 1.67462 -1.01654 0
M  V30 1743 H 167.922 -0.17885 -0.725273 0
M  V30 1744 H 170.584 -1.11935 -1.59551 0
M  V30 1745 H 169.68 -0.656016 -3.05128 0
M  V30 1746 N 169.982 1.44106 -0.638065 0
M  V30 1747 C 170.929 2.30715 0.062701 0
M  V30 1748 C 171.899 1.43882 0.829883 0
M  V30 1749 O 173.084 1.72775 0.809532 0
M  V30 1750 C 170.224 3.29258 1.03358 0
M  V30 1751 C 169.337 4.31192 0.26409 0
M  V30 1752 C 168.472 5.16825 1.22741 0
M  V30 1753 C 167.511 6.10462 0.447475 0
M  V30 1754 N 166.648 6.8877 1.36161 0
M  V30 1755 H 171.488 2.90096 -0.681781 0
M  V30 1756 H 169.025 1.42925 -0.347988 0
M  V30 1757 H 170.983 3.84886 1.60992 0
M  V30 1758 H 169.613 2.71562 1.74511 0
M  V30 1759 H 168.665 3.77981 -0.428295 0
M  V30 1760 H 169.977 4.97619 -0.343052 0
M  V30 1761 H 169.131 5.77004 1.87487 0
M  V30 1762 H 167.87 4.50488 1.86847 0
M  V30 1763 H 166.875 5.49386 -0.213433 0
M  V30 1764 H 168.1 6.78837 -0.188968 0
M  V30 1765 H 166.046 6.25096 1.98975 0
M  V30 1766 H 165.963 7.51663 0.808656 0
M  V30 1767 H 167.231 7.53467 1.99769 0
M  V30 1768 N 171.46 0.379036 1.52974 0
M  V30 1769 C 172.688 -0.20679 2.05864 0
M  V30 1770 C 173.103 -1.41356 1.25155 0
M  V30 1771 O 172.46 -1.8009 0.295588 0
M  V30 1772 C 172.511 -0.587045 3.56702 0
M  V30 1773 O 172.232 0.571776 4.34353 0
M  V30 1774 C 173.733 -1.22983 4.25899 0
M  V30 1775 H 170.953 -0.0336123 0.670158 0
M  V30 1776 H 173.497 0.541298 1.97206 0
M  V30 1777 H 171.652 -1.28504 3.65466 0
M  V30 1778 H 172.066 0.261544 5.23847 0
M  V30 1779 H 173.54 -1.44635 5.32715 0
M  V30 1780 H 174.017 -2.19416 3.80465 0
M  V30 1781 H 174.623 -0.572892 4.21424 0
M  V30 1782 N 172.938 -1.57226 0.108567 0
M  V30 1783 C 174.184 -1.95121 -0.552761 0
M  V30 1784 C 174.517 -0.991345 -1.66991 0
M  V30 1785 O 173.792 -0.0267211 -1.94482 0
M  V30 1786 C 174.075 -3.43039 -1.09528 0
M  V30 1787 C 173.928 -4.49797 0.0177332 0
M  V30 1788 C 175.247 -3.92567 -1.98945 0
M  V30 1789 H 172.366 -0.709496 -0.199461 0
M  V30 1790 H 175.008 -1.89126 0.182011 0
M  V30 1791 H 173.158 -3.48279 -1.72146 0
M  V30 1792 H 174.83 -4.56661 0.652584 0
M  V30 1793 H 173.073 -4.284 0.682309 0
M  V30 1794 H 173.744 -5.50528 -0.402919 0
M  V30 1795 H 176.22 -3.89565 -1.46214 0
M  V30 1796 H 175.096 -4.96605 -2.33827 0
M  V30 1797 H 175.357 -3.32648 -2.91201 0
M  V30 1798 N 174.416 0.165178 -1.56732 0
M  V30 1799 C 175.664 0.879068 -1.8198 0
M  V30 1800 C 175.985 1.82514 -0.686561 0
M  V30 1801 O 175.255 1.93694 0.293146 0
M  V30 1802 H 173.835 0.327608 -0.671329 0
M  V30 1803 H 176.497 0.163526 -1.94213 0
M  V30 1804 H 175.593 1.45228 -2.76252 0
M  V30 1805 N 175.894 1.51508 0.433938 0
M  V30 1806 C 177.124 1.67914 1.20369 0
M  V30 1807 C 177.532 0.377461 1.85397 0
M  V30 1808 O 176.875 -0.654255 1.71654 0
M  V30 1809 C 176.937 2.74045 2.32679 0
M  V30 1810 C 176.601 4.16543 1.87991 0
M  V30 1811 C 177.598 5.01211 1.38145 0
M  V30 1812 C 175.283 4.6266 1.95579 0
M  V30 1813 C 177.277 6.30056 0.964774 0
M  V30 1814 C 174.964 5.91501 1.53523 0
M  V30 1815 C 175.962 6.75027 1.04055 0
M  V30 1816 O 175.65 8.01459 0.625964 0
M  V30 1817 H 175.382 0.566578 0.368735 0
M  V30 1818 H 177.936 1.98709 0.51999 0
M  V30 1819 H 176.166 2.38572 3.04336 0
M  V30 1820 H 177.855 2.79295 2.94532 0
M  V30 1821 H 178.621 4.66783 1.31675 0
M  V30 1822 H 174.5 3.97767 2.33029 0
M  V30 1823 H 178.044 6.95202 0.57796 0
M  V30 1824 H 173.941 6.25442 1.59665 0
M  V30 1825 H 174.709 8.15043 0.751509 0
M  V30 1826 N 177.372 -0.689602 1.41712 0
M  V30 1827 C 178.618 -1.45041 1.42599 0
M  V30 1828 C 178.973 -1.92366 0.0363764 0
M  V30 1829 O 178.266 -1.67022 -0.938844 0
M  V30 1830 C 178.46 -2.67298 2.37247 0
M  V30 1831 C 178.289 -2.31935 3.85274 0
M  V30 1832 C 177.059 -2.2201 4.53916 0
M  V30 1833 C 179.257 -1.94526 4.76093 0
M  V30 1834 N 177.239 -1.79594 5.87043 0
M  V30 1835 C 178.61 -1.62915 5.98213 0
M  V30 1836 C 180.665 -1.81388 4.63684 0
M  V30 1837 C 179.368 -1.19486 7.09306 0
M  V30 1838 C 181.394 -1.39364 5.74745 0
M  V30 1839 C 180.756 -1.08668 6.95967 0
M  V30 1840 H 176.855 -0.527806 0.577014 0
M  V30 1841 H 179.439 -0.797266 1.77628 0
M  V30 1842 H 177.61 -3.30325 2.04304 0
M  V30 1843 H 179.342 -3.33806 2.28814 0
M  V30 1844 H 176.097 -2.406 4.07932 0
M  V30 1845 H 176.521 -1.60851 6.57614 0
M  V30 1846 H 181.163 -2.03772 3.70455 0
M  V30 1847 H 178.881 -0.958477 8.02396 0
M  V30 1848 H 182.467 -1.2974 5.6715 0
M  V30 1849 H 181.347 -0.766417 7.80446 0
M  V30 1850 N 178.85 -1.27639 -0.924453 0
M  V30 1851 C 180.075 -1.17101 -1.71179 0
M  V30 1852 C 180.5 0.268134 -1.86179 0
M  V30 1853 O 179.858 1.19415 -1.36418 0
M  V30 1854 C 179.906 -1.86313 -3.08739 0
M  V30 1855 O 179.01 -1.16331 -3.95652 0
M  V30 1856 H 178.351 -0.407091 -0.524569 0
M  V30 1857 H 180.881 -1.68767 -1.15666 0
M  V30 1858 H 180.891 -1.938 -3.59034 0
M  V30 1859 H 179.566 -2.91001 -2.97138 0
M  V30 1860 H 178.143 -1.16935 -3.54091 0
M  V30 1861 N 180.328 1.1314 -1.09713 0
M  V30 1862 C 181.556 1.88321 -0.856898 0
M  V30 1863 C 181.971 1.79276 0.592073 0
M  V30 1864 O 181.328 1.16142 1.40774 0
M  V30 1865 C 181.379 3.37812 -1.28706 0
M  V30 1866 O 181.1 3.46627 -2.67921 0
M  V30 1867 C 182.601 4.29952 -1.07964 0
M  V30 1868 H 179.821 0.596094 -0.308079 0
M  V30 1869 H 182.365 1.43205 -1.45988 0
M  V30 1870 H 180.52 3.805 -0.727912 0
M  V30 1871 H 180.934 4.39579 -2.8613 0
M  V30 1872 H 182.408 5.33159 -1.42986 0
M  V30 1873 H 182.885 4.39196 -0.0176577 0
M  V30 1874 H 183.491 3.93036 -1.62489 0
M  V30 1875 N 181.806 0.884767 1.30421 0
M  V30 1876 C 183.083 0.423185 1.90967 0
M  V30 1877 C 183.463 -1.09605 1.80416 0
M  V30 1878 O 182.811 -1.93126 1.22125 0
M  V30 1879 C 183.021 0.921056 3.36627 0
M  V30 1880 C 184.369 0.955903 4.137 0
M  V30 1881 O 185.393 0.867706 3.4547 0
M  V30 1882 O 184.252 1.08614 5.35598 0
M  V30 1883 H 181.346 0.129369 0.816819 0
M  V30 1884 H 183.892 0.973653 1.3899 0
M  V30 1885 H 182.664 1.96489 3.3839 0
M  V30 1886 H 182.287 0.349741 3.96059 0
M  V30 1887 N 183.284 -1.43765 0.645699 0
M  V30 1888 C 184.532 -2.01499 0.155731 0
M  V30 1889 C 184.853 -1.51151 -1.232 0
M  V30 1890 O 184.123 -0.721044 -1.82148 0
M  V30 1891 H 182.703 -0.745003 0.0545817 0
M  V30 1892 H 185.365 -1.76075 0.835677 0
M  V30 1893 H 184.461 -3.1181 0.134577 0
M  V30 1894 N 184.763 -0.387143 -1.52771 0
M  V30 1895 C 185.993 0.195585 -2.05672 0
M  V30 1896 C 186.401 1.41241 -1.25887 0
M  V30 1897 O 185.744 1.81265 -0.298081 0
M  V30 1898 C 185.806 0.632327 -3.53895 0
M  V30 1899 C 185.47 -0.470739 -4.54569 0
M  V30 1900 C 186.467 -1.32746 -5.02667 0
M  V30 1901 C 184.152 -0.637151 -4.98243 0
M  V30 1902 C 186.146 -2.33574 -5.93061 0
M  V30 1903 C 183.833 -1.64877 -5.88438 0
M  V30 1904 C 184.831 -2.49649 -6.35739 0
M  V30 1905 O 184.519 -3.49082 -7.24153 0
M  V30 1906 H 184.251 0.033658 -0.675162 0
M  V30 1907 H 186.805 -0.550221 -1.97893 0
M  V30 1908 H 185.035 1.43008 -3.59285 0
M  V30 1909 H 186.724 1.14048 -3.89548 0
M  V30 1910 H 187.49 -1.21019 -4.69659 0
M  V30 1911 H 183.369 0.0129567 -4.60998 0
M  V30 1912 H 186.913 -2.99777 -6.29904 0
M  V30 1913 H 182.81 -1.76643 -6.2086 0
M  V30 1914 H 183.578 -3.45065 -7.42208 0
M  V30 1915 N 186.241 1.57166 -0.116904 0
M  V30 1916 C 187.518 1.86645 0.585049 0
M  V30 1917 C 187.898 1.0177 1.84949 0
M  V30 1918 O 187.246 0.0960379 2.28298 0
M  V30 1919 C 187.456 3.37736 0.879507 0
M  V30 1920 C 188.804 4.06289 1.23348 0
M  V30 1921 O 189.828 3.42743 0.969836 0
M  V30 1922 O 188.687 5.18455 1.7282 0
M  V30 1923 H 185.781 0.772593 0.295007 0
M  V30 1924 H 188.327 1.69025 -0.151249 0
M  V30 1925 H 187.099 3.91296 -0.0166136 0
M  V30 1926 H 186.722 3.6078 1.67103 0
M  V30 1927 N 187.719 -0.156864 1.56817 0
M  V30 1928 C 188.966 -0.871125 1.82805 0
M  V30 1929 C 189.294 -1.81611 0.696262 0
M  V30 1930 O 188.549 -1.93141 -0.315459 0
M  V30 1931 C 188.848 -1.68737 3.1506 0
M  V30 1932 C 188.514 -0.890045 4.42028 0
M  V30 1933 C 187.176 -0.670042 4.76512 0
M  V30 1934 C 189.528 -0.331769 5.20143 0
M  V30 1935 C 186.856 0.119104 5.86579 0
M  V30 1936 C 189.208 0.444365 6.31037 0
M  V30 1937 C 187.872 0.675035 6.64078 0
M  V30 1938 H 187.142 -0.318767 0.668931 0
M  V30 1939 H 189.789 -0.135274 1.91022 0
M  V30 1940 H 188.094 -2.49304 3.0225 0
M  V30 1941 H 189.791 -2.24331 3.3238 0
M  V30 1942 H 186.381 -1.07157 4.14988 0
M  V30 1943 H 190.565 -0.489043 4.93885 0
M  V30 1944 H 185.821 0.307417 6.10627 0
M  V30 1945 H 189.995 0.884139 6.90765 0
M  V30 1946 H 187.622 1.28839 7.49203 0
M  V30 1947 N 189.197 -1.51736 -0.425897 0
M  V30 1948 C 190.145 -1.74464 -1.53834 0
M  V30 1949 C 191.139 -0.611241 -1.57988 0
M  V30 1950 O 192.345 -0.792899 -1.61596 0
M  V30 1951 H 188.72 -0.551437 -0.511293 0
M  V30 1952 H 190.691 -2.67694 -1.31843 0
M  V30 1953 C 189.44 -1.8972 -2.91379 0
M  V30 1954 H 188.763 -2.76344 -2.88919 0
M  V30 1955 H 190.203 -2.09629 -3.68553 0
M  V30 1956 C 188.662 -0.65992 -3.30374 0
M  V30 1957 O 189.192 0.180083 -4.01296 0
M  V30 1958 N 187.398 -0.500677 -2.86254 0
M  V30 1959 H 186.945 -1.18532 -2.28709 0
M  V30 1960 H 186.903 0.325903 -3.12706 0
M  V30 1961 N 190.675 0.682077 -1.42076 0
M  V30 1962 C 191.952 1.43755 -1.32642 0
M  V30 1963 C 192.332 2.11063 0.0396611 0
M  V30 1964 O 191.68 2.02701 1.05474 0
M  V30 1965 C 191.89 2.44596 -2.48946 0
M  V30 1966 C 193.238 3.09454 -2.9073 0
M  V30 1967 O 194.262 2.54922 -2.48783 0
M  V30 1968 O 193.121 4.08253 -3.63307 0
M  V30 1969 H 190.215 0.640857 -0.522715 0
M  V30 1970 H 192.761 0.711415 -1.54068 0
M  V30 1971 H 191.533 1.93609 -3.40046 0
M  V30 1972 H 191.156 3.24701 -2.29467 0
M  V30 1973 N 192.153 1.28127 0.917671 0
M  V30 1974 C 193.378 1.18007 1.70555 0
M  V30 1975 C 193.803 -0.258257 1.86319 0
M  V30 1976 O 193.161 -1.1869 1.37049 0
M  V30 1977 C 193.209 1.87948 3.07746 0
M  V30 1978 O 192.313 1.18427 3.9503 0
M  V30 1979 H 191.654 0.409867 0.522403 0
M  V30 1980 H 194.184 1.69379 1.1477 0
M  V30 1981 H 194.194 1.95701 3.58001 0
M  V30 1982 H 192.869 2.92573 2.95591 0
M  V30 1983 H 191.446 1.18811 3.53466 0
M  V30 1984 N 193.631 -1.12557 1.10312 0
M  V30 1985 C 194.578 -2.18247 0.750781 0
M  V30 1986 C 195.548 -1.63853 -0.272293 0
M  V30 1987 O 196.733 -1.90195 -0.151862 0
M  V30 1988 C 193.873 -3.44591 0.187379 0
M  V30 1989 C 192.986 -4.13046 1.2656 0
M  V30 1990 C 192.121 -5.27034 0.663978 0
M  V30 1991 C 191.16 -5.87353 1.72287 0
M  V30 1992 N 190.297 -6.92757 1.1416 0
M  V30 1993 H 195.137 -2.47732 1.65628 0
M  V30 1994 H 192.674 -1.21629 0.827337 0
M  V30 1995 H 194.632 -4.16904 -0.157148 0
M  V30 1996 H 193.262 -3.15527 -0.681355 0
M  V30 1997 H 192.314 -3.38924 1.72727 0
M  V30 1998 H 193.626 -4.53947 2.06721 0
M  V30 1999 H 192.78 -6.06104 0.268824 0
M  V30 2000 H 191.519 -4.87407 -0.169082 0
M  V30 2001 H 190.524 -5.06971 2.12746 0
M  V30 2002 H 191.749 -6.29051 2.55875 0
M  V30 2003 H 189.695 -6.5517 0.329984 0
M  V30 2004 H 189.612 -7.3225 1.88007 0
M  V30 2005 H 190.88 -7.75658 0.772956 0
M  V30 2006 N 195.109 -0.891671 -1.2995 0
M  V30 2007 C 196.072 -0.36828 -2.26222 0
M  V30 2008 C 197.072 0.493014 -1.53056 0
M  V30 2009 O 198.262 0.299213 -1.71611 0
M  V30 2010 C 195.394 0.47442 -3.37583 0
M  V30 2011 H 196.587 -1.21844 -2.74033 0
M  V30 2012 H 194.14 -0.669107 -1.41254 0
M  V30 2013 H 194.875 1.34489 -2.95099 0
M  V30 2014 H 194.66 -0.142615 -3.91841 0
M  V30 2015 H 196.15 0.83218 -4.09224 0
M  V30 2016 N 196.587 1.43421 -0.653314 0
M  V30 2017 C 197.517 2.33487 0.0246656 0
M  V30 2018 C 198.498 1.49475 0.811863 0
M  V30 2019 O 199.683 1.78139 0.773322 0
M  V30 2020 C 196.813 3.32841 0.99166 0
M  V30 2021 C 195.767 4.26842 0.314568 0
M  V30 2022 C 195.093 5.16236 1.39302 0
M  V30 2023 C 196.393 5.16243 -0.793095 0
M  V30 2024 H 198.087 2.90427 -0.727481 0
M  V30 2025 H 195.633 1.39649 -0.351287 0
M  V30 2026 H 197.586 3.94747 1.47487 0
M  V30 2027 H 196.31 2.74158 1.77497 0
M  V30 2028 H 194.969 3.663 -0.148199 0
M  V30 2029 H 194.617 4.53891 2.16776 0
M  V30 2030 H 194.317 5.79948 0.945223 0
M  V30 2031 H 195.841 5.81015 1.87759 0
M  V30 2032 H 197.255 5.71958 -0.392039 0
M  V30 2033 H 195.652 5.88676 -1.16536 0
M  V30 2034 H 196.722 4.55927 -1.65103 0
M  V30 2035 N 198.065 0.39524 1.52563 0
M  V30 2036 C 199.481 0.0454682 1.59535 0
M  V30 2037 C 199.681 -1.44056 1.4089 0
M  V30 2038 O 198.737 -2.20579 1.22888 0
M  V30 2039 C 200.05 0.527963 2.96029 0
M  V30 2040 C 201.598 0.484733 3.09224 0
M  V30 2041 C 202.073 0.943512 4.48176 0
M  V30 2042 N 203.564 0.899765 4.54377 0
M  V30 2043 C 204.299 1.22609 5.60138 0
M  V30 2044 N 203.795 1.62319 6.73516 0
M  V30 2045 N 205.588 1.14696 5.50274 0
M  V30 2046 H 197.739 1.36261 1.62931 0
M  V30 2047 H 200.002 0.558887 0.765735 0
M  V30 2048 H 199.708 1.56607 3.14908 0
M  V30 2049 H 199.582 -0.0698056 3.77135 0
M  V30 2050 H 201.969 -0.544298 2.90037 0
M  V30 2051 H 202.05 1.11838 2.30056 0
M  V30 2052 H 201.694 1.9708 4.68104 0
M  V30 2053 H 201.624 0.286817 5.25818 0
M  V30 2054 H 204.115 0.607632 3.72983 0
M  V30 2055 H 204.428 1.85567 7.5019 0
M  V30 2056 H 202.773 1.66211 6.74833 0
M  V30 2057 H 205.964 0.835701 4.6058 0
M  V30 2058 H 206.137 1.40459 6.32594 0
M  V30 2059 N 199.544 -1.57102 0.125237 0
M  V30 2060 C 200.492 -2.16905 -0.839927 0
M  V30 2061 C 201.486 -1.11998 -1.27094 0
M  V30 2062 O 202.692 -1.3029 -1.24195 0
M  V30 2063 H 199.067 -0.694252 -0.288995 0
M  V30 2064 H 201.038 -2.96774 -0.311115 0
M  V30 2065 C 199.787 -2.78795 -2.07771 0
M  V30 2066 H 199.11 -3.59221 -1.755 0
M  V30 2067 H 200.55 -3.2417 -2.73295 0
M  V30 2068 C 199.009 -1.76193 -2.87155 0
M  V30 2069 O 199.539 -1.21909 -3.82755 0
M  V30 2070 N 197.745 -1.45991 -2.51267 0
M  V30 2071 H 197.292 -1.90325 -1.73592 0
M  V30 2072 H 197.25 -0.775844 -3.04677 0
M  V30 2073 N 201.022 0.148545 -1.56898 0
M  V30 2074 C 202.27 0.859717 -1.82902 0
M  V30 2075 C 202.591 1.81775 -0.70588 0
M  V30 2076 O 201.861 1.93994 0.272586 0
M  V30 2077 H 200.441 0.320469 -0.674766 0
M  V30 2078 H 203.103 0.142918 -1.94375 0
M  V30 2079 H 202.199 1.4229 -2.77777 0
M  V30 2080 N 202.5 1.5196 0.417844 0
M  V30 2081 C 203.447 1.74678 1.50852 0
M  V30 2082 C 204.417 0.588947 1.55308 0
M  V30 2083 O 205.602 0.825544 1.72016 0
M  V30 2084 C 202.742 1.89544 2.88387 0
M  V30 2085 C 201.855 3.17166 2.93309 0
M  V30 2086 C 200.99 3.22513 4.22088 0
M  V30 2087 C 200.029 4.44372 4.20951 0
M  V30 2088 N 199.166 4.47161 5.41287 0
M  V30 2089 H 204.006 2.67768 1.30783 0
M  V30 2090 H 201.543 1.32689 0.63498 0
M  V30 2091 H 203.501 1.96146 3.68216 0
M  V30 2092 H 202.131 0.998424 3.06971 0
M  V30 2093 H 201.183 3.19778 2.06024 0
M  V30 2094 H 202.495 4.07021 2.88332 0
M  V30 2095 H 201.649 3.28139 5.10303 0
M  V30 2096 H 200.388 2.30581 4.29748 0
M  V30 2097 H 199.393 4.38902 3.31127 0
M  V30 2098 H 200.618 5.3759 4.14938 0
M  V30 2099 H 198.564 3.58108 5.49632 0
M  V30 2100 H 198.481 5.3085 5.3827 0
M  V30 2101 H 199.749 4.57005 6.3148 0
M  V30 2102 N 203.978 -0.674533 1.42435 0
M  V30 2103 C 205.225 -1.43459 1.42919 0
M  V30 2104 C 205.553 -1.94446 0.0457312 0
M  V30 2105 O 204.808 -1.7132 -0.94593 0
M  V30 2106 C 205.107 -2.64767 2.40069 0
M  V30 2107 C 204.773 -2.3232 3.86443 0
M  V30 2108 C 203.435 -2.23182 4.26314 0
M  V30 2109 C 205.787 -2.05977 4.78773 0
M  V30 2110 C 203.115 -1.85827 5.56494 0
M  V30 2111 C 205.467 -1.70125 6.09295 0
M  V30 2112 C 204.131 -1.59498 6.48164 0
M  V30 2113 H 203.401 -0.524952 0.522978 0
M  V30 2114 H 206.048 -0.769097 1.75377 0
M  V30 2115 H 204.353 -3.36349 2.00939 0
M  V30 2116 H 206.05 -3.22949 2.37707 0
M  V30 2117 H 202.64 -2.40334 3.54877 0
M  V30 2118 H 206.824 -2.11969 4.48757 0
M  V30 2119 H 202.08 -1.76168 5.8547 0
M  V30 2120 H 206.254 -1.48767 6.80324 0
M  V30 2121 H 203.881 -1.30322 7.48946 0
M  V30 2122 N 205.456 -1.28612 -0.910864 0
M  V30 2123 C 206.702 -1.16106 -1.66274 0
M  V30 2124 C 207.035 0.289113 -1.92036 0
M  V30 2125 O 206.31 1.21 -1.52281 0
M  V30 2126 C 206.593 -1.96309 -3.01885 0
M  V30 2127 C 206.446 -3.49405 -2.8326 0
M  V30 2128 C 207.765 -1.78076 -4.02463 0
M  V30 2129 H 204.884 -0.423152 -0.603417 0
M  V30 2130 H 207.526 -1.57961 -1.05586 0
M  V30 2131 H 205.676 -1.60742 -3.53687 0
M  V30 2132 H 207.348 -3.94894 -2.38446 0
M  V30 2133 H 205.591 -3.74893 -2.18261 0
M  V30 2134 H 206.262 -4.00784 -3.79574 0
M  V30 2135 H 208.738 -2.0912 -3.59733 0
M  V30 2136 H 207.614 -2.36561 -4.95308 0
M  V30 2137 H 207.875 -0.733008 -4.35981 0
M  V30 2138 N 206.934 1.1197 -1.10907 0
M  V30 2139 C 208.182 1.83225 -0.852819 0
M  V30 2140 C 208.503 1.84769 0.623341 0
M  V30 2141 O 207.773 1.3143 1.45269 0
M  V30 2142 H 206.353 0.67849 -0.312507 0
M  V30 2143 H 209.015 1.3556 -1.40033 0
M  V30 2144 H 208.111 2.87265 -1.22005 0
M  V30 2145 N 208.412 0.89855 1.29475 0
M  V30 2146 C 209.342 0.39201 2.30186 0
M  V30 2147 C 210.323 -0.532359 1.61555 0
M  V30 2148 O 211.508 -0.443331 1.89072 0
M  V30 2149 C 208.638 -0.382353 3.45189 0
M  V30 2150 C 207.592 0.451483 4.25612 0
M  V30 2151 C 206.918 -0.450307 5.328 0
M  V30 2152 C 208.218 1.70079 4.93832 0
M  V30 2153 H 209.912 1.23362 2.72804 0
M  V30 2154 H 207.458 0.594638 1.31149 0
M  V30 2155 H 209.411 -0.747451 4.14718 0
M  V30 2156 H 208.135 -1.25774 3.01411 0
M  V30 2157 H 206.794 0.798897 3.57789 0
M  V30 2158 H 206.442 -1.32379 4.85268 0
M  V30 2159 H 206.142 0.103902 5.87508 0
M  V30 2160 H 207.666 -0.811623 6.05182 0
M  V30 2161 H 209.08 1.40549 5.55805 0
M  V30 2162 H 207.477 2.19623 5.58467 0
M  V30 2163 H 208.547 2.43744 4.19186 0
M  V30 2164 N 209.89 -1.43072 0.660911 0
M  V30 2165 C 210.853 -2.29194 -0.0166406 0
M  V30 2166 C 211.853 -1.42609 -0.742912 0
M  V30 2167 O 213.043 -1.64155 -0.583004 0
M  V30 2168 C 210.175 -3.24831 -1.0343 0
M  V30 2169 H 211.368 -2.90596 0.741208 0
M  V30 2170 H 208.921 -1.5048 0.422532 0
M  V30 2171 H 209.656 -2.68339 -1.82111 0
M  V30 2172 H 209.441 -3.88676 -0.517082 0
M  V30 2173 H 210.931 -3.89451 -1.50723 0
M  V30 2174 N 211.368 -0.403325 -1.52352 0
M  V30 2175 C 212.298 0.416205 -2.29761 0
M  V30 2176 C 213.279 1.05123 -1.33728 0
M  V30 2177 O 214.464 1.06134 -1.62632 0
M  V30 2178 C 211.594 1.53624 -3.11475 0
M  V30 2179 C 210.548 1.02653 -4.15507 0
M  V30 2180 C 209.874 2.23971 -4.85532 0
M  V30 2181 C 211.174 0.08463 -5.22231 0
M  V30 2182 H 212.868 -0.229701 -2.98518 0
M  V30 2183 H 210.414 -0.111913 -1.43564 0
M  V30 2184 H 212.367 2.1165 -3.64393 0
M  V30 2185 H 211.091 2.20994 -2.40477 0
M  V30 2186 H 209.75 0.46871 -3.63591 0
M  V30 2187 H 209.398 2.89883 -4.11068 0
M  V30 2188 H 209.098 1.90521 -5.55856 0
M  V30 2189 H 210.622 2.82614 -5.41259 0
M  V30 2190 H 212.036 0.573509 -5.70424 0
M  V30 2191 H 210.433 -0.160783 -5.99885 0
M  V30 2192 H 211.503 -0.86237 -4.7717 0
M  V30 2193 N 212.846 1.57033 -0.133567 0
M  V30 2194 C 214.123 1.87256 0.56522 0
M  V30 2195 C 214.503 1.03726 1.83859 0
M  V30 2196 O 213.851 0.120247 2.28183 0
M  V30 2197 C 214.061 3.3865 0.843636 0
M  V30 2198 C 215.409 4.07574 1.19032 0
M  V30 2199 O 216.433 3.43752 0.933429 0
M  V30 2200 O 215.292 5.20259 1.67312 0
M  V30 2201 H 212.386 0.775678 0.286796 0
M  V30 2202 H 214.932 1.68855 -0.169168 0
M  V30 2203 H 213.704 3.91257 -0.0581149 0
M  V30 2204 H 213.327 3.62532 1.63268 0
M  V30 2205 N 214.325 -0.140222 1.56975 0
M  V30 2206 C 215.235 -1.19223 2.02047 0
M  V30 2207 C 216.251 -1.46612 0.937062 0
M  V30 2208 O 217.427 -1.58148 1.24704 0
M  V30 2209 C 214.492 -2.50414 2.39778 0
M  V30 2210 C 213.553 -2.30612 3.621 0
M  V30 2211 C 212.786 -3.55547 3.98023 0
M  V30 2212 O 213.009 -4.62004 3.34528 0
M  V30 2213 O 211.943 -3.47808 4.91237 0
M  V30 2214 H 215.769 -0.839559 2.91865 0
M  V30 2215 H 213.354 -0.349453 1.45256 0
M  V30 2216 H 215.236 -3.27747 2.64877 0
M  V30 2217 H 213.911 -2.85198 1.53114 0
M  V30 2218 H 212.818 -1.51207 3.4218 0
M  V30 2219 H 214.151 -2.00741 4.49404 0
M  V30 2220 N 215.803 -1.52179 -0.40978 0
M  V30 2221 C 217.08 -1.56769 -1.16974 0
M  V30 2222 C 217.46 -0.348322 -2.08206 0
M  V30 2223 O 216.808 0.664862 -2.18613 0
M  V30 2224 C 217.018 -2.89603 -1.9476 0
M  V30 2225 C 218.366 -3.42579 -2.50849 0
M  V30 2226 O 219.39 -2.91338 -2.04941 0
M  V30 2227 O 218.249 -4.32054 -3.34652 0
M  V30 2228 H 215.343 -0.631439 -0.534054 0
M  V30 2229 H 217.889 -1.64507 -0.416613 0
M  V30 2230 H 216.661 -3.698 -1.27921 0
M  V30 2231 H 216.284 -2.85155 -2.77079 0
M  V30 2232 N 217.281 0.66697 -1.42791 0
M  V30 2233 C 218.229 1.80157 -1.47127 0
M  V30 2234 C 219.223 1.65825 -0.346199 0
M  V30 2235 O 220.429 1.72338 -0.519572 0
M  V30 2236 H 216.804 0.594158 -0.460956 0
M  V30 2237 H 218.775 1.73619 -2.42692 0
M  V30 2238 C 217.524 3.18351 -1.39813 0
M  V30 2239 H 216.847 3.3001 -2.25684 0
M  V30 2240 H 218.287 3.97736 -1.46908 0
M  V30 2241 C 216.746 3.36707 -0.11391 0
M  V30 2242 O 217.276 3.93027 0.830241 0
M  V30 2243 N 215.482 2.90586 -0.0285295 0
M  V30 2244 H 215.029 2.4494 -0.79764 0
M  V30 2245 H 214.987 3.03245 0.830063 0
M  V30 2246 N 218.759 1.29093 0.90403 0
M  V30 2247 C 219.691 1.09658 2.01266 0
M  V30 2248 C 220.704 0.0453729 1.62737 0
M  V30 2249 O 221.893 0.289446 1.76138 0
M  V30 2250 C 218.993 0.646278 3.32681 0
M  V30 2251 C 218.166 1.77505 3.99763 0
M  V30 2252 C 217.225 1.31649 5.09465 0
M  V30 2253 O 216.251 2.02045 5.32134 0
M  V30 2254 N 217.453 0.184997 5.80205 0
M  V30 2255 H 220.218 2.05135 2.18494 0
M  V30 2256 H 217.779 1.20975 1.07594 0
M  V30 2257 H 219.771 0.322906 4.0341 0
M  V30 2258 H 218.341 -0.215916 3.11853 0
M  V30 2259 H 217.561 2.26752 3.22455 0
M  V30 2260 H 218.849 2.53198 4.41325 0
M  V30 2261 H 218.247 -0.402021 5.6427 0
M  V30 2262 H 216.804 -0.0790358 6.51752 0
M  V30 2263 N 220.237 -1.11381 1.11499 0
M  V30 2264 C 221.462 -1.87475 0.887019 0
M  V30 2265 C 221.887 -1.79639 -0.557796 0
M  V30 2266 O 221.245 -1.15924 -1.39396 0
M  V30 2267 C 221.293 -3.34213 1.35403 0
M  V30 2268 O 220.397 -4.0903 0.526146 0
M  V30 2269 H 219.738 -0.582099 0.319463 0
M  V30 2270 H 222.268 -1.40785 1.48461 0
M  V30 2271 H 222.278 -3.8506 1.34881 0
M  V30 2272 H 220.953 -3.39232 2.40612 0
M  V30 2273 H 219.53 -3.68082 0.597522 0
M  V30 2274 N 221.715 -0.905404 -1.28997 0
M  V30 2275 C 222.992 -0.453513 -1.9027 0
M  V30 2276 C 223.372 1.06721 -1.82137 0
M  V30 2277 O 222.72 1.91159 -1.25182 0
M  V30 2278 C 222.93 -0.974494 -3.35119 0
M  V30 2279 C 224.278 -1.0216 -4.12127 0
M  V30 2280 O 225.302 -0.922557 -3.44046 0
M  V30 2281 O 224.161 -1.17121 -5.33802 0
M  V30 2282 H 221.255 -0.142347 -0.814657 0
M  V30 2283 H 223.801 -0.995642 -1.37423 0
M  V30 2284 H 222.573 -2.01848 -3.35221 0
M  V30 2285 H 222.196 -0.412706 -3.95452 0
M  V30 2286 N 223.193 1.4272 -0.668489 0
M  V30 2287 C 224.123 2.335 -0.000100175 0
M  V30 2288 C 225.104 1.50328 0.795964 0
M  V30 2289 O 226.289 1.78949 0.754385 0
M  V30 2290 C 223.419 3.33874 0.956302 0
M  V30 2291 C 222.373 4.27152 0.269278 0
M  V30 2292 C 221.699 5.17684 1.33818 0
M  V30 2293 C 222.999 5.15373 -0.847805 0
M  V30 2294 H 224.693 2.89639 -0.758244 0
M  V30 2295 H 222.239 1.39269 -0.366079 0
M  V30 2296 H 224.192 3.9629 1.43292 0
M  V30 2297 H 222.916 2.76025 1.74579 0
M  V30 2298 H 221.575 3.66123 -0.187042 0
M  V30 2299 H 221.223 4.56165 2.1195 0
M  V30 2300 H 220.923 5.80918 0.883659 0
M  V30 2301 H 222.447 5.82974 1.81586 0
M  V30 2302 H 223.861 5.7151 -0.452681 0
M  V30 2303 H 222.258 5.87407 -1.22773 0
M  V30 2304 H 223.328 4.5415 -1.69929 0
M  V30 2305 N 224.671 0.411399 1.52136 0
M  V30 2306 C 225.899 -0.163076 2.06256 0
M  V30 2307 C 226.314 -1.3867 1.28125 0
M  V30 2308 O 225.671 -1.79423 0.333721 0
M  V30 2309 C 225.722 -0.511252 3.57867 0
M  V30 2310 O 225.443 0.66378 4.33042 0
M  V30 2311 C 226.944 -1.13921 4.28412 0
M  V30 2312 H 224.164 -0.0193897 0.67072 0
M  V30 2313 H 226.708 0.583007 1.96013 0
M  V30 2314 H 224.863 -1.20723 3.6811 0
M  V30 2315 H 225.277 0.372601 5.23175 0
M  V30 2316 H 226.751 -1.33302 5.35663 0
M  V30 2317 H 227.228 -2.11296 3.85033 0
M  V30 2318 H 227.834 -0.483373 4.22544 0
M  V30 2319 N 226.149 -1.5696 0.141893 0
M  V30 2320 C 227.426 -1.87553 -0.555281 0
M  V30 2321 C 227.806 -1.04699 -1.83306 0
M  V30 2322 O 227.154 -0.132346 -2.28116 0
M  V30 2323 C 227.364 -3.39093 -0.825664 0
M  V30 2324 C 228.712 -4.08199 -1.16869 0
M  V30 2325 O 229.736 -3.44242 -0.915185 0
M  V30 2326 O 228.595 -5.21139 -1.6455 0
M  V30 2327 H 225.689 -0.777188 -0.282679 0
M  V30 2328 H 228.235 -1.68763 0.17812 0
M  V30 2329 H 227.007 -3.91221 0.0788633 0
M  V30 2330 H 226.63 -3.63393 -1.61343 0
M  V30 2331 N 227.627 0.131896 -1.57047 0
M  V30 2332 C 228.904 0.871495 -1.75112 0
M  V30 2333 C 229.284 1.9866 -0.713949 0
M  V30 2334 O 228.632 2.26965 0.264447 0
M  V30 2335 C 228.842 1.40007 -3.19686 0
M  V30 2336 C 230.19 1.85752 -3.81813 0
M  V30 2337 O 231.214 1.49715 -3.23209 0
M  V30 2338 O 230.073 2.5226 -4.84796 0
M  V30 2339 H 227.167 0.412919 -0.716538 0
M  V30 2340 H 229.713 0.116641 -1.69299 0
M  V30 2341 H 228.485 0.599404 -3.86682 0
M  V30 2342 H 228.108 2.218 -3.29986 0
M  V30 2343 N 229.106 1.52395 0.401703 0
M  V30 2344 C 230.522 1.41363 0.740864 0
M  V30 2345 C 230.722 0.523982 1.94568 0
M  V30 2346 O 229.778 -0.00741204 2.52499 0
M  V30 2347 C 231.091 2.84011 0.987847 0
M  V30 2348 C 232.639 2.93404 1.09011 0
M  V30 2349 C 233.114 4.37036 1.3698 0
M  V30 2350 N 234.605 4.40304 1.43829 0
M  V30 2351 C 235.34 5.48508 1.67112 0
M  V30 2352 N 234.836 6.66819 1.87949 0
M  V30 2353 N 236.629 5.36034 1.69187 0
M  V30 2354 H 228.78 2.08765 -0.391262 0
M  V30 2355 H 231.043 0.941265 -0.112798 0
M  V30 2356 H 230.749 3.51265 0.174835 0
M  V30 2357 H 230.623 3.25502 1.906 0
M  V30 2358 H 233.01 2.26325 1.8937 0
M  V30 2359 H 233.091 2.55359 0.15015 0
M  V30 2360 H 232.735 5.04676 0.571353 0
M  V30 2361 H 232.665 4.72623 2.3224 0
M  V30 2362 H 235.156 3.55024 1.29486 0
M  V30 2363 H 235.469 7.45063 2.05185 0
M  V30 2364 H 233.814 6.6987 1.85199 0
M  V30 2365 H 237.005 4.42579 1.52451 0
M  V30 2366 H 237.178 6.20434 1.86993 0
M  V30 2367 N 230.584 -0.659388 1.43143 0
M  V30 2368 C 231.833 -1.41518 1.43721 0
M  V30 2369 C 232.146 -1.95499 0.0628176 0
M  V30 2370 O 233.352 -2.71446 -0.0539683 0
M  V30 2371 C 231.808 -2.5608 2.52885 0
M  V30 2372 C 231.416 -2.08733 3.96402 0
M  V30 2373 C 233.16 -3.3349 2.62649 0
M  V30 2374 C 231.067 -3.20469 4.97045 0
M  V30 2375 H 229.997 -0.531705 0.534608 0
M  V30 2376 H 232.648 -0.712343 1.69109 0
M  V30 2377 H 231.03 -3.28805 2.20688 0
M  V30 2378 H 232.204 -1.43059 4.3803 0
M  V30 2379 H 230.519 -1.44219 3.90627 0
M  V30 2380 H 233.116 -4.16734 3.35017 0
M  V30 2381 H 233.459 -3.8111 1.67513 0
M  V30 2382 H 233.992 -2.67842 2.94118 0
M  V30 2383 H 230.731 -2.77824 5.93712 0
M  V30 2384 H 230.251 -3.84874 4.60034 0
M  V30 2385 H 231.93 -3.85698 5.19467 0
M  V30 2386 N 232.062 -1.29571 -0.897171 0
M  V30 2387 C 233.009 -1.14916 -2.00158 0
M  V30 2388 C 233.979 -0.0418149 -1.66047 0
M  V30 2389 O 235.164 -0.209793 -1.89643 0
M  V30 2390 C 232.304 -0.834307 -3.34863 0
M  V30 2391 C 231.417 -2.02234 -3.8174 0
M  V30 2392 C 230.552 -1.64664 -5.05034 0
M  V30 2393 C 229.591 -2.80033 -5.44286 0
M  V30 2394 N 228.728 -2.42843 -6.58765 0
M  V30 2395 H 233.568 -2.09403 -2.12025 0
M  V30 2396 H 231.105 -1.042 -1.0383 0
M  V30 2397 H 233.063 -0.632436 -4.12379 0
M  V30 2398 H 231.693 0.0736656 -3.22716 0
M  V30 2399 H 230.745 -2.33583 -3.00238 0
M  V30 2400 H 232.057 -2.88673 -4.06779 0
M  V30 2401 H 231.211 -1.4078 -5.9014 0
M  V30 2402 H 229.95 -0.753766 -4.8184 0
M  V30 2403 H 228.955 -3.04596 -4.57713 0
M  V30 2404 H 230.18 -3.69989 -5.6946 0
M  V30 2405 H 228.126 -1.56046 -6.3717 0
M  V30 2406 H 228.043 -3.22815 -6.83613 0
M  V30 2407 H 229.311 -2.22285 -7.47134 0
M  V30 2408 N 233.54 1.10788 -1.12088 0
M  V30 2409 C 234.765 1.87002 -0.896949 0
M  V30 2410 C 235.19 1.79933 0.548261 0
M  V30 2411 O 234.548 1.16662 1.38779 0
M  V30 2412 C 234.596 3.3349 -1.37174 0
M  V30 2413 O 233.7 4.08745 -0.547831 0
M  V30 2414 H 233.041 0.580397 -0.322545 0
M  V30 2415 H 235.571 1.39996 -1.49206 0
M  V30 2416 H 235.581 3.84339 -1.36922 0
M  V30 2417 H 234.256 3.37951 -2.42408 0
M  V30 2418 H 232.833 3.6776 -0.617034 0
M  V30 2419 N 235.018 0.912232 1.28515 0
M  V30 2420 C 236.264 0.554851 1.95686 0
M  V30 2421 C 236.619 -0.89138 1.70506 0
M  V30 2422 O 235.912 -1.62529 1.01464 0
M  V30 2423 C 236.106 0.798392 3.48368 0
M  V30 2424 C 235.935 2.26674 3.88393 0
M  V30 2425 C 234.705 2.91657 4.12631 0
M  V30 2426 C 236.903 3.24303 3.99164 0
M  V30 2427 N 234.885 4.28805 4.39317 0
M  V30 2428 C 236.256 4.4661 4.30046 0
M  V30 2429 C 238.311 3.19723 3.81683 0
M  V30 2430 C 237.014 5.64915 4.45268 0
M  V30 2431 C 239.04 4.37325 3.98121 0
M  V30 2432 C 238.402 5.58406 4.29375 0
M  V30 2433 H 234.501 0.252876 0.739985 0
M  V30 2434 H 237.085 1.17565 1.55199 0
M  V30 2435 H 235.256 0.20688 3.87849 0
M  V30 2436 H 236.988 0.405193 4.02666 0
M  V30 2437 H 233.743 2.42393 4.06869 0
M  V30 2438 H 234.167 4.99712 4.56746 0
M  V30 2439 H 238.809 2.27191 3.56573 0
M  V30 2440 H 236.527 6.57927 4.6921 0
M  V30 2441 H 240.113 4.35282 3.86033 0
M  V30 2442 H 238.993 6.47889 4.41825 0
M  V30 2443 N 236.496 -1.42363 0.676048 0
M  V30 2444 C 237.742 -2.0182 0.199125 0
M  V30 2445 C 238.075 -1.53339 -1.19168 0
M  V30 2446 O 237.35 -0.736124 -1.80032 0
M  V30 2447 C 237.633 -3.59331 0.235144 0
M  V30 2448 C 237.486 -4.17989 1.66149 0
M  V30 2449 C 238.805 -4.3813 -0.41595 0
M  V30 2450 H 235.924 -0.733293 0.0738311 0
M  V30 2451 H 238.566 -1.69368 0.86107 0
M  V30 2452 H 236.716 -3.87109 -0.328487 0
M  V30 2453 H 238.388 -4.0116 2.27747 0
M  V30 2454 H 236.631 -3.7377 2.20178 0
M  V30 2455 H 237.302 -5.27126 1.63837 0
M  V30 2456 H 239.778 -4.16051 0.0638529 0
M  V30 2457 H 238.654 -5.47717 -0.360115 0
M  V30 2458 H 238.915 -4.16101 -1.49373 0
M  V30 2459 N 237.974 -0.419461 -1.51915 0
M  V30 2460 C 238.937 0.389116 -2.25873 0
M  V30 2461 C 239.937 0.964924 -1.28631 0
M  V30 2462 O 241.127 0.842179 -1.52489 0
M  V30 2463 C 238.259 1.54874 -3.03689 0
M  V30 2464 H 239.452 -0.258799 -2.98781 0
M  V30 2465 H 237.005 -0.172209 -1.55348 0
M  V30 2466 H 237.74 2.23323 -2.35154 0
M  V30 2467 H 237.525 1.14223 -3.75094 0
M  V30 2468 H 239.015 2.12046 -3.59759 0
M  V30 2469 N 239.452 1.56882 -0.150215 0
M  V30 2470 C 240.384 2.14057 0.819286 0
M  V30 2471 C 241.397 1.09082 1.20851 0
M  V30 2472 O 242.586 1.36347 1.15203 0
M  V30 2473 C 239.686 2.65102 2.11127 0
M  V30 2474 C 238.859 3.94511 1.88891 0
M  V30 2475 C 237.918 4.30834 3.02107 0
M  V30 2476 O 236.944 4.99099 2.73659 0
M  V30 2477 N 238.146 3.90676 4.29363 0
M  V30 2478 H 240.911 2.97871 0.330618 0
M  V30 2479 H 238.472 1.61866 0.0332538 0
M  V30 2480 H 240.464 2.86411 2.85921 0
M  V30 2481 H 239.034 1.85994 2.51247 0
M  V30 2482 H 238.254 3.81795 0.981152 0
M  V30 2483 H 239.542 4.7907 1.71376 0
M  V30 2484 H 238.94 3.35677 4.55343 0
M  V30 2485 H 237.497 4.1703 5.00928 0
M  V30 2486 N 240.93 -0.123565 1.57115 0
M  V30 2487 C 241.86 -1.15309 2.03042 0
M  V30 2488 C 242.841 -1.43454 0.914061 0
M  V30 2489 O 244.026 -1.53973 1.18347 0
M  V30 2490 C 241.156 -2.48043 2.43089 0
M  V30 2491 C 240.11 -2.3437 3.58127 0
M  V30 2492 C 239.436 -3.72026 3.84059 0
M  V30 2493 C 240.736 -1.80804 4.90007 0
M  V30 2494 H 242.43 -0.771102 2.893 0
M  V30 2495 H 239.976 -0.369479 1.39179 0
M  V30 2496 H 241.929 -3.20311 2.73823 0
M  V30 2497 H 240.653 -2.88122 1.53796 0
M  V30 2498 H 239.312 -1.64551 3.27595 0
M  V30 2499 H 238.96 -4.09582 2.91979 0
M  V30 2500 H 238.66 -3.63732 4.6149 0
M  V30 2501 H 240.184 -4.45806 4.1724 0
M  V30 2502 H 241.598 -2.42886 5.19307 0
M  V30 2503 H 239.995 -1.83343 5.71407 0
M  V30 2504 H 241.065 -0.76528 4.78823 0
M  V30 2505 N 242.408 -1.52605 -0.393616 0
M  V30 2506 C 243.355 -1.77055 -1.48054 0
M  V30 2507 C 244.325 -0.61358 -1.54352 0
M  V30 2508 O 245.51 -0.852806 -1.70681 0
M  V30 2509 C 242.65 -1.94108 -2.85335 0
M  V30 2510 C 241.763 -3.21792 -2.88226 0
M  V30 2511 C 240.898 -3.29188 -4.16904 0
M  V30 2512 C 239.937 -4.51013 -4.13828 0
M  V30 2513 N 239.074 -4.55716 -5.34105 0
M  V30 2514 H 243.914 -2.69815 -1.26506 0
M  V30 2515 H 241.451 -1.33683 -0.61379 0
M  V30 2516 H 243.409 -2.01979 -3.65049 0
M  V30 2517 H 242.039 -1.04713 -3.05344 0
M  V30 2518 H 241.091 -3.23015 -2.00911 0
M  V30 2519 H 242.403 -4.11557 -2.8182 0
M  V30 2520 H 241.557 -3.36216 -5.05018 0
M  V30 2521 H 240.296 -2.37389 -4.26026 0
M  V30 2522 H 239.301 -4.44115 -3.24102 0
M  V30 2523 H 240.526 -5.44123 -4.06333 0
M  V30 2524 H 238.472 -3.66807 -5.43865 0
M  V30 2525 H 238.389 -5.39346 -5.29756 0
M  V30 2526 H 239.657 -4.66993 -6.2413 0
M  V30 2527 N 243.887 0.651787 -1.4349 0
M  V30 2528 C 245.112 1.44434 -1.48841 0
M  V30 2529 C 245.537 1.8779 -0.107955 0
M  V30 2530 O 244.895 1.57464 0.898602 0
M  V30 2531 C 244.943 2.65458 -2.44059 0
M  V30 2532 O 244.047 3.64566 -1.92784 0
M  V30 2533 H 243.388 0.433005 -0.503391 0
M  V30 2534 H 245.918 0.797451 -1.88419 0
M  V30 2535 H 245.928 3.13255 -2.6141 0
M  V30 2536 H 244.603 2.33244 -3.4434 0
M  V30 2537 H 243.18 3.23716 -1.851 0
M  V30 2538 N 245.365 1.30045 0.890287 0
M  V30 2539 C 246.275 1.17885 2.02831 0
M  V30 2540 C 247.291 0.0999609 1.73713 0
M  V30 2541 O 248.467 0.313867 1.98939 0
M  V30 2542 C 245.532 0.866079 3.35708 0
M  V30 2543 C 244.593 2.02979 3.78283 0
M  V30 2544 C 243.826 1.73184 5.0482 0
M  V30 2545 O 244.049 0.657237 5.66601 0
M  V30 2546 O 242.983 2.58267 5.43674 0
M  V30 2547 H 246.809 2.13474 2.16015 0
M  V30 2548 H 244.394 1.09587 1.01543 0
M  V30 2549 H 246.276 0.706623 4.15433 0
M  V30 2550 H 244.951 -0.0599443 3.23644 0
M  V30 2551 H 243.858 2.24454 2.99285 0
M  V30 2552 H 245.191 2.93734 3.94944 0
M  V30 2553 N 246.843 -1.10192 1.12674 0
M  V30 2554 C 248.09 -1.82205 0.883606 0
M  V30 2555 C 248.418 -1.8532 -0.590492 0
M  V30 2556 O 247.673 -1.31137 -1.45264 0
M  V30 2557 C 247.972 -3.28552 1.4067 0
M  V30 2558 C 247.638 -3.45582 2.89627 0
M  V30 2559 C 246.3 -3.49937 3.30299 0
M  V30 2560 C 248.652 -3.50768 3.85501 0
M  V30 2561 C 245.98 -3.57049 4.65546 0
M  V30 2562 C 248.332 -3.59414 5.20581 0
M  V30 2563 C 246.996 -3.62034 5.60792 0
M  V30 2564 H 246.266 -0.666735 0.323334 0
M  V30 2565 H 248.913 -1.29868 1.40736 0
M  V30 2566 H 247.218 -3.83473 0.80347 0
M  V30 2567 H 248.915 -3.82788 1.19475 0
M  V30 2568 H 245.505 -3.42871 2.57172 0
M  V30 2569 H 249.689 -3.46651 3.55171 0
M  V30 2570 H 244.945 -3.57361 4.96088 0
M  V30 2571 H 249.119 -3.62371 5.94693 0
M  V30 2572 H 246.746 -3.67298 6.6558 0
M  V30 2573 N 248.321 -0.919034 -1.28029 0
M  V30 2574 C 249.569 -0.553838 -1.94363 0
M  V30 2575 C 249.89 0.906357 -1.72656 0
M  V30 2576 O 249.16 1.64143 -1.0693 0
M  V30 2577 H 247.74 -0.201834 -0.719216 0
M  V30 2578 H 250.402 -1.16954 -1.55909 0
M  V30 2579 H 249.498 -0.752758 -3.02886 0
M  V30 2580 N 249.799 1.42003 -0.683588 0
M  V30 2581 C 250.729 2.33487 -0.024866 0
M  V30 2582 C 251.71 1.51163 0.779975 0
M  V30 2583 O 252.895 1.79739 0.735362 0
M  V30 2584 C 250.025 3.3487 0.920836 0
M  V30 2585 C 248.979 4.27414 0.223958 0
M  V30 2586 C 248.305 5.19074 1.2832 0
M  V30 2587 C 249.605 5.14445 -0.90242 0
M  V30 2588 H 251.299 2.88819 -0.788921 0
M  V30 2589 H 248.845 1.38873 -0.38083 0
M  V30 2590 H 250.798 3.97787 1.39081 0
M  V30 2591 H 249.522 2.77861 1.71642 0
M  V30 2592 H 248.181 3.65904 -0.225864 0
M  V30 2593 H 247.829 4.58387 2.071 0
M  V30 2594 H 247.529 5.81822 0.821995 0
M  V30 2595 H 249.053 5.84867 1.75392 0
M  V30 2596 H 250.467 5.70998 -0.513272 0
M  V30 2597 H 248.864 5.86072 -1.28997 0
M  V30 2598 H 249.934 4.52322 -1.74737 0
M  V30 2599 O 251.316 0.569597 1.51122 0
M  V30 2600 H 252.007 0.0705798 1.93571 0
M  V30 END ATOM
M  V30 BEGIN BOND
M  V30 END BOND
M  V30 END CTAB
M  END
$$$$
