drugbank_target|P18510 Interleukin-1 receptor antagonist protein (DB06372)
 OpenBabel12092120583D

  0  0  0     0  0            999 V3000
M  V30 BEGIN CTAB
M  V30 COUNTS 2794 2823 0 0 0
M  V30 BEGIN ATOM
M  V30 1 H -0.908 1.98254 -0.117106 0
M  V30 2 N 0 1.576 0 0
M  V30 3 C 0.933 2.03868 1.02534 0
M  V30 4 C 1.911 0.928543 1.3348 0
M  V30 5 O 3.095 1.19667 1.45644 0
M  V30 6 C 0.222 2.43627 2.35294 0
M  V30 7 C -0.732 3.65373 2.2001 0
M  V30 8 S 0.101 5.13292 1.52614 0
M  V30 9 C 1.257 5.56322 2.86805 0
M  V30 10 H 1.49 2.90518 0.631377 0
M  V30 11 H -0.977 1.52953 0.210867 0
M  V30 12 H 0.981 2.67203 3.11629 0
M  V30 13 H -0.358 1.57376 2.7183 0
M  V30 14 H -1.165 3.90944 3.18086 0
M  V30 15 H -1.563 3.418 1.51819 0
M  V30 16 H 0.729 5.58782 3.83104 0
M  V30 17 H 1.672 6.56266 2.65933 0
M  V30 18 H 2.08 4.83886 2.90714 0
M  V30 19 N 1.4781 -0.272755 1.55222 0
M  V30 20 C 2.3881 -1.35918 1.91216 0
M  V30 21 C 3.4041 -1.54026 0.809436 0
M  V30 22 O 4.5801 -1.68148 1.10852 0
M  V30 23 C 1.6451 -2.69834 2.17693 0
M  V30 24 C 0.7061 -2.6047 3.41253 0
M  V30 25 C -0.0609 -3.88 3.66458 0
M  V30 26 O 0.1621 -4.88693 2.94169 0
M  V30 27 O -0.9039 -3.88189 4.59992 0
M  V30 28 H 2.9221 -1.0839 2.83699 0
M  V30 29 H 0.5071 -0.471301 1.41771 0
M  V30 30 H 2.3891 -3.49017 2.36147 0
M  V30 31 H 1.0641 -2.97148 1.28392 0
M  V30 32 H -0.0289 -1.79663 3.28134 0
M  V30 33 H 1.3041 -2.38106 4.30774 0
M  V30 34 N 2.9562 -1.48159 -0.537278 0
M  V30 35 C 4.2052 -1.5506 -1.28993 0
M  V30 36 C 4.5182 -0.226211 -1.94288 0
M  V30 37 O 5.7242 -0.173395 -2.70946 0
M  V30 38 C 4.1802 -2.73429 -2.34018 0
M  V30 39 C 3.7882 -4.1248 -1.74825 0
M  V30 40 C 5.5322 -2.89638 -3.10339 0
M  V30 41 C 3.4392 -5.22121 -2.77747 0
M  V30 42 H 2.3692 -0.577231 -0.485098 0
M  V30 43 H 5.0202 -1.74478 -0.568317 0
M  V30 44 H 3.4022 -2.47431 -3.09182 0
M  V30 45 H 4.5762 -4.48466 -1.05899 0
M  V30 46 H 2.8912 -4.01327 -1.11022 0
M  V30 47 H 5.4882 -3.68718 -3.87235 0
M  V30 48 H 5.8312 -1.9882 -3.65754 0
M  V30 49 H 6.3642 -3.15502 -2.42288 0
M  V30 50 H 3.1032 -6.1488 -2.27161 0
M  V30 51 H 2.6232 -4.90631 -3.45024 0
M  V30 52 H 4.3022 -5.49924 -3.4087 0
M  V30 53 N 4.4343 0.785586 -1.36625 0
M  V30 54 C 5.6743 1.55678 -1.32453 0
M  V30 55 C 6.0383 1.91769 0.0941089 0
M  V30 56 O 7.2393 2.67536 0.26042 0
M  V30 57 C 5.5103 2.79701 -2.22491 0
M  V30 58 S 7.0693 3.69907 -2.36038 0
M  V30 59 H 3.8873 0.533141 -0.470405 0
M  V30 60 H 6.4893 0.924953 -1.72235 0
M  V30 61 H 5.1933 2.51244 -3.24507 0
M  V30 62 H 4.7243 3.47854 -1.83742 0
M  V30 63 H 6.7393 4.71016 -1.56072 0
M  V30 64 N 5.9124 1.20967 1.01018 0
M  V30 65 C 7.3284 0.965905 1.27053 0
M  V30 66 C 7.5284 -0.350785 1.98423 0
M  V30 67 O 6.5844 -1.07773 2.28344 0
M  V30 68 C 7.8974 2.15294 2.09926 0
M  V30 69 C 9.4454 2.19463 2.23171 0
M  V30 70 C 9.9204 3.3767 3.09424 0
M  V30 71 N 11.4114 3.37724 3.17012 0
M  V30 72 C 12.1464 4.25837 3.83993 0
M  V30 73 N 11.6424 5.24138 4.53047 0
M  V30 74 N 13.4354 4.1366 3.80581 0
M  V30 75 H 5.5864 2.0565 0.531194 0
M  V30 76 H 7.8494 0.90024 0.297106 0
M  V30 77 H 7.5554 3.10684 1.64828 0
M  V30 78 H 7.4294 2.13923 3.10672 0
M  V30 79 H 9.8164 1.24632 2.6749 0
M  V30 80 H 9.8974 2.2488 1.21912 0
M  V30 81 H 9.5414 4.32791 2.65808 0
M  V30 82 H 9.4714 3.29491 4.10784 0
M  V30 83 H 11.9624 2.6658 2.6785 0
M  V30 84 H 12.2754 5.87684 5.01844 0
M  V30 85 H 10.6204 5.28068 4.5185 0
M  V30 86 H 13.8114 3.36127 3.25785 0
M  V30 87 H 13.9844 4.82538 4.32505 0
M  V30 88 N 7.3905 -1.2043 1.01659 0
M  V30 89 C 8.6385 -1.89423 0.704522 0
M  V30 90 C 8.9595 -1.79231 -0.768197 0
M  V30 91 O 8.2295 -1.1947 -1.55254 0
M  V30 92 H 6.8095 -0.701178 0.257602 0
M  V30 93 H 9.4715 -1.4626 1.28818 0
M  V30 94 H 8.5675 -2.96052 0.987916 0
M  V30 95 N 8.8686 -0.792821 -1.36206 0
M  V30 96 C 9.7986 -0.207853 -2.32573 0
M  V30 97 C 10.7796 0.659055 -1.56813 0
M  V30 98 O 11.9646 0.592176 -1.84951 0
M  V30 99 C 9.0946 0.655449 -3.41059 0
M  V30 100 C 8.0486 -0.111842 -4.27854 0
M  V30 101 C 7.3746 0.872274 -5.27537 0
M  V30 102 C 8.6746 -1.30299 -5.05786 0
M  V30 103 H 10.3686 -1.01294 -2.81744 0
M  V30 104 H 7.9146 -0.48854 -1.3546 0
M  V30 105 H 9.8676 1.07464 -4.07467 0
M  V30 106 H 8.5916 1.49328 -2.90463 0
M  V30 107 H 7.2506 -0.512053 -3.63006 0
M  V30 108 H 6.8986 1.70523 -4.73214 0
M  V30 109 H 6.5986 0.363291 -5.86476 0
M  V30 110 H 8.1226 1.28996 -5.96818 0
M  V30 111 H 9.5366 -0.959379 -5.65216 0
M  V30 112 H 7.9336 -1.7455 -5.74154 0
M  V30 113 H 9.0036 -2.09663 -4.37229 0
M  V30 114 N 10.3467 1.47872 -0.545128 0
M  V30 115 C 11.7627 1.5829 -0.204032 0
M  V30 116 C 11.9627 1.54529 1.29317 0
M  V30 117 O 11.0187 1.44232 2.07252 0
M  V30 118 C 12.3317 2.89304 -0.819987 0
M  V30 119 C 13.8797 3.02864 -0.790105 0
M  V30 120 C 14.3547 4.3656 -1.38491 0
M  V30 121 N 15.8457 4.43165 -1.34755 0
M  V30 122 C 16.5807 5.45153 -1.77753 0
M  V30 123 N 16.0767 6.54016 -2.2855 0
M  V30 124 N 17.8697 5.36125 -1.68897 0
M  V30 125 H 10.0207 1.4856 -1.51802 0
M  V30 126 H 12.2837 0.706305 -0.632327 0
M  V30 127 H 11.9897 2.97757 -1.87173 0
M  V30 128 H 11.8637 3.75957 -0.305915 0
M  V30 129 H 14.2507 2.94014 0.252913 0
M  V30 130 H 14.3317 2.17782 -1.34181 0
M  V30 131 H 13.9757 4.46164 -2.42693 0
M  V30 132 H 13.9057 5.20353 -0.808754 0
M  V30 133 H 16.3967 3.65083 -0.975855 0
M  V30 134 H 16.7097 7.27994 -2.59314 0
M  V30 135 H 15.0547 6.54938 -2.32553 0
M  V30 136 H 18.2457 4.49975 -1.28998 0
M  V30 137 H 18.4187 6.15472 -2.02726 0
M  V30 138 N 11.8248 0.280983 1.55075 0
M  V30 139 C 13.0498 -0.340154 2.04592 0
M  V30 140 C 13.4748 -1.48246 1.15779 0
M  V30 141 O 12.8328 -1.80614 0.15761 0
M  V30 142 C 12.8808 -0.793104 3.5177 0
M  V30 143 O 11.9848 -1.89981 3.66034 0
M  V30 144 H 11.3258 -0.0694289 0.66036 0
M  V30 145 H 13.8558 0.416993 2.00306 0
M  V30 146 H 13.8658 -1.08729 3.93245 0
M  V30 147 H 12.5408 0.0426163 4.15878 0
M  V30 148 H 11.1178 -1.60771 3.36463 0
M  V30 149 N 13.3029 -1.57598 0.00835791 0
M  V30 150 C 14.2529 -2.05431 -0.989045 0
M  V30 151 C 15.2369 -0.950662 -1.29812 0
M  V30 152 O 16.4289 -1.21438 -1.28771 0
M  V30 153 C 13.5579 -2.56801 -2.27833 0
M  V30 154 C 12.6439 -3.74058 -1.99853 0
M  V30 155 N 13.0349 -4.8544 -1.42062 0
M  V30 156 C 11.3329 -3.82148 -2.29953 0
M  V30 157 C 12.0339 -5.66817 -1.30743 0
M  V30 158 N 11.0099 -5.13077 -1.7959 0
M  V30 159 H 14.8119 -2.88955 -0.536853 0
M  V30 160 H 12.3259 -1.61199 -0.197148 0
M  V30 161 H 14.3229 -2.89349 -3.00137 0
M  V30 162 H 12.9829 -1.74699 -2.73698 0
M  V30 163 H 13.9939 -5.0612 -1.09833 0
M  V30 164 H 10.6709 -3.10916 -2.78635 0
M  V30 165 H 12.0609 -6.66343 -0.862328 0
M  V30 166 N 14.781 0.264519 -1.55364 0
M  V30 167 C 15.711 1.33121 -1.91836 0
M  V30 168 C 16.692 1.51101 -0.781192 0
M  V30 169 O 17.877 1.64003 -1.04003 0
M  V30 170 C 15.007 2.68921 -2.19769 0
M  V30 171 C 13.961 2.65661 -3.35571 0
M  V30 172 C 13.287 4.05093 -3.49004 0
M  V30 173 C 14.587 2.24187 -4.71739 0
M  V30 174 H 16.281 1.02844 -2.81182 0
M  V30 175 H 13.827 0.493286 -1.35287 0
M  V30 176 H 15.78 3.43663 -2.43872 0
M  V30 177 H 14.504 3.00799 -1.27231 0
M  V30 178 H 13.163 1.93377 -3.1145 0
M  V30 179 H 12.811 4.34206 -2.53917 0
M  V30 180 H 12.511 4.03804 -4.26868 0
M  V30 181 H 14.035 4.81561 -3.75408 0
M  V30 182 H 15.449 2.88654 -4.9533 0
M  V30 183 H 13.846 2.34044 -5.52579 0
M  V30 184 H 14.916 1.19327 -4.69988 0
M  V30 185 N 16.2591 1.48442 0.529413 0
M  V30 186 C 17.5081 1.55742 1.28169 0
M  V30 187 C 17.8211 0.236511 1.94165 0
M  V30 188 O 19.0271 0.187761 2.7085 0
M  V30 189 C 17.4831 2.74667 2.32564 0
M  V30 190 C 17.0911 4.13402 1.72636 0
M  V30 191 C 18.8351 2.9128 3.08798 0
M  V30 192 C 16.7421 5.23587 2.74975 0
M  V30 193 H 15.6721 0.579796 0.48203 0
M  V30 194 H 18.3231 1.74776 0.559056 0
M  V30 195 H 16.7051 2.49067 3.07866 0
M  V30 196 H 17.8791 4.49022 1.03519 0
M  V30 197 H 16.1941 4.0191 1.08892 0
M  V30 198 H 18.7911 3.70767 3.85274 0
M  V30 199 H 19.1341 2.00757 3.64695 0
M  V30 200 H 19.6671 3.16782 2.40611 0
M  V30 201 H 16.4061 6.16076 2.23897 0
M  V30 202 H 15.9261 4.92454 3.42417 0
M  V30 203 H 17.6051 5.51724 3.37949 0
M  V30 204 N 17.7372 -0.778329 1.37039 0
M  V30 205 C 18.9652 -1.56734 1.35063 0
M  V30 206 C 19.3802 -1.88686 -0.0655597 0
M  V30 207 O 18.7372 -1.5096 -1.02554 0
M  V30 208 C 18.7882 -2.88163 2.18276 0
M  V30 209 O 18.5092 -2.57583 3.54376 0
M  V30 210 C 20.0102 -3.82422 2.24206 0
M  V30 211 H 17.2302 -0.485778 0.462883 0
M  V30 212 H 19.7742 -0.965185 1.8029 0
M  V30 213 H 17.9292 -3.44818 1.76576 0
M  V30 214 H 18.3432 -3.41699 3.97922 0
M  V30 215 H 19.8172 -4.71667 2.86765 0
M  V30 216 H 20.2942 -4.21078 1.24861 0
M  V30 217 H 20.9002 -3.31697 2.6619 0
M  V30 218 N 19.2153 -1.21501 -1.00376 0
M  V30 219 C 20.1453 -0.999478 -2.11028 0
M  V30 220 C 21.1263 0.0759671 -1.6993 0
M  V30 221 O 22.3113 -0.0841106 -1.94018 0
M  V30 222 C 19.4413 -0.564709 -3.42678 0
M  V30 223 C 18.3953 -1.58486 -3.97576 0
M  V30 224 C 17.7213 -1.00628 -5.25146 0
M  V30 225 C 19.0213 -2.97204 -4.29496 0
M  V30 226 H 20.7153 -1.92495 -2.29317 0
M  V30 227 H 18.2613 -0.92693 -1.102 0
M  V30 228 H 20.2143 -0.401091 -4.19487 0
M  V30 229 H 18.9383 0.396411 -3.24185 0
M  V30 230 H 17.5973 -1.73606 -3.22888 0
M  V30 231 H 17.2453 -0.0368439 -5.02987 0
M  V30 232 H 16.9453 -1.68771 -5.62841 0
M  V30 233 H 18.4693 -0.854015 -6.04598 0
M  V30 234 H 19.8833 -2.8552 -4.97143 0
M  V30 235 H 18.2803 -3.62372 -4.78338 0
M  V30 236 H 19.3503 -3.47956 -3.3772 0
M  V30 237 N 20.6934 1.19889 -1.02296 0
M  V30 238 C 21.6234 2.25141 -0.619174 0
M  V30 239 C 22.6044 1.66051 0.368915 0
M  V30 240 O 23.7894 1.92546 0.252941 0
M  V30 241 C 20.9194 3.4728 0.0368783 0
M  V30 242 C 19.8734 4.19005 -0.872865 0
M  V30 243 C 19.1994 5.34637 -0.0822402 0
M  V30 244 C 20.4994 4.74452 -2.18387 0
M  V30 245 H 22.1934 2.59171 -1.49903 0
M  V30 246 H 19.7394 1.24579 -0.722222 0
M  V30 247 H 21.6924 4.20098 0.330958 0
M  V30 248 H 20.4164 3.12433 0.95149 0
M  V30 249 H 19.0754 3.48061 -1.15105 0
M  V30 250 H 18.7234 4.96034 0.83422 0
M  V30 251 H 18.4234 5.83557 -0.688149 0
M  V30 252 H 19.9474 6.10255 0.205238 0
M  V30 253 H 21.3614 5.39055 -1.95172 0
M  V30 254 H 19.7584 5.33834 -2.74119 0
M  V30 255 H 20.8284 3.92844 -2.84257 0
M  V30 256 N 22.1715 0.800033 1.35784 0
M  V30 257 C 23.1015 0.220184 2.3246 0
M  V30 258 C 24.0825 -0.65073 1.57161 0
M  V30 259 O 25.2675 -0.582359 1.85263 0
M  V30 260 C 22.3975 -0.637353 3.41402 0
M  V30 261 C 21.3515 0.134531 4.27789 0
M  V30 262 C 20.6775 -0.844285 5.27992 0
M  V30 263 C 21.9775 1.32979 5.05088 0
M  V30 264 H 23.6715 1.02787 2.81203 0
M  V30 265 H 21.2175 0.495717 1.35199 0
M  V30 266 H 23.1705 -1.05302 4.08031 0
M  V30 267 H 21.8945 -1.47785 2.91251 0
M  V30 268 H 20.5535 0.531296 3.6273 0
M  V30 269 H 20.2015 -1.68011 4.74111 0
M  V30 270 H 19.9015 -0.332184 5.8666 0
M  V30 271 H 21.4255 -1.2583 5.97494 0
M  V30 272 H 22.8395 0.98934 5.64699 0
M  V30 273 H 21.2365 1.77593 5.7322 0
M  V30 274 H 22.3065 2.11978 4.36111 0
M  V30 275 N 23.6496 -1.47581 0.552962 0
M  V30 276 C 24.8966 -2.02482 0.0273243 0
M  V30 277 C 25.2246 -1.42776 -1.32081 0
M  V30 278 O 24.4796 -0.571393 -1.87173 0
M  V30 279 C 24.7786 -3.57199 -0.119728 0
M  V30 280 C 24.4446 -4.35804 1.15697 0
M  V30 281 C 23.1066 -4.57 1.50681 0
M  V30 282 C 25.4586 -4.81167 2.00319 0
M  V30 283 C 22.7866 -5.20807 2.70142 0
M  V30 284 C 25.1386 -5.46293 3.18978 0
M  V30 285 C 23.8026 -5.65722 3.54281 0
M  V30 286 H 23.0726 -0.740933 0.00999866 0
M  V30 287 H 25.7196 -1.77302 0.72362 0
M  V30 288 H 24.0246 -3.81348 -0.89896 0
M  V30 289 H 25.7216 -3.97324 -0.541718 0
M  V30 290 H 22.3116 -4.19582 0.874561 0
M  V30 291 H 26.4956 -4.64574 1.74599 0
M  V30 292 H 21.7516 -5.34045 2.97668 0
M  V30 293 H 25.9256 -5.80407 3.84838 0
M  V30 294 H 23.5526 -6.14936 4.46942 0
M  V30 295 N 25.1277 -0.289203 -1.54924 0
M  V30 296 C 26.0577 0.58549 -2.2604 0
M  V30 297 C 27.0387 1.14753 -1.25562 0
M  V30 298 O 28.2237 1.17906 -1.54311 0
M  V30 299 C 25.3537 1.76305 -2.99222 0
M  V30 300 C 24.3077 1.33191 -4.06748 0
M  V30 301 C 23.6337 2.5937 -4.6758 0
M  V30 302 C 24.9337 0.471775 -5.20165 0
M  V30 303 H 26.6277 -0.00763532 -2.99399 0
M  V30 304 H 24.1737 -0.00511229 -1.43999 0
M  V30 305 H 26.1267 2.38097 -3.47689 0
M  V30 306 H 24.8507 2.38223 -2.23422 0
M  V30 307 H 23.5097 0.737121 -3.59113 0
M  V30 308 H 23.1577 3.19576 -3.88433 0
M  V30 309 H 22.8577 2.31228 -5.40192 0
M  V30 310 H 24.3817 3.21985 -5.18804 0
M  V30 311 H 25.7957 0.995056 -5.64599 0
M  V30 312 H 24.1927 0.284639 -5.99425 0
M  V30 313 H 25.2627 -0.506041 -4.82252 0
M  V30 314 N 26.6058 1.57591 -0.0167156 0
M  V30 315 C 27.8528 1.91283 0.664597 0
M  V30 316 C 28.1808 0.891949 1.72842 0
M  V30 317 O 27.4358 -0.100931 1.9544 0
M  V30 318 C 27.7348 3.3172 1.33029 0
M  V30 319 C 27.4008 4.4914 0.398047 0
M  V30 320 C 26.0628 4.80992 0.141421 0
M  V30 321 C 28.4148 5.20634 -0.242825 0
M  V30 322 C 25.7428 5.81703 -0.764092 0
M  V30 323 C 28.0948 6.22311 -1.13632 0
M  V30 324 C 26.7588 6.52611 -1.40196 0
M  V30 325 H 26.0288 0.699956 0.243193 0
M  V30 326 H 28.6758 1.9135 -0.0758267 0
M  V30 327 H 26.9808 3.27856 2.14517 0
M  V30 328 H 28.6778 3.55055 1.86379 0
M  V30 329 H 25.2678 4.24262 0.608238 0
M  V30 330 H 29.4518 4.96267 -0.0576019 0
M  V30 331 H 24.7078 6.03532 -0.977732 0
M  V30 332 H 28.8818 6.76834 -1.63917 0
M  V30 333 H 26.5088 7.30467 -2.10529 0
M  V30 334 N 28.0839 -0.256276 1.55502 0
M  V30 335 C 29.0339 -1.31981 1.85916 0
M  V30 336 C 30.0179 -1.43927 0.719296 0
M  V30 337 O 31.2099 -1.47326 0.981019 0
M  V30 338 C 28.3389 -2.67703 2.14918 0
M  V30 339 C 27.4249 -2.59801 3.35208 0
M  V30 340 N 27.8159 -2.21524 4.54709 0
M  V30 341 C 26.1139 -2.90832 3.38131 0
M  V30 342 C 26.8149 -2.24024 5.36832 0
M  V30 343 N 25.7909 -2.63158 4.75656 0
M  V30 344 H 29.5929 -1.01423 2.75845 0
M  V30 345 H 27.1069 -0.464911 1.55603 0
M  V30 346 H 29.1039 -3.44445 2.34869 0
M  V30 347 H 27.7639 -2.99137 1.26282 0
M  V30 348 H 28.7749 -1.93223 4.80505 0
M  V30 349 H 25.4519 -3.26867 2.59739 0
M  V30 350 H 26.8419 -1.9685 6.42417 0
M  V30 351 N 29.562 -1.4872 -0.521534 0
M  V30 352 C 30.787 -1.61101 -1.30618 0
M  V30 353 C 31.212 -0.274611 -1.86085 0
M  V30 354 O 30.57 0.754937 -1.64834 0
M  V30 355 C 30.618 -2.66709 -2.4269 0
M  V30 356 O 29.722 -2.24456 -3.45967 0
M  V30 357 H 29.063 -0.539921 -0.386499 0
M  V30 358 H 31.593 -1.94767 -0.626645 0
M  V30 359 H 31.603 -2.88245 -2.88754 0
M  V30 360 H 30.278 -3.63727 -2.01682 0
M  V30 361 H 28.855 -2.13168 -3.05964 0
M  V30 362 N 31.0401 0.771051 -1.3745 0
M  V30 363 C 31.9501 1.91538 -1.35464 0
M  V30 364 C 32.9661 1.72134 -0.254123 0
M  V30 365 O 34.1421 1.95358 -0.489626 0
M  V30 366 C 31.2071 3.26671 -1.16134 0
M  V30 367 C 30.2681 3.58723 -2.35831 0
M  V30 368 C 29.5011 4.87409 -2.17413 0
M  V30 369 O 29.7241 5.58506 -1.15876 0
M  V30 370 O 28.6581 5.18539 -3.05615 0
M  V30 371 H 32.4841 1.96165 -2.31847 0
M  V30 372 H 30.0691 0.9139 -1.18187 0
M  V30 373 H 31.9511 4.07499 -1.07345 0
M  V30 374 H 30.6261 3.22894 -0.228251 0
M  V30 375 H 29.5331 2.78127 -2.50192 0
M  V30 376 H 30.8661 3.67243 -3.27709 0
M  V30 377 N 32.5182 1.22032 0.997298 0
M  V30 378 C 33.7462 1.06841 1.7718 0
M  V30 379 C 34.1612 -0.381325 1.84909 0
M  V30 380 O 33.5182 -1.26437 1.31605 0
M  V30 381 C 33.5692 1.66814 3.20711 0
M  V30 382 O 33.2902 3.06116 3.13408 0
M  V30 383 C 34.7912 1.56838 4.14628 0
M  V30 384 H 32.0112 0.374782 0.556578 0
M  V30 385 H 34.5552 1.61532 1.2541 0
M  V30 386 H 32.7102 1.16196 3.69564 0
M  V30 387 H 33.1242 3.34926 4.0364 0
M  V30 388 H 34.5982 2.03532 5.13107 0
M  V30 389 H 35.0752 0.524155 4.36061 0
M  V30 390 H 35.6812 2.06741 3.7167 0
M  V30 391 N 33.9963 -1.19345 1.0293 0
M  V30 392 C 35.2453 -1.88363 0.721256 0
M  V30 393 C 35.5583 -1.80514 -0.753254 0
M  V30 394 O 36.7643 -2.44788 -1.17436 0
M  V30 395 C 35.2203 -3.37872 1.23978 0
M  V30 396 C 34.8283 -3.54278 2.74211 0
M  V30 397 C 36.5723 -4.12365 1.00775 0
M  V30 398 C 34.4793 -4.97682 3.19479 0
M  V30 399 H 33.4093 -0.705484 0.266098 0
M  V30 400 H 36.0603 -1.34928 1.24365 0
M  V30 401 H 34.4423 -3.90707 0.6453 0
M  V30 402 H 35.6163 -3.11769 3.39318 0
M  V30 403 H 33.9313 -2.93174 2.95699 0
M  V30 404 H 36.5283 -5.18119 1.32123 0
M  V30 405 H 36.8713 -4.16263 -0.0554308 0
M  V30 406 H 37.4043 -3.65668 1.56625 0
M  V30 407 H 34.1433 -4.98945 4.25128 0
M  V30 408 H 33.6633 -5.4095 2.591 0
M  V30 409 H 35.3423 -5.66337 3.12845 0
M  V30 410 N 35.4744 -0.807222 -1.35358 0
M  V30 411 C 36.7144 -0.393534 -2.00576 0
M  V30 412 C 37.0784 1.0203 -1.62647 0
M  V30 413 O 38.2794 1.53603 -2.20589 0
M  V30 414 C 36.5504 -0.572017 -3.52793 0
M  V30 415 S 38.1094 -0.248845 -4.38094 0
M  V30 416 H 34.9274 -0.149425 -0.695121 0
M  V30 417 H 37.5294 -1.04961 -1.64935 0
M  V30 418 H 36.2334 -1.60097 -3.77885 0
M  V30 419 H 35.7644 0.099359 -3.93275 0
M  V30 420 H 37.7794 0.943253 -4.87152 0
M  V30 421 N 36.9525 1.47285 -0.560781 0
M  V30 422 C 38.3685 1.58065 -0.22081 0
M  V30 423 C 38.5685 1.55892 1.27671 0
M  V30 424 O 37.6245 1.46422 2.0571 0
M  V30 425 C 38.9375 2.88418 -0.850625 0
M  V30 426 C 40.4855 3.02009 -0.822184 0
M  V30 427 C 40.9605 4.35066 -1.43113 0
M  V30 428 N 42.4515 4.41711 -1.39448 0
M  V30 429 C 43.1865 5.43237 -1.83525 0
M  V30 430 N 42.6825 6.51555 -2.35474 0
M  V30 431 N 44.4755 5.34304 -1.74574 0
M  V30 432 H 36.6265 1.46941 -1.53369 0
M  V30 433 H 38.8895 0.699558 -0.639783 0
M  V30 434 H 38.5955 2.95755 -1.9032 0
M  V30 435 H 38.4695 3.75612 -0.345773 0
M  V30 436 H 40.8565 2.94266 0.221714 0
M  V30 437 H 40.9375 2.16347 -1.36483 0
M  V30 438 H 40.5815 4.43565 -2.47412 0
M  V30 439 H 40.5115 5.19465 -0.863899 0
M  V30 440 H 43.0025 3.64027 -1.01452 0
M  V30 441 H 43.3155 7.25203 -2.67021 0
M  V30 442 H 41.6605 6.52435 -2.39487 0
M  V30 443 H 44.8515 4.48581 -1.33763 0
M  V30 444 H 45.0245 6.13288 -2.09242 0
M  V30 445 N 38.4306 0.297415 1.54768 0
M  V30 446 C 39.8416 -0.195947 1.85669 0
M  V30 447 C 40.1926 -1.53707 1.21937 0
M  V30 448 O 39.3176 -2.10164 0.515754 0
M  V30 449 C 39.9126 -0.362318 3.36857 0
M  V30 450 C 38.4716 -0.799901 3.67802 0
M  V30 451 C 37.6186 0.0938578 2.77141 0
M  V30 452 H 40.5696 0.518538 1.4999 0
M  V30 453 H 40.5906 -1.19745 3.61167 0
M  V30 454 H 40.1026 0.613921 3.83214 0
M  V30 455 H 38.2036 -1.78682 3.26961 0
M  V30 456 H 38.3166 -0.621773 4.75048 0
M  V30 457 H 36.6806 -0.426254 2.51108 0
M  V30 458 H 37.4636 1.06639 3.26318 0
M  V30 459 N 39.9087 -1.5758 0.0250728 0
M  V30 460 C 41.1337 -1.96337 -0.668317 0
M  V30 461 C 41.5587 -0.901314 -1.651 0
M  V30 462 O 40.9167 0.138187 -1.80773 0
M  V30 463 C 40.9647 -3.34191 -1.35457 0
M  V30 464 O 40.0687 -3.30269 -2.46974 0
M  V30 465 H 39.4097 -0.640281 -0.175887 0
M  V30 466 H 41.9397 -2.0442 0.0857224 0
M  V30 467 H 41.9497 -3.70331 -1.71228 0
M  V30 468 H 40.6247 -4.11036 -0.634218 0
M  V30 469 H 39.2017 -3.05841 -2.13344 0
M  V30 470 N 41.3868 0.248026 -1.55636 0
M  V30 471 C 42.6348 0.974295 -1.77065 0
M  V30 472 C 42.9558 1.85897 -0.588849 0
M  V30 473 O 42.2258 1.91868 0.395407 0
M  V30 474 H 40.8058 0.362733 -0.653019 0
M  V30 475 H 43.4678 0.266244 -1.93073 0
M  V30 476 H 42.5638 1.59667 -2.68166 0
M  V30 477 N 42.8649 1.48995 0.513639 0
M  V30 478 C 44.2809 1.35478 0.843682 0
M  V30 479 C 44.4809 0.378213 1.97919 0
M  V30 480 O 43.5369 -0.194689 2.51748 0
M  V30 481 C 44.8499 2.75901 1.1958 0
M  V30 482 C 46.3979 2.84509 1.30474 0
M  V30 483 C 46.8729 4.25671 1.69021 0
M  V30 484 N 48.3639 4.28422 1.76094 0
M  V30 485 C 49.0989 5.34601 2.07338 0
M  V30 486 N 48.5949 6.5104 2.36894 0
M  V30 487 N 50.3879 5.22007 2.08483 0
M  V30 488 H 42.5389 2.11092 -0.235328 0
M  V30 489 H 44.8019 0.947039 -0.0426669 0
M  V30 490 H 44.5079 3.49001 0.434913 0
M  V30 491 H 44.3819 3.10467 2.1422 0
M  V30 492 H 46.7689 2.11655 2.05637 0
M  V30 493 H 46.8499 2.53542 0.339155 0
M  V30 494 H 46.4939 4.99048 0.944135 0
M  V30 495 H 46.4239 4.54094 2.66658 0
M  V30 496 H 48.9149 3.44441 1.55464 0
M  V30 497 H 49.2279 7.2779 2.59887 0
M  V30 498 H 47.5729 6.54287 2.34378 0
M  V30 499 H 50.7639 4.30051 1.84861 0
M  V30 500 H 50.9369 6.04854 2.325 0
M  V30 501 N 44.343 -0.763751 1.37857 0
M  V30 502 C 45.29 -1.87726 1.34267 0
M  V30 503 C 46.26 -1.64807 0.206879 0
M  V30 504 O 47.445 -1.86613 0.397508 0
M  V30 505 C 44.585 -3.24896 1.16346 0
M  V30 506 C 43.698 -3.59716 2.39225 0
M  V30 507 C 42.833 -4.86137 2.14114 0
M  V30 508 C 41.872 -5.13711 3.32817 0
M  V30 509 N 41.009 -6.31323 3.07206 0
M  V30 510 H 45.849 -1.90129 2.29466 0
M  V30 511 H 43.386 -0.929433 1.14017 0
M  V30 512 H 45.344 -4.04036 1.03975 0
M  V30 513 H 43.974 -3.21847 0.247909 0
M  V30 514 H 43.026 -2.75498 2.62307 0
M  V30 515 H 44.338 -3.76027 3.27728 0
M  V30 516 H 43.492 -5.73198 1.9882 0
M  V30 517 H 42.231 -4.71945 1.22961 0
M  V30 518 H 41.236 -4.25123 3.48641 0
M  V30 519 H 42.461 -5.29807 4.24832 0
M  V30 520 H 40.407 -6.18474 2.1869 0
M  V30 521 H 40.324 -6.48087 3.89254 0
M  V30 522 H 41.592 -7.213 2.95546 0
M  V30 523 N 45.8211 -1.22559 -0.990812 0
M  V30 524 C 47.0461 -1.07862 -1.77145 0
M  V30 525 C 47.4711 0.366447 -1.84496 0
M  V30 526 O 46.8291 1.26478 -1.29896 0
M  V30 527 C 46.8771 -1.69686 -3.18181 0
M  V30 528 O 45.9811 -0.951946 -4.01263 0
M  V30 529 H 45.3221 -0.378712 -0.545411 0
M  V30 530 H 47.8521 -1.62399 -1.2445 0
M  V30 531 H 47.8621 -1.74496 -3.68802 0
M  V30 532 H 46.5371 -2.74841 -3.12146 0
M  V30 533 H 45.1141 -0.980011 -3.59792 0
M  V30 534 N 47.2992 1.18797 -1.03562 0
M  V30 535 C 48.5242 1.9314 -0.755764 0
M  V30 536 C 48.9492 1.7537 0.68022 0
M  V30 537 O 48.3072 1.06046 1.47051 0
M  V30 538 C 48.3552 3.42747 -1.12058 0
M  V30 539 O 47.4592 4.11683 -0.243124 0
M  V30 540 H 46.8002 0.602724 -0.278604 0
M  V30 541 H 49.3302 1.50678 -1.3841 0
M  V30 542 H 49.3402 3.93437 -1.08035 0
M  V30 543 H 48.0152 3.55002 -2.16672 0
M  V30 544 H 46.5922 3.71323 -0.342539 0
M  V30 545 N 48.7773 0.814389 1.34928 0
M  V30 546 C 49.7243 0.22822 2.29669 0
M  V30 547 C 50.6943 -0.642164 1.53184 0
M  V30 548 O 51.8793 -0.585605 1.81591 0
M  V30 549 C 49.0193 -0.61089 3.3965 0
M  V30 550 C 48.1323 0.280792 4.31086 0
M  V30 551 C 47.2673 -0.567067 5.28165 0
M  V30 552 C 46.3063 0.324531 6.11239 0
M  V30 553 N 45.4433 -0.483756 7.00431 0
M  V30 554 H 50.2833 1.04153 2.79206 0
M  V30 555 H 47.8203 0.525133 1.37407 0
M  V30 556 H 49.7783 -1.11263 4.0209 0
M  V30 557 H 48.4083 -1.38939 2.91369 0
M  V30 558 H 47.4603 0.900688 3.69583 0
M  V30 559 H 48.7723 0.966723 4.89342 0
M  V30 560 H 47.9263 -1.13363 5.96015 0
M  V30 561 H 46.6653 -1.28654 4.70425 0
M  V30 562 H 45.6703 0.903298 5.42329 0
M  V30 563 H 46.8953 1.04198 6.71059 0
M  V30 564 H 44.8413 -1.18706 6.45171 0
M  V30 565 H 44.7583 0.143965 7.55863 0
M  V30 566 H 46.0263 -1.03334 7.7262 0
M  V30 567 N 50.2554 -1.46986 0.568584 0
M  V30 568 C 51.1884 -2.27129 -0.220779 0
M  V30 569 C 52.1664 -1.34757 -0.909905 0
M  V30 570 O 53.3504 -1.64152 -0.926622 0
M  V30 571 C 50.4774 -3.12108 -1.31553 0
M  V30 572 C 49.5234 -4.20141 -0.733748 0
M  V30 573 S 50.3564 -5.33783 0.428479 0
M  V30 574 C 51.5124 -6.22327 -0.667811 0
M  V30 575 H 51.7454 -2.93731 0.459267 0
M  V30 576 H 49.2784 -1.5026 0.355154 0
M  V30 577 H 51.2364 -3.61636 -1.94241 0
M  V30 578 H 49.8974 -2.44847 -1.96746 0
M  V30 579 H 49.0904 -4.79373 -1.5562 0
M  V30 580 H 48.6924 -3.73553 -0.182812 0
M  V30 581 H 50.9844 -6.59364 -1.55708 0
M  V30 582 H 51.9274 -7.0801 -0.11258 0
M  V30 583 H 52.3354 -5.5618 -0.965601 0
M  V30 584 N 51.7335 -0.305618 -1.54608 0
M  V30 585 C 52.6655 0.602161 -2.21149 0
M  V30 586 C 53.6785 1.09394 -1.20569 0
M  V30 587 O 54.8675 1.0106 -1.47136 0
M  V30 588 C 51.9675 1.83692 -2.84799 0
M  V30 589 C 51.1405 1.48686 -4.11353 0
M  V30 590 C 50.1995 2.57725 -4.58764 0
M  V30 591 O 49.2255 2.22623 -5.23858 0
M  V30 592 N 50.4275 3.88346 -4.31471 0
M  V30 593 H 53.1925 0.0324966 -2.99682 0
M  V30 594 H 50.7535 -0.128021 -1.61393 0
M  V30 595 H 52.7455 2.55994 -3.13448 0
M  V30 596 H 51.3155 2.31486 -2.10078 0
M  V30 597 H 50.5355 0.596269 -3.89664 0
M  V30 598 H 51.8235 1.22842 -4.93748 0
M  V30 599 H 51.2215 4.19671 -3.79331 0
M  V30 600 H 49.7785 4.56932 -4.64818 0
M  V30 601 N 53.2116 1.57565 -0.0334293 0
M  V30 602 C 54.1746 2.09393 0.932048 0
M  V30 603 C 55.1746 1.00986 1.25134 0
M  V30 604 O 56.3646 1.27129 1.19096 0
M  V30 605 C 53.4966 2.56338 2.2473 0
M  V30 606 H 54.6896 2.95984 0.483085 0
M  V30 607 H 52.2426 1.54819 0.21468 0
M  V30 608 H 52.9776 1.7309 2.74245 0
M  V30 609 H 52.7626 3.35542 2.02865 0
M  V30 610 H 54.2526 2.96646 2.93923 0
M  V30 611 N 54.6897 -0.239769 1.55765 0
M  V30 612 C 55.9367 -0.966801 1.7793 0
M  V30 613 C 56.2647 -1.85046 0.599015 0
M  V30 614 O 55.5197 -1.91197 -0.417395 0
M  V30 615 C 55.8187 -1.852 3.05672 0
M  V30 616 C 55.4847 -1.1231 4.36689 0
M  V30 617 C 54.1467 -0.921689 4.72291 0
M  V30 618 C 56.4987 -0.607019 5.17653 0
M  V30 619 C 53.8267 -0.191996 5.86386 0
M  V30 620 C 56.1787 0.109241 6.32506 0
M  V30 621 C 54.8427 0.322073 6.66723 0
M  V30 622 H 54.1127 -0.353778 0.651093 0
M  V30 623 H 56.7597 -0.23634 1.90036 0
M  V30 624 H 55.0647 -2.64975 2.8861 0
M  V30 625 H 56.7617 -2.41635 3.20021 0
M  V30 626 H 53.3517 -1.29004 4.08725 0
M  V30 627 H 57.5357 -0.750153 4.90598 0
M  V30 628 H 52.7917 -0.0166949 6.11398 0
M  V30 629 H 56.9657 0.516737 6.9448 0
M  V30 630 H 54.5927 0.88944 7.54979 0
M  V30 631 N 56.1678 -1.49265 -0.50573 0
M  V30 632 C 57.5838 -1.35923 -0.836486 0
M  V30 633 C 57.7838 -0.388704 -1.97715 0
M  V30 634 O 56.8398 0.181336 -2.51848 0
M  V30 635 C 58.1528 -2.76531 -1.18115 0
M  V30 636 C 59.7008 -2.85197 -1.28964 0
M  V30 637 C 60.1758 -4.26561 -1.66761 0
M  V30 638 N 61.6668 -4.2935 -1.73819 0
M  V30 639 C 62.4018 -5.35693 -2.045 0
M  V30 640 N 61.8978 -6.52287 -2.33438 0
M  V30 641 N 63.6908 -5.23105 -2.05711 0
M  V30 642 H 55.8418 -2.10965 0.246519 0
M  V30 643 H 58.1048 -0.9468 0.0476887 0
M  V30 644 H 57.8108 -3.49226 -0.416398 0
M  V30 645 H 57.6848 -3.11599 -2.1257 0
M  V30 646 H 60.0718 -2.12742 -2.04511 0
M  V30 647 H 60.1528 -2.53718 -0.325704 0
M  V30 648 H 59.7968 -4.99541 -0.917656 0
M  V30 649 H 59.7268 -4.55502 -2.64246 0
M  V30 650 H 62.2178 -3.4526 -1.53635 0
M  V30 651 H 62.5308 -7.29158 -2.56024 0
M  V30 652 H 60.8758 -6.55521 -2.30905 0
M  V30 653 H 64.0668 -4.31026 -1.82577 0
M  V30 654 H 64.2398 -6.06078 -2.29289 0
M  V30 655 N 57.6459 0.756429 -1.3826 0
M  V30 656 C 58.8949 1.51082 -1.3363 0
M  V30 657 C 59.2079 1.95467 0.0720068 0
M  V30 658 O 60.4139 2.7043 0.240834 0
M  V30 659 C 58.8699 2.72893 -2.34644 0
M  V30 660 C 58.4779 2.35544 -3.81081 0
M  V30 661 C 60.2219 3.50791 -2.39052 0
M  V30 662 C 58.1289 3.53948 -4.73787 0
M  V30 663 H 57.0589 0.56727 -0.49671 0
M  V30 664 H 59.7099 0.827147 -1.638 0
M  V30 665 H 58.0919 3.43227 -1.97513 0
M  V30 666 H 59.2659 1.72894 -4.27135 0
M  V30 667 H 57.5809 1.70786 -3.79764 0
M  V30 668 H 60.1779 4.38823 -3.05513 0
M  V30 669 H 60.5209 3.91745 -1.40861 0
M  V30 670 H 61.0539 2.87467 -2.74968 0
M  V30 671 H 57.7929 3.18064 -5.73163 0
M  V30 672 H 57.3129 4.15651 -4.32428 0
M  V30 673 H 58.9919 4.20566 -4.91663 0
M  V30 674 N 59.124 1.23083 0.984299 0
M  V30 675 C 60.37 1.07221 1.72845 0
M  V30 676 C 60.725 -0.387453 1.88458 0
M  V30 677 O 60.018 -1.28309 1.42293 0
M  V30 678 C 60.212 1.72673 3.1292 0
M  V30 679 C 60.041 3.24853 3.10967 0
M  V30 680 C 58.811 3.93998 3.16376 0
M  V30 681 C 61.009 4.21674 2.94441 0
M  V30 682 N 58.991 5.33192 3.04268 0
M  V30 683 C 60.362 5.47756 2.90453 0
M  V30 684 C 62.417 4.12457 2.78897 0
M  V30 685 C 61.12 6.6568 2.72512 0
M  V30 686 C 63.146 5.3004 2.62319 0
M  V30 687 C 62.508 6.55046 2.59026 0
M  V30 688 H 58.607 0.44685 0.641755 0
M  V30 689 H 61.191 1.55753 1.16829 0
M  V30 690 H 59.362 1.26679 3.67161 0
M  V30 691 H 61.094 1.49824 3.75945 0
M  V30 692 H 57.849 3.45052 3.24401 0
M  V30 693 H 58.273 6.06157 3.015 0
M  V30 694 H 62.915 3.16588 2.80235 0
M  V30 695 H 60.633 7.61689 2.69919 0
M  V30 696 H 64.219 5.24747 2.5126 0
M  V30 697 H 63.099 7.44498 2.46357 0
M  V30 698 N 60.6021 -1.18246 1.0419 0
M  V30 699 C 61.8791 -1.84121 0.660208 0
M  V30 700 C 62.2591 -1.92778 -0.860221 0
M  V30 701 O 61.6071 -1.45464 -1.76217 0
M  V30 702 C 61.8171 -3.22355 1.33747 0
M  V30 703 C 63.1651 -3.98376 1.46906 0
M  V30 704 O 64.1891 -3.31799 1.29568 0
M  V30 705 O 63.0481 -5.17665 1.75171 0
M  V30 706 H 60.1421 -0.794036 0.231161 0
M  V30 707 H 62.6881 -1.25628 1.14087 0
M  V30 708 H 61.4601 -3.10964 2.37522 0
M  V30 709 H 61.0831 -3.88506 0.845515 0
M  V30 710 N 62.0802 -0.821533 -1.34494 0
M  V30 711 C 63.3262 -0.409552 -1.98622 0
M  V30 712 C 63.6592 1.0244 -1.64984 0
M  V30 713 O 62.9342 1.71325 -0.920758 0
M  V30 714 C 63.2172 -0.610458 -3.54888 0
M  V30 715 C 63.0702 -2.09043 -3.98273 0
M  V30 716 C 64.3892 -0.0455379 -4.40076 0
M  V30 717 H 61.5082 -0.15028 -0.721516 0
M  V30 718 H 64.1502 -1.03384 -1.59411 0
M  V30 719 H 62.3002 -0.079044 -3.8842 0
M  V30 720 H 63.9722 -2.68537 -3.75081 0
M  V30 721 H 62.2152 -2.58139 -3.48635 0
M  V30 722 H 62.8862 -2.18182 -5.07051 0
M  V30 723 H 65.3622 -0.499557 -4.1309 0
M  V30 724 H 64.2382 -0.215922 -5.48475 0
M  V30 725 H 64.4992 1.04939 -4.29465 0
M  V30 726 N 63.5583 1.46682 -0.576371 0
M  V30 727 C 64.5063 2.31953 0.17335 0
M  V30 728 C 65.5003 1.44098 0.89062 0
M  V30 729 O 66.7063 1.60759 0.809728 0
M  V30 730 H 63.0813 0.748273 0.0747727 0
M  V30 731 H 65.0523 2.93007 -0.564738 0
M  V30 732 C 63.8013 3.27142 1.17786 0
M  V30 733 H 63.1243 3.94719 0.635361 0
M  V30 734 H 64.5643 3.896 1.67296 0
M  V30 735 C 63.0233 2.52036 2.23561 0
M  V30 736 O 63.5533 2.27877 3.3081 0
M  V30 737 N 61.7593 2.12709 1.97998 0
M  V30 738 H 61.3063 2.32557 1.10792 0
M  V30 739 H 61.2643 1.62776 2.68982 0
M  V30 740 N 65.0364 0.313813 1.54444 0
M  V30 741 C 65.9684 -0.590425 2.21465 0
M  V30 742 C 66.9814 -1.08753 1.21147 0
M  V30 743 O 68.1704 -1.00278 1.4767 0
M  V30 744 C 65.2704 -1.82179 2.85769 0
M  V30 745 C 64.4434 -1.46502 4.12136 0
M  V30 746 C 63.5024 -2.55288 4.60124 0
M  V30 747 O 62.5284 -2.19842 5.25032 0
M  V30 748 N 63.7304 -3.86053 4.33525 0
M  V30 749 H 66.4954 -0.0166033 2.99695 0
M  V30 750 H 64.0564 0.136578 1.61323 0
M  V30 751 H 66.0484 -2.54328 3.14801 0
M  V30 752 H 64.6184 -2.30369 2.11303 0
M  V30 753 H 63.8384 -0.575595 3.89975 0
M  V30 754 H 65.1264 -1.20221 4.94393 0
M  V30 755 H 64.5244 -4.17654 3.81552 0
M  V30 756 H 63.0814 -4.54461 4.67235 0
M  V30 757 N 66.5145 -1.57545 0.0417849 0
M  V30 758 C 67.4615 -2.10977 -0.935805 0
M  V30 759 C 68.4315 -1.01486 -1.31491 0
M  V30 760 O 69.6165 -1.2898 -1.40602 0
M  V30 761 C 66.7565 -2.65169 -2.2086 0
M  V30 762 C 65.8695 -3.88714 -1.88482 0
M  V30 763 C 65.0045 -4.31254 -3.1015 0
M  V30 764 C 64.0435 -5.47524 -2.7365 0
M  V30 765 N 63.1805 -5.85162 -3.87982 0
M  V30 766 H 68.0205 -2.94218 -0.473249 0
M  V30 767 H 65.5575 -1.45415 -0.221981 0
M  V30 768 H 67.5155 -2.94685 -2.95325 0
M  V30 769 H 66.1455 -1.8474 -2.64709 0
M  V30 770 H 65.1975 -3.65849 -1.04205 0
M  V30 771 H 66.5095 -4.73245 -1.57608 0
M  V30 772 H 65.6635 -4.62273 -3.92923 0
M  V30 773 H 64.4025 -3.45516 -3.44195 0
M  V30 774 H 63.4075 -5.16187 -1.89291 0
M  V30 775 H 64.6325 -6.34971 -2.40807 0
M  V30 776 H 62.5785 -5.02377 -4.21846 0
M  V30 777 H 62.4955 -6.64362 -3.60775 0
M  V30 778 H 63.7635 -6.20791 -4.71422 0
M  V30 779 N 67.9926 0.231505 -1.5589 0
M  V30 780 C 69.2206 0.974505 -1.82513 0
M  V30 781 C 69.6356 1.78344 -0.619591 0
M  V30 782 O 68.9926 1.77792 0.411848 0
M  V30 783 C 69.0436 1.90007 -3.07538 0
M  V30 784 O 68.7646 1.12385 -4.2344 0
M  V30 785 C 70.2656 2.75779 -3.47075 0
M  V30 786 H 67.4856 0.286065 -0.606966 0
M  V30 787 H 70.0296 0.249739 -2.02969 0
M  V30 788 H 68.1846 2.57891 -2.89086 0
M  V30 789 H 68.5986 1.75125 -4.944 0
M  V30 790 H 70.0726 3.36443 -4.37619 0
M  V30 791 H 70.5496 3.47672 -2.68367 0
M  V30 792 H 71.1556 2.13323 -3.67931 0
M  V30 793 N 69.4707 1.49531 0.497807 0
M  V30 794 C 70.7177 1.59179 1.25173 0
M  V30 795 C 71.0457 0.279932 1.92475 0
M  V30 796 O 70.3007 -0.732383 1.81479 0
M  V30 797 C 70.5997 2.70252 2.33878 0
M  V30 798 C 70.2657 4.11644 1.84012 0
M  V30 799 C 68.9277 4.50121 1.70132 0
M  V30 800 C 71.2797 5.00121 1.46725 0
M  V30 801 C 68.6077 5.74845 1.17348 0
M  V30 802 C 70.9597 6.25366 0.95392 0
M  V30 803 C 69.6237 6.6267 0.801538 0
M  V30 804 H 68.8937 0.582478 0.45804 0
M  V30 805 H 71.5407 1.83373 0.551948 0
M  V30 806 H 69.8457 2.40041 3.09657 0
M  V30 807 H 71.5427 2.74925 2.9192 0
M  V30 808 H 68.1327 3.81274 1.95775 0
M  V30 809 H 72.3167 4.71048 1.56294 0
M  V30 810 H 67.5727 6.02444 1.04264 0
M  V30 811 H 71.7467 6.93301 0.656225 0
M  V30 812 H 69.3737 7.59197 0.390351 0
M  V30 813 N 70.9488 -0.749086 1.3866 0
M  V30 814 C 72.1788 -1.53611 1.38157 0
M  V30 815 C 72.5868 -1.89177 -0.0293595 0
M  V30 816 O 71.9298 -1.53606 -1.00752 0
M  V30 817 C 71.9918 -2.86087 2.17702 0
M  V30 818 C 71.6558 -2.73034 3.66472 0
M  V30 819 C 72.6528 -2.42526 4.59866 0
M  V30 820 C 70.3378 -2.90345 4.09884 0
M  V30 821 C 72.3318 -2.29492 5.94653 0
M  V30 822 C 70.0188 -2.7693 5.4475 0
M  V30 823 C 71.0168 -2.46547 6.36949 0
M  V30 824 O 70.7048 -2.33199 7.69333 0
M  V30 825 H 70.4368 -0.481773 0.474205 0
M  V30 826 H 72.9908 -0.934465 1.82912 0
M  V30 827 H 71.2208 -3.48458 1.67672 0
M  V30 828 H 72.9098 -3.47625 2.09551 0
M  V30 829 H 73.6758 -2.28816 4.27631 0
M  V30 830 H 69.5548 -3.1299 3.38464 0
M  V30 831 H 73.0988 -2.05698 6.66584 0
M  V30 832 H 68.9958 -2.90215 5.76581 0
M  V30 833 H 69.7638 -2.48376 7.79905 0
M  V30 834 N 72.4269 -1.23603 -0.977757 0
M  V30 835 C 73.3569 -1.04401 -2.0886 0
M  V30 836 C 74.3379 0.0399052 -1.70053 0
M  V30 837 O 75.5229 -0.125246 -1.93796 0
M  V30 838 C 72.6529 -0.637269 -3.41403 0
M  V30 839 C 71.6069 -1.66883 -3.94124 0
M  V30 840 C 70.9329 -1.11745 -5.22893 0
M  V30 841 C 72.2329 -3.06247 -4.23096 0
M  V30 842 H 73.9269 -1.97316 -2.25182 0
M  V30 843 H 71.4729 -0.950096 -1.08209 0
M  V30 844 H 73.4259 -0.48998 -4.18542 0
M  V30 845 H 72.1499 0.327557 -3.24953 0
M  V30 846 H 70.8089 -1.80416 -3.19133 0
M  V30 847 H 70.4569 -0.143527 -5.02795 0
M  V30 848 H 70.1569 -1.80672 -5.59134 0
M  V30 849 H 71.6809 -0.982067 -6.02651 0
M  V30 850 H 73.0949 -2.96001 -4.90975 0
M  V30 851 H 71.4919 -3.72436 -4.70544 0
M  V30 852 H 72.5619 -3.55041 -3.30263 0
M  V30 853 N 73.905 1.17692 -1.04816 0
M  V30 854 C 75.321 1.39863 -0.768794 0
M  V30 855 C 75.521 1.91118 0.638451 0
M  V30 856 O 74.577 2.10036 1.40146 0
M  V30 857 C 75.89 2.39274 -1.82122 0
M  V30 858 C 77.438 2.52987 -1.843 0
M  V30 859 C 77.913 3.55669 -2.88555 0
M  V30 860 N 79.404 3.63183 -2.87493 0
M  V30 861 C 80.139 4.42381 -3.64811 0
M  V30 862 N 79.635 5.25125 -4.51903 0
M  V30 863 N 81.428 4.37217 -3.53267 0
M  V30 864 H 73.579 0.82752 -1.95617 0
M  V30 865 H 75.842 0.426123 -0.846831 0
M  V30 866 H 75.548 2.08678 -2.83102 0
M  V30 867 H 75.422 3.38725 -1.65967 0
M  V30 868 H 77.809 2.82896 -0.839869 0
M  V30 869 H 77.89 1.53623 -2.04532 0
M  V30 870 H 77.534 3.26499 -3.89051 0
M  V30 871 H 77.464 4.54728 -2.65575 0
M  V30 872 H 79.955 3.04103 -2.24343 0
M  V30 873 H 80.268 5.82728 -5.07591 0
M  V30 874 H 78.613 5.24519 -4.55966 0
M  V30 875 H 81.804 3.71626 -2.84625 0
M  V30 876 H 81.977 4.98696 -4.13771 0
M  V30 877 N 75.3831 0.828654 1.34056 0
M  V30 878 C 76.3311 0.242973 2.31327 0
M  V30 879 C 77.3251 -0.61944 1.57668 0
M  V30 880 O 78.5311 -0.51014 1.7262 0
M  V30 881 H 74.9061 0.059834 0.749616 0
M  V30 882 H 76.8771 1.07809 2.78244 0
M  V30 883 C 75.6261 -0.575733 3.429 0
M  V30 884 H 74.9491 0.0785582 3.99723 0
M  V30 885 H 76.3891 -0.951547 4.13185 0
M  V30 886 C 74.8481 -1.75044 2.87856 0
M  V30 887 O 75.3781 -2.84882 2.83205 0
M  V30 888 N 73.5841 -1.56903 2.44602 0
M  V30 889 H 73.1311 -0.675547 2.48584 0
M  V30 890 H 73.0891 -2.35652 2.08124 0
M  V30 891 N 76.8612 -1.46375 0.584142 0
M  V30 892 C 77.8092 -2.32042 -0.161047 0
M  V30 893 C 78.8032 -1.44569 -0.882966 0
M  V30 894 O 80.0092 -1.61186 -0.801191 0
M  V30 895 H 76.3842 -0.748659 -0.0708033 0
M  V30 896 H 78.3552 -2.92704 0.580269 0
M  V30 897 C 77.1042 -3.27762 -1.1605 0
M  V30 898 H 76.4272 -3.95051 -0.614419 0
M  V30 899 H 77.8672 -3.90481 -1.65228 0
M  V30 900 C 76.3262 -2.53218 -2.22221 0
M  V30 901 O 76.8562 -2.29628 -3.29597 0
M  V30 902 N 75.0622 -2.13756 -1.96868 0
M  V30 903 H 74.6092 -2.33142 -1.09557 0
M  V30 904 H 74.5672 -1.642 -2.68115 0
M  V30 905 N 78.3393 -0.321999 -1.54275 0
M  V30 906 C 79.2713 0.578671 -2.21775 0
M  V30 907 C 80.2843 1.08109 -1.21722 0
M  V30 908 O 81.4733 0.994938 -1.482 0
M  V30 909 C 78.5733 1.80661 -2.86731 0
M  V30 910 C 77.7463 1.44314 -4.12907 0
M  V30 911 C 76.8053 2.52845 -4.61472 0
M  V30 912 O 75.8313 2.17054 -5.2619 0
M  V30 913 N 77.0333 3.83748 -4.35566 0
M  V30 914 H 79.7983 0.000709447 -2.997 0
M  V30 915 H 77.3593 -0.145132 -1.61248 0
M  V30 916 H 79.3513 2.52655 -3.16145 0
M  V30 917 H 77.9213 2.29245 -2.12521 0
M  V30 918 H 77.1413 0.554906 -3.90275 0
M  V30 919 H 78.4293 1.17598 -4.95023 0
M  V30 920 H 77.8273 4.15625 -3.83761 0
M  V30 921 H 76.3843 4.51977 -4.69638 0
M  V30 922 N 79.8174 1.5752 -0.0501392 0
M  V30 923 C 80.7474 2.14502 0.922566 0
M  V30 924 C 81.7284 1.06642 1.3252 0
M  V30 925 O 82.9134 1.34577 1.4001 0
M  V30 926 C 80.0434 2.68916 2.19776 0
M  V30 927 C 78.9974 3.8175 1.93523 0
M  V30 928 C 78.3234 4.22677 3.27487 0
M  V30 929 C 79.6234 5.06932 1.25765 0
M  V30 930 H 81.3174 2.9603 0.447952 0
M  V30 931 H 78.8634 1.42401 0.214024 0
M  V30 932 H 80.8164 3.07419 2.88222 0
M  V30 933 H 79.5404 1.84578 2.69441 0
M  V30 934 H 78.1994 3.43718 1.27489 0
M  V30 935 H 77.8474 3.35291 3.74952 0
M  V30 936 H 77.5474 4.98725 3.1072 0
M  V30 937 H 79.0714 4.63779 3.97166 0
M  V30 938 H 80.4854 5.42888 1.84244 0
M  V30 939 H 78.8824 5.88116 1.19328 0
M  V30 940 H 79.9524 4.84337 0.233536 0
M  V30 941 N 81.2955 -0.223234 1.56011 0
M  V30 942 C 82.5415 -0.949279 1.79211 0
M  V30 943 C 82.8745 -1.84054 0.619494 0
M  V30 944 O 82.1495 -1.90726 -0.381317 0
M  V30 945 C 82.4325 -1.78965 3.12479 0
M  V30 946 C 82.2855 -0.924997 4.40186 0
M  V30 947 C 83.6045 -2.76774 3.42175 0
M  V30 948 H 80.7235 -0.343676 0.651963 0
M  V30 949 H 83.3655 -0.218253 1.88742 0
M  V30 950 H 81.5155 -2.41291 3.04485 0
M  V30 951 H 83.1875 -0.318615 4.60198 0
M  V30 952 H 81.4305 -0.230344 4.33188 0
M  V30 953 H 82.1015 -1.54735 5.29869 0
M  V30 954 H 84.5775 -2.24584 3.50287 0
M  V30 955 H 83.4535 -3.32678 4.36597 0
M  V30 956 H 83.7145 -3.54429 2.64258 0
M  V30 957 N 82.7736 -1.49793 -0.48987 0
M  V30 958 C 83.7366 -1.66752 -1.57246 0
M  V30 959 C 84.7366 -0.538867 -1.51502 0
M  V30 960 O 85.9266 -0.805545 -1.54456 0
M  V30 961 C 83.0586 -1.67528 -2.96896 0
M  V30 962 H 84.2516 -2.63321 -1.43534 0
M  V30 963 H 81.8046 -1.38992 -0.714914 0
M  V30 964 H 82.5396 -0.725837 -3.16073 0
M  V30 965 H 82.3246 -2.49504 -3.02473 0
M  V30 966 H 83.8146 -1.82667 -3.7553 0
M  V30 967 N 84.2517 0.741722 -1.39055 0
M  V30 968 C 85.4997 1.49818 -1.35643 0
M  V30 969 C 85.8207 1.94938 0.0491642 0
M  V30 970 O 85.0907 1.68505 0.999141 0
M  V30 971 H 83.6707 0.555755 -0.499144 0
M  V30 972 H 86.3327 0.880957 -1.73854 0
M  V30 973 H 85.4287 2.38348 -2.01486 0
M  V30 974 N 85.7298 1.2412 0.971189 0
M  V30 975 C 86.9598 1.10415 1.7462 0
M  V30 976 C 87.3678 -0.346462 1.86001 0
M  V30 977 O 86.7108 -1.25104 1.34517 0
M  V30 978 C 86.7728 1.66596 3.18568 0
M  V30 979 C 86.4368 3.15446 3.3067 0
M  V30 980 C 87.4338 4.12636 3.16271 0
M  V30 981 C 85.1188 3.55337 3.55022 0
M  V30 982 C 87.1128 5.47699 3.26044 0
M  V30 983 C 84.7998 4.90542 3.64434 0
M  V30 984 C 85.7978 5.86532 3.49956 0
M  V30 985 O 85.4858 7.19279 3.59017 0
M  V30 986 H 85.2178 0.386616 0.55453 0
M  V30 987 H 87.7718 1.64633 1.22821 0
M  V30 988 H 86.0018 1.06808 3.71657 0
M  V30 989 H 87.6908 1.48232 3.77865 0
M  V30 990 H 88.4568 3.8316 2.97344 0
M  V30 991 H 84.3358 2.8113 3.65359 0
M  V30 992 H 87.8798 6.22603 3.14661 0
M  V30 993 H 83.7768 5.19691 3.82873 0
M  V30 994 H 84.5448 7.27153 3.75754 0
M  V30 995 N 87.2079 -1.17134 1.05439 0
M  V30 996 C 88.1379 -2.2342 0.678649 0
M  V30 997 C 89.1189 -1.66971 -0.32476 0
M  V30 998 O 90.3039 -1.93149 -0.201802 0
M  V30 999 C 87.4339 -3.47256 0.0552099 0
M  V30 1000 C 86.3879 -4.16543 0.98365 0
M  V30 1001 C 85.7139 -5.34231 0.223961 0
M  V30 1002 C 87.0139 -4.68495 2.3089 0
M  V30 1003 H 88.7079 -2.55105 1.56722 0
M  V30 1004 H 86.2539 -1.2262 0.754998 0
M  V30 1005 H 88.2069 -4.20828 -0.21946 0
M  V30 1006 H 86.9309 -3.14846 -0.868319 0
M  V30 1007 H 85.5899 -3.44887 1.24293 0
M  V30 1008 H 85.2379 -4.98071 -0.702412 0
M  V30 1009 H 84.9379 -5.81527 0.842627 0
M  V30 1010 H 86.4619 -6.10585 -0.0433671 0
M  V30 1011 H 87.8759 -5.33691 2.09396 0
M  V30 1012 H 86.2729 -5.26379 2.88176 0
M  V30 1013 H 87.3429 -3.85169 2.94572 0
M  V30 1014 N 88.686 -0.835752 -1.33615 0
M  V30 1015 C 89.618 -0.224151 -2.28101 0
M  V30 1016 C 90.631 0.593331 -1.51603 0
M  V30 1017 O 91.82 0.420911 -1.73466 0
M  V30 1018 C 88.92 0.703309 -3.31522 0
M  V30 1019 C 88.093 -0.0741528 -4.37337 0
M  V30 1020 C 87.152 0.776176 -5.20444 0
M  V30 1021 O 86.178 0.216506 -5.68788 0
M  V30 1022 N 87.38 2.09401 -5.41416 0
M  V30 1023 H 90.145 -1.03598 -2.81225 0
M  V30 1024 H 87.706 -0.69392 -1.46275 0
M  V30 1025 H 89.698 1.27707 -3.84022 0
M  V30 1026 H 88.268 1.41585 -2.78698 0
M  V30 1027 H 87.488 -0.82928 -3.85378 0
M  V30 1028 H 88.776 -0.608863 -5.05144 0
M  V30 1029 H 88.174 2.57229 -5.03835 0
M  V30 1030 H 86.731 2.61633 -5.96985 0
M  V30 1031 N 90.1641 1.46063 -0.591896 0
M  V30 1032 C 91.4121 2.01938 -0.0808391 0
M  V30 1033 C 91.7331 1.46475 1.28725 0
M  V30 1034 O 91.0031 0.652944 1.84698 0
M  V30 1035 H 89.5831 0.746516 -0.0268938 0
M  V30 1036 H 92.2451 1.79055 -0.769752 0
M  V30 1037 H 91.3411 3.12094 -0.0187578 0
M  V30 1038 N 91.6422 0.330177 1.54103 0
M  V30 1039 C 93.0532 -0.15652 1.86043 0
M  V30 1040 C 93.4042 -1.51086 1.2517 0
M  V30 1041 O 92.5292 -2.09023 0.560217 0
M  V30 1042 C 93.1242 -0.290784 3.3755 0
M  V30 1043 C 91.6832 -0.721705 3.69416 0
M  V30 1044 C 90.8302 0.152622 2.7688 0
M  V30 1045 H 93.7812 0.550237 1.48856 0
M  V30 1046 H 93.8022 -1.12058 3.63625 0
M  V30 1047 H 93.3142 0.695068 3.81825 0
M  V30 1048 H 91.4152 -1.71706 3.30678 0
M  V30 1049 H 91.5282 -0.520869 4.7626 0
M  V30 1050 H 89.8922 -0.372894 2.51956 0
M  V30 1051 H 90.6752 1.13536 3.23982 0
M  V30 1052 N 93.1203 -1.57491 0.0584922 0
M  V30 1053 C 94.0683 -2.13148 -0.931168 0
M  V30 1054 C 95.0623 -1.06507 -1.31729 0
M  V30 1055 O 96.2683 -1.24906 -1.29609 0
M  V30 1056 H 92.6433 -0.68137 -0.31818 0
M  V30 1057 H 94.6143 -2.95187 -0.436707 0
M  V30 1058 C 93.3633 -2.69732 -2.19408 0
M  V30 1059 H 92.6863 -3.51454 -1.90578 0
M  V30 1060 H 94.1263 -3.12287 -2.86798 0
M  V30 1061 C 92.5853 -1.63855 -2.94369 0
M  V30 1062 O 93.1153 -1.05565 -3.87581 0
M  V30 1063 N 91.3213 -1.35202 -2.57233 0
M  V30 1064 H 90.8683 -1.82791 -1.81508 0
M  V30 1065 H 90.8263 -0.645922 -3.07693 0
M  V30 1066 N 94.5984 0.214957 -1.56127 0
M  V30 1067 C 95.8444 0.939762 -1.79712 0
M  V30 1068 C 96.1774 1.83723 -0.629247 0
M  V30 1069 O 95.4524 1.90925 0.371197 0
M  V30 1070 C 95.7354 1.77306 -3.13424 0
M  V30 1071 C 95.5884 0.90164 -4.40671 0
M  V30 1072 C 96.9074 2.74956 -3.43638 0
M  V30 1073 H 94.0264 0.340214 -0.653776 0
M  V30 1074 H 96.6684 0.20824 -1.88855 0
M  V30 1075 H 94.8184 2.39673 -3.0576 0
M  V30 1076 H 96.4904 0.294206 -4.60361 0
M  V30 1077 H 94.7334 0.207368 -4.33304 0
M  V30 1078 H 95.4044 1.51923 -5.30682 0
M  V30 1079 H 97.8804 2.22724 -3.51473 0
M  V30 1080 H 96.7564 3.30358 -4.38355 0
M  V30 1081 H 97.0174 3.53023 -2.66134 0
M  V30 1082 N 96.0765 1.50051 0.48192 0
M  V30 1083 C 97.0245 1.68635 1.60203 0
M  V30 1084 C 98.0185 0.552184 1.60148 0
M  V30 1085 O 99.2245 0.732377 1.64427 0
M  V30 1086 H 95.5995 0.532081 0.531407 0
M  V30 1087 H 97.5705 2.62616 1.41688 0
M  V30 1088 C 96.3195 1.78775 2.9822 0
M  V30 1089 H 95.6425 2.6543 2.98976 0
M  V30 1090 H 97.0825 1.95806 3.7608 0
M  V30 1091 C 95.5415 0.536849 3.32595 0
M  V30 1092 O 96.0715 -0.328897 4.00351 0
M  V30 1093 N 94.2775 0.394091 2.87915 0
M  V30 1094 H 93.8245 1.09962 2.32951 0
M  V30 1095 H 93.7825 -0.441737 3.11281 0
M  V30 1096 N 97.5546 -0.734337 1.39446 0
M  V30 1097 C 98.4846 -1.86155 1.40955 0
M  V30 1098 C 99.4656 -1.67898 0.272827 0
M  V30 1099 O 100.651 -1.88207 0.478743 0
M  V30 1100 C 97.7806 -3.23912 1.25294 0
M  V30 1101 C 96.7346 -3.56808 2.36373 0
M  V30 1102 C 96.0606 -4.93508 2.058 0
M  V30 1103 C 97.3606 -3.59713 3.78687 0
M  V30 1104 H 99.0546 -1.8515 2.35287 0
M  V30 1105 H 96.6006 -0.889367 1.13253 0
M  V30 1106 H 98.5536 -4.02443 1.2497 0
M  V30 1107 H 97.2776 -3.25446 0.274308 0
M  V30 1108 H 95.9366 -2.80606 2.35914 0
M  V30 1109 H 95.5846 -4.91623 1.06374 0
M  V30 1110 H 95.2846 -5.16486 2.80208 0
M  V30 1111 H 96.8086 -5.74396 2.07128 0
M  V30 1112 H 98.2226 -4.2832 3.81071 0
M  V30 1113 H 96.6196 -3.94209 4.52459 0
M  V30 1114 H 97.6896 -2.59504 4.09617 0
M  V30 1115 N 99.0327 -1.24633 -0.964593 0
M  V30 1116 C 99.9427 -1.05859 -2.09359 0
M  V30 1117 C 100.959 0.00148855 -1.74 0
M  V30 1118 O 102.135 -0.197346 -2.00431 0
M  V30 1119 C 99.1997 -0.668879 -3.40187 0
M  V30 1120 C 98.2607 -1.80578 -3.89474 0
M  V30 1121 C 97.4937 -1.43457 -5.14058 0
M  V30 1122 O 97.7167 -0.325775 -5.69469 0
M  V30 1123 O 96.6507 -2.2613 -5.57807 0
M  V30 1124 H 100.477 -2.00516 -2.28094 0
M  V30 1125 H 98.0617 -1.03481 -1.0776 0
M  V30 1126 H 99.9437 -0.463211 -4.18846 0
M  V30 1127 H 98.6187 0.248536 -3.22744 0
M  V30 1128 H 97.5257 -2.06623 -3.11862 0
M  V30 1129 H 98.8587 -2.70208 -4.11398 0
M  V30 1130 N 100.511 1.16574 -1.06058 0
M  V30 1131 C 101.421 2.2452 -0.680282 0
M  V30 1132 C 102.437 1.71348 0.302604 0
M  V30 1133 O 103.613 2.00822 0.152513 0
M  V30 1134 C 100.678 3.46629 -0.0700315 0
M  V30 1135 C 99.7388 4.14849 -1.10448 0
M  V30 1136 C 98.9718 5.31129 -0.523256 0
M  V30 1137 O 99.1948 5.66514 0.664709 0
M  V30 1138 O 98.1288 5.88526 -1.26179 0
M  V30 1139 H 101.955 2.59355 -1.58015 0
M  V30 1140 H 99.5398 1.24043 -0.832694 0
M  V30 1141 H 101.422 4.20543 0.268667 0
M  V30 1142 H 100.097 3.13573 0.803353 0
M  V30 1143 H 99.0038 3.42916 -1.49532 0
M  V30 1144 H 100.337 4.51954 -1.94931 0
M  V30 1145 N 101.989 0.842826 1.3317 0
M  V30 1146 C 102.936 0.276885 2.29133 0
M  V30 1147 C 103.906 -0.609527 1.54512 0
M  V30 1148 O 105.091 -0.546955 1.82792 0
M  V30 1149 C 102.231 -0.538707 3.40869 0
M  V30 1150 C 101.344 0.372169 4.30394 0
M  V30 1151 C 100.479 -0.454908 5.29249 0
M  V30 1152 C 99.5179 0.45411 6.10413 0
M  V30 1153 N 98.6549 -0.335075 7.013 0
M  V30 1154 H 103.495 1.10052 2.76934 0
M  V30 1155 H 101.032 0.554161 1.36262 0
M  V30 1156 H 102.99 -1.02709 4.0436 0
M  V30 1157 H 101.62 -1.32727 2.9425 0
M  V30 1158 H 100.672 0.97888 3.6759 0
M  V30 1159 H 101.984 1.0703 4.87182 0
M  V30 1160 H 101.138 -1.00695 5.98285 0
M  V30 1161 H 99.8769 -1.18646 4.73048 0
M  V30 1162 H 98.8819 1.01813 5.40291 0
M  V30 1163 H 100.107 1.18409 6.68697 0
M  V30 1164 H 98.0529 -1.04994 6.47543 0
M  V30 1165 H 97.9699 0.304262 7.55387 0
M  V30 1166 H 99.2379 -0.869224 7.74638 0
M  V30 1167 N 103.467 -1.45747 0.599634 0
M  V30 1168 C 104.716 -2.01502 0.0893511 0
M  V30 1169 C 105.029 -1.4748 -1.28488 0
M  V30 1170 O 106.235 -1.95161 -1.88745 0
M  V30 1171 C 104.691 -3.59735 0.109082 0
M  V30 1172 C 104.299 -4.22754 1.48267 0
M  V30 1173 C 106.043 -4.23085 -0.346374 0
M  V30 1174 C 103.95 -5.73115 1.45921 0
M  V30 1175 H 102.88 -0.753417 0.0296347 0
M  V30 1176 H 105.531 -1.67303 0.753788 0
M  V30 1177 H 103.913 -3.91087 -0.621854 0
M  V30 1178 H 105.087 -4.02987 2.23468 0
M  V30 1179 H 103.402 -3.71567 1.87955 0
M  V30 1180 H 105.999 -5.33327 -0.38298 0
M  V30 1181 H 106.342 -3.93201 -1.36743 0
M  V30 1182 H 106.875 -3.9642 0.331038 0
M  V30 1183 H 103.614 -6.07685 2.45762 0
M  V30 1184 H 103.134 -5.95097 0.749665 0
M  V30 1185 H 104.813 -6.3616 1.17941 0
M  V30 1186 N 104.945 -0.338344 -1.53925 0
M  V30 1187 C 106.222 0.314774 -1.93051 0
M  V30 1188 C 106.602 1.68669 -1.26941 0
M  V30 1189 O 105.95 2.24636 -0.418445 0
M  V30 1190 C 106.16 0.392249 -3.46789 0
M  V30 1191 C 107.508 0.645554 -4.19664 0
M  V30 1192 O 108.532 0.474575 -3.53024 0
M  V30 1193 O 107.391 0.976408 -5.37707 0
M  V30 1194 H 104.485 0.182598 -0.80659 0
M  V30 1195 H 107.031 -0.389141 -1.65178 0
M  V30 1196 H 105.803 -0.570702 -3.87116 0
M  V30 1197 H 105.426 1.14316 -3.80812 0
M  V30 1198 N 106.423 1.57458 -0.0668435 0
M  V30 1199 C 107.669 1.93587 0.6043 0
M  V30 1200 C 108.002 0.946722 1.69561 0
M  V30 1201 O 107.277 -0.0248516 1.94484 0
M  V30 1202 C 107.56 3.40014 1.18585 0
M  V30 1203 C 107.413 4.49685 0.101529 0
M  V30 1204 C 108.732 3.87154 2.09284 0
M  V30 1205 H 105.851 0.703958 0.218202 0
M  V30 1206 H 108.493 1.89542 -0.131804 0
M  V30 1207 H 106.643 3.43592 1.81319 0
M  V30 1208 H 108.315 4.5823 -0.531279 0
M  V30 1209 H 106.558 4.30059 -0.568487 0
M  V30 1210 H 107.229 5.49266 0.54874 0
M  V30 1211 H 109.705 3.85551 1.56491 0
M  V30 1212 H 108.581 4.90231 2.46911 0
M  V30 1213 H 108.842 3.2481 2.99918 0
M  V30 1214 N 107.901 -0.206675 1.56239 0
M  V30 1215 C 109.147 -0.930218 1.80208 0
M  V30 1216 C 109.48 -1.83387 0.638981 0
M  V30 1217 O 108.755 -1.91119 -0.361066 0
M  V30 1218 C 109.038 -1.75641 3.1436 0
M  V30 1219 C 108.891 -0.878257 4.41142 0
M  V30 1220 C 110.21 -2.73129 3.45092 0
M  V30 1221 H 107.329 -0.336742 0.655571 0
M  V30 1222 H 109.971 -0.198222 1.88963 0
M  V30 1223 H 108.121 -2.38048 3.07027 0
M  V30 1224 H 109.793 -0.269787 4.6051 0
M  V30 1225 H 108.036 -0.184385 4.33408 0
M  V30 1226 H 108.707 -1.49106 5.3148 0
M  V30 1227 H 111.183 -2.20856 3.52649 0
M  V30 1228 H 110.059 -3.28028 4.40101 0
M  V30 1229 H 110.32 -3.51606 2.68003 0
M  V30 1230 N 109.379 -1.50304 -0.473955 0
M  V30 1231 C 110.79 -1.54042 -1.0549 0
M  V30 1232 C 111.141 -0.342248 -1.93192 0
M  V30 1233 O 110.266 0.545157 -2.09421 0
M  V30 1234 C 110.861 -2.79152 -1.91989 0
M  V30 1235 C 109.42 -2.8558 -2.45196 0
M  V30 1236 C 108.567 -2.48295 -1.2347 0
M  V30 1237 H 111.518 -1.5661 -0.256693 0
M  V30 1238 H 111.539 -2.60845 -2.7702 0
M  V30 1239 H 111.051 -3.66339 -1.28131 0
M  V30 1240 H 109.152 -2.02738 -3.12615 0
M  V30 1241 H 109.265 -3.88403 -2.80499 0
M  V30 1242 H 107.629 -2.00669 -1.56856 0
M  V30 1243 H 108.412 -3.37787 -0.612789 0
M  V30 1244 N 110.857 0.726932 -1.39834 0
M  V30 1245 C 112.106 1.48214 -1.36805 0
M  V30 1246 C 112.419 1.95576 0.0305291 0
M  V30 1247 O 113.625 2.7088 0.183417 0
M  V30 1248 C 112.081 2.67854 -2.40379 0
M  V30 1249 C 111.689 2.27408 -3.85992 0
M  V30 1250 C 113.433 3.45641 -2.46439 0
M  V30 1251 C 111.34 3.43819 -4.81189 0
M  V30 1252 H 110.27 0.556606 -0.508631 0
M  V30 1253 H 112.921 0.792216 -1.65518 0
M  V30 1254 H 111.303 3.3896 -2.04749 0
M  V30 1255 H 112.477 1.63795 -4.30706 0
M  V30 1256 H 110.792 1.62692 -3.83302 0
M  V30 1257 H 113.389 4.32244 -3.14753 0
M  V30 1258 H 113.732 3.88669 -1.49139 0
M  V30 1259 H 114.265 2.8157 -2.81004 0
M  V30 1260 H 111.004 3.05834 -5.79781 0
M  V30 1261 H 110.524 4.06385 -4.41148 0
M  V30 1262 H 112.203 4.10043 -5.00474 0
M  V30 1263 N 112.336 1.25143 0.95797 0
M  V30 1264 C 113.246 1.06968 2.08794 0
M  V30 1265 C 114.262 0.00773911 1.73998 0
M  V30 1266 O 115.438 0.207972 2.00323 0
M  V30 1267 C 112.503 0.68691 3.39827 0
M  V30 1268 C 111.564 1.82641 3.88511 0
M  V30 1269 C 110.797 1.46181 5.1329 0
M  V30 1270 O 111.02 0.355971 5.69288 0
M  V30 1271 O 109.954 2.29085 5.566 0
M  V30 1272 H 113.78 2.01723 2.27027 0
M  V30 1273 H 111.365 1.04051 1.07209 0
M  V30 1274 H 113.247 0.485417 4.18595 0
M  V30 1275 H 111.922 -0.231417 3.22872 0
M  V30 1276 H 110.829 2.08274 3.10762 0
M  V30 1277 H 112.162 2.72386 4.09959 0
M  V30 1278 N 113.814 -1.1601 1.06675 0
M  V30 1279 C 115.225 -1.68235 0.809565 0
M  V30 1280 C 115.576 -1.8454 -0.666303 0
M  V30 1281 O 114.701 -1.54374 -1.5165 0
M  V30 1282 C 115.296 -3.05585 1.46299 0
M  V30 1283 C 113.855 -3.54915 1.25349 0
M  V30 1284 C 113.002 -2.30804 1.53703 0
M  V30 1285 H 115.953 -1.00318 1.22971 0
M  V30 1286 H 115.974 -3.70174 0.880431 0
M  V30 1287 H 115.486 -2.93686 2.53713 0
M  V30 1288 H 113.587 -3.72067 0.199261 0
M  V30 1289 H 113.7 -4.36774 1.9689 0
M  V30 1290 H 112.064 -2.36007 0.957739 0
M  V30 1291 H 112.847 -2.21499 2.62284 0
M  V30 1292 N 115.292 -0.849877 -1.32721 0
M  V30 1293 C 116.242 -0.262892 -2.26479 0
M  V30 1294 C 117.226 0.588493 -1.49752 0
M  V30 1295 O 118.418 0.438659 -1.71478 0
M  V30 1296 C 115.547 0.551818 -3.38836 0
M  V30 1297 C 114.633 -0.311689 -4.22953 0
M  V30 1298 N 115.024 -1.39567 -4.86163 0
M  V30 1299 C 113.322 -0.100611 -4.45887 0
M  V30 1300 C 114.023 -1.92651 -5.48872 0
M  V30 1301 N 112.999 -1.22637 -5.29586 0
M  V30 1302 H 116.801 -1.09166 -2.72873 0
M  V30 1303 H 114.315 -0.695486 -1.46754 0
M  V30 1304 H 116.312 0.988713 -4.05006 0
M  V30 1305 H 114.972 1.37844 -2.93988 0
M  V30 1306 H 115.983 -1.77859 -4.86402 0
M  V30 1307 H 112.66 0.691681 -4.11731 0
M  V30 1308 H 114.05 -2.83487 -6.09167 0
M  V30 1309 N 116.77 1.45427 -0.607355 0
M  V30 1310 C 117.733 2.28974 0.101693 0
M  V30 1311 C 118.733 1.39754 0.795329 0
M  V30 1312 O 119.923 1.61878 0.643527 0
M  V30 1313 C 117.055 3.20768 1.15414 0
M  V30 1314 H 118.248 2.93147 -0.632844 0
M  V30 1315 H 115.801 1.51945 -0.366391 0
M  V30 1316 H 116.536 2.61395 1.91945 0
M  V30 1317 H 116.321 3.86489 0.66098 0
M  V30 1318 H 117.811 3.83589 1.65073 0
M  V30 1319 N 118.248 0.346503 1.53744 0
M  V30 1320 C 119.178 -0.501193 2.28058 0
M  V30 1321 C 120.159 -1.10014 1.29734 0
M  V30 1322 O 121.344 -1.12097 1.58581 0
M  V30 1323 C 118.474 -1.65078 3.05559 0
M  V30 1324 C 117.428 -1.18003 4.11411 0
M  V30 1325 C 116.754 -2.41837 4.76884 0
M  V30 1326 C 118.054 -0.278394 5.21558 0
M  V30 1327 H 119.748 0.11875 2.99164 0
M  V30 1328 H 117.294 0.0585531 1.43881 0
M  V30 1329 H 119.247 -2.25028 3.56287 0
M  V30 1330 H 117.971 -2.29767 2.32109 0
M  V30 1331 H 116.63 -0.603331 3.61601 0
M  V30 1332 H 116.278 -3.0494 4.00026 0
M  V30 1333 H 115.978 -2.1102 5.48402 0
M  V30 1334 H 117.502 -3.02508 5.30397 0
M  V30 1335 H 118.916 -0.784823 5.67903 0
M  V30 1336 H 117.313 -0.0619707 6.00068 0
M  V30 1337 H 118.383 0.684677 4.80042 0
M  V30 1338 N 119.726 -1.57421 0.075193 0
M  V30 1339 C 120.973 -1.93618 -0.593146 0
M  V30 1340 C 121.301 -0.955484 -1.69413 0
M  V30 1341 O 120.556 0.0283251 -1.9568 0
M  V30 1342 C 120.855 -3.36428 -1.20626 0
M  V30 1343 C 120.521 -4.50307 -0.231078 0
M  V30 1344 C 119.183 -4.81186 0.0371936 0
M  V30 1345 C 121.535 -5.19374 0.435888 0
M  V30 1346 C 118.863 -5.78466 0.979461 0
M  V30 1347 C 121.215 -6.17665 1.3665 0
M  V30 1348 C 119.879 -6.46958 1.6432 0
M  V30 1349 H 119.149 -0.708499 -0.217047 0
M  V30 1350 H 121.796 -1.90937 0.146793 0
M  V30 1351 H 120.101 -3.35592 -2.02201 0
M  V30 1352 H 121.798 -3.61727 -1.73073 0
M  V30 1353 H 118.388 -4.26227 -0.450357 0
M  V30 1354 H 122.572 -4.95711 0.241748 0
M  V30 1355 H 117.828 -5.99487 1.20106 0
M  V30 1356 H 122.002 -6.70284 1.88924 0
M  V30 1357 H 119.629 -7.2215 2.37494 0
M  V30 1358 N 121.204 0.198386 -1.56346 0
M  V30 1359 C 122.134 1.24865 -1.9731 0
M  V30 1360 C 123.115 1.47651 -0.844576 0
M  V30 1361 O 124.3 1.59444 -1.10866 0
M  V30 1362 C 121.43 2.59358 -2.30977 0
M  V30 1363 C 120.384 2.5119 -3.46537 0
M  V30 1364 C 119.71 3.89926 -3.65871 0
M  V30 1365 C 121.01 2.03977 -4.80823 0
M  V30 1366 H 122.704 0.908252 -2.85291 0
M  V30 1367 H 120.25 0.435462 -1.37258 0
M  V30 1368 H 122.203 3.33011 -2.58228 0
M  V30 1369 H 120.927 2.95132 -1.39874 0
M  V30 1370 H 119.586 1.79993 -3.19371 0
M  V30 1371 H 119.234 4.23046 -2.72105 0
M  V30 1372 H 118.934 3.85336 -4.4361 0
M  V30 1373 H 120.458 4.65205 -3.95495 0
M  V30 1374 H 121.872 2.67386 -5.07127 0
M  V30 1375 H 120.269 2.10397 -5.62008 0
M  V30 1376 H 121.339 0.992861 -4.74626 0
M  V30 1377 N 122.682 1.50554 0.465978 0
M  V30 1378 C 123.93 1.61479 1.21528 0
M  V30 1379 C 124.251 0.319596 1.92363 0
M  V30 1380 O 123.521 -0.663194 1.84333 0
M  V30 1381 H 122.101 0.595055 0.451573 0
M  V30 1382 H 124.763 1.87355 0.53704 0
M  V30 1383 H 123.859 2.42846 1.96042 0
M  V30 1384 N 124.16 -0.719506 1.40217 0
M  V30 1385 C 125.409 -1.47486 1.37589 0
M  V30 1386 C 125.722 -1.9559 -0.0201568 0
M  V30 1387 O 126.928 -2.70973 -0.169049 0
M  V30 1388 C 125.384 -2.66575 2.41796 0
M  V30 1389 C 124.992 -2.25358 3.87192 0
M  V30 1390 C 126.736 -3.4433 2.48269 0
M  V30 1391 C 124.643 -3.41262 4.83005 0
M  V30 1392 H 123.573 -0.553901 0.511576 0
M  V30 1393 H 126.224 -0.783427 1.65936 0
M  V30 1394 H 124.606 -3.3787 2.06543 0
M  V30 1395 H 125.78 -1.61509 4.31569 0
M  V30 1396 H 124.095 -1.60657 3.84159 0
M  V30 1397 H 126.692 -4.30569 3.17041 0
M  V30 1398 H 127.035 -3.87872 1.51198 0
M  V30 1399 H 127.568 -2.80076 2.82493 0
M  V30 1400 H 124.307 -3.02755 5.81394 0
M  V30 1401 H 123.827 -4.0404 4.43297 0
M  V30 1402 H 125.506 -4.07383 5.02641 0
M  V30 1403 N 125.638 -1.25649 -0.95132 0
M  V30 1404 C 126.588 -1.03004 -2.03406 0
M  V30 1405 C 127.572 0.034187 -1.60864 0
M  V30 1406 O 128.764 -0.181549 -1.76066 0
M  V30 1407 C 125.893 -0.654255 -3.37008 0
M  V30 1408 C 124.979 -1.75542 -3.86065 0
M  V30 1409 N 125.37 -2.99113 -4.07879 0
M  V30 1410 C 123.668 -1.63669 -4.14884 0
M  V30 1411 C 124.369 -3.70611 -4.48356 0
M  V30 1412 N 123.345 -2.98247 -4.54477 0
M  V30 1413 H 127.147 -1.96813 -2.1827 0
M  V30 1414 H 124.661 -1.16017 -1.13639 0
M  V30 1415 H 126.658 -0.473206 -4.14206 0
M  V30 1416 H 125.318 0.276468 -3.23521 0
M  V30 1417 H 126.329 -3.35124 -3.94857 0
M  V30 1418 H 123.006 -0.775161 -4.10241 0
M  V30 1419 H 124.396 -4.76695 -4.73509 0
M  V30 1420 N 127.117 1.15442 -1.07289 0
M  V30 1421 C 128.365 1.85845 -0.794096 0
M  V30 1422 C 128.686 1.82692 0.681809 0
M  V30 1423 O 127.956 1.26741 1.49377 0
M  V30 1424 H 126.536 0.688089 -0.290763 0
M  V30 1425 H 129.198 1.39947 -1.3565 0
M  V30 1426 H 128.294 2.91001 -1.12804 0
M  V30 1427 N 128.595 0.856903 1.32268 0
M  V30 1428 C 129.843 0.460474 1.96784 0
M  V30 1429 C 130.164 -0.987701 1.68135 0
M  V30 1430 O 129.434 -1.69058 0.989765 0
M  V30 1431 H 128.014 0.167289 0.728027 0
M  V30 1432 H 130.676 1.09383 1.61312 0
M  V30 1433 H 129.772 0.60739 3.06133 0
M  V30 1434 N 130.073 -1.45103 0.615059 0
M  V30 1435 C 131.02 -2.30586 -0.0993978 0
M  V30 1436 C 131.99 -1.42544 -0.852669 0
M  V30 1437 O 133.175 -1.71465 -0.836917 0
M  V30 1438 C 130.315 -3.27572 -1.08583 0
M  V30 1439 C 129.428 -4.30717 -0.332656 0
M  V30 1440 C 128.563 -5.14807 -1.30947 0
M  V30 1441 C 127.602 -6.09673 -0.544538 0
M  V30 1442 N 126.739 -6.86517 -1.47101 0
M  V30 1443 H 131.579 -2.91144 0.635542 0
M  V30 1444 H 129.116 -1.4346 0.325206 0
M  V30 1445 H 131.074 -3.82276 -1.67095 0
M  V30 1446 H 129.704 -2.68751 -1.78809 0
M  V30 1447 H 128.756 -3.78615 0.368107 0
M  V30 1448 H 130.068 -4.98102 0.263842 0
M  V30 1449 H 129.222 -5.73948 -1.96643 0
M  V30 1450 H 127.961 -4.47458 -1.9399 0
M  V30 1451 H 126.966 -5.49656 0.126003 0
M  V30 1452 H 128.191 -6.79052 0.080947 0
M  V30 1453 H 126.137 -6.21851 -2.08895 0
M  V30 1454 H 126.054 -7.50281 -0.928137 0
M  V30 1455 H 127.322 -7.50194 -2.11731 0
M  V30 1456 N 131.551 -0.354651 -1.53558 0
M  V30 1457 C 132.484 0.540273 -2.21712 0
M  V30 1458 C 133.462 1.09161 -1.2051 0
M  V30 1459 O 134.646 1.14979 -1.49372 0
M  V30 1460 C 131.773 1.74435 -2.90328 0
M  V30 1461 C 130.819 1.32146 -4.05512 0
M  V30 1462 S 131.652 0.331924 -5.3447 0
M  V30 1463 C 132.808 1.54258 -6.06593 0
M  V30 1464 H 133.041 -0.0385776 -2.97275 0
M  V30 1465 H 130.574 -0.138736 -1.53775 0
M  V30 1466 H 132.532 2.43507 -3.30476 0
M  V30 1467 H 131.193 2.29444 -2.1451 0
M  V30 1468 H 130.386 2.21952 -4.52497 0
M  V30 1469 H 129.988 0.710091 -3.67197 0
M  V30 1470 H 132.28 2.47534 -6.30661 0
M  V30 1471 H 133.223 1.11431 -6.99277 0
M  V30 1472 H 133.631 1.74367 -5.36895 0
M  V30 1473 N 133.029 1.57378 -0.0835403 0
M  V30 1474 C 134.269 1.95808 0.586381 0
M  V30 1475 C 134.633 0.963706 1.66062 0
M  V30 1476 O 135.834 1.23608 2.38693 0
M  V30 1477 C 134.105 3.38808 1.13771 0
M  V30 1478 S 135.664 3.99225 1.82112 0
M  V30 1479 H 132.482 0.684675 0.191679 0
M  V30 1480 H 135.084 1.94843 -0.160194 0
M  V30 1481 H 133.788 4.08954 0.344197 0
M  V30 1482 H 133.319 3.43344 1.92038 0
M  V30 1483 H 135.334 3.87087 3.10449 0
M  V30 1484 N 134.507 -0.190092 1.56449 0
M  V30 1485 C 135.437 -1.23816 1.97969 0
M  V30 1486 C 136.418 -1.47201 0.852395 0
M  V30 1487 O 137.603 -1.58854 1.1171 0
M  V30 1488 C 134.733 -2.5813 2.3235 0
M  V30 1489 C 133.687 -2.49348 3.47864 0
M  V30 1490 C 133.013 -3.8798 3.67934 0
M  V30 1491 C 134.313 -2.01424 4.81898 0
M  V30 1492 H 136.007 -0.89311 2.85769 0
M  V30 1493 H 133.553 -0.428177 1.37487 0
M  V30 1494 H 135.506 -3.31637 2.59991 0
M  V30 1495 H 134.23 -2.94386 1.41438 0
M  V30 1496 H 132.889 -1.78297 3.20321 0
M  V30 1497 H 132.537 -4.21597 2.74344 0
M  V30 1498 H 132.237 -3.82978 4.45648 0
M  V30 1499 H 133.761 -4.63101 3.97957 0
M  V30 1500 H 135.175 -2.64693 5.08538 0
M  V30 1501 H 133.572 -2.07413 5.63116 0
M  V30 1502 H 134.642 -0.967677 4.75146 0
M  V30 1503 N 135.985 -1.50799 -0.457987 0
M  V30 1504 C 137.21 -1.66496 -1.23668 0
M  V30 1505 C 137.635 -0.353288 -1.84752 0
M  V30 1506 O 136.993 0.684346 -1.67888 0
M  V30 1507 C 137.041 -2.76763 -2.3116 0
M  V30 1508 O 136.145 -2.38928 -3.36136 0
M  V30 1509 H 135.486 -0.555828 -0.363252 0
M  V30 1510 H 138.016 -1.9725 -0.543474 0
M  V30 1511 H 138.026 -3.00232 -2.76269 0
M  V30 1512 H 136.701 -3.71954 -1.86073 0
M  V30 1513 H 135.278 -2.25953 -2.96647 0
M  V30 1514 N 137.463 0.71206 -1.40597 0
M  V30 1515 C 138.703 1.48438 -1.40519 0
M  V30 1516 C 139.067 1.91998 -0.00767611 0
M  V30 1517 O 140.268 2.6854 0.118239 0
M  V30 1518 C 138.539 2.67514 -2.37004 0
M  V30 1519 S 140.098 3.56875 -2.55315 0
M  V30 1520 H 136.916 0.507457 -0.498005 0
M  V30 1521 H 139.518 0.832355 -1.76896 0
M  V30 1522 H 138.222 2.33689 -3.37368 0
M  V30 1523 H 137.753 3.37625 -2.01923 0
M  V30 1524 H 139.768 4.62081 -1.8082 0
M  V30 1525 N 138.941 1.26152 0.944643 0
M  V30 1526 C 140.187 1.11657 1.69294 0
M  V30 1527 C 140.52 -0.339926 1.91202 0
M  V30 1528 O 139.795 -1.24994 1.49019 0
M  V30 1529 C 140.078 1.88236 3.06984 0
M  V30 1530 C 139.931 3.41772 2.92424 0
M  V30 1531 C 141.25 1.67343 4.07043 0
M  V30 1532 H 138.369 0.407004 0.614424 0
M  V30 1533 H 141.011 1.55106 1.09737 0
M  V30 1534 H 139.161 1.51308 3.57824 0
M  V30 1535 H 140.833 3.88433 2.48832 0
M  V30 1536 H 139.076 3.68974 2.28124 0
M  V30 1537 H 139.747 3.90579 3.90067 0
M  V30 1538 H 142.223 1.99509 3.65151 0
M  V30 1539 H 141.099 2.23346 5.01406 0
M  V30 1540 H 141.36 0.617158 4.37771 0
M  V30 1541 N 140.419 -1.14872 1.07899 0
M  V30 1542 C 141.366 -2.19791 0.704319 0
M  V30 1543 C 142.336 -1.63238 -0.306987 0
M  V30 1544 O 143.521 -1.8983 -0.192171 0
M  V30 1545 C 140.661 -3.44911 0.114244 0
M  V30 1546 C 139.774 -4.15637 1.1777 0
M  V30 1547 C 138.909 -5.28324 0.552037 0
M  V30 1548 C 137.948 -5.90875 1.59789 0
M  V30 1549 N 137.085 -6.95022 0.994404 0
M  V30 1550 H 141.925 -2.5119 1.60336 0
M  V30 1551 H 139.462 -1.23356 0.801352 0
M  V30 1552 H 141.42 -4.16477 -0.245544 0
M  V30 1553 H 140.05 -3.14011 -0.74813 0
M  V30 1554 H 139.102 -3.42512 1.65499 0
M  V30 1555 H 140.414 -4.5823 1.97046 0
M  V30 1556 H 139.568 -6.06538 0.1402 0
M  V30 1557 H 138.307 -4.86939 -0.272431 0
M  V30 1558 H 137.312 -5.11369 2.01945 0
M  V30 1559 H 138.537 -6.34337 2.42474 0
M  V30 1560 H 136.483 -6.55722 0.190939 0
M  V30 1561 H 136.4 -7.36073 1.72432 0
M  V30 1562 H 137.668 -7.77123 0.608253 0
M  V30 1563 N 141.898 -0.863906 -1.31812 0
M  V30 1564 C 143.123 -0.48527 -2.01643 0
M  V30 1565 C 143.548 0.913058 -1.64453 0
M  V30 1566 O 142.906 1.6014 -0.849985 0
M  V30 1567 C 142.954 -0.642625 -3.54828 0
M  V30 1568 O 142.058 0.320659 -4.11151 0
M  V30 1569 H 141.399 -0.193793 -0.635091 0
M  V30 1570 H 143.929 -1.16565 -1.68148 0
M  V30 1571 H 143.939 -0.533628 -4.04495 0
M  V30 1572 H 142.614 -1.66227 -3.81237 0
M  V30 1573 H 141.191 0.167126 -3.72525 0
M  V30 1574 N 143.376 1.44774 -0.622745 0
M  V30 1575 C 144.624 2.01721 -0.123655 0
M  V30 1576 C 144.945 1.49172 1.25589 0
M  V30 1577 O 144.215 0.691974 1.83272 0
M  V30 1578 H 142.795 0.745777 -0.0427225 0
M  V30 1579 H 145.457 1.77382 -0.807559 0
M  V30 1580 H 144.553 3.11984 -0.0849534 0
M  V30 1581 N 144.854 0.36279 1.53368 0
M  V30 1582 C 146.131 -0.284021 1.93527 0
M  V30 1583 C 146.511 -1.66628 1.29608 0
M  V30 1584 O 145.859 -2.23942 0.45413 0
M  V30 1585 C 146.069 -0.337028 3.47369 0
M  V30 1586 C 147.417 -0.578708 4.20638 0
M  V30 1587 O 148.441 -0.418352 3.53735 0
M  V30 1588 O 147.3 -0.89074 5.39192 0
M  V30 1589 H 144.394 -0.169743 0.809393 0
M  V30 1590 H 146.94 0.41537 1.64538 0
M  V30 1591 H 145.712 0.632217 3.86159 0
M  V30 1592 H 145.335 -1.08243 3.82582 0
M  V30 1593 N 146.332 -1.57332 0.0918853 0
M  V30 1594 C 147.242 -2.17368 -0.882505 0
M  V30 1595 C 148.258 -1.14226 -1.31257 0
M  V30 1596 O 149.434 -1.46582 -1.38115 0
M  V30 1597 C 146.499 -2.73962 -2.12476 0
M  V30 1598 C 145.56 -3.92048 -1.7492 0
M  V30 1599 C 144.793 -4.45933 -2.93223 0
M  V30 1600 O 145.016 -3.98764 -4.07852 0
M  V30 1601 O 143.95 -5.36999 -2.71875 0
M  V30 1602 H 147.776 -3.01031 -0.40172 0
M  V30 1603 H 145.361 -1.48813 -0.132291 0
M  V30 1604 H 147.243 -3.10147 -2.85283 0
M  V30 1605 H 145.918 -1.93347 -2.59613 0
M  V30 1606 H 144.825 -3.6068 -0.993025 0
M  V30 1607 H 146.158 -4.74017 -1.32548 0
M  V30 1608 N 147.81 0.181792 -1.56548 0
M  V30 1609 C 149.038 0.915947 -1.85521 0
M  V30 1610 C 149.453 1.76282 -0.676016 0
M  V30 1611 O 148.81 1.79012 0.355077 0
M  V30 1612 C 148.861 1.80126 -3.13427 0
M  V30 1613 O 148.582 0.988562 -4.26801 0
M  V30 1614 C 150.083 2.64597 -3.55673 0
M  V30 1615 H 147.303 0.26661 -0.61576 0
M  V30 1616 H 149.847 0.185039 -2.03661 0
M  V30 1617 H 148.002 2.48563 -2.97145 0
M  V30 1618 H 148.416 1.59308 -4.99721 0
M  V30 1619 H 149.89 3.2235 -4.48101 0
M  V30 1620 H 150.367 3.38958 -2.79292 0
M  V30 1621 H 150.973 2.0151 -3.74532 0
M  V30 1622 N 149.288 1.51039 0.449983 0
M  V30 1623 C 150.704 1.38934 0.785462 0
M  V30 1624 C 150.904 0.461817 1.96136 0
M  V30 1625 O 149.96 -0.0877389 2.52348 0
M  V30 1626 C 151.273 2.80724 1.0777 0
M  V30 1627 C 152.821 2.89787 1.1829 0
M  V30 1628 C 153.296 4.32457 1.50815 0
M  V30 1629 N 154.787 4.35505 1.57764 0
M  V30 1630 C 155.522 5.42914 1.84477 0
M  V30 1631 N 155.018 6.60502 2.09068 0
M  V30 1632 N 156.811 5.3038 1.86155 0
M  V30 1633 H 148.962 2.09904 -0.324647 0
M  V30 1634 H 151.225 0.944378 -0.0827957 0
M  V30 1635 H 150.931 3.50531 0.286498 0
M  V30 1636 H 150.805 3.19273 2.00859 0
M  V30 1637 H 153.192 2.20186 1.96474 0
M  V30 1638 H 153.273 2.54752 0.231314 0
M  V30 1639 H 152.917 5.02603 0.731622 0
M  V30 1640 H 152.847 4.64995 2.47158 0
M  V30 1641 H 155.338 3.50724 1.40715 0
M  V30 1642 H 155.651 7.38158 2.28785 0
M  V30 1643 H 153.996 6.63639 2.06416 0
M  V30 1644 H 157.187 4.37505 1.66454 0
M  V30 1645 H 157.36 6.1417 2.06637 0
M  V30 1646 N 150.766 -0.704594 1.40972 0
M  V30 1647 C 151.696 -1.83124 1.44872 0
M  V30 1648 C 152.677 -1.67281 0.30838 0
M  V30 1649 O 153.862 -1.87149 0.518556 0
M  V30 1650 C 150.992 -3.21181 1.32136 0
M  V30 1651 C 149.946 -3.51714 2.43888 0
M  V30 1652 C 149.272 -4.89032 2.16222 0
M  V30 1653 C 150.572 -3.516 3.86232 0
M  V30 1654 H 152.266 -1.80117 2.39161 0
M  V30 1655 H 149.812 -0.865145 1.15114 0
M  V30 1656 H 151.765 -3.99702 1.33479 0
M  V30 1657 H 150.489 -3.24791 0.343279 0
M  V30 1658 H 149.148 -2.75539 2.41813 0
M  V30 1659 H 148.796 -4.89256 1.16778 0
M  V30 1660 H 148.496 -5.10426 2.911 0
M  V30 1661 H 150.02 -5.69873 2.19265 0
M  V30 1662 H 151.434 -4.2014 3.9007 0
M  V30 1663 H 149.831 -3.84523 4.60719 0
M  V30 1664 H 150.901 -2.50757 4.15029 0
M  V30 1665 N 152.244 -1.26651 -0.937939 0
M  V30 1666 C 153.176 -1.04283 -2.04102 0
M  V30 1667 C 154.189 -0.00221014 -1.628 0
M  V30 1668 O 155.378 -0.242645 -1.76843 0
M  V30 1669 C 152.478 -0.557846 -3.34277 0
M  V30 1670 C 151.651 -1.66843 -4.04329 0
M  V30 1671 C 150.71 -1.18095 -5.12777 0
M  V30 1672 O 149.736 -1.87865 -5.37304 0
M  V30 1673 N 150.938 -0.0311006 -5.80492 0
M  V30 1674 H 153.703 -1.9927 -2.23856 0
M  V30 1675 H 151.264 -1.1808 -1.10764 0
M  V30 1676 H 153.256 -0.215836 -4.04124 0
M  V30 1677 H 151.826 0.298523 -3.11171 0
M  V30 1678 H 151.046 -2.18123 -3.28353 0
M  V30 1679 H 152.334 -2.41408 -4.47883 0
M  V30 1680 H 151.732 0.551486 -5.63005 0
M  V30 1681 H 150.289 0.251809 -6.51313 0
M  V30 1682 N 153.722 1.14298 -1.08507 0
M  V30 1683 C 154.652 2.21542 -0.737646 0
M  V30 1684 C 155.633 1.67773 0.280377 0
M  V30 1685 O 156.818 1.93616 0.150521 0
M  V30 1686 C 153.948 3.46988 -0.147259 0
M  V30 1687 C 152.902 4.13789 -1.09374 0
M  V30 1688 C 152.228 5.33449 -0.365524 0
M  V30 1689 C 153.528 4.62208 -2.4323 0
M  V30 1690 H 155.222 2.5086 -1.6343 0
M  V30 1691 H 152.768 1.20576 -0.787243 0
M  V30 1692 H 154.721 4.21262 0.107808 0
M  V30 1693 H 153.445 3.17037 0.784538 0
M  V30 1694 H 152.104 3.4147 -1.33393 0
M  V30 1695 H 151.752 4.99759 0.57011 0
M  V30 1696 H 151.452 5.79088 -0.996512 0
M  V30 1697 H 152.976 6.10485 -0.118534 0
M  V30 1698 H 154.39 5.27952 -2.23472 0
M  V30 1699 H 152.787 5.18553 -3.02031 0
M  V30 1700 H 153.857 3.77224 -3.04681 0
M  V30 1701 N 155.201 0.870884 1.31352 0
M  V30 1702 C 156.111 0.330783 2.32256 0
M  V30 1703 C 157.127 -0.559767 1.6475 0
M  V30 1704 O 158.303 -0.456263 1.96164 0
M  V30 1705 C 155.368 -0.458137 3.4366 0
M  V30 1706 C 154.429 0.460482 4.26823 0
M  V30 1707 C 153.662 -0.290881 5.32907 0
M  V30 1708 O 153.885 -1.51885 5.49806 0
M  V30 1709 O 152.819 0.351732 6.00871 0
M  V30 1710 H 156.645 1.16718 2.80376 0
M  V30 1711 H 154.23 0.634285 1.35267 0
M  V30 1712 H 156.112 -0.905343 4.1156 0
M  V30 1713 H 154.787 -1.27106 2.97701 0
M  V30 1714 H 153.694 0.956207 3.61673 0
M  V30 1715 H 155.027 1.23903 4.7635 0
M  V30 1716 N 156.679 -1.44442 0.630414 0
M  V30 1717 C 157.642 -2.29107 -0.0652523 0
M  V30 1718 C 158.642 -1.41002 -0.772995 0
M  V30 1719 O 159.832 -1.62881 -0.617692 0
M  V30 1720 C 156.964 -3.22564 -1.10296 0
M  V30 1721 H 158.157 -2.92103 0.679401 0
M  V30 1722 H 155.71 -1.51343 0.390517 0
M  V30 1723 H 156.445 -2.64416 -1.87762 0
M  V30 1724 H 156.23 -3.87491 -0.59941 0
M  V30 1725 H 157.72 -3.86167 -1.5895 0
M  V30 1726 N 158.157 -0.370918 -1.53173 0
M  V30 1727 C 159.403 0.217423 -2.01631 0
M  V30 1728 C 159.736 1.47983 -1.25756 0
M  V30 1729 O 159.011 1.91274 -0.352764 0
M  V30 1730 C 159.294 0.503982 -3.56556 0
M  V30 1731 C 159.147 -0.77243 -4.43118 0
M  V30 1732 C 160.466 1.30234 -4.20389 0
M  V30 1733 H 157.585 0.0775486 -0.732909 0
M  V30 1734 H 160.227 -0.496863 -1.83388 0
M  V30 1735 H 158.377 1.11248 -3.72231 0
M  V30 1736 H 160.049 -1.4098 -4.39229 0
M  V30 1737 H 158.292 -1.39167 -4.10871 0
M  V30 1738 H 158.963 -0.526815 -5.4948 0
M  V30 1739 H 161.439 0.787546 -4.08579 0
M  V30 1740 H 160.315 1.47158 -5.28806 0
M  V30 1741 H 160.576 2.31237 -3.76805 0
M  V30 1742 N 159.635 1.57281 -0.100228 0
M  V30 1743 C 160.583 2.15542 0.874328 0
M  V30 1744 C 161.577 1.09962 1.28859 0
M  V30 1745 O 162.783 1.28298 1.26252 0
M  V30 1746 H 159.158 0.689567 0.300003 0
M  V30 1747 H 161.129 2.96241 0.35829 0
M  V30 1748 C 159.878 2.75454 2.1218 0
M  V30 1749 H 159.201 3.56384 1.81193 0
M  V30 1750 H 160.641 3.19781 2.78417 0
M  V30 1751 C 159.1 1.71602 2.89921 0
M  V30 1752 O 159.63 1.15804 3.84646 0
M  V30 1753 N 157.836 1.41975 2.53558 0
M  V30 1754 H 157.383 1.87539 1.76598 0
M  V30 1755 H 157.341 0.727274 3.05873 0
M  V30 1756 N 161.113 -0.173488 1.56642 0
M  V30 1757 C 162.362 -0.888758 1.81063 0
M  V30 1758 C 162.675 -1.83506 0.67712 0
M  V30 1759 O 163.881 -2.59254 0.806206 0
M  V30 1760 C 162.337 -1.63091 3.20826 0
M  V30 1761 C 161.945 -0.728357 4.4204 0
M  V30 1762 C 163.689 -2.33454 3.54541 0
M  V30 1763 C 161.596 -1.47062 5.72823 0
M  V30 1764 H 160.526 -0.335618 0.675186 0
M  V30 1765 H 163.177 -0.141712 1.82952 0
M  V30 1766 H 161.559 -2.42263 3.13248 0
M  V30 1767 H 162.733 0.0262449 4.60793 0
M  V30 1768 H 161.048 -0.134492 4.16183 0
M  V30 1769 H 163.645 -2.89578 4.49498 0
M  V30 1770 H 163.988 -3.08687 2.79317 0
M  V30 1771 H 164.521 -1.61227 3.63663 0
M  V30 1772 H 161.26 -0.760658 6.51072 0
M  V30 1773 H 160.78 -2.1986 5.58052 0
M  V30 1774 H 162.459 -2.01868 6.14702 0
M  V30 1775 N 162.591 -1.51276 -0.441967 0
M  V30 1776 C 163.819 -1.67516 -1.21434 0
M  V30 1777 C 164.234 -0.37055 -1.85128 0
M  V30 1778 O 163.591 0.650498 -1.70513 0
M  V30 1779 C 163.642 -2.78748 -2.30177 0
M  V30 1780 O 163.363 -4.04154 -1.69089 0
M  V30 1781 C 164.864 -3.06217 -3.20541 0
M  V30 1782 H 162.084 -0.562276 -0.366178 0
M  V30 1783 H 164.628 -1.97666 -0.524244 0
M  V30 1784 H 162.783 -2.5121 -2.94911 0
M  V30 1785 H 163.197 -4.65894 -2.40922 0
M  V30 1786 H 164.671 -3.8764 -3.92987 0
M  V30 1787 H 165.148 -2.18439 -3.81026 0
M  V30 1788 H 165.754 -3.35397 -2.61513 0
M  V30 1789 N 164.069 0.697108 -1.41344 0
M  V30 1790 C 165.346 1.45154 -1.31109 0
M  V30 1791 C 165.726 2.11009 0.0620449 0
M  V30 1792 O 165.074 2.01571 1.07618 0
M  V30 1793 C 165.284 2.47223 -2.46337 0
M  V30 1794 C 166.632 3.1252 -2.87431 0
M  V30 1795 O 167.656 2.57547 -2.46065 0
M  V30 1796 O 166.515 4.12083 -3.58957 0
M  V30 1797 H 163.609 0.646365 -0.515889 0
M  V30 1798 H 166.155 0.727716 -1.53305 0
M  V30 1799 H 164.927 1.97204 -3.37974 0
M  V30 1800 H 164.55 3.27116 -2.2601 0
M  V30 1801 N 165.547 1.27147 0.931209 0
M  V30 1802 C 166.477 1.12081 2.04842 0
M  V30 1803 C 167.458 0.0232364 1.70084 0
M  V30 1804 O 168.643 0.197085 1.93197 0
M  V30 1805 C 165.773 0.76354 3.38803 0
M  V30 1806 C 164.727 1.81396 3.87659 0
M  V30 1807 C 164.053 1.31075 5.18385 0
M  V30 1808 C 165.353 3.21739 4.11438 0
M  V30 1809 H 167.047 2.05537 2.17703 0
M  V30 1810 H 164.593 0.989603 1.04608 0
M  V30 1811 H 166.546 0.644982 4.16435 0
M  V30 1812 H 165.27 -0.206727 3.25945 0
M  V30 1813 H 163.929 1.92136 3.12217 0
M  V30 1814 H 163.577 0.330037 5.01916 0
M  V30 1815 H 163.277 2.013 5.52044 0
M  V30 1816 H 164.801 1.20506 5.98591 0
M  V30 1817 H 166.215 3.14019 4.79651 0
M  V30 1818 H 164.612 3.89644 4.56397 0
M  V30 1819 H 165.682 3.67054 3.16859 0
M  V30 1820 N 167.025 -1.13721 1.09112 0
M  V30 1821 C 168.25 -1.89314 0.847053 0
M  V30 1822 C 168.675 -1.78416 -0.595774 0
M  V30 1823 O 168.033 -1.12942 -1.41823 0
M  V30 1824 C 168.081 -3.3701 1.28284 0
M  V30 1825 O 167.185 -4.10054 0.439267 0
M  V30 1826 H 166.526 -0.588745 0.307044 0
M  V30 1827 H 169.056 -1.43902 1.45442 0
M  V30 1828 H 169.066 -3.87834 1.26683 0
M  V30 1829 H 167.741 -3.4426 2.33363 0
M  V30 1830 H 166.318 -3.69266 0.519312 0
M  V30 1831 N 168.503 -0.877838 -1.30888 0
M  V30 1832 C 169.413 -0.343096 -2.32078 0
M  V30 1833 C 170.429 0.551022 -1.65045 0
M  V30 1834 O 171.605 0.445854 -1.96403 0
M  V30 1835 C 168.67 0.439905 -3.43898 0
M  V30 1836 C 167.731 -0.483111 -4.26573 0
M  V30 1837 C 166.964 0.262616 -5.33053 0
M  V30 1838 O 167.187 1.48967 -5.50604 0
M  V30 1839 O 166.121 -0.383593 -6.00676 0
M  V30 1840 H 169.947 -1.18203 -2.79753 0
M  V30 1841 H 167.532 -0.64145 -1.34929 0
M  V30 1842 H 169.414 0.883504 -4.12034 0
M  V30 1843 H 168.089 1.25526 -2.98371 0
M  V30 1844 H 166.996 -0.975374 -3.61161 0
M  V30 1845 H 168.329 -1.26427 -4.75686 0
M  V30 1846 N 169.982 1.44106 -0.638065 0
M  V30 1847 C 170.93 2.3248 0.0748149 0
M  V30 1848 C 171.924 1.47746 0.828702 0
M  V30 1849 O 173.13 1.64049 0.740816 0
M  V30 1850 H 169.505 0.750771 0.0429686 0
M  V30 1851 H 171.476 2.90348 -0.688504 0
M  V30 1852 C 170.225 3.31843 1.03805 0
M  V30 1853 H 169.548 3.97059 0.467375 0
M  V30 1854 H 170.988 3.96345 1.50622 0
M  V30 1855 C 169.447 2.61291 2.1267 0
M  V30 1856 O 169.977 2.41702 3.20847 0
M  V30 1857 N 168.183 2.20915 1.88798 0
M  V30 1858 H 167.73 2.37047 1.00829 0
M  V30 1859 H 167.688 1.74038 2.61836 0
M  V30 1860 N 171.46 0.379036 1.52974 0
M  V30 1861 C 172.876 0.0285448 1.59574 0
M  V30 1862 C 173.076 -1.45542 1.39355 0
M  V30 1863 O 172.132 -2.2187 1.20541 0
M  V30 1864 C 173.445 0.496535 2.96572 0
M  V30 1865 C 174.993 0.451909 3.0972 0
M  V30 1866 C 175.468 0.895924 4.49152 0
M  V30 1867 N 176.959 0.851522 4.55306 0
M  V30 1868 C 177.694 1.16661 5.61407 0
M  V30 1869 N 177.19 1.55166 6.752 0
M  V30 1870 N 178.983 1.08853 5.51459 0
M  V30 1871 H 171.134 1.34525 1.64367 0
M  V30 1872 H 173.397 0.550733 0.771619 0
M  V30 1873 H 173.103 1.53258 3.16552 0
M  V30 1874 H 172.977 -0.109802 3.7704 0
M  V30 1875 H 175.364 -0.575029 2.89443 0
M  V30 1876 H 175.445 1.09392 2.3123 0
M  V30 1877 H 175.089 1.92104 4.70168 0
M  V30 1878 H 175.019 0.23103 5.26093 0
M  V30 1879 H 177.51 0.568038 3.73606 0
M  V30 1880 H 177.823 1.776 7.52116 0
M  V30 1881 H 176.168 1.59044 6.76557 0
M  V30 1882 H 179.359 0.786803 4.6144 0
M  V30 1883 H 179.532 1.33742 6.34048 0
M  V30 1884 N 172.938 -1.57226 0.108567 0
M  V30 1885 C 173.885 -2.14756 -0.845481 0
M  V30 1886 C 174.855 -1.06971 -1.27068 0
M  V30 1887 O 176.04 -1.34827 -1.35005 0
M  V30 1888 C 173.18 -2.74298 -2.09415 0
M  V30 1889 C 172.293 -3.96358 -1.71826 0
M  V30 1890 C 171.428 -4.44021 -2.9158 0
M  V30 1891 C 170.467 -5.58637 -2.50181 0
M  V30 1892 N 169.604 -6.01091 -3.62814 0
M  V30 1893 H 174.444 -2.95961 -0.348035 0
M  V30 1894 H 171.981 -1.46226 -0.160106 0
M  V30 1895 H 173.939 -3.06945 -2.82561 0
M  V30 1896 H 172.569 -1.95801 -2.56636 0
M  V30 1897 H 171.621 -3.69939 -0.885947 0
M  V30 1898 H 172.933 -4.79504 -1.37394 0
M  V30 1899 H 172.087 -4.78522 -3.72963 0
M  V30 1900 H 170.826 -3.59803 -3.29231 0
M  V30 1901 H 169.831 -5.23751 -1.67228 0
M  V30 1902 H 171.056 -6.44613 -2.13659 0
M  V30 1903 H 169.002 -5.19817 -4.00158 0
M  V30 1904 H 168.919 -6.79066 -3.32273 0
M  V30 1905 H 170.187 -6.40227 -4.44668 0
M  V30 1906 N 174.416 0.165178 -1.56732 0
M  V30 1907 C 175.348 1.22911 -1.93457 0
M  V30 1908 C 176.361 1.40152 -0.828333 0
M  V30 1909 O 177.55 1.40046 -1.10677 0
M  V30 1910 C 174.65 2.59686 -2.17753 0
M  V30 1911 C 173.823 2.63663 -3.48999 0
M  V30 1912 C 172.882 3.81845 -3.62051 0
M  V30 1913 O 171.908 3.67559 -4.34613 0
M  V30 1914 N 173.11 4.98557 -2.97357 0
M  V30 1915 H 175.875 0.917118 -2.85323 0
M  V30 1916 H 173.436 0.354895 -1.57962 0
M  V30 1917 H 175.428 3.37225 -2.23743 0
M  V30 1918 H 173.998 2.83251 -1.32242 0
M  V30 1919 H 173.218 1.72173 -3.54612 0
M  V30 1920 H 174.506 2.63336 -4.35352 0
M  V30 1921 H 173.904 5.13065 -2.38287 0
M  V30 1922 H 172.461 5.73936 -3.08934 0
M  V30 1923 N 175.894 1.51508 0.433938 0
M  V30 1924 C 177.171 1.54888 1.19453 0
M  V30 1925 C 177.551 0.315154 2.08734 0
M  V30 1926 O 176.899 -0.699558 2.17528 0
M  V30 1927 C 177.109 2.86467 1.99342 0
M  V30 1928 C 178.457 3.38545 2.56267 0
M  V30 1929 O 179.481 2.88041 2.0955 0
M  V30 1930 O 178.34 4.26675 3.41483 0
M  V30 1931 H 175.434 0.622863 0.544032 0
M  V30 1932 H 177.98 1.63823 0.442732 0
M  V30 1933 H 176.752 3.67718 1.33788 0
M  V30 1934 H 176.375 2.8071 2.8158 0
M  V30 1935 N 177.372 -0.689602 1.41712 0
M  V30 1936 C 178.319 -1.80345 1.44029 0
M  V30 1937 C 179.289 -1.63478 0.293948 0
M  V30 1938 O 180.474 -1.84244 0.495869 0
M  V30 1939 C 177.614 -3.18272 1.33405 0
M  V30 1940 C 176.727 -3.46529 2.57956 0
M  V30 1941 C 175.862 -4.74103 2.39582 0
M  V30 1942 C 174.901 -4.95347 3.5958 0
M  V30 1943 N 174.038 -6.14151 3.40239 0
M  V30 1944 H 178.878 -1.77698 2.39222 0
M  V30 1945 H 176.415 -0.867688 1.18784 0
M  V30 1946 H 178.373 -3.97956 1.25246 0
M  V30 1947 H 177.003 -3.2008 0.418164 0
M  V30 1948 H 176.055 -2.61207 2.76542 0
M  V30 1949 H 177.367 -3.58126 3.47199 0
M  V30 1950 H 176.521 -5.61853 2.28924 0
M  V30 1951 H 175.26 -4.64763 1.47805 0
M  V30 1952 H 174.265 -4.06044 3.70686 0
M  V30 1953 H 175.49 -5.06542 4.52318 0
M  V30 1954 H 173.436 -6.06013 2.51167 0
M  V30 1955 H 173.353 -6.26543 4.23061 0
M  V30 1956 H 174.621 -7.04619 3.33365 0
M  V30 1957 N 178.85 -1.27639 -0.924453 0
M  V30 1958 C 180.266 -1.05113 -1.20097 0
M  V30 1959 C 180.466 0.213262 -2.00368 0
M  V30 1960 O 179.522 0.91787 -2.35226 0
M  V30 1961 C 180.835 -2.29244 -1.94596 0
M  V30 1962 C 182.383 -2.34315 -2.07522 0
M  V30 1963 C 182.858 -3.58183 -2.85427 0
M  V30 1964 N 184.349 -3.5876 -2.92994 0
M  V30 1965 C 185.084 -4.51277 -3.53746 0
M  V30 1966 N 184.58 -5.54102 -4.15863 0
M  V30 1967 N 186.373 -4.38894 -3.51181 0
M  V30 1968 H 178.524 -2.08821 -0.388264 0
M  V30 1969 H 180.787 -0.918568 -0.234385 0
M  V30 1970 H 180.493 -3.21301 -1.43034 0
M  V30 1971 H 180.367 -2.34816 -2.95197 0
M  V30 1972 H 182.754 -1.42762 -2.58269 0
M  V30 1973 H 182.835 -2.32744 -1.06131 0
M  V30 1974 H 182.479 -4.50074 -2.35363 0
M  V30 1975 H 182.409 -3.57006 -3.8711 0
M  V30 1976 H 184.9 -2.84398 -2.4885 0
M  V30 1977 H 185.213 -6.20859 -4.60168 0
M  V30 1978 H 183.558 -5.57941 -4.144 0
M  V30 1979 H 186.749 -3.57772 -3.01856 0
M  V30 1980 H 186.922 -5.11186 -3.98237 0
M  V30 1981 N 180.328 1.1314 -1.09713 0
M  V30 1982 C 181.575 1.84484 -0.834987 0
M  V30 1983 C 181.903 1.83689 0.639418 0
M  V30 1984 O 181.158 1.2724 1.4869 0
M  V30 1985 C 181.457 3.32167 -1.3191 0
M  V30 1986 C 181.123 3.53139 -2.80363 0
M  V30 1987 C 179.785 3.58571 -3.20905 0
M  V30 1988 C 182.137 3.60866 -3.76065 0
M  V30 1989 C 179.465 3.69267 -4.55916 0
M  V30 1990 C 181.817 3.73089 -5.10869 0
M  V30 1991 C 180.481 3.76775 -5.50996 0
M  V30 1992 H 179.751 0.675073 -0.305544 0
M  V30 1993 H 182.398 1.33554 -1.37243 0
M  V30 1994 H 180.703 3.85469 -0.701517 0
M  V30 1995 H 182.4 3.85821 -1.09284 0
M  V30 1996 H 178.99 3.49569 -2.47991 0
M  V30 1997 H 183.174 3.55946 -3.45855 0
M  V30 1998 H 178.43 3.70388 -4.86438 0
M  V30 1999 H 182.604 3.78011 -5.84877 0
M  V30 2000 H 180.231 3.84815 -6.55608 0
M  V30 2001 N 181.806 0.884767 1.30421 0
M  V30 2002 C 182.769 0.356277 2.26414 0
M  V30 2003 C 183.769 -0.501124 1.52792 0
M  V30 2004 O 184.959 -0.30831 1.7145 0
M  V30 2005 C 182.091 -0.492316 3.37326 0
M  V30 2006 H 183.284 1.20389 2.74675 0
M  V30 2007 H 180.837 0.661607 1.41607 0
M  V30 2008 H 181.572 -1.36052 2.94381 0
M  V30 2009 H 181.357 0.121832 3.91911 0
M  V30 2010 H 182.847 -0.853871 4.08777 0
M  V30 2011 N 183.284 -1.43765 0.645699 0
M  V30 2012 C 184.531 -2.01898 0.15604 0
M  V30 2013 C 184.859 -1.50887 -1.22733 0
M  V30 2014 O 184.114 -0.689271 -1.8316 0
M  V30 2015 C 184.413 -3.57238 0.107679 0
M  V30 2016 C 184.079 -4.27564 1.43178 0
M  V30 2017 C 182.741 -4.46492 1.7944 0
M  V30 2018 C 185.093 -4.67454 2.30513 0
M  V30 2019 C 182.421 -5.02573 3.02716 0
M  V30 2020 C 184.773 -5.24901 3.53074 0
M  V30 2021 C 183.437 -5.42046 3.89541 0
M  V30 2022 H 182.707 -0.738797 0.057099 0
M  V30 2023 H 185.354 -1.72341 0.834912 0
M  V30 2024 H 183.659 -3.86293 -0.654618 0
M  V30 2025 H 185.356 -3.99965 -0.287938 0
M  V30 2026 H 181.946 -4.13171 1.13963 0
M  V30 2027 H 186.13 -4.5253 2.0379 0
M  V30 2028 H 181.386 -5.14033 3.31028 0
M  V30 2029 H 185.56 -5.54758 4.20971 0
M  V30 2030 H 183.187 -5.85268 4.85145 0
M  V30 2031 N 184.763 -0.387143 -1.52771 0
M  V30 2032 C 186.012 0.19697 -2.00736 0
M  V30 2033 C 186.325 1.48082 -1.27793 0
M  V30 2034 O 187.531 2.14485 -1.66458 0
M  V30 2035 C 185.987 0.401568 -3.57653 0
M  V30 2036 C 185.595 -0.868907 -4.39493 0
M  V30 2037 C 187.339 0.942164 -4.13912 0
M  V30 2038 C 185.246 -0.632705 -5.88006 0
M  V30 2039 H 184.176 0.0773827 -0.750019 0
M  V30 2040 H 186.827 -0.50921 -1.76293 0
M  V30 2041 H 185.209 1.16954 -3.78335 0
M  V30 2042 H 186.383 -1.64133 -4.30577 0
M  V30 2043 H 184.698 -1.33429 -3.94443 0
M  V30 2044 H 187.295 1.13455 -5.22525 0
M  V30 2045 H 187.638 1.9106 -3.69867 0
M  V30 2046 H 188.171 0.233814 -3.97112 0
M  V30 2047 H 184.91 -1.57208 -6.36369 0
M  V30 2048 H 184.43 0.100825 -5.99715 0
M  V30 2049 H 186.109 -0.26642 -6.46451 0
M  V30 2050 N 186.241 1.57166 -0.116904 0
M  V30 2051 C 187.657 1.5779 0.239693 0
M  V30 2052 C 187.857 1.1295 1.66867 0
M  V30 2053 O 186.913 0.81592 2.38954 0
M  V30 2054 C 188.226 3.00699 0.00828202 0
M  V30 2055 C 189.774 3.12912 0.0743438 0
M  V30 2056 C 190.249 4.57817 -0.129348 0
M  V30 2057 N 191.74 4.63139 -0.075247 0
M  V30 2058 C 192.475 5.73023 -0.207788 0
M  V30 2059 N 191.971 6.91665 -0.396382 0
M  V30 2060 N 193.764 5.61906 -0.14751 0
M  V30 2061 H 185.915 1.84615 -1.05029 0
M  V30 2062 H 188.178 0.85311 -0.41341 0
M  V30 2063 H 187.884 3.37784 -0.979531 0
M  V30 2064 H 187.758 3.69848 0.741077 0
M  V30 2065 H 190.145 2.75686 1.05268 0
M  V30 2066 H 190.226 2.4631 -0.690297 0
M  V30 2067 H 189.87 4.95742 -1.10465 0
M  V30 2068 H 189.8 5.22507 0.655253 0
M  V30 2069 H 192.291 3.7784 0.0670898 0
M  V30 2070 H 192.604 7.71255 -0.488437 0
M  V30 2071 H 190.949 6.93654 -0.432329 0
M  V30 2072 H 194.14 4.681 -0.00115036 0
M  V30 2073 H 194.313 6.47501 -0.254247 0
M  V30 2074 N 187.719 -0.156864 1.56817 0
M  V30 2075 C 188.944 -0.890331 1.87318 0
M  V30 2076 C 189.369 -1.74394 0.704855 0
M  V30 2077 O 188.727 -1.77972 -0.345786 0
M  V30 2078 C 188.775 -1.73102 3.16336 0
M  V30 2079 O 187.879 -2.83422 2.99576 0
M  V30 2080 H 187.22 -0.24857 0.615718 0
M  V30 2081 H 189.75 -0.150649 2.04045 0
M  V30 2082 H 189.76 -2.12803 3.48107 0
M  V30 2083 H 188.435 -1.10412 4.00976 0
M  V30 2084 H 187.012 -2.47199 2.7919 0
M  V30 2085 N 189.197 -1.51736 -0.425897 0
M  V30 2086 C 190.474 -1.55519 -1.1863 0
M  V30 2087 C 190.854 -0.326219 -2.08564 0
M  V30 2088 O 190.202 0.688012 -2.17896 0
M  V30 2089 C 190.412 -2.87521 -1.9782 0
M  V30 2090 C 191.76 -3.39899 -2.54468 0
M  V30 2091 O 192.784 -2.89148 -2.08019 0
M  V30 2092 O 191.643 -4.2848 -3.39215 0
M  V30 2093 H 188.737 -0.625739 -0.540721 0
M  V30 2094 H 191.283 -1.64055 -0.434038 0
M  V30 2095 H 190.055 -3.68422 -1.31836 0
M  V30 2096 H 189.678 -2.822 -2.80088 0
M  V30 2097 N 190.675 0.682077 -1.42076 0
M  V30 2098 C 191.9 1.47558 -1.45744 0
M  V30 2099 C 192.325 1.87977 -0.0680981 0
M  V30 2100 O 191.683 1.55522 0.9318 0
M  V30 2101 C 191.731 2.70575 -2.38373 0
M  V30 2102 O 190.835 3.68573 -1.85007 0
M  V30 2103 H 190.176 0.443585 -0.494093 0
M  V30 2104 H 192.706 0.837238 -1.86686 0
M  V30 2105 H 192.716 3.18729 -2.54707 0
M  V30 2106 H 191.391 2.40495 -3.39315 0
M  V30 2107 H 189.968 3.2757 -1.78192 0
M  V30 2108 N 192.153 1.28127 0.917671 0
M  V30 2109 C 193.401 1.14825 1.66312 0
M  V30 2110 C 193.722 -0.304379 1.9261 0
M  V30 2111 O 192.992 -1.21149 1.53947 0
M  V30 2112 H 191.572 0.421953 0.616413 0
M  V30 2113 H 194.234 1.608 1.10134 0
M  V30 2114 H 193.33 1.68489 2.62712 0
M  V30 2115 N 193.631 -1.12557 1.10312 0
M  V30 2116 C 195.042 -1.65574 0.862678 0
M  V30 2117 C 195.393 -1.86566 -0.607256 0
M  V30 2118 O 194.518 -1.59121 -1.46662 0
M  V30 2119 C 195.113 -3.00776 1.55947 0
M  V30 2120 C 193.672 -3.50748 1.36576 0
M  V30 2121 C 192.819 -2.25797 1.60968 0
M  V30 2122 H 195.77 -0.963552 1.26101 0
M  V30 2123 H 195.791 -3.67185 0.997753 0
M  V30 2124 H 195.303 -2.85465 2.62928 0
M  V30 2125 H 193.404 -3.71245 0.317531 0
M  V30 2126 H 193.517 -4.30289 2.10686 0
M  V30 2127 H 191.881 -2.32841 1.03234 0
M  V30 2128 H 192.664 -2.13043 2.69198 0
M  V30 2129 N 195.109 -0.891671 -1.2995 0
M  V30 2130 C 196.337 -0.52866 -2.00032 0
M  V30 2131 C 196.752 0.884574 -1.66795 0
M  V30 2132 O 196.109 1.5827 -0.908669 0
M  V30 2133 C 196.16 -0.701814 -3.54622 0
M  V30 2134 O 195.881 -2.05942 -3.86678 0
M  V30 2135 C 197.382 -0.342683 -4.41973 0
M  V30 2136 H 194.602 -0.203659 -0.639347 0
M  V30 2137 H 197.146 -1.19881 -1.65677 0
M  V30 2138 H 195.301 -0.0789468 -3.8732 0
M  V30 2139 H 195.715 -2.08291 -4.81368 0
M  V30 2140 H 197.189 -0.514709 -5.49595 0
M  V30 2141 H 197.666 0.71975 -4.33262 0
M  V30 2142 H 198.272 -0.942154 -4.14733 0
M  V30 2143 N 196.587 1.43421 -0.653314 0
M  V30 2144 C 197.815 2.06163 -0.174491 0
M  V30 2145 C 198.23 1.48969 1.1599 0
M  V30 2146 O 197.587 0.621042 1.71608 0
M  V30 2147 C 197.638 3.61417 -0.0774865 0
M  V30 2148 O 197.359 4.16485 -1.35912 0
M  V30 2149 C 198.86 4.41235 0.427402 0
M  V30 2150 H 196.08 0.664946 -0.0899353 0
M  V30 2151 H 198.624 1.83924 -0.893988 0
M  V30 2152 H 196.779 3.82841 0.59257 0
M  V30 2153 H 197.193 5.10153 -1.21839 0
M  V30 2154 H 198.667 5.5021 0.44423 0
M  V30 2155 H 199.144 4.14268 1.45873 0
M  V30 2156 H 199.75 4.2478 -0.210167 0
M  V30 2157 N 198.065 0.39524 1.52563 0
M  V30 2158 C 199.29 -0.187456 2.06551 0
M  V30 2159 C 199.715 -1.39249 1.26457 0
M  V30 2160 O 199.073 -1.78947 0.291151 0
M  V30 2161 C 199.121 -0.529985 3.56684 0
M  V30 2162 O 198.225 -1.62307 3.79118 0
M  V30 2163 H 197.566 -0.0202537 0.663691 0
M  V30 2164 H 200.096 0.564426 1.96661 0
M  V30 2165 H 200.106 -0.792598 4.00227 0
M  V30 2166 H 198.781 0.350987 4.14416 0
M  V30 2167 H 197.358 -1.3537 3.47461 0
M  V30 2168 N 199.544 -1.57102 0.125237 0
M  V30 2169 C 200.791 -1.95407 -0.531248 0
M  V30 2170 C 201.119 -1.0089 -1.66287 0
M  V30 2171 O 200.374 -0.0339431 -1.95671 0
M  V30 2172 C 200.673 -3.40096 -1.09862 0
M  V30 2173 C 200.339 -4.50815 -0.0876989 0
M  V30 2174 C 199.001 -4.80824 0.19026 0
M  V30 2175 C 201.353 -5.17724 0.600902 0
M  V30 2176 C 198.681 -5.75058 1.163 0
M  V30 2177 C 201.033 -6.13005 1.56231 0
M  V30 2178 C 199.697 -6.41403 1.8482 0
M  V30 2179 H 198.967 -0.715046 -0.194397 0
M  V30 2180 H 201.614 -1.90373 0.207463 0
M  V30 2181 H 199.919 -3.41855 -1.91422 0
M  V30 2182 H 201.616 -3.6705 -1.61478 0
M  V30 2183 H 198.206 -4.27444 -0.314528 0
M  V30 2184 H 202.39 -4.94691 0.399333 0
M  V30 2185 H 197.646 -5.95362 1.39117 0
M  V30 2186 H 201.82 -6.63934 2.10153 0
M  V30 2187 H 199.447 -7.14229 2.60349 0
M  V30 2188 N 201.022 0.148545 -1.56898 0
M  V30 2189 C 201.932 1.20293 -2.01412 0
M  V30 2190 C 202.948 1.47107 -0.929273 0
M  V30 2191 O 204.124 1.58807 -1.23863 0
M  V30 2192 C 201.189 2.51682 -2.38447 0
M  V30 2193 C 200.25 2.32529 -3.60872 0
M  V30 2194 C 199.483 3.57653 -3.96132 0
M  V30 2195 O 199.706 4.63771 -3.32073 0
M  V30 2196 O 198.64 3.50408 -4.89385 0
M  V30 2197 H 202.466 0.855025 -2.91416 0
M  V30 2198 H 200.051 0.357151 -1.45068 0
M  V30 2199 H 201.933 3.29147 -2.63135 0
M  V30 2200 H 200.608 2.86006 -1.51599 0
M  V30 2201 H 199.515 1.53019 -3.41373 0
M  V30 2202 H 200.848 2.03121 -4.48333 0
M  V30 2203 N 202.5 1.5196 0.417844 0
M  V30 2204 C 203.725 1.69717 1.1921 0
M  V30 2205 C 204.15 0.402148 1.83751 0
M  V30 2206 O 203.508 -0.639593 1.69643 0
M  V30 2207 C 203.556 2.82794 2.2374 0
M  V30 2208 O 202.66 2.47756 3.29683 0
M  V30 2209 H 202.001 0.565263 0.348387 0
M  V30 2210 H 204.531 1.98621 0.490985 0
M  V30 2211 H 204.541 3.07452 2.68212 0
M  V30 2212 H 203.216 3.76756 1.76146 0
M  V30 2213 H 201.793 2.33739 2.90552 0
M  V30 2214 N 203.978 -0.674533 1.42435 0
M  V30 2215 C 204.941 -1.76986 1.45632 0
M  V30 2216 C 205.941 -1.5708 0.343871 0
M  V30 2217 O 207.131 -1.63367 0.604709 0
M  V30 2218 C 204.263 -3.15623 1.28822 0
M  V30 2219 H 205.456 -1.75539 2.43158 0
M  V30 2220 H 203.009 -0.884189 1.28887 0
M  V30 2221 H 203.744 -3.22696 0.322193 0
M  V30 2222 H 203.529 -3.31475 2.09444 0
M  V30 2223 H 205.019 -3.95537 1.33942 0
M  V30 2224 N 205.456 -1.28612 -0.910864 0
M  V30 2225 C 206.419 -1.12803 -1.9952 0
M  V30 2226 C 207.419 -0.0668264 -1.60661 0
M  V30 2227 O 208.609 -0.312847 -1.71368 0
M  V30 2228 C 205.741 -0.72254 -3.33155 0
M  V30 2229 H 206.934 -2.09109 -2.14973 0
M  V30 2230 H 204.487 -1.11639 -1.09391 0
M  V30 2231 H 205.222 0.241152 -3.23402 0
M  V30 2232 H 205.007 -1.48916 -3.62721 0
M  V30 2233 H 206.497 -0.634666 -4.12749 0
M  V30 2234 N 206.934 1.1197 -1.10907 0
M  V30 2235 C 208.174 1.85224 -0.864378 0
M  V30 2236 C 208.538 1.82411 0.599178 0
M  V30 2237 O 209.739 2.51057 0.960416 0
M  V30 2238 C 208.01 3.2868 -1.40371 0
M  V30 2239 S 209.569 4.1925 -1.29518 0
M  V30 2240 H 206.387 0.63878 -0.312219 0
M  V30 2241 H 208.989 1.3485 -1.41548 0
M  V30 2242 H 207.693 3.28289 -2.46281 0
M  V30 2243 H 207.224 3.84121 -0.849402 0
M  V30 2244 H 209.239 4.95539 -0.256059 0
M  V30 2245 N 208.412 0.89855 1.29475 0
M  V30 2246 C 209.823 0.572537 1.77705 0
M  V30 2247 C 210.174 -0.911778 1.73727 0
M  V30 2248 O 209.299 -1.71288 1.32247 0
M  V30 2249 C 209.894 1.03252 3.22683 0
M  V30 2250 C 208.453 0.757687 3.68695 0
M  V30 2251 C 207.6 1.20787 2.49612 0
M  V30 2252 H 210.551 1.08139 1.16153 0
M  V30 2253 H 210.572 0.367307 3.78723 0
M  V30 2254 H 210.084 2.11285 3.25546 0
M  V30 2255 H 208.185 -0.310079 3.71308 0
M  V30 2256 H 208.298 1.35476 4.59547 0
M  V30 2257 H 206.662 0.626888 2.46865 0
M  V30 2258 H 207.445 2.29622 2.55203 0
M  V30 2259 N 209.89 -1.43072 0.660911 0
M  V30 2260 C 211.138 -2.01323 0.177094 0
M  V30 2261 C 211.459 -1.5245 -1.2159 0
M  V30 2262 O 210.729 -0.740322 -1.81373 0
M  V30 2263 H 209.309 -0.744382 0.0624804 0
M  V30 2264 H 211.971 -1.75179 0.854305 0
M  V30 2265 H 211.067 -3.11649 0.167641 0
M  V30 2266 N 211.368 -0.403325 -1.52352 0
M  V30 2267 C 212.614 0.167015 -2.02713 0
M  V30 2268 C 212.969 1.43296 -1.28391 0
M  V30 2269 O 212.262 1.87796 -0.379885 0
M  V30 2270 C 212.456 0.474665 -3.54234 0
M  V30 2271 C 212.285 -0.759909 -4.43233 0
M  V30 2272 C 211.055 -1.28338 -4.88731 0
M  V30 2273 C 213.253 -1.63634 -4.87574 0
M  V30 2274 N 211.235 -2.47404 -5.6184 0
M  V30 2275 C 212.606 -2.67329 -5.59406 0
M  V30 2276 C 214.661 -1.65478 -4.69597 0
M  V30 2277 C 213.364 -3.72773 -6.15169 0
M  V30 2278 C 215.39 -2.69837 -5.26253 0
M  V30 2279 C 214.752 -3.72253 -5.98002 0
M  V30 2280 H 210.851 0.0228343 -0.781667 0
M  V30 2281 H 213.435 -0.556368 -1.86581 0
M  V30 2282 H 211.606 1.16709 -3.7045 0
M  V30 2283 H 213.338 1.03338 -3.91284 0
M  V30 2284 H 210.093 -0.842273 -4.6605 0
M  V30 2285 H 210.517 -3.07688 -6.0304 0
M  V30 2286 H 215.159 -0.876389 -4.13617 0
M  V30 2287 H 212.877 -4.51471 -6.70223 0
M  V30 2288 H 216.463 -2.72164 -5.14216 0
M  V30 2289 H 215.343 -4.51679 -6.41058 0
M  V30 2290 N 212.846 1.57033 -0.133567 0
M  V30 2291 C 214.093 1.95686 0.520877 0
M  V30 2292 C 214.421 1.0177 1.6575 0
M  V30 2293 O 213.676 0.0443195 1.9565 0
M  V30 2294 C 213.975 3.40674 1.08057 0
M  V30 2295 C 213.641 4.50855 0.0637899 0
M  V30 2296 C 212.303 4.80716 -0.215757 0
M  V30 2297 C 214.655 5.17398 -0.62835 0
M  V30 2298 C 211.983 5.74433 -1.19348 0
M  V30 2299 C 214.335 6.12167 -1.5948 0
M  V30 2300 C 212.999 6.40414 -1.88218 0
M  V30 2301 H 212.269 0.716067 0.190602 0
M  V30 2302 H 214.916 1.9026 -0.217556 0
M  V30 2303 H 213.221 3.42865 1.89606 0
M  V30 2304 H 214.918 3.67902 1.59529 0
M  V30 2305 H 211.508 4.27605 0.291855 0
M  V30 2306 H 215.692 4.94472 -0.425562 0
M  V30 2307 H 210.948 5.94616 -1.42272 0
M  V30 2308 H 215.122 6.6281 -2.13671 0
M  V30 2309 H 212.749 7.12838 -2.64133 0
M  V30 2310 N 214.325 -0.140222 1.56975 0
M  V30 2311 C 215.255 -1.17456 2.01808 0
M  V30 2312 C 216.236 -1.44415 0.898794 0
M  V30 2313 O 217.421 -1.5522 1.16707 0
M  V30 2314 C 214.551 -2.50607 2.40444 0
M  V30 2315 C 213.505 -2.38155 3.55621 0
M  V30 2316 C 212.831 -3.76078 3.80091 0
M  V30 2317 C 214.131 -1.85991 4.88062 0
M  V30 2318 H 215.825 -0.801743 2.88466 0
M  V30 2319 H 213.371 -0.38422 1.38779 0
M  V30 2320 H 215.324 -3.23197 2.7041 0
M  V30 2321 H 214.048 -2.89737 1.50732 0
M  V30 2322 H 212.707 -1.68016 3.25832 0
M  V30 2323 H 212.355 -4.12656 2.87618 0
M  V30 2324 H 212.055 -3.68606 4.57606 0
M  V30 2325 H 213.579 -4.50206 4.12488 0
M  V30 2326 H 214.993 -2.4838 5.16701 0
M  V30 2327 H 213.39 -1.89393 5.6943 0
M  V30 2328 H 214.46 -0.816023 4.77984 0
M  V30 2329 N 215.803 -1.52179 -0.40978 0
M  V30 2330 C 217.043 -1.67882 -1.16597 0
M  V30 2331 C 217.407 -0.399795 -1.87791 0
M  V30 2332 O 218.608 -0.43292 -2.65291 0
M  V30 2333 C 216.879 -2.86662 -2.13448 0
M  V30 2334 S 218.438 -3.22843 -2.97183 0
M  V30 2335 H 215.256 -0.59118 -0.395002 0
M  V30 2336 H 217.858 -1.9017 -0.453373 0
M  V30 2337 H 216.562 -3.77998 -1.59831 0
M  V30 2338 H 216.093 -2.66645 -2.89247 0
M  V30 2339 H 218.108 -2.71415 -4.15389 0
M  V30 2340 N 217.281 0.66697 -1.42791 0
M  V30 2341 C 218.509 1.45505 -1.47091 0
M  V30 2342 C 218.924 1.8861 -0.0845873 0
M  V30 2343 O 218.281 1.58632 0.90234 0
M  V30 2344 C 218.332 2.69906 -2.40485 0
M  V30 2345 O 218.053 2.28608 -3.73725 0
M  V30 2346 C 219.554 3.63396 -2.53886 0
M  V30 2347 H 216.774 0.447459 -0.500022 0
M  V30 2348 H 219.318 0.818866 -1.8739 0
M  V30 2349 H 217.473 3.29696 -2.03419 0
M  V30 2350 H 217.887 3.08997 -4.23817 0
M  V30 2351 H 219.361 4.47387 -3.2334 0
M  V30 2352 H 219.838 4.09824 -1.57927 0
M  V30 2353 H 220.444 3.09495 -2.91706 0
M  V30 2354 N 218.759 1.29093 0.90403 0
M  V30 2355 C 219.722 1.1386 1.98919 0
M  V30 2356 C 220.722 0.0753457 1.60623 0
M  V30 2357 O 221.912 0.321931 1.71199 0
M  V30 2358 C 219.044 0.740198 3.32767 0
M  V30 2359 H 220.237 2.10246 2.13861 0
M  V30 2360 H 217.79 1.12218 1.08797 0
M  V30 2361 H 218.525 -0.223997 3.23525 0
M  V30 2362 H 218.31 1.50838 3.61926 0
M  V30 2363 H 219.8 0.656546 4.12407 0
M  V30 2364 N 220.237 -1.11381 1.11499 0
M  V30 2365 C 221.17 -2.16621 0.71769 0
M  V30 2366 C 222.148 -1.60058 -0.286413 0
M  V30 2367 O 223.332 -1.87613 -0.182689 0
M  V30 2368 C 220.459 -3.38646 0.0607265 0
M  V30 2369 C 219.505 -4.13874 1.03008 0
M  V30 2370 S 220.338 -4.70731 2.55289 0
M  V30 2371 C 221.494 -5.96079 1.90895 0
M  V30 2372 H 221.727 -2.49987 1.60915 0
M  V30 2373 H 219.26 -1.23015 0.933092 0
M  V30 2374 H 221.218 -4.09313 -0.311965 0
M  V30 2375 H 219.879 -3.03537 -0.807702 0
M  V30 2376 H 219.072 -5.01333 0.517853 0
M  V30 2377 H 218.674 -3.4897 1.34522 0
M  V30 2378 H 220.966 -6.65948 1.24577 0
M  V30 2379 H 221.909 -6.51946 2.76354 0
M  V30 2380 H 222.317 -5.47652 1.36885 0
M  V30 2381 N 221.715 -0.905404 -1.28997 0
M  V30 2382 C 222.625 -0.392246 -2.31298 0
M  V30 2383 C 223.641 0.515889 -1.66176 0
M  V30 2384 O 224.817 0.404093 -1.97304 0
M  V30 2385 C 221.882 0.36686 -3.44754 0
M  V30 2386 C 220.943 -0.573485 -4.25452 0
M  V30 2387 C 220.176 0.149488 -5.33491 0
M  V30 2388 O 220.399 1.37255 -5.5364 0
M  V30 2389 O 219.333 -0.510919 -5.99728 0
M  V30 2390 H 223.159 -1.2411 -2.77183 0
M  V30 2391 H 220.744 -0.669926 -1.33538 0
M  V30 2392 H 222.626 0.795907 -4.13816 0
M  V30 2393 H 221.301 1.19169 -3.00966 0
M  V30 2394 H 220.208 -1.05176 -3.59011 0
M  V30 2395 H 221.541 -1.36489 -4.72897 0
M  V30 2396 N 223.193 1.4272 -0.668489 0
M  V30 2397 C 224.156 2.292 0.00448567 0
M  V30 2398 C 225.156 1.43001 0.735339 0
M  V30 2399 O 226.346 1.64461 0.57429 0
M  V30 2400 C 223.478 3.25375 1.01705 0
M  V30 2401 H 224.671 2.90199 -0.756608 0
M  V30 2402 H 222.224 1.50254 -0.430506 0
M  V30 2403 H 222.959 2.69301 1.80686 0
M  V30 2404 H 222.744 3.88944 0.496463 0
M  V30 2405 H 224.234 3.90245 1.48655 0
M  V30 2406 N 224.671 0.411399 1.52136 0
M  V30 2407 C 225.948 -0.222308 1.94333 0
M  V30 2408 C 226.328 -1.6242 1.34844 0
M  V30 2409 O 225.676 -2.22384 0.525145 0
M  V30 2410 C 225.886 -0.226345 3.48265 0
M  V30 2411 C 227.234 -0.444592 4.22266 0
M  V30 2412 O 228.258 -0.305602 3.54887 0
M  V30 2413 O 227.117 -0.718749 5.41753 0
M  V30 2414 H 224.211 -0.143907 0.814383 0
M  V30 2415 H 226.757 0.467506 1.63133 0
M  V30 2416 H 225.529 0.75475 3.83952 0
M  V30 2417 H 225.152 -0.960163 3.85832 0
M  V30 2418 N 226.149 -1.5696 0.141893 0
M  V30 2419 C 227.081 -2.13619 -0.830627 0
M  V30 2420 C 228.094 -1.08439 -1.21428 0
M  V30 2421 O 229.283 -1.35734 -1.15925 0
M  V30 2422 C 226.383 -2.63978 -2.12529 0
M  V30 2423 C 225.556 -3.93504 -1.9098 0
M  V30 2424 C 224.615 -4.29225 -3.04388 0
M  V30 2425 O 223.641 -4.97641 -2.76302 0
M  V30 2426 N 224.843 -3.88393 -4.31429 0
M  V30 2427 H 227.608 -2.97691 -0.34641 0
M  V30 2428 H 225.169 -1.61846 -0.0418375 0
M  V30 2429 H 227.161 -2.84891 -2.87436 0
M  V30 2430 H 225.731 -1.84659 -2.52229 0
M  V30 2431 H 224.951 -3.81269 -1.00139 0
M  V30 2432 H 226.239 -4.78154 -1.73914 0
M  V30 2433 H 225.637 -3.33257 -4.57117 0
M  V30 2434 H 224.194 -4.14368 -5.03133 0
M  V30 2435 N 227.627 0.131896 -1.57047 0
M  V30 2436 C 229.038 0.690407 -1.73465 0
M  V30 2437 C 229.389 1.8094 -0.758629 0
M  V30 2438 O 228.514 2.16282 0.0713813 0
M  V30 2439 C 229.109 1.25916 -3.14532 0
M  V30 2440 C 227.668 1.76409 -3.32501 0
M  V30 2441 C 226.815 0.658579 -2.69366 0
M  V30 2442 H 229.766 -0.0939144 -1.58422 0
M  V30 2443 H 229.787 2.12892 -3.15369 0
M  V30 2444 H 229.299 0.444515 -3.85546 0
M  V30 2445 H 227.4 2.60391 -2.66509 0
M  V30 2446 H 227.513 1.88241 -4.4057 0
M  V30 2447 H 225.877 1.08899 -2.30246 0
M  V30 2448 H 226.66 -0.14487 -3.42994 0
M  V30 2449 N 229.106 1.52395 0.401703 0
M  V30 2450 C 230.352 1.67065 1.14966 0
M  V30 2451 C 230.685 0.403052 1.89971 0
M  V30 2452 O 229.96 -0.598774 1.85054 0
M  V30 2453 C 230.243 2.8975 2.13815 0
M  V30 2454 C 230.096 4.26578 1.42658 0
M  V30 2455 C 231.415 3.07965 3.14397 0
M  V30 2456 H 228.534 0.607968 0.416587 0
M  V30 2457 H 231.176 1.84965 0.434511 0
M  V30 2458 H 229.326 2.74619 2.74803 0
M  V30 2459 H 230.998 4.53451 0.847329 0
M  V30 2460 H 229.241 4.27639 0.72849 0
M  V30 2461 H 229.912 5.08483 2.14823 0
M  V30 2462 H 232.388 3.22043 2.63491 0
M  V30 2463 H 231.264 3.95308 3.80819 0
M  V30 2464 H 231.525 2.21611 3.82545 0
M  V30 2465 N 230.584 -0.659388 1.43143 0
M  V30 2466 C 231.809 -1.45221 1.48073 0
M  V30 2467 C 232.234 -1.87845 0.097995 0
M  V30 2468 O 231.592 -1.56985 -0.90694 0
M  V30 2469 C 231.64 -2.66748 2.42647 0
M  V30 2470 O 230.744 -3.65583 1.90848 0
M  V30 2471 H 230.085 -0.435669 0.501088 0
M  V30 2472 H 232.615 -0.807432 1.87994 0
M  V30 2473 H 232.625 -3.14637 2.59745 0
M  V30 2474 H 231.3 -2.35067 3.43098 0
M  V30 2475 H 229.877 -3.24693 1.83381 0
M  V30 2476 N 232.062 -1.29571 -0.897171 0
M  V30 2477 C 232.992 -1.17473 -2.01798 0
M  V30 2478 C 233.973 -0.068323 -1.69963 0
M  V30 2479 O 235.158 -0.248239 -1.92607 0
M  V30 2480 C 232.288 -0.853099 -3.36659 0
M  V30 2481 C 231.242 -1.9161 -3.82713 0
M  V30 2482 C 230.568 -1.44773 -5.14728 0
M  V30 2483 C 231.868 -3.32535 -4.02763 0
M  V30 2484 H 233.562 -2.11237 -2.12177 0
M  V30 2485 H 231.108 -1.01699 -1.01948 0
M  V30 2486 H 233.061 -0.755165 -4.14578 0
M  V30 2487 H 231.785 0.120236 -3.26379 0
M  V30 2488 H 230.444 -2.00346 -3.07013 0
M  V30 2489 H 230.092 -0.462995 -5.00865 0
M  V30 2490 H 229.792 -2.15865 -5.46513 0
M  V30 2491 H 231.316 -1.36334 -5.95185 0
M  V30 2492 H 232.73 -3.26626 -4.71156 0
M  V30 2493 H 231.127 -4.01607 -4.45905 0
M  V30 2494 H 232.197 -3.75326 -3.07016 0
M  V30 2495 N 233.54 1.10788 -1.12088 0
M  V30 2496 C 234.768 1.86461 -0.896651 0
M  V30 2497 C 235.183 1.80492 0.553912 0
M  V30 2498 O 234.54 1.19102 1.38278 0
M  V30 2499 C 234.591 3.35006 -1.35843 0
M  V30 2500 O 234.312 3.40866 -2.75213 0
M  V30 2501 C 235.813 4.27565 -1.1706 0
M  V30 2502 H 233.033 0.589425 -0.320654 0
M  V30 2503 H 235.577 1.40076 -1.48993 0
M  V30 2504 H 233.732 3.7887 -0.808458 0
M  V30 2505 H 234.146 4.33411 -2.9539 0
M  V30 2506 H 235.62 5.30007 -1.54263 0
M  V30 2507 H 236.097 4.3906 -0.110814 0
M  V30 2508 H 236.703 3.89501 -1.70789 0
M  V30 2509 N 235.018 0.912232 1.28515 0
M  V30 2510 C 235.966 0.389597 2.29314 0
M  V30 2511 C 236.96 -0.517915 1.61289 0
M  V30 2512 O 238.166 -0.399328 1.75515 0
M  V30 2513 H 234.541 0.107386 0.744293 0
M  V30 2514 H 236.512 1.25286 2.70825 0
M  V30 2515 C 235.261 -0.356496 3.45868 0
M  V30 2516 H 234.584 0.332608 3.98414 0
M  V30 2517 H 236.024 -0.686851 4.184 0
M  V30 2518 C 234.483 -1.56383 2.98406 0
M  V30 2519 O 235.013 -2.66294 3.00749 0
M  V30 2520 N 233.219 -1.41029 2.54085 0
M  V30 2521 H 232.766 -0.516089 2.52377 0
M  V30 2522 H 232.724 -2.21939 2.22689 0
M  V30 2523 N 236.496 -1.42363 0.676048 0
M  V30 2524 C 237.429 -2.28141 -0.0516916 0
M  V30 2525 C 238.407 -1.41135 -0.807439 0
M  V30 2526 O 239.591 -1.70573 -0.802305 0
M  V30 2527 C 236.718 -3.21007 -1.08039 0
M  V30 2528 C 235.764 -4.24426 -0.420076 0
M  V30 2529 S 236.597 -5.29134 0.823246 0
M  V30 2530 C 237.753 -6.25566 -0.204344 0
M  V30 2531 H 237.986 -2.89515 0.675884 0
M  V30 2532 H 235.519 -1.47211 0.465635 0
M  V30 2533 H 237.477 -3.75048 -1.66881 0
M  V30 2534 H 236.138 -2.58766 -1.78042 0
M  V30 2535 H 235.331 -4.89596 -1.19633 0
M  V30 2536 H 234.933 -3.7388 0.0947845 0
M  V30 2537 H 237.225 -6.69098 -1.06369 0
M  V30 2538 H 238.168 -7.06895 0.412915 0
M  V30 2539 H 238.576 -5.61811 -0.55038 0
M  V30 2540 N 237.974 -0.419461 -1.51915 0
M  V30 2541 C 239.385 0.0477853 -1.86639 0
M  V30 2542 C 239.736 1.43531 -1.33766 0
M  V30 2543 O 238.861 2.05401 -0.68113 0
M  V30 2544 C 239.456 0.0934885 -3.38671 0
M  V30 2545 C 238.015 0.505097 -3.72996 0
M  V30 2546 C 237.162 -0.313792 -2.75519 0
M  V30 2547 H 240.113 -0.636088 -1.45395 0
M  V30 2548 H 240.134 0.906667 -3.6954 0
M  V30 2549 H 239.646 -0.916501 -3.77123 0
M  V30 2550 H 237.747 1.52135 -3.40126 0
M  V30 2551 H 237.86 0.242309 -4.78487 0
M  V30 2552 H 236.224 0.225363 -2.53701 0
M  V30 2553 H 237.007 -1.32232 -3.16812 0
M  V30 2554 N 239.452 1.56882 -0.150215 0
M  V30 2555 C 240.729 1.87844 0.545327 0
M  V30 2556 C 241.109 1.0567 1.82749 0
M  V30 2557 O 240.457 0.144442 2.28043 0
M  V30 2558 C 240.667 3.39526 0.80767 0
M  V30 2559 C 242.015 4.08814 1.14703 0
M  V30 2560 O 243.039 3.44723 0.896917 0
M  V30 2561 O 241.898 5.22004 1.61784 0
M  V30 2562 H 238.992 0.778677 0.278553 0
M  V30 2563 H 241.538 1.68666 -0.187068 0
M  V30 2564 H 240.31 3.91173 -0.0996096 0
M  V30 2565 H 239.933 3.64243 1.59413 0
M  V30 2566 N 240.93 -0.123565 1.57115 0
M  V30 2567 C 241.84 -1.17074 2.033 0
M  V30 2568 C 242.856 -1.4561 0.952559 0
M  V30 2569 O 244.032 -1.56817 1.26374 0
M  V30 2570 C 241.097 -2.47857 2.42421 0
M  V30 2571 C 240.158 -2.26758 3.64526 0
M  V30 2572 C 239.391 -3.51305 4.01771 0
M  V30 2573 O 239.614 -4.5843 3.39409 0
M  V30 2574 O 238.548 -3.42578 4.94898 0
M  V30 2575 H 242.374 -0.808555 2.92739 0
M  V30 2576 H 239.959 -0.334027 1.45618 0
M  V30 2577 H 241.841 -3.2492 2.68338 0
M  V30 2578 H 240.516 -2.83558 1.5613 0
M  V30 2579 H 239.423 -1.47569 3.43765 0
M  V30 2580 H 240.756 -1.95963 4.51508 0
M  V30 2581 N 242.408 -1.52605 -0.393616 0
M  V30 2582 C 243.656 -1.67093 -1.13685 0
M  V30 2583 C 243.977 -0.411011 -1.90619 0
M  V30 2584 O 243.247 0.574491 -1.87287 0
M  V30 2585 H 241.827 -0.615923 -0.422668 0
M  V30 2586 H 244.489 -1.89704 -0.447039 0
M  V30 2587 H 243.585 -2.51922 -1.84232 0
M  V30 2588 N 243.887 0.651787 -1.4349 0
M  V30 2589 C 245.133 1.41376 -1.45398 0
M  V30 2590 C 245.466 1.94041 -0.0784823 0
M  V30 2591 O 244.741 1.72379 0.900878 0
M  V30 2592 C 245.024 2.59414 -2.49752 0
M  V30 2593 C 244.877 2.12232 -3.96582 0
M  V30 2594 C 246.196 3.61626 -2.50827 0
M  V30 2595 H 243.315 0.512719 -0.529422 0
M  V30 2596 H 245.957 0.738796 -1.75048 0
M  V30 2597 H 244.107 3.16997 -2.246 0
M  V30 2598 H 245.779 1.59639 -4.32797 0
M  V30 2599 H 244.022 1.43592 -4.09346 0
M  V30 2600 H 244.693 2.9712 -4.65214 0
M  V30 2601 H 247.169 3.13805 -2.7325 0
M  V30 2602 H 246.045 4.41766 -3.25783 0
M  V30 2603 H 246.306 4.14314 -1.5426 0
M  V30 2604 N 245.365 1.30045 0.890287 0
M  V30 2605 C 246.298 1.10301 1.99772 0
M  V30 2606 C 247.276 0.0121631 1.62595 0
M  V30 2607 O 248.46 0.16469 1.87779 0
M  V30 2608 C 245.587 0.681125 3.31781 0
M  V30 2609 C 244.633 1.77206 3.87944 0
M  V30 2610 S 245.466 3.37335 4.15891 0
M  V30 2611 C 246.622 2.97036 5.50927 0
M  V30 2612 H 246.855 2.04057 2.16213 0
M  V30 2613 H 244.388 1.14299 1.03804 0
M  V30 2614 H 246.346 0.444439 4.08087 0
M  V30 2615 H 245.007 -0.236981 3.13205 0
M  V30 2616 H 244.2 1.42903 4.83316 0
M  V30 2617 H 243.802 1.96275 3.18358 0
M  V30 2618 H 246.094 2.44666 6.31779 0
M  V30 2619 H 247.037 3.91296 5.90164 0
M  V30 2620 H 247.445 2.35057 5.13233 0
M  V30 2621 N 246.843 -1.10192 1.12674 0
M  V30 2622 C 248.089 -1.82475 0.884915 0
M  V30 2623 C 248.422 -1.85093 -0.58773 0
M  V30 2624 O 247.697 -1.3134 -1.43457 0
M  V30 2625 C 247.98 -3.29018 1.46353 0
M  V30 2626 C 247.833 -3.34718 3.00473 0
M  V30 2627 C 249.152 -4.25473 1.12519 0
M  V30 2628 H 246.271 -0.662492 0.322915 0
M  V30 2629 H 248.913 -1.2913 1.39375 0
M  V30 2630 H 247.063 -3.74576 1.03077 0
M  V30 2631 H 248.735 -2.97622 3.52447 0
M  V30 2632 H 246.978 -2.74541 3.35872 0
M  V30 2633 H 247.649 -4.37918 3.36053 0
M  V30 2634 H 250.125 -3.88161 1.499 0
M  V30 2635 H 249.001 -5.26365 1.55663 0
M  V30 2636 H 249.262 -4.42084 0.0377407 0
M  V30 2637 N 248.321 -0.919034 -1.28029 0
M  V30 2638 C 249.549 -0.570971 -1.98866 0
M  V30 2639 C 249.964 0.848996 -1.68634 0
M  V30 2640 O 249.321 1.56307 -0.942036 0
M  V30 2641 C 249.372 -0.776876 -3.53054 0
M  V30 2642 O 249.093 -2.14097 -3.82222 0
M  V30 2643 C 250.594 -0.436356 -4.41147 0
M  V30 2644 H 247.814 -0.217175 -0.634883 0
M  V30 2645 H 250.358 -1.23368 -1.63097 0
M  V30 2646 H 248.513 -0.161085 -3.87065 0
M  V30 2647 H 248.927 -2.18455 -4.76841 0
M  V30 2648 H 250.401 -0.63117 -5.4838 0
M  V30 2649 H 250.878 0.627686 -4.34692 0
M  V30 2650 H 251.484 -1.02991 -4.12641 0
M  V30 2651 N 249.799 1.42003 -0.683588 0
M  V30 2652 C 250.746 2.30798 -0.0107309 0
M  V30 2653 C 251.716 1.4645 0.783688 0
M  V30 2654 O 252.901 1.75263 0.754156 0
M  V30 2655 C 250.041 3.3238 0.928306 0
M  V30 2656 C 249.154 4.31814 0.126776 0
M  V30 2657 C 248.289 5.20468 1.06236 0
M  V30 2658 C 247.328 6.11577 0.253035 0
M  V30 2659 N 246.465 6.92754 1.14179 0
M  V30 2660 H 251.305 2.8778 -0.773727 0
M  V30 2661 H 248.842 1.41745 -0.393283 0
M  V30 2662 H 250.8 3.89813 1.48666 0
M  V30 2663 H 249.43 2.76976 1.65783 0
M  V30 2664 H 248.482 3.76427 -0.54833 0
M  V30 2665 H 249.794 4.96276 -0.501192 0
M  V30 2666 H 248.948 5.82677 1.69035 0
M  V30 2667 H 247.687 4.56204 1.7242 0
M  V30 2668 H 246.692 5.48428 -0.388108 0
M  V30 2669 H 247.917 6.77892 -0.404839 0
M  V30 2670 H 245.863 6.3111 1.78987 0
M  V30 2671 H 245.78 7.53855 0.569111 0
M  V30 2672 H 247.048 7.59441 1.75697 0
M  V30 2673 N 251.277 0.427512 1.51691 0
M  V30 2674 C 252.524 -0.142229 2.02 0
M  V30 2675 C 252.852 -1.43566 1.31221 0
M  V30 2676 O 252.107 -1.91298 0.412744 0
M  V30 2677 C 252.406 -0.418249 3.54944 0
M  V30 2678 C 252.072 0.788187 4.43958 0
M  V30 2679 C 250.734 1.11906 4.68007 0
M  V30 2680 C 253.086 1.59347 4.96244 0
M  V30 2681 C 250.414 2.25608 5.41588 0
M  V30 2682 C 252.766 2.7214 5.71072 0
M  V30 2683 C 251.43 3.05692 5.93387 0
M  V30 2684 H 250.7 -0.0520451 0.73917 0
M  V30 2685 H 253.347 0.572697 1.82736 0
M  V30 2686 H 251.652 -1.21496 3.72486 0
M  V30 2687 H 253.349 -0.872339 3.91397 0
M  V30 2688 H 249.939 0.520344 4.2543 0
M  V30 2689 H 254.123 1.35106 4.77556 0
M  V30 2690 H 249.379 2.51929 5.57083 0
M  V30 2691 H 253.553 3.34914 6.10578 0
M  V30 2692 H 251.18 3.9391 6.50184 0
M  V30 2693 N 252.755 -1.56801 0.158532 0
M  V30 2694 C 253.985 -2.00568 -0.495583 0
M  V30 2695 C 254.393 -1.03774 -1.58201 0
M  V30 2696 O 253.736 -0.0285797 -1.83678 0
M  V30 2697 C 253.798 -3.40768 -1.14532 0
M  V30 2698 C 253.462 -4.56553 -0.202101 0
M  V30 2699 C 254.459 -5.16714 0.574675 0
M  V30 2700 C 252.144 -5.02197 -0.101648 0
M  V30 2701 C 254.138 -6.20939 1.43924 0
M  V30 2702 C 251.825 -6.06274 0.766508 0
M  V30 2703 C 252.823 -6.65515 1.53555 0
M  V30 2704 O 252.511 -7.67575 2.38922 0
M  V30 2705 H 252.243 -0.662893 -0.13247 0
M  V30 2706 H 254.797 -2.03829 0.253559 0
M  V30 2707 H 253.027 -3.34381 -1.94233 0
M  V30 2708 H 254.716 -3.6857 -1.70033 0
M  V30 2709 H 255.482 -4.82341 0.507167 0
M  V30 2710 H 251.361 -4.55807 -0.689994 0
M  V30 2711 H 254.905 -6.67107 2.03996 0
M  V30 2712 H 250.802 -6.40073 0.835266 0
M  V30 2713 H 251.57 -7.84844 2.32296 0
M  V30 2714 N 254.233 0.115231 -1.57178 0
M  V30 2715 C 255.48 0.822351 -1.8505 0
M  V30 2716 C 255.808 1.79701 -0.744168 0
M  V30 2717 O 255.063 1.93909 0.26414 0
M  V30 2718 C 255.362 1.60324 -3.19423 0
M  V30 2719 C 255.028 0.772536 -4.44233 0
M  V30 2720 C 253.69 0.543468 -4.78121 0
M  V30 2721 C 256.042 0.193746 -5.2084 0
M  V30 2722 C 253.37 -0.274583 -5.86057 0
M  V30 2723 C 255.722 -0.611517 -6.29637 0
M  V30 2724 C 254.386 -0.850867 -6.62055 0
M  V30 2725 H 253.656 0.30092 -0.677147 0
M  V30 2726 H 256.303 0.0845802 -1.91313 0
M  V30 2727 H 254.608 2.41203 -3.08753 0
M  V30 2728 H 256.305 2.1544 -3.38211 0
M  V30 2729 H 252.895 0.96117 -4.17683 0
M  V30 2730 H 257.079 0.357926 -4.95008 0
M  V30 2731 H 252.335 -0.469206 -6.09597 0
M  V30 2732 H 256.509 -1.06697 -6.88178 0
M  V30 2733 H 254.136 -1.48657 -7.45523 0
M  V30 2734 N 255.711 1.52812 0.385517 0
M  V30 2735 C 256.643 1.74096 1.49074 0
M  V30 2736 C 257.656 0.621462 1.50472 0
M  V30 2737 O 258.845 0.897245 1.54311 0
M  V30 2738 C 255.945 1.78774 2.87911 0
M  V30 2739 C 255.118 3.08134 3.10439 0
M  V30 2740 C 254.177 3.04313 4.29278 0
M  V30 2741 O 253.203 3.78168 4.25415 0
M  V30 2742 N 254.405 2.23741 5.35649 0
M  V30 2743 H 257.17 2.69455 1.31202 0
M  V30 2744 H 254.731 1.51343 0.575065 0
M  V30 2745 H 256.723 1.73721 3.65518 0
M  V30 2746 H 255.293 0.907869 2.99126 0
M  V30 2747 H 254.513 3.26649 2.20667 0
M  V30 2748 H 255.801 3.93662 3.22347 0
M  V30 2749 H 255.199 1.63211 5.41645 0
M  V30 2750 H 253.756 2.24524 6.11909 0
M  V30 2751 N 257.189 -0.644168 1.43834 0
M  V30 2752 C 258.099 -1.78563 1.52159 0
M  V30 2753 C 259.115 -1.69147 0.408069 0
M  V30 2754 O 260.291 -1.90156 0.663524 0
M  V30 2755 C 257.356 -3.14888 1.45073 0
M  V30 2756 C 256.417 -3.36034 2.6717 0
M  V30 2757 C 255.65 -4.65855 2.60413 0
M  V30 2758 O 255.873 -5.45805 1.65689 0
M  V30 2759 O 254.807 -4.88918 3.5106 0
M  V30 2760 H 258.633 -1.74494 2.48567 0
M  V30 2761 H 256.218 -0.80378 1.25935 0
M  V30 2762 H 258.1 -3.96179 1.43597 0
M  V30 2763 H 256.775 -3.19528 0.518037 0
M  V30 2764 H 255.682 -2.54472 2.74217 0
M  V30 2765 H 257.015 -3.36247 3.59442 0
M  V30 2766 N 258.668 -1.30515 -0.883378 0
M  V30 2767 C 259.945 -1.10086 -1.6168 0
M  V30 2768 C 260.325 0.349269 -2.08191 0
M  V30 2769 O 259.673 1.34105 -1.85008 0
M  V30 2770 C 259.883 -2.10315 -2.78511 0
M  V30 2771 C 261.231 -2.42119 -3.48803 0
M  V30 2772 O 262.255 -2.08638 -2.88702 0
M  V30 2773 O 261.114 -2.99396 -4.57192 0
M  V30 2774 H 258.208 -0.422907 -0.710689 0
M  V30 2775 H 260.754 -1.41947 -0.930015 0
M  V30 2776 H 259.526 -3.07917 -2.41459 0
M  V30 2777 H 259.149 -1.79282 -3.54886 0
M  V30 2778 N 260.146 1.09593 -1.13257 0
M  V30 2779 C 261.056 2.19739 -0.821691 0
M  V30 2780 C 262.072 1.72926 0.19302 0
M  V30 2781 O 263.248 2.01385 0.0244895 0
M  V30 2782 C 260.313 3.45482 -0.290333 0
M  V30 2783 C 259.374 4.06985 -1.36607 0
M  V30 2784 C 258.607 5.26726 -0.859975 0
M  V30 2785 O 258.83 5.69594 0.303082 0
M  V30 2786 O 257.764 5.7931 -1.63351 0
M  V30 2787 H 261.59 2.48781 -1.74189 0
M  V30 2788 H 259.175 1.18496 -0.909894 0
M  V30 2789 H 261.057 4.214 0.000674022 0
M  V30 2790 H 259.732 3.18047 0.602306 0
M  V30 2791 H 258.639 3.32712 -1.71037 0
M  V30 2792 H 259.972 4.38643 -2.23279 0
M  V30 2793 O 261.663 1.05716 1.22092 0
M  V30 2794 H 262.354 0.735773 1.79182 0
M  V30 END ATOM
M  V30 BEGIN BOND
M  V30 END BOND
M  V30 END CTAB
M  END
$$$$
