drugbank_target|P08254 Stromelysin-1 (DB00786; DB01877; DB01996; DB02090; DB02350; DB02367; DB02449; DB02697; DB03033; DB03368; DB04140; DB04232; DB04416; DB07390; DB07986; DB07987; DB07988; DB08029; DB08030; DB08271; DB08507; DB08643)
 OpenBabel12092119483D

  0  0  0     0  0            999 V3000
M  V30 BEGIN CTAB
M  V30 COUNTS 7549 7663 0 0 0
M  V30 BEGIN ATOM
M  V30 1 H -0.908 1.98254 -0.117106 0
M  V30 2 N 0 1.576 0 0
M  V30 3 C 0.933 2.03868 1.02534 0
M  V30 4 C 1.911 0.928543 1.3348 0
M  V30 5 O 3.095 1.19667 1.45644 0
M  V30 6 C 0.222 2.43627 2.35294 0
M  V30 7 C -0.732 3.65373 2.2001 0
M  V30 8 S 0.101 5.13292 1.52614 0
M  V30 9 C 1.257 5.56322 2.86805 0
M  V30 10 H 1.49 2.90518 0.631377 0
M  V30 11 H -0.977 1.52953 0.210867 0
M  V30 12 H 0.981 2.67203 3.11629 0
M  V30 13 H -0.358 1.57376 2.7183 0
M  V30 14 H -1.165 3.90944 3.18086 0
M  V30 15 H -1.563 3.418 1.51819 0
M  V30 16 H 0.729 5.58782 3.83104 0
M  V30 17 H 1.672 6.56266 2.65933 0
M  V30 18 H 2.08 4.83886 2.90714 0
M  V30 19 N 1.4781 -0.272755 1.55222 0
M  V30 20 C 2.4251 -1.33716 1.88119 0
M  V30 21 C 3.3951 -1.49066 0.73271 0
M  V30 22 O 4.5801 -1.63469 0.984002 0
M  V30 23 C 1.7201 -2.69238 2.15882 0
M  V30 24 C 0.8331 -2.62108 3.43399 0
M  V30 25 C -0.0319 -3.89811 3.60861 0
M  V30 26 C -0.9929 -3.77193 4.8207 0
M  V30 27 N -1.8559 -4.9673 4.96189 0
M  V30 28 H 2.9841 -1.04962 2.78903 0
M  V30 29 H 0.5211 -0.507088 1.38083 0
M  V30 30 H 2.4791 -3.48089 2.29978 0
M  V30 31 H 1.1091 -2.96194 1.28331 0
M  V30 32 H 0.1611 -1.74967 3.37773 0
M  V30 33 H 1.4731 -2.48685 4.32386 0
M  V30 34 H 0.6271 -4.77103 3.74777 0
M  V30 35 H -0.6339 -4.06102 2.7006 0
M  V30 36 H -1.6289 -2.88284 4.68159 0
M  V30 37 H -0.4039 -3.62421 5.74307 0
M  V30 38 H -2.4579 -5.13431 4.08319 0
M  V30 39 H -2.5409 -4.85839 5.79221 0
M  V30 40 H -1.2729 -5.85594 5.1449 0
M  V30 41 N 2.9562 -1.48159 -0.537278 0
M  V30 42 C 4.1812 -1.59707 -1.32319 0
M  V30 43 C 4.6062 -0.254859 -1.86365 0
M  V30 44 O 3.9642 0.772378 -1.64024 0
M  V30 45 C 4.0122 -2.6412 -2.45505 0
M  V30 46 O 3.1162 -2.20774 -3.48328 0
M  V30 47 H 2.4572 -0.535791 -0.392204 0
M  V30 48 H 4.9872 -1.94092 -0.647268 0
M  V30 49 H 4.9972 -2.85166 -2.91795 0
M  V30 50 H 3.6722 -3.61567 -2.05528 0
M  V30 51 H 2.2492 -2.09911 -3.08207 0
M  V30 52 N 4.4343 0.785586 -1.36625 0
M  V30 53 C 5.3643 1.91259 -1.33949 0
M  V30 54 C 6.3453 1.68795 -0.210325 0
M  V30 55 O 7.5303 1.89854 -0.408561 0
M  V30 56 C 4.6603 3.28339 -1.13186 0
M  V30 57 C 3.6143 3.65335 -2.22967 0
M  V30 58 C 2.9403 5.00806 -1.87342 0
M  V30 59 C 4.2403 3.7352 -3.65075 0
M  V30 60 H 5.9343 1.93755 -2.28253 0
M  V30 61 H 3.4803 0.930788 -1.09874 0
M  V30 62 H 5.4333 4.06804 -1.09948 0
M  V30 63 H 4.1573 3.2624 -0.153332 0
M  V30 64 H 2.8163 2.89169 -2.25337 0
M  V30 65 H 2.4643 4.95233 -0.880545 0
M  V30 66 H 2.1643 5.26529 -2.60846 0
M  V30 67 H 3.6883 5.81687 -1.85667 0
M  V30 68 H 5.1023 4.42168 -3.64911 0
M  V30 69 H 3.4993 4.10731 -4.37516 0
M  V30 70 H 4.5693 2.74527 -3.99703 0
M  V30 71 N 5.9124 1.20967 1.01018 0
M  V30 72 C 7.3234 1.02319 1.56165 0
M  V30 73 C 7.6744 -0.418546 1.91684 0
M  V30 74 O 6.7994 -1.30096 1.72928 0
M  V30 75 C 7.3944 1.85109 2.8376 0
M  V30 76 C 5.9534 1.70809 3.35412 0
M  V30 77 C 5.1004 1.82643 2.08655 0
M  V30 78 H 8.0514 1.35065 0.833255 0
M  V30 79 H 8.0724 1.35827 3.55431 0
M  V30 80 H 7.5844 2.90035 2.57878 0
M  V30 81 H 5.6854 0.685464 3.66241 0
M  V30 82 H 5.7984 2.52467 4.07182 0
M  V30 83 H 4.1624 1.25896 2.21409 0
M  V30 84 H 4.9454 2.89066 1.85191 0
M  V30 85 N 7.3905 -1.2043 1.01659 0
M  V30 86 C 8.6395 -1.89118 0.701237 0
M  V30 87 C 8.9525 -1.79705 -0.772358 0
M  V30 88 O 10.1585 -2.43528 -1.20026 0
M  V30 89 C 8.6145 -3.39168 1.20388 0
M  V30 90 C 8.2225 -3.57166 2.70438 0
M  V30 91 C 9.9665 -4.1341 0.963953 0
M  V30 92 C 7.8735 -5.01042 3.14183 0
M  V30 93 H 6.8035 -0.708267 0.2586 0
M  V30 94 H 9.4545 -1.36239 1.22927 0
M  V30 95 H 7.8365 -3.91369 0.603824 0
M  V30 96 H 9.0105 -3.15351 3.35992 0
M  V30 97 H 7.3255 -2.96294 2.92572 0
M  V30 98 H 9.9225 -5.19491 1.26621 0
M  V30 99 H 10.2655 -4.16181 -0.099578 0
M  V30 100 H 10.7985 -3.67309 1.52738 0
M  V30 101 H 7.5375 -5.03426 4.19812 0
M  V30 102 H 7.0575 -5.43668 2.53348 0
M  V30 103 H 8.7365 -5.69623 3.0682 0
M  V30 104 N 8.8686 -0.792821 -1.36206 0
M  V30 105 C 9.7986 -0.207853 -2.32573 0
M  V30 106 C 10.7796 0.659055 -1.56813 0
M  V30 107 O 11.9646 0.592176 -1.84951 0
M  V30 108 C 9.0946 0.655449 -3.41059 0
M  V30 109 C 8.0486 -0.111842 -4.27854 0
M  V30 110 C 7.3746 0.872274 -5.27537 0
M  V30 111 C 8.6746 -1.30299 -5.05786 0
M  V30 112 H 10.3686 -1.01294 -2.81744 0
M  V30 113 H 7.9146 -0.48854 -1.3546 0
M  V30 114 H 9.8676 1.07464 -4.07467 0
M  V30 115 H 8.5916 1.49328 -2.90463 0
M  V30 116 H 7.2506 -0.512053 -3.63006 0
M  V30 117 H 6.8986 1.70523 -4.73214 0
M  V30 118 H 6.5986 0.363291 -5.86476 0
M  V30 119 H 8.1226 1.28996 -5.96818 0
M  V30 120 H 9.5366 -0.959379 -5.65216 0
M  V30 121 H 7.9336 -1.7455 -5.74154 0
M  V30 122 H 9.0036 -2.09663 -4.37229 0
M  V30 123 N 10.3467 1.47872 -0.545128 0
M  V30 124 C 11.2767 2.32661 0.197793 0
M  V30 125 C 12.2577 1.43041 0.920504 0
M  V30 126 O 13.4427 1.71912 0.90333 0
M  V30 127 C 10.5727 3.24569 1.23582 0
M  V30 128 C 9.5267 4.23333 0.630323 0
M  V30 129 C 8.8527 5.0448 1.77211 0
M  V30 130 C 10.1527 5.20704 -0.407974 0
M  V30 131 H 11.8467 2.95024 -0.510045 0
M  V30 132 H 9.3927 1.4187 -0.246731 0
M  V30 133 H 11.3457 3.8272 1.76362 0
M  V30 134 H 10.0697 2.60236 1.97344 0
M  V30 135 H 8.7287 3.6639 0.123922 0
M  V30 136 H 8.3767 4.36561 2.49847 0
M  V30 137 H 8.0767 5.71339 1.37281 0
M  V30 138 H 9.6007 5.65487 2.3034 0
M  V30 139 H 11.0147 5.7329 0.033305 0
M  V30 140 H 9.4117 5.95699 -0.725486 0
M  V30 141 H 10.4817 4.66917 -1.30828 0
M  V30 142 N 11.8248 0.280983 1.55075 0
M  V30 143 C 12.7548 -0.597469 2.25727 0
M  V30 144 C 13.7358 -1.15417 1.24952 0
M  V30 145 O 14.9208 -1.18722 1.53684 0
M  V30 146 C 12.0508 -1.7789 2.98283 0
M  V30 147 C 11.0048 -1.35347 4.06036 0
M  V30 148 C 10.3308 -2.61846 4.66198 0
M  V30 149 C 11.6308 -0.499354 5.19907 0
M  V30 150 H 13.3248 -0.00824265 2.99399 0
M  V30 151 H 10.8708 -0.0025244 1.44 0
M  V30 152 H 12.8238 -2.39937 3.46422 0
M  V30 153 H 11.5478 -2.39405 2.22155 0
M  V30 154 H 10.2068 -0.756156 3.58717 0
M  V30 155 H 9.8548 -3.21632 3.86732 0
M  V30 156 H 9.5548 -2.3409 5.38958 0
M  V30 157 H 11.0788 -3.24732 5.1709 0
M  V30 158 H 12.4928 -1.02498 5.64063 0
M  V30 159 H 10.8898 -0.316424 5.99265 0
M  V30 160 H 11.9598 0.480459 4.82514 0
M  V30 161 N 13.3029 -1.57598 0.00835791 0
M  V30 162 C 14.2329 -2.1198 -0.979113 0
M  V30 163 C 15.2139 -1.03091 -1.35301 0
M  V30 164 O 16.3989 -1.30818 -1.43528 0
M  V30 165 C 13.5289 -2.62995 -2.26828 0
M  V30 166 C 12.4829 -3.76485 -2.03576 0
M  V30 167 C 11.8089 -4.13846 -3.38579 0
M  V30 168 C 13.1089 -5.0342 -1.39161 0
M  V30 169 H 14.8029 -2.94738 -0.526281 0
M  V30 170 H 12.3489 -1.41783 -0.251704 0
M  V30 171 H 14.3019 -2.99669 -2.96271 0
M  V30 172 H 13.0259 -1.7737 -2.7424 0
M  V30 173 H 11.6849 -3.40217 -1.36557 0
M  V30 174 H 11.3329 -3.25232 -3.83709 0
M  V30 175 H 11.0329 -4.90312 -3.23834 0
M  V30 176 H 12.5569 -4.53086 -4.09323 0
M  V30 177 H 13.9709 -5.37812 -1.98573 0
M  V30 178 H 12.3679 -5.84746 -1.34878 0
M  V30 179 H 13.4379 -4.83548 -0.361868 0
M  V30 180 N 14.781 0.264519 -1.55364 0
M  V30 181 C 16.021 1.00254 -1.78125 0
M  V30 182 C 16.385 1.83187 -0.575017 0
M  V30 183 O 17.586 2.60029 -0.681042 0
M  V30 184 C 15.857 1.85478 -3.05504 0
M  V30 185 S 17.416 2.6543 -3.49417 0
M  V30 186 H 14.234 0.337522 -0.625779 0
M  V30 187 H 16.836 0.272111 -1.93597 0
M  V30 188 H 15.54 1.23491 -3.9138 0
M  V30 189 H 15.071 2.62827 -2.92721 0
M  V30 190 H 17.086 3.87958 -3.09359 0
M  V30 191 N 16.2591 1.48442 0.529413 0
M  V30 192 C 17.5051 1.5672 1.28711 0
M  V30 193 C 17.8381 0.2406 1.92704 0
M  V30 194 O 17.1131 -0.753454 1.79313 0
M  V30 195 C 17.3961 2.70587 2.37603 0
M  V30 196 C 17.2491 4.12953 1.78297 0
M  V30 197 C 18.5681 2.80212 3.39366 0
M  V30 198 H 15.6871 0.570474 0.466613 0
M  V30 199 H 18.3291 1.80617 0.589706 0
M  V30 200 H 16.4791 2.50342 2.97088 0
M  V30 201 H 18.1511 4.44639 1.22858 0
M  V30 202 H 16.3941 4.19927 1.0883 0
M  V30 203 H 17.0651 4.88448 2.57144 0
M  V30 204 H 19.5411 2.98553 2.89836 0
M  V30 205 H 18.4171 3.61611 4.12951 0
M  V30 206 H 18.6781 1.88393 3.99951 0
M  V30 207 N 17.7372 -0.778329 1.37039 0
M  V30 208 C 18.7002 -1.87301 1.32102 0
M  V30 209 C 19.7002 -1.59198 0.226405 0
M  V30 210 O 20.8902 -1.67403 0.481861 0
M  V30 211 C 18.0222 -3.24309 1.05055 0
M  V30 212 H 19.2152 -1.93093 2.29467 0
M  V30 213 H 16.7682 -0.977358 1.21973 0
M  V30 214 H 17.5032 -3.24196 0.0819373 0
M  V30 215 H 17.2882 -3.46098 1.84279 0
M  V30 216 H 18.7782 -4.04382 1.04234 0
M  V30 217 N 19.2153 -1.21501 -1.00376 0
M  V30 218 C 20.4613 -1.03452 -1.74429 0
M  V30 219 C 20.7943 0.430764 -1.89362 0
M  V30 220 O 20.0693 1.31962 -1.42886 0
M  V30 221 C 20.3523 -1.73375 -3.15615 0
M  V30 222 C 20.2053 -3.27431 -3.08397 0
M  V30 223 C 21.5243 -1.47732 -4.14564 0
M  V30 224 H 18.6433 -0.377226 -0.633143 0
M  V30 225 H 21.2853 -1.49693 -1.17013 0
M  V30 226 H 19.4353 -1.34064 -3.64636 0
M  V30 227 H 21.1073 -3.76119 -2.67081 0
M  V30 228 H 19.3503 -3.5767 -2.45468 0
M  V30 229 H 20.0213 -3.71524 -4.08258 0
M  V30 230 H 22.4973 -1.8186 -3.74254 0
M  V30 231 H 21.3733 -1.99169 -5.11491 0
M  V30 232 H 21.6343 -0.407589 -4.40217 0
M  V30 233 N 20.6934 1.19889 -1.02296 0
M  V30 234 C 21.9334 1.91125 -0.724602 0
M  V30 235 C 22.2974 1.77464 0.732835 0
M  V30 236 O 23.4984 2.43241 1.144 0
M  V30 237 C 21.7694 3.38187 -1.15604 0
M  V30 238 S 23.3284 4.27702 -0.980621 0
M  V30 239 H 20.1464 0.66018 -0.263976 0
M  V30 240 H 22.7484 1.44978 -1.31155 0
M  V30 241 H 21.4524 3.45653 -2.21251 0
M  V30 242 H 20.9834 3.89363 -0.562131 0
M  V30 243 H 22.9984 4.96073 0.112225 0
M  V30 244 N 22.1715 0.800033 1.35784 0
M  V30 245 C 23.3965 0.388511 2.03729 0
M  V30 246 C 23.8215 -0.990481 1.5991 0
M  V30 247 O 23.1795 -1.64013 0.772612 0
M  V30 248 C 23.2275 0.4726 3.5749 0
M  V30 249 O 22.3315 -0.51646 4.09153 0
M  V30 250 H 21.6725 0.163271 0.643614 0
M  V30 251 H 24.2025 1.0841 1.73518 0
M  V30 252 H 24.2125 0.34003 4.06581 0
M  V30 253 H 22.8875 1.47848 3.88734 0
M  V30 254 H 21.4645 -0.344673 3.71304 0
M  V30 255 N 23.6496 -1.47581 0.552962 0
M  V30 256 C 24.6126 -2.28439 -0.186605 0
M  V30 257 C 25.6126 -1.36706 -0.84665 0
M  V30 258 O 26.8026 -1.59378 -0.703164 0
M  V30 259 C 23.9346 -3.16264 -1.2724 0
M  V30 260 H 25.1276 -2.95294 0.523609 0
M  V30 261 H 22.6806 -1.532 0.309745 0
M  V30 262 H 23.4156 -2.54091 -2.01514 0
M  V30 263 H 23.2006 -3.83769 -0.803968 0
M  V30 264 H 24.6906 -3.77198 -1.79196 0
M  V30 265 N 25.1277 -0.289203 -1.54924 0
M  V30 266 C 26.3577 0.325989 -2.04012 0
M  V30 267 C 26.7657 1.48961 -1.1665 0
M  V30 268 O 26.1087 1.82794 -0.1822 0
M  V30 269 C 26.1707 0.856112 -3.49158 0
M  V30 270 C 25.8347 -0.180697 -4.56643 0
M  V30 271 C 26.8317 -1.0051 -5.10092 0
M  V30 272 C 24.5167 -0.318998 -5.01286 0
M  V30 273 C 26.5107 -1.95385 -6.06715 0
M  V30 274 C 24.1977 -1.27121 -5.97732 0
M  V30 275 C 25.1957 -2.08713 -6.50329 0
M  V30 276 O 24.8837 -3.02322 -7.44887 0
M  V30 277 H 24.6157 0.0765276 -0.671654 0
M  V30 278 H 27.1697 -0.423254 -2.00992 0
M  V30 279 H 25.3997 1.65567 -3.49463 0
M  V30 280 H 27.0887 1.38591 -3.81507 0
M  V30 281 H 27.8547 -0.90906 -4.76404 0
M  V30 282 H 23.7337 0.306108 -4.59983 0
M  V30 283 H 27.2777 -2.59111 -6.47694 0
M  V30 284 H 23.1747 -1.36801 -6.30837 0
M  V30 285 H 23.9427 -2.97165 -7.6265 0
M  V30 286 N 26.6058 1.57591 -0.0167156 0
M  V30 287 C 28.0168 1.79201 0.523834 0
M  V30 288 C 28.3678 0.925796 1.72984 0
M  V30 289 O 27.4928 0.132792 2.15992 0
M  V30 290 C 28.0878 3.25 0.957091 0
M  V30 291 C 26.6468 3.47648 1.44283 0
M  V30 292 C 25.7938 2.74374 0.401757 0
M  V30 293 H 28.7448 1.56831 -0.242816 0
M  V30 294 H 28.7658 3.34031 1.82219 0
M  V30 295 H 28.2778 3.88019 0.0791415 0
M  V30 296 H 26.3788 2.89866 2.34113 0
M  V30 297 H 26.4918 4.56352 1.45877 0
M  V30 298 H 24.8558 2.39485 0.867121 0
M  V30 299 H 25.6388 3.40102 -0.467513 0
M  V30 300 N 28.0839 -0.256276 1.55502 0
M  V30 301 C 29.0139 -1.32102 1.92539 0
M  V30 302 C 29.9949 -1.50684 0.789194 0
M  V30 303 O 31.1799 -1.63449 1.04872 0
M  V30 304 C 28.3099 -2.67752 2.21192 0
M  V30 305 C 27.2639 -2.63878 3.36975 0
M  V30 306 C 26.5899 -4.03236 3.51147 0
M  V30 307 C 27.8899 -2.21682 4.72921 0
M  V30 308 H 29.5839 -1.01351 2.81724 0
M  V30 309 H 27.1299 -0.486105 1.35547 0
M  V30 310 H 29.0829 -3.42365 2.45691 0
M  V30 311 H 27.8069 -3.0012 1.28824 0
M  V30 312 H 26.4659 -1.91722 3.12471 0
M  V30 313 H 26.1139 -4.32854 2.56216 0
M  V30 314 H 25.8139 -4.01535 4.29003 0
M  V30 315 H 27.3379 -4.79563 3.77957 0
M  V30 316 H 28.7519 -2.86023 4.96854 0
M  V30 317 H 27.1489 -2.3111 5.53812 0
M  V30 318 H 28.2189 -1.16833 4.70615 0
M  V30 319 N 29.562 -1.4872 -0.521534 0
M  V30 320 C 30.839 -1.4766 -1.2828 0
M  V30 321 C 31.219 -0.19292 -2.10217 0
M  V30 322 O 30.567 0.825193 -2.13079 0
M  V30 323 C 30.777 -2.74358 -2.15705 0
M  V30 324 C 32.125 -3.23028 -2.75569 0
M  V30 325 O 33.149 -2.75333 -2.25987 0
M  V30 326 O 32.008 -4.0604 -3.65778 0
M  V30 327 H 29.102 -0.590085 -0.579421 0
M  V30 328 H 31.648 -1.60963 -0.537492 0
M  V30 329 H 30.42 -3.59292 -1.54999 0
M  V30 330 H 30.043 -2.63816 -2.97467 0
M  V30 331 N 31.0401 0.771051 -1.3745 0
M  V30 332 C 32.2881 1.52661 -1.32435 0
M  V30 333 C 32.6091 1.9479 0.0905024 0
M  V30 334 O 31.8791 1.66348 1.03466 0
M  V30 335 H 30.4591 0.566218 -0.487244 0
M  V30 336 H 33.1211 0.917636 -1.71946 0
M  V30 337 H 32.2171 2.42568 -1.96385 0
M  V30 338 N 32.5182 1.22032 0.997298 0
M  V30 339 C 33.4812 0.987909 2.06816 0
M  V30 340 C 34.4812 -0.0440084 1.6074 0
M  V30 341 O 35.6712 0.194053 1.73116 0
M  V30 342 C 32.8032 0.49132 3.37341 0
M  V30 343 H 33.9962 1.93803 2.28868 0
M  V30 344 H 31.5492 1.03838 1.16822 0
M  V30 345 H 32.2842 -0.463364 3.20973 0
M  V30 346 H 32.0692 1.23575 3.72118 0
M  V30 347 H 33.5592 0.348824 4.16141 0
M  V30 348 N 33.9963 -1.19345 1.0293 0
M  V30 349 C 34.9593 -2.20793 0.615069 0
M  V30 350 C 35.9593 -1.57553 -0.321533 0
M  V30 351 O 37.1493 -1.73862 -0.108483 0
M  V30 352 C 34.2813 -3.40754 -0.0999222 0
M  V30 353 H 35.4743 -2.58955 1.51269 0
M  V30 354 H 33.0273 -1.3303 0.820534 0
M  V30 355 H 33.7623 -3.0811 -1.01187 0
M  V30 356 H 33.5473 -3.87889 0.57309 0
M  V30 357 H 35.0373 -4.15898 -0.376645 0
M  V30 358 N 35.4744 -0.807222 -1.35358 0
M  V30 359 C 36.8904 -0.491038 -1.51858 0
M  V30 360 C 37.0904 0.987648 -1.75635 0
M  V30 361 O 36.1464 1.77265 -1.79815 0
M  V30 362 C 37.4594 -1.33695 -2.69344 0
M  V30 363 C 39.0074 -1.33246 -2.83222 0
M  V30 364 C 39.4824 -2.1625 -4.03733 0
M  V30 365 N 40.9734 -2.1379 -4.10911 0
M  V30 366 C 41.7084 -2.74772 -5.03277 0
M  V30 367 N 41.2044 -3.44684 -6.0097 0
M  V30 368 N 42.9974 -2.6441 -4.96028 0
M  V30 369 H 35.1484 -1.76485 -1.18181 0
M  V30 370 H 37.4114 -0.751199 -0.578276 0
M  V30 371 H 37.1174 -2.38634 -2.58354 0
M  V30 372 H 36.9914 -0.990618 -3.6396 0
M  V30 373 H 39.3784 -0.290911 -2.93663 0
M  V30 374 H 39.4594 -1.71866 -1.89461 0
M  V30 375 H 39.1034 -3.20445 -3.94052 0
M  V30 376 H 39.0334 -1.74989 -4.96675 0
M  V30 377 H 41.5244 -1.62923 -3.40976 0
M  V30 378 H 41.8374 -3.88501 -6.68047 0
M  V30 379 H 40.1824 -3.48788 -6.01142 0
M  V30 380 H 43.3734 -2.0938 -4.18662 0
M  V30 381 H 43.5464 -3.12225 -5.6782 0
M  V30 382 N 36.9525 1.47285 -0.560781 0
M  V30 383 C 38.2005 2.02064 -0.0379868 0
M  V30 384 C 38.5215 1.43711 1.31803 0
M  V30 385 O 37.7915 0.61362 1.86042 0
M  V30 386 H 36.3715 0.746918 -0.0110531 0
M  V30 387 H 39.0335 1.80648 -0.731598 0
M  V30 388 H 38.1295 3.12064 0.0474463 0
M  V30 389 N 38.4306 0.297415 1.54768 0
M  V30 390 C 39.3406 -0.58983 2.27064 0
M  V30 391 C 40.3566 -1.15144 1.30453 0
M  V30 392 O 41.5326 -1.17699 1.63428 0
M  V30 393 C 38.5976 -1.74714 2.9946 0
M  V30 394 C 37.6586 -1.21997 4.11601 0
M  V30 395 C 36.8916 -2.32212 4.80535 0
M  V30 396 O 37.1146 -3.52036 4.48806 0
M  V30 397 O 36.0486 -1.99106 5.68014 0
M  V30 398 H 39.8746 -0.00348199 3.037 0
M  V30 399 H 37.4596 0.0640035 1.49263 0
M  V30 400 H 39.3416 -2.42147 3.44881 0
M  V30 401 H 38.0166 -2.32016 2.25722 0
M  V30 402 H 36.9236 -0.511458 3.70587 0
M  V30 403 H 38.2566 -0.692419 4.87305 0
M  V30 404 N 39.9087 -1.5758 0.0250728 0
M  V30 405 C 41.1857 -1.82917 -0.692873 0
M  V30 406 C 41.5657 -0.908137 -1.90568 0
M  V30 407 O 40.9137 0.0372298 -2.2847 0
M  V30 408 C 41.1237 -3.32034 -1.07492 0
M  V30 409 C 42.4717 -3.98406 -1.46826 0
M  V30 410 O 43.4957 -3.36505 -1.16801 0
M  V30 411 O 42.3547 -5.07497 -2.02754 0
M  V30 412 H 39.4487 -0.754079 -0.33955 0
M  V30 413 H 41.9947 -1.69619 0.0524456 0
M  V30 414 H 40.7667 -3.90728 -0.211552 0
M  V30 415 H 40.3897 -3.50424 -1.87854 0
M  V30 416 N 41.3868 0.248026 -1.55636 0
M  V30 417 C 42.6148 0.993808 -1.81469 0
M  V30 418 C 43.0298 1.78991 -0.60064 0
M  V30 419 O 42.3868 1.77345 0.430682 0
M  V30 420 C 42.4378 1.93258 -3.05506 0
M  V30 421 O 42.1588 1.16869 -4.22224 0
M  V30 422 C 43.6598 2.79444 -3.4413 0
M  V30 423 H 40.8798 0.292486 -0.603898 0
M  V30 424 H 43.4238 0.271253 -2.02693 0
M  V30 425 H 41.5788 2.60943 -2.86335 0
M  V30 426 H 41.9928 1.80359 -4.92515 0
M  V30 427 H 43.4668 3.41066 -4.34026 0
M  V30 428 H 43.9438 3.50499 -2.64665 0
M  V30 429 H 44.5498 2.17214 -3.65648 0
M  V30 430 N 42.8649 1.48995 0.513639 0
M  V30 431 C 44.0899 1.61792 1.29762 0
M  V30 432 C 44.5149 0.284475 1.85936 0
M  V30 433 O 43.8729 -0.746185 1.65232 0
M  V30 434 C 43.9209 2.67993 2.41272 0
M  V30 435 O 43.0249 2.26287 3.44772 0
M  V30 436 H 42.3659 0.541963 0.38363 0
M  V30 437 H 44.8959 1.95097 0.616307 0
M  V30 438 H 44.9059 2.89772 2.87221 0
M  V30 439 H 43.5809 3.64791 1.9975 0
M  V30 440 H 42.1579 2.14788 3.04829 0
M  V30 441 N 44.343 -0.763751 1.37857 0
M  V30 442 C 45.276 -1.88486 1.28639 0
M  V30 443 C 46.254 -1.61757 0.165363 0
M  V30 444 O 47.438 -1.85391 0.340948 0
M  V30 445 C 44.565 -3.23884 0.990811 0
M  V30 446 C 43.611 -3.69514 2.12983 0
M  V30 447 S 44.444 -3.82244 3.75033 0
M  V30 448 C 45.6 -5.20477 3.47641 0
M  V30 449 H 45.833 -1.96017 2.23527 0
M  V30 450 H 43.366 -0.925684 1.23574 0
M  V30 451 H 45.324 -4.02081 0.827101 0
M  V30 452 H 43.985 -3.14044 0.0592832 0
M  V30 453 H 43.178 -4.67696 1.87821 0
M  V30 454 H 42.78 -2.98441 2.25408 0
M  V30 455 H 45.072 -6.05905 3.03125 0
M  V30 456 H 46.015 -5.50655 4.4518 0
M  V30 457 H 46.423 -4.88793 2.82385 0
M  V30 458 N 45.8211 -1.22559 -0.990812 0
M  V30 459 C 46.7691 -0.994798 -2.10253 0
M  V30 460 C 47.7631 0.0627798 -1.69284 0
M  V30 461 O 48.9691 -0.0898392 -1.79776 0
M  V30 462 H 45.3441 -0.304527 -0.687581 0
M  V30 463 H 47.3151 -1.93812 -2.26891 0
M  V30 464 C 46.0641 -0.591439 -3.42633 0
M  V30 465 H 45.3871 -1.3969 -3.74602 0
M  V30 466 H 46.8271 -0.469385 -4.21394 0
M  V30 467 C 45.2861 0.699232 -3.29564 0
M  V30 468 O 45.8161 1.75112 -3.61523 0
M  V30 469 N 44.0221 0.671182 -2.82743 0
M  V30 470 H 43.5691 -0.185136 -2.56934 0
M  V30 471 H 43.5271 1.53502 -2.7438 0
M  V30 472 N 47.2992 1.18797 -1.03562 0
M  V30 473 C 48.2292 2.24472 -0.643019 0
M  V30 474 C 49.2102 1.66433 0.351283 0
M  V30 475 O 50.3952 1.92803 0.232505 0
M  V30 476 C 47.5252 3.473 4.24935e-05 0
M  V30 477 C 46.4792 4.18055 -0.917257 0
M  V30 478 C 45.8052 5.34519 -0.138941 0
M  V30 479 C 47.1052 4.72109 -2.23407 0
M  V30 480 H 48.7992 2.57566 -1.52643 0
M  V30 481 H 46.3452 1.23806 -0.735394 0
M  V30 482 H 48.2982 4.20426 0.286383 0
M  V30 483 H 47.0222 3.13424 0.918299 0
M  V30 484 H 45.6812 3.46821 -1.1879 0
M  V30 485 H 45.3292 4.96891 0.781562 0
M  V30 486 H 45.0292 5.82794 -0.750005 0
M  V30 487 H 46.5532 6.10438 0.1405 0
M  V30 488 H 47.9672 5.36955 -2.00879 0
M  V30 489 H 46.3642 5.30897 -2.79765 0
M  V30 490 H 47.4342 3.89807 -2.88407 0
M  V30 491 N 48.7773 0.814389 1.34928 0
M  V30 492 C 50.0233 0.399013 1.98836 0
M  V30 493 C 50.3563 -1.03314 1.64438 0
M  V30 494 O 49.6313 -1.71811 0.911659 0
M  V30 495 C 49.9143 0.591629 3.55207 0
M  V30 496 C 49.7673 2.06928 3.99376 0
M  V30 497 C 51.0863 0.022199 4.40094 0
M  V30 498 H 48.2053 0.146451 0.722303 0
M  V30 499 H 50.8473 1.02537 1.59957 0
M  V30 500 H 48.9973 0.0584441 3.88456 0
M  V30 501 H 50.6693 2.66544 3.76499 0
M  V30 502 H 48.9123 2.56287 3.49999 0
M  V30 503 H 49.5833 2.1549 5.08201 0
M  V30 504 H 52.0593 0.477643 4.13349 0
M  V30 505 H 50.9353 0.186832 5.48582 0
M  V30 506 H 51.1963 -1.07215 4.28902 0
M  V30 507 N 50.2554 -1.46986 0.568584 0
M  V30 508 C 51.1874 -2.28233 -0.210337 0
M  V30 509 C 52.2004 -1.37682 -0.868767 0
M  V30 510 O 53.3894 -1.62406 -0.740705 0
M  V30 511 C 50.4894 -3.12293 -1.3163 0
M  V30 512 C 49.6624 -4.30878 -0.7525 0
M  V30 513 C 48.7214 -4.96445 -1.74439 0
M  V30 514 O 47.7474 -5.54482 -1.286 0
M  V30 515 N 48.9494 -4.92171 -3.07812 0
M  V30 516 H 51.7144 -2.95723 0.486648 0
M  V30 517 H 49.2754 -1.56742 0.405409 0
M  V30 518 H 51.2674 -3.53022 -1.97883 0
M  V30 519 H 49.8374 -2.46971 -1.91636 0
M  V30 520 H 49.0574 -3.94104 0.0871128 0
M  V30 521 H 50.3454 -5.07558 -0.35536 0
M  V30 522 H 49.7434 -4.46239 -3.47688 0
M  V30 523 H 48.3004 -5.36884 -3.69592 0
M  V30 524 N 51.7335 -0.305618 -1.54608 0
M  V30 525 C 52.6805 0.568421 -2.23691 0
M  V30 526 C 53.6505 1.12592 -1.22116 0
M  V30 527 O 54.8355 1.16959 -1.50749 0
M  V30 528 C 51.9755 1.7322 -2.98477 0
M  V30 529 C 51.0885 1.20566 -4.14835 0
M  V30 530 C 50.2235 2.33368 -4.77193 0
M  V30 531 C 49.2625 1.7787 -5.85686 0
M  V30 532 N 48.3995 2.84263 -6.4198 0
M  V30 533 H 53.2395 -0.0272867 -2.97988 0
M  V30 534 H 50.7765 -0.0252363 -1.47078 0
M  V30 535 H 52.7345 2.41675 -3.40072 0
M  V30 536 H 51.3645 2.29947 -2.26548 0
M  V30 537 H 50.4165 0.413223 -3.78149 0
M  V30 538 H 51.7285 0.759417 -4.92985 0
M  V30 539 H 50.8825 3.09761 -5.21664 0
M  V30 540 H 49.6215 2.8132 -3.98385 0
M  V30 541 H 48.6265 0.99968 -5.40635 0
M  V30 542 H 49.8515 1.30816 -6.66381 0
M  V30 543 H 47.7975 3.31541 -5.66053 0
M  V30 544 H 47.7145 2.44149 -7.15491 0
M  V30 545 H 48.9825 3.6054 -6.91109 0
M  V30 546 N 53.2116 1.57565 -0.0334293 0
M  V30 547 C 54.4416 1.95996 0.653398 0
M  V30 548 C 54.8496 0.908749 1.65947 0
M  V30 549 O 54.1926 -0.117471 1.83324 0
M  V30 550 C 54.2546 3.30589 1.41249 0
M  V30 551 C 53.9186 4.53503 0.564263 0
M  V30 552 C 54.9156 5.19647 -0.16225 0
M  V30 553 C 52.6006 4.99801 0.500398 0
M  V30 554 C 54.5946 6.30412 -0.941255 0
M  V30 555 C 52.2816 6.10448 -0.282308 0
M  V30 556 C 53.2796 6.75612 -1.00184 0
M  V30 557 O 52.9676 7.84134 -1.77171 0
M  V30 558 H 52.6996 0.65027 0.184728 0
M  V30 559 H 55.2536 2.05199 -0.0907841 0
M  V30 560 H 53.4836 3.17888 2.20191 0
M  V30 561 H 55.1726 3.53892 1.98784 0
M  V30 562 H 55.9386 4.84846 -0.12227 0
M  V30 563 H 51.8176 4.48883 1.05002 0
M  V30 564 H 55.3616 6.81208 -1.50339 0
M  V30 565 H 51.2586 6.44686 -0.323989 0
M  V30 566 H 52.0266 8.00822 -1.69194 0
M  V30 567 N 54.6897 -0.239769 1.55765 0
M  V30 568 C 55.6197 -1.30052 1.9393 0
M  V30 569 C 56.6007 -1.49839 0.805132 0
M  V30 570 O 57.7857 -1.62328 1.06599 0
M  V30 571 C 54.9157 -2.65391 2.2402 0
M  V30 572 C 53.8697 -2.60289 3.39755 0
M  V30 573 C 53.1957 -3.99489 3.55405 0
M  V30 574 C 54.4957 -2.16654 4.75246 0
M  V30 575 H 56.1897 -0.983573 2.82783 0
M  V30 576 H 53.7357 -0.471701 1.36055 0
M  V30 577 H 55.6887 -3.3974 2.49308 0
M  V30 578 H 54.4127 -2.98736 1.32 0
M  V30 579 H 53.0717 -1.88398 3.14487 0
M  V30 580 H 52.7197 -4.30112 2.60793 0
M  V30 581 H 52.4197 -3.96962 4.33238 0
M  V30 582 H 53.9437 -4.75528 3.83022 0
M  V30 583 H 55.3577 -2.80737 4.99859 0
M  V30 584 H 53.7547 -2.25223 5.56232 0
M  V30 585 H 54.8247 -1.11835 4.71827 0
M  V30 586 N 56.1678 -1.49265 -0.50573 0
M  V30 587 C 57.0778 -1.68312 -1.63427 0
M  V30 588 C 58.0938 -0.565682 -1.64548 0
M  V30 589 O 59.2698 -0.839801 -1.83055 0
M  V30 590 C 56.3348 -1.74107 -2.99813 0
M  V30 591 C 55.3958 -2.97653 -3.09356 0
M  V30 592 C 54.6288 -3.03163 -4.39236 0
M  V30 593 O 54.8518 -2.16396 -5.27758 0
M  V30 594 O 53.7858 -3.9558 -4.53652 0
M  V30 595 H 57.6118 -2.63907 -1.50289 0
M  V30 596 H 55.1968 -1.32951 -0.681502 0
M  V30 597 H 57.0788 -1.803 -3.80881 0
M  V30 598 H 55.7538 -0.816901 -3.13223 0
M  V30 599 H 54.6608 -2.96981 -2.27493 0
M  V30 600 H 55.9938 -3.89535 -3.00871 0
M  V30 601 N 57.6459 0.756429 -1.3826 0
M  V30 602 C 58.5939 1.89149 -1.35372 0
M  V30 603 C 59.5879 1.67691 -0.24004 0
M  V30 604 O 60.7939 1.75294 -0.408919 0
M  V30 605 H 57.1689 0.622271 -0.422236 0
M  V30 606 H 59.1399 1.88701 -2.31159 0
M  V30 607 C 57.8889 3.26599 -1.19284 0
M  V30 608 H 57.2119 3.43695 -2.0424 0
M  V30 609 H 58.6519 4.06274 -1.21316 0
M  V30 610 C 57.1109 3.3675 0.100454 0
M  V30 611 O 57.6409 3.86951 1.07851 0
M  V30 612 N 55.8469 2.90179 0.15633 0
M  V30 613 H 55.3939 2.49517 -0.640253 0
M  V30 614 H 55.3519 2.97352 1.02123 0
M  V30 615 N 59.124 1.23083 0.984299 0
M  V30 616 C 60.354 1.08556 1.75781 0
M  V30 617 C 60.762 -0.366171 1.85623 0
M  V30 618 O 60.105 -1.26524 1.33182 0
M  V30 619 C 60.167 1.63208 3.20318 0
M  V30 620 C 59.831 3.11922 3.33997 0
M  V30 621 C 60.828 4.09259 3.2063 0
M  V30 622 C 58.513 3.51552 3.58771 0
M  V30 623 C 60.507 5.4421 3.31835 0
M  V30 624 C 58.194 4.86649 3.69616 0
M  V30 625 C 59.192 5.82787 3.56157 0
M  V30 626 O 58.88 7.15431 3.66626 0
M  V30 627 H 58.612 0.380713 0.5586 0
M  V30 628 H 61.166 1.63321 1.2456 0
M  V30 629 H 59.396 1.0286 3.72769 0
M  V30 630 H 61.085 1.44216 3.79416 0
M  V30 631 H 61.851 3.79984 3.01392 0
M  V30 632 H 57.73 2.77239 3.6832 0
M  V30 633 H 61.274 6.1923 3.21247 0
M  V30 634 H 57.171 5.15601 3.88363 0
M  V30 635 H 57.939 7.23127 3.83445 0
M  V30 636 N 60.6021 -1.18246 1.0419 0
M  V30 637 C 61.8321 -1.91916 0.764961 0
M  V30 638 C 62.2401 -1.76485 -0.681898 0
M  V30 639 O 61.5831 -1.09275 -1.47664 0
M  V30 640 C 61.6451 -3.4373 1.05309 0
M  V30 641 C 61.3091 -3.8294 2.4941 0
M  V30 642 C 62.3061 -3.86621 3.47592 0
M  V30 643 C 59.9911 -4.142 2.84155 0
M  V30 644 C 61.9851 -4.21013 4.78568 0
M  V30 645 C 59.6721 -4.48262 4.15337 0
M  V30 646 C 60.6701 -4.51645 5.12353 0
M  V30 647 O 60.3581 -4.84911 6.41183 0
M  V30 648 H 60.0901 -0.61606 0.278292 0
M  V30 649 H 62.6441 -1.50947 1.39299 0
M  V30 650 H 60.8741 -3.84946 0.367933 0
M  V30 651 H 62.5631 -3.9865 0.763752 0
M  V30 652 H 63.3291 -3.62607 3.22089 0
M  V30 653 H 59.2081 -4.10743 2.09311 0
M  V30 654 H 62.7521 -4.23568 5.54289 0
M  V30 655 H 58.6491 -4.71737 4.40607 0
M  V30 656 H 59.4171 -5.02809 6.45852 0
M  V30 657 N 62.0802 -0.821533 -1.34494 0
M  V30 658 C 63.3572 -0.33159 -1.92769 0
M  V30 659 C 63.7372 1.18088 -1.74981 0
M  V30 660 O 63.0852 1.98733 -1.12772 0
M  V30 661 C 63.2952 -0.759398 -3.40638 0
M  V30 662 C 64.6432 -0.757433 -4.1779 0
M  V30 663 O 65.6672 -0.70189 -3.49216 0
M  V30 664 O 64.5262 -0.829361 -5.4017 0
M  V30 665 H 61.6202 -0.0902502 -0.822061 0
M  V30 666 H 64.1662 -0.906231 -1.43477 0
M  V30 667 H 62.9382 -1.8012 -3.47379 0
M  V30 668 H 62.5612 -0.160378 -3.97276 0
M  V30 669 N 63.5583 1.46682 -0.576371 0
M  V30 670 C 64.4883 2.33028 0.148397 0
M  V30 671 C 65.4693 1.44961 0.889956 0
M  V30 672 O 66.6543 1.73789 0.866662 0
M  V30 673 C 63.7843 3.27117 1.1667 0
M  V30 674 C 62.7383 4.24575 0.540386 0
M  V30 675 C 62.0643 5.08126 1.6647 0
M  V30 676 C 63.3643 5.19722 -0.518331 0
M  V30 677 H 65.0583 2.93875 -0.572509 0
M  V30 678 H 62.6043 1.41315 -0.276768 0
M  V30 679 H 64.5573 3.86374 1.68204 0
M  V30 680 H 63.2813 2.64364 1.9178 0
M  V30 681 H 61.9403 3.66571 0.0461769 0
M  V30 682 H 61.5883 4.41762 2.40531 0
M  V30 683 H 61.2883 5.74122 1.25131 0
M  V30 684 H 62.8123 5.70246 2.18293 0
M  V30 685 H 64.2263 5.73232 -0.0883058 0
M  V30 686 H 62.6233 5.94026 -0.851679 0
M  V30 687 H 63.6933 4.64037 -1.40703 0
M  V30 688 N 65.0364 0.313813 1.54444 0
M  V30 689 C 65.9834 -0.55655 2.23989 0
M  V30 690 C 66.9534 -1.11943 1.22711 0
M  V30 691 O 68.1384 -1.16158 1.51367 0
M  V30 692 C 65.2784 -1.71635 2.99392 0
M  V30 693 C 64.3914 -1.18364 4.15468 0
M  V30 694 C 63.5264 -2.30834 4.78424 0
M  V30 695 C 62.5654 -1.74762 5.86622 0
M  V30 696 N 61.7024 -2.80855 6.43479 0
M  V30 697 H 66.5424 0.0430893 2.97969 0
M  V30 698 H 64.0794 0.0330359 1.47063 0
M  V30 699 H 66.0374 -2.39868 3.41349 0
M  V30 700 H 64.6674 -2.28742 2.27765 0
M  V30 701 H 63.7194 -0.393163 3.78363 0
M  V30 702 H 65.0314 -0.733262 4.93381 0
M  V30 703 H 64.1854 -3.0699 5.23299 0
M  V30 704 H 62.9244 -2.79204 3.99871 0
M  V30 705 H 61.9294 -0.970995 5.41158 0
M  V30 706 H 63.1544 -1.2728 6.67066 0
M  V30 707 H 61.1004 -3.28535 5.67804 0
M  V30 708 H 61.0174 -2.40351 7.16776 0
M  V30 709 H 62.2854 -3.5687 6.93011 0
M  V30 710 N 66.5145 -1.57545 0.0417849 0
M  V30 711 C 67.4615 -2.10977 -0.935805 0
M  V30 712 C 68.4315 -1.01486 -1.31491 0
M  V30 713 O 69.6165 -1.2898 -1.40602 0
M  V30 714 C 66.7565 -2.65169 -2.2086 0
M  V30 715 C 65.8695 -3.88714 -1.88482 0
M  V30 716 C 65.0045 -4.31254 -3.1015 0
M  V30 717 C 64.0435 -5.47524 -2.7365 0
M  V30 718 N 63.1805 -5.85162 -3.87982 0
M  V30 719 H 68.0205 -2.94218 -0.473249 0
M  V30 720 H 65.5575 -1.45415 -0.221981 0
M  V30 721 H 67.5155 -2.94685 -2.95325 0
M  V30 722 H 66.1455 -1.8474 -2.64709 0
M  V30 723 H 65.1975 -3.65849 -1.04205 0
M  V30 724 H 66.5095 -4.73245 -1.57608 0
M  V30 725 H 65.6635 -4.62273 -3.92923 0
M  V30 726 H 64.4025 -3.45516 -3.44195 0
M  V30 727 H 63.4075 -5.16187 -1.89291 0
M  V30 728 H 64.6325 -6.34971 -2.40807 0
M  V30 729 H 62.5785 -5.02377 -4.21846 0
M  V30 730 H 62.4955 -6.64362 -3.60775 0
M  V30 731 H 63.7635 -6.20791 -4.71422 0
M  V30 732 N 67.9926 0.231505 -1.5589 0
M  V30 733 C 69.2696 0.981096 -1.69215 0
M  V30 734 C 69.6496 2.02799 -0.586164 0
M  V30 735 O 68.9976 2.24823 0.408253 0
M  V30 736 C 69.2076 1.60054 -3.10135 0
M  V30 737 C 70.5556 2.09658 -3.69227 0
M  V30 738 O 71.5796 1.69967 -3.13033 0
M  V30 739 O 70.4386 2.8258 -4.67772 0
M  V30 740 H 67.5326 0.457653 -0.688827 0
M  V30 741 H 70.0786 0.224073 -1.68214 0
M  V30 742 H 68.8506 0.844105 -3.82087 0
M  V30 743 H 68.4736 2.42336 -3.15212 0
M  V30 744 N 69.4707 1.49531 0.497807 0
M  V30 745 C 70.7167 1.59415 1.25358 0
M  V30 746 C 71.0497 0.281422 1.9215 0
M  V30 747 O 70.3247 -0.715249 1.80871 0
M  V30 748 C 70.6077 2.75566 2.3181 0
M  V30 749 C 70.4607 4.16642 1.69498 0
M  V30 750 C 71.7797 2.87347 3.33346 0
M  V30 751 H 68.8987 0.580244 0.454408 0
M  V30 752 H 71.5407 1.81827 0.551262 0
M  V30 753 H 69.6907 2.56587 2.91711 0
M  V30 754 H 71.3627 4.47145 1.13399 0
M  V30 755 H 69.6057 4.22141 0.998978 0
M  V30 756 H 70.2767 4.93792 2.46725 0
M  V30 757 H 72.7527 3.04634 2.83438 0
M  V30 758 H 71.6287 3.70289 4.05188 0
M  V30 759 H 71.8897 1.96834 3.95865 0
M  V30 760 N 70.9488 -0.749086 1.3866 0
M  V30 761 C 71.8958 -1.86291 1.36251 0
M  V30 762 C 72.8658 -1.64578 0.224347 0
M  V30 763 O 74.0508 -1.86181 0.417279 0
M  V30 764 C 71.1908 -3.23644 1.19786 0
M  V30 765 C 70.3038 -3.57158 2.43027 0
M  V30 766 C 69.4388 -4.83838 2.19258 0
M  V30 767 C 68.4778 -5.10152 3.38247 0
M  V30 768 N 67.6148 -6.28029 3.13884 0
M  V30 769 H 72.4548 -1.87685 2.3147 0
M  V30 770 H 69.9918 -0.917287 1.14997 0
M  V30 771 H 71.9498 -4.0291 1.08254 0
M  V30 772 H 70.5798 -3.21566 0.282031 0
M  V30 773 H 69.6318 -2.72701 2.65214 0
M  V30 774 H 70.9438 -3.7253 3.31697 0
M  V30 775 H 70.0978 -5.71057 2.04888 0
M  V30 776 H 68.8368 -4.70614 1.2796 0
M  V30 777 H 67.8418 -4.21401 3.53131 0
M  V30 778 H 69.0668 -5.25271 4.30427 0
M  V30 779 H 67.0128 -6.1612 2.25238 0
M  V30 780 H 66.9298 -6.43922 3.96106 0
M  V30 781 H 68.1978 -7.18124 3.03179 0
M  V30 782 N 72.4269 -1.23603 -0.977757 0
M  V30 783 C 73.3589 -0.977369 -2.07317 0
M  V30 784 C 74.3719 0.0495845 -1.62724 0
M  V30 785 O 75.5609 -0.186261 -1.77526 0
M  V30 786 C 72.6609 -0.451216 -3.35883 0
M  V30 787 C 71.8339 -1.53896 -4.09432 0
M  V30 788 C 70.8929 -1.01721 -5.16274 0
M  V30 789 O 69.9189 -1.70676 -5.43009 0
M  V30 790 N 71.1209 0.153594 -5.80297 0
M  V30 791 H 73.8859 -1.92047 -2.30082 0
M  V30 792 H 71.4469 -1.14497 -1.14465 0
M  V30 793 H 73.4389 -0.0871574 -4.04606 0
M  V30 794 H 72.0089 0.397368 -3.10064 0
M  V30 795 H 71.2289 -2.07566 -3.35127 0
M  V30 796 H 72.5169 -2.27037 -4.55337 0
M  V30 797 H 71.9149 0.730323 -5.60966 0
M  V30 798 H 70.4719 0.458892 -6.50183 0
M  V30 799 N 73.905 1.17692 -1.04816 0
M  V30 800 C 75.152 1.87859 -0.75599 0
M  V30 801 C 75.48 1.80812 0.716752 0
M  V30 802 O 74.735 1.20819 1.53952 0
M  V30 803 C 75.034 3.37462 -1.17703 0
M  V30 804 C 74.7 3.64713 -2.65133 0
M  V30 805 C 73.362 3.71859 -3.05408 0
M  V30 806 C 75.714 3.76492 -3.60421 0
M  V30 807 C 73.042 3.88271 -4.39843 0
M  V30 808 C 75.394 3.94421 -4.94585 0
M  V30 809 C 74.058 3.99806 -5.3452 0
M  V30 810 H 73.328 0.687425 -0.276636 0
M  V30 811 H 75.975 1.39255 -1.31455 0
M  V30 812 H 74.28 3.88097 -0.537395 0
M  V30 813 H 75.977 3.90109 -0.928218 0
M  V30 814 H 72.567 3.59772 -2.32942 0
M  V30 815 H 76.751 3.70295 -3.30447 0
M  V30 816 H 72.007 3.90687 -4.70291 0
M  V30 817 H 76.181 4.02477 -5.68318 0
M  V30 818 H 73.808 4.12276 -6.38696 0
M  V30 819 N 75.3831 0.828654 1.34056 0
M  V30 820 C 76.6291 0.42008 1.98402 0
M  V30 821 C 76.9621 -1.01564 1.65525 0
M  V30 822 O 76.2371 -1.70834 0.929831 0
M  V30 823 C 76.5201 0.62927 3.54559 0
M  V30 824 C 76.3731 2.11152 3.97159 0
M  V30 825 C 77.6921 0.0688756 4.40046 0
M  V30 826 H 74.8111 0.154104 0.720709 0
M  V30 827 H 77.4531 1.04228 1.5886 0
M  V30 828 H 75.6031 0.0996418 3.88372 0
M  V30 829 H 77.2751 2.70522 3.73651 0
M  V30 830 H 75.5181 2.59985 3.47261 0
M  V30 831 H 76.1891 2.20868 5.05887 0
M  V30 832 H 78.6651 0.521458 4.1282 0
M  V30 833 H 77.5411 0.245006 5.48353 0
M  V30 834 H 77.8021 -1.0266 4.30015 0
M  V30 835 N 76.8612 -1.46375 0.584142 0
M  V30 836 C 78.2772 -1.57694 0.245929 0
M  V30 837 C 78.4772 -1.57903 -1.25175 0
M  V30 838 O 77.5332 -1.49676 -2.03355 0
M  V30 839 C 78.8462 -2.87028 0.896402 0
M  V30 840 C 80.3942 -3.00662 0.870127 0
M  V30 841 C 80.8692 -4.32734 1.50017 0
M  V30 842 N 82.3602 -4.39436 1.46458 0
M  V30 843 C 83.0952 -5.40248 1.92144 0
M  V30 844 N 82.5912 -6.47726 2.4581 0
M  V30 845 N 84.3842 -5.31459 1.83052 0
M  V30 846 H 76.5352 -1.44483 1.55687 0
M  V30 847 H 78.7982 -0.689291 0.650831 0
M  V30 848 H 78.5042 -2.9269 1.95002 0
M  V30 849 H 78.3782 -3.75014 0.405486 0
M  V30 850 H 80.7652 -2.94581 -0.174871 0
M  V30 851 H 80.8462 -2.14148 1.39908 0
M  V30 852 H 80.4902 -4.39573 2.54437 0
M  V30 853 H 80.4202 -5.18025 0.946432 0
M  V30 854 H 82.9112 -3.62367 1.07231 0
M  V30 855 H 83.2242 -7.20863 2.78525 0
M  V30 856 H 81.5692 -6.48542 2.49836 0
M  V30 857 H 84.7602 -4.46396 1.40883 0
M  V30 858 H 84.9332 -6.09881 2.18973 0
M  V30 859 N 78.3393 -0.321999 -1.54275 0
M  V30 860 C 79.7553 0.0306999 -1.5957 0
M  V30 861 C 79.9553 1.50614 -1.33857 0
M  V30 862 O 79.0113 2.2619 -1.12223 0
M  V30 863 C 80.3243 -0.386122 -2.98211 0
M  V30 864 C 81.8723 -0.336647 -3.11184 0
M  V30 865 C 82.3473 -0.728607 -4.52167 0
M  V30 866 N 83.8383 -0.681952 -4.58152 0
M  V30 867 C 84.5733 -0.957449 -5.6535 0
M  V30 868 N 84.0693 -1.3 -6.80494 0
M  V30 869 N 85.8623 -0.883113 -5.55119 0
M  V30 870 H 78.0133 -1.28332 -1.69247 0
M  V30 871 H 80.2763 -0.521716 -0.791528 0
M  V30 872 H 79.9823 -1.41404 -3.22022 0
M  V30 873 H 79.8563 0.249662 -3.76373 0
M  V30 874 H 82.2433 0.682058 -2.8711 0
M  V30 875 H 82.3243 -1.00734 -2.3513 0
M  V30 876 H 81.9683 -1.74522 -4.76974 0
M  V30 877 H 81.8983 -0.0356152 -5.26588 0
M  V30 878 H 84.3893 -0.428985 -3.75457 0
M  V30 879 H 84.7023 -1.49563 -7.58189 0
M  V30 880 H 83.0473 -1.33824 -6.81994 0
M  V30 881 H 86.2383 -0.615001 -4.64042 0
M  V30 882 H 86.4113 -1.10118 -6.38575 0
M  V30 883 N 79.8174 1.5752 -0.0501392 0
M  V30 884 C 80.7644 2.1147 0.924603 0
M  V30 885 C 81.7344 1.02182 1.30951 0
M  V30 886 O 82.9194 1.29723 1.39916 0
M  V30 887 C 80.0594 2.66337 2.19451 0
M  V30 888 C 79.1724 3.89708 1.86418 0
M  V30 889 C 78.3074 4.32893 3.07859 0
M  V30 890 C 77.3464 5.48967 2.70742 0
M  V30 891 N 76.4834 5.87211 3.84874 0
M  V30 892 H 81.3234 2.94465 0.457639 0
M  V30 893 H 78.8604 1.45531 0.214266 0
M  V30 894 H 80.8184 2.96247 2.93758 0
M  V30 895 H 79.4484 1.86141 2.63726 0
M  V30 896 H 78.5004 3.66396 1.02264 0
M  V30 897 H 79.8124 4.74074 1.55096 0
M  V30 898 H 78.9664 4.6435 3.90466 0
M  V30 899 H 77.7054 3.47336 3.42358 0
M  V30 900 H 76.7104 5.17183 1.86551 0
M  V30 901 H 77.9354 6.3624 2.37436 0
M  V30 902 H 75.8814 5.04607 4.19175 0
M  V30 903 H 75.7984 6.66266 3.57247 0
M  V30 904 H 77.0664 6.23282 4.68123 0
M  V30 905 N 81.2955 -0.223234 1.56011 0
M  V30 906 C 82.5725 -0.972108 1.69733 0
M  V30 907 C 82.9525 -2.02485 0.59691 0
M  V30 908 O 82.3005 -2.25037 -0.396324 0
M  V30 909 C 82.5105 -1.58407 3.10979 0
M  V30 910 C 83.8585 -2.07696 3.70334 0
M  V30 911 O 84.8825 -1.68304 3.1393 0
M  V30 912 O 83.7415 -2.80096 4.69264 0
M  V30 913 H 80.8355 -0.453993 0.691245 0
M  V30 914 H 83.3815 -0.215149 1.68331 0
M  V30 915 H 82.1535 -0.823831 3.82529 0
M  V30 916 H 81.7765 -2.40661 3.16493 0
M  V30 917 N 82.7736 -1.49793 -0.48987 0
M  V30 918 C 83.9986 -1.63836 -1.27172 0
M  V30 919 C 84.4236 -0.31402 -1.8546 0
M  V30 920 O 83.7816 0.719803 -1.66399 0
M  V30 921 C 83.8296 -2.71797 -2.36978 0
M  V30 922 O 82.9336 -2.31744 -3.41128 0
M  V30 923 H 82.2746 -0.547997 -0.37496 0
M  V30 924 H 84.8046 -1.96053 -0.585191 0
M  V30 925 H 84.8146 -2.94305 -2.82575 0
M  V30 926 H 83.4896 -3.67923 -1.93921 0
M  V30 927 H 82.0666 -2.1961 -3.01373 0
M  V30 928 N 84.2517 0.741722 -1.39055 0
M  V30 929 C 85.4997 1.49818 -1.35643 0
M  V30 930 C 85.8207 1.94938 0.0491642 0
M  V30 931 O 85.0907 1.68505 0.999141 0
M  V30 932 H 83.6707 0.555755 -0.499144 0
M  V30 933 H 86.3327 0.880957 -1.73854 0
M  V30 934 H 85.4287 2.38348 -2.01486 0
M  V30 935 N 85.7298 1.2412 0.971189 0
M  V30 936 C 87.1408 1.07236 1.52831 0
M  V30 937 C 87.4918 -0.357352 1.92918 0
M  V30 938 O 86.6168 -1.24528 1.76979 0
M  V30 939 C 87.2118 1.94043 2.77728 0
M  V30 940 C 85.7708 1.81394 3.29808 0
M  V30 941 C 84.9178 1.89189 2.02738 0
M  V30 942 H 87.8688 1.37648 0.789864 0
M  V30 943 H 87.8898 1.47066 3.5093 0
M  V30 944 H 87.4018 2.98093 2.4852 0
M  V30 945 H 85.5028 0.801634 3.63874 0
M  V30 946 H 85.6158 2.65294 3.98944 0
M  V30 947 H 83.9798 1.32877 2.17292 0
M  V30 948 H 84.7628 2.94812 1.759 0
M  V30 949 N 87.2079 -1.17134 1.05439 0
M  V30 950 C 88.4539 -1.87733 0.767077 0
M  V30 951 C 88.7869 -1.8098 -0.704253 0
M  V30 952 O 88.0619 -1.21951 -1.5152 0
M  V30 953 C 88.3449 -3.37659 1.25133 0
M  V30 954 C 88.1979 -3.53149 2.78578 0
M  V30 955 C 89.5169 -4.31768 0.852324 0
M  V30 956 H 86.6359 -0.681687 0.280129 0
M  V30 957 H 89.2779 -1.37732 1.30881 0
M  V30 958 H 87.4279 -3.80373 0.790469 0
M  V30 959 H 89.0999 -3.19434 3.32806 0
M  V30 960 H 87.3429 -2.95345 3.17732 0
M  V30 961 H 88.0139 -4.58403 3.07523 0
M  V30 962 H 90.4899 -3.96909 1.24911 0
M  V30 963 H 89.3659 -5.35199 1.21873 0
M  V30 964 H 89.6269 -4.41429 -0.243485 0
M  V30 965 N 88.686 -0.835752 -1.33615 0
M  V30 966 C 89.932 -0.430596 -1.98176 0
M  V30 967 C 90.265 1.00684 -1.66061 0
M  V30 968 O 89.54 1.70339 -0.938877 0
M  V30 969 C 89.823 -0.648065 -3.5422 0
M  V30 970 C 89.676 -2.13255 -3.96033 0
M  V30 971 C 90.995 -0.0922113 -4.40003 0
M  V30 972 H 88.114 -0.157924 -0.719881 0
M  V30 973 H 90.756 -1.05069 -1.58305 0
M  V30 974 H 88.906 -0.120237 -3.88314 0
M  V30 975 H 90.578 -2.725 -3.72211 0
M  V30 976 H 88.821 -2.61823 -3.45878 0
M  V30 977 H 89.492 -2.23547 -5.04708 0
M  V30 978 H 91.968 -0.543343 -4.12537 0
M  V30 979 H 90.844 -0.274083 -5.48215 0
M  V30 980 H 91.105 1.00378 -4.30554 0
M  V30 981 N 90.1641 1.46063 -0.591896 0
M  V30 982 C 91.1111 2.30399 0.136069 0
M  V30 983 C 92.0811 1.41169 0.875238 0
M  V30 984 O 93.2661 1.70112 0.86409 0
M  V30 985 C 90.4061 3.25804 1.13781 0
M  V30 986 C 89.5191 4.30134 0.401137 0
M  V30 987 C 88.6541 5.12659 1.39121 0
M  V30 988 C 87.6931 6.0873 0.641462 0
M  V30 989 N 86.8301 6.8409 1.58004 0
M  V30 990 H 91.6701 2.92118 -0.589144 0
M  V30 991 H 89.2071 1.43959 -0.302342 0
M  V30 992 H 91.1651 3.79569 1.73156 0
M  V30 993 H 89.7951 2.65872 1.83062 0
M  V30 994 H 88.8471 3.79152 -0.307826 0
M  V30 995 H 90.1591 4.98458 -0.184565 0
M  V30 996 H 89.3131 5.70747 2.05749 0
M  V30 997 H 88.0521 4.44316 2.01084 0
M  V30 998 H 87.0571 5.49786 -0.0385419 0
M  V30 999 H 88.2821 6.79095 0.0270945 0
M  V30 1000 H 86.2281 6.18449 2.18761 0
M  V30 1001 H 86.1451 7.48709 1.04738 0
M  V30 1002 H 87.4131 7.4673 2.23639 0
M  V30 1003 N 91.6422 0.330177 1.54103 0
M  V30 1004 C 92.5892 -0.532762 2.24567 0
M  V30 1005 C 93.5592 -1.10635 1.23892 0
M  V30 1006 O 94.7442 -1.14546 1.5259 0
M  V30 1007 C 91.8842 -1.6845 3.01195 0
M  V30 1008 C 90.9972 -1.13951 4.167 0
M  V30 1009 C 90.1322 -2.25746 4.80845 0
M  V30 1010 C 89.1712 -1.6853 5.88442 0
M  V30 1011 N 88.3082 -2.74014 6.46421 0
M  V30 1012 H 93.1482 0.0746905 2.97906 0
M  V30 1013 H 90.6852 0.048632 1.4702 0
M  V30 1014 H 92.6432 -2.36234 3.43874 0
M  V30 1015 H 91.2732 -2.26314 2.30178 0
M  V30 1016 H 90.3252 -0.35301 3.78758 0
M  V30 1017 H 91.6372 -0.680892 4.94131 0
M  V30 1018 H 90.7912 -3.01422 5.26526 0
M  V30 1019 H 89.5302 -2.74947 4.0281 0
M  V30 1020 H 88.5352 -0.913543 5.42157 0
M  V30 1021 H 89.7602 -1.20198 6.68378 0
M  V30 1022 H 87.7062 -3.22494 5.71256 0
M  V30 1023 H 87.6232 -2.32735 7.19285 0
M  V30 1024 H 88.8912 -3.49499 6.96757 0
M  V30 1025 N 93.1203 -1.57491 0.0584922 0
M  V30 1026 C 94.3693 -1.92155 -0.613146 0
M  V30 1027 C 94.6823 -0.939334 -1.71569 0
M  V30 1028 O 95.8883 -1.17829 -2.44599 0
M  V30 1029 C 94.3443 -3.41303 -1.14195 0
M  V30 1030 C 93.9523 -4.47944 -0.0711265 0
M  V30 1031 C 95.6963 -3.84988 -1.78841 0
M  V30 1032 C 93.6033 -5.88212 -0.613225 0
M  V30 1033 H 92.5333 -0.717162 -0.232796 0
M  V30 1034 H 95.1843 -1.83049 0.12857 0
M  V30 1035 H 93.5663 -3.45437 -1.93621 0
M  V30 1036 H 94.7403 -4.55408 0.702836 0
M  V30 1037 H 93.0553 -4.13644 0.478313 0
M  V30 1038 H 95.6523 -4.87159 -2.20408 0
M  V30 1039 H 95.9953 -3.21632 -2.64308 0
M  V30 1040 H 96.5283 -3.83401 -1.06059 0
M  V30 1041 H 93.2673 -6.55183 0.203978 0
M  V30 1042 H 92.7873 -5.84294 -1.35501 0
M  V30 1043 H 94.4663 -6.37687 -1.09383 0
M  V30 1044 N 94.5984 0.214957 -1.56127 0
M  V30 1045 C 96.0144 0.564948 -1.49267 0
M  V30 1046 C 96.2144 1.86827 -0.754838 0
M  V30 1047 O 95.2704 2.50745 -0.297198 0
M  V30 1048 C 96.5834 0.638071 -2.93852 0
M  V30 1049 C 98.1314 0.728253 -3.0441 0
M  V30 1050 C 98.6064 0.832663 -4.50367 0
M  V30 1051 N 100.097 0.896712 -4.54437 0
M  V30 1052 C 100.832 0.997324 -5.6466 0
M  V30 1053 N 100.328 1.06147 -6.8462 0
M  V30 1054 N 102.121 1.03297 -5.52527 0
M  V30 1055 H 94.2724 -0.640211 -2.02522 0
M  V30 1056 H 96.5354 -0.225507 -0.920788 0
M  V30 1057 H 96.2414 -0.250126 -3.50809 0
M  V30 1058 H 96.1154 1.49947 -3.46115 0
M  V30 1059 H 98.5024 1.60689 -2.47514 0
M  V30 1060 H 98.5834 -0.158952 -2.55306 0
M  V30 1061 H 98.2274 -0.0415417 -5.07883 0
M  V30 1062 H 98.1574 1.73538 -4.97184 0
M  V30 1063 H 100.648 0.857188 -3.6805 0
M  V30 1064 H 100.961 1.1382 -7.64372 0
M  V30 1065 H 99.3064 1.03049 -6.87318 0
M  V30 1066 H 102.497 0.979558 -4.57736 0
M  V30 1067 H 102.67 1.10793 -6.38458 0
M  V30 1068 N 96.0765 1.50051 0.48192 0
M  V30 1069 C 96.9865 1.7089 1.60728 0
M  V30 1070 C 98.0025 0.591788 1.63627 0
M  V30 1071 O 99.1785 0.868817 1.81696 0
M  V30 1072 C 96.2435 1.78855 2.97005 0
M  V30 1073 C 95.3045 3.02537 3.04581 0
M  V30 1074 C 94.5375 3.10112 4.34357 0
M  V30 1075 O 94.7605 2.24765 5.24249 0
M  V30 1076 O 93.6945 4.02747 4.47301 0
M  V30 1077 H 97.5205 2.66264 1.46072 0
M  V30 1078 H 95.1055 1.34018 0.660264 0
M  V30 1079 H 96.9875 1.86336 3.77964 0
M  V30 1080 H 95.6625 0.866628 3.11883 0
M  V30 1081 H 94.5695 3.00563 2.22739 0
M  V30 1082 H 95.9025 3.94272 2.94636 0
M  V30 1083 N 97.5546 -0.734337 1.39446 0
M  V30 1084 C 98.4876 -1.85715 1.32609 0
M  V30 1085 C 99.4656 -1.6137 0.199636 0
M  V30 1086 O 100.65 -1.84626 0.380195 0
M  V30 1087 C 97.7766 -3.21709 1.05929 0
M  V30 1088 C 96.8226 -3.64913 2.20773 0
M  V30 1089 S 97.6556 -3.74203 3.83056 0
M  V30 1090 C 98.8116 -5.12986 3.58603 0
M  V30 1091 H 99.0446 -1.91232 2.27635 0
M  V30 1092 H 96.5776 -0.899263 1.25509 0
M  V30 1093 H 98.5356 -4.00236 0.912203 0
M  V30 1094 H 97.1966 -3.13848 0.125883 0
M  V30 1095 H 96.3896 -4.63606 1.97699 0
M  V30 1096 H 95.9916 -2.93593 2.31688 0
M  V30 1097 H 98.2836 -5.99339 3.15909 0
M  V30 1098 H 99.2266 -5.41088 4.5676 0
M  V30 1099 H 99.6346 -4.82694 2.9269 0
M  V30 1100 N 99.0327 -1.24633 -0.964593 0
M  V30 1101 C 99.9647 -0.999302 -2.06268 0
M  V30 1102 C 100.978 0.0323226 -1.62768 0
M  V30 1103 O 102.167 -0.205079 -1.77318 0
M  V30 1104 C 99.2667 -0.486816 -3.35385 0
M  V30 1105 C 98.4397 -1.5823 -4.07777 0
M  V30 1106 C 97.4987 -1.07191 -5.15166 0
M  V30 1107 O 96.5247 -1.76426 -5.41168 0
M  V30 1108 N 97.7267 0.0920373 -5.80427 0
M  V30 1109 H 100.492 -1.94477 -2.28033 0
M  V30 1110 H 98.0527 -1.15704 -1.13244 0
M  V30 1111 H 100.045 -0.130066 -4.04491 0
M  V30 1112 H 98.6147 0.364459 -3.10468 0
M  V30 1113 H 97.8347 -2.11109 -3.32906 0
M  V30 1114 H 99.1227 -2.31854 -4.52903 0
M  V30 1115 H 98.5207 0.670784 -5.61709 0
M  V30 1116 H 97.0777 0.389905 -6.50633 0
M  V30 1117 N 100.511 1.16574 -1.06058 0
M  V30 1118 C 101.458 2.20883 -0.669263 0
M  V30 1119 C 102.428 1.62729 0.332918 0
M  V30 1120 O 103.613 1.895 0.222346 0
M  V30 1121 C 100.753 3.45049 -0.0593572 0
M  V30 1122 C 99.8658 4.17458 -1.11143 0
M  V30 1123 C 99.0008 5.29135 -0.467916 0
M  V30 1124 C 98.0398 5.93343 -1.50369 0
M  V30 1125 N 97.1768 6.96516 -0.883706 0
M  V30 1126 H 102.017 2.53709 -1.5632 0
M  V30 1127 H 99.5538 1.24616 -0.781625 0
M  V30 1128 H 101.512 4.16033 0.311771 0
M  V30 1129 H 100.142 3.12781 0.797992 0
M  V30 1130 H 99.1938 3.45101 -1.60029 0
M  V30 1131 H 100.506 4.61307 -1.89731 0
M  V30 1132 H 99.6598 6.06684 -0.0436871 0
M  V30 1133 H 98.3988 4.86443 0.349864 0
M  V30 1134 H 97.4038 5.14517 -1.93784 0
M  V30 1135 H 98.6288 6.38114 -2.32352 0
M  V30 1136 H 96.5748 6.55943 -0.086595 0
M  V30 1137 H 96.4918 7.38723 -1.607 0
M  V30 1138 H 97.7598 7.77993 -0.484543 0
M  V30 1139 N 101.989 0.842826 1.3317 0
M  V30 1140 C 103.236 0.440447 1.97652 0
M  V30 1141 C 103.564 -1.00123 1.6675 0
M  V30 1142 O 102.819 -1.7155 0.941761 0
M  V30 1143 C 103.118 0.612607 3.52111 0
M  V30 1144 C 102.784 2.02297 4.02972 0
M  V30 1145 C 101.446 2.40874 4.16573 0
M  V30 1146 C 103.798 2.94402 4.30089 0
M  V30 1147 C 101.126 3.70852 4.54627 0
M  V30 1148 C 103.478 4.23865 4.69597 0
M  V30 1149 C 102.142 4.62392 4.81404 0
M  V30 1150 H 101.412 0.161171 0.72326 0
M  V30 1151 H 104.059 1.07061 1.58777 0
M  V30 1152 H 102.364 -0.100849 3.9167 0
M  V30 1153 H 104.061 0.2815 4.00011 0
M  V30 1154 H 100.651 1.71338 3.92863 0
M  V30 1155 H 104.835 2.65835 4.19101 0
M  V30 1156 H 100.091 4.00501 4.61962 0
M  V30 1157 H 104.265 4.95306 4.89536 0
M  V30 1158 H 101.892 5.63154 5.10648 0
M  V30 1159 N 103.467 -1.45747 0.599634 0
M  V30 1160 C 104.397 -2.33235 -0.111306 0
M  V30 1161 C 105.378 -1.46359 -0.866781 0
M  V30 1162 O 106.563 -1.75146 -0.838904 0
M  V30 1163 C 103.693 -3.28932 -1.11451 0
M  V30 1164 C 102.647 -4.25381 -0.472772 0
M  V30 1165 C 101.973 -5.1071 -1.58365 0
M  V30 1166 C 103.273 -5.18831 0.600948 0
M  V30 1167 H 104.967 -2.92927 0.61919 0
M  V30 1168 H 102.513 -1.40857 0.299215 0
M  V30 1169 H 104.466 -3.89002 -1.62036 0
M  V30 1170 H 103.19 -2.67381 -1.8755 0
M  V30 1171 H 101.849 -3.66598 0.0121472 0
M  V30 1172 H 101.497 -4.45533 -2.33473 0
M  V30 1173 H 101.197 -5.7604 -1.15982 0
M  V30 1174 H 102.721 -5.73647 -2.09194 0
M  V30 1175 H 104.135 -5.73019 0.179491 0
M  V30 1176 H 102.532 -5.92595 0.946076 0
M  V30 1177 H 103.602 -4.6174 1.48068 0
M  V30 1178 N 104.945 -0.338344 -1.53925 0
M  V30 1179 C 106.193 0.259245 -2.0043 0
M  V30 1180 C 106.514 1.51484 -1.22791 0
M  V30 1181 O 105.784 1.93037 -0.33368 0
M  V30 1182 H 104.364 0.0987845 -0.740439 0
M  V30 1183 H 107.026 -0.458302 -1.89435 0
M  V30 1184 H 106.122 0.505334 -3.07982 0
M  V30 1185 N 106.423 1.57458 -0.0668435 0
M  V30 1186 C 107.353 2.15468 0.899764 0
M  V30 1187 C 108.334 1.08042 1.31381 0
M  V30 1188 O 109.519 1.36054 1.38574 0
M  V30 1189 C 106.649 2.71232 2.16911 0
M  V30 1190 C 105.603 3.83781 1.89463 0
M  V30 1191 C 104.929 4.26127 3.22986 0
M  V30 1192 C 106.229 5.08238 1.20381 0
M  V30 1193 H 107.923 2.96488 0.416529 0
M  V30 1194 H 105.469 1.4262 0.198908 0
M  V30 1195 H 107.422 3.10458 2.84945 0
M  V30 1196 H 106.146 1.87426 2.67468 0
M  V30 1197 H 104.805 3.45051 1.23836 0
M  V30 1198 H 104.453 3.39249 3.71374 0
M  V30 1199 H 104.153 5.01993 3.05413 0
M  V30 1200 H 105.677 4.67966 3.92225 0
M  V30 1201 H 107.091 5.44811 1.78475 0
M  V30 1202 H 105.488 5.89349 1.13083 0
M  V30 1203 H 106.558 4.84558 0.182153 0
M  V30 1204 N 107.901 -0.206675 1.56239 0
M  V30 1205 C 108.811 -1.27686 1.96808 0
M  V30 1206 C 109.827 -1.50455 0.874035 0
M  V30 1207 O 111.003 -1.63295 1.17884 0
M  V30 1208 C 108.068 -2.60358 2.28942 0
M  V30 1209 C 107.129 -2.45762 3.51994 0
M  V30 1210 C 106.362 -3.72108 3.82585 0
M  V30 1211 O 106.585 -4.75776 3.14631 0
M  V30 1212 O 105.519 -3.6833 4.76043 0
M  V30 1213 H 109.345 -0.962593 2.88041 0
M  V30 1214 H 106.93 -0.410746 1.43643 0
M  V30 1215 H 108.812 -3.38687 2.50737 0
M  V30 1216 H 107.487 -2.91435 1.4088 0
M  V30 1217 H 106.394 -1.65584 3.35459 0
M  V30 1218 H 107.727 -2.19621 4.40486 0
M  V30 1219 N 109.379 -1.50304 -0.473955 0
M  V30 1220 C 110.625 -1.61389 -1.22806 0
M  V30 1221 C 110.958 -0.311955 -1.91678 0
M  V30 1222 O 110.233 0.686384 -1.81986 0
M  V30 1223 C 110.516 -2.79219 -2.27396 0
M  V30 1224 C 110.369 -4.19286 -1.62848 0
M  V30 1225 C 111.688 -2.92614 -3.28732 0
M  V30 1226 H 108.807 -0.587399 -0.445119 0
M  V30 1227 H 111.449 -1.82681 -0.522265 0
M  V30 1228 H 109.599 -2.61195 -2.87592 0
M  V30 1229 H 111.271 -4.48892 -1.06271 0
M  V30 1230 H 109.514 -4.23677 -0.931693 0
M  V30 1231 H 110.185 -4.97655 -2.38838 0
M  V30 1232 H 112.661 -3.09105 -2.78556 0
M  V30 1233 H 111.537 -3.76688 -3.99246 0
M  V30 1234 H 111.798 -2.03107 -3.92683 0
M  V30 1235 N 110.857 0.726932 -1.39834 0
M  V30 1236 C 112.085 1.51613 -1.40787 0
M  V30 1237 C 112.5 1.88799 -0.00451505 0
M  V30 1238 O 111.857 1.54662 0.968809 0
M  V30 1239 C 111.908 2.79863 -2.28821 0
M  V30 1240 O 111.629 2.44253 -3.63692 0
M  V30 1241 C 113.13 3.73837 -2.38245 0
M  V30 1242 H 110.35 0.468264 -0.480593 0
M  V30 1243 H 112.894 0.897607 -1.83748 0
M  V30 1244 H 111.049 3.38027 -1.89252 0
M  V30 1245 H 111.463 3.26695 -4.1033 0
M  V30 1246 H 112.937 4.60699 -3.04073 0
M  V30 1247 H 113.414 4.16153 -1.40403 0
M  V30 1248 H 114.02 3.21589 -2.78317 0
M  V30 1249 N 112.336 1.25143 0.95797 0
M  V30 1250 C 113.584 1.09476 1.69881 0
M  V30 1251 C 113.905 -0.365502 1.91544 0
M  V30 1252 O 113.175 -1.25985 1.50015 0
M  V30 1253 H 111.755 0.402128 0.629525 0
M  V30 1254 H 114.417 1.57214 1.15194 0
M  V30 1255 H 113.513 1.60046 2.6794 0
M  V30 1256 N 113.814 -1.1601 1.06675 0
M  V30 1257 C 114.761 -2.20525 0.680967 0
M  V30 1258 C 115.731 -1.62904 -0.324283 0
M  V30 1259 O 116.916 -1.89615 -0.212294 0
M  V30 1260 C 114.056 -3.45013 0.0776551 0
M  V30 1261 C 113.169 -4.16863 1.13355 0
M  V30 1262 C 112.304 -5.2888 0.49597 0
M  V30 1263 C 111.343 -5.92537 1.53513 0
M  V30 1264 N 110.48 -6.96038 0.920631 0
M  V30 1265 H 115.32 -2.52876 1.57663 0
M  V30 1266 H 112.857 -1.24199 0.788223 0
M  V30 1267 H 114.815 -4.16193 -0.289704 0
M  V30 1268 H 113.445 -3.132 -0.781393 0
M  V30 1269 H 112.497 -3.44248 1.61857 0
M  V30 1270 H 113.809 -4.60294 1.92174 0
M  V30 1271 H 112.963 -6.06653 0.0758604 0
M  V30 1272 H 111.702 -4.86622 -0.324062 0
M  V30 1273 H 110.707 -5.13482 1.9651 0
M  V30 1274 H 111.932 -6.36873 2.35733 0
M  V30 1275 H 109.878 -6.55888 0.12138 0
M  V30 1276 H 109.795 -7.3786 1.64616 0
M  V30 1277 H 111.063 -7.77725 0.525795 0
M  V30 1278 N 115.292 -0.849877 -1.32721 0
M  V30 1279 C 116.222 -0.306308 -2.31482 0
M  V30 1280 C 117.203 0.591952 -1.59468 0
M  V30 1281 O 118.388 0.513199 -1.87296 0
M  V30 1282 C 115.518 0.510204 -3.43532 0
M  V30 1283 C 114.472 -0.293209 -4.26994 0
M  V30 1284 C 113.798 0.647743 -5.30762 0
M  V30 1285 C 115.098 -1.51634 -4.99804 0
M  V30 1286 H 116.792 -1.13153 -2.77195 0
M  V30 1287 H 114.338 -0.545553 -1.33266 0
M  V30 1288 H 116.291 0.900856 -4.11658 0
M  V30 1289 H 115.015 1.36874 -2.96535 0
M  V30 1290 H 113.674 -0.665555 -3.60508 0
M  V30 1291 H 113.322 1.50299 -4.8002 0
M  V30 1292 H 113.022 0.11422 -5.87489 0
M  V30 1293 H 114.546 1.03567 -6.01753 0
M  V30 1294 H 115.96 -1.19824 -5.60638 0
M  V30 1295 H 114.357 -1.98745 -5.66234 0
M  V30 1296 H 115.427 -2.28018 -4.27943 0
M  V30 1297 N 116.77 1.45427 -0.607355 0
M  V30 1298 C 118.047 1.9557 -0.0344566 0
M  V30 1299 C 118.427 1.54979 1.43334 0
M  V30 1300 O 117.775 0.812241 2.13576 0
M  V30 1301 C 117.985 3.48226 -0.232321 0
M  V30 1302 C 119.333 4.2445 -0.113001 0
M  V30 1303 O 120.357 3.55829 -0.162431 0
M  V30 1304 O 119.216 5.465 0.00209442 0
M  V30 1305 H 116.31 0.826222 0.0358667 0
M  V30 1306 H 118.856 1.55594 -0.6774 0
M  V30 1307 H 117.628 3.70739 -1.25174 0
M  V30 1308 H 117.251 3.95092 0.445896 0
M  V30 1309 N 118.248 0.346503 1.53744 0
M  V30 1310 C 119.473 -0.253074 2.0585 0
M  V30 1311 C 119.898 -1.43202 1.21962 0
M  V30 1312 O 119.256 -1.79783 0.234073 0
M  V30 1313 C 119.304 -0.643193 3.54817 0
M  V30 1314 O 118.408 -1.74286 3.73762 0
M  V30 1315 H 117.749 -0.0413583 0.662711 0
M  V30 1316 H 120.279 0.501574 1.98357 0
M  V30 1317 H 120.289 -0.919526 3.97503 0
M  V30 1318 H 118.964 0.218966 4.15323 0
M  V30 1319 H 117.541 -1.46356 3.42979 0
M  V30 1320 N 119.726 -1.57421 0.075193 0
M  V30 1321 C 121.003 -1.85029 -0.634329 0
M  V30 1322 C 121.383 -0.968305 -1.87582 0
M  V30 1323 O 120.731 -0.0354749 -2.28472 0
M  V30 1324 C 120.941 -3.35286 -0.968742 0
M  V30 1325 C 122.289 -4.02875 -1.34077 0
M  V30 1326 O 123.313 -3.40051 -1.06037 0
M  V30 1327 O 122.172 -5.13691 -1.86506 0
M  V30 1328 H 119.266 -0.7645 -0.315387 0
M  V30 1329 H 121.812 -1.69366 0.106382 0
M  V30 1330 H 120.584 -3.91203 -0.0871376 0
M  V30 1331 H 120.207 -3.56223 -1.7661 0
M  V30 1332 N 121.204 0.198386 -1.56346 0
M  V30 1333 C 122.432 0.935572 -1.84539 0
M  V30 1334 C 122.847 1.76989 -0.657281 0
M  V30 1335 O 122.204 1.78626 0.374043 0
M  V30 1336 C 122.255 1.8344 -3.11499 0
M  V30 1337 O 121.976 1.03377 -4.25728 0
M  V30 1338 C 123.477 2.68355 -3.52846 0
M  V30 1339 H 120.697 0.273126 -0.612897 0
M  V30 1340 H 123.241 0.20663 -2.03453 0
M  V30 1341 H 121.396 2.51701 -2.94492 0
M  V30 1342 H 121.81 1.64599 -4.98003 0
M  V30 1343 H 123.284 3.27085 -4.44657 0
M  V30 1344 H 123.761 3.41901 -2.75681 0
M  V30 1345 H 124.367 2.05471 -3.72373 0
M  V30 1346 N 122.682 1.50554 0.465978 0
M  V30 1347 C 123.612 1.72722 1.57128 0
M  V30 1348 C 124.593 0.576294 1.6004 0
M  V30 1349 O 125.778 0.81598 1.76225 0
M  V30 1350 C 122.908 1.82605 2.95419 0
M  V30 1351 C 121.862 2.97835 3.07373 0
M  V30 1352 C 121.188 2.92867 4.47363 0
M  V30 1353 C 122.488 4.38265 2.84114 0
M  V30 1354 H 124.182 2.65267 1.38829 0
M  V30 1355 H 121.728 1.2765 0.666441 0
M  V30 1356 H 123.681 1.96698 3.72677 0
M  V30 1357 H 122.405 0.866858 3.14886 0
M  V30 1358 H 121.064 2.83401 2.3255 0
M  V30 1359 H 120.712 1.94783 4.63755 0
M  V30 1360 H 120.412 3.70227 4.56296 0
M  V30 1361 H 121.936 3.09015 5.26633 0
M  V30 1362 H 123.35 4.53198 3.51118 0
M  V30 1363 H 121.747 5.17115 3.04487 0
M  V30 1364 H 122.817 4.50281 1.7993 0
M  V30 1365 N 124.16 -0.719506 1.40217 0
M  V30 1366 C 125.07 -1.86378 1.42479 0
M  V30 1367 C 126.086 -1.71073 0.317834 0
M  V30 1368 O 127.262 -1.93406 0.561794 0
M  V30 1369 C 124.327 -3.22136 1.28178 0
M  V30 1370 C 123.388 -3.49723 2.48982 0
M  V30 1371 C 122.621 -4.79004 2.35353 0
M  V30 1372 O 122.844 -5.53821 1.36524 0
M  V30 1373 O 121.778 -5.06839 3.2465 0
M  V30 1374 H 125.604 -1.87425 2.38968 0
M  V30 1375 H 123.189 -0.869405 1.21498 0
M  V30 1376 H 125.071 -4.03234 1.22395 0
M  V30 1377 H 123.746 -3.21825 0.347934 0
M  V30 1378 H 122.653 -2.6865 2.60342 0
M  V30 1379 H 123.986 -3.54828 3.41113 0
M  V30 1380 N 125.638 -1.25649 -0.95132 0
M  V30 1381 C 126.884 -1.10757 -1.69884 0
M  V30 1382 C 127.217 0.350061 -1.91019 0
M  V30 1383 O 126.492 1.25783 -1.48354 0
M  V30 1384 C 126.775 -1.86606 -3.07978 0
M  V30 1385 C 126.628 -3.40217 -2.94232 0
M  V30 1386 C 127.947 -1.65182 -4.07925 0
M  V30 1387 H 125.066 -0.40374 -0.616574 0
M  V30 1388 H 127.708 -1.54521 -1.10558 0
M  V30 1389 H 125.858 -1.49409 -3.58621 0
M  V30 1390 H 127.53 -3.87108 -2.50889 0
M  V30 1391 H 125.773 -3.67759 -2.30078 0
M  V30 1392 H 126.444 -3.88505 -3.92133 0
M  V30 1393 H 128.92 -1.9757 -3.66204 0
M  V30 1394 H 127.796 -2.20683 -5.02583 0
M  V30 1395 H 128.057 -0.593933 -4.38092 0
M  V30 1396 N 127.117 1.15442 -1.07289 0
M  V30 1397 C 128.05 2.19135 -0.636798 0
M  V30 1398 C 129.028 1.58884 0.34562 0
M  V30 1399 O 130.212 1.86805 0.252195 0
M  V30 1400 C 127.339 3.38638 0.0650014 0
M  V30 1401 C 126.385 4.17412 -0.87576 0
M  V30 1402 S 127.218 4.79882 -2.37642 0
M  V30 1403 C 128.374 6.02753 -1.6864 0
M  V30 1404 H 128.607 2.55787 -1.51526 0
M  V30 1405 H 126.14 1.26394 -0.886793 0
M  V30 1406 H 128.098 4.07873 0.463664 0
M  V30 1407 H 126.759 3.00331 0.919801 0
M  V30 1408 H 125.952 5.02909 -0.33143 0
M  V30 1409 H 125.554 3.53722 -1.21478 0
M  V30 1410 H 127.846 6.70113 -0.997753 0
M  V30 1411 H 128.789 6.61754 -2.51967 0
M  V30 1412 H 129.197 5.52355 -1.16465 0
M  V30 1413 N 128.595 0.856903 1.32268 0
M  V30 1414 C 130.011 0.547061 1.49931 0
M  V30 1415 C 130.211 -0.921781 1.7918 0
M  V30 1416 O 129.267 -1.70469 1.8627 0
M  V30 1417 C 130.58 1.43599 2.64196 0
M  V30 1418 C 132.128 1.43665 2.78081 0
M  V30 1419 C 132.603 2.31085 3.95428 0
M  V30 1420 N 134.094 2.28893 4.02694 0
M  V30 1421 C 134.829 2.93262 4.92732 0
M  V30 1422 N 134.325 3.66751 5.87763 0
M  V30 1423 N 136.118 2.82638 4.85873 0
M  V30 1424 H 128.269 1.8075 1.11549 0
M  V30 1425 H 130.532 0.772144 0.549997 0
M  V30 1426 H 130.238 2.48058 2.49319 0
M  V30 1427 H 130.112 1.12502 3.60032 0
M  V30 1428 H 132.499 0.399701 2.92381 0
M  V30 1429 H 132.58 1.7878 1.82952 0
M  V30 1430 H 132.224 3.34849 3.81888 0
M  V30 1431 H 132.154 1.93302 4.89839 0
M  V30 1432 H 134.645 1.75466 3.34694 0
M  V30 1433 H 134.958 4.13027 6.53168 0
M  V30 1434 H 133.303 3.70859 5.87783 0
M  V30 1435 H 136.494 2.24774 4.10602 0
M  V30 1436 H 136.667 3.33084 5.55841 0
M  V30 1437 N 130.073 -1.45103 0.615059 0
M  V30 1438 C 131.02 -2.30586 -0.0993978 0
M  V30 1439 C 131.99 -1.42544 -0.852669 0
M  V30 1440 O 133.175 -1.71465 -0.836917 0
M  V30 1441 C 130.315 -3.27572 -1.08583 0
M  V30 1442 C 129.428 -4.30717 -0.332656 0
M  V30 1443 C 128.563 -5.14807 -1.30947 0
M  V30 1444 C 127.602 -6.09673 -0.544538 0
M  V30 1445 N 126.739 -6.86517 -1.47101 0
M  V30 1446 H 131.579 -2.91144 0.635542 0
M  V30 1447 H 129.116 -1.4346 0.325206 0
M  V30 1448 H 131.074 -3.82276 -1.67095 0
M  V30 1449 H 129.704 -2.68751 -1.78809 0
M  V30 1450 H 128.756 -3.78615 0.368107 0
M  V30 1451 H 130.068 -4.98102 0.263842 0
M  V30 1452 H 129.222 -5.73948 -1.96643 0
M  V30 1453 H 127.961 -4.47458 -1.9399 0
M  V30 1454 H 126.966 -5.49656 0.126003 0
M  V30 1455 H 128.191 -6.79052 0.080947 0
M  V30 1456 H 126.137 -6.21851 -2.08895 0
M  V30 1457 H 126.054 -7.50281 -0.928137 0
M  V30 1458 H 127.322 -7.50194 -2.11731 0
M  V30 1459 N 131.551 -0.354651 -1.53558 0
M  V30 1460 C 132.962 0.126902 -1.86268 0
M  V30 1461 C 133.313 1.49075 -1.27558 0
M  V30 1462 O 132.438 2.08105 -0.5934 0
M  V30 1463 C 133.033 0.237046 -3.3797 0
M  V30 1464 C 131.592 0.662842 -3.70518 0
M  V30 1465 C 130.739 -0.196652 -2.76602 0
M  V30 1466 H 133.69 -0.573849 -1.47962 0
M  V30 1467 H 133.711 1.06259 -3.65362 0
M  V30 1468 H 133.223 -0.755725 -3.80671 0
M  V30 1469 H 131.324 1.66424 -3.33367 0
M  V30 1470 H 131.437 0.445034 -4.77029 0
M  V30 1471 H 129.801 0.332763 -2.52517 0
M  V30 1472 H 130.584 -1.18676 -3.22135 0
M  V30 1473 N 133.029 1.57378 -0.0835403 0
M  V30 1474 C 134.445 1.57246 0.273109 0
M  V30 1475 C 134.645 1.09385 1.69225 0
M  V30 1476 O 133.701 0.765051 2.40631 0
M  V30 1477 C 135.014 3.00614 0.0720628 0
M  V30 1478 C 136.562 3.12684 0.1407 0
M  V30 1479 C 137.037 4.57989 -0.0322094 0
M  V30 1480 N 138.528 4.63194 0.0230085 0
M  V30 1481 C 139.263 5.73335 -0.0861941 0
M  V30 1482 N 138.759 6.9235 -0.24958 0
M  V30 1483 N 140.552 5.62093 -0.0282886 0
M  V30 1484 H 132.703 1.86801 -1.0109 0
M  V30 1485 H 134.966 0.861687 -0.395222 0
M  V30 1486 H 134.672 3.39786 -0.907662 0
M  V30 1487 H 134.546 3.68193 0.81936 0
M  V30 1488 H 136.933 2.73391 1.11092 0
M  V30 1489 H 137.014 2.47719 -0.637896 0
M  V30 1490 H 136.658 4.97973 -0.999247 0
M  V30 1491 H 136.588 5.21 0.765937 0
M  V30 1492 H 139.079 3.77613 0.14722 0
M  V30 1493 H 139.392 7.72117 -0.324733 0
M  V30 1494 H 137.737 6.94415 -0.285097 0
M  V30 1495 H 140.928 4.67997 0.0981408 0
M  V30 1496 H 141.101 6.47895 -0.116845 0
M  V30 1497 N 134.507 -0.190092 1.56449 0
M  V30 1498 C 135.747 -0.916414 1.82705 0
M  V30 1499 C 136.111 -1.80235 0.661763 0
M  V30 1500 O 137.312 -2.56484 0.80433 0
M  V30 1501 C 135.583 -1.70691 3.14005 0
M  V30 1502 S 137.142 -2.48457 3.61683 0
M  V30 1503 H 133.96 -0.307281 0.64117 0
M  V30 1504 H 136.562 -0.179433 1.94675 0
M  V30 1505 H 135.266 -1.04677 3.96826 0
M  V30 1506 H 134.797 -2.48562 3.04927 0
M  V30 1507 H 136.812 -3.72756 3.27517 0
M  V30 1508 N 135.985 -1.50799 -0.457987 0
M  V30 1509 C 137.233 -1.62121 -1.2067 0
M  V30 1510 C 137.554 -0.329793 -1.92191 0
M  V30 1511 O 136.824 0.653409 -1.84682 0
M  V30 1512 H 135.404 -0.597441 -0.448411 0
M  V30 1513 H 138.066 -1.87637 -0.527096 0
M  V30 1514 H 137.162 -2.43882 -1.94751 0
M  V30 1515 N 137.463 0.71206 -1.40597 0
M  V30 1516 C 138.709 1.47416 -1.39271 0
M  V30 1517 C 139.042 1.942 0.00388791 0
M  V30 1518 O 138.317 1.68403 0.973179 0
M  V30 1519 C 138.6 2.69774 -2.38525 0
M  V30 1520 C 138.453 2.28861 -3.87224 0
M  V30 1521 C 139.772 3.71939 -2.35264 0
M  V30 1522 H 136.891 0.534713 -0.5072 0
M  V30 1523 H 139.533 0.812375 -1.71757 0
M  V30 1524 H 137.683 3.26238 -2.10953 0
M  V30 1525 H 139.355 1.77852 -4.25636 0
M  V30 1526 H 137.598 1.60824 -4.02887 0
M  V30 1527 H 138.269 3.16584 -4.52193 0
M  V30 1528 H 140.745 3.25113 -2.59694 0
M  V30 1529 H 139.621 4.55186 -3.06753 0
M  V30 1530 H 139.882 4.20484 -1.36549 0
M  V30 1531 N 138.941 1.26152 0.944643 0
M  V30 1532 C 140.352 1.10454 1.50522 0
M  V30 1533 C 140.703 -0.31635 1.93633 0
M  V30 1534 O 139.828 -1.20746 1.79581 0
M  V30 1535 C 140.423 1.99891 2.73549 0
M  V30 1536 C 138.982 1.88348 3.25886 0
M  V30 1537 C 138.129 1.93447 1.9868 0
M  V30 1538 H 141.08 1.39292 0.760489 0
M  V30 1539 H 141.101 1.54477 3.47732 0
M  V30 1540 H 140.613 3.03297 2.42141 0
M  V30 1541 H 138.714 0.878636 3.62092 0
M  V30 1542 H 138.827 2.73696 3.93227 0
M  V30 1543 H 137.191 1.37456 2.14425 0
M  V30 1544 H 137.974 2.98476 1.69607 0
M  V30 1545 N 140.419 -1.14872 1.07899 0
M  V30 1546 C 141.696 -1.81928 0.71845 0
M  V30 1547 C 142.076 -1.95417 -0.798455 0
M  V30 1548 O 141.424 -1.50997 -1.715 0
M  V30 1549 C 141.634 -3.17937 1.43935 0
M  V30 1550 C 142.982 -3.93501 1.59506 0
M  V30 1551 O 144.006 -3.27509 1.40058 0
M  V30 1552 O 142.865 -5.1183 1.91551 0
M  V30 1553 H 139.959 -0.78628 0.256305 0
M  V30 1554 H 142.505 -1.21934 1.18026 0
M  V30 1555 H 141.277 -3.0325 2.47295 0
M  V30 1556 H 140.9 -3.85619 0.968687 0
M  V30 1557 N 141.898 -0.863906 -1.31812 0
M  V30 1558 C 143.144 -0.472535 -1.97218 0
M  V30 1559 C 143.477 0.971394 -1.68159 0
M  V30 1560 O 142.752 1.68309 -0.974798 0
M  V30 1561 C 143.035 -0.723054 -3.52766 0
M  V30 1562 C 142.888 -2.21608 -3.91421 0
M  V30 1563 C 144.207 -0.185522 -4.39709 0
M  V30 1564 H 141.326 -0.173158 -0.71637 0
M  V30 1565 H 143.968 -1.08403 -1.56041 0
M  V30 1566 H 142.118 -0.202577 -3.87971 0
M  V30 1567 H 143.79 -2.80334 -3.66347 0
M  V30 1568 H 142.033 -2.691 -3.40246 0
M  V30 1569 H 142.704 -2.34203 -4.99853 0
M  V30 1570 H 145.18 -0.630726 -4.11292 0
M  V30 1571 H 144.056 -0.390306 -5.47511 0
M  V30 1572 H 144.317 0.912229 -4.32586 0
M  V30 1573 N 143.376 1.44774 -0.622745 0
M  V30 1574 C 144.624 2.01721 -0.123655 0
M  V30 1575 C 144.945 1.49172 1.25589 0
M  V30 1576 O 144.215 0.691974 1.83272 0
M  V30 1577 H 142.795 0.745777 -0.0427225 0
M  V30 1578 H 145.457 1.77382 -0.807559 0
M  V30 1579 H 144.553 3.11984 -0.0849534 0
M  V30 1580 N 144.854 0.36279 1.53368 0
M  V30 1581 C 145.804 -0.501391 2.22419 0
M  V30 1582 C 146.788 -1.0509 1.2184 0
M  V30 1583 O 147.98 -0.981404 1.47301 0
M  V30 1584 C 145.109 -1.64201 3.01484 0
M  V30 1585 C 144.195 -1.10552 4.09438 0
M  V30 1586 N 144.586 -0.291788 5.04958 0
M  V30 1587 C 142.884 -1.3806 4.24094 0
M  V30 1588 C 143.585 0.00162655 5.817 0
M  V30 1589 N 142.561 -0.595244 5.40331 0
M  V30 1590 H 146.363 0.127159 2.93625 0
M  V30 1591 H 143.877 0.170658 1.61501 0
M  V30 1592 H 145.874 -2.27326 3.49469 0
M  V30 1593 H 144.534 -2.27365 2.31809 0
M  V30 1594 H 145.545 0.0687731 5.17854 0
M  V30 1595 H 142.222 -2.01522 3.65644 0
M  V30 1596 H 143.612 0.659278 6.68658 0
M  V30 1597 N 146.332 -1.57332 0.0918853 0
M  V30 1598 C 147.579 -1.94236 -0.572577 0
M  V30 1599 C 147.907 -0.973398 -1.6839 0
M  V30 1600 O 147.162 0.00756912 -1.95699 0
M  V30 1601 C 147.461 -3.37689 -1.17051 0
M  V30 1602 C 147.127 -4.50527 -0.183304 0
M  V30 1603 C 145.789 -4.81119 0.0882276 0
M  V30 1604 C 148.141 -5.18883 0.49095 0
M  V30 1605 C 145.469 -5.77395 1.04076 0
M  V30 1606 C 147.821 -6.1618 1.43193 0
M  V30 1607 C 146.485 -6.45179 1.71173 0
M  V30 1608 H 145.755 -0.710762 -0.209521 0
M  V30 1609 H 148.402 -1.9077 0.167036 0
M  V30 1610 H 146.707 -3.37718 -1.9863 0
M  V30 1611 H 148.404 -3.63543 -1.69227 0
M  V30 1612 H 144.994 -4.26681 -0.405124 0
M  V30 1613 H 149.178 -4.95427 0.294312 0
M  V30 1614 H 144.434 -5.98179 1.26457 0
M  V30 1615 H 148.608 -6.68243 1.96023 0
M  V30 1616 H 146.235 -7.1959 2.4514 0
M  V30 1617 N 147.81 0.181792 -1.56548 0
M  V30 1618 C 149.226 0.53316 -1.50431 0
M  V30 1619 C 149.426 1.85184 -0.794297 0
M  V30 1620 O 148.482 2.50058 -0.350318 0
M  V30 1621 C 149.795 0.575597 -2.9514 0
M  V30 1622 C 151.343 0.663519 -3.05886 0
M  V30 1623 C 151.818 0.736946 -4.52032 0
M  V30 1624 N 153.309 0.800118 -4.56237 0
M  V30 1625 C 154.044 0.877327 -5.66649 0
M  V30 1626 N 153.54 0.916016 -6.86718 0
M  V30 1627 N 155.333 0.915542 -5.54594 0
M  V30 1628 H 147.484 -0.683025 -2.01118 0
M  V30 1629 H 149.747 -0.244988 -0.915797 0
M  V30 1630 H 149.453 -0.324482 -3.502 0
M  V30 1631 H 149.327 1.42572 -3.49218 0
M  V30 1632 H 151.714 1.55403 -2.50867 0
M  V30 1633 H 151.795 -0.21307 -2.54911 0
M  V30 1634 H 151.439 -0.149262 -5.07681 0
M  V30 1635 H 151.369 1.62953 -5.00753 0
M  V30 1636 H 153.86 0.778926 -3.69785 0
M  V30 1637 H 154.173 0.975813 -7.66614 0
M  V30 1638 H 152.518 0.884469 -6.89349 0
M  V30 1639 H 155.709 0.882245 -4.59711 0
M  V30 1640 H 155.882 0.972253 -6.40665 0
M  V30 1641 N 149.288 1.51039 0.449983 0
M  V30 1642 C 150.516 1.66869 1.2232 0
M  V30 1643 C 150.931 0.360727 1.85322 0
M  V30 1644 O 150.288 -0.659531 1.70166 0
M  V30 1645 C 150.339 2.77524 2.31652 0
M  V30 1646 O 150.06 4.03252 1.7123 0
M  V30 1647 C 151.561 3.04512 3.2216 0
M  V30 1648 H 148.781 0.560326 0.369155 0
M  V30 1649 H 151.325 1.97385 0.534719 0
M  V30 1650 H 149.48 2.49642 2.96239 0
M  V30 1651 H 149.894 4.64609 2.43389 0
M  V30 1652 H 151.368 3.85551 3.95038 0
M  V30 1653 H 151.845 2.16415 3.8218 0
M  V30 1654 H 152.451 3.34005 2.63288 0
M  V30 1655 N 150.766 -0.704594 1.40972 0
M  V30 1656 C 152.013 -1.46458 1.39844 0
M  V30 1657 C 152.341 -1.94499 0.00447594 0
M  V30 1658 O 151.596 -1.69275 -0.982057 0
M  V30 1659 C 151.895 -2.698 2.34399 0
M  V30 1660 C 151.561 -2.40464 3.81429 0
M  V30 1661 C 150.223 -2.32174 4.21484 0
M  V30 1662 C 152.575 -2.16086 4.74296 0
M  V30 1663 C 149.903 -1.97589 5.52427 0
M  V30 1664 C 152.255 -1.83011 6.05549 0
M  V30 1665 C 150.919 -1.7321 6.44635 0
M  V30 1666 H 150.189 -0.535927 0.511725 0
M  V30 1667 H 152.836 -0.806124 1.73706 0
M  V30 1668 H 151.141 -3.40536 1.93759 0
M  V30 1669 H 152.838 -3.27919 2.30804 0
M  V30 1670 H 149.428 -2.47808 3.49699 0
M  V30 1671 H 153.612 -2.2144 4.4416 0
M  V30 1672 H 148.868 -1.88547 5.81601 0
M  V30 1673 H 153.042 -1.63164 6.77016 0
M  V30 1674 H 150.669 -1.46179 7.46013 0
M  V30 1675 N 152.244 -1.26651 -0.937939 0
M  V30 1676 C 153.655 -1.1125 -1.49934 0
M  V30 1677 C 154.006 0.306077 -1.93798 0
M  V30 1678 O 153.131 1.19792 -1.80219 0
M  V30 1679 C 153.726 -2.01339 -2.72485 0
M  V30 1680 C 152.285 -1.90074 -3.24883 0
M  V30 1681 C 151.432 -1.94498 -1.97651 0
M  V30 1682 H 154.383 -1.39693 -0.753091 0
M  V30 1683 H 154.404 -1.56319 -3.46907 0
M  V30 1684 H 153.916 -3.04577 -2.40529 0
M  V30 1685 H 152.017 -0.897827 -3.61621 0
M  V30 1686 H 152.13 -2.75778 -3.9177 0
M  V30 1687 H 150.494 -1.38591 -2.13693 0
M  V30 1688 H 151.277 -2.99372 -1.68022 0
M  V30 1689 N 153.722 1.14298 -1.08507 0
M  V30 1690 C 154.97 1.84993 -0.813763 0
M  V30 1691 C 155.291 1.83405 0.662393 0
M  V30 1692 O 154.561 1.28319 1.48024 0
M  V30 1693 H 153.141 0.684966 -0.298045 0
M  V30 1694 H 155.803 1.385 -1.37126 0
M  V30 1695 H 154.899 2.89788 -1.15884 0
M  V30 1696 N 155.201 0.870884 1.31352 0
M  V30 1697 C 156.45 0.478408 1.95944 0
M  V30 1698 C 156.763 -0.974493 1.69597 0
M  V30 1699 O 157.969 -1.47316 2.28058 0
M  V30 1700 C 156.425 0.804609 3.50791 0
M  V30 1701 C 156.033 2.27433 3.85977 0
M  V30 1702 C 157.777 0.480648 4.2177 0
M  V30 1703 C 155.684 2.5429 5.33939 0
M  V30 1704 H 154.614 0.175175 0.733369 0
M  V30 1705 H 157.265 1.06391 1.4951 0
M  V30 1706 H 155.647 0.148347 3.95722 0
M  V30 1707 H 156.821 2.97373 3.52002 0
M  V30 1708 H 155.136 2.56442 3.28065 0
M  V30 1709 H 157.733 0.658519 5.30629 0
M  V30 1710 H 158.076 -0.578979 4.12254 0
M  V30 1711 H 158.609 1.09349 3.82476 0
M  V30 1712 H 155.348 3.58939 5.48491 0
M  V30 1713 H 154.868 1.88945 5.69263 0
M  V30 1714 H 156.547 2.39066 6.01212 0
M  V30 1715 N 156.679 -1.44442 0.630414 0
M  V30 1716 C 158.09 -1.85434 0.217063 0
M  V30 1717 C 158.441 -1.52748 -1.23136 0
M  V30 1718 O 157.566 -0.965205 -1.93682 0
M  V30 1719 C 158.161 -3.36581 0.387168 0
M  V30 1720 C 156.72 -3.76389 0.0283297 0
M  V30 1721 C 155.867 -2.68296 0.700889 0
M  V30 1722 H 158.818 -1.34919 0.83562 0
M  V30 1723 H 158.839 -3.78657 -0.374086 0
M  V30 1724 H 158.351 -3.60339 1.44144 0
M  V30 1725 H 156.452 -3.58246 -1.02423 0
M  V30 1726 H 156.565 -4.77095 0.437892 0
M  V30 1727 H 154.929 -2.54335 0.136267 0
M  V30 1728 H 155.712 -2.94887 1.75774 0
M  V30 1729 N 158.157 -0.370918 -1.53173 0
M  V30 1730 C 159.104 0.473035 -2.259 0
M  V30 1731 C 160.074 1.07311 -1.26781 0
M  V30 1732 O 161.259 1.1046 -1.55574 0
M  V30 1733 C 158.399 1.60405 -3.05556 0
M  V30 1734 C 157.512 1.02863 -4.19575 0
M  V30 1735 C 156.647 2.12918 -4.86661 0
M  V30 1736 C 155.686 1.52869 -5.92704 0
M  V30 1737 N 154.823 2.56779 -6.53459 0
M  V30 1738 H 159.663 -0.153649 -2.97604 0
M  V30 1739 H 157.2 -0.0875946 -1.46839 0
M  V30 1740 H 159.158 2.27034 -3.50016 0
M  V30 1741 H 157.788 2.20131 -2.36097 0
M  V30 1742 H 156.84 0.252465 -3.79561 0
M  V30 1743 H 158.152 0.549642 -4.95762 0
M  V30 1744 H 157.306 2.87356 -5.34333 0
M  V30 1745 H 156.045 2.6417 -4.09958 0
M  V30 1746 H 155.05 0.769479 -5.44389 0
M  V30 1747 H 156.275 1.02435 -6.7133 0
M  V30 1748 H 154.221 3.07235 -5.79606 0
M  V30 1749 H 154.138 2.13583 -7.25202 0
M  V30 1750 H 155.406 3.30903 -7.05779 0
M  V30 1751 N 159.635 1.57281 -0.100228 0
M  V30 1752 C 160.881 1.95626 0.556946 0
M  V30 1753 C 161.236 0.981655 1.65473 0
M  V30 1754 O 160.529 0.00849847 1.91598 0
M  V30 1755 C 160.723 3.38305 1.15259 0
M  V30 1756 C 160.552 4.49555 0.114035 0
M  V30 1757 C 159.322 5.0434 -0.311266 0
M  V30 1758 C 161.52 5.10051 -0.659768 0
M  V30 1759 N 159.502 5.99152 -1.33755 0
M  V30 1760 C 160.873 6.00628 -1.53774 0
M  V30 1761 C 162.928 4.92772 -0.712723 0
M  V30 1762 C 161.631 6.7578 -2.46403 0
M  V30 1763 C 163.657 5.6859 -1.62663 0
M  V30 1764 C 163.019 6.58838 -2.49222 0
M  V30 1765 H 159.118 0.7624 0.173982 0
M  V30 1766 H 161.702 1.93829 -0.183988 0
M  V30 1767 H 159.873 3.40786 1.86332 0
M  V30 1768 H 161.605 3.63817 1.77254 0
M  V30 1769 H 158.36 4.73537 0.0774812 0
M  V30 1770 H 158.784 6.5126 -1.84905 0
M  V30 1771 H 163.426 4.22761 -0.0576648 0
M  V30 1772 H 161.144 7.4505 -3.12931 0
M  V30 1773 H 164.73 5.57233 -1.67281 0
M  V30 1774 H 163.61 7.16479 -3.18791 0
M  V30 1775 N 161.113 -0.173488 1.56642 0
M  V30 1776 C 162.529 -0.525174 1.50712 0
M  V30 1777 C 162.729 -1.8476 0.804107 0
M  V30 1778 O 161.785 -2.49869 0.363574 0
M  V30 1779 C 163.098 -0.559937 2.95441 0
M  V30 1780 C 164.646 -0.647288 3.06234 0
M  V30 1781 C 165.121 -0.712963 4.52417 0
M  V30 1782 N 166.612 -0.775911 4.56655 0
M  V30 1783 C 167.347 -0.847264 5.67106 0
M  V30 1784 N 166.843 -0.879585 6.87194 0
M  V30 1785 N 168.636 -0.886117 5.55071 0
M  V30 1786 H 160.787 0.693681 2.00753 0
M  V30 1787 H 163.05 0.249841 0.914485 0
M  V30 1788 H 162.756 0.343049 3.50023 0
M  V30 1789 H 162.63 -1.40718 3.49969 0
M  V30 1790 H 165.017 -1.5407 2.51687 0
M  V30 1791 H 165.098 0.226586 2.54794 0
M  V30 1792 H 164.742 0.176183 5.07594 0
M  V30 1793 H 164.672 -1.60295 5.0161 0
M  V30 1794 H 167.163 -0.759304 3.70193 0
M  V30 1795 H 167.476 -0.935144 7.67121 0
M  V30 1796 H 165.821 -0.847898 6.89808 0
M  V30 1797 H 169.012 -0.857853 4.60172 0
M  V30 1798 H 169.185 -0.938263 6.41171 0
M  V30 1799 N 162.591 -1.51276 -0.441967 0
M  V30 1800 C 163.538 -1.72256 -1.53612 0
M  V30 1801 C 164.508 -0.564164 -1.56225 0
M  V30 1802 O 165.693 -0.798074 -1.73307 0
M  V30 1803 C 162.833 -1.84932 -2.91366 0
M  V30 1804 C 161.946 -3.12459 -2.98317 0
M  V30 1805 C 161.081 -3.15758 -4.27166 0
M  V30 1806 C 160.12 -4.37619 -4.27967 0
M  V30 1807 N 159.257 -4.38493 -5.48333 0
M  V30 1808 H 164.097 -2.65654 -1.35026 0
M  V30 1809 H 161.634 -1.31662 -0.656009 0
M  V30 1810 H 163.592 -1.90263 -3.7129 0
M  V30 1811 H 162.222 -0.949461 -3.08521 0
M  V30 1812 H 161.274 -3.1646 -2.11086 0
M  V30 1813 H 162.586 -4.02382 -2.94771 0
M  V30 1814 H 161.74 -3.19979 -5.15459 0
M  V30 1815 H 160.479 -2.23715 -4.33362 0
M  V30 1816 H 159.484 -4.33579 -3.38067 0
M  V30 1817 H 160.709 -5.30921 -4.23438 0
M  V30 1818 H 158.655 -3.49318 -5.55259 0
M  V30 1819 H 158.572 -5.22219 -5.46647 0
M  V30 1820 H 159.84 -4.469 -6.38671 0
M  V30 1821 N 164.069 0.697108 -1.41344 0
M  V30 1822 C 165.297 1.48593 -1.43972 0
M  V30 1823 C 165.712 1.88747 -0.0445612 0
M  V30 1824 O 165.069 1.56682 0.935785 0
M  V30 1825 C 165.12 2.74946 -2.34706 0
M  V30 1826 O 164.841 2.36484 -3.68791 0
M  V30 1827 C 166.342 3.687 -2.46121 0
M  V30 1828 H 163.562 0.457964 -0.490418 0
M  V30 1829 H 166.106 0.858429 -1.8561 0
M  V30 1830 H 164.261 3.33937 -1.9638 0
M  V30 1831 H 164.675 3.17918 -4.17167 0
M  V30 1832 H 166.149 4.54145 -3.13777 0
M  V30 1833 H 166.626 4.13081 -1.49199 0
M  V30 1834 H 167.232 3.15613 -2.85076 0
M  V30 1835 N 165.547 1.27147 0.931209 0
M  V30 1836 C 166.497 1.06227 2.01742 0
M  V30 1837 C 167.481 -0.00859065 1.60898 0
M  V30 1838 O 168.673 0.209537 1.75755 0
M  V30 1839 C 165.802 0.707787 3.35924 0
M  V30 1840 C 164.888 1.81661 3.83223 0
M  V30 1841 N 165.279 3.05564 4.03069 0
M  V30 1842 C 163.577 1.70249 4.12227 0
M  V30 1843 C 164.278 3.77697 4.42403 0
M  V30 1844 N 163.254 3.0544 4.49675 0
M  V30 1845 H 167.056 2.00261 2.15111 0
M  V30 1846 H 164.57 1.1781 1.11779 0
M  V30 1847 H 166.567 0.539043 4.134 0
M  V30 1848 H 165.227 -0.224964 3.2392 0
M  V30 1849 H 166.238 3.41363 3.89476 0
M  V30 1850 H 162.915 0.840329 4.08956 0
M  V30 1851 H 164.305 4.84168 4.65866 0
M  V30 1852 N 167.025 -1.13721 1.09112 0
M  V30 1853 C 167.955 -2.21148 0.749385 0
M  V30 1854 C 168.936 -1.6792 -0.271475 0
M  V30 1855 O 170.121 -1.93693 -0.140251 0
M  V30 1856 C 167.251 -3.46905 0.165659 0
M  V30 1857 C 166.205 -4.13203 1.11567 0
M  V30 1858 C 165.531 -5.33248 0.393809 0
M  V30 1859 C 166.831 -4.60912 2.45678 0
M  V30 1860 H 168.525 -2.4999 1.64758 0
M  V30 1861 H 166.071 -1.20156 0.793626 0
M  V30 1862 H 168.024 -4.21313 -0.085466 0
M  V30 1863 H 166.748 -3.17449 -0.767714 0
M  V30 1864 H 165.407 -3.40758 1.35202 0
M  V30 1865 H 165.055 -5.00054 -0.543599 0
M  V30 1866 H 164.755 -5.78552 1.02721 0
M  V30 1867 H 166.279 -6.10413 0.150908 0
M  V30 1868 H 167.693 -5.26759 2.26269 0
M  V30 1869 H 166.09 -5.16944 3.04776 0
M  V30 1870 H 167.16 -3.75603 3.06677 0
M  V30 1871 N 168.503 -0.877838 -1.30888 0
M  V30 1872 C 169.731 -0.507414 -2.00581 0
M  V30 1873 C 170.146 0.902216 -1.65848 0
M  V30 1874 O 169.503 1.59225 -0.891831 0
M  V30 1875 C 169.554 -0.664162 -3.55347 0
M  V30 1876 O 169.275 -2.01829 -3.8884 0
M  V30 1877 C 170.776 -0.295787 -4.42312 0
M  V30 1878 H 167.996 -0.196866 -0.641471 0
M  V30 1879 H 170.54 -1.18117 -1.66939 0
M  V30 1880 H 168.695 -0.0378619 -3.87381 0
M  V30 1881 H 169.109 -2.03174 -4.8355 0
M  V30 1882 H 170.583 -0.456388 -5.5011 0
M  V30 1883 H 171.06 0.765663 -4.32475 0
M  V30 1884 H 171.666 -0.898113 -4.15709 0
M  V30 1885 N 169.982 1.44106 -0.638065 0
M  V30 1886 C 171.212 2.06037 -0.152394 0
M  V30 1887 C 171.62 1.47808 1.18108 0
M  V30 1888 O 170.963 0.598092 1.73691 0
M  V30 1889 C 171.025 3.59488 0.0293714 0
M  V30 1890 C 170.689 4.4022 -1.22702 0
M  V30 1891 C 171.686 4.73256 -2.15232 0
M  V30 1892 C 169.371 4.8048 -1.46437 0
M  V30 1893 C 171.365 5.45444 -3.29802 0
M  V30 1894 C 169.052 5.52417 -2.61303 0
M  V30 1895 C 170.05 5.84819 -3.52811 0
M  V30 1896 O 169.738 6.55289 -4.65673 0
M  V30 1897 H 169.47 0.671233 -0.0801401 0
M  V30 1898 H 172.024 1.85851 -0.874563 0
M  V30 1899 H 170.254 3.78191 0.806758 0
M  V30 1900 H 171.943 4.03164 0.470475 0
M  V30 1901 H 172.709 4.42684 -1.98131 0
M  V30 1902 H 168.588 4.54676 -0.760977 0
M  V30 1903 H 172.132 5.70653 -4.01249 0
M  V30 1904 H 168.029 5.82404 -2.78344 0
M  V30 1905 H 168.797 6.73762 -4.64744 0
M  V30 1906 N 171.46 0.379036 1.52974 0
M  V30 1907 C 172.876 0.0285448 1.59574 0
M  V30 1908 C 173.076 -1.45542 1.39355 0
M  V30 1909 O 172.132 -2.2187 1.20541 0
M  V30 1910 C 173.445 0.496535 2.96572 0
M  V30 1911 C 174.993 0.451909 3.0972 0
M  V30 1912 C 175.468 0.895924 4.49152 0
M  V30 1913 N 176.959 0.851522 4.55306 0
M  V30 1914 C 177.694 1.16661 5.61407 0
M  V30 1915 N 177.19 1.55166 6.752 0
M  V30 1916 N 178.983 1.08853 5.51459 0
M  V30 1917 H 171.134 1.34525 1.64367 0
M  V30 1918 H 173.397 0.550733 0.771619 0
M  V30 1919 H 173.103 1.53258 3.16552 0
M  V30 1920 H 172.977 -0.109802 3.7704 0
M  V30 1921 H 175.364 -0.575029 2.89443 0
M  V30 1922 H 175.445 1.09392 2.3123 0
M  V30 1923 H 175.089 1.92104 4.70168 0
M  V30 1924 H 175.019 0.23103 5.26093 0
M  V30 1925 H 177.51 0.568038 3.73606 0
M  V30 1926 H 177.823 1.776 7.52116 0
M  V30 1927 H 176.168 1.59044 6.76557 0
M  V30 1928 H 179.359 0.786803 4.6144 0
M  V30 1929 H 179.532 1.33742 6.34048 0
M  V30 1930 N 172.938 -1.57226 0.108567 0
M  V30 1931 C 174.187 -1.94008 -0.551703 0
M  V30 1932 C 174.5 -0.993442 -1.68494 0
M  V30 1933 O 175.706 -1.25551 -2.40726 0
M  V30 1934 C 174.162 -3.44763 -1.03279 0
M  V30 1935 C 173.77 -4.47943 0.0714193 0
M  V30 1936 C 175.514 -3.90483 -1.66503 0
M  V30 1937 C 173.421 -5.89865 -0.425779 0
M  V30 1938 H 172.351 -0.724206 -0.209863 0
M  V30 1939 H 175.002 -1.82547 0.186741 0
M  V30 1940 H 173.384 -3.51422 -1.82533 0
M  V30 1941 H 174.558 -4.52942 0.847365 0
M  V30 1942 H 172.873 -4.11913 0.609669 0
M  V30 1943 H 175.47 -4.93925 -2.04798 0
M  V30 1944 H 175.813 -3.29877 -2.53942 0
M  V30 1945 H 176.346 -3.86581 -0.938074 0
M  V30 1946 H 173.085 -6.54202 0.412316 0
M  V30 1947 H 172.605 -5.88309 -1.16843 0
M  V30 1948 H 174.284 -6.40844 -0.890397 0
M  V30 1949 N 174.416 0.165178 -1.56732 0
M  V30 1950 C 175.662 0.882112 -1.82611 0
M  V30 1951 C 175.995 1.81628 -0.687378 0
M  V30 1952 O 175.27 1.92009 0.310267 0
M  V30 1953 C 175.553 1.67245 -3.18906 0
M  V30 1954 C 175.406 0.760987 -4.43316 0
M  V30 1955 C 176.725 2.63884 -3.52212 0
M  V30 1956 H 173.844 0.319242 -0.664269 0
M  V30 1957 H 176.486 0.148052 -1.89422 0
M  V30 1958 H 174.636 2.29824 -3.1323 0
M  V30 1959 H 176.308 0.147596 -4.61064 0
M  V30 1960 H 174.551 0.0694102 -4.33744 0
M  V30 1961 H 175.222 1.34962 -5.35247 0
M  V30 1962 H 177.698 2.11429 -3.58381 0
M  V30 1963 H 176.574 3.16245 -4.48643 0
M  V30 1964 H 176.835 3.44377 -2.77231 0
M  V30 1965 N 175.894 1.51508 0.433938 0
M  V30 1966 C 176.842 1.73646 1.54757 0
M  V30 1967 C 177.836 0.602854 1.5831 0
M  V30 1968 O 179.042 0.784318 1.62014 0
M  V30 1969 H 175.417 0.548718 0.51421 0
M  V30 1970 H 177.388 2.66991 1.33261 0
M  V30 1971 C 176.137 1.88172 2.92381 0
M  V30 1972 H 175.46 2.74808 2.90381 0
M  V30 1973 H 176.9 2.07672 3.6966 0
M  V30 1974 C 175.359 0.64239 3.30719 0
M  V30 1975 O 175.889 -0.201362 4.01195 0
M  V30 1976 N 174.095 0.485489 2.86516 0
M  V30 1977 H 173.642 1.17318 2.29334 0
M  V30 1978 H 173.6 -0.342482 3.12529 0
M  V30 1979 N 177.372 -0.689602 1.41712 0
M  V30 1980 C 178.602 -1.47613 1.44548 0
M  V30 1981 C 179.01 -1.89132 0.0509034 0
M  V30 1982 O 178.353 -1.57741 -0.94146 0
M  V30 1983 C 178.415 -2.76596 2.2964 0
M  V30 1984 C 178.079 -2.57245 3.77722 0
M  V30 1985 C 179.076 -2.22804 4.69739 0
M  V30 1986 C 176.761 -2.727 4.2183 0
M  V30 1987 C 178.755 -2.04064 6.03851 0
M  V30 1988 C 176.442 -2.53576 5.56006 0
M  V30 1989 C 177.44 -2.1931 6.46832 0
M  V30 1990 O 177.128 -2.00359 7.78532 0
M  V30 1991 H 176.86 -0.461227 0.494212 0
M  V30 1992 H 179.414 -0.856045 1.86711 0
M  V30 1993 H 177.644 -3.41033 1.82301 0
M  V30 1994 H 179.333 -3.38424 2.24107 0
M  V30 1995 H 180.099 -2.10473 4.36951 0
M  V30 1996 H 175.978 -2.98353 3.51435 0
M  V30 1997 H 179.522 -1.77241 6.74708 0
M  V30 1998 H 175.419 -2.65499 5.88371 0
M  V30 1999 H 176.187 -2.15075 7.89737 0
M  V30 2000 N 178.85 -1.27639 -0.924453 0
M  V30 2001 C 180.078 -1.16989 -1.70649 0
M  V30 2002 C 180.493 0.272869 -1.86818 0
M  V30 2003 O 179.85 1.18549 -1.38753 0
M  V30 2004 C 179.901 -1.85229 -3.10439 0
M  V30 2005 O 179.622 -3.23868 -2.95028 0
M  V30 2006 C 181.123 -1.80746 -4.04779 0
M  V30 2007 H 178.343 -0.406595 -0.53378 0
M  V30 2008 H 180.887 -1.68569 -1.15778 0
M  V30 2009 H 179.042 -1.37545 -3.6216 0
M  V30 2010 H 179.456 -3.57889 -3.83426 0
M  V30 2011 H 180.93 -2.33101 -5.00368 0
M  V30 2012 H 181.407 -0.777499 -4.32263 0
M  V30 2013 H 182.013 -2.28059 -3.58984 0
M  V30 2014 N 180.328 1.1314 -1.09713 0
M  V30 2015 C 181.739 1.66029 -0.853885 0
M  V30 2016 C 182.09 1.86241 0.617142 0
M  V30 2017 O 181.215 1.5834 1.47503 0
M  V30 2018 C 181.81 3.01599 -1.5435 0
M  V30 2019 C 180.369 3.51467 -1.34714 0
M  V30 2020 C 179.516 2.26648 -1.59769 0
M  V30 2021 H 182.467 0.970226 -1.25588 0
M  V30 2022 H 182.488 3.67709 -0.978267 0
M  V30 2023 H 182 2.86856 -2.6141 0
M  V30 2024 H 180.101 3.71408 -0.297838 0
M  V30 2025 H 180.214 4.314 -2.08401 0
M  V30 2026 H 178.578 2.33385 -1.01998 0
M  V30 2027 H 179.361 2.14467 -2.68065 0
M  V30 2028 N 181.806 0.884767 1.30421 0
M  V30 2029 C 183.083 0.423185 1.90967 0
M  V30 2030 C 183.463 -1.09605 1.80416 0
M  V30 2031 O 182.811 -1.93126 1.22125 0
M  V30 2032 C 183.021 0.921056 3.36627 0
M  V30 2033 C 184.369 0.955903 4.137 0
M  V30 2034 O 185.393 0.867706 3.4547 0
M  V30 2035 O 184.252 1.08614 5.35598 0
M  V30 2036 H 181.346 0.129369 0.816819 0
M  V30 2037 H 183.892 0.973653 1.3899 0
M  V30 2038 H 182.664 1.96489 3.3839 0
M  V30 2039 H 182.287 0.349741 3.96059 0
M  V30 2040 N 183.284 -1.43765 0.645699 0
M  V30 2041 C 184.214 -2.33471 -0.0370477 0
M  V30 2042 C 185.195 -1.49042 -0.819779 0
M  V30 2043 O 186.38 -1.77726 -0.782758 0
M  V30 2044 C 183.51 -3.32311 -1.0093 0
M  V30 2045 C 182.464 -4.2667 -0.337201 0
M  V30 2046 C 181.79 -5.1549 -1.42037 0
M  V30 2047 C 183.09 -5.16657 0.765706 0
M  V30 2048 H 184.784 -2.90809 0.712069 0
M  V30 2049 H 182.33 -1.39834 0.343876 0
M  V30 2050 H 184.283 -3.9396 -1.49578 0
M  V30 2051 H 183.007 -2.73213 -1.78948 0
M  V30 2052 H 181.666 -3.66374 0.128771 0
M  V30 2053 H 181.314 -4.52735 -2.1918 0
M  V30 2054 H 181.014 -5.79438 -0.975966 0
M  V30 2055 H 182.538 -5.80012 -1.90838 0
M  V30 2056 H 183.952 -5.72158 0.361702 0
M  V30 2057 H 182.349 -5.89286 1.13413 0
M  V30 2058 H 183.419 -4.56796 1.62683 0
M  V30 2059 N 184.763 -0.387143 -1.52771 0
M  V30 2060 C 186.174 0.0873634 -1.86495 0
M  V30 2061 C 186.525 1.46336 -1.30691 0
M  V30 2062 O 185.65 2.068 -0.637409 0
M  V30 2063 C 186.245 0.165305 -3.38396 0
M  V30 2064 C 184.804 0.584101 -3.7184 0
M  V30 2065 C 183.951 -0.255279 -2.76122 0
M  V30 2066 H 186.902 -0.605104 -1.46711 0
M  V30 2067 H 186.923 0.984848 -3.67534 0
M  V30 2068 H 186.435 -0.836301 -3.78982 0
M  V30 2069 H 184.536 1.59315 -3.36823 0
M  V30 2070 H 184.649 0.343749 -4.77865 0
M  V30 2071 H 183.013 0.279126 -2.53166 0
M  V30 2072 H 183.796 -1.25482 -3.19545 0
M  V30 2073 N 186.241 1.57166 -0.116904 0
M  V30 2074 C 187.188 2.15202 0.83408 0
M  V30 2075 C 188.158 1.07644 1.26499 0
M  V30 2076 O 189.343 1.35541 1.34288 0
M  V30 2077 C 186.483 2.75405 2.07957 0
M  V30 2078 C 185.596 3.97264 1.69721 0
M  V30 2079 C 184.731 4.45561 2.89221 0
M  V30 2080 C 183.77 5.59956 2.47215 0
M  V30 2081 N 182.907 6.03006 3.59622 0
M  V30 2082 H 187.747 2.96141 0.332335 0
M  V30 2083 H 185.284 1.46309 0.152349 0
M  V30 2084 H 187.242 3.08439 2.80929 0
M  V30 2085 H 185.872 1.97159 2.55594 0
M  V30 2086 H 184.924 3.70404 0.866316 0
M  V30 2087 H 186.236 4.80226 1.34849 0
M  V30 2088 H 185.39 4.80493 3.7042 0
M  V30 2089 H 184.129 3.61544 3.27318 0
M  V30 2090 H 183.134 5.2463 1.64448 0
M  V30 2091 H 184.359 6.45738 2.10238 0
M  V30 2092 H 182.305 5.21931 3.97396 0
M  V30 2093 H 182.222 6.80819 3.28667 0
M  V30 2094 H 183.49 6.42576 4.41267 0
M  V30 2095 N 187.719 -0.156864 1.56817 0
M  V30 2096 C 188.996 -0.899244 1.73704 0
M  V30 2097 C 189.376 -1.99771 0.682254 0
M  V30 2098 O 188.724 -2.26515 -0.300522 0
M  V30 2099 C 188.934 -1.45075 3.17418 0
M  V30 2100 C 190.282 -1.91802 3.7881 0
M  V30 2101 O 191.306 -1.54838 3.20786 0
M  V30 2102 O 190.165 -2.5994 4.80722 0
M  V30 2103 H 187.259 -0.424267 0.709878 0
M  V30 2104 H 189.805 -0.143561 1.69092 0
M  V30 2105 H 188.577 -0.660846 3.85679 0
M  V30 2106 H 188.2 -2.27021 3.26416 0
M  V30 2107 N 189.197 -1.51736 -0.425897 0
M  V30 2108 C 190.16 -1.73271 -1.50032 0
M  V30 2109 C 191.16 -0.602639 -1.4908 0
M  V30 2110 O 192.35 -0.87033 -1.509 0
M  V30 2111 C 189.482 -1.79969 -2.89523 0
M  V30 2112 H 190.675 -2.69172 -1.32237 0
M  V30 2113 H 188.228 -1.41899 -0.65532 0
M  V30 2114 H 188.963 -0.859241 -3.1271 0
M  V30 2115 H 188.748 -2.62109 -2.91619 0
M  V30 2116 H 190.238 -1.9843 -3.67444 0
M  V30 2117 N 190.675 0.682077 -1.42076 0
M  V30 2118 C 191.921 1.44428 -1.42367 0
M  V30 2119 C 192.254 1.94164 -0.0373056 0
M  V30 2120 O 191.529 1.70429 0.937239 0
M  V30 2121 C 191.812 2.64654 -2.44194 0
M  V30 2122 C 191.665 2.20596 -3.91991 0
M  V30 2123 C 192.984 3.66865 -2.431 0
M  V30 2124 H 190.103 0.523834 -0.518428 0
M  V30 2125 H 192.745 0.77576 -1.73442 0
M  V30 2126 H 190.895 3.2169 -2.17826 0
M  V30 2127 H 192.567 1.68783 -4.29313 0
M  V30 2128 H 190.81 1.52242 -4.06208 0
M  V30 2129 H 191.481 3.06921 -4.58807 0
M  V30 2130 H 193.957 3.19531 -2.66532 0
M  V30 2131 H 192.833 4.48577 -3.16339 0
M  V30 2132 H 193.094 4.17493 -1.45437 0
M  V30 2133 N 192.153 1.28127 0.917671 0
M  V30 2134 C 193.43 1.05761 1.64542 0
M  V30 2135 C 193.81 -0.404344 2.07191 0
M  V30 2136 O 193.158 -1.38963 1.81388 0
M  V30 2137 C 193.368 2.02857 2.83989 0
M  V30 2138 C 194.716 2.32786 3.551 0
M  V30 2139 O 195.74 2.0091 2.94132 0
M  V30 2140 O 194.599 2.87169 4.64969 0
M  V30 2141 H 191.693 0.403916 0.721652 0
M  V30 2142 H 194.239 1.39431 0.967322 0
M  V30 2143 H 193.011 3.01407 2.49538 0
M  V30 2144 H 192.634 1.69809 3.59514 0
M  V30 2145 N 193.631 -1.12557 1.10312 0
M  V30 2146 C 194.856 -1.88405 0.867085 0
M  V30 2147 C 195.281 -1.79038 -0.576817 0
M  V30 2148 O 194.639 -1.14439 -1.40618 0
M  V30 2149 C 194.687 -3.3563 1.31851 0
M  V30 2150 O 193.791 -4.09565 0.482734 0
M  V30 2151 H 193.132 -0.585455 0.313271 0
M  V30 2152 H 195.662 -1.42352 1.4696 0
M  V30 2153 H 195.672 -3.86469 1.3079 0
M  V30 2154 H 194.347 -3.41765 2.37001 0
M  V30 2155 H 192.924 -3.68695 0.558448 0
M  V30 2156 N 195.109 -0.891671 -1.2995 0
M  V30 2157 C 196.072 -0.36828 -2.26222 0
M  V30 2158 C 197.072 0.493014 -1.53056 0
M  V30 2159 O 198.262 0.299213 -1.71611 0
M  V30 2160 C 195.394 0.47442 -3.37583 0
M  V30 2161 H 196.587 -1.21844 -2.74033 0
M  V30 2162 H 194.14 -0.669107 -1.41254 0
M  V30 2163 H 194.875 1.34489 -2.95099 0
M  V30 2164 H 194.66 -0.142615 -3.91841 0
M  V30 2165 H 196.15 0.83218 -4.09224 0
M  V30 2166 N 196.587 1.43421 -0.653314 0
M  V30 2167 C 197.833 2.02111 -0.166992 0
M  V30 2168 C 198.166 1.51423 1.21592 0
M  V30 2169 O 197.441 0.707389 1.8118 0
M  V30 2170 C 197.724 3.5966 -0.177948 0
M  V30 2171 C 197.577 4.20579 -1.59478 0
M  V30 2172 C 198.896 4.37413 0.4856 0
M  V30 2173 H 196.015 0.734374 -0.0621557 0
M  V30 2174 H 198.657 1.70717 -0.834016 0
M  V30 2175 H 196.807 3.86537 0.390032 0
M  V30 2176 H 198.479 4.04732 -2.21336 0
M  V30 2177 H 196.722 3.77226 -2.14204 0
M  V30 2178 H 197.393 5.29665 -1.5543 0
M  V30 2179 H 199.869 4.161 0.00234528 0
M  V30 2180 H 198.745 5.47075 0.447207 0
M  V30 2181 H 199.006 4.13672 1.55974 0
M  V30 2182 N 198.065 0.39524 1.52563 0
M  V30 2183 C 198.975 -0.444232 2.30356 0
M  V30 2184 C 199.991 -1.06615 1.37511 0
M  V30 2185 O 201.167 -1.07067 1.70583 0
M  V30 2186 C 198.232 -1.55315 3.09964 0
M  V30 2187 C 197.293 -0.955734 4.18526 0
M  V30 2188 C 196.526 -2.01181 4.9433 0
M  V30 2189 O 196.749 -3.22781 4.70285 0
M  V30 2190 O 195.683 -1.62579 5.79527 0
M  V30 2191 H 199.509 0.189667 3.03107 0
M  V30 2192 H 197.094 0.1588 1.48554 0
M  V30 2193 H 198.976 -2.19724 3.59582 0
M  V30 2194 H 197.651 -2.17191 2.4002 0
M  V30 2195 H 196.558 -0.274743 3.7309 0
M  V30 2196 H 197.891 -0.381109 4.90722 0
M  V30 2197 N 199.544 -1.57102 0.125237 0
M  V30 2198 C 200.491 -2.15641 -0.822655 0
M  V30 2199 C 201.461 -1.08313 -1.25927 0
M  V30 2200 O 202.646 -1.36251 -1.33567 0
M  V30 2201 C 199.786 -2.76504 -2.06494 0
M  V30 2202 C 198.899 -3.98158 -1.67612 0
M  V30 2203 C 198.034 -4.47088 -2.86854 0
M  V30 2204 C 197.073 -5.6126 -2.44242 0
M  V30 2205 N 196.21 -6.04905 -3.56419 0
M  V30 2206 H 201.05 -2.96313 -0.316625 0
M  V30 2207 H 198.587 -1.46388 -0.144588 0
M  V30 2208 H 200.545 -3.09925 -2.79289 0
M  V30 2209 H 199.175 -1.98512 -2.54545 0
M  V30 2210 H 198.227 -3.70858 -0.846661 0
M  V30 2211 H 199.539 -4.80934 -1.32301 0
M  V30 2212 H 198.693 -4.82451 -3.67867 0
M  V30 2213 H 197.432 -3.63275 -3.25396 0
M  V30 2214 H 196.437 -5.25495 -1.61663 0
M  V30 2215 H 197.662 -6.46843 -2.0681 0
M  V30 2216 H 195.608 -5.24032 -3.94623 0
M  V30 2217 H 195.525 -6.82552 -3.25051 0
M  V30 2218 H 196.793 -6.44907 -4.37853 0
M  V30 2219 N 201.022 0.148545 -1.56898 0
M  V30 2220 C 201.985 1.16736 -1.97244 0
M  V30 2221 C 202.985 1.35947 -0.858777 0
M  V30 2222 O 204.175 1.32966 -1.12542 0
M  V30 2223 C 201.307 2.52798 -2.28705 0
M  V30 2224 H 202.5 0.821279 -2.88435 0
M  V30 2225 H 200.053 0.391831 -1.51309 0
M  V30 2226 H 200.788 2.92381 -1.403 0
M  V30 2227 H 200.573 2.40216 -3.09901 0
M  V30 2228 H 202.063 3.26179 -2.60762 0
M  V30 2229 N 202.5 1.5196 0.417844 0
M  V30 2230 C 203.43 1.77634 1.51554 0
M  V30 2231 C 204.411 0.626918 1.58126 0
M  V30 2232 O 205.596 0.871632 1.7354 0
M  V30 2233 C 202.726 1.91911 2.8946 0
M  V30 2234 C 201.68 3.07463 2.97743 0
M  V30 2235 C 201.006 3.06951 4.37819 0
M  V30 2236 C 202.306 4.47082 2.70027 0
M  V30 2237 H 204 2.6955 1.3032 0
M  V30 2238 H 201.546 1.29706 0.625492 0
M  V30 2239 H 203.499 2.08455 3.6623 0
M  V30 2240 H 202.223 0.966598 3.11969 0
M  V30 2241 H 200.882 2.90656 2.23416 0
M  V30 2242 H 200.53 2.09438 4.57323 0
M  V30 2243 H 200.23 3.84556 4.44286 0
M  V30 2244 H 201.754 3.25613 5.16535 0
M  V30 2245 H 203.168 4.6414 3.36522 0
M  V30 2246 H 201.565 5.2654 2.87881 0
M  V30 2247 H 202.635 4.55777 1.65514 0
M  V30 2248 N 203.978 -0.674533 1.42435 0
M  V30 2249 C 204.925 -1.78807 1.45934 0
M  V30 2250 C 205.895 -1.63157 0.311271 0
M  V30 2251 O 207.08 -1.83707 0.515383 0
M  V30 2252 C 204.22 -3.16839 1.36773 0
M  V30 2253 C 203.333 -3.43774 2.61617 0
M  V30 2254 C 202.468 -4.71536 2.44597 0
M  V30 2255 C 201.507 -4.91505 3.64814 0
M  V30 2256 N 200.644 -6.10508 3.46734 0
M  V30 2257 H 205.484 -1.75151 2.41093 0
M  V30 2258 H 203.021 -0.85504 1.19697 0
M  V30 2259 H 204.979 -3.96606 1.29459 0
M  V30 2260 H 203.609 -3.19619 0.452089 0
M  V30 2261 H 202.661 -2.58259 2.79297 0
M  V30 2262 H 203.973 -3.54423 3.50978 0
M  V30 2263 H 203.127 -5.59393 2.3487 0
M  V30 2264 H 201.866 -4.6317 1.52726 0
M  V30 2265 H 200.871 -4.0209 3.74972 0
M  V30 2266 H 202.096 -5.01716 4.57665 0
M  V30 2267 H 200.042 -6.03315 2.5758 0
M  V30 2268 H 199.959 -6.2202 4.29682 0
M  V30 2269 H 201.227 -7.01044 3.40819 0
M  V30 2270 N 205.456 -1.28612 -0.910864 0
M  V30 2271 C 206.702 -1.16106 -1.66274 0
M  V30 2272 C 207.035 0.289113 -1.92036 0
M  V30 2273 O 206.31 1.21 -1.52281 0
M  V30 2274 C 206.593 -1.96309 -3.01885 0
M  V30 2275 C 206.446 -3.49405 -2.8326 0
M  V30 2276 C 207.765 -1.78076 -4.02463 0
M  V30 2277 H 204.884 -0.423152 -0.603417 0
M  V30 2278 H 207.526 -1.57961 -1.05586 0
M  V30 2279 H 205.676 -1.60742 -3.53687 0
M  V30 2280 H 207.348 -3.94894 -2.38446 0
M  V30 2281 H 205.591 -3.74893 -2.18261 0
M  V30 2282 H 206.262 -4.00784 -3.79574 0
M  V30 2283 H 208.738 -2.0912 -3.59733 0
M  V30 2284 H 207.614 -2.36561 -4.95308 0
M  V30 2285 H 207.875 -0.733008 -4.35981 0
M  V30 2286 N 206.934 1.1197 -1.10907 0
M  V30 2287 C 208.18 1.84059 -0.865674 0
M  V30 2288 C 208.535 1.82731 0.602254 0
M  V30 2289 O 207.828 1.26543 1.43866 0
M  V30 2290 C 208.022 3.30749 -1.35425 0
M  V30 2291 C 207.851 3.46363 -2.86815 0
M  V30 2292 C 206.621 3.59712 -3.54874 0
M  V30 2293 C 208.819 3.41116 -3.84895 0
M  V30 2294 N 206.801 3.63741 -4.94536 0
M  V30 2295 C 208.172 3.51698 -5.10596 0
M  V30 2296 C 210.227 3.24612 -3.77533 0
M  V30 2297 C 208.93 3.4748 -6.29802 0
M  V30 2298 C 210.956 3.21708 -4.96244 0
M  V30 2299 C 210.318 3.32856 -6.20795 0
M  V30 2300 H 206.417 0.689015 -0.369841 0
M  V30 2301 H 209.001 1.34016 -1.41237 0
M  V30 2302 H 207.172 3.79322 -0.834814 0
M  V30 2303 H 208.904 3.90718 -1.05458 0
M  V30 2304 H 205.659 3.62038 -3.05329 0
M  V30 2305 H 206.083 3.69408 -5.67333 0
M  V30 2306 H 210.725 3.14883 -2.8215 0
M  V30 2307 H 208.443 3.55978 -7.25469 0
M  V30 2308 H 212.029 3.10113 -4.92261 0
M  V30 2309 H 210.909 3.3059 -7.11112 0
M  V30 2310 N 208.412 0.89855 1.29475 0
M  V30 2311 C 209.322 0.379974 2.31502 0
M  V30 2312 C 210.338 -0.524695 1.659 0
M  V30 2313 O 211.514 -0.414551 1.97087 0
M  V30 2314 C 208.579 -0.385138 3.44554 0
M  V30 2315 C 207.64 0.550914 4.2575 0
M  V30 2316 C 206.873 -0.177778 5.33404 0
M  V30 2317 O 207.096 -1.40189 5.52904 0
M  V30 2318 O 206.03 0.479106 5.9999 0
M  V30 2319 H 209.856 1.22639 2.77837 0
M  V30 2320 H 207.441 0.662834 1.33891 0
M  V30 2321 H 209.323 -0.817841 4.13388 0
M  V30 2322 H 207.998 -1.20763 3.0033 0
M  V30 2323 H 206.905 1.03271 3.59564 0
M  V30 2324 H 208.238 1.33979 4.73614 0
M  V30 2325 N 209.89 -1.43072 0.660911 0
M  V30 2326 C 210.8 -2.34585 -0.0264163 0
M  V30 2327 C 211.816 -1.54316 -0.803898 0
M  V30 2328 O 212.992 -1.86939 -0.749391 0
M  V30 2329 C 210.057 -3.32689 -0.975639 0
M  V30 2330 C 209.118 -4.2886 -0.194236 0
M  V30 2331 C 208.351 -5.22278 -1.09825 0
M  V30 2332 O 208.574 -5.20299 -2.33763 0
M  V30 2333 O 207.508 -5.99228 -0.566513 0
M  V30 2334 H 211.334 -2.94869 0.727034 0
M  V30 2335 H 208.919 -1.43342 0.42111 0
M  V30 2336 H 210.801 -3.92995 -1.52094 0
M  V30 2337 H 209.476 -2.74898 -1.70918 0
M  V30 2338 H 208.383 -3.72011 0.394835 0
M  V30 2339 H 209.716 -4.89655 0.499899 0
M  V30 2340 N 211.368 -0.403325 -1.52352 0
M  V30 2341 C 212.614 0.174605 -2.02047 0
M  V30 2342 C 212.947 1.45282 -1.28867 0
M  V30 2343 O 212.222 1.90483 -0.393257 0
M  V30 2344 C 212.505 0.428238 -3.57545 0
M  V30 2345 C 212.358 -0.866248 -4.4138 0
M  V30 2346 C 213.677 1.21287 -4.23057 0
M  V30 2347 H 210.796 0.0619851 -0.734389 0
M  V30 2348 H 213.438 -0.53565 -1.82293 0
M  V30 2349 H 211.588 1.03327 -3.74507 0
M  V30 2350 H 213.26 -1.50265 -4.3614 0
M  V30 2351 H 211.503 -1.47851 -4.07827 0
M  V30 2352 H 212.174 -0.643249 -5.48239 0
M  V30 2353 H 214.65 0.700703 -4.10158 0
M  V30 2354 H 213.526 1.35909 -5.31808 0
M  V30 2355 H 213.787 2.23193 -3.81625 0
M  V30 2356 N 212.846 1.57033 -0.133567 0
M  V30 2357 C 214.074 2.00044 0.528195 0
M  V30 2358 C 214.489 1.01349 1.59291 0
M  V30 2359 O 213.846 0.00848369 1.82498 0
M  V30 2360 C 213.897 3.43018 1.1411 0
M  V30 2361 O 213.618 4.37939 0.11892 0
M  V30 2362 C 215.119 4.01237 1.88477 0
M  V30 2363 H 212.339 0.656517 0.138661 0
M  V30 2364 H 214.883 2.03267 -0.224196 0
M  V30 2365 H 213.038 3.40688 1.84418 0
M  V30 2366 H 213.452 5.21436 0.56613 0
M  V30 2367 H 214.926 5.03314 2.26669 0
M  V30 2368 H 215.403 3.41193 2.76558 0
M  V30 2369 H 216.009 4.07156 1.22898 0
M  V30 2370 N 214.325 -0.140222 1.56975 0
M  V30 2371 C 215.736 -0.699596 1.73097 0
M  V30 2372 C 216.087 -1.8134 0.749022 0
M  V30 2373 O 215.212 -2.16241 -0.0828503 0
M  V30 2374 C 215.807 -1.27582 3.1386 0
M  V30 2375 C 214.366 -1.78169 3.31561 0
M  V30 2376 C 213.513 -0.672855 2.69013 0
M  V30 2377 H 216.464 0.0855115 1.58469 0
M  V30 2378 H 216.485 -2.14561 3.14235 0
M  V30 2379 H 215.997 -0.464955 3.85305 0
M  V30 2380 H 214.098 -2.61801 2.65124 0
M  V30 2381 H 214.211 -1.90574 4.39566 0
M  V30 2382 H 212.575 -1.10118 2.29665 0
M  V30 2383 H 213.358 0.126679 3.43066 0
M  V30 2384 N 215.803 -1.52179 -0.40978 0
M  V30 2385 C 216.733 -1.78435 -1.5061 0
M  V30 2386 C 217.714 -0.635295 -1.57791 0
M  V30 2387 O 218.899 -0.880823 -1.73076 0
M  V30 2388 C 216.029 -1.93444 -2.88439 0
M  V30 2389 C 214.983 -3.09038 -2.96108 0
M  V30 2390 C 214.309 -3.09268 -4.36185 0
M  V30 2391 C 215.609 -4.48508 -2.67652 0
M  V30 2392 H 217.303 -2.70237 -1.28889 0
M  V30 2393 H 214.849 -1.30036 -0.618605 0
M  V30 2394 H 216.802 -2.10394 -3.65119 0
M  V30 2395 H 215.526 -0.983129 -3.11452 0
M  V30 2396 H 214.185 -2.91837 -2.21872 0
M  V30 2397 H 213.833 -2.11861 -4.56206 0
M  V30 2398 H 213.533 -3.86907 -4.42241 0
M  V30 2399 H 215.057 -3.28348 -5.14801 0
M  V30 2400 H 216.471 -4.65918 -3.34056 0
M  V30 2401 H 214.868 -5.28059 -2.85085 0
M  V30 2402 H 215.938 -4.56649 -1.63095 0
M  V30 2403 N 217.281 0.66697 -1.42791 0
M  V30 2404 C 218.509 1.45505 -1.47091 0
M  V30 2405 C 218.924 1.8861 -0.0845873 0
M  V30 2406 O 218.281 1.58632 0.90234 0
M  V30 2407 C 218.332 2.69906 -2.40485 0
M  V30 2408 O 218.053 2.28608 -3.73725 0
M  V30 2409 C 219.554 3.63396 -2.53886 0
M  V30 2410 H 216.774 0.447459 -0.500022 0
M  V30 2411 H 219.318 0.818866 -1.8739 0
M  V30 2412 H 217.473 3.29696 -2.03419 0
M  V30 2413 H 217.887 3.08997 -4.23817 0
M  V30 2414 H 219.361 4.47387 -3.2334 0
M  V30 2415 H 219.838 4.09824 -1.57927 0
M  V30 2416 H 220.444 3.09495 -2.91706 0
M  V30 2417 N 218.759 1.29093 0.90403 0
M  V30 2418 C 220.006 1.16813 1.65411 0
M  V30 2419 C 220.334 -0.28128 1.92455 0
M  V30 2420 O 219.589 -1.22006 1.53013 0
M  V30 2421 C 219.888 1.92224 3.01305 0
M  V30 2422 C 219.554 3.41968 2.93885 0
M  V30 2423 C 218.216 3.82807 2.91569 0
M  V30 2424 C 220.568 4.37409 2.83413 0
M  V30 2425 C 217.896 5.1741 2.76594 0
M  V30 2426 C 220.248 5.72097 2.69977 0
M  V30 2427 C 218.912 6.12199 2.66024 0
M  V30 2428 H 218.182 0.42745 0.605283 0
M  V30 2429 H 220.829 1.59981 1.05254 0
M  V30 2430 H 219.134 1.41635 3.65304 0
M  V30 2431 H 220.831 1.80131 3.58265 0
M  V30 2432 H 217.421 3.09504 2.96488 0
M  V30 2433 H 221.605 4.06813 2.84283 0
M  V30 2434 H 216.861 5.47596 2.71935 0
M  V30 2435 H 221.035 6.45704 2.60844 0
M  V30 2436 H 218.662 7.16448 2.54178 0
M  V30 2437 N 220.237 -1.11381 1.11499 0
M  V30 2438 C 221.462 -1.87475 0.887019 0
M  V30 2439 C 221.887 -1.79639 -0.557796 0
M  V30 2440 O 221.245 -1.15924 -1.39396 0
M  V30 2441 C 221.293 -3.34213 1.35403 0
M  V30 2442 O 220.397 -4.0903 0.526146 0
M  V30 2443 H 219.738 -0.582099 0.319463 0
M  V30 2444 H 222.268 -1.40785 1.48461 0
M  V30 2445 H 222.278 -3.8506 1.34881 0
M  V30 2446 H 220.953 -3.39232 2.40612 0
M  V30 2447 H 219.53 -3.68082 0.597522 0
M  V30 2448 N 221.715 -0.905404 -1.28997 0
M  V30 2449 C 223.131 -0.60233 -1.47798 0
M  V30 2450 C 223.331 0.854645 -1.82478 0
M  V30 2451 O 222.387 1.63439 -1.92468 0
M  V30 2452 C 223.7 -1.53306 -2.58685 0
M  V30 2453 C 225.248 -1.53887 -2.72558 0
M  V30 2454 C 225.723 -2.45602 -3.86579 0
M  V30 2455 N 227.214 -2.43681 -3.93921 0
M  V30 2456 C 227.949 -3.11347 -4.81509 0
M  V30 2457 N 227.445 -3.88313 -5.73746 0
M  V30 2458 N 229.238 -3.00476 -4.75048 0
M  V30 2459 H 221.389 -1.84765 -1.04764 0
M  V30 2460 H 223.652 -0.792025 -0.520961 0
M  V30 2461 H 223.358 -2.57141 -2.39941 0
M  V30 2462 H 223.232 -1.25787 -3.55609 0
M  V30 2463 H 225.619 -0.507941 -2.90696 0
M  V30 2464 H 225.7 -1.85447 -1.76191 0
M  V30 2465 H 225.344 -3.48792 -3.69197 0
M  V30 2466 H 225.274 -2.11349 -4.82327 0
M  V30 2467 H 227.765 -1.87767 -3.27951 0
M  V30 2468 H 228.078 -4.36985 -6.37389 0
M  V30 2469 H 226.423 -3.92419 -5.73614 0
M  V30 2470 H 229.614 -2.39858 -4.01977 0
M  V30 2471 H 229.787 -3.53485 -5.43095 0
M  V30 2472 N 223.193 1.4272 -0.668489 0
M  V30 2473 C 224.123 2.335 -0.000100175 0
M  V30 2474 C 225.104 1.50328 0.795964 0
M  V30 2475 O 226.289 1.78949 0.754385 0
M  V30 2476 C 223.419 3.33874 0.956302 0
M  V30 2477 C 222.373 4.27152 0.269278 0
M  V30 2478 C 221.699 5.17684 1.33818 0
M  V30 2479 C 222.999 5.15373 -0.847805 0
M  V30 2480 H 224.693 2.89639 -0.758244 0
M  V30 2481 H 222.239 1.39269 -0.366079 0
M  V30 2482 H 224.192 3.9629 1.43292 0
M  V30 2483 H 222.916 2.76025 1.74579 0
M  V30 2484 H 221.575 3.66123 -0.187042 0
M  V30 2485 H 221.223 4.56165 2.1195 0
M  V30 2486 H 220.923 5.80918 0.883659 0
M  V30 2487 H 222.447 5.82974 1.81586 0
M  V30 2488 H 223.861 5.7151 -0.452681 0
M  V30 2489 H 222.258 5.87407 -1.22773 0
M  V30 2490 H 223.328 4.5415 -1.69929 0
M  V30 2491 N 224.671 0.411399 1.52136 0
M  V30 2492 C 225.901 -0.16284 2.05957 0
M  V30 2493 C 226.309 -1.3922 1.28119 0
M  V30 2494 O 225.652 -1.80768 0.326881 0
M  V30 2495 C 225.714 -0.575946 3.54856 0
M  V30 2496 C 225.378 0.542998 4.53763 0
M  V30 2497 C 226.375 1.40726 5.00492 0
M  V30 2498 C 224.06 0.716337 4.97166 0
M  V30 2499 C 226.054 2.4298 5.8927 0
M  V30 2500 C 223.741 1.74218 5.8574 0
M  V30 2501 C 224.739 2.59731 6.31687 0
M  V30 2502 O 224.427 3.60558 7.18507 0
M  V30 2503 H 224.159 -0.0229125 0.675612 0
M  V30 2504 H 226.713 0.581634 1.96993 0
M  V30 2505 H 224.943 -1.37274 3.61515 0
M  V30 2506 H 226.632 -1.07836 3.91313 0
M  V30 2507 H 227.398 1.28476 4.67674 0
M  V30 2508 H 223.277 0.0603857 4.6096 0
M  V30 2509 H 226.821 3.0976 6.25055 0
M  V30 2510 H 222.718 1.86498 6.17971 0
M  V30 2511 H 223.486 3.56829 7.36624 0
M  V30 2512 N 226.149 -1.5696 0.141893 0
M  V30 2513 C 227.059 -2.20066 -0.812905 0
M  V30 2514 C 228.075 -1.18344 -1.27557 0
M  V30 2515 O 229.251 -1.50902 -1.33381 0
M  V30 2516 C 226.316 -2.80583 -2.03652 0
M  V30 2517 C 225.377 -3.97414 -1.62359 0
M  V30 2518 C 224.61 -4.55036 -2.78887 0
M  V30 2519 O 224.833 -4.11538 -3.94959 0
M  V30 2520 O 223.767 -5.45376 -2.54653 0
M  V30 2521 H 227.593 -3.02157 -0.305746 0
M  V30 2522 H 225.178 -1.49159 -0.0848799 0
M  V30 2523 H 227.06 -3.19067 -2.75272 0
M  V30 2524 H 225.735 -2.01508 -2.5333 0
M  V30 2525 H 224.642 -3.63656 -0.877775 0
M  V30 2526 H 225.975 -4.77994 -1.17401 0
M  V30 2527 N 227.627 0.131896 -1.57047 0
M  V30 2528 C 228.875 0.840269 -1.83804 0
M  V30 2529 C 229.196 1.81017 -0.72512 0
M  V30 2530 O 228.466 1.94272 0.251995 0
M  V30 2531 H 227.046 0.313294 -0.678127 0
M  V30 2532 H 229.708 0.122294 -1.94516 0
M  V30 2533 H 228.804 1.39335 -2.79271 0
M  V30 2534 N 229.106 1.52395 0.401703 0
M  V30 2535 C 230.016 1.7917 1.51444 0
M  V30 2536 C 231.032 0.677691 1.6026 0
M  V30 2537 O 232.208 0.963909 1.76835 0
M  V30 2538 C 229.273 1.94347 2.87107 0
M  V30 2539 C 228.334 3.18257 2.88116 0
M  V30 2540 C 227.567 3.32701 4.17308 0
M  V30 2541 O 227.79 2.52238 5.11598 0
M  V30 2542 O 226.724 4.25891 4.25324 0
M  V30 2543 H 230.55 2.73633 1.31752 0
M  V30 2544 H 228.135 1.3733 0.588296 0
M  V30 2545 H 230.017 2.06109 3.67555 0
M  V30 2546 H 228.692 1.03073 3.06851 0
M  V30 2547 H 227.599 3.11947 2.06494 0
M  V30 2548 H 228.932 4.09336 2.73322 0
M  V30 2549 N 230.584 -0.659388 1.43143 0
M  V30 2550 C 231.547 -1.75432 1.47501 0
M  V30 2551 C 232.547 -1.56707 0.360512 0
M  V30 2552 O 233.737 -1.62717 0.622002 0
M  V30 2553 C 230.869 -3.14239 1.32162 0
M  V30 2554 H 232.062 -1.7295 2.45006 0
M  V30 2555 H 229.615 -0.870469 1.29817 0
M  V30 2556 H 230.35 -3.22336 0.356401 0
M  V30 2557 H 230.135 -3.29235 2.12948 0
M  V30 2558 H 231.625 -3.94094 1.3813 0
M  V30 2559 N 232.062 -1.29571 -0.897171 0
M  V30 2560 C 233.339 -1.08365 -1.62839 0
M  V30 2561 C 233.719 0.371331 -2.07808 0
M  V30 2562 O 233.067 1.3606 -1.83576 0
M  V30 2563 C 233.277 -2.0735 -2.80726 0
M  V30 2564 C 234.625 -2.38406 -3.51351 0
M  V30 2565 O 235.649 -2.05564 -2.90898 0
M  V30 2566 O 234.508 -2.9453 -4.60341 0
M  V30 2567 H 231.602 -0.415345 -0.715134 0
M  V30 2568 H 234.148 -1.40952 -0.945018 0
M  V30 2569 H 232.92 -3.05339 -2.44711 0
M  V30 2570 H 232.543 -1.75507 -3.56767 0
M  V30 2571 N 233.54 1.10788 -1.12088 0
M  V30 2572 C 234.789 1.82036 -0.868659 0
M  V30 2573 C 235.102 1.85929 0.607426 0
M  V30 2574 O 236.308 2.53346 0.97613 0
M  V30 2575 C 234.764 3.26951 -1.50435 0
M  V30 2576 C 234.372 3.31367 -3.01496 0
M  V30 2577 C 236.116 4.03053 -1.33225 0
M  V30 2578 C 234.023 4.7072 -3.58017 0
M  V30 2579 H 232.953 0.682108 -0.321318 0
M  V30 2580 H 235.604 1.24618 -1.34694 0
M  V30 2581 H 233.986 3.84343 -0.953735 0
M  V30 2582 H 235.16 2.83819 -3.6302 0
M  V30 2583 H 233.475 2.6875 -3.18061 0
M  V30 2584 H 236.072 5.05981 -1.72878 0
M  V30 2585 H 236.415 4.15387 -0.275529 0
M  V30 2586 H 236.948 3.52066 -1.85188 0
M  V30 2587 H 233.687 4.63585 -4.63432 0
M  V30 2588 H 233.207 5.1865 -3.01268 0
M  V30 2589 H 234.886 5.39685 -3.56859 0
M  V30 2590 N 235.018 0.912232 1.28515 0
M  V30 2591 C 235.951 0.343928 2.25593 0
M  V30 2592 C 236.929 -0.550994 1.5298 0
M  V30 2593 O 238.113 -0.494991 1.81885 0
M  V30 2594 C 235.24 -0.508525 3.34861 0
M  V30 2595 C 234.286 0.320808 4.25292 0
M  V30 2596 S 235.119 1.72658 5.06902 0
M  V30 2597 C 236.275 0.881394 6.19663 0
M  V30 2598 H 236.508 1.16674 2.73449 0
M  V30 2599 H 234.041 0.713384 1.36931 0
M  V30 2600 H 235.999 -0.994539 3.9827 0
M  V30 2601 H 234.66 -1.30571 2.85675 0
M  V30 2602 H 233.853 -0.330941 5.02912 0
M  V30 2603 H 233.455 0.74042 3.66598 0
M  V30 2604 H 235.747 0.110359 6.7741 0
M  V30 2605 H 236.69 1.63009 6.89082 0
M  V30 2606 H 237.098 0.430239 5.62858 0
M  V30 2607 N 236.496 -1.42363 0.676048 0
M  V30 2608 C 237.745 -2.00745 0.196037 0
M  V30 2609 C 238.058 -1.54083 -1.20489 0
M  V30 2610 O 239.264 -2.04891 -1.78134 0
M  V30 2611 C 237.72 -3.58651 0.299616 0
M  V30 2612 C 237.328 -4.143 1.70468 0
M  V30 2613 C 239.072 -4.24326 -0.121619 0
M  V30 2614 C 236.979 -5.64574 1.76096 0
M  V30 2615 H 235.909 -0.750787 0.0695301 0
M  V30 2616 H 238.56 -1.63072 0.841412 0
M  V30 2617 H 236.942 -3.93833 -0.413673 0
M  V30 2618 H 238.116 -3.90575 2.44515 0
M  V30 2619 H 236.431 -3.61081 2.07387 0
M  V30 2620 H 239.028 -5.34607 -0.0997362 0
M  V30 2621 H 239.371 -3.99897 -1.15708 0
M  V30 2622 H 239.904 -3.94108 0.540706 0
M  V30 2623 H 236.643 -5.93804 2.77628 0
M  V30 2624 H 236.163 -5.90286 1.06406 0
M  V30 2625 H 237.842 -6.29013 1.51496 0
M  V30 2626 N 237.974 -0.419461 -1.51915 0
M  V30 2627 C 239.199 0.154572 -2.06823 0
M  V30 2628 C 239.624 1.3722 -1.28656 0
M  V30 2629 O 238.982 1.78461 -0.319583 0
M  V30 2630 C 239.03 0.473172 -3.57482 0
M  V30 2631 O 238.134 1.56255 -3.81652 0
M  V30 2632 H 237.475 0.0096924 -0.663929 0
M  V30 2633 H 240.005 -0.595642 -1.95738 0
M  V30 2634 H 240.015 0.728825 -4.01438 0
M  V30 2635 H 238.69 -0.416873 -4.13805 0
M  V30 2636 H 237.267 1.29825 -3.49571 0
M  V30 2637 N 239.452 1.56882 -0.150215 0
M  V30 2638 C 240.699 1.96228 0.500093 0
M  V30 2639 C 241.027 1.03522 1.64661 0
M  V30 2640 O 240.282 0.0650683 1.95592 0
M  V30 2641 C 240.581 3.41801 1.04437 0
M  V30 2642 C 240.247 4.50897 0.0159671 0
M  V30 2643 C 238.909 4.8046 -0.266731 0
M  V30 2644 C 241.261 5.16703 -0.683192 0
M  V30 2645 C 238.589 5.73135 -1.25434 0
M  V30 2646 C 240.941 6.10441 -1.65964 0
M  V30 2647 C 239.605 6.38382 -1.95 0
M  V30 2648 H 238.875 0.718048 0.182997 0
M  V30 2649 H 241.522 1.90019 -0.237724 0
M  V30 2650 H 239.827 3.44857 1.85959 0
M  V30 2651 H 241.524 3.69573 1.55618 0
M  V30 2652 H 238.114 4.27891 0.246485 0
M  V30 2653 H 242.298 4.93993 -0.477983 0
M  V30 2654 H 237.554 5.93074 -1.48571 0
M  V30 2655 H 241.728 6.60507 -2.20689 0
M  V30 2656 H 239.355 7.09996 -2.71679 0
M  V30 2657 N 240.93 -0.123565 1.57115 0
M  V30 2658 C 241.893 -1.13583 1.99076 0
M  V30 2659 C 242.893 -1.34564 0.880296 0
M  V30 2660 O 244.083 -1.31158 1.14644 0
M  V30 2661 C 241.215 -2.49128 2.32698 0
M  V30 2662 H 242.408 -0.775287 2.89706 0
M  V30 2663 H 239.961 -0.36771 1.51913 0
M  V30 2664 H 240.696 -2.90111 1.44934 0
M  V30 2665 H 240.481 -2.35255 3.13684 0
M  V30 2666 H 241.971 -3.2199 2.65918 0
M  V30 2667 N 242.408 -1.52605 -0.393616 0
M  V30 2668 C 243.654 -1.67672 -1.14079 0
M  V30 2669 C 243.987 -0.413121 -1.89755 0
M  V30 2670 O 243.262 0.588952 -1.85369 0
M  V30 2671 C 243.545 -2.9088 -2.12276 0
M  V30 2672 C 243.398 -4.27329 -1.40394 0
M  V30 2673 C 244.717 -3.09628 -3.12759 0
M  V30 2674 H 241.836 -0.610168 -0.413356 0
M  V30 2675 H 244.478 -1.85193 -0.424696 0
M  V30 2676 H 242.628 -2.76073 -2.73342 0
M  V30 2677 H 244.3 -4.53894 -0.82327 0
M  V30 2678 H 242.543 -4.2802 -0.705801 0
M  V30 2679 H 243.214 -5.09615 -2.12123 0
M  V30 2680 H 245.69 -3.23436 -2.61779 0
M  V30 2681 H 244.566 -3.97322 -3.78717 0
M  V30 2682 H 244.827 -2.23637 -3.81365 0
M  V30 2683 N 243.887 0.651787 -1.4349 0
M  V30 2684 C 245.303 0.96762 -1.26922 0
M  V30 2685 C 245.503 2.00602 -0.189982 0
M  V30 2686 O 244.559 2.48793 0.431107 0
M  V30 2687 C 245.872 1.45052 -2.63401 0
M  V30 2688 C 247.42 1.5671 -2.70945 0
M  V30 2689 C 247.895 2.0839 -4.07845 0
M  V30 2690 N 249.386 2.1569 -4.09917 0
M  V30 2691 C 250.121 2.56804 -5.12679 0
M  V30 2692 N 249.617 2.97203 -6.25813 0
M  V30 2693 N 251.41 2.56756 -5.00033 0
M  V30 2694 H 243.561 -0.0353158 -2.12371 0
M  V30 2695 H 245.824 0.0467858 -0.946845 0
M  V30 2696 H 245.53 0.761926 -3.43348 0
M  V30 2697 H 245.404 2.42529 -2.88894 0
M  V30 2698 H 247.791 2.2467 -1.9133 0
M  V30 2699 H 247.872 0.57662 -2.49216 0
M  V30 2700 H 247.516 1.41031 -4.87927 0
M  V30 2701 H 247.446 3.08271 -4.26938 0
M  V30 2702 H 249.937 1.87237 -3.28254 0
M  V30 2703 H 250.25 3.27328 -7.00055 0
M  V30 2704 H 248.595 2.95004 -6.29283 0
M  V30 2705 H 251.786 2.24572 -4.10713 0
M  V30 2706 H 251.959 2.88475 -5.80247 0
M  V30 2707 N 245.365 1.30045 0.890287 0
M  V30 2708 C 246.275 1.17885 2.02831 0
M  V30 2709 C 247.291 0.0999609 1.73713 0
M  V30 2710 O 248.467 0.313867 1.98939 0
M  V30 2711 C 245.532 0.866079 3.35708 0
M  V30 2712 C 244.593 2.02979 3.78283 0
M  V30 2713 C 243.826 1.73184 5.0482 0
M  V30 2714 O 244.049 0.657237 5.66601 0
M  V30 2715 O 242.983 2.58267 5.43674 0
M  V30 2716 H 246.809 2.13474 2.16015 0
M  V30 2717 H 244.394 1.09587 1.01543 0
M  V30 2718 H 246.276 0.706623 4.15433 0
M  V30 2719 H 244.951 -0.0599443 3.23644 0
M  V30 2720 H 243.858 2.24454 2.99285 0
M  V30 2721 H 245.191 2.93734 3.94944 0
M  V30 2722 N 246.843 -1.10192 1.12674 0
M  V30 2723 C 247.793 -2.14754 0.765801 0
M  V30 2724 C 248.777 -1.59154 -0.236409 0
M  V30 2725 O 249.969 -1.76951 -0.0415261 0
M  V30 2726 C 247.098 -3.42563 0.224827 0
M  V30 2727 C 246.184 -4.05091 1.25548 0
M  V30 2728 N 246.575 -4.42287 2.4539 0
M  V30 2729 C 244.873 -4.32186 1.10142 0
M  V30 2730 C 245.574 -4.91441 3.11224 0
M  V30 2731 N 244.55 -4.88405 2.38666 0
M  V30 2732 H 248.352 -2.41309 1.67772 0
M  V30 2733 H 245.866 -1.27339 1.00789 0
M  V30 2734 H 247.863 -4.16868 -0.0519578 0
M  V30 2735 H 246.523 -3.17467 -0.681515 0
M  V30 2736 H 247.534 -4.33902 2.82754 0
M  V30 2737 H 244.211 -4.16735 0.252587 0
M  V30 2738 H 245.601 -5.29749 4.13298 0
M  V30 2739 N 248.321 -0.919034 -1.28029 0
M  V30 2740 C 249.569 -0.553838 -1.94363 0
M  V30 2741 C 249.89 0.906357 -1.72656 0
M  V30 2742 O 249.16 1.64143 -1.0693 0
M  V30 2743 H 247.74 -0.201834 -0.719216 0
M  V30 2744 H 250.402 -1.16954 -1.55909 0
M  V30 2745 H 249.498 -0.752758 -3.02886 0
M  V30 2746 N 249.799 1.42003 -0.683588 0
M  V30 2747 C 251.076 1.95112 -0.138075 0
M  V30 2748 C 251.456 1.62359 1.34918 0
M  V30 2749 O 250.804 0.924311 2.08971 0
M  V30 2750 C 251.014 3.46505 -0.416581 0
M  V30 2751 C 252.362 4.23254 -0.337834 0
M  V30 2752 O 253.386 3.54468 -0.35082 0
M  V30 2753 O 252.245 5.45743 -0.287596 0
M  V30 2754 H 249.339 0.826961 -0.00797996 0
M  V30 2755 H 251.885 1.51784 -0.758924 0
M  V30 2756 H 250.657 3.63582 -1.4465 0
M  V30 2757 H 250.28 3.969 0.235839 0
M  V30 2758 N 251.277 0.427512 1.51691 0
M  V30 2759 C 252.524 -0.142229 2.02 0
M  V30 2760 C 252.852 -1.43566 1.31221 0
M  V30 2761 O 252.107 -1.91298 0.412744 0
M  V30 2762 C 252.406 -0.418249 3.54944 0
M  V30 2763 C 252.072 0.788187 4.43958 0
M  V30 2764 C 250.734 1.11906 4.68007 0
M  V30 2765 C 253.086 1.59347 4.96244 0
M  V30 2766 C 250.414 2.25608 5.41588 0
M  V30 2767 C 252.766 2.7214 5.71072 0
M  V30 2768 C 251.43 3.05692 5.93387 0
M  V30 2769 H 250.7 -0.0520451 0.73917 0
M  V30 2770 H 253.347 0.572697 1.82736 0
M  V30 2771 H 251.652 -1.21496 3.72486 0
M  V30 2772 H 253.349 -0.872339 3.91397 0
M  V30 2773 H 249.939 0.520344 4.2543 0
M  V30 2774 H 254.123 1.35106 4.77556 0
M  V30 2775 H 249.379 2.51929 5.57083 0
M  V30 2776 H 253.553 3.34914 6.10578 0
M  V30 2777 H 251.18 3.9391 6.50184 0
M  V30 2778 N 252.755 -1.56801 0.158532 0
M  V30 2779 C 253.985 -2.00568 -0.495583 0
M  V30 2780 C 254.393 -1.03774 -1.58201 0
M  V30 2781 O 253.736 -0.0285797 -1.83678 0
M  V30 2782 C 253.798 -3.40768 -1.14532 0
M  V30 2783 C 253.462 -4.56553 -0.202101 0
M  V30 2784 C 254.459 -5.16714 0.574675 0
M  V30 2785 C 252.144 -5.02197 -0.101648 0
M  V30 2786 C 254.138 -6.20939 1.43924 0
M  V30 2787 C 251.825 -6.06274 0.766508 0
M  V30 2788 C 252.823 -6.65515 1.53555 0
M  V30 2789 O 252.511 -7.67575 2.38922 0
M  V30 2790 H 252.243 -0.662893 -0.13247 0
M  V30 2791 H 254.797 -2.03829 0.253559 0
M  V30 2792 H 253.027 -3.34381 -1.94233 0
M  V30 2793 H 254.716 -3.6857 -1.70033 0
M  V30 2794 H 255.482 -4.82341 0.507167 0
M  V30 2795 H 251.361 -4.55807 -0.689994 0
M  V30 2796 H 254.905 -6.67107 2.03996 0
M  V30 2797 H 250.802 -6.40073 0.835266 0
M  V30 2798 H 251.57 -7.84844 2.32296 0
M  V30 2799 N 254.233 0.115231 -1.57178 0
M  V30 2800 C 255.644 0.67197 -1.74188 0
M  V30 2801 C 255.995 1.80125 -0.777777 0
M  V30 2802 O 255.12 2.16346 0.0484376 0
M  V30 2803 C 255.715 1.22573 -3.1585 0
M  V30 2804 C 254.274 1.72872 -3.34353 0
M  V30 2805 C 253.421 0.629972 -2.70049 0
M  V30 2806 H 256.372 -0.110712 -1.58313 0
M  V30 2807 H 256.393 2.09535 -3.17609 0
M  V30 2808 H 255.905 0.403598 -3.85996 0
M  V30 2809 H 254.006 2.5755 -2.69256 0
M  V30 2810 H 254.119 1.83557 -4.42542 0
M  V30 2811 H 252.483 1.0645 -2.31388 0
M  V30 2812 H 253.266 -0.181241 -3.42821 0
M  V30 2813 N 255.711 1.52812 0.385517 0
M  V30 2814 C 256.958 1.68026 1.1302 0
M  V30 2815 C 257.286 0.421934 1.89868 0
M  V30 2816 O 256.541 -0.595749 1.86412 0
M  V30 2817 C 256.84 2.86856 2.13187 0
M  V30 2818 C 256.506 4.24159 1.5297 0
M  V30 2819 C 255.168 4.61501 1.36274 0
M  V30 2820 C 257.52 5.09627 1.09223 0
M  V30 2821 C 254.848 5.81966 0.743837 0
M  V30 2822 C 257.2 6.30719 0.487411 0
M  V30 2823 C 255.864 6.6679 0.307777 0
M  V30 2824 H 255.134 0.614849 0.413571 0
M  V30 2825 H 257.781 1.86962 0.414405 0
M  V30 2826 H 256.086 2.6235 2.90998 0
M  V30 2827 H 257.783 2.95821 2.70722 0
M  V30 2828 H 254.373 3.94746 1.66954 0
M  V30 2829 H 258.557 4.81343 1.20922 0
M  V30 2830 H 253.813 6.08519 0.592891 0
M  V30 2831 H 257.987 6.96259 0.140143 0
M  V30 2832 H 255.614 7.60001 -0.173879 0
M  V30 2833 N 257.189 -0.644168 1.43834 0
M  V30 2834 C 258.466 -1.40188 1.36406 0
M  V30 2835 C 258.846 -2.11094 0.0163124 0
M  V30 2836 O 258.194 -2.05426 -1.00062 0
M  V30 2837 C 258.404 -2.3791 2.55343 0
M  V30 2838 C 259.752 -3.01637 2.98832 0
M  V30 2839 O 260.776 -2.48237 2.55455 0
M  V30 2840 O 259.635 -3.98477 3.74003 0
M  V30 2841 H 256.729 -0.626773 0.539523 0
M  V30 2842 H 259.275 -0.670317 1.559 0
M  V30 2843 H 258.047 -1.84525 3.4506 0
M  V30 2844 H 257.67 -3.18503 2.37995 0
M  V30 2845 N 258.668 -1.30515 -0.883378 0
M  V30 2846 C 259.916 -1.19194 -1.63209 0
M  V30 2847 C 260.237 0.253205 -1.93349 0
M  V30 2848 O 259.507 1.17025 -1.57105 0
M  V30 2849 H 258.087 -0.438148 -0.605009 0
M  V30 2850 H 260.749 -1.63663 -1.05832 0
M  V30 2851 H 259.845 -1.75396 -2.58153 0
M  V30 2852 N 260.146 1.09593 -1.13257 0
M  V30 2853 C 261.557 1.63229 -0.906274 0
M  V30 2854 C 261.908 1.8811 0.557578 0
M  V30 2855 O 261.033 1.62953 1.42391 0
M  V30 2856 C 261.628 2.96535 -1.63867 0
M  V30 2857 C 260.187 3.47003 -1.45828 0
M  V30 2858 C 259.334 2.2145 -1.66898 0
M  V30 2859 H 262.285 0.92978 -1.28611 0
M  V30 2860 H 262.306 3.64411 -1.09476 0
M  V30 2861 H 261.818 2.78394 -2.70404 0
M  V30 2862 H 259.919 3.70272 -0.415848 0
M  V30 2863 H 260.032 4.24551 -2.2202 0
M  V30 2864 H 258.396 2.30022 -1.09371 0
M  V30 2865 H 259.179 2.0583 -2.74752 0
M  V30 2866 N 261.624 0.925811 1.2754 0
M  V30 2867 C 262.872 0.564138 1.94067 0
M  V30 2868 C 263.193 -0.897188 1.73134 0
M  V30 2869 O 262.463 -1.63573 1.07799 0
M  V30 2870 H 261.043 0.205645 0.718136 0
M  V30 2871 H 263.705 1.1778 1.55287 0
M  V30 2872 H 262.801 0.76881 3.02483 0
M  V30 2873 N 263.102 -1.41638 0.69111 0
M  V30 2874 C 264.05 -2.32597 0.0115199 0
M  V30 2875 C 265.044 -1.5072 -0.773296 0
M  V30 2876 O 266.25 -1.66685 -0.67942 0
M  V30 2877 H 262.625 -0.751849 -0.0150746 0
M  V30 2878 H 264.596 -2.87593 0.795791 0
M  V30 2879 C 263.345 -3.35467 -0.914172 0
M  V30 2880 H 262.668 -3.9852 -0.319687 0
M  V30 2881 H 264.108 -4.01662 -1.35808 0
M  V30 2882 C 262.567 -2.69004 -2.02826 0
M  V30 2883 O 263.097 -2.53444 -3.11655 0
M  V30 2884 N 261.303 -2.2777 -1.80469 0
M  V30 2885 H 260.85 -2.40626 -0.919615 0
M  V30 2886 H 260.808 -1.83635 -2.55197 0
M  V30 2887 N 264.58 -0.43555 -1.51462 0
M  V30 2888 C 265.826 0.131709 -2.02372 0
M  V30 2889 C 266.159 1.42516 -1.3192 0
M  V30 2890 O 265.434 1.89606 -0.433573 0
M  V30 2891 C 265.717 0.352301 -3.58373 0
M  V30 2892 C 265.57 -0.959676 -4.39443 0
M  V30 2893 C 266.889 1.12286 -4.25535 0
M  V30 2894 H 264.008 0.0463936 -0.735538 0
M  V30 2895 H 266.65 -0.574197 -1.81116 0
M  V30 2896 H 264.8 0.9536 -3.76615 0
M  V30 2897 H 266.472 -1.59482 -4.32855 0
M  V30 2898 H 264.715 -1.56468 -4.04599 0
M  V30 2899 H 265.386 -0.759394 -5.46752 0
M  V30 2900 H 267.862 0.613545 -4.11552 0
M  V30 2901 H 266.738 1.24598 -5.34571 0
M  V30 2902 H 266.999 2.15048 -3.86273 0
M  V30 2903 N 266.058 1.56714 -0.166846 0
M  V30 2904 C 266.988 2.20754 0.760913 0
M  V30 2905 C 267.969 1.16178 1.24244 0
M  V30 2906 O 269.154 1.44592 1.29641 0
M  V30 2907 C 266.284 2.84478 1.99223 0
M  V30 2908 C 265.238 3.95053 1.64672 0
M  V30 2909 C 264.564 4.45805 2.95232 0
M  V30 2910 C 265.864 5.14865 0.878155 0
M  V30 2911 H 267.558 2.98537 0.22713 0
M  V30 2912 H 265.104 1.43596 0.107805 0
M  V30 2913 H 267.057 3.27951 2.64624 0
M  V30 2914 H 265.781 2.04056 2.55007 0
M  V30 2915 H 264.44 3.52228 1.01641 0
M  V30 2916 H 264.088 3.62181 3.49047 0
M  V30 2917 H 263.788 5.204 2.7287 0
M  V30 2918 H 265.312 4.91962 3.6167 0
M  V30 2919 H 266.726 5.55059 1.43466 0
M  V30 2920 H 265.123 5.95348 0.753738 0
M  V30 2921 H 266.193 4.84735 -0.126377 0
M  V30 2922 N 267.536 -0.106894 1.57237 0
M  V30 2923 C 268.499 -1.11466 2.0027 0
M  V30 2924 C 269.499 -1.33623 0.894519 0
M  V30 2925 O 270.689 -1.29935 1.16028 0
M  V30 2926 C 267.821 -2.46646 2.35327 0
M  V30 2927 H 269.014 -0.744516 2.90512 0
M  V30 2928 H 266.567 -0.351576 1.52295 0
M  V30 2929 H 267.302 -2.88558 1.48003 0
M  V30 2930 H 267.087 -2.31915 3.16161 0
M  V30 2931 H 268.577 -3.19151 2.69318 0
M  V30 2932 N 269.014 -1.53014 -0.377408 0
M  V30 2933 C 269.964 -1.74996 -1.46152 0
M  V30 2934 C 270.948 -0.604236 -1.49123 0
M  V30 2935 O 272.14 -0.862489 -1.54564 0
M  V30 2936 C 269.269 -1.93267 -2.8373 0
M  V30 2937 C 268.355 -3.13807 -2.85283 0
M  V30 2938 N 268.746 -4.35941 -2.56493 0
M  V30 2939 C 267.044 -3.14288 -3.16448 0
M  V30 2940 C 267.745 -5.17615 -2.65424 0
M  V30 2941 N 266.721 -4.53559 -2.99641 0
M  V30 2942 H 270.523 -2.67044 -1.22738 0
M  V30 2943 H 268.037 -1.51479 -0.585479 0
M  V30 2944 H 270.034 -2.0714 -3.61799 0
M  V30 2945 H 268.694 -1.0244 -3.08117 0
M  V30 2946 H 269.705 -4.63876 -2.30302 0
M  V30 2947 H 266.382 -2.33312 -3.46225 0
M  V30 2948 H 267.772 -6.25006 -2.46612 0
M  V30 2949 N 270.492 0.636531 -1.44174 0
M  V30 2950 C 271.455 1.73063 -1.50273 0
M  V30 2951 C 272.455 1.56113 -0.385397 0
M  V30 2952 O 273.645 1.61707 -0.64781 0
M  V30 2953 C 270.777 3.12096 -1.37145 0
M  V30 2954 H 271.97 1.69031 -2.47727 0
M  V30 2955 H 269.523 0.849706 -1.31186 0
M  V30 2956 H 270.258 3.21728 -0.407636 0
M  V30 2957 H 270.043 3.25805 -2.18159 0
M  V30 2958 H 271.533 3.91846 -1.44382 0
M  V30 2959 N 271.97 1.30982 0.876444 0
M  V30 2960 C 273.2 1.23063 1.65949 0
M  V30 2961 C 273.608 -0.207537 1.88058 0
M  V30 2962 O 272.951 -1.14781 1.43426 0
M  V30 2963 C 273.013 1.89768 3.05333 0
M  V30 2964 C 272.677 3.39106 3.0636 0
M  V30 2965 C 273.674 4.3496 2.84791 0
M  V30 2966 C 271.359 3.80693 3.27686 0
M  V30 2967 C 273.353 5.70375 2.84519 0
M  V30 2968 C 271.04 5.16223 3.27043 0
M  V30 2969 C 272.038 6.10875 3.05485 0
M  V30 2970 O 271.726 7.43928 3.04674 0
M  V30 2971 H 271.458 0.426685 0.524324 0
M  V30 2972 H 274.012 1.7329 1.10271 0
M  V30 2973 H 272.242 1.34082 3.6271 0
M  V30 2974 H 273.931 1.75853 3.65829 0
M  V30 2975 H 274.697 4.0416 2.68103 0
M  V30 2976 H 270.576 3.07457 3.43499 0
M  V30 2977 H 274.12 6.44228 2.67611 0
M  V30 2978 H 270.017 5.4666 3.43269 0
M  V30 2979 H 270.785 7.53022 3.2078 0
M  V30 2980 N 273.449 -1.08991 1.13837 0
M  V30 2981 C 274.412 -2.13925 0.822715 0
M  V30 2982 C 275.412 -1.599 -0.1699 0
M  V30 2983 O 276.602 -1.74104 0.0577251 0
M  V30 2984 C 273.734 -3.40155 0.225318 0
M  V30 2985 H 274.927 -2.43358 1.75262 0
M  V30 2986 H 272.48 -1.24603 0.943594 0
M  V30 2987 H 273.215 -3.16352 -0.713594 0
M  V30 2988 H 273 -3.80661 0.940193 0
M  V30 2989 H 274.49 -4.17594 0.0214784 0
M  V30 2990 N 274.927 -0.932562 -1.27047 0
M  V30 2991 C 276.338 -0.619451 -1.76124 0
M  V30 2992 C 276.689 0.865397 -1.76083 0
M  V30 2993 O 275.814 1.67722 -1.36742 0
M  V30 2994 C 276.409 -1.11771 -3.19832 0
M  V30 2995 C 274.968 -0.855174 -3.66557 0
M  V30 2996 C 274.115 -1.27362 -2.46321 0
M  V30 2997 H 277.066 -1.11181 -1.13245 0
M  V30 2998 H 277.087 -0.46759 -3.77616 0
M  V30 2999 H 276.599 -2.19842 -3.1983 0
M  V30 3000 H 274.7 0.211524 -3.71999 0
M  V30 3001 H 274.813 -1.47613 -4.55793 0
M  V30 3002 H 273.177 -0.692119 -2.45116 0
M  V30 3003 H 273.96 -2.36307 -2.49025 0
M  V30 3004 N 276.405 1.4127 -0.698611 0
M  V30 3005 C 277.653 2.00782 -0.230409 0
M  V30 3006 C 277.974 1.5562 1.17505 0
M  V30 3007 O 277.244 0.78815 1.79346 0
M  V30 3008 H 275.824 0.742464 -0.0821944 0
M  V30 3009 H 278.486 1.72852 -0.90045 0
M  V30 3010 H 277.582 3.11095 -0.25021 0
M  V30 3011 N 277.883 0.443576 1.51229 0
M  V30 3012 C 279.294 -0.0180867 1.86691 0
M  V30 3013 C 279.645 -1.41384 1.36033 0
M  V30 3014 O 278.77 -2.04291 0.713722 0
M  V30 3015 C 279.365 -0.039597 3.38777 0
M  V30 3016 C 277.924 -0.445692 3.73752 0
M  V30 3017 C 277.071 0.357584 2.74985 0
M  V30 3018 H 280.022 0.659138 1.44364 0
M  V30 3019 H 280.043 -0.847761 3.70936 0
M  V30 3020 H 279.555 0.976382 3.75617 0
M  V30 3021 H 277.656 -1.46704 3.42503 0
M  V30 3022 H 277.769 -0.166155 4.78812 0
M  V30 3023 H 276.133 -0.184973 2.54027 0
M  V30 3024 H 276.916 1.37256 3.14668 0
M  V30 3025 N 279.361 -1.56624 0.175154 0
M  V30 3026 C 280.609 -1.96609 -0.467885 0
M  V30 3027 C 280.93 -1.06238 -1.63519 0
M  V30 3028 O 280.2 -0.129523 -1.95471 0
M  V30 3029 H 278.78 -0.726008 -0.175845 0
M  V30 3030 H 281.442 -1.93195 0.257234 0
M  V30 3031 H 280.538 -3.00989 -0.825342 0
M  V30 3032 N 280.839 0.0985539 -1.57292 0
M  V30 3033 C 282.088 0.801358 -1.85098 0
M  V30 3034 C 282.401 1.80066 -0.763902 0
M  V30 3035 O 283.607 2.55112 -0.928981 0
M  V30 3036 C 282.063 1.47599 -3.28242 0
M  V30 3037 C 281.671 0.516624 -4.45011 0
M  V30 3038 C 283.415 2.16272 -3.65276 0
M  V30 3039 C 281.322 1.19564 -5.79188 0
M  V30 3040 H 280.252 0.303022 -0.69043 0
M  V30 3041 H 282.903 0.0542623 -1.8342 0
M  V30 3042 H 281.285 2.27042 -3.2445 0
M  V30 3043 H 282.459 -0.246065 -4.60143 0
M  V30 3044 H 280.774 -0.064227 -4.1635 0
M  V30 3045 H 283.371 2.67802 -4.62803 0
M  V30 3046 H 283.714 2.95009 -2.93727 0
M  V30 3047 H 284.247 1.43693 -3.70941 0
M  V30 3048 H 280.986 0.449157 -6.53959 0
M  V30 3049 H 280.506 1.92984 -5.67906 0
M  V30 3050 H 282.185 1.7231 -6.23633 0
M  V30 3051 N 282.317 1.53212 0.369288 0
M  V30 3052 C 283.265 1.80054 1.47253 0
M  V30 3053 C 284.259 0.669456 1.55611 0
M  V30 3054 O 285.465 0.852328 1.58541 0
M  V30 3055 H 281.84 0.570034 0.490475 0
M  V30 3056 H 283.811 2.72403 1.21817 0
M  V30 3057 C 282.56 2.00403 2.84137 0
M  V30 3058 H 281.883 2.86876 2.78464 0
M  V30 3059 H 283.323 2.23164 3.60519 0
M  V30 3060 C 281.782 0.782081 3.27697 0
M  V30 3061 O 282.312 -0.0310205 4.01688 0
M  V30 3062 N 280.518 0.606573 2.84199 0
M  V30 3063 H 280.065 1.26939 2.24152 0
M  V30 3064 H 280.023 -0.20962 3.137 0
M  V30 3065 N 283.795 -0.628877 1.44509 0
M  V30 3066 C 285.043 -1.38565 1.4712 0
M  V30 3067 C 285.364 -1.94712 0.105899 0
M  V30 3068 O 284.634 -1.75912 -0.862079 0
M  V30 3069 H 283.214 -0.514333 0.541729 0
M  V30 3070 H 285.876 -0.740018 1.80305 0
M  V30 3071 H 284.972 -2.21583 2.19789 0
M  V30 3072 N 285.273 -1.31445 -0.869486 0
M  V30 3073 C 286.55 -1.11795 -1.60503 0
M  V30 3074 C 286.93 0.327168 -2.08549 0
M  V30 3075 O 286.278 1.32135 -1.8642 0
M  V30 3076 C 286.488 -2.13258 -2.76265 0
M  V30 3077 C 287.836 -2.45805 -3.46215 0
M  V30 3078 O 288.86 -2.11688 -2.86473 0
M  V30 3079 O 287.719 -3.04228 -4.5399 0
M  V30 3080 H 284.813 -0.430421 -0.706163 0
M  V30 3081 H 287.359 -1.42925 -0.914907 0
M  V30 3082 H 286.131 -3.10461 -2.3818 0
M  V30 3083 H 285.754 -1.83035 -3.52964 0
M  V30 3084 N 286.751 1.08385 -1.14413 0
M  V30 3085 C 287.714 2.13486 -0.834048 0
M  V30 3086 C 288.714 1.59988 0.161418 0
M  V30 3087 O 289.904 1.74071 -0.0669575 0
M  V30 3088 C 287.036 3.4003 -0.243354 0
M  V30 3089 H 288.229 2.42425 -1.7655 0
M  V30 3090 H 285.782 1.24101 -0.950189 0
M  V30 3091 H 286.517 3.16726 0.696807 0
M  V30 3092 H 286.302 3.80157 -0.960367 0
M  V30 3093 H 287.792 4.17577 -0.0436242 0
M  V30 3094 N 288.23 0.939286 1.26551 0
M  V30 3095 C 289.18 0.418284 2.2413 0
M  V30 3096 C 290.164 -0.483935 1.5345 0
M  V30 3097 O 291.356 -0.319489 1.74093 0
M  V30 3098 C 288.485 -0.31709 3.41832 0
M  V30 3099 C 287.571 0.602311 4.19801 0
M  V30 3100 N 287.962 1.72726 4.75394 0
M  V30 3101 C 286.26 0.407534 4.44134 0
M  V30 3102 C 286.961 2.30004 5.34297 0
M  V30 3103 N 285.937 1.58828 5.1988 0
M  V30 3104 H 289.739 1.27705 2.64705 0
M  V30 3105 H 287.253 0.794929 1.41614 0
M  V30 3106 H 289.25 -0.707364 4.10855 0
M  V30 3107 H 287.91 -1.17264 3.02786 0
M  V30 3108 H 288.921 2.10944 4.72994 0
M  V30 3109 H 285.598 -0.406406 4.15517 0
M  V30 3110 H 286.988 3.24778 5.88191 0
M  V30 3111 N 289.708 -1.40897 0.706093 0
M  V30 3112 C 290.955 -2.01054 0.241531 0
M  V30 3113 C 291.283 -1.55956 -1.16223 0
M  V30 3114 O 290.538 -0.766336 -1.80072 0
M  V30 3115 C 290.837 -3.5646 0.259099 0
M  V30 3116 C 290.503 -4.21106 1.61184 0
M  V30 3117 C 289.165 -4.38479 1.98216 0
M  V30 3118 C 291.517 -4.57256 2.50132 0
M  V30 3119 C 288.845 -4.89282 3.2376 0
M  V30 3120 C 291.197 -5.09454 3.7502 0
M  V30 3121 C 289.861 -5.25037 4.12181 0
M  V30 3122 H 289.131 -0.73571 0.0883825 0
M  V30 3123 H 291.778 -1.68645 0.907257 0
M  V30 3124 H 290.083 -3.88721 -0.490189 0
M  V30 3125 H 291.78 -4.00826 -0.11804 0
M  V30 3126 H 288.37 -4.07966 1.31384 0
M  V30 3127 H 292.554 -4.43479 2.228 0
M  V30 3128 H 287.81 -4.99531 3.52532 0
M  V30 3129 H 291.984 -5.36404 4.44121 0
M  V30 3130 H 289.611 -5.64164 5.09532 0
M  V30 3131 N 291.186 -0.45159 -1.50991 0
M  V30 3132 C 292.463 0.170707 -1.94854 0
M  V30 3133 C 292.843 1.58788 -1.39103 0
M  V30 3134 O 292.191 2.20913 -0.583921 0
M  V30 3135 C 292.401 0.133929 -3.48743 0
M  V30 3136 C 293.749 0.33248 -4.23296 0
M  V30 3137 O 294.773 0.211403 -3.55572 0
M  V30 3138 O 293.632 0.57486 -5.43468 0
M  V30 3139 H 290.726 0.122264 -0.817912 0
M  V30 3140 H 293.272 -0.510594 -1.61836 0
M  V30 3141 H 292.044 -0.856283 -3.81816 0
M  V30 3142 H 291.667 0.857529 -3.88242 0
M  V30 3143 N 292.664 1.56529 -0.183458 0
M  V30 3144 C 293.941 1.88959 0.50536 0
M  V30 3145 C 294.321 1.09523 1.80466 0
M  V30 3146 O 293.669 0.19278 2.27685 0
M  V30 3147 C 293.879 3.41162 0.73547 0
M  V30 3148 C 295.227 4.11155 1.06005 0
M  V30 3149 O 296.251 3.46548 0.823594 0
M  V30 3150 O 295.11 5.25318 1.50675 0
M  V30 3151 H 292.204 0.78441 0.261973 0
M  V30 3152 H 294.75 1.68231 -0.222802 0
M  V30 3153 H 293.522 3.90874 -0.182561 0
M  V30 3154 H 293.145 3.67543 1.51651 0
M  V30 3155 N 294.142 -0.090211 1.57342 0
M  V30 3156 C 295.419 -0.824761 1.77361 0
M  V30 3157 C 295.799 -1.96698 0.76637 0
M  V30 3158 O 295.147 -2.27586 -0.204179 0
M  V30 3159 C 295.357 -1.31481 3.23286 0
M  V30 3160 C 296.705 -1.75563 3.86604 0
M  V30 3161 O 297.729 -1.41093 3.27065 0
M  V30 3162 O 296.588 -2.39317 4.91314 0
M  V30 3163 H 293.682 -0.393776 0.727234 0
M  V30 3164 H 296.228 -0.0717138 1.69548 0
M  V30 3165 H 295 -0.496671 3.88135 0
M  V30 3166 H 294.623 -2.12973 3.35751 0
M  V30 3167 N 295.62 -1.53406 -0.361157 0
M  V30 3168 C 296.53 -1.83122 -1.4664 0
M  V30 3169 C 297.546 -0.719943 -1.58407 0
M  V30 3170 O 298.722 -1.01046 -1.74218 0
M  V30 3171 C 295.787 -2.01891 -2.81853 0
M  V30 3172 C 294.848 -3.25784 -2.79577 0
M  V30 3173 C 294.081 -3.43648 -4.0834 0
M  V30 3174 O 294.304 -2.65714 -5.0473 0
M  V30 3175 O 293.238 -4.37018 -4.13883 0
M  V30 3176 H 297.064 -2.7703 -1.24451 0
M  V30 3177 H 294.649 -1.38841 -0.551678 0
M  V30 3178 H 296.531 -2.15782 -3.61962 0
M  V30 3179 H 295.206 -1.11173 -3.0401 0
M  V30 3180 H 294.113 -3.17312 -1.98151 0
M  V30 3181 H 295.446 -4.16439 -2.62373 0
M  V30 3182 N 297.098 0.621204 -1.44841 0
M  V30 3183 C 298.03 1.74615 -1.48466 0
M  V30 3184 C 299.043 1.58377 -0.37691 0
M  V30 3185 O 300.232 1.66508 -0.643215 0
M  V30 3186 C 297.332 3.12459 -1.31236 0
M  V30 3187 C 296.505 3.55064 -2.55438 0
M  V30 3188 C 295.564 4.71821 -2.32963 0
M  V30 3189 O 294.59 4.79628 -3.06505 0
M  V30 3190 N 295.792 5.64186 -1.36654 0
M  V30 3191 H 298.557 1.71973 -2.45449 0
M  V30 3192 H 296.118 0.806077 -1.40407 0
M  V30 3193 H 298.11 3.88302 -1.14032 0
M  V30 3194 H 296.68 3.09686 -0.4258 0
M  V30 3195 H 295.9 2.69324 -2.87851 0
M  V30 3196 H 297.188 3.80284 -3.38026 0
M  V30 3197 H 296.586 5.6058 -0.759344 0
M  V30 3198 H 295.143 6.39618 -1.25425 0
M  V30 3199 N 298.576 1.31904 0.862503 0
M  V30 3200 C 299.822 1.23207 1.61838 0
M  V30 3201 C 300.177 -0.206062 1.91293 0
M  V30 3202 O 299.47 -1.14162 1.53875 0
M  V30 3203 C 299.664 2.01713 2.95037 0
M  V30 3204 C 299.493 3.53014 2.78588 0
M  V30 3205 C 298.263 4.22359 2.77382 0
M  V30 3206 C 300.461 4.47819 2.52909 0
M  V30 3207 N 298.443 5.59766 2.52062 0
M  V30 3208 C 299.814 5.72947 2.36922 0
M  V30 3209 C 301.869 4.37162 2.38314 0
M  V30 3210 C 300.572 6.88623 2.07823 0
M  V30 3211 C 302.598 5.5263 2.10604 0
M  V30 3212 C 301.96 6.76752 1.95411 0
M  V30 3213 H 298.059 0.505984 0.596242 0
M  V30 3214 H 300.643 1.66179 1.01452 0
M  V30 3215 H 298.814 1.61098 3.53415 0
M  V30 3216 H 300.546 1.84975 3.59953 0
M  V30 3217 H 297.301 3.74401 2.90036 0
M  V30 3218 H 297.725 6.32135 2.42352 0
M  V30 3219 H 302.367 3.41857 2.48784 0
M  V30 3220 H 300.085 7.83948 1.9609 0
M  V30 3221 H 303.671 5.46307 2.00101 0
M  V30 3222 H 302.551 7.6459 1.74274 0
M  V30 3223 N 300.054 -1.07777 1.14986 0
M  V30 3224 C 301.282 -1.84018 0.945773 0
M  V30 3225 C 301.697 -1.81897 -0.505863 0
M  V30 3226 O 301.054 -1.22726 -1.35072 0
M  V30 3227 C 301.105 -3.31287 1.44677 0
M  V30 3228 O 300.826 -3.33449 2.84154 0
M  V30 3229 C 302.327 -4.24311 1.28355 0
M  V30 3230 H 299.547 -0.580716 0.336169 0
M  V30 3231 H 302.091 -1.36077 1.52654 0
M  V30 3232 H 300.246 -3.76594 0.908625 0
M  V30 3233 H 300.66 -4.25427 3.06777 0
M  V30 3234 H 302.134 -5.2573 1.68261 0
M  V30 3235 H 302.611 -4.38612 0.227184 0
M  V30 3236 H 303.217 -3.84836 1.81056 0
M  V30 3237 N 301.532 -0.945985 -1.26051 0
M  V30 3238 C 302.479 -0.45809 -2.26208 0
M  V30 3239 C 303.449 0.484816 -1.58867 0
M  V30 3240 O 304.634 0.399969 -1.86561 0
M  V30 3241 C 301.774 0.266131 -3.44072 0
M  V30 3242 C 300.887 -0.713005 -4.26075 0
M  V30 3243 C 300.022 0.0329013 -5.3119 0
M  V30 3244 C 299.061 -0.93774 -6.04874 0
M  V30 3245 N 298.198 -0.223274 -7.01745 0
M  V30 3246 H 303.038 -1.3171 -2.67313 0
M  V30 3247 H 300.575 -0.66069 -1.31428 0
M  V30 3248 H 302.533 0.702514 -4.11243 0
M  V30 3249 H 301.163 1.08925 -3.03867 0
M  V30 3250 H 300.215 -1.26789 -3.58648 0
M  V30 3251 H 301.527 -1.45406 -4.77136 0
M  V30 3252 H 300.681 0.528335 -6.04395 0
M  V30 3253 H 299.42 0.806801 -4.8098 0
M  V30 3254 H 298.425 -1.44425 -5.30492 0
M  V30 3255 H 299.65 -1.71172 -6.57173 0
M  V30 3256 H 297.596 0.532046 -6.53839 0
M  V30 3257 H 297.513 -0.90357 -7.50581 0
M  V30 3258 H 298.781 0.250907 -7.79096 0
M  V30 3259 N 303.011 1.40521 -0.713556 0
M  V30 3260 C 304.288 1.94775 -0.17943 0
M  V30 3261 C 304.668 1.65184 1.31444 0
M  V30 3262 O 304.016 0.968429 2.06963 0
M  V30 3263 C 304.226 3.45543 -0.489986 0
M  V30 3264 C 305.574 4.22442 -0.427536 0
M  V30 3265 O 306.598 3.53644 -0.425929 0
M  V30 3266 O 305.457 5.4501 -0.403292 0
M  V30 3267 H 302.551 0.826606 -0.0255192 0
M  V30 3268 H 305.097 1.5014 -0.790949 0
M  V30 3269 H 303.869 3.60432 -1.5233 0
M  V30 3270 H 303.492 3.97311 0.151598 0
M  V30 3271 N 304.489 0.459591 1.5075 0
M  V30 3272 C 305.717 -0.0973749 2.06671 0
M  V30 3273 C 306.132 -1.34524 1.32472 0
M  V30 3274 O 305.489 -1.7827 0.390634 0
M  V30 3275 C 305.54 -0.39714 3.59312 0
M  V30 3276 O 305.261 0.801214 4.30711 0
M  V30 3277 C 306.762 -1.00234 4.31819 0
M  V30 3278 H 303.982 0.00195854 0.670997 0
M  V30 3279 H 306.526 0.645072 1.94059 0
M  V30 3280 H 304.681 -1.08951 3.71764 0
M  V30 3281 H 305.095 0.538857 5.21725 0
M  V30 3282 H 306.569 -1.16193 5.39632 0
M  V30 3283 H 307.046 -1.98939 3.91561 0
M  V30 3284 H 307.652 -0.348699 4.23868 0
M  V30 3285 N 305.967 -1.56429 0.191757 0
M  V30 3286 C 307.195 -2.01867 -0.453586 0
M  V30 3287 C 307.61 -1.07191 -1.5542 0
M  V30 3288 O 306.967 -0.0762108 -1.82341 0
M  V30 3289 C 307.018 -3.47017 -1.013 0
M  V30 3290 O 306.739 -4.38078 0.0437005 0
M  V30 3291 C 308.24 -4.07956 -1.73456 0
M  V30 3292 H 305.46 -0.661211 -0.114199 0
M  V30 3293 H 308.004 -2.02295 0.299483 0
M  V30 3294 H 306.159 -3.47298 -1.71647 0
M  V30 3295 H 306.573 -5.23178 -0.372212 0
M  V30 3296 H 308.047 -5.1138 -2.07833 0
M  V30 3297 H 308.524 -3.51222 -2.63704 0
M  V30 3298 H 309.13 -4.11437 -1.07702 0
M  V30 3299 N 307.445 0.0818655 -1.57387 0
M  V30 3300 C 308.693 0.781368 -1.86384 0
M  V30 3301 C 309.014 1.78618 -0.782342 0
M  V30 3302 O 308.284 1.94976 0.190061 0
M  V30 3303 H 306.864 0.291562 -0.687751 0
M  V30 3304 H 309.526 0.060348 -1.94807 0
M  V30 3305 H 308.622 1.3038 -2.83562 0
M  V30 3306 N 308.923 1.53595 0.353017 0
M  V30 3307 C 310.151 1.74311 1.1146 0
M  V30 3308 C 310.566 0.477854 1.82653 0
M  V30 3309 O 309.923 -0.549977 1.74016 0
M  V30 3310 C 309.974 2.91694 2.13534 0
M  V30 3311 O 309.695 4.13325 1.45238 0
M  V30 3312 C 311.196 3.24384 3.02142 0
M  V30 3313 H 308.416 0.582669 0.332773 0
M  V30 3314 H 310.96 2.00386 0.408107 0
M  V30 3315 H 309.115 2.67977 2.79763 0
M  V30 3316 H 309.529 4.79148 2.13349 0
M  V30 3317 H 311.003 4.09893 3.69718 0
M  V30 3318 H 311.48 2.40282 3.67643 0
M  V30 3319 H 312.086 3.50073 2.41514 0
M  V30 3320 N 310.401 -0.613514 1.45168 0
M  V30 3321 C 311.349 -1.74572 1.53712 0
M  V30 3322 C 312.343 -1.64426 0.407505 0
M  V30 3323 O 313.549 -1.70291 0.583176 0
M  V30 3324 H 309.924 -0.576641 0.48269 0
M  V30 3325 H 311.895 -1.64492 2.48968 0
M  V30 3326 C 310.644 -3.12943 1.51532 0
M  V30 3327 H 309.967 -3.21407 2.37776 0
M  V30 3328 H 311.407 -3.9201 1.61569 0
M  V30 3329 C 309.866 -3.36053 0.238798 0
M  V30 3330 O 310.396 -3.95837 -0.6838 0
M  V30 3331 N 308.602 -2.9028 0.136359 0
M  V30 3332 H 308.149 -2.41811 0.887999 0
M  V30 3333 H 308.107 -3.06116 -0.716944 0
M  V30 3334 N 311.879 -1.3236 -0.855495 0
M  V30 3335 C 312.809 -1.23833 -1.97958 0
M  V30 3336 C 313.79 -0.122361 -1.69659 0
M  V30 3337 O 314.975 -0.30939 -1.9172 0
M  V30 3338 C 312.105 -0.959772 -3.33775 0
M  V30 3339 C 311.059 -2.03689 -3.76424 0
M  V30 3340 C 310.385 -1.61075 -5.09862 0
M  V30 3341 C 311.685 -3.4518 -3.9198 0
M  V30 3342 H 313.379 -2.1788 -2.0535 0
M  V30 3343 H 310.925 -1.04891 -0.986605 0
M  V30 3344 H 312.878 -0.886678 -4.11966 0
M  V30 3345 H 311.602 0.0163404 -3.26596 0
M  V30 3346 H 310.261 -2.10012 -3.00484 0
M  V30 3347 H 309.909 -0.622107 -4.99138 0
M  V30 3348 H 309.609 -2.33143 -5.39368 0
M  V30 3349 H 311.133 -1.55201 -5.90546 0
M  V30 3350 H 312.547 -3.4145 -4.60526 0
M  V30 3351 H 310.944 -4.1559 -4.32903 0
M  V30 3352 H 312.014 -3.84903 -2.94919 0
M  V30 3353 N 313.357 1.07166 -1.15556 0
M  V30 3354 C 314.604 1.79798 -0.931604 0
M  V30 3355 C 314.932 1.8682 0.54115 0
M  V30 3356 O 314.187 1.34942 1.41736 0
M  V30 3357 C 314.486 3.24707 -1.49332 0
M  V30 3358 C 314.152 3.37781 -2.98688 0
M  V30 3359 C 312.814 3.41057 -3.39461 0
M  V30 3360 C 315.166 3.40424 -3.94665 0
M  V30 3361 C 312.494 3.4458 -4.74849 0
M  V30 3362 C 314.846 3.45485 -5.29927 0
M  V30 3363 C 313.51 3.47039 -5.70193 0
M  V30 3364 H 312.78 0.657928 -0.340898 0
M  V30 3365 H 315.427 1.26091 -1.44129 0
M  V30 3366 H 313.732 3.81208 -0.904859 0
M  V30 3367 H 315.429 3.79486 -1.29582 0
M  V30 3368 H 312.019 3.35932 -2.66172 0
M  V30 3369 H 316.203 3.37113 -3.64237 0
M  V30 3370 H 311.459 3.44083 -5.05388 0
M  V30 3371 H 315.633 3.46476 -6.04092 0
M  V30 3372 H 313.26 3.49522 -6.75084 0
M  V30 3373 N 314.835 0.952656 1.25548 0
M  V30 3374 C 315.765 0.489287 2.28316 0
M  V30 3375 C 316.746 -0.463359 1.63667 0
M  V30 3376 O 317.931 -0.36274 1.90782 0
M  V30 3377 C 315.061 -0.235603 3.465 0
M  V30 3378 C 314.015 0.631593 4.23314 0
M  V30 3379 C 313.341 -0.223923 5.34231 0
M  V30 3380 C 314.641 1.90871 4.86174 0
M  V30 3381 H 316.335 1.34822 2.67326 0
M  V30 3382 H 313.881 0.649728 1.28509 0
M  V30 3383 H 315.834 -0.570882 4.17515 0
M  V30 3384 H 314.558 -1.12877 3.06474 0
M  V30 3385 H 313.217 0.949929 3.54079 0
M  V30 3386 H 312.865 -1.11678 4.90446 0
M  V30 3387 H 312.565 0.35299 5.86539 0
M  V30 3388 H 314.089 -0.554214 6.0808 0
M  V30 3389 H 315.503 1.63997 5.49343 0
M  V30 3390 H 313.9 2.43112 5.4865 0
M  V30 3391 H 314.97 2.61304 4.08471 0
M  V30 3392 N 316.313 -1.40141 0.720998 0
M  V30 3393 C 317.559 -2.01084 0.263231 0
M  V30 3394 C 317.892 -1.57052 -1.14229 0
M  V30 3395 O 317.167 -0.793027 -1.77599 0
M  V30 3396 C 317.45 -3.58401 0.349344 0
M  V30 3397 C 317.303 -4.12491 1.79363 0
M  V30 3398 C 318.622 -4.39231 -0.276351 0
M  V30 3399 H 315.741 -0.730572 0.0971228 0
M  V30 3400 H 318.383 -1.66543 0.914518 0
M  V30 3401 H 316.533 -3.87958 -0.205165 0
M  V30 3402 H 318.205 -3.93711 2.40394 0
M  V30 3403 H 316.448 -3.66576 2.31958 0
M  V30 3404 H 317.119 -5.21646 1.80524 0
M  V30 3405 H 319.595 -4.15637 0.196184 0
M  V30 3406 H 318.471 -5.48586 -0.185681 0
M  V30 3407 H 318.732 -4.20643 -1.36059 0
M  V30 3408 N 317.792 -0.46758 -1.50504 0
M  V30 3409 C 318.755 0.317059 -2.26996 0
M  V30 3410 C 319.755 0.923513 -1.31635 0
M  V30 3411 O 320.945 0.793239 -1.55091 0
M  V30 3412 C 318.077 1.45134 -3.08462 0
M  V30 3413 H 319.27 -0.353723 -2.97807 0
M  V30 3414 H 316.823 -0.221545 -1.54722 0
M  V30 3415 H 317.558 2.15728 -2.4214 0
M  V30 3416 H 317.343 1.02232 -3.78538 0
M  V30 3417 H 318.833 2.00493 -3.66323 0
M  V30 3418 N 319.27 1.56325 -0.20005 0
M  V30 3419 C 320.233 2.18084 0.705132 0
M  V30 3420 C 321.233 1.13666 1.1374 0
M  V30 3421 O 322.423 1.39023 1.04968 0
M  V30 3422 C 319.555 2.78689 1.96329 0
M  V30 3423 H 320.748 2.99435 0.167023 0
M  V30 3424 H 318.301 1.56221 0.0495725 0
M  V30 3425 H 319.036 2.0115 2.5438 0
M  V30 3426 H 318.821 3.55133 1.66202 0
M  V30 3427 H 320.311 3.26096 2.60866 0
M  V30 3428 N 320.748 -0.0735177 1.57428 0
M  V30 3429 C 321.698 -1.09442 2.00016 0
M  V30 3430 C 322.682 -1.34575 0.881947 0
M  V30 3431 O 323.874 -1.34905 1.14585 0
M  V30 3432 C 321.003 -2.40865 2.4462 0
M  V30 3433 C 320.089 -2.19014 3.63172 0
M  V30 3434 N 320.48 -1.67087 4.77405 0
M  V30 3435 C 318.778 -2.49494 3.69688 0
M  V30 3436 C 319.479 -1.6001 5.5926 0
M  V30 3437 N 318.455 -2.05999 5.03056 0
M  V30 3438 H 322.257 -0.686227 2.85776 0
M  V30 3439 H 319.771 -0.280617 1.59957 0
M  V30 3440 H 321.768 -3.14763 2.73368 0
M  V30 3441 H 320.428 -2.82403 1.60246 0
M  V30 3442 H 321.439 -1.35975 4.99731 0
M  V30 3443 H 318.116 -2.94409 2.96023 0
M  V30 3444 H 319.506 -1.2073 6.60964 0
M  V30 3445 N 322.226 -1.5378 -0.344866 0
M  V30 3446 C 323.136 -1.84667 -1.4469 0
M  V30 3447 C 324.152 -0.736704 -1.57635 0
M  V30 3448 O 325.328 -1.02888 -1.73136 0
M  V30 3449 C 322.393 -2.04869 -2.79696 0
M  V30 3450 C 321.454 -3.28731 -2.76106 0
M  V30 3451 C 320.687 -3.4796 -4.04673 0
M  V30 3452 O 320.91 -2.71052 -5.01883 0
M  V30 3453 O 319.844 -4.41383 -4.09224 0
M  V30 3454 H 323.67 -2.78334 -1.21506 0
M  V30 3455 H 321.255 -1.39418 -0.536921 0
M  V30 3456 H 323.137 -2.19609 -3.59652 0
M  V30 3457 H 321.812 -1.14391 -3.02814 0
M  V30 3458 H 320.719 -3.19396 -1.94774 0
M  V30 3459 H 322.052 -4.19198 -2.57941 0
M  V30 3460 N 323.704 0.605807 -1.45491 0
M  V30 3461 C 324.953 1.36086 -1.48874 0
M  V30 3462 C 325.266 1.95131 -0.135333 0
M  V30 3463 O 326.472 2.7146 -0.0468144 0
M  V30 3464 C 324.928 2.46518 -2.62215 0
M  V30 3465 C 324.536 1.93877 -4.03876 0
M  V30 3466 C 326.28 3.23512 -2.74846 0
M  V30 3467 C 324.187 3.01801 -5.08596 0
M  V30 3468 H 323.117 0.511497 -0.553974 0
M  V30 3469 H 325.768 0.649089 -1.71636 0
M  V30 3470 H 324.15 3.20388 -2.32739 0
M  V30 3471 H 325.324 1.26704 -4.43038 0
M  V30 3472 H 323.639 1.29622 -3.95711 0
M  V30 3473 H 326.236 4.04013 -3.50253 0
M  V30 3474 H 326.579 3.74631 -1.81542 0
M  V30 3475 H 327.112 2.56742 -3.03856 0
M  V30 3476 H 323.851 2.55597 -6.03614 0
M  V30 3477 H 323.371 3.67535 -4.74002 0
M  V30 3478 H 325.05 3.66152 -5.33424 0
M  V30 3479 N 325.182 1.32811 0.848464 0
M  V30 3480 C 326.43 1.23479 1.59991 0
M  V30 3481 C 326.751 -0.201853 1.93952 0
M  V30 3482 O 326.021 -1.12818 1.60153 0
M  V30 3483 H 324.601 0.454034 0.593179 0
M  V30 3484 H 327.263 1.66412 1.01455 0
M  V30 3485 H 326.359 1.82178 2.53412 0
M  V30 3486 N 326.66 -1.06551 1.16123 0
M  V30 3487 C 327.61 -2.12209 0.833736 0
M  V30 3488 C 328.594 -1.59825 -0.185656 0
M  V30 3489 O 329.786 -1.76994 0.0147906 0
M  V30 3490 C 326.915 -3.41674 0.333697 0
M  V30 3491 C 326.001 -4.00892 1.38372 0
M  V30 3492 N 326.392 -4.34256 2.59337 0
M  V30 3493 C 324.69 -4.28463 1.23836 0
M  V30 3494 C 325.391 -4.81291 3.26701 0
M  V30 3495 N 324.367 -4.80565 2.54083 0
M  V30 3496 H 328.169 -2.35849 1.75364 0
M  V30 3497 H 325.683 -1.24068 1.04789 0
M  V30 3498 H 327.68 -4.16822 0.0806918 0
M  V30 3499 H 326.34 -3.19475 -0.58017 0
M  V30 3500 H 327.351 -4.24687 2.96415 0
M  V30 3501 H 324.028 -4.15721 0.38504 0
M  V30 3502 H 325.418 -5.16332 4.29943 0
M  V30 3503 N 328.138 -0.959301 -1.25041 0
M  V30 3504 C 329.363 -0.633507 -1.97488 0
M  V30 3505 C 329.788 0.788555 -1.70773 0
M  V30 3506 O 329.146 1.53394 -0.966431 0
M  V30 3507 C 329.194 -0.904057 -3.49083 0
M  V30 3508 O 328.298 0.0147939 -4.12397 0
M  V30 3509 H 327.639 -0.240368 -0.618966 0
M  V30 3510 H 330.169 -1.28717 -1.59038 0
M  V30 3511 H 330.179 -0.832203 -3.99423 0
M  V30 3512 H 328.854 -1.94048 -3.67856 0
M  V30 3513 H 327.431 -0.109664 -3.72739 0
M  V30 3514 N 329.616 1.39756 -0.72842 0
M  V30 3515 C 330.546 2.33289 -0.0991354 0
M  V30 3516 C 331.527 1.53568 0.731489 0
M  V30 3517 O 332.712 1.81987 0.677807 0
M  V30 3518 C 329.842 3.3763 0.813834 0
M  V30 3519 C 328.796 4.2791 0.0878663 0
M  V30 3520 C 328.122 5.22894 1.11741 0
M  V30 3521 C 329.422 5.11314 -1.06563 0
M  V30 3522 H 331.116 2.86163 -0.880408 0
M  V30 3523 H 328.662 1.37591 -0.424819 0
M  V30 3524 H 330.615 4.0201 1.26355 0
M  V30 3525 H 329.339 2.83181 1.62715 0
M  V30 3526 H 327.998 3.65 -0.342159 0
M  V30 3527 H 327.646 4.64744 1.92412 0
M  V30 3528 H 327.346 5.84143 0.636477 0
M  V30 3529 H 328.87 5.90151 1.56697 0
M  V30 3530 H 330.284 5.69076 -0.694671 0
M  V30 3531 H 328.681 5.81671 -1.47577 0
M  V30 3532 H 329.751 4.46534 -1.89038 0
M  V30 3533 N 331.094 0.475555 1.50254 0
M  V30 3534 C 332.342 -0.077738 2.0195 0
M  V30 3535 C 332.663 -1.39813 1.35931 0
M  V30 3536 O 331.933 -1.89249 0.506123 0
M  V30 3537 H 330.513 -0.031719 0.746326 0
M  V30 3538 H 333.175 0.626995 1.84539 0
M  V30 3539 H 332.271 -0.225995 3.11281 0
M  V30 3540 N 332.573 -1.56217 0.208337 0
M  V30 3541 C 333.503 -2.22694 -0.702116 0
M  V30 3542 C 334.484 -1.19432 -1.2112 0
M  V30 3543 O 335.669 -1.47978 -1.25762 0
M  V30 3544 C 332.799 -2.8966 -1.9161 0
M  V30 3545 C 331.753 -3.9928 -1.5414 0
M  V30 3546 C 331.079 -4.53476 -2.83308 0
M  V30 3547 C 332.379 -5.17012 -0.741339 0
M  V30 3548 H 334.073 -2.99034 -0.147898 0
M  V30 3549 H 331.619 -1.43831 -0.0696951 0
M  V30 3550 H 333.572 -3.34852 -2.55836 0
M  V30 3551 H 332.296 -2.10746 -2.49507 0
M  V30 3552 H 330.955 -3.54799 -0.922668 0
M  V30 3553 H 330.603 -3.71308 -3.39322 0
M  V30 3554 H 330.303 -5.27451 -2.58976 0
M  V30 3555 H 331.827 -5.01378 -3.485 0
M  V30 3556 H 333.241 -5.58667 -1.28699 0
M  V30 3557 H 331.638 -5.97137 -0.595627 0
M  V30 3558 H 332.708 -4.8423 0.254851 0
M  V30 3559 N 334.051 0.0651679 -1.57465 0
M  V30 3560 C 335.298 0.763063 -1.87573 0
M  V30 3561 C 335.626 1.77242 -0.800961 0
M  V30 3562 O 334.881 1.94651 0.202316 0
M  V30 3563 C 335.18 1.50081 -3.24362 0
M  V30 3564 C 334.846 0.630816 -4.46466 0
M  V30 3565 C 333.508 0.391082 -4.79608 0
M  V30 3566 C 335.86 0.0279465 -5.21193 0
M  V30 3567 C 333.188 -0.460894 -5.84887 0
M  V30 3568 C 335.54 -0.811522 -6.27373 0
M  V30 3569 C 334.204 -1.06106 -6.59013 0
M  V30 3570 H 333.474 0.279224 -0.686378 0
M  V30 3571 H 336.121 0.0236726 -1.91485 0
M  V30 3572 H 334.426 2.31258 -3.16271 0
M  V30 3573 H 336.123 2.04571 -3.44894 0
M  V30 3574 H 332.713 0.8278 -4.2053 0
M  V30 3575 H 336.897 0.200262 -4.95896 0
M  V30 3576 H 332.153 -0.662907 -6.07796 0
M  V30 3577 H 336.327 -1.28537 -6.84435 0
M  V30 3578 H 333.954 -1.723 -7.40417 0
M  V30 3579 N 335.529 1.53961 0.336706 0
M  V30 3580 C 336.479 1.7881 1.41461 0
M  V30 3581 C 337.463 0.643561 1.47469 0
M  V30 3582 O 338.655 0.903166 1.52223 0
M  V30 3583 C 335.784 2.00722 2.78506 0
M  V30 3584 C 334.87 3.2126 2.76862 0
M  V30 3585 N 335.261 4.42588 2.44845 0
M  V30 3586 C 333.559 3.22568 3.08004 0
M  V30 3587 C 334.26 5.2447 2.51607 0
M  V30 3588 N 333.236 4.61344 2.87511 0
M  V30 3589 H 337.038 2.70205 1.15615 0
M  V30 3590 H 334.552 1.52978 0.545112 0
M  V30 3591 H 336.549 2.1666 3.5618 0
M  V30 3592 H 335.209 1.10573 3.05293 0
M  V30 3593 H 336.22 4.69819 2.17922 0
M  V30 3594 H 332.897 2.42409 3.39918 0
M  V30 3595 H 334.287 6.31324 2.29955 0
M  V30 3596 N 337.007 -0.598083 1.45811 0
M  V30 3597 C 338.232 -1.3881 1.54099 0
M  V30 3598 C 338.657 -1.8726 0.177578 0
M  V30 3599 O 338.015 -1.6069 -0.839541 0
M  V30 3600 C 338.063 -2.56217 2.53743 0
M  V30 3601 O 337.167 -3.5716 2.06182 0
M  V30 3602 H 336.508 -0.414024 0.519115 0
M  V30 3603 H 339.038 -0.726971 1.91249 0
M  V30 3604 H 339.048 -3.03337 2.72856 0
M  V30 3605 H 337.723 -2.20303 3.5276 0
M  V30 3606 H 336.3 -3.16624 1.96987 0
M  V30 3607 N 338.485 -1.33259 -0.841409 0
M  V30 3608 C 339.448 -1.23221 -1.9326 0
M  V30 3609 C 340.448 -0.151895 -1.60081 0
M  V30 3610 O 341.638 -0.403246 -1.69468 0
M  V30 3611 C 338.77 -0.898123 -3.28856 0
M  V30 3612 H 339.963 -2.2021 -2.03587 0
M  V30 3613 H 337.516 -1.17281 -1.03319 0
M  V30 3614 H 338.251 0.0693841 -3.24226 0
M  V30 3615 H 338.036 -1.67934 -3.54317 0
M  V30 3616 H 339.526 -0.852563 -4.08805 0
M  V30 3617 N 339.963 1.05934 -1.16686 0
M  V30 3618 C 340.911 2.15603 -0.872817 0
M  V30 3619 C 341.905 1.68647 0.159576 0
M  V30 3620 O 343.111 1.79995 0.0132125 0
M  V30 3621 H 339.486 0.703885 -0.264671 0
M  V30 3622 H 341.457 2.37613 -1.80507 0
M  V30 3623 C 340.206 3.45457 -0.394344 0
M  V30 3624 H 339.529 3.81984 -1.18019 0
M  V30 3625 H 340.969 4.2339 -0.227408 0
M  V30 3626 C 339.428 3.25021 0.88673 0
M  V30 3627 O 339.958 3.50906 1.95519 0
M  V30 3628 N 338.164 2.78437 0.831925 0
M  V30 3629 H 337.711 2.57572 -0.0377619 0
M  V30 3630 H 337.669 2.65144 1.68956 0
M  V30 3631 N 341.441 0.965919 1.2453 0
M  V30 3632 C 342.669 0.644385 1.96609 0
M  V30 3633 C 343.084 -0.785823 1.71669 0
M  V30 3634 O 342.441 -1.52703 0.999399 0
M  V30 3635 C 342.492 0.907375 3.49927 0
M  V30 3636 O 342.213 2.28136 3.74013 0
M  V30 3637 C 343.714 0.599784 4.39224 0
M  V30 3638 H 340.934 0.240588 0.626385 0
M  V30 3639 H 343.478 1.29337 1.58405 0
M  V30 3640 H 341.633 0.304631 3.862 0
M  V30 3641 H 342.047 2.36002 4.68405 0
M  V30 3642 H 343.521 0.834263 5.45659 0
M  V30 3643 H 343.998 -0.465921 4.36722 0
M  V30 3644 H 344.604 1.18235 4.08535 0
M  V30 3645 N 342.919 -1.39368 0.735821 0
M  V30 3646 C 343.829 -2.34395 0.0979693 0
M  V30 3647 C 344.845 -1.58361 -0.720968 0
M  V30 3648 O 346.021 -1.90648 -0.649245 0
M  V30 3649 C 343.086 -3.37393 -0.797916 0
M  V30 3650 C 342.147 -4.29287 0.0333662 0
M  V30 3651 C 341.38 -5.27365 -0.819854 0
M  V30 3652 O 341.603 -5.31959 -2.05855 0
M  V30 3653 O 340.537 -6.01389 -0.248079 0
M  V30 3654 H 344.363 -2.90601 0.882315 0
M  V30 3655 H 341.948 -1.40909 0.4965 0
M  V30 3656 H 343.83 -4.00505 -1.31048 0
M  V30 3657 H 342.505 -2.83571 -1.56106 0
M  V30 3658 H 341.412 -3.69395 0.591475 0
M  V30 3659 H 342.745 -4.86317 0.758752 0
M  V30 3660 N 344.397 -0.483516 -1.5 0
M  V30 3661 C 345.36 0.292965 -2.2732 0
M  V30 3662 C 346.36 0.909499 -1.32608 0
M  V30 3663 O 347.55 0.776745 -1.55924 0
M  V30 3664 C 344.682 1.41854 -3.09984 0
M  V30 3665 H 345.875 -0.385289 -2.97415 0
M  V30 3666 H 343.428 -0.237942 -1.54478 0
M  V30 3667 H 344.163 2.13148 -2.44414 0
M  V30 3668 H 343.948 0.982114 -3.79601 0
M  V30 3669 H 345.438 1.96597 -3.68429 0
M  V30 3670 N 345.875 1.56104 -0.216619 0
M  V30 3671 C 346.805 2.23063 0.690296 0
M  V30 3672 C 347.786 1.20072 1.20485 0
M  V30 3673 O 348.971 1.48643 1.24976 0
M  V30 3674 C 346.101 2.90672 1.90072 0
M  V30 3675 C 345.055 4.00092 1.5202 0
M  V30 3676 C 344.381 4.54972 2.80899 0
M  V30 3677 C 345.681 5.17398 0.71391 0
M  V30 3678 H 347.375 2.99109 0.132038 0
M  V30 3679 H 344.921 1.43866 0.0620664 0
M  V30 3680 H 346.874 3.36204 2.54057 0
M  V30 3681 H 345.598 2.12066 2.48386 0
M  V30 3682 H 344.257 3.55283 0.903839 0
M  V30 3683 H 343.905 3.73102 3.37348 0
M  V30 3684 H 343.605 5.28817 2.56176 0
M  V30 3685 H 345.129 5.0322 3.45836 0
M  V30 3686 H 346.543 5.59342 1.25735 0
M  V30 3687 H 344.94 5.97444 0.563951 0
M  V30 3688 H 346.01 4.84088 -0.280527 0
M  V30 3689 N 347.353 -0.0568162 1.57498 0
M  V30 3690 C 348.286 -1.09817 2.00039 0
M  V30 3691 C 349.264 -1.3674 0.879819 0
M  V30 3692 O 350.448 -1.49863 1.14338 0
M  V30 3693 C 347.575 -2.43924 2.34986 0
M  V30 3694 C 346.621 -2.33039 3.57204 0
M  V30 3695 S 347.454 -1.7102 5.07457 0
M  V30 3696 C 348.61 -3.06674 5.45621 0
M  V30 3697 H 348.843 -0.735701 2.88053 0
M  V30 3698 H 346.376 -0.265871 1.52094 0
M  V30 3699 H 348.334 -3.2106 2.55795 0
M  V30 3700 H 346.995 -2.77327 1.47474 0
M  V30 3701 H 346.188 -3.31973 3.79223 0
M  V30 3702 H 345.79 -1.64043 3.36104 0
M  V30 3703 H 348.082 -4.03 5.44608 0
M  V30 3704 H 349.025 -2.8942 6.46252 0
M  V30 3705 H 349.433 -3.07969 4.73091 0
M  V30 3706 N 348.832 -1.54138 -0.328536 0
M  V30 3707 C 350.062 -1.75807 -1.08516 0
M  V30 3708 C 350.47 -0.50428 -1.82356 0
M  V30 3709 O 349.813 0.534451 -1.75754 0
M  V30 3710 C 349.875 -2.89423 -2.13248 0
M  V30 3711 C 349.539 -4.28504 -1.5885 0
M  V30 3712 C 350.536 -5.09536 -1.03289 0
M  V30 3713 C 348.221 -4.75034 -1.63243 0
M  V30 3714 C 350.215 -6.35206 -0.52845 0
M  V30 3715 C 347.902 -6.00672 -1.12411 0
M  V30 3716 C 348.9 -6.80592 -0.573062 0
M  V30 3717 O 348.588 -8.03867 -0.0723692 0
M  V30 3718 H 348.32 -0.590633 -0.328829 0
M  V30 3719 H 350.874 -2.01819 -0.381868 0
M  V30 3720 H 349.104 -2.5897 -2.87178 0
M  V30 3721 H 350.793 -2.98921 -2.74592 0
M  V30 3722 H 351.559 -4.74745 -0.99206 0
M  V30 3723 H 347.438 -4.12875 -2.05074 0
M  V30 3724 H 350.982 -6.97532 -0.0976774 0
M  V30 3725 H 346.879 -6.34955 -1.162 0
M  V30 3726 H 347.647 -8.18283 -0.188258 0
M  V30 3727 N 350.31 0.590341 -1.46126 0
M  V30 3728 C 351.721 1.17243 -1.45296 0
M  V30 3729 C 352.072 1.95281 -0.189723 0
M  V30 3730 O 351.197 2.04502 0.707674 0
M  V30 3731 C 351.792 2.13284 -2.6324 0
M  V30 3732 C 350.351 2.66832 -2.65476 0
M  V30 3733 C 349.498 1.42557 -2.3785 0
M  V30 3734 H 352.449 0.378692 -1.54116 0
M  V30 3735 H 352.47 2.96619 -2.38323 0
M  V30 3736 H 351.982 1.56459 -3.55165 0
M  V30 3737 H 350.083 3.27548 -1.77603 0
M  V30 3738 H 350.196 3.10088 -3.65215 0
M  V30 3739 H 348.56 1.72107 -1.87753 0
M  V30 3740 H 349.343 0.875741 -3.31942 0
M  V30 3741 N 351.788 1.33704 0.83433 0
M  V30 3742 C 352.718 1.26967 1.95963 0
M  V30 3743 C 353.699 0.149337 1.69443 0
M  V30 3744 O 354.884 0.339852 1.91203 0
M  V30 3745 C 352.014 1.01275 3.32206 0
M  V30 3746 C 350.968 2.09652 3.73136 0
M  V30 3747 C 350.294 1.69166 5.07235 0
M  V30 3748 C 351.594 3.51372 3.86439 0
M  V30 3749 H 353.288 2.2112 2.01857 0
M  V30 3750 H 350.834 1.06447 0.969793 0
M  V30 3751 H 352.787 0.952106 4.10503 0
M  V30 3752 H 351.511 0.0356203 3.26581 0
M  V30 3753 H 350.17 2.14766 2.97104 0
M  V30 3754 H 349.818 0.701437 4.98085 0
M  V30 3755 H 349.518 2.41694 5.35591 0
M  V30 3756 H 351.042 1.64576 5.88003 0
M  V30 3757 H 352.456 3.48734 4.55036 0
M  V30 3758 H 350.853 4.22425 4.26236 0
M  V30 3759 H 351.923 3.89546 2.88759 0
M  V30 3760 N 353.266 -1.05314 1.17247 0
M  V30 3761 C 354.496 -1.81707 0.983166 0
M  V30 3762 C 354.904 -1.83222 -0.471822 0
M  V30 3763 O 354.247 -1.25721 -1.3394 0
M  V30 3764 C 354.309 -3.29134 1.44606 0
M  V30 3765 C 353.973 -3.51304 2.92292 0
M  V30 3766 C 354.97 -3.4353 3.90235 0
M  V30 3767 C 352.655 -3.78306 3.30439 0
M  V30 3768 C 354.649 -3.62442 5.24323 0
M  V30 3769 C 352.336 -3.96866 4.64694 0
M  V30 3770 C 353.334 -3.88933 5.61445 0
M  V30 3771 O 353.022 -4.06976 6.93272 0
M  V30 3772 H 352.754 -0.579476 0.348114 0
M  V30 3773 H 355.308 -1.33705 1.55924 0
M  V30 3774 H 353.538 -3.78046 0.813537 0
M  V30 3775 H 355.227 -3.87049 1.22262 0
M  V30 3776 H 355.993 -3.22648 3.62109 0
M  V30 3777 H 351.872 -3.83585 2.55702 0
M  V30 3778 H 355.416 -3.56165 5.99827 0
M  V30 3779 H 351.313 -4.1724 4.92525 0
M  V30 3780 H 352.081 -4.24209 6.99992 0
M  V30 3781 N 354.744 -0.972509 -1.24016 0
M  V30 3782 C 355.694 -0.477561 -2.22942 0
M  V30 3783 C 356.678 0.44308 -1.54679 0
M  V30 3784 O 357.87 0.273219 -1.74879 0
M  V30 3785 C 354.999 0.226348 -3.42553 0
M  V30 3786 C 354.085 -0.713403 -4.18057 0
M  V30 3787 N 354.476 -1.8527 -4.70647 0
M  V30 3788 C 352.774 -0.525145 -4.42898 0
M  V30 3789 C 353.475 -2.44089 -5.28011 0
M  V30 3790 N 352.451 -1.72556 -5.15486 0
M  V30 3791 H 356.253 -1.34678 -2.61226 0
M  V30 3792 H 353.767 -0.832196 -1.39457 0
M  V30 3793 H 355.764 0.598184 -4.12586 0
M  V30 3794 H 354.424 1.09195 -3.05788 0
M  V30 3795 H 355.435 -2.2341 -4.67235 0
M  V30 3796 H 352.112 0.296096 -4.16449 0
M  V30 3797 H 353.502 -3.40259 -5.79374 0
M  V30 3798 N 356.222 1.38976 -0.743202 0
M  V30 3799 C 357.447 2.05161 -0.303936 0
M  V30 3800 C 357.872 1.55677 1.05576 0
M  V30 3801 O 357.23 0.704131 1.67068 0
M  V30 3802 C 357.278 3.59138 -0.324373 0
M  V30 3803 O 356.382 4.06668 0.685204 0
M  V30 3804 H 355.723 0.649815 -0.136518 0
M  V30 3805 H 358.253 1.77852 -1.01142 0
M  V30 3806 H 358.263 4.07639 -0.171618 0
M  V30 3807 H 356.938 3.94515 -1.31647 0
M  V30 3808 H 355.515 3.69561 0.497913 0
M  V30 3809 N 357.7 0.491464 1.49741 0
M  V30 3810 C 358.63 -0.28154 2.31796 0
M  V30 3811 C 359.611 -0.971473 1.3963 0
M  V30 3812 O 360.796 -0.964719 1.68543 0
M  V30 3813 C 357.926 -1.35203 3.19902 0
M  V30 3814 C 356.88 -0.782529 4.20786 0
M  V30 3815 C 356.206 -1.95283 4.97764 0
M  V30 3816 C 357.506 0.21999 5.21837 0
M  V30 3817 H 359.2 0.403355 2.96671 0
M  V30 3818 H 356.746 0.195425 1.42668 0
M  V30 3819 H 358.699 -1.90045 3.76113 0
M  V30 3820 H 357.423 -2.06598 2.52953 0
M  V30 3821 H 356.082 -0.255928 3.65706 0
M  V30 3822 H 355.73 -2.65423 4.2727 0
M  V30 3823 H 355.43 -1.57789 5.66018 0
M  V30 3824 H 356.954 -2.50577 5.56816 0
M  V30 3825 H 358.368 -0.23996 5.72798 0
M  V30 3826 H 356.765 0.51026 5.97927 0
M  V30 3827 H 357.835 1.13911 4.7133 0
M  V30 3828 N 359.178 -1.55987 0.224894 0
M  V30 3829 C 360.406 -2.02784 -0.410665 0
M  V30 3830 C 360.821 -1.10464 -1.53112 0
M  V30 3831 O 360.178 -0.114871 -1.82138 0
M  V30 3832 C 360.229 -3.49087 -0.939165 0
M  V30 3833 O 359.95 -4.37887 0.136614 0
M  V30 3834 C 361.451 -4.11543 -1.64763 0
M  V30 3835 H 358.671 -0.663484 -0.100148 0
M  V30 3836 H 361.215 -2.01614 0.342326 0
M  V30 3837 H 359.37 -3.50861 -1.64242 0
M  V30 3838 H 359.784 -5.23849 -0.261155 0
M  V30 3839 H 361.258 -5.15673 -1.96939 0
M  V30 3840 H 361.735 -3.56736 -2.56195 0
M  V30 3841 H 362.341 -4.13629 -0.989503 0
M  V30 3842 N 360.656 0.0484629 -1.57525 0
M  V30 3843 C 361.933 0.777447 -1.79486 0
M  V30 3844 C 362.313 1.94597 -0.818251 0
M  V30 3845 O 361.661 2.28047 0.143767 0
M  V30 3846 C 361.871 1.22864 -3.26658 0
M  V30 3847 C 363.219 1.65251 -3.91123 0
M  V30 3848 O 364.243 1.32372 -3.3069 0
M  V30 3849 O 363.102 2.26207 -4.97486 0
M  V30 3850 H 360.196 0.374357 -0.737419 0
M  V30 3851 H 362.742 0.0267359 -1.69679 0
M  V30 3852 H 361.514 0.393589 -3.89316 0
M  V30 3853 H 361.137 2.03996 -3.41279 0
M  V30 3854 N 362.134 1.5431 0.320358 0
M  V30 3855 C 363.064 1.86912 1.3995 0
M  V30 3856 C 364.045 0.726211 1.53819 0
M  V30 3857 O 365.23 0.980233 1.67646 0
M  V30 3858 C 362.36 2.09932 2.7667 0
M  V30 3859 C 361.314 3.25776 2.77586 0
M  V30 3860 C 360.64 3.34173 4.17412 0
M  V30 3861 C 361.94 4.6335 2.41048 0
M  V30 3862 H 363.634 2.77292 1.12914 0
M  V30 3863 H 361.18 1.33421 0.541738 0
M  V30 3864 H 363.133 2.31324 3.52232 0
M  V30 3865 H 361.857 1.16304 3.0519 0
M  V30 3866 H 360.516 3.04276 2.04479 0
M  V30 3867 H 360.164 2.38098 4.43078 0
M  V30 3868 H 359.864 4.12033 4.18931 0
M  V30 3869 H 361.388 3.57803 4.94782 0
M  V30 3870 H 362.802 4.84602 3.06324 0
M  V30 3871 H 361.199 5.43782 2.53813 0
M  V30 3872 H 362.269 4.65381 1.36193 0
M  V30 3873 N 363.613 -0.582584 1.46437 0
M  V30 3874 C 364.841 -1.36682 1.55324 0
M  V30 3875 C 365.256 -1.87796 0.194409 0
M  V30 3876 O 364.613 -1.63623 -0.808318 0
M  V30 3877 C 364.664 -2.55426 2.55812 0
M  V30 3878 O 364.385 -2.0643 3.86417 0
M  V30 3879 C 365.886 -3.47976 2.74641 0
M  V30 3880 H 363.106 -0.417545 0.525259 0
M  V30 3881 H 365.65 -0.708219 1.91845 0
M  V30 3882 H 363.805 -3.17275 2.22295 0
M  V30 3883 H 364.219 -2.83762 4.41111 0
M  V30 3884 H 365.693 -4.27775 3.48874 0
M  V30 3885 H 366.17 -3.99919 1.81553 0
M  V30 3886 H 366.776 -2.91962 3.09255 0
M  V30 3887 N 365.091 -1.34144 -0.827227 0
M  V30 3888 C 366.507 -1.13732 -1.11969 0
M  V30 3889 C 366.707 0.0640463 -2.01398 0
M  V30 3890 O 365.763 0.740856 -2.41387 0
M  V30 3891 C 367.076 -2.43047 -1.77055 0
M  V30 3892 C 368.624 -2.49063 -1.89569 0
M  V30 3893 C 369.099 -3.78369 -2.58072 0
M  V30 3894 N 370.59 -3.79505 -2.65575 0
M  V30 3895 C 371.325 -4.76274 -3.19297 0
M  V30 3896 N 370.821 -5.83424 -3.73616 0
M  V30 3897 N 372.614 -4.63735 -3.17658 0
M  V30 3898 H 364.765 -2.11126 -0.232296 0
M  V30 3899 H 367.028 -0.933424 -0.165602 0
M  V30 3900 H 366.734 -3.31025 -1.18807 0
M  V30 3901 H 366.608 -2.56066 -2.76966 0
M  V30 3902 H 368.995 -1.61527 -2.46968 0
M  V30 3903 H 369.076 -2.39975 -0.885745 0
M  V30 3904 H 368.72 -4.66293 -2.01329 0
M  V30 3905 H 368.65 -3.84737 -3.59562 0
M  V30 3906 H 371.141 -3.02074 -2.27068 0
M  V30 3907 H 371.454 -6.53282 -4.12846 0
M  V30 3908 H 369.799 -5.87143 -3.71871 0
M  V30 3909 H 372.99 -3.79177 -2.74486 0
M  V30 3910 H 373.163 -5.39318 -3.59221 0
M  V30 3911 N 366.569 1.04691 -1.17803 0
M  V30 3912 C 367.816 1.77782 -0.969532 0
M  V30 3913 C 368.144 1.87926 0.501401 0
M  V30 3914 O 367.399 1.37918 1.38842 0
M  V30 3915 C 367.698 3.21467 -1.56186 0
M  V30 3916 C 367.364 3.3137 -3.05786 0
M  V30 3917 C 366.026 3.3378 -3.46619 0
M  V30 3918 C 368.378 3.31976 -4.01797 0
M  V30 3919 C 365.706 3.34431 -4.82051 0
M  V30 3920 C 368.058 3.34167 -5.37136 0
M  V30 3921 C 366.722 3.34866 -5.77426 0
M  V30 3922 H 365.992 0.650549 -0.354777 0
M  V30 3923 H 368.639 1.23006 -1.46772 0
M  V30 3924 H 366.944 3.79203 -0.985515 0
M  V30 3925 H 368.641 3.76652 -1.37602 0
M  V30 3926 H 365.231 3.3021 -2.73238 0
M  V30 3927 H 369.415 3.29311 -3.71306 0
M  V30 3928 H 364.671 3.33285 -5.12573 0
M  V30 3929 H 368.845 3.33585 -6.11305 0
M  V30 3930 H 366.472 3.35124 -6.82346 0
M  V30 3931 N 368.047 0.979072 1.23499 0
M  V30 3932 C 369.463 0.687475 1.44034 0
M  V30 3933 C 369.663 -0.746801 1.8715 0
M  V30 3934 O 368.719 -1.51939 2.0167 0
M  V30 3935 C 370.032 1.68127 2.49307 0
M  V30 3936 C 371.58 1.69516 2.63122 0
M  V30 3937 C 372.055 2.67723 3.71603 0
M  V30 3938 N 373.546 2.66233 3.79044 0
M  V30 3939 C 374.281 3.38891 4.62537 0
M  V30 3940 N 373.777 4.21103 5.50131 0
M  V30 3941 N 375.57 3.27661 4.56721 0
M  V30 3942 H 367.721 1.90559 0.938135 0
M  V30 3943 H 369.984 0.821051 0.473897 0
M  V30 3944 H 369.69 2.70693 2.2454 0
M  V30 3945 H 369.564 1.46306 3.4767 0
M  V30 3946 H 371.951 0.676561 2.8724 0
M  V30 3947 H 372.032 1.95404 1.65079 0
M  V30 3948 H 371.676 3.69724 3.48233 0
M  V30 3949 H 371.606 2.39111 4.69184 0
M  V30 3950 H 374.097 2.06568 3.16446 0
M  V30 3951 H 374.41 4.73403 6.10827 0
M  V30 3952 H 372.755 4.25195 5.49759 0
M  V30 3953 H 375.946 2.62887 3.87309 0
M  V30 3954 H 376.119 3.84547 5.21562 0
M  V30 3955 N 369.525 -1.3858 0.750561 0
M  V30 3956 C 370.455 -2.33102 0.136237 0
M  V30 3957 C 371.436 -1.54713 -0.706965 0
M  V30 3958 O 372.621 -1.83043 -0.648769 0
M  V30 3959 C 369.751 -3.38882 -0.760017 0
M  V30 3960 C 368.705 -4.27995 -0.0197785 0
M  V30 3961 C 368.031 -5.24605 -1.03408 0
M  V30 3962 C 369.331 -5.09554 1.14684 0
M  V30 3963 H 371.025 -2.84726 0.925822 0
M  V30 3964 H 368.571 -1.36898 0.446654 0
M  V30 3965 H 370.524 -4.0397 -1.19943 0
M  V30 3966 H 369.248 -2.85734 -1.58189 0
M  V30 3967 H 367.907 -3.64409 0.400184 0
M  V30 3968 H 367.555 -4.67746 -1.84994 0
M  V30 3969 H 367.255 -5.85081 -0.543464 0
M  V30 3970 H 368.779 -5.9257 -1.47288 0
M  V30 3971 H 370.193 -5.67899 0.785118 0
M  V30 3972 H 368.59 -5.7925 1.56812 0
M  V30 3973 H 369.66 -4.4347 1.96118 0
M  V30 3974 N 371.003 -0.499398 -1.49478 0
M  V30 3975 C 372.228 0.044722 -2.07352 0
M  V30 3976 C 372.653 1.30207 -1.35749 0
M  V30 3977 O 372.011 1.76516 -0.413732 0
M  V30 3978 C 372.059 0.283013 -3.59488 0
M  V30 3979 O 371.163 1.35804 -3.89398 0
M  V30 3980 H 370.504 -0.0255147 -0.66351 0
M  V30 3981 H 373.034 -0.698561 -1.92305 0
M  V30 3982 H 373.044 0.515007 -4.04737 0
M  V30 3983 H 371.719 -0.635636 -4.11014 0
M  V30 3984 H 370.296 1.11113 -3.55961 0
M  V30 3985 N 372.481 1.55866 -0.233164 0
M  V30 3986 C 373.413 2.18099 0.704668 0
M  V30 3987 C 374.426 1.15334 1.14899 0
M  V30 3988 O 375.615 1.42262 1.07814 0
M  V30 3989 C 372.715 2.7592 1.96777 0
M  V30 3990 C 371.888 4.03969 1.67713 0
M  V30 3991 C 370.947 4.46242 2.78845 0
M  V30 3992 O 369.973 5.12903 2.46818 0
M  V30 3993 N 371.175 4.12886 4.08051 0
M  V30 3994 H 373.94 2.99205 0.172258 0
M  V30 3995 H 371.501 1.61815 -0.0525945 0
M  V30 3996 H 373.493 3.01165 2.70337 0
M  V30 3997 H 372.063 1.99051 2.41034 0
M  V30 3998 H 371.283 3.86459 0.777391 0
M  V30 3999 H 372.571 4.8748 1.4574 0
M  V30 4000 H 371.969 3.59342 4.3691 0
M  V30 4001 H 370.526 4.42997 4.78118 0
M  V30 4002 N 373.959 -0.0401083 1.57549 0
M  V30 4003 C 375.236 -0.767917 1.79896 0
M  V30 4004 C 375.616 -1.9416 0.82856 0
M  V30 4005 O 374.964 -2.2812 -0.131671 0
M  V30 4006 C 375.174 -1.2113 3.27305 0
M  V30 4007 C 376.522 -1.63175 3.91994 0
M  V30 4008 O 377.546 -1.30616 3.31388 0
M  V30 4009 O 376.405 -2.23565 4.98679 0
M  V30 4010 H 373.499 -0.370441 0.739393 0
M  V30 4011 H 376.045 -0.017737 1.69691 0
M  V30 4012 H 374.817 -0.372937 3.89519 0
M  V30 4013 H 374.44 -2.02183 3.42356 0
M  V30 4014 N 375.437 -1.54477 -0.31217 0
M  V30 4015 C 376.714 -1.63891 -1.06767 0
M  V30 4016 C 377.094 -0.480028 -2.0557 0
M  V30 4017 O 376.442 0.524487 -2.22399 0
M  V30 4018 C 376.652 -3.01402 -1.75948 0
M  V30 4019 C 378 -3.57838 -2.28554 0
M  V30 4020 O 379.024 -3.03782 -1.85998 0
M  V30 4021 O 377.883 -4.52462 -3.06497 0
M  V30 4022 H 374.977 -0.664125 -0.492816 0
M  V30 4023 H 377.523 -1.66823 -0.311149 0
M  V30 4024 H 376.295 -3.77187 -1.04144 0
M  V30 4025 H 375.918 -3.02199 -2.58383 0
M  V30 4026 N 376.915 0.57481 -1.46744 0
M  V30 4027 C 378.164 1.32898 -1.51727 0
M  V30 4028 C 378.477 1.948 -0.176692 0
M  V30 4029 O 379.683 2.71299 -0.104385 0
M  V30 4030 C 378.139 2.40901 -2.67385 0
M  V30 4031 C 377.747 1.85266 -4.07898 0
M  V30 4032 C 379.491 3.17609 -2.81646 0
M  V30 4033 C 377.398 2.90945 -5.14883 0
M  V30 4034 H 376.328 0.499631 -0.564699 0
M  V30 4035 H 378.979 0.612536 -1.72975 0
M  V30 4036 H 377.361 3.15379 -2.39483 0
M  V30 4037 H 378.535 1.17278 -4.45626 0
M  V30 4038 H 376.85 1.21199 -3.98371 0
M  V30 4039 H 379.447 3.96493 -3.58744 0
M  V30 4040 H 379.79 3.70696 -1.89448 0
M  V30 4041 H 380.323 2.50239 -3.09233 0
M  V30 4042 H 377.062 2.42736 -6.089 0
M  V30 4043 H 376.582 3.57398 -4.81691 0
M  V30 4044 H 378.261 3.54755 -5.41071 0
M  V30 4045 N 378.394 1.34581 0.820102 0
M  V30 4046 C 379.342 1.26401 1.95258 0
M  V30 4047 C 380.336 0.161553 1.68628 0
M  V30 4048 O 381.542 0.326703 1.7701 0
M  V30 4049 H 377.917 0.392749 0.64129 0
M  V30 4050 H 379.888 2.22105 1.99279 0
M  V30 4051 C 378.637 1.03919 3.31807 0
M  V30 4052 H 377.96 1.87984 3.52848 0
M  V30 4053 H 379.4 1.02232 4.11491 0
M  V30 4054 C 377.859 -0.257433 3.35915 0
M  V30 4055 O 378.389 -1.25784 3.81499 0
M  V30 4056 N 376.595 -0.291524 2.89134 0
M  V30 4057 H 376.142 0.523161 2.52232 0
M  V30 4058 H 376.1 -1.15883 2.92264 0
M  V30 4059 N 379.872 -1.04064 1.18357 0
M  V30 4060 C 381.12 -1.76915 0.977013 0
M  V30 4061 C 381.441 -1.88624 -0.494577 0
M  V30 4062 O 380.711 -1.41125 -1.3587 0
M  V30 4063 H 379.291 -0.65535 0.358504 0
M  V30 4064 H 381.953 -1.25592 1.49039 0
M  V30 4065 H 381.049 -2.78178 1.41504 0
M  V30 4066 N 381.35 -0.985608 -1.22978 0
M  V30 4067 C 382.599 -0.652881 -1.90841 0
M  V30 4068 C 382.912 0.817842 -1.77681 0
M  V30 4069 O 384.118 1.26185 -2.40395 0
M  V30 4070 C 382.574 -1.11717 -3.42122 0
M  V30 4071 C 382.182 -2.6126 -3.63933 0
M  V30 4072 C 383.926 -0.85843 -4.1573 0
M  V30 4073 C 381.833 -3.0133 -5.08876 0
M  V30 4074 H 380.763 -0.240491 -0.714619 0
M  V30 4075 H 383.414 -1.1942 -1.39324 0
M  V30 4076 H 381.796 -0.504027 -3.92779 0
M  V30 4077 H 382.97 -3.27858 -3.23799 0
M  V30 4078 H 381.285 -2.84937 -3.03644 0
M  V30 4079 H 383.882 -1.13359 -5.22546 0
M  V30 4080 H 384.225 0.205461 -4.15793 0
M  V30 4081 H 384.758 -1.43341 -3.71077 0
M  V30 4082 H 381.497 -4.06864 -5.13947 0
M  V30 4083 H 381.017 -2.3943 -5.49939 0
M  V30 4084 H 382.696 -2.92224 -5.77247 0
M  V30 4085 N 382.828 1.3818 -0.7579 0
M  V30 4086 C 383.76 2.2901 -0.0932177 0
M  V30 4087 C 384.773 1.47958 0.679136 0
M  V30 4088 O 385.962 1.70773 0.519514 0
M  V30 4089 C 383.062 3.26953 0.89192 0
M  V30 4090 C 382.235 4.37045 0.176303 0
M  V30 4091 C 381.294 5.15148 1.07281 0
M  V30 4092 O 380.32 5.66616 0.541728 0
M  V30 4093 N 381.522 5.28542 2.40049 0
M  V30 4094 H 384.287 2.86694 -0.873303 0
M  V30 4095 H 381.848 1.50007 -0.609054 0
M  V30 4096 H 383.84 3.76083 1.49479 0
M  V30 4097 H 382.41 2.70136 1.57306 0
M  V30 4098 H 381.63 3.89493 -0.607328 0
M  V30 4099 H 382.918 5.07801 -0.318718 0
M  V30 4100 H 382.316 4.88285 2.85647 0
M  V30 4101 H 380.873 5.8103 2.95376 0
M  V30 4102 N 384.306 0.507319 1.49211 0
M  V30 4103 C 385.531 -0.033725 2.07373 0
M  V30 4104 C 385.956 -1.29485 1.36437 0
M  V30 4105 O 385.314 -1.76294 0.423087 0
M  V30 4106 C 385.362 -0.263945 3.59633 0
M  V30 4107 O 384.466 -1.33737 3.90113 0
M  V30 4108 H 383.807 0.0290331 0.663365 0
M  V30 4109 H 386.337 0.708749 1.91932 0
M  V30 4110 H 386.347 -0.493536 4.05004 0
M  V30 4111 H 385.022 0.657424 4.10671 0
M  V30 4112 H 383.599 -1.09224 3.56545 0
M  V30 4113 N 385.784 -1.5574 0.241426 0
M  V30 4114 C 386.714 -2.24133 -0.654722 0
M  V30 4115 C 387.695 -1.21974 -1.1856 0
M  V30 4116 O 388.88 -1.50612 -1.22595 0
M  V30 4117 C 386.01 -2.93659 -1.85423 0
M  V30 4118 C 384.964 -4.0246 -1.45636 0
M  V30 4119 C 384.29 -4.59383 -2.73626 0
M  V30 4120 C 385.59 -5.18468 -0.631506 0
M  V30 4121 H 387.284 -2.99281 -0.0844353 0
M  V30 4122 H 384.83 -1.43947 -0.0391707 0
M  V30 4123 H 386.783 -3.40203 -2.48676 0
M  V30 4124 H 385.507 -2.15991 -2.44981 0
M  V30 4125 H 384.166 -3.56676 -0.847202 0
M  V30 4126 H 383.814 -3.78422 -3.3137 0
M  V30 4127 H 383.514 -5.32826 -2.4773 0
M  V30 4128 H 385.038 -5.08658 -3.37786 0
M  V30 4129 H 386.452 -5.61272 -1.1682 0
M  V30 4130 H 384.849 -5.98266 -0.468831 0
M  V30 4131 H 385.919 -4.8358 0.357506 0
M  V30 4132 N 387.262 0.0317525 -1.57568 0
M  V30 4133 C 388.492 0.733884 -1.93126 0
M  V30 4134 C 388.9 1.69563 -0.839352 0
M  V30 4135 O 388.243 1.82681 0.193175 0
M  V30 4136 C 388.305 1.54798 -3.24465 0
M  V30 4137 C 387.969 0.751304 -4.50782 0
M  V30 4138 C 388.966 0.0527632 -5.19873 0
M  V30 4139 C 386.651 0.706639 -4.97305 0
M  V30 4140 C 388.645 -0.679774 -6.33765 0
M  V30 4141 C 386.332 -0.0296449 -6.11093 0
M  V30 4142 C 387.33 -0.721614 -6.79177 0
M  V30 4143 O 387.018 -1.44595 -7.90789 0
M  V30 4144 H 386.75 0.211459 -0.642076 0
M  V30 4145 H 389.304 -0.00585615 -2.05399 0
M  V30 4146 H 387.534 2.33147 -3.08512 0
M  V30 4147 H 389.223 2.13247 -3.4537 0
M  V30 4148 H 389.989 0.0783188 -4.84937 0
M  V30 4149 H 385.868 1.23474 -4.44157 0
M  V30 4150 H 389.412 -1.22042 -6.86842 0
M  V30 4151 H 385.309 -0.0571331 -6.45475 0
M  V30 4152 H 386.077 -1.35935 -8.07133 0
M  V30 4153 N 388.74 1.54641 0.303973 0
M  V30 4154 C 389.988 1.73437 1.0375 0
M  V30 4155 C 390.309 0.521449 1.87899 0
M  V30 4156 O 389.579 -0.46432 1.90318 0
M  V30 4157 H 388.159 0.639518 0.386039 0
M  V30 4158 H 390.821 1.91988 0.335675 0
M  V30 4159 H 389.917 2.62235 1.69231 0
M  V30 4160 N 390.218 -0.567019 1.47046 0
M  V30 4161 C 391.629 -1.14916 1.47143 0
M  V30 4162 C 391.98 -1.94954 0.220767 0
M  V30 4163 O 391.105 -2.05602 -0.67505 0
M  V30 4164 C 391.7 -2.09069 2.666 0
M  V30 4165 C 390.259 -2.62575 2.69687 0
M  V30 4166 C 389.406 -1.38755 2.40088 0
M  V30 4167 H 392.357 -0.354126 1.54699 0
M  V30 4168 H 392.378 -2.92789 2.43011 0
M  V30 4169 H 391.89 -1.50789 3.57609 0
M  V30 4170 H 389.991 -3.24681 1.82792 0
M  V30 4171 H 390.104 -3.04239 3.70102 0
M  V30 4172 H 388.468 -1.69098 1.90468 0
M  V30 4173 H 389.251 -0.822822 3.33293 0
M  V30 4174 N 391.696 -1.35014 -0.812953 0
M  V30 4175 C 393.107 -1.25035 -1.38648 0
M  V30 4176 C 393.458 0.119967 -1.95833 0
M  V30 4177 O 392.583 1.02069 -1.90816 0
M  V30 4178 C 393.178 -2.26394 -2.52054 0
M  V30 4179 C 391.737 -2.20175 -3.05287 0
M  V30 4180 C 390.884 -2.12451 -1.78213 0
M  V30 4181 H 393.835 -1.46235 -0.616516 0
M  V30 4182 H 393.856 -1.88672 -3.30429 0
M  V30 4183 H 393.368 -3.26116 -2.10404 0
M  V30 4184 H 391.469 -1.23841 -3.51417 0
M  V30 4185 H 391.582 -3.11863 -3.63701 0
M  V30 4186 H 389.946 -1.58328 -1.9951 0
M  V30 4187 H 390.729 -3.14024 -1.38723 0
M  V30 4188 N 393.175 1.03435 -1.18907 0
M  V30 4189 C 394.586 1.58195 -0.991523 0
M  V30 4190 C 394.937 1.90801 0.457081 0
M  V30 4191 O 394.062 1.70272 1.33553 0
M  V30 4192 C 394.657 2.87432 -1.79355 0
M  V30 4193 C 393.216 3.38785 -1.64017 0
M  V30 4194 C 392.363 2.12292 -1.78402 0
M  V30 4195 H 395.314 0.860299 -1.33359 0
M  V30 4196 H 395.335 3.58096 -1.28638 0
M  V30 4197 H 394.847 2.63669 -2.84781 0
M  V30 4198 H 392.948 3.67547 -0.611536 0
M  V30 4199 H 393.061 4.12186 -2.44212 0
M  V30 4200 H 391.425 2.23901 -1.2141 0
M  V30 4201 H 392.208 1.90977 -2.85277 0
M  V30 4202 N 394.653 0.992116 1.22453 0
M  V30 4203 C 395.93 0.583508 1.86694 0
M  V30 4204 C 396.31 -0.9392 1.89056 0
M  V30 4205 O 395.658 -1.82081 1.38053 0
M  V30 4206 C 395.868 1.20304 3.2761 0
M  V30 4207 C 397.216 1.30308 4.0411 0
M  V30 4208 O 398.24 1.15737 3.36873 0
M  V30 4209 O 397.099 1.53615 5.24466 0
M  V30 4210 H 394.193 0.198129 0.802916 0
M  V30 4211 H 396.739 1.08794 1.30238 0
M  V30 4212 H 395.511 2.24461 3.2052 0
M  V30 4213 H 395.134 0.684144 3.9167 0
M  V30 4214 N 396.131 -1.37776 0.765217 0
M  V30 4215 C 397.356 -2.04651 0.336537 0
M  V30 4216 C 397.781 -1.57337 -1.03086 0
M  V30 4217 O 397.139 -0.730621 -1.65927 0
M  V30 4218 C 397.187 -3.58577 0.381468 0
M  V30 4219 O 396.291 -4.07706 -0.62042 0
M  V30 4220 H 395.632 -0.64756 0.146838 0
M  V30 4221 H 398.162 -1.76221 1.03959 0
M  V30 4222 H 398.172 -4.07314 0.236448 0
M  V30 4223 H 396.847 -3.9237 1.37907 0
M  V30 4224 H 395.424 -3.70306 -0.439056 0
M  V30 4225 N 397.609 -0.515225 -1.4894 0
M  V30 4226 C 399.02 -0.0710067 -1.86565 0
M  V30 4227 C 399.371 1.34733 -1.42623 0
M  V30 4228 O 398.496 2.00653 -0.810379 0
M  V30 4229 C 399.091 -0.122083 -3.3858 0
M  V30 4230 C 397.65 0.266863 -3.75453 0
M  V30 4231 C 396.797 -0.488376 -2.72966 0
M  V30 4232 H 399.748 -0.727266 -1.41055 0
M  V30 4233 H 399.769 0.669818 -3.74558 0
M  V30 4234 H 399.281 -1.15448 -3.70531 0
M  V30 4235 H 397.382 1.30196 -3.49113 0
M  V30 4236 H 397.495 -0.0624811 -4.79059 0
M  V30 4237 H 395.859 0.0635622 -2.54621 0
M  V30 4238 H 396.642 -1.52113 -3.07761 0
M  V30 4239 N 399.087 1.5561 -0.249682 0
M  V30 4240 C 399.997 2.25143 0.659375 0
M  V30 4241 C 401.013 1.2685 1.19101 0
M  V30 4242 O 402.189 1.59732 1.22669 0
M  V30 4243 C 399.254 2.93945 1.8384 0
M  V30 4244 C 398.315 4.07655 1.34596 0
M  V30 4245 C 397.548 4.73167 2.46878 0
M  V30 4246 O 397.771 4.37768 3.65671 0
M  V30 4247 O 396.705 5.61623 2.16478 0
M  V30 4248 H 400.531 3.03545 0.0968698 0
M  V30 4249 H 398.116 1.49389 -0.018074 0
M  V30 4250 H 399.998 3.37271 2.52638 0
M  V30 4251 H 398.673 2.18481 2.38847 0
M  V30 4252 H 397.58 3.68839 0.625174 0
M  V30 4253 H 398.913 4.84946 0.841941 0
M  V30 4254 N 400.565 -0.0233959 1.57583 0
M  V30 4255 C 401.793 -0.724682 1.93794 0
M  V30 4256 C 402.208 -1.68588 0.849912 0
M  V30 4257 O 401.565 -1.81676 -0.173204 0
M  V30 4258 C 401.616 -1.47684 3.29957 0
M  V30 4259 O 401.337 -0.554222 4.3458 0
M  V30 4260 C 402.838 -2.27477 3.80485 0
M  V30 4261 H 400.058 -0.203317 0.639455 0
M  V30 4262 H 402.602 0.0207653 2.04489 0
M  V30 4263 H 400.757 -2.17412 3.20641 0
M  V30 4264 H 401.171 -1.08232 5.13212 0
M  V30 4265 H 402.645 -2.7564 4.78254 0
M  V30 4266 H 403.122 -3.09144 3.11972 0
M  V30 4267 H 403.728 -1.62813 3.92902 0
M  V30 4268 N 402.043 -1.548 -0.295768 0
M  V30 4269 C 403.454 -1.65274 -0.868411 0
M  V30 4270 C 403.805 -0.56481 -1.87894 0
M  V30 4271 O 402.93 0.29767 -2.14343 0
M  V30 4272 C 403.525 -2.99603 -1.58188 0
M  V30 4273 C 402.084 -3.12181 -2.10286 0
M  V30 4274 C 401.231 -2.6098 -0.93727 0
M  V30 4275 H 404.182 -1.58534 -0.0726422 0
M  V30 4276 H 404.203 -2.91319 -2.44772 0
M  V30 4277 H 403.715 -3.78764 -0.846151 0
M  V30 4278 H 401.816 -2.3775 -2.8689 0
M  V30 4279 H 401.929 -4.18415 -2.33379 0
M  V30 4280 H 400.293 -2.17564 -1.32431 0
M  V30 4281 H 401.076 -3.42623 -0.215414 0
M  V30 4282 N 403.521 0.559213 -1.47345 0
M  V30 4283 C 404.451 1.67622 -1.62558 0
M  V30 4284 C 405.432 1.63331 -0.475087 0
M  V30 4285 O 406.617 1.80983 -0.704182 0
M  V30 4286 C 403.747 3.0626 -1.63774 0
M  V30 4287 C 402.701 3.25397 -2.7803 0
M  V30 4288 C 402.027 4.64801 -2.64318 0
M  V30 4289 C 403.327 3.10965 -4.19641 0
M  V30 4290 H 405.021 1.55146 -2.56067 0
M  V30 4291 H 402.567 0.744961 -1.23233 0
M  V30 4292 H 404.52 3.84247 -1.73008 0
M  V30 4293 H 403.244 3.1969 -0.66825 0
M  V30 4294 H 401.903 2.49817 -2.68304 0
M  V30 4295 H 401.551 4.75028 -1.65401 0
M  V30 4296 H 401.251 4.78555 -3.40968 0
M  V30 4297 H 402.775 5.44926 -2.75478 0
M  V30 4298 H 404.189 3.78772 -4.30354 0
M  V30 4299 H 402.586 3.36229 -4.97062 0
M  V30 4300 H 403.656 2.07736 -4.38148 0
M  V30 4301 N 404.999 1.35443 0.805782 0
M  V30 4302 C 406.245 1.28952 1.56522 0
M  V30 4303 C 406.578 -0.135597 1.93726 0
M  V30 4304 O 405.853 -1.08516 1.61414 0
M  V30 4305 C 406.136 2.19678 2.85331 0
M  V30 4306 C 405.989 3.7081 2.54598 0
M  V30 4307 C 407.308 2.09495 3.8704 0
M  V30 4308 H 404.427 0.469764 0.567883 0
M  V30 4309 H 407.069 1.65851 0.927001 0
M  V30 4310 H 405.219 1.8834 3.39795 0
M  V30 4311 H 406.891 4.12593 2.06312 0
M  V30 4312 H 405.134 3.91051 1.8778 0
M  V30 4313 H 405.805 4.29679 3.46525 0
M  V30 4314 H 408.281 2.37045 3.41978 0
M  V30 4315 H 407.157 2.75173 4.74943 0
M  V30 4316 H 407.418 1.07714 4.28777 0
M  V30 4317 N 406.477 -1.02803 1.19454 0
M  V30 4318 C 407.888 -1.57667 0.999899 0
M  V30 4319 C 408.239 -1.91041 -0.446956 0
M  V30 4320 O 407.364 -1.70978 -1.32648 0
M  V30 4321 C 407.959 -2.86477 1.80877 0
M  V30 4322 C 406.518 -3.37911 1.65811 0
M  V30 4323 C 405.665 -2.11343 1.79526 0
M  V30 4324 H 408.616 -0.853214 1.33813 0
M  V30 4325 H 408.637 -3.57408 1.30536 0
M  V30 4326 H 408.149 -2.62155 2.86175 0
M  V30 4327 H 406.25 -3.67218 0.63102 0
M  V30 4328 H 406.363 -4.10885 2.46395 0
M  V30 4329 H 404.727 -2.23254 1.22596 0
M  V30 4330 H 405.51 -1.89461 2.86285 0
M  V30 4331 N 407.956 -0.998596 -1.21925 0
M  V30 4332 C 409.184 -0.696286 -1.94832 0
M  V30 4333 C 409.599 0.740032 -1.73692 0
M  V30 4334 O 408.956 1.5 -1.03953 0
M  V30 4335 C 409.007 -0.999833 -3.47398 0
M  V30 4336 O 408.728 -2.37972 -3.67833 0
M  V30 4337 C 410.229 -0.716025 -4.37479 0
M  V30 4338 H 407.449 -0.257111 -0.619786 0
M  V30 4339 H 409.993 -1.33491 -1.54921 0
M  V30 4340 H 408.148 -0.406918 -3.85257 0
M  V30 4341 H 408.562 -2.48338 -4.61983 0
M  V30 4342 H 410.036 -0.978642 -5.43256 0
M  V30 4343 H 410.513 0.349968 -4.37803 0
M  V30 4344 H 411.119 -1.29025 -4.05256 0
M  V30 4345 N 409.434 1.37368 -0.772513 0
M  V30 4346 C 410.344 2.34053 -0.160081 0
M  V30 4347 C 411.36 1.60216 0.678728 0
M  V30 4348 O 412.536 1.92303 0.59847 0
M  V30 4349 C 409.601 3.3939 0.708182 0
M  V30 4350 C 408.662 4.29048 -0.147172 0
M  V30 4351 C 407.895 5.29354 0.679744 0
M  V30 4352 O 408.118 5.3723 1.91678 0
M  V30 4353 O 407.052 6.01835 0.0885444 0
M  V30 4354 H 410.878 2.88159 -0.959053 0
M  V30 4355 H 408.463 1.39543 -0.533685 0
M  V30 4356 H 410.345 4.03839 1.20384 0
M  V30 4357 H 409.02 2.8761 1.48533 0
M  V30 4358 H 407.927 3.67697 -0.689205 0
M  V30 4359 H 409.26 4.84134 -0.887423 0
M  V30 4360 N 410.912 0.523116 1.48665 0
M  V30 4361 C 412.323 0.0808997 1.86525 0
M  V30 4362 C 412.674 -1.33975 1.43336 0
M  V30 4363 O 411.799 -2.00221 0.821009 0
M  V30 4364 C 412.394 0.140037 3.3851 0
M  V30 4365 C 410.953 -0.246948 3.75589 0
M  V30 4366 C 410.1 0.502845 2.72703 0
M  V30 4367 H 413.051 0.734736 1.40667 0
M  V30 4368 H 413.072 -0.649945 3.74908 0
M  V30 4369 H 412.584 1.17412 3.69914 0
M  V30 4370 H 410.685 -1.28343 3.49798 0
M  V30 4371 H 410.798 0.0878859 4.79019 0
M  V30 4372 H 409.162 -0.0500581 2.54651 0
M  V30 4373 H 409.945 1.53743 3.0695 0
M  V30 4374 N 412.39 -1.55475 0.257931 0
M  V30 4375 C 413.636 -1.99502 -0.364266 0
M  V30 4376 C 413.969 -1.146 -1.56782 0
M  V30 4377 O 413.244 -0.211968 -1.93342 0
M  V30 4378 C 413.527 -3.51917 -0.763333 0
M  V30 4379 C 413.38 -4.4758 0.446371 0
M  V30 4380 C 414.699 -4.09742 -1.60623 0
M  V30 4381 H 411.818 -0.725277 -0.130929 0
M  V30 4382 H 414.46 -1.8653 0.361446 0
M  V30 4383 H 412.61 -3.63101 -1.38166 0
M  V30 4384 H 414.282 -4.48362 1.08487 0
M  V30 4385 H 412.525 -4.19947 1.08753 0
M  V30 4386 H 413.196 -5.51862 0.123645 0
M  V30 4387 H 415.672 -4.01727 -1.08418 0
M  V30 4388 H 414.548 -5.16631 -1.85429 0
M  V30 4389 H 414.809 -3.58889 -2.58169 0
M  V30 4390 N 413.868 0.0150385 -1.57593 0
M  V30 4391 C 415.279 0.559832 -1.78109 0
M  V30 4392 C 415.63 1.74814 -0.890756 0
M  V30 4393 O 414.755 2.16216 -0.0892482 0
M  V30 4394 C 415.35 1.02238 -3.23006 0
M  V30 4395 C 413.909 1.51258 -3.44671 0
M  V30 4396 C 413.056 0.456955 -2.73509 0
M  V30 4397 H 416.007 -0.211169 -1.57289 0
M  V30 4398 H 416.028 1.88912 -3.30292 0
M  V30 4399 H 415.54 0.157302 -3.87781 0
M  V30 4400 H 413.641 2.39905 -2.8509 0
M  V30 4401 H 413.754 1.55042 -4.5332 0
M  V30 4402 H 412.118 0.915196 -2.37689 0
M  V30 4403 H 412.901 -0.398896 -3.40975 0
M  V30 4404 N 415.346 1.54954 0.287554 0
M  V30 4405 C 416.757 1.65732 0.859634 0
M  V30 4406 C 417.108 0.574767 1.87592 0
M  V30 4407 O 416.233 -0.286299 2.14498 0
M  V30 4408 C 416.828 3.00438 1.56597 0
M  V30 4409 C 415.387 3.13292 2.08627 0
M  V30 4410 C 414.534 2.61473 0.923416 0
M  V30 4411 H 417.485 1.5857 0.0642338 0
M  V30 4412 H 417.506 2.92613 2.43224 0
M  V30 4413 H 417.018 3.79207 0.826053 0
M  V30 4414 H 415.119 2.39268 2.85625 0
M  V30 4415 H 415.232 4.19647 2.31157 0
M  V30 4416 H 413.596 2.18264 1.31275 0
M  V30 4417 H 414.379 3.42733 0.197241 0
M  V30 4418 N 416.824 -0.551391 1.4764 0
M  V30 4419 C 417.734 -1.68525 1.63207 0
M  V30 4420 C 418.75 -1.6621 0.514815 0
M  V30 4421 O 419.926 -1.85551 0.783113 0
M  V30 4422 C 416.991 -3.05025 1.64805 0
M  V30 4423 C 416.052 -3.18362 2.88 0
M  V30 4424 C 415.285 -4.4835 2.89513 0
M  V30 4425 O 415.508 -5.34163 2.00065 0
M  V30 4426 O 414.442 -4.65602 3.81443 0
M  V30 4427 H 418.268 -1.58333 2.59161 0
M  V30 4428 H 415.853 -0.722063 1.30792 0
M  V30 4429 H 417.735 -3.86245 1.68502 0
M  V30 4430 H 416.41 -3.15587 0.720197 0
M  V30 4431 H 415.317 -2.36518 2.89845 0
M  V30 4432 H 416.65 -3.12707 3.80099 0
M  V30 4433 N 418.302 -1.35869 -0.798587 0
M  V30 4434 C 419.713 -1.26498 -1.37314 0
M  V30 4435 C 420.064 0.0991899 -1.95949 0
M  V30 4436 O 419.189 1.0004 -1.91888 0
M  V30 4437 C 419.784 -2.29054 -2.49639 0
M  V30 4438 C 418.343 -2.234 -3.02935 0
M  V30 4439 C 417.49 -2.14329 -1.75949 0
M  V30 4440 H 420.441 -1.46881 -0.600971 0
M  V30 4441 H 420.462 -1.92166 -3.28409 0
M  V30 4442 H 419.974 -3.2833 -2.06933 0
M  V30 4443 H 418.075 -1.27562 -3.50084 0
M  V30 4444 H 418.188 -3.15703 -3.60372 0
M  V30 4445 H 416.552 -1.60435 -1.9782 0
M  V30 4446 H 417.335 -3.15477 -1.35384 0
M  V30 4447 N 419.78 1.02168 -1.19998 0
M  V30 4448 C 421.028 1.75338 -1.00504 0
M  V30 4449 C 421.349 1.89387 0.464506 0
M  V30 4450 O 420.619 1.43268 1.33608 0
M  V30 4451 H 419.199 0.649564 -0.368885 0
M  V30 4452 H 421.861 1.23205 -1.51018 0
M  V30 4453 H 420.957 2.75892 -1.45912 0
M  V30 4454 N 421.258 1.00505 1.21394 0
M  V30 4455 C 422.486 0.706609 1.9446 0
M  V30 4456 C 422.901 -0.73081 1.74082 0
M  V30 4457 O 422.258 -1.49446 1.04747 0
M  V30 4458 C 422.309 1.01824 3.46863 0
M  V30 4459 O 422.03 2.39919 3.66566 0
M  V30 4460 C 423.531 0.739216 4.37093 0
M  V30 4461 H 420.751 0.260394 0.618414 0
M  V30 4462 H 423.295 1.34311 1.54211 0
M  V30 4463 H 421.45 0.427343 3.85036 0
M  V30 4464 H 421.864 2.50784 4.6066 0
M  V30 4465 H 423.338 1.00744 5.42729 0
M  V30 4466 H 423.815 -0.326746 4.37983 0
M  V30 4467 H 424.421 1.31173 4.04566 0
M  V30 4468 N 422.737 -1.36956 0.779787 0
M  V30 4469 C 424.148 -1.82094 0.412156 0
M  V30 4470 C 424.499 -1.64926 -1.06273 0
M  V30 4471 O 423.624 -1.16483 -1.82375 0
M  V30 4472 C 424.219 -3.3059 0.741319 0
M  V30 4473 C 422.778 -3.73974 0.426641 0
M  V30 4474 C 421.925 -2.59368 0.980987 0
M  V30 4475 H 424.876 -1.25314 0.973758 0
M  V30 4476 H 424.897 -3.80489 0.028887 0
M  V30 4477 H 424.409 -3.43054 1.81482 0
M  V30 4478 H 422.51 -3.67076 -0.639215 0
M  V30 4479 H 422.623 -4.69778 0.940515 0
M  V30 4480 H 420.987 -2.51463 0.404757 0
M  V30 4481 H 421.77 -2.74621 2.06005 0
M  V30 4482 N 424.215 -0.530993 -1.48385 0
M  V30 4483 C 425.178 0.220497 -2.28137 0
M  V30 4484 C 426.178 0.866851 -1.35434 0
M  V30 4485 O 427.368 0.726746 -1.58316 0
M  V30 4486 C 424.5 1.31921 -3.1434 0
M  V30 4487 H 425.693 -0.479714 -2.96038 0
M  V30 4488 H 423.246 -0.286968 -1.53643 0
M  V30 4489 H 423.981 2.05264 -2.51072 0
M  V30 4490 H 423.766 0.86085 -3.82533 0
M  V30 4491 H 425.256 1.84776 -3.74497 0
M  V30 4492 N 425.693 1.55336 -0.266172 0
M  V30 4493 C 426.641 2.23587 0.641228 0
M  V30 4494 C 427.635 1.22986 1.16494 0
M  V30 4495 O 428.841 1.40943 1.1196 0
M  V30 4496 H 425.216 0.717452 0.225315 0
M  V30 4497 H 427.187 2.9837 0.0426561 0
M  V30 4498 C 425.936 2.96369 1.81826 0
M  V30 4499 H 425.259 3.73563 1.42445 0
M  V30 4500 H 426.699 3.47459 2.42998 0
M  V30 4501 C 425.158 2.0133 2.70125 0
M  V30 4502 O 425.688 1.55875 3.70224 0
M  V30 4503 N 423.894 1.6802 2.37102 0
M  V30 4504 H 423.441 2.05181 1.55751 0
M  V30 4505 H 423.399 1.047 2.96454 0
M  V30 4506 N 427.171 -0.0066808 1.57599 0
M  V30 4507 C 428.411 -0.697501 1.92131 0
M  V30 4508 C 428.775 -1.71306 0.867071 0
M  V30 4509 O 429.976 -2.45377 1.09743 0
M  V30 4510 C 428.247 -1.32978 3.3174 0
M  V30 4511 S 429.806 -2.04665 3.88146 0
M  V30 4512 H 426.624 -0.230555 0.672581 0
M  V30 4513 H 429.226 0.0484026 1.9544 0
M  V30 4514 H 427.93 -0.57772 4.06313 0
M  V30 4515 H 427.461 -2.11376 3.31789 0
M  V30 4516 H 429.476 -3.32097 3.68682 0
M  V30 4517 N 428.649 -1.55105 -0.279332 0
M  V30 4518 C 429.926 -1.66119 -1.03267 0
M  V30 4519 C 430.306 -0.523525 -2.04505 0
M  V30 4520 O 429.654 0.477194 -2.23462 0
M  V30 4521 C 429.864 -3.05067 -1.69515 0
M  V30 4522 C 431.212 -3.62606 -2.20912 0
M  V30 4523 O 432.236 -3.07659 -1.79512 0
M  V30 4524 O 431.095 -4.58861 -2.96831 0
M  V30 4525 H 428.189 -0.674429 -0.478618 0
M  V30 4526 H 430.735 -1.67446 -0.275694 0
M  V30 4527 H 429.507 -3.79311 -0.9612 0
M  V30 4528 H 429.13 -3.07611 -2.51915 0
M  V30 4529 N 430.127 0.543554 -1.4793 0
M  V30 4530 C 431.538 1.12561 -1.48953 0
M  V30 4531 C 431.889 1.94578 -0.251754 0
M  V30 4532 O 431.014 2.0665 0.642255 0
M  V30 4533 C 431.609 2.04801 -2.69892 0
M  V30 4534 C 430.168 2.58251 -2.73831 0
M  V30 4535 C 429.315 1.34918 -2.42265 0
M  V30 4536 H 432.266 0.32947 -1.55242 0
M  V30 4537 H 432.287 2.88886 -2.47639 0
M  V30 4538 H 431.799 1.4508 -3.59963 0
M  V30 4539 H 429.9 3.21732 -1.87934 0
M  V30 4540 H 430.013 2.98312 -3.74895 0
M  V30 4541 H 428.377 1.66046 -1.93134 0
M  V30 4542 H 429.16 0.769693 -3.3456 0
M  V30 4543 N 431.605 1.3629 0.791371 0
M  V30 4544 C 432.568 1.30309 1.88553 0
M  V30 4545 C 433.568 0.211204 1.59407 0
M  V30 4546 O 434.758 0.465865 1.67855 0
M  V30 4547 C 431.89 1.01956 3.25297 0
M  V30 4548 H 433.083 2.27614 1.95273 0
M  V30 4549 H 430.636 1.21035 0.988953 0
M  V30 4550 H 431.371 0.050998 3.2426 0
M  V30 4551 H 431.156 1.80968 3.4784 0
M  V30 4552 H 432.646 1.0037 4.05359 0
M  V30 4553 N 433.083 -1.0153 1.20538 0
M  V30 4554 C 434.013 -2.11972 0.979295 0
M  V30 4555 C 434.994 -1.6985 -0.0921787 0
M  V30 4556 O 436.179 -1.94089 0.0655932 0
M  V30 4557 C 433.309 -3.43201 0.531984 0
M  V30 4558 C 432.263 -3.9907 1.54685 0
M  V30 4559 C 431.589 -5.26082 0.956127 0
M  V30 4560 C 432.889 -4.32313 2.93092 0
M  V30 4561 H 434.583 -2.31143 1.90298 0
M  V30 4562 H 432.129 -1.11079 0.916372 0
M  V30 4563 H 434.082 -4.1985 0.361044 0
M  V30 4564 H 432.806 -3.23792 -0.427327 0
M  V30 4565 H 431.465 -3.2453 1.70517 0
M  V30 4566 H 431.113 -5.02999 -0.0111538 0
M  V30 4567 H 430.813 -5.64426 1.63393 0
M  V30 4568 H 432.337 -6.05386 0.796284 0
M  V30 4569 H 433.751 -4.99845 2.80763 0
M  V30 4570 H 432.148 -4.81774 3.57791 0
M  V30 4571 H 433.218 -3.41025 3.44717 0
M  V30 4572 N 434.561 -1.01147 -1.20859 0
M  V30 4573 C 435.786 -0.716698 -1.94623 0
M  V30 4574 C 436.211 0.715415 -1.73964 0
M  V30 4575 O 435.569 1.49157 -1.03062 0
M  V30 4576 C 435.617 -1.0513 -3.44935 0
M  V30 4577 O 434.721 -0.160131 -4.12089 0
M  V30 4578 H 434.062 -0.266404 -0.608214 0
M  V30 4579 H 436.592 -1.35346 -1.53436 0
M  V30 4580 H 436.602 -1.00086 -3.95533 0
M  V30 4581 H 435.277 -2.09475 -3.59295 0
M  V30 4582 H 433.854 -0.267657 -3.71938 0
M  V30 4583 N 436.039 1.36541 -0.78704 0
M  V30 4584 C 437.286 1.99304 -0.358341 0
M  V30 4585 C 437.614 1.62467 1.06933 0
M  V30 4586 O 436.869 0.870019 1.75297 0
M  V30 4587 C 437.168 3.54343 -0.466485 0
M  V30 4588 C 436.834 4.10993 -1.85461 0
M  V30 4589 C 435.496 4.26177 -2.23443 0
M  V30 4590 C 437.848 4.41895 -2.76366 0
M  V30 4591 C 435.176 4.69573 -3.51736 0
M  V30 4592 C 437.528 4.86722 -4.04084 0
M  V30 4593 C 436.192 5.00112 -4.42091 0
M  V30 4594 H 435.462 0.729306 -0.131126 0
M  V30 4595 H 438.109 1.63068 -1.00404 0
M  V30 4596 H 436.414 3.90918 0.262719 0
M  V30 4597 H 438.111 4.00833 -0.115854 0
M  V30 4598 H 434.701 3.99612 -1.54946 0
M  V30 4599 H 438.885 4.29735 -2.48277 0
M  V30 4600 H 434.141 4.78127 -3.81057 0
M  V30 4601 H 438.315 5.09598 -4.7464 0
M  V30 4602 H 435.942 5.33498 -5.41557 0
M  V30 4603 N 437.518 0.538854 1.48102 0
M  V30 4604 C 438.795 -0.0568108 1.95517 0
M  V30 4605 C 439.175 -1.50408 1.48124 0
M  V30 4606 O 438.523 -2.17133 0.711727 0
M  V30 4607 C 438.733 0.0696262 3.48931 0
M  V30 4608 C 440.081 -0.0851202 4.24515 0
M  V30 4609 O 441.105 -0.0037347 3.562 0
M  V30 4610 O 439.964 -0.257025 5.45895 0
M  V30 4611 H 437.058 -0.0743695 0.823649 0
M  V30 4612 H 439.604 0.604081 1.58584 0
M  V30 4613 H 438.376 1.07744 3.76174 0
M  V30 4614 H 437.999 -0.629714 3.92582 0
M  V30 4615 N 438.996 -1.55193 0.274407 0
M  V30 4616 C 439.959 -2.212 -0.600279 0
M  V30 4617 C 440.959 -1.18963 -1.08187 0
M  V30 4618 O 442.149 -1.43873 -0.982158 0
M  V30 4619 C 439.281 -2.87739 -1.82809 0
M  V30 4620 H 440.474 -2.9989 -0.0239682 0
M  V30 4621 H 438.027 -1.5628 0.0250192 0
M  V30 4622 H 438.762 -2.13058 -2.44493 0
M  V30 4623 H 438.547 -3.62658 -1.49069 0
M  V30 4624 H 440.037 -3.38171 -2.45011 0
M  V30 4625 N 440.474 -0.00167713 -1.576 0
M  V30 4626 C 441.72 0.683832 -1.90923 0
M  V30 4627 C 442.053 1.7333 -0.875799 0
M  V30 4628 O 441.328 1.94215 0.10525 0
M  V30 4629 C 441.611 1.32543 -3.3482 0
M  V30 4630 C 441.464 0.287387 -4.48881 0
M  V30 4631 C 442.783 2.25114 -3.78169 0
M  V30 4632 H 439.902 0.247125 -0.694333 0
M  V30 4633 H 442.544 -0.0533149 -1.89925 0
M  V30 4634 H 440.694 1.95372 -3.35801 0
M  V30 4635 H 442.366 -0.341346 -4.60035 0
M  V30 4636 H 440.609 -0.39017 -4.32042 0
M  V30 4637 H 441.28 0.775393 -5.46527 0
M  V30 4638 H 443.756 1.723 -3.7875 0
M  V30 4639 H 442.632 2.66971 -4.79602 0
M  V30 4640 H 442.893 3.13092 -3.12131 0
M  V30 4641 N 441.952 1.55251 0.271103 0
M  V30 4642 C 443.177 1.80306 1.02491 0
M  V30 4643 C 443.602 0.575457 1.79081 0
M  V30 4644 O 442.96 -0.474987 1.74967 0
M  V30 4645 C 443.008 3.02832 1.95768 0
M  V30 4646 O 442.112 2.78051 3.04568 0
M  V30 4647 H 441.453 0.595896 0.292923 0
M  V30 4648 H 443.983 2.02397 0.299436 0
M  V30 4649 H 443.993 3.31616 2.37686 0
M  V30 4650 H 442.668 3.9183 1.39434 0
M  V30 4651 H 441.245 2.60369 2.66951 0
M  V30 4652 N 443.43 -0.535701 1.48216 0
M  V30 4653 C 444.658 -1.31671 1.59594 0
M  V30 4654 C 445.073 -1.87083 0.254056 0
M  V30 4655 O 444.43 -1.66112 -0.755854 0
M  V30 4656 C 444.481 -2.47158 2.63809 0
M  V30 4657 O 444.202 -1.94032 3.92789 0
M  V30 4658 C 445.703 -3.39062 2.85573 0
M  V30 4659 H 442.923 -0.400623 0.538277 0
M  V30 4660 H 445.467 -0.646827 1.94001 0
M  V30 4661 H 443.622 -3.10043 2.32276 0
M  V30 4662 H 444.036 -2.69585 4.49916 0
M  V30 4663 H 445.51 -4.16459 3.62306 0
M  V30 4664 H 445.987 -3.93941 1.94184 0
M  V30 4665 H 446.593 -2.81975 3.18387 0
M  V30 4666 N 444.908 -1.36708 -0.784132 0
M  V30 4667 C 445.838 -1.34153 -1.91116 0
M  V30 4668 C 446.819 -0.212121 -1.68772 0
M  V30 4669 O 448.004 -0.410581 -1.8981 0
M  V30 4670 C 445.134 -1.13535 -3.28218 0
M  V30 4671 C 444.088 -2.23356 -3.65097 0
M  V30 4672 C 443.414 -1.87875 -5.00607 0
M  V30 4673 C 444.714 -3.65473 -3.73131 0
M  V30 4674 H 446.408 -2.28459 -1.93512 0
M  V30 4675 H 443.954 -1.09973 -0.929618 0
M  V30 4676 H 445.907 -1.10381 -4.06687 0
M  V30 4677 H 444.631 -0.156804 -3.26223 0
M  V30 4678 H 443.29 -2.25645 -2.88929 0
M  V30 4679 H 442.938 -0.885814 -4.95139 0
M  V30 4680 H 442.638 -2.61406 -5.26252 0
M  V30 4681 H 444.162 -1.86286 -5.81489 0
M  V30 4682 H 445.576 -3.65382 -4.41779 0
M  V30 4683 H 443.973 -4.37953 -4.10265 0
M  V30 4684 H 445.043 -3.99995 -2.74102 0
M  V30 4685 N 446.386 1.0089 -1.21074 0
M  V30 4686 C 447.802 1.2695 -0.967257 0
M  V30 4687 C 448.002 1.9846 0.348673 0
M  V30 4688 O 447.058 2.28459 1.0753 0
M  V30 4689 C 448.371 2.09697 -2.15517 0
M  V30 4690 C 449.919 2.22937 -2.197 0
M  V30 4691 C 450.394 3.09064 -3.37999 0
M  V30 4692 N 451.885 3.16653 -3.38061 0
M  V30 4693 C 452.62 3.8354 -4.26245 0
M  V30 4694 N 452.116 4.52488 -5.2462 0
M  V30 4695 N 453.909 3.80141 -4.14064 0
M  V30 4696 H 446.06 0.529005 -2.05707 0
M  V30 4697 H 448.323 0.296148 -0.900556 0
M  V30 4698 H 448.029 1.64497 -3.10859 0
M  V30 4699 H 447.903 3.10444 -2.14253 0
M  V30 4700 H 450.29 2.67357 -1.24916 0
M  V30 4701 H 450.371 1.21673 -2.2501 0
M  V30 4702 H 450.015 2.65347 -4.33074 0
M  V30 4703 H 449.945 4.10433 -3.29928 0
M  V30 4704 H 452.436 2.67566 -2.66865 0
M  V30 4705 H 452.749 5.01219 -5.88217 0
M  V30 4706 H 451.094 4.51288 -5.28549 0
M  V30 4707 H 454.285 3.25427 -3.36474 0
M  V30 4708 H 454.458 4.31992 -4.82998 0
M  V30 4709 N 447.864 1.01787 1.20321 0
M  V30 4710 C 449.112 0.706538 1.89347 0
M  V30 4711 C 449.433 -0.766289 1.79313 0
M  V30 4712 O 448.703 -1.55126 1.19635 0
M  V30 4713 H 447.283 0.258348 0.700903 0
M  V30 4714 H 449.945 1.28974 1.46122 0
M  V30 4715 H 449.041 0.991066 2.95946 0
M  V30 4716 N 449.342 -1.36122 0.79427 0
M  V30 4717 C 450.252 -2.33769 0.197296 0
M  V30 4718 C 451.268 -1.61276 -0.653153 0
M  V30 4719 O 452.444 -1.9323 -0.5678 0
M  V30 4720 C 449.509 -3.40474 -0.654098 0
M  V30 4721 C 448.57 -4.28759 0.215411 0
M  V30 4722 C 447.803 -5.30368 -0.595443 0
M  V30 4723 O 448.026 -5.40211 -1.83107 0
M  V30 4724 O 446.96 -6.019 0.00721351 0
M  V30 4725 H 450.786 -2.86597 1.00478 0
M  V30 4726 H 448.371 -1.38676 0.555818 0
M  V30 4727 H 450.253 -4.05703 -1.13944 0
M  V30 4728 H 448.928 -2.89937 -1.43938 0
M  V30 4729 H 447.835 -3.66554 0.747615 0
M  V30 4730 H 449.168 -4.82661 0.964332 0
M  V30 4731 N 450.82 -0.546701 -1.47814 0
M  V30 4732 C 452.069 -0.0166497 -2.01693 0
M  V30 4733 C 452.382 1.33721 -1.42752 0
M  V30 4734 O 453.588 1.95658 -1.8823 0
M  V30 4735 C 452.044 0.0206769 -3.59894 0
M  V30 4736 C 451.652 -1.3293 -4.27824 0
M  V30 4737 C 453.396 0.498674 -4.21561 0
M  V30 4738 C 451.303 -1.25165 -5.78003 0
M  V30 4739 H 450.233 -0.0024541 -0.753996 0
M  V30 4740 H 452.884 -0.692984 -1.69912 0
M  V30 4741 H 451.266 0.76244 -3.88591 0
M  V30 4742 H 452.44 -2.08795 -4.10781 0
M  V30 4743 H 450.755 -1.74438 -3.78101 0
M  V30 4744 H 453.352 0.575 -5.31599 0
M  V30 4745 H 453.695 1.5083 -3.88016 0
M  V30 4746 H 454.228 -0.18791 -3.97356 0
M  V30 4747 H 450.967 -2.23695 -6.1615 0
M  V30 4748 H 450.487 -0.53464 -5.97412 0
M  V30 4749 H 452.166 -0.949299 -6.39998 0
M  V30 4750 N 452.299 1.55045 -0.282633 0
M  V30 4751 C 453.229 2.2579 0.595066 0
M  V30 4752 C 454.21 1.25074 1.15284 0
M  V30 4753 O 455.395 1.5381 1.18559 0
M  V30 4754 C 452.525 2.98472 1.77572 0
M  V30 4755 C 451.479 4.0618 1.34914 0
M  V30 4756 C 450.805 4.66477 2.6135 0
M  V30 4757 C 452.105 5.1996 0.493821 0
M  V30 4758 H 453.799 2.994 0.00505653 0
M  V30 4759 H 451.345 1.44 0.000992001 0
M  V30 4760 H 453.298 3.46677 2.39568 0
M  V30 4761 H 452.022 2.2241 2.39168 0
M  V30 4762 H 450.681 3.58797 0.752338 0
M  V30 4763 H 450.329 3.87074 3.2122 0
M  V30 4764 H 450.029 5.39207 2.33516 0
M  V30 4765 H 451.553 5.17435 3.24181 0
M  V30 4766 H 452.967 5.64172 1.01898 0
M  V30 4767 H 451.364 5.99299 0.310047 0
M  V30 4768 H 452.434 4.82462 -0.485593 0
M  V30 4769 N 453.777 0.010035 1.57597 0
M  V30 4770 C 455.026 -0.671945 1.90178 0
M  V30 4771 C 455.339 -1.74376 0.886131 0
M  V30 4772 O 456.545 -2.48107 1.10252 0
M  V30 4773 C 455.001 -1.24636 3.3763 0
M  V30 4774 C 454.609 -0.208838 4.47513 0
M  V30 4775 C 456.353 -1.90595 3.79307 0
M  V30 4776 C 454.26 -0.793814 5.86048 0
M  V30 4777 H 453.19 -0.25474 0.709665 0
M  V30 4778 H 455.841 0.0722206 1.83358 0
M  V30 4779 H 454.223 -2.04152 3.3932 0
M  V30 4780 H 455.397 0.562463 4.57354 0
M  V30 4781 H 453.712 0.350889 4.14919 0
M  V30 4782 H 456.309 -2.35284 4.80151 0
M  V30 4783 H 456.652 -2.74074 3.13352 0
M  V30 4784 H 457.185 -1.17798 3.79958 0
M  V30 4785 H 453.924 0.00240855 6.555 0
M  V30 4786 H 453.444 -1.53404 5.79851 0
M  V30 4787 H 455.123 -1.2894 6.34022 0
M  V30 4788 N 455.255 -1.55392 -0.262866 0
M  V30 4789 C 456.502 -1.76476 -0.993109 0
M  V30 4790 C 456.83 -0.571479 -1.85915 0
M  V30 4791 O 456.085 0.445733 -1.90556 0
M  V30 4792 C 456.384 -3.02889 -1.89718 0
M  V30 4793 C 456.05 -4.34974 -1.18781 0
M  V30 4794 C 454.712 -4.7087 -0.991699 0
M  V30 4795 C 457.064 -5.16695 -0.683798 0
M  V30 4796 C 454.392 -5.86036 -0.279024 0
M  V30 4797 C 456.744 -6.32598 0.0153327 0
M  V30 4798 C 455.408 -6.67127 0.223062 0
M  V30 4799 H 454.678 -0.64577 -0.363404 0
M  V30 4800 H 457.325 -1.89664 -0.264525 0
M  V30 4801 H 455.63 -2.84644 -2.6923 0
M  V30 4802 H 457.327 -3.16399 -2.46359 0
M  V30 4803 H 453.917 -4.06765 -1.35058 0
M  V30 4804 H 458.101 -4.8943 -0.8229 0
M  V30 4805 H 453.357 -6.11306 -0.107456 0
M  V30 4806 H 457.531 -6.95171 0.413584 0
M  V30 4807 H 455.158 -7.56216 0.777265 0
M  V30 4808 N 456.733 0.527833 -1.48498 0
M  V30 4809 C 457.68 1.6322 -1.6318 0
M  V30 4810 C 458.65 1.59199 -0.473815 0
M  V30 4811 O 459.835 1.77591 -0.697563 0
M  V30 4812 C 456.975 3.01474 -1.67951 0
M  V30 4813 C 456.088 3.15713 -2.94871 0
M  V30 4814 C 455.223 4.44539 -2.90789 0
M  V30 4815 C 454.262 4.52315 -4.12404 0
M  V30 4816 N 453.399 5.72533 -4.06387 0
M  V30 4817 H 458.239 1.50011 -2.57489 0
M  V30 4818 H 455.776 0.730298 -1.27691 0
M  V30 4819 H 457.734 3.81572 -1.68698 0
M  V30 4820 H 456.364 3.1345 -0.771306 0
M  V30 4821 H 455.416 2.28854 -3.03859 0
M  V30 4822 H 456.728 3.1732 -3.8485 0
M  V30 4823 H 455.882 5.3293 -2.89949 0
M  V30 4824 H 454.621 4.45457 -1.98542 0
M  V30 4825 H 453.626 3.62331 -4.13517 0
M  V30 4826 H 454.851 4.53134 -5.05812 0
M  V30 4827 H 452.797 5.74344 -3.16962 0
M  V30 4828 H 452.714 5.75643 -4.90073 0
M  V30 4829 H 453.982 6.63204 -4.0961 0
M  V30 4830 N 458.211 1.37122 0.776871 0
M  V30 4831 C 459.488 1.22586 1.52421 0
M  V30 4832 C 459.868 -0.182726 2.10308 0
M  V30 4833 O 459.216 -1.18979 1.9508 0
M  V30 4834 C 459.426 2.31782 2.60918 0
M  V30 4835 C 460.774 2.69071 3.2846 0
M  V30 4836 O 461.798 2.3092 2.71209 0
M  V30 4837 O 460.657 3.3478 4.31954 0
M  V30 4838 H 457.751 0.478045 0.674835 0
M  V30 4839 H 460.297 1.48888 0.814275 0
M  V30 4840 H 459.069 3.26131 2.16227 0
M  V30 4841 H 458.692 2.06916 3.39517 0
M  V30 4842 N 459.689 -1.00246 1.21608 0
M  V30 4843 C 461.105 -1.26435 0.973975 0
M  V30 4844 C 461.305 -1.98642 -0.338143 0
M  V30 4845 O 460.361 -2.29026 -1.06317 0
M  V30 4846 C 461.674 -2.08551 2.16626 0
M  V30 4847 C 463.222 -2.21769 2.20879 0
M  V30 4848 C 463.697 -3.07267 3.39633 0
M  V30 4849 N 465.188 -3.14855 3.39736 0
M  V30 4850 C 465.923 -3.81274 4.28273 0
M  V30 4851 N 465.419 -4.497 5.27012 0
M  V30 4852 N 467.212 -3.7794 4.16074 0
M  V30 4853 H 459.363 -0.518089 2.05984 0
M  V30 4854 H 461.626 -0.291368 0.902113 0
M  V30 4855 H 461.332 -1.62847 3.11727 0
M  V30 4856 H 461.206 -3.09303 2.15897 0
M  V30 4857 H 463.593 -2.66691 1.26332 0
M  V30 4858 H 463.674 -1.20478 2.25652 0
M  V30 4859 H 463.318 -2.63047 4.34475 0
M  V30 4860 H 463.248 -4.08678 3.321 0
M  V30 4861 H 465.739 -2.66147 2.6828 0
M  V30 4862 H 466.052 -4.98092 5.90867 0
M  V30 4863 H 464.397 -4.48479 5.30935 0
M  V30 4864 H 467.588 -3.23638 3.38195 0
M  V30 4865 H 467.761 -4.29424 4.85282 0
M  V30 4866 N 461.167 -1.02423 -1.1978 0
M  V30 4867 C 462.117 -0.571689 -2.20716 0
M  V30 4868 C 463.101 0.377077 -1.56419 0
M  V30 4869 O 464.293 0.198801 -1.7588 0
M  V30 4870 C 461.422 0.0808555 -3.43205 0
M  V30 4871 C 460.508 -0.890073 -4.14655 0
M  V30 4872 N 460.899 -2.05065 -4.62366 0
M  V30 4873 C 459.197 -0.71252 -4.40272 0
M  V30 4874 C 459.898 -2.66264 -5.17183 0
M  V30 4875 N 458.874 -1.94264 -5.07703 0
M  V30 4876 H 462.676 -1.45636 -2.55279 0
M  V30 4877 H 460.19 -0.890596 -1.35802 0
M  V30 4878 H 462.187 0.422654 -4.14752 0
M  V30 4879 H 460.847 0.961274 -3.10144 0
M  V30 4880 H 461.858 -2.43026 -4.57339 0
M  V30 4881 H 458.535 0.119199 -4.1733 0
M  V30 4882 H 459.925 -3.64526 -5.64421 0
M  V30 4883 N 462.645 1.35699 -0.801477 0
M  V30 4884 C 463.892 1.98913 -0.379459 0
M  V30 4885 C 464.22 1.63592 1.05204 0
M  V30 4886 O 463.475 0.888563 1.74365 0
M  V30 4887 C 463.774 3.53828 -0.504041 0
M  V30 4888 C 463.44 4.09002 -1.8981 0
M  V30 4889 C 462.102 4.23783 -2.27951 0
M  V30 4890 C 464.454 4.38939 -2.81038 0
M  V30 4891 C 461.782 4.65816 -3.56696 0
M  V30 4892 C 464.134 4.82409 -4.09224 0
M  V30 4893 C 462.798 4.95395 -4.4737 0
M  V30 4894 H 462.068 0.727874 -0.138854 0
M  V30 4895 H 464.715 1.61994 -1.02128 0
M  V30 4896 H 463.02 3.91175 0.221242 0
M  V30 4897 H 464.717 4.00687 -0.158361 0
M  V30 4898 H 461.307 3.97946 -1.59176 0
M  V30 4899 H 465.491 4.27077 -2.52821 0
M  V30 4900 H 460.747 4.74059 -3.86106 0
M  V30 4901 H 464.921 5.04535 -4.80018 0
M  V30 4902 H 462.548 5.27724 -5.47185 0
M  V30 4903 N 464.123 0.554532 1.47522 0
M  V30 4904 C 465.369 0.0377449 2.03365 0
M  V30 4905 C 465.724 -1.29654 1.42154 0
M  V30 4906 O 465.017 -1.83022 0.566865 0
M  V30 4907 C 465.211 -0.115927 3.57212 0
M  V30 4908 C 465.04 1.20191 4.33341 0
M  V30 4909 C 463.81 1.76849 4.73342 0
M  V30 4910 C 466.008 2.11849 4.68641 0
M  V30 4911 N 463.99 3.02665 5.34104 0
M  V30 4912 C 465.361 3.22245 5.29677 0
M  V30 4913 C 467.416 2.11876 4.5057 0
M  V30 4914 C 466.119 4.32763 5.74551 0
M  V30 4915 C 468.145 3.21405 4.9644 0
M  V30 4916 C 467.507 4.30519 5.57523 0
M  V30 4917 H 463.606 0.0559107 0.779999 0
M  V30 4918 H 466.19 0.741232 1.80038 0
M  V30 4919 H 464.361 -0.788533 3.80311 0
M  V30 4920 H 466.093 -0.634538 3.99695 0
M  V30 4921 H 462.848 1.30681 4.55214 0
M  V30 4922 H 463.272 3.66788 5.69031 0
M  V30 4923 H 467.914 1.28801 4.02704 0
M  V30 4924 H 465.632 5.166 6.2141 0
M  V30 4925 H 469.218 3.22509 4.8423 0
M  V30 4926 H 468.098 5.13873 5.92371 0
M  V30 4927 N 465.601 -1.54893 0.290851 0
M  V30 4928 C 467.017 -1.59476 -0.0628432 0
M  V30 4929 C 467.217 -1.30795 -1.5328 0
M  V30 4930 O 466.273 -1.07644 -2.28406 0
M  V30 4931 C 467.586 -2.98928 0.325962 0
M  V30 4932 C 469.134 -3.11799 0.273882 0
M  V30 4933 C 469.609 -4.53544 0.637359 0
M  V30 4934 N 471.1 -4.59433 0.589507 0
M  V30 4935 C 471.835 -5.67164 0.84335 0
M  V30 4936 N 471.331 -6.82975 1.16263 0
M  V30 4937 N 473.124 -5.56786 0.771091 0
M  V30 4938 H 465.275 -1.71798 1.24896 0
M  V30 4939 H 467.538 -0.801879 0.505663 0
M  V30 4940 H 467.244 -3.24805 1.34887 0
M  V30 4941 H 467.118 -3.75793 -0.325441 0
M  V30 4942 H 469.505 -2.85677 -0.739765 0
M  V30 4943 H 469.586 -2.37112 0.959766 0
M  V30 4944 H 469.23 -4.80394 1.64877 0
M  V30 4945 H 469.16 -5.26553 -0.0704866 0
M  V30 4946 H 471.651 -3.76245 0.353252 0
M  V30 4947 H 471.964 -7.61048 1.34257 0
M  V30 4948 H 470.309 -6.84552 1.20057 0
M  V30 4949 H 473.5 -4.65187 0.521383 0
M  V30 4950 H 473.673 -6.40664 0.972295 0
M  V30 4951 N 467.08 -0.0183926 -1.57589 0
M  V30 4952 C 468.027 0.967022 -2.09565 0
M  V30 4953 C 468.997 1.32983 -0.995225 0
M  V30 4954 O 470.182 1.42501 -1.26878 0
M  V30 4955 C 467.322 2.24772 -2.61861 0
M  V30 4956 C 466.435 1.94232 -3.85873 0
M  V30 4957 C 465.57 3.16518 -4.26603 0
M  V30 4958 C 464.609 2.81748 -5.43401 0
M  V30 4959 N 463.746 3.96626 -5.79338 0
M  V30 4960 H 468.586 0.516874 -2.93483 0
M  V30 4961 H 466.123 0.243544 -1.4507 0
M  V30 4962 H 468.081 2.99667 -2.90268 0
M  V30 4963 H 466.711 2.67423 -1.8079 0
M  V30 4964 H 465.763 1.09625 -3.64262 0
M  V30 4965 H 467.075 1.64616 -4.70853 0
M  V30 4966 H 466.229 3.99743 -4.56389 0
M  V30 4967 H 464.968 3.49286 -3.40368 0
M  V30 4968 H 463.973 1.96933 -5.1332 0
M  V30 4969 H 465.198 2.50207 -6.31327 0
M  V30 4970 H 463.144 4.29257 -4.96059 0
M  V30 4971 H 463.061 3.70598 -6.58933 0
M  V30 4972 H 464.329 4.80586 -6.13724 0
M  V30 4973 N 468.558 1.5553 0.254621 0
M  V30 4974 C 469.783 1.81383 1.00573 0
M  V30 4975 C 470.208 0.594419 1.78461 0
M  V30 4976 O 469.566 -0.456403 1.75461 0
M  V30 4977 C 469.614 3.04892 1.92545 0
M  V30 4978 O 468.718 2.81266 3.01601 0
M  V30 4979 H 468.059 0.598969 0.286587 0
M  V30 4980 H 470.589 2.02703 0.277952 0
M  V30 4981 H 470.599 3.34119 2.34155 0
M  V30 4982 H 469.274 3.93287 1.3527 0
M  V30 4983 H 467.851 2.63185 2.64174 0
M  V30 4984 N 470.036 -0.519951 1.48776 0
M  V30 4985 C 470.966 -1.63253 1.66945 0
M  V30 4986 C 471.947 -1.62014 0.518224 0
M  V30 4987 O 473.132 -1.79053 0.751919 0
M  V30 4988 C 470.262 -3.0181 1.71836 0
M  V30 4989 C 469.216 -3.17911 2.8656 0
M  V30 4990 C 468.542 -4.5763 2.76548 0
M  V30 4991 C 469.842 -2.99729 4.27738 0
M  V30 4992 H 471.536 -1.48302 2.6009 0
M  V30 4993 H 469.082 -0.712026 1.25165 0
M  V30 4994 H 471.035 -3.79525 1.83135 0
M  V30 4995 H 469.759 -3.17806 0.752775 0
M  V30 4996 H 468.418 -2.42616 2.74833 0
M  V30 4997 H 468.066 -4.70476 1.77937 0
M  V30 4998 H 467.766 -4.69346 3.53536 0
M  V30 4999 H 469.29 -5.37431 2.89828 0
M  V30 5000 H 470.704 -3.67228 4.40246 0
M  V30 5001 H 469.101 -3.22932 5.05801 0
M  V30 5002 H 470.171 -1.96047 4.43502 0
M  V30 5003 N 471.514 -1.37532 -0.769588 0
M  V30 5004 C 472.93 -1.18379 -1.07045 0
M  V30 5005 C 473.13 -0.0214312 -2.01489 0
M  V30 5006 O 472.186 0.637809 -2.44312 0
M  V30 5007 C 473.499 -2.50338 -1.66588 0
M  V30 5008 C 475.047 -2.56879 -1.78835 0
M  V30 5009 C 475.522 -3.88974 -2.41792 0
M  V30 5010 N 477.013 -3.90428 -2.4924 0
M  V30 5011 C 477.748 -4.89388 -2.98809 0
M  V30 5012 N 477.244 -5.98745 -3.48535 0
M  V30 5013 N 479.037 -4.76791 -2.97703 0
M  V30 5014 H 471.188 -2.11921 -0.142541 0
M  V30 5015 H 473.451 -0.939608 -0.125863 0
M  V30 5016 H 473.157 -3.35767 -1.0466 0
M  V30 5017 H 473.031 -2.67583 -2.65856 0
M  V30 5018 H 475.418 -1.71856 -2.39895 0
M  V30 5019 H 475.499 -2.43516 -0.783166 0
M  V30 5020 H 475.143 -4.74412 -1.81371 0
M  V30 5021 H 475.073 -3.99641 -3.4292 0
M  V30 5022 H 477.564 -3.11433 -2.14052 0
M  V30 5023 H 477.877 -6.70205 -3.84767 0
M  V30 5024 H 476.222 -6.02387 -3.46634 0
M  V30 5025 H 479.413 -3.90478 -2.58157 0
M  V30 5026 H 479.586 -5.54069 -3.36024 0
M  V30 5027 N 472.992 0.995999 -1.22138 0
M  V30 5028 C 473.939 2.08551 -0.988687 0
M  V30 5029 C 474.909 1.65864 0.0885021 0
M  V30 5030 O 476.094 1.90704 -0.0604589 0
M  V30 5031 C 473.234 3.40374 -0.569191 0
M  V30 5032 C 472.347 3.96421 -1.71681 0
M  V30 5033 C 471.482 5.1639 -1.2456 0
M  V30 5034 C 470.521 5.64567 -2.36497 0
M  V30 5035 N 469.658 6.75777 -1.90445 0
M  V30 5036 H 474.498 2.2779 -1.92135 0
M  V30 5037 H 472.035 1.1168 -0.957388 0
M  V30 5038 H 473.993 4.16068 -0.307166 0
M  V30 5039 H 472.623 3.21145 0.326462 0
M  V30 5040 H 471.675 3.17628 -2.09324 0
M  V30 5041 H 472.987 4.2816 -2.55891 0
M  V30 5042 H 472.141 5.99362 -0.940774 0
M  V30 5043 H 470.88 4.86266 -0.373662 0
M  V30 5044 H 469.885 4.80185 -2.67772 0
M  V30 5045 H 471.11 5.96716 -3.24202 0
M  V30 5046 H 469.056 6.47443 -1.05609 0
M  V30 5047 H 468.973 7.06818 -2.68223 0
M  V30 5048 H 470.241 7.62262 -1.63022 0
M  V30 5049 N 474.47 1.03057 1.19235 0
M  V30 5050 C 475.4 0.633497 2.24742 0
M  V30 5051 C 476.381 -0.358335 1.66283 0
M  V30 5052 O 477.566 -0.240676 1.92703 0
M  V30 5053 C 474.696 -0.0147648 3.47297 0
M  V30 5054 C 473.65 0.899527 4.18441 0
M  V30 5055 C 472.976 0.116281 5.34574 0
M  V30 5056 C 474.276 2.21404 4.73051 0
M  V30 5057 H 475.97 1.5155 2.58211 0
M  V30 5058 H 473.516 0.73014 1.24117 0
M  V30 5059 H 475.469 -0.304202 4.20301 0
M  V30 5060 H 474.193 -0.931577 3.13032 0
M  V30 5061 H 472.852 1.17319 3.47321 0
M  V30 5062 H 472.5 -0.802619 4.96555 0
M  V30 5063 H 472.2 0.725293 5.83107 0
M  V30 5064 H 473.724 -0.166376 6.10373 0
M  V30 5065 H 475.138 1.98601 5.37802 0
M  V30 5066 H 473.535 2.77512 5.32078 0
M  V30 5067 H 474.605 2.86752 3.91026 0
M  V30 5068 N 475.948 -1.35272 0.808662 0
M  V30 5069 C 476.858 -2.33546 0.222079 0
M  V30 5070 C 477.874 -1.6196 -0.636011 0
M  V30 5071 O 479.05 -1.93822 -0.547274 0
M  V30 5072 C 476.115 -3.41148 -0.61795 0
M  V30 5073 C 475.176 -4.28507 0.260875 0
M  V30 5074 C 474.409 -5.3097 -0.539156 0
M  V30 5075 O 474.632 -5.42123 -1.77367 0
M  V30 5076 O 473.566 -6.01858 0.0710526 0
M  V30 5077 H 477.392 -2.85515 1.03512 0
M  V30 5078 H 474.977 -1.38079 0.570495 0
M  V30 5079 H 476.859 -4.06889 -1.09634 0
M  V30 5080 H 475.534 -2.91447 -1.40855 0
M  V30 5081 H 474.441 -3.6574 0.786451 0
M  V30 5082 H 475.774 -4.81611 1.01547 0
M  V30 5083 N 477.426 -0.562348 -1.47226 0
M  V30 5084 C 478.837 -0.130325 -1.86245 0
M  V30 5085 C 479.188 1.30128 -1.46838 0
M  V30 5086 O 478.313 1.97974 -0.873805 0
M  V30 5087 C 478.908 -0.229738 -3.3802 0
M  V30 5088 C 477.467 0.14728 -3.76112 0
M  V30 5089 C 476.614 -0.574971 -2.71274 0
M  V30 5090 H 479.565 -0.771773 -1.3867 0
M  V30 5091 H 479.586 0.550316 -3.76499 0
M  V30 5092 H 479.098 -1.27178 -3.66671 0
M  V30 5093 H 477.199 1.19023 -3.53078 0
M  V30 5094 H 477.312 -0.214858 -4.78618 0
M  V30 5095 H 475.676 -0.0174756 -2.54694 0
M  V30 5096 H 476.459 -1.61827 -3.02766 0
M  V30 5097 N 478.904 1.54736 -0.299062 0
M  V30 5098 C 479.814 2.27127 0.587413 0
M  V30 5099 C 480.83 1.30575 1.15005 0
M  V30 5100 O 482.006 1.63554 1.17525 0
M  V30 5101 C 479.071 2.99645 1.74395 0
M  V30 5102 C 478.132 4.11731 1.21559 0
M  V30 5103 C 477.365 4.80781 2.317 0
M  V30 5104 O 477.588 4.4918 3.51558 0
M  V30 5105 O 476.522 5.68226 1.98501 0
M  V30 5106 H 480.348 3.037 0.000250109 0
M  V30 5107 H 477.933 1.49256 -0.0655919 0
M  V30 5108 H 479.815 3.45138 2.4178 0
M  V30 5109 H 478.49 2.25969 2.31775 0
M  V30 5110 H 477.397 3.70641 0.507514 0
M  V30 5111 H 478.73 4.87379 0.687233 0
M  V30 5112 N 480.382 0.0267497 1.57577 0
M  V30 5113 C 481.312 -0.954308 2.13108 0
M  V30 5114 C 482.293 -1.34088 1.04663 0
M  V30 5115 O 483.478 -1.41992 1.32484 0
M  V30 5116 C 480.608 -2.23744 2.65624 0
M  V30 5117 C 479.562 -1.99168 3.78835 0
M  V30 5118 C 478.888 -3.33726 4.17769 0
M  V30 5119 C 480.188 -1.33277 5.0501 0
M  V30 5120 H 481.882 -0.491848 2.95332 0
M  V30 5121 H 479.428 -0.23514 1.42067 0
M  V30 5122 H 481.381 -2.92754 3.03106 0
M  V30 5123 H 480.105 -2.72151 1.80558 0
M  V30 5124 H 478.764 -1.32577 3.41788 0
M  V30 5125 H 478.412 -3.79888 3.29688 0
M  V30 5126 H 478.112 -3.18089 4.94058 0
M  V30 5127 H 479.636 -4.04008 4.57832 0
M  V30 5128 H 481.05 -1.92283 5.40093 0
M  V30 5129 H 479.447 -1.28045 5.8628 0
M  V30 5130 H 480.517 -0.305411 4.83937 0
M  V30 5131 N 481.861 -1.55662 -0.24637 0
M  V30 5132 C 482.811 -1.86753 -1.30795 0
M  V30 5133 C 483.795 -0.728445 -1.43466 0
M  V30 5134 O 484.987 -0.99038 -1.46699 0
M  V30 5135 C 482.116 -2.16618 -2.66329 0
M  V30 5136 C 481.202 -3.36855 -2.57661 0
M  V30 5137 N 481.593 -4.56111 -2.18624 0
M  V30 5138 C 479.891 -3.39976 -2.88673 0
M  V30 5139 C 480.592 -5.38247 -2.20601 0
M  V30 5140 N 479.568 -4.77322 -2.60124 0
M  V30 5141 H 483.37 -2.76486 -0.996642 0
M  V30 5142 H 480.884 -1.55896 -0.454994 0
M  V30 5143 H 482.881 -2.37057 -3.42942 0
M  V30 5144 H 481.541 -1.28185 -2.98327 0
M  V30 5145 H 482.552 -4.81726 -1.9016 0
M  V30 5146 H 479.229 -2.61815 -3.25206 0
M  V30 5147 H 480.619 -6.43657 -1.92756 0
M  V30 5148 N 483.339 0.512053 -1.4905 0
M  V30 5149 C 484.269 1.62365 -1.67809 0
M  V30 5150 C 485.25 1.61737 -0.526809 0
M  V30 5151 O 486.435 1.78651 -0.761404 0
M  V30 5152 C 483.565 3.00895 -1.73435 0
M  V30 5153 C 482.519 3.16387 -2.88242 0
M  V30 5154 C 481.845 4.56157 -2.78971 0
M  V30 5155 C 483.145 2.97457 -4.29321 0
M  V30 5156 H 484.839 1.46921 -2.60873 0
M  V30 5157 H 482.385 0.705379 -1.2554 0
M  V30 5158 H 484.338 3.78549 -1.85145 0
M  V30 5159 H 483.062 3.17403 -0.769619 0
M  V30 5160 H 481.721 2.41155 -2.76116 0
M  V30 5161 H 481.369 4.69525 -1.8043 0
M  V30 5162 H 481.069 4.67465 -3.5602 0
M  V30 5163 H 482.593 5.35886 -2.92675 0
M  V30 5164 H 484.007 3.64888 -4.42187 0
M  V30 5165 H 482.404 3.20245 -5.07507 0
M  V30 5166 H 483.474 1.93692 -4.44535 0
M  V30 5167 N 484.817 1.37938 0.762283 0
M  V30 5168 C 486.066 1.32989 1.51647 0
M  V30 5169 C 486.379 -0.0802922 1.95435 0
M  V30 5170 O 487.585 -0.252295 2.70325 0
M  V30 5171 C 486.041 2.33485 2.73885 0
M  V30 5172 C 485.649 3.80079 2.37157 0
M  V30 5173 C 487.393 2.37563 3.51801 0
M  V30 5174 C 485.3 4.72283 3.55954 0
M  V30 5175 H 484.23 0.494301 0.56937 0
M  V30 5176 H 486.881 1.63448 0.834083 0
M  V30 5177 H 485.263 1.96056 3.44061 0
M  V30 5178 H 486.437 4.26398 1.74704 0
M  V30 5179 H 484.752 3.79037 1.72395 0
M  V30 5180 H 487.349 3.0365 4.40114 0
M  V30 5181 H 487.692 1.39199 3.92338 0
M  V30 5182 H 488.225 2.73747 2.8863 0
M  V30 5183 H 484.964 5.7181 3.2049 0
M  V30 5184 H 484.484 4.30663 4.1748 0
M  V30 5185 H 486.163 4.89876 4.22647 0
M  V30 5186 N 486.295 -0.989507 1.22664 0
M  V30 5187 C 487.52 -1.77031 1.08051 0
M  V30 5188 C 487.945 -1.84535 -0.364483 0
M  V30 5189 O 487.303 -1.3003 -1.2634 0
M  V30 5190 C 487.351 -3.18 1.70024 0
M  V30 5191 O 486.455 -4.01161 0.956216 0
M  V30 5192 H 485.796 -0.545008 0.379292 0
M  V30 5193 H 488.326 -1.24277 1.62531 0
M  V30 5194 H 488.336 -3.68616 1.74888 0
M  V30 5195 H 487.011 -3.11853 2.75174 0
M  V30 5196 H 485.588 -3.59687 0.98384 0
M  V30 5197 N 487.773 -1.03688 -1.18687 0
M  V30 5198 C 488.998 -0.757819 -1.93059 0
M  V30 5199 C 489.423 0.678353 -1.75442 0
M  V30 5200 O 488.781 1.46938 -1.06203 0
M  V30 5201 C 488.829 -1.12423 -3.42627 0
M  V30 5202 O 487.933 -0.247505 -4.11657 0
M  V30 5203 H 487.274 -0.279245 -0.602427 0
M  V30 5204 H 489.804 -1.3857 -1.5053 0
M  V30 5205 H 489.814 -1.08454 -3.93322 0
M  V30 5206 H 488.489 -2.17049 -3.54771 0
M  V30 5207 H 487.066 -0.34649 -3.71287 0
M  V30 5208 N 489.251 1.34841 -0.815825 0
M  V30 5209 C 490.498 1.98499 -0.400535 0
M  V30 5210 C 490.826 1.64699 1.03463 0
M  V30 5211 O 490.081 0.907006 1.73412 0
M  V30 5212 C 490.38 3.53273 -0.541541 0
M  V30 5213 C 490.046 4.06966 -1.94138 0
M  V30 5214 C 488.708 4.21341 -2.32433 0
M  V30 5215 C 491.06 4.35933 -2.85677 0
M  V30 5216 C 488.388 4.62007 -3.61617 0
M  V30 5217 C 490.74 4.78042 -4.14317 0
M  V30 5218 C 489.404 4.90622 -4.52599 0
M  V30 5219 H 488.674 0.72636 -0.146566 0
M  V30 5220 H 491.321 1.60902 -1.0384 0
M  V30 5221 H 489.626 3.91387 0.179741 0
M  V30 5222 H 491.323 4.00497 -0.20085 0
M  V30 5223 H 487.913 3.96235 -1.63388 0
M  V30 5224 H 492.097 4.24372 -2.57337 0
M  V30 5225 H 487.353 4.69937 -3.91113 0
M  V30 5226 H 491.527 4.99415 -4.85342 0
M  V30 5227 H 489.154 5.2189 -5.52752 0
M  V30 5228 N 490.729 0.570148 1.46925 0
M  V30 5229 C 491.975 0.0593124 2.03314 0
M  V30 5230 C 492.33 -1.28139 1.43521 0
M  V30 5231 O 491.623 -1.82411 0.586245 0
M  V30 5232 C 491.817 -0.0780336 3.57315 0
M  V30 5233 C 491.646 1.2478 4.32042 0
M  V30 5234 C 490.416 1.81859 4.7144 0
M  V30 5235 C 492.614 2.16808 4.66368 0
M  V30 5236 N 490.596 3.08313 5.30864 0
M  V30 5237 C 491.967 3.27845 5.2623 0
M  V30 5238 C 494.022 2.16643 4.48297 0
M  V30 5239 C 492.725 4.38832 5.69929 0
M  V30 5240 C 494.751 3.26652 4.93004 0
M  V30 5241 C 494.113 4.36408 5.52926 0
M  V30 5242 H 490.212 0.0641804 0.779362 0
M  V30 5243 H 492.796 0.760285 1.79242 0
M  V30 5244 H 490.967 -0.748151 3.81126 0
M  V30 5245 H 492.699 -0.59211 4.00345 0
M  V30 5246 H 489.454 1.35502 4.53802 0
M  V30 5247 H 489.878 3.72802 5.65108 0
M  V30 5248 H 494.52 1.33065 4.01315 0
M  V30 5249 H 492.238 5.23162 6.15896 0
M  V30 5250 H 495.824 3.27627 4.80782 0
M  V30 5251 H 494.704 5.20127 5.86888 0
M  V30 5252 N 492.207 -1.54576 0.307264 0
M  V30 5253 C 493.618 -1.8579 -0.184121 0
M  V30 5254 C 493.969 -1.22914 -1.52927 0
M  V30 5255 O 493.094 -0.529126 -2.09831 0
M  V30 5256 C 493.689 -3.37081 -0.340862 0
M  V30 5257 C 492.248 -3.68304 -0.776465 0
M  V30 5258 C 491.395 -2.77076 0.111503 0
M  V30 5259 H 494.346 -1.49656 0.528078 0
M  V30 5260 H 494.367 -3.61922 -1.17443 0
M  V30 5261 H 493.879 -3.82815 0.638309 0
M  V30 5262 H 491.98 -3.28092 -1.76596 0
M  V30 5263 H 492.093 -4.75434 -0.591512 0
M  V30 5264 H 490.457 -2.51374 -0.410256 0
M  V30 5265 H 491.24 -3.25632 1.08714 0
M  V30 5266 N 493.685 -0.035106 -1.57561 0
M  V30 5267 C 494.91 0.655802 -1.96759 0
M  V30 5268 C 495.335 1.64523 -0.911809 0
M  V30 5269 O 494.693 1.80857 0.126673 0
M  V30 5270 C 494.741 1.33326 -3.35047 0
M  V30 5271 O 493.845 2.44866 -3.31835 0
M  V30 5272 H 493.186 0.171807 -0.641388 0
M  V30 5273 H 495.716 -0.0987369 -2.04362 0
M  V30 5274 H 495.726 1.68867 -3.71413 0
M  V30 5275 H 494.401 0.608033 -4.11431 0
M  V30 5276 H 492.978 2.11392 -3.07193 0
M  V30 5277 N 495.163 1.55791 0.238111 0
M  V30 5278 C 496.093 1.94068 1.29846 0
M  V30 5279 C 497.074 0.806726 1.49753 0
M  V30 5280 O 498.259 1.06772 1.62214 0
M  V30 5281 C 495.389 2.24302 2.65153 0
M  V30 5282 C 494.343 3.40032 2.59927 0
M  V30 5283 C 493.669 3.55829 3.99111 0
M  V30 5284 C 494.969 4.75476 2.16148 0
M  V30 5285 H 496.663 2.82887 0.980563 0
M  V30 5286 H 494.209 1.36105 0.470253 0
M  V30 5287 H 496.162 2.4967 3.39475 0
M  V30 5288 H 494.886 1.32318 2.98596 0
M  V30 5289 H 493.545 3.14687 1.88063 0
M  V30 5290 H 493.193 2.6125 4.29834 0
M  V30 5291 H 492.893 4.3366 3.96501 0
M  V30 5292 H 494.417 3.83528 4.7512 0
M  V30 5293 H 495.831 5.00158 2.80205 0
M  V30 5294 H 494.228 5.56472 2.24631 0
M  V30 5295 H 495.298 4.71946 1.11333 0
M  V30 5296 N 496.642 -0.504142 1.49319 0
M  V30 5297 C 498.053 -1.08572 1.51885 0
M  V30 5298 C 498.404 -1.93842 0.303255 0
M  V30 5299 O 497.529 -2.0828 -0.58724 0
M  V30 5300 C 498.124 -1.97574 2.75227 0
M  V30 5301 C 496.683 -2.509 2.80581 0
M  V30 5302 C 495.83 -1.28447 2.45757 0
M  V30 5303 H 498.781 -0.288194 1.56061 0
M  V30 5304 H 498.802 -2.82219 2.55211 0
M  V30 5305 H 498.314 -1.35486 3.63683 0
M  V30 5306 H 496.415 -3.16636 1.96398 0
M  V30 5307 H 496.528 -2.88268 3.82673 0
M  V30 5308 H 494.892 -1.60868 1.97468 0
M  V30 5309 H 495.675 -0.68072 3.36483 0
M  V30 5310 N 498.12 -1.38341 -0.754957 0
M  V30 5311 C 499.345 -1.37882 -1.5493 0
M  V30 5312 C 499.77 0.0296385 -1.88077 0
M  V30 5313 O 499.128 1.01133 -1.50472 0
M  V30 5314 C 499.176 -2.23996 -2.82592 0
M  V30 5315 O 498.28 -1.65612 -3.77686 0
M  V30 5316 H 497.621 -0.470384 -0.468652 0
M  V30 5317 H 500.151 -1.82084 -0.933082 0
M  V30 5318 H 500.161 -2.37806 -3.3153 0
M  V30 5319 H 498.836 -3.26365 -2.57796 0
M  V30 5320 H 497.413 -1.60936 -3.36384 0
M  V30 5321 N 499.598 0.982988 -1.23187 0
M  V30 5322 C 500.846 1.72052 -1.06031 0
M  V30 5323 C 501.167 1.90769 0.404019 0
M  V30 5324 O 500.437 1.47446 1.28982 0
M  V30 5325 H 499.017 0.637499 -0.389363 0
M  V30 5326 H 501.679 1.18338 -1.54862 0
M  V30 5327 H 500.775 2.7111 -1.54615 0
M  V30 5328 N 501.076 1.04316 1.18135 0
M  V30 5329 C 502.322 0.749128 1.88457 0
M  V30 5330 C 502.655 -0.72149 1.803 0
M  V30 5331 O 501.93 -1.52676 1.205 0
M  V30 5332 C 502.213 1.21905 3.38838 0
M  V30 5333 C 502.066 2.75195 3.55792 0
M  V30 5334 C 503.385 0.811085 4.32561 0
M  V30 5335 H 500.504 0.273611 0.684329 0
M  V30 5336 H 503.146 1.29561 1.38975 0
M  V30 5337 H 501.296 0.754137 3.8111 0
M  V30 5338 H 502.968 3.29743 3.22595 0
M  V30 5339 H 501.211 3.14899 2.98364 0
M  V30 5340 H 501.882 3.03135 4.61317 0
M  V30 5341 H 504.358 1.21118 3.98082 0
M  V30 5342 H 503.234 1.16761 5.36338 0
M  V30 5343 H 503.495 -0.285596 4.41177 0
M  V30 5344 N 502.554 -1.34406 0.822964 0
M  V30 5345 C 503.831 -1.92733 0.333641 0
M  V30 5346 C 504.211 -1.75107 -1.17901 0
M  V30 5347 O 503.559 -1.12983 -1.98613 0
M  V30 5348 C 503.769 -3.40557 0.763023 0
M  V30 5349 C 505.117 -4.17709 0.761879 0
M  V30 5350 O 506.141 -3.49141 0.705606 0
M  V30 5351 O 505 -5.40082 0.835109 0
M  V30 5352 H 502.094 -0.821964 0.0911249 0
M  V30 5353 H 504.64 -1.4338 0.907757 0
M  V30 5354 H 503.412 -3.47187 1.8049 0
M  V30 5355 H 503.035 -3.97259 0.164605 0
M  V30 5356 N 504.032 -0.577932 -1.46621 0
M  V30 5357 C 504.995 0.147805 -2.28723 0
M  V30 5358 C 505.995 0.823325 -1.38123 0
M  V30 5359 O 507.185 0.676011 -1.60548 0
M  V30 5360 C 504.317 1.21853 -3.18378 0
M  V30 5361 H 505.51 -0.573654 -2.94362 0
M  V30 5362 H 503.063 -0.335703 -1.52652 0
M  V30 5363 H 503.798 1.97173 -2.57475 0
M  V30 5364 H 503.583 0.738714 -3.85078 0
M  V30 5365 H 505.073 1.72768 -3.80186 0
M  V30 5366 N 505.51 1.54411 -0.315457 0
M  V30 5367 C 506.473 2.22713 0.54142 0
M  V30 5368 C 507.473 1.2179 1.04995 0
M  V30 5369 O 508.663 1.46426 0.943667 0
M  V30 5370 C 505.795 2.92485 1.75116 0
M  V30 5371 H 506.988 2.99849 -0.0555508 0
M  V30 5372 H 504.541 1.56159 -0.0664453 0
M  V30 5373 H 505.276 2.19466 2.38758 0
M  V30 5374 H 505.061 3.66483 1.39401 0
M  V30 5375 H 506.551 3.44548 2.35959 0
M  V30 5376 N 506.988 0.0434614 1.5754 0
M  V30 5377 C 508.218 -0.640905 1.96408 0
M  V30 5378 C 508.626 -1.65365 0.919297 0
M  V30 5379 O 507.969 -1.83395 -0.105795 0
M  V30 5380 C 508.031 -1.39141 3.31482 0
M  V30 5381 C 507.695 -0.535375 4.53853 0
M  V30 5382 C 508.692 0.195335 5.19533 0
M  V30 5383 C 506.377 -0.468564 5.0011 0
M  V30 5384 C 508.371 0.981377 6.298 0
M  V30 5385 C 506.058 0.321171 6.10255 0
M  V30 5386 C 507.056 1.04484 6.74961 0
M  V30 5387 O 506.744 1.8216 7.8299 0
M  V30 5388 H 506.476 -0.180584 0.651433 0
M  V30 5389 H 509.03 0.103848 2.05137 0
M  V30 5390 H 507.26 -2.18162 3.19284 0
M  V30 5391 H 508.949 -1.96526 3.55151 0
M  V30 5392 H 509.715 0.15314 4.84758 0
M  V30 5393 H 505.594 -1.02142 4.49542 0
M  V30 5394 H 509.138 1.54674 6.80237 0
M  V30 5395 H 505.035 0.365032 6.44467 0
M  V30 5396 H 505.803 1.74289 7.99728 0
M  V30 5397 N 508.466 -1.55915 -0.229846 0
M  V30 5398 C 509.376 -1.94891 -1.30593 0
M  V30 5399 C 510.392 -0.851604 -1.51736 0
M  V30 5400 O 511.568 -1.15447 -1.65027 0
M  V30 5401 C 508.633 -2.25052 -2.63728 0
M  V30 5402 C 507.694 -3.48306 -2.5096 0
M  V30 5403 C 506.927 -3.77019 -3.77747 0
M  V30 5404 O 507.15 -3.07534 -4.80395 0
M  V30 5405 O 506.084 -4.70523 -3.75356 0
M  V30 5406 H 509.91 -2.86581 -1.00525 0
M  V30 5407 H 507.495 -1.43017 -0.432025 0
M  V30 5408 H 509.377 -2.45682 -3.42372 0
M  V30 5409 H 508.052 -1.36538 -2.93495 0
M  V30 5410 H 506.959 -3.32964 -1.70546 0
M  V30 5411 H 508.292 -4.37177 -2.26136 0
M  V30 5412 N 509.944 0.496216 -1.49584 0
M  V30 5413 C 511.19 1.25189 -1.59548 0
M  V30 5414 C 511.523 1.9212 -0.283466 0
M  V30 5415 O 510.798 1.80947 0.713324 0
M  V30 5416 C 511.081 2.31516 -2.75812 0
M  V30 5417 C 510.934 1.69054 -4.16822 0
M  V30 5418 C 512.253 3.3304 -2.87702 0
M  V30 5419 H 509.372 0.45379 -0.580727 0
M  V30 5420 H 512.014 0.549327 -1.81886 0
M  V30 5421 H 510.164 2.91438 -2.56897 0
M  V30 5422 H 511.836 1.12923 -4.47265 0
M  V30 5423 H 510.079 0.994485 -4.22247 0
M  V30 5424 H 510.75 2.462 -4.94054 0
M  V30 5425 H 513.226 2.83114 -3.04936 0
M  V30 5426 H 512.102 4.04794 -3.7072 0
M  V30 5427 H 512.363 3.95655 -1.97255 0
M  V30 5428 N 511.423 1.38739 0.74761 0
M  V30 5429 C 512.651 1.38521 1.53686 0
M  V30 5430 C 513.066 -0.0235129 1.88785 0
M  V30 5431 O 512.423 -0.991662 1.53207 0
M  V30 5432 C 512.474 2.24641 2.83229 0
M  V30 5433 O 512.195 3.60026 2.49625 0
M  V30 5434 C 513.696 2.32669 3.77333 0
M  V30 5435 H 510.916 0.473589 0.475347 0
M  V30 5436 H 513.46 1.82395 0.924786 0
M  V30 5437 H 511.615 1.84213 3.40799 0
M  V30 5438 H 512.029 4.05435 3.3275 0
M  V30 5439 H 513.503 2.97201 4.65162 0
M  V30 5440 H 513.98 1.3421 4.18192 0
M  V30 5441 H 514.586 2.73512 3.25685 0
M  V30 5442 N 512.901 -0.976442 1.23707 0
M  V30 5443 C 514.126 -1.75875 1.09922 0
M  V30 5444 C 514.551 -1.84911 -0.34489 0
M  V30 5445 O 513.909 -1.31363 -1.24954 0
M  V30 5446 C 513.957 -3.16179 1.73388 0
M  V30 5447 O 513.061 -4.00124 0.99871 0
M  V30 5448 H 512.402 -0.540954 0.385052 0
M  V30 5449 H 514.932 -1.22546 1.6384 0
M  V30 5450 H 514.942 -3.66741 1.78788 0
M  V30 5451 H 513.617 -3.08917 2.78466 0
M  V30 5452 H 512.194 -3.58624 1.02193 0
M  V30 5453 N 514.379 -1.04941 -1.1758 0
M  V30 5454 C 515.326 -0.648155 -2.21512 0
M  V30 5455 C 516.296 0.348431 -1.62404 0
M  V30 5456 O 517.481 0.240419 -1.89279 0
M  V30 5457 C 514.621 -0.0264291 -3.4509 0
M  V30 5458 C 513.734 -1.07154 -4.185 0
M  V30 5459 C 512.869 -0.417403 -5.29558 0
M  V30 5460 C 511.908 -1.447 -5.94751 0
M  V30 5461 N 511.045 -0.817203 -6.97328 0
M  V30 5462 H 515.885 -1.53891 -2.55189 0
M  V30 5463 H 513.422 -0.769699 -1.25356 0
M  V30 5464 H 515.38 0.351456 -4.15717 0
M  V30 5465 H 514.01 0.827802 -3.12005 0
M  V30 5466 H 513.062 -1.56728 -3.46613 0
M  V30 5467 H 514.374 -1.8532 -4.63096 0
M  V30 5468 H 513.528 0.0142061 -6.06698 0
M  V30 5469 H 512.267 0.396265 -4.86087 0
M  V30 5470 H 511.272 -1.88865 -5.16343 0
M  V30 5471 H 512.497 -2.26252 -6.40302 0
M  V30 5472 H 510.443 -0.0239995 -6.55996 0
M  V30 5473 H 510.36 -1.53644 -7.40223 0
M  V30 5474 H 511.628 -0.410283 -7.7842 0
M  V30 5475 N 515.857 1.33968 -0.830081 0
M  V30 5476 C 517.134 1.92554 -0.343858 0
M  V30 5477 C 517.514 1.7573 1.16971 0
M  V30 5478 O 516.862 1.14035 1.98011 0
M  V30 5479 C 517.072 3.40147 -0.781073 0
M  V30 5480 C 518.42 4.17299 -0.78402 0
M  V30 5481 O 519.444 3.48762 -0.724112 0
M  V30 5482 O 518.303 5.39631 -0.863739 0
M  V30 5483 H 515.397 0.821469 -0.0954827 0
M  V30 5484 H 517.943 1.42897 -0.915348 0
M  V30 5485 H 516.715 3.46225 -1.82329 0
M  V30 5486 H 516.338 3.97166 -0.18567 0
M  V30 5487 N 517.335 0.585699 1.46312 0
M  V30 5488 C 518.265 -0.133556 2.33118 0
M  V30 5489 C 519.246 -0.880707 1.45525 0
M  V30 5490 O 520.431 -0.855579 1.74337 0
M  V30 5491 C 517.561 -1.14585 3.27853 0
M  V30 5492 C 516.515 -0.513341 4.2491 0
M  V30 5493 C 515.841 -1.63231 5.09175 0
M  V30 5494 C 517.141 0.551413 5.19381 0
M  V30 5495 H 518.835 0.59121 2.93505 0
M  V30 5496 H 516.381 0.285761 1.41136 0
M  V30 5497 H 518.334 -1.65741 3.87438 0
M  V30 5498 H 517.058 -1.90093 2.65579 0
M  V30 5499 H 515.717 -0.0228349 3.66593 0
M  V30 5500 H 515.365 -2.37713 4.43285 0
M  V30 5501 H 515.065 -1.21473 5.74907 0
M  V30 5502 H 516.589 -2.14658 5.71624 0
M  V30 5503 H 518.003 0.124804 5.73164 0
M  V30 5504 H 516.4 0.889486 5.93471 0
M  V30 5505 H 517.47 1.43655 4.63132 0
M  V30 5506 N 518.813 -1.54241 0.323641 0
M  V30 5507 C 520.059 -2.00867 -0.279323 0
M  V30 5508 C 520.392 -1.21146 -1.5178 0
M  V30 5509 O 519.667 -0.29378 -1.92269 0
M  V30 5510 C 519.95 -3.54837 -0.613387 0
M  V30 5511 C 519.803 -4.45284 0.635803 0
M  V30 5512 C 521.122 -4.16186 -1.43099 0
M  V30 5513 H 518.241 -0.730177 -0.100049 0
M  V30 5514 H 520.883 -1.84829 0.440235 0
M  V30 5515 H 519.033 -3.68634 -1.22641 0
M  V30 5516 H 520.705 -4.43357 1.27406 0
M  V30 5517 H 518.948 -4.14956 1.26466 0
M  V30 5518 H 519.619 -5.5084 0.357597 0
M  V30 5519 H 522.095 -4.05964 -0.912814 0
M  V30 5520 H 520.971 -5.24031 -1.6335 0
M  V30 5521 H 521.232 -3.69516 -2.42715 0
M  V30 5522 N 520.291 -0.0518155 -1.57515 0
M  V30 5523 C 521.538 0.621823 -1.92716 0
M  V30 5524 C 521.866 1.70813 -0.930229 0
M  V30 5525 O 521.121 1.95616 0.0573708 0
M  V30 5526 C 521.42 1.25607 -3.34601 0
M  V30 5527 C 521.086 0.297901 -4.49915 0
M  V30 5528 C 519.748 0.034243 -4.81188 0
M  V30 5529 C 522.1 -0.358738 -5.19964 0
M  V30 5530 C 519.428 -0.893479 -5.79857 0
M  V30 5531 C 521.78 -1.27466 -6.19625 0
M  V30 5532 C 520.444 -1.54698 -6.49326 0
M  V30 5533 H 519.714 0.227541 -0.705199 0
M  V30 5534 H 522.361 -0.118432 -1.91133 0
M  V30 5535 H 520.666 2.07161 -3.32553 0
M  V30 5536 H 522.363 1.78424 -3.59118 0
M  V30 5537 H 518.953 0.513581 -4.25512 0
M  V30 5538 H 523.137 -0.168133 -4.96015 0
M  V30 5539 H 518.393 -1.11193 -6.01204 0
M  V30 5540 H 522.567 -1.78953 -6.73015 0
M  V30 5541 H 520.194 -2.26748 -7.25596 0
M  V30 5542 N 521.769 1.56035 0.221574 0
M  V30 5543 C 523.018 1.78245 0.944016 0
M  V30 5544 C 523.331 0.620371 1.85501 0
M  V30 5545 O 524.537 0.726103 2.6161 0
M  V30 5546 C 522.993 3.15659 1.7288 0
M  V30 5547 C 522.601 4.39591 0.863942 0
M  V30 5548 C 524.345 3.47195 2.44246 0
M  V30 5549 C 522.252 5.6803 1.64607 0
M  V30 5550 H 521.182 0.664547 0.356222 0
M  V30 5551 H 523.833 1.8243 0.197904 0
M  V30 5552 H 522.215 3.0565 2.51781 0
M  V30 5553 H 523.389 4.60655 0.115464 0
M  V30 5554 H 521.704 4.15572 0.262407 0
M  V30 5555 H 524.301 4.40381 3.03263 0
M  V30 5556 H 524.644 2.69693 3.1713 0
M  V30 5557 H 525.177 3.58533 1.72334 0
M  V30 5558 H 521.916 6.48425 0.960507 0
M  V30 5559 H 521.436 5.51027 2.36917 0
M  V30 5560 H 523.115 6.08203 2.20675 0
M  V30 5561 N 523.247 -0.488276 1.49845 0
M  V30 5562 C 524.494 -1.24157 1.59973 0
M  V30 5563 C 524.822 -1.92293 0.292182 0
M  V30 5564 O 524.077 -1.81942 -0.720813 0
M  V30 5565 C 524.376 -2.32152 2.71735 0
M  V30 5566 C 524.042 -1.81387 4.12807 0
M  V30 5567 C 522.704 -1.67262 4.51195 0
M  V30 5568 C 525.056 -1.43537 5.01045 0
M  V30 5569 C 522.384 -1.13685 5.7558 0
M  V30 5570 C 524.736 -0.914081 6.25961 0
M  V30 5571 C 523.4 -0.759327 6.63167 0
M  V30 5572 H 522.67 -0.454322 0.585383 0
M  V30 5573 H 525.317 -0.540261 1.83721 0
M  V30 5574 H 523.622 -3.08122 2.42008 0
M  V30 5575 H 525.319 -2.90164 2.76778 0
M  V30 5576 H 521.909 -1.93344 3.82513 0
M  V30 5577 H 526.093 -1.53292 4.72033 0
M  V30 5578 H 521.349 -1.00426 6.03096 0
M  V30 5579 H 525.523 -0.612066 6.93705 0
M  V30 5580 H 523.15 -0.342002 7.5943 0
M  V30 5581 N 524.725 -1.39134 -0.740242 0
M  V30 5582 C 525.672 -1.37434 -1.8542 0
M  V30 5583 C 526.642 -0.234822 -1.64432 0
M  V30 5584 O 527.827 -0.429125 -1.85912 0
M  V30 5585 C 524.967 -1.21844 -3.22875 0
M  V30 5586 C 524.08 -2.45296 -3.55603 0
M  V30 5587 C 523.215 -2.22334 -4.82432 0
M  V30 5588 C 522.254 -3.41488 -5.07988 0
M  V30 5589 N 521.391 -3.17877 -6.26018 0
M  V30 5590 H 526.231 -2.3266 -1.86207 0
M  V30 5591 H 523.768 -1.15578 -0.909946 0
M  V30 5592 H 525.726 -1.10818 -4.02213 0
M  V30 5593 H 524.356 -0.3025 -3.21379 0
M  V30 5594 H 523.408 -2.66945 -2.71006 0
M  V30 5595 H 524.72 -3.34063 -3.7041 0
M  V30 5596 H 523.874 -2.0852 -5.69741 0
M  V30 5597 H 522.613 -1.30954 -4.6979 0
M  V30 5598 H 521.618 -3.55807 -4.19144 0
M  V30 5599 H 522.843 -4.33763 -5.22519 0
M  V30 5600 H 520.789 -2.29156 -6.14673 0
M  V30 5601 H 520.706 -4.00198 -6.41387 0
M  V30 5602 H 521.974 -3.07746 -7.16179 0
M  V30 5603 N 526.204 0.969867 -1.24223 0
M  V30 5604 C 527.452 1.70918 -1.0785 0
M  V30 5605 C 527.773 1.91186 0.383763 0
M  V30 5606 O 527.043 1.48806 1.27411 0
M  V30 5607 H 525.623 0.633334 -0.396103 0
M  V30 5608 H 528.285 1.16689 -1.56108 0
M  V30 5609 H 527.381 2.69455 -1.57482 0
M  V30 5610 N 527.682 1.05563 1.17022 0
M  V30 5611 C 528.63 0.653887 2.2322 0
M  V30 5612 C 529.624 -0.326642 1.66221 0
M  V30 5613 O 530.83 -0.192301 1.7897 0
M  V30 5614 H 527.205 0.193297 0.726733 0
M  V30 5615 H 529.176 1.5596 2.54399 0
M  V30 5616 C 527.925 0.0485434 3.47666 0
M  V30 5617 H 527.248 0.79413 3.91834 0
M  V30 5618 H 528.688 -0.195133 4.23551 0
M  V30 5619 C 527.147 -1.20583 3.14581 0
M  V30 5620 O 527.677 -2.29475 3.29703 0
M  V30 5621 N 525.883 -1.10493 2.68774 0
M  V30 5622 H 525.43 -0.218795 2.56669 0
M  V30 5623 H 525.388 -1.94507 2.47011 0
M  V30 5624 N 529.16 -1.33526 0.837174 0
M  V30 5625 C 530.092 -2.28077 0.226579 0
M  V30 5626 C 531.105 -1.51666 -0.591717 0
M  V30 5627 O 532.294 -1.73511 -0.419064 0
M  V30 5628 C 529.394 -3.31597 -0.69978 0
M  V30 5629 C 528.567 -4.37329 0.0788067 0
M  V30 5630 C 527.626 -5.20526 -0.770637 0
M  V30 5631 O 526.652 -5.68811 -0.210453 0
M  V30 5632 N 527.854 -5.41639 -2.08825 0
M  V30 5633 H 530.619 -2.81115 1.03897 0
M  V30 5634 H 528.18 -1.46201 0.695476 0
M  V30 5635 H 530.172 -3.84158 -1.27298 0
M  V30 5636 H 528.742 -2.78848 -1.41288 0
M  V30 5637 H 527.962 -3.8529 0.833381 0
M  V30 5638 H 529.25 -5.05079 0.614238 0
M  V30 5639 H 528.648 -5.04108 -2.56693 0
M  V30 5640 H 527.205 -5.97263 -2.60998 0
M  V30 5641 N 530.638 -0.59345 -1.46 0
M  V30 5642 C 531.885 -0.0831523 -2.02329 0
M  V30 5643 C 532.213 1.28093 -1.46364 0
M  V30 5644 O 531.468 1.85526 -0.622793 0
M  V30 5645 C 531.767 0.021178 -3.57394 0
M  V30 5646 C 531.433 -1.27671 -4.32448 0
M  V30 5647 C 530.095 -1.63227 -4.5267 0
M  V30 5648 C 532.447 -2.13511 -4.7546 0
M  V30 5649 C 529.775 -2.84401 -5.1316 0
M  V30 5650 C 532.127 -3.33922 -5.37289 0
M  V30 5651 C 530.791 -3.69747 -5.55737 0
M  V30 5652 H 530.061 -0.0304276 -0.740375 0
M  V30 5653 H 532.708 -0.772239 -1.75239 0
M  V30 5654 H 531.013 0.793454 -3.83682 0
M  V30 5655 H 532.71 0.431942 -3.98667 0
M  V30 5656 H 529.3 -0.989937 -4.17011 0
M  V30 5657 H 533.484 -1.87344 -4.59582 0
M  V30 5658 H 528.74 -3.12282 -5.25633 0
M  V30 5659 H 532.914 -4.00698 -5.69574 0
M  V30 5660 H 530.541 -4.6373 -6.02377 0
M  V30 5661 N 532.116 1.54067 -0.331816 0
M  V30 5662 C 533.362 2.01713 0.261395 0
M  V30 5663 C 533.717 1.21566 1.49129 0
M  V30 5664 O 533.01 0.291867 1.89364 0
M  V30 5665 C 533.204 3.51634 0.639392 0
M  V30 5666 C 533.033 4.46295 -0.552321 0
M  V30 5667 C 531.803 4.94185 -1.05399 0
M  V30 5668 C 534.001 4.94677 -1.40711 0
M  V30 5669 N 531.983 5.7277 -2.20925 0
M  V30 5670 C 533.354 5.71267 -2.40943 0
M  V30 5671 C 535.409 4.76805 -1.43392 0
M  V30 5672 C 534.112 6.31889 -3.4367 0
M  V30 5673 C 536.138 5.38268 -2.44994 0
M  V30 5674 C 535.5 6.14716 -3.43952 0
M  V30 5675 H 531.599 0.77975 0.0592729 0
M  V30 5676 H 534.183 1.88974 -0.468726 0
M  V30 5677 H 532.354 3.64603 1.33863 0
M  V30 5678 H 534.086 3.86038 1.21478 0
M  V30 5679 H 530.841 4.69472 -0.623952 0
M  V30 5680 H 531.265 6.16737 -2.79222 0
M  V30 5681 H 535.907 4.17255 -0.682489 0
M  V30 5682 H 533.625 6.90554 -4.19715 0
M  V30 5683 H 537.211 5.26352 -2.4788 0
M  V30 5684 H 536.091 6.6143 -4.21283 0
M  V30 5685 N 533.594 0.0601682 1.57485 0
M  V30 5686 C 534.557 -0.896373 2.10945 0
M  V30 5687 C 535.557 -1.23402 1.03095 0
M  V30 5688 O 536.747 -1.16921 1.29132 0
M  V30 5689 C 533.879 -2.20346 2.60116 0
M  V30 5690 H 535.072 -0.432778 2.96761 0
M  V30 5691 H 532.625 -0.188372 1.55161 0
M  V30 5692 H 533.36 -2.71268 1.7772 0
M  V30 5693 H 533.145 -1.9714 3.38937 0
M  V30 5694 H 534.635 -2.88846 3.01592 0
M  V30 5695 N 535.072 -1.5615 -0.213296 0
M  V30 5696 C 536.321 -1.78743 -0.93455 0
M  V30 5697 C 536.634 -0.630199 -1.8517 0
M  V30 5698 O 537.84 -0.739966 -2.61222 0
M  V30 5699 C 536.296 -3.16571 -1.71203 0
M  V30 5700 C 535.904 -4.40043 -0.840617 0
M  V30 5701 C 537.648 -3.48485 -2.42401 0
M  V30 5702 C 535.555 -5.68895 -1.61592 0
M  V30 5703 H 534.485 -0.666426 -0.352692 0
M  V30 5704 H 537.136 -1.82532 -0.188227 0
M  V30 5705 H 535.518 -3.06981 -2.50157 0
M  V30 5706 H 536.692 -4.6071 -0.0910326 0
M  V30 5707 H 535.007 -4.15706 -0.240365 0
M  V30 5708 H 537.604 -4.41983 -3.00924 0
M  V30 5709 H 537.947 -2.71371 -3.15695 0
M  V30 5710 H 538.48 -3.59442 -1.7043 0
M  V30 5711 H 535.219 -6.48925 -0.926106 0
M  V30 5712 H 534.739 -5.52275 -2.33991 0
M  V30 5713 H 536.418 -6.09365 -2.17447 0
M  V30 5714 N 536.55 0.480323 -1.50102 0
M  V30 5715 C 537.966 0.813295 -1.37323 0
M  V30 5716 C 538.166 1.97027 -0.422206 0
M  V30 5717 O 537.222 2.5212 0.138563 0
M  V30 5718 C 538.535 1.13404 -2.78496 0
M  V30 5719 C 540.083 1.24104 -2.87345 0
M  V30 5720 C 540.558 1.59497 -4.29331 0
M  V30 5721 N 542.049 1.66507 -4.32238 0
M  V30 5722 C 542.784 1.95378 -5.39087 0
M  V30 5723 N 542.28 2.22333 -6.56155 0
M  V30 5724 N 544.073 1.96803 -5.26522 0
M  V30 5725 H 536.224 -0.282291 -2.10516 0
M  V30 5726 H 538.487 -0.063752 -0.945854 0
M  V30 5727 H 538.193 0.357064 -3.49883 0
M  V30 5728 H 538.067 2.07251 -3.15162 0
M  V30 5729 H 540.454 2.00871 -2.16183 0
M  V30 5730 H 540.535 0.282593 -2.54234 0
M  V30 5731 H 540.179 0.832736 -5.01027 0
M  V30 5732 H 540.109 2.56477 -4.59921 0
M  V30 5733 H 542.6 1.47753 -3.47818 0
M  V30 5734 H 542.913 2.43611 -7.33399 0
M  V30 5735 H 541.258 2.19745 -6.59346 0
M  V30 5736 H 544.449 1.75235 -4.34062 0
M  V30 5737 H 544.622 2.18969 -6.09883 0
M  V30 5738 N 538.028 1.39524 0.732853 0
M  V30 5739 C 539.276 1.36594 1.48951 0
M  V30 5740 C 539.597 -0.0367507 1.94965 0
M  V30 5741 O 538.867 -0.988391 1.69138 0
M  V30 5742 H 537.447 0.502673 0.552566 0
M  V30 5743 H 540.109 1.74411 0.869869 0
M  V30 5744 H 539.205 2.03 2.3706 0
M  V30 5745 N 539.506 -0.963266 1.24736 0
M  V30 5746 C 540.454 -2.07985 1.04139 0
M  V30 5747 C 541.448 -1.69381 -0.0250556 0
M  V30 5748 O 542.654 -1.79531 0.129863 0
M  V30 5749 H 539.029 -0.680627 0.319768 0
M  V30 5750 H 541 -2.22517 1.98818 0
M  V30 5751 C 539.749 -3.4123 0.667615 0
M  V30 5752 H 539.072 -3.71397 1.48 0
M  V30 5753 H 540.512 -4.20244 0.563136 0
M  V30 5754 C 538.971 -3.3104 -0.625647 0
M  V30 5755 O 539.501 -3.65334 -1.67016 0
M  V30 5756 N 537.707 -2.84168 -0.608033 0
M  V30 5757 H 537.254 -2.56458 0.242323 0
M  V30 5758 H 537.212 -2.77732 -1.47352 0
M  V30 5759 N 540.985 -1.06182 -1.16461 0
M  V30 5760 C 541.895 -0.682671 -2.24448 0
M  V30 5761 C 542.911 0.30078 -1.71381 0
M  V30 5762 O 544.087 0.150376 -2.00838 0
M  V30 5763 C 541.152 -0.0737202 -3.46622 0
M  V30 5764 C 540.213 -1.10889 -4.14731 0
M  V30 5765 C 539.446 -0.528908 -5.31073 0
M  V30 5766 O 539.669 0.65868 -5.66584 0
M  V30 5767 O 538.603 -1.26805 -5.88391 0
M  V30 5768 H 542.429 -1.58291 -2.59187 0
M  V30 5769 H 540.014 -0.834013 -1.23954 0
M  V30 5770 H 541.896 0.264192 -4.20571 0
M  V30 5771 H 540.571 0.800015 -3.13658 0
M  V30 5772 H 539.478 -1.49896 -3.42756 0
M  V30 5773 H 540.811 -1.95412 -4.51747 0
M  V30 5774 N 542.463 1.3308 -0.844243 0
M  V30 5775 C 543.709 1.97898 -0.443206 0
M  V30 5776 C 544.042 1.66699 0.99625 0
M  V30 5777 O 543.317 0.949704 1.69738 0
M  V30 5778 C 543.6 3.53801 -0.670606 0
M  V30 5779 C 543.453 3.94667 -2.15772 0
M  V30 5780 C 544.772 4.39936 -0.120226 0
M  V30 5781 H 541.891 0.718861 -0.162504 0
M  V30 5782 H 544.533 1.57633 -1.06075 0
M  V30 5783 H 542.683 3.88229 -0.14496 0
M  V30 5784 H 544.355 3.70469 -2.74865 0
M  V30 5785 H 542.598 3.44203 -2.6402 0
M  V30 5786 H 543.269 5.03275 -2.26757 0
M  V30 5787 H 545.745 4.12183 -0.5696 0
M  V30 5788 H 544.621 5.4803 -0.308984 0
M  V30 5789 H 544.882 4.31184 0.976347 0
M  V30 5790 N 543.941 0.601185 1.45683 0
M  V30 5791 C 545.357 0.264315 1.57396 0
M  V30 5792 C 545.557 -1.23324 1.59353 0
M  V30 5793 O 544.613 -2.01594 1.52039 0
M  V30 5794 C 545.926 0.929839 2.85962 0
M  V30 5795 C 547.474 0.905156 2.99626 0
M  V30 5796 C 547.949 1.55057 4.30954 0
M  V30 5797 N 549.44 1.51576 4.37697 0
M  V30 5798 C 550.175 1.98436 5.37969 0
M  V30 5799 N 549.671 2.53352 6.44813 0
M  V30 5800 N 551.464 1.89242 5.29286 0
M  V30 5801 H 543.615 1.57363 1.42656 0
M  V30 5802 H 545.878 0.658831 0.681649 0
M  V30 5803 H 545.584 1.98404 2.90394 0
M  V30 5804 H 545.458 0.449224 3.74515 0
M  V30 5805 H 547.845 -0.14048 2.94765 0
M  V30 5806 H 547.926 1.42397 2.12501 0
M  V30 5807 H 547.57 2.5955 4.36573 0
M  V30 5808 H 547.5 1.00682 5.16886 0
M  V30 5809 H 549.991 1.11452 3.61091 0
M  V30 5810 H 550.304 2.86918 7.17564 0
M  V30 5811 H 548.649 2.57388 6.45582 0
M  V30 5812 H 551.84 1.46083 4.44722 0
M  V30 5813 H 552.013 2.26075 6.07284 0
M  V30 5814 N 545.419 -1.53889 0.339982 0
M  V30 5815 C 546.382 -2.23547 -0.50592 0
M  V30 5816 C 547.382 -1.23445 -1.03044 0
M  V30 5817 O 548.572 -1.47909 -0.920253 0
M  V30 5818 C 545.704 -2.95234 -1.7044 0
M  V30 5819 H 546.897 -2.99722 0.103247 0
M  V30 5820 H 544.45 -1.56033 0.0912804 0
M  V30 5821 H 545.185 -2.23236 -2.35236 0
M  V30 5822 H 544.97 -3.68654 -1.33553 0
M  V30 5823 H 546.46 -3.48258 -2.30447 0
M  V30 5824 N 546.897 -0.0685191 -1.57451 0
M  V30 5825 C 548.145 0.60016 -1.92983 0
M  V30 5826 C 548.466 1.70348 -0.949028 0
M  V30 5827 O 547.736 1.959 0.00335647 0
M  V30 5828 H 546.316 0.224682 -0.712409 0
M  V30 5829 H 548.978 -0.125605 -1.94495 0
M  V30 5830 H 548.074 1.02759 -2.94698 0
M  V30 5831 N 548.375 1.56261 0.205012 0
M  V30 5832 C 549.605 1.83874 0.942018 0
M  V30 5833 C 550.013 0.647595 1.77772 0
M  V30 5834 O 549.356 -0.393098 1.79445 0
M  V30 5835 C 549.418 3.05453 1.89575 0
M  V30 5836 C 549.082 4.39772 1.24296 0
M  V30 5837 C 550.079 5.16133 0.624724 0
M  V30 5838 C 547.764 4.86504 1.24978 0
M  V30 5839 C 549.758 6.37396 0.0220117 0
M  V30 5840 C 547.445 6.07705 0.643232 0
M  V30 5841 C 548.443 6.82993 0.0304164 0
M  V30 5842 O 548.131 8.019 -0.566654 0
M  V30 5843 H 547.863 0.614896 0.280854 0
M  V30 5844 H 550.417 2.04215 0.220285 0
M  V30 5845 H 548.647 2.80972 2.65691 0
M  V30 5846 H 550.336 3.19797 2.4997 0
M  V30 5847 H 551.102 4.81127 0.611666 0
M  V30 5848 H 546.981 4.27865 1.71616 0
M  V30 5849 H 550.525 6.96102 -0.456926 0
M  V30 5850 H 546.422 6.42181 0.653759 0
M  V30 5851 H 547.19 8.17192 -0.462588 0
M  V30 5852 N 549.853 -0.472356 1.50355 0
M  V30 5853 C 551.264 -1.05326 1.54154 0
M  V30 5854 C 551.615 -1.93155 0.344303 0
M  V30 5855 O 550.74 -2.09479 -0.542928 0
M  V30 5856 C 551.335 -1.91691 2.79356 0
M  V30 5857 C 549.894 -2.44892 2.8584 0
M  V30 5858 C 549.041 -1.23205 2.48426 0
M  V30 5859 H 551.992 -0.255027 1.56637 0
M  V30 5860 H 552.013 -2.76742 2.6114 0
M  V30 5861 H 551.525 -1.27741 3.66475 0
M  V30 5862 H 549.626 -3.12399 2.0307 0
M  V30 5863 H 549.739 -2.80086 3.88701 0
M  V30 5864 H 548.103 -1.56643 2.00836 0
M  V30 5865 H 548.886 -0.609194 3.37852 0
M  V30 5866 N 551.331 -1.39911 -0.725443 0
M  V30 5867 C 552.747 -1.21725 -1.03224 0
M  V30 5868 C 552.947 -0.0855224 -2.01318 0
M  V30 5869 O 552.003 0.55976 -2.46217 0
M  V30 5870 C 553.316 -2.55511 -1.58539 0
M  V30 5871 C 554.864 -2.62439 -1.70572 0
M  V30 5872 C 555.339 -3.9647 -2.29294 0
M  V30 5873 N 556.83 -3.98159 -2.36692 0
M  V30 5874 C 557.565 -4.98647 -2.83088 0
M  V30 5875 N 557.061 -6.0953 -3.2931 0
M  V30 5876 N 558.854 -4.8602 -2.82384 0
M  V30 5877 H 551.005 -2.12267 -0.075048 0
M  V30 5878 H 553.268 -0.943136 -0.0959066 0
M  V30 5879 H 552.974 -3.38926 -0.939249 0
M  V30 5880 H 552.848 -2.75905 -2.57208 0
M  V30 5881 H 555.235 -1.79401 -2.34306 0
M  V30 5882 H 555.316 -2.45885 -0.705297 0
M  V30 5883 H 554.96 -4.79942 -1.66186 0
M  V30 5884 H 554.89 -4.10349 -3.30032 0
M  V30 5885 H 557.381 -3.18085 -2.04035 0
M  V30 5886 H 557.694 -6.82106 -3.6325 0
M  V30 5887 H 556.039 -6.1311 -3.27294 0
M  V30 5888 H 559.23 -3.98493 -2.45603 0
M  V30 5889 H 559.403 -5.64478 -3.18226 0
M  V30 5890 N 552.809 0.956637 -1.25245 0
M  V30 5891 C 554.057 1.69764 -1.09657 0
M  V30 5892 C 554.378 1.91583 0.363464 0
M  V30 5893 O 553.648 1.50149 1.25825 0
M  V30 5894 H 552.228 0.629097 -0.402798 0
M  V30 5895 H 554.89 1.15026 -1.57337 0
M  V30 5896 H 553.986 2.67769 -1.60331 0
M  V30 5897 N 554.287 1.06798 1.15896 0
M  V30 5898 C 555.536 0.782796 1.8589 0
M  V30 5899 C 555.849 -0.693498 1.82893 0
M  V30 5900 O 557.055 -1.09325 2.48516 0
M  V30 5901 C 555.511 1.3502 3.33613 0
M  V30 5902 C 555.119 2.8571 3.45071 0
M  V30 5903 C 556.863 1.14278 4.08829 0
M  V30 5904 C 554.77 3.35669 4.86909 0
M  V30 5905 H 553.7 0.289149 0.696354 0
M  V30 5906 H 556.351 1.28734 1.30766 0
M  V30 5907 H 554.733 0.773407 3.88374 0
M  V30 5908 H 555.907 3.49385 3.00445 0
M  V30 5909 H 554.222 3.05178 2.83294 0
M  V30 5910 H 556.819 1.49087 5.13495 0
M  V30 5911 H 557.162 0.0814575 4.1622 0
M  V30 5912 H 557.695 1.68563 3.60321 0
M  V30 5913 H 554.434 4.41302 4.84698 0
M  V30 5914 H 553.954 2.76745 5.32139 0
M  V30 5915 H 555.633 3.31296 5.55745 0
M  V30 5916 N 555.766 -1.3263 0.851289 0
M  V30 5917 C 556.716 -2.26451 0.265302 0
M  V30 5918 C 557.7 -1.49814 -0.586899 0
M  V30 5919 O 558.892 -1.71525 -0.436834 0
M  V30 5920 C 556.021 -3.38895 -0.548212 0
M  V30 5921 C 555.107 -4.2292 0.316189 0
M  V30 5922 N 555.498 -4.86014 1.40084 0
M  V30 5923 C 553.796 -4.45876 0.105356 0
M  V30 5924 C 554.497 -5.48667 1.93235 0
M  V30 5925 N 553.473 -5.29455 1.232 0
M  V30 5926 H 557.275 -2.72757 1.09457 0
M  V30 5927 H 554.789 -1.4668 0.697047 0
M  V30 5928 H 556.786 -4.05111 -0.984402 0
M  V30 5929 H 555.446 -2.94135 -1.37531 0
M  V30 5930 H 556.457 -4.86212 1.78377 0
M  V30 5931 H 553.134 -4.11804 -0.687299 0
M  V30 5932 H 554.524 -6.08865 2.84135 0
M  V30 5933 N 557.244 -0.608902 -1.45362 0
M  V30 5934 C 558.472 -0.111013 -2.06602 0
M  V30 5935 C 558.887 1.20516 -1.45332 0
M  V30 5936 O 558.244 1.73437 -0.567978 0
M  V30 5937 C 558.295 0.033688 -3.61484 0
M  V30 5938 O 558.016 -1.23041 -4.20467 0
M  V30 5939 C 559.517 0.562882 -4.39712 0
M  V30 5940 H 556.737 -0.0694453 -0.667397 0
M  V30 5941 H 559.281 -0.837008 -1.86586 0
M  V30 5942 H 557.436 0.710016 -3.80838 0
M  V30 5943 H 557.85 -1.06094 -5.13658 0
M  V30 5944 H 559.324 0.613213 -5.48583 0
M  V30 5945 H 559.801 1.58543 -4.09586 0
M  V30 5946 H 560.407 -0.0794454 -4.25226 0
M  V30 5947 N 558.722 1.53707 -0.348139 0
M  V30 5948 C 559.652 2.28111 0.498766 0
M  V30 5949 C 560.633 1.29851 1.09876 0
M  V30 5950 O 561.818 1.587 1.11928 0
M  V30 5951 C 558.948 3.05735 1.64753 0
M  V30 5952 C 557.902 4.11537 1.17565 0
M  V30 5953 C 557.228 4.77142 2.4133 0
M  V30 5954 C 558.528 5.21587 0.272844 0
M  V30 5955 H 560.222 2.99152 -0.121934 0
M  V30 5956 H 557.768 1.43875 -0.0600842 0
M  V30 5957 H 559.721 3.56526 2.24649 0
M  V30 5958 H 558.445 2.32354 2.2952 0
M  V30 5959 H 557.104 3.61665 0.599483 0
M  V30 5960 H 556.752 4.0035 3.04514 0
M  V30 5961 H 556.452 5.48626 2.10436 0
M  V30 5962 H 557.976 5.30719 3.01943 0
M  V30 5963 H 559.39 5.67986 0.778779 0
M  V30 5964 H 557.787 6.00074 0.0555849 0
M  V30 5965 H 558.857 4.79969 -0.689785 0
M  V30 5966 N 560.2 0.0768682 1.57412 0
M  V30 5967 C 561.448 -0.589918 1.93299 0
M  V30 5968 C 561.769 -1.69842 0.958049 0
M  V30 5969 O 561.039 -1.95899 0.00703261 0
M  V30 5970 H 559.619 -0.220901 0.713591 0
M  V30 5971 H 562.281 0.135917 1.94425 0
M  V30 5972 H 561.377 -1.01195 2.95239 0
M  V30 5973 N 561.678 -1.56367 -0.196722 0
M  V30 5974 C 562.925 -1.80529 -0.917366 0
M  V30 5975 C 563.253 -0.649817 -1.83324 0
M  V30 5976 O 562.508 0.36451 -1.92275 0
M  V30 5977 C 562.807 -3.10663 -1.767 0
M  V30 5978 C 562.473 -4.3962 -1.00225 0
M  V30 5979 C 561.135 -4.74653 -0.791095 0
M  V30 5980 C 563.487 -5.1913 -0.464035 0
M  V30 5981 C 560.815 -5.86692 -0.0302155 0
M  V30 5982 C 563.167 -6.31964 0.283625 0
M  V30 5983 C 561.831 -6.65581 0.505813 0
M  V30 5984 H 561.101 -0.660602 -0.335688 0
M  V30 5985 H 563.748 -1.90615 -0.183844 0
M  V30 5986 H 562.053 -2.95807 -2.56915 0
M  V30 5987 H 563.75 -3.26563 -2.32718 0
M  V30 5988 H 560.34 -4.12127 -1.17684 0
M  V30 5989 H 564.524 -4.9248 -0.614575 0
M  V30 5990 H 559.78 -6.11211 0.151917 0
M  V30 5991 H 563.954 -6.92791 0.708057 0
M  V30 5992 H 561.581 -7.52239 1.0973 0
M  V30 5993 N 563.156 0.464375 -1.50603 0
M  V30 5994 C 564.567 1.04507 -1.5471 0
M  V30 5995 C 564.918 1.9297 -0.354542 0
M  V30 5996 O 564.043 2.09763 0.531812 0
M  V30 5997 C 564.638 1.90207 -2.80369 0
M  V30 5998 C 563.197 2.43373 -2.87135 0
M  V30 5999 C 562.344 1.21886 -2.49076 0
M  V30 6000 H 565.295 0.246716 -1.56771 0
M  V30 6001 H 565.316 2.75353 -2.62604 0
M  V30 6002 H 564.828 1.25796 -3.67147 0
M  V30 6003 H 562.929 3.11318 -2.04724 0
M  V30 6004 H 563.042 2.7802 -3.90181 0
M  V30 6005 H 561.406 1.55575 -2.01664 0
M  V30 6006 H 562.189 0.591268 -3.3817 0
M  V30 6007 N 564.634 1.40294 0.718013 0
M  V30 6008 C 566.045 1.34289 1.29705 0
M  V30 6009 C 566.396 0.0152228 1.96194 0
M  V30 6010 O 565.521 -0.88682 1.97394 0
M  V30 6011 C 566.116 2.43219 2.3586 0
M  V30 6012 C 564.675 2.40682 2.89394 0
M  V30 6013 C 563.822 2.24223 1.63154 0
M  V30 6014 H 566.773 1.50135 0.514312 0
M  V30 6015 H 566.794 2.10986 3.16647 0
M  V30 6016 H 566.306 3.39836 1.87439 0
M  V30 6017 H 564.407 1.47756 3.42051 0
M  V30 6018 H 564.52 3.36177 3.41353 0
M  V30 6019 H 562.884 1.71696 1.88129 0
M  V30 6020 H 563.667 3.22834 1.16761 0
M  V30 6021 N 566.112 -0.949982 1.2575 0
M  V30 6022 C 567.34 -1.72972 1.13527 0
M  V30 6023 C 567.755 -1.8623 -0.310453 0
M  V30 6024 O 567.112 -1.36336 -1.2132 0
M  V30 6025 C 567.163 -3.14108 1.78936 0
M  V30 6026 O 566.884 -3.01493 3.17858 0
M  V30 6027 C 568.385 -4.08338 1.72554 0
M  V30 6028 H 565.605 -0.541864 0.395758 0
M  V30 6029 H 568.149 -1.19151 1.66202 0
M  V30 6030 H 566.304 -3.64858 1.30221 0
M  V30 6031 H 566.718 -3.90559 3.50092 0
M  V30 6032 H 568.192 -5.04963 2.22973 0
M  V30 6033 H 568.669 -4.33742 0.690251 0
M  V30 6034 H 569.275 -3.63506 2.2078 0
M  V30 6035 N 567.59 -1.07411 -1.15328 0
M  V30 6036 C 568.836 -0.798831 -1.86404 0
M  V30 6037 C 569.169 0.673433 -1.8215 0
M  V30 6038 O 568.444 1.49428 -1.24505 0
M  V30 6039 C 568.727 -1.30846 -3.35487 0
M  V30 6040 C 568.58 -2.84532 -3.4837 0
M  V30 6041 C 569.899 -0.925486 -4.30259 0
M  V30 6042 H 567.018 -0.291659 -0.676834 0
M  V30 6043 H 569.66 -1.332 -1.35491 0
M  V30 6044 H 567.81 -0.854916 -3.78977 0
M  V30 6045 H 569.482 -3.3818 -3.13739 0
M  V30 6046 H 567.725 -3.22699 -2.8991 0
M  V30 6047 H 568.396 -3.15259 -4.53118 0
M  V30 6048 H 570.872 -1.3163 -3.94731 0
M  V30 6049 H 569.748 -1.3094 -5.33053 0
M  V30 6050 H 570.009 0.168525 -4.41779 0
M  V30 6051 N 569.068 1.32177 -0.85831 0
M  V30 6052 C 570.484 1.49873 -0.548656 0
M  V30 6053 C 570.684 1.79278 0.919874 0
M  V30 6054 O 569.74 1.86451 1.70271 0
M  V30 6055 C 571.053 2.64043 -1.4388 0
M  V30 6056 C 572.601 2.77928 -1.43961 0
M  V30 6057 C 573.076 3.95182 -2.31506 0
M  V30 6058 N 574.567 4.0245 -2.29321 0
M  V30 6059 C 575.302 4.9242 -2.93786 0
M  V30 6060 N 574.798 5.87373 -3.67376 0
M  V30 6061 N 576.591 4.85572 -2.83155 0
M  V30 6062 H 568.742 1.11357 -1.80868 0
M  V30 6063 H 571.005 0.549175 -0.772729 0
M  V30 6064 H 570.711 2.49055 -2.48324 0
M  V30 6065 H 570.585 3.59912 -1.12885 0
M  V30 6066 H 572.972 2.92338 -0.402813 0
M  V30 6067 H 573.053 1.82762 -1.78974 0
M  V30 6068 H 572.697 3.81531 -3.35256 0
M  V30 6069 H 572.627 4.89633 -1.93823 0
M  V30 6070 H 575.118 3.34507 -1.75822 0
M  V30 6071 H 575.431 6.52728 -4.13722 0
M  V30 6072 H 573.776 5.87388 -3.71484 0
M  V30 6073 H 576.967 4.10363 -2.25211 0
M  V30 6074 H 577.14 5.55486 -3.33676 0
M  V30 6075 N 570.547 0.616602 1.45037 0
M  V30 6076 C 571.494 -0.0969439 2.30596 0
M  V30 6077 C 572.464 -0.851151 1.42635 0
M  V30 6078 O 573.649 -0.835092 1.71554 0
M  V30 6079 C 570.789 -1.08234 3.27688 0
M  V30 6080 C 569.902 -0.328072 4.30752 0
M  V30 6081 C 569.037 -1.30399 5.14946 0
M  V30 6082 C 568.076 -0.538049 6.09731 0
M  V30 6083 N 567.213 -1.46371 6.86673 0
M  V30 6084 H 572.053 0.63864 2.91076 0
M  V30 6085 H 569.59 0.326733 1.43425 0
M  V30 6086 H 571.548 -1.66688 3.82454 0
M  V30 6087 H 570.178 -1.78523 2.68941 0
M  V30 6088 H 569.23 0.372136 3.78575 0
M  V30 6089 H 570.542 0.269142 4.98073 0
M  V30 6090 H 569.696 -1.96032 5.74157 0
M  V30 6091 H 568.435 -1.93514 4.47665 0
M  V30 6092 H 567.44 0.131852 5.49642 0
M  V30 6093 H 568.665 0.0881732 6.79043 0
M  V30 6094 H 566.611 -2.08233 6.22073 0
M  V30 6095 H 566.528 -0.920152 7.50379 0
M  V30 6096 H 567.796 -2.10932 7.50418 0
M  V30 6097 N 572.025 -1.5352 0.356285 0
M  V30 6098 C 573.274 -2.00298 -0.237373 0
M  V30 6099 C 573.587 -1.24784 -1.50627 0
M  V30 6100 O 574.793 -1.62103 -2.17795 0
M  V30 6101 C 573.249 -3.56771 -0.473545 0
M  V30 6102 C 572.857 -4.41154 0.780183 0
M  V30 6103 C 574.601 -4.1193 -1.02537 0
M  V30 6104 C 572.508 -5.89161 0.514108 0
M  V30 6105 H 571.438 -0.748307 -0.092478 0
M  V30 6106 H 574.089 -1.77283 0.473588 0
M  V30 6107 H 572.471 -3.75902 -1.24553 0
M  V30 6108 H 573.645 -4.33797 1.55425 0
M  V30 6109 H 571.96 -3.97052 1.25455 0
M  V30 6110 H 574.557 -5.20133 -1.2396 0
M  V30 6111 H 574.9 -3.65943 -1.98473 0
M  V30 6112 H 575.433 -3.96561 -0.313775 0
M  V30 6113 H 572.172 -6.39408 1.44355 0
M  V30 6114 H 571.692 -5.9939 -0.221632 0
M  V30 6115 H 573.371 -6.46857 0.136122 0
M  V30 6116 N 573.503 -0.0852151 -1.57369 0
M  V30 6117 C 574.78 0.622534 -1.85429 0
M  V30 6118 C 575.16 1.86962 -0.980229 0
M  V30 6119 O 574.508 2.28445 -0.0500219 0
M  V30 6120 C 574.718 0.947374 -3.35896 0
M  V30 6121 C 576.066 1.31509 -4.03721 0
M  V30 6122 O 577.09 1.03869 -3.40719 0
M  V30 6123 O 575.949 1.83231 -5.14868 0
M  V30 6124 H 573.043 0.310513 -0.766492 0
M  V30 6125 H 575.589 -0.117164 -1.69295 0
M  V30 6126 H 574.361 0.0622264 -3.91251 0
M  V30 6127 H 573.984 1.74338 -3.5734 0
M  V30 6128 N 574.981 1.5647 0.188427 0
M  V30 6129 C 575.944 1.9421 1.21718 0
M  V30 6130 C 576.944 0.823901 1.38089 0
M  V30 6131 O 578.134 1.09122 1.35787 0
M  V30 6132 C 575.266 2.22197 2.58537 0
M  V30 6133 H 576.459 2.86252 0.894418 0
M  V30 6134 H 574.012 1.50263 0.430211 0
M  V30 6135 H 574.747 1.32814 2.95856 0
M  V30 6136 H 574.532 3.03688 2.48025 0
M  V30 6137 H 576.022 2.52376 3.3271 0
M  V30 6138 N 576.459 -0.456382 1.50847 0
M  V30 6139 C 577.422 -1.53493 1.70213 0
M  V30 6140 C 578.422 -1.50264 0.572481 0
M  V30 6141 O 579.612 -1.52623 0.839751 0
M  V30 6142 C 576.744 -2.93091 1.741 0
M  V30 6143 H 577.937 -1.37633 2.66453 0
M  V30 6144 H 575.49 -0.683776 1.4055 0
M  V30 6145 H 576.225 -3.14378 0.796063 0
M  V30 6146 H 576.01 -2.9684 2.5618 0
M  V30 6147 H 577.5 -3.71368 1.90987 0
M  V30 6148 N 577.937 -1.40673 -0.710563 0
M  V30 6149 C 579.186 -1.38525 -1.46607 0
M  V30 6150 C 579.499 0.0077024 -1.95598 0
M  V30 6151 O 580.705 0.151792 -2.71075 0
M  V30 6152 C 579.161 -2.43489 -2.6503 0
M  V30 6153 C 578.769 -3.88619 -2.22888 0
M  V30 6154 C 580.513 -2.50456 -3.42742 0
M  V30 6155 C 578.42 -4.85168 -3.3818 0
M  V30 6156 H 577.35 -0.515092 -0.550632 0
M  V30 6157 H 580.001 -1.66431 -0.772846 0
M  V30 6158 H 578.383 -2.0869 -3.36548 0
M  V30 6159 H 579.557 -4.32588 -1.58758 0
M  V30 6160 H 577.872 -3.85174 -1.58208 0
M  V30 6161 H 580.469 -3.19776 -4.28541 0
M  V30 6162 H 580.812 -1.53665 -3.86902 0
M  V30 6163 H 581.345 -2.84271 -2.78271 0
M  V30 6164 H 578.084 -5.8331 -2.99047 0
M  V30 6165 H 577.604 -4.4586 -4.01209 0
M  V30 6166 H 579.283 -5.05225 -4.04174 0
M  V30 6167 N 579.415 0.9433 -1.26252 0
M  V30 6168 C 580.64 1.72898 -1.14547 0
M  V30 6169 C 581.065 1.85761 0.295743 0
M  V30 6170 O 580.423 1.3463 1.21427 0
M  V30 6171 C 580.471 3.11471 -1.8171 0
M  V30 6172 O 579.575 3.97336 -1.10445 0
M  V30 6173 H 578.916 0.530555 -0.399259 0
M  V30 6174 H 581.446 1.18159 -1.67032 0
M  V30 6175 H 581.456 3.61872 -1.88449 0
M  V30 6176 H 580.131 3.01425 -2.86558 0
M  V30 6177 H 578.708 3.55788 -1.11666 0
M  V30 6178 N 580.893 1.08022 1.14757 0
M  V30 6179 C 582.17 0.720386 1.81851 0
M  V30 6180 C 582.55 -0.796375 1.95502 0
M  V30 6181 O 581.898 -1.71339 1.51179 0
M  V30 6182 C 582.108 1.44273 3.17783 0
M  V30 6183 C 583.456 1.59925 3.93331 0
M  V30 6184 O 584.48 1.40407 3.2736 0
M  V30 6185 O 583.339 1.92096 5.11626 0
M  V30 6186 H 580.433 0.257142 0.786007 0
M  V30 6187 H 582.979 1.18155 1.21809 0
M  V30 6188 H 581.751 2.47618 3.02987 0
M  V30 6189 H 581.374 0.97279 3.85516 0
M  V30 6190 N 582.371 -1.3172 0.865308 0
M  V30 6191 C 583.318 -2.2863 0.315736 0
M  V30 6192 C 584.288 -1.55524 -0.583213 0
M  V30 6193 O 585.473 -1.83694 -0.51585 0
M  V30 6194 C 582.613 -3.41735 -0.480773 0
M  V30 6195 C 581.726 -4.297 0.445167 0
M  V30 6196 C 580.861 -5.29944 -0.365012 0
M  V30 6197 C 579.9 -6.09554 0.557651 0
M  V30 6198 N 579.037 -7.01768 -0.215994 0
M  V30 6199 H 583.877 -2.75026 1.14736 0
M  V30 6200 H 581.414 -1.35302 0.577209 0
M  V30 6201 H 583.372 -4.06045 -0.958306 0
M  V30 6202 H 582.002 -2.96461 -1.27714 0
M  V30 6203 H 581.054 -3.65875 1.04113 0
M  V30 6204 H 582.366 -4.85295 1.15284 0
M  V30 6205 H 581.52 -5.99908 -0.905255 0
M  V30 6206 H 580.259 -4.74994 -1.106 0
M  V30 6207 H 579.264 -5.38485 1.10969 0
M  V30 6208 H 580.489 -6.66591 1.29742 0
M  V30 6209 H 578.435 -6.49232 -0.939878 0
M  V30 6210 H 578.352 -7.54762 0.432431 0
M  V30 6211 H 579.62 -7.76002 -0.737618 0
M  V30 6212 N 583.85 -0.624285 -1.44708 0
M  V30 6213 C 584.76 0.0861083 -2.34442 0
M  V30 6214 C 585.776 0.84291 -1.5222 0
M  V30 6215 O 586.952 0.796723 -1.84971 0
M  V30 6216 C 584.017 1.05999 -3.30099 0
M  V30 6217 C 583.077 0.303316 -4.28227 0
M  V30 6218 C 582.311 1.23081 -5.19314 0
M  V30 6219 O 582.534 2.46929 -5.14181 0
M  V30 6220 O 581.468 0.71883 -5.97592 0
M  V30 6221 H 585.293 -0.651756 -2.96624 0
M  V30 6222 H 582.879 -0.384493 -1.44368 0
M  V30 6223 H 584.76 1.62046 -3.88997 0
M  V30 6224 H 583.436 1.77859 -2.70459 0
M  V30 6225 H 582.343 -0.300033 -3.72895 0
M  V30 6226 H 583.676 -0.375123 -4.90768 0
M  V30 6227 N 585.328 1.53329 -0.364422 0
M  V30 6228 C 586.275 2.25698 0.482607 0
M  V30 6229 C 587.245 1.26325 1.07848 0
M  V30 6230 O 588.43 1.55104 1.11119 0
M  V30 6231 C 585.57 3.04873 1.61699 0
M  V30 6232 C 584.683 4.19135 1.0464 0
M  V30 6233 C 583.818 4.85754 2.14979 0
M  V30 6234 C 582.857 5.9205 1.5538 0
M  V30 6235 N 581.994 6.52365 2.59547 0
M  V30 6236 H 586.834 2.97666 -0.141032 0
M  V30 6237 H 584.371 1.46875 -0.0813692 0
M  V30 6238 H 586.329 3.49051 2.28516 0
M  V30 6239 H 584.959 2.35162 2.2113 0
M  V30 6240 H 584.011 3.79451 0.268553 0
M  V30 6241 H 585.323 4.95525 0.570653 0
M  V30 6242 H 584.477 5.3311 2.89619 0
M  V30 6243 H 583.216 4.08834 2.65906 0
M  V30 6244 H 582.221 5.44058 0.792549 0
M  V30 6245 H 583.446 6.7089 1.0528 0
M  V30 6246 H 581.392 5.78298 3.09689 0
M  V30 6247 H 581.309 7.2429 2.16655 0
M  V30 6248 H 582.577 7.0437 3.33892 0
M  V30 6249 N 586.806 0.0935595 1.57322 0
M  V30 6250 C 587.754 -0.883457 2.15169 0
M  V30 6251 C 588.748 -1.29324 1.09415 0
M  V30 6252 O 589.954 -1.26795 1.27762 0
M  V30 6253 H 586.329 -0.302923 0.688289 0
M  V30 6254 H 588.3 -0.370845 2.96087 0
M  V30 6255 C 587.049 -2.13345 2.74552 0
M  V30 6256 H 586.372 -1.82702 3.55612 0
M  V30 6257 H 587.812 -2.7977 3.18598 0
M  V30 6258 C 586.271 -2.90646 1.70371 0
M  V30 6259 O 586.801 -3.85133 1.14173 0
M  V30 6260 N 585.007 -2.54157 1.40899 0
M  V30 6261 H 584.554 -1.77391 1.86789 0
M  V30 6262 H 584.512 -3.06178 0.714301 0
M  V30 6263 N 588.284 -1.56567 -0.180126 0
M  V30 6264 C 589.231 -1.95725 -1.22313 0
M  V30 6265 C 590.201 -0.819911 -1.44453 0
M  V30 6266 O 591.386 -1.07931 -1.57339 0
M  V30 6267 C 588.526 -2.31484 -2.55947 0
M  V30 6268 C 587.639 -3.58354 -2.4126 0
M  V30 6269 C 586.774 -3.83366 -3.67701 0
M  V30 6270 C 585.813 -5.03612 -3.47909 0
M  V30 6271 N 584.95 -5.24802 -4.66398 0
M  V30 6272 H 589.79 -2.84642 -0.882198 0
M  V30 6273 H 587.327 -1.4085 -0.42422 0
M  V30 6274 H 589.285 -2.50237 -3.33822 0
M  V30 6275 H 587.915 -1.45689 -2.88053 0
M  V30 6276 H 586.967 -3.47565 -1.54606 0
M  V30 6277 H 588.279 -4.46386 -2.22577 0
M  V30 6278 H 587.433 -4.02439 -4.54013 0
M  V30 6279 H 586.172 -2.93692 -3.89353 0
M  V30 6280 H 585.177 -4.84447 -2.59983 0
M  V30 6281 H 586.402 -5.94809 -3.27688 0
M  V30 6282 H 584.348 -4.38079 -4.88286 0
M  V30 6283 H 584.265 -6.07041 -4.50596 0
M  V30 6284 H 585.533 -5.48346 -5.54019 0
M  V30 6285 N 589.762 0.448376 -1.51087 0
M  V30 6286 C 590.99 1.22143 -1.66999 0
M  V30 6287 C 591.405 1.85283 -0.362699 0
M  V30 6288 O 590.762 1.70236 0.65772 0
M  V30 6289 C 590.813 2.31357 -2.7777 0
M  V30 6290 O 590.534 1.70801 -4.03434 0
M  V30 6291 C 592.035 3.21836 -3.04855 0
M  V30 6292 H 589.255 0.368558 -0.560719 0
M  V30 6293 H 591.799 0.532618 -1.97442 0
M  V30 6294 H 589.954 2.95973 -2.49958 0
M  V30 6295 H 590.368 2.42895 -4.64868 0
M  V30 6296 H 591.842 3.94627 -3.85971 0
M  V30 6297 H 592.319 3.81949 -2.16821 0
M  V30 6298 H 592.925 2.62933 -3.34285 0
M  V30 6299 N 591.24 1.41047 0.703093 0
M  V30 6300 C 592.47 1.43133 1.48985 0
M  V30 6301 C 592.878 0.0328537 1.89171 0
M  V30 6302 O 592.221 -0.956469 1.56835 0
M  V30 6303 C 592.283 2.26991 2.78775 0
M  V30 6304 C 591.947 3.7525 2.60837 0
M  V30 6305 C 592.944 4.67591 2.27276 0
M  V30 6306 C 590.629 4.19208 2.76712 0
M  V30 6307 C 592.623 6.01877 2.09817 0
M  V30 6308 C 590.31 5.53561 2.5887 0
M  V30 6309 C 591.308 6.4471 2.25472 0
M  V30 6310 O 590.996 7.76584 2.07778 0
M  V30 6311 H 590.728 0.489788 0.465922 0
M  V30 6312 H 593.282 1.85886 0.873822 0
M  V30 6313 H 591.512 1.79038 3.42757 0
M  V30 6314 H 593.201 2.20867 3.40547 0
M  V30 6315 H 593.967 4.34923 2.14633 0
M  V30 6316 H 589.846 3.48572 3.01693 0
M  V30 6317 H 593.39 6.72986 1.83671 0
M  V30 6318 H 589.287 5.85811 2.71102 0
M  V30 6319 H 590.055 7.87649 2.22601 0
M  V30 6320 N 592.718 -0.936591 1.26751 0
M  V30 6321 C 593.965 -1.68331 1.12566 0
M  V30 6322 C 594.293 -1.91677 -0.330168 0
M  V30 6323 O 593.548 -1.49859 -1.2586 0
M  V30 6324 C 593.847 -3.06099 1.84494 0
M  V30 6325 C 593.513 -3.02493 3.34378 0
M  V30 6326 C 592.175 -3.01217 3.75262 0
M  V30 6327 C 594.527 -2.94453 4.30055 0
M  V30 6328 C 591.855 -2.89672 5.10203 0
M  V30 6329 C 594.207 -2.84449 5.65041 0
M  V30 6330 C 592.871 -2.81518 6.0523 0
M  V30 6331 H 592.141 -0.615965 0.411907 0
M  V30 6332 H 594.788 -1.09292 1.5725 0
M  V30 6333 H 593.093 -3.6879 1.32292 0
M  V30 6334 H 594.79 -3.62733 1.70955 0
M  V30 6335 H 591.38 -3.04269 3.01858 0
M  V30 6336 H 595.564 -2.94544 3.99447 0
M  V30 6337 H 590.82 -2.85783 5.40498 0
M  V30 6338 H 594.994 -2.77192 6.38856 0
M  V30 6339 H 592.621 -2.72329 7.09747 0
M  V30 6340 N 594.196 -1.08629 -1.14182 0
M  V30 6341 C 595.443 -0.817345 -1.85272 0
M  V30 6342 C 595.771 0.656917 -1.83071 0
M  V30 6343 O 595.026 1.49897 -1.25815 0
M  V30 6344 C 595.325 -1.28734 -3.3341 0
M  V30 6345 C 594.991 -2.76981 -3.55798 0
M  V30 6346 C 593.653 -3.17469 -3.61617 0
M  V30 6347 C 596.005 -3.72605 -3.64438 0
M  V30 6348 C 593.333 -4.52371 -3.736 0
M  V30 6349 C 595.685 -5.07286 -3.77947 0
M  V30 6350 C 594.349 -5.47376 -3.82016 0
M  V30 6351 H 593.619 -0.299088 -0.677958 0
M  V30 6352 H 596.266 -1.35962 -1.34857 0
M  V30 6353 H 594.571 -0.664702 -3.8612 0
M  V30 6354 H 596.268 -1.05598 -3.86846 0
M  V30 6355 H 592.858 -2.44644 -3.51919 0
M  V30 6356 H 597.042 -3.42443 -3.5923 0
M  V30 6357 H 592.298 -4.82882 -3.75013 0
M  V30 6358 H 596.472 -5.81243 -3.83575 0
M  V30 6359 H 594.099 -6.51906 -3.91054 0
M  V30 6360 N 595.674 1.31259 -0.872281 0
M  V30 6361 C 596.92 1.96913 -0.485083 0
M  V30 6362 C 597.253 1.68774 0.960667 0
M  V30 6363 O 596.528 0.985495 1.67685 0
M  V30 6364 C 596.811 3.52299 -0.745502 0
M  V30 6365 C 596.664 3.90002 -2.24095 0
M  V30 6366 C 597.983 4.39582 -0.213516 0
M  V30 6367 H 595.102 0.715252 -0.177716 0
M  V30 6368 H 597.744 1.55347 -1.09395 0
M  V30 6369 H 595.894 3.87835 -0.227276 0
M  V30 6370 H 597.566 3.64555 -2.82661 0
M  V30 6371 H 595.809 3.38526 -2.71261 0
M  V30 6372 H 596.48 4.98352 -2.37381 0
M  V30 6373 H 598.956 4.10882 -0.656902 0
M  V30 6374 H 597.832 5.47251 -0.42516 0
M  V30 6375 H 598.093 4.33158 0.884666 0
M  V30 6376 N 597.152 0.631951 1.44375 0
M  V30 6377 C 598.062 -0.073674 2.34484 0
M  V30 6378 C 599.078 -0.834825 1.52665 0
M  V30 6379 O 600.254 -0.786902 1.85391 0
M  V30 6380 C 597.319 -1.04247 3.30656 0
M  V30 6381 C 596.38 -0.280602 4.28382 0
M  V30 6382 C 595.613 -1.20325 5.19959 0
M  V30 6383 O 595.836 -2.44199 5.15484 0
M  V30 6384 O 594.77 -0.687128 5.97965 0
M  V30 6385 H 598.596 0.667477 2.96274 0
M  V30 6386 H 596.181 0.392144 1.44162 0
M  V30 6387 H 598.063 -1.59981 3.89851 0
M  V30 6388 H 596.738 -1.76422 2.71398 0
M  V30 6389 H 595.645 0.319804 3.72731 0
M  V30 6390 H 596.978 0.401144 4.90563 0
M  V30 6391 N 598.631 -1.53133 0.372548 0
M  V30 6392 C 599.908 -1.93704 -0.271693 0
M  V30 6393 C 600.288 -1.30667 -1.65799 0
M  V30 6394 O 599.636 -0.46838 -2.23648 0
M  V30 6395 C 599.846 -3.47576 -0.314903 0
M  V30 6396 C 601.194 -4.20998 -0.551912 0
M  V30 6397 O 602.218 -3.53994 -0.39582 0
M  V30 6398 O 601.077 -5.39748 -0.85639 0
M  V30 6399 H 598.171 -0.810457 -0.164586 0
M  V30 6400 H 600.717 -1.6427 0.425838 0
M  V30 6401 H 599.489 -3.85749 0.656792 0
M  V30 6402 H 599.112 -3.83264 -1.05804 0
M  V30 6403 N 600.109 -0.101901 -1.5727 0
M  V30 6404 C 601.056 0.854577 -2.14396 0
M  V30 6405 C 602.026 1.27521 -1.06432 0
M  V30 6406 O 603.211 1.35575 -1.34253 0
M  V30 6407 C 600.351 2.10576 -2.73408 0
M  V30 6408 C 599.464 1.73504 -3.95626 0
M  V30 6409 C 598.599 2.9346 -4.42781 0
M  V30 6410 C 597.638 2.52547 -5.57572 0
M  V30 6411 N 596.775 3.65359 -5.99547 0
M  V30 6412 H 601.615 0.360578 -2.9581 0
M  V30 6413 H 599.152 0.166303 -1.46157 0
M  V30 6414 H 601.11 2.83859 -3.05745 0
M  V30 6415 H 599.74 2.57463 -1.94711 0
M  V30 6416 H 598.792 0.901622 -3.6956 0
M  V30 6417 H 600.104 1.39426 -4.78917 0
M  V30 6418 H 599.258 3.74988 -4.76937 0
M  V30 6419 H 597.997 3.30753 -3.58404 0
M  V30 6420 H 597.002 1.69446 -5.23037 0
M  V30 6421 H 598.227 2.1639 -6.43702 0
M  V30 6422 H 596.173 4.02358 -5.18116 0
M  V30 6423 H 596.09 3.35148 -6.77652 0
M  V30 6424 H 597.358 4.47378 -6.38336 0
M  V30 6425 N 601.587 1.56661 0.17182 0
M  V30 6426 C 602.817 1.85831 0.902804 0
M  V30 6427 C 603.225 0.685157 1.76358 0
M  V30 6428 O 602.568 -0.354947 1.80238 0
M  V30 6429 C 602.63 3.09406 1.83053 0
M  V30 6430 C 602.294 4.4231 1.1494 0
M  V30 6431 C 603.291 5.17342 0.515104 0
M  V30 6432 C 600.976 4.89045 1.14631 0
M  V30 6433 C 602.97 6.37299 -0.113194 0
M  V30 6434 C 600.657 6.08933 0.514184 0
M  V30 6435 C 601.655 6.82904 -0.114463 0
M  V30 6436 O 601.343 8.00518 -0.736622 0
M  V30 6437 H 601.075 0.620715 0.267748 0
M  V30 6438 H 603.629 2.04637 0.176918 0
M  V30 6439 H 601.859 2.86544 2.59672 0
M  V30 6440 H 603.548 3.25027 2.4313 0
M  V30 6441 H 604.314 4.82317 0.509474 0
M  V30 6442 H 600.193 4.31409 1.62502 0
M  V30 6443 H 603.737 6.94976 -0.604477 0
M  V30 6444 H 599.634 6.43423 0.517395 0
M  V30 6445 H 600.402 8.16027 -0.635822 0
M  V30 6446 N 603.065 -0.440357 1.51323 0
M  V30 6447 C 604.311 -1.18874 1.65047 0
M  V30 6448 C 604.666 -1.88988 0.360742 0
M  V30 6449 O 603.959 -1.80479 -0.643272 0
M  V30 6450 C 604.153 -2.2339 2.78984 0
M  V30 6451 C 603.982 -1.63534 4.18911 0
M  V30 6452 C 602.752 -1.42158 4.84891 0
M  V30 6453 C 604.95 -1.11324 5.02107 0
M  V30 6454 N 602.932 -0.778679 6.08942 0
M  V30 6455 C 604.303 -0.595421 6.17134 0
M  V30 6456 C 606.358 -1.00471 4.87658 0
M  V30 6457 C 605.061 0.0202557 7.19297 0
M  V30 6458 C 607.087 -0.402928 5.90026 0
M  V30 6459 C 606.449 0.10436 7.04323 0
M  V30 6460 H 602.548 -0.422771 0.657866 0
M  V30 6461 H 605.132 -0.485814 1.88542 0
M  V30 6462 H 603.303 -2.91074 2.57158 0
M  V30 6463 H 605.035 -2.90366 2.81904 0
M  V30 6464 H 601.79 -1.68247 4.42707 0
M  V30 6465 H 602.214 -0.474755 6.75333 0
M  V30 6466 H 606.856 -1.38278 3.99548 0
M  V30 6467 H 604.574 0.410468 8.07057 0
M  V30 6468 H 608.16 -0.320897 5.80914 0
M  V30 6469 H 607.04 0.562697 7.82179 0
M  V30 6470 N 604.543 -1.41418 -0.695603 0
M  V30 6471 C 605.959 -1.23887 -1.00619 0
M  V30 6472 C 606.159 -0.128206 -2.01092 0
M  V30 6473 O 605.215 0.507408 -2.47349 0
M  V30 6474 C 606.528 -2.58816 -1.53083 0
M  V30 6475 C 608.076 -2.65998 -1.64967 0
M  V30 6476 C 608.551 -4.01244 -2.20833 0
M  V30 6477 N 610.042 -4.0309 -2.28194 0
M  V30 6478 C 610.777 -5.04539 -2.72448 0
M  V30 6479 N 610.273 -6.16378 -3.16306 0
M  V30 6480 N 612.066 -4.91901 -2.72011 0
M  V30 6481 H 604.217 -2.12379 -0.0300061 0
M  V30 6482 H 606.48 -0.944958 -0.0758797 0
M  V30 6483 H 606.186 -3.40842 -0.867147 0
M  V30 6484 H 606.06 -2.81299 -2.51298 0
M  V30 6485 H 608.447 -1.84331 -2.30448 0
M  V30 6486 H 608.528 -2.47325 -0.652982 0
M  V30 6487 H 608.172 -4.83359 -1.55968 0
M  V30 6488 H 608.102 -4.17257 -3.21254 0
M  V30 6489 H 610.593 -3.22341 -1.97242 0
M  V30 6490 H 610.906 -6.89658 -3.487 0
M  V30 6491 H 609.251 -6.19914 -3.14215 0
M  V30 6492 H 612.442 -4.03613 -2.37095 0
M  V30 6493 H 612.615 -5.71102 -3.06181 0
M  V30 6494 N 606.021 0.929856 -1.27246 0
M  V30 6495 C 607.268 1.67731 -1.13457 0
M  V30 6496 C 607.596 1.9185 0.319998 0
M  V30 6497 O 606.851 1.50524 1.25064 0
M  V30 6498 C 607.15 3.05116 -1.86115 0
M  V30 6499 C 606.816 3.00715 -3.35978 0
M  V30 6500 C 605.478 2.99222 -3.76855 0
M  V30 6501 C 607.83 2.92168 -4.3161 0
M  V30 6502 C 605.158 2.86962 -5.11732 0
M  V30 6503 C 607.51 2.81449 -5.66542 0
M  V30 6504 C 606.174 2.78305 -6.06715 0
M  V30 6505 H 605.444 0.613772 -0.415168 0
M  V30 6506 H 608.091 1.08456 -1.57827 0
M  V30 6507 H 606.396 3.68083 -1.34246 0
M  V30 6508 H 608.093 3.61822 -1.72876 0
M  V30 6509 H 604.683 3.02664 -3.03468 0
M  V30 6510 H 608.867 2.92421 -4.01003 0
M  V30 6511 H 604.123 2.82913 -5.42006 0
M  V30 6512 H 608.297 2.738 -6.40317 0
M  V30 6513 H 605.924 2.68561 -7.11181 0
M  V30 6514 N 607.499 1.09233 1.13605 0
M  V30 6515 C 608.776 0.739633 1.81077 0
M  V30 6516 C 609.156 -0.775595 1.96336 0
M  V30 6517 O 608.504 -1.69726 1.52988 0
M  V30 6518 C 608.714 1.47636 3.16235 0
M  V30 6519 C 610.062 1.64087 3.91613 0
M  V30 6520 O 611.086 1.43871 3.25852 0
M  V30 6521 O 609.945 1.97511 5.0956 0
M  V30 6522 H 607.039 0.265464 0.783236 0
M  V30 6523 H 609.585 1.19441 1.20549 0
M  V30 6524 H 608.357 2.50818 3.00344 0
M  V30 6525 H 607.98 1.01362 3.84462 0
M  V30 6526 N 608.977 -1.30795 0.87923 0
M  V30 6527 C 609.887 -2.32041 0.345565 0
M  V30 6528 C 610.903 -1.65103 -0.549265 0
M  V30 6529 O 612.079 -1.9645 -0.443763 0
M  V30 6530 C 609.144 -3.43944 -0.436245 0
M  V30 6531 C 608.205 -4.26521 0.48765 0
M  V30 6532 C 607.438 -5.33081 -0.256943 0
M  V30 6533 O 607.661 -5.50762 -1.48381 0
M  V30 6534 O 606.595 -6.00635 0.389985 0
M  V30 6535 H 610.421 -2.79627 1.18501 0
M  V30 6536 H 608.006 -1.3486 0.642885 0
M  V30 6537 H 609.888 -4.12128 -0.879119 0
M  V30 6538 H 608.563 -2.98504 -1.25208 0
M  V30 6539 H 607.47 -3.61057 0.979216 0
M  V30 6540 H 608.803 -4.75551 1.26933 0
M  V30 6541 N 610.455 -0.639598 -1.44038 0
M  V30 6542 C 611.402 0.0602458 -2.30721 0
M  V30 6543 C 612.372 0.828352 -1.43971 0
M  V30 6544 O 613.557 0.807693 -1.72861 0
M  V30 6545 C 610.697 1.03008 -3.29368 0
M  V30 6546 C 609.81 0.259502 -4.3122 0
M  V30 6547 C 608.945 1.22191 -5.16955 0
M  V30 6548 C 607.984 0.440978 -6.10509 0
M  V30 6549 N 607.121 1.35428 -6.88915 0
M  V30 6550 H 611.961 -0.684867 -2.90023 0
M  V30 6551 H 609.498 -0.349509 -1.42888 0
M  V30 6552 H 611.456 1.60583 -3.85057 0
M  V30 6553 H 610.086 1.74222 -2.71747 0
M  V30 6554 H 609.138 -0.432317 -3.77935 0
M  V30 6555 H 610.45 -0.348347 -4.97582 0
M  V30 6556 H 609.604 1.86873 -5.77203 0
M  V30 6557 H 608.343 1.86367 -4.50687 0
M  V30 6558 H 607.348 -0.219279 -5.49363 0
M  V30 6559 H 608.573 -0.196192 -6.78817 0
M  V30 6560 H 606.519 1.9831 -6.25307 0
M  V30 6561 H 606.436 0.800657 -7.51748 0
M  V30 6562 H 607.704 1.98967 -7.53679 0
M  V30 6563 N 611.933 1.52934 -0.380664 0
M  V30 6564 C 613.349 1.59571 -0.0302429 0
M  V30 6565 C 613.549 1.39509 1.45394 0
M  V30 6566 O 612.605 1.20777 2.21741 0
M  V30 6567 C 613.918 2.96519 -0.499691 0
M  V30 6568 C 615.466 3.09672 -0.455204 0
M  V30 6569 C 615.941 4.49056 -0.900703 0
M  V30 6570 N 617.432 4.55215 -0.856367 0
M  V30 6571 C 618.167 5.61282 -1.17259 0
M  V30 6572 N 617.663 6.75035 -1.55885 0
M  V30 6573 N 619.456 5.51343 -1.0944 0
M  V30 6574 H 611.607 1.64224 -1.347 0
M  V30 6575 H 613.87 0.771033 -0.551554 0
M  V30 6576 H 613.576 3.16388 -1.53595 0
M  V30 6577 H 613.45 3.77052 0.105789 0
M  V30 6578 H 615.837 2.89504 0.571949 0
M  V30 6579 H 615.918 2.31113 -1.09638 0
M  V30 6580 H 615.562 4.69964 -1.92604 0
M  V30 6581 H 615.492 5.26068 -0.236629 0
M  V30 6582 H 617.983 3.73546 -0.572013 0
M  V30 6583 H 618.296 7.51926 -1.784 0
M  V30 6584 H 616.641 6.76388 -1.59764 0
M  V30 6585 H 619.832 4.61356 -0.791713 0
M  V30 6586 H 620.005 6.33905 -1.34417 0
M  V30 6587 N 613.412 0.11024 1.57214 0
M  V30 6588 C 614.36 -0.860586 2.16094 0
M  V30 6589 C 615.354 -1.28156 1.1078 0
M  V30 6590 O 616.56 -1.25433 1.29099 0
M  V30 6591 H 612.935 -0.295606 0.691463 0
M  V30 6592 H 614.906 -0.33942 2.96463 0
M  V30 6593 C 613.655 -2.10421 2.768 0
M  V30 6594 H 612.978 -1.7892 3.5753 0
M  V30 6595 H 614.418 -2.76375 3.21547 0
M  V30 6596 C 612.877 -2.88823 1.73444 0
M  V30 6597 O 613.407 -3.839 1.18251 0
M  V30 6598 N 611.613 -2.52649 1.43586 0
M  V30 6599 H 611.16 -1.754 1.8866 0
M  V30 6600 H 611.118 -3.05403 0.746735 0
M  V30 6601 N 614.89 -1.56749 -0.16351 0
M  V30 6602 C 616.115 -1.86938 -0.898264 0
M  V30 6603 C 616.54 -0.697456 -1.74692 0
M  V30 6604 O 615.898 0.353327 -1.77824 0
M  V30 6605 C 615.946 -3.15599 -1.74441 0
M  V30 6606 O 615.05 -2.98371 -2.8469 0
M  V30 6607 H 614.391 -0.614659 -0.251178 0
M  V30 6608 H 616.921 -2.03979 -0.159298 0
M  V30 6609 H 616.931 -3.47202 -2.14277 0
M  V30 6610 H 615.606 -4.00505 -1.1211 0
M  V30 6611 H 614.183 -2.7814 -2.4838 0
M  V30 6612 N 616.368 0.432326 -1.51554 0
M  V30 6613 C 617.301 1.54525 -1.6792 0
M  V30 6614 C 618.279 1.53831 -0.526764 0
M  V30 6615 O 619.463 1.72884 -0.751233 0
M  V30 6616 C 616.59 2.931 -1.69736 0
M  V30 6617 C 615.636 3.11799 -2.91005 0
M  V30 6618 S 616.469 2.87565 -4.51737 0
M  V30 6619 C 617.625 4.28412 -4.56305 0
M  V30 6620 H 617.858 1.4041 -2.62054 0
M  V30 6621 H 615.391 0.622357 -1.41301 0
M  V30 6622 H 617.349 3.72974 -1.71467 0
M  V30 6623 H 616.01 3.04574 -0.767705 0
M  V30 6624 H 615.203 4.13127 -2.8869 0
M  V30 6625 H 614.805 2.39757 -2.87041 0
M  V30 6626 H 617.097 5.21692 -4.32254 0
M  V30 6627 H 618.04 4.35758 -5.58141 0
M  V30 6628 H 618.448 4.12301 -3.85576 0
M  V30 6629 N 617.846 1.41785 0.688094 0
M  V30 6630 C 618.756 1.46596 1.83158 0
M  V30 6631 C 619.772 0.355862 1.70322 0
M  V30 6632 O 620.948 0.604737 1.92106 0
M  V30 6633 C 618.013 1.35322 3.192 0
M  V30 6634 C 617.074 2.56711 3.4409 0
M  V30 6635 C 616.307 2.45965 4.73642 0
M  V30 6636 O 616.53 1.48827 5.50642 0
M  V30 6637 O 615.464 3.35859 4.99482 0
M  V30 6638 H 619.29 2.43083 1.82056 0
M  V30 6639 H 616.875 1.23404 0.842126 0
M  V30 6640 H 618.757 1.31347 4.00407 0
M  V30 6641 H 617.432 0.419536 3.2097 0
M  V30 6642 H 616.339 2.66262 2.62784 0
M  V30 6643 H 617.672 3.48933 3.47141 0
M  V30 6644 N 619.324 -0.923095 1.27737 0
M  V30 6645 C 620.735 -1.48626 1.12993 0
M  V30 6646 C 621.086 -1.94142 -0.283439 0
M  V30 6647 O 620.211 -1.81605 -1.17681 0
M  V30 6648 C 620.806 -2.70117 2.04505 0
M  V30 6649 C 619.365 -3.22642 1.93853 0
M  V30 6650 C 618.512 -1.95368 1.96791 0
M  V30 6651 H 621.463 -0.736737 1.40563 0
M  V30 6652 H 621.484 -3.4506 1.60356 0
M  V30 6653 H 620.996 -2.36959 3.07363 0
M  V30 6654 H 619.097 -3.60549 0.939968 0
M  V30 6655 H 619.21 -3.88525 2.80331 0
M  V30 6656 H 617.574 -2.12061 1.41076 0
M  V30 6657 H 618.357 -1.64517 3.01312 0
M  V30 6658 N 620.802 -1.09834 -1.13024 0
M  V30 6659 C 622.05 -0.835297 -1.8403 0
M  V30 6660 C 622.371 0.640944 -1.84165 0
M  V30 6661 O 621.641 1.46517 -1.30037 0
M  V30 6662 H 620.221 -0.306018 -0.681441 0
M  V30 6663 H 622.883 -1.38734 -1.36891 0
M  V30 6664 H 621.979 -1.19258 -2.88416 0
M  V30 6665 N 622.28 1.30327 -0.886154 0
M  V30 6666 C 623.527 1.96097 -0.505192 0
M  V30 6667 C 623.855 1.69952 0.945868 0
M  V30 6668 O 623.11 0.997653 1.68361 0
M  V30 6669 C 623.409 3.49906 -0.728042 0
M  V30 6670 C 623.075 3.96103 -2.15437 0
M  V30 6671 C 621.737 4.08428 -2.5444 0
M  V30 6672 C 624.089 4.20177 -3.08384 0
M  V30 6673 C 621.417 4.42189 -3.85598 0
M  V30 6674 C 623.769 4.55407 -4.39075 0
M  V30 6675 C 622.433 4.65941 -4.7797 0
M  V30 6676 H 621.703 0.71757 -0.184863 0
M  V30 6677 H 624.35 1.55171 -1.12223 0
M  V30 6678 H 622.655 3.9179 -0.027978 0
M  V30 6679 H 624.352 3.98869 -0.412862 0
M  V30 6680 H 620.942 3.87017 -1.84162 0
M  V30 6681 H 625.126 4.10134 -2.7947 0
M  V30 6682 H 620.382 4.48544 -4.15473 0
M  V30 6683 H 624.556 4.72986 -5.11133 0
M  V30 6684 H 622.183 4.91856 -5.79639 0
M  V30 6685 N 623.758 0.647228 1.43697 0
M  V30 6686 C 625.169 0.238689 1.85168 0
M  V30 6687 C 625.52 -1.21345 1.54175 0
M  V30 6688 O 624.645 -1.92542 0.987743 0
M  V30 6689 C 625.24 0.426422 3.36106 0
M  V30 6690 C 623.799 0.0722541 3.76331 0
M  V30 6691 C 622.946 0.732153 2.6746 0
M  V30 6692 H 625.897 0.851309 1.33934 0
M  V30 6693 H 625.918 -0.32987 3.79067 0
M  V30 6694 H 625.43 1.48339 3.58632 0
M  V30 6695 H 623.531 -0.982355 3.59417 0
M  V30 6696 H 623.644 0.493541 4.76551 0
M  V30 6697 H 622.008 0.16594 2.54159 0
M  V30 6698 H 622.791 1.79204 2.92816 0
M  V30 6699 N 625.236 -1.5273 0.388769 0
M  V30 6700 C 626.183 -2.26437 -0.446639 0
M  V30 6701 C 627.153 -1.28025 -1.05824 0
M  V30 6702 O 628.338 -1.56852 -1.08637 0
M  V30 6703 C 625.478 -3.07407 -1.56828 0
M  V30 6704 C 624.591 -4.20747 -0.979589 0
M  V30 6705 C 623.726 -4.89113 -2.07224 0
M  V30 6706 C 622.765 -5.94447 -1.45942 0
M  V30 6707 N 621.902 -6.56411 -2.49135 0
M  V30 6708 H 626.742 -2.97404 0.18837 0
M  V30 6709 H 624.279 -1.46727 0.104725 0
M  V30 6710 H 626.237 -3.52642 -2.22934 0
M  V30 6711 H 624.867 -2.3865 -2.17361 0
M  V30 6712 H 623.919 -3.7983 -0.208151 0
M  V30 6713 H 625.231 -4.9637 -0.491747 0
M  V30 6714 H 624.385 -5.3765 -2.81101 0
M  V30 6715 H 623.124 -4.13013 -2.59368 0
M  V30 6716 H 622.129 -5.4525 -0.705894 0
M  V30 6717 H 623.354 -6.7248 -0.945932 0
M  V30 6718 H 621.3 -5.83152 -3.00449 0
M  V30 6719 H 621.217 -7.27645 -2.05105 0
M  V30 6720 H 622.485 -7.09592 -3.22644 0
M  V30 6721 N 626.714 -0.118576 -1.57153 0
M  V30 6722 C 627.646 0.862247 -2.12363 0
M  V30 6723 C 628.659 1.23025 -1.06625 0
M  V30 6724 O 629.848 1.17927 -1.33998 0
M  V30 6725 C 626.948 2.16425 -2.60794 0
M  V30 6726 C 626.121 1.96801 -3.90626 0
M  V30 6727 C 625.18 3.10726 -4.2466 0
M  V30 6728 O 624.206 2.83659 -4.93484 0
M  V30 6729 N 625.408 4.37147 -3.81946 0
M  V30 6730 H 628.173 0.390564 -2.97144 0
M  V30 6731 H 625.734 0.0658591 -1.61766 0
M  V30 6732 H 627.726 2.91633 -2.80593 0
M  V30 6733 H 626.296 2.54943 -1.80895 0
M  V30 6734 H 625.516 1.05787 -3.7974 0
M  V30 6735 H 626.804 1.80993 -4.7552 0
M  V30 6736 H 626.202 4.62014 -3.26435 0
M  V30 6737 H 624.759 5.09229 -4.06853 0
M  V30 6738 N 628.193 1.56834 0.155195 0
M  V30 6739 C 629.442 1.82088 0.867567 0
M  V30 6740 C 629.755 0.69849 1.82703 0
M  V30 6741 O 630.961 0.836407 2.58295 0
M  V30 6742 C 629.417 3.22707 1.59336 0
M  V30 6743 C 629.025 4.42859 0.676719 0
M  V30 6744 C 630.769 3.57242 2.293 0
M  V30 6745 C 628.676 5.74501 1.40367 0
M  V30 6746 H 627.606 0.679057 0.327715 0
M  V30 6747 H 630.257 1.83105 0.120351 0
M  V30 6748 H 628.639 3.16054 2.38591 0
M  V30 6749 H 629.813 4.60731 -0.0800196 0
M  V30 6750 H 628.128 4.16311 0.0859129 0
M  V30 6751 H 630.725 4.52847 2.84312 0
M  V30 6752 H 631.068 2.82901 3.05406 0
M  V30 6753 H 631.601 3.6552 1.56972 0
M  V30 6754 H 628.34 6.51915 0.684623 0
M  V30 6755 H 627.86 5.60579 2.13332 0
M  V30 6756 H 629.539 6.17016 1.94681 0
M  V30 6757 N 629.671 -0.424282 1.51781 0
M  V30 6758 C 630.634 -1.49848 1.73431 0
M  V30 6759 C 631.634 -1.49016 0.604225 0
M  V30 6760 O 632.824 -1.50808 0.871935 0
M  V30 6761 C 629.956 -2.89332 1.80277 0
M  V30 6762 H 631.149 -1.3195 2.69312 0
M  V30 6763 H 628.702 -0.653809 1.41968 0
M  V30 6764 H 629.437 -3.12618 0.862568 0
M  V30 6765 H 629.222 -2.9134 2.62419 0
M  V30 6766 H 630.712 -3.67233 1.98821 0
M  V30 6767 N 631.149 -1.42148 -0.680565 0
M  V30 6768 C 632.059 -1.47565 -1.82378 0
M  V30 6769 C 633.075 -0.36489 -1.70131 0
M  V30 6770 O 634.251 -0.614916 -1.91783 0
M  V30 6771 C 631.316 -1.37013 -3.18478 0
M  V30 6772 C 630.377 -2.58532 -3.42724 0
M  V30 6773 C 629.61 -2.48473 -4.72331 0
M  V30 6774 O 629.833 -1.51745 -5.49845 0
M  V30 6775 O 628.767 -3.38503 -4.97694 0
M  V30 6776 H 632.593 -2.44045 -1.80764 0
M  V30 6777 H 630.178 -1.23849 -0.835569 0
M  V30 6778 H 632.06 -1.33468 -3.99705 0
M  V30 6779 H 630.735 -0.436552 -3.20743 0
M  V30 6780 H 629.642 -2.67652 -2.61368 0
M  V30 6781 H 630.975 -3.50769 -3.45286 0
M  V30 6782 N 632.627 0.916307 -1.28225 0
M  V30 6783 C 633.904 1.64429 -1.05936 0
M  V30 6784 C 634.284 2.07234 0.402139 0
M  V30 6785 O 633.632 1.81535 1.3877 0
M  V30 6786 C 633.842 2.83773 -2.03159 0
M  V30 6787 C 635.19 3.54852 -2.33164 0
M  V30 6788 O 636.214 2.93918 -2.01223 0
M  V30 6789 O 635.073 4.64663 -2.87664 0
M  V30 6790 H 632.167 0.721221 -0.404683 0
M  V30 6791 H 634.713 0.965838 -1.39534 0
M  V30 6792 H 633.485 2.49217 -3.01673 0
M  V30 6793 H 633.108 3.59333 -1.70192 0
M  V30 6794 N 634.105 1.10431 1.1244 0
M  V30 6795 C 635.352 0.846717 1.83948 0
M  V30 6796 C 635.68 -0.627709 1.84093 0
M  V30 6797 O 634.935 -1.47876 1.28184 0
M  V30 6798 C 635.234 1.34022 3.3132 0
M  V30 6799 C 634.9 2.82606 3.51347 0
M  V30 6800 C 633.562 3.23182 3.56521 0
M  V30 6801 C 635.914 3.78356 3.58464 0
M  V30 6802 C 633.242 4.58258 3.66356 0
M  V30 6803 C 635.594 5.13234 3.69829 0
M  V30 6804 C 634.258 5.53384 3.73259 0
M  V30 6805 H 633.528 0.309836 0.673114 0
M  V30 6806 H 636.175 1.38091 1.32677 0
M  V30 6807 H 634.48 0.726047 3.85014 0
M  V30 6808 H 636.177 1.11739 3.85118 0
M  V30 6809 H 632.767 2.50212 3.47983 0
M  V30 6810 H 636.951 3.48115 3.53737 0
M  V30 6811 H 632.207 4.88787 3.67284 0
M  V30 6812 H 636.381 5.87272 3.74279 0
M  V30 6813 H 634.008 6.58045 3.80633 0
M  V30 6814 N 635.583 -1.29855 0.893053 0
M  V30 6815 C 636.994 -1.77946 0.564998 0
M  V30 6816 C 637.345 -1.73339 -0.919134 0
M  V30 6817 O 636.47 -1.3152 -1.71847 0
M  V30 6818 C 637.065 -3.23118 1.01883 0
M  V30 6819 C 635.624 -3.69013 0.742051 0
M  V30 6820 C 634.771 -2.50121 1.19727 0
M  V30 6821 H 637.722 -1.16611 1.07646 0
M  V30 6822 H 637.743 -3.78875 0.351249 0
M  V30 6823 H 637.255 -3.26439 2.09903 0
M  V30 6824 H 635.356 -3.71173 -0.325816 0
M  V30 6825 H 635.469 -4.60117 1.33527 0
M  V30 6826 H 633.833 -2.47128 0.616418 0
M  V30 6827 H 634.616 -2.56174 2.28538 0
M  V30 6828 N 637.061 -0.65484 -1.43351 0
M  V30 6829 C 638.309 -0.168559 -2.01396 0
M  V30 6830 C 638.63 1.22235 -1.51933 0
M  V30 6831 O 637.9 1.81685 -0.732627 0
M  V30 6832 H 636.48 -0.0593244 -0.744641 0
M  V30 6833 H 639.142 -0.846871 -1.75539 0
M  V30 6834 H 638.238 -0.154428 -3.11718 0
M  V30 6835 N 638.539 1.52521 -0.396863 0
M  V30 6836 C 639.788 2.00857 0.184184 0
M  V30 6837 C 640.101 1.28733 1.47265 0
M  V30 6838 O 641.307 1.67821 2.13421 0
M  V30 6839 C 639.763 3.57901 0.378787 0
M  V30 6840 C 639.371 4.38931 -0.896873 0
M  V30 6841 C 641.115 4.14504 0.915789 0
M  V30 6842 C 639.022 5.87591 -0.670133 0
M  V30 6843 H 637.952 0.750496 0.0726055 0
M  V30 6844 H 640.603 1.75965 -0.520425 0
M  V30 6845 H 638.985 3.79072 1.14543 0
M  V30 6846 H 640.159 4.29524 -1.66872 0
M  V30 6847 H 638.474 3.93586 -1.35938 0
M  V30 6848 H 641.071 5.23236 1.10126 0
M  V30 6849 H 641.414 3.71076 1.88701 0
M  V30 6850 H 641.947 3.97253 0.208523 0
M  V30 6851 H 638.686 6.35355 -1.61257 0
M  V30 6852 H 638.206 5.99767 0.0626368 0
M  V30 6853 H 639.885 6.46268 -0.307577 0
M  V30 6854 N 640.017 0.126909 1.57088 0
M  V30 6855 C 641.294 -0.573152 1.87014 0
M  V30 6856 C 641.674 -1.84297 1.02945 0
M  V30 6857 O 641.022 -2.28232 0.110573 0
M  V30 6858 C 641.232 -0.857984 3.38289 0
M  V30 6859 C 642.58 -1.20759 4.07066 0
M  V30 6860 O 643.604 -0.947992 3.43353 0
M  V30 6861 O 642.463 -1.69516 5.19545 0
M  V30 6862 H 639.557 -0.290082 0.774456 0
M  V30 6863 H 642.103 0.162008 1.68925 0
M  V30 6864 H 640.875 0.0415286 3.91278 0
M  V30 6865 H 640.498 -1.64803 3.61837 0
M  V30 6866 N 641.495 -1.56914 -0.146875 0
M  V30 6867 C 642.72 -1.87881 -0.878386 0
M  V30 6868 C 643.145 -0.715945 -1.73942 0
M  V30 6869 O 642.503 0.334447 -1.78189 0
M  V30 6870 C 642.551 -3.17431 -1.71084 0
M  V30 6871 O 641.655 -3.01374 -2.81509 0
M  V30 6872 H 640.996 -0.617289 -0.244644 0
M  V30 6873 H 643.526 -2.04136 -0.137654 0
M  V30 6874 H 643.536 -3.49455 -2.10582 0
M  V30 6875 H 642.211 -4.01671 -1.07856 0
M  V30 6876 H 640.788 -2.80758 -2.45416 0
M  V30 6877 N 642.974 0.416227 -1.52004 0
M  V30 6878 C 643.921 1.50666 -1.74838 0
M  V30 6879 C 644.891 1.55245 -0.590599 0
M  V30 6880 O 646.076 1.71928 -0.827374 0
M  V30 6881 C 643.216 2.88185 -1.89851 0
M  V30 6882 C 642.329 2.92971 -3.17478 0
M  V30 6883 C 641.464 4.21745 -3.22962 0
M  V30 6884 C 640.503 4.20478 -4.4482 0
M  V30 6885 N 639.64 5.40811 -4.47736 0
M  V30 6886 H 644.48 1.30498 -2.67907 0
M  V30 6887 H 642.017 0.633568 -1.32757 0
M  V30 6888 H 643.975 3.68007 -1.96537 0
M  V30 6889 H 642.605 3.06865 -1.00169 0
M  V30 6890 H 641.657 2.05684 -3.19997 0
M  V30 6891 H 642.969 2.87899 -4.07328 0
M  V30 6892 H 642.123 5.09954 -3.28682 0
M  V30 6893 H 640.862 4.29503 -2.31038 0
M  V30 6894 H 639.867 3.30659 -4.39254 0
M  V30 6895 H 641.092 4.14366 -5.38031 0
M  V30 6896 H 639.038 5.4925 -3.58692 0
M  V30 6897 H 638.955 5.37705 -5.31422 0
M  V30 6898 H 640.223 6.30993 -4.57676 0
M  V30 6899 N 644.452 1.42507 0.673017 0
M  V30 6900 C 645.701 1.42364 1.42883 0
M  V30 6901 C 646.014 0.0441598 1.9555 0
M  V30 6902 O 647.22 -0.0798679 2.71382 0
M  V30 6903 C 645.676 2.5043 2.58482 0
M  V30 6904 C 645.284 3.94392 2.12506 0
M  V30 6905 C 647.028 2.59455 3.35981 0
M  V30 6906 C 644.935 4.93964 3.25198 0
M  V30 6907 H 643.865 0.52951 0.536782 0
M  V30 6908 H 646.516 1.68422 0.728448 0
M  V30 6909 H 644.898 2.1754 3.30896 0
M  V30 6910 H 646.072 4.36645 1.47233 0
M  V30 6911 H 644.387 3.89233 1.4794 0
M  V30 6912 H 646.984 3.31025 4.19912 0
M  V30 6913 H 647.327 1.63869 3.82691 0
M  V30 6914 H 647.86 2.91549 2.70637 0
M  V30 6915 H 644.599 5.91034 2.83477 0
M  V30 6916 H 644.119 4.56341 3.89247 0
M  V30 6917 H 645.798 5.15763 3.90637 0
M  V30 6918 N 645.93 -0.909495 1.28709 0
M  V30 6919 C 647.207 -1.63865 1.06806 0
M  V30 6920 C 647.587 -2.07445 -0.391143 0
M  V30 6921 O 646.935 -1.82269 -1.37805 0
M  V30 6922 C 647.145 -2.82692 2.04661 0
M  V30 6923 C 648.493 -3.5361 2.35042 0
M  V30 6924 O 649.517 -2.92847 2.02779 0
M  V30 6925 O 648.376 -4.63131 2.90124 0
M  V30 6926 H 645.47 -0.719065 0.408502 0
M  V30 6927 H 648.016 -0.958424 1.40044 0
M  V30 6928 H 646.788 -2.47614 3.0299 0
M  V30 6929 H 646.411 -3.58426 1.72095 0
M  V30 6930 N 647.408 -1.11026 -1.11852 0
M  V30 6931 C 648.371 -0.768006 -2.1595 0
M  V30 6932 C 649.371 0.210538 -1.59416 0
M  V30 6933 O 650.561 -0.0133978 -1.74195 0
M  V30 6934 C 647.693 -0.138678 -3.40618 0
M  V30 6935 H 648.886 -1.69012 -2.4774 0
M  V30 6936 H 646.439 -0.911578 -1.26964 0
M  V30 6937 H 647.174 0.793872 -3.14433 0
M  V30 6938 H 646.959 -0.843012 -3.8293 0
M  V30 6939 H 648.449 0.0848039 -4.17514 0
M  V30 6940 N 648.886 1.2938 -0.899927 0
M  V30 6941 C 650.132 1.9584 -0.526742 0
M  V30 6942 C 650.465 1.70774 0.924651 0
M  V30 6943 O 649.74 1.02084 1.65557 0
M  V30 6944 C 650.023 3.50638 -0.820062 0
M  V30 6945 C 649.876 3.85161 -2.32317 0
M  V30 6946 C 651.195 4.3903 -0.30671 0
M  V30 6947 H 648.314 0.711322 -0.192848 0
M  V30 6948 H 650.956 1.52992 -1.12665 0
M  V30 6949 H 649.106 3.87265 -0.309491 0
M  V30 6950 H 650.778 3.58477 -2.9033 0
M  V30 6951 H 649.021 3.32696 -2.78381 0
M  V30 6952 H 649.692 4.93204 -2.47898 0
M  V30 6953 H 652.168 4.09396 -0.743908 0
M  V30 6954 H 651.044 5.46226 -0.541144 0
M  V30 6955 H 651.305 4.34937 0.792588 0
M  V30 6956 N 650.364 0.662433 1.43002 0
M  V30 6957 C 651.611 0.179591 2.01702 0
M  V30 6958 C 651.939 -1.20964 1.52309 0
M  V30 6959 O 651.194 -1.82343 0.7106 0
M  V30 6960 C 651.493 0.149363 3.57088 0
M  V30 6961 C 651.159 1.48158 4.25864 0
M  V30 6962 C 649.821 1.84638 4.44367 0
M  V30 6963 C 652.173 2.35953 4.64732 0
M  V30 6964 C 649.501 3.08561 4.99006 0
M  V30 6965 C 651.853 3.59176 5.20745 0
M  V30 6966 C 650.517 3.95841 5.37463 0
M  V30 6967 H 649.787 0.0657172 0.73808 0
M  V30 6968 H 652.434 0.854968 1.71355 0
M  V30 6969 H 650.739 -0.609491 3.8703 0
M  V30 6970 H 652.436 -0.241241 4.00274 0
M  V30 6971 H 649.026 1.18777 4.11813 0
M  V30 6972 H 653.21 2.09058 4.50121 0
M  V30 6973 H 648.466 3.37005 5.10135 0
M  V30 6974 H 652.64 4.27417 5.49807 0
M  V30 6975 H 650.267 4.91942 5.79566 0
M  V30 6976 N 651.842 -1.52309 0.404946 0
M  V30 6977 C 652.752 -2.30634 -0.429555 0
M  V30 6978 C 653.768 -1.38187 -1.05737 0
M  V30 6979 O 654.944 -1.71261 -1.05979 0
M  V30 6980 C 652.009 -3.10947 -1.53339 0
M  V30 6981 C 651.07 -4.19126 -0.929065 0
M  V30 6982 C 650.303 -4.95601 -1.9803 0
M  V30 6983 O 650.526 -4.72331 -3.1978 0
M  V30 6984 O 649.46 -5.80551 -1.58886 0
M  V30 6985 H 653.286 -3.0298 0.208963 0
M  V30 6986 H 650.871 -1.4845 0.168255 0
M  V30 6987 H 652.753 -3.60974 -2.1743 0
M  V30 6988 H 651.428 -2.41399 -2.15658 0
M  V30 6989 H 650.335 -3.73257 -0.250982 0
M  V30 6990 H 651.668 -4.90955 -0.349855 0
M  V30 6991 N 653.32 -0.135238 -1.57019 0
M  V30 6992 C 654.23 0.822226 -2.19719 0
M  V30 6993 C 655.246 1.28057 -1.17802 0
M  V30 6994 O 656.422 1.3402 -1.50335 0
M  V30 6995 C 653.487 2.0484 -2.79717 0
M  V30 6996 C 652.548 1.64042 -3.96723 0
M  V30 6997 C 651.781 2.80814 -4.53849 0
M  V30 6998 O 652.004 3.967 -4.0986 0
M  V30 6999 O 650.938 2.56963 -5.44292 0
M  V30 7000 H 654.764 0.318552 -3.02025 0
M  V30 7001 H 652.349 0.0912021 -1.49121 0
M  V30 7002 H 654.231 2.76622 -3.17897 0
M  V30 7003 H 652.906 2.54182 -2.00432 0
M  V30 7004 H 651.813 0.893182 -3.63281 0
M  V30 7005 H 653.146 1.19426 -4.77492 0
M  V30 7006 N 654.798 1.5699 0.138552 0
M  V30 7007 C 656.045 1.83809 0.849732 0
M  V30 7008 C 656.373 0.717409 1.80786 0
M  V30 7009 O 655.628 -0.292897 1.93496 0
M  V30 7010 C 655.927 3.17007 1.65049 0
M  V30 7011 C 655.593 4.43037 0.838398 0
M  V30 7012 C 654.255 4.77262 0.614385 0
M  V30 7013 C 656.607 5.20495 0.271044 0
M  V30 7014 C 653.935 5.864 -0.187552 0
M  V30 7015 C 656.287 6.30476 -0.517979 0
M  V30 7016 C 654.951 6.63245 -0.75249 0
M  V30 7017 H 654.221 0.672605 0.310939 0
M  V30 7018 H 656.868 1.91166 0.112971 0
M  V30 7019 H 655.173 3.05138 2.4576 0
M  V30 7020 H 656.87 3.34975 2.20437 0
M  V30 7021 H 653.46 4.16211 1.02307 0
M  V30 7022 H 657.644 4.94422 0.431371 0
M  V30 7023 H 652.9 6.10226 -0.378659 0
M  V30 7024 H 657.074 6.89686 -0.964694 0
M  V30 7025 H 654.701 7.47648 -1.37573 0
M  V30 7026 N 656.276 -0.40816 1.52223 0
M  V30 7027 C 657.524 -1.15274 1.66001 0
M  V30 7028 C 657.845 -1.91003 0.392803 0
M  V30 7029 O 657.115 -1.8673 -0.592336 0
M  V30 7030 H 655.695 -0.428526 0.611861 0
M  V30 7031 H 658.357 -0.46512 1.89269 0
M  V30 7032 H 657.453 -1.86628 2.50153 0
M  V30 7033 N 657.755 -1.42862 -0.66545 0
M  V30 7034 C 659.002 -1.4383 -1.42546 0
M  V30 7035 C 659.33 -0.0581114 -1.94413 0
M  V30 7036 O 658.585 0.935002 -1.71919 0
M  V30 7037 C 658.884 -2.4175 -2.63233 0
M  V30 7038 C 658.55 -3.87915 -2.29854 0
M  V30 7039 C 657.212 -4.27726 -2.20463 0
M  V30 7040 C 659.564 -4.80074 -2.02924 0
M  V30 7041 C 656.892 -5.57666 -1.82279 0
M  V30 7042 C 659.244 -6.10366 -1.66242 0
M  V30 7043 C 657.908 -6.49167 -1.55367 0
M  V30 7044 H 657.178 -0.52631 -0.521612 0
M  V30 7045 H 659.825 -1.75863 -0.757914 0
M  V30 7046 H 658.13 -2.03077 -3.35063 0
M  V30 7047 H 659.827 -2.39759 -3.21429 0
M  V30 7048 H 656.417 -3.564 -2.3807 0
M  V30 7049 H 660.601 -4.50097 -2.09108 0
M  V30 7050 H 655.857 -5.8658 -1.72436 0
M  V30 7051 H 660.031 -6.81258 -1.44432 0
M  V30 7052 H 657.658 -7.49761 -1.2555 0
M  V30 7053 N 659.233 0.902656 -1.29189 0
M  V30 7054 C 660.48 1.65287 -1.16989 0
M  V30 7055 C 660.808 1.92485 0.279232 0
M  V30 7056 O 660.063 1.53143 1.21843 0
M  V30 7057 C 660.362 3.011 -1.92545 0
M  V30 7058 C 660.028 2.93521 -3.42281 0
M  V30 7059 C 658.69 2.91161 -3.83117 0
M  V30 7060 C 661.042 2.82947 -4.3771 0
M  V30 7061 C 658.37 2.76043 -5.17704 0
M  V30 7062 C 660.722 2.69368 -5.72384 0
M  V30 7063 C 659.386 2.65373 -6.12482 0
M  V30 7064 H 658.656 0.604828 -0.428094 0
M  V30 7065 H 661.303 1.05084 -1.60092 0
M  V30 7066 H 659.608 3.65153 -1.42024 0
M  V30 7067 H 661.305 3.58073 -1.80512 0
M  V30 7068 H 657.895 2.96158 -3.09819 0
M  V30 7069 H 662.079 2.83849 -4.07116 0
M  V30 7070 H 657.335 2.71352 -5.47885 0
M  V30 7071 H 661.509 2.60156 -6.45981 0
M  V30 7072 H 659.136 2.53415 -7.16718 0
M  V30 7073 N 660.711 1.11618 1.11262 0
M  V30 7074 C 661.941 0.88745 1.86569 0
M  V30 7075 C 662.349 -0.56636 1.80524 0
M  V30 7076 O 661.692 -1.40289 1.18594 0
M  V30 7077 C 661.754 1.27313 3.36202 0
M  V30 7078 C 661.418 2.73649 3.66013 0
M  V30 7079 C 662.415 3.71863 3.63337 0
M  V30 7080 C 660.1 3.10342 3.9496 0
M  V30 7081 C 662.094 5.04788 3.89188 0
M  V30 7082 C 659.781 4.43451 4.20469 0
M  V30 7083 C 660.779 5.40484 4.17572 0
M  V30 7084 O 660.467 6.71195 4.42439 0
M  V30 7085 H 660.199 0.317543 0.596777 0
M  V30 7086 H 662.753 1.48768 1.41624 0
M  V30 7087 H 660.983 0.616062 3.81761 0
M  V30 7088 H 662.672 1.01991 3.92877 0
M  V30 7089 H 663.438 3.44861 3.41022 0
M  V30 7090 H 659.317 2.35431 3.9635 0
M  V30 7091 H 662.861 5.80516 3.86842 0
M  V30 7092 H 658.758 4.70187 4.42261 0
M  V30 7093 H 659.526 6.77012 4.59997 0
M  V30 7094 N 662.189 -1.289 0.906776 0
M  V30 7095 C 663.436 -1.95269 0.536326 0
M  V30 7096 C 663.764 -1.71435 -0.918711 0
M  V30 7097 O 663.019 -1.02431 -1.66752 0
M  V30 7098 C 663.318 -3.48704 0.783617 0
M  V30 7099 C 662.984 -3.92626 2.21711 0
M  V30 7100 C 661.646 -4.04329 2.60906 0
M  V30 7101 C 663.998 -4.15218 3.15029 0
M  V30 7102 C 661.326 -4.35998 3.92584 0
M  V30 7103 C 663.678 -4.48365 4.46264 0
M  V30 7104 C 662.342 -4.58278 4.85322 0
M  V30 7105 H 661.612 -0.714538 0.196256 0
M  V30 7106 H 664.259 -1.53366 1.14678 0
M  V30 7107 H 662.564 -3.91696 0.0903048 0
M  V30 7108 H 664.261 -3.98162 0.476267 0
M  V30 7109 H 660.851 -3.84038 1.90296 0
M  V30 7110 H 665.035 -4.05636 2.8596 0
M  V30 7111 H 660.291 -4.41878 4.22557 0
M  V30 7112 H 664.465 -4.64795 5.18593 0
M  V30 7113 H 662.092 -4.82573 5.87391 0
M  V30 7114 N 663.667 -0.670007 -1.42649 0
M  V30 7115 C 664.914 -0.190286 -2.01604 0
M  V30 7116 C 665.242 1.20155 -1.52948 0
M  V30 7117 O 664.497 1.81964 -0.72026 0
M  V30 7118 C 664.796 -0.168298 -3.57004 0
M  V30 7119 C 664.462 -1.50415 -4.25072 0
M  V30 7120 C 663.124 -1.86992 -4.43382 0
M  V30 7121 C 665.476 -2.38414 -4.63474 0
M  V30 7122 C 662.804 -3.11203 -4.97363 0
M  V30 7123 C 665.156 -3.61933 -5.18833 0
M  V30 7124 C 663.82 -3.98685 -5.35356 0
M  V30 7125 H 663.09 -0.0696305 -0.737721 0
M  V30 7126 H 665.737 -0.864044 -1.70899 0
M  V30 7127 H 664.042 0.588958 -3.87348 0
M  V30 7128 H 665.739 0.22001 -4.00396 0
M  V30 7129 H 662.329 -1.20959 -4.11177 0
M  V30 7130 H 666.513 -2.11442 -4.49006 0
M  V30 7131 H 661.769 -3.39705 -5.08341 0
M  V30 7132 H 665.943 -4.30326 -5.47533 0
M  V30 7133 H 663.57 -4.95009 -5.76949 0
M  V30 7134 N 665.145 1.52092 -0.413018 0
M  V30 7135 C 666.373 2.06274 0.160881 0
M  V30 7136 C 666.788 1.28273 1.38533 0
M  V30 7137 O 666.145 0.33563 1.79387 0
M  V30 7138 C 666.196 3.57921 0.507443 0
M  V30 7139 O 665.917 4.32971 -0.668388 0
M  V30 7140 C 667.418 4.28533 1.13465 0
M  V30 7141 H 664.638 0.67074 0.0186759 0
M  V30 7142 H 667.182 1.95951 -0.585092 0
M  V30 7143 H 665.337 3.68238 1.20331 0
M  V30 7144 H 665.751 5.23135 -0.378169 0
M  V30 7145 H 667.225 5.35804 1.32732 0
M  V30 7146 H 667.702 3.85258 2.10886 0
M  V30 7147 H 668.308 4.22595 0.478876 0
M  V30 7148 N 666.623 0.143563 1.56945 0
M  V30 7149 C 667.871 -0.507402 1.95627 0
M  V30 7150 C 668.192 -1.65626 1.02922 0
M  V30 7151 O 667.462 -1.95693 0.0901136 0
M  V30 7152 H 666.042 -0.190436 0.722318 0
M  V30 7153 H 668.704 0.218257 1.93674 0
M  V30 7154 H 667.8 -0.885816 2.99265 0
M  V30 7155 N 668.101 -1.57061 -0.130224 0
M  V30 7156 C 669.326 -1.88802 -0.858409 0
M  V30 7157 C 669.751 -0.734353 -1.73173 0
M  V30 7158 O 669.109 0.315529 -1.78533 0
M  V30 7159 C 669.157 -3.19228 -1.67708 0
M  V30 7160 O 668.261 -3.04343 -2.78297 0
M  V30 7161 H 667.602 -0.619849 -0.238083 0
M  V30 7162 H 670.132 -2.04271 -0.115995 0
M  V30 7163 H 670.142 -3.51669 -2.06864 0
M  V30 7164 H 668.817 -4.02793 -1.0359 0
M  V30 7165 H 667.394 -2.83346 -2.42425 0
M  V30 7166 N 669.579 0.400081 -1.52437 0
M  V30 7167 C 670.804 1.17221 -1.71096 0
M  V30 7168 C 671.229 1.83269 -0.423565 0
M  V30 7169 O 670.587 1.70378 0.619751 0
M  V30 7170 C 670.635 2.20425 -2.85386 0
M  V30 7171 O 669.739 3.26769 -2.51586 0
M  V30 7172 H 669.08 0.341766 -0.569291 0
M  V30 7173 H 671.61 0.467772 -1.99181 0
M  V30 7174 H 671.62 2.64605 -3.10561 0
M  V30 7175 H 670.295 1.71737 -3.78786 0
M  V30 7176 H 668.872 2.87804 -2.37114 0
M  V30 7177 N 671.057 1.43213 0.657864 0
M  V30 7178 C 671.989 1.43974 1.78337 0
M  V30 7179 C 673.002 0.336482 1.59285 0
M  V30 7180 O 674.191 0.600631 1.68091 0
M  V30 7181 C 671.291 1.23242 3.15697 0
M  V30 7182 C 670.464 2.46319 3.61449 0
M  V30 7183 C 669.523 2.2088 4.77597 0
M  V30 7184 O 668.549 2.942 4.87273 0
M  V30 7185 N 669.751 1.22251 5.67481 0
M  V30 7186 H 672.516 2.40993 1.78164 0
M  V30 7187 H 670.077 1.3831 0.841549 0
M  V30 7188 H 672.069 1.04113 3.91079 0
M  V30 7189 H 670.639 0.346849 3.1067 0
M  V30 7190 H 669.859 2.80904 2.76563 0
M  V30 7191 H 671.147 3.28239 3.88763 0
M  V30 7192 H 670.545 0.616433 5.62331 0
M  V30 7193 H 669.102 1.09107 6.42603 0
M  V30 7194 N 672.536 -0.895792 1.29666 0
M  V30 7195 C 673.466 -2.01673 1.17688 0
M  V30 7196 C 674.447 -1.69955 0.0701317 0
M  V30 7197 O 675.632 -1.9258 0.250289 0
M  V30 7198 C 672.762 -3.36568 0.856681 0
M  V30 7199 C 671.716 -3.82509 1.92017 0
M  V30 7200 C 671.042 -5.14574 1.4532 0
M  V30 7201 C 672.342 -4.02409 3.32963 0
M  V30 7202 H 674.036 -2.11953 2.11463 0
M  V30 7203 H 671.582 -1.01839 1.01807 0
M  V30 7204 H 673.535 -4.14498 0.759577 0
M  V30 7205 H 672.259 -3.26391 -0.116763 0
M  V30 7206 H 670.918 -3.068 2.00673 0
M  V30 7207 H 670.566 -5.00815 0.468325 0
M  V30 7208 H 670.266 -5.46283 2.16447 0
M  V30 7209 H 671.79 -5.9504 1.36968 0
M  V30 7210 H 673.204 -4.70808 3.27127 0
M  V30 7211 H 671.601 -4.45478 4.02082 0
M  V30 7212 H 672.671 -3.06616 3.75652 0
M  V30 7213 N 674.014 -1.12206 -1.10668 0
M  V30 7214 C 674.924 -0.800686 -2.20513 0
M  V30 7215 C 675.94 0.209512 -1.72734 0
M  V30 7216 O 677.116 0.043705 -2.01353 0
M  V30 7217 C 674.181 -0.257353 -3.45744 0
M  V30 7218 C 673.242 -1.32718 -4.0827 0
M  V30 7219 C 672.475 -0.809674 -5.27522 0
M  V30 7220 O 672.698 0.35742 -5.69279 0
M  V30 7221 O 671.632 -1.57816 -5.80842 0
M  V30 7222 H 675.458 -1.71807 -2.50432 0
M  V30 7223 H 673.043 -0.898546 -1.19359 0
M  V30 7224 H 674.925 0.0408849 -4.2138 0
M  V30 7225 H 673.6 0.632627 -3.17458 0
M  V30 7226 H 672.507 -1.67855 -3.34329 0
M  V30 7227 H 673.84 -2.19083 -4.40753 0
M  V30 7228 N 675.492 1.28418 -0.913599 0
M  V30 7229 C 676.739 1.94981 -0.546674 0
M  V30 7230 C 677.067 1.7192 0.909606 0
M  V30 7231 O 676.322 1.03314 1.66207 0
M  V30 7232 C 676.621 3.48283 -0.802099 0
M  V30 7233 C 676.287 3.91444 -2.2379 0
M  V30 7234 C 674.949 4.02939 -2.63046 0
M  V30 7235 C 677.301 4.13542 -3.17227 0
M  V30 7236 C 674.629 4.3391 -3.94891 0
M  V30 7237 C 676.981 4.45992 -4.48636 0
M  V30 7238 C 675.645 4.55698 -4.87746 0
M  V30 7239 H 674.915 0.713487 -0.200042 0
M  V30 7240 H 677.562 1.52756 -1.15489 0
M  V30 7241 H 675.867 3.91643 -0.111076 0
M  V30 7242 H 677.564 3.97903 -0.497375 0
M  V30 7243 H 674.154 3.83024 -1.9233 0
M  V30 7244 H 678.338 4.04114 -2.88107 0
M  V30 7245 H 673.594 4.39631 -4.24894 0
M  V30 7246 H 677.768 4.62038 -5.21051 0
M  V30 7247 H 675.395 4.79451 -5.89942 0
M  V30 7248 N 676.97 0.677563 1.42291 0
M  V30 7249 C 678.247 0.129803 1.95169 0
M  V30 7250 C 678.627 -1.35605 1.61786 0
M  V30 7251 O 677.975 -2.09361 0.915444 0
M  V30 7252 C 678.185 0.401889 3.46678 0
M  V30 7253 C 679.533 0.319889 4.23393 0
M  V30 7254 O 680.557 0.33579 3.54614 0
M  V30 7255 O 679.416 0.264459 5.4586 0
M  V30 7256 H 676.51 0.00447433 0.826988 0
M  V30 7257 H 679.056 0.752483 1.52105 0
M  V30 7258 H 677.828 1.43108 3.64192 0
M  V30 7259 H 677.451 -0.252662 3.96796 0
M  V30 7260 N 678.448 -1.51871 0.421078 0
M  V30 7261 C 679.859 -1.86644 -0.0457991 0
M  V30 7262 C 680.21 -1.33919 -1.43388 0
M  V30 7263 O 679.335 -0.683316 -2.05328 0
M  V30 7264 C 679.93 -3.38681 -0.0898844 0
M  V30 7265 C 678.489 -3.73049 -0.501127 0
M  V30 7266 C 677.636 -2.75485 0.316723 0
M  V30 7267 H 680.587 -1.45327 0.637635 0
M  V30 7268 H 680.608 -3.69636 -0.902734 0
M  V30 7269 H 680.12 -3.77025 0.920513 0
M  V30 7270 H 678.221 -3.40288 -1.51773 0
M  V30 7271 H 678.334 -4.78512 -0.237217 0
M  V30 7272 H 676.698 -2.53725 -0.222663 0
M  V30 7273 H 677.481 -3.16671 1.32569 0
M  V30 7274 N 679.926 -0.151884 -1.56866 0
M  V30 7275 C 680.874 0.80299 -2.183 0
M  V30 7276 C 681.868 1.25174 -1.14139 0
M  V30 7277 O 683.074 1.21966 -1.3238 0
M  V30 7278 H 679.449 0.277169 -0.699057 0
M  V30 7279 H 681.42 0.260699 -2.97259 0
M  V30 7280 C 680.169 2.03009 -2.82281 0
M  V30 7281 H 679.492 1.69377 -3.62148 0
M  V30 7282 H 680.932 2.67753 -3.28762 0
M  V30 7283 C 679.391 2.84123 -1.81041 0
M  V30 7284 O 679.921 3.8063 -1.28388 0
M  V30 7285 N 678.127 2.48753 -1.50234 0
M  V30 7286 H 677.674 1.70337 -1.93244 0
M  V30 7287 H 677.632 3.03316 -0.827445 0
M  V30 7288 N 681.404 1.57128 0.121893 0
M  V30 7289 C 682.367 1.99197 1.13372 0
M  V30 7290 C 683.367 0.881728 1.3447 0
M  V30 7291 O 684.557 1.14783 1.31036 0
M  V30 7292 C 681.689 2.32963 2.4888 0
M  V30 7293 H 682.882 2.89788 0.772204 0
M  V30 7294 H 680.435 1.51952 0.366093 0
M  V30 7295 H 681.17 1.45243 2.89957 0
M  V30 7296 H 680.955 3.13934 2.34921 0
M  V30 7297 H 682.445 2.66261 3.21706 0
M  V30 7298 N 682.882 -0.391992 1.52647 0
M  V30 7299 C 683.829 -1.47866 1.77213 0
M  V30 7300 C 684.799 -1.54286 0.615223 0
M  V30 7301 O 685.984 -1.7059 0.854622 0
M  V30 7302 C 683.124 -2.85129 1.94411 0
M  V30 7303 C 682.237 -2.87883 3.22098 0
M  V30 7304 C 681.372 -4.16553 3.29631 0
M  V30 7305 C 680.411 -4.13348 4.51453 0
M  V30 7306 N 679.548 -5.33619 4.56284 0
M  V30 7307 H 684.388 -1.26219 2.6995 0
M  V30 7308 H 681.925 -0.612367 1.33748 0
M  V30 7309 H 683.883 -3.64833 2.02367 0
M  V30 7310 H 682.513 -3.05232 1.05038 0
M  V30 7311 H 681.565 -2.00567 3.23229 0
M  V30 7312 H 682.877 -2.81382 4.11856 0
M  V30 7313 H 682.031 -5.0466 3.36753 0
M  V30 7314 H 680.77 -4.25773 2.37842 0
M  V30 7315 H 679.775 -3.23629 4.44459 0
M  V30 7316 H 681 -4.05754 5.44555 0
M  V30 7317 H 678.946 -5.43474 3.67385 0
M  V30 7318 H 678.863 -5.29182 5.3991 0
M  V30 7319 H 680.131 -6.23632 4.67657 0
M  V30 7320 N 684.36 -1.4356 -0.65026 0
M  V30 7321 C 685.307 -1.48948 -1.76304 0
M  V30 7322 C 686.277 -0.338919 -1.62605 0
M  V30 7323 O 687.462 -0.54649 -1.82806 0
M  V30 7324 C 684.602 -1.42131 -3.14472 0
M  V30 7325 C 683.715 -2.67415 -3.39284 0
M  V30 7326 C 682.85 -2.52565 -4.67316 0
M  V30 7327 C 681.889 -3.73103 -4.85243 0
M  V30 7328 N 681.026 -3.57046 -6.04535 0
M  V30 7329 H 685.866 -2.44032 -1.71034 0
M  V30 7330 H 683.403 -1.21131 -0.834601 0
M  V30 7331 H 685.361 -1.36172 -3.94351 0
M  V30 7332 H 683.991 -0.506273 -3.18805 0
M  V30 7333 H 683.043 -2.8364 -2.53481 0
M  V30 7334 H 684.355 -3.56943 -3.48415 0
M  V30 7335 H 683.509 -2.44331 -5.55326 0
M  V30 7336 H 682.248 -1.60566 -4.60511 0
M  V30 7337 H 681.253 -3.81743 -3.95667 0
M  V30 7338 H 682.478 -4.66115 -4.93876 0
M  V30 7339 H 680.424 -2.67783 -5.98856 0
M  V30 7340 H 680.341 -4.40178 -6.14638 0
M  V30 7341 H 681.609 -3.52669 -6.95158 0
M  V30 7342 N 685.838 0.888903 -1.30139 0
M  V30 7343 C 687.084 1.6428 -1.18912 0
M  V30 7344 C 687.417 1.92499 0.256477 0
M  V30 7345 O 686.692 1.54312 1.18397 0
M  V30 7346 C 686.975 2.9851 -2.01405 0
M  V30 7347 C 686.828 2.77288 -3.54163 0
M  V30 7348 C 688.147 3.99383 -1.84882 0
M  V30 7349 H 685.266 0.596148 -0.433333 0
M  V30 7350 H 687.908 1.0289 -1.5973 0
M  V30 7351 H 686.058 3.50907 -1.66722 0
M  V30 7352 H 687.73 2.31709 -3.98884 0
M  V30 7353 H 685.973 2.11867 -3.78543 0
M  V30 7354 H 686.644 3.72717 -4.07168 0
M  V30 7355 H 689.12 3.56132 -2.15196 0
M  V30 7356 H 687.996 4.91222 -2.44934 0
M  V30 7357 H 688.257 4.34674 -0.806902 0
M  V30 7358 N 687.317 1.12792 1.10072 0
M  V30 7359 C 688.545 0.908506 1.85886 0
M  V30 7360 C 688.96 -0.542408 1.80841 0
M  V30 7361 O 688.317 -1.37517 1.1998 0
M  V30 7362 C 688.368 1.37973 3.34134 0
M  V30 7363 O 688.089 2.77378 3.39106 0
M  V30 7364 C 689.59 1.1978 4.26811 0
M  V30 7365 H 686.81 0.3244 0.587372 0
M  V30 7366 H 689.354 1.49882 1.39125 0
M  V30 7367 H 687.509 0.832566 3.78348 0
M  V30 7368 H 687.923 2.98144 4.31521 0
M  V30 7369 H 689.397 1.57635 5.29014 0
M  V30 7370 H 689.874 0.138768 4.38981 0
M  V30 7371 H 690.48 1.73266 3.88406 0
M  V30 7372 N 688.795 -1.27931 0.920396 0
M  V30 7373 C 689.745 -2.24727 0.384966 0
M  V30 7374 C 690.729 -1.52715 -0.506661 0
M  V30 7375 O 691.921 -1.73599 -0.345298 0
M  V30 7376 C 689.05 -3.41324 -0.3678 0
M  V30 7377 C 688.136 -4.20649 0.539925 0
M  V30 7378 N 688.527 -4.77906 1.6565 0
M  V30 7379 C 686.825 -4.4469 0.341557 0
M  V30 7380 C 687.526 -5.37652 2.22047 0
M  V30 7381 N 686.502 -5.2218 1.51093 0
M  V30 7382 H 690.304 -2.66572 1.23761 0
M  V30 7383 H 687.818 -1.42779 0.773819 0
M  V30 7384 H 689.815 -4.0976 -0.768277 0
M  V30 7385 H 688.475 -3.01012 -1.21746 0
M  V30 7386 H 689.486 -4.76073 2.03899 0
M  V30 7387 H 686.163 -4.14868 -0.468045 0
M  V30 7388 H 687.553 -5.92948 3.1601 0
M  V30 7389 N 690.273 -0.685099 -1.4193 0
M  V30 7390 C 691.501 -0.220372 -2.05723 0
M  V30 7391 C 691.916 1.12642 -1.51516 0
M  V30 7392 O 691.273 1.70182 -0.659114 0
M  V30 7393 C 691.324 -0.157974 -3.61155 0
M  V30 7394 O 691.045 -1.45156 -4.13354 0
M  V30 7395 C 692.546 0.329009 -4.42077 0
M  V30 7396 H 689.766 -0.104725 -0.662777 0
M  V30 7397 H 692.31 -0.934736 -1.81887 0
M  V30 7398 H 690.465 0.507144 -3.84066 0
M  V30 7399 H 690.879 -1.33172 -5.07312 0
M  V30 7400 H 692.353 0.321559 -5.51063 0
M  V30 7401 H 692.83 1.36608 -4.17414 0
M  V30 7402 H 693.436 -0.304737 -4.24207 0
M  V30 7403 N 691.751 1.51645 -0.429126 0
M  V30 7404 C 692.681 2.30434 0.377148 0
M  V30 7405 C 693.662 1.35493 1.02838 0
M  V30 7406 O 694.847 1.6441 1.03359 0
M  V30 7407 C 691.977 3.14038 1.48315 0
M  V30 7408 C 690.931 4.1719 0.955855 0
M  V30 7409 C 690.257 4.89263 2.15698 0
M  V30 7410 C 691.557 5.223 -0.00402136 0
M  V30 7411 H 693.251 2.98085 -0.280336 0
M  V30 7412 H 690.797 1.43354 -0.136265 0
M  V30 7413 H 692.75 3.67933 2.05435 0
M  V30 7414 H 691.474 2.44193 2.16881 0
M  V30 7415 H 690.133 3.64335 0.406929 0
M  V30 7416 H 689.781 4.15929 2.82864 0
M  V30 7417 H 689.481 5.59009 1.81059 0
M  V30 7418 H 691.005 5.45978 2.73387 0
M  V30 7419 H 692.419 5.71315 0.476607 0
M  V30 7420 H 690.816 5.99525 -0.26258 0
M  V30 7421 H 691.886 4.75638 -0.943236 0
M  V30 7422 N 693.229 0.160201 1.56784 0
M  V30 7423 C 694.176 -0.774416 2.1742 0
M  V30 7424 C 695.146 -1.23483 1.11091 0
M  V30 7425 O 696.331 -1.30499 1.39193 0
M  V30 7426 C 693.471 -2.00283 2.81035 0
M  V30 7427 C 692.584 -1.58701 4.01793 0
M  V30 7428 C 691.719 -2.76824 4.53367 0
M  V30 7429 C 690.758 -2.31679 5.66561 0
M  V30 7430 N 689.895 -3.42856 6.12694 0
M  V30 7431 H 694.735 -0.250542 2.96945 0
M  V30 7432 H 692.272 -0.111943 1.46673 0
M  V30 7433 H 694.23 -2.72316 3.16069 0
M  V30 7434 H 692.86 -2.5006 2.04132 0
M  V30 7435 H 691.912 -0.76384 3.72652 0
M  V30 7436 H 693.224 -1.21555 4.83762 0
M  V30 7437 H 692.378 -3.57029 4.90525 0
M  V30 7438 H 691.117 -3.17223 3.70433 0
M  V30 7439 H 690.122 -1.49917 5.28966 0
M  V30 7440 H 691.347 -1.9235 6.5129 0
M  V30 7441 H 689.293 -3.82852 5.32692 0
M  V30 7442 H 689.21 -3.09767 6.89624 0
M  V30 7443 H 690.478 -4.23379 6.545 0
M  V30 7444 N 694.707 -1.5719 -0.113559 0
M  V30 7445 C 695.932 -1.89702 -0.838336 0
M  V30 7446 C 696.357 -0.752679 -1.72384 0
M  V30 7447 O 695.715 0.296575 -1.78858 0
M  V30 7448 C 695.763 -3.20989 -1.64312 0
M  V30 7449 O 694.867 -3.07278 -2.75053 0
M  V30 7450 H 694.208 -0.622339 -0.231496 0
M  V30 7451 H 696.738 -2.04382 -0.0943228 0
M  V30 7452 H 696.748 -3.53843 -2.03123 0
M  V30 7453 H 695.423 -4.03869 -0.993119 0
M  V30 7454 H 694 -2.85901 -2.39406 0
M  V30 7455 N 696.185 0.383891 -1.52853 0
M  V30 7456 C 697.133 1.48965 -1.7864 0
M  V30 7457 C 698.127 1.56242 -0.654577 0
M  V30 7458 O 699.333 1.59347 -0.83716 0
M  V30 7459 H 695.708 0.495892 -0.565328 0
M  V30 7460 H 697.679 1.24411 -2.71228 0
M  V30 7461 C 696.428 2.86036 -1.97683 0
M  V30 7462 H 695.751 2.81188 -2.84206 0
M  V30 7463 H 697.191 3.62632 -2.19713 0
M  V30 7464 C 695.65 3.28428 -0.750776 0
M  V30 7465 O 696.18 4.0164 0.0693491 0
M  V30 7466 N 694.386 2.84765 -0.579427 0
M  V30 7467 H 693.933 2.25353 -1.24795 0
M  V30 7468 H 693.891 3.13486 0.239544 0
M  V30 7469 N 697.663 1.43903 0.642637 0
M  V30 7470 C 698.888 1.49758 1.43483 0
M  V30 7471 C 699.313 0.119911 1.87717 0
M  V30 7472 O 698.671 -0.888558 1.58033 0
M  V30 7473 C 698.719 2.45744 2.63898 0
M  V30 7474 O 697.823 1.95101 3.63331 0
M  V30 7475 H 697.164 0.506138 0.429791 0
M  V30 7476 H 699.694 1.88923 0.785438 0
M  V30 7477 H 699.704 2.63399 3.11584 0
M  V30 7478 H 698.379 3.45818 2.31046 0
M  V30 7479 H 696.956 1.87158 3.22531 0
M  V30 7480 N 699.141 -0.881989 1.30609 0
M  V30 7481 C 700.387 -1.63649 1.20791 0
M  V30 7482 C 700.742 -1.90966 -0.234437 0
M  V30 7483 O 700.035 -1.52163 -1.16434 0
M  V30 7484 C 700.229 -2.97999 1.97311 0
M  V30 7485 C 700.058 -2.83798 3.48839 0
M  V30 7486 C 698.828 -2.83622 4.18195 0
M  V30 7487 C 701.026 -2.59529 4.44015 0
M  V30 7488 N 699.008 -2.60344 5.55962 0
M  V30 7489 C 700.379 -2.45401 5.69366 0
M  V30 7490 C 702.434 -2.44777 4.33576 0
M  V30 7491 C 701.137 -2.18023 6.85462 0
M  V30 7492 C 703.163 -2.18785 5.49443 0
M  V30 7493 C 702.525 -2.05436 6.73777 0
M  V30 7494 H 698.624 -0.603687 0.497077 0
M  V30 7495 H 701.208 -1.03908 1.64655 0
M  V30 7496 H 699.379 -3.55767 1.55834 0
M  V30 7497 H 701.111 -3.6266 1.79611 0
M  V30 7498 H 697.866 -2.95562 3.70054 0
M  V30 7499 H 698.29 -2.51709 6.28468 0
M  V30 7500 H 702.932 -2.53831 3.38126 0
M  V30 7501 H 700.65 -2.07707 7.8095 0
M  V30 7502 H 704.236 -2.08188 5.43276 0
M  V30 7503 H 703.116 -1.85605 7.61919 0
M  V30 7504 N 700.619 -1.13374 -1.09472 0
M  V30 7505 C 701.549 -0.833268 -2.18126 0
M  V30 7506 C 702.53 0.207169 -1.68834 0
M  V30 7507 O 703.715 0.0662012 -1.94087 0
M  V30 7508 C 700.845 -0.297979 -3.46019 0
M  V30 7509 C 699.799 -1.27261 -4.08642 0
M  V30 7510 C 699.125 -0.597104 -5.31356 0
M  V30 7511 C 700.425 -2.63095 -4.51197 0
M  V30 7512 H 702.119 -1.74182 -2.43518 0
M  V30 7513 H 699.665 -0.838921 -1.17039 0
M  V30 7514 H 701.618 -0.0754444 -4.21332 0
M  V30 7515 H 700.342 0.645959 -3.20148 0
M  V30 7516 H 699.001 -1.48113 -3.35348 0
M  V30 7517 H 698.649 0.352293 -5.01765 0
M  V30 7518 H 698.349 -1.24734 -5.74208 0
M  V30 7519 H 699.873 -0.38384 -6.09392 0
M  V30 7520 H 701.287 -2.46214 -5.17737 0
M  V30 7521 H 699.684 -3.2429 -5.04932 0
M  V30 7522 H 700.754 -3.20793 -3.6362 0
M  V30 7523 N 702.098 1.27442 -0.927168 0
M  V30 7524 C 703.046 2.28844 -0.416333 0
M  V30 7525 C 704.04 1.61882 0.499057 0
M  V30 7526 O 705.246 1.75969 0.378817 0
M  V30 7527 H 701.621 0.742989 -0.116065 0
M  V30 7528 H 703.592 2.69344 -1.28438 0
M  V30 7529 C 702.341 3.4626 0.316107 0
M  V30 7530 H 701.664 3.97999 -0.379082 0
M  V30 7531 H 703.104 4.19173 0.637975 0
M  V30 7532 C 701.563 3.00211 1.5289 0
M  V30 7533 O 702.093 3.03837 2.62766 0
M  V30 7534 N 700.299 2.55713 1.38054 0
M  V30 7535 H 699.846 2.52962 0.4866 0
M  V30 7536 H 699.804 2.25264 2.19325 0
M  V30 7537 N 703.576 0.692616 1.41565 0
M  V30 7538 C 704.816 0.226453 2.03142 0
M  V30 7539 C 705.18 -1.1512 1.5366 0
M  V30 7540 O 706.381 -1.71305 2.07143 0
M  V30 7541 C 704.652 0.27855 3.56313 0
M  V30 7542 S 706.211 -0.114001 4.38652 0
M  V30 7543 H 703.029 0.0914767 0.705091 0
M  V30 7544 H 705.631 0.909737 1.73043 0
M  V30 7545 H 704.335 1.28325 3.89821 0
M  V30 7546 H 703.866 -0.423981 3.91109 0
M  V30 7547 H 705.881 -1.34256 4.77692 0
M  V30 7548 O 705.093 -1.50756 0.579208 0
M  V30 7549 H 705.784 -1.93523 0.0829038 0
M  V30 END ATOM
M  V30 BEGIN BOND
M  V30 END BOND
M  V30 END CTAB
M  END
$$$$
