drugbank_target|P22266 Esterase (DB02845)
 OpenBabel12092120013D

  0  0  0     0  0            999 V3000
M  V30 BEGIN CTAB
M  V30 COUNTS 5104 5156 0 0 0
M  V30 BEGIN ATOM
M  V30 1 H -0.908 1.98254 -0.117106 0
M  V30 2 N 0 1.576 0 0
M  V30 3 C 0.933 2.03868 1.02534 0
M  V30 4 C 1.911 0.928543 1.3348 0
M  V30 5 O 3.095 1.19667 1.45644 0
M  V30 6 C 0.222 2.43627 2.35294 0
M  V30 7 C -0.732 3.65373 2.2001 0
M  V30 8 S 0.101 5.13292 1.52614 0
M  V30 9 C 1.257 5.56322 2.86805 0
M  V30 10 H 1.49 2.90518 0.631377 0
M  V30 11 H -0.977 1.52953 0.210867 0
M  V30 12 H 0.981 2.67203 3.11629 0
M  V30 13 H -0.358 1.57376 2.7183 0
M  V30 14 H -1.165 3.90944 3.18086 0
M  V30 15 H -1.563 3.418 1.51819 0
M  V30 16 H 0.729 5.58782 3.83104 0
M  V30 17 H 1.672 6.56266 2.65933 0
M  V30 18 H 2.08 4.83886 2.90714 0
M  V30 19 N 1.4781 -0.272755 1.55222 0
M  V30 20 C 2.7031 -1.02683 1.80197 0
M  V30 21 C 3.1281 -1.79142 0.573551 0
M  V30 22 O 2.4861 -1.74917 -0.476849 0
M  V30 23 C 2.5341 -1.9609 3.02624 0
M  V30 24 O 1.6381 -3.04863 2.77727 0
M  V30 25 H 0.9791 -0.293557 0.595584 0
M  V30 26 H 3.5091 -0.30159 2.02365 0
M  V30 27 H 3.5191 -2.38039 3.31363 0
M  V30 28 H 2.1941 -1.39851 3.91682 0
M  V30 29 H 0.7711 -2.67228 2.60084 0
M  V30 30 N 2.9562 -1.48159 -0.537278 0
M  V30 31 C 4.1812 -1.59707 -1.32319 0
M  V30 32 C 4.6062 -0.254859 -1.86365 0
M  V30 33 O 3.9642 0.772378 -1.64024 0
M  V30 34 C 4.0122 -2.6412 -2.45505 0
M  V30 35 O 3.1162 -2.20774 -3.48328 0
M  V30 36 H 2.4572 -0.535791 -0.392204 0
M  V30 37 H 4.9872 -1.94092 -0.647268 0
M  V30 38 H 4.9972 -2.85166 -2.91795 0
M  V30 39 H 3.6722 -3.61567 -2.05528 0
M  V30 40 H 2.2492 -2.09911 -3.08207 0
M  V30 41 N 4.4343 0.785586 -1.36625 0
M  V30 42 C 5.3973 1.87999 -1.31107 0
M  V30 43 C 6.3973 1.59316 -0.217959 0
M  V30 44 O 7.5873 1.67656 -0.472977 0
M  V30 45 C 4.7193 3.24861 -1.03334 0
M  V30 46 H 5.9123 1.94307 -2.2844 0
M  V30 47 H 3.4653 0.983813 -1.21453 0
M  V30 48 H 4.2003 3.24235 -0.0647432 0
M  V30 49 H 3.9853 3.4707 -1.82441 0
M  V30 50 H 5.4753 4.04929 -1.02088 0
M  V30 51 N 5.9124 1.20967 1.01018 0
M  V30 52 C 6.8454 0.907578 2.09376 0
M  V30 53 C 7.8234 -0.142868 1.61971 0
M  V30 54 O 9.0074 -0.0150391 1.88494 0
M  V30 55 C 6.1344 0.361791 3.36762 0
M  V30 56 C 5.1804 1.39423 4.03068 0
M  V30 57 S 6.0134 2.96159 4.4615 0
M  V30 58 C 7.1694 2.43173 5.7673 0
M  V30 59 H 7.4024 1.82519 2.34678 0
M  V30 60 H 4.9354 1.03884 1.14225 0
M  V30 61 H 6.8934 0.0534523 4.10465 0
M  V30 62 H 5.5544 -0.53443 3.0952 0
M  V30 63 H 4.7474 0.961853 4.94737 0
M  V30 64 H 4.3494 1.65038 3.35617 0
M  V30 65 H 6.6414 1.83335 6.52223 0
M  V30 66 H 7.5844 3.33264 6.24773 0
M  V30 67 H 7.9924 1.85069 5.33301 0
M  V30 68 N 7.3905 -1.2043 1.01659 0
M  V30 69 C 8.8065 -1.41852 0.731442 0
M  V30 70 C 9.0065 -1.89358 -0.688898 0
M  V30 71 O 8.0625 -2.06247 -1.45666 0
M  V30 72 C 9.3755 -2.44019 1.75714 0
M  V30 73 C 10.9235 -2.57785 1.77527 0
M  V30 74 C 11.3985 -3.63194 2.79023 0
M  V30 75 N 12.8895 -3.70678 2.77763 0
M  V30 76 C 13.6245 -4.51897 3.52954 0
M  V30 77 N 13.1205 -5.36921 4.37821 0
M  V30 78 N 14.9135 -4.4643 3.41551 0
M  V30 79 H 7.0645 -0.879093 1.93354 0
M  V30 80 H 9.3275 -0.448425 0.835236 0
M  V30 81 H 9.0335 -2.1611 2.77469 0
M  V30 82 H 8.9075 -3.43007 1.56927 0
M  V30 83 H 11.2945 -2.85023 0.764569 0
M  V30 84 H 11.3755 -1.58992 2.00387 0
M  V30 85 H 11.0195 -3.36699 3.80258 0
M  V30 86 H 10.9495 -4.61609 2.53425 0
M  V30 87 H 13.4405 -3.09944 2.16201 0
M  V30 88 H 13.7535 -5.95981 4.91962 0
M  V30 89 H 12.0985 -5.36424 4.41899 0
M  V30 90 H 15.2895 -3.79042 2.74672 0
M  V30 91 H 15.4625 -5.09491 4.00404 0
M  V30 92 N 8.8686 -0.792821 -1.36206 0
M  V30 93 C 9.8156 -0.191653 -2.30003 0
M  V30 94 C 10.7856 0.666453 -1.52143 0
M  V30 95 O 11.9706 0.61442 -1.80636 0
M  V30 96 C 9.1106 0.664848 -3.38635 0
M  V30 97 C 8.2236 -0.212175 -4.31479 0
M  V30 98 C 7.3586 0.651022 -5.27196 0
M  V30 99 C 6.3976 -0.227247 -6.11678 0
M  V30 100 N 5.5346 0.595127 -6.99573 0
M  V30 101 H 10.3746 -0.996978 -2.80828 0
M  V30 102 H 7.9116 -0.503206 -1.38225 0
M  V30 103 H 9.8696 1.17645 -4.00269 0
M  V30 104 H 8.4996 1.43557 -2.89122 0
M  V30 105 H 7.5516 -0.841777 -3.70969 0
M  V30 106 H 8.8636 -0.888751 -4.90818 0
M  V30 107 H 8.0176 1.2283 -5.94136 0
M  V30 108 H 6.7566 1.36121 -4.68319 0
M  V30 109 H 5.7616 -0.816904 -5.43697 0
M  V30 110 H 6.9866 -0.93509 -6.72631 0
M  V30 111 H 4.9326 1.28955 -6.432 0
M  V30 112 H 4.8496 -0.0236952 -7.55996 0
M  V30 113 H 6.1176 1.15613 -7.70879 0
M  V30 114 N 10.3467 1.47872 -0.545128 0
M  V30 115 C 11.5747 2.06889 -0.021084 0
M  V30 116 C 11.9897 1.39955 1.2672 0
M  V30 117 O 11.3467 0.492036 1.75742 0
M  V30 118 C 11.3977 3.60996 0.190817 0
M  V30 119 O 11.1187 4.25419 -1.04644 0
M  V30 120 C 12.6197 4.36849 0.753521 0
M  V30 121 H 9.8397 0.669785 -0.0403635 0
M  V30 122 H 12.3837 1.90049 -0.755095 0
M  V30 123 H 10.5387 3.77391 0.87492 0
M  V30 124 H 10.9527 5.17785 -0.836611 0
M  V30 125 H 12.4267 5.45399 0.851139 0
M  V30 126 H 12.9037 4.02306 1.762 0
M  V30 127 H 13.5097 4.25169 0.105503 0
M  V30 128 N 11.8248 0.280983 1.55075 0
M  V30 129 C 13.0528 -0.337293 2.04132 0
M  V30 130 C 13.4678 -1.4903 1.15912 0
M  V30 131 O 12.8248 -1.81606 0.180459 0
M  V30 132 C 12.8758 -0.812706 3.52246 0
M  V30 133 O 12.5968 0.294387 4.3711 0
M  V30 134 C 14.0978 -1.4982 4.17216 0
M  V30 135 H 11.3178 -0.0761638 0.666663 0
M  V30 136 H 13.8618 0.414787 2.00249 0
M  V30 137 H 12.0168 -1.51486 3.56554 0
M  V30 138 H 12.4308 -0.0721325 5.2445 0
M  V30 139 H 13.9048 -1.7822 5.22438 0
M  V30 140 H 14.3818 -2.43168 3.65741 0
M  V30 141 H 14.9878 -0.839742 4.16927 0
M  V30 142 N 13.3029 -1.57598 0.00835791 0
M  V30 143 C 14.2509 -2.10078 -0.998508 0
M  V30 144 C 15.2449 -1.02262 -1.35051 0
M  V30 145 O 16.4509 -1.20719 -1.33518 0
M  V30 146 H 12.8259 -0.670903 -0.339696 0
M  V30 147 H 14.7969 -2.93648 -0.530398 0
M  V30 148 C 13.5459 -2.62615 -2.27879 0
M  V30 149 H 12.8689 -3.45213 -2.01662 0
M  V30 150 H 14.3089 -3.03004 -2.96588 0
M  V30 151 C 12.7679 -1.54407 -2.99433 0
M  V30 152 O 13.2979 -0.931812 -3.90743 0
M  V30 153 N 11.5039 -1.2695 -2.61404 0
M  V30 154 H 11.0509 -1.76924 -1.87232 0
M  V30 155 H 11.0089 -0.547704 -3.09593 0
M  V30 156 N 14.781 0.264519 -1.55364 0
M  V30 157 C 16.006 1.01726 -1.80739 0
M  V30 158 C 16.431 1.78836 -0.583044 0
M  V30 159 O 15.789 1.75167 0.467566 0
M  V30 160 C 15.837 1.94482 -3.03659 0
M  V30 161 O 14.941 3.03386 -2.7934 0
M  V30 162 H 14.282 0.290395 -0.597132 0
M  V30 163 H 16.812 0.290854 -2.02522 0
M  V30 164 H 16.822 2.36278 -3.32621 0
M  V30 165 H 15.497 1.37772 -3.92418 0
M  V30 166 H 14.074 2.65844 -2.61498 0
M  V30 167 N 16.2591 1.48442 0.529413 0
M  V30 168 C 17.6701 1.5002 1.11134 0
M  V30 169 C 18.0211 0.27031 1.94329 0
M  V30 170 O 17.1461 -0.622507 2.07253 0
M  V30 171 C 17.7411 2.71834 2.02217 0
M  V30 172 C 16.3001 2.76283 2.55627 0
M  V30 173 C 15.4471 2.43542 1.326 0
M  V30 174 H 18.3981 1.5555 0.314641 0
M  V30 175 H 18.4191 2.50384 2.8651 0
M  V30 176 H 17.9311 3.61331 1.41639 0
M  V30 177 H 16.0321 1.90995 3.19924 0
M  V30 178 H 16.1451 3.77725 2.94721 0
M  V30 179 H 14.5091 1.94709 1.64196 0
M  V30 180 H 15.2921 3.3528 0.737734 0
M  V30 181 N 17.7372 -0.778329 1.37039 0
M  V30 182 C 18.9832 -1.53892 1.32079 0
M  V30 183 C 19.3162 -1.9396 -0.0965386 0
M  V30 184 O 18.5912 -1.63568 -1.05242 0
M  V30 185 C 18.8742 -2.80847 2.25382 0
M  V30 186 C 18.7272 -2.47076 3.75864 0
M  V30 187 C 20.0462 -3.82741 2.1725 0
M  V30 188 H 17.1652 -0.558303 0.48111 0
M  V30 189 H 19.8072 -0.893397 1.67685 0
M  V30 190 H 17.9572 -3.35931 1.95148 0
M  V30 191 H 19.6292 -1.97957 4.16666 0
M  V30 192 H 17.8722 -1.79863 3.94755 0
M  V30 193 H 18.5432 -3.37798 4.36574 0
M  V30 194 H 21.0192 -3.37133 2.43887 0
M  V30 195 H 19.8952 -4.69303 2.84686 0
M  V30 196 H 20.1562 -4.2652 1.16331 0
M  V30 197 N 19.2153 -1.21501 -1.00376 0
M  V30 198 C 20.4613 -1.03452 -1.74429 0
M  V30 199 C 20.7943 0.430764 -1.89362 0
M  V30 200 O 20.0693 1.31962 -1.42886 0
M  V30 201 C 20.3523 -1.73375 -3.15615 0
M  V30 202 C 20.2053 -3.27431 -3.08397 0
M  V30 203 C 21.5243 -1.47732 -4.14564 0
M  V30 204 H 18.6433 -0.377226 -0.633143 0
M  V30 205 H 21.2853 -1.49693 -1.17013 0
M  V30 206 H 19.4353 -1.34064 -3.64636 0
M  V30 207 H 21.1073 -3.76119 -2.67081 0
M  V30 208 H 19.3503 -3.5767 -2.45468 0
M  V30 209 H 20.0213 -3.71524 -4.08258 0
M  V30 210 H 22.4973 -1.8186 -3.74254 0
M  V30 211 H 21.3733 -1.99169 -5.11491 0
M  V30 212 H 21.6343 -0.407589 -4.40217 0
M  V30 213 N 20.6934 1.19889 -1.02296 0
M  V30 214 C 22.1094 1.41462 -0.738954 0
M  V30 215 C 22.3094 1.89721 0.678846 0
M  V30 216 O 21.3654 2.07016 1.4457 0
M  V30 217 C 22.6784 2.43083 -1.77005 0
M  V30 218 C 24.2264 2.5684 -1.78892 0
M  V30 219 C 24.7014 3.61709 -2.80945 0
M  V30 220 N 26.1924 3.69199 -2.79725 0
M  V30 221 C 26.9274 4.50019 -3.55345 0
M  V30 222 N 26.4234 5.34592 -4.40662 0
M  V30 223 N 28.2164 4.44612 -3.43914 0
M  V30 224 H 20.3674 0.868827 -1.93817 0
M  V30 225 H 22.6304 0.44399 -0.837602 0
M  V30 226 H 22.3364 2.14636 -2.78612 0
M  V30 227 H 22.2104 3.4217 -1.58744 0
M  V30 228 H 24.5974 2.84614 -0.779674 0
M  V30 229 H 24.6784 1.57927 -2.01228 0
M  V30 230 H 24.3224 3.34678 -3.82038 0
M  V30 231 H 24.2524 4.60259 -2.5587 0
M  V30 232 H 26.7434 3.08794 -2.17842 0
M  V30 233 H 27.0564 5.93363 -4.95116 0
M  V30 234 H 25.4014 5.34073 -4.44737 0
M  V30 235 H 28.5924 3.7758 -2.76679 0
M  V30 236 H 28.7654 5.0736 -4.031 0
M  V30 237 N 22.1715 0.800033 1.35784 0
M  V30 238 C 23.5875 0.482977 1.52117 0
M  V30 239 C 23.7875 -0.996948 1.75109 0
M  V30 240 O 22.8435 -1.78216 1.78872 0
M  V30 241 C 24.1565 1.32264 2.70049 0
M  V30 242 C 25.7045 1.31742 2.83924 0
M  V30 243 C 26.1795 2.14106 4.04874 0
M  V30 244 N 27.6705 2.11607 4.12039 0
M  V30 245 C 28.4055 2.72099 5.04727 0
M  V30 246 N 27.9015 3.41492 6.02789 0
M  V30 247 N 29.6945 2.61776 4.97423 0
M  V30 248 H 21.8455 1.75856 1.19115 0
M  V30 249 H 24.1085 0.748122 0.582252 0
M  V30 250 H 23.8145 2.37261 2.59616 0
M  V30 251 H 23.6885 0.971303 3.6448 0
M  V30 252 H 26.0755 0.275333 2.93813 0
M  V30 253 H 26.1565 1.70859 1.9037 0
M  V30 254 H 25.8005 3.18351 3.95746 0
M  V30 255 H 25.7305 1.72353 4.97596 0
M  V30 256 H 28.2215 1.61112 3.41835 0
M  V30 257 H 28.5345 3.84953 6.70098 0
M  V30 258 H 26.8795 3.45596 6.02983 0
M  V30 259 H 30.0705 2.07157 4.19766 0
M  V30 260 H 30.2435 3.0921 5.69468 0
M  V30 261 N 23.6496 -1.47581 0.552962 0
M  V30 262 C 24.5796 -2.32762 -0.185451 0
M  V30 263 C 25.5606 -1.43527 -0.912905 0
M  V30 264 O 26.7456 -1.72388 -0.894201 0
M  V30 265 C 23.8756 -3.25219 -1.21859 0
M  V30 266 C 22.8296 -4.23661 -0.607864 0
M  V30 267 C 22.1556 -5.05413 -1.74533 0
M  V30 268 C 23.4556 -5.20481 0.435582 0
M  V30 269 H 25.1496 -2.94749 0.525684 0
M  V30 270 H 22.6956 -1.41738 0.254251 0
M  V30 271 H 24.6486 -3.8365 -1.7433 0
M  V30 272 H 23.3726 -2.61279 -1.95961 0
M  V30 273 H 22.0316 -3.66451 -0.104489 0
M  V30 274 H 21.6796 -4.3788 -2.47529 0
M  V30 275 H 21.3796 -5.72059 -1.34249 0
M  V30 276 H 22.9036 -5.66701 -2.27338 0
M  V30 277 H 24.3176 -5.733 -0.00290157 0
M  V30 278 H 22.7146 -5.95305 0.757067 0
M  V30 279 H 23.7846 -4.66217 1.33303 0
M  V30 280 N 25.1277 -0.289203 -1.54924 0
M  V30 281 C 26.3557 0.326463 -2.04308 0
M  V30 282 C 26.7707 1.48413 -1.16701 0
M  V30 283 O 26.1277 1.81507 -0.190087 0
M  V30 284 C 26.1787 0.794014 -3.52672 0
M  V30 285 O 25.8997 -0.317564 -4.36948 0
M  V30 286 C 27.4007 1.47605 -4.18004 0
M  V30 287 H 24.6207 0.0726272 -0.667058 0
M  V30 288 H 27.1647 -0.425401 -2.00026 0
M  V30 289 H 25.3197 1.49593 -3.57352 0
M  V30 290 H 25.7337 0.0443186 -5.24481 0
M  V30 291 H 27.2077 1.75447 -5.23376 0
M  V30 292 H 27.6847 2.41224 -3.67025 0
M  V30 293 H 28.2907 0.81762 -4.17367 0
M  V30 294 N 26.6058 1.57591 -0.0167156 0
M  V30 295 C 27.5688 2.08393 0.954204 0
M  V30 296 C 28.5688 0.996531 1.26198 0
M  V30 297 O 29.7588 1.25858 1.20438 0
M  V30 298 C 26.8908 2.5394 2.27436 0
M  V30 299 H 28.0838 2.95455 0.514451 0
M  V30 300 H 25.6368 1.54582 0.231089 0
M  V30 301 H 26.3718 1.70171 2.76066 0
M  V30 302 H 26.1568 3.33371 2.06412 0
M  V30 303 H 27.6468 2.93512 2.97053 0
M  V30 304 N 28.0839 -0.256276 1.55502 0
M  V30 305 C 29.0469 -1.30047 1.88734 0
M  V30 306 C 30.0469 -1.4154 0.763086 0
M  V30 307 O 31.2369 -1.40403 1.03115 0
M  V30 308 C 28.3689 -2.67953 2.10747 0
M  V30 309 H 29.5619 -1.01802 2.82093 0
M  V30 310 H 27.1149 -0.495134 1.4825 0
M  V30 311 H 27.8499 -3.01351 1.19825 0
M  V30 312 H 27.6349 -2.60993 2.92617 0
M  V30 313 H 29.1249 -3.43368 2.37673 0
M  V30 314 N 29.562 -1.4872 -0.521534 0
M  V30 315 C 30.525 -1.63379 -1.60748 0
M  V30 316 C 31.525 -0.50661 -1.52611 0
M  V30 317 O 32.715 -0.772601 -1.5613 0
M  V30 318 C 29.847 -1.61192 -3.00383 0
M  V30 319 H 31.04 -2.60217 -1.49087 0
M  V30 320 H 28.593 -1.37444 -0.744235 0
M  V30 321 H 29.328 -0.65863 -3.17541 0
M  V30 322 H 29.113 -2.43032 -3.07698 0
M  V30 323 H 30.603 -1.7466 -3.7932 0
M  V30 324 N 31.0401 0.771051 -1.3745 0
M  V30 325 C 32.2861 1.5319 -1.32894 0
M  V30 326 C 32.6191 1.94008 0.0862511 0
M  V30 327 O 31.8941 1.64124 1.04373 0
M  V30 328 C 32.1771 2.79648 -2.26868 0
M  V30 329 C 32.0301 2.45079 -3.77169 0
M  V30 330 C 33.3491 3.81583 -2.19277 0
M  V30 331 H 30.4681 0.555744 -0.484064 0
M  V30 332 H 33.1101 0.884492 -1.68157 0
M  V30 333 H 31.2601 3.34891 -1.96926 0
M  V30 334 H 32.9321 1.95745 -4.1771 0
M  V30 335 H 31.1751 1.77767 -3.95704 0
M  V30 336 H 31.8461 3.35478 -4.38359 0
M  V30 337 H 34.3221 3.35835 -2.45671 0
M  V30 338 H 33.1981 4.67787 -2.87171 0
M  V30 339 H 33.4591 4.25897 -1.18592 0
M  V30 340 N 32.5182 1.22032 0.997298 0
M  V30 341 C 33.4812 0.987909 2.06816 0
M  V30 342 C 34.4812 -0.0440084 1.6074 0
M  V30 343 O 35.6712 0.194053 1.73116 0
M  V30 344 C 32.8032 0.49132 3.37341 0
M  V30 345 H 33.9962 1.93803 2.28868 0
M  V30 346 H 31.5492 1.03838 1.16822 0
M  V30 347 H 32.2842 -0.463364 3.20973 0
M  V30 348 H 32.0692 1.23575 3.72118 0
M  V30 349 H 33.5592 0.348824 4.16141 0
M  V30 350 N 33.9963 -1.19345 1.0293 0
M  V30 351 C 34.9263 -2.2481 0.631105 0
M  V30 352 C 35.9073 -1.66245 -0.360104 0
M  V30 353 O 37.0923 -1.92677 -0.242726 0
M  V30 354 C 34.2223 -3.47295 -0.0184607 0
M  V30 355 C 33.1763 -4.18536 0.895073 0
M  V30 356 C 32.5023 -5.34586 0.110592 0
M  V30 357 C 33.8023 -4.73287 2.209 0
M  V30 358 H 35.4963 -2.58372 1.51275 0
M  V30 359 H 33.0423 -1.24194 0.728818 0
M  V30 360 H 34.9953 -4.20268 -0.308675 0
M  V30 361 H 33.7193 -3.12933 -0.934907 0
M  V30 362 H 32.3783 -3.47446 1.16949 0
M  V30 363 H 32.0263 -4.96469 -0.807902 0
M  V30 364 H 31.7263 -5.83183 0.719087 0
M  V30 365 H 33.2503 -6.10355 -0.172871 0
M  V30 366 H 34.6643 -5.38013 1.98028 0
M  V30 367 H 33.0613 -5.32373 2.76946 0
M  V30 368 H 34.1313 -3.91331 2.86336 0
M  V30 369 N 35.4744 -0.807222 -1.35358 0
M  V30 370 C 36.7224 -0.387122 -1.98358 0
M  V30 371 C 37.0434 1.04942 -1.64354 0
M  V30 372 O 36.3134 1.72615 -0.926339 0
M  V30 373 H 34.8934 -0.140154 -0.733734 0
M  V30 374 H 37.5554 -1.0332 -1.6526 0
M  V30 375 H 36.6514 -0.493352 -3.08176 0
M  V30 376 N 36.9525 1.47285 -0.560781 0
M  V30 377 C 38.1775 2.07359 -0.0410566 0
M  V30 378 C 38.6025 1.41017 1.24483 0
M  V30 379 O 37.9605 0.486368 1.74654 0
M  V30 380 C 38.0085 3.6035 0.134123 0
M  V30 381 O 37.1125 3.94681 1.19587 0
M  V30 382 H 36.4535 0.661887 -0.0529291 0
M  V30 383 H 38.9835 1.89252 -0.777482 0
M  V30 384 H 38.9935 4.0652 0.347207 0
M  V30 385 H 37.6685 4.08034 -0.805047 0
M  V30 386 H 36.2455 3.60251 0.962987 0
M  V30 387 N 38.4306 0.297415 1.54768 0
M  V30 388 C 39.6706 -0.313829 2.01976 0
M  V30 389 C 40.0346 -1.51366 1.1812 0
M  V30 390 O 41.2356 -2.19603 1.5501 0
M  V30 391 C 39.5066 -0.664964 3.51159 0
M  V30 392 S 41.0656 -1.25958 4.20333 0
M  V30 393 H 37.8836 -0.0965014 0.704421 0
M  V30 394 H 40.4856 0.424451 1.90837 0
M  V30 395 H 39.1896 0.21681 4.09827 0
M  V30 396 H 38.7206 -1.43413 3.66328 0
M  V30 397 H 40.7356 -2.54751 4.25813 0
M  V30 398 N 39.9087 -1.5758 0.0250728 0
M  V30 399 C 40.8387 -2.13007 -0.956575 0
M  V30 400 C 41.8197 -1.0452 -1.342 0
M  V30 401 O 43.0047 -1.32332 -1.42133 0
M  V30 402 C 40.1347 -2.65386 -2.24026 0
M  V30 403 C 39.0887 -3.78623 -1.99571 0
M  V30 404 C 38.4147 -4.17414 -3.3417 0
M  V30 405 C 39.7147 -5.04867 -1.33814 0
M  V30 406 H 41.4087 -2.9528 -0.494991 0
M  V30 407 H 38.9547 -1.42042 -0.236651 0
M  V30 408 H 40.9077 -3.02794 -2.93076 0
M  V30 409 H 39.6317 -1.80268 -2.72343 0
M  V30 410 H 38.2907 -3.41646 -1.32941 0
M  V30 411 H 37.9387 -3.29284 -3.80238 0
M  V30 412 H 37.6387 -4.93719 -3.18615 0
M  V30 413 H 39.1627 -4.57402 -4.04495 0
M  V30 414 H 40.5767 -5.39888 -1.92857 0
M  V30 415 H 38.9737 -5.86144 -1.28669 0
M  V30 416 H 40.0437 -4.83904 -0.310561 0
M  V30 417 N 41.3868 0.248026 -1.55636 0
M  V30 418 C 42.3498 1.29044 -1.89421 0
M  V30 419 C 43.3498 1.41134 -0.770581 0
M  V30 420 O 44.5398 1.39854 -1.03858 0
M  V30 421 C 41.6718 2.66831 -2.12165 0
M  V30 422 H 42.8648 1.00305 -2.82629 0
M  V30 423 H 40.4178 0.487265 -1.48511 0
M  V30 424 H 41.1528 3.00711 -1.21422 0
M  V30 425 H 40.9378 2.59438 -2.93997 0
M  V30 426 H 42.4278 3.42103 -2.3949 0
M  V30 427 N 42.8649 1.48995 0.513639 0
M  V30 428 C 43.7949 1.67636 1.62544 0
M  V30 429 C 44.7759 0.525087 1.61793 0
M  V30 430 O 45.9609 0.759502 1.78732 0
M  V30 431 C 43.0909 1.73114 3.01079 0
M  V30 432 C 42.0449 2.87905 3.16693 0
M  V30 433 C 41.3709 2.78486 4.56453 0
M  V30 434 C 42.6709 4.29005 2.97913 0
M  V30 435 H 44.3649 2.60716 1.47198 0
M  V30 436 H 41.9109 1.25465 0.706714 0
M  V30 437 H 43.8639 1.84742 3.78746 0
M  V30 438 H 42.5879 0.766241 3.17484 0
M  V30 439 H 41.2469 2.75859 2.41448 0
M  V30 440 H 40.8949 1.7993 4.69717 0
M  V30 441 H 40.5949 3.55523 4.67843 0
M  V30 442 H 42.1189 2.92104 5.36197 0
M  V30 443 H 43.5329 4.41798 3.65359 0
M  V30 444 H 41.9299 5.07166 3.20785 0
M  V30 445 H 42.9999 4.44329 1.94165 0
M  V30 446 N 44.343 -0.763751 1.37857 0
M  V30 447 C 45.306 -1.85889 1.34081 0
M  V30 448 C 46.306 -1.58949 0.243277 0
M  V30 449 O 47.496 -1.66882 0.499589 0
M  V30 450 C 44.628 -3.23176 1.08489 0
M  V30 451 H 45.821 -1.90648 2.31502 0
M  V30 452 H 43.374 -0.964367 1.23003 0
M  V30 453 H 44.109 -3.24091 0.116318 0
M  V30 454 H 43.894 -3.44124 1.8794 0
M  V30 455 H 45.384 -4.03254 1.08517 0
M  V30 456 N 45.8211 -1.22559 -0.990812 0
M  V30 457 C 47.0691 -1.04933 -1.72724 0
M  V30 458 C 47.3901 0.416158 -1.90508 0
M  V30 459 O 46.6601 1.29918 -1.46622 0
M  V30 460 H 45.2401 -0.385296 -0.639965 0
M  V30 461 H 47.9021 -1.54105 -1.19322 0
M  V30 462 H 46.9981 -1.52886 -2.72089 0
M  V30 463 N 47.2992 1.18797 -1.03562 0
M  V30 464 C 48.7102 1.70322 -0.764676 0
M  V30 465 C 49.0612 1.82708 0.714996 0
M  V30 466 O 48.1862 1.50299 1.55689 0
M  V30 467 C 48.7812 3.09356 -1.38145 0
M  V30 468 C 47.3402 3.58114 -1.15895 0
M  V30 469 C 46.4872 2.34798 -1.4753 0
M  V30 470 H 49.4382 1.03543 -1.20268 0
M  V30 471 H 49.4592 3.72378 -0.781977 0
M  V30 472 H 48.9712 3.00309 -2.45837 0
M  V30 473 H 47.0722 3.72464 -0.100544 0
M  V30 474 H 47.1852 4.4184 -1.8524 0
M  V30 475 H 45.5492 2.38464 -0.894829 0
M  V30 476 H 46.3322 2.28375 -2.56319 0
M  V30 477 N 48.7773 0.814389 1.34928 0
M  V30 478 C 49.7403 0.235759 2.27984 0
M  V30 479 C 50.7403 -0.581412 1.49921 0
M  V30 480 O 51.9303 -0.398758 1.69575 0
M  V30 481 C 49.0623 -0.670433 3.34242 0
M  V30 482 H 50.2553 1.05659 2.80671 0
M  V30 483 H 47.8083 0.585614 1.44915 0
M  V30 484 H 48.5433 -1.51466 2.86755 0
M  V30 485 H 48.3283 -0.0860822 3.92005 0
M  V30 486 H 49.8183 -1.06935 4.03676 0
M  V30 487 N 50.2554 -1.46986 0.568584 0
M  V30 488 C 51.5034 -2.02041 0.0487022 0
M  V30 489 C 51.8244 -1.44408 -1.31039 0
M  V30 490 O 51.0944 -0.623477 -1.85714 0
M  V30 491 H 49.6744 -0.746849 0.015014 0
M  V30 492 H 52.3364 -1.80257 0.741168 0
M  V30 493 H 51.4324 -3.12085 -0.0308961 0
M  V30 494 N 51.7335 -0.305618 -1.54608 0
M  V30 495 C 52.9585 0.307562 -2.05107 0
M  V30 496 C 53.3835 1.46385 -1.18123 0
M  V30 497 O 52.7415 1.8034 -0.186324 0
M  V30 498 C 52.7895 0.73704 -3.52987 0
M  V30 499 O 51.8935 1.84134 -3.6901 0
M  V30 500 H 51.2345 0.0589143 -0.661381 0
M  V30 501 H 53.7645 -0.448807 -1.99617 0
M  V30 502 H 53.7745 1.02459 -3.94925 0
M  V30 503 H 52.4495 -0.108773 -4.15758 0
M  V30 504 H 51.0265 1.55398 -3.38978 0
M  V30 505 N 53.2116 1.57565 -0.0334293 0
M  V30 506 C 54.1746 2.09393 0.932048 0
M  V30 507 C 55.1746 1.00986 1.25134 0
M  V30 508 O 56.3646 1.27129 1.19096 0
M  V30 509 C 53.4966 2.56338 2.2473 0
M  V30 510 H 54.6896 2.95984 0.483085 0
M  V30 511 H 52.2426 1.54819 0.21468 0
M  V30 512 H 52.9776 1.7309 2.74245 0
M  V30 513 H 52.7626 3.35542 2.02865 0
M  V30 514 H 54.2526 2.96646 2.93923 0
M  V30 515 N 54.6897 -0.239769 1.55765 0
M  V30 516 C 55.9377 -0.964892 1.77579 0
M  V30 517 C 56.2587 -1.85582 0.598699 0
M  V30 518 O 55.5287 -1.92075 -0.385226 0
M  V30 519 H 54.1087 -0.359265 0.654933 0
M  V30 520 H 56.7707 -0.256001 1.93211 0
M  V30 521 H 55.8667 -1.58243 2.69009 0
M  V30 522 N 56.1678 -1.49265 -0.50573 0
M  V30 523 C 57.1308 -1.65075 -1.59006 0
M  V30 524 C 58.1308 -0.522768 -1.52065 0
M  V30 525 O 59.3208 -0.789117 -1.55302 0
M  V30 526 C 56.4528 -1.64369 -2.98656 0
M  V30 527 H 57.6458 -2.61784 -1.46319 0
M  V30 528 H 55.1988 -1.38226 -0.729616 0
M  V30 529 H 55.9338 -0.692272 -3.16825 0
M  V30 530 H 55.7188 -2.46282 -3.05103 0
M  V30 531 H 57.2088 -1.78674 -3.77446 0
M  V30 532 N 57.6459 0.756429 -1.3826 0
M  V30 533 C 58.6089 1.85176 -1.35065 0
M  V30 534 C 59.6089 1.58818 -0.251703 0
M  V30 535 O 60.7989 1.66615 -0.508433 0
M  V30 536 C 57.9309 3.22596 -1.10201 0
M  V30 537 H 59.1239 1.89417 -2.3251 0
M  V30 538 H 56.6769 0.95783 -1.23512 0
M  V30 539 H 57.4119 3.24025 -0.133504 0
M  V30 540 H 57.1969 3.43122 -1.89762 0
M  V30 541 H 58.6869 4.02673 -1.10654 0
M  V30 542 N 59.124 1.23083 0.984299 0
M  V30 543 C 60.535 1.05609 1.5396 0
M  V30 544 C 60.886 -0.377793 1.92528 0
M  V30 545 O 60.011 -1.26398 1.75649 0
M  V30 546 C 60.606 1.91087 2.7977 0
M  V30 547 C 59.165 1.77885 3.31713 0
M  V30 548 C 58.312 1.87028 2.04733 0
M  V30 549 H 61.263 1.36802 0.804419 0
M  V30 550 H 61.284 1.43336 3.5247 0
M  V30 551 H 60.796 2.9544 2.51668 0
M  V30 552 H 58.897 0.762995 3.64704 0
M  V30 553 H 59.01 2.61047 4.01735 0
M  V30 554 H 57.374 1.30565 2.18689 0
M  V30 555 H 58.157 2.92929 1.79017 0
M  V30 556 N 60.6021 -1.18246 1.0419 0
M  V30 557 C 61.5651 -2.20128 0.638452 0
M  V30 558 C 62.5651 -1.57885 -0.304805 0
M  V30 559 O 63.7551 -1.73967 -0.0900369 0
M  V30 560 C 60.8871 -3.4084 -0.0637751 0
M  V30 561 H 62.0801 -2.57336 1.54007 0
M  V30 562 H 59.6331 -1.32152 0.834598 0
M  V30 563 H 60.3681 -3.09166 -0.979136 0
M  V30 564 H 60.1531 -3.8726 0.614198 0
M  V30 565 H 61.6431 -4.16274 -0.332512 0
M  V30 566 N 62.0802 -0.821533 -1.34494 0
M  V30 567 C 63.3572 -0.33159 -1.92769 0
M  V30 568 C 63.7372 1.18088 -1.74981 0
M  V30 569 O 63.0852 1.98733 -1.12772 0
M  V30 570 C 63.2952 -0.759398 -3.40638 0
M  V30 571 C 64.6432 -0.757433 -4.1779 0
M  V30 572 O 65.6672 -0.70189 -3.49216 0
M  V30 573 O 64.5262 -0.829361 -5.4017 0
M  V30 574 H 61.6202 -0.0902502 -0.822061 0
M  V30 575 H 64.1662 -0.906231 -1.43477 0
M  V30 576 H 62.9382 -1.8012 -3.47379 0
M  V30 577 H 62.5612 -0.160378 -3.97276 0
M  V30 578 N 63.5583 1.46682 -0.576371 0
M  V30 579 C 64.9693 1.86112 -0.148091 0
M  V30 580 C 65.3203 1.48073 1.2872 0
M  V30 581 O 64.4453 0.892656 1.97131 0
M  V30 582 C 65.0403 3.37786 -0.261982 0
M  V30 583 C 63.5993 3.76235 0.111384 0
M  V30 584 C 62.7463 2.70713 -0.60083 0
M  V30 585 H 65.6973 1.37927 -0.78497 0
M  V30 586 H 65.7183 3.77007 0.514364 0
M  V30 587 H 65.2303 3.6544 -1.30671 0
M  V30 588 H 63.3313 3.54198 1.15649 0
M  V30 589 H 63.4443 4.78391 -0.26052 0
M  V30 590 H 61.8083 2.54666 -0.0417783 0
M  V30 591 H 62.5913 3.01208 -1.64708 0
M  V30 592 N 65.0364 0.313813 1.54444 0
M  V30 593 C 66.2824 -0.292108 2.00685 0
M  V30 594 C 66.6154 -1.52548 1.20177 0
M  V30 595 O 65.8904 -1.92452 0.281531 0
M  V30 596 C 66.1734 -0.635968 3.5444 0
M  V30 597 C 66.0264 0.607437 4.4568 0
M  V30 598 C 67.3454 -1.45747 4.15266 0
M  V30 599 H 64.4644 -0.104697 0.729526 0
M  V30 600 H 67.1064 0.428457 1.85106 0
M  V30 601 H 65.2564 -1.24986 3.67846 0
M  V30 602 H 66.9284 1.24581 4.44159 0
M  V30 603 H 65.1714 1.23822 4.15753 0
M  V30 604 H 65.8424 0.322515 5.51057 0
M  V30 605 H 68.3184 -0.938645 4.05375 0
M  V30 606 H 67.1944 -1.66683 5.2298 0
M  V30 607 H 67.4554 -2.45063 3.67963 0
M  V30 608 N 66.5145 -1.57545 0.0417849 0
M  V30 609 C 67.9255 -1.80011 -0.495259 0
M  V30 610 C 68.2765 -0.953199 -1.71489 0
M  V30 611 O 67.4015 -0.167138 -2.15754 0
M  V30 612 C 67.9965 -3.26482 -0.905265 0
M  V30 613 C 66.5555 -3.499 -1.38734 0
M  V30 614 C 65.7025 -2.74979 -0.358056 0
M  V30 615 H 68.6535 -1.56425 0.267736 0
M  V30 616 H 68.6745 -3.36887 -1.76882 0
M  V30 617 H 68.1865 -3.88096 -0.017401 0
M  V30 618 H 66.2875 -2.93553 -2.29471 0
M  V30 619 H 66.4005 -4.58615 -1.38598 0
M  V30 620 H 64.7645 -2.40834 -0.828912 0
M  V30 621 H 65.5475 -3.39315 0.521561 0
M  V30 622 N 67.9926 0.231505 -1.5589 0
M  V30 623 C 69.2206 0.974505 -1.82513 0
M  V30 624 C 69.6356 1.78344 -0.619591 0
M  V30 625 O 68.9926 1.77792 0.411848 0
M  V30 626 C 69.0436 1.90007 -3.07538 0
M  V30 627 O 68.7646 1.12385 -4.2344 0
M  V30 628 C 70.2656 2.75779 -3.47075 0
M  V30 629 H 67.4856 0.286065 -0.606966 0
M  V30 630 H 70.0296 0.249739 -2.02969 0
M  V30 631 H 68.1846 2.57891 -2.89086 0
M  V30 632 H 68.5986 1.75125 -4.944 0
M  V30 633 H 70.0726 3.36443 -4.37619 0
M  V30 634 H 70.5496 3.47672 -2.68367 0
M  V30 635 H 71.1556 2.13323 -3.67931 0
M  V30 636 N 69.4707 1.49531 0.497807 0
M  V30 637 C 70.7167 1.59415 1.25358 0
M  V30 638 C 71.0497 0.281422 1.9215 0
M  V30 639 O 70.3247 -0.715249 1.80871 0
M  V30 640 C 70.6077 2.75566 2.3181 0
M  V30 641 C 70.4607 4.16642 1.69498 0
M  V30 642 C 71.7797 2.87347 3.33346 0
M  V30 643 H 68.8987 0.580244 0.454408 0
M  V30 644 H 71.5407 1.81827 0.551262 0
M  V30 645 H 69.6907 2.56587 2.91711 0
M  V30 646 H 71.3627 4.47145 1.13399 0
M  V30 647 H 69.6057 4.22141 0.998978 0
M  V30 648 H 70.2767 4.93792 2.46725 0
M  V30 649 H 72.7527 3.04634 2.83438 0
M  V30 650 H 71.6287 3.70289 4.05188 0
M  V30 651 H 71.8897 1.96834 3.95865 0
M  V30 652 N 70.9488 -0.749086 1.3866 0
M  V30 653 C 72.1958 -1.50833 1.35114 0
M  V30 654 C 72.5238 -1.94415 -0.0574049 0
M  V30 655 O 71.7788 -1.66065 -1.03541 0
M  V30 656 C 72.0778 -2.7712 2.25697 0
M  V30 657 C 71.7438 -2.52477 3.73585 0
M  V30 658 C 70.4058 -2.45466 4.13884 0
M  V30 659 C 72.7578 -2.31066 4.67181 0
M  V30 660 C 70.0858 -2.15064 5.45861 0
M  V30 661 C 72.4378 -2.02183 5.9942 0
M  V30 662 C 71.1018 -1.93631 6.38798 0
M  V30 663 H 70.3718 -0.551936 0.494416 0
M  V30 664 H 73.0188 -0.860979 1.71054 0
M  V30 665 H 71.3238 -3.46528 1.82827 0
M  V30 666 H 73.0208 -3.35096 2.20254 0
M  V30 667 H 69.6108 -2.58807 3.41638 0
M  V30 668 H 73.7948 -2.35459 4.3689 0
M  V30 669 H 69.0508 -2.06954 5.75308 0
M  V30 670 H 73.2248 -1.8462 6.71482 0
M  V30 671 H 70.8518 -1.69839 7.40985 0
M  V30 672 N 72.4269 -1.23603 -0.977757 0
M  V30 673 C 73.6739 -1.06971 -1.71941 0
M  V30 674 C 74.0019 0.393009 -1.90488 0
M  V30 675 O 73.2569 1.30719 -1.4564 0
M  V30 676 C 73.5559 -1.7433 -3.11999 0
M  V30 677 C 73.2219 -3.24252 -3.13323 0
M  V30 678 C 71.8839 -3.65156 -3.13392 0
M  V30 679 C 74.2359 -4.20141 -3.08433 0
M  V30 680 C 71.5639 -5.00403 -3.0629 0
M  V30 681 C 73.9159 -5.55384 -3.02873 0
M  V30 682 C 72.5799 -5.95647 -3.01265 0
M  V30 683 H 71.8499 -0.391433 -0.629175 0
M  V30 684 H 74.4969 -1.53572 -1.14403 0
M  V30 685 H 72.8019 -1.20096 -3.7294 0
M  V30 686 H 74.4989 -1.58936 -3.68158 0
M  V30 687 H 71.0889 -2.91692 -3.14029 0
M  V30 688 H 75.2729 -3.89547 -3.07517 0
M  V30 689 H 70.5289 -5.3081 -3.03399 0
M  V30 690 H 74.7029 -6.29398 -2.98046 0
M  V30 691 H 72.3299 -7.0041 -2.95516 0
M  V30 692 N 73.905 1.17692 -1.04816 0
M  V30 693 C 75.153 1.87488 -0.754497 0
M  V30 694 C 75.474 1.81205 0.720407 0
M  V30 695 O 74.744 1.23544 1.52032 0
M  V30 696 H 73.324 0.694101 -0.276102 0
M  V30 697 H 75.986 1.42793 -1.32651 0
M  V30 698 H 75.082 2.93328 -1.06606 0
M  V30 699 N 75.3831 0.828654 1.34056 0
M  V30 700 C 76.6601 0.341809 1.9259 0
M  V30 701 C 77.0401 -1.17158 1.75605 0
M  V30 702 O 76.3881 -1.98132 1.13824 0
M  V30 703 C 76.5981 0.777453 3.4023 0
M  V30 704 C 77.9461 0.779579 4.17382 0
M  V30 705 O 78.9701 0.7204 3.48839 0
M  V30 706 O 77.8291 0.857996 5.39723 0
M  V30 707 H 74.9231 0.0946085 0.821571 0
M  V30 708 H 77.4691 0.913827 1.42994 0
M  V30 709 H 76.2411 1.8196 3.46419 0
M  V30 710 H 75.8641 0.181444 3.97186 0
M  V30 711 N 76.8612 -1.46375 0.584142 0
M  V30 712 C 78.0862 -2.07268 0.0740405 0
M  V30 713 C 78.5112 -1.42979 -1.22223 0
M  V30 714 O 77.8692 -0.514092 -1.73859 0
M  V30 715 C 77.9172 -3.60518 -0.0767769 0
M  V30 716 O 77.0212 -3.96533 -1.13292 0
M  V30 717 H 76.3622 -0.660961 0.0634524 0
M  V30 718 H 78.8922 -1.87991 0.807492 0
M  V30 719 H 78.9022 -4.07021 -0.282489 0
M  V30 720 H 77.5772 -4.06702 0.86986 0
M  V30 721 H 76.1542 -3.61738 -0.905553 0
M  V30 722 N 78.3393 -0.321999 -1.54275 0
M  V30 723 C 79.5693 0.282642 -2.04658 0
M  V30 724 C 79.9773 1.46453 -1.19784 0
M  V30 725 O 79.3203 1.82367 -0.220932 0
M  V30 726 C 79.3823 0.781857 -3.50895 0
M  V30 727 C 79.0463 -0.277517 -4.56157 0
M  V30 728 C 80.0433 -1.11307 -5.07845 0
M  V30 729 C 77.7283 -0.425256 -5.00497 0
M  V30 730 C 79.7223 -2.08211 -6.02434 0
M  V30 731 C 77.4093 -1.39771 -5.94901 0
M  V30 732 C 78.4073 -2.2246 -6.45756 0
M  V30 733 O 78.0953 -3.18054 -7.38307 0
M  V30 734 H 77.8273 0.0622636 -0.673126 0
M  V30 735 H 80.3813 -0.465792 -2.00049 0
M  V30 736 H 78.6113 1.58118 -3.52896 0
M  V30 737 H 80.3003 1.30467 -3.84361 0
M  V30 738 H 81.0663 -1.00991 -4.74369 0
M  V30 739 H 76.9453 0.20847 -4.60528 0
M  V30 740 H 80.4893 -2.72791 -6.42052 0
M  V30 741 H 76.3863 -1.50152 -6.27794 0
M  V30 742 H 77.1543 -3.13275 -7.56175 0
M  V30 743 N 79.8174 1.5752 -0.0501392 0
M  V30 744 C 81.0454 1.96963 0.633492 0
M  V30 745 C 81.4604 0.927631 1.6444 0
M  V30 746 O 80.8174 -0.0882665 1.82286 0
M  V30 747 C 80.8684 3.36487 1.32132 0
M  V30 748 O 80.5894 4.36693 0.350894 0
M  V30 749 C 82.0904 3.90682 2.09481 0
M  V30 750 H 79.3104 0.648244 0.173266 0
M  V30 751 H 81.8544 2.0417 -0.116134 0
M  V30 752 H 80.0094 3.30434 2.02218 0
M  V30 753 H 80.4234 5.17702 0.841735 0
M  V30 754 H 81.8974 4.90591 2.5303 0
M  V30 755 H 82.3744 3.26053 2.94255 0
M  V30 756 H 82.9804 4.00069 1.44307 0
M  V30 757 N 81.2955 -0.223234 1.56011 0
M  V30 758 C 82.2585 -1.26014 1.9145 0
M  V30 759 C 83.2585 -1.3989 0.792937 0
M  V30 760 O 84.4485 -1.38184 1.0607 0
M  V30 761 C 81.5805 -2.63422 2.16383 0
M  V30 762 H 82.7735 -0.95796 2.84189 0
M  V30 763 H 80.3265 -0.463576 1.49267 0
M  V30 764 H 81.0615 -2.98741 1.2619 0
M  V30 765 H 80.8465 -2.54728 2.98088 0
M  V30 766 H 82.3365 -3.38249 2.44903 0
M  V30 767 N 82.7736 -1.49793 -0.48987 0
M  V30 768 C 83.7216 -1.67783 -1.61095 0
M  V30 769 C 84.7156 -0.543683 -1.60438 0
M  V30 770 O 85.9216 -0.723647 -1.64813 0
M  V30 771 H 82.2966 -0.529255 -0.534222 0
M  V30 772 H 84.2676 -2.61861 -1.43078 0
M  V30 773 C 83.0166 -1.77191 -2.99164 0
M  V30 774 H 82.3396 -2.63841 -3.0038 0
M  V30 775 H 83.7796 -1.93809 -3.77113 0
M  V30 776 C 82.2386 -0.519203 -3.32875 0
M  V30 777 O 82.7686 0.350124 -4.00171 0
M  V30 778 N 80.9746 -0.378816 -2.8812 0
M  V30 779 H 80.5216 -1.08725 -2.33531 0
M  V30 780 H 80.4796 0.458239 -3.11043 0
M  V30 781 N 84.2517 0.741722 -1.39055 0
M  V30 782 C 85.4987 1.50114 -1.35912 0
M  V30 783 C 85.8267 1.94443 0.0470937 0
M  V30 784 O 85.0817 1.66612 1.02659 0
M  V30 785 C 85.3807 2.7592 -2.27163 0
M  V30 786 C 85.0467 2.50493 -3.74919 0
M  V30 787 C 83.7087 2.43267 -4.1518 0
M  V30 788 C 86.0607 2.28585 -4.684 0
M  V30 789 C 83.3887 2.12166 -5.46994 0
M  V30 790 C 85.7407 1.99002 -6.00484 0
M  V30 791 C 84.4047 1.90241 -6.39816 0
M  V30 792 H 83.6747 0.549306 -0.497336 0
M  V30 793 H 86.3217 0.851896 -1.71508 0
M  V30 794 H 84.6267 3.45553 -1.84663 0
M  V30 795 H 86.3237 3.33923 -2.22028 0
M  V30 796 H 82.9137 2.56992 -3.43006 0
M  V30 797 H 87.0977 2.33139 -4.38132 0
M  V30 798 H 82.3537 2.03901 -5.76398 0
M  V30 799 H 86.5277 1.81057 -6.72452 0
M  V30 800 H 84.1547 1.65907 -7.41875 0
M  V30 801 N 85.7298 1.2412 0.971189 0
M  V30 802 C 86.9778 1.07668 1.71032 0
M  V30 803 C 87.2988 -0.385797 1.91146 0
M  V30 804 O 86.5688 -1.27569 1.4867 0
M  V30 805 H 85.1488 0.395429 0.633755 0
M  V30 806 H 87.8108 1.55984 1.16855 0
M  V30 807 H 86.9068 1.57195 2.69622 0
M  V30 808 N 87.2079 -1.17134 1.05439 0
M  V30 809 C 88.4569 -1.86791 0.761049 0
M  V30 810 C 88.7699 -1.82072 -0.714795 0
M  V30 811 O 89.9759 -2.47223 -1.12218 0
M  V30 812 C 88.4319 -3.35166 1.31117 0
M  V30 813 C 88.0399 -3.48381 2.81664 0
M  V30 814 C 89.7839 -4.10134 1.09499 0
M  V30 815 C 87.6909 -4.90793 3.29964 0
M  V30 816 H 86.6209 -0.699681 0.281002 0
M  V30 817 H 89.2719 -1.3226 1.27199 0
M  V30 818 H 87.6539 -3.8925 0.72803 0
M  V30 819 H 88.8279 -3.04502 3.45855 0
M  V30 820 H 87.1429 -2.86836 3.01851 0
M  V30 821 H 89.7399 -5.152 1.43084 0
M  V30 822 H 90.0829 -4.16287 0.0328772 0
M  V30 823 H 90.6159 -3.62264 1.64346 0
M  V30 824 H 87.3549 -4.89816 4.35616 0
M  V30 825 H 86.8749 -5.35333 2.70516 0
M  V30 826 H 88.5539 -5.59573 3.24787 0
M  V30 827 N 88.686 -0.835752 -1.33615 0
M  V30 828 C 89.649 -0.272 -2.2758 0
M  V30 829 C 90.649 0.557487 -1.50827 0
M  V30 830 O 91.839 0.37173 -1.70188 0
M  V30 831 C 88.971 0.617173 -3.35267 0
M  V30 832 H 90.164 -1.10111 -2.78954 0
M  V30 833 H 87.717 -0.608594 -1.43965 0
M  V30 834 H 88.452 1.46884 -2.89129 0
M  V30 835 H 88.237 0.0237066 -3.92093 0
M  V30 836 H 89.727 1.005 -4.05326 0
M  V30 837 N 90.1641 1.46063 -0.591896 0
M  V30 838 C 91.5751 1.85944 -0.167822 0
M  V30 839 C 91.9261 1.49429 1.27143 0
M  V30 840 O 91.0511 0.913515 1.96173 0
M  V30 841 C 91.6461 3.37489 -0.297794 0
M  V30 842 C 90.2051 3.76332 0.0714732 0
M  V30 843 C 89.3521 2.7006 -0.629509 0
M  V30 844 H 92.3031 1.37087 -0.799555 0
M  V30 845 H 92.3241 3.77532 0.474349 0
M  V30 846 H 91.8361 3.64034 -1.3454 0
M  V30 847 H 89.9371 3.55405 1.11886 0
M  V30 848 H 90.0501 4.78088 -0.311245 0
M  V30 849 H 88.4141 2.54607 -0.0687867 0
M  V30 850 H 89.1971 2.99444 -1.67894 0
M  V30 851 N 91.6422 0.330177 1.54103 0
M  V30 852 C 92.8882 -0.270806 2.00984 0
M  V30 853 C 93.2212 -1.51265 1.21789 0
M  V30 854 O 92.4962 -1.92142 0.301927 0
M  V30 855 C 92.7792 -0.598339 3.55094 0
M  V30 856 C 92.6322 0.654674 4.4501 0
M  V30 857 C 93.9512 -1.41334 4.16789 0
M  V30 858 H 91.0702 -0.0969531 0.730595 0
M  V30 859 H 93.7122 0.448066 1.84641 0
M  V30 860 H 91.8622 -1.21078 3.69151 0
M  V30 861 H 93.5342 1.29285 4.42813 0
M  V30 862 H 91.7772 1.28224 4.14416 0
M  V30 863 H 92.4482 0.380944 5.50684 0
M  V30 864 H 94.9242 -0.895597 4.06347 0
M  V30 865 H 93.8002 -1.61127 5.24718 0
M  V30 866 H 94.0612 -2.41146 3.70541 0
M  V30 867 N 93.1203 -1.57491 0.0584922 0
M  V30 868 C 94.3483 -1.97296 -0.623037 0
M  V30 869 C 94.7633 -0.936338 -1.63946 0
M  V30 870 O 94.1203 0.0785981 -1.82331 0
M  V30 871 C 94.1713 -3.37183 -1.30345 0
M  V30 872 O 93.8923 -4.36872 -0.32773 0
M  V30 873 C 95.3933 -3.91788 -2.07406 0
M  V30 874 H 92.6133 -0.649153 -0.169826 0
M  V30 875 H 95.1573 -2.04106 0.12696 0
M  V30 876 H 93.3123 -3.31502 -2.00463 0
M  V30 877 H 93.7263 -5.18141 -0.814269 0
M  V30 878 H 95.2003 -4.91926 -2.50425 0
M  V30 879 H 95.6773 -3.27609 -2.92521 0
M  V30 880 H 96.2833 -4.00829 -1.42184 0
M  V30 881 N 94.5984 0.214957 -1.56127 0
M  V30 882 C 95.5464 1.28601 -1.93816 0
M  V30 883 C 96.5404 1.48175 -0.821016 0
M  V30 884 O 97.7464 1.49271 -1.0059 0
M  V30 885 H 94.1214 0.431302 -0.616022 0
M  V30 886 H 96.0924 0.940991 -2.83175 0
M  V30 887 C 94.8414 2.62779 -2.27689 0
M  V30 888 H 94.1644 2.48527 -3.13168 0
M  V30 889 H 95.6044 3.36517 -2.57939 0
M  V30 890 C 94.0634 3.18285 -1.10436 0
M  V30 891 O 94.5934 4.00002 -0.368945 0
M  V30 892 N 92.7994 2.7675 -0.886433 0
M  V30 893 H 92.3464 2.10404 -1.48619 0
M  V30 894 H 92.3044 3.14229 -0.103656 0
M  V30 895 N 96.0765 1.50051 0.48192 0
M  V30 896 C 97.0085 1.64263 1.59844 0
M  V30 897 C 98.0215 0.52451 1.54119 0
M  V30 898 O 99.2105 0.797293 1.59704 0
M  V30 899 C 96.3105 1.60102 2.98698 0
M  V30 900 C 95.4835 2.87767 3.29407 0
M  V30 901 C 94.5425 2.76397 4.47762 0
M  V30 902 O 93.5685 3.50348 4.48603 0
M  V30 903 N 94.7705 1.89222 5.48794 0
M  V30 904 H 97.5355 2.60566 1.48073 0
M  V30 905 H 95.0965 1.47379 0.670149 0
M  V30 906 H 97.0885 1.50123 3.75826 0
M  V30 907 H 95.6585 0.715798 3.04294 0
M  V30 908 H 94.8785 3.11954 2.40994 0
M  V30 909 H 96.1665 3.72365 3.4673 0
M  V30 910 H 95.5645 1.28434 5.50928 0
M  V30 911 H 94.1215 1.85154 6.24949 0
M  V30 912 N 97.5546 -0.734337 1.39446 0
M  V30 913 C 98.8316 -1.48579 1.27215 0
M  V30 914 C 99.2116 -2.1077 -0.117968 0
M  V30 915 O 98.5596 -1.98646 -1.12924 0
M  V30 916 C 98.7696 -2.53667 2.39696 0
M  V30 917 C 100.118 -3.20031 2.79044 0
M  V30 918 O 101.142 -2.6398 2.39151 0
M  V30 919 O 100.001 -4.21455 3.47905 0
M  V30 920 H 97.0946 -0.659816 0.49857 0
M  V30 921 H 99.6406 -0.768106 1.51322 0
M  V30 922 H 98.4126 -2.06096 3.32626 0
M  V30 923 H 98.0356 -3.32994 2.17258 0
M  V30 924 N 99.0327 -1.24633 -0.964593 0
M  V30 925 C 100.258 -1.11596 -1.74818 0
M  V30 926 C 100.683 0.32723 -1.85232 0
M  V30 927 O 100.041 1.23695 -1.32549 0
M  V30 928 C 100.089 -1.76397 -3.1451 0
M  V30 929 O 99.1927 -1.03685 -3.99153 0
M  V30 930 H 98.5337 -0.390196 -0.537255 0
M  V30 931 H 101.064 -1.65002 -1.20977 0
M  V30 932 H 101.074 -1.8228 -3.65018 0
M  V30 933 H 99.7487 -2.81401 -3.06246 0
M  V30 934 H 98.3257 -1.05611 -3.57632 0
M  V30 935 N 100.511 1.16574 -1.06058 0
M  V30 936 C 101.421 2.2452 -0.680282 0
M  V30 937 C 102.437 1.71348 0.302604 0
M  V30 938 O 103.613 2.00822 0.152513 0
M  V30 939 C 100.678 3.46629 -0.0700315 0
M  V30 940 C 99.7388 4.14849 -1.10448 0
M  V30 941 C 98.9718 5.31129 -0.523256 0
M  V30 942 O 99.1948 5.66514 0.664709 0
M  V30 943 O 98.1288 5.88526 -1.26179 0
M  V30 944 H 101.955 2.59355 -1.58015 0
M  V30 945 H 99.5398 1.24043 -0.832694 0
M  V30 946 H 101.422 4.20543 0.268667 0
M  V30 947 H 100.097 3.13573 0.803353 0
M  V30 948 H 99.0038 3.42916 -1.49532 0
M  V30 949 H 100.337 4.51954 -1.94931 0
M  V30 950 N 101.989 0.842826 1.3317 0
M  V30 951 C 103.405 0.531128 1.50503 0
M  V30 952 C 103.605 -0.940734 1.78192 0
M  V30 953 O 102.661 -1.72436 1.84451 0
M  V30 954 C 103.974 1.40789 2.65705 0
M  V30 955 C 105.522 1.40708 2.79589 0
M  V30 956 C 105.997 2.26878 3.97857 0
M  V30 957 N 107.488 2.24609 4.05099 0
M  V30 958 C 108.223 2.88019 4.95815 0
M  V30 959 N 107.719 3.60496 5.9162 0
M  V30 960 N 109.512 2.77469 4.88843 0
M  V30 961 H 101.663 1.79557 1.1346 0
M  V30 962 H 103.926 0.766267 0.558156 0
M  V30 963 H 103.632 2.454 2.51936 0
M  V30 964 H 103.506 1.08677 3.61205 0
M  V30 965 H 105.893 0.368668 2.92788 0
M  V30 966 H 105.974 1.76829 1.84838 0
M  V30 967 H 105.618 3.3078 3.85418 0
M  V30 968 H 105.548 1.88096 4.91861 0
M  V30 969 H 108.039 1.71906 3.36536 0
M  V30 970 H 108.352 4.06076 6.57512 0
M  V30 971 H 106.697 3.64604 5.91683 0
M  V30 972 H 109.888 2.20406 4.12963 0
M  V30 973 H 110.061 3.2717 5.59342 0
M  V30 974 N 103.467 -1.45747 0.599634 0
M  V30 975 C 104.715 -2.01893 0.0915472 0
M  V30 976 C 105.036 -1.47155 -1.27946 0
M  V30 977 O 104.306 -0.66273 -1.84349 0
M  V30 978 H 102.886 -0.746363 0.0308524 0
M  V30 979 H 105.548 -1.78645 0.779237 0
M  V30 980 H 104.644 -3.1208 0.0353086 0
M  V30 981 N 104.945 -0.338344 -1.53925 0
M  V30 982 C 106.191 0.252842 -2.01822 0
M  V30 983 C 106.546 1.48612 -1.22197 0
M  V30 984 O 105.839 1.89238 -0.299892 0
M  V30 985 C 106.033 0.62448 -3.51902 0
M  V30 986 C 105.862 -0.571235 -4.46057 0
M  V30 987 C 104.632 -1.07493 -4.93734 0
M  V30 988 C 106.83 -1.42807 -4.94076 0
M  V30 989 N 104.812 -2.23351 -5.71828 0
M  V30 990 C 106.183 -2.43362 -5.70241 0
M  V30 991 C 108.238 -1.45412 -4.76193 0
M  V30 992 C 106.941 -3.46346 -6.30426 0
M  V30 993 C 108.967 -2.47274 -5.37224 0
M  V30 994 C 108.329 -3.46555 -6.13253 0
M  V30 995 H 104.428 0.0559669 -0.779995 0
M  V30 996 H 107.012 -0.476732 -1.88773 0
M  V30 997 H 105.183 1.32317 -3.65167 0
M  V30 998 H 106.915 1.19841 -3.86549 0
M  V30 999 H 103.67 -0.643848 -4.69203 0
M  V30 1000 H 104.094 -2.81834 -6.15548 0
M  V30 1001 H 108.736 -0.700171 -4.16962 0
M  V30 1002 H 106.454 -4.22638 -6.88769 0
M  V30 1003 H 110.04 -2.50109 -5.25297 0
M  V30 1004 H 108.92 -4.24083 -6.59638 0
M  V30 1005 N 106.423 1.57458 -0.0668435 0
M  V30 1006 C 107.663 1.95175 0.607116 0
M  V30 1007 C 108.027 0.946039 1.67075 0
M  V30 1008 O 109.228 1.2107 2.39991 0
M  V30 1009 C 107.499 3.37582 1.17358 0
M  V30 1010 S 109.058 3.97271 1.86336 0
M  V30 1011 H 105.876 0.682604 0.19893 0
M  V30 1012 H 108.478 1.95002 -0.139519 0
M  V30 1013 H 107.182 4.08566 0.387553 0
M  V30 1014 H 106.713 3.41288 1.95669 0
M  V30 1015 H 108.728 3.83772 3.14537 0
M  V30 1016 N 107.901 -0.206675 1.56239 0
M  V30 1017 C 109.148 -0.928842 1.79941 0
M  V30 1018 C 109.476 -1.83734 0.638131 0
M  V30 1019 O 108.731 -1.92039 -0.376746 0
M  V30 1020 C 109.03 -1.78675 3.09532 0
M  V30 1021 C 108.696 -1.03022 4.38973 0
M  V30 1022 C 107.358 -0.821302 4.74139 0
M  V30 1023 C 109.71 -0.497081 5.18824 0
M  V30 1024 C 107.038 -0.0675719 5.86661 0
M  V30 1025 C 109.39 0.24338 6.32132 0
M  V30 1026 C 108.054 0.463422 6.65889 0
M  V30 1027 H 107.324 -0.339887 0.658451 0
M  V30 1028 H 109.971 -0.195977 1.90495 0
M  V30 1029 H 108.276 -2.58794 2.94165 0
M  V30 1030 H 109.973 -2.34792 3.25075 0
M  V30 1031 H 106.563 -1.20306 4.11369 0
M  V30 1032 H 110.747 -0.645921 4.92079 0
M  V30 1033 H 106.003 0.112995 6.11296 0
M  V30 1034 H 110.177 0.66393 6.93228 0
M  V30 1035 H 107.804 1.04938 7.52922 0
M  V30 1036 N 109.379 -1.50304 -0.473955 0
M  V30 1037 C 110.311 -1.65109 -1.58971 0
M  V30 1038 C 111.324 -0.532676 -1.53839 0
M  V30 1039 O 112.513 -0.805751 -1.59279 0
M  V30 1040 C 109.613 -1.61684 -2.97845 0
M  V30 1041 C 108.786 -2.8951 -3.27876 0
M  V30 1042 C 107.845 -2.78768 -4.4629 0
M  V30 1043 O 106.871 -3.52722 -4.46739 0
M  V30 1044 N 108.073 -1.9213 -5.47783 0
M  V30 1045 H 110.838 -2.61347 -1.46689 0
M  V30 1046 H 108.399 -1.47732 -0.662324 0
M  V30 1047 H 110.391 -1.52114 -3.75024 0
M  V30 1048 H 108.961 -0.731925 -3.03911 0
M  V30 1049 H 108.181 -3.13228 -2.39336 0
M  V30 1050 H 109.469 -3.74199 -3.4475 0
M  V30 1051 H 108.867 -1.31353 -5.50239 0
M  V30 1052 H 107.424 -1.88466 -6.23958 0
M  V30 1053 N 110.857 0.726932 -1.39834 0
M  V30 1054 C 111.82 1.82269 -1.38962 0
M  V30 1055 C 112.82 1.58248 -0.285334 0
M  V30 1056 O 114.01 1.65499 -0.54366 0
M  V30 1057 C 111.142 3.20186 -1.17019 0
M  V30 1058 H 112.335 1.84443 -2.36476 0
M  V30 1059 H 109.888 0.931416 -1.25516 0
M  V30 1060 H 110.623 3.23669 -0.202204 0
M  V30 1061 H 110.408 3.3902 -1.96998 0
M  V30 1062 H 111.898 4.00235 -1.1917 0
M  V30 1063 N 112.336 1.25143 0.95797 0
M  V30 1064 C 113.283 1.05235 2.05412 0
M  V30 1065 C 114.253 -0.0374561 1.66058 0
M  V30 1066 O 115.438 0.119073 1.90428 0
M  V30 1067 C 112.578 0.673589 3.38462 0
M  V30 1068 C 111.691 1.8379 3.90954 0
M  V30 1069 C 110.826 1.40381 5.12315 0
M  V30 1070 C 109.865 2.53746 5.57027 0
M  V30 1071 N 109.002 2.11136 6.69601 0
M  V30 1072 H 113.842 1.99048 2.21774 0
M  V30 1073 H 111.379 0.991277 1.08683 0
M  V30 1074 H 113.337 0.434964 4.14926 0
M  V30 1075 H 111.967 -0.227554 3.21997 0
M  V30 1076 H 111.019 2.18992 3.11041 0
M  V30 1077 H 112.331 2.68937 4.20089 0
M  V30 1078 H 111.485 1.12464 5.96185 0
M  V30 1079 H 110.224 0.523015 4.84887 0
M  V30 1080 H 109.229 2.82412 4.71724 0
M  V30 1081 H 110.454 3.42398 5.86464 0
M  V30 1082 H 108.4 1.25468 6.4389 0
M  V30 1083 H 108.317 2.89832 6.98236 0
M  V30 1084 H 109.585 1.86385 7.56889 0
M  V30 1085 N 113.814 -1.1601 1.06675 0
M  V30 1086 C 114.724 -2.24156 0.692179 0
M  V30 1087 C 115.74 -1.71507 -0.293513 0
M  V30 1088 O 116.916 -2.009 -0.141861 0
M  V30 1089 C 113.981 -3.46587 0.0884131 0
M  V30 1090 C 113.042 -4.14257 1.12646 0
M  V30 1091 C 112.275 -5.30844 0.551416 0
M  V30 1092 O 112.498 -5.66858 -0.634656 0
M  V30 1093 O 111.432 -5.87848 1.29298 0
M  V30 1094 H 115.258 -2.58513 1.59388 0
M  V30 1095 H 112.843 -1.23599 0.83926 0
M  V30 1096 H 114.725 -4.20679 -0.246361 0
M  V30 1097 H 113.4 -3.13994 -0.786712 0
M  V30 1098 H 112.307 -3.42118 1.51348 0
M  V30 1099 H 113.64 -4.50914 1.97325 0
M  V30 1100 N 115.292 -0.849877 -1.32721 0
M  V30 1101 C 116.24 -0.279745 -2.30912 0
M  V30 1102 C 117.234 0.594278 -1.58634 0
M  V30 1103 O 118.44 0.482613 -1.73409 0
M  V30 1104 H 114.815 -0.0717521 -0.748569 0
M  V30 1105 H 116.786 -1.12222 -2.76494 0
M  V30 1106 C 115.535 0.521108 -3.43773 0
M  V30 1107 H 114.858 -0.142141 -3.99547 0
M  V30 1108 H 116.298 0.885693 -4.14646 0
M  V30 1109 C 114.757 1.70442 -2.90605 0
M  V30 1110 O 115.287 2.8034 -2.87702 0
M  V30 1111 N 113.493 1.52991 -2.47067 0
M  V30 1112 H 113.04 0.635914 -2.49628 0
M  V30 1113 H 112.998 2.32311 -2.11847 0
M  V30 1114 N 116.77 1.45427 -0.607355 0
M  V30 1115 C 118 2.06314 -0.108656 0
M  V30 1116 C 118.408 1.45269 1.21217 0
M  V30 1117 O 117.751 0.561115 1.74921 0
M  V30 1118 C 117.813 3.59345 0.105618 0
M  V30 1119 C 117.477 4.42723 -1.13337 0
M  V30 1120 C 118.474 4.77715 -2.05145 0
M  V30 1121 C 116.159 4.83478 -1.36213 0
M  V30 1122 C 118.153 5.52317 -3.18158 0
M  V30 1123 C 115.84 5.57835 -2.49527 0
M  V30 1124 C 116.838 5.92171 -3.40327 0
M  V30 1125 O 116.526 6.65019 -4.51669 0
M  V30 1126 H 116.258 0.672782 -0.0658842 0
M  V30 1127 H 118.812 1.87664 -0.834945 0
M  V30 1128 H 117.042 3.76394 0.886796 0
M  V30 1129 H 118.731 4.02076 0.555886 0
M  V30 1130 H 119.497 4.46787 -1.88697 0
M  V30 1131 H 115.376 4.56188 -0.664362 0
M  V30 1132 H 118.92 5.79036 -3.89054 0
M  V30 1133 H 114.817 5.88177 -2.65928 0
M  V30 1134 H 115.585 6.83469 -4.50348 0
M  V30 1135 N 118.248 0.346503 1.53744 0
M  V30 1136 C 119.659 -0.136779 1.86198 0
M  V30 1137 C 120.01 -1.49749 1.26766 0
M  V30 1138 O 119.135 -2.08417 0.582355 0
M  V30 1139 C 119.73 -0.254966 3.37839 0
M  V30 1140 C 118.289 -0.682482 3.70161 0
M  V30 1141 C 117.436 0.181981 2.76702 0
M  V30 1142 H 120.387 0.565994 1.48264 0
M  V30 1143 H 120.408 -1.08195 3.64793 0
M  V30 1144 H 119.92 0.735526 3.81066 0
M  V30 1145 H 118.021 -1.68189 3.3248 0
M  V30 1146 H 118.134 -0.470326 4.76786 0
M  V30 1147 H 116.498 -0.34615 2.52337 0
M  V30 1148 H 117.281 1.16966 3.2276 0
M  V30 1149 N 119.726 -1.57421 0.075193 0
M  V30 1150 C 120.689 -2.11791 -0.876203 0
M  V30 1151 C 121.689 -1.04268 -1.22412 0
M  V30 1152 O 122.879 -1.30242 -1.15684 0
M  V30 1153 C 120.011 -2.62207 -2.17854 0
M  V30 1154 H 121.204 -2.9716 -0.40444 0
M  V30 1155 H 118.757 -1.55333 -0.173557 0
M  V30 1156 H 119.492 -1.803 -2.6956 0
M  V30 1157 H 119.277 -3.40802 -1.93897 0
M  V30 1158 H 120.767 -3.04335 -2.85955 0
M  V30 1159 N 121.204 0.198386 -1.56346 0
M  V30 1160 C 122.45 0.920648 -1.80698 0
M  V30 1161 C 122.783 1.83045 -0.648697 0
M  V30 1162 O 122.058 1.91308 0.350925 0
M  V30 1163 C 122.341 1.73971 -3.15287 0
M  V30 1164 C 122.194 0.85485 -4.41602 0
M  V30 1165 C 123.513 2.71296 -3.46535 0
M  V30 1166 H 120.632 0.333261 -0.657348 0
M  V30 1167 H 123.274 0.188198 -1.89066 0
M  V30 1168 H 121.424 2.36416 -3.08285 0
M  V30 1169 H 123.096 0.245362 -4.60647 0
M  V30 1170 H 121.339 0.161398 -4.335 0
M  V30 1171 H 122.01 1.46286 -5.32264 0
M  V30 1172 H 124.486 2.18983 -3.53816 0
M  V30 1173 H 123.362 3.2569 -4.41834 0
M  V30 1174 H 123.623 3.5018 -2.69864 0
M  V30 1175 N 122.682 1.50554 0.465978 0
M  V30 1176 C 123.645 1.69233 1.54574 0
M  V30 1177 C 124.645 0.562901 1.50626 0
M  V30 1178 O 125.835 0.830016 1.53155 0
M  V30 1179 C 122.967 1.7223 2.94193 0
M  V30 1180 H 124.16 2.65571 1.39327 0
M  V30 1181 H 121.713 1.40111 0.692711 0
M  V30 1182 H 122.448 0.77603 3.14878 0
M  V30 1183 H 122.233 2.54285 2.98466 0
M  V30 1184 H 123.723 1.88618 3.72576 0
M  V30 1185 N 124.16 -0.719506 1.40217 0
M  V30 1186 C 125.388 -1.50864 1.41589 0
M  V30 1187 C 125.803 -1.88794 0.0145275 0
M  V30 1188 O 125.16 -1.55174 -0.960594 0
M  V30 1189 C 125.211 -2.78646 2.30302 0
M  V30 1190 O 124.932 -2.42321 3.64983 0
M  V30 1191 C 126.433 -3.72569 2.40224 0
M  V30 1192 H 123.653 -0.465709 0.48307 0
M  V30 1193 H 126.197 -0.88785 1.84221 0
M  V30 1194 H 124.352 -3.37019 1.91042 0
M  V30 1195 H 124.766 -3.24514 4.12057 0
M  V30 1196 H 126.24 -4.5908 3.06512 0
M  V30 1197 H 126.717 -4.15403 1.42608 0
M  V30 1198 H 127.323 -3.20109 2.80019 0
M  V30 1199 N 125.638 -1.25649 -0.95132 0
M  V30 1200 C 127.054 -1.02542 -1.223 0
M  V30 1201 C 127.254 0.255715 -1.99871 0
M  V30 1202 O 126.31 0.967558 -2.33226 0
M  V30 1203 C 127.623 -2.25065 -1.99415 0
M  V30 1204 C 129.171 -2.29861 -2.12446 0
M  V30 1205 C 129.646 -3.52048 -2.92961 0
M  V30 1206 N 131.137 -3.52465 -3.00538 0
M  V30 1207 C 131.872 -4.43672 -3.63239 0
M  V30 1208 N 131.368 -5.45157 -4.27523 0
M  V30 1209 N 133.161 -4.31346 -3.60412 0
M  V30 1210 H 125.312 -2.07951 -0.432471 0
M  V30 1211 H 127.575 -0.91339 -0.253816 0
M  V30 1212 H 127.281 -3.18194 -1.49817 0
M  V30 1213 H 127.155 -2.28502 -3.00111 0
M  V30 1214 H 129.542 -1.37252 -2.61239 0
M  V30 1215 H 129.623 -2.3044 -1.11044 0
M  V30 1216 H 129.267 -4.44981 -2.44856 0
M  V30 1217 H 129.197 -3.48715 -3.94596 0
M  V30 1218 H 131.688 -2.79056 -2.54826 0
M  V30 1219 H 132.001 -6.10958 -4.73234 0
M  V30 1220 H 130.346 -5.49025 -4.26141 0
M  V30 1221 H 133.537 -3.51288 -3.09377 0
M  V30 1222 H 133.71 -5.02624 -4.0899 0
M  V30 1223 N 127.117 1.15442 -1.07289 0
M  V30 1224 C 128.342 1.90638 -0.816828 0
M  V30 1225 C 128.767 1.77445 0.624083 0
M  V30 1226 O 128.125 1.10671 1.43602 0
M  V30 1227 C 128.173 3.39008 -1.22906 0
M  V30 1228 O 127.277 4.10701 -0.373975 0
M  V30 1229 H 126.618 0.593555 -0.297638 0
M  V30 1230 H 129.148 1.46198 -1.43134 0
M  V30 1231 H 129.158 3.89801 -1.20497 0
M  V30 1232 H 127.833 3.47929 -2.27856 0
M  V30 1233 H 126.41 3.70046 -0.460499 0
M  V30 1234 N 128.595 0.856903 1.32268 0
M  V30 1235 C 129.525 0.31858 2.31316 0
M  V30 1236 C 130.506 -0.583487 1.59779 0
M  V30 1237 O 131.691 -0.503259 1.87566 0
M  V30 1238 C 128.821 -0.491979 3.43798 0
M  V30 1239 C 127.775 0.315849 4.26833 0
M  V30 1240 C 127.101 -0.619586 5.31098 0
M  V30 1241 C 128.401 1.54282 4.98993 0
M  V30 1242 H 130.095 1.14621 2.76591 0
M  V30 1243 H 127.641 0.552613 1.32974 0
M  V30 1244 H 129.594 -0.879012 4.1213 0
M  V30 1245 H 128.318 -1.35299 2.97257 0
M  V30 1246 H 126.977 0.684664 3.6015 0
M  V30 1247 H 126.625 -1.47751 4.8081 0
M  V30 1248 H 126.325 -0.0830621 5.87541 0
M  V30 1249 H 127.849 -1.00375 6.02293 0
M  V30 1250 H 129.263 1.22796 5.59995 0
M  V30 1251 H 127.66 2.01745 5.65172 0
M  V30 1252 H 128.73 2.30285 4.26728 0
M  V30 1253 N 130.073 -1.45103 0.615059 0
M  V30 1254 C 131.036 -2.29025 -0.0895485 0
M  V30 1255 C 132.036 -1.40174 -0.787906 0
M  V30 1256 O 133.226 -1.62217 -0.634933 0
M  V30 1257 C 130.358 -3.21376 -1.13711 0
M  V30 1258 H 131.551 -2.92807 0.648382 0
M  V30 1259 H 129.104 -1.51749 0.374444 0
M  V30 1260 H 129.839 -2.6241 -1.90556 0
M  V30 1261 H 129.624 -3.86834 -0.640475 0
M  V30 1262 H 131.114 -3.84459 -1.63036 0
M  V30 1263 N 131.551 -0.354651 -1.53558 0
M  V30 1264 C 132.828 0.294281 -1.93374 0
M  V30 1265 C 133.208 1.67313 -1.28723 0
M  V30 1266 O 132.556 2.24179 -0.442247 0
M  V30 1267 C 132.766 0.355445 -3.47185 0
M  V30 1268 C 134.114 0.601007 -4.20325 0
M  V30 1269 O 135.138 0.437106 -3.53508 0
M  V30 1270 O 133.997 0.919322 -5.38712 0
M  V30 1271 H 131.091 0.174033 -0.808481 0
M  V30 1272 H 133.637 -0.406638 -1.64756 0
M  V30 1273 H 132.409 -0.611729 -3.86489 0
M  V30 1274 H 132.032 1.1027 -3.82003 0
M  V30 1275 N 133.029 1.57378 -0.0835403 0
M  V30 1276 C 133.976 2.13384 0.879539 0
M  V30 1277 C 134.946 1.04936 1.28754 0
M  V30 1278 O 136.131 1.32662 1.37133 0
M  V30 1279 C 133.271 2.70932 2.13752 0
M  V30 1280 C 132.384 3.93575 1.7811 0
M  V30 1281 C 131.519 4.39326 2.98607 0
M  V30 1282 C 130.558 5.54587 2.59037 0
M  V30 1283 N 129.695 5.95243 3.72331 0
M  V30 1284 H 134.535 2.9537 0.395076 0
M  V30 1285 H 132.072 1.45953 0.183349 0
M  V30 1286 H 134.03 3.02411 2.87408 0
M  V30 1287 H 132.66 1.91693 2.59718 0
M  V30 1288 H 131.712 3.68483 0.94469 0
M  V30 1289 H 133.024 4.77258 1.45005 0
M  V30 1290 H 132.178 4.72528 3.80529 0
M  V30 1291 H 130.917 3.5452 3.34913 0
M  V30 1292 H 129.922 5.21024 1.75539 0
M  V30 1293 H 131.147 6.41133 2.23887 0
M  V30 1294 H 129.093 5.13385 4.08378 0
M  V30 1295 H 129.01 6.73694 3.43034 0
M  V30 1296 H 130.278 6.33072 4.54797 0
M  V30 1297 N 134.507 -0.190092 1.56449 0
M  V30 1298 C 135.755 -0.907908 1.80559 0
M  V30 1299 C 136.076 -1.83583 0.657438 0
M  V30 1300 O 135.346 -1.93203 -0.323924 0
M  V30 1301 H 133.926 -0.338247 0.666032 0
M  V30 1302 H 136.588 -0.194403 1.93928 0
M  V30 1303 H 135.684 -1.49604 2.73907 0
M  V30 1304 N 135.985 -1.50799 -0.457987 0
M  V30 1305 C 137.234 -1.6168 -1.20593 0
M  V30 1306 C 137.547 -0.32888 -1.92815 0
M  V30 1307 O 138.753 -0.316773 -2.69646 0
M  V30 1308 C 137.209 -2.8545 -2.19195 0
M  V30 1309 C 136.817 -4.21168 -1.52715 0
M  V30 1310 C 138.561 -3.05681 -2.94549 0
M  V30 1311 C 136.468 -5.3611 -2.4968 0
M  V30 1312 H 135.398 -0.602134 -0.453818 0
M  V30 1313 H 138.049 -1.77245 -0.475031 0
M  V30 1314 H 136.431 -2.63472 -2.95632 0
M  V30 1315 H 137.605 -4.53449 -0.819775 0
M  V30 1316 H 135.92 -4.06648 -0.895922 0
M  V30 1317 H 138.517 -3.88727 -3.67145 0
M  V30 1318 H 138.86 -2.17929 -3.54701 0
M  V30 1319 H 139.393 -3.27901 -2.25223 0
M  V30 1320 H 136.132 -6.26057 -1.94249 0
M  V30 1321 H 135.652 -5.0823 -3.18532 0
M  V30 1322 H 137.331 -5.6722 -3.11241 0
M  V30 1323 N 137.463 0.71206 -1.40597 0
M  V30 1324 C 138.691 1.50111 -1.42388 0
M  V30 1325 C 139.106 1.88784 -0.0245395 0
M  V30 1326 O 138.463 1.55681 0.952351 0
M  V30 1327 C 138.514 2.7742 -2.31776 0
M  V30 1328 O 138.235 2.40382 -3.66262 0
M  V30 1329 C 139.736 3.7129 -2.42196 0
M  V30 1330 H 136.956 0.46314 -0.485533 0
M  V30 1331 H 139.5 0.878068 -1.8469 0
M  V30 1332 H 137.655 3.36001 -1.92827 0
M  V30 1333 H 138.069 3.22324 -4.13772 0
M  V30 1334 H 139.543 4.57448 -3.08943 0
M  V30 1335 H 140.02 4.14641 -1.44809 0
M  V30 1336 H 140.626 3.18619 -2.81712 0
M  V30 1337 N 138.941 1.26152 0.944643 0
M  V30 1338 C 139.871 1.09902 2.06019 0
M  V30 1339 C 140.852 0.00519538 1.70099 0
M  V30 1340 O 142.037 0.176583 1.93396 0
M  V30 1341 C 139.167 0.727562 3.39594 0
M  V30 1342 C 138.121 1.77274 3.89561 0
M  V30 1343 C 137.447 1.25569 5.19747 0
M  V30 1344 C 138.747 3.17357 4.14827 0
M  V30 1345 H 140.441 2.03217 2.19871 0
M  V30 1346 H 137.987 0.978452 1.05652 0
M  V30 1347 H 139.94 0.600777 4.17095 0
M  V30 1348 H 138.664 -0.241287 3.25707 0
M  V30 1349 H 137.323 1.88814 3.14237 0
M  V30 1350 H 136.971 0.276783 5.02238 0
M  V30 1351 H 136.671 1.95433 5.54148 0
M  V30 1352 H 138.195 1.1415 5.99835 0
M  V30 1353 H 139.609 3.08914 4.82954 0
M  V30 1354 H 138.006 3.84781 4.60504 0
M  V30 1355 H 139.076 3.63673 3.20734 0
M  V30 1356 N 140.419 -1.14872 1.07899 0
M  V30 1357 C 141.696 -1.81928 0.71845 0
M  V30 1358 C 142.076 -1.95417 -0.798455 0
M  V30 1359 O 141.424 -1.50997 -1.715 0
M  V30 1360 C 141.634 -3.17937 1.43935 0
M  V30 1361 C 142.982 -3.93501 1.59506 0
M  V30 1362 O 144.006 -3.27509 1.40058 0
M  V30 1363 O 142.865 -5.1183 1.91551 0
M  V30 1364 H 139.959 -0.78628 0.256305 0
M  V30 1365 H 142.505 -1.21934 1.18026 0
M  V30 1366 H 141.277 -3.0325 2.47295 0
M  V30 1367 H 140.9 -3.85619 0.968687 0
M  V30 1368 N 141.898 -0.863906 -1.31812 0
M  V30 1369 C 143.144 -0.472535 -1.97218 0
M  V30 1370 C 143.477 0.971394 -1.68159 0
M  V30 1371 O 142.752 1.68309 -0.974798 0
M  V30 1372 C 143.035 -0.723054 -3.52766 0
M  V30 1373 C 142.888 -2.21608 -3.91421 0
M  V30 1374 C 144.207 -0.185522 -4.39709 0
M  V30 1375 H 141.326 -0.173158 -0.71637 0
M  V30 1376 H 143.968 -1.08403 -1.56041 0
M  V30 1377 H 142.118 -0.202577 -3.87971 0
M  V30 1378 H 143.79 -2.80334 -3.66347 0
M  V30 1379 H 142.033 -2.691 -3.40246 0
M  V30 1380 H 142.704 -2.34203 -4.99853 0
M  V30 1381 H 145.18 -0.630726 -4.11292 0
M  V30 1382 H 144.056 -0.390306 -5.47511 0
M  V30 1383 H 144.317 0.912229 -4.32586 0
M  V30 1384 N 143.376 1.44774 -0.622745 0
M  V30 1385 C 144.308 2.28856 0.125485 0
M  V30 1386 C 145.321 1.40811 0.817069 0
M  V30 1387 O 146.51 1.65044 0.679918 0
M  V30 1388 C 143.61 3.16963 1.19949 0
M  V30 1389 C 142.783 4.33374 0.592064 0
M  V30 1390 C 141.842 5.02577 1.55893 0
M  V30 1391 O 140.868 5.58873 1.07933 0
M  V30 1392 N 142.07 5.03256 2.89334 0
M  V30 1393 H 144.835 2.93713 -0.596068 0
M  V30 1394 H 142.396 1.55129 -0.463303 0
M  V30 1395 H 144.388 3.60123 1.84644 0
M  V30 1396 H 142.958 2.53913 1.82337 0
M  V30 1397 H 142.178 3.93509 -0.233322 0
M  V30 1398 H 143.466 5.08527 0.166738 0
M  V30 1399 H 142.864 4.58836 3.30887 0
M  V30 1400 H 141.421 5.50232 3.49412 0
M  V30 1401 N 144.854 0.36279 1.53368 0
M  V30 1402 C 145.817 -0.472679 2.24273 0
M  V30 1403 C 146.817 -1.012 1.24961 0
M  V30 1404 O 148.007 -0.898194 1.49259 0
M  V30 1405 C 145.139 -1.66039 2.97731 0
M  V30 1406 H 146.332 0.14773 2.99536 0
M  V30 1407 H 143.885 0.114434 1.55881 0
M  V30 1408 H 144.62 -2.31896 2.26704 0
M  V30 1409 H 144.405 -1.28066 3.70596 0
M  V30 1410 H 145.895 -2.25252 3.51641 0
M  V30 1411 N 146.332 -1.57332 0.0918853 0
M  V30 1412 C 147.609 -1.85691 -0.614668 0
M  V30 1413 C 147.989 -0.988146 -1.86545 0
M  V30 1414 O 147.337 -0.0597055 -2.28422 0
M  V30 1415 C 147.547 -3.36294 -0.933126 0
M  V30 1416 C 148.895 -4.04275 -1.29796 0
M  V30 1417 O 149.919 -3.41157 -1.02424 0
M  V30 1418 O 148.778 -5.1564 -1.81047 0
M  V30 1419 H 145.872 -0.767802 -0.307261 0
M  V30 1420 H 148.418 -1.69244 0.12434 0
M  V30 1421 H 147.19 -3.91273 -0.0456404 0
M  V30 1422 H 146.813 -3.58076 -1.72822 0
M  V30 1423 N 147.81 0.181792 -1.56548 0
M  V30 1424 C 149.056 0.901431 -1.81665 0
M  V30 1425 C 149.389 1.82347 -0.668075 0
M  V30 1426 O 148.664 1.91669 0.330615 0
M  V30 1427 C 148.947 1.70618 -3.17115 0
M  V30 1428 C 148.8 0.807964 -4.42484 0
M  V30 1429 C 150.119 2.67605 -3.49393 0
M  V30 1430 H 147.238 0.32627 -0.660846 0
M  V30 1431 H 149.88 0.168134 -1.89255 0
M  V30 1432 H 148.03 2.33133 -3.10775 0
M  V30 1433 H 149.702 0.19649 -4.60881 0
M  V30 1434 H 147.945 0.115411 -4.33646 0
M  V30 1435 H 148.616 1.40632 -5.33785 0
M  V30 1436 H 151.092 2.15218 -3.56118 0
M  V30 1437 H 149.968 3.20985 -4.45264 0
M  V30 1438 H 150.229 3.47298 -2.73563 0
M  V30 1439 N 149.288 1.51039 0.449983 0
M  V30 1440 C 150.513 1.6715 1.22783 0
M  V30 1441 C 150.938 0.363081 1.84563 0
M  V30 1442 O 150.296 -0.675433 1.68249 0
M  V30 1443 C 150.344 2.77985 2.29689 0
M  V30 1444 O 149.448 2.40707 3.34864 0
M  V30 1445 H 148.789 0.557746 0.360299 0
M  V30 1446 H 151.319 1.97535 0.533005 0
M  V30 1447 H 151.329 3.01693 2.74673 0
M  V30 1448 H 150.004 3.72935 1.84098 0
M  V30 1449 H 148.581 2.27523 2.95445 0
M  V30 1450 N 150.766 -0.704594 1.40972 0
M  V30 1451 C 152.006 -1.47691 1.41304 0
M  V30 1452 C 152.37 -1.91992 0.0178582 0
M  V30 1453 O 153.571 -2.68599 -0.103996 0
M  V30 1454 C 151.842 -2.66254 2.38419 0
M  V30 1455 S 153.401 -3.55516 2.57204 0
M  V30 1456 H 150.219 -0.504808 0.500689 0
M  V30 1457 H 152.821 -0.822962 1.77335 0
M  V30 1458 H 151.525 -2.31897 3.38603 0
M  V30 1459 H 151.056 -3.3655 2.03711 0
M  V30 1460 H 153.071 -4.61115 1.83268 0
M  V30 1461 N 152.244 -1.26651 -0.937939 0
M  V30 1462 C 153.492 -1.12165 -1.68118 0
M  V30 1463 C 153.813 0.334983 -1.92101 0
M  V30 1464 O 153.083 1.23583 -1.52 0
M  V30 1465 H 151.663 -0.412093 -0.623048 0
M  V30 1466 H 154.325 -1.59027 -1.12678 0
M  V30 1467 H 153.421 -1.64289 -2.6536 0
M  V30 1468 N 153.722 1.14298 -1.08507 0
M  V30 1469 C 154.97 1.84993 -0.813763 0
M  V30 1470 C 155.291 1.83405 0.662393 0
M  V30 1471 O 154.561 1.28319 1.48024 0
M  V30 1472 H 153.141 0.684966 -0.298045 0
M  V30 1473 H 155.803 1.385 -1.37126 0
M  V30 1474 H 154.899 2.89788 -1.15884 0
M  V30 1475 N 155.201 0.870884 1.31352 0
M  V30 1476 C 156.164 0.332243 2.26779 0
M  V30 1477 C 157.164 -0.517302 1.52252 0
M  V30 1478 O 158.354 -0.326477 1.71113 0
M  V30 1479 C 155.486 -0.528066 3.36785 0
M  V30 1480 H 156.679 1.17469 2.75937 0
M  V30 1481 H 154.232 0.64655 1.423 0
M  V30 1482 H 154.967 -1.39167 2.92922 0
M  V30 1483 H 154.752 0.0802582 3.92018 0
M  V30 1484 H 156.242 -0.897179 4.07849 0
M  V30 1485 N 156.679 -1.44442 0.630414 0
M  V30 1486 C 157.609 -2.33418 -0.0618083 0
M  V30 1487 C 158.59 -1.48165 -0.835541 0
M  V30 1488 O 159.775 -1.76886 -0.801564 0
M  V30 1489 C 156.905 -3.31222 -1.04449 0
M  V30 1490 C 155.859 -4.26288 -0.382436 0
M  V30 1491 C 155.185 -5.13954 -1.47497 0
M  V30 1492 C 156.485 -5.1744 0.710865 0
M  V30 1493 H 158.179 -2.91548 0.681184 0
M  V30 1494 H 155.725 -1.40191 0.329026 0
M  V30 1495 H 157.678 -3.92351 -1.53748 0
M  V30 1496 H 156.402 -2.71299 -1.81836 0
M  V30 1497 H 155.061 -3.6649 0.0899054 0
M  V30 1498 H 154.709 -4.50385 -2.2397 0
M  V30 1499 H 154.409 -5.7837 -1.03737 0
M  V30 1500 H 155.933 -5.77955 -1.96979 0
M  V30 1501 H 157.347 -5.72509 0.300996 0
M  V30 1502 H 155.744 -5.90455 1.07156 0
M  V30 1503 H 156.814 -4.58496 1.57829 0
M  V30 1504 N 158.157 -0.370918 -1.53173 0
M  V30 1505 C 159.406 0.218249 -2.00516 0
M  V30 1506 C 159.719 1.49429 -1.26215 0
M  V30 1507 O 160.925 2.16239 -1.64174 0
M  V30 1508 C 159.381 0.43948 -3.57207 0
M  V30 1509 C 158.989 -0.822244 -4.4039 0
M  V30 1510 C 160.733 0.986012 -4.1289 0
M  V30 1511 C 158.64 -0.570304 -5.88644 0
M  V30 1512 H 157.57 0.0853333 -0.749156 0
M  V30 1513 H 160.221 -0.490483 -1.76823 0
M  V30 1514 H 158.603 1.20961 -3.77074 0
M  V30 1515 H 159.777 -1.59557 -4.32294 0
M  V30 1516 H 158.092 -1.29238 -3.95836 0
M  V30 1517 H 160.689 1.18991 -5.21292 0
M  V30 1518 H 161.032 1.94972 -3.6782 0
M  V30 1519 H 161.565 0.27592 -3.96842 0
M  V30 1520 H 158.304 -1.50449 -6.38001 0
M  V30 1521 H 157.824 0.164427 -5.99575 0
M  V30 1522 H 159.503 -0.19784 -6.46697 0
M  V30 1523 N 159.635 1.57281 -0.100228 0
M  V30 1524 C 160.585 2.10848 0.86759 0
M  V30 1525 C 161.569 1.02473 1.24049 0
M  V30 1526 O 162.761 1.28739 1.21471 0
M  V30 1527 C 159.89 2.69648 2.12474 0
M  V30 1528 C 158.976 3.85074 1.77704 0
M  V30 1529 N 159.367 4.92897 1.13518 0
M  V30 1530 C 157.665 3.94905 2.07282 0
M  V30 1531 C 158.366 5.73475 0.974735 0
M  V30 1532 N 157.342 5.22675 1.4937 0
M  V30 1533 H 161.144 2.91594 0.367471 0
M  V30 1534 H 158.658 1.62074 0.102829 0
M  V30 1535 H 160.655 3.06356 2.82757 0
M  V30 1536 H 159.315 1.90359 2.63047 0
M  V30 1537 H 160.326 5.11662 0.801381 0
M  V30 1538 H 157.003 3.26633 2.60033 0
M  V30 1539 H 158.393 6.70238 0.472364 0
M  V30 1540 N 161.113 -0.173488 1.56642 0
M  V30 1541 C 162.063 -1.21941 1.92651 0
M  V30 1542 C 163.047 -1.39912 0.794577 0
M  V30 1543 O 164.239 -1.41919 1.05773 0
M  V30 1544 C 161.368 -2.55935 2.28806 0
M  V30 1545 C 160.454 -2.41667 3.48508 0
M  V30 1546 N 160.845 -1.9711 4.65813 0
M  V30 1547 C 159.143 -2.72499 3.53072 0
M  V30 1548 C 159.844 -1.95253 5.47952 0
M  V30 1549 N 158.82 -2.37575 4.88937 0
M  V30 1550 H 162.622 -0.866581 2.80834 0
M  V30 1551 H 160.136 -0.381776 1.57849 0
M  V30 1552 H 162.133 -3.31511 2.52797 0
M  V30 1553 H 160.793 -2.92022 1.41961 0
M  V30 1554 H 161.804 -1.67481 4.90072 0
M  V30 1555 H 158.481 -3.12639 2.767 0
M  V30 1556 H 159.871 -1.6252 6.51948 0
M  V30 1557 N 162.591 -1.51276 -0.441967 0
M  V30 1558 C 163.838 -1.63715 -1.19179 0
M  V30 1559 C 164.166 -0.351175 -1.91303 0
M  V30 1560 O 163.421 0.664524 -1.84072 0
M  V30 1561 C 163.72 -2.78746 -2.23686 0
M  V30 1562 C 163.386 -4.18189 -1.68607 0
M  V30 1563 C 162.048 -4.56125 -1.53308 0
M  V30 1564 C 164.4 -5.05222 -1.28062 0
M  V30 1565 C 161.728 -5.78804 -0.959317 0
M  V30 1566 C 164.08 -6.28476 -0.721162 0
M  V30 1567 C 162.744 -6.65188 -0.55504 0
M  V30 1568 H 162.014 -0.599076 -0.436106 0
M  V30 1569 H 164.661 -1.85296 -0.48351 0
M  V30 1570 H 162.966 -2.51369 -3.00535 0
M  V30 1571 H 164.663 -2.8557 -2.81515 0
M  V30 1572 H 161.253 -3.88277 -1.8149 0
M  V30 1573 H 165.437 -4.76524 -1.38704 0
M  V30 1574 H 160.693 -6.05899 -0.81833 0
M  V30 1575 H 164.867 -6.95259 -0.398458 0
M  V30 1576 H 162.494 -7.60123 -0.108311 0
M  V30 1577 N 164.069 0.697108 -1.41344 0
M  V30 1578 C 165.315 1.45796 -1.41828 0
M  V30 1579 C 165.67 1.92382 -0.0261743 0
M  V30 1580 O 164.963 1.66522 0.947688 0
M  V30 1581 C 165.157 2.68553 -2.35826 0
M  V30 1582 C 164.986 2.33975 -3.84039 0
M  V30 1583 C 163.756 2.24414 -4.52732 0
M  V30 1584 C 165.954 1.97048 -4.75054 0
M  V30 1585 N 163.936 1.82705 -5.86082 0
M  V30 1586 C 165.307 1.66086 -5.9734 0
M  V30 1587 C 167.362 1.83845 -4.62715 0
M  V30 1588 C 166.065 1.23246 -7.08663 0
M  V30 1589 C 168.091 1.4241 -5.73998 0
M  V30 1590 C 167.453 1.12357 -6.95381 0
M  V30 1591 H 163.552 0.530859 -0.574206 0
M  V30 1592 H 166.136 0.806674 -1.77203 0
M  V30 1593 H 164.307 3.31404 -2.02549 0
M  V30 1594 H 166.039 3.35015 -2.2704 0
M  V30 1595 H 162.794 2.4276 -4.0665 0
M  V30 1596 H 163.218 1.64337 -6.56751 0
M  V30 1597 H 167.86 2.05734 -3.69369 0
M  V30 1598 H 165.578 1.00102 -8.01876 0
M  V30 1599 H 169.164 1.32746 -5.66454 0
M  V30 1600 H 168.044 0.807795 -7.80028 0
M  V30 1601 N 165.547 1.27147 0.931209 0
M  V30 1602 C 166.457 1.11372 2.06478 0
M  V30 1603 C 167.473 0.044645 1.73943 0
M  V30 1604 O 168.649 0.250417 1.99837 0
M  V30 1605 C 165.714 0.758838 3.38294 0
M  V30 1606 C 164.775 1.90841 3.84549 0
M  V30 1607 C 164.008 1.57036 5.10074 0
M  V30 1608 O 164.231 0.476645 5.68405 0
M  V30 1609 O 163.165 2.40839 5.51616 0
M  V30 1610 H 166.991 2.06493 2.22698 0
M  V30 1611 H 164.576 1.06301 1.04978 0
M  V30 1612 H 166.458 0.574098 4.17471 0
M  V30 1613 H 165.133 -0.162879 3.2329 0
M  V30 1614 H 164.04 2.14819 3.06274 0
M  V30 1615 H 165.373 2.81021 4.04089 0
M  V30 1616 N 167.025 -1.13721 1.09112 0
M  V30 1617 C 167.972 -2.19031 0.727591 0
M  V30 1618 C 168.942 -1.63555 -0.289656 0
M  V30 1619 O 170.127 -1.90023 -0.172026 0
M  V30 1620 C 167.267 -3.4477 0.15082 0
M  V30 1621 C 166.38 -4.14365 1.22172 0
M  V30 1622 C 165.515 -5.27709 0.608042 0
M  V30 1623 C 164.554 -5.89147 1.66047 0
M  V30 1624 N 163.691 -6.93929 1.06806 0
M  V30 1625 H 168.531 -2.49475 1.62991 0
M  V30 1626 H 166.068 -1.22499 0.81439 0
M  V30 1627 H 168.026 -4.16714 -0.201358 0
M  V30 1628 H 166.656 -3.14787 -0.714783 0
M  V30 1629 H 165.708 -3.40737 1.69122 0
M  V30 1630 H 167.02 -4.56114 2.01895 0
M  V30 1631 H 166.174 -6.06355 0.204523 0
M  V30 1632 H 164.913 -4.872 -0.220769 0
M  V30 1633 H 163.918 -5.09198 2.07357 0
M  V30 1634 H 165.143 -6.31729 2.49189 0
M  V30 1635 H 163.089 -6.55483 0.260476 0
M  V30 1636 H 163.006 -7.34202 1.8023 0
M  V30 1637 H 164.274 -7.76434 0.690644 0
M  V30 1638 N 168.503 -0.877838 -1.30888 0
M  V30 1639 C 169.435 -0.296607 -2.27273 0
M  V30 1640 C 170.448 0.544799 -1.53414 0
M  V30 1641 O 171.637 0.365511 -1.74718 0
M  V30 1642 C 168.737 0.597481 -3.33592 0
M  V30 1643 C 167.91 -0.213251 -4.3688 0
M  V30 1644 C 166.969 0.610208 -5.2265 0
M  V30 1645 O 165.995 0.035441 -5.69189 0
M  V30 1646 N 167.197 1.92071 -5.47804 0
M  V30 1647 H 169.962 -1.12492 -2.77787 0
M  V30 1648 H 167.523 -0.740105 -1.43993 0
M  V30 1649 H 169.515 1.15425 -3.87891 0
M  V30 1650 H 168.085 1.32647 -2.83061 0
M  V30 1651 H 167.305 -0.951466 -3.82545 0
M  V30 1652 H 168.593 -0.769262 -5.02951 0
M  V30 1653 H 167.991 2.4107 -5.11763 0
M  V30 1654 H 166.548 2.42508 -6.05007 0
M  V30 1655 N 169.982 1.44106 -0.638065 0
M  V30 1656 C 170.892 2.34513 0.0637334 0
M  V30 1657 C 171.908 1.53018 0.828346 0
M  V30 1658 O 173.084 1.85723 0.779036 0
M  V30 1659 C 170.149 3.31095 1.02844 0
M  V30 1660 C 169.21 4.28497 0.26244 0
M  V30 1661 C 168.443 5.20465 1.1812 0
M  V30 1662 O 168.666 5.16514 2.42011 0
M  V30 1663 O 167.6 5.98251 0.661774 0
M  V30 1664 H 171.426 2.95989 -0.68003 0
M  V30 1665 H 169.011 1.43994 -0.398252 0
M  V30 1666 H 170.893 3.90526 1.58327 0
M  V30 1667 H 169.568 2.72144 1.7527 0
M  V30 1668 H 168.475 3.72592 -0.335602 0
M  V30 1669 H 169.808 4.90388 -0.421936 0
M  V30 1670 N 171.46 0.379036 1.52974 0
M  V30 1671 C 172.39 -0.452706 2.29069 0
M  V30 1672 C 173.371 -1.07237 1.32039 0
M  V30 1673 O 174.556 -1.08708 1.60923 0
M  V30 1674 C 171.686 -1.5856 3.08992 0
M  V30 1675 C 170.64 -1.0925 4.13822 0
M  V30 1676 C 169.966 -2.31668 4.81907 0
M  V30 1677 C 171.266 -0.167702 5.22031 0
M  V30 1678 H 172.96 0.182181 2.98845 0
M  V30 1679 H 170.506 0.0890592 1.43724 0
M  V30 1680 H 172.459 -2.1742 3.6098 0
M  V30 1681 H 171.183 -2.24792 2.36931 0
M  V30 1682 H 169.842 -0.526494 3.628 0
M  V30 1683 H 169.49 -2.96386 4.06404 0
M  V30 1684 H 169.19 -1.9934 5.52754 0
M  V30 1685 H 170.714 -2.91189 5.36695 0
M  V30 1686 H 172.128 -0.664186 5.6944 0
M  V30 1687 H 170.525 0.0653265 6.00064 0
M  V30 1688 H 171.595 0.786347 4.78482 0
M  V30 1689 N 172.938 -1.57226 0.108567 0
M  V30 1690 C 174.349 -1.8195 -0.418464 0
M  V30 1691 C 174.7 -1.02508 -1.67292 0
M  V30 1692 O 173.825 -0.258496 -2.14851 0
M  V30 1693 C 174.42 -3.30028 -0.765979 0
M  V30 1694 C 172.979 -3.55469 -1.23769 0
M  V30 1695 C 172.126 -2.7625 -0.241106 0
M  V30 1696 H 175.077 -1.55149 0.33384 0
M  V30 1697 H 175.098 -3.44086 -1.62434 0
M  V30 1698 H 174.61 -3.87821 0.147219 0
M  V30 1699 H 172.711 -3.03022 -2.16814 0
M  V30 1700 H 172.824 -4.6408 -1.19022 0
M  V30 1701 H 171.188 -2.44133 -0.72602 0
M  V30 1702 H 171.971 -3.36797 0.665007 0
M  V30 1703 N 174.416 0.165178 -1.56732 0
M  V30 1704 C 175.663 0.880807 -1.8234 0
M  V30 1705 C 175.991 1.81977 -0.686621 0
M  V30 1706 O 175.246 1.92971 0.325697 0
M  V30 1707 C 175.545 1.70405 -3.1416 0
M  V30 1708 C 175.211 0.913475 -4.4155 0
M  V30 1709 C 173.873 0.695303 -4.7615 0
M  V30 1710 C 176.225 0.359349 -5.1996 0
M  V30 1711 C 173.553 -0.0879947 -5.86634 0
M  V30 1712 C 175.905 -0.410893 -6.31264 0
M  V30 1713 C 174.569 -0.639808 -6.64427 0
M  V30 1714 H 173.839 0.32231 -0.667231 0
M  V30 1715 H 176.486 0.145402 -1.90947 0
M  V30 1716 H 174.791 2.50903 -3.00923 0
M  V30 1717 H 176.488 2.26091 -3.31186 0
M  V30 1718 H 173.078 1.09357 -4.14414 0
M  V30 1719 H 177.262 0.515228 -4.93618 0
M  V30 1720 H 172.518 -0.27503 -6.10781 0
M  V30 1721 H 176.692 -0.847494 -6.91224 0
M  V30 1722 H 174.319 -1.24864 -7.49875 0
M  V30 1723 N 175.894 1.51508 0.433938 0
M  V30 1724 C 177.142 1.6402 1.18075 0
M  V30 1725 C 177.463 0.360328 1.91642 0
M  V30 1726 O 176.733 -0.623945 1.85698 0
M  V30 1727 H 175.313 0.6045 0.43885 0
M  V30 1728 H 177.975 1.88452 0.497178 0
M  V30 1729 H 177.071 2.46949 1.90847 0
M  V30 1730 N 177.372 -0.689602 1.41712 0
M  V30 1731 C 178.335 -1.78521 1.43746 0
M  V30 1732 C 179.335 -1.57436 0.327191 0
M  V30 1733 O 180.525 -1.64 0.587348 0
M  V30 1734 C 177.657 -3.16971 1.25467 0
M  V30 1735 H 178.85 -1.78108 2.41283 0
M  V30 1736 H 176.403 -0.89781 1.27942 0
M  V30 1737 H 177.138 -3.23019 0.287948 0
M  V30 1738 H 176.923 -3.33678 2.05917 0
M  V30 1739 H 178.413 -3.96935 1.2974 0
M  V30 1740 N 178.85 -1.27639 -0.924453 0
M  V30 1741 C 180.098 -1.13941 -1.66918 0
M  V30 1742 C 180.419 0.314589 -1.92446 0
M  V30 1743 O 179.689 1.21964 -1.53303 0
M  V30 1744 H 178.269 -0.418678 -0.618642 0
M  V30 1745 H 180.931 -1.60213 -1.10985 0
M  V30 1746 H 180.027 -1.67094 -2.63602 0
M  V30 1747 N 180.328 1.1314 -1.09713 0
M  V30 1748 C 181.238 2.22242 -0.751367 0
M  V30 1749 C 182.254 1.72224 0.247938 0
M  V30 1750 O 183.43 2.01205 0.0885463 0
M  V30 1751 C 180.495 3.46231 -0.180274 0
M  V30 1752 C 179.556 4.11125 -1.2359 0
M  V30 1753 C 178.789 5.29195 -0.691966 0
M  V30 1754 O 179.012 5.68342 0.48414 0
M  V30 1755 O 177.946 5.84214 -1.44838 0
M  V30 1756 H 181.772 2.54197 -1.66186 0
M  V30 1757 H 179.357 1.21331 -0.871735 0
M  V30 1758 H 181.239 4.21185 0.134739 0
M  V30 1759 H 179.914 3.1597 0.703185 0
M  V30 1760 H 178.821 3.37985 -1.60366 0
M  V30 1761 H 180.154 4.45524 -2.09211 0
M  V30 1762 N 181.806 0.884767 1.30421 0
M  V30 1763 C 182.736 0.367574 2.30589 0
M  V30 1764 C 183.717 -0.549464 1.60981 0
M  V30 1765 O 184.902 -0.46336 1.88591 0
M  V30 1766 C 182.032 -0.418944 3.44764 0
M  V30 1767 C 180.986 0.406316 4.26067 0
M  V30 1768 C 180.312 -0.506793 5.32293 0
M  V30 1769 C 181.612 1.64832 4.95608 0
M  V30 1770 H 183.306 1.20462 2.74097 0
M  V30 1771 H 180.852 0.580695 1.31772 0
M  V30 1772 H 182.805 -0.791395 4.13902 0
M  V30 1773 H 181.529 -1.28964 3.0006 0
M  V30 1774 H 180.188 0.760903 3.58617 0
M  V30 1775 H 179.836 -1.37519 4.83836 0
M  V30 1776 H 179.536 0.0415828 5.87585 0
M  V30 1777 H 181.06 -0.875764 6.04287 0
M  V30 1778 H 182.474 1.34646 5.57264 0
M  V30 1779 H 180.871 2.13688 5.60765 0
M  V30 1780 H 181.941 2.39284 4.21748 0
M  V30 1781 N 183.284 -1.43765 0.645699 0
M  V30 1782 C 184.695 -1.85193 0.236719 0
M  V30 1783 C 185.046 -1.54045 -1.21509 0
M  V30 1784 O 184.171 -0.985694 -1.92647 0
M  V30 1785 C 184.766 -3.36151 0.422845 0
M  V30 1786 C 183.325 -3.76338 0.0682492 0
M  V30 1787 C 182.472 -2.67538 0.729306 0
M  V30 1788 H 185.423 -1.34025 0.849883 0
M  V30 1789 H 185.444 -3.79032 -0.333904 0
M  V30 1790 H 184.956 -3.5879 1.47958 0
M  V30 1791 H 183.057 -3.59312 -0.986179 0
M  V30 1792 H 183.17 -4.76603 0.488469 0
M  V30 1793 H 181.534 -2.54176 0.163235 0
M  V30 1794 H 182.317 -2.93006 1.78892 0
M  V30 1795 N 184.763 -0.387143 -1.52771 0
M  V30 1796 C 186.174 0.0873634 -1.86495 0
M  V30 1797 C 186.525 1.46336 -1.30691 0
M  V30 1798 O 185.65 2.068 -0.637409 0
M  V30 1799 C 186.245 0.165305 -3.38396 0
M  V30 1800 C 184.804 0.584101 -3.7184 0
M  V30 1801 C 183.951 -0.255279 -2.76122 0
M  V30 1802 H 186.902 -0.605104 -1.46711 0
M  V30 1803 H 186.923 0.984848 -3.67534 0
M  V30 1804 H 186.435 -0.836301 -3.78982 0
M  V30 1805 H 184.536 1.59315 -3.36823 0
M  V30 1806 H 184.649 0.343749 -4.77865 0
M  V30 1807 H 183.013 0.279126 -2.53166 0
M  V30 1808 H 183.796 -1.25482 -3.19545 0
M  V30 1809 N 186.241 1.57166 -0.116904 0
M  V30 1810 C 187.173 2.12271 0.864507 0
M  V30 1811 C 188.186 1.06494 1.23138 0
M  V30 1812 O 189.375 1.33873 1.18069 0
M  V30 1813 C 186.475 2.60564 2.16702 0
M  V30 1814 C 185.648 3.90416 1.97216 0
M  V30 1815 C 184.707 4.24329 3.11178 0
M  V30 1816 O 183.733 4.93182 2.84184 0
M  V30 1817 N 184.935 3.8148 4.37554 0
M  V30 1818 H 187.7 2.97102 0.393726 0
M  V30 1819 H 185.261 1.61759 0.0675805 0
M  V30 1820 H 187.253 2.80282 2.91932 0
M  V30 1821 H 185.823 1.80623 2.55135 0
M  V30 1822 H 185.043 3.79627 1.06192 0
M  V30 1823 H 186.331 4.75327 1.81499 0
M  V30 1824 H 185.729 3.25943 4.62361 0
M  V30 1825 H 184.286 4.06311 5.09661 0
M  V30 1826 N 187.719 -0.156864 1.56817 0
M  V30 1827 C 188.651 -1.21883 1.94106 0
M  V30 1828 C 189.664 -1.3971 0.835754 0
M  V30 1829 O 190.853 -1.39457 1.11418 0
M  V30 1830 C 187.953 -2.58527 2.19127 0
M  V30 1831 C 187.126 -2.61809 3.50393 0
M  V30 1832 C 186.185 -3.7992 3.64071 0
M  V30 1833 O 185.211 -3.65249 4.36557 0
M  V30 1834 N 186.413 -4.96973 2.99997 0
M  V30 1835 H 189.178 -0.901974 2.85805 0
M  V30 1836 H 186.739 -0.346513 1.58148 0
M  V30 1837 H 188.731 -3.36034 2.25529 0
M  V30 1838 H 187.301 -2.82545 1.33742 0
M  V30 1839 H 186.521 -1.7029 3.5552 0
M  V30 1840 H 187.809 -2.61024 4.36742 0
M  V30 1841 H 187.207 -5.11794 2.41004 0
M  V30 1842 H 185.764 -5.7229 3.11974 0
M  V30 1843 N 189.197 -1.51736 -0.425897 0
M  V30 1844 C 190.474 -1.55519 -1.1863 0
M  V30 1845 C 190.854 -0.326219 -2.08564 0
M  V30 1846 O 190.202 0.688012 -2.17896 0
M  V30 1847 C 190.412 -2.87521 -1.9782 0
M  V30 1848 C 191.76 -3.39899 -2.54468 0
M  V30 1849 O 192.784 -2.89148 -2.08019 0
M  V30 1850 O 191.643 -4.2848 -3.39215 0
M  V30 1851 H 188.737 -0.625739 -0.540721 0
M  V30 1852 H 191.283 -1.64055 -0.434038 0
M  V30 1853 H 190.055 -3.68422 -1.31836 0
M  V30 1854 H 189.678 -2.822 -2.80088 0
M  V30 1855 N 190.675 0.682077 -1.42076 0
M  V30 1856 C 191.638 1.77756 -1.44691 0
M  V30 1857 C 192.638 1.5726 -0.335535 0
M  V30 1858 O 193.828 1.63686 -0.596037 0
M  V30 1859 C 190.96 3.16301 -1.27146 0
M  V30 1860 H 192.153 1.76826 -2.42224 0
M  V30 1861 H 189.706 0.891012 -1.28416 0
M  V30 1862 H 190.441 3.22862 -0.305075 0
M  V30 1863 H 190.226 3.32581 -2.07683 0
M  V30 1864 H 191.716 3.96241 -1.31843 0
M  V30 1865 N 192.153 1.28127 0.917671 0
M  V30 1866 C 193.083 1.14248 2.03641 0
M  V30 1867 C 194.064 0.0412748 1.7005 0
M  V30 1868 O 195.249 0.217566 1.92977 0
M  V30 1869 C 192.379 0.799431 3.37974 0
M  V30 1870 C 191.333 1.85497 3.85713 0
M  V30 1871 C 190.659 1.36565 5.16966 0
M  V30 1872 C 191.959 3.26085 4.08002 0
M  V30 1873 H 193.653 2.07835 2.15511 0
M  V30 1874 H 191.199 1.00064 1.03553 0
M  V30 1875 H 193.152 0.689114 4.15727 0
M  V30 1876 H 191.876 -0.172145 3.26146 0
M  V30 1877 H 190.535 1.95437 3.10161 0
M  V30 1878 H 190.183 0.383253 5.01538 0
M  V30 1879 H 189.883 2.07143 5.49878 0
M  V30 1880 H 191.407 1.26848 5.97279 0
M  V30 1881 H 192.821 3.19089 4.76293 0
M  V30 1882 H 191.218 3.94462 4.52238 0
M  V30 1883 H 192.288 3.70394 3.12948 0
M  V30 1884 N 193.631 -1.12557 1.10312 0
M  V30 1885 C 194.578 -2.18247 0.750781 0
M  V30 1886 C 195.548 -1.63853 -0.272293 0
M  V30 1887 O 196.733 -1.90195 -0.151862 0
M  V30 1888 C 193.873 -3.44591 0.187379 0
M  V30 1889 C 192.986 -4.13046 1.2656 0
M  V30 1890 C 192.121 -5.27034 0.663978 0
M  V30 1891 C 191.16 -5.87353 1.72287 0
M  V30 1892 N 190.297 -6.92757 1.1416 0
M  V30 1893 H 195.137 -2.47732 1.65628 0
M  V30 1894 H 192.674 -1.21629 0.827337 0
M  V30 1895 H 194.632 -4.16904 -0.157148 0
M  V30 1896 H 193.262 -3.15527 -0.681355 0
M  V30 1897 H 192.314 -3.38924 1.72727 0
M  V30 1898 H 193.626 -4.53947 2.06721 0
M  V30 1899 H 192.78 -6.06104 0.268824 0
M  V30 1900 H 191.519 -4.87407 -0.169082 0
M  V30 1901 H 190.524 -5.06971 2.12746 0
M  V30 1902 H 191.749 -6.29051 2.55875 0
M  V30 1903 H 189.695 -6.5517 0.329984 0
M  V30 1904 H 189.612 -7.3225 1.88007 0
M  V30 1905 H 190.88 -7.75658 0.772956 0
M  V30 1906 N 195.109 -0.891671 -1.2995 0
M  V30 1907 C 196.041 -0.320695 -2.26945 0
M  V30 1908 C 197.054 0.528497 -1.53983 0
M  V30 1909 O 198.243 0.346959 -1.75096 0
M  V30 1910 C 195.343 0.562066 -3.34207 0
M  V30 1911 C 194.516 -0.259576 -4.36629 0
M  V30 1912 C 193.575 0.554739 -5.23268 0
M  V30 1913 O 192.601 -0.0249311 -5.69195 0
M  V30 1914 N 193.803 1.8625 -5.4981 0
M  V30 1915 H 196.568 -1.15432 -2.76578 0
M  V30 1916 H 194.129 -0.755336 -1.432 0
M  V30 1917 H 196.121 1.11304 -3.89093 0
M  V30 1918 H 194.691 1.29637 -2.84452 0
M  V30 1919 H 193.911 -0.991986 -3.81514 0
M  V30 1920 H 195.199 -0.822564 -5.02107 0
M  V30 1921 H 194.597 2.35628 -5.14292 0
M  V30 1922 H 193.154 2.36078 -6.07545 0
M  V30 1923 N 196.587 1.43421 -0.653314 0
M  V30 1924 C 197.864 1.95361 -0.0966581 0
M  V30 1925 C 198.244 1.59461 1.38331 0
M  V30 1926 O 197.592 0.879777 2.10884 0
M  V30 1927 C 197.802 3.47311 -0.342988 0
M  V30 1928 C 199.15 4.23875 -0.24798 0
M  V30 1929 O 200.174 3.55133 -0.275553 0
M  V30 1930 O 199.033 5.4623 -0.171771 0
M  V30 1931 H 196.127 0.826945 0.00956291 0
M  V30 1932 H 198.673 1.5336 -0.726558 0
M  V30 1933 H 197.445 3.66569 -1.36906 0
M  V30 1934 H 197.068 3.9631 0.319975 0
M  V30 1935 N 198.065 0.39524 1.52563 0
M  V30 1936 C 199.293 -0.184943 2.06072 0
M  V30 1937 C 199.708 -1.40021 1.26647 0
M  V30 1938 O 199.065 -1.79767 0.314672 0
M  V30 1939 C 199.116 -0.549179 3.57304 0
M  V30 1940 O 198.837 0.617813 4.33722 0
M  V30 1941 C 200.338 -1.18459 4.2718 0
M  V30 1942 H 197.558 -0.0265025 0.670476 0
M  V30 1943 H 200.102 0.562184 1.96621 0
M  V30 1944 H 198.257 -1.2462 3.66809 0
M  V30 1945 H 198.671 0.317091 5.23541 0
M  V30 1946 H 200.145 -1.38976 5.34219 0
M  V30 1947 H 200.622 -2.15368 3.82771 0
M  V30 1948 H 201.228 -0.528163 4.22008 0
M  V30 1949 N 199.544 -1.57102 0.125237 0
M  V30 1950 C 200.476 -2.12726 -0.853237 0
M  V30 1951 C 201.489 -1.07145 -1.22571 0
M  V30 1952 O 202.678 -1.34497 -1.17358 0
M  V30 1953 C 199.778 -2.61709 -2.15317 0
M  V30 1954 C 198.951 -3.91456 -1.95143 0
M  V30 1955 C 198.01 -4.25973 -3.08923 0
M  V30 1956 O 197.036 -4.94682 -2.81564 0
M  V30 1957 N 198.238 -3.83795 -4.35524 0
M  V30 1958 H 201.003 -2.97307 -0.377964 0
M  V30 1959 H 198.564 -1.61792 -0.0590011 0
M  V30 1960 H 200.556 -2.81826 -2.90441 0
M  V30 1961 H 199.126 -1.81974 -2.54174 0
M  V30 1962 H 198.346 -3.80185 -1.04177 0
M  V30 1963 H 199.634 -4.76283 -1.78976 0
M  V30 1964 H 199.032 -3.2839 -4.60626 0
M  V30 1965 H 197.589 -4.09008 -5.07499 0
M  V30 1966 N 201.022 0.148545 -1.56898 0
M  V30 1967 C 201.952 1.18524 -2.01182 0
M  V30 1968 C 202.933 1.4489 -0.891123 0
M  V30 1969 O 204.118 1.55836 -1.15882 0
M  V30 1970 C 201.248 2.51879 -2.39112 0
M  V30 1971 C 200.202 2.40038 -3.54353 0
M  V30 1972 C 199.528 3.78089 -3.78091 0
M  V30 1973 C 200.828 1.88577 -4.87069 0
M  V30 1974 H 202.522 0.817029 -2.88036 0
M  V30 1975 H 200.068 0.391575 -1.38574 0
M  V30 1976 H 202.021 3.24627 -2.68692 0
M  V30 1977 H 200.745 2.90532 -1.49193 0
M  V30 1978 H 199.404 1.69742 -3.24936 0
M  V30 1979 H 199.052 4.14175 -2.85426 0
M  V30 1980 H 198.752 3.71028 -4.55645 0
M  V30 1981 H 200.276 4.52387 -4.10095 0
M  V30 1982 H 201.69 2.51117 -5.15377 0
M  V30 1983 H 200.087 1.9241 -5.68417 0
M  V30 1984 H 201.157 0.84136 -4.77545 0
M  V30 1985 N 202.5 1.5196 0.417844 0
M  V30 1986 C 203.728 1.69426 1.18753 0
M  V30 1987 C 204.143 0.399955 1.84515 0
M  V30 1988 O 203.5 -0.623288 1.71527 0
M  V30 1989 C 203.551 2.82375 2.25714 0
M  V30 1990 O 203.272 4.06793 1.62638 0
M  V30 1991 C 204.773 3.11277 3.15628 0
M  V30 1992 H 201.993 0.568031 0.357186 0
M  V30 1993 H 204.537 1.98475 0.49273 0
M  V30 1994 H 202.692 2.5587 2.90877 0
M  V30 1995 H 203.106 4.69667 2.3348 0
M  V30 1996 H 204.58 3.93843 3.86771 0
M  V30 1997 H 205.057 2.24473 3.77503 0
M  V30 1998 H 205.663 3.39515 2.56144 0
M  V30 1999 N 203.978 -0.674533 1.42435 0
M  V30 2000 C 205.224 -1.43671 1.43131 0
M  V30 2001 C 205.557 -1.94142 0.0476021 0
M  V30 2002 O 204.832 -1.70924 -0.928188 0
M  V30 2003 C 205.115 -2.63355 2.45594 0
M  V30 2004 C 204.968 -2.18514 3.93156 0
M  V30 2005 C 206.287 -3.65571 2.45043 0
M  V30 2006 H 203.406 -0.521077 0.521198 0
M  V30 2007 H 206.048 -0.766551 1.7385 0
M  V30 2008 H 204.198 -3.2053 2.19528 0
M  V30 2009 H 205.87 -1.66504 4.30202 0
M  V30 2010 H 204.113 -1.50086 4.07009 0
M  V30 2011 H 204.784 -3.04484 4.60428 0
M  V30 2012 H 207.26 -3.18113 2.68223 0
M  V30 2013 H 206.136 -4.46893 3.18713 0
M  V30 2014 H 206.397 -4.16716 1.47649 0
M  V30 2015 N 205.456 -1.28612 -0.910864 0
M  V30 2016 C 206.704 -1.15705 -1.65701 0
M  V30 2017 C 207.025 0.29416 -1.92769 0
M  V30 2018 O 206.295 1.20331 -1.54588 0
M  V30 2019 H 204.875 -0.425216 -0.614167 0
M  V30 2020 H 207.537 -1.61381 -1.0928 0
M  V30 2021 H 206.633 -1.6988 -2.61815 0
M  V30 2022 N 206.934 1.1197 -1.10907 0
M  V30 2023 C 208.159 1.87942 -0.877064 0
M  V30 2024 C 208.584 1.79341 0.567314 0
M  V30 2025 O 207.942 1.15184 1.40009 0
M  V30 2026 C 207.99 3.34926 -1.33629 0
M  V30 2027 O 207.094 4.09303 -0.504447 0
M  V30 2028 H 206.435 0.583785 -0.316371 0
M  V30 2029 H 208.965 1.4157 -1.47712 0
M  V30 2030 H 208.975 3.8577 -1.32837 0
M  V30 2031 H 207.65 3.40504 -2.3881 0
M  V30 2032 H 206.227 3.68393 -0.577993 0
M  V30 2033 N 208.412 0.89855 1.29475 0
M  V30 2034 C 209.342 0.39201 2.30186 0
M  V30 2035 C 210.323 -0.532359 1.61555 0
M  V30 2036 O 211.508 -0.443331 1.89072 0
M  V30 2037 C 208.638 -0.382353 3.45189 0
M  V30 2038 C 207.592 0.451483 4.25612 0
M  V30 2039 C 206.918 -0.450307 5.328 0
M  V30 2040 C 208.218 1.70079 4.93832 0
M  V30 2041 H 209.912 1.23362 2.72804 0
M  V30 2042 H 207.458 0.594638 1.31149 0
M  V30 2043 H 209.411 -0.747451 4.14718 0
M  V30 2044 H 208.135 -1.25774 3.01411 0
M  V30 2045 H 206.794 0.798897 3.57789 0
M  V30 2046 H 206.442 -1.32379 4.85268 0
M  V30 2047 H 206.142 0.103902 5.87508 0
M  V30 2048 H 207.666 -0.811623 6.05182 0
M  V30 2049 H 209.08 1.40549 5.55805 0
M  V30 2050 H 207.477 2.19623 5.58467 0
M  V30 2051 H 208.547 2.43744 4.19186 0
M  V30 2052 N 209.89 -1.43072 0.660911 0
M  V30 2053 C 211.138 -2.01323 0.177094 0
M  V30 2054 C 211.459 -1.5245 -1.2159 0
M  V30 2055 O 210.729 -0.740322 -1.81373 0
M  V30 2056 H 209.309 -0.744382 0.0624804 0
M  V30 2057 H 211.971 -1.75179 0.854305 0
M  V30 2058 H 211.067 -3.11649 0.167641 0
M  V30 2059 N 211.368 -0.403325 -1.52352 0
M  V30 2060 C 212.616 0.174003 -2.0135 0
M  V30 2061 C 212.937 1.46139 -1.29106 0
M  V30 2062 O 212.207 1.91448 -0.415253 0
M  V30 2063 H 210.787 0.0672911 -0.743963 0
M  V30 2064 H 213.449 -0.538235 -1.87321 0
M  V30 2065 H 212.545 0.374254 -3.09848 0
M  V30 2066 N 212.846 1.57033 -0.133567 0
M  V30 2067 C 213.794 2.17348 0.828412 0
M  V30 2068 C 214.788 1.12671 1.26498 0
M  V30 2069 O 215.994 1.30947 1.23502 0
M  V30 2070 H 212.369 0.695775 0.285309 0
M  V30 2071 H 214.34 2.96935 0.295372 0
M  V30 2072 C 213.089 2.79893 2.06289 0
M  V30 2073 H 212.412 3.60147 1.73592 0
M  V30 2074 H 213.852 3.25615 2.71572 0
M  V30 2075 C 212.311 1.77713 2.86216 0
M  V30 2076 O 212.841 1.23937 3.82103 0
M  V30 2077 N 211.047 1.47321 2.50489 0
M  V30 2078 H 210.594 1.91243 1.7258 0
M  V30 2079 H 210.552 0.79199 3.04261 0
M  V30 2080 N 214.325 -0.140222 1.56975 0
M  V30 2081 C 215.553 -0.866437 1.87884 0
M  V30 2082 C 215.968 -1.74428 0.722517 0
M  V30 2083 O 215.325 -1.79891 -0.30749 0
M  V30 2084 C 215.376 -1.71753 3.18093 0
M  V30 2085 O 215.097 -0.875056 4.29272 0
M  V30 2086 C 216.598 -2.55074 3.62563 0
M  V30 2087 H 213.818 -0.25019 0.622612 0
M  V30 2088 H 216.362 -0.130977 2.0408 0
M  V30 2089 H 214.517 -2.40598 3.03631 0
M  V30 2090 H 214.931 -1.46002 5.03769 0
M  V30 2091 H 216.405 -3.10356 4.5649 0
M  V30 2092 H 216.882 -3.31434 2.88181 0
M  V30 2093 H 217.488 -1.91509 3.79743 0
M  V30 2094 N 215.803 -1.52179 -0.40978 0
M  V30 2095 C 216.733 -1.78435 -1.5061 0
M  V30 2096 C 217.714 -0.635295 -1.57791 0
M  V30 2097 O 218.899 -0.880823 -1.73076 0
M  V30 2098 C 216.029 -1.93444 -2.88439 0
M  V30 2099 C 214.983 -3.09038 -2.96108 0
M  V30 2100 C 214.309 -3.09268 -4.36185 0
M  V30 2101 C 215.609 -4.48508 -2.67652 0
M  V30 2102 H 217.303 -2.70237 -1.28889 0
M  V30 2103 H 214.849 -1.30036 -0.618605 0
M  V30 2104 H 216.802 -2.10394 -3.65119 0
M  V30 2105 H 215.526 -0.983129 -3.11452 0
M  V30 2106 H 214.185 -2.91837 -2.21872 0
M  V30 2107 H 213.833 -2.11861 -4.56206 0
M  V30 2108 H 213.533 -3.86907 -4.42241 0
M  V30 2109 H 215.057 -3.28348 -5.14801 0
M  V30 2110 H 216.471 -4.65918 -3.34056 0
M  V30 2111 H 214.868 -5.28059 -2.85085 0
M  V30 2112 H 215.938 -4.56649 -1.63095 0
M  V30 2113 N 217.281 0.66697 -1.42791 0
M  V30 2114 C 218.529 1.42417 -1.43394 0
M  V30 2115 C 218.85 1.94925 -0.0542373 0
M  V30 2116 O 218.12 1.73564 0.908415 0
M  V30 2117 H 216.7 0.528515 -0.527902 0
M  V30 2118 H 219.362 0.787562 -1.78279 0
M  V30 2119 H 218.458 2.27333 -2.13837 0
M  V30 2120 N 218.759 1.29093 0.90403 0
M  V30 2121 C 220.006 1.16813 1.65411 0
M  V30 2122 C 220.334 -0.28128 1.92455 0
M  V30 2123 O 219.589 -1.22006 1.53013 0
M  V30 2124 C 219.888 1.92224 3.01305 0
M  V30 2125 C 219.554 3.41968 2.93885 0
M  V30 2126 C 218.216 3.82807 2.91569 0
M  V30 2127 C 220.568 4.37409 2.83413 0
M  V30 2128 C 217.896 5.1741 2.76594 0
M  V30 2129 C 220.248 5.72097 2.69977 0
M  V30 2130 C 218.912 6.12199 2.66024 0
M  V30 2131 H 218.182 0.42745 0.605283 0
M  V30 2132 H 220.829 1.59981 1.05254 0
M  V30 2133 H 219.134 1.41635 3.65304 0
M  V30 2134 H 220.831 1.80131 3.58265 0
M  V30 2135 H 217.421 3.09504 2.96488 0
M  V30 2136 H 221.605 4.06813 2.84283 0
M  V30 2137 H 216.861 5.47596 2.71935 0
M  V30 2138 H 221.035 6.45704 2.60844 0
M  V30 2139 H 218.662 7.16448 2.54178 0
M  V30 2140 N 220.237 -1.11381 1.11499 0
M  V30 2141 C 221.185 -2.19522 0.768956 0
M  V30 2142 C 222.179 -1.67693 -0.239857 0
M  V30 2143 O 223.385 -1.79727 -0.0990755 0
M  V30 2144 H 219.76 -0.715711 0.230786 0
M  V30 2145 H 221.731 -2.45954 1.68964 0
M  V30 2146 C 220.48 -3.46945 0.229073 0
M  V30 2147 H 219.803 -3.8718 0.996596 0
M  V30 2148 H 221.243 -4.23993 0.0251441 0
M  V30 2149 C 219.702 -3.2042 -1.04079 0
M  V30 2150 O 220.232 -3.41178 -2.12038 0
M  V30 2151 N 218.438 -2.74151 -0.963823 0
M  V30 2152 H 217.985 -2.57459 -0.0851722 0
M  V30 2153 H 217.943 -2.56781 -1.81414 0
M  V30 2154 N 221.715 -0.905404 -1.28997 0
M  V30 2155 C 223.131 -0.60233 -1.47798 0
M  V30 2156 C 223.331 0.854645 -1.82478 0
M  V30 2157 O 222.387 1.63439 -1.92468 0
M  V30 2158 C 223.7 -1.53306 -2.58685 0
M  V30 2159 C 225.248 -1.53887 -2.72558 0
M  V30 2160 C 225.723 -2.45602 -3.86579 0
M  V30 2161 N 227.214 -2.43681 -3.93921 0
M  V30 2162 C 227.949 -3.11347 -4.81509 0
M  V30 2163 N 227.445 -3.88313 -5.73746 0
M  V30 2164 N 229.238 -3.00476 -4.75048 0
M  V30 2165 H 221.389 -1.84765 -1.04764 0
M  V30 2166 H 223.652 -0.792025 -0.520961 0
M  V30 2167 H 223.358 -2.57141 -2.39941 0
M  V30 2168 H 223.232 -1.25787 -3.55609 0
M  V30 2169 H 225.619 -0.507941 -2.90696 0
M  V30 2170 H 225.7 -1.85447 -1.76191 0
M  V30 2171 H 225.344 -3.48792 -3.69197 0
M  V30 2172 H 225.274 -2.11349 -4.82327 0
M  V30 2173 H 227.765 -1.87767 -3.27951 0
M  V30 2174 H 228.078 -4.36985 -6.37389 0
M  V30 2175 H 226.423 -3.92419 -5.73614 0
M  V30 2176 H 229.614 -2.39858 -4.01977 0
M  V30 2177 H 229.787 -3.53485 -5.43095 0
M  V30 2178 N 223.193 1.4272 -0.668489 0
M  V30 2179 C 224.442 2.00846 -0.185389 0
M  V30 2180 C 224.755 1.53442 1.21305 0
M  V30 2181 O 225.961 2.03944 1.79218 0
M  V30 2182 C 224.417 3.58805 -0.280591 0
M  V30 2183 C 224.025 4.15198 -1.68268 0
M  V30 2184 C 225.769 4.24255 0.14412 0
M  V30 2185 C 223.676 5.655 -1.73099 0
M  V30 2186 H 222.606 0.751145 -0.0655475 0
M  V30 2187 H 225.257 1.63516 -0.832752 0
M  V30 2188 H 223.639 3.93608 0.434553 0
M  V30 2189 H 224.813 3.91866 -2.42441 0
M  V30 2190 H 223.128 3.62176 -2.05469 0
M  V30 2191 H 225.725 5.34547 0.128086 0
M  V30 2192 H 226.068 3.99277 1.17827 0
M  V30 2193 H 226.601 3.94389 -0.519798 0
M  V30 2194 H 223.34 5.95268 -2.74475 0
M  V30 2195 H 222.86 5.90842 -1.03274 0
M  V30 2196 H 224.539 6.29808 -1.48158 0
M  V30 2197 N 224.671 0.411399 1.52136 0
M  V30 2198 C 225.601 -0.404015 2.29978 0
M  V30 2199 C 226.582 -1.04412 1.34284 0
M  V30 2200 O 227.767 -1.0527 1.63192 0
M  V30 2201 C 224.897 -1.5197 3.12286 0
M  V30 2202 C 223.851 -1.00448 4.16046 0
M  V30 2203 C 223.177 -2.21393 4.86712 0
M  V30 2204 C 224.477 -0.0569336 5.22269 0
M  V30 2205 H 226.171 0.245529 2.98392 0
M  V30 2206 H 223.717 0.119525 1.43503 0
M  V30 2207 H 225.67 -2.09715 3.6551 0
M  V30 2208 H 224.394 -2.19716 2.41646 0
M  V30 2209 H 223.053 -0.449421 3.63835 0
M  V30 2210 H 222.701 -2.87699 4.12599 0
M  V30 2211 H 222.401 -1.87571 5.56858 0
M  V30 2212 H 223.925 -2.7974 5.4275 0
M  V30 2213 H 225.339 -0.54325 5.7072 0
M  V30 2214 H 223.736 0.192594 5.99791 0
M  V30 2215 H 224.806 0.887663 4.76706 0
M  V30 2216 N 226.149 -1.5696 0.141893 0
M  V30 2217 C 227.096 -2.16501 -0.799737 0
M  V30 2218 C 228.066 -1.09643 -1.24771 0
M  V30 2219 O 229.251 -1.3766 -1.32115 0
M  V30 2220 C 226.391 -2.78679 -2.03549 0
M  V30 2221 C 225.504 -3.99914 -1.6338 0
M  V30 2222 C 224.639 -4.50106 -2.82096 0
M  V30 2223 C 223.678 -5.63819 -2.38275 0
M  V30 2224 N 222.815 -6.08651 -3.49983 0
M  V30 2225 H 227.655 -2.96632 -0.285179 0
M  V30 2226 H 225.192 -1.46533 -0.129053 0
M  V30 2227 H 227.15 -3.1287 -2.75986 0
M  V30 2228 H 225.78 -2.012 -2.52425 0
M  V30 2229 H 224.832 -3.71735 -0.807279 0
M  V30 2230 H 226.144 -4.82311 -1.27192 0
M  V30 2231 H 225.298 -4.86325 -3.62729 0
M  V30 2232 H 224.037 -3.66706 -3.21525 0
M  V30 2233 H 223.042 -5.2718 -1.56081 0
M  V30 2234 H 224.267 -6.49 -1.99938 0
M  V30 2235 H 222.213 -5.28188 -3.89042 0
M  V30 2236 H 222.13 -6.85961 -3.17794 0
M  V30 2237 H 223.398 -6.49515 -4.30988 0
M  V30 2238 N 227.627 0.131896 -1.57047 0
M  V30 2239 C 228.559 1.1878 -1.9602 0
M  V30 2240 C 229.572 1.38363 -0.857875 0
M  V30 2241 O 230.761 1.37666 -1.13623 0
M  V30 2242 C 227.861 2.55008 -2.23213 0
M  V30 2243 C 227.034 2.56201 -3.54513 0
M  V30 2244 C 226.093 3.7408 -3.70069 0
M  V30 2245 O 225.119 3.58258 -4.42312 0
M  V30 2246 N 226.321 4.92137 -3.07866 0
M  V30 2247 H 229.086 0.85639 -2.87204 0
M  V30 2248 H 226.647 0.321309 -1.5868 0
M  V30 2249 H 228.639 3.32404 -2.30846 0
M  V30 2250 H 227.209 2.80382 -1.3822 0
M  V30 2251 H 226.429 1.64613 -3.58185 0
M  V30 2252 H 227.717 2.54043 -4.4084 0
M  V30 2253 H 227.115 5.07895 -2.49116 0
M  V30 2254 H 225.672 5.67254 -3.21039 0
M  V30 2255 N 229.106 1.52395 0.401703 0
M  V30 2256 C 230.346 1.68498 1.15705 0
M  V30 2257 C 230.71 0.409748 1.87577 0
M  V30 2258 O 231.911 0.446983 2.65058 0
M  V30 2259 C 230.182 2.87789 2.11924 0
M  V30 2260 S 231.741 3.24415 2.95466 0
M  V30 2261 H 228.559 0.593267 0.391862 0
M  V30 2262 H 231.161 1.90408 0.443282 0
M  V30 2263 H 229.865 3.7884 1.57824 0
M  V30 2264 H 229.396 2.68175 2.87829 0
M  V30 2265 H 231.411 2.73614 4.13944 0
M  V30 2266 N 230.584 -0.659388 1.43143 0
M  V30 2267 C 231.809 -1.45221 1.48073 0
M  V30 2268 C 232.234 -1.87845 0.097995 0
M  V30 2269 O 231.592 -1.56985 -0.90694 0
M  V30 2270 C 231.64 -2.66748 2.42647 0
M  V30 2271 O 230.744 -3.65583 1.90848 0
M  V30 2272 H 230.085 -0.435669 0.501088 0
M  V30 2273 H 232.615 -0.807432 1.87994 0
M  V30 2274 H 232.625 -3.14637 2.59745 0
M  V30 2275 H 231.3 -2.35067 3.43098 0
M  V30 2276 H 229.877 -3.24693 1.83381 0
M  V30 2277 N 232.062 -1.29571 -0.897171 0
M  V30 2278 C 233.339 -1.08365 -1.62839 0
M  V30 2279 C 233.719 0.371331 -2.07808 0
M  V30 2280 O 233.067 1.3606 -1.83576 0
M  V30 2281 C 233.277 -2.0735 -2.80726 0
M  V30 2282 C 234.625 -2.38406 -3.51351 0
M  V30 2283 O 235.649 -2.05564 -2.90898 0
M  V30 2284 O 234.508 -2.9453 -4.60341 0
M  V30 2285 H 231.602 -0.415345 -0.715134 0
M  V30 2286 H 234.148 -1.40952 -0.945018 0
M  V30 2287 H 232.92 -3.05339 -2.44711 0
M  V30 2288 H 232.543 -1.75507 -3.56767 0
M  V30 2289 N 233.54 1.10788 -1.12088 0
M  V30 2290 C 234.45 2.20599 -0.798338 0
M  V30 2291 C 235.466 1.72712 0.21135 0
M  V30 2292 O 236.642 2.01348 0.0458477 0
M  V30 2293 C 233.707 3.45771 -0.253674 0
M  V30 2294 C 232.768 4.08411 -1.32283 0
M  V30 2295 C 232.001 5.27608 -0.80406 0
M  V30 2296 O 232.224 5.69241 0.363478 0
M  V30 2297 O 231.158 5.8101 -1.57198 0
M  V30 2298 H 234.984 2.50614 -1.7154 0
M  V30 2299 H 232.569 1.19454 -0.897275 0
M  V30 2300 H 234.451 4.21376 0.0453691 0
M  V30 2301 H 233.126 3.1739 0.636005 0
M  V30 2302 H 232.033 3.34507 -1.67499 0
M  V30 2303 H 233.366 4.40986 -2.18614 0
M  V30 2304 N 235.018 0.912232 1.28515 0
M  V30 2305 C 235.948 0.416403 2.29757 0
M  V30 2306 C 236.929 -0.515194 1.6211 0
M  V30 2307 O 238.114 -0.423253 1.89532 0
M  V30 2308 C 235.244 -0.34572 3.45575 0
M  V30 2309 C 234.198 0.496599 4.25109 0
M  V30 2310 C 233.524 -0.393771 5.33248 0
M  V30 2311 C 234.824 1.75307 4.92001 0
M  V30 2312 H 236.518 1.26249 2.7148 0
M  V30 2313 H 234.064 0.608515 1.30511 0
M  V30 2314 H 236.017 -0.703422 4.15488 0
M  V30 2315 H 234.741 -1.2257 3.02728 0
M  V30 2316 H 233.4 0.8368 3.56922 0
M  V30 2317 H 233.048 -1.27225 4.86644 0
M  V30 2318 H 232.748 0.166209 5.87365 0
M  V30 2319 H 234.272 -0.747389 6.06009 0
M  V30 2320 H 235.686 1.46437 5.54283 0
M  V30 2321 H 234.083 2.25534 5.56106 0
M  V30 2322 H 235.153 2.48176 4.16577 0
M  V30 2323 N 236.496 -1.42363 0.676048 0
M  V30 2324 C 237.912 -1.55811 0.345718 0
M  V30 2325 C 238.112 -1.65544 -1.14879 0
M  V30 2326 O 237.168 -1.62306 -1.93424 0
M  V30 2327 C 238.481 -2.80746 1.07713 0
M  V30 2328 C 240.029 -2.9452 1.05958 0
M  V30 2329 C 240.504 -4.22318 1.77233 0
M  V30 2330 N 241.995 -4.29233 1.74108 0
M  V30 2331 C 242.73 -5.26935 2.26113 0
M  V30 2332 N 242.226 -6.30783 2.86505 0
M  V30 2333 N 244.019 -5.18741 2.1648 0
M  V30 2334 H 236.17 -1.34289 1.6456 0
M  V30 2335 H 238.433 -0.646506 0.69335 0
M  V30 2336 H 238.139 -2.79696 2.13221 0
M  V30 2337 H 238.013 -3.71676 0.64316 0
M  V30 2338 H 240.4 -2.95097 0.0128255 0
M  V30 2339 H 240.481 -2.04817 1.53244 0
M  V30 2340 H 240.125 -4.22502 2.81877 0
M  V30 2341 H 240.055 -5.10958 1.27396 0
M  V30 2342 H 242.546 -3.54814 1.30059 0
M  V30 2343 H 242.859 -7.01691 3.23805 0
M  V30 2344 H 241.204 -6.31341 2.90575 0
M  V30 2345 H 244.395 -4.36533 1.68987 0
M  V30 2346 H 244.568 -5.94721 2.57316 0
M  V30 2347 N 237.974 -0.419461 -1.51915 0
M  V30 2348 C 238.921 0.400927 -2.27291 0
M  V30 2349 C 239.891 1.03224 -1.30131 0
M  V30 2350 O 241.076 1.05455 -1.59009 0
M  V30 2351 C 238.216 1.50603 -3.10504 0
M  V30 2352 C 237.329 0.89462 -4.22635 0
M  V30 2353 C 236.464 1.97328 -4.93189 0
M  V30 2354 C 235.503 1.33935 -5.97267 0
M  V30 2355 N 234.64 2.3586 -6.61298 0
M  V30 2356 H 239.48 -0.248251 -2.96964 0
M  V30 2357 H 237.017 -0.134266 -1.46486 0
M  V30 2358 H 238.975 2.15783 -3.57062 0
M  V30 2359 H 237.605 2.12509 -2.42981 0
M  V30 2360 H 236.657 0.131583 -3.80172 0
M  V30 2361 H 237.969 0.391641 -4.9726 0
M  V30 2362 H 237.123 2.70211 -5.43204 0
M  V30 2363 H 235.862 2.50994 -4.18155 0
M  V30 2364 H 234.867 0.595896 -5.46561 0
M  V30 2365 H 236.092 0.810252 -6.74249 0
M  V30 2366 H 234.038 2.88639 -5.89087 0
M  V30 2367 H 233.955 1.90403 -7.3163 0
M  V30 2368 H 235.223 3.08282 -7.15949 0
M  V30 2369 N 239.452 1.56882 -0.150215 0
M  V30 2370 C 240.863 1.82995 0.370076 0
M  V30 2371 C 241.214 1.06907 1.64515 0
M  V30 2372 O 240.339 0.315369 2.1409 0
M  V30 2373 C 240.934 3.31942 0.678208 0
M  V30 2374 C 239.493 3.58625 1.14301 0
M  V30 2375 C 238.64 2.76792 0.167778 0
M  V30 2376 H 241.591 1.54209 -0.374858 0
M  V30 2377 H 241.612 3.48272 1.53254 0
M  V30 2378 H 241.124 3.87294 -0.249991 0
M  V30 2379 H 239.225 3.08664 2.08704 0
M  V30 2380 H 239.338 4.67073 1.06676 0
M  V30 2381 H 237.702 2.45972 0.661037 0
M  V30 2382 H 238.485 3.34916 -0.754069 0
M  V30 2383 N 240.93 -0.123565 1.57115 0
M  V30 2384 C 242.155 -0.850398 1.89164 0
M  V30 2385 C 242.58 -1.7286 0.741688 0
M  V30 2386 O 241.938 -1.78665 -0.307958 0
M  V30 2387 C 241.986 -1.66353 3.19936 0
M  V30 2388 O 241.09 -2.77004 3.0552 0
M  V30 2389 H 240.431 -0.235454 0.620852 0
M  V30 2390 H 242.961 -0.107335 2.04318 0
M  V30 2391 H 242.971 -2.05372 3.52543 0
M  V30 2392 H 241.646 -1.01881 4.03228 0
M  V30 2393 H 240.223 -2.41221 2.84371 0
M  V30 2394 N 242.408 -1.52605 -0.393616 0
M  V30 2395 C 243.338 -1.80022 -1.48709 0
M  V30 2396 C 244.319 -0.651995 -1.57108 0
M  V30 2397 O 245.504 -0.89913 -1.72132 0
M  V30 2398 C 242.634 -1.96492 -2.86371 0
M  V30 2399 C 241.588 -3.12161 -2.92813 0
M  V30 2400 C 240.914 -3.13877 -4.3288 0
M  V30 2401 C 242.214 -4.51322 -2.6288 0
M  V30 2402 H 243.908 -2.71589 -1.26015 0
M  V30 2403 H 241.454 -1.30684 -0.604778 0
M  V30 2404 H 243.407 -2.14255 -3.62867 0
M  V30 2405 H 242.131 -1.01611 -3.10391 0
M  V30 2406 H 240.79 -2.94173 -2.18764 0
M  V30 2407 H 240.438 -2.16687 -4.53933 0
M  V30 2408 H 240.138 -3.91576 -4.38112 0
M  V30 2409 H 241.662 -3.33789 -5.1129 0
M  V30 2410 H 243.076 -4.69435 -3.29096 0
M  V30 2411 H 241.473 -5.31053 -2.79468 0
M  V30 2412 H 242.543 -4.58353 -1.58242 0
M  V30 2413 N 243.887 0.651787 -1.4349 0
M  V30 2414 C 244.817 1.77621 -1.51569 0
M  V30 2415 C 245.798 1.66022 -0.370253 0
M  V30 2416 O 246.983 1.85095 -0.587658 0
M  V30 2417 C 244.113 3.16056 -1.43966 0
M  V30 2418 C 243.067 3.4242 -2.56774 0
M  V30 2419 C 242.393 4.8067 -2.34223 0
M  V30 2420 C 243.693 3.37023 -3.99015 0
M  V30 2421 H 245.387 1.71117 -2.45681 0
M  V30 2422 H 242.933 0.821825 -1.18246 0
M  V30 2423 H 244.886 3.94472 -1.48221 0
M  V30 2424 H 243.61 3.23293 -0.463586 0
M  V30 2425 H 242.269 2.66375 -2.51873 0
M  V30 2426 H 241.917 4.84585 -1.34856 0
M  V30 2427 H 241.617 4.9927 -3.09844 0
M  V30 2428 H 243.141 5.61342 -2.40265 0
M  V30 2429 H 244.555 4.05374 -4.05395 0
M  V30 2430 H 242.952 3.67159 -4.74673 0
M  V30 2431 H 244.022 2.3518 -4.2405 0
M  V30 2432 N 245.365 1.30045 0.890287 0
M  V30 2433 C 246.776 1.16738 1.45702 0
M  V30 2434 C 247.127 -0.233939 1.948 0
M  V30 2435 O 246.252 -1.13021 1.84541 0
M  V30 2436 C 246.847 2.11313 2.64825 0
M  V30 2437 C 245.406 2.02001 3.17604 0
M  V30 2438 C 244.553 2.01699 1.90296 0
M  V30 2439 H 247.504 1.42392 0.700726 0
M  V30 2440 H 247.525 1.69086 3.40867 0
M  V30 2441 H 247.037 3.13294 2.2906 0
M  V30 2442 H 245.138 1.03142 3.5804 0
M  V30 2443 H 245.251 2.90128 3.81264 0
M  V30 2444 H 243.615 1.46427 2.08402 0
M  V30 2445 H 244.398 3.05402 1.56795 0
M  V30 2446 N 246.843 -1.10192 1.12674 0
M  V30 2447 C 248.091 -1.81845 0.881861 0
M  V30 2448 C 248.412 -1.85737 -0.593867 0
M  V30 2449 O 247.682 -1.33724 -1.4316 0
M  V30 2450 H 246.262 -0.673432 0.323261 0
M  V30 2451 H 248.924 -1.33316 1.42172 0
M  V30 2452 H 248.02 -2.85288 1.2656 0
M  V30 2453 N 248.321 -0.919034 -1.28029 0
M  V30 2454 C 249.598 -0.473668 -1.89778 0
M  V30 2455 C 249.978 1.04783 -1.83259 0
M  V30 2456 O 249.326 1.8982 -1.27202 0
M  V30 2457 C 249.536 -1.00998 -3.34066 0
M  V30 2458 C 250.884 -1.06525 -4.1102 0
M  V30 2459 O 251.908 -0.958996 -3.43048 0
M  V30 2460 O 250.767 -1.22776 -5.3253 0
M  V30 2461 H 247.861 -0.15098 -0.813101 0
M  V30 2462 H 250.407 -1.01016 -1.36359 0
M  V30 2463 H 249.179 -2.05392 -3.33061 0
M  V30 2464 H 248.802 -0.454626 -3.94992 0
M  V30 2465 N 249.799 1.42003 -0.683588 0
M  V30 2466 C 251.21 1.84501 -0.285736 0
M  V30 2467 C 251.561 1.57213 1.17382 0
M  V30 2468 O 250.686 1.03642 1.89966 0
M  V30 2469 C 251.281 3.34912 -0.511821 0
M  V30 2470 C 249.84 3.76025 -0.168005 0
M  V30 2471 C 248.987 2.6551 -0.799983 0
M  V30 2472 H 251.938 1.31724 -0.885119 0
M  V30 2473 H 251.959 3.79784 0.233292 0
M  V30 2474 H 251.471 3.54741 -1.57418 0
M  V30 2475 H 249.572 3.61801 0.890567 0
M  V30 2476 H 249.685 4.75141 -0.614661 0
M  V30 2477 H 248.049 2.53654 -0.230568 0
M  V30 2478 H 248.832 2.8816 -1.86597 0
M  V30 2479 N 251.277 0.427512 1.51691 0
M  V30 2480 C 252.523 -0.142439 2.02299 0
M  V30 2481 C 252.856 -1.43214 1.31162 0
M  V30 2482 O 252.131 -1.89833 0.423511 0
M  V30 2483 C 252.414 -0.371301 3.58181 0
M  V30 2484 C 252.267 0.936358 4.39946 0
M  V30 2485 C 253.586 -1.14542 4.24933 0
M  V30 2486 H 250.705 -0.0502937 0.735282 0
M  V30 2487 H 253.347 0.564584 1.81418 0
M  V30 2488 H 251.497 -0.973559 3.76104 0
M  V30 2489 H 253.169 1.57184 4.33694 0
M  V30 2490 H 251.412 1.5432 4.05423 0
M  V30 2491 H 252.083 0.730388 5.47147 0
M  V30 2492 H 254.559 -0.635362 4.11221 0
M  V30 2493 H 253.435 -1.27431 5.33903 0
M  V30 2494 H 253.696 -2.17093 3.85127 0
M  V30 2495 N 252.755 -1.56801 0.158532 0
M  V30 2496 C 254.032 -1.88131 -0.535357 0
M  V30 2497 C 254.412 -1.06638 -1.82186 0
M  V30 2498 O 253.76 -0.156533 -2.27963 0
M  V30 2499 C 253.97 -3.39949 -0.789653 0
M  V30 2500 C 255.318 -4.09416 -1.12533 0
M  V30 2501 O 256.342 -3.45194 -0.878622 0
M  V30 2502 O 255.201 -5.22855 -1.59014 0
M  V30 2503 H 252.295 -0.780143 -0.27442 0
M  V30 2504 H 254.841 -1.68564 0.19601 0
M  V30 2505 H 253.613 -3.91115 0.120353 0
M  V30 2506 H 253.236 -3.65084 -1.57479 0
M  V30 2507 N 254.233 0.115231 -1.57178 0
M  V30 2508 C 255.481 0.820727 -1.84685 0
M  V30 2509 C 255.802 1.80237 -0.744279 0
M  V30 2510 O 255.072 1.94529 0.231375 0
M  V30 2511 H 253.652 0.306084 -0.681411 0
M  V30 2512 H 256.314 0.101656 -1.94635 0
M  V30 2513 H 255.41 1.36366 -2.80733 0
M  V30 2514 N 255.711 1.52812 0.385517 0
M  V30 2515 C 256.988 1.5861 1.14465 0
M  V30 2516 C 257.368 0.381402 2.07626 0
M  V30 2517 O 256.716 -0.629999 2.19643 0
M  V30 2518 C 256.926 2.92664 1.90128 0
M  V30 2519 C 258.274 3.46526 2.45367 0
M  V30 2520 O 259.298 2.94562 2.0028 0
M  V30 2521 O 258.157 4.37323 3.27736 0
M  V30 2522 H 255.251 0.639855 0.523941 0
M  V30 2523 H 257.797 1.65149 0.390389 0
M  V30 2524 H 256.569 3.71788 1.22022 0
M  V30 2525 H 256.192 2.89527 2.72507 0
M  V30 2526 N 257.189 -0.644168 1.43834 0
M  V30 2527 C 258.099 -1.78563 1.52159 0
M  V30 2528 C 259.115 -1.69147 0.408069 0
M  V30 2529 O 260.291 -1.90156 0.663524 0
M  V30 2530 C 257.356 -3.14888 1.45073 0
M  V30 2531 C 256.417 -3.36034 2.6717 0
M  V30 2532 C 255.65 -4.65855 2.60413 0
M  V30 2533 O 255.873 -5.45805 1.65689 0
M  V30 2534 O 254.807 -4.88918 3.5106 0
M  V30 2535 H 258.633 -1.74494 2.48567 0
M  V30 2536 H 256.218 -0.80378 1.25935 0
M  V30 2537 H 258.1 -3.96179 1.43597 0
M  V30 2538 H 256.775 -3.19528 0.518037 0
M  V30 2539 H 255.682 -2.54472 2.74217 0
M  V30 2540 H 257.015 -3.36247 3.59442 0
M  V30 2541 N 258.668 -1.30515 -0.883378 0
M  V30 2542 C 260.079 -1.17509 -1.45081 0
M  V30 2543 C 260.43 0.223605 -1.94922 0
M  V30 2544 O 259.555 1.12041 -1.85137 0
M  V30 2545 C 260.15 -2.12715 -2.63701 0
M  V30 2546 C 258.709 -2.03682 -3.16529 0
M  V30 2547 C 257.856 -2.02706 -1.89224 0
M  V30 2548 H 260.807 -1.42762 -0.693165 0
M  V30 2549 H 260.828 -1.70891 -3.39965 0
M  V30 2550 H 260.34 -3.14505 -2.27395 0
M  V30 2551 H 258.441 -1.05039 -3.57488 0
M  V30 2552 H 258.554 -2.92146 -3.7972 0
M  V30 2553 H 256.918 -1.4753 -2.07622 0
M  V30 2554 H 257.701 -3.06229 -1.55174 0
M  V30 2555 N 260.146 1.09593 -1.13257 0
M  V30 2556 C 261.109 2.14359 -0.811358 0
M  V30 2557 C 262.109 1.59808 0.178377 0
M  V30 2558 O 263.299 1.74132 -0.0484911 0
M  V30 2559 C 260.431 3.40269 -0.207276 0
M  V30 2560 H 261.624 2.44284 -1.73969 0
M  V30 2561 H 259.177 1.25102 -0.936973 0
M  V30 2562 H 259.912 3.15969 0.73036 0
M  V30 2563 H 259.697 3.81154 -0.919992 0
M  V30 2564 H 261.187 4.176 0.000667944 0
M  V30 2565 N 261.624 0.925811 1.2754 0
M  V30 2566 C 262.587 0.428129 2.25166 0
M  V30 2567 C 263.587 -0.452261 1.54309 0
M  V30 2568 O 264.777 -0.253608 1.72344 0
M  V30 2569 C 261.909 -0.384749 3.38722 0
M  V30 2570 H 263.102 1.29066 2.70706 0
M  V30 2571 H 260.655 0.706323 1.3943 0
M  V30 2572 H 261.39 -1.26618 2.98561 0
M  V30 2573 H 261.175 0.246454 3.91325 0
M  V30 2574 H 262.665 -0.723389 4.11287 0
M  V30 2575 N 263.102 -1.41638 0.69111 0
M  V30 2576 C 264.049 -2.30789 0.0229705 0
M  V30 2577 C 265.019 -1.46863 -0.775911 0
M  V30 2578 O 266.204 -1.75661 -0.74485 0
M  V30 2579 C 263.344 -3.32868 -0.910666 0
M  V30 2580 C 262.457 -4.31875 -0.103874 0
M  V30 2581 C 261.592 -5.21024 -1.03475 0
M  V30 2582 C 260.631 -6.11702 -0.220598 0
M  V30 2583 N 259.768 -6.93349 -1.10504 0
M  V30 2584 H 264.608 -2.87366 0.788978 0
M  V30 2585 H 262.145 -1.41535 0.400794 0
M  V30 2586 H 264.103 -3.90596 -1.46597 0
M  V30 2587 H 262.733 -2.77851 -1.64312 0
M  V30 2588 H 261.785 -3.76131 0.568285 0
M  V30 2589 H 263.097 -4.96003 0.527504 0
M  V30 2590 H 262.251 -5.83565 -1.65943 0
M  V30 2591 H 260.99 -4.57112 -1.69999 0
M  V30 2592 H 259.995 -5.48215 0.417187 0
M  V30 2593 H 261.22 -6.77668 0.440784 0
M  V30 2594 H 259.166 -6.3205 -1.75638 0
M  V30 2595 H 259.083 -7.54146 -0.529125 0
M  V30 2596 H 260.351 -7.60362 -1.71667 0
M  V30 2597 N 264.58 -0.43555 -1.51462 0
M  V30 2598 C 265.82 0.130708 -2.03982 0
M  V30 2599 C 266.184 1.40117 -1.31268 0
M  V30 2600 O 267.385 2.04755 -1.74152 0
M  V30 2601 C 265.656 0.346102 -3.5572 0
M  V30 2602 S 267.215 0.876022 -4.29967 0
M  V30 2603 H 264.033 0.0326881 -0.710248 0
M  V30 2604 H 266.635 -0.594544 -1.8624 0
M  V30 2605 H 265.339 -0.584911 -4.0621 0
M  V30 2606 H 264.87 1.09849 -3.77752 0
M  V30 2607 H 266.885 2.15379 -4.47019 0
M  V30 2608 N 266.058 1.56714 -0.166846 0
M  V30 2609 C 267.306 1.96358 0.478305 0
M  V30 2610 C 267.627 1.0537 1.6408 0
M  V30 2611 O 266.897 0.119154 1.95537 0
M  V30 2612 H 265.477 0.725065 0.179692 0
M  V30 2613 H 268.139 1.93329 -0.246985 0
M  V30 2614 H 267.235 3.00547 0.841292 0
M  V30 2615 N 267.536 -0.106894 1.57237 0
M  V30 2616 C 268.446 -1.14911 2.0453 0
M  V30 2617 C 269.462 -1.44592 0.96795 0
M  V30 2618 O 270.638 -1.55468 1.2803 0
M  V30 2619 C 267.703 -2.45272 2.45036 0
M  V30 2620 C 266.764 -2.22879 3.66911 0
M  V30 2621 C 265.997 -3.47024 4.05475 0
M  V30 2622 O 266.22 -4.54804 3.44252 0
M  V30 2623 O 265.154 -3.3731 4.98504 0
M  V30 2624 H 268.98 -0.777461 2.9358 0
M  V30 2625 H 266.565 -0.318563 1.45964 0
M  V30 2626 H 268.447 -3.22055 2.71769 0
M  V30 2627 H 267.122 -2.81886 1.59129 0
M  V30 2628 H 266.029 -1.43915 3.45311 0
M  V30 2629 H 267.362 -1.91163 4.53561 0
M  V30 2630 N 269.014 -1.53014 -0.377408 0
M  V30 2631 C 270.261 -1.68623 -1.12128 0
M  V30 2632 C 270.589 -0.431997 -1.89642 0
M  V30 2633 O 269.844 0.585855 -1.86725 0
M  V30 2634 C 270.143 -2.87982 -2.11663 0
M  V30 2635 C 269.809 -4.24964 -1.50719 0
M  V30 2636 C 268.471 -4.62217 -1.33825 0
M  V30 2637 C 270.823 -5.10199 -1.06519 0
M  V30 2638 C 268.151 -5.82352 -0.712963 0
M  V30 2639 C 270.503 -6.30969 -0.453955 0
M  V30 2640 C 269.167 -6.66944 -0.272411 0
M  V30 2641 H 268.437 -0.617034 -0.410305 0
M  V30 2642 H 271.084 -1.8718 -0.404484 0
M  V30 2643 H 269.389 -2.63889 -2.89603 0
M  V30 2644 H 271.086 -2.97253 -2.6915 0
M  V30 2645 H 267.676 -3.95626 -1.64858 0
M  V30 2646 H 271.86 -4.81978 -1.18368 0
M  V30 2647 H 267.116 -6.08824 -0.560611 0
M  V30 2648 H 271.29 -6.96324 -0.103217 0
M  V30 2649 H 268.917 -7.59898 0.214181 0
M  V30 2650 N 270.492 0.636531 -1.44174 0
M  V30 2651 C 271.739 1.39619 -1.46672 0
M  V30 2652 C 272.067 1.94257 -0.0972691 0
M  V30 2653 O 271.322 1.73768 0.900175 0
M  V30 2654 C 271.621 2.58309 -2.47005 0
M  V30 2655 C 271.287 2.21992 -3.92467 0
M  V30 2656 C 269.949 2.118 -4.32081 0
M  V30 2657 C 272.301 1.9321 -4.84065 0
M  V30 2658 C 269.629 1.71007 -5.61225 0
M  V30 2659 C 271.981 1.53911 -6.13591 0
M  V30 2660 C 270.645 1.42257 -6.52165 0
M  V30 2661 H 269.915 0.510902 -0.536712 0
M  V30 2662 H 272.562 0.722328 -1.77355 0
M  V30 2663 H 270.867 3.30903 -2.09786 0
M  V30 2664 H 272.564 3.16533 -2.46186 0
M  V30 2665 H 269.154 2.30841 -3.61124 0
M  V30 2666 H 273.338 1.99997 -4.54219 0
M  V30 2667 H 268.594 1.60583 -5.89935 0
M  V30 2668 H 272.768 1.30677 -6.8403 0
M  V30 2669 H 270.395 1.10419 -7.52138 0
M  V30 2670 N 271.97 1.30982 0.876444 0
M  V30 2671 C 273.218 1.20058 1.62575 0
M  V30 2672 C 273.539 -0.242947 1.93481 0
M  V30 2673 O 272.809 -1.1619 1.57724 0
M  V30 2674 H 271.389 0.44135 0.602677 0
M  V30 2675 H 274.051 1.64222 1.04962 0
M  V30 2676 H 273.147 1.76762 2.57219 0
M  V30 2677 N 273.449 -1.08991 1.13837 0
M  V30 2678 C 274.677 -1.85011 0.926202 0
M  V30 2679 C 275.092 -1.8135 -0.525127 0
M  V30 2680 O 274.449 -1.21287 -1.36366 0
M  V30 2681 C 274.5 -3.32802 1.41155 0
M  V30 2682 O 274.221 -3.36444 2.80601 0
M  V30 2683 C 275.722 -4.25649 1.23847 0
M  V30 2684 H 272.942 -0.584249 0.32999 0
M  V30 2685 H 275.486 -1.37688 1.51202 0
M  V30 2686 H 273.641 -3.77536 0.868631 0
M  V30 2687 H 274.055 -4.28657 3.02248 0
M  V30 2688 H 275.529 -5.27485 1.62675 0
M  V30 2689 H 276.006 -4.38828 0.18065 0
M  V30 2690 H 276.612 -3.86735 1.76964 0
M  V30 2691 N 274.927 -0.932562 -1.27047 0
M  V30 2692 C 276.175 -0.574422 -1.93765 0
M  V30 2693 C 276.496 0.887993 -1.73608 0
M  V30 2694 O 275.766 1.62999 -1.08665 0
M  V30 2695 H 274.346 -0.209451 -0.717035 0
M  V30 2696 H 277.008 -1.18601 -1.5466 0
M  V30 2697 H 276.104 -0.784841 -3.02071 0
M  V30 2698 N 276.405 1.4127 -0.698611 0
M  V30 2699 C 277.682 1.94955 -0.158762 0
M  V30 2700 C 278.062 1.63781 1.33188 0
M  V30 2701 O 277.41 0.946423 2.07979 0
M  V30 2702 C 277.62 3.46044 -0.453309 0
M  V30 2703 C 278.968 4.22872 -0.382707 0
M  V30 2704 O 279.992 3.54076 -0.388396 0
M  V30 2705 O 278.851 5.45407 -0.345463 0
M  V30 2706 H 275.945 0.82683 -0.0167505 0
M  V30 2707 H 278.491 1.50971 -0.77498 0
M  V30 2708 H 277.263 3.62028 -1.48498 0
M  V30 2709 H 276.886 3.97128 0.19373 0
M  V30 2710 N 277.883 0.443576 1.51229 0
M  V30 2711 C 279.131 -0.120557 2.0174 0
M  V30 2712 C 279.452 -1.42665 1.32935 0
M  V30 2713 O 278.722 -1.9028 0.465866 0
M  V30 2714 H 277.302 -0.0475426 0.745486 0
M  V30 2715 H 279.964 0.587711 1.85828 0
M  V30 2716 H 279.06 -0.291972 3.10731 0
M  V30 2717 N 279.361 -1.56624 0.175154 0
M  V30 2718 C 280.308 -2.18149 -0.753634 0
M  V30 2719 C 281.278 -1.12265 -1.22417 0
M  V30 2720 O 282.463 -1.40432 -1.29165 0
M  V30 2721 C 279.603 -2.82933 -1.97592 0
M  V30 2722 C 278.716 -4.03289 -1.5486 0
M  V30 2723 C 277.851 -4.55988 -2.72485 0
M  V30 2724 C 276.89 -5.68746 -2.26262 0
M  V30 2725 N 276.027 -6.15938 -3.36994 0
M  V30 2726 H 280.867 -2.9717 -0.222195 0
M  V30 2727 H 278.404 -1.46774 -0.0979422 0
M  V30 2728 H 280.362 -3.18653 -2.69288 0
M  V30 2729 H 278.992 -2.06509 -2.481 0
M  V30 2730 H 278.044 -3.73364 -0.728246 0
M  V30 2731 H 279.356 -4.849 -1.16933 0
M  V30 2732 H 278.51 -4.9391 -3.52332 0
M  V30 2733 H 277.249 -3.73443 -3.13674 0
M  V30 2734 H 276.254 -5.30372 -1.44863 0
M  V30 2735 H 277.479 -6.53095 -1.86127 0
M  V30 2736 H 275.425 -5.36321 -3.77751 0
M  V30 2737 H 275.342 -6.92548 -3.03172 0
M  V30 2738 H 276.61 -6.58511 -4.17114 0
M  V30 2739 N 280.839 0.0985539 -1.57292 0
M  V30 2740 C 281.771 1.14595 -1.98496 0
M  V30 2741 C 282.784 1.36512 -0.887031 0
M  V30 2742 O 283.973 1.35225 -1.16518 0
M  V30 2743 C 281.073 2.50216 -2.28572 0
M  V30 2744 C 280.246 2.48624 -3.59868 0
M  V30 2745 C 279.305 3.66146 -3.7792 0
M  V30 2746 O 278.331 3.48795 -4.49812 0
M  V30 2747 N 279.533 4.85496 -3.18235 0
M  V30 2748 H 282.298 0.795277 -2.88956 0
M  V30 2749 H 279.859 0.287579 -1.59325 0
M  V30 2750 H 281.851 3.27432 -2.37845 0
M  V30 2751 H 280.421 2.77387 -1.44136 0
M  V30 2752 H 279.641 1.56978 -3.61596 0
M  V30 2753 H 280.929 2.44635 -4.46129 0
M  V30 2754 H 280.327 5.02497 -2.59833 0
M  V30 2755 H 278.884 5.60317 -3.32999 0
M  V30 2756 N 282.317 1.53212 0.369288 0
M  V30 2757 C 283.563 1.70413 1.11046 0
M  V30 2758 C 283.918 0.448509 1.87099 0
M  V30 2759 O 283.211 -0.558382 1.83283 0
M  V30 2760 C 283.405 2.89101 2.10132 0
M  V30 2761 C 283.234 4.26084 1.43814 0
M  V30 2762 C 282.004 4.90994 1.19384 0
M  V30 2763 C 284.202 5.06754 0.877802 0
M  V30 2764 N 282.184 6.11911 0.49377 0
M  V30 2765 C 283.555 6.1924 0.306891 0
M  V30 2766 C 285.61 4.91814 0.776129 0
M  V30 2767 C 284.313 7.1842 -0.355774 0
M  V30 2768 C 286.339 5.91263 0.127252 0
M  V30 2769 C 285.701 7.03069 -0.432801 0
M  V30 2770 H 281.8 0.676872 0.391623 0
M  V30 2771 H 284.384 1.90603 0.397334 0
M  V30 2772 H 282.555 2.70456 2.78761 0
M  V30 2773 H 284.287 2.95142 2.76899 0
M  V30 2774 H 281.042 4.50074 1.47413 0
M  V30 2775 H 281.466 6.76813 0.159207 0
M  V30 2776 H 286.108 4.05564 1.19489 0
M  V30 2777 H 283.826 8.04264 -0.786499 0
M  V30 2778 H 287.412 5.81779 0.0495613 0
M  V30 2779 H 286.292 7.78702 -0.926958 0
M  V30 2780 N 283.795 -0.628877 1.44509 0
M  V30 2781 C 284.725 -1.75187 1.54376 0
M  V30 2782 C 285.706 -1.65411 0.396618 0
M  V30 2783 O 286.891 -1.84137 0.617031 0
M  V30 2784 C 284.021 -3.13725 1.48976 0
M  V30 2785 C 282.975 -3.38291 2.62189 0
M  V30 2786 C 282.301 -4.76883 2.41841 0
M  V30 2787 C 283.601 -3.30632 4.04326 0
M  V30 2788 H 285.295 -1.67187 2.48373 0
M  V30 2789 H 282.841 -0.802909 1.19538 0
M  V30 2790 H 284.794 -3.92064 1.54478 0
M  V30 2791 H 283.518 -3.22515 0.514961 0
M  V30 2792 H 282.177 -2.62334 2.56079 0
M  V30 2793 H 281.825 -4.82378 1.42548 0
M  V30 2794 H 281.525 -4.94278 3.17747 0
M  V30 2795 H 283.049 -5.57449 2.49165 0
M  V30 2796 H 284.463 -3.98873 4.11793 0
M  V30 2797 H 282.86 -3.59561 4.80454 0
M  V30 2798 H 283.93 -2.28404 4.27738 0
M  V30 2799 N 285.273 -1.31445 -0.869486 0
M  V30 2800 C 286.55 -1.11795 -1.60503 0
M  V30 2801 C 286.93 0.327168 -2.08549 0
M  V30 2802 O 286.278 1.32135 -1.8642 0
M  V30 2803 C 286.488 -2.13258 -2.76265 0
M  V30 2804 C 287.836 -2.45805 -3.46215 0
M  V30 2805 O 288.86 -2.11688 -2.86473 0
M  V30 2806 O 287.719 -3.04228 -4.5399 0
M  V30 2807 H 284.813 -0.430421 -0.706163 0
M  V30 2808 H 287.359 -1.42925 -0.914907 0
M  V30 2809 H 286.131 -3.10461 -2.3818 0
M  V30 2810 H 285.754 -1.83035 -3.52964 0
M  V30 2811 N 286.751 1.08385 -1.14413 0
M  V30 2812 C 288.028 1.77429 -0.823297 0
M  V30 2813 C 288.408 1.9974 0.683163 0
M  V30 2814 O 287.756 1.60739 1.62405 0
M  V30 2815 C 287.966 3.09004 -1.62227 0
M  V30 2816 C 289.314 3.83532 -1.82177 0
M  V30 2817 O 290.338 3.18786 -1.58915 0
M  V30 2818 O 289.197 4.99792 -2.21067 0
M  V30 2819 H 286.291 0.769999 -0.301712 0
M  V30 2820 H 288.837 1.14846 -1.24934 0
M  V30 2821 H 287.609 2.88316 -2.64555 0
M  V30 2822 H 287.232 3.79316 -1.19187 0
M  V30 2823 N 288.23 0.939286 1.26551 0
M  V30 2824 C 289.162 0.404704 2.25599 0
M  V30 2825 C 290.175 -0.470983 1.55838 0
M  V30 2826 O 291.364 -0.281734 1.76263 0
M  V30 2827 C 288.464 -0.43764 3.36062 0
M  V30 2828 C 287.637 0.421449 4.35365 0
M  V30 2829 C 286.696 -0.36015 5.24966 0
M  V30 2830 O 285.722 0.236167 5.6871 0
M  V30 2831 N 286.924 -1.65715 5.56344 0
M  V30 2832 H 289.689 1.25618 2.72103 0
M  V30 2833 H 287.25 0.807963 1.40298 0
M  V30 2834 H 289.242 -0.967866 3.92956 0
M  V30 2835 H 287.812 -1.18991 2.89067 0
M  V30 2836 H 287.032 1.1329 3.7757 0
M  V30 2837 H 288.32 1.00835 4.98708 0
M  V30 2838 H 287.718 -2.16378 5.22682 0
M  V30 2839 H 286.275 -2.13366 6.15888 0
M  V30 2840 N 289.708 -1.40897 0.706093 0
M  V30 2841 C 290.955 -2.01054 0.241531 0
M  V30 2842 C 291.283 -1.55956 -1.16223 0
M  V30 2843 O 290.538 -0.766336 -1.80072 0
M  V30 2844 C 290.837 -3.5646 0.259099 0
M  V30 2845 C 290.503 -4.21106 1.61184 0
M  V30 2846 C 289.165 -4.38479 1.98216 0
M  V30 2847 C 291.517 -4.57256 2.50132 0
M  V30 2848 C 288.845 -4.89282 3.2376 0
M  V30 2849 C 291.197 -5.09454 3.7502 0
M  V30 2850 C 289.861 -5.25037 4.12181 0
M  V30 2851 H 289.131 -0.73571 0.0883825 0
M  V30 2852 H 291.778 -1.68645 0.907257 0
M  V30 2853 H 290.083 -3.88721 -0.490189 0
M  V30 2854 H 291.78 -4.00826 -0.11804 0
M  V30 2855 H 288.37 -4.07966 1.31384 0
M  V30 2856 H 292.554 -4.43479 2.228 0
M  V30 2857 H 287.81 -4.99531 3.52532 0
M  V30 2858 H 291.984 -5.36404 4.44121 0
M  V30 2859 H 289.611 -5.64164 5.09532 0
M  V30 2860 N 291.186 -0.45159 -1.50991 0
M  V30 2861 C 292.096 0.358431 -2.31846 0
M  V30 2862 C 293.112 1.01438 -1.41373 0
M  V30 2863 O 294.288 1.00663 -1.74439 0
M  V30 2864 C 291.353 1.43704 -3.15515 0
M  V30 2865 C 290.414 0.799742 -4.21785 0
M  V30 2866 C 289.647 1.82696 -5.01456 0
M  V30 2867 O 289.87 3.05105 -4.81941 0
M  V30 2868 O 288.804 1.40958 -5.85162 0
M  V30 2869 H 292.63 -0.302032 -3.02194 0
M  V30 2870 H 290.215 -0.213825 -1.47862 0
M  V30 2871 H 292.097 2.06227 -3.67489 0
M  V30 2872 H 290.772 2.08133 -2.47916 0
M  V30 2873 H 289.679 0.136084 -3.73852 0
M  V30 2874 H 291.012 0.198718 -4.91799 0
M  V30 2875 N 292.664 1.56529 -0.183458 0
M  V30 2876 C 294.08 1.58664 0.172554 0
M  V30 2877 C 294.28 1.19925 1.61926 0
M  V30 2878 O 293.336 0.916534 2.35278 0
M  V30 2879 C 294.649 3.00463 -0.119262 0
M  V30 2880 C 296.197 3.12945 -0.0584396 0
M  V30 2881 C 296.672 4.56857 -0.323408 0
M  V30 2882 N 298.163 4.62403 -0.271612 0
M  V30 2883 C 298.898 5.71626 -0.450639 0
M  V30 2884 N 298.394 6.89362 -0.689384 0
M  V30 2885 N 300.187 5.60775 -0.385701 0
M  V30 2886 H 292.338 1.79994 -1.12765 0
M  V30 2887 H 294.601 0.834808 -0.449222 0
M  V30 2888 H 294.307 3.33326 -1.12192 0
M  V30 2889 H 294.181 3.72659 0.583544 0
M  V30 2890 H 296.568 2.79902 0.934805 0
M  V30 2891 H 296.649 2.4316 -0.794144 0
M  V30 2892 H 296.293 4.9061 -1.31392 0
M  V30 2893 H 296.223 5.24816 0.43305 0
M  V30 2894 H 298.714 3.77785 -0.0932256 0
M  V30 2895 H 299.027 7.68489 -0.815113 0
M  V30 2896 H 297.372 6.91196 -0.726142 0
M  V30 2897 H 300.563 4.67674 -0.199687 0
M  V30 2898 H 300.736 6.4584 -0.528646 0
M  V30 2899 N 294.142 -0.090211 1.57342 0
M  V30 2900 C 295.388 -0.793982 1.86611 0
M  V30 2901 C 295.721 -1.78142 0.773252 0
M  V30 2902 O 294.996 -1.93271 -0.218304 0
M  V30 2903 C 295.279 -1.51839 3.26523 0
M  V30 2904 C 295.132 -0.548609 4.46442 0
M  V30 2905 C 296.451 -2.46779 3.64401 0
M  V30 2906 H 293.57 -0.287186 0.678744 0
M  V30 2907 H 296.212 -0.0575076 1.89913 0
M  V30 2908 H 294.362 -2.14617 3.23839 0
M  V30 2909 H 296.034 0.0725513 4.61243 0
M  V30 2910 H 294.277 0.137614 4.33582 0
M  V30 2911 H 294.948 -1.09271 5.41076 0
M  V30 2912 H 297.424 -1.94089 3.68061 0
M  V30 2913 H 296.3 -2.94479 4.63221 0
M  V30 2914 H 296.561 -3.30758 2.93346 0
M  V30 2915 N 295.62 -1.53406 -0.361157 0
M  V30 2916 C 296.868 -1.69467 -1.10115 0
M  V30 2917 C 297.189 -0.451352 -1.89705 0
M  V30 2918 O 296.459 0.534636 -1.88463 0
M  V30 2919 H 295.039 -0.624749 -0.409508 0
M  V30 2920 H 297.701 -1.90609 -0.406699 0
M  V30 2921 H 296.797 -2.55774 -1.78847 0
M  V30 2922 N 297.098 0.621204 -1.44841 0
M  V30 2923 C 298.061 1.71459 -1.521 0
M  V30 2924 C 299.061 1.55696 -0.401933 0
M  V30 2925 O 300.251 1.61011 -0.664925 0
M  V30 2926 C 297.383 3.10624 -1.40447 0
M  V30 2927 H 298.576 1.66394 -2.49506 0
M  V30 2928 H 296.129 0.835745 -1.3208 0
M  V30 2929 H 296.864 3.21277 -0.441737 0
M  V30 2930 H 296.649 3.23473 -2.21602 0
M  V30 2931 H 298.139 3.90293 -1.4853 0
M  V30 2932 N 298.576 1.31904 0.862503 0
M  V30 2933 C 299.486 1.22161 2.00285 0
M  V30 2934 C 300.502 0.136785 1.73462 0
M  V30 2935 O 301.678 0.355994 1.98229 0
M  V30 2936 C 298.743 0.937093 3.33796 0
M  V30 2937 C 297.804 2.10957 3.73893 0
M  V30 2938 C 297.037 1.83853 5.01033 0
M  V30 2939 O 297.26 0.777274 5.65079 0
M  V30 2940 O 296.194 2.69741 5.38074 0
M  V30 2941 H 300.02 2.18008 2.11439 0
M  V30 2942 H 297.605 1.11716 0.991957 0
M  V30 2943 H 299.487 0.794583 4.13841 0
M  V30 2944 H 298.162 0.00871894 3.23699 0
M  V30 2945 H 297.069 2.30752 2.94456 0
M  V30 2946 H 298.402 3.02046 3.88625 0
M  V30 2947 N 300.054 -1.07777 1.14986 0
M  V30 2948 C 300.984 -2.16865 0.865557 0
M  V30 2949 C 301.965 -1.69123 -0.182083 0
M  V30 2950 O 303.15 -1.94164 -0.0373815 0
M  V30 2951 C 300.28 -3.45539 0.349313 0
M  V30 2952 C 299.234 -4.06708 1.33313 0
M  V30 2953 C 298.56 -5.30411 0.675918 0
M  V30 2954 C 299.86 -4.47241 2.69764 0
M  V30 2955 H 301.554 -2.40905 1.77778 0
M  V30 2956 H 299.1 -1.15781 0.856203 0
M  V30 2957 H 301.053 -4.21174 0.137983 0
M  V30 2958 H 299.777 -3.21072 -0.598362 0
M  V30 2959 H 298.436 -3.33112 1.53075 0
M  V30 2960 H 298.084 -5.02232 -0.277767 0
M  V30 2961 H 297.784 -5.72293 1.33244 0
M  V30 2962 H 299.308 -6.08755 0.474262 0
M  V30 2963 H 300.722 -5.14025 2.53873 0
M  V30 2964 H 299.119 -5.00062 3.3175 0
M  V30 2965 H 300.189 -3.58818 3.26156 0
M  V30 2966 N 301.532 -0.945985 -1.26051 0
M  V30 2967 C 302.442 -0.465633 -2.29933 0
M  V30 2968 C 303.458 0.462761 -1.67733 0
M  V30 2969 O 304.634 0.341118 -1.9849 0
M  V30 2970 C 301.699 0.256994 -3.45746 0
M  V30 2971 C 300.76 -0.708549 -4.23412 0
M  V30 2972 C 299.993 -0.0203135 -5.33696 0
M  V30 2973 O 300.216 1.19571 -5.57726 0
M  V30 2974 O 299.15 -0.701459 -5.97799 0
M  V30 2975 H 302.976 -1.32866 -2.73094 0
M  V30 2976 H 300.561 -0.712071 -1.31339 0
M  V30 2977 H 302.443 0.663852 -4.16138 0
M  V30 2978 H 301.118 1.09533 -3.04605 0
M  V30 2979 H 300.025 -1.16545 -3.55483 0
M  V30 2980 H 301.358 -1.51465 -4.68315 0
M  V30 2981 N 303.011 1.40521 -0.713556 0
M  V30 2982 C 303.921 2.34522 -0.0606667 0
M  V30 2983 C 304.937 1.57193 0.74607 0
M  V30 2984 O 306.113 1.89591 0.679493 0
M  V30 2985 C 303.178 3.36081 0.851491 0
M  V30 2986 C 302.239 4.29286 0.0349339 0
M  V30 2987 C 301.472 5.25994 0.903649 0
M  V30 2988 O 301.695 5.28616 2.14292 0
M  V30 2989 O 300.629 6.00918 0.343723 0
M  V30 2990 H 304.455 2.91968 -0.835972 0
M  V30 2991 H 302.04 1.41681 -0.47402 0
M  V30 2992 H 303.922 3.98369 1.37404 0
M  V30 2993 H 302.597 2.81052 1.60598 0
M  V30 2994 H 301.504 3.70289 -0.532633 0
M  V30 2995 H 302.837 4.87462 -0.681287 0
M  V30 2996 N 304.489 0.459591 1.5075 0
M  V30 2997 C 305.419 -0.330644 2.31147 0
M  V30 2998 C 306.4 -1.00087 1.37538 0
M  V30 2999 O 307.585 -1.00025 1.66459 0
M  V30 3000 C 304.715 -1.41958 3.16962 0
M  V30 3001 C 303.669 -0.871608 4.19031 0
M  V30 3002 C 302.995 -2.05797 4.9351 0
M  V30 3003 C 304.295 0.109251 5.22186 0
M  V30 3004 H 305.989 0.340336 2.97459 0
M  V30 3005 H 303.535 0.165119 1.4305 0
M  V30 3006 H 305.488 -1.9798 3.71997 0
M  V30 3007 H 304.212 -2.11917 2.48513 0
M  V30 3008 H 302.871 -0.333442 3.6508 0
M  V30 3009 H 302.519 -2.74427 4.21544 0
M  V30 3010 H 302.219 -1.6976 5.62544 0
M  V30 3011 H 303.743 -2.62331 5.51375 0
M  V30 3012 H 305.157 -0.361405 5.7216 0
M  V30 3013 H 303.554 0.383316 5.98875 0
M  V30 3014 H 304.624 1.03887 4.73641 0
M  V30 3015 N 305.967 -1.56429 0.191757 0
M  V30 3016 C 306.897 -2.21937 -0.725696 0
M  V30 3017 C 307.878 -1.1814 -1.2238 0
M  V30 3018 O 309.063 -1.46636 -1.27325 0
M  V30 3019 C 306.193 -2.87611 -1.94672 0
M  V30 3020 C 305.147 -3.97623 -1.58366 0
M  V30 3021 C 304.473 -4.50446 -2.88102 0
M  V30 3022 C 305.773 -5.16197 -0.796133 0
M  V30 3023 H 307.467 -2.98861 -0.179606 0
M  V30 3024 H 305.013 -1.43749 -0.0849464 0
M  V30 3025 H 306.966 -3.3212 -2.59373 0
M  V30 3026 H 305.69 -2.08087 -2.51728 0
M  V30 3027 H 304.349 -3.53801 -0.960247 0
M  V30 3028 H 303.997 -3.67688 -3.43241 0
M  V30 3029 H 303.697 -5.24675 -2.64556 0
M  V30 3030 H 305.221 -4.97654 -3.53798 0
M  V30 3031 H 306.635 -5.57271 -1.34618 0
M  V30 3032 H 305.032 -5.96471 -0.658928 0
M  V30 3033 H 306.102 -4.84473 0.203478 0
M  V30 3034 N 307.445 0.0818655 -1.57387 0
M  V30 3035 C 308.722 0.815343 -1.77796 0
M  V30 3036 C 309.102 1.96289 -0.77679 0
M  V30 3037 O 308.45 2.27691 0.192106 0
M  V30 3038 C 308.66 1.29765 -3.23978 0
M  V30 3039 C 310.008 1.7351 -3.8753 0
M  V30 3040 O 311.032 1.39356 -3.27808 0
M  V30 3041 O 309.891 2.36708 -4.92576 0
M  V30 3042 H 306.985 0.389914 -0.729312 0
M  V30 3043 H 309.531 0.0627213 -1.69584 0
M  V30 3044 H 308.303 0.47608 -3.88393 0
M  V30 3045 H 307.926 2.11189 -3.36875 0
M  V30 3046 N 308.923 1.53595 0.353017 0
M  V30 3047 C 310.339 1.43648 0.695516 0
M  V30 3048 C 310.539 0.585617 1.92802 0
M  V30 3049 O 309.595 0.0729223 2.52395 0
M  V30 3050 C 310.908 2.8701 0.896991 0
M  V30 3051 C 312.456 2.96723 0.996209 0
M  V30 3052 C 312.931 4.41173 1.23007 0
M  V30 3053 N 314.422 4.44657 1.29749 0
M  V30 3054 C 315.157 5.53547 1.49577 0
M  V30 3055 N 314.653 6.72461 1.66639 0
M  V30 3056 N 316.446 5.41145 1.52048 0
M  V30 3057 H 308.597 2.07415 -0.457481 0
M  V30 3058 H 310.86 0.9372 -0.142687 0
M  V30 3059 H 310.566 3.51644 0.0629938 0
M  V30 3060 H 310.44 3.31401 1.80148 0
M  V30 3061 H 312.827 2.32235 1.82074 0
M  V30 3062 H 312.908 2.55707 0.0688331 0
M  V30 3063 H 312.552 5.06238 0.410505 0
M  V30 3064 H 312.482 4.79772 2.17086 0
M  V30 3065 H 314.973 3.58963 1.18126 0
M  V30 3066 H 315.286 7.51214 1.81378 0
M  V30 3067 H 313.631 6.75423 1.63794 0
M  V30 3068 H 316.822 4.47205 1.38294 0
M  V30 3069 H 316.995 6.26068 1.67159 0
M  V30 3070 N 310.401 -0.613514 1.45168 0
M  V30 3071 C 311.65 -1.36874 1.4815 0
M  V30 3072 C 311.963 -1.952 0.124982 0
M  V30 3073 O 313.169 -2.71481 0.0324176 0
M  V30 3074 C 311.625 -2.47905 2.60904 0
M  V30 3075 C 311.233 -1.96016 4.02842 0
M  V30 3076 C 312.977 -3.24965 2.73126 0
M  V30 3077 C 310.884 -3.04494 5.06988 0
M  V30 3078 H 309.814 -0.514428 0.551253 0
M  V30 3079 H 312.465 -0.658182 1.7129 0
M  V30 3080 H 310.847 -3.21618 2.31037 0
M  V30 3081 H 312.021 -1.29051 4.4236 0
M  V30 3082 H 310.336 -1.31719 3.95018 0
M  V30 3083 H 312.933 -4.05865 3.48106 0
M  V30 3084 H 313.276 -3.75588 1.79553 0
M  V30 3085 H 313.809 -2.5835 3.0249 0
M  V30 3086 H 310.548 -2.58795 6.0225 0
M  V30 3087 H 310.068 -3.70044 4.72046 0
M  V30 3088 H 311.747 -3.68976 5.31475 0
M  V30 3089 N 311.879 -1.3236 -0.855495 0
M  V30 3090 C 313.127 -1.22629 -1.60644 0
M  V30 3091 C 313.448 0.212136 -1.93843 0
M  V30 3092 O 312.718 1.13666 -1.59552 0
M  V30 3093 H 311.298 -0.450882 -0.595579 0
M  V30 3094 H 313.96 -1.65871 -1.02337 0
M  V30 3095 H 313.056 -1.80832 -2.54374 0
M  V30 3096 N 313.357 1.07166 -1.15556 0
M  V30 3097 C 314.587 1.83248 -0.954133 0
M  V30 3098 C 314.995 1.82449 0.500911 0
M  V30 3099 O 314.338 1.23575 1.35923 0
M  V30 3100 C 314.4 3.31393 -1.39351 0
M  V30 3101 C 314.064 3.5591 -2.86666 0
M  V30 3102 C 315.061 3.49695 -3.8472 0
M  V30 3103 C 312.746 3.83515 -3.24379 0
M  V30 3104 C 314.74 3.70737 -5.18491 0
M  V30 3105 C 312.427 4.04209 -4.58321 0
M  V30 3106 C 313.425 3.97815 -5.55186 0
M  V30 3107 O 313.113 4.17954 -6.86709 0
M  V30 3108 H 312.845 0.584941 -0.338851 0
M  V30 3109 H 315.399 1.36169 -1.53777 0
M  V30 3110 H 313.629 3.79292 -0.75329 0
M  V30 3111 H 315.318 3.88945 -1.16089 0
M  V30 3112 H 316.084 3.28368 -3.56931 0
M  V30 3113 H 311.963 3.87605 -2.49567 0
M  V30 3114 H 315.507 3.65663 -5.94085 0
M  V30 3115 H 311.404 4.25023 -4.85825 0
M  V30 3116 H 312.172 4.35291 -6.93155 0
M  V30 3117 N 314.835 0.952656 1.25548 0
M  V30 3118 C 316.082 0.606373 1.93208 0
M  V30 3119 C 316.41 -0.85631 1.74636 0
M  V30 3120 O 315.665 -1.62951 1.08376 0
M  V30 3121 C 315.964 0.908818 3.45652 0
M  V30 3122 C 315.63 2.35722 3.84378 0
M  V30 3123 C 314.292 2.75312 3.9466 0
M  V30 3124 C 316.644 3.29793 4.03591 0
M  V30 3125 C 313.972 4.08047 4.21562 0
M  V30 3126 C 316.324 4.62138 4.31985 0
M  V30 3127 C 314.988 5.01528 4.40484 0
M  V30 3128 H 314.258 0.221888 0.706998 0
M  V30 3129 H 316.905 1.20132 1.49133 0
M  V30 3130 H 315.21 0.231456 3.91116 0
M  V30 3131 H 316.907 0.619498 3.96186 0
M  V30 3132 H 313.497 2.04017 3.76928 0
M  V30 3133 H 317.681 3.00397 3.95064 0
M  V30 3134 H 312.937 4.38212 4.26357 0
M  V30 3135 H 317.111 5.35012 4.45797 0
M  V30 3136 H 314.738 6.04406 4.61083 0
M  V30 3137 N 316.313 -1.40141 0.720998 0
M  V30 3138 C 317.276 -2.29058 0.0805834 0
M  V30 3139 C 318.276 -1.45632 -0.681758 0
M  V30 3140 O 319.466 -1.6648 -0.512856 0
M  V30 3141 C 316.598 -3.28925 -0.895593 0
M  V30 3142 H 317.791 -2.87191 0.863793 0
M  V30 3143 H 315.344 -1.48553 0.485975 0
M  V30 3144 H 316.079 -2.75822 -1.70566 0
M  V30 3145 H 315.864 -3.90519 -0.351766 0
M  V30 3146 H 317.354 -3.95494 -1.34069 0
M  V30 3147 N 317.792 -0.46758 -1.50504 0
M  V30 3148 C 319.203 -0.0116166 -1.86696 0
M  V30 3149 C 319.554 1.39202 -1.38265 0
M  V30 3150 O 318.679 2.0313 -0.746132 0
M  V30 3151 C 319.274 -0.0143044 -3.38797 0
M  V30 3152 C 317.833 0.386175 -3.74414 0
M  V30 3153 C 316.98 -0.401287 -2.74381 0
M  V30 3154 H 319.931 -0.682022 -1.43297 0
M  V30 3155 H 319.952 0.788641 -3.72237 0
M  V30 3156 H 319.464 -1.03602 -3.74016 0
M  V30 3157 H 317.565 1.41237 -3.44794 0
M  V30 3158 H 317.678 0.0899596 -4.79016 0
M  V30 3159 H 316.042 0.144536 -2.5429 0
M  V30 3160 H 316.825 -1.42244 -3.12444 0
M  V30 3161 N 319.27 1.56325 -0.20005 0
M  V30 3162 C 320.547 1.89484 0.48529 0
M  V30 3163 C 320.927 1.1143 1.79294 0
M  V30 3164 O 320.275 0.216919 2.27468 0
M  V30 3165 C 320.485 3.41923 0.699243 0
M  V30 3166 C 321.833 4.12256 1.01638 0
M  V30 3167 O 322.857 3.47402 0.786792 0
M  V30 3168 O 321.716 5.26887 1.45095 0
M  V30 3169 H 318.81 0.787144 0.253639 0
M  V30 3170 H 321.356 1.67985 -0.240633 0
M  V30 3171 H 320.128 3.90658 -0.224008 0
M  V30 3172 H 319.751 3.69131 1.47744 0
M  V30 3173 N 320.748 -0.0735177 1.57428 0
M  V30 3174 C 321.711 -1.07192 2.02589 0
M  V30 3175 C 322.711 -1.31695 0.922661 0
M  V30 3176 O 323.901 -1.27445 1.18758 0
M  V30 3177 C 321.033 -2.41599 2.40506 0
M  V30 3178 H 322.226 -0.682727 2.92025 0
M  V30 3179 H 319.779 -0.319193 1.53006 0
M  V30 3180 H 320.514 -2.85354 1.5409 0
M  V30 3181 H 320.299 -2.25156 3.21009 0
M  V30 3182 H 321.789 -3.13367 2.76027 0
M  V30 3183 N 322.226 -1.5378 -0.344866 0
M  V30 3184 C 323.173 -1.81676 -1.42346 0
M  V30 3185 C 324.143 -0.662376 -1.52321 0
M  V30 3186 O 325.328 -0.906675 -1.67881 0
M  V30 3187 C 322.468 -2.03087 -2.79015 0
M  V30 3188 C 321.581 -3.30799 -2.77842 0
M  V30 3189 C 320.716 -3.42285 -4.0622 0
M  V30 3190 C 319.755 -4.6395 -3.9927 0
M  V30 3191 N 318.892 -4.72477 -5.19336 0
M  V30 3192 H 323.732 -2.73703 -1.17858 0
M  V30 3193 H 321.269 -1.35568 -0.570949 0
M  V30 3194 H 323.227 -2.1349 -3.58438 0
M  V30 3195 H 321.857 -1.14375 -3.01858 0
M  V30 3196 H 320.909 -3.29244 -1.90533 0
M  V30 3197 H 322.221 -4.20314 -2.68584 0
M  V30 3198 H 321.375 -3.52113 -4.94066 0
M  V30 3199 H 320.114 -2.50823 -4.18258 0
M  V30 3200 H 319.119 -4.54201 -3.09809 0
M  V30 3201 H 320.344 -5.56775 -3.88817 0
M  V30 3202 H 318.29 -3.83924 -5.3192 0
M  V30 3203 H 318.207 -5.55927 -5.12329 0
M  V30 3204 H 319.475 -4.86613 -6.08957 0
M  V30 3205 N 323.704 0.605807 -1.45491 0
M  V30 3206 C 325.12 0.926751 -1.29936 0
M  V30 3207 C 325.32 1.99896 -0.253706 0
M  V30 3208 O 324.376 2.50038 0.351737 0
M  V30 3209 C 325.689 1.36599 -2.67883 0
M  V30 3210 C 327.237 1.4801 -2.75793 0
M  V30 3211 C 327.712 1.95309 -4.14268 0
M  V30 3212 N 329.203 2.0254 -4.16571 0
M  V30 3213 C 329.938 2.40363 -5.20589 0
M  V30 3214 N 329.434 2.77143 -6.34952 0
M  V30 3215 N 331.227 2.40718 -5.07948 0
M  V30 3216 H 323.378 -0.102862 -2.12151 0
M  V30 3217 H 325.641 0.016639 -0.947854 0
M  V30 3218 H 325.347 0.652306 -3.45598 0
M  V30 3219 H 325.221 2.33215 -2.96463 0
M  V30 3220 H 327.608 2.1847 -1.98381 0
M  V30 3221 H 327.689 0.497041 -2.50925 0
M  V30 3222 H 327.333 1.25436 -4.92167 0
M  V30 3223 H 327.263 2.94532 -4.3653 0
M  V30 3224 H 329.754 1.76699 -3.34045 0
M  V30 3225 H 330.067 3.0489 -7.10114 0
M  V30 3226 H 328.412 2.74834 -6.3835 0
M  V30 3227 H 331.603 2.11392 -4.1765 0
M  V30 3228 H 331.776 2.69869 -5.89131 0
M  V30 3229 N 325.182 1.32811 0.848464 0
M  V30 3230 C 326.428 1.23907 1.60546 0
M  V30 3231 C 326.761 -0.197161 1.93197 0
M  V30 3232 O 326.036 -1.13596 1.5788 0
M  V30 3233 C 326.319 2.10489 2.92175 0
M  V30 3234 C 326.172 3.62522 2.66266 0
M  V30 3235 C 327.491 1.97075 3.93509 0
M  V30 3236 H 324.61 0.451459 0.58254 0
M  V30 3237 H 327.252 1.62818 0.979296 0
M  V30 3238 H 325.402 1.77434 3.45614 0
M  V30 3239 H 327.074 4.05821 2.19334 0
M  V30 3240 H 325.317 3.84879 2.00126 0
M  V30 3241 H 325.988 4.18437 3.6002 0
M  V30 3242 H 328.464 2.26045 3.49346 0
M  V30 3243 H 327.34 2.59923 4.83457 0
M  V30 3244 H 327.601 0.940186 4.31987 0
M  V30 3245 N 326.66 -1.06551 1.16123 0
M  V30 3246 C 327.59 -2.15935 0.88851 0
M  V30 3247 C 328.571 -1.69306 -0.164135 0
M  V30 3248 O 329.756 -1.94193 -0.0167857 0
M  V30 3249 C 326.886 -3.45149 0.385942 0
M  V30 3250 C 325.84 -4.05271 1.3762 0
M  V30 3251 C 325.166 -5.29664 0.732137 0
M  V30 3252 C 326.466 -4.44355 2.74493 0
M  V30 3253 H 328.16 -2.39006 1.80323 0
M  V30 3254 H 325.706 -1.14866 0.868435 0
M  V30 3255 H 327.659 -4.21004 0.182647 0
M  V30 3256 H 326.383 -3.21689 -0.564274 0
M  V30 3257 H 325.042 -3.3147 1.56599 0
M  V30 3258 H 324.69 -5.02499 -0.224483 0
M  V30 3259 H 324.39 -5.70848 1.39307 0
M  V30 3260 H 325.914 -6.08218 0.538802 0
M  V30 3261 H 327.328 -5.11303 2.59311 0
M  V30 3262 H 325.725 -4.96515 3.37035 0
M  V30 3263 H 326.795 -3.55339 3.29943 0
M  V30 3264 N 328.138 -0.959301 -1.25041 0
M  V30 3265 C 329.384 -0.617525 -1.9317 0
M  V30 3266 C 329.717 0.843981 -1.74902 0
M  V30 3267 O 328.992 1.60615 -1.09696 0
M  V30 3268 C 329.275 -0.982736 -3.46431 0
M  V30 3269 C 329.128 -2.50032 -3.73904 0
M  V30 3270 C 330.447 -0.511176 -4.37121 0
M  V30 3271 H 327.566 -0.22582 -0.701552 0
M  V30 3272 H 330.208 -1.19679 -1.4757 0
M  V30 3273 H 328.358 -0.489806 -3.854 0
M  V30 3274 H 330.03 -3.06737 -3.44544 0
M  V30 3275 H 328.273 -2.93598 -3.19348 0
M  V30 3276 H 328.944 -2.70635 -4.81103 0
M  V30 3277 H 331.42 -0.934075 -4.0548 0
M  V30 3278 H 330.296 -0.795361 -5.43107 0
M  V30 3279 H 330.557 0.588834 -4.38161 0
M  V30 3280 N 329.616 1.39756 -0.72842 0
M  V30 3281 C 330.864 2.00248 -0.272946 0
M  V30 3282 C 331.185 1.58077 1.14178 0
M  V30 3283 O 330.455 0.826014 1.77634 0
M  V30 3284 H 329.035 0.740554 -0.0979247 0
M  V30 3285 H 331.697 1.70903 -0.936912 0
M  V30 3286 H 330.793 3.10495 -0.316142 0
M  V30 3287 N 331.094 0.475555 1.50254 0
M  V30 3288 C 332.324 -0.0753399 2.06463 0
M  V30 3289 C 332.732 -1.33661 1.33908 0
M  V30 3290 O 332.075 -1.79219 0.403257 0
M  V30 3291 C 332.137 -0.424921 3.5698 0
M  V30 3292 C 331.801 0.734965 4.51051 0
M  V30 3293 C 332.798 1.61827 4.94073 0
M  V30 3294 C 330.483 0.926557 4.9368 0
M  V30 3295 C 332.477 2.67754 5.78434 0
M  V30 3296 C 330.164 1.98904 5.77824 0
M  V30 3297 C 331.162 2.8629 6.20103 0
M  V30 3298 O 330.85 3.90708 7.02568 0
M  V30 3299 H 330.582 0.00576308 0.675975 0
M  V30 3300 H 333.136 0.664662 1.94349 0
M  V30 3301 H 331.366 -1.21817 3.67012 0
M  V30 3302 H 333.055 -0.911422 3.95535 0
M  V30 3303 H 333.821 1.48196 4.61804 0
M  V30 3304 H 329.7 0.25584 4.6029 0
M  V30 3305 H 333.244 3.35992 6.11355 0
M  V30 3306 H 329.141 2.12541 6.09505 0
M  V30 3307 H 329.909 3.87751 7.20827 0
M  V30 3308 N 332.573 -1.56217 0.208337 0
M  V30 3309 C 333.984 -1.84243 -0.301904 0
M  V30 3310 C 334.335 -1.12939 -1.60434 0
M  V30 3311 O 333.46 -0.39461 -2.12772 0
M  V30 3312 C 334.055 -3.34231 -0.554543 0
M  V30 3313 C 332.614 -3.62621 -1.00912 0
M  V30 3314 C 331.761 -2.77224 -0.064933 0
M  V30 3315 H 334.712 -1.52712 0.431833 0
M  V30 3316 H 334.733 -3.5372 -1.40223 0
M  V30 3317 H 334.245 -3.86099 0.393561 0
M  V30 3318 H 332.346 -3.16197 -1.97104 0
M  V30 3319 H 332.459 -4.7071 -0.892674 0
M  V30 3320 H 330.823 -2.48256 -0.56929 0
M  V30 3321 H 331.606 -3.31887 0.877851 0
M  V30 3322 N 334.051 0.0651679 -1.57465 0
M  V30 3323 C 335.467 0.420105 -1.53972 0
M  V30 3324 C 335.667 1.78782 -0.929474 0
M  V30 3325 O 334.723 2.46771 -0.534839 0
M  V30 3326 C 336.036 0.355084 -2.98596 0
M  V30 3327 C 337.584 0.434792 -3.09965 0
M  V30 3328 C 338.059 0.399609 -4.56253 0
M  V30 3329 N 339.55 0.459488 -4.60915 0
M  V30 3330 C 340.285 0.454584 -5.71595 0
M  V30 3331 N 339.781 0.404102 -6.9162 0
M  V30 3332 N 341.574 0.501635 -5.59857 0
M  V30 3333 H 333.725 -0.830328 -1.95498 0
M  V30 3334 H 335.988 -0.312244 -0.895102 0
M  V30 3335 H 335.694 -0.583357 -3.46828 0
M  V30 3336 H 335.568 1.16275 -3.58831 0
M  V30 3337 H 337.955 1.36366 -2.61703 0
M  V30 3338 H 338.036 -0.40157 -2.52628 0
M  V30 3339 H 337.68 -0.525436 -5.05175 0
M  V30 3340 H 337.61 1.25359 -5.11461 0
M  V30 3341 H 340.101 0.502482 -3.74544 0
M  V30 3342 H 340.414 0.404468 -7.71741 0
M  V30 3343 H 338.759 0.37069 -6.94011 0
M  V30 3344 H 341.95 0.538812 -4.64989 0
M  V30 3345 H 342.123 0.494345 -6.46112 0
M  V30 3346 N 335.529 1.53961 0.336706 0
M  V30 3347 C 336.459 1.85417 1.41925 0
M  V30 3348 C 337.44 0.709856 1.5458 0
M  V30 3349 O 338.625 0.962396 1.68676 0
M  V30 3350 C 335.755 2.06985 2.78881 0
M  V30 3351 C 334.709 3.22813 2.81026 0
M  V30 3352 C 334.035 3.29727 4.20932 0
M  V30 3353 C 335.335 4.60767 2.45949 0
M  V30 3354 H 337.029 2.76079 1.15848 0
M  V30 3355 H 334.575 1.32839 0.555859 0
M  V30 3356 H 336.528 2.27575 3.54665 0
M  V30 3357 H 335.252 1.13061 3.06406 0
M  V30 3358 H 333.911 3.0209 2.07695 0
M  V30 3359 H 333.559 2.33385 4.45579 0
M  V30 3360 H 333.259 4.07566 4.23277 0
M  V30 3361 H 334.783 3.52536 4.98549 0
M  V30 3362 H 336.197 4.81325 3.11446 0
M  V30 3363 H 334.594 5.4106 2.59566 0
M  V30 3364 H 335.664 4.6391 1.41122 0
M  V30 3365 N 337.007 -0.598083 1.45811 0
M  V30 3366 C 338.253 -1.35882 1.50545 0
M  V30 3367 C 338.586 -1.93616 0.150445 0
M  V30 3368 O 337.861 -1.75604 -0.83628 0
M  V30 3369 C 338.144 -2.49966 2.59208 0
M  V30 3370 C 337.997 -1.97367 4.04186 0
M  V30 3371 C 339.316 -3.52068 2.64076 0
M  V30 3372 H 336.435 -0.492717 0.548087 0
M  V30 3373 H 339.077 -0.673319 1.77669 0
M  V30 3374 H 337.227 -3.08443 2.3621 0
M  V30 3375 H 338.899 -1.43466 4.38423 0
M  V30 3376 H 337.142 -1.283 4.14393 0
M  V30 3377 H 337.813 -2.79649 4.75921 0
M  V30 3378 H 340.289 -3.03448 2.84708 0
M  V30 3379 H 339.165 -4.2937 3.41954 0
M  V30 3380 H 339.426 -4.08304 1.69531 0
M  V30 3381 N 338.485 -1.33259 -0.841409 0
M  V30 3382 C 339.896 -1.22066 -1.41269 0
M  V30 3383 C 340.247 0.161479 -1.95534 0
M  V30 3384 O 339.372 1.06094 -1.88608 0
M  V30 3385 C 339.967 -2.20996 -2.568 0
M  V30 3386 C 338.526 -2.13649 -3.09888 0
M  V30 3387 C 337.673 -2.08623 -1.82679 0
M  V30 3388 H 340.624 -1.44895 -0.647395 0
M  V30 3389 H 340.645 -1.81621 -3.34356 0
M  V30 3390 H 340.157 -3.2158 -2.17274 0
M  V30 3391 H 338.258 -1.16359 -3.53965 0
M  V30 3392 H 338.371 -3.04079 -3.70234 0
M  V30 3393 H 336.735 -1.54061 -2.02824 0
M  V30 3394 H 337.518 -3.1101 -1.45353 0
M  V30 3395 N 339.963 1.05934 -1.16686 0
M  V30 3396 C 340.873 2.17014 -0.891183 0
M  V30 3397 C 341.889 1.73453 0.137907 0
M  V30 3398 O 343.065 2.01361 -0.039592 0
M  V30 3399 C 340.13 3.44384 -0.400099 0
M  V30 3400 C 339.191 4.02433 -1.49486 0
M  V30 3401 C 338.424 5.23723 -1.02711 0
M  V30 3402 O 338.647 5.7027 0.121716 0
M  V30 3403 O 337.581 5.7382 -1.81699 0
M  V30 3404 H 341.407 2.43113 -1.82015 0
M  V30 3405 H 338.992 1.15541 -0.947132 0
M  V30 3406 H 340.874 4.21189 -0.133392 0
M  V30 3407 H 339.549 3.19802 0.500817 0
M  V30 3408 H 338.456 3.27102 -1.81535 0
M  V30 3409 H 339.789 4.31317 -2.37121 0
M  V30 3410 N 341.441 0.965919 1.2453 0
M  V30 3411 C 342.718 0.543777 1.87889 0
M  V30 3412 C 343.098 -0.97909 1.87021 0
M  V30 3413 O 342.446 -1.84969 1.3416 0
M  V30 3414 C 342.656 1.13327 3.30088 0
M  V30 3415 C 344.004 1.21707 4.06783 0
M  V30 3416 O 345.028 1.08566 3.39252 0
M  V30 3417 O 343.887 1.42456 5.27606 0
M  V30 3418 H 340.981 0.181054 0.806938 0
M  V30 3419 H 343.527 1.06007 1.32516 0
M  V30 3420 H 342.299 2.17612 3.25209 0
M  V30 3421 H 341.922 0.600911 3.93033 0
M  V30 3422 N 342.919 -1.39368 0.735821 0
M  V30 3423 C 344.147 -2.04795 0.294393 0
M  V30 3424 C 344.562 -1.55478 -1.07107 0
M  V30 3425 O 343.919 -0.720038 -1.67695 0
M  V30 3426 C 343.97 -3.6035 0.288071 0
M  V30 3427 O 343.691 -4.07852 1.59963 0
M  V30 3428 C 345.192 -4.42976 -0.169422 0
M  V30 3429 H 342.412 -0.658571 0.128551 0
M  V30 3430 H 344.956 -1.78399 0.999701 0
M  V30 3431 H 343.111 -3.85645 -0.368355 0
M  V30 3432 H 343.525 -5.02181 1.51375 0
M  V30 3433 H 344.999 -5.51864 -0.122687 0
M  V30 3434 H 345.476 -4.22068 -1.21472 0
M  V30 3435 H 346.082 -4.22832 0.457469 0
M  V30 3436 N 344.397 -0.483516 -1.5 0
M  V30 3437 C 345.625 0.0644831 -2.06799 0
M  V30 3438 C 346.04 1.32399 -1.34596 0
M  V30 3439 O 345.397 1.77626 -0.418946 0
M  V30 3440 C 345.448 0.339927 -3.59898 0
M  V30 3441 O 345.169 -0.869635 -4.29382 0
M  V30 3442 C 346.67 0.933515 -4.33359 0
M  V30 3443 H 343.89 -0.0126333 -0.670881 0
M  V30 3444 H 346.434 -0.675864 -1.93009 0
M  V30 3445 H 344.589 1.03022 -3.7345 0
M  V30 3446 H 345.003 -0.62179 -5.20801 0
M  V30 3447 H 346.477 1.07593 -5.41413 0
M  V30 3448 H 346.954 1.92685 -3.94676 0
M  V30 3449 H 347.56 0.281221 -4.24369 0
M  V30 3450 N 345.875 1.56104 -0.216619 0
M  V30 3451 C 346.822 2.2007 0.695531 0
M  V30 3452 C 347.792 1.15471 1.19397 0
M  V30 3453 O 348.977 1.43807 1.25396 0
M  V30 3454 C 346.117 2.88073 1.90021 0
M  V30 3455 C 345.23 4.07253 1.44113 0
M  V30 3456 C 344.365 4.63052 2.603 0
M  V30 3457 C 343.404 5.74545 2.11103 0
M  V30 3458 N 342.541 6.24656 3.20545 0
M  V30 3459 H 347.381 2.97655 0.143327 0
M  V30 3460 H 344.918 1.46982 0.0589934 0
M  V30 3461 H 346.876 3.25681 2.60745 0
M  V30 3462 H 345.506 2.13015 2.42538 0
M  V30 3463 H 344.558 3.75164 0.628999 0
M  V30 3464 H 345.87 4.8783 1.04036 0
M  V30 3465 H 345.024 5.03078 3.39113 0
M  V30 3466 H 343.763 3.81628 3.03663 0
M  V30 3467 H 342.768 5.34027 1.3075 0
M  V30 3468 H 343.993 6.57801 1.68746 0
M  V30 3469 H 341.939 5.46148 3.63399 0
M  V30 3470 H 341.856 7.00343 2.84704 0
M  V30 3471 H 343.124 6.69338 3.99508 0
M  V30 3472 N 347.353 -0.0568162 1.57498 0
M  V30 3473 C 348.593 -0.758273 1.89815 0
M  V30 3474 C 348.957 -1.73978 0.812132 0
M  V30 3475 O 350.158 -2.48744 1.01881 0
M  V30 3476 C 348.429 -1.43465 3.27342 0
M  V30 3477 S 349.988 -2.1691 3.81439 0
M  V30 3478 H 346.806 -0.251836 0.664906 0
M  V30 3479 H 349.408 -0.0137997 1.95495 0
M  V30 3480 H 348.112 -0.706693 4.0427 0
M  V30 3481 H 347.643 -2.21825 3.24896 0
M  V30 3482 H 349.658 -3.43658 3.5793 0
M  V30 3483 N 348.832 -1.54138 -0.328536 0
M  V30 3484 C 349.762 -1.86167 -1.40939 0
M  V30 3485 C 350.743 -0.718044 -1.54202 0
M  V30 3486 O 351.928 -0.971328 -1.68163 0
M  V30 3487 C 349.058 -2.08461 -2.77779 0
M  V30 3488 C 348.012 -3.24299 -2.7931 0
M  V30 3489 C 347.338 -3.31955 -4.19178 0
M  V30 3490 C 348.638 -4.62065 -2.43502 0
M  V30 3491 H 350.332 -2.76689 -1.14383 0
M  V30 3492 H 347.878 -1.33132 -0.548806 0
M  V30 3493 H 349.831 -2.29453 -3.53454 0
M  V30 3494 H 348.555 -1.14684 -3.05802 0
M  V30 3495 H 347.214 -3.03187 -2.0609 0
M  V30 3496 H 346.862 -2.35745 -4.44335 0
M  V30 3497 H 346.562 -4.09805 -4.2111 0
M  V30 3498 H 348.086 -3.55175 -4.96672 0
M  V30 3499 H 349.5 -4.8297 -3.08889 0
M  V30 3500 H 347.897 -5.42429 -2.56693 0
M  V30 3501 H 348.967 -4.64652 -1.38659 0
M  V30 3502 N 350.31 0.590341 -1.46126 0
M  V30 3503 C 351.538 1.37504 -1.54597 0
M  V30 3504 C 351.953 1.87897 -0.184447 0
M  V30 3505 O 351.31 1.63192 0.816984 0
M  V30 3506 C 351.361 2.56779 -2.54454 0
M  V30 3507 O 351.082 2.08476 -3.85317 0
M  V30 3508 C 352.583 3.49427 -2.72792 0
M  V30 3509 H 349.803 0.420325 -0.523037 0
M  V30 3510 H 352.347 0.718383 -1.91467 0
M  V30 3511 H 350.502 3.1845 -2.20609 0
M  V30 3512 H 350.916 2.86097 -4.396 0
M  V30 3513 H 352.39 4.29619 -3.466 0
M  V30 3514 H 352.867 4.00876 -1.79429 0
M  V30 3515 H 353.473 2.93598 -3.07702 0
M  V30 3516 N 351.788 1.33704 0.83433 0
M  V30 3517 C 352.751 1.24244 1.92603 0
M  V30 3518 C 353.751 0.160383 1.59998 0
M  V30 3519 O 354.941 0.412228 1.69252 0
M  V30 3520 C 352.073 0.91555 3.28376 0
M  V30 3521 H 353.266 2.21287 2.02416 0
M  V30 3522 H 350.819 1.17827 1.02696 0
M  V30 3523 H 351.554 -0.0521886 3.24258 0
M  V30 3524 H 351.339 1.69811 3.53422 0
M  V30 3525 H 352.829 0.874231 4.08347 0
M  V30 3526 N 353.266 -1.05314 1.17247 0
M  V30 3527 C 354.229 -2.112 0.890357 0
M  V30 3528 C 355.229 -1.60359 -0.118943 0
M  V30 3529 O 356.419 -1.73833 0.113086 0
M  V30 3530 C 353.551 -3.39266 0.333422 0
M  V30 3531 H 354.744 -2.37659 1.82916 0
M  V30 3532 H 352.297 -1.21538 0.982758 0
M  V30 3533 H 353.032 -3.18462 -0.612587 0
M  V30 3534 H 352.817 -3.77477 1.06082 0
M  V30 3535 H 354.307 -4.17315 0.154322 0
M  V30 3536 N 354.744 -0.972509 -1.24016 0
M  V30 3537 C 356.155 -0.67517 -1.74064 0
M  V30 3538 C 356.506 0.808939 -1.78747 0
M  V30 3539 O 355.631 1.63286 -1.42009 0
M  V30 3540 C 356.226 -1.21889 -3.16115 0
M  V30 3541 C 354.785 -0.971358 -3.6365 0
M  V30 3542 C 353.932 -1.35134 -2.42145 0
M  V30 3543 H 356.883 -1.14727 -1.09651 0
M  V30 3544 H 356.904 -0.587489 -3.75937 0
M  V30 3545 H 356.416 -2.29906 -3.12674 0
M  V30 3546 H 354.517 0.0930686 -3.72484 0
M  V30 3547 H 354.63 -1.62039 -4.50866 0
M  V30 3548 H 352.994 -0.769751 -2.4279 0
M  V30 3549 H 353.777 -2.4411 -2.41381 0
M  V30 3550 N 356.222 1.38976 -0.743202 0
M  V30 3551 C 357.47 1.99948 -0.29417 0
M  V30 3552 C 357.791 1.59279 1.12495 0
M  V30 3553 O 357.061 0.844808 1.76748 0
M  V30 3554 H 355.641 0.739473 -0.105774 0
M  V30 3555 H 358.303 1.699 -0.954986 0
M  V30 3556 H 357.399 3.10142 -0.349056 0
M  V30 3557 N 357.7 0.491464 1.49741 0
M  V30 3558 C 358.632 -0.328609 2.26832 0
M  V30 3559 C 359.645 -0.939113 1.32983 0
M  V30 3560 O 360.834 -0.824067 1.58339 0
M  V30 3561 C 357.934 -1.47675 3.05033 0
M  V30 3562 C 357.107 -0.975305 4.26388 0
M  V30 3563 C 356.166 -1.99991 4.86714 0
M  V30 3564 O 355.192 -1.57229 5.47054 0
M  V30 3565 N 356.394 -3.32962 4.75517 0
M  V30 3566 H 359.159 0.332377 2.97851 0
M  V30 3567 H 356.72 0.323441 1.58636 0
M  V30 3568 H 358.712 -2.15954 3.42266 0
M  V30 3569 H 357.282 -2.04206 2.36683 0
M  V30 3570 H 356.502 -0.117723 3.94024 0
M  V30 3571 H 357.79 -0.618531 5.05026 0
M  V30 3572 H 357.188 -3.70399 4.27576 0
M  V30 3573 H 355.745 -3.96982 5.16961 0
M  V30 3574 N 359.178 -1.55987 0.224894 0
M  V30 3575 C 360.406 -2.02784 -0.410665 0
M  V30 3576 C 360.821 -1.10464 -1.53112 0
M  V30 3577 O 360.178 -0.114871 -1.82138 0
M  V30 3578 C 360.229 -3.49087 -0.939165 0
M  V30 3579 O 359.95 -4.37887 0.136614 0
M  V30 3580 C 361.451 -4.11543 -1.64763 0
M  V30 3581 H 358.671 -0.663484 -0.100148 0
M  V30 3582 H 361.215 -2.01614 0.342326 0
M  V30 3583 H 359.37 -3.50861 -1.64242 0
M  V30 3584 H 359.784 -5.23849 -0.261155 0
M  V30 3585 H 361.258 -5.15673 -1.96939 0
M  V30 3586 H 361.735 -3.56736 -2.56195 0
M  V30 3587 H 362.341 -4.13629 -0.989503 0
M  V30 3588 N 360.656 0.0484629 -1.57525 0
M  V30 3589 C 361.588 1.08222 -2.02041 0
M  V30 3590 C 362.601 1.33621 -0.930012 0
M  V30 3591 O 363.79 1.3145 -1.20761 0
M  V30 3592 C 360.89 2.42818 -2.36416 0
M  V30 3593 C 360.063 2.37049 -3.67596 0
M  V30 3594 C 359.122 3.53937 -3.89378 0
M  V30 3595 O 358.148 3.34308 -4.60681 0
M  V30 3596 N 359.35 4.75126 -3.3352 0
M  V30 3597 H 362.115 0.702946 -2.9134 0
M  V30 3598 H 359.676 0.236745 -1.6016 0
M  V30 3599 H 361.668 3.197 -2.48141 0
M  V30 3600 H 360.238 2.72661 -1.52888 0
M  V30 3601 H 359.458 1.45395 -3.66407 0
M  V30 3602 H 360.746 2.30318 -4.53686 0
M  V30 3603 H 360.144 4.93976 -2.75688 0
M  V30 3604 H 358.701 5.49439 -3.50656 0
M  V30 3605 N 362.134 1.5431 0.320358 0
M  V30 3606 C 363.064 1.86912 1.3995 0
M  V30 3607 C 364.045 0.726211 1.53819 0
M  V30 3608 O 365.23 0.980233 1.67646 0
M  V30 3609 C 362.36 2.09932 2.7667 0
M  V30 3610 C 361.314 3.25776 2.77586 0
M  V30 3611 C 360.64 3.34173 4.17412 0
M  V30 3612 C 361.94 4.6335 2.41048 0
M  V30 3613 H 363.634 2.77292 1.12914 0
M  V30 3614 H 361.18 1.33421 0.541738 0
M  V30 3615 H 363.133 2.31324 3.52232 0
M  V30 3616 H 361.857 1.16304 3.0519 0
M  V30 3617 H 360.516 3.04276 2.04479 0
M  V30 3618 H 360.164 2.38098 4.43078 0
M  V30 3619 H 359.864 4.12033 4.18931 0
M  V30 3620 H 361.388 3.57803 4.94782 0
M  V30 3621 H 362.802 4.84602 3.06324 0
M  V30 3622 H 361.199 5.43782 2.53813 0
M  V30 3623 H 362.269 4.65381 1.36193 0
M  V30 3624 N 363.613 -0.582584 1.46437 0
M  V30 3625 C 365.024 -1.1647 1.45916 0
M  V30 3626 C 365.375 -1.95177 0.200077 0
M  V30 3627 O 364.5 -2.04874 -0.696819 0
M  V30 3628 C 365.095 -2.11885 2.64367 0
M  V30 3629 C 363.654 -2.65421 2.66887 0
M  V30 3630 C 362.801 -1.41294 2.38603 0
M  V30 3631 H 365.752 -0.370514 1.54314 0
M  V30 3632 H 365.773 -2.9535 2.39892 0
M  V30 3633 H 365.285 -1.54573 3.5599 0
M  V30 3634 H 363.386 -3.26602 1.79338 0
M  V30 3635 H 363.499 -3.08147 3.66854 0
M  V30 3636 H 361.863 -1.71109 1.88663 0
M  V30 3637 H 362.646 -0.858125 3.32402 0
M  V30 3638 N 365.091 -1.34144 -0.827227 0
M  V30 3639 C 366.338 -1.26258 -1.58319 0
M  V30 3640 C 366.666 0.168595 -1.93768 0
M  V30 3641 O 365.921 1.12877 -1.59866 0
M  V30 3642 C 366.22 -2.09464 -2.89585 0
M  V30 3643 C 365.886 -3.58521 -2.73448 0
M  V30 3644 C 364.548 -3.99155 -2.68754 0
M  V30 3645 C 366.9 -4.53189 -2.57428 0
M  V30 3646 C 364.228 -5.32656 -2.45957 0
M  V30 3647 C 366.58 -5.86864 -2.36163 0
M  V30 3648 C 365.244 -6.26667 -2.29879 0
M  V30 3649 H 364.514 -0.462013 -0.579332 0
M  V30 3650 H 367.161 -1.65845 -0.95748 0
M  V30 3651 H 365.466 -1.62692 -3.56425 0
M  V30 3652 H 367.163 -2.00712 -3.47154 0
M  V30 3653 H 363.753 -3.26264 -2.77939 0
M  V30 3654 H 367.937 -4.22696 -2.60081 0
M  V30 3655 H 363.193 -5.62519 -2.39546 0
M  V30 3656 H 367.367 -6.59813 -2.22754 0
M  V30 3657 H 364.994 -7.30049 -2.11975 0
M  V30 3658 N 366.569 1.04691 -1.17803 0
M  V30 3659 C 367.532 2.10724 -0.901545 0
M  V30 3660 C 368.532 1.6042 0.110437 0
M  V30 3661 O 369.722 1.7377 -0.122303 0
M  V30 3662 C 366.854 3.39084 -0.351409 0
M  V30 3663 H 368.047 2.36686 -1.84174 0
M  V30 3664 H 365.6 1.21015 -0.98919 0
M  V30 3665 H 366.335 3.18782 0.59569 0
M  V30 3666 H 366.12 3.76909 -1.08083 0
M  V30 3667 H 367.61 4.17227 -0.176451 0
M  V30 3668 N 368.047 0.979072 1.23499 0
M  V30 3669 C 369.324 0.563674 1.87302 0
M  V30 3670 C 369.704 -0.959199 1.88049 0
M  V30 3671 O 369.052 -1.83535 1.36114 0
M  V30 3672 C 369.262 1.16822 3.28867 0
M  V30 3673 C 370.61 1.26014 4.0547 0
M  V30 3674 O 371.634 1.12158 3.38082 0
M  V30 3675 O 370.493 1.48044 5.26066 0
M  V30 3676 H 367.587 0.189602 0.804972 0
M  V30 3677 H 370.133 1.07407 1.31384 0
M  V30 3678 H 368.905 2.21049 3.22883 0
M  V30 3679 H 368.528 0.642564 3.92373 0
M  V30 3680 N 369.525 -1.3858 0.750561 0
M  V30 3681 C 370.774 -1.99424 0.302172 0
M  V30 3682 C 371.087 -1.60254 -1.12152 0
M  V30 3683 O 372.293 -2.14046 -1.67023 0
M  V30 3684 C 370.749 -3.56558 0.489307 0
M  V30 3685 C 370.357 -4.04682 1.92189 0
M  V30 3686 C 372.101 -4.24374 0.103478 0
M  V30 3687 C 370.008 -5.54446 2.05775 0
M  V30 3688 H 368.938 -0.746046 0.10923 0
M  V30 3689 H 371.589 -1.58383 0.92667 0
M  V30 3690 H 369.971 -3.95472 -0.204329 0
M  V30 3691 H 371.145 -3.77065 2.64875 0
M  V30 3692 H 369.46 -3.4958 2.26236 0
M  V30 3693 H 372.057 -5.34384 0.183787 0
M  V30 3694 H 372.4 -4.05468 -0.943481 0
M  V30 3695 H 372.933 -3.90688 0.748854 0
M  V30 3696 H 369.672 -5.78252 3.08714 0
M  V30 3697 H 369.192 -5.83816 1.37546 0
M  V30 3698 H 370.871 -6.20099 1.84626 0
M  V30 3699 N 371.003 -0.499398 -1.49478 0
M  V30 3700 C 372.414 -0.051215 -1.8663 0
M  V30 3701 C 372.765 1.36238 -1.41186 0
M  V30 3702 O 371.89 2.01502 -0.789051 0
M  V30 3703 C 372.485 -0.0861651 -3.3869 0
M  V30 3704 C 371.044 0.30667 -3.75149 0
M  V30 3705 C 370.191 -0.459397 -2.73468 0
M  V30 3706 H 373.142 -0.712264 -1.41818 0
M  V30 3707 H 373.163 0.709507 -3.73826 0
M  V30 3708 H 372.675 -1.11512 -3.71735 0
M  V30 3709 H 370.776 1.33892 -3.47712 0
M  V30 3710 H 370.889 -0.0116669 -4.79099 0
M  V30 3711 H 369.253 0.0905645 -2.54539 0
M  V30 3712 H 370.036 -1.4884 -3.09357 0
M  V30 3713 N 372.481 1.55866 -0.233164 0
M  V30 3714 C 373.413 2.18099 0.704668 0
M  V30 3715 C 374.426 1.15334 1.14899 0
M  V30 3716 O 375.615 1.42262 1.07814 0
M  V30 3717 C 372.715 2.7592 1.96777 0
M  V30 3718 C 371.888 4.03969 1.67713 0
M  V30 3719 C 370.947 4.46242 2.78845 0
M  V30 3720 O 369.973 5.12903 2.46818 0
M  V30 3721 N 371.175 4.12886 4.08051 0
M  V30 3722 H 373.94 2.99205 0.172258 0
M  V30 3723 H 371.501 1.61815 -0.0525945 0
M  V30 3724 H 373.493 3.01165 2.70337 0
M  V30 3725 H 372.063 1.99051 2.41034 0
M  V30 3726 H 371.283 3.86459 0.777391 0
M  V30 3727 H 372.571 4.8748 1.4574 0
M  V30 3728 H 371.969 3.59342 4.3691 0
M  V30 3729 H 370.526 4.42997 4.78118 0
M  V30 3730 N 373.959 -0.0401083 1.57549 0
M  V30 3731 C 375.236 -0.767917 1.79896 0
M  V30 3732 C 375.616 -1.9416 0.82856 0
M  V30 3733 O 374.964 -2.2812 -0.131671 0
M  V30 3734 C 375.174 -1.2113 3.27305 0
M  V30 3735 C 376.522 -1.63175 3.91994 0
M  V30 3736 O 377.546 -1.30616 3.31388 0
M  V30 3737 O 376.405 -2.23565 4.98679 0
M  V30 3738 H 373.499 -0.370441 0.739393 0
M  V30 3739 H 376.045 -0.017737 1.69691 0
M  V30 3740 H 374.817 -0.372937 3.89519 0
M  V30 3741 H 374.44 -2.02183 3.42356 0
M  V30 3742 N 375.437 -1.54477 -0.31217 0
M  V30 3743 C 376.4 -1.83923 -1.36766 0
M  V30 3744 C 377.4 -0.711563 -1.44199 0
M  V30 3745 O 378.59 -0.979866 -1.44029 0
M  V30 3746 C 375.722 -2.0095 -2.75376 0
M  V30 3747 H 376.915 -2.78239 -1.11906 0
M  V30 3748 H 374.468 -1.46369 -0.548257 0
M  V30 3749 H 375.203 -1.08883 -3.05475 0
M  V30 3750 H 374.988 -2.83018 -2.71373 0
M  V30 3751 H 376.478 -2.2514 -3.51713 0
M  V30 3752 N 376.915 0.57481 -1.46744 0
M  V30 3753 C 377.845 1.69337 -1.60771 0
M  V30 3754 C 378.826 1.63825 -0.457736 0
M  V30 3755 O 380.011 1.8172 -0.684947 0
M  V30 3756 C 377.141 3.0798 -1.60517 0
M  V30 3757 C 376.095 3.28327 -2.74564 0
M  V30 3758 C 375.421 4.67578 -2.59373 0
M  V30 3759 C 376.721 3.15398 -4.16319 0
M  V30 3760 H 378.415 1.57853 -2.54407 0
M  V30 3761 H 375.961 0.75799 -1.22436 0
M  V30 3762 H 377.914 3.86061 -1.68923 0
M  V30 3763 H 376.638 3.20381 -0.634305 0
M  V30 3764 H 375.297 2.52649 -2.65639 0
M  V30 3765 H 374.945 4.76755 -1.60353 0
M  V30 3766 H 374.645 4.82144 -3.35873 0
M  V30 3767 H 376.169 5.47817 -2.69682 0
M  V30 3768 H 377.583 3.83315 -4.26313 0
M  V30 3769 H 375.98 3.41482 -4.93468 0
M  V30 3770 H 377.05 2.12372 -4.3592 0
M  V30 3771 N 378.394 1.34581 0.820102 0
M  V30 3772 C 379.805 1.24298 1.39309 0
M  V30 3773 C 380.156 -0.130351 1.95767 0
M  V30 3774 O 379.281 -1.0308 1.90272 0
M  V30 3775 C 379.876 2.25054 2.53251 0
M  V30 3776 C 378.435 2.18552 3.0645 0
M  V30 3777 C 377.582 2.11503 1.79337 0
M  V30 3778 H 380.533 1.45906 0.624262 0
M  V30 3779 H 380.554 1.86917 3.31425 0
M  V30 3780 H 380.066 3.24996 2.1213 0
M  V30 3781 H 378.167 1.21976 3.52069 0
M  V30 3782 H 378.28 3.0993 3.65349 0
M  V30 3783 H 376.644 1.57268 2.00347 0
M  V30 3784 H 377.427 3.13284 1.40386 0
M  V30 3785 N 379.872 -1.04064 1.18357 0
M  V30 3786 C 381.118 -1.77528 0.980397 0
M  V30 3787 C 381.451 -1.87948 -0.48879 0
M  V30 3788 O 380.726 -1.3876 -1.36293 0
M  V30 3789 C 381.009 -3.20797 1.63588 0
M  V30 3790 C 380.862 -3.1832 3.17793 0
M  V30 3791 C 382.181 -4.18911 1.34914 0
M  V30 3792 H 379.3 -0.644443 0.357578 0
M  V30 3793 H 381.942 -1.2156 1.46024 0
M  V30 3794 H 380.092 -3.68586 1.22788 0
M  V30 3795 H 381.764 -2.78521 3.67728 0
M  V30 3796 H 380.007 -2.56351 3.49952 0
M  V30 3797 H 380.678 -4.19489 3.58794 0
M  V30 3798 H 383.154 -3.7967 1.70265 0
M  V30 3799 H 382.03 -5.17374 1.83346 0
M  V30 3800 H 382.291 -4.41262 0.272027 0
M  V30 3801 N 381.35 -0.985608 -1.22978 0
M  V30 3802 C 382.28 -0.549649 -2.26939 0
M  V30 3803 C 383.261 0.419803 -1.64838 0
M  V30 3804 O 384.446 0.31203 -1.91677 0
M  V30 3805 C 381.576 0.143652 -3.47003 0
M  V30 3806 C 380.53 -0.743606 -4.21491 0
M  V30 3807 C 379.856 0.0822027 -5.34637 0
M  V30 3808 C 381.156 -2.03694 -4.80943 0
M  V30 3809 H 382.85 -1.41862 -2.63658 0
M  V30 3810 H 380.396 -0.683571 -1.26741 0
M  V30 3811 H 382.349 0.459985 -4.18882 0
M  V30 3812 H 381.073 1.04711 -3.09359 0
M  V30 3813 H 379.732 -1.04347 -3.51436 0
M  V30 3814 H 379.38 0.986359 -4.93234 0
M  V30 3815 H 379.08 -0.508377 -5.85397 0
M  V30 3816 H 380.604 0.392797 -6.09335 0
M  V30 3817 H 382.018 -1.78504 -5.44802 0
M  V30 3818 H 380.415 -2.57573 -5.42011 0
M  V30 3819 H 381.485 -2.72042 -4.01399 0
M  V30 3820 N 382.828 1.3818 -0.7579 0
M  V30 3821 C 384.105 1.94106 -0.241306 0
M  V30 3822 C 384.485 1.69282 1.26122 0
M  V30 3823 O 383.833 1.03378 2.03777 0
M  V30 3824 C 384.043 3.43809 -0.59967 0
M  V30 3825 C 385.391 4.20868 -0.561717 0
M  V30 3826 O 386.415 3.5211 -0.538222 0
M  V30 3827 O 385.274 5.43451 -0.576478 0
M  V30 3828 H 382.368 0.825376 -0.0518042 0
M  V30 3829 H 384.914 1.47548 -0.838315 0
M  V30 3830 H 383.686 3.55403 -1.6372 0
M  V30 3831 H 383.309 3.97592 0.0251197 0
M  V30 3832 N 384.306 0.507319 1.49211 0
M  V30 3833 C 385.238 -0.304532 2.27168 0
M  V30 3834 C 386.251 -0.924956 1.33972 0
M  V30 3835 O 387.44 -0.807227 1.59205 0
M  V30 3836 C 384.54 -1.44431 3.06583 0
M  V30 3837 C 383.713 -0.930026 4.27398 0
M  V30 3838 C 382.772 -1.94817 4.88807 0
M  V30 3839 O 381.798 -1.51418 5.4869 0
M  V30 3840 N 383 -3.279 4.79022 0
M  V30 3841 H 385.765 0.36395 2.97482 0
M  V30 3842 H 383.326 0.340249 1.58284 0
M  V30 3843 H 385.318 -2.12311 3.44537 0
M  V30 3844 H 383.888 -2.01684 2.38835 0
M  V30 3845 H 383.108 -0.0759244 3.94127 0
M  V30 3846 H 384.396 -0.564932 5.05654 0
M  V30 3847 H 383.794 -3.65843 4.3148 0
M  V30 3848 H 382.351 -3.91476 5.21142 0
M  V30 3849 N 385.784 -1.5574 0.241426 0
M  V30 3850 C 387.033 -1.97986 -0.385295 0
M  V30 3851 C 387.346 -1.13267 -1.59468 0
M  V30 3852 O 388.552 -1.45501 -2.2922 0
M  V30 3853 C 387.008 -3.52275 -0.736884 0
M  V30 3854 C 386.616 -4.45726 0.450796 0
M  V30 3855 C 388.36 -4.03189 -1.3281 0
M  V30 3856 C 386.267 -5.91352 0.0756662 0
M  V30 3857 H 385.197 -0.739386 -0.147731 0
M  V30 3858 H 387.848 -1.80308 0.340779 0
M  V30 3859 H 386.23 -3.65628 -1.52094 0
M  V30 3860 H 387.404 -4.44131 1.22819 0
M  V30 3861 H 385.719 -4.05264 0.956573 0
M  V30 3862 H 388.316 -5.09505 -1.62201 0
M  V30 3863 H 388.659 -3.50212 -2.25071 0
M  V30 3864 H 389.192 -3.93141 -0.607069 0
M  V30 3865 H 385.931 -6.48354 0.965272 0
M  V30 3866 H 385.451 -5.96095 -0.665635 0
M  V30 3867 H 387.13 -6.46084 -0.344075 0
M  V30 3868 N 387.262 0.0317525 -1.57568 0
M  V30 3869 C 388.194 1.06073 -2.03178 0
M  V30 3870 C 389.207 1.32627 -0.944132 0
M  V30 3871 O 390.396 1.30162 -1.22148 0
M  V30 3872 C 387.496 2.40297 -2.38978 0
M  V30 3873 C 386.669 2.33137 -3.70089 0
M  V30 3874 C 385.728 3.49787 -3.9311 0
M  V30 3875 O 384.754 3.29403 -4.64201 0
M  V30 3876 N 385.956 4.71562 -3.38541 0
M  V30 3877 H 388.721 0.672006 -2.92069 0
M  V30 3878 H 386.282 0.219745 -1.60402 0
M  V30 3879 H 388.274 3.1705 -2.51518 0
M  V30 3880 H 386.844 2.71024 -1.55771 0
M  V30 3881 H 386.064 1.415 -3.67928 0
M  V30 3882 H 387.352 2.25493 -4.56104 0
M  V30 3883 H 386.75 4.91024 -2.80912 0
M  V30 3884 H 385.307 5.45689 -3.56464 0
M  V30 3885 N 388.74 1.54641 0.303973 0
M  V30 3886 C 389.687 1.85386 1.37479 0
M  V30 3887 C 390.657 0.702528 1.50512 0
M  V30 3888 O 391.842 0.950867 1.65418 0
M  V30 3889 C 388.982 2.10413 2.73533 0
M  V30 3890 C 388.095 3.38049 2.68974 0
M  V30 3891 C 387.23 3.52934 3.97002 0
M  V30 3892 C 386.269 4.74373 3.86829 0
M  V30 3893 N 385.406 4.8608 5.06627 0
M  V30 3894 H 390.246 2.76732 1.1056 0
M  V30 3895 H 387.783 1.37034 0.534805 0
M  V30 3896 H 389.741 2.22919 3.52652 0
M  V30 3897 H 388.371 1.22338 2.98719 0
M  V30 3898 H 387.423 3.3418 1.81736 0
M  V30 3899 H 388.735 4.27288 2.57346 0
M  V30 3900 H 387.889 3.65088 4.84557 0
M  V30 3901 H 386.628 2.61824 4.1146 0
M  V30 3902 H 385.633 4.62255 2.97658 0
M  V30 3903 H 386.858 5.66888 3.73918 0
M  V30 3904 H 384.804 3.97891 5.21554 0
M  V30 3905 H 384.721 5.69315 4.9741 0
M  V30 3906 H 385.989 5.02587 5.95841 0
M  V30 3907 N 390.218 -0.567019 1.47046 0
M  V30 3908 C 391.634 -0.891975 1.32348 0
M  V30 3909 C 391.834 -1.99154 0.306616 0
M  V30 3910 O 390.89 -2.50883 -0.28532 0
M  V30 3911 C 392.203 -1.29449 2.7141 0
M  V30 3912 C 393.751 -1.40646 2.79621 0
M  V30 3913 C 394.226 -1.84257 4.19301 0
M  V30 3914 N 395.717 -1.91424 4.21795 0
M  V30 3915 C 396.452 -2.26476 5.26779 0
M  V30 3916 N 395.948 -2.60211 6.42077 0
M  V30 3917 N 397.741 -2.27166 5.14152 0
M  V30 3918 H 389.892 0.159074 2.11803 0
M  V30 3919 H 392.155 0.00849752 0.947962 0
M  V30 3920 H 391.861 -0.560448 3.47206 0
M  V30 3921 H 391.735 -2.25273 3.02542 0
M  V30 3922 H 394.122 -2.13133 2.04104 0
M  V30 3923 H 394.203 -0.430339 2.52154 0
M  V30 3924 H 393.847 -1.12343 4.95319 0
M  V30 3925 H 393.777 -2.82855 4.44185 0
M  V30 3926 H 396.268 -1.6778 3.38612 0
M  V30 3927 H 396.581 -2.85956 7.17948 0
M  V30 3928 H 394.926 -2.57813 6.45413 0
M  V30 3929 H 398.117 -2.00244 4.23107 0
M  V30 3930 H 398.29 -2.54154 5.96079 0
M  V30 3931 N 391.696 -1.35014 -0.812953 0
M  V30 3932 C 392.626 -1.30069 -1.93919 0
M  V30 3933 C 393.607 -0.176275 -1.69184 0
M  V30 3934 O 394.792 -0.370227 -1.90638 0
M  V30 3935 C 391.922 -1.06547 -3.30552 0
M  V30 3936 C 390.876 -2.15561 -3.69753 0
M  V30 3937 C 390.202 -1.77214 -5.04479 0
M  V30 3938 C 391.502 -3.57476 -3.808 0
M  V30 3939 H 393.196 -2.24303 -1.98314 0
M  V30 3940 H 390.742 -1.07977 -0.952736 0
M  V30 3941 H 392.695 -1.01729 -4.08937 0
M  V30 3942 H 391.419 -0.0875719 -3.26483 0
M  V30 3943 H 390.078 -2.19466 -2.9365 0
M  V30 3944 H 389.726 -0.780589 -4.96906 0
M  V30 3945 H 389.426 -2.50184 -5.31678 0
M  V30 3946 H 390.95 -1.7391 -5.8531 0
M  V30 3947 H 392.364 -3.55929 -4.4943 0
M  V30 3948 H 390.761 -4.29152 -4.19462 0
M  V30 3949 H 391.831 -3.94091 -2.82525 0
M  V30 3950 N 393.175 1.03435 -1.18907 0
M  V30 3951 C 394.123 2.13703 -0.918353 0
M  V30 3952 C 395.117 1.68947 0.123767 0
M  V30 3953 O 396.323 1.79983 -0.0249701 0
M  V30 3954 H 392.698 0.698112 -0.279542 0
M  V30 3955 H 394.669 2.33731 -1.85506 0
M  V30 3956 C 393.418 3.44542 -0.467532 0
M  V30 3957 H 392.741 3.79394 -1.26095 0
M  V30 3958 H 394.181 4.22812 -0.317164 0
M  V30 3959 C 392.64 3.26829 0.817588 0
M  V30 3960 O 393.17 3.54975 1.88031 0
M  V30 3961 N 391.376 2.80139 0.772677 0
M  V30 3962 H 390.923 2.57434 -0.0923883 0
M  V30 3963 H 390.881 2.68668 1.63294 0
M  V30 3964 N 394.653 0.992116 1.22453 0
M  V30 3965 C 395.93 0.583508 1.86694 0
M  V30 3966 C 396.31 -0.9392 1.89056 0
M  V30 3967 O 395.658 -1.82081 1.38053 0
M  V30 3968 C 395.868 1.20304 3.2761 0
M  V30 3969 C 397.216 1.30308 4.0411 0
M  V30 3970 O 398.24 1.15737 3.36873 0
M  V30 3971 O 397.099 1.53615 5.24466 0
M  V30 3972 H 394.193 0.198129 0.802916 0
M  V30 3973 H 396.739 1.08794 1.30238 0
M  V30 3974 H 395.511 2.24461 3.2052 0
M  V30 3975 H 395.134 0.684144 3.9167 0
M  V30 3976 N 396.131 -1.37776 0.765217 0
M  V30 3977 C 397.094 -2.28686 0.153416 0
M  V30 3978 C 398.094 -1.47727 -0.635081 0
M  V30 3979 O 399.284 -1.68027 -0.459632 0
M  V30 3980 C 396.416 -3.31608 -0.790495 0
M  V30 3981 H 397.609 -2.84297 0.954723 0
M  V30 3982 H 395.162 -1.46932 0.53299 0
M  V30 3983 H 395.897 -2.81109 -1.61705 0
M  V30 3984 H 395.682 -3.9144 -0.227348 0
M  V30 3985 H 397.172 -3.99559 -1.21419 0
M  V30 3986 N 397.609 -0.515225 -1.4894 0
M  V30 3987 C 398.542 0.302518 -2.26186 0
M  V30 3988 C 399.52 0.957895 -1.31389 0
M  V30 3989 O 400.704 0.985198 -1.60705 0
M  V30 3990 C 397.831 1.42719 -3.07163 0
M  V30 3991 C 396.877 0.884736 -4.17223 0
M  V30 3992 S 397.71 -0.235767 -5.34981 0
M  V30 3993 C 398.866 0.891731 -6.19515 0
M  V30 3994 H 399.099 -0.353076 -2.95196 0
M  V30 3995 H 396.632 -0.300753 -1.51443 0
M  V30 3996 H 398.59 2.07152 -3.54398 0
M  V30 3997 H 397.251 2.05445 -2.37595 0
M  V30 3998 H 396.444 1.72801 -4.73451 0
M  V30 3999 H 396.046 0.317362 -3.72651 0
M  V30 4000 H 398.338 1.79377 -6.53322 0
M  V30 4001 H 399.281 0.367751 -7.07144 0
M  V30 4002 H 399.689 1.16548 -5.52338 0
M  V30 4003 N 399.087 1.5561 -0.249682 0
M  V30 4004 C 400.034 2.21496 0.648694 0
M  V30 4005 C 401.004 1.17977 1.16921 0
M  V30 4006 O 402.189 1.46434 1.22318 0
M  V30 4007 C 399.329 2.92039 1.83868 0
M  V30 4008 C 398.442 4.10219 1.35442 0
M  V30 4009 C 397.577 4.6847 2.50419 0
M  V30 4010 C 396.616 5.78893 1.98869 0
M  V30 4011 N 395.753 6.31315 3.07223 0
M  V30 4012 H 400.593 2.97892 0.0801582 0
M  V30 4013 H 398.13 1.47074 0.0278031 0
M  V30 4014 H 400.088 3.31138 2.53778 0
M  V30 4015 H 398.718 2.18111 2.37965 0
M  V30 4016 H 397.77 3.76413 0.54928 0
M  V30 4017 H 399.082 4.89927 0.936649 0
M  V30 4018 H 398.236 5.10158 3.28366 0
M  V30 4019 H 396.975 3.87984 2.95499 0
M  V30 4020 H 395.98 5.3668 1.19393 0
M  V30 4021 H 397.205 6.61232 1.54755 0
M  V30 4022 H 395.151 5.53733 3.51732 0
M  V30 4023 H 395.068 7.06224 2.69784 0
M  V30 4024 H 396.336 6.77662 3.8522 0
M  V30 4025 N 400.565 -0.0233959 1.57583 0
M  V30 4026 C 401.512 -1.02224 2.06927 0
M  V30 4027 C 402.482 -1.35575 0.959617 0
M  V30 4028 O 403.667 -1.45815 1.23055 0
M  V30 4029 C 400.807 -2.31636 2.5581 0
M  V30 4030 C 399.92 -2.04394 3.80588 0
M  V30 4031 C 399.055 -3.27717 4.18061 0
M  V30 4032 C 398.094 -2.96056 5.3574 0
M  V30 4033 N 397.231 -4.11847 5.68618 0
M  V30 4034 H 402.071 -0.594504 2.9201 0
M  V30 4035 H 399.608 -0.281921 1.44373 0
M  V30 4036 H 401.566 -3.07258 2.82221 0
M  V30 4037 H 400.196 -2.72122 1.73636 0
M  V30 4038 H 399.248 -1.19244 3.61227 0
M  V30 4039 H 400.56 -1.77042 4.66323 0
M  V30 4040 H 399.714 -4.11702 4.4563 0
M  V30 4041 H 398.453 -3.58188 3.30988 0
M  V30 4042 H 397.458 -2.10474 5.07918 0
M  V30 4043 H 398.683 -2.66857 6.24471 0
M  V30 4044 H 396.629 -4.42258 4.84504 0
M  V30 4045 H 396.546 -3.87938 6.48876 0
M  V30 4046 H 397.814 -4.96689 6.00766 0
M  V30 4047 N 402.043 -1.548 -0.295768 0
M  V30 4048 C 403.006 -1.85363 -1.34808 0
M  V30 4049 C 404.006 -0.726817 -1.43436 0
M  V30 4050 O 405.196 -0.995088 -1.42981 0
M  V30 4051 C 402.328 -2.03859 -2.73229 0
M  V30 4052 H 403.521 -2.7941 -1.08949 0
M  V30 4053 H 401.074 -1.46942 -0.532702 0
M  V30 4054 H 401.809 -1.12117 -3.04303 0
M  V30 4055 H 401.594 -2.8588 -2.68356 0
M  V30 4056 H 403.084 -2.28857 -3.49305 0
M  V30 4057 N 403.521 0.559213 -1.47345 0
M  V30 4058 C 404.484 1.64854 -1.59235 0
M  V30 4059 C 405.484 1.53851 -0.467607 0
M  V30 4060 O 406.674 1.58045 -0.732617 0
M  V30 4061 C 403.806 3.04388 -1.53496 0
M  V30 4062 H 404.999 1.55662 -2.56339 0
M  V30 4063 H 402.552 0.778973 -1.35505 0
M  V30 4064 H 403.287 3.19115 -0.577604 0
M  V30 4065 H 403.072 3.13783 -2.35123 0
M  V30 4066 H 404.562 3.83642 -1.6495 0
M  V30 4067 N 404.999 1.35443 0.805782 0
M  V30 4068 C 405.962 1.28301 1.89925 0
M  V30 4069 C 406.962 0.194285 1.59622 0
M  V30 4070 O 408.152 0.448036 1.6834 0
M  V30 4071 C 405.284 0.984997 3.2636 0
M  V30 4072 H 406.477 2.2553 1.97677 0
M  V30 4073 H 404.03 1.19979 1.00173 0
M  V30 4074 H 404.765 0.016603 3.24296 0
M  V30 4075 H 404.55 1.77269 3.4974 0
M  V30 4076 H 406.04 0.960651 4.064 0
M  V30 4077 N 406.477 -1.02803 1.19454 0
M  V30 4078 C 407.754 -1.73299 0.907013 0
M  V30 4079 C 408.134 -2.02772 -0.587086 0
M  V30 4080 O 407.482 -1.68304 -1.54551 0
M  V30 4081 C 407.692 -3.00912 1.76785 0
M  V30 4082 C 409.04 -3.74403 2.00268 0
M  V30 4083 O 410.064 -3.10841 1.73943 0
M  V30 4084 O 408.923 -4.88675 2.4466 0
M  V30 4085 H 406.017 -0.754727 0.338106 0
M  V30 4086 H 408.563 -1.08754 1.30271 0
M  V30 4087 H 407.335 -2.75366 2.7801 0
M  V30 4088 H 406.958 -3.73197 1.37149 0
M  V30 4089 N 407.956 -0.998596 -1.21925 0
M  V30 4090 C 409.204 -0.676325 -1.90448 0
M  V30 4091 C 409.525 0.794719 -1.78071 0
M  V30 4092 O 408.795 1.5701 -1.17152 0
M  V30 4093 H 407.375 -0.247165 -0.704925 0
M  V30 4094 H 410.037 -1.26633 -1.48156 0
M  V30 4095 H 409.133 -0.943858 -2.97486 0
M  V30 4096 N 409.434 1.37368 -0.772513 0
M  V30 4097 C 410.682 1.99279 -0.336516 0
M  V30 4098 C 411.003 1.6163 1.09091 0
M  V30 4099 O 410.273 0.882109 1.74916 0
M  V30 4100 H 408.853 0.737063 -0.121435 0
M  V30 4101 H 411.515 1.67836 -0.990809 0
M  V30 4102 H 410.611 3.09332 -0.414763 0
M  V30 4103 N 410.912 0.523116 1.48665 0
M  V30 4104 C 411.875 -0.232592 2.28017 0
M  V30 4105 C 412.875 -0.874021 1.34972 0
M  V30 4106 O 414.065 -0.735132 1.57929 0
M  V30 4107 C 411.197 -1.33586 3.13636 0
M  V30 4108 H 412.39 0.464008 2.96289 0
M  V30 4109 H 409.943 0.278816 1.53793 0
M  V30 4110 H 410.678 -2.06593 2.4998 0
M  V30 4111 H 410.463 -0.881125 3.82071 0
M  V30 4112 H 411.953 -1.86759 3.73511 0
M  V30 4113 N 412.39 -1.55475 0.257931 0
M  V30 4114 C 413.667 -1.91155 -0.414629 0
M  V30 4115 C 414.047 -1.18008 -1.75035 0
M  V30 4116 O 413.395 -0.301193 -2.26506 0
M  V30 4117 C 413.605 -3.44283 -0.571859 0
M  V30 4118 C 414.953 -4.15744 -0.862678 0
M  V30 4119 O 415.977 -3.50083 -0.657314 0
M  V30 4120 O 414.836 -5.31909 -1.2544 0
M  V30 4121 H 411.93 -0.796016 -0.22425 0
M  V30 4122 H 414.476 -1.66976 0.302814 0
M  V30 4123 H 413.248 -3.89558 0.368844 0
M  V30 4124 H 412.871 -3.7436 -1.33943 0
M  V30 4125 N 413.868 0.0150385 -1.57593 0
M  V30 4126 C 415.115 0.703001 -1.89906 0
M  V30 4127 C 415.443 1.74604 -0.856944 0
M  V30 4128 O 414.698 1.95197 0.140287 0
M  V30 4129 C 414.997 1.39686 -3.28972 0
M  V30 4130 C 414.663 0.488457 -4.48246 0
M  V30 4131 C 413.325 0.2383 -4.8061 0
M  V30 4132 C 415.677 -0.137881 -5.21018 0
M  V30 4133 C 413.005 -0.646738 -5.83125 0
M  V30 4134 C 415.357 -1.0107 -6.24474 0
M  V30 4135 C 414.021 -1.27019 -6.55303 0
M  V30 4136 H 413.291 0.257246 -0.694914 0
M  V30 4137 H 415.938 -0.037259 -1.91464 0
M  V30 4138 H 414.243 2.21079 -3.23468 0
M  V30 4139 H 415.94 1.93495 -3.51227 0
M  V30 4140 H 412.53 0.693593 -4.22951 0
M  V30 4141 H 416.714 0.0423953 -4.96282 0
M  V30 4142 H 411.97 -0.855937 -6.05379 0
M  V30 4143 H 416.144 -1.50247 -6.79999 0
M  V30 4144 H 413.771 -1.95769 -7.3456 0
M  V30 4145 N 415.346 1.54954 0.287554 0
M  V30 4146 C 416.592 1.75132 1.02257 0
M  V30 4147 C 416.925 0.542858 1.86458 0
M  V30 4148 O 416.2 -0.459856 1.88986 0
M  V30 4149 C 416.483 3.04812 1.91733 0
M  V30 4150 C 416.336 4.35985 1.10622 0
M  V30 4151 C 417.655 3.30438 2.90687 0
M  V30 4152 H 414.774 0.637194 0.370341 0
M  V30 4153 H 417.416 1.87678 0.296111 0
M  V30 4154 H 415.566 2.94247 2.53675 0
M  V30 4155 H 417.238 4.58487 0.508636 0
M  V30 4156 H 415.481 4.31865 0.409271 0
M  V30 4157 H 416.152 5.23017 1.76513 0
M  V30 4158 H 418.628 3.40701 2.38877 0
M  V30 4159 H 417.504 4.22467 3.50447 0
M  V30 4160 H 417.765 2.49377 3.65053 0
M  V30 4161 N 416.824 -0.551391 1.4764 0
M  V30 4162 C 418.101 -1.31229 1.45046 0
M  V30 4163 C 418.481 -2.10563 0.150527 0
M  V30 4164 O 417.829 -2.11374 -0.867956 0
M  V30 4165 C 418.039 -2.21189 2.69956 0
M  V30 4166 C 419.387 -2.82021 3.1741 0
M  V30 4167 O 420.411 -2.31488 2.70724 0
M  V30 4168 O 419.27 -3.73885 3.98588 0
M  V30 4169 H 416.364 -0.591193 0.578291 0
M  V30 4170 H 418.91 -0.569813 1.59847 0
M  V30 4171 H 417.682 -1.62207 3.56096 0
M  V30 4172 H 417.305 -3.02722 2.57769 0
M  V30 4173 N 418.302 -1.35869 -0.798587 0
M  V30 4174 C 419.232 -1.32118 -1.92528 0
M  V30 4175 C 420.213 -0.194209 -1.68988 0
M  V30 4176 O 421.398 -0.390426 -1.90235 0
M  V30 4177 C 418.528 -1.10047 -3.29404 0
M  V30 4178 C 417.482 -2.19471 -3.67446 0
M  V30 4179 C 416.808 -1.82555 -5.02571 0
M  V30 4180 C 418.108 -3.61495 -3.76987 0
M  V30 4181 H 419.802 -2.26394 -1.95924 0
M  V30 4182 H 417.348 -1.08981 -0.94123 0
M  V30 4183 H 419.301 -1.06061 -4.07835 0
M  V30 4184 H 418.025 -0.122195 -3.26371 0
M  V30 4185 H 416.684 -2.22568 -2.91306 0
M  V30 4186 H 416.332 -0.833249 -4.9605 0
M  V30 4187 H 416.032 -2.5581 -5.28995 0
M  V30 4188 H 417.556 -1.80108 -5.83432 0
M  V30 4189 H 418.97 -3.60676 -4.4563 0
M  V30 4190 H 417.367 -4.33577 -4.14887 0
M  V30 4191 H 418.437 -3.97065 -2.78329 0
M  V30 4192 N 419.78 1.02168 -1.19998 0
M  V30 4193 C 421.01 1.79036 -1.031 0
M  V30 4194 C 421.418 1.84409 0.423078 0
M  V30 4195 O 420.761 1.29228 1.30559 0
M  V30 4196 C 420.823 3.25185 -1.53281 0
M  V30 4197 C 420.487 3.43431 -3.01503 0
M  V30 4198 C 421.484 3.33063 -3.99206 0
M  V30 4199 C 419.169 3.69412 -3.40353 0
M  V30 4200 C 421.163 3.48413 -5.33748 0
M  V30 4201 C 418.85 3.84406 -4.75053 0
M  V30 4202 C 419.848 3.7391 -5.71559 0
M  V30 4203 O 419.536 3.88452 -7.03818 0
M  V30 4204 H 419.268 0.570043 -0.363355 0
M  V30 4205 H 421.822 1.29524 -1.59414 0
M  V30 4206 H 420.052 3.75756 -0.913483 0
M  V30 4207 H 421.741 3.83671 -1.32481 0
M  V30 4208 H 422.507 3.12934 -3.70537 0
M  V30 4209 H 418.386 3.76671 -2.65782 0
M  V30 4210 H 421.93 3.40137 -6.09059 0
M  V30 4211 H 417.827 4.04035 -5.03415 0
M  V30 4212 H 418.595 4.055 -7.10993 0
M  V30 4213 N 421.258 1.00505 1.21394 0
M  V30 4214 C 422.221 0.570459 2.21987 0
M  V30 4215 C 423.221 -0.353211 1.56873 0
M  V30 4216 O 424.411 -0.14349 1.73608 0
M  V30 4217 C 421.543 -0.168555 3.40483 0
M  V30 4218 H 422.736 1.46021 2.6195 0
M  V30 4219 H 420.289 0.793565 1.34656 0
M  V30 4220 H 421.024 -1.07374 3.06009 0
M  V30 4221 H 420.809 0.494823 3.88965 0
M  V30 4222 H 422.299 -0.460362 4.15055 0
M  V30 4223 N 422.737 -1.36956 0.779787 0
M  V30 4224 C 423.985 -1.99097 0.347079 0
M  V30 4225 C 424.306 -1.62206 -1.08232 0
M  V30 4226 O 423.576 -0.891373 -1.74446 0
M  V30 4227 H 422.156 -0.736409 0.125342 0
M  V30 4228 H 424.818 -1.67308 0.999696 0
M  V30 4229 H 423.914 -3.09107 0.431162 0
M  V30 4230 N 424.215 -0.530993 -1.48385 0
M  V30 4231 C 425.443 -0.00134122 -2.069 0
M  V30 4232 C 425.858 1.2805 -1.3874 0
M  V30 4233 O 425.215 1.76204 -0.475244 0
M  V30 4234 C 425.266 0.225256 -3.60798 0
M  V30 4235 O 424.987 -1.0058 -4.26398 0
M  V30 4236 C 426.488 0.795172 -4.3611 0
M  V30 4237 H 423.708 -0.0339704 -0.67014 0
M  V30 4238 H 426.252 -0.736926 -1.90761 0
M  V30 4239 H 424.407 0.910891 -3.76539 0
M  V30 4240 H 424.821 -0.787165 -5.1856 0
M  V30 4241 H 426.295 0.903143 -5.44562 0
M  V30 4242 H 426.772 1.80031 -4.00606 0
M  V30 4243 H 427.378 0.146069 -4.25049 0
M  V30 4244 N 425.693 1.55336 -0.266172 0
M  V30 4245 C 426.941 1.99003 0.35246 0
M  V30 4246 C 427.262 1.15591 1.57047 0
M  V30 4247 O 426.532 0.243268 1.94384 0
M  V30 4248 H 425.112 0.735025 0.133217 0
M  V30 4249 H 427.774 1.91367 -0.369434 0
M  V30 4250 H 426.87 3.05289 0.648453 0
M  V30 4251 N 427.171 -0.0066808 1.57599 0
M  V30 4252 C 428.134 -0.985035 2.06953 0
M  V30 4253 C 429.134 -1.27663 0.977687 0
M  V30 4254 O 430.324 -1.22293 1.24057 0
M  V30 4255 C 427.456 -2.3118 2.50536 0
M  V30 4256 H 428.649 -0.558255 2.94658 0
M  V30 4257 H 426.202 -0.254011 1.54222 0
M  V30 4258 H 426.937 -2.78561 1.66054 0
M  V30 4259 H 426.722 -2.11338 3.3027 0
M  V30 4260 H 428.212 -3.01377 2.8907 0
M  V30 4261 N 428.649 -1.55105 -0.279332 0
M  V30 4262 C 429.597 -1.88333 -1.36505 0
M  V30 4263 C 430.591 -0.759043 -1.51443 0
M  V30 4264 O 431.797 -0.943312 -1.53302 0
M  V30 4265 H 428.172 -0.59766 -0.456406 0
M  V30 4266 H 430.143 -2.79041 -1.05728 0
M  V30 4267 C 428.892 -2.16628 -2.7197 0
M  V30 4268 H 428.215 -3.02624 -2.61264 0
M  V30 4269 H 429.655 -2.43803 -3.46895 0
M  V30 4270 C 428.114 -0.971807 -3.22579 0
M  V30 4271 O 428.644 -0.203228 -4.01186 0
M  V30 4272 N 426.85 -0.771238 -2.80179 0
M  V30 4273 H 426.397 -1.39792 -2.1637 0
M  V30 4274 H 426.355 0.0263667 -3.14389 0
M  V30 4275 N 430.127 0.543554 -1.4793 0
M  V30 4276 C 431.355 1.32516 -1.58894 0
M  V30 4277 C 431.77 1.87215 -0.244131 0
M  V30 4278 O 431.127 1.65709 0.764652 0
M  V30 4279 C 431.178 2.48554 -2.62494 0
M  V30 4280 O 430.899 1.96112 -3.91755 0
M  V30 4281 C 432.4 3.40572 -2.8377 0
M  V30 4282 H 429.62 0.403472 -0.536145 0
M  V30 4283 H 432.164 0.657106 -1.93655 0
M  V30 4284 H 430.319 3.1127 -2.30629 0
M  V30 4285 H 430.733 2.71967 -4.4848 0
M  V30 4286 H 432.207 4.18375 -3.60093 0
M  V30 4287 H 432.684 3.94965 -1.92092 0
M  V30 4288 H 433.29 2.8366 -3.16887 0
M  V30 4289 N 431.605 1.3629 0.791371 0
M  V30 4290 C 432.568 1.30309 1.88553 0
M  V30 4291 C 433.568 0.211204 1.59407 0
M  V30 4292 O 434.758 0.465865 1.67855 0
M  V30 4293 C 431.89 1.01956 3.25297 0
M  V30 4294 H 433.083 2.27614 1.95273 0
M  V30 4295 H 430.636 1.21035 0.988953 0
M  V30 4296 H 431.371 0.050998 3.2426 0
M  V30 4297 H 431.156 1.80968 3.4784 0
M  V30 4298 H 432.646 1.0037 4.05359 0
M  V30 4299 N 433.083 -1.0153 1.20538 0
M  V30 4300 C 434.323 -1.76689 1.02763 0
M  V30 4301 C 434.687 -1.87065 -0.432513 0
M  V30 4302 O 435.888 -2.58684 -0.730481 0
M  V30 4303 C 434.159 -3.14707 1.69393 0
M  V30 4304 S 435.718 -4.05886 1.66738 0
M  V30 4305 H 432.536 -0.608076 0.368463 0
M  V30 4306 H 435.138 -1.21558 1.53114 0
M  V30 4307 H 433.842 -3.04782 2.74838 0
M  V30 4308 H 433.373 -3.74913 1.19179 0
M  V30 4309 H 435.388 -4.91221 0.70117 0
M  V30 4310 N 434.561 -1.01147 -1.20859 0
M  V30 4311 C 435.838 -0.613136 -1.85742 0
M  V30 4312 C 436.218 0.909004 -1.90526 0
M  V30 4313 O 435.566 1.79862 -1.40932 0
M  V30 4314 C 435.776 -1.255 -3.25654 0
M  V30 4315 C 437.124 -1.3672 -4.01986 0
M  V30 4316 O 438.148 -1.21082 -3.34989 0
M  V30 4317 O 437.007 -1.6194 -5.21956 0
M  V30 4318 H 434.101 -0.210878 -0.799662 0
M  V30 4319 H 436.647 -1.10853 -1.2849 0
M  V30 4320 H 435.419 -2.29532 -3.16908 0
M  V30 4321 H 435.042 -0.746369 -3.90532 0
M  V30 4322 N 436.039 1.36541 -0.78704 0
M  V30 4323 C 437.287 1.98911 -0.357633 0
M  V30 4324 C 437.608 1.62778 1.07371 0
M  V30 4325 O 436.878 0.900612 1.73971 0
M  V30 4326 H 435.458 0.735734 -0.129246 0
M  V30 4327 H 438.12 1.66776 -1.00855 0
M  V30 4328 H 437.216 3.08874 -0.447549 0
M  V30 4329 N 437.518 0.538854 1.48102 0
M  V30 4330 C 438.481 -0.208395 2.28251 0
M  V30 4331 C 439.481 -0.859656 1.35892 0
M  V30 4332 O 440.671 -0.71834 1.58699 0
M  V30 4333 C 437.803 -1.30252 3.15035 0
M  V30 4334 H 438.996 0.495407 2.9578 0
M  V30 4335 H 436.549 0.295112 1.53489 0
M  V30 4336 H 437.284 -2.0393 2.52157 0
M  V30 4337 H 437.069 -0.840551 3.82985 0
M  V30 4338 H 438.559 -1.82787 3.75471 0
M  V30 4339 N 438.996 -1.55193 0.274407 0
M  V30 4340 C 440.273 -1.91584 -0.394331 0
M  V30 4341 C 440.653 -1.19858 -1.73774 0
M  V30 4342 O 440.001 -0.3252 -2.26174 0
M  V30 4343 C 440.211 -3.4487 -0.535311 0
M  V30 4344 C 441.559 -4.16636 -0.818534 0
M  V30 4345 O 442.583 -3.5076 -0.620146 0
M  V30 4346 O 441.442 -5.33209 -1.19792 0
M  V30 4347 H 438.536 -0.798349 -0.215794 0
M  V30 4348 H 441.082 -1.66646 0.320507 0
M  V30 4349 H 439.854 -3.89145 0.410141 0
M  V30 4350 H 439.477 -3.75759 -1.29964 0
M  V30 4351 N 440.474 -0.00167713 -1.576 0
M  V30 4352 C 441.89 0.354422 -1.55615 0
M  V30 4353 C 442.09 1.74679 -1.00447 0
M  V30 4354 O 441.146 2.4428 -0.639022 0
M  V30 4355 C 442.459 0.22812 -2.99833 0
M  V30 4356 C 444.007 0.302934 -3.11531 0
M  V30 4357 C 444.482 0.205737 -4.57538 0
M  V30 4358 N 445.973 0.263584 -4.62449 0
M  V30 4359 C 446.708 0.211742 -5.73009 0
M  V30 4360 N 446.204 0.110399 -6.92712 0
M  V30 4361 N 447.997 0.263729 -5.61481 0
M  V30 4362 H 440.148 -0.912498 -1.918 0
M  V30 4363 H 442.411 -0.349928 -0.881053 0
M  V30 4364 H 442.117 -0.729934 -3.44042 0
M  V30 4365 H 441.991 1.00951 -3.6344 0
M  V30 4366 H 444.378 1.25143 -2.67251 0
M  V30 4367 H 444.459 -0.508357 -2.50698 0
M  V30 4368 H 444.103 -0.739225 -5.02492 0
M  V30 4369 H 444.033 1.03554 -5.16318 0
M  V30 4370 H 446.524 0.343173 -3.76339 0
M  V30 4371 H 446.837 0.0767828 -7.72762 0
M  V30 4372 H 445.182 0.0760025 -6.94958 0
M  V30 4373 H 448.373 0.34111 -4.66855 0
M  V30 4374 H 448.546 0.219862 -6.47627 0
M  V30 4375 N 441.952 1.55251 0.271103 0
M  V30 4376 C 443.2 1.75599 1.00047 0
M  V30 4377 C 443.521 0.561188 1.8675 0
M  V30 4378 O 442.791 -0.423846 1.9126 0
M  V30 4379 H 441.371 0.647562 0.372387 0
M  V30 4380 H 444.033 1.92656 0.294876 0
M  V30 4381 H 443.129 2.65766 1.6363 0
M  V30 4382 N 443.43 -0.535701 1.48216 0
M  V30 4383 C 444.679 -1.28828 1.55197 0
M  V30 4384 C 444.992 -1.94263 0.228278 0
M  V30 4385 O 446.198 -2.70927 0.176278 0
M  V30 4386 C 444.654 -2.33727 2.73678 0
M  V30 4387 C 444.262 -1.74386 4.12666 0
M  V30 4388 C 446.006 -3.1003 2.89968 0
M  V30 4389 C 443.913 -2.77192 5.22416 0
M  V30 4390 H 442.843 -0.484484 0.577747 0
M  V30 4391 H 445.494 -0.56646 1.74538 0
M  V30 4392 H 443.876 -3.08919 2.4776 0
M  V30 4393 H 445.05 -1.05421 4.48579 0
M  V30 4394 H 443.365 -1.10595 4.01445 0
M  V30 4395 H 445.962 -3.86842 3.6913 0
M  V30 4396 H 446.305 -3.65542 1.9921 0
M  V30 4397 H 446.838 -2.41952 3.15759 0
M  V30 4398 H 443.577 -2.26507 6.15122 0
M  V30 4399 H 443.097 -3.44502 4.90998 0
M  V30 4400 H 444.776 -3.40285 5.50286 0
M  V30 4401 N 444.908 -1.36708 -0.784132 0
M  V30 4402 C 446.156 -1.30972 -1.53918 0
M  V30 4403 C 446.477 0.109086 -1.94695 0
M  V30 4404 O 445.747 1.05048 -1.65353 0
M  V30 4405 H 444.327 -0.481819 -0.570841 0
M  V30 4406 H 446.989 -1.71063 -0.934002 0
M  V30 4407 H 446.085 -1.94061 -2.44431 0
M  V30 4408 N 446.386 1.0089 -1.21074 0
M  V30 4409 C 447.634 1.74262 -1.02358 0
M  V30 4410 C 447.955 1.89869 0.444393 0
M  V30 4411 O 447.225 1.44677 1.32081 0
M  V30 4412 H 445.805 0.645615 -0.375754 0
M  V30 4413 H 448.467 1.21596 -1.52317 0
M  V30 4414 H 447.563 2.74328 -1.4883 0
M  V30 4415 N 447.864 1.01787 1.20321 0
M  V30 4416 C 448.794 0.609625 2.25401 0
M  V30 4417 C 449.775 -0.375951 1.65893 0
M  V30 4418 O 450.96 -0.261101 1.92437 0
M  V30 4419 C 448.09 -0.0515995 3.47262 0
M  V30 4420 C 447.044 0.855095 4.19371 0
M  V30 4421 C 446.37 0.0595757 5.34667 0
M  V30 4422 C 447.67 2.16374 4.75373 0
M  V30 4423 H 449.364 1.48803 2.59804 0
M  V30 4424 H 446.91 0.716934 1.24884 0
M  V30 4425 H 448.863 -0.348764 4.19954 0
M  V30 4426 H 447.587 -0.964726 3.12027 0
M  V30 4427 H 446.246 1.13628 3.48546 0
M  V30 4428 H 445.894 -0.85524 4.95676 0
M  V30 4429 H 445.594 0.663406 5.83843 0
M  V30 4430 H 447.118 -0.231105 6.10162 0
M  V30 4431 H 448.532 1.92885 5.39878 0
M  V30 4432 H 446.929 2.71853 5.34991 0
M  V30 4433 H 447.999 2.82589 3.94045 0
M  V30 4434 N 449.342 -1.36122 0.79427 0
M  V30 4435 C 450.272 -2.32551 0.210328 0
M  V30 4436 C 451.253 -1.56884 -0.657386 0
M  V30 4437 O 452.438 -1.85014 -0.590207 0
M  V30 4438 C 449.568 -3.41128 -0.651819 0
M  V30 4439 C 448.522 -4.27842 0.116395 0
M  V30 4440 C 447.848 -5.2763 -0.86666 0
M  V30 4441 C 449.148 -5.05647 1.30837 0
M  V30 4442 H 450.842 -2.81636 1.01594 0
M  V30 4443 H 448.388 -1.35407 0.489981 0
M  V30 4444 H 450.341 -4.07581 -1.07031 0
M  V30 4445 H 449.065 -2.90622 -1.49019 0
M  V30 4446 H 447.724 -3.62952 0.515915 0
M  V30 4447 H 447.372 -4.73395 -1.70019 0
M  V30 4448 H 447.072 -5.86514 -0.35705 0
M  V30 4449 H 448.596 -5.96955 -1.28361 0
M  V30 4450 H 450.01 -5.65113 0.965393 0
M  V30 4451 H 448.407 -5.73967 1.75161 0
M  V30 4452 H 449.477 -4.37006 2.10128 0
M  V30 4453 N 450.82 -0.546701 -1.47814 0
M  V30 4454 C 451.73 0.21026 -2.33656 0
M  V30 4455 C 452.746 0.922413 -1.47538 0
M  V30 4456 O 453.922 0.893652 -1.80488 0
M  V30 4457 C 450.987 1.23348 -3.24016 0
M  V30 4458 C 450.048 0.529883 -4.26017 0
M  V30 4459 C 449.281 1.50435 -5.12059 0
M  V30 4460 O 449.504 2.73837 -5.00369 0
M  V30 4461 O 448.438 1.03459 -5.92942 0
M  V30 4462 H 452.264 -0.493605 -2.99662 0
M  V30 4463 H 449.849 -0.307427 -1.46203 0
M  V30 4464 H 451.731 1.82438 -3.79861 0
M  V30 4465 H 450.406 1.91945 -2.60651 0
M  V30 4466 H 449.313 -0.101948 -3.73961 0
M  V30 4467 H 450.646 -0.11445 -4.92067 0
M  V30 4468 N 452.299 1.55045 -0.282633 0
M  V30 4469 C 453.576 1.9179 0.384166 0
M  V30 4470 C 453.956 1.20778 1.73136 0
M  V30 4471 O 453.304 0.33719 2.25998 0
M  V30 4472 C 453.514 3.45149 0.517014 0
M  V30 4473 C 454.862 4.17064 0.796427 0
M  V30 4474 O 455.886 3.51084 0.601535 0
M  V30 4475 O 454.745 5.33837 1.16962 0
M  V30 4476 H 451.839 0.799483 0.211558 0
M  V30 4477 H 454.385 1.66474 -0.32934 0
M  V30 4478 H 453.157 3.88922 -0.430772 0
M  V30 4479 H 452.78 3.76443 1.2797 0
M  V30 4480 N 453.777 0.010035 1.57597 0
M  V30 4481 C 455.002 -0.687021 1.95691 0
M  V30 4482 C 455.427 -1.65952 0.885519 0
M  V30 4483 O 454.785 -1.80633 -0.15543 0
M  V30 4484 C 454.833 -1.3864 3.32884 0
M  V30 4485 O 453.937 -2.50115 3.27897 0
M  V30 4486 H 453.278 -0.181989 0.638573 0
M  V30 4487 H 455.808 0.0662122 2.04493 0
M  V30 4488 H 455.818 -1.74754 3.6868 0
M  V30 4489 H 454.493 -0.673411 4.10412 0
M  V30 4490 H 453.07 -2.16253 3.03791 0
M  V30 4491 N 455.255 -1.55392 -0.262866 0
M  V30 4492 C 456.187 -1.85392 -1.34768 0
M  V30 4493 C 457.2 -0.739069 -1.45057 0
M  V30 4494 O 458.389 -1.01703 -1.46693 0
M  V30 4495 C 455.489 -2.01088 -2.72795 0
M  V30 4496 C 454.662 -3.31828 -2.84972 0
M  V30 4497 C 453.721 -3.37464 -4.03738 0
M  V30 4498 O 452.747 -4.10778 -3.94018 0
M  V30 4499 N 453.949 -2.65599 -5.16176 0
M  V30 4500 H 456.714 -2.79029 -1.09375 0
M  V30 4501 H 454.275 -1.55434 -0.452981 0
M  V30 4502 H 456.267 -2.02217 -3.50557 0
M  V30 4503 H 454.837 -1.1427 -2.90966 0
M  V30 4504 H 454.057 -3.43152 -1.94012 0
M  V30 4505 H 455.345 -4.18032 -2.90045 0
M  V30 4506 H 454.743 -2.05736 -5.26962 0
M  V30 4507 H 453.3 -2.72439 -5.92132 0
M  V30 4508 N 456.733 0.527833 -1.48498 0
M  V30 4509 C 457.663 1.64136 -1.66077 0
M  V30 4510 C 458.644 1.62286 -0.509625 0
M  V30 4511 O 459.829 1.79449 -0.742413 0
M  V30 4512 C 456.959 3.02717 -1.70234 0
M  V30 4513 C 455.913 3.19426 -2.8487 0
M  V30 4514 C 455.239 4.5909 -2.74118 0
M  V30 4515 C 456.539 3.01993 -4.26142 0
M  V30 4516 H 458.233 1.4968 -2.593 0
M  V30 4517 H 455.779 0.718654 -1.24785 0
M  V30 4518 H 457.732 3.80491 -1.8112 0
M  V30 4519 H 456.456 3.18201 -0.735911 0
M  V30 4520 H 455.115 2.4407 -2.73542 0
M  V30 4521 H 454.763 4.71413 -1.7544 0
M  V30 4522 H 454.463 4.71214 -3.51042 0
M  V30 4523 H 455.987 5.3896 -2.86974 0
M  V30 4524 H 457.401 3.69558 -4.38292 0
M  V30 4525 H 455.798 3.2561 -5.04082 0
M  V30 4526 H 456.868 1.98396 -4.42456 0
M  V30 4527 N 458.211 1.37122 0.776871 0
M  V30 4528 C 459.121 1.34651 1.9211 0
M  V30 4529 C 460.137 0.246824 1.7224 0
M  V30 4530 O 461.313 0.48134 1.95563 0
M  V30 4531 C 458.378 1.14748 3.2716 0
M  V30 4532 C 457.439 2.34308 3.5972 0
M  V30 4533 C 456.672 2.15345 4.88326 0
M  V30 4534 O 456.895 1.13507 5.58992 0
M  V30 4535 O 455.829 3.03414 5.1983 0
M  V30 4536 H 459.655 2.31013 1.97146 0
M  V30 4537 H 457.24 1.17799 0.918901 0
M  V30 4538 H 459.122 1.05616 4.0795 0
M  V30 4539 H 457.797 0.214562 3.22988 0
M  V30 4540 H 456.704 2.49011 2.79185 0
M  V30 4541 H 458.037 3.26149 3.68629 0
M  V30 4542 N 459.689 -1.00246 1.21608 0
M  V30 4543 C 460.619 -2.10921 1.00172 0
M  V30 4544 C 461.6 -1.69938 -0.0741587 0
M  V30 4545 O 462.785 -1.94009 0.0861753 0
M  V30 4546 C 459.915 -3.42618 0.568355 0
M  V30 4547 C 458.869 -3.97407 1.58909 0
M  V30 4548 C 458.195 -5.25038 1.01187 0
M  V30 4549 C 459.495 -4.2918 2.97661 0
M  V30 4550 H 461.189 -2.29112 1.92739 0
M  V30 4551 H 458.735 -1.10101 0.928102 0
M  V30 4552 H 460.688 -4.19444 0.405555 0
M  V30 4553 H 459.412 -3.24227 -0.392961 0
M  V30 4554 H 458.071 -3.22703 1.73949 0
M  V30 4555 H 457.719 -5.02982 0.0421965 0
M  V30 4556 H 457.419 -5.62661 1.6937 0
M  V30 4557 H 458.943 -6.04507 0.860448 0
M  V30 4558 H 460.357 -4.96839 2.86049 0
M  V30 4559 H 458.754 -4.77952 3.6288 0
M  V30 4560 H 459.824 -3.3735 3.48315 0
M  V30 4561 N 461.167 -1.02423 -1.1978 0
M  V30 4562 C 462.097 -0.62157 -2.25075 0
M  V30 4563 C 463.078 0.367148 -1.6609 0
M  V30 4564 O 464.263 0.250892 -1.92573 0
M  V30 4565 C 461.393 0.0331826 -3.47284 0
M  V30 4566 C 460.347 -0.877323 -4.18912 0
M  V30 4567 C 459.673 -0.0879296 -5.34628 0
M  V30 4568 C 460.973 -2.18892 -4.74219 0
M  V30 4569 H 462.667 -1.50179 -2.59011 0
M  V30 4570 H 460.213 -0.723547 -1.24502 0
M  V30 4571 H 462.166 0.326488 -4.20133 0
M  V30 4572 H 460.89 0.948164 -3.12534 0
M  V30 4573 H 459.549 -1.15475 -3.47938 0
M  V30 4574 H 459.197 0.828941 -4.96123 0
M  V30 4575 H 458.897 -0.694359 -5.83483 0
M  V30 4576 H 460.421 0.198743 -6.10276 0
M  V30 4577 H 461.835 -1.95746 -5.38847 0
M  V30 4578 H 460.232 -2.74686 -5.33542 0
M  V30 4579 H 461.302 -2.84674 -3.92541 0
M  V30 4580 N 462.645 1.35699 -0.801477 0
M  V30 4581 C 463.893 1.9852 -0.37871 0
M  V30 4582 C 464.214 1.63907 1.05638 0
M  V30 4583 O 463.484 0.919013 1.73006 0
M  V30 4584 H 462.064 0.734322 -0.137042 0
M  V30 4585 H 464.726 1.65697 -1.02619 0
M  V30 4586 H 463.822 3.08382 -0.480284 0
M  V30 4587 N 464.123 0.554532 1.47522 0
M  V30 4588 C 465.351 0.034257 2.06872 0
M  V30 4589 C 465.766 -1.25826 1.40759 0
M  V30 4590 O 465.123 -1.75425 0.503217 0
M  V30 4591 C 465.174 -0.167827 3.6111 0
M  V30 4592 O 464.895 1.07351 4.24744 0
M  V30 4593 C 466.396 -0.72569 4.3732 0
M  V30 4594 H 463.616 0.0446275 0.669514 0
M  V30 4595 H 466.16 0.767181 1.89564 0
M  V30 4596 H 464.315 -0.850872 3.7794 0
M  V30 4597 H 464.729 0.869563 5.17242 0
M  V30 4598 H 466.203 -0.816394 5.45929 0
M  V30 4599 H 466.68 -1.73635 4.0342 0
M  V30 4600 H 467.286 -0.0784292 4.25228 0
M  V30 4601 N 465.601 -1.54893 0.290851 0
M  V30 4602 C 466.548 -2.23138 -0.58974 0
M  V30 4603 C 467.518 -1.21036 -1.13752 0
M  V30 4604 O 468.703 -1.49626 -1.18392 0
M  V30 4605 C 465.843 -2.96811 -1.76061 0
M  V30 4606 C 464.956 -4.13665 -1.24519 0
M  V30 4607 C 464.091 -4.74944 -2.3791 0
M  V30 4608 C 463.13 -5.83963 -1.83451 0
M  V30 4609 N 462.267 -6.39239 -2.90376 0
M  V30 4610 H 467.107 -2.98 -0.00114915 0
M  V30 4611 H 464.644 -1.47096 0.0112006 0
M  V30 4612 H 466.602 -3.37751 -2.44909 0
M  V30 4613 H 465.232 -2.24344 -2.32098 0
M  V30 4614 H 464.284 -3.77737 -0.449288 0
M  V30 4615 H 465.596 -4.92238 -0.806424 0
M  V30 4616 H 464.75 -5.18684 -3.14724 0
M  V30 4617 H 463.489 -3.95682 -2.85109 0
M  V30 4618 H 462.494 -5.39657 -1.05122 0
M  V30 4619 H 463.719 -6.65103 -1.37169 0
M  V30 4620 H 461.665 -5.62864 -3.36927 0
M  V30 4621 H 461.582 -7.13129 -2.50965 0
M  V30 4622 H 462.85 -6.87637 -3.67118 0
M  V30 4623 N 467.08 -0.0183926 -1.57589 0
M  V30 4624 C 468.329 0.66185 -1.90532 0
M  V30 4625 C 468.642 1.73904 -0.895366 0
M  V30 4626 O 469.848 2.47518 -1.11566 0
M  V30 4627 C 468.304 1.22844 -3.38286 0
M  V30 4628 C 467.912 0.185103 -4.47617 0
M  V30 4629 C 469.656 1.88581 -3.80312 0
M  V30 4630 C 467.563 0.762723 -5.86461 0
M  V30 4631 H 466.493 0.250972 -0.711006 0
M  V30 4632 H 469.144 -0.0819435 -1.83317 0
M  V30 4633 H 467.526 2.0235 -3.40398 0
M  V30 4634 H 468.7 -0.58671 -4.5705 0
M  V30 4635 H 467.015 -0.372889 -4.14727 0
M  V30 4636 H 469.612 2.32735 -4.81392 0
M  V30 4637 H 469.955 2.72408 -3.14801 0
M  V30 4638 H 470.488 1.15782 -3.80578 0
M  V30 4639 H 467.227 -0.0371713 -6.55489 0
M  V30 4640 H 466.747 1.50327 -5.80656 0
M  V30 4641 H 468.426 1.25576 -6.34697 0
M  V30 4642 N 468.558 1.5553 0.254621 0
M  V30 4643 C 469.969 1.67518 0.824286 0
M  V30 4644 C 470.32 0.614429 1.86331 0
M  V30 4645 O 469.445 -0.240736 2.15057 0
M  V30 4646 C 470.04 3.03692 1.50189 0
M  V30 4647 C 468.599 3.17646 2.01935 0
M  V30 4648 C 467.746 2.63373 0.867746 0
M  V30 4649 H 470.697 1.58671 0.0305843 0
M  V30 4650 H 470.718 2.97706 2.36962 0
M  V30 4651 H 470.23 3.80874 0.745431 0
M  V30 4652 H 468.331 2.45273 2.80485 0
M  V30 4653 H 468.444 4.24455 2.22204 0
M  V30 4654 H 466.808 2.20999 1.26616 0
M  V30 4655 H 467.591 3.43074 0.124498 0
M  V30 4656 N 470.036 -0.519951 1.48776 0
M  V30 4657 C 471.282 -1.27456 1.58514 0
M  V30 4658 C 471.637 -1.90634 0.260057 0
M  V30 4659 O 470.93 -1.76815 -0.738036 0
M  V30 4660 C 471.124 -2.37864 2.6675 0
M  V30 4661 C 470.953 -1.85509 4.09654 0
M  V30 4662 C 469.723 -1.67661 4.76674 0
M  V30 4663 C 471.921 -1.37783 4.955 0
M  V30 4664 N 469.903 -1.10037 6.03958 0
M  V30 4665 C 471.274 -0.921714 6.1311 0
M  V30 4666 C 473.329 -1.26179 4.81646 0
M  V30 4667 C 472.032 -0.361057 7.18393 0
M  V30 4668 C 474.058 -0.715121 5.8706 0
M  V30 4669 C 473.42 -0.269132 7.03886 0
M  V30 4670 H 469.519 -0.457049 0.634531 0
M  V30 4671 H 472.103 -0.585073 1.85701 0
M  V30 4672 H 470.274 -3.04296 2.41367 0
M  V30 4673 H 472.006 -3.04901 2.66116 0
M  V30 4674 H 468.761 -1.91478 4.33166 0
M  V30 4675 H 469.185 -0.832067 6.71867 0
M  V30 4676 H 473.827 -1.59263 3.91657 0
M  V30 4677 H 471.545 -0.0179127 8.08098 0
M  V30 4678 H 475.131 -0.628376 5.78397 0
M  V30 4679 H 474.011 0.14729 7.84062 0
M  V30 4680 N 471.514 -1.37532 -0.769588 0
M  V30 4681 C 472.744 -1.35861 -1.55645 0
M  V30 4682 C 473.152 0.0574398 -1.89113 0
M  V30 4683 O 472.495 1.03021 -1.52093 0
M  V30 4684 C 472.557 -2.13431 -2.89288 0
M  V30 4685 C 472.221 -3.62378 -2.78444 0
M  V30 4686 C 473.218 -4.56215 -2.49326 0
M  V30 4687 C 470.903 -4.05529 -2.96398 0
M  V30 4688 C 472.897 -5.91181 -2.38294 0
M  V30 4689 C 470.584 -5.40579 -2.84987 0
M  V30 4690 C 471.582 -6.33218 -2.55975 0
M  V30 4691 O 471.27 -7.65787 -2.44594 0
M  V30 4692 H 471.002 -0.467001 -0.48876 0
M  V30 4693 H 473.556 -1.81505 -0.961515 0
M  V30 4694 H 471.786 -1.62481 -3.50909 0
M  V30 4695 H 473.475 -2.04368 -3.50697 0
M  V30 4696 H 474.241 -4.24187 -2.35139 0
M  V30 4697 H 470.12 -3.33781 -3.1798 0
M  V30 4698 H 473.664 -6.63457 -2.15571 0
M  V30 4699 H 469.561 -5.72209 -2.98743 0
M  V30 4700 H 470.329 -7.76132 -2.59927 0
M  V30 4701 N 472.992 0.995999 -1.22138 0
M  V30 4702 C 473.955 2.06711 -0.990109 0
M  V30 4703 C 474.955 1.60744 0.0422978 0
M  V30 4704 O 476.145 1.73095 -0.195895 0
M  V30 4705 C 473.277 3.37288 -0.49491 0
M  V30 4706 H 474.47 2.28661 -1.94047 0
M  V30 4707 H 472.023 1.16711 -1.03963 0
M  V30 4708 H 472.758 3.21022 0.459948 0
M  V30 4709 H 472.543 3.71986 -1.23971 0
M  V30 4710 H 474.033 4.16103 -0.353253 0
M  V30 4711 N 474.47 1.03057 1.19235 0
M  V30 4712 C 475.42 0.583386 2.2041 0
M  V30 4713 C 476.404 -0.368776 1.56617 0
M  V30 4714 O 477.596 -0.189471 1.75983 0
M  V30 4715 C 474.725 -0.0626534 3.43243 0
M  V30 4716 C 473.811 0.91205 4.14177 0
M  V30 4717 N 474.202 2.07514 4.61272 0
M  V30 4718 C 472.5 0.735859 4.39888 0
M  V30 4719 C 473.201 2.69003 5.15764 0
M  V30 4720 N 472.177 1.96954 5.06666 0
M  V30 4721 H 475.979 1.46988 2.54503 0
M  V30 4722 H 473.493 0.897785 1.35328 0
M  V30 4723 H 475.49 -0.400653 4.1497 0
M  V30 4724 H 474.15 -0.944813 3.1065 0
M  V30 4725 H 475.161 2.45448 4.56043 0
M  V30 4726 H 471.838 -0.0970656 4.17387 0
M  V30 4727 H 473.228 3.67514 5.6248 0
M  V30 4728 N 475.948 -1.35272 0.808662 0
M  V30 4729 C 477.359 -1.81179 0.450688 0
M  V30 4730 C 477.71 -1.67143 -1.02751 0
M  V30 4731 O 476.835 -1.20325 -1.79864 0
M  V30 4732 C 477.43 -3.28943 0.811275 0
M  V30 4733 C 475.989 -3.72985 0.505871 0
M  V30 4734 C 475.136 -2.57229 1.03578 0
M  V30 4735 H 478.087 -1.2322 1.00012 0
M  V30 4736 H 478.108 -3.80342 0.109588 0
M  V30 4737 H 477.62 -3.39127 1.88718 0
M  V30 4738 H 475.721 -3.68349 -0.561209 0
M  V30 4739 H 475.834 -4.67677 1.03995 0
M  V30 4740 H 474.198 -2.50548 0.458005 0
M  V30 4741 H 474.981 -2.7019 2.11784 0
M  V30 4742 N 477.426 -0.562348 -1.47226 0
M  V30 4743 C 478.374 0.195476 -2.31777 0
M  V30 4744 C 479.368 0.90433 -1.43242 0
M  V30 4745 O 480.574 0.825031 -1.59979 0
M  V30 4746 H 476.949 0.0819095 -0.747526 0
M  V30 4747 H 478.92 -0.536753 -2.93533 0
M  V30 4748 C 477.669 1.20902 -3.26003 0
M  V30 4749 H 476.992 0.672997 -3.94095 0
M  V30 4750 H 478.432 1.71006 -3.87986 0
M  V30 4751 C 476.891 2.25955 -2.49891 0
M  V30 4752 O 477.421 3.32969 -2.2471 0
M  V30 4753 N 475.627 2.00019 -2.1081 0
M  V30 4754 H 475.174 1.13006 -2.31489 0
M  V30 4755 H 475.132 2.70523 -1.60201 0
M  V30 4756 N 478.904 1.54736 -0.299062 0
M  V30 4757 C 480.181 1.92187 0.363802 0
M  V30 4758 C 480.561 1.22607 1.71845 0
M  V30 4759 O 479.909 0.361141 2.25628 0
M  V30 4760 C 480.119 3.45678 0.480377 0
M  V30 4761 C 481.467 4.17885 0.752147 0
M  V30 4762 O 482.491 3.51702 0.564264 0
M  V30 4763 O 481.35 5.35048 1.11294 0
M  V30 4764 H 478.444 0.801681 0.203066 0
M  V30 4765 H 480.99 1.66115 -0.346978 0
M  V30 4766 H 479.762 3.88443 -0.471999 0
M  V30 4767 H 479.385 3.77779 1.2397 0
M  V30 4768 N 480.382 0.0267497 1.57577 0
M  V30 4769 C 481.329 -0.955894 2.10075 0
M  V30 4770 C 482.299 -1.32453 1.00226 0
M  V30 4771 O 483.484 -1.41826 1.27632 0
M  V30 4772 C 480.624 -2.2338 2.6305 0
M  V30 4773 C 479.737 -1.92183 3.86898 0
M  V30 4774 C 478.872 -3.14251 4.28275 0
M  V30 4775 C 477.911 -2.78862 5.44888 0
M  V30 4776 N 477.048 -3.93548 5.81433 0
M  V30 4777 H 481.888 -0.501303 2.93753 0
M  V30 4778 H 479.425 -0.235847 1.45197 0
M  V30 4779 H 481.383 -2.98124 2.91853 0
M  V30 4780 H 480.013 -2.6646 1.82205 0
M  V30 4781 H 479.065 -1.07692 3.64838 0
M  V30 4782 H 480.377 -1.62117 4.7172 0
M  V30 4783 H 479.531 -3.97317 4.58502 0
M  V30 4784 H 478.27 -3.47476 3.42215 0
M  V30 4785 H 477.275 -1.94208 5.14357 0
M  V30 4786 H 478.5 -2.46855 6.32645 0
M  V30 4787 H 476.446 -4.2662 4.98328 0
M  V30 4788 H 476.363 -3.67098 6.6089 0
M  V30 4789 H 477.631 -4.77325 6.16264 0
M  V30 4790 N 481.861 -1.55662 -0.24637 0
M  V30 4791 C 483.109 -1.77168 -0.972411 0
M  V30 4792 C 483.43 -0.590827 -1.85834 0
M  V30 4793 O 482.7 0.393365 -1.9191 0
M  V30 4794 H 481.28 -0.653405 -0.362038 0
M  V30 4795 H 483.942 -1.93101 -0.264189 0
M  V30 4796 H 483.038 -2.68335 -1.59382 0
M  V30 4797 N 483.339 0.512053 -1.4905 0
M  V30 4798 C 484.755 0.84224 -1.35567 0
M  V30 4799 C 484.955 1.97878 -0.380319 0
M  V30 4800 O 484.011 2.51769 0.19201 0
M  V30 4801 C 485.324 1.19286 -2.76028 0
M  V30 4802 C 486.872 1.30171 -2.84648 0
M  V30 4803 C 487.347 1.68568 -4.25851 0
M  V30 4804 N 488.838 1.75638 -4.28609 0
M  V30 4805 C 489.573 2.06769 -5.34821 0
M  V30 4806 N 489.069 2.36201 -6.51292 0
M  V30 4807 N 490.862 2.07927 -5.22229 0
M  V30 4808 H 483.013 -0.237574 -2.11067 0
M  V30 4809 H 485.276 -0.0436747 -0.946993 0
M  V30 4810 H 484.982 0.431199 -3.49047 0
M  V30 4811 H 484.856 2.13889 -3.10695 0
M  V30 4812 H 487.243 2.05411 -2.11873 0
M  V30 4813 H 487.324 0.336457 -2.53578 0
M  V30 4814 H 486.968 0.938824 -4.99148 0
M  V30 4815 H 486.898 2.66174 -4.54377 0
M  V30 4816 H 489.389 1.55097 -3.44606 0
M  V30 4817 H 489.702 2.59112 -7.28066 0
M  V30 4818 H 488.047 2.33681 -6.54536 0
M  V30 4819 H 491.238 1.84403 -4.30248 0
M  V30 4820 H 491.411 2.31856 -6.05101 0
M  V30 4821 N 484.817 1.37938 0.762283 0
M  V30 4822 C 486.094 1.24196 1.51112 0
M  V30 4823 C 486.474 -0.160409 2.1049 0
M  V30 4824 O 485.822 -1.16904 1.96331 0
M  V30 4825 C 486.032 2.34537 2.58445 0
M  V30 4826 C 487.38 2.7254 3.25588 0
M  V30 4827 O 488.404 2.33783 2.68745 0
M  V30 4828 O 487.263 3.39343 4.28379 0
M  V30 4829 H 484.357 0.485175 0.669727 0
M  V30 4830 H 486.903 1.49743 0.798438 0
M  V30 4831 H 485.675 3.28406 2.12756 0
M  V30 4832 H 485.298 2.10505 3.37303 0
M  V30 4833 N 486.295 -0.989507 1.22664 0
M  V30 4834 C 487.544 -1.72375 1.04737 0
M  V30 4835 C 487.857 -1.91096 -0.417316 0
M  V30 4836 O 489.063 -2.6188 -0.716334 0
M  V30 4837 C 487.519 -3.10161 1.82561 0
M  V30 4838 C 487.127 -2.99358 3.333 0
M  V30 4839 C 488.871 -3.87607 1.73093 0
M  V30 4840 C 486.778 -4.32319 4.03552 0
M  V30 4841 H 485.708 -0.646326 0.388302 0
M  V30 4842 H 488.359 -1.10437 1.46546 0
M  V30 4843 H 486.741 -3.728 1.33552 0
M  V30 4844 H 487.915 -2.45863 3.89728 0
M  V30 4845 H 486.23 -2.35392 3.43481 0
M  V30 4846 H 488.827 -4.86025 2.22899 0
M  V30 4847 H 489.17 -4.10509 0.691976 0
M  V30 4848 H 489.703 -3.31652 2.19663 0
M  V30 4849 H 486.442 -4.14616 5.07714 0
M  V30 4850 H 485.962 -4.85714 3.51911 0
M  V30 4851 H 487.641 -5.01051 4.09337 0
M  V30 4852 N 487.773 -1.03688 -1.18687 0
M  V30 4853 C 488.705 -0.582696 -2.21669 0
M  V30 4854 C 489.718 0.345656 -1.59088 0
M  V30 4855 O 490.907 0.140776 -1.77944 0
M  V30 4856 C 488.007 0.169204 -3.38477 0
M  V30 4857 C 487.18 -0.766079 -4.30639 0
M  V30 4858 C 486.239 -0.0581541 -5.26168 0
M  V30 4859 O 485.265 -0.687346 -5.65035 0
M  V30 4860 N 486.467 1.20981 -5.67753 0
M  V30 4861 H 489.232 -1.46843 -2.61261 0
M  V30 4862 H 486.793 -0.916896 -1.33434 0
M  V30 4863 H 488.785 0.652543 -3.99405 0
M  V30 4864 H 487.355 0.956435 -2.97609 0
M  V30 4865 H 486.575 -1.42935 -3.67373 0
M  V30 4866 H 487.863 -1.40146 -4.89118 0
M  V30 4867 H 487.261 1.74159 -5.38224 0
M  V30 4868 H 485.818 1.6375 -6.30896 0
M  V30 4869 N 489.251 1.34841 -0.815825 0
M  V30 4870 C 490.214 2.27959 -0.238185 0
M  V30 4871 C 491.214 1.49983 0.579816 0
M  V30 4872 O 492.404 1.69617 0.396953 0
M  V30 4873 C 489.536 3.34314 0.666876 0
M  V30 4874 H 490.729 2.80558 -1.05958 0
M  V30 4875 H 488.282 1.44852 -0.587156 0
M  V30 4876 H 489.017 2.86916 1.5116 0
M  V30 4877 H 488.802 3.92014 0.0819106 0
M  V30 4878 H 490.292 4.0379 1.06506 0
M  V30 4879 N 490.729 0.570148 1.46925 0
M  V30 4880 C 491.676 -0.170257 2.30171 0
M  V30 4881 C 492.646 -0.896099 1.39855 0
M  V30 4882 O 493.831 -0.889248 1.68811 0
M  V30 4883 C 490.971 -1.18605 3.24079 0
M  V30 4884 C 490.084 -0.464947 4.29491 0
M  V30 4885 C 489.219 -1.46716 5.10537 0
M  V30 4886 C 488.258 -0.731758 6.0771 0
M  V30 4887 N 487.395 -1.68142 6.81669 0
M  V30 4888 H 492.235 0.545713 2.92961 0
M  V30 4889 H 489.772 0.280938 1.44392 0
M  V30 4890 H 491.73 -1.78771 3.76957 0
M  V30 4891 H 490.36 -1.86989 2.63125 0
M  V30 4892 H 489.412 0.251506 3.79568 0
M  V30 4893 H 490.724 0.110548 4.98677 0
M  V30 4894 H 489.878 -2.14199 5.6763 0
M  V30 4895 H 488.617 -2.07658 4.41282 0
M  V30 4896 H 487.622 -0.0430787 5.49783 0
M  V30 4897 H 488.847 -0.127904 6.7898 0
M  V30 4898 H 486.793 -2.27918 6.15134 0
M  V30 4899 H 486.71 -1.15841 7.47072 0
M  V30 4900 H 487.978 -2.347 7.43328 0
M  V30 4901 N 492.207 -1.54576 0.307264 0
M  V30 4902 C 493.139 -2.21212 -0.599807 0
M  V30 4903 C 494.152 -1.20685 -1.09266 0
M  V30 4904 O 495.341 -1.47244 -1.00903 0
M  V30 4905 C 492.441 -2.84994 -1.83389 0
M  V30 4906 C 491.614 -4.11511 -1.48248 0
M  V30 4907 C 490.673 -4.59038 -2.57237 0
M  V30 4908 O 489.699 -5.24095 -2.22065 0
M  V30 4909 N 490.901 -4.31884 -3.87887 0
M  V30 4910 H 493.666 -2.99686 -0.0293075 0
M  V30 4911 H 491.227 -1.61379 0.129738 0
M  V30 4912 H 493.219 -3.1372 -2.5566 0
M  V30 4913 H 491.789 -2.10324 -2.31263 0
M  V30 4914 H 491.009 -3.89728 -0.592122 0
M  V30 4915 H 492.297 -4.93879 -1.22316 0
M  V30 4916 H 491.695 -3.79778 -4.19268 0
M  V30 4917 H 490.252 -4.65304 -4.56438 0
M  V30 4918 N 493.685 -0.035106 -1.57561 0
M  V30 4919 C 494.931 0.64318 -1.92331 0
M  V30 4920 C 495.264 1.71434 -0.912368 0
M  V30 4921 O 494.539 1.94395 0.0640303 0
M  V30 4922 C 494.822 1.25411 -3.37556 0
M  V30 4923 C 494.675 0.192109 -4.4939 0
M  V30 4924 C 495.994 2.17041 -3.82859 0
M  V30 4925 H 493.113 0.232341 -0.699419 0
M  V30 4926 H 495.755 -0.0935889 -1.89769 0
M  V30 4927 H 493.905 1.88205 -3.39869 0
M  V30 4928 H 495.577 -0.438849 -4.59208 0
M  V30 4929 H 493.82 -0.481725 -4.31117 0
M  V30 4930 H 494.491 0.659292 -5.48049 0
M  V30 4931 H 496.967 1.64228 -3.8232 0
M  V30 4932 H 495.843 2.56738 -4.85157 0
M  V30 4933 H 496.104 3.06401 -3.18702 0
M  V30 4934 N 495.163 1.55791 0.238111 0
M  V30 4935 C 496.126 1.90239 1.27835 0
M  V30 4936 C 497.126 0.779552 1.4064 0
M  V30 4937 O 498.316 1.04747 1.3919 0
M  V30 4938 C 495.448 2.13859 2.65475 0
M  V30 4939 H 496.641 2.83262 0.985034 0
M  V30 4940 H 494.194 1.48818 0.477799 0
M  V30 4941 H 494.929 1.23334 2.99932 0
M  V30 4942 H 494.714 2.95643 2.57561 0
M  V30 4943 H 496.204 2.41664 3.40571 0
M  V30 4944 N 496.642 -0.504142 1.49319 0
M  V30 4945 C 497.919 -1.26548 1.49147 0
M  V30 4946 C 498.299 -2.09977 0.21744 0
M  V30 4947 O 497.647 -2.14028 -0.800269 0
M  V30 4948 C 497.857 -2.12489 2.76857 0
M  V30 4949 C 499.205 -2.7178 3.26222 0
M  V30 4950 O 500.229 -2.22758 2.77952 0
M  V30 4951 O 499.088 -3.61015 4.10281 0
M  V30 4952 H 496.182 -0.572495 0.596806 0
M  V30 4953 H 498.728 -0.51867 1.61579 0
M  V30 4954 H 497.5 -1.50796 3.61077 0
M  V30 4955 H 497.123 -2.94368 2.6727 0
M  V30 4956 N 498.12 -1.38341 -0.754957 0
M  V30 4957 C 499.067 -1.3546 -1.86867 0
M  V30 4958 C 500.037 -0.217369 -1.64672 0
M  V30 4959 O 501.222 -0.409383 -1.86356 0
M  V30 4960 C 498.362 -1.18413 -3.24149 0
M  V30 4961 C 497.475 -2.41511 -3.58185 0
M  V30 4962 C 496.61 -2.17205 -4.84763 0
M  V30 4963 C 495.649 -3.36081 -5.11582 0
M  V30 4964 N 494.786 -3.11219 -6.29354 0
M  V30 4965 H 499.626 -2.30672 -1.88664 0
M  V30 4966 H 497.163 -1.14607 -0.922154 0
M  V30 4967 H 499.121 -1.06545 -4.03366 0
M  V30 4968 H 497.751 -0.268397 -3.21682 0
M  V30 4969 H 496.803 -2.64056 -2.73822 0
M  V30 4970 H 498.115 -3.30115 -3.73932 0
M  V30 4971 H 497.269 -2.02465 -5.7192 0
M  V30 4972 H 496.008 -1.25964 -4.71152 0
M  V30 4973 H 495.013 -3.51341 -4.22894 0
M  V30 4974 H 496.238 -4.28196 -5.27091 0
M  V30 4975 H 494.184 -2.22624 -6.17069 0
M  V30 4976 H 494.101 -3.93373 -6.45596 0
M  V30 4977 H 495.369 -3.00132 -7.19403 0
M  V30 4978 N 499.598 0.982988 -1.23187 0
M  V30 4979 C 500.847 1.71817 -1.05649 0
M  V30 4980 C 501.16 1.91315 0.407176 0
M  V30 4981 O 502.366 2.62256 0.702436 0
M  V30 4982 C 500.822 3.09188 -1.84203 0
M  V30 4983 C 500.43 2.97586 -3.34882 0
M  V30 4984 C 502.174 3.86684 -1.75146 0
M  V30 4985 C 500.081 4.30173 -4.05839 0
M  V30 4986 H 499.011 0.644258 -0.391724 0
M  V30 4987 H 501.662 1.09659 -1.4713 0
M  V30 4988 H 500.044 3.72087 -1.35527 0
M  V30 4989 H 501.218 2.43793 -3.91026 0
M  V30 4990 H 499.533 2.33567 -3.44725 0
M  V30 4991 H 502.13 4.84836 -2.25473 0
M  V30 4992 H 502.473 4.10136 -0.713737 0
M  V30 4993 H 503.006 3.30482 -2.21419 0
M  V30 4994 H 499.745 4.11918 -5.09906 0
M  V30 4995 H 499.265 4.83841 -3.54482 0
M  V30 4996 H 500.944 4.98873 -4.11989 0
M  V30 4997 N 501.076 1.04316 1.18135 0
M  V30 4998 C 501.986 0.646876 2.25505 0
M  V30 4999 C 503.002 -0.328008 1.7088 0
M  V30 5000 O 504.178 -0.182309 2.00573 0
M  V30 5001 C 501.243 0.0185664 3.46695 0
M  V30 5002 C 500.304 1.04277 4.16443 0
M  V30 5003 C 499.537 0.444352 5.31847 0
M  V30 5004 O 499.76 -0.748735 5.65465 0
M  V30 5005 O 498.694 1.17428 5.90334 0
M  V30 5006 H 502.52 1.54147 2.61672 0
M  V30 5007 H 500.105 0.814188 1.25265 0
M  V30 5008 H 501.987 -0.331068 4.20097 0
M  V30 5009 H 500.662 -0.849814 3.12346 0
M  V30 5010 H 499.569 1.44425 3.45098 0
M  V30 5011 H 500.902 1.882 4.54798 0
M  V30 5012 N 502.554 -1.34406 0.822964 0
M  V30 5013 C 503.464 -2.33298 0.246838 0
M  V30 5014 C 504.48 -1.62625 -0.618797 0
M  V30 5015 O 505.656 -1.94391 -0.526685 0
M  V30 5016 C 502.721 -3.41785 -0.581731 0
M  V30 5017 C 501.782 -4.28206 0.306309 0
M  V30 5018 C 501.015 -5.31512 -0.48281 0
M  V30 5019 O 501.238 -5.43973 -1.71607 0
M  V30 5020 O 500.172 -6.01749 0.134884 0
M  V30 5021 H 503.998 -2.84401 1.06534 0
M  V30 5022 H 501.583 -1.37466 0.585108 0
M  V30 5023 H 503.465 -4.08028 -1.05313 0
M  V30 5024 H 502.14 -2.92925 -1.37756 0
M  V30 5025 H 501.047 -3.64885 0.825199 0
M  V30 5026 H 502.38 -4.80507 1.06649 0
M  V30 5027 N 504.032 -0.577932 -1.46621 0
M  V30 5028 C 505.281 -0.0594281 -2.01612 0
M  V30 5029 C 505.594 1.30663 -1.45556 0
M  V30 5030 O 506.8 1.91621 -1.92337 0
M  V30 5031 C 505.256 -0.0556666 -3.59857 0
M  V30 5032 C 504.864 -1.41975 -4.24908 0
M  V30 5033 C 506.608 0.409143 -4.22524 0
M  V30 5034 C 504.515 -1.37397 -5.75218 0
M  V30 5035 H 503.445 -0.0184469 -0.753774 0
M  V30 5036 H 506.096 -0.728869 -1.68404 0
M  V30 5037 H 504.478 0.679843 -3.90121 0
M  V30 5038 H 505.652 -2.17461 -4.0626 0
M  V30 5039 H 503.967 -1.82419 -3.74316 0
M  V30 5040 H 506.564 0.46211 -5.32699 0
M  V30 5041 H 506.907 1.42565 -3.91128 0
M  V30 5042 H 507.44 -0.272152 -3.96868 0
M  V30 5043 H 504.179 -2.36714 -6.11267 0
M  V30 5044 H 503.699 -0.661239 -5.96144 0
M  V30 5045 H 505.378 -1.08484 -6.3784 0
M  V30 5046 N 505.51 1.54411 -0.315457 0
M  V30 5047 C 506.44 2.27002 0.547039 0
M  V30 5048 C 507.421 1.27492 1.12605 0
M  V30 5049 O 508.606 1.5629 1.15269 0
M  V30 5050 C 505.736 3.02171 1.71201 0
M  V30 5051 C 504.69 4.0895 1.26268 0
M  V30 5052 C 504.016 4.71915 2.51396 0
M  V30 5053 C 505.316 5.20891 0.383419 0
M  V30 5054 H 507.01 2.99343 -0.0584517 0
M  V30 5055 H 504.556 1.4397 -0.0295527 0
M  V30 5056 H 506.509 3.51681 2.32161 0
M  V30 5057 H 505.233 2.27433 2.34397 0
M  V30 5058 H 503.892 3.60312 0.676062 0
M  V30 5059 H 503.54 3.93801 3.12937 0
M  V30 5060 H 503.24 5.44039 2.22026 0
M  V30 5061 H 504.764 5.24195 3.13133 0
M  V30 5062 H 506.178 5.66206 0.899082 0
M  V30 5063 H 504.575 5.99821 0.182857 0
M  V30 5064 H 505.645 4.81324 -0.587821 0
M  V30 5065 N 506.988 0.0434614 1.5754 0
M  V30 5066 C 507.936 -0.951465 2.1225 0
M  V30 5067 C 508.93 -1.3274 1.05245 0
M  V30 5068 O 510.136 -1.30795 1.23663 0
M  V30 5069 H 506.511 -0.324667 0.678303 0
M  V30 5070 H 508.482 -0.464855 2.94757 0
M  V30 5071 C 507.231 -2.21972 2.67626 0
M  V30 5072 H 506.554 -1.93923 3.4962 0
M  V30 5073 H 507.994 -2.89765 3.09536 0
M  V30 5074 C 506.453 -2.95919 1.61038 0
M  V30 5075 O 506.983 -3.8857 1.01862 0
M  V30 5076 N 505.189 -2.58511 1.32741 0
M  V30 5077 H 504.736 -1.83244 1.81051 0
M  V30 5078 H 504.694 -3.08296 0.616531 0
M  V30 5079 N 508.466 -1.55915 -0.229846 0
M  V30 5080 C 509.882 -1.48721 -0.579166 0
M  V30 5081 C 510.082 -0.736976 -1.87539 0
M  V30 5082 O 509.138 -0.273258 -2.51017 0
M  V30 5083 C 510.451 -2.9323 -0.666082 0
M  V30 5084 C 511.999 -3.03701 -0.757267 0
M  V30 5085 C 512.474 -4.49552 -0.8756 0
M  V30 5086 N 513.965 -4.53561 -0.940035 0
M  V30 5087 C 514.7 -5.63683 -1.05116 0
M  V30 5088 N 514.196 -6.83576 -1.12675 0
M  V30 5089 N 515.989 -5.51516 -1.08565 0
M  V30 5090 H 508.14 -2.03123 0.620857 0
M  V30 5091 H 510.403 -0.922898 0.21671 0
M  V30 5092 H 510.109 -3.51032 0.21664 0
M  V30 5093 H 509.983 -3.44668 -1.53243 0
M  V30 5094 H 512.37 -2.45969 -1.63043 0
M  V30 5095 H 512.451 -2.55446 0.134583 0
M  V30 5096 H 512.095 -5.079 -0.00692351 0
M  V30 5097 H 512.025 -4.95506 -1.78274 0
M  V30 5098 H 514.516 -3.67215 -0.892269 0
M  V30 5099 H 514.829 -7.63251 -1.21109 0
M  V30 5100 H 513.174 -6.86303 -1.09603 0
M  V30 5101 H 516.365 -4.5678 -1.02319 0
M  V30 5102 H 516.538 -6.37372 -1.1688 0
M  V30 5103 O 509.983 0.375361 -1.57077 0
M  V30 5104 H 510.674 1.02655 -1.64261 0
M  V30 END ATOM
M  V30 BEGIN BOND
M  V30 END BOND
M  V30 END CTAB
M  END
$$$$
