drugbank_target|P80376 30S ribosomal protein S11 (DB08185)
 OpenBabel12092120483D

  0  0  0     0  0            999 V3000
M  V30 BEGIN CTAB
M  V30 COUNTS 1970 1986 0 0 0
M  V30 BEGIN ATOM
M  V30 1 H -0.908 1.98254 -0.117106 0
M  V30 2 N 0 1.576 0 0
M  V30 3 C 0.933 2.03868 1.02534 0
M  V30 4 C 1.911 0.928543 1.3348 0
M  V30 5 O 3.095 1.19667 1.45644 0
M  V30 6 C 0.222 2.43627 2.35294 0
M  V30 7 C -0.732 3.65373 2.2001 0
M  V30 8 S 0.101 5.13292 1.52614 0
M  V30 9 C 1.257 5.56322 2.86805 0
M  V30 10 H 1.49 2.90518 0.631377 0
M  V30 11 H -0.977 1.52953 0.210867 0
M  V30 12 H 0.981 2.67203 3.11629 0
M  V30 13 H -0.358 1.57376 2.7183 0
M  V30 14 H -1.165 3.90944 3.18086 0
M  V30 15 H -1.563 3.418 1.51819 0
M  V30 16 H 0.729 5.58782 3.83104 0
M  V30 17 H 1.672 6.56266 2.65933 0
M  V30 18 H 2.08 4.83886 2.90714 0
M  V30 19 N 1.4781 -0.272755 1.55222 0
M  V30 20 C 2.4411 -1.32041 1.87344 0
M  V30 21 C 3.4411 -1.42342 0.74803 0
M  V30 22 O 4.6311 -1.41488 1.0162 0
M  V30 23 C 1.7631 -2.70173 2.07893 0
M  V30 24 H 2.9561 -1.04789 2.80997 0
M  V30 25 H 0.5091 -0.51083 1.47717 0
M  V30 26 H 1.2441 -3.02605 1.16622 0
M  V30 27 H 1.0291 -2.64082 2.89833 0
M  V30 28 H 2.5191 -3.45869 2.34017 0
M  V30 29 N 2.9562 -1.48159 -0.537278 0
M  V30 30 C 3.9032 -1.62138 -1.64256 0
M  V30 31 C 4.8732 -0.463668 -1.59497 0
M  V30 32 O 6.0582 -0.686241 -1.78032 0
M  V30 33 C 3.1982 -1.66028 -3.02537 0
M  V30 34 C 2.3112 -2.92855 -3.17585 0
M  V30 35 C 1.4462 -2.87952 -4.46382 0
M  V30 36 C 0.4852 -4.09516 -4.54932 0
M  V30 37 N -0.3778 -4.02733 -5.75109 0
M  V30 38 H 4.4622 -2.56529 -1.51647 0
M  V30 39 H 1.9992 -1.27224 -0.738414 0
M  V30 40 H 3.9572 -1.66265 -3.82638 0
M  V30 41 H 2.5872 -0.751331 -3.13934 0
M  V30 42 H 1.6392 -3.02395 -2.30784 0
M  V30 43 H 2.9512 -3.82822 -3.19764 0
M  V30 44 H 2.1052 -2.8655 -5.34765 0
M  V30 45 H 0.8442 -1.95702 -4.46712 0
M  V30 46 H -0.1508 -4.11201 -3.64957 0
M  V30 47 H 1.0742 -5.02917 -4.56346 0
M  V30 48 H -0.9798 -3.13299 -5.76351 0
M  V30 49 H -1.0628 -4.86397 -5.78752 0
M  V30 50 H 0.2052 -4.05379 -6.65799 0
M  V30 51 N 4.4343 0.785586 -1.36625 0
M  V30 52 C 5.3813 1.89838 -1.31264 0
M  V30 53 C 6.3513 1.65115 -0.180633 0
M  V30 54 O 7.5363 1.87222 -0.36777 0
M  V30 55 C 4.6763 3.26706 -1.11163 0
M  V30 56 C 3.7893 3.63476 -2.33472 0
M  V30 57 C 2.9243 4.89481 -2.06353 0
M  V30 58 C 1.9633 5.18941 -3.24602 0
M  V30 59 N 1.1003 6.36131 -2.97123 0
M  V30 60 H 5.9403 1.93756 -2.26413 0
M  V30 61 H 3.4773 0.947454 -1.12524 0
M  V30 62 H 5.4353 4.05639 -0.975337 0
M  V30 63 H 4.0653 3.222 -0.196674 0
M  V30 64 H 3.1173 2.79636 -2.57891 0
M  V30 65 H 4.4293 3.81193 -3.21704 0
M  V30 66 H 3.5833 5.76288 -1.89675 0
M  V30 67 H 2.3223 4.73841 -1.15437 0
M  V30 68 H 1.3273 4.30615 -3.41834 0
M  V30 69 H 2.5523 5.36498 -4.16349 0
M  V30 70 H 0.4983 6.21875 -2.08823 0
M  V30 71 H 0.4153 6.54198 -3.78894 0
M  V30 72 H 1.6833 7.2591 -2.84033 0
M  V30 73 N 5.9124 1.20967 1.01018 0
M  V30 74 C 7.3234 1.02319 1.56165 0
M  V30 75 C 7.6744 -0.418546 1.91684 0
M  V30 76 O 6.7994 -1.30096 1.72928 0
M  V30 77 C 7.3944 1.85109 2.8376 0
M  V30 78 C 5.9534 1.70809 3.35412 0
M  V30 79 C 5.1004 1.82643 2.08655 0
M  V30 80 H 8.0514 1.35065 0.833255 0
M  V30 81 H 8.0724 1.35827 3.55431 0
M  V30 82 H 7.5844 2.90035 2.57878 0
M  V30 83 H 5.6854 0.685464 3.66241 0
M  V30 84 H 5.7984 2.52467 4.07182 0
M  V30 85 H 4.1624 1.25896 2.21409 0
M  V30 86 H 4.9454 2.89066 1.85191 0
M  V30 87 N 7.3905 -1.2043 1.01659 0
M  V30 88 C 8.6155 -1.94318 0.724942 0
M  V30 89 C 9.0405 -1.74266 -0.708034 0
M  V30 90 O 8.3985 -1.03694 -1.48719 0
M  V30 91 C 8.4465 -3.44486 1.06591 0
M  V30 92 O 7.5505 -4.12017 0.177599 0
M  V30 93 H 6.8915 -0.60708 0.26898 0
M  V30 94 H 9.4215 -1.52861 1.35995 0
M  V30 95 H 9.4315 -3.95106 1.01762 0
M  V30 96 H 8.1065 -3.58404 2.10997 0
M  V30 97 H 6.6835 -3.71821 0.283421 0
M  V30 98 N 8.8686 -0.792821 -1.36206 0
M  V30 99 C 9.8156 -0.191653 -2.30003 0
M  V30 100 C 10.7856 0.666453 -1.52143 0
M  V30 101 O 11.9706 0.61442 -1.80636 0
M  V30 102 C 9.1106 0.664848 -3.38635 0
M  V30 103 C 8.2236 -0.212175 -4.31479 0
M  V30 104 C 7.3586 0.651022 -5.27196 0
M  V30 105 C 6.3976 -0.227247 -6.11678 0
M  V30 106 N 5.5346 0.595127 -6.99573 0
M  V30 107 H 10.3746 -0.996978 -2.80828 0
M  V30 108 H 7.9116 -0.503206 -1.38225 0
M  V30 109 H 9.8696 1.17645 -4.00269 0
M  V30 110 H 8.4996 1.43557 -2.89122 0
M  V30 111 H 7.5516 -0.841777 -3.70969 0
M  V30 112 H 8.8636 -0.888751 -4.90818 0
M  V30 113 H 8.0176 1.2283 -5.94136 0
M  V30 114 H 6.7566 1.36121 -4.68319 0
M  V30 115 H 5.7616 -0.816904 -5.43697 0
M  V30 116 H 6.9866 -0.93509 -6.72631 0
M  V30 117 H 4.9326 1.28955 -6.432 0
M  V30 118 H 4.8496 -0.0236952 -7.55996 0
M  V30 119 H 6.1176 1.15613 -7.70879 0
M  V30 120 N 10.3467 1.47872 -0.545128 0
M  V30 121 C 11.2937 2.29849 0.2093 0
M  V30 122 C 12.2637 1.38313 0.919707 0
M  V30 123 O 13.4487 1.67277 0.917772 0
M  V30 124 C 10.5887 3.22019 1.24088 0
M  V30 125 C 9.7017 4.2864 0.537778 0
M  V30 126 C 8.8367 5.07973 1.5536 0
M  V30 127 C 7.8757 6.06381 0.8348 0
M  V30 128 N 7.0127 6.78717 1.79688 0
M  V30 129 H 11.8527 2.93845 -0.49591 0
M  V30 130 H 9.3897 1.44848 -0.256389 0
M  V30 131 H 11.3477 3.73868 1.85144 0
M  V30 132 H 9.9777 2.59914 1.91428 0
M  V30 133 H 9.0297 3.7994 -0.187046 0
M  V30 134 H 10.3417 4.98793 -0.0258907 0
M  V30 135 H 9.4957 5.63912 2.23803 0
M  V30 136 H 8.2347 4.37693 2.15118 0
M  V30 137 H 7.2397 5.49631 0.136388 0
M  V30 138 H 8.4647 6.78665 0.24313 0
M  V30 139 H 6.4107 6.11177 2.38326 0
M  V30 140 H 6.3277 7.44998 1.28505 0
M  V30 141 H 7.5957 7.39237 2.47282 0
M  V30 142 N 11.8248 0.280983 1.55075 0
M  V30 143 C 12.7718 -0.603937 2.22758 0
M  V30 144 C 13.7418 -1.1452 1.20309 0
M  V30 145 O 14.9268 -1.19343 1.48869 0
M  V30 146 C 12.0668 -1.77947 2.95684 0
M  V30 147 C 11.1798 -1.2715 4.12864 0
M  V30 148 C 10.3148 -2.4093 4.7342 0
M  V30 149 C 9.3538 -1.87165 5.82783 0
M  V30 150 N 8.4908 -2.94441 6.37377 0
M  V30 151 H 13.3308 -0.020124 2.97993 0
M  V30 152 H 10.8678 0.00183425 1.471 0
M  V30 153 H 12.8258 -2.47055 3.36184 0
M  V30 154 H 11.4558 -2.33522 2.22861 0
M  V30 155 H 10.5078 -0.473331 3.77444 0
M  V30 156 H 11.8198 -0.837751 4.91715 0
M  V30 157 H 10.9738 -3.18021 5.1667 0
M  V30 158 H 9.7128 -2.87623 3.93859 0
M  V30 159 H 8.7178 -1.08556 5.38976 0
M  V30 160 H 9.9428 -1.41401 6.64216 0
M  V30 161 H 7.8888 -3.40505 5.60707 0
M  V30 162 H 7.8058 -2.55501 7.11516 0
M  V30 163 H 9.0738 -3.71489 6.85285 0
M  V30 164 N 13.3029 -1.57598 0.00835791 0
M  V30 165 C 14.5489 -1.91211 -0.675732 0
M  V30 166 C 14.8819 -0.883139 -1.72958 0
M  V30 167 O 14.1569 0.097016 -1.94258 0
M  V30 168 C 14.4399 -3.35379 -1.31123 0
M  V30 169 C 14.2929 -4.48999 -0.268356 0
M  V30 170 C 15.6119 -3.7912 -2.23508 0
M  V30 171 H 12.7309 -0.695374 -0.244179 0
M  V30 172 H 15.3729 -1.89901 0.0613655 0
M  V30 173 H 13.5229 -3.36626 -1.93946 0
M  V30 174 H 15.1949 -4.59887 0.360844 0
M  V30 175 H 13.4379 -4.31873 0.408482 0
M  V30 176 H 14.1089 -5.46851 -0.752218 0
M  V30 177 H 16.5849 -3.79477 -1.70693 0
M  V30 178 H 15.4609 -4.80729 -2.64936 0
M  V30 179 H 15.7219 -3.13455 -3.11766 0
M  V30 180 N 14.781 0.264519 -1.55364 0
M  V30 181 C 15.728 1.32717 -1.88825 0
M  V30 182 C 16.698 1.48675 -0.740605 0
M  V30 183 O 17.883 1.62945 -0.992657 0
M  V30 184 C 15.023 2.68089 -2.17307 0
M  V30 185 C 14.136 2.60284 -3.44785 0
M  V30 186 C 13.271 3.87892 -3.62924 0
M  V30 187 C 12.31 3.74631 -4.84064 0
M  V30 188 N 11.447 4.94092 -4.98816 0
M  V30 189 H 16.287 1.03481 -2.79456 0
M  V30 190 H 13.824 0.499757 -1.3835 0
M  V30 191 H 15.782 3.46864 -2.31821 0
M  V30 192 H 14.412 2.95509 -1.299 0
M  V30 193 H 13.464 1.73173 -3.38697 0
M  V30 194 H 14.776 2.46388 -4.33698 0
M  V30 195 H 13.93 4.75109 -3.77302 0
M  V30 196 H 12.669 4.04664 -2.7221 0
M  V30 197 H 11.674 2.85797 -4.69681 0
M  V30 198 H 12.899 3.5937 -5.76221 0
M  V30 199 H 10.845 5.11259 -4.11036 0
M  V30 200 H 10.762 4.8276 -5.81789 0
M  V30 201 H 12.03 5.82857 -5.17588 0
M  V30 202 N 16.2591 1.48442 0.529413 0
M  V30 203 C 17.6751 1.34575 0.858004 0
M  V30 204 C 17.8751 0.3572 1.98309 0
M  V30 205 O 16.9311 -0.221379 2.51528 0
M  V30 206 C 18.2441 2.74617 1.22499 0
M  V30 207 C 19.7921 2.83109 1.33484 0
M  V30 208 C 20.2671 4.23854 1.73526 0
M  V30 209 N 21.7581 4.2653 1.80628 0
M  V30 210 C 22.4931 5.32372 2.12997 0
M  V30 211 N 21.9891 6.48491 2.43786 0
M  V30 212 N 23.7821 5.19766 2.14008 0
M  V30 213 H 15.9331 2.1133 -0.212925 0
M  V30 214 H 18.1961 0.947439 -0.0326199 0
M  V30 215 H 17.9021 3.4852 0.471905 0
M  V30 216 H 17.7761 3.08177 2.17501 0
M  V30 217 H 20.1631 2.09462 2.0787 0
M  V30 218 H 20.2441 2.53168 0.366027 0
M  V30 219 H 19.8881 4.98018 0.997013 0
M  V30 220 H 19.8181 4.5124 2.71459 0
M  V30 221 H 22.3091 3.42772 1.59108 0
M  V30 222 H 22.6221 7.24993 2.67592 0
M  V30 223 H 20.9671 6.51765 2.41304 0
M  V30 224 H 24.1581 4.28066 1.89412 0
M  V30 225 H 24.3311 6.02354 2.38902 0
M  V30 226 N 17.7372 -0.778329 1.37039 0
M  V30 227 C 18.6692 -1.90034 1.2814 0
M  V30 228 C 19.6822 -1.61585 0.198558 0
M  V30 229 O 20.8712 -1.72625 0.454175 0
M  V30 230 C 17.9712 -3.25108 0.956968 0
M  V30 231 C 17.1442 -3.81253 2.14394 0
M  V30 232 C 16.2032 -4.94789 1.79082 0
M  V30 233 O 15.2292 -5.10721 2.51301 0
M  V30 234 N 16.4312 -5.75878 0.731043 0
M  V30 235 H 19.1962 -1.98186 2.24816 0
M  V30 236 H 16.7572 -0.957129 1.30578 0
M  V30 237 H 18.7492 -3.9857 0.701701 0
M  V30 238 H 17.3192 -3.125 0.0789812 0
M  V30 239 H 16.5392 -2.99647 2.56135 0
M  V30 240 H 17.8272 -4.15495 2.93668 0
M  V30 241 H 17.2252 -5.65547 0.131618 0
M  V30 242 H 15.7822 -6.49596 0.535622 0
M  V30 243 N 19.2153 -1.21501 -1.00376 0
M  V30 244 C 20.4613 -1.03452 -1.74429 0
M  V30 245 C 20.7943 0.430764 -1.89362 0
M  V30 246 O 20.0693 1.31962 -1.42886 0
M  V30 247 C 20.3523 -1.73375 -3.15615 0
M  V30 248 C 20.2053 -3.27431 -3.08397 0
M  V30 249 C 21.5243 -1.47732 -4.14564 0
M  V30 250 H 18.6433 -0.377226 -0.633143 0
M  V30 251 H 21.2853 -1.49693 -1.17013 0
M  V30 252 H 19.4353 -1.34064 -3.64636 0
M  V30 253 H 21.1073 -3.76119 -2.67081 0
M  V30 254 H 19.3503 -3.5767 -2.45468 0
M  V30 255 H 20.0213 -3.71524 -4.08258 0
M  V30 256 H 22.4973 -1.8186 -3.74254 0
M  V30 257 H 21.3733 -1.99169 -5.11491 0
M  V30 258 H 21.6343 -0.407589 -4.40217 0
M  V30 259 N 20.6934 1.19889 -1.02296 0
M  V30 260 C 21.6564 2.21116 -0.603351 0
M  V30 261 C 22.6564 1.5738 0.329884 0
M  V30 262 O 23.8464 1.73802 0.117702 0
M  V30 263 C 20.9784 3.40696 0.117992 0
M  V30 264 H 22.1714 2.59754 -1.49893 0
M  V30 265 H 19.7244 1.33463 -0.813468 0
M  V30 266 H 20.4594 3.07569 1.0282 0
M  V30 267 H 20.2444 3.88188 -0.552511 0
M  V30 268 H 21.7344 4.15692 0.398696 0
M  V30 269 N 22.1715 0.800033 1.35784 0
M  V30 270 C 23.3965 0.388511 2.03729 0
M  V30 271 C 23.8215 -0.990481 1.5991 0
M  V30 272 O 23.1795 -1.64013 0.772612 0
M  V30 273 C 23.2275 0.4726 3.5749 0
M  V30 274 O 22.3315 -0.51646 4.09153 0
M  V30 275 H 21.6725 0.163271 0.643614 0
M  V30 276 H 24.2025 1.0841 1.73518 0
M  V30 277 H 24.2125 0.34003 4.06581 0
M  V30 278 H 22.8875 1.47848 3.88734 0
M  V30 279 H 21.4645 -0.344673 3.71304 0
M  V30 280 N 23.6496 -1.47581 0.552962 0
M  V30 281 C 24.8976 -2.02082 0.0272703 0
M  V30 282 C 25.2186 -1.4301 -1.32563 0
M  V30 283 O 24.4886 -0.603745 -1.86365 0
M  V30 284 H 23.0686 -0.746966 0.00709182 0
M  V30 285 H 25.7306 -1.81033 0.722008 0
M  V30 286 H 24.8266 -3.12034 -0.0639951 0
M  V30 287 N 25.1277 -0.289203 -1.54924 0
M  V30 288 C 26.5437 0.0645403 -1.59469 0
M  V30 289 C 26.7437 1.53419 -1.30632 0
M  V30 290 O 25.7997 2.2852 -1.074 0
M  V30 291 C 27.1127 -0.32278 -2.98963 0
M  V30 292 C 28.6607 -0.270564 -3.11828 0
M  V30 293 C 29.1357 -0.632532 -4.53611 0
M  V30 294 N 30.6267 -0.584617 -4.59496 0
M  V30 295 C 31.3617 -0.837314 -5.67254 0
M  V30 296 N 30.8577 -1.15536 -6.83098 0
M  V30 297 N 32.6507 -0.765166 -5.56868 0
M  V30 298 H 24.8017 -1.24714 -1.71931 0
M  V30 299 H 27.0647 -0.504809 -0.802416 0
M  V30 300 H 26.7707 -1.34541 -3.24948 0
M  V30 301 H 26.6447 0.32944 -3.75759 0
M  V30 302 H 29.0317 0.742805 -2.85598 0
M  V30 303 H 29.1127 -0.957242 -2.37214 0
M  V30 304 H 28.7567 -1.64365 -4.80569 0
M  V30 305 H 28.6867 0.07609 -5.26545 0
M  V30 306 H 31.1777 -0.349248 -3.76283 0
M  V30 307 H 31.4907 -1.33447 -7.61191 0
M  V30 308 H 29.8357 -1.19328 -6.84679 0
M  V30 309 H 33.0267 -0.516432 -4.65243 0
M  V30 310 H 33.1997 -0.965477 -6.40767 0
M  V30 311 N 26.6058 1.57591 -0.0167156 0
M  V30 312 C 27.5688 2.08393 0.954204 0
M  V30 313 C 28.5688 0.996531 1.26198 0
M  V30 314 O 29.7588 1.25858 1.20438 0
M  V30 315 C 26.8908 2.5394 2.27436 0
M  V30 316 H 28.0838 2.95455 0.514451 0
M  V30 317 H 25.6368 1.54582 0.231089 0
M  V30 318 H 26.3718 1.70171 2.76066 0
M  V30 319 H 26.1568 3.33371 2.06412 0
M  V30 320 H 27.6468 2.93512 2.97053 0
M  V30 321 N 28.0839 -0.256276 1.55502 0
M  V30 322 C 29.3139 -1.00196 1.80677 0
M  V30 323 C 29.7219 -1.79805 0.588797 0
M  V30 324 O 29.0649 -1.78055 -0.451883 0
M  V30 325 C 29.1269 -1.99515 2.99055 0
M  V30 326 C 28.7909 -1.38688 4.35448 0
M  V30 327 C 29.7879 -0.794079 5.138 0
M  V30 328 C 27.4729 -1.40906 4.82132 0
M  V30 329 C 29.4669 -0.231562 6.36979 0
M  V30 330 C 27.1539 -0.842684 6.05262 0
M  V30 331 C 28.1519 -0.254953 6.82524 0
M  V30 332 O 27.8399 0.3027 8.0333 0
M  V30 333 H 27.5719 -0.300919 0.60533 0
M  V30 334 H 30.1259 -0.287307 2.03381 0
M  V30 335 H 28.3559 -2.74785 2.72084 0
M  V30 336 H 30.0449 -2.60349 3.11405 0
M  V30 337 H 30.8109 -0.769519 4.78856 0
M  V30 338 H 26.6899 -1.85591 4.21992 0
M  V30 339 H 30.2339 0.227816 6.97228 0
M  V30 340 H 26.1309 -0.86454 6.39684 0
M  V30 341 H 26.8989 0.193662 8.18271 0
M  V30 342 N 29.562 -1.4872 -0.521534 0
M  V30 343 C 30.811 -1.56419 -1.27341 0
M  V30 344 C 31.124 -0.246805 -1.94037 0
M  V30 345 O 32.33 -0.202122 -2.70747 0
M  V30 346 C 30.786 -2.75896 -2.31105 0
M  V30 347 C 30.394 -4.14311 -1.70441 0
M  V30 348 C 32.138 -2.92913 -3.07249 0
M  V30 349 C 30.045 -5.25038 -2.72194 0
M  V30 350 H 28.975 -0.582344 -0.478949 0
M  V30 351 H 31.626 -1.75071 -0.549779 0
M  V30 352 H 30.008 -2.50697 -3.06541 0
M  V30 353 H 31.182 -4.49564 -1.01136 0
M  V30 354 H 29.497 -4.02482 -1.06759 0
M  V30 355 H 32.094 -3.72805 -3.83302 0
M  V30 356 H 32.437 -2.02689 -3.63625 0
M  V30 357 H 32.97 -3.18054 -2.38928 0
M  V30 358 H 29.709 -6.17255 -2.20627 0
M  V30 359 H 29.229 -4.94263 -3.39801 0
M  V30 360 H 30.908 -5.53508 -3.35019 0
M  V30 361 N 31.0401 0.771051 -1.3745 0
M  V30 362 C 31.9901 1.87456 -1.29785 0
M  V30 363 C 32.9741 1.59827 -0.185541 0
M  V30 364 O 34.1661 1.71945 -0.419997 0
M  V30 365 C 31.2951 3.24935 -1.1078 0
M  V30 366 C 30.3811 3.58514 -2.26558 0
M  V30 367 N 30.7721 3.6327 -3.5195 0
M  V30 368 C 29.0701 3.88683 -2.18727 0
M  V30 369 C 29.7711 3.93616 -4.283 0
M  V30 370 N 28.7471 4.09551 -3.57448 0
M  V30 371 H 32.5491 1.89386 -2.24745 0
M  V30 372 H 30.0631 0.967531 -1.30432 0
M  V30 373 H 32.0601 4.03881 -1.03374 0
M  V30 374 H 30.7201 3.24268 -0.16738 0
M  V30 375 H 31.7311 3.45458 -3.85848 0
M  V30 376 H 28.4081 3.95834 -1.32746 0
M  V30 377 H 29.7981 4.04066 -5.36824 0
M  V30 378 N 32.5182 1.22032 0.997298 0
M  V30 379 C 33.4812 0.987909 2.06816 0
M  V30 380 C 34.4812 -0.0440084 1.6074 0
M  V30 381 O 35.6712 0.194053 1.73116 0
M  V30 382 C 32.8032 0.49132 3.37341 0
M  V30 383 H 33.9962 1.93803 2.28868 0
M  V30 384 H 31.5492 1.03838 1.16822 0
M  V30 385 H 32.2842 -0.463364 3.20973 0
M  V30 386 H 32.0692 1.23575 3.72118 0
M  V30 387 H 33.5592 0.348824 4.16141 0
M  V30 388 N 33.9963 -1.19345 1.0293 0
M  V30 389 C 35.2213 -1.93538 0.745511 0
M  V30 390 C 35.6463 -1.75007 -0.689511 0
M  V30 391 O 35.0043 -1.05265 -1.47611 0
M  V30 392 C 35.0523 -3.43336 1.10239 0
M  V30 393 O 34.1563 -4.11806 0.221289 0
M  V30 394 H 33.4973 -0.604193 0.275404 0
M  V30 395 H 36.0273 -1.5141 1.37609 0
M  V30 396 H 36.0373 -3.94004 1.05947 0
M  V30 397 H 34.7123 -3.56146 2.14786 0
M  V30 398 H 33.2893 -3.715 0.322842 0
M  V30 399 N 35.4744 -0.807222 -1.35358 0
M  V30 400 C 36.7044 -0.399796 -2.02695 0
M  V30 401 C 37.1124 0.994176 -1.60974 0
M  V30 402 O 36.4554 1.65209 -0.803226 0
M  V30 403 C 36.5174 -0.404445 -3.57218 0
M  V30 404 C 36.1814 -1.74904 -4.22206 0
M  V30 405 C 37.1784 -2.70743 -4.4384 0
M  V30 406 C 34.8634 -2.03322 -4.5931 0
M  V30 407 C 36.8574 -3.93183 -5.01683 0
M  V30 408 C 34.5444 -3.26026 -5.16866 0
M  V30 409 C 35.5424 -4.20774 -5.37994 0
M  V30 410 O 35.2304 -5.41312 -5.94337 0
M  V30 411 H 34.9624 -0.160517 -0.656666 0
M  V30 412 H 37.5164 -1.09235 -1.73945 0
M  V30 413 H 35.7464 0.344707 -3.85161 0
M  V30 414 H 37.4354 -0.0192429 -4.05895 0
M  V30 415 H 38.2014 -2.5008 -4.15554 0
M  V30 416 H 34.0804 -1.30384 -4.42178 0
M  V30 417 H 37.6244 -4.6715 -5.1809 0
M  V30 418 H 33.5214 -3.46559 -5.44579 0
M  V30 419 H 34.2894 -5.42618 -6.12787 0
M  V30 420 N 36.9525 1.47285 -0.560781 0
M  V30 421 C 37.9005 2.31756 0.197942 0
M  V30 422 C 38.8945 1.43146 0.905854 0
M  V30 423 O 40.1005 1.59891 0.826733 0
M  V30 424 H 36.4755 0.747438 0.0827049 0
M  V30 425 H 38.4465 2.9359 -0.533629 0
M  V30 426 C 37.1955 3.25874 1.21249 0
M  V30 427 H 36.5185 3.94023 0.67719 0
M  V30 428 H 37.9585 3.87803 1.71419 0
M  V30 429 C 36.4175 2.49651 2.26221 0
M  V30 430 O 36.9475 2.24355 3.33208 0
M  V30 431 N 35.1535 2.10597 2.00243 0
M  V30 432 H 34.7005 2.31369 1.13252 0
M  V30 433 H 34.6585 1.59913 2.70694 0
M  V30 434 N 38.4306 0.297415 1.54768 0
M  V30 435 C 39.3786 -0.596051 2.24833 0
M  V30 436 C 40.3726 -1.13992 1.25308 0
M  V30 437 O 41.5786 -1.09098 1.4317 0
M  V30 438 H 37.9536 -0.210814 0.721846 0
M  V30 439 H 39.9246 0.0174667 2.98395 0
M  V30 440 C 38.6736 -1.75818 2.99972 0
M  V30 441 H 37.9966 -1.3489 3.76357 0
M  V30 442 H 39.4366 -2.35949 3.52284 0
M  V30 443 C 37.8956 -2.66014 2.06732 0
M  V30 444 O 38.4256 -3.67009 1.63302 0
M  V30 445 N 36.6316 -2.33669 1.72763 0
M  V30 446 H 36.1786 -1.51586 2.08277 0
M  V30 447 H 36.1366 -2.94285 1.10652 0
M  V30 448 N 39.9087 -1.5758 0.0250728 0
M  V30 449 C 41.1367 -1.9593 -0.664747 0
M  V30 450 C 41.5517 -0.901352 -1.65895 0
M  V30 451 O 40.9087 0.117255 -1.82123 0
M  V30 452 C 40.9597 -3.34342 -1.37468 0
M  V30 453 O 40.6807 -4.36079 -0.420324 0
M  V30 454 C 42.1817 -3.873 -2.1567 0
M  V30 455 H 39.4017 -0.645405 -0.183557 0
M  V30 456 H 41.9457 -2.04329 0.0836372 0
M  V30 457 H 40.1007 -3.27175 -2.0745 0
M  V30 458 H 40.5147 -5.16297 -0.923991 0
M  V30 459 H 41.9887 -4.86504 -2.60803 0
M  V30 460 H 42.4657 -3.21331 -2.99405 0
M  V30 461 H 43.0717 -3.97723 -1.50654 0
M  V30 462 N 41.3868 0.248026 -1.55636 0
M  V30 463 C 42.6358 0.974134 -1.76617 0
M  V30 464 C 42.9488 1.86528 -0.588796 0
M  V30 465 O 44.1548 2.62805 -0.681594 0
M  V30 466 C 42.6108 1.78213 -3.12679 0
M  V30 467 C 42.2188 0.93843 -4.38061 0
M  V30 468 C 43.9628 2.50104 -3.42999 0
M  V30 469 C 41.8698 1.74225 -5.65155 0
M  V30 470 H 40.7998 0.36745 -0.658405 0
M  V30 471 H 43.4508 0.22884 -1.82067 0
M  V30 472 H 41.8328 2.56933 -3.01333 0
M  V30 473 H 43.0068 0.193635 -4.60393 0
M  V30 474 H 41.3218 0.332905 -4.15067 0
M  V30 475 H 43.9188 3.10694 -4.3517 0
M  V30 476 H 44.2618 3.21662 -2.64271 0
M  V30 477 H 44.7948 1.78395 -3.55556 0
M  V30 478 H 41.5338 1.07043 -6.46701 0
M  V30 479 H 41.0538 2.46235 -5.46926 0
M  V30 480 H 42.7328 2.30967 -6.0437 0
M  V30 481 N 42.8649 1.48995 0.513639 0
M  V30 482 C 44.1109 1.58076 1.27042 0
M  V30 483 C 44.4439 0.261026 1.92438 0
M  V30 484 O 43.7189 -0.734393 1.80103 0
M  V30 485 C 44.0019 2.73091 2.34719 0
M  V30 486 C 43.8549 4.14821 1.73907 0
M  V30 487 C 45.1739 2.83796 3.36375 0
M  V30 488 H 42.2929 0.575391 0.460536 0
M  V30 489 H 44.9349 1.81232 0.570516 0
M  V30 490 H 43.0849 2.53479 2.94416 0
M  V30 491 H 44.7569 4.45917 1.18135 0
M  V30 492 H 42.9999 4.21058 1.0437 0
M  V30 493 H 43.6709 4.91147 2.51949 0
M  V30 494 H 46.1469 3.01611 2.86653 0
M  V30 495 H 45.0229 3.65971 4.09093 0
M  V30 496 H 45.2839 1.92624 3.9793 0
M  V30 497 N 44.343 -0.763751 1.37857 0
M  V30 498 C 45.571 -1.55293 1.36718 0
M  V30 499 C 45.986 -1.88745 -0.0455434 0
M  V30 500 O 45.343 -1.52039 -1.00947 0
M  V30 501 C 45.394 -2.85831 2.2132 0
M  V30 502 O 45.115 -2.5381 3.57089 0
M  V30 503 C 46.616 -3.80023 2.28249 0
M  V30 504 H 43.836 -0.480841 0.468009 0
M  V30 505 H 46.38 -0.946009 1.81303 0
M  V30 506 H 44.535 -3.42926 1.80223 0
M  V30 507 H 44.949 -3.37459 4.01524 0
M  V30 508 H 46.423 -4.68599 2.91752 0
M  V30 509 H 46.9 -4.1973 1.2932 0
M  V30 510 H 47.506 -3.28855 2.69693 0
M  V30 511 N 45.8211 -1.22559 -0.990812 0
M  V30 512 C 47.0701 -1.04553 -1.72486 0
M  V30 513 C 47.3831 0.419349 -1.91052 0
M  V30 514 O 48.5891 0.719121 -2.61803 0
M  V30 515 C 47.0451 -1.82231 -3.10355 0
M  V30 516 C 46.6531 -3.32981 -2.99713 0
M  V30 517 C 48.3971 -1.7268 -3.87791 0
M  V30 518 C 46.3041 -4.03091 -4.32748 0
M  V30 519 H 45.2341 -0.387614 -0.646739 0
M  V30 520 H 47.8851 -1.46429 -1.10593 0
M  V30 521 H 46.2671 -1.33155 -3.72942 0
M  V30 522 H 47.4411 -3.89466 -2.46278 0
M  V30 523 H 45.7561 -3.43231 -2.35758 0
M  V30 524 H 48.3531 -2.22381 -4.86262 0
M  V30 525 H 48.6961 -0.687607 -4.10582 0
M  V30 526 H 49.2291 -2.1931 -3.31885 0
M  V30 527 H 45.9681 -5.07273 -4.15156 0
M  V30 528 H 45.4881 -3.51394 -4.86089 0
M  V30 529 H 47.1671 -4.08804 -5.01486 0
M  V30 530 N 47.2992 1.18797 -1.03562 0
M  V30 531 C 48.5272 1.92599 -0.755869 0
M  V30 532 C 48.9422 1.75886 0.686271 0
M  V30 533 O 48.2992 1.08517 1.46732 0
M  V30 534 C 48.3502 3.44159 -1.10619 0
M  V30 535 O 48.0712 3.60341 -2.4917 0
M  V30 536 C 49.5722 4.3507 -0.850214 0
M  V30 537 H 46.7922 0.611587 -0.276048 0
M  V30 538 H 49.3362 1.50742 -1.38192 0
M  V30 539 H 47.4912 3.83823 -0.525194 0
M  V30 540 H 47.9052 4.54128 -2.62427 0
M  V30 541 H 49.3792 5.39989 -1.14523 0
M  V30 542 H 49.8562 4.38673 0.215176 0
M  V30 543 H 50.4622 4.01097 -1.41426 0
M  V30 544 N 48.7773 0.814389 1.34928 0
M  V30 545 C 50.0543 0.321363 1.92942 0
M  V30 546 C 50.4343 -1.19014 1.74353 0
M  V30 547 O 49.7823 -1.99328 1.11716 0
M  V30 548 C 49.9923 0.741323 3.41036 0
M  V30 549 C 51.3403 0.735266 4.18185 0
M  V30 550 O 52.3643 0.68336 3.49584 0
M  V30 551 O 51.2233 0.800703 5.40602 0
M  V30 552 H 48.3173 0.0858893 0.822528 0
M  V30 553 H 50.8633 0.898609 1.43955 0
M  V30 554 H 49.6353 1.78276 3.4833 0
M  V30 555 H 49.2583 0.139307 3.97356 0
M  V30 556 N 50.2554 -1.46986 0.568584 0
M  V30 557 C 51.6664 -1.86188 0.138219 0
M  V30 558 C 52.0174 -1.47388 -1.29504 0
M  V30 559 O 51.1424 -0.88219 -1.97602 0
M  V30 560 C 51.7374 -3.3792 0.244065 0
M  V30 561 C 50.2964 -3.76171 -0.131335 0
M  V30 562 C 49.4434 -2.71027 0.586465 0
M  V30 563 H 52.3944 -1.38342 0.777645 0
M  V30 564 H 52.4154 -3.76729 -0.534351 0
M  V30 565 H 51.9274 -3.66128 1.28731 0
M  V30 566 H 50.0284 -3.5358 -1.17526 0
M  V30 567 H 50.1414 -4.78523 0.235146 0
M  V30 568 H 48.5054 -2.54684 0.0282722 0
M  V30 569 H 49.2884 -3.02077 1.63109 0
M  V30 570 N 51.7335 -0.305618 -1.54608 0
M  V30 571 C 53.0105 0.355652 -1.92339 0
M  V30 572 C 53.3905 1.71324 -1.23335 0
M  V30 573 O 52.7385 2.25473 -0.370702 0
M  V30 574 C 52.9485 0.46572 -3.45879 0
M  V30 575 C 54.2965 0.734426 -4.182 0
M  V30 576 O 55.3205 0.54935 -3.51938 0
M  V30 577 O 54.1795 1.09024 -5.35515 0
M  V30 578 H 51.2735 0.199666 -0.802535 0
M  V30 579 H 53.8195 -0.354017 -1.65966 0
M  V30 580 H 52.5915 -0.488461 -3.88239 0
M  V30 581 H 52.2145 1.22367 -3.78301 0
M  V30 582 N 53.2116 1.57565 -0.0334293 0
M  V30 583 C 54.4596 1.91598 0.642999 0
M  V30 584 C 54.7806 0.910847 1.7242 0
M  V30 585 O 54.0506 -0.0469931 1.95844 0
M  V30 586 H 52.6306 0.707228 0.240496 0
M  V30 587 H 55.2926 1.94726 -0.0822488 0
M  V30 588 H 54.3886 2.92336 1.09298 0
M  V30 589 N 54.6897 -0.239769 1.55765 0
M  V30 590 C 55.6377 -1.31668 1.91745 0
M  V30 591 C 56.6317 -1.49462 0.797338 0
M  V30 592 O 57.8377 -1.50852 0.982021 0
M  V30 593 H 54.2127 -0.441048 0.609082 0
M  V30 594 H 56.1837 -0.985923 2.81642 0
M  V30 595 C 54.9327 -2.66368 2.2348 0
M  V30 596 H 54.2557 -2.53478 3.09175 0
M  V30 597 H 55.6957 -3.40578 2.52553 0
M  V30 598 C 54.1547 -3.20002 1.05359 0
M  V30 599 O 54.6847 -4.00538 0.305261 0
M  V30 600 N 52.8907 -2.78126 0.842292 0
M  V30 601 H 52.4377 -2.12742 1.45253 0
M  V30 602 H 52.3957 -3.14354 0.053652 0
M  V30 603 N 56.1678 -1.49265 -0.50573 0
M  V30 604 C 57.5788 -1.51769 -1.08734 0
M  V30 605 C 57.9298 -0.301192 -1.93874 0
M  V30 606 O 57.0548 0.589456 -2.08217 0
M  V30 607 C 57.6498 -2.75017 -1.97867 0
M  V30 608 C 56.2088 -2.80314 -2.51199 0
M  V30 609 C 55.3558 -2.4562 -1.28709 0
M  V30 610 H 58.3068 -1.56031 -0.289855 0
M  V30 611 H 58.3278 -2.5491 -2.82491 0
M  V30 612 H 57.8398 -3.63539 -1.35873 0
M  V30 613 H 55.9408 -1.96061 -3.16845 0
M  V30 614 H 56.0538 -3.82366 -2.88675 0
M  V30 615 H 54.4178 -1.97297 -1.61078 0
M  V30 616 H 55.2008 -3.36411 -0.6843 0
M  V30 617 N 57.6459 0.756429 -1.3826 0
M  V30 618 C 58.8949 1.51082 -1.3363 0
M  V30 619 C 59.2079 1.95467 0.0720068 0
M  V30 620 O 60.4139 2.7043 0.240834 0
M  V30 621 C 58.8699 2.72893 -2.34644 0
M  V30 622 C 58.4779 2.35544 -3.81081 0
M  V30 623 C 60.2219 3.50791 -2.39052 0
M  V30 624 C 58.1289 3.53948 -4.73787 0
M  V30 625 H 57.0589 0.56727 -0.49671 0
M  V30 626 H 59.7099 0.827147 -1.638 0
M  V30 627 H 58.0919 3.43227 -1.97513 0
M  V30 628 H 59.2659 1.72894 -4.27135 0
M  V30 629 H 57.5809 1.70786 -3.79764 0
M  V30 630 H 60.1779 4.38823 -3.05513 0
M  V30 631 H 60.5209 3.91745 -1.40861 0
M  V30 632 H 61.0539 2.87467 -2.74968 0
M  V30 633 H 57.7929 3.18064 -5.73163 0
M  V30 634 H 57.3129 4.15651 -4.32428 0
M  V30 635 H 58.9919 4.20566 -4.91663 0
M  V30 636 N 59.124 1.23083 0.984299 0
M  V30 637 C 60.352 1.08714 1.76037 0
M  V30 638 C 60.767 -0.361691 1.85303 0
M  V30 639 O 60.124 -1.25034 1.32939 0
M  V30 640 C 60.175 1.70206 3.18923 0
M  V30 641 O 59.896 3.09423 3.10144 0
M  V30 642 C 61.397 1.61227 4.12941 0
M  V30 643 H 58.617 0.380664 0.552572 0
M  V30 644 H 61.161 1.62853 1.23689 0
M  V30 645 H 59.316 1.20109 3.6831 0
M  V30 646 H 59.73 3.39188 4.00065 0
M  V30 647 H 61.204 2.08962 5.10919 0
M  V30 648 H 61.681 0.570375 4.35481 0
M  V30 649 H 62.287 2.10671 3.69456 0
M  V30 650 N 60.6021 -1.18246 1.0419 0
M  V30 651 C 61.8481 -1.88793 0.75689 0
M  V30 652 C 62.2031 -1.78909 -0.707767 0
M  V30 653 O 61.4961 -1.1794 -1.50999 0
M  V30 654 C 61.6901 -3.38082 1.15911 0
M  V30 655 C 61.5191 -3.62496 2.66133 0
M  V30 656 C 60.2891 -3.7979 3.33298 0
M  V30 657 C 62.4871 -3.62976 3.64353 0
M  V30 658 N 60.4691 -3.91955 4.72487 0
M  V30 659 C 61.8401 -3.80869 4.89222 0
M  V30 660 C 63.8951 -3.46071 3.57965 0
M  V30 661 C 62.5981 -3.83608 6.08471 0
M  V30 662 C 64.6241 -3.50093 4.76643 0
M  V30 663 C 63.9861 -3.68484 6.00332 0
M  V30 664 H 60.0851 -0.709406 0.32904 0
M  V30 665 H 62.6691 -1.42022 1.33183 0
M  V30 666 H 60.8401 -3.83544 0.612238 0
M  V30 667 H 62.5721 -3.96202 0.824989 0
M  V30 668 H 59.3271 -3.79224 2.83701 0
M  V30 669 H 59.7511 -4.01857 5.44831 0
M  V30 670 H 64.3931 -3.30797 2.63311 0
M  V30 671 H 62.1111 -3.97669 7.0348 0
M  V30 672 H 65.6971 -3.38285 4.73344 0
M  V30 673 H 64.5771 -3.71488 6.90627 0
M  V30 674 N 62.0802 -0.821533 -1.34494 0
M  V30 675 C 63.3052 -0.420873 -2.03085 0
M  V30 676 C 63.7302 0.964915 -1.61465 0
M  V30 677 O 63.0882 1.62763 -0.798607 0
M  V30 678 C 63.1362 -0.529414 -3.56693 0
M  V30 679 O 62.2402 0.451302 -4.09923 0
M  V30 680 H 61.5812 -0.173489 -0.640935 0
M  V30 681 H 64.1112 -1.11157 -1.71771 0
M  V30 682 H 64.1212 -0.404671 -4.05988 0
M  V30 683 H 62.7962 -1.54014 -3.86332 0
M  V30 684 H 61.3732 0.285558 -3.71805 0
M  V30 685 N 63.5583 1.46682 -0.576371 0
M  V30 686 C 64.7833 2.07304 -0.0630475 0
M  V30 687 C 65.2083 1.42329 1.2298 0
M  V30 688 O 64.5663 0.504865 1.74129 0
M  V30 689 C 64.6143 3.60472 0.095895 0
M  V30 690 O 63.7183 3.95927 1.15394 0
M  V30 691 H 63.0593 0.661288 -0.0599463 0
M  V30 692 H 65.5893 1.88417 -0.797511 0
M  V30 693 H 65.5993 4.06865 0.304071 0
M  V30 694 H 64.2743 4.07157 -0.84828 0
M  V30 695 H 62.8513 3.61252 0.924724 0
M  V30 696 N 65.0364 0.313813 1.54444 0
M  V30 697 C 66.2844 -0.291099 1.99993 0
M  V30 698 C 66.6054 -1.53418 1.20366 0
M  V30 699 O 65.8754 -1.93544 0.302927 0
M  V30 700 H 64.4554 -0.110552 0.738774 0
M  V30 701 H 67.1174 0.428106 1.9014 0
M  V30 702 H 66.2134 -0.554268 3.07139 0
M  V30 703 N 66.5145 -1.57545 0.0417849 0
M  V30 704 C 67.7625 -1.91937 -0.632829 0
M  V30 705 C 68.0835 -0.919978 -1.71934 0
M  V30 706 O 67.3535 0.0366064 -1.95866 0
M  V30 707 H 65.9335 -0.708493 -0.236742 0
M  V30 708 H 68.5955 -1.9468 0.0925745 0
M  V30 709 H 67.6915 -2.92912 -1.07746 0
M  V30 710 N 67.9926 0.231505 -1.5589 0
M  V30 711 C 69.2386 0.95877 -1.78705 0
M  V30 712 C 69.5716 1.8438 -0.609725 0
M  V30 713 O 68.8466 1.90521 0.391426 0
M  V30 714 C 69.1296 1.8062 -3.11526 0
M  V30 715 C 68.9826 0.948328 -4.39689 0
M  V30 716 C 70.3016 2.78585 -3.40703 0
M  V30 717 H 67.4206 0.347129 -0.650131 0
M  V30 718 H 70.0626 0.228259 -1.88624 0
M  V30 719 H 68.2126 2.42902 -3.03201 0
M  V30 720 H 69.8846 0.343016 -4.60023 0
M  V30 721 H 68.1276 0.253314 -4.3306 0
M  V30 722 H 68.7986 1.57543 -5.29041 0
M  V30 723 H 71.2746 2.26439 -3.49091 0
M  V30 724 H 70.1506 3.34988 -4.34826 0
M  V30 725 H 70.4116 3.55825 -2.62375 0
M  V30 726 N 69.4707 1.49531 0.497807 0
M  V30 727 C 70.7197 1.58426 1.24837 0
M  V30 728 C 71.0327 0.277643 1.93619 0
M  V30 729 O 72.2387 0.24517 2.70391 0
M  V30 730 C 70.6947 2.79538 2.26686 0
M  V30 731 C 70.3027 4.16971 1.63828 0
M  V30 732 C 72.0467 2.97764 3.0255 0
M  V30 733 C 69.9537 5.29301 2.63807 0
M  V30 734 H 68.8837 0.58989 0.469623 0
M  V30 735 H 71.5347 1.75923 0.521857 0
M  V30 736 H 69.9167 2.55542 3.02514 0
M  V30 737 H 71.0907 4.51116 0.939711 0
M  V30 738 H 69.4057 4.04129 1.00342 0
M  V30 739 H 72.0027 3.78856 3.77323 0
M  V30 740 H 72.3457 2.08448 3.60354 0
M  V30 741 H 72.8787 3.21815 2.33838 0
M  V30 742 H 69.6177 6.20687 2.10779 0
M  V30 743 H 69.1377 4.99606 3.31894 0
M  V30 744 H 70.8167 5.58768 3.2617 0
M  V30 745 N 70.9488 -0.749086 1.3866 0
M  V30 746 C 72.1968 -1.50535 1.34847 0
M  V30 747 C 72.5178 -1.94909 -0.0595016 0
M  V30 748 O 71.7878 -1.67973 -1.00806 0
M  V30 749 H 70.3678 -0.558395 0.49619 0
M  V30 750 H 73.0298 -0.890165 1.73384 0
M  V30 751 H 72.1258 -2.39413 2.00219 0
M  V30 752 N 72.4269 -1.23603 -0.977757 0
M  V30 753 C 73.6569 -1.09487 -1.75203 0
M  V30 754 C 74.0649 0.356321 -1.85814 0
M  V30 755 O 73.4079 1.25816 -1.33851 0
M  V30 756 C 73.4699 -1.64905 -3.19447 0
M  V30 757 C 73.1339 -3.13688 -3.32338 0
M  V30 758 C 74.1309 -4.10953 -3.18455 0
M  V30 759 C 71.8159 -3.53449 -3.56902 0
M  V30 760 C 73.8099 -5.45962 -3.28944 0
M  V30 761 C 71.4969 -4.88602 -3.6703 0
M  V30 762 C 72.4949 -5.84668 -3.53062 0
M  V30 763 O 72.1829 -7.17365 -3.62826 0
M  V30 764 H 71.9149 -0.38367 -0.556573 0
M  V30 765 H 74.4689 -1.6398 -1.23693 0
M  V30 766 H 72.6989 -1.04835 -3.72218 0
M  V30 767 H 74.3879 -1.46226 -3.78646 0
M  V30 768 H 75.1539 -3.81577 -2.99372 0
M  V30 769 H 71.0329 -2.79188 -3.66844 0
M  V30 770 H 74.5769 -6.20925 -3.17958 0
M  V30 771 H 70.4739 -5.17653 -3.85623 0
M  V30 772 H 71.2419 -7.2515 -3.79605 0
M  V30 773 N 73.905 1.17692 -1.04816 0
M  V30 774 C 74.852 2.21581 -0.645797 0
M  V30 775 C 75.822 1.62367 0.350159 0
M  V30 776 O 77.007 1.89254 0.242433 0
M  V30 777 C 74.147 3.45092 -0.0227568 0
M  V30 778 C 73.26 4.18613 -1.06709 0
M  V30 779 C 72.395 5.29602 -0.411767 0
M  V30 780 C 71.434 5.94904 -1.44067 0
M  V30 781 N 70.571 6.97414 -0.809781 0
M  V30 782 H 75.411 2.55353 -1.5362 0
M  V30 783 H 72.948 1.25438 -0.768364 0
M  V30 784 H 74.906 4.15679 0.35588 0
M  V30 785 H 73.536 3.11917 0.831122 0
M  V30 786 H 72.588 3.46779 -1.5636 0
M  V30 787 H 73.9 4.63293 -1.84827 0
M  V30 788 H 73.054 6.06696 0.0206623 0
M  V30 789 H 71.793 4.86045 0.401438 0
M  V30 790 H 70.798 5.16544 -1.88316 0
M  V30 791 H 72.023 6.40542 -2.25571 0
M  V30 792 H 69.969 6.55998 -0.0170186 0
M  V30 793 H 69.886 7.40386 -1.52856 0
M  V30 794 H 71.154 7.78463 -0.401999 0
M  V30 795 N 75.3831 0.828654 1.34056 0
M  V30 796 C 76.6311 0.41863 1.97717 0
M  V30 797 C 76.9521 -1.02314 1.66002 0
M  V30 798 O 76.2221 -1.71119 0.953683 0
M  V30 799 H 74.8021 0.151809 0.731412 0
M  V30 800 H 77.4641 1.05936 1.63596 0
M  V30 801 H 76.5601 0.542318 3.07352 0
M  V30 802 N 76.8612 -1.46375 0.584142 0
M  V30 803 C 78.0862 -2.07268 0.0740405 0
M  V30 804 C 78.5112 -1.42979 -1.22223 0
M  V30 805 O 77.8692 -0.514092 -1.73859 0
M  V30 806 C 77.9172 -3.60518 -0.0767769 0
M  V30 807 O 77.0212 -3.96533 -1.13292 0
M  V30 808 H 76.3622 -0.660961 0.0634524 0
M  V30 809 H 78.8922 -1.87991 0.807492 0
M  V30 810 H 78.9022 -4.07021 -0.282489 0
M  V30 811 H 77.5772 -4.06702 0.86986 0
M  V30 812 H 76.1542 -3.61738 -0.905553 0
M  V30 813 N 78.3393 -0.321999 -1.54275 0
M  V30 814 C 79.7553 0.0306999 -1.5957 0
M  V30 815 C 79.9553 1.50614 -1.33857 0
M  V30 816 O 79.0113 2.2619 -1.12223 0
M  V30 817 C 80.3243 -0.386122 -2.98211 0
M  V30 818 C 81.8723 -0.336647 -3.11184 0
M  V30 819 C 82.3473 -0.728607 -4.52167 0
M  V30 820 N 83.8383 -0.681952 -4.58152 0
M  V30 821 C 84.5733 -0.957449 -5.6535 0
M  V30 822 N 84.0693 -1.3 -6.80494 0
M  V30 823 N 85.8623 -0.883113 -5.55119 0
M  V30 824 H 78.0133 -1.28332 -1.69247 0
M  V30 825 H 80.2763 -0.521716 -0.791528 0
M  V30 826 H 79.9823 -1.41404 -3.22022 0
M  V30 827 H 79.8563 0.249662 -3.76373 0
M  V30 828 H 82.2433 0.682058 -2.8711 0
M  V30 829 H 82.3243 -1.00734 -2.3513 0
M  V30 830 H 81.9683 -1.74522 -4.76974 0
M  V30 831 H 81.8983 -0.0356152 -5.26588 0
M  V30 832 H 84.3893 -0.428985 -3.75457 0
M  V30 833 H 84.7023 -1.49563 -7.58189 0
M  V30 834 H 83.0473 -1.33824 -6.81994 0
M  V30 835 H 86.2383 -0.615001 -4.64042 0
M  V30 836 H 86.4113 -1.10118 -6.38575 0
M  V30 837 N 79.8174 1.5752 -0.0501392 0
M  V30 838 C 80.7644 2.1147 0.924603 0
M  V30 839 C 81.7344 1.02182 1.30951 0
M  V30 840 O 82.9194 1.29723 1.39916 0
M  V30 841 C 80.0594 2.66337 2.19451 0
M  V30 842 C 79.1724 3.89708 1.86418 0
M  V30 843 C 78.3074 4.32893 3.07859 0
M  V30 844 C 77.3464 5.48967 2.70742 0
M  V30 845 N 76.4834 5.87211 3.84874 0
M  V30 846 H 81.3234 2.94465 0.457639 0
M  V30 847 H 78.8604 1.45531 0.214266 0
M  V30 848 H 80.8184 2.96247 2.93758 0
M  V30 849 H 79.4484 1.86141 2.63726 0
M  V30 850 H 78.5004 3.66396 1.02264 0
M  V30 851 H 79.8124 4.74074 1.55096 0
M  V30 852 H 78.9664 4.6435 3.90466 0
M  V30 853 H 77.7054 3.47336 3.42358 0
M  V30 854 H 76.7104 5.17183 1.86551 0
M  V30 855 H 77.9354 6.3624 2.37436 0
M  V30 856 H 75.8814 5.04607 4.19175 0
M  V30 857 H 75.7984 6.66266 3.57247 0
M  V30 858 H 77.0664 6.23282 4.68123 0
M  V30 859 N 81.2955 -0.223234 1.56011 0
M  V30 860 C 82.5435 -0.946003 1.78592 0
M  V30 861 C 82.8645 -1.84936 0.618349 0
M  V30 862 O 82.1345 -1.92473 -0.364833 0
M  V30 863 H 80.7145 -0.352298 0.658707 0
M  V30 864 H 83.3765 -0.235494 1.93472 0
M  V30 865 H 82.4725 -1.55381 2.70672 0
M  V30 866 N 82.7736 -1.49793 -0.48987 0
M  V30 867 C 84.0016 -1.63568 -1.26701 0
M  V30 868 C 84.4166 -0.311465 -1.86213 0
M  V30 869 O 83.7736 0.704416 -1.68357 0
M  V30 870 C 83.8246 -2.71284 -2.38929 0
M  V30 871 O 83.5456 -3.9857 -1.81861 0
M  V30 872 C 85.0466 -2.95864 -3.3012 0
M  V30 873 H 82.2666 -0.550342 -0.383881 0
M  V30 874 H 84.8106 -1.95898 -0.586864 0
M  V30 875 H 82.9656 -2.417 -3.02753 0
M  V30 876 H 83.3796 -4.57993 -2.55622 0
M  V30 877 H 84.8536 -3.74941 -4.05121 0
M  V30 878 H 85.3306 -2.06206 -3.87783 0
M  V30 879 H 85.9366 -3.26907 -2.72051 0
M  V30 880 N 84.2517 0.741722 -1.39055 0
M  V30 881 C 85.6627 1.31966 -1.32068 0
M  V30 882 C 86.0137 1.96192 0.0180797 0
M  V30 883 O 85.1387 1.95861 0.920196 0
M  V30 884 C 85.7337 2.39954 -2.39181 0
M  V30 885 C 84.2927 2.93438 -2.35735 0
M  V30 886 C 83.4397 1.66936 -2.21422 0
M  V30 887 H 86.3907 0.539721 -1.4924 0
M  V30 888 H 86.4117 3.20182 -2.05581 0
M  V30 889 H 85.9237 1.9318 -3.36605 0
M  V30 890 H 84.0247 3.4451 -1.41929 0
M  V30 891 H 84.1377 3.4701 -3.30335 0
M  V30 892 H 82.5017 1.91016 -1.68478 0
M  V30 893 H 83.2847 1.22224 -3.20806 0
M  V30 894 N 85.7298 1.2412 0.971189 0
M  V30 895 C 86.9598 1.10415 1.7462 0
M  V30 896 C 87.3678 -0.346462 1.86001 0
M  V30 897 O 86.7108 -1.25104 1.34517 0
M  V30 898 C 86.7728 1.66596 3.18568 0
M  V30 899 C 86.4368 3.15446 3.3067 0
M  V30 900 C 87.4338 4.12636 3.16271 0
M  V30 901 C 85.1188 3.55337 3.55022 0
M  V30 902 C 87.1128 5.47699 3.26044 0
M  V30 903 C 84.7998 4.90542 3.64434 0
M  V30 904 C 85.7978 5.86532 3.49956 0
M  V30 905 O 85.4858 7.19279 3.59017 0
M  V30 906 H 85.2178 0.386616 0.55453 0
M  V30 907 H 87.7718 1.64633 1.22821 0
M  V30 908 H 86.0018 1.06808 3.71657 0
M  V30 909 H 87.6908 1.48232 3.77865 0
M  V30 910 H 88.4568 3.8316 2.97344 0
M  V30 911 H 84.3358 2.8113 3.65359 0
M  V30 912 H 87.8798 6.22603 3.14661 0
M  V30 913 H 83.7768 5.19691 3.82873 0
M  V30 914 H 84.5448 7.27153 3.75754 0
M  V30 915 N 87.2079 -1.17134 1.05439 0
M  V30 916 C 88.1709 -2.19439 0.661764 0
M  V30 917 C 89.1709 -1.58199 -0.288042 0
M  V30 918 O 90.3609 -1.74053 -0.0715803 0
M  V30 919 C 87.4929 -3.40889 -0.0276209 0
M  V30 920 H 88.6859 -2.55688 1.56728 0
M  V30 921 H 86.2389 -1.31259 0.848567 0
M  V30 922 H 86.9739 -3.10187 -0.94629 0
M  V30 923 H 86.7589 -3.86586 0.655238 0
M  V30 924 H 88.2489 -4.16603 -0.288342 0
M  V30 925 N 88.686 -0.835752 -1.33615 0
M  V30 926 C 89.649 -0.272 -2.2758 0
M  V30 927 C 90.649 0.557487 -1.50827 0
M  V30 928 O 91.839 0.37173 -1.70188 0
M  V30 929 C 88.971 0.617173 -3.35267 0
M  V30 930 H 90.164 -1.10111 -2.78954 0
M  V30 931 H 87.717 -0.608594 -1.43965 0
M  V30 932 H 88.452 1.46884 -2.89129 0
M  V30 933 H 88.237 0.0237066 -3.92093 0
M  V30 934 H 89.727 1.005 -4.05326 0
M  V30 935 N 90.1641 1.46063 -0.591896 0
M  V30 936 C 91.0961 2.28539 0.174001 0
M  V30 937 C 92.1091 1.39047 0.846753 0
M  V30 938 O 93.2981 1.63564 0.714774 0
M  V30 939 C 90.3981 3.14347 1.26645 0
M  V30 940 C 89.5711 4.32021 0.683856 0
M  V30 941 C 88.6301 4.99157 1.66518 0
M  V30 942 O 87.6561 5.56458 1.19763 0
M  V30 943 N 88.8581 4.97005 2.99943 0
M  V30 944 H 91.6231 2.94911 -0.533633 0
M  V30 945 H 89.1841 1.56077 -0.430294 0
M  V30 946 H 91.1761 3.56125 1.92242 0
M  V30 947 H 89.7461 2.49988 1.87682 0
M  V30 948 H 88.9661 3.93915 -0.1498 0
M  V30 949 H 90.2541 5.08059 0.274567 0
M  V30 950 H 89.6521 4.51714 3.40545 0
M  V30 951 H 88.2091 5.42696 3.61004 0
M  V30 952 N 91.6422 0.330177 1.54103 0
M  V30 953 C 92.5722 -0.525353 2.27513 0
M  V30 954 C 93.5532 -1.11383 1.2856 0
M  V30 955 O 94.7382 -1.13773 1.57383 0
M  V30 956 C 91.8682 -1.6831 3.03791 0
M  V30 957 C 90.8222 -1.2236 4.10137 0
M  V30 958 C 90.1482 -2.46882 4.74293 0
M  V30 959 C 91.4482 -0.333697 5.21233 0
M  V30 960 H 93.1422 0.087013 2.99274 0
M  V30 961 H 90.6882 0.0432893 1.43935 0
M  V30 962 H 92.6412 -2.28795 3.5388 0
M  V30 963 H 91.3652 -2.32216 2.29659 0
M  V30 964 H 90.0242 -0.64165 3.60941 0
M  V30 965 H 89.6722 -3.09165 3.96769 0
M  V30 966 H 89.3722 -2.16825 5.46133 0
M  V30 967 H 90.8962 -3.08117 5.27159 0
M  V30 968 H 92.3102 -0.845013 5.67038 0
M  V30 969 H 90.7072 -0.125612 5.99969 0
M  V30 970 H 91.7772 0.633724 4.80741 0
M  V30 971 N 93.1203 -1.57491 0.0584922 0
M  V30 972 C 94.0833 -2.1085 -0.898617 0
M  V30 973 C 95.0833 -1.02964 -1.23511 0
M  V30 974 O 96.2733 -1.29007 -1.17059 0
M  V30 975 C 93.4053 -2.59881 -2.20623 0
M  V30 976 H 94.5983 -2.96715 -0.435936 0
M  V30 977 H 92.1513 -1.55141 -0.190023 0
M  V30 978 H 92.8863 -1.77431 -2.71457 0
M  V30 979 H 92.6713 -3.38727 -1.97501 0
M  V30 980 H 94.1613 -3.01285 -2.89166 0
M  V30 981 N 94.5984 0.214957 -1.56127 0
M  V30 982 C 95.5614 1.24997 -1.92116 0
M  V30 983 C 96.5614 1.39467 -0.800344 0
M  V30 984 O 97.7514 1.37619 -1.06802 0
M  V30 985 C 94.8834 2.62271 -2.17777 0
M  V30 986 H 96.0764 0.942875 -2.84693 0
M  V30 987 H 93.6294 0.455654 -1.49511 0
M  V30 988 H 94.3644 2.98068 -1.27773 0
M  V30 989 H 94.1494 2.53143 -2.99434 0
M  V30 990 H 95.6394 3.36946 -2.46693 0
M  V30 991 N 96.0765 1.50051 0.48192 0
M  V30 992 C 97.0065 1.71046 1.58951 0
M  V30 993 C 97.9875 0.559288 1.60642 0
M  V30 994 O 99.1725 0.797243 1.77081 0
M  V30 995 C 96.3025 1.79462 2.97339 0
M  V30 996 C 95.2565 2.94558 3.10515 0
M  V30 997 C 94.5825 2.88105 4.50444 0
M  V30 998 C 95.8825 4.35227 2.88747 0
M  V30 999 H 97.5765 2.6378 1.41635 0
M  V30 1000 H 95.1225 1.26936 0.679942 0
M  V30 1001 H 97.0755 1.92734 3.74742 0
M  V30 1002 H 95.7995 0.833412 3.15788 0
M  V30 1003 H 94.4585 2.80918 2.35543 0
M  V30 1004 H 94.1065 1.89853 4.65795 0
M  V30 1005 H 93.8065 3.65366 4.60197 0
M  V30 1006 H 95.3305 3.03412 5.29881 0
M  V30 1007 H 96.7445 4.49449 3.55905 0
M  V30 1008 H 95.1415 5.13856 3.09955 0
M  V30 1009 H 96.2115 4.48347 1.84696 0
M  V30 1010 N 97.5546 -0.734337 1.39446 0
M  V30 1011 C 98.8316 -1.48579 1.27215 0
M  V30 1012 C 99.2116 -2.1077 -0.117968 0
M  V30 1013 O 98.5596 -1.98646 -1.12924 0
M  V30 1014 C 98.7696 -2.53667 2.39696 0
M  V30 1015 C 100.118 -3.20031 2.79044 0
M  V30 1016 O 101.142 -2.6398 2.39151 0
M  V30 1017 O 100.001 -4.21455 3.47905 0
M  V30 1018 H 97.0946 -0.659816 0.49857 0
M  V30 1019 H 99.6406 -0.768106 1.51322 0
M  V30 1020 H 98.4126 -2.06096 3.32626 0
M  V30 1021 H 98.0356 -3.32994 2.17258 0
M  V30 1022 N 99.0327 -1.24633 -0.964593 0
M  V30 1023 C 99.9957 -1.0424 -2.04124 0
M  V30 1024 C 100.996 0.00137563 -1.608 0
M  V30 1025 O 102.186 -0.239883 -1.7254 0
M  V30 1026 C 99.3177 -0.580588 -3.3592 0
M  V30 1027 H 100.511 -1.99803 -2.23649 0
M  V30 1028 H 98.0637 -1.06899 -1.14027 0
M  V30 1029 H 98.7987 0.3781 -3.22088 0
M  V30 1030 H 98.5837 -1.33398 -3.6871 0
M  V30 1031 H 100.074 -0.459034 -4.15069 0
M  V30 1032 N 100.511 1.16574 -1.06058 0
M  V30 1033 C 101.474 2.19085 -0.673392 0
M  V30 1034 C 102.474 1.5835 0.279648 0
M  V30 1035 O 103.664 1.74088 0.0623488 0
M  V30 1036 C 100.796 3.40899 0.00954234 0
M  V30 1037 H 101.989 2.54853 -1.58081 0
M  V30 1038 H 99.5418 1.30808 -0.855516 0
M  V30 1039 H 100.277 3.10684 0.929826 0
M  V30 1040 H 100.062 3.86233 -0.67573 0
M  V30 1041 H 101.552 4.1675 0.266245 0
M  V30 1042 N 101.989 0.842826 1.3317 0
M  V30 1043 C 102.936 0.276885 2.29133 0
M  V30 1044 C 103.906 -0.609527 1.54512 0
M  V30 1045 O 105.091 -0.546955 1.82792 0
M  V30 1046 C 102.231 -0.538707 3.40869 0
M  V30 1047 C 101.344 0.372169 4.30394 0
M  V30 1048 C 100.479 -0.454908 5.29249 0
M  V30 1049 C 99.5179 0.45411 6.10413 0
M  V30 1050 N 98.6549 -0.335075 7.013 0
M  V30 1051 H 103.495 1.10052 2.76934 0
M  V30 1052 H 101.032 0.554161 1.36262 0
M  V30 1053 H 102.99 -1.02709 4.0436 0
M  V30 1054 H 101.62 -1.32727 2.9425 0
M  V30 1055 H 100.672 0.97888 3.6759 0
M  V30 1056 H 101.984 1.0703 4.87182 0
M  V30 1057 H 101.138 -1.00695 5.98285 0
M  V30 1058 H 99.8769 -1.18646 4.73048 0
M  V30 1059 H 98.8819 1.01813 5.40291 0
M  V30 1060 H 100.107 1.18409 6.68697 0
M  V30 1061 H 98.0529 -1.04994 6.47543 0
M  V30 1062 H 97.9699 0.304262 7.55387 0
M  V30 1063 H 99.2379 -0.869224 7.74638 0
M  V30 1064 N 103.467 -1.45747 0.599634 0
M  V30 1065 C 104.414 -2.30467 -0.123849 0
M  V30 1066 C 105.384 -1.41632 -0.86774 0
M  V30 1067 O 106.569 -1.70568 -0.855056 0
M  V30 1068 C 103.709 -3.26402 -1.12051 0
M  V30 1069 C 102.822 -4.3034 -0.37832 0
M  V30 1070 C 101.957 -5.13389 -1.364 0
M  V30 1071 C 100.996 -6.09061 -0.609171 0
M  V30 1072 N 100.133 -6.84918 -1.54374 0
M  V30 1073 H 104.973 -2.91802 0.604627 0
M  V30 1074 H 102.51 -1.43797 0.309972 0
M  V30 1075 H 104.468 -3.80482 -1.7114 0
M  V30 1076 H 103.098 -2.66839 -1.8165 0
M  V30 1077 H 102.15 -3.78984 0.327929 0
M  V30 1078 H 103.462 -4.98354 0.210997 0
M  V30 1079 H 102.616 -5.7183 -2.02719 0
M  V30 1080 H 101.355 -4.45376 -1.98725 0
M  V30 1081 H 100.36 -5.49758 0.0676979 0
M  V30 1082 H 101.585 -6.79099 0.00891991 0
M  V30 1083 H 99.531 -6.19601 -2.15478 0
M  V30 1084 H 99.448 -7.49254 -1.00766 0
M  V30 1085 H 100.716 -7.47906 -2.19676 0
M  V30 1086 N 104.945 -0.338344 -1.53925 0
M  V30 1087 C 105.908 0.508299 -2.23493 0
M  V30 1088 C 106.908 1.03175 -1.23335 0
M  V30 1089 O 108.098 0.921826 -1.47811 0
M  V30 1090 C 105.23 1.70754 -2.95052 0
M  V30 1091 H 106.423 -0.100058 -2.99733 0
M  V30 1092 H 103.976 -0.0896198 -1.56043 0
M  V30 1093 H 104.711 2.35474 -2.22986 0
M  V30 1094 H 104.496 1.33946 -3.68512 0
M  V30 1095 H 105.986 2.30818 -3.48013 0
M  V30 1096 N 106.423 1.57458 -0.0668435 0
M  V30 1097 C 107.356 2.08033 0.93795 0
M  V30 1098 C 108.334 0.984321 1.29421 0
M  V30 1099 O 109.518 1.25736 1.40437 0
M  V30 1100 C 106.645 2.53388 2.24749 0
M  V30 1101 C 105.691 3.74376 2.04315 0
M  V30 1102 S 106.524 5.19303 1.30706 0
M  V30 1103 C 107.68 5.67986 2.62951 0
M  V30 1104 H 107.913 2.92935 0.50759 0
M  V30 1105 H 105.446 1.5371 0.145804 0
M  V30 1106 H 107.404 2.8018 3.00016 0
M  V30 1107 H 106.065 1.68763 2.64911 0
M  V30 1108 H 105.258 4.04083 3.01218 0
M  V30 1109 H 104.86 3.47931 1.37186 0
M  V30 1110 H 107.152 5.74528 3.5906 0
M  V30 1111 H 108.095 6.66955 2.3786 0
M  V30 1112 H 108.503 4.95781 2.69929 0
M  V30 1113 N 107.901 -0.206675 1.56239 0
M  V30 1114 C 108.864 -1.23976 1.92776 0
M  V30 1115 C 109.864 -1.39041 0.807729 0
M  V30 1116 O 111.054 -1.37051 1.0753 0
M  V30 1117 C 108.186 -2.61112 2.19165 0
M  V30 1118 H 109.379 -0.927764 2.85189 0
M  V30 1119 H 106.932 -0.447718 1.4975 0
M  V30 1120 H 107.667 -2.97386 1.29352 0
M  V30 1121 H 107.452 -2.51552 3.00772 0
M  V30 1122 H 108.942 -3.35633 2.48476 0
M  V30 1123 N 109.379 -1.50304 -0.473955 0
M  V30 1124 C 110.609 -1.64663 -1.24778 0
M  V30 1125 C 111.017 -0.328174 -1.86332 0
M  V30 1126 O 110.36 0.699536 -1.69859 0
M  V30 1127 C 110.422 -2.6778 -2.39863 0
M  V30 1128 C 110.086 -4.11413 -1.98969 0
M  V30 1129 C 111.083 -4.97372 -1.51385 0
M  V30 1130 C 108.768 -4.57312 -2.07777 0
M  V30 1131 C 110.762 -6.27277 -1.13148 0
M  V30 1132 C 108.449 -5.87223 -1.69152 0
M  V30 1133 C 109.447 -6.72031 -1.21915 0
M  V30 1134 O 109.135 -7.99518 -0.838237 0
M  V30 1135 H 108.867 -0.556602 -0.383627 0
M  V30 1136 H 111.421 -1.9726 -0.572491 0
M  V30 1137 H 109.651 -2.30419 -3.10554 0
M  V30 1138 H 111.34 -2.71388 -3.01833 0
M  V30 1139 H 112.106 -4.63128 -1.44004 0
M  V30 1140 H 107.985 -3.91449 -2.43493 0
M  V30 1141 H 111.529 -6.93425 -0.762077 0
M  V30 1142 H 107.426 -6.20989 -1.76191 0
M  V30 1143 H 108.194 -8.12764 -0.967339 0
M  V30 1144 N 110.857 0.726932 -1.39834 0
M  V30 1145 C 112.105 1.4837 -1.37225 0
M  V30 1146 C 112.426 1.94979 0.0284857 0
M  V30 1147 O 111.696 1.69555 0.981213 0
M  V30 1148 H 110.276 0.55043 -0.505011 0
M  V30 1149 H 112.938 0.862468 -1.74778 0
M  V30 1150 H 112.034 2.36198 -2.04003 0
M  V30 1151 N 112.336 1.25143 0.95797 0
M  V30 1152 C 113.269 0.995565 2.05338 0
M  V30 1153 C 114.247 -0.0740423 1.62431 0
M  V30 1154 O 115.431 0.0649212 1.88388 0
M  V30 1155 C 112.558 0.504298 3.34925 0
M  V30 1156 C 111.604 1.56393 3.96792 0
M  V30 1157 S 112.437 3.14815 4.33188 0
M  V30 1158 C 113.593 2.67415 5.65898 0
M  V30 1159 H 113.826 1.92309 2.26726 0
M  V30 1160 H 111.359 1.08635 1.09716 0
M  V30 1161 H 113.317 0.227497 4.09869 0
M  V30 1162 H 111.978 -0.402671 3.11508 0
M  V30 1163 H 111.171 1.17082 4.90212 0
M  V30 1164 H 110.773 1.79124 3.28315 0
M  V30 1165 H 113.065 2.10833 6.4386 0
M  V30 1166 H 114.008 3.59463 6.10076 0
M  V30 1167 H 114.416 2.07521 5.24972 0
M  V30 1168 N 113.814 -1.1601 1.06675 0
M  V30 1169 C 114.746 -2.20115 0.638921 0
M  V30 1170 C 115.759 -1.59916 -0.305057 0
M  V30 1171 O 116.948 -1.78245 -0.0954446 0
M  V30 1172 C 114.048 -3.38798 -0.0830083 0
M  V30 1173 C 113.221 -4.2855 0.875426 0
M  V30 1174 C 112.28 -5.25849 0.192042 0
M  V30 1175 O 111.306 -5.63102 0.830921 0
M  V30 1176 N 112.508 -5.70648 -1.06493 0
M  V30 1177 H 115.273 -2.57439 1.53444 0
M  V30 1178 H 112.834 -1.31057 0.950557 0
M  V30 1179 H 114.826 -4.00936 -0.550685 0
M  V30 1180 H 113.396 -2.99947 -0.880386 0
M  V30 1181 H 112.616 -3.63617 1.52238 0
M  V30 1182 H 113.904 -4.85393 1.52548 0
M  V30 1183 H 113.302 -5.42482 -1.60405 0
M  V30 1184 H 111.859 -6.34859 -1.47641 0
M  V30 1185 N 115.292 -0.849877 -1.32721 0
M  V30 1186 C 116.517 -0.463856 -2.02146 0
M  V30 1187 C 116.942 0.930449 -1.63476 0
M  V30 1188 O 116.3 1.61033 -0.832952 0
M  V30 1189 C 116.348 -0.604955 -3.55489 0
M  V30 1190 O 115.452 0.36425 -4.10788 0
M  V30 1191 H 114.793 -0.187046 -0.637111 0
M  V30 1192 H 117.323 -1.14775 -1.69375 0
M  V30 1193 H 117.333 -0.490696 -4.05038 0
M  V30 1194 H 116.008 -1.62174 -3.82978 0
M  V30 1195 H 114.585 0.206628 -3.72327 0
M  V30 1196 N 116.77 1.45427 -0.607355 0
M  V30 1197 C 118.016 2.0254 -0.102607 0
M  V30 1198 C 118.349 1.47478 1.26348 0
M  V30 1199 O 117.624 0.64939 1.83339 0
M  V30 1200 C 117.907 3.60044 -0.0634347 0
M  V30 1201 C 117.76 4.2544 -1.46017 0
M  V30 1202 C 119.079 4.35646 0.624514 0
M  V30 1203 H 116.198 0.73598 -0.0387607 0
M  V30 1204 H 118.84 1.73284 -0.779282 0
M  V30 1205 H 116.99 3.85101 0.512808 0
M  V30 1206 H 118.662 4.11569 -2.08347 0
M  V30 1207 H 116.905 3.83849 -2.02094 0
M  V30 1208 H 117.576 5.34342 -1.385 0
M  V30 1209 H 120.052 4.15882 0.134723 0
M  V30 1210 H 118.928 5.45376 0.621028 0
M  V30 1211 H 119.189 4.08501 1.69055 0
M  V30 1212 N 118.248 0.346503 1.53744 0
M  V30 1213 C 119.525 -0.304532 1.93215 0
M  V30 1214 C 119.905 -1.67993 1.27834 0
M  V30 1215 O 119.253 -2.24411 0.430352 0
M  V30 1216 C 119.463 -0.373852 3.46992 0
M  V30 1217 C 120.811 -0.62329 4.2 0
M  V30 1218 O 121.835 -0.455847 3.53271 0
M  V30 1219 O 120.694 -0.947879 5.38217 0
M  V30 1220 H 117.788 -0.178318 0.807547 0
M  V30 1221 H 120.334 0.397895 1.64969 0
M  V30 1222 H 119.106 0.591224 3.86808 0
M  V30 1223 H 118.729 -1.12294 3.81413 0
M  V30 1224 N 119.726 -1.57421 0.075193 0
M  V30 1225 C 120.972 -1.93905 -0.594025 0
M  V30 1226 C 121.305 -0.955701 -1.69056 0
M  V30 1227 O 120.58 0.0145373 -1.94495 0
M  V30 1228 C 120.863 -3.40638 -1.1678 0
M  V30 1229 C 120.716 -4.49733 -0.0776792 0
M  V30 1230 C 122.035 -3.88259 -2.07228 0
M  V30 1231 H 119.154 -0.705105 -0.214466 0
M  V30 1232 H 121.796 -1.8947 0.141854 0
M  V30 1233 H 119.946 -3.44549 -1.79494 0
M  V30 1234 H 121.618 -4.57942 0.555573 0
M  V30 1235 H 119.861 -4.29751 0.591286 0
M  V30 1236 H 120.532 -5.49549 -0.519603 0
M  V30 1237 H 123.008 -3.86376 -1.54445 0
M  V30 1238 H 121.884 -4.91533 -2.44308 0
M  V30 1239 H 122.145 -3.26396 -2.98191 0
M  V30 1240 N 121.204 0.198386 -1.56346 0
M  V30 1241 C 122.453 0.917451 -1.79627 0
M  V30 1242 C 122.766 1.8456 -0.64784 0
M  V30 1243 O 123.972 2.60504 -0.764859 0
M  V30 1244 C 122.428 1.68175 -3.18191 0
M  V30 1245 C 122.036 0.798589 -4.40825 0
M  V30 1246 C 123.78 2.39065 -3.50782 0
M  V30 1247 C 121.687 1.56157 -5.70411 0
M  V30 1248 H 120.617 0.346317 -0.669762 0
M  V30 1249 H 123.268 0.170801 -1.82703 0
M  V30 1250 H 121.65 2.47216 -3.09354 0
M  V30 1251 H 122.824 0.0470665 -4.60776 0
M  V30 1252 H 121.139 0.200686 -4.15916 0
M  V30 1253 H 123.736 2.96692 -4.44835 0
M  V30 1254 H 124.079 3.13091 -2.74371 0
M  V30 1255 H 124.612 1.66993 -3.61052 0
M  V30 1256 H 121.351 0.864142 -6.49779 0
M  V30 1257 H 120.871 2.2871 -5.54483 0
M  V30 1258 H 122.55 2.11622 -6.11412 0
M  V30 1259 N 122.682 1.50554 0.465978 0
M  V30 1260 C 123.928 1.62038 1.21949 0
M  V30 1261 C 124.261 0.322116 1.9151 0
M  V30 1262 O 123.536 -0.676723 1.82348 0
M  V30 1263 C 123.819 2.80421 2.25912 0
M  V30 1264 C 123.672 4.20144 1.60622 0
M  V30 1265 C 124.991 2.94354 3.27176 0
M  V30 1266 H 122.11 0.589752 0.441998 0
M  V30 1267 H 124.752 1.82956 0.51257 0
M  V30 1268 H 122.902 2.62717 2.86203 0
M  V30 1269 H 124.574 4.49449 1.03889 0
M  V30 1270 H 122.817 4.24165 0.909211 0
M  V30 1271 H 123.488 4.98914 2.36196 0
M  V30 1272 H 125.964 3.10578 2.76913 0
M  V30 1273 H 124.84 3.788 3.97242 0
M  V30 1274 H 125.101 2.05186 3.916 0
M  V30 1275 N 124.16 -0.719506 1.40217 0
M  V30 1276 C 125.576 -1.02707 1.22161 0
M  V30 1277 C 125.776 -2.0128 0.0940557 0
M  V30 1278 O 124.832 -2.46452 -0.549318 0
M  V30 1279 C 126.145 -1.57454 2.56181 0
M  V30 1280 C 127.693 -1.69458 2.63159 0
M  V30 1281 C 128.168 -2.27611 3.97438 0
M  V30 1282 N 129.659 -2.35002 3.99159 0
M  V30 1283 C 130.394 -2.80972 4.99842 0
M  V30 1284 N 129.89 -3.26723 6.10921 0
M  V30 1285 N 131.683 -2.80321 4.87213 0
M  V30 1286 H 123.834 -0.0660492 2.12297 0
M  V30 1287 H 126.097 -0.0919077 0.943534 0
M  V30 1288 H 125.803 -0.924873 3.39321 0
M  V30 1289 H 125.677 -2.56036 2.76993 0
M  V30 1290 H 128.064 -2.33543 1.80393 0
M  V30 1291 H 128.145 -0.694867 2.46181 0
M  V30 1292 H 127.789 -1.6415 4.80643 0
M  V30 1293 H 127.719 -3.2829 4.11744 0
M  V30 1294 H 130.21 -2.02685 3.18947 0
M  V30 1295 H 130.523 -3.60355 6.8364 0
M  V30 1296 H 128.868 -3.24692 6.14492 0
M  V30 1297 H 132.059 -2.43912 3.9953 0
M  V30 1298 H 132.232 -3.15831 5.65822 0
M  V30 1299 N 125.638 -1.25649 -0.95132 0
M  V30 1300 C 126.886 -1.10375 -1.69298 0
M  V30 1301 C 127.207 0.355339 -1.91735 0
M  V30 1302 O 126.477 1.25188 -1.50681 0
M  V30 1303 H 125.057 -0.405461 -0.627384 0
M  V30 1304 H 127.719 -1.57823 -1.14358 0
M  V30 1305 H 126.815 -1.61465 -2.67087 0
M  V30 1306 N 127.117 1.15442 -1.07289 0
M  V30 1307 C 128.345 1.90096 -0.81676 0
M  V30 1308 C 128.76 1.7798 0.629966 0
M  V30 1309 O 128.117 1.1313 1.43206 0
M  V30 1310 C 128.168 3.40466 -1.21512 0
M  V30 1311 O 127.889 3.52232 -2.60508 0
M  V30 1312 C 129.39 4.32145 -0.988198 0
M  V30 1313 H 126.61 0.602495 -0.295366 0
M  V30 1314 H 129.154 1.4627 -1.42918 0
M  V30 1315 H 127.309 3.81958 -0.647039 0
M  V30 1316 H 127.723 4.45549 -2.76742 0
M  V30 1317 H 129.197 5.36072 -1.31645 0
M  V30 1318 H 129.674 4.39135 0.0755063 0
M  V30 1319 H 130.28 3.96395 -1.54115 0
M  V30 1320 N 128.595 0.856903 1.32268 0
M  V30 1321 C 129.843 0.460474 1.96784 0
M  V30 1322 C 130.164 -0.987701 1.68135 0
M  V30 1323 O 129.434 -1.69058 0.989765 0
M  V30 1324 H 128.014 0.167289 0.728027 0
M  V30 1325 H 130.676 1.09383 1.61312 0
M  V30 1326 H 129.772 0.60739 3.06133 0
M  V30 1327 N 130.073 -1.45103 0.615059 0
M  V30 1328 C 131.036 -2.29025 -0.0895485 0
M  V30 1329 C 132.036 -1.40174 -0.787906 0
M  V30 1330 O 133.226 -1.62217 -0.634933 0
M  V30 1331 C 130.358 -3.21376 -1.13711 0
M  V30 1332 H 131.551 -2.92807 0.648382 0
M  V30 1333 H 129.104 -1.51749 0.374444 0
M  V30 1334 H 129.839 -2.6241 -1.90556 0
M  V30 1335 H 129.624 -3.86834 -0.640475 0
M  V30 1336 H 131.114 -3.84459 -1.63036 0
M  V30 1337 N 131.551 -0.354651 -1.53558 0
M  V30 1338 C 132.799 0.237972 -2.00694 0
M  V30 1339 C 133.12 1.50173 -1.24391 0
M  V30 1340 O 132.39 1.92673 -0.354135 0
M  V30 1341 H 130.97 0.0909256 -0.741446 0
M  V30 1342 H 133.632 -0.478368 -1.88938 0
M  V30 1343 H 132.728 0.47264 -3.085 0
M  V30 1344 N 133.029 1.57378 -0.0835403 0
M  V30 1345 C 134.445 1.57246 0.273109 0
M  V30 1346 C 134.645 1.09385 1.69225 0
M  V30 1347 O 133.701 0.765051 2.40631 0
M  V30 1348 C 135.014 3.00614 0.0720628 0
M  V30 1349 C 136.562 3.12684 0.1407 0
M  V30 1350 C 137.037 4.57989 -0.0322094 0
M  V30 1351 N 138.528 4.63194 0.0230085 0
M  V30 1352 C 139.263 5.73335 -0.0861941 0
M  V30 1353 N 138.759 6.9235 -0.24958 0
M  V30 1354 N 140.552 5.62093 -0.0282886 0
M  V30 1355 H 132.703 1.86801 -1.0109 0
M  V30 1356 H 134.966 0.861687 -0.395222 0
M  V30 1357 H 134.672 3.39786 -0.907662 0
M  V30 1358 H 134.546 3.68193 0.81936 0
M  V30 1359 H 136.933 2.73391 1.11092 0
M  V30 1360 H 137.014 2.47719 -0.637896 0
M  V30 1361 H 136.658 4.97973 -0.999247 0
M  V30 1362 H 136.588 5.21 0.765937 0
M  V30 1363 H 139.079 3.77613 0.14722 0
M  V30 1364 H 139.392 7.72117 -0.324733 0
M  V30 1365 H 137.737 6.94415 -0.285097 0
M  V30 1366 H 140.928 4.67997 0.0981408 0
M  V30 1367 H 141.101 6.47895 -0.116845 0
M  V30 1368 N 134.507 -0.190092 1.56449 0
M  V30 1369 C 135.417 -1.25591 1.98152 0
M  V30 1370 C 136.433 -1.49519 0.889944 0
M  V30 1371 O 137.609 -1.62036 1.19609 0
M  V30 1372 C 134.674 -2.57916 2.3169 0
M  V30 1373 C 133.735 -2.42015 3.5458 0
M  V30 1374 C 132.968 -3.6803 3.8651 0
M  V30 1375 O 133.191 -4.72413 3.1966 0
M  V30 1376 O 132.125 -3.6326 4.79923 0
M  V30 1377 H 135.951 -0.931988 2.89046 0
M  V30 1378 H 133.536 -0.395488 1.4407 0
M  V30 1379 H 135.418 -3.36008 2.54316 0
M  V30 1380 H 134.093 -2.89925 1.43963 0
M  V30 1381 H 133 -1.62017 3.37196 0
M  V30 1382 H 134.333 -2.14937 4.4279 0
M  V30 1383 N 135.985 -1.50799 -0.457987 0
M  V30 1384 C 136.917 -1.66786 -1.57211 0
M  V30 1385 C 137.93 -0.548962 -1.53265 0
M  V30 1386 O 139.119 -0.8226 -1.58416 0
M  V30 1387 C 136.219 -1.64834 -2.96113 0
M  V30 1388 C 135.392 -2.92971 -3.24787 0
M  V30 1389 C 134.451 -2.83485 -4.43309 0
M  V30 1390 O 133.477 -3.5744 -4.42973 0
M  V30 1391 N 134.679 -1.97929 -5.45714 0
M  V30 1392 H 137.444 -2.62889 -1.43909 0
M  V30 1393 H 135.005 -1.48427 -0.646617 0
M  V30 1394 H 136.997 -1.56084 -3.7339 0
M  V30 1395 H 135.567 -0.764118 -3.03117 0
M  V30 1396 H 134.787 -3.15749 -2.36 0
M  V30 1397 H 136.075 -3.77834 -3.40762 0
M  V30 1398 H 135.473 -1.37182 -5.48815 0
M  V30 1399 H 134.03 -1.95073 -6.21924 0
M  V30 1400 N 137.463 0.71206 -1.40597 0
M  V30 1401 C 138.426 1.80785 -1.40888 0
M  V30 1402 C 139.426 1.57937 -0.302103 0
M  V30 1403 O 140.616 1.64913 -0.561182 0
M  V30 1404 C 137.748 3.18927 -1.20409 0
M  V30 1405 H 138.941 1.81924 -2.38419 0
M  V30 1406 H 136.494 0.91805 -1.26497 0
M  V30 1407 H 137.229 3.23436 -0.236522 0
M  V30 1408 H 137.014 3.36911 -2.00582 0
M  V30 1409 H 138.504 3.98949 -1.23408 0
M  V30 1410 N 138.941 1.26152 0.944643 0
M  V30 1411 C 140.19 1.10883 1.68487 0
M  V30 1412 C 140.503 -0.348153 1.92477 0
M  V30 1413 O 141.709 -0.621459 2.64292 0
M  V30 1414 C 140.165 1.93624 3.03377 0
M  V30 1415 C 139.773 3.43875 2.87148 0
M  V30 1416 C 141.517 1.86954 3.81115 0
M  V30 1417 C 139.424 4.18875 4.1749 0
M  V30 1418 H 138.354 0.41135 0.631907 0
M  V30 1419 H 141.005 1.50433 1.05082 0
M  V30 1420 H 139.387 1.46904 3.67743 0
M  V30 1421 H 140.561 3.98338 2.31653 0
M  V30 1422 H 138.876 3.51744 2.22856 0
M  V30 1423 H 141.473 2.40275 4.77673 0
M  V30 1424 H 141.816 0.839518 4.07747 0
M  V30 1425 H 142.349 2.31477 3.23517 0
M  V30 1426 H 139.088 5.22332 3.96043 0
M  V30 1427 H 138.608 3.69193 4.72712 0
M  V30 1428 H 140.287 4.27134 4.85968 0
M  V30 1429 N 140.419 -1.14872 1.07899 0
M  V30 1430 C 141.835 -1.37776 0.805606 0
M  V30 1431 C 142.035 -1.92743 -0.587555 0
M  V30 1432 O 141.091 -2.13678 -1.34528 0
M  V30 1433 C 142.404 -2.34361 1.88402 0
M  V30 1434 C 143.952 -2.48012 1.90942 0
M  V30 1435 C 144.427 -3.47893 2.97883 0
M  V30 1436 N 145.918 -3.55433 2.97021 0
M  V30 1437 C 146.653 -4.32553 3.76412 0
M  V30 1438 N 146.149 -5.12959 4.65666 0
M  V30 1439 N 147.942 -4.27697 3.64735 0
M  V30 1440 H 140.093 -0.775365 1.97742 0
M  V30 1441 H 142.356 -0.403521 0.857831 0
M  V30 1442 H 142.062 -2.01098 2.88535 0
M  V30 1443 H 141.936 -3.34206 1.74889 0
M  V30 1444 H 144.323 -2.8057 0.914579 0
M  V30 1445 H 144.404 -1.48147 2.08534 0
M  V30 1446 H 144.048 -3.16069 3.97571 0
M  V30 1447 H 143.978 -4.47527 2.77538 0
M  V30 1448 H 146.469 -2.98048 2.32326 0
M  V30 1449 H 146.782 -5.69065 5.22862 0
M  V30 1450 H 145.127 -5.12245 4.69712 0
M  V30 1451 H 148.318 -3.63949 2.94378 0
M  V30 1452 H 148.491 -4.8755 4.26848 0
M  V30 1453 N 141.898 -0.863906 -1.31812 0
M  V30 1454 C 142.861 -0.320212 -2.26952 0
M  V30 1455 C 143.861 0.525369 -1.51975 0
M  V30 1456 O 145.051 0.335547 -1.70938 0
M  V30 1457 C 142.183 0.545919 -3.365 0
M  V30 1458 H 143.376 -1.16004 -2.76556 0
M  V30 1459 H 140.929 -0.638995 -1.42641 0
M  V30 1460 H 141.664 1.40718 -2.92179 0
M  V30 1461 H 141.449 -0.0594674 -3.92055 0
M  V30 1462 H 142.939 0.918796 -4.07367 0
M  V30 1463 N 143.376 1.44774 -0.622745 0
M  V30 1464 C 144.306 2.33382 0.0741861 0
M  V30 1465 C 145.287 1.47719 0.843387 0
M  V30 1466 O 146.472 1.76458 0.810934 0
M  V30 1467 C 143.602 3.30663 1.06204 0
M  V30 1468 C 142.556 4.26079 0.405037 0
M  V30 1469 C 141.882 5.13165 1.5022 0
M  V30 1470 C 143.182 5.1781 -0.683414 0
M  V30 1471 H 144.876 2.91905 -0.665713 0
M  V30 1472 H 142.422 1.40363 -0.321587 0
M  V30 1473 H 144.375 3.9153 1.55827 0
M  V30 1474 H 143.099 2.70331 1.83272 0
M  V30 1475 H 141.758 3.66532 -0.0704683 0
M  V30 1476 H 141.406 4.49191 2.26355 0
M  V30 1477 H 141.106 5.77812 1.06803 0
M  V30 1478 H 142.63 5.76902 2.00041 0
M  V30 1479 H 144.044 5.72661 -0.270631 0
M  V30 1480 H 142.441 5.91015 -1.04023 0
M  V30 1481 H 143.511 4.59326 -1.55395 0
M  V30 1482 N 144.854 0.36279 1.53368 0
M  V30 1483 C 145.786 -0.519668 2.23231 0
M  V30 1484 C 146.799 -1.04844 1.24546 0
M  V30 1485 O 147.988 -0.955296 1.50786 0
M  V30 1486 C 145.088 -1.72995 2.9142 0
M  V30 1487 C 144.261 -1.33316 4.16588 0
M  V30 1488 C 143.32 -2.40521 4.68013 0
M  V30 1489 O 142.346 -2.03027 5.3176 0
M  V30 1490 N 143.548 -3.72065 4.45587 0
M  V30 1491 H 146.313 0.078751 2.99597 0
M  V30 1492 H 143.874 0.187833 1.60807 0
M  V30 1493 H 145.866 -2.44184 3.22733 0
M  V30 1494 H 144.436 -2.2353 2.18525 0
M  V30 1495 H 143.656 -0.451236 3.91609 0
M  V30 1496 H 144.944 -1.04432 4.97967 0
M  V30 1497 H 144.342 -4.05304 3.94646 0
M  V30 1498 H 142.899 -4.39366 4.81457 0
M  V30 1499 N 146.332 -1.57332 0.0918853 0
M  V30 1500 C 147.295 -2.12708 -0.85369 0
M  V30 1501 C 148.295 -1.05561 -1.213 0
M  V30 1502 O 149.485 -1.31461 -1.14296 0
M  V30 1503 C 146.617 -2.64503 -2.15061 0
M  V30 1504 H 147.81 -2.97573 -0.3729 0
M  V30 1505 H 145.363 -1.55509 -0.157072 0
M  V30 1506 H 146.098 -1.83149 -2.67632 0
M  V30 1507 H 145.883 -3.4284 -1.90272 0
M  V30 1508 H 147.373 -3.07351 -2.82711 0
M  V30 1509 N 147.81 0.181792 -1.56548 0
M  V30 1510 C 149.035 0.920019 -1.85877 0
M  V30 1511 C 149.46 1.75494 -0.677021 0
M  V30 1512 O 148.818 1.77399 0.374056 0
M  V30 1513 C 148.866 1.78112 -3.13542 0
M  V30 1514 O 147.97 2.88152 -2.95029 0
M  V30 1515 H 147.311 0.258334 -0.611686 0
M  V30 1516 H 149.841 0.183092 -2.03779 0
M  V30 1517 H 149.851 2.18314 -3.44678 0
M  V30 1518 H 148.526 1.16777 -3.99169 0
M  V30 1519 H 147.103 2.51609 -2.75222 0
M  V30 1520 N 149.288 1.51039 0.449983 0
M  V30 1521 C 150.536 1.62759 1.19808 0
M  V30 1522 C 150.857 0.339981 1.92013 0
M  V30 1523 O 150.127 -0.643606 1.85026 0
M  V30 1524 H 148.707 0.599811 0.445237 0
M  V30 1525 H 151.369 1.87914 0.517138 0
M  V30 1526 H 150.465 2.44911 1.93455 0
M  V30 1527 N 150.766 -0.704594 1.40972 0
M  V30 1528 C 151.696 -1.83124 1.44872 0
M  V30 1529 C 152.677 -1.67281 0.30838 0
M  V30 1530 O 153.862 -1.87149 0.518556 0
M  V30 1531 C 150.992 -3.21181 1.32136 0
M  V30 1532 C 149.946 -3.51714 2.43888 0
M  V30 1533 C 149.272 -4.89032 2.16222 0
M  V30 1534 C 150.572 -3.516 3.86232 0
M  V30 1535 H 152.266 -1.80117 2.39161 0
M  V30 1536 H 149.812 -0.865145 1.15114 0
M  V30 1537 H 151.765 -3.99702 1.33479 0
M  V30 1538 H 150.489 -3.24791 0.343279 0
M  V30 1539 H 149.148 -2.75539 2.41813 0
M  V30 1540 H 148.796 -4.89256 1.16778 0
M  V30 1541 H 148.496 -5.10426 2.911 0
M  V30 1542 H 150.02 -5.69873 2.19265 0
M  V30 1543 H 151.434 -4.2014 3.9007 0
M  V30 1544 H 149.831 -3.84523 4.60719 0
M  V30 1545 H 150.901 -2.50757 4.15029 0
M  V30 1546 N 152.244 -1.26651 -0.937939 0
M  V30 1547 C 153.176 -1.04283 -2.04102 0
M  V30 1548 C 154.189 -0.00221014 -1.628 0
M  V30 1549 O 155.378 -0.242645 -1.76843 0
M  V30 1550 C 152.478 -0.557846 -3.34277 0
M  V30 1551 C 151.651 -1.66843 -4.04329 0
M  V30 1552 C 150.71 -1.18095 -5.12777 0
M  V30 1553 O 149.736 -1.87865 -5.37304 0
M  V30 1554 N 150.938 -0.0311006 -5.80492 0
M  V30 1555 H 153.703 -1.9927 -2.23856 0
M  V30 1556 H 151.264 -1.1808 -1.10764 0
M  V30 1557 H 153.256 -0.215836 -4.04124 0
M  V30 1558 H 151.826 0.298523 -3.11171 0
M  V30 1559 H 151.046 -2.18123 -3.28353 0
M  V30 1560 H 152.334 -2.41408 -4.47883 0
M  V30 1561 H 151.732 0.551486 -5.63005 0
M  V30 1562 H 150.289 0.251809 -6.51313 0
M  V30 1563 N 153.722 1.14298 -1.08507 0
M  V30 1564 C 154.968 1.85633 -0.816581 0
M  V30 1565 C 155.301 1.82784 0.656021 0
M  V30 1566 O 154.576 1.25926 1.48233 0
M  V30 1567 C 154.859 3.34223 -1.34041 0
M  V30 1568 C 154.712 3.45639 -2.87843 0
M  V30 1569 C 156.031 4.29356 -0.9665 0
M  V30 1570 H 153.15 0.67402 -0.298104 0
M  V30 1571 H 155.792 1.34214 -1.34487 0
M  V30 1572 H 153.942 3.78144 -0.89104 0
M  V30 1573 H 155.614 3.10498 -3.41158 0
M  V30 1574 H 153.857 2.86817 -3.25451 0
M  V30 1575 H 154.528 4.50089 -3.19569 0
M  V30 1576 H 157.004 3.93457 -1.35391 0
M  V30 1577 H 155.88 5.3178 -1.3602 0
M  V30 1578 H 156.141 4.41919 0.126362 0
M  V30 1579 N 155.201 0.870884 1.31352 0
M  V30 1580 C 156.148 0.325425 2.28494 0
M  V30 1581 C 157.118 -0.576615 1.5577 0
M  V30 1582 O 158.303 -0.508059 1.83911 0
M  V30 1583 C 155.443 -0.466283 3.41935 0
M  V30 1584 C 154.556 0.463378 4.29508 0
M  V30 1585 C 153.691 -0.342544 5.30094 0
M  V30 1586 C 152.73 0.583486 6.09313 0
M  V30 1587 N 151.867 -0.186244 7.01853 0
M  V30 1588 H 156.707 1.15901 2.74538 0
M  V30 1589 H 154.244 0.58294 1.35056 0
M  V30 1590 H 156.202 -0.941085 4.06447 0
M  V30 1591 H 154.832 -1.26456 2.97 0
M  V30 1592 H 153.884 1.05663 3.65431 0
M  V30 1593 H 155.196 1.1734 4.84802 0
M  V30 1594 H 154.35 -0.879816 6.00287 0
M  V30 1595 H 153.089 -1.08585 4.75458 0
M  V30 1596 H 152.094 1.13251 5.3801 0
M  V30 1597 H 153.319 1.32566 6.66035 0
M  V30 1598 H 151.265 -0.912348 6.49625 0
M  V30 1599 H 151.182 0.464422 7.54572 0
M  V30 1600 H 152.45 -0.704716 7.76308 0
M  V30 1601 N 156.679 -1.44442 0.630414 0
M  V30 1602 C 157.904 -2.06927 0.139944 0
M  V30 1603 C 158.329 -1.46795 -1.17613 0
M  V30 1604 O 157.687 -0.569144 -1.72135 0
M  V30 1605 C 157.735 -3.6058 0.0379581 0
M  V30 1606 O 156.839 -3.99937 -1.0062 0
M  V30 1607 H 156.18 -0.658608 0.0844483 0
M  V30 1608 H 158.71 -1.85327 0.866891 0
M  V30 1609 H 158.72 -4.07714 -0.152856 0
M  V30 1610 H 157.395 -4.03728 0.998809 0
M  V30 1611 H 155.972 -3.64436 -0.79001 0
M  V30 1612 N 158.157 -0.370918 -1.53173 0
M  V30 1613 C 159.406 0.218249 -2.00516 0
M  V30 1614 C 159.719 1.49429 -1.26215 0
M  V30 1615 O 160.925 2.16239 -1.64174 0
M  V30 1616 C 159.381 0.43948 -3.57207 0
M  V30 1617 C 158.989 -0.822244 -4.4039 0
M  V30 1618 C 160.733 0.986012 -4.1289 0
M  V30 1619 C 158.64 -0.570304 -5.88644 0
M  V30 1620 H 157.57 0.0853333 -0.749156 0
M  V30 1621 H 160.221 -0.490483 -1.76823 0
M  V30 1622 H 158.603 1.20961 -3.77074 0
M  V30 1623 H 159.777 -1.59557 -4.32294 0
M  V30 1624 H 158.092 -1.29238 -3.95836 0
M  V30 1625 H 160.689 1.18991 -5.21292 0
M  V30 1626 H 161.032 1.94972 -3.6782 0
M  V30 1627 H 161.565 0.27592 -3.96842 0
M  V30 1628 H 158.304 -1.50449 -6.38001 0
M  V30 1629 H 157.824 0.164427 -5.99575 0
M  V30 1630 H 159.503 -0.19784 -6.46697 0
M  V30 1631 N 159.635 1.57281 -0.100228 0
M  V30 1632 C 160.881 1.94826 0.563101 0
M  V30 1633 C 161.214 0.982475 1.67514 0
M  V30 1634 O 160.489 0.0164069 1.94493 0
M  V30 1635 C 160.772 3.42453 1.11346 0
M  V30 1636 C 160.625 4.498 0.00612081 0
M  V30 1637 C 161.944 3.91506 2.01024 0
M  V30 1638 H 159.063 0.708428 0.203221 0
M  V30 1639 H 161.705 1.8922 -0.171979 0
M  V30 1640 H 159.855 3.47361 1.7399 0
M  V30 1641 H 161.527 4.57 -0.628357 0
M  V30 1642 H 159.77 4.28756 -0.659581 0
M  V30 1643 H 160.441 5.50306 0.432109 0
M  V30 1644 H 162.917 3.88784 1.48278 0
M  V30 1645 H 161.793 4.95358 2.36457 0
M  V30 1646 H 162.054 3.31099 2.92961 0
M  V30 1647 N 161.113 -0.173488 1.56642 0
M  V30 1648 C 162.39 -0.917617 1.7274 0
M  V30 1649 C 162.77 -2.00484 0.661027 0
M  V30 1650 O 162.118 -2.26184 -0.32453 0
M  V30 1651 C 162.328 -1.48433 3.15862 0
M  V30 1652 C 163.676 -1.95809 3.76754 0
M  V30 1653 O 164.7 -1.58231 3.19126 0
M  V30 1654 O 163.559 -2.65024 4.77938 0
M  V30 1655 H 160.653 -0.431772 0.705338 0
M  V30 1656 H 163.199 -0.161487 1.6893 0
M  V30 1657 H 161.971 -0.701715 3.84957 0
M  V30 1658 H 161.594 -2.30471 3.23989 0
M  V30 1659 N 162.591 -1.51276 -0.441967 0
M  V30 1660 C 163.868 -1.54252 -1.20273 0
M  V30 1661 C 164.248 -0.30408 -2.08898 0
M  V30 1662 O 163.596 0.711084 -2.17154 0
M  V30 1663 C 163.806 -2.85406 -2.00859 0
M  V30 1664 C 165.154 -3.37181 -2.58059 0
M  V30 1665 O 166.178 -2.86925 -2.11074 0
M  V30 1666 O 165.037 -4.24858 -3.43741 0
M  V30 1667 H 162.131 -0.619969 -0.547328 0
M  V30 1668 H 164.677 -1.63586 -0.451413 0
M  V30 1669 H 163.449 -3.67003 -1.35736 0
M  V30 1670 H 163.072 -2.79213 -2.83065 0
M  V30 1671 N 164.069 0.697108 -1.41344 0
M  V30 1672 C 165.297 1.48593 -1.43972 0
M  V30 1673 C 165.712 1.88747 -0.0445612 0
M  V30 1674 O 165.069 1.56682 0.935785 0
M  V30 1675 C 165.12 2.74946 -2.34706 0
M  V30 1676 O 164.841 2.36484 -3.68791 0
M  V30 1677 C 166.342 3.687 -2.46121 0
M  V30 1678 H 163.562 0.457964 -0.490418 0
M  V30 1679 H 166.106 0.858429 -1.8561 0
M  V30 1680 H 164.261 3.33937 -1.9638 0
M  V30 1681 H 164.675 3.17918 -4.17167 0
M  V30 1682 H 166.149 4.54145 -3.13777 0
M  V30 1683 H 166.626 4.13081 -1.49199 0
M  V30 1684 H 167.232 3.15613 -2.85076 0
M  V30 1685 N 165.547 1.27147 0.931209 0
M  V30 1686 C 166.958 1.12044 1.49342 0
M  V30 1687 C 167.309 -0.295795 1.93957 0
M  V30 1688 O 166.434 -1.18835 1.80852 0
M  V30 1689 C 167.029 2.02781 2.71414 0
M  V30 1690 C 165.588 1.91794 3.2387 0
M  V30 1691 C 164.735 1.95543 1.96617 0
M  V30 1692 H 167.686 1.40091 0.745672 0
M  V30 1693 H 167.707 1.58156 3.46074 0
M  V30 1694 H 167.219 3.05848 2.38911 0
M  V30 1695 H 165.32 0.916992 3.6114 0
M  V30 1696 H 165.433 2.77852 3.90302 0
M  V30 1697 H 163.797 1.39722 2.12955 0
M  V30 1698 H 164.58 3.00259 1.66432 0
M  V30 1699 N 167.025 -1.13721 1.09112 0
M  V30 1700 C 168.271 -1.85198 0.826414 0
M  V30 1701 C 168.604 -1.83129 -0.646319 0
M  V30 1702 O 167.879 -1.2671 -1.47563 0
M  V30 1703 C 168.162 -3.33507 1.35812 0
M  V30 1704 C 168.015 -3.44108 2.89672 0
M  V30 1705 C 169.334 -4.28838 0.989256 0
M  V30 1706 H 166.453 -0.67243 0.301675 0
M  V30 1707 H 169.095 -1.33499 1.35197 0
M  V30 1708 H 167.245 -3.77666 0.911082 0
M  V30 1709 H 168.917 -3.08684 3.428 0
M  V30 1710 H 167.16 -2.85087 3.26967 0
M  V30 1711 H 167.831 -4.48388 3.21951 0
M  V30 1712 H 170.307 -3.92734 1.37475 0
M  V30 1713 H 169.183 -5.31051 1.38838 0
M  V30 1714 H 169.444 -4.4198 -0.102924 0
M  V30 1715 N 168.503 -0.877838 -1.30888 0
M  V30 1716 C 169.914 -0.544193 -1.78593 0
M  V30 1717 C 170.265 0.939301 -1.72254 0
M  V30 1718 O 169.39 1.7337 -1.29505 0
M  V30 1719 C 169.985 -0.98105 -3.24285 0
M  V30 1720 C 168.544 -0.698935 -3.69854 0
M  V30 1721 C 167.691 -1.168 -2.51502 0
M  V30 1722 H 170.642 -1.06278 -1.17859 0
M  V30 1723 H 170.663 -0.307009 -3.79259 0
M  V30 1724 H 170.175 -2.06079 -3.28866 0
M  V30 1725 H 168.276 0.369112 -3.70767 0
M  V30 1726 H 168.389 -1.28148 -4.61644 0
M  V30 1727 H 166.753 -0.587535 -2.47831 0
M  V30 1728 H 167.536 -2.25533 -2.58824 0
M  V30 1729 N 169.982 1.44106 -0.638065 0
M  V30 1730 C 170.932 2.27843 0.0847285 0
M  V30 1731 C 171.916 1.39055 0.809471 0
M  V30 1732 O 173.108 1.62808 0.694435 0
M  V30 1733 C 170.237 3.26497 1.06089 0
M  V30 1734 C 169.323 4.22772 0.33541 0
M  V30 1735 N 169.714 5.01737 -0.639787 0
M  V30 1736 C 168.012 4.42227 0.578921 0
M  V30 1737 C 168.713 5.71792 -1.06904 0
M  V30 1738 N 167.689 5.42079 -0.406395 0
M  V30 1739 H 171.491 2.86305 -0.663814 0
M  V30 1740 H 169.005 1.55627 -0.464122 0
M  V30 1741 H 171.002 3.8525 1.59337 0
M  V30 1742 H 169.662 2.69595 1.80966 0
M  V30 1743 H 170.673 5.07799 -1.01789 0
M  V30 1744 H 167.35 3.96415 1.31003 0
M  V30 1745 H 168.74 6.45205 -1.8751 0
M  V30 1746 N 171.46 0.379036 1.52974 0
M  V30 1747 C 172.408 -0.476033 2.27677 0
M  V30 1748 C 173.402 -1.0719 1.31174 0
M  V30 1749 O 174.608 -1.01355 1.48752 0
M  V30 1750 H 170.983 -0.172255 0.732006 0
M  V30 1751 H 172.954 0.175615 2.97883 0
M  V30 1752 C 171.703 -1.5967 3.0887 0
M  V30 1753 H 171.026 -1.1475 3.82978 0
M  V30 1754 H 172.466 -2.16943 3.64296 0
M  V30 1755 C 170.925 -2.54682 2.20542 0
M  V30 1756 O 171.455 -3.57836 1.82527 0
M  V30 1757 N 169.661 -2.24183 1.84907 0
M  V30 1758 H 169.208 -1.40333 2.1602 0
M  V30 1759 H 169.166 -2.88006 1.26096 0
M  V30 1760 N 172.938 -1.57226 0.108567 0
M  V30 1761 C 174.186 -1.94448 -0.550853 0
M  V30 1762 C 174.507 -0.992074 -1.67878 0
M  V30 1763 O 173.777 -0.0465 -1.95845 0
M  V30 1764 H 172.357 -0.717897 -0.206479 0
M  V30 1765 H 175.019 -1.94112 0.175062 0
M  V30 1766 H 174.115 -2.97218 -0.952259 0
M  V30 1767 N 174.416 0.165178 -1.56732 0
M  V30 1768 C 175.656 0.887231 -1.8414 0
M  V30 1769 C 176.02 1.79159 -0.690353 0
M  V30 1770 O 177.221 2.55172 -0.845032 0
M  V30 1771 C 175.492 1.65674 -3.16681 0
M  V30 1772 S 177.051 2.42671 -3.6559 0
M  V30 1773 H 173.869 0.297042 -0.645978 0
M  V30 1774 H 176.471 0.148439 -1.94936 0
M  V30 1775 H 175.175 0.983507 -3.98441 0
M  V30 1776 H 174.706 2.43679 -3.08843 0
M  V30 1777 H 176.721 3.67499 -3.33406 0
M  V30 1778 N 175.894 1.51508 0.433938 0
M  V30 1779 C 177.31 1.39759 0.770682 0
M  V30 1780 C 177.51 0.482594 1.95636 0
M  V30 1781 O 176.566 -0.0609691 2.52426 0
M  V30 1782 C 177.879 2.81851 1.04787 0
M  V30 1783 C 179.427 2.91025 1.1521 0
M  V30 1784 C 179.902 4.34032 1.46219 0
M  V30 1785 N 181.393 4.37154 1.53136 0
M  V30 1786 C 182.128 5.4484 1.78709 0
M  V30 1787 N 181.624 6.62682 2.02051 0
M  V30 1788 N 183.417 5.32324 1.80519 0
M  V30 1789 H 175.568 2.09548 -0.346892 0
M  V30 1790 H 177.831 0.943446 -0.0928074 0
M  V30 1791 H 177.537 3.50815 0.249304 0
M  V30 1792 H 177.411 3.21386 1.97461 0
M  V30 1793 H 179.798 2.22257 1.94128 0
M  V30 1794 H 179.879 2.54983 0.204281 0
M  V30 1795 H 179.523 5.03351 0.678274 0
M  V30 1796 H 179.453 4.6759 2.42212 0
M  V30 1797 H 181.944 3.52197 1.36987 0
M  V30 1798 H 182.257 7.40543 2.20943 0
M  V30 1799 H 180.602 6.65791 1.99366 0
M  V30 1800 H 183.793 4.39246 1.61805 0
M  V30 1801 H 183.966 6.16328 2.00111 0
M  V30 1802 N 177.372 -0.689602 1.41712 0
M  V30 1803 C 178.783 -1.26973 1.36875 0
M  V30 1804 C 179.134 -1.96124 0.054748 0
M  V30 1805 O 178.259 -1.99141 -0.84687 0
M  V30 1806 C 178.854 -2.30912 2.47922 0
M  V30 1807 C 177.413 -2.84486 2.46464 0
M  V30 1808 C 176.56 -1.58603 2.27465 0
M  V30 1809 H 179.511 -0.48396 1.51141 0
M  V30 1810 H 179.532 -3.12331 2.17323 0
M  V30 1811 H 179.044 -1.80554 3.43543 0
M  V30 1812 H 177.145 -3.39005 1.54617 0
M  V30 1813 H 177.258 -3.34511 3.42986 0
M  V30 1814 H 175.622 -1.84632 1.75451 0
M  V30 1815 H 176.405 -1.10233 3.25121 0
M  V30 1816 N 178.85 -1.27639 -0.924453 0
M  V30 1817 C 179.797 -1.10644 -2.0255 0
M  V30 1818 C 180.767 -0.00658438 -1.66099 0
M  V30 1819 O 181.952 -0.16952 -1.90045 0
M  V30 1820 C 179.092 -0.76309 -3.36557 0
M  V30 1821 C 178.205 -1.94091 -3.85944 0
M  V30 1822 C 177.34 -1.53914 -5.08413 0
M  V30 1823 C 176.379 -2.68425 -5.50104 0
M  V30 1824 N 175.516 -2.28815 -6.63768 0
M  V30 1825 H 180.356 -2.04858 -2.16419 0
M  V30 1826 H 177.893 -1.01974 -1.06017 0
M  V30 1827 H 179.851 -0.544822 -4.13627 0
M  V30 1828 H 178.481 0.142102 -3.22487 0
M  V30 1829 H 177.533 -2.27162 -3.05125 0
M  V30 1830 H 178.845 -2.7998 -4.12811 0
M  V30 1831 H 177.999 -1.28231 -5.92994 0
M  V30 1832 H 176.738 -0.651391 -4.8333 0
M  V30 1833 H 175.743 -2.94819 -4.64071 0
M  V30 1834 H 176.968 -3.57826 -5.7718 0
M  V30 1835 H 174.914 -1.42495 -6.40337 0
M  V30 1836 H 174.831 -3.08242 -6.90306 0
M  V30 1837 H 176.099 -2.06387 -7.51681 0
M  V30 1838 N 180.328 1.1314 -1.09713 0
M  V30 1839 C 181.275 2.18642 -0.739196 0
M  V30 1840 C 182.245 1.63706 0.280978 0
M  V30 1841 O 183.43 1.90111 0.161946 0
M  V30 1842 C 180.57 3.44685 -0.169102 0
M  V30 1843 C 179.683 4.13711 -1.24367 0
M  V30 1844 C 178.818 5.27379 -0.636019 0
M  V30 1845 C 177.857 5.88259 -1.69169 0
M  V30 1846 N 176.994 6.93352 -1.10485 0
M  V30 1847 H 181.834 2.48607 -1.64312 0
M  V30 1848 H 179.371 1.22066 -0.820875 0
M  V30 1849 H 181.329 4.16815 0.179256 0
M  V30 1850 H 179.959 3.15161 0.698079 0
M  V30 1851 H 179.011 3.39835 -1.70927 0
M  V30 1852 H 180.323 4.55037 -2.04311 0
M  V30 1853 H 179.477 6.06238 -0.236677 0
M  V30 1854 H 178.216 4.8731 0.194928 0
M  V30 1855 H 177.221 5.08092 -2.10055 0
M  V30 1856 H 178.446 6.30399 -2.52536 0
M  V30 1857 H 176.392 6.55335 -0.295234 0
M  V30 1858 H 176.309 7.33236 -1.84121 0
M  V30 1859 H 177.577 7.76057 -0.73181 0
M  V30 1860 N 181.806 0.884767 1.30421 0
M  V30 1861 C 182.753 0.349642 2.28136 0
M  V30 1862 C 183.723 -0.560061 1.56373 0
M  V30 1863 O 184.908 -0.488524 1.8444 0
M  V30 1864 C 182.048 -0.42999 3.42411 0
M  V30 1865 C 181.161 0.508907 4.28992 0
M  V30 1866 C 180.296 -0.286301 5.30428 0
M  V30 1867 C 179.335 0.648079 6.08659 0
M  V30 1868 N 178.472 -0.111792 7.02011 0
M  V30 1869 H 183.312 1.18807 2.73293 0
M  V30 1870 H 180.849 0.597231 1.3443 0
M  V30 1871 H 182.807 -0.897923 4.07423 0
M  V30 1872 H 181.437 -1.23299 2.98324 0
M  V30 1873 H 180.489 1.09533 3.64289 0
M  V30 1874 H 181.801 1.22475 4.8353 0
M  V30 1875 H 180.955 -0.816098 6.01186 0
M  V30 1876 H 179.694 -1.03536 4.76583 0
M  V30 1877 H 178.699 1.18951 5.36778 0
M  V30 1878 H 179.924 1.39623 6.64592 0
M  V30 1879 H 177.87 -0.843395 6.50556 0
M  V30 1880 H 177.787 0.544429 7.54037 0
M  V30 1881 H 179.055 -0.622339 7.77012 0
M  V30 1882 N 183.284 -1.43765 0.645699 0
M  V30 1883 C 184.531 -2.01898 0.15604 0
M  V30 1884 C 184.859 -1.50887 -1.22733 0
M  V30 1885 O 184.114 -0.689271 -1.8316 0
M  V30 1886 C 184.413 -3.57238 0.107679 0
M  V30 1887 C 184.079 -4.27564 1.43178 0
M  V30 1888 C 182.741 -4.46492 1.7944 0
M  V30 1889 C 185.093 -4.67454 2.30513 0
M  V30 1890 C 182.421 -5.02573 3.02716 0
M  V30 1891 C 184.773 -5.24901 3.53074 0
M  V30 1892 C 183.437 -5.42046 3.89541 0
M  V30 1893 H 182.707 -0.738797 0.057099 0
M  V30 1894 H 185.354 -1.72341 0.834912 0
M  V30 1895 H 183.659 -3.86293 -0.654618 0
M  V30 1896 H 185.356 -3.99965 -0.287938 0
M  V30 1897 H 181.946 -4.13171 1.13963 0
M  V30 1898 H 186.13 -4.5253 2.0379 0
M  V30 1899 H 181.386 -5.14033 3.31028 0
M  V30 1900 H 185.56 -5.54758 4.20971 0
M  V30 1901 H 183.187 -5.85268 4.85145 0
M  V30 1902 N 184.763 -0.387143 -1.52771 0
M  V30 1903 C 186.179 -0.037007 -1.59557 0
M  V30 1904 C 186.379 1.44801 -1.40124 0
M  V30 1905 O 185.435 2.21227 -1.21716 0
M  V30 1906 C 186.748 -0.512256 -2.96305 0
M  V30 1907 C 188.296 -0.468328 -3.09476 0
M  V30 1908 C 188.771 -0.919731 -4.4867 0
M  V30 1909 N 190.262 -0.875656 -4.54848 0
M  V30 1910 C 190.997 -1.19637 -5.6078 0
M  V30 1911 N 190.493 -1.58745 -6.74368 0
M  V30 1912 N 192.286 -1.11776 -5.50874 0
M  V30 1913 H 184.437 -1.35395 -1.63652 0
M  V30 1914 H 186.7 -0.554818 -0.768688 0
M  V30 1915 H 186.406 -1.54935 -3.15734 0
M  V30 1916 H 186.28 0.089805 -3.77093 0
M  V30 1917 H 188.667 0.559671 -2.89744 0
M  V30 1918 H 188.748 -1.10616 -2.30646 0
M  V30 1919 H 188.392 -1.94595 -4.69143 0
M  V30 1920 H 188.322 -0.258927 -5.25963 0
M  V30 1921 H 190.813 -0.587843 -3.733 0
M  V30 1922 H 191.126 -1.81586 -7.51163 0
M  V30 1923 H 189.471 -1.6263 -6.75705 0
M  V30 1924 H 192.662 -0.811264 -4.61016 0
M  V30 1925 H 192.835 -1.37103 -6.3333 0
M  V30 1926 N 186.241 1.57166 -0.116904 0
M  V30 1927 C 187.188 2.15202 0.83408 0
M  V30 1928 C 188.158 1.07644 1.26499 0
M  V30 1929 O 189.343 1.35541 1.34288 0
M  V30 1930 C 186.483 2.75405 2.07957 0
M  V30 1931 C 185.596 3.97264 1.69721 0
M  V30 1932 C 184.731 4.45561 2.89221 0
M  V30 1933 C 183.77 5.59956 2.47215 0
M  V30 1934 N 182.907 6.03006 3.59622 0
M  V30 1935 H 187.747 2.96141 0.332335 0
M  V30 1936 H 185.284 1.46309 0.152349 0
M  V30 1937 H 187.242 3.08439 2.80929 0
M  V30 1938 H 185.872 1.97159 2.55594 0
M  V30 1939 H 184.924 3.70404 0.866316 0
M  V30 1940 H 186.236 4.80226 1.34849 0
M  V30 1941 H 185.39 4.80493 3.7042 0
M  V30 1942 H 184.129 3.61544 3.27318 0
M  V30 1943 H 183.134 5.2463 1.64448 0
M  V30 1944 H 184.359 6.45738 2.10238 0
M  V30 1945 H 182.305 5.21931 3.97396 0
M  V30 1946 H 182.222 6.80819 3.28667 0
M  V30 1947 H 183.49 6.42576 4.41267 0
M  V30 1948 N 187.719 -0.156864 1.56817 0
M  V30 1949 C 188.682 -1.17781 1.96622 0
M  V30 1950 C 189.682 -1.36401 0.851555 0
M  V30 1951 O 190.872 -1.33561 1.11836 0
M  V30 1952 C 188.004 -2.54008 2.27361 0
M  V30 1953 H 189.197 -0.836564 2.87996 0
M  V30 1954 H 186.75 -0.39985 1.51099 0
M  V30 1955 H 187.485 -2.9312 1.38748 0
M  V30 1956 H 187.27 -2.41856 3.08623 0
M  V30 1957 H 188.76 -3.27558 2.59029 0
M  V30 1958 N 189.197 -1.51736 -0.425897 0
M  V30 1959 C 190.422 -1.69082 -1.20108 0
M  V30 1960 C 190.847 -0.392398 -1.83962 0
M  V30 1961 O 190.205 0.64858 -1.69302 0
M  V30 1962 C 190.253 -2.81604 -2.25237 0
M  V30 1963 O 189.357 -2.46004 -3.30992 0
M  V30 1964 H 188.698 -0.563408 -0.35138 0
M  V30 1965 H 191.228 -1.98358 -0.501512 0
M  V30 1966 H 191.238 -3.06025 -2.69838 0
M  V30 1967 H 189.913 -3.75817 -1.78142 0
M  V30 1968 H 188.49 -2.32195 -2.91787 0
M  V30 1969 O 190.714 0.571711 -1.51042 0
M  V30 1970 H 191.405 1.22676 -1.49901 0
M  V30 END ATOM
M  V30 BEGIN BOND
M  V30 END BOND
M  V30 END CTAB
M  END
$$$$
