drugbank_target|P14489 Beta-lactamase OXA-10 (DB02122; DB03801; DB04342)
 OpenBabel12092119513D

  0  0  0     0  0            999 V3000
M  V30 BEGIN CTAB
M  V30 COUNTS 4168 4211 0 0 0
M  V30 BEGIN ATOM
M  V30 1 H -0.908 1.98254 -0.117106 0
M  V30 2 N 0 1.576 0 0
M  V30 3 C 0.933 2.03868 1.02534 0
M  V30 4 C 1.911 0.928543 1.3348 0
M  V30 5 O 3.095 1.19667 1.45644 0
M  V30 6 C 0.222 2.43627 2.35294 0
M  V30 7 C -0.732 3.65373 2.2001 0
M  V30 8 S 0.101 5.13292 1.52614 0
M  V30 9 C 1.257 5.56322 2.86805 0
M  V30 10 H 1.49 2.90518 0.631377 0
M  V30 11 H -0.977 1.52953 0.210867 0
M  V30 12 H 0.981 2.67203 3.11629 0
M  V30 13 H -0.358 1.57376 2.7183 0
M  V30 14 H -1.165 3.90944 3.18086 0
M  V30 15 H -1.563 3.418 1.51819 0
M  V30 16 H 0.729 5.58782 3.83104 0
M  V30 17 H 1.672 6.56266 2.65933 0
M  V30 18 H 2.08 4.83886 2.90714 0
M  V30 19 N 1.4781 -0.272755 1.55222 0
M  V30 20 C 2.4251 -1.33716 1.88119 0
M  V30 21 C 3.3951 -1.49066 0.73271 0
M  V30 22 O 4.5801 -1.63469 0.984002 0
M  V30 23 C 1.7201 -2.69238 2.15882 0
M  V30 24 C 0.8331 -2.62108 3.43399 0
M  V30 25 C -0.0319 -3.89811 3.60861 0
M  V30 26 C -0.9929 -3.77193 4.8207 0
M  V30 27 N -1.8559 -4.9673 4.96189 0
M  V30 28 H 2.9841 -1.04962 2.78903 0
M  V30 29 H 0.5211 -0.507088 1.38083 0
M  V30 30 H 2.4791 -3.48089 2.29978 0
M  V30 31 H 1.1091 -2.96194 1.28331 0
M  V30 32 H 0.1611 -1.74967 3.37773 0
M  V30 33 H 1.4731 -2.48685 4.32386 0
M  V30 34 H 0.6271 -4.77103 3.74777 0
M  V30 35 H -0.6339 -4.06102 2.7006 0
M  V30 36 H -1.6289 -2.88284 4.68159 0
M  V30 37 H -0.4039 -3.62421 5.74307 0
M  V30 38 H -2.4579 -5.13431 4.08319 0
M  V30 39 H -2.5409 -4.85839 5.79221 0
M  V30 40 H -1.2729 -5.85594 5.1449 0
M  V30 41 N 2.9562 -1.48159 -0.537278 0
M  V30 42 C 4.1842 -1.59454 -1.31841 0
M  V30 43 C 4.5992 -0.252065 -1.8711 0
M  V30 44 O 3.9562 0.757621 -1.66031 0
M  V30 45 C 4.0072 -2.63546 -2.47439 0
M  V30 46 O 3.7282 -3.92583 -1.94449 0
M  V30 47 C 5.2292 -2.85212 -3.39366 0
M  V30 48 H 2.4492 -0.53785 -0.401196 0
M  V30 49 H 4.9932 -1.93932 -0.648891 0
M  V30 50 H 3.1482 -2.31946 -3.1029 0
M  V30 51 H 3.5622 -4.49629 -2.70063 0
M  V30 52 H 5.0362 -3.61863 -4.16844 0
M  V30 53 H 5.5132 -1.93765 -3.94147 0
M  V30 54 H 6.1192 -3.18086 -2.82314 0
M  V30 55 N 4.4343 0.785586 -1.36625 0
M  V30 56 C 5.6813 1.54362 -1.31067 0
M  V30 57 C 6.0093 1.94195 0.10893 0
M  V30 58 O 5.2643 1.63262 1.07908 0
M  V30 59 C 5.5633 2.83007 -2.1827 0
M  V30 60 C 5.2293 2.62294 -3.6676 0
M  V30 61 C 3.8913 2.56353 -4.0723 0
M  V30 62 C 6.2433 2.43371 -4.6089 0
M  V30 63 C 3.5713 2.29461 -5.39967 0
M  V30 64 C 5.9233 2.18005 -5.93849 0
M  V30 65 C 4.5873 2.105 -6.3344 0
M  V30 66 H 3.8573 0.564851 -0.479609 0
M  V30 67 H 6.5043 0.906028 -1.68711 0
M  V30 68 H 4.8093 3.51253 -1.73576 0
M  V30 69 H 6.5063 3.40817 -2.11292 0
M  V30 70 H 3.0963 2.67774 -3.34656 0
M  V30 71 H 7.2803 2.46959 -4.30494 0
M  V30 72 H 2.5363 2.22135 -5.69619 0
M  V30 73 H 6.7103 2.02359 -6.66351 0
M  V30 74 H 4.3373 1.89425 -7.36222 0
M  V30 75 N 5.9124 1.20967 1.01018 0
M  V30 76 C 6.8754 0.965918 2.07853 0
M  V30 77 C 7.8754 -0.0610545 1.60684 0
M  V30 78 O 9.0654 0.175681 1.73312 0
M  V30 79 C 6.1974 0.455513 3.37843 0
M  V30 80 H 7.3904 1.91365 2.3091 0
M  V30 81 H 4.9434 1.02594 1.17916 0
M  V30 82 H 5.6784 -0.497381 3.20463 0
M  V30 83 H 5.4634 1.19622 3.73407 0
M  V30 84 H 6.9534 0.304667 4.16487 0
M  V30 85 N 7.3905 -1.2043 1.01659 0
M  V30 86 C 8.3535 -2.21433 0.591616 0
M  V30 87 C 9.3535 -1.57203 -0.338226 0
M  V30 88 O 10.5435 -1.73737 -0.126918 0
M  V30 89 C 7.6755 -3.40628 -0.136058 0
M  V30 90 H 8.8685 -2.60545 1.48514 0
M  V30 91 H 6.4215 -1.33893 0.806379 0
M  V30 92 H 7.1565 -3.07019 -1.04449 0
M  V30 93 H 6.9415 -3.88475 0.531917 0
M  V30 94 H 8.4315 -4.15475 -0.420735 0
M  V30 95 N 8.8686 -0.792821 -1.36206 0
M  V30 96 C 10.0986 -0.378275 -2.03107 0
M  V30 97 C 10.5066 1.01119 -1.59911 0
M  V30 98 O 9.8496 1.66052 -0.785658 0
M  V30 99 C 9.9116 -0.366535 -3.57627 0
M  V30 100 C 9.5756 -1.70416 -4.24037 0
M  V30 101 C 10.5726 -2.6602 -4.46687 0
M  V30 102 C 8.2576 -1.98439 -4.6144 0
M  V30 103 C 10.2516 -3.8784 -5.05825 0
M  V30 104 C 7.9386 -3.20525 -5.20295 0
M  V30 105 C 8.9366 -4.15044 -5.42427 0
M  V30 106 O 8.6246 -5.34978 -6.00045 0
M  V30 107 H 8.3566 -0.153543 -0.658332 0
M  V30 108 H 10.9106 -1.07383 -1.75094 0
M  V30 109 H 9.1406 0.385539 -3.84773 0
M  V30 110 H 10.8296 0.0238088 -4.05893 0
M  V30 111 H 11.5956 -2.45658 -4.18183 0
M  V30 112 H 7.4746 -1.25686 -4.43536 0
M  V30 113 H 11.0186 -4.61628 -5.23015 0
M  V30 114 H 6.9156 -3.40764 -5.48225 0
M  V30 115 H 7.6836 -5.36088 -6.18508 0
M  V30 116 N 10.3467 1.47872 -0.545128 0
M  V30 117 C 11.5927 2.02793 -0.0166104 0
M  V30 118 C 11.9257 1.41987 1.32489 0
M  V30 119 O 11.2007 0.571045 1.85928 0
M  V30 120 C 11.4837 3.59989 0.0893294 0
M  V30 121 C 11.3367 4.3125 -1.27841 0
M  V30 122 C 12.6557 4.32606 0.808724 0
M  V30 123 H 9.7747 0.736962 -0.00751035 0
M  V30 124 H 12.4167 1.76433 -0.705085 0
M  V30 125 H 10.5667 3.82579 0.675681 0
M  V30 126 H 12.2387 4.20035 -1.90704 0
M  V30 127 H 10.4817 3.92076 -1.85632 0
M  V30 128 H 11.1527 5.39736 -1.15713 0
M  V30 129 H 13.6287 4.14936 0.310992 0
M  V30 130 H 12.5047 5.42251 0.851782 0
M  V30 131 H 12.7657 4.00963 1.86229 0
M  V30 132 N 11.8248 0.280983 1.55075 0
M  V30 133 C 13.0738 -0.334784 1.98902 0
M  V30 134 C 13.3868 -1.56534 1.17288 0
M  V30 135 O 14.5928 -2.25443 1.51287 0
M  V30 136 C 13.0488 -0.646994 3.54037 0
M  V30 137 C 12.6568 0.564085 4.44435 0
M  V30 138 C 14.4008 -1.22506 4.06439 0
M  V30 139 C 12.3078 0.226137 5.90967 0
M  V30 140 H 11.2378 -0.128866 0.742906 0
M  V30 141 H 13.8888 0.386556 1.79382 0
M  V30 142 H 12.2708 -1.42739 3.6938 0
M  V30 143 H 13.4448 1.34082 4.40861 0
M  V30 144 H 11.7598 1.0594 4.02698 0
M  V30 145 H 14.3568 -1.49182 5.13468 0
M  V30 146 H 14.6998 -2.16085 3.55827 0
M  V30 147 H 15.2328 -0.50682 3.94558 0
M  V30 148 H 11.9718 1.12996 6.45687 0
M  V30 149 H 11.4918 -0.513717 5.97596 0
M  V30 150 H 13.1708 -0.179539 6.46751 0
M  V30 151 N 13.3029 -1.57598 0.00835791 0
M  V30 152 C 14.5519 -1.90107 -0.673968 0
M  V30 153 C 14.8649 -0.884275 -1.7447 0
M  V30 154 O 16.0709 -1.09987 -2.48224 0
M  V30 155 C 14.5269 -3.37497 -1.24995 0
M  V30 156 C 14.1349 -4.47491 -0.2136 0
M  V30 157 C 15.8789 -3.79104 -1.90999 0
M  V30 158 C 13.7859 -5.85963 -0.80005 0
M  V30 159 H 12.7159 -0.709393 -0.255495 0
M  V30 160 H 15.3669 -1.83365 0.0702693 0
M  V30 161 H 13.7489 -3.39102 -2.04513 0
M  V30 162 H 14.9229 -4.57414 0.557596 0
M  V30 163 H 13.2379 -4.14956 0.346474 0
M  V30 164 H 15.8349 -4.79901 -2.35795 0
M  V30 165 H 16.1779 -3.1306 -2.74407 0
M  V30 166 H 16.7109 -3.79833 -1.18203 0
M  V30 167 H 13.4499 -6.555 -0.00456708 0
M  V30 168 H 12.9699 -5.79687 -1.54021 0
M  V30 169 H 14.6489 -6.33884 -1.29615 0
M  V30 170 N 14.781 0.264519 -1.55364 0
M  V30 171 C 15.744 1.31046 -1.88042 0
M  V30 172 C 16.744 1.41943 -0.755569 0
M  V30 173 O 17.934 1.40947 -1.02369 0
M  V30 174 C 15.066 2.69067 -2.09323 0
M  V30 175 H 16.259 1.03297 -2.81549 0
M  V30 176 H 13.812 0.502989 -1.47986 0
M  V30 177 H 14.547 3.01982 -1.18226 0
M  V30 178 H 14.332 2.62542 -2.91229 0
M  V30 179 H 15.822 3.44623 -2.35848 0
M  V30 180 N 16.2591 1.48442 0.529413 0
M  V30 181 C 17.4991 1.58086 1.29569 0
M  V30 182 C 17.8631 0.249302 1.90375 0
M  V30 183 O 19.0641 0.220738 2.67892 0
M  V30 184 C 17.3351 2.68793 2.35552 0
M  V30 185 S 18.8941 2.98207 3.21898 0
M  V30 186 H 15.7121 0.557922 0.440732 0
M  V30 187 H 18.3141 1.85966 0.603059 0
M  V30 188 H 17.0181 3.64102 1.89363 0
M  V30 189 H 16.5491 2.42817 3.09522 0
M  V30 190 H 18.5641 2.37548 4.35644 0
M  V30 191 N 17.7372 -0.778329 1.37039 0
M  V30 192 C 18.6672 -1.90546 1.34962 0
M  V30 193 C 19.6482 -1.68681 0.219274 0
M  V30 194 O 20.8332 -1.89634 0.418624 0
M  V30 195 C 17.9632 -3.27734 1.14925 0
M  V30 196 C 16.9172 -3.64147 2.24902 0
M  V30 197 C 16.2432 -4.99806 1.89996 0
M  V30 198 C 17.5432 -3.71579 3.67051 0
M  V30 199 H 19.2372 -1.92541 2.29277 0
M  V30 200 H 16.7832 -0.924948 1.10366 0
M  V30 201 H 18.7362 -4.06215 1.12104 0
M  V30 202 H 17.4602 -3.26154 0.170631 0
M  V30 203 H 16.1192 -2.8797 2.26868 0
M  V30 204 H 15.7672 -4.94759 0.906796 0
M  V30 205 H 15.4672 -5.25139 2.63634 0
M  V30 206 H 16.9912 -5.80694 1.88749 0
M  V30 207 H 18.4052 -4.40227 3.67251 0
M  V30 208 H 16.8022 -4.08405 4.39688 0
M  V30 209 H 17.8722 -2.72404 4.01154 0
M  V30 210 N 19.2153 -1.21501 -1.00376 0
M  V30 211 C 20.4403 -1.05977 -1.78279 0
M  V30 212 C 20.8653 0.385994 -1.84097 0
M  V30 213 O 20.2233 1.27849 -1.28547 0
M  V30 214 C 20.2713 -1.66302 -3.19963 0
M  V30 215 O 19.3753 -0.909333 -4.0225 0
M  V30 216 H 18.7163 -0.372906 -0.549397 0
M  V30 217 H 21.2463 -1.6107 -1.26165 0
M  V30 218 H 21.2563 -1.70574 -3.70632 0
M  V30 219 H 19.9313 -2.71515 -3.15043 0
M  V30 220 H 18.5083 -0.941795 -3.60811 0
M  V30 221 N 20.6934 1.19889 -1.02296 0
M  V30 222 C 21.9184 1.9393 -0.735237 0
M  V30 223 C 22.3434 1.74639 0.698782 0
M  V30 224 O 21.7014 1.04481 1.48167 0
M  V30 225 C 21.7494 3.43916 -1.08417 0
M  V30 226 O 20.8534 4.11917 -0.199446 0
M  V30 227 H 20.1944 0.605645 -0.272196 0
M  V30 228 H 22.7244 1.52137 -1.36804 0
M  V30 229 H 22.7344 3.9456 -1.03856 0
M  V30 230 H 21.4094 3.5728 -2.12894 0
M  V30 231 H 19.9864 3.71666 -0.303136 0
M  V30 232 N 22.1715 0.800033 1.35784 0
M  V30 233 C 23.3995 0.389606 2.03199 0
M  V30 234 C 23.8145 -0.997375 1.60306 0
M  V30 235 O 23.1715 -1.64154 0.797481 0
M  V30 236 C 23.2225 0.455855 3.58614 0
M  V30 237 O 22.9435 1.78815 3.99946 0
M  V30 238 C 24.4445 0.0374032 4.43284 0
M  V30 239 H 21.6645 0.159132 0.651857 0
M  V30 240 H 24.2085 1.08183 1.73541 0
M  V30 241 H 22.3635 -0.188057 3.86943 0
M  V30 242 H 22.7775 1.74636 4.94573 0
M  V30 243 H 24.2515 0.134882 5.51835 0
M  V30 244 H 24.7285 -1.01651 4.27275 0
M  V30 245 H 25.3345 0.654215 4.20238 0
M  V30 246 N 23.6496 -1.47581 0.552962 0
M  V30 247 C 24.6126 -2.28439 -0.186605 0
M  V30 248 C 25.6126 -1.36706 -0.84665 0
M  V30 249 O 26.8026 -1.59378 -0.703164 0
M  V30 250 C 23.9346 -3.16264 -1.2724 0
M  V30 251 H 25.1276 -2.95294 0.523609 0
M  V30 252 H 22.6806 -1.532 0.309745 0
M  V30 253 H 23.4156 -2.54091 -2.01514 0
M  V30 254 H 23.2006 -3.83769 -0.803968 0
M  V30 255 H 24.6906 -3.77198 -1.79196 0
M  V30 256 N 25.1277 -0.289203 -1.54924 0
M  V30 257 C 26.0577 0.58549 -2.2604 0
M  V30 258 C 27.0387 1.14753 -1.25562 0
M  V30 259 O 28.2237 1.17906 -1.54311 0
M  V30 260 C 25.3537 1.76305 -2.99222 0
M  V30 261 C 24.3077 1.33191 -4.06748 0
M  V30 262 C 23.6337 2.5937 -4.6758 0
M  V30 263 C 24.9337 0.471775 -5.20165 0
M  V30 264 H 26.6277 -0.00763532 -2.99399 0
M  V30 265 H 24.1737 -0.00511229 -1.43999 0
M  V30 266 H 26.1267 2.38097 -3.47689 0
M  V30 267 H 24.8507 2.38223 -2.23422 0
M  V30 268 H 23.5097 0.737121 -3.59113 0
M  V30 269 H 23.1577 3.19576 -3.88433 0
M  V30 270 H 22.8577 2.31228 -5.40192 0
M  V30 271 H 24.3817 3.21985 -5.18804 0
M  V30 272 H 25.7957 0.995056 -5.64599 0
M  V30 273 H 24.1927 0.284639 -5.99425 0
M  V30 274 H 25.2627 -0.506041 -4.82252 0
M  V30 275 N 26.6058 1.57591 -0.0167156 0
M  V30 276 C 27.5688 2.08393 0.954204 0
M  V30 277 C 28.5688 0.996531 1.26198 0
M  V30 278 O 29.7588 1.25858 1.20438 0
M  V30 279 C 26.8908 2.5394 2.27436 0
M  V30 280 H 28.0838 2.95455 0.514451 0
M  V30 281 H 25.6368 1.54582 0.231089 0
M  V30 282 H 26.3718 1.70171 2.76066 0
M  V30 283 H 26.1568 3.33371 2.06412 0
M  V30 284 H 27.6468 2.93512 2.97053 0
M  V30 285 N 28.0839 -0.256276 1.55502 0
M  V30 286 C 29.3319 -0.983672 1.76545 0
M  V30 287 C 29.6529 -1.86206 0.578982 0
M  V30 288 O 28.9229 -1.91656 -0.405577 0
M  V30 289 H 27.5029 -0.366191 0.651086 0
M  V30 290 H 30.1649 -0.276479 1.92929 0
M  V30 291 H 29.2609 -1.61087 2.67315 0
M  V30 292 N 29.562 -1.4872 -0.521534 0
M  V30 293 C 30.787 -1.61101 -1.30618 0
M  V30 294 C 31.212 -0.274611 -1.86085 0
M  V30 295 O 30.57 0.754937 -1.64834 0
M  V30 296 C 30.618 -2.66709 -2.4269 0
M  V30 297 O 29.722 -2.24456 -3.45967 0
M  V30 298 H 29.063 -0.539921 -0.386499 0
M  V30 299 H 31.593 -1.94767 -0.626645 0
M  V30 300 H 31.603 -2.88245 -2.88754 0
M  V30 301 H 30.278 -3.63727 -2.01682 0
M  V30 302 H 28.855 -2.13168 -3.05964 0
M  V30 303 N 31.0401 0.771051 -1.3745 0
M  V30 304 C 32.2891 1.52491 -1.3202 0
M  V30 305 C 32.6021 1.9538 0.0927347 0
M  V30 306 O 33.8081 2.70159 0.269503 0
M  V30 307 C 32.2641 2.75366 -2.31736 0
M  V30 308 C 31.8721 2.39573 -3.78562 0
M  V30 309 C 33.6161 3.53307 -2.35318 0
M  V30 310 C 31.5231 3.58954 -4.70007 0
M  V30 311 H 30.4531 0.572506 -0.490666 0
M  V30 312 H 33.1041 0.844474 -1.62914 0
M  V30 313 H 31.4861 3.45303 -1.93861 0
M  V30 314 H 32.6601 1.77415 -4.25277 0
M  V30 315 H 30.9751 1.74805 -3.77932 0
M  V30 316 H 33.5721 4.42039 -3.00842 0
M  V30 317 H 33.9151 3.93217 -1.36698 0
M  V30 318 H 34.4481 2.90367 -2.71904 0
M  V30 319 H 31.1871 3.24125 -5.69757 0
M  V30 320 H 30.7071 4.20214 -4.27996 0
M  V30 321 H 32.3861 4.25758 -4.87175 0
M  V30 322 N 32.5182 1.22032 0.997298 0
M  V30 323 C 33.7462 1.06841 1.7718 0
M  V30 324 C 34.1612 -0.381325 1.84909 0
M  V30 325 O 33.5182 -1.26437 1.31605 0
M  V30 326 C 33.5692 1.66814 3.20711 0
M  V30 327 O 33.2902 3.06116 3.13408 0
M  V30 328 C 34.7912 1.56838 4.14628 0
M  V30 329 H 32.0112 0.374782 0.556578 0
M  V30 330 H 34.5552 1.61532 1.2541 0
M  V30 331 H 32.7102 1.16196 3.69564 0
M  V30 332 H 33.1242 3.34926 4.0364 0
M  V30 333 H 34.5982 2.03532 5.13107 0
M  V30 334 H 35.0752 0.524155 4.36061 0
M  V30 335 H 35.6812 2.06741 3.7167 0
M  V30 336 N 33.9963 -1.19345 1.0293 0
M  V30 337 C 34.9063 -2.26245 0.620515 0
M  V30 338 C 35.9223 -1.70486 -0.347928 0
M  V30 339 O 37.0983 -2.00347 -0.205704 0
M  V30 340 C 34.1633 -3.46693 -0.0218957 0
M  V30 341 C 33.2243 -4.17632 0.994102 0
M  V30 342 C 32.4573 -5.32329 0.382253 0
M  V30 343 O 32.6803 -5.64552 -0.814676 0
M  V30 344 O 31.6143 -5.91664 1.10531 0
M  V30 345 H 35.4403 -2.63453 1.51083 0
M  V30 346 H 33.0253 -1.26207 0.799513 0
M  V30 347 H 34.9073 -4.19683 -0.380072 0
M  V30 348 H 33.5823 -3.11333 -0.886209 0
M  V30 349 H 32.4893 -3.4676 1.40387 0
M  V30 350 H 33.8223 -4.56964 1.8288 0
M  V30 351 N 35.4744 -0.807222 -1.35358 0
M  V30 352 C 36.4224 -0.20614 -2.31685 0
M  V30 353 C 37.4164 0.644445 -1.56663 0
M  V30 354 O 38.6224 0.537538 -1.71786 0
M  V30 355 H 34.9974 -0.0479006 -0.750473 0
M  V30 356 H 36.9684 -1.03369 -2.79924 0
M  V30 357 C 35.7174 0.630212 -3.41941 0
M  V30 358 H 35.0404 -0.0149558 -3.99797 0
M  V30 359 H 36.4804 1.01716 -4.11619 0
M  V30 360 C 34.9394 1.79601 -2.85035 0
M  V30 361 O 35.4694 2.89351 -2.78637 0
M  V30 362 N 33.6754 1.60774 -2.42074 0
M  V30 363 H 33.2224 0.715009 -2.47478 0
M  V30 364 H 33.1804 2.38933 -2.04349 0
M  V30 365 N 36.9525 1.47285 -0.560781 0
M  V30 366 C 38.1805 2.06855 -0.0430262 0
M  V30 367 C 38.5955 1.41291 1.25229 0
M  V30 368 O 37.9525 0.510648 1.7521 0
M  V30 369 C 38.0035 3.61178 0.152518 0
M  V30 370 O 37.7245 4.24285 -1.0915 0
M  V30 371 C 39.2255 4.37624 0.707145 0
M  V30 372 H 36.4455 0.669319 -0.0474652 0
M  V30 373 H 38.9895 1.89237 -0.77521 0
M  V30 374 H 37.1445 3.78298 0.834843 0
M  V30 375 H 37.5585 5.16868 -0.891482 0
M  V30 376 H 39.0325 5.46271 0.793244 0
M  V30 377 H 39.5095 4.04152 1.71923 0
M  V30 378 H 40.1155 4.25257 0.0604027 0
M  V30 379 N 38.4306 0.297415 1.54768 0
M  V30 380 C 39.6556 -0.318435 2.04941 0
M  V30 381 C 40.0806 -1.4701 1.17345 0
M  V30 382 O 39.4386 -1.80436 0.176758 0
M  V30 383 C 39.4866 -0.755749 3.52592 0
M  V30 384 O 38.5906 -1.86088 3.68028 0
M  V30 385 H 37.9316 -0.062421 0.661059 0
M  V30 386 H 40.4616 0.438215 1.99852 0
M  V30 387 H 40.4716 -1.04552 3.94376 0
M  V30 388 H 39.1466 0.0867233 4.1581 0
M  V30 389 H 37.7236 -1.57193 3.38149 0
M  V30 390 N 39.9087 -1.5758 0.0250728 0
M  V30 391 C 41.1547 -1.92746 -0.649648 0
M  V30 392 C 41.5097 -0.901588 -1.69968 0
M  V30 393 O 40.8027 0.0829251 -1.9142 0
M  V30 394 C 40.9967 -3.32421 -1.31268 0
M  V30 395 C 40.8257 -4.48499 -0.328394 0
M  V30 396 C 39.5957 -5.05251 0.070284 0
M  V30 397 C 41.7937 -5.12618 0.415665 0
M  V30 398 N 39.7757 -6.04851 1.05016 0
M  V30 399 C 41.1467 -6.0728 1.24943 0
M  V30 400 C 43.2017 -4.95612 0.476803 0
M  V30 401 C 41.9047 -6.86766 2.1388 0
M  V30 402 C 43.9307 -5.75703 1.3535 0
M  V30 403 C 43.2927 -6.69978 2.17504 0
M  V30 404 H 39.3917 -0.753231 -0.210159 0
M  V30 405 H 41.9757 -1.94486 0.0912999 0
M  V30 406 H 40.1467 -3.31508 -2.02379 0
M  V30 407 H 41.8787 -3.54946 -1.94411 0
M  V30 408 H 38.6337 -4.72628 -0.303323 0
M  V30 409 H 39.0577 -6.5934 1.53622 0
M  V30 410 H 43.6997 -4.22554 -0.144105 0
M  V30 411 H 41.4177 -7.59132 2.77027 0
M  V30 412 H 45.0037 -5.64579 1.40504 0
M  V30 413 H 43.8837 -7.30873 2.84244 0
M  V30 414 N 41.3868 0.248026 -1.55636 0
M  V30 415 C 42.3348 1.32683 -1.91045 0
M  V30 416 C 43.3288 1.49883 -0.789401 0
M  V30 417 O 44.5348 1.51371 -0.974007 0
M  V30 418 H 40.9098 0.444272 -0.606734 0
M  V30 419 H 42.8808 1.00085 -2.81115 0
M  V30 420 C 41.6298 2.6755 -2.22064 0
M  V30 421 H 40.9528 2.55114 -3.07826 0
M  V30 422 H 42.3928 3.41912 -2.50743 0
M  V30 423 C 40.8518 3.20556 -1.0366 0
M  V30 424 O 41.3818 4.00695 -0.284016 0
M  V30 425 N 39.5878 2.78568 -0.82753 0
M  V30 426 H 39.1348 2.1351 -1.44123 0
M  V30 427 H 39.0928 3.14378 -0.0369803 0
M  V30 428 N 42.8649 1.48995 0.513639 0
M  V30 429 C 43.8119 1.6473 1.61656 0
M  V30 430 C 44.7819 0.488984 1.58739 0
M  V30 431 O 45.9669 0.714478 1.76918 0
M  V30 432 C 43.1069 1.7082 2.99858 0
M  V30 433 C 42.2199 2.9787 3.12885 0
M  V30 434 C 41.3549 2.95017 4.41744 0
M  V30 435 C 40.3939 4.16702 4.48359 0
M  V30 436 N 39.5309 4.11832 5.68629 0
M  V30 437 H 44.3709 2.58909 1.47547 0
M  V30 438 H 41.9079 1.28382 0.71808 0
M  V30 439 H 43.8659 1.72331 3.79944 0
M  V30 440 H 42.4959 0.801181 3.12699 0
M  V30 441 H 41.5479 3.06029 2.25944 0
M  V30 442 H 42.8599 3.8786 3.13633 0
M  V30 443 H 42.0139 2.95021 5.30139 0
M  V30 444 H 40.7529 2.02784 4.43542 0
M  V30 445 H 39.7579 4.16955 3.58369 0
M  V30 446 H 40.9829 5.10113 4.48287 0
M  V30 447 H 38.9289 3.22428 5.71293 0
M  V30 448 H 38.8459 4.95543 5.7094 0
M  V30 449 H 40.1139 4.1592 6.59266 0
M  V30 450 N 44.343 -0.763751 1.37857 0
M  V30 451 C 45.253 -1.90817 1.36478 0
M  V30 452 C 46.269 -1.71997 0.263248 0
M  V30 453 O 47.445 -1.95095 0.499979 0
M  V30 454 C 44.51 -3.2605 1.17864 0
M  V30 455 C 43.571 -3.57467 2.3773 0
M  V30 456 C 42.804 -4.86249 2.19995 0
M  V30 457 O 43.027 -5.57884 1.18836 0
M  V30 458 O 41.961 -5.16911 3.08361 0
M  V30 459 H 45.787 -1.94933 2.32884 0
M  V30 460 H 43.372 -0.907619 1.1867 0
M  V30 461 H 45.254 -4.06924 1.09504 0
M  V30 462 H 43.929 -3.22769 0.245372 0
M  V30 463 H 42.836 -2.76796 2.51664 0
M  V30 464 H 44.169 -3.655 3.29652 0
M  V30 465 N 45.8211 -1.22559 -0.990812 0
M  V30 466 C 47.0681 -1.05141 -1.73065 0
M  V30 467 C 47.3961 0.413191 -1.9006 0
M  V30 468 O 46.6511 1.32257 -1.44245 0
M  V30 469 C 46.9501 -1.71011 -3.13831 0
M  V30 470 C 46.6161 -3.20911 -3.16745 0
M  V30 471 C 45.2781 -3.61812 -3.17247 0
M  V30 472 C 47.6301 -4.16846 -3.12872 0
M  V30 473 C 44.9581 -4.97127 -3.1158 0
M  V30 474 C 47.3101 -5.5214 -3.08746 0
M  V30 475 C 45.9741 -5.92419 -3.07565 0
M  V30 476 H 45.2441 -0.384738 -0.633291 0
M  V30 477 H 47.8911 -1.5235 -1.16025 0
M  V30 478 H 46.1961 -1.16133 -3.74193 0
M  V30 479 H 47.8931 -1.55023 -3.69823 0
M  V30 480 H 44.4831 -2.88344 -3.17105 0
M  V30 481 H 48.6671 -3.86263 -3.11632 0
M  V30 482 H 43.9231 -5.27562 -3.09012 0
M  V30 483 H 48.0971 -6.26201 -3.04705 0
M  V30 484 H 45.7241 -6.97236 -3.02929 0
M  V30 485 N 47.2992 1.18797 -1.03562 0
M  V30 486 C 48.5242 1.9314 -0.755764 0
M  V30 487 C 48.9492 1.7537 0.68022 0
M  V30 488 O 48.3072 1.06046 1.47051 0
M  V30 489 C 48.3552 3.42747 -1.12058 0
M  V30 490 O 47.4592 4.11683 -0.243124 0
M  V30 491 H 46.8002 0.602724 -0.278604 0
M  V30 492 H 49.3302 1.50678 -1.3841 0
M  V30 493 H 49.3402 3.93437 -1.08035 0
M  V30 494 H 48.0152 3.55002 -2.16672 0
M  V30 495 H 46.5922 3.71323 -0.342539 0
M  V30 496 N 48.7773 0.814389 1.34928 0
M  V30 497 C 49.7403 0.235759 2.27984 0
M  V30 498 C 50.7403 -0.581412 1.49921 0
M  V30 499 O 51.9303 -0.398758 1.69575 0
M  V30 500 C 49.0623 -0.670433 3.34242 0
M  V30 501 H 50.2553 1.05659 2.80671 0
M  V30 502 H 47.8083 0.585614 1.44915 0
M  V30 503 H 48.5433 -1.51466 2.86755 0
M  V30 504 H 48.3283 -0.0860822 3.92005 0
M  V30 505 H 49.8183 -1.06935 4.03676 0
M  V30 506 N 50.2554 -1.46986 0.568584 0
M  V30 507 C 51.1654 -2.33942 -0.17555 0
M  V30 508 C 52.1814 -1.48891 -0.90041 0
M  V30 509 O 53.3574 -1.81794 -0.86676 0
M  V30 510 C 50.4224 -3.25811 -1.18524 0
M  V30 511 C 49.4834 -4.26757 -0.466582 0
M  V30 512 C 48.7164 -5.14236 -1.42817 0
M  V30 513 O 48.9394 -5.04379 -2.66379 0
M  V30 514 O 47.8734 -5.94412 -0.946453 0
M  V30 515 H 51.6994 -2.98896 0.538036 0
M  V30 516 H 49.2844 -1.4573 0.329097 0
M  V30 517 H 51.1664 -3.82527 -1.76779 0
M  V30 518 H 49.8414 -2.63471 -1.88055 0
M  V30 519 H 48.7484 -3.73769 0.157451 0
M  V30 520 H 50.0814 -4.91843 0.187485 0
M  V30 521 N 51.7335 -0.305618 -1.54608 0
M  V30 522 C 52.6965 0.555591 -2.22364 0
M  V30 523 C 53.6965 1.05768 -1.21119 0
M  V30 524 O 54.8865 0.952972 -1.45822 0
M  V30 525 C 52.0185 1.76974 -2.91364 0
M  V30 526 H 53.2115 -0.0364572 -2.99878 0
M  V30 527 H 50.7645 -0.0565007 -1.56198 0
M  V30 528 H 51.4995 2.40151 -2.17941 0
M  V30 529 H 51.2845 1.41732 -3.65588 0
M  V30 530 H 52.7745 2.38148 -3.43038 0
M  V30 531 N 53.2116 1.57565 -0.0334293 0
M  V30 532 C 54.4576 1.92262 0.645226 0
M  V30 533 C 54.7906 0.910543 1.71531 0
M  V30 534 O 54.0656 -0.066099 1.94388 0
M  V30 535 C 54.3486 3.37422 1.2577 0
M  V30 536 C 54.2016 4.49369 0.196891 0
M  V30 537 C 55.5206 3.82628 2.17449 0
M  V30 538 H 52.6396 0.699171 0.233085 0
M  V30 539 H 55.2816 1.89779 -0.0915694 0
M  V30 540 H 53.4316 3.39669 1.88566 0
M  V30 541 H 55.1036 4.59254 -0.433962 0
M  V30 542 H 53.3466 4.31168 -0.477137 0
M  V30 543 H 54.0176 5.47978 0.665124 0
M  V30 544 H 56.4936 3.82145 1.64634 0
M  V30 545 H 55.3696 4.84883 2.57254 0
M  V30 546 H 55.6306 3.18376 3.0674 0
M  V30 547 N 54.6897 -0.239769 1.55765 0
M  V30 548 C 55.6377 -1.31668 1.91745 0
M  V30 549 C 56.6317 -1.49462 0.797338 0
M  V30 550 O 57.8377 -1.50852 0.982021 0
M  V30 551 H 54.2127 -0.441048 0.609082 0
M  V30 552 H 56.1837 -0.985923 2.81642 0
M  V30 553 C 54.9327 -2.66368 2.2348 0
M  V30 554 H 54.2557 -2.53478 3.09175 0
M  V30 555 H 55.6957 -3.40578 2.52553 0
M  V30 556 C 54.1547 -3.20002 1.05359 0
M  V30 557 O 54.6847 -4.00538 0.305261 0
M  V30 558 N 52.8907 -2.78126 0.842292 0
M  V30 559 H 52.4377 -2.12742 1.45253 0
M  V30 560 H 52.3957 -3.14354 0.053652 0
M  V30 561 N 56.1678 -1.49265 -0.50573 0
M  V30 562 C 57.4158 -1.582 -1.25766 0
M  V30 563 C 57.7368 -0.268482 -1.93143 0
M  V30 564 O 57.0068 0.711833 -1.8251 0
M  V30 565 H 55.5868 -0.582873 -0.467191 0
M  V30 566 H 58.2488 -1.85865 -0.586525 0
M  V30 567 H 57.3448 -2.37563 -2.02412 0
M  V30 568 N 57.6459 0.756429 -1.3826 0
M  V30 569 C 58.8919 1.51772 -1.34511 0
M  V30 570 C 59.2249 1.94089 0.0656691 0
M  V30 571 O 58.4999 1.65221 1.02626 0
M  V30 572 C 58.7829 2.77226 -2.29821 0
M  V30 573 C 58.6359 2.41065 -3.79747 0
M  V30 574 C 59.9549 3.79236 -2.23312 0
M  V30 575 H 57.0739 0.550578 -0.489931 0
M  V30 576 H 59.7159 0.866607 -1.69086 0
M  V30 577 H 57.8659 3.32784 -2.00467 0
M  V30 578 H 59.5379 1.91303 -4.19763 0
M  V30 579 H 57.7809 1.7356 -3.97567 0
M  V30 580 H 58.4519 3.3081 -4.41892 0
M  V30 581 H 60.9279 3.3321 -2.49219 0
M  V30 582 H 59.8039 4.64714 -2.92116 0
M  V30 583 H 60.0649 4.24615 -1.23102 0
M  V30 584 N 59.124 1.23083 0.984299 0
M  V30 585 C 60.371 1.06057 1.72505 0
M  V30 586 C 60.699 -0.403105 1.90277 0
M  V30 587 O 59.954 -1.3149 1.44944 0
M  V30 588 C 60.253 1.72673 3.1292 0
M  V30 589 C 59.919 3.22586 3.15038 0
M  V30 590 C 58.581 3.63489 3.15324 0
M  V30 591 C 60.933 4.185 3.10657 0
M  V30 592 C 58.261 4.98772 3.08939 0
M  V30 593 C 60.613 5.53769 3.05814 0
M  V30 594 C 59.277 5.94041 3.04419 0
M  V30 595 H 58.547 0.388091 0.631242 0
M  V30 596 H 61.194 1.52963 1.15215 0
M  V30 597 H 59.499 1.18116 3.73572 0
M  V30 598 H 61.196 1.56982 3.68996 0
M  V30 599 H 57.786 2.90022 3.15571 0
M  V30 600 H 61.97 3.87911 3.09579 0
M  V30 601 H 57.226 5.29193 3.0621 0
M  V30 602 H 61.4 6.27808 3.0138 0
M  V30 603 H 59.027 6.98833 2.99227 0
M  V30 604 N 60.6021 -1.18246 1.0419 0
M  V30 605 C 61.8481 -1.88536 0.747122 0
M  V30 606 C 62.1811 -1.80223 -0.723409 0
M  V30 607 O 61.4561 -1.20337 -1.52804 0
M  V30 608 C 61.7391 -3.38968 1.21544 0
M  V30 609 C 61.5921 -3.56084 2.74816 0
M  V30 610 C 62.9111 -4.32648 0.806482 0
M  V30 611 H 60.0301 -0.684619 0.272883 0
M  V30 612 H 62.6721 -1.39113 1.29413 0
M  V30 613 H 60.8221 -3.8119 0.750081 0
M  V30 614 H 62.4941 -3.22946 3.29399 0
M  V30 615 H 60.7371 -2.98699 3.14582 0
M  V30 616 H 61.4081 -4.61639 3.02644 0
M  V30 617 H 63.8841 -3.98211 1.20695 0
M  V30 618 H 62.7601 -5.36462 1.1619 0
M  V30 619 H 63.0211 -4.41146 -0.29029 0
M  V30 620 N 62.0802 -0.821533 -1.34494 0
M  V30 621 C 63.0102 -0.257138 -2.3208 0
M  V30 622 C 63.9912 0.625645 -1.58176 0
M  V30 623 O 65.1762 0.552811 -1.86166 0
M  V30 624 C 62.3062 0.582958 -3.42372 0
M  V30 625 C 61.2602 -0.202571 -4.2752 0
M  V30 626 C 60.5862 0.760179 -5.29269 0
M  V30 627 C 61.8862 -1.40998 -5.02908 0
M  V30 628 H 63.5802 -1.07247 -2.79532 0
M  V30 629 H 61.1262 -0.517163 -1.34393 0
M  V30 630 H 63.0792 0.987972 -4.09655 0
M  V30 631 H 61.8032 1.43133 -2.93565 0
M  V30 632 H 60.4622 -0.588936 -3.61838 0
M  V30 633 H 60.1102 1.60447 -4.76724 0
M  V30 634 H 59.8102 0.238809 -5.87115 0
M  V30 635 H 61.3342 1.16308 -5.9942 0
M  V30 636 H 62.7482 -1.07905 -5.63054 0
M  V30 637 H 61.1452 -1.86689 -5.70322 0
M  V30 638 H 62.2152 -2.1889 -4.32684 0
M  V30 639 N 63.5583 1.46682 -0.576371 0
M  V30 640 C 64.7983 2.04306 -0.0621356 0
M  V30 641 C 65.1623 1.4389 1.2712 0
M  V30 642 O 66.3633 1.92675 1.87429 0
M  V30 643 C 64.6343 3.57399 0.00927922 0
M  V30 644 S 66.1933 4.36309 0.466859 0
M  V30 645 H 63.0113 0.710167 -0.0344016 0
M  V30 646 H 65.6133 1.79807 -0.767437 0
M  V30 647 H 64.3173 3.98889 -0.965178 0
M  V30 648 H 63.8483 3.86424 0.737547 0
M  V30 649 H 65.8633 4.6533 1.72287 0
M  V30 650 N 65.0364 0.313813 1.54444 0
M  V30 651 C 65.9834 -0.55655 2.23989 0
M  V30 652 C 66.9534 -1.11943 1.22711 0
M  V30 653 O 68.1384 -1.16158 1.51367 0
M  V30 654 C 65.2784 -1.71635 2.99392 0
M  V30 655 C 64.3914 -1.18364 4.15468 0
M  V30 656 C 63.5264 -2.30834 4.78424 0
M  V30 657 C 62.5654 -1.74762 5.86622 0
M  V30 658 N 61.7024 -2.80855 6.43479 0
M  V30 659 H 66.5424 0.0430893 2.97969 0
M  V30 660 H 64.0794 0.0330359 1.47063 0
M  V30 661 H 66.0374 -2.39868 3.41349 0
M  V30 662 H 64.6674 -2.28742 2.27765 0
M  V30 663 H 63.7194 -0.393163 3.78363 0
M  V30 664 H 65.0314 -0.733262 4.93381 0
M  V30 665 H 64.1854 -3.0699 5.23299 0
M  V30 666 H 62.9244 -2.79204 3.99871 0
M  V30 667 H 61.9294 -0.970995 5.41158 0
M  V30 668 H 63.1544 -1.2728 6.67066 0
M  V30 669 H 61.1004 -3.28535 5.67804 0
M  V30 670 H 61.0174 -2.40351 7.16776 0
M  V30 671 H 62.2854 -3.5687 6.93011 0
M  V30 672 N 66.5145 -1.57545 0.0417849 0
M  V30 673 C 67.7395 -1.97035 -0.647455 0
M  V30 674 C 68.1645 -0.918775 -1.64135 0
M  V30 675 O 67.5225 0.119006 -1.80909 0
M  V30 676 C 67.5705 -3.35609 -1.31905 0
M  V30 677 O 66.6745 -3.3287 -2.43457 0
M  V30 678 H 66.0155 -0.64211 -0.169086 0
M  V30 679 H 68.5455 -2.04318 0.107399 0
M  V30 680 H 68.5555 -3.72126 -1.67291 0
M  V30 681 H 67.2305 -4.11685 -0.590586 0
M  V30 682 H 65.8075 -3.08087 -2.10088 0
M  V30 683 N 67.9926 0.231505 -1.5589 0
M  V30 684 C 69.2176 0.978689 -1.82856 0
M  V30 685 C 69.6426 1.77559 -0.620846 0
M  V30 686 O 69.0006 1.76119 0.430305 0
M  V30 687 C 69.0486 1.87997 -3.07716 0
M  V30 688 O 68.1526 2.97393 -2.85712 0
M  V30 689 H 67.4936 0.277663 -0.603158 0
M  V30 690 H 70.0236 0.24783 -2.03093 0
M  V30 691 H 70.0336 2.2917 -3.37558 0
M  V30 692 H 68.7086 1.29417 -3.95252 0
M  V30 693 H 67.2856 2.60238 -2.67078 0
M  V30 694 N 69.4707 1.49531 0.497807 0
M  V30 695 C 70.6957 1.63159 1.28039 0
M  V30 696 C 71.1207 0.30418 1.85624 0
M  V30 697 O 70.4787 -0.728618 1.66015 0
M  V30 698 C 70.5267 2.70537 2.38416 0
M  V30 699 O 69.6307 2.29931 3.42353 0
M  V30 700 H 68.9717 0.546001 0.377861 0
M  V30 701 H 71.5017 1.9574 0.59558 0
M  V30 702 H 71.5117 2.92802 2.84132 0
M  V30 703 H 70.1867 3.6689 1.95869 0
M  V30 704 H 68.7637 2.18009 3.02533 0
M  V30 705 N 70.9488 -0.749086 1.3866 0
M  V30 706 C 71.8958 -1.86291 1.36251 0
M  V30 707 C 72.8658 -1.64578 0.224347 0
M  V30 708 O 74.0508 -1.86181 0.417279 0
M  V30 709 C 71.1908 -3.23644 1.19786 0
M  V30 710 C 70.3038 -3.57158 2.43027 0
M  V30 711 C 69.4388 -4.83838 2.19258 0
M  V30 712 C 68.4778 -5.10152 3.38247 0
M  V30 713 N 67.6148 -6.28029 3.13884 0
M  V30 714 H 72.4548 -1.87685 2.3147 0
M  V30 715 H 69.9918 -0.917287 1.14997 0
M  V30 716 H 71.9498 -4.0291 1.08254 0
M  V30 717 H 70.5798 -3.21566 0.282031 0
M  V30 718 H 69.6318 -2.72701 2.65214 0
M  V30 719 H 70.9438 -3.7253 3.31697 0
M  V30 720 H 70.0978 -5.71057 2.04888 0
M  V30 721 H 68.8368 -4.70614 1.2796 0
M  V30 722 H 67.8418 -4.21401 3.53131 0
M  V30 723 H 69.0668 -5.25271 4.30427 0
M  V30 724 H 67.0128 -6.1612 2.25238 0
M  V30 725 H 66.9298 -6.43922 3.96106 0
M  V30 726 H 68.1978 -7.18124 3.03179 0
M  V30 727 N 72.4269 -1.23603 -0.977757 0
M  V30 728 C 73.6519 -1.09735 -1.75991 0
M  V30 729 C 74.0769 0.346858 -1.84874 0
M  V30 730 O 73.4349 1.25093 -1.3123 0
M  V30 731 C 73.4829 -1.73051 -3.16363 0
M  V30 732 O 72.5869 -0.994452 -4.0023 0
M  V30 733 H 71.9279 -0.384476 -0.541364 0
M  V30 734 H 74.4579 -1.6371 -1.2272 0
M  V30 735 H 74.4679 -1.78398 -3.66931 0
M  V30 736 H 73.1429 -2.78137 -3.09213 0
M  V30 737 H 71.7199 -1.01812 -3.58732 0
M  V30 738 N 73.905 1.17692 -1.04816 0
M  V30 739 C 75.145 1.89545 -0.764979 0
M  V30 740 C 75.509 1.78979 0.695028 0
M  V30 741 O 76.71 2.45613 1.09215 0
M  V30 742 C 74.981 3.35659 -1.22751 0
M  V30 743 S 76.54 4.25526 -1.07112 0
M  V30 744 H 73.358 0.654432 -0.27792 0
M  V30 745 H 75.96 1.42163 -1.34201 0
M  V30 746 H 74.664 3.40882 -2.28533 0
M  V30 747 H 74.195 3.88083 -0.644594 0
M  V30 748 H 76.21 4.962 0.00697508 0
M  V30 749 N 75.3831 0.828654 1.34056 0
M  V30 750 C 76.3461 0.259927 2.27721 0
M  V30 751 C 77.3461 -0.565478 1.50529 0
M  V30 752 O 78.5361 -0.38075 1.69988 0
M  V30 753 C 75.6681 -0.634944 3.34935 0
M  V30 754 H 76.8611 1.0863 2.79534 0
M  V30 755 H 74.4141 0.600951 1.44285 0
M  V30 756 H 75.1491 -1.48416 2.88346 0
M  V30 757 H 74.9341 -0.0444999 3.92075 0
M  V30 758 H 76.4241 -1.02648 4.04788 0
M  V30 759 N 76.8612 -1.46375 0.584142 0
M  V30 760 C 78.0892 -2.06761 0.0759296 0
M  V30 761 C 78.5042 -1.43266 -1.22965 0
M  V30 762 O 77.8612 -0.538458 -1.74376 0
M  V30 763 C 77.9122 -3.61375 -0.0950384 0
M  V30 764 O 77.6332 -4.22495 1.15887 0
M  V30 765 C 79.1342 -4.38693 -0.637434 0
M  V30 766 H 76.3542 -0.668479 0.0581075 0
M  V30 767 H 78.8982 -1.8798 0.805218 0
M  V30 768 H 77.0532 -3.79578 -0.774554 0
M  V30 769 H 77.4672 -5.15385 0.973598 0
M  V30 770 H 78.9412 -5.47464 -0.706237 0
M  V30 771 H 79.4182 -4.06836 -1.65472 0
M  V30 772 H 80.0242 -4.25299 0.00725967 0
M  V30 773 N 78.3393 -0.321999 -1.54275 0
M  V30 774 C 79.2873 0.560206 -2.25753 0
M  V30 775 C 80.2813 1.11984 -1.27106 0
M  V30 776 O 81.4873 1.06806 -1.44888 0
M  V30 777 H 77.8623 0.199304 -0.725108 0
M  V30 778 H 79.8333 -0.0649365 -2.98329 0
M  V30 779 C 78.5823 1.71023 -3.02731 0
M  V30 780 H 77.9053 1.28885 -3.78456 0
M  V30 781 H 79.3453 2.30314 -3.55993 0
M  V30 782 C 77.8043 2.62692 -2.10938 0
M  V30 783 O 78.3343 3.64364 -1.6912 0
M  V30 784 N 76.5403 2.30891 -1.76459 0
M  V30 785 H 76.0873 1.48253 -2.10663 0
M  V30 786 H 76.0453 2.92487 -1.1532 0
M  V30 787 N 79.8174 1.5752 -0.0501392 0
M  V30 788 C 81.0944 1.83996 0.663685 0
M  V30 789 C 81.4744 0.938339 1.89099 0
M  V30 790 O 80.8224 -0.00087759 2.285 0
M  V30 791 C 81.0324 3.33702 1.02196 0
M  V30 792 C 82.3804 4.00691 1.40469 0
M  V30 793 O 83.4044 3.38321 1.11433 0
M  V30 794 O 82.2634 5.10658 1.94654 0
M  V30 795 H 79.3574 0.759385 0.32751 0
M  V30 796 H 81.9034 1.69514 -0.0794238 0
M  V30 797 H 80.6754 3.91015 0.149364 0
M  V30 798 H 80.2984 3.53368 1.82255 0
M  V30 799 N 81.2955 -0.223234 1.56011 0
M  V30 800 C 82.2255 -1.27988 1.95298 0
M  V30 801 C 83.2065 -1.48976 0.820979 0
M  V30 802 O 84.3915 -1.61188 1.08315 0
M  V30 803 C 81.5215 -2.63 2.26822 0
M  V30 804 C 80.4755 -2.56671 3.42497 0
M  V30 805 C 79.8015 -3.95697 3.59622 0
M  V30 806 C 81.1015 -2.11601 4.77517 0
M  V30 807 H 82.7955 -0.953525 2.8381 0
M  V30 808 H 80.3415 -0.457244 1.36548 0
M  V30 809 H 82.2945 -3.37077 2.52898 0
M  V30 810 H 81.0185 -2.9732 1.35161 0
M  V30 811 H 79.6775 -1.85051 3.16467 0
M  V30 812 H 79.3255 -4.27322 2.6534 0
M  V30 813 H 79.0255 -3.92345 4.37424 0
M  V30 814 H 80.5495 -4.71438 3.88044 0
M  V30 815 H 81.9635 -2.7542 5.02809 0
M  V30 816 H 80.3605 -2.19311 5.5859 0
M  V30 817 H 81.4305 -1.06824 4.72987 0
M  V30 818 N 82.7736 -1.49793 -0.48987 0
M  V30 819 C 83.7366 -1.66752 -1.57246 0
M  V30 820 C 84.7366 -0.538867 -1.51502 0
M  V30 821 O 85.9266 -0.805545 -1.54456 0
M  V30 822 C 83.0586 -1.67528 -2.96896 0
M  V30 823 H 84.2516 -2.63321 -1.43534 0
M  V30 824 H 81.8046 -1.38992 -0.714914 0
M  V30 825 H 82.5396 -0.725837 -3.16073 0
M  V30 826 H 82.3246 -2.49504 -3.02473 0
M  V30 827 H 83.8146 -1.82667 -3.7553 0
M  V30 828 N 84.2517 0.741722 -1.39055 0
M  V30 829 C 85.6677 1.04638 -1.20512 0
M  V30 830 C 85.8677 2.01405 -0.0620218 0
M  V30 831 O 84.9237 2.45547 0.588457 0
M  V30 832 C 86.2367 1.6151 -2.53643 0
M  V30 833 C 87.7847 1.73623 -2.6043 0
M  V30 834 C 88.2597 2.33906 -3.93767 0
M  V30 835 N 89.7507 2.41323 -3.9537 0
M  V30 836 C 90.4857 2.88888 -4.95309 0
M  V30 837 N 89.9817 3.36401 -6.05645 0
M  V30 838 N 91.7747 2.88037 -4.82692 0
M  V30 839 H 83.9257 0.0998155 -2.12165 0
M  V30 840 H 86.1887 0.106907 -0.941953 0
M  V30 841 H 85.8947 0.978739 -3.37807 0
M  V30 842 H 85.7687 2.60411 -2.72885 0
M  V30 843 H 88.1557 2.36384 -1.76655 0
M  V30 844 H 88.2367 0.733945 -2.45045 0
M  V30 845 H 87.8807 1.71776 -4.7797 0
M  V30 846 H 87.8107 3.34799 -4.06469 0
M  V30 847 H 90.3017 2.07734 -3.15682 0
M  V30 848 H 90.6147 3.71186 -6.77821 0
M  V30 849 H 88.9597 3.34427 -6.09248 0
M  V30 850 H 92.1507 2.50237 -3.95599 0
M  V30 851 H 92.3237 3.24792 -5.60726 0
M  V30 852 N 85.7298 1.2412 0.971189 0
M  V30 853 C 86.6928 1.03156 2.04674 0
M  V30 854 C 87.6928 -0.00990322 1.60797 0
M  V30 855 O 88.8828 0.230729 1.72665 0
M  V30 856 C 86.0148 0.562765 3.36223 0
M  V30 857 H 87.2078 1.98614 2.24705 0
M  V30 858 H 84.7608 1.06293 1.14593 0
M  V30 859 H 85.4958 -0.395176 3.21883 0
M  V30 860 H 85.2808 1.31441 3.69413 0
M  V30 861 H 86.7708 0.437015 4.15307 0
M  V30 862 N 87.2079 -1.17134 1.05439 0
M  V30 863 C 88.4329 -1.91913 0.786396 0
M  V30 864 C 88.8579 -1.7643 -0.652234 0
M  V30 865 O 88.2159 -1.08372 -1.45345 0
M  V30 866 C 88.2639 -3.40921 1.17497 0
M  V30 867 O 87.3679 -4.11244 0.308589 0
M  V30 868 H 86.7089 -0.598215 0.288158 0
M  V30 869 H 89.2389 -1.48457 1.4079 0
M  V30 870 H 89.2489 -3.91668 1.14281 0
M  V30 871 H 87.9239 -3.5151 2.22292 0
M  V30 872 H 86.5009 -3.70731 0.40157 0
M  V30 873 N 88.686 -0.835752 -1.33615 0
M  V30 874 C 89.633 -0.26473 -2.29277 0
M  V30 875 C 90.603 0.617712 -1.54187 0
M  V30 876 O 91.788 0.556641 -1.825 0
M  V30 877 C 88.928 0.556777 -3.40579 0
M  V30 878 C 88.041 -0.349339 -4.30585 0
M  V30 879 C 87.176 0.482969 -5.29 0
M  V30 880 C 86.215 -0.421732 -6.10645 0
M  V30 881 N 85.352 0.372262 -7.01112 0
M  V30 882 H 90.192 -1.08582 -2.77514 0
M  V30 883 H 87.729 -0.546927 -1.36554 0
M  V30 884 H 89.687 1.04852 -4.03809 0
M  V30 885 H 88.317 1.34286 -2.93542 0
M  V30 886 H 87.369 -0.959372 -3.68104 0
M  V30 887 H 88.681 -1.04445 -4.87742 0
M  V30 888 H 87.835 1.03866 -5.97743 0
M  V30 889 H 86.574 1.21153 -4.72412 0
M  V30 890 H 85.579 -0.989464 -5.40823 0
M  V30 891 H 86.804 -1.14861 -6.69316 0
M  V30 892 H 84.75 1.08426 -6.46977 0
M  V30 893 H 84.667 -0.264198 -7.55538 0
M  V30 894 H 85.935 0.910293 -7.74167 0
M  V30 895 N 90.1641 1.46063 -0.591896 0
M  V30 896 C 91.0741 2.34192 0.13831 0
M  V30 897 C 92.0901 1.50305 0.876608 0
M  V30 898 O 93.2661 1.8315 0.837728 0
M  V30 899 C 90.3311 3.27656 1.13326 0
M  V30 900 C 89.3921 4.27445 0.39863 0
M  V30 901 C 88.6251 5.16443 1.34618 0
M  V30 902 O 88.8481 5.08553 2.58321 0
M  V30 903 O 87.7821 5.95843 0.851768 0
M  V30 904 H 91.6081 2.98002 -0.58552 0
M  V30 905 H 89.1931 1.45188 -0.352239 0
M  V30 906 H 91.0751 3.85291 1.70671 0
M  V30 907 H 89.7501 2.6643 1.83839 0
M  V30 908 H 88.6571 3.73471 -0.216895 0
M  V30 909 H 89.9901 4.91482 -0.265709 0
M  V30 910 N 91.6422 0.330177 1.54103 0
M  V30 911 C 92.8722 -0.271784 2.04805 0
M  V30 912 C 93.2802 -1.45816 1.20559 0
M  V30 913 O 92.6232 -1.82247 0.2306 0
M  V30 914 C 92.6852 -0.763238 3.51305 0
M  V30 915 C 92.3492 0.301705 4.56003 0
M  V30 916 C 93.3462 1.13999 5.07248 0
M  V30 917 C 91.0312 0.451793 5.00264 0
M  V30 918 C 93.0252 2.11402 6.01322 0
M  V30 919 C 90.7122 1.42924 5.94151 0
M  V30 920 C 91.7102 2.25882 6.44567 0
M  V30 921 O 91.3982 3.21965 7.3661 0
M  V30 922 H 91.1302 -0.058693 0.673447 0
M  V30 923 H 93.6842 0.476395 1.99799 0
M  V30 924 H 91.9142 -1.56244 3.5373 0
M  V30 925 H 93.6032 -1.28427 3.85047 0
M  V30 926 H 94.3692 1.03505 4.73827 0
M  V30 927 H 90.2482 -0.184044 4.60632 0
M  V30 928 H 93.7922 2.76192 6.40596 0
M  V30 929 H 89.6892 1.53479 6.26988 0
M  V30 930 H 90.4572 3.17281 7.54503 0
M  V30 931 N 93.1203 -1.57491 0.0584922 0
M  V30 932 C 94.0503 -2.14988 -0.911178 0
M  V30 933 C 95.0313 -1.07343 -1.31952 0
M  V30 934 O 96.2163 -1.35318 -1.39294 0
M  V30 935 C 93.3463 -2.70078 -2.18347 0
M  V30 936 C 92.3003 -3.82771 -1.91495 0
M  V30 937 C 91.6263 -4.24408 -3.25241 0
M  V30 938 C 92.9263 -5.07592 -1.23075 0
M  V30 939 H 94.6203 -2.96263 -0.432246 0
M  V30 940 H 92.1663 -1.42512 -0.206469 0
M  V30 941 H 94.1193 -3.08943 -2.86587 0
M  V30 942 H 92.8433 -1.86005 -2.68458 0
M  V30 943 H 91.5023 -3.44389 -1.25664 0
M  V30 944 H 91.1503 -3.37275 -3.73168 0
M  V30 945 H 90.8503 -5.00366 -3.08071 0
M  V30 946 H 92.3743 -4.65879 -3.94701 0
M  V30 947 H 93.7883 -5.43857 -1.81362 0
M  V30 948 H 92.1853 -5.88741 -1.16207 0
M  V30 949 H 93.2553 -4.84454 -0.207847 0
M  V30 950 N 94.5984 0.214957 -1.56127 0
M  V30 951 C 96.0094 0.781386 -1.69562 0
M  V30 952 C 96.3604 1.84707 -0.66165 0
M  V30 953 O 95.4854 2.156 0.185927 0
M  V30 954 C 96.0804 1.42411 -3.07416 0
M  V30 955 C 94.6394 1.93786 -3.22683 0
M  V30 956 C 93.7864 0.800438 -2.65496 0
M  V30 957 H 96.7374 -0.00980633 -1.58697 0
M  V30 958 H 96.7584 2.29309 -3.0364 0
M  V30 959 H 96.2704 0.64826 -3.82648 0
M  V30 960 H 94.3714 2.74152 -2.52332 0
M  V30 961 H 94.4844 2.1133 -4.29973 0
M  V30 962 H 92.8484 1.2095 -2.2415 0
M  V30 963 H 93.6314 0.0371471 -3.4328 0
M  V30 964 N 96.0765 1.50051 0.48192 0
M  V30 965 C 97.0395 1.67584 1.5636 0
M  V30 966 C 98.0395 0.546894 1.51214 0
M  V30 967 O 99.2295 0.813725 1.54026 0
M  V30 968 C 96.3615 1.691 2.96003 0
M  V30 969 H 97.5545 2.64078 1.42136 0
M  V30 970 H 95.1075 1.39369 0.707533 0
M  V30 971 H 95.8425 0.742589 3.15684 0
M  V30 972 H 95.6275 2.51105 3.01146 0
M  V30 973 H 97.1175 1.84656 3.74556 0
M  V30 974 N 97.5546 -0.734337 1.39446 0
M  V30 975 C 98.7796 -1.52866 1.40167 0
M  V30 976 C 99.2046 -1.881 -0.00171513 0
M  V30 977 O 98.5626 -1.51957 -0.988879 0
M  V30 978 C 98.6106 -2.79235 2.28167 0
M  V30 979 O 97.7146 -3.75185 1.71201 0
M  V30 980 H 97.0556 -0.461618 0.477289 0
M  V30 981 H 99.5856 -0.905949 1.8345 0
M  V30 982 H 99.5956 -3.27963 2.42702 0
M  V30 983 H 98.2706 -2.52923 3.30156 0
M  V30 984 H 96.8476 -3.33958 1.65912 0
M  V30 985 N 99.0327 -1.24633 -0.964593 0
M  V30 986 C 100.261 -1.11501 -1.74285 0
M  V30 987 C 100.676 0.332165 -1.85855 0
M  V30 988 O 100.033 1.22903 -1.34911 0
M  V30 989 C 100.084 -1.75258 -3.16175 0
M  V30 990 O 99.8047 -3.14318 -3.05182 0
M  V30 991 C 101.306 -1.67776 -4.10324 0
M  V30 992 H 98.5257 -0.389407 -0.546446 0
M  V30 993 H 101.07 -1.64801 -1.21083 0
M  V30 994 H 99.2247 -1.25954 -3.66353 0
M  V30 995 H 99.6387 -3.4551 -3.94618 0
M  V30 996 H 101.113 -2.17064 -5.0753 0
M  V30 997 H 101.59 -0.639584 -4.34518 0
M  V30 998 H 102.196 -2.16522 -3.66058 0
M  V30 999 N 100.511 1.16574 -1.06058 0
M  V30 1000 C 101.758 1.87047 -0.775873 0
M  V30 1001 C 102.086 1.81562 0.697534 0
M  V30 1002 O 101.341 1.22445 1.52662 0
M  V30 1003 C 101.64 3.36195 -1.21275 0
M  V30 1004 C 101.306 3.6188 -2.68986 0
M  V30 1005 C 99.9678 3.68599 -3.09335 0
M  V30 1006 C 102.32 3.72648 -3.64394 0
M  V30 1007 C 99.6478 3.83584 -4.43937 0
M  V30 1008 C 102 3.89154 -4.98741 0
M  V30 1009 C 100.664 3.94114 -5.3873 0
M  V30 1010 H 99.9338 0.684452 -0.283912 0
M  V30 1011 H 102.581 1.37853 -1.32925 0
M  V30 1012 H 100.886 3.87505 -0.578528 0
M  V30 1013 H 102.583 3.89103 -0.969542 0
M  V30 1014 H 99.1728 3.57281 -2.36744 0
M  V30 1015 H 103.357 3.66769 -3.34356 0
M  V30 1016 H 98.6128 3.85677 -4.74409 0
M  V30 1017 H 102.787 3.96427 -5.72554 0
M  V30 1018 H 100.414 4.05478 -6.43033 0
M  V30 1019 N 101.989 0.842826 1.3317 0
M  V30 1020 C 102.936 0.276885 2.29133 0
M  V30 1021 C 103.906 -0.609527 1.54512 0
M  V30 1022 O 105.091 -0.546955 1.82792 0
M  V30 1023 C 102.231 -0.538707 3.40869 0
M  V30 1024 C 101.344 0.372169 4.30394 0
M  V30 1025 C 100.479 -0.454908 5.29249 0
M  V30 1026 C 99.5179 0.45411 6.10413 0
M  V30 1027 N 98.6549 -0.335075 7.013 0
M  V30 1028 H 103.495 1.10052 2.76934 0
M  V30 1029 H 101.032 0.554161 1.36262 0
M  V30 1030 H 102.99 -1.02709 4.0436 0
M  V30 1031 H 101.62 -1.32727 2.9425 0
M  V30 1032 H 100.672 0.97888 3.6759 0
M  V30 1033 H 101.984 1.0703 4.87182 0
M  V30 1034 H 101.138 -1.00695 5.98285 0
M  V30 1035 H 99.8769 -1.18646 4.73048 0
M  V30 1036 H 98.8819 1.01813 5.40291 0
M  V30 1037 H 100.107 1.18409 6.68697 0
M  V30 1038 H 98.0529 -1.04994 6.47543 0
M  V30 1039 H 97.9699 0.304262 7.55387 0
M  V30 1040 H 99.2379 -0.869224 7.74638 0
M  V30 1041 N 103.467 -1.45747 0.599634 0
M  V30 1042 C 104.716 -2.01502 0.0893511 0
M  V30 1043 C 105.029 -1.4748 -1.28488 0
M  V30 1044 O 106.235 -1.95161 -1.88745 0
M  V30 1045 C 104.691 -3.59735 0.109082 0
M  V30 1046 C 104.299 -4.22754 1.48267 0
M  V30 1047 C 106.043 -4.23085 -0.346374 0
M  V30 1048 C 103.95 -5.73115 1.45921 0
M  V30 1049 H 102.88 -0.753417 0.0296347 0
M  V30 1050 H 105.531 -1.67303 0.753788 0
M  V30 1051 H 103.913 -3.91087 -0.621854 0
M  V30 1052 H 105.087 -4.02987 2.23468 0
M  V30 1053 H 103.402 -3.71567 1.87955 0
M  V30 1054 H 105.999 -5.33327 -0.38298 0
M  V30 1055 H 106.342 -3.93201 -1.36743 0
M  V30 1056 H 106.875 -3.9642 0.331038 0
M  V30 1057 H 103.614 -6.07685 2.45762 0
M  V30 1058 H 103.134 -5.95097 0.749665 0
M  V30 1059 H 104.813 -6.3616 1.17941 0
M  V30 1060 N 104.945 -0.338344 -1.53925 0
M  V30 1061 C 106.356 0.146651 -1.86123 0
M  V30 1062 C 106.707 1.5042 -1.2597 0
M  V30 1063 O 105.832 2.08723 -0.571294 0
M  V30 1064 C 106.427 0.272879 -3.37699 0
M  V30 1065 C 104.986 0.702103 -3.69794 0
M  V30 1066 C 104.133 -0.167304 -2.76795 0
M  V30 1067 H 107.084 -0.558123 -1.48562 0
M  V30 1068 H 107.105 1.10128 -3.64214 0
M  V30 1069 H 106.617 -0.715307 -3.81451 0
M  V30 1070 H 104.718 1.6995 -3.31584 0
M  V30 1071 H 104.831 0.495604 -4.7653 0
M  V30 1072 H 103.195 0.359527 -2.5215 0
M  V30 1073 H 103.978 -1.15253 -3.23375 0
M  V30 1074 N 106.423 1.57458 -0.0668435 0
M  V30 1075 C 107.371 2.13639 0.919851 0
M  V30 1076 C 108.365 1.07204 1.31163 0
M  V30 1077 O 109.571 1.25591 1.28945 0
M  V30 1078 H 105.946 0.683048 0.314562 0
M  V30 1079 H 107.917 2.95415 0.421047 0
M  V30 1080 C 106.666 2.70892 2.17975 0
M  V30 1081 H 105.989 3.5246 1.88711 0
M  V30 1082 H 107.429 3.13803 2.85138 0
M  V30 1083 C 105.888 1.65414 2.93496 0
M  V30 1084 O 106.418 1.07619 3.87015 0
M  V30 1085 N 104.624 1.36564 2.56512 0
M  V30 1086 H 104.171 1.83751 1.80536 0
M  V30 1087 H 104.129 0.66223 3.07347 0
M  V30 1088 N 107.901 -0.206675 1.56239 0
M  V30 1089 C 108.864 -1.23976 1.92776 0
M  V30 1090 C 109.864 -1.39041 0.807729 0
M  V30 1091 O 111.054 -1.37051 1.0753 0
M  V30 1092 C 108.186 -2.61112 2.19165 0
M  V30 1093 H 109.379 -0.927764 2.85189 0
M  V30 1094 H 106.932 -0.447718 1.4975 0
M  V30 1095 H 107.667 -2.97386 1.29352 0
M  V30 1096 H 107.452 -2.51552 3.00772 0
M  V30 1097 H 108.942 -3.35633 2.48476 0
M  V30 1098 N 109.379 -1.50304 -0.473955 0
M  V30 1099 C 110.628 -1.60392 -1.22301 0
M  V30 1100 C 110.941 -0.308411 -1.93153 0
M  V30 1101 O 112.147 -0.288156 -2.69966 0
M  V30 1102 C 110.603 -2.83109 -2.2221 0
M  V30 1103 C 110.211 -4.19524 -1.57173 0
M  V30 1104 C 111.955 -3.0254 -2.97775 0
M  V30 1105 C 109.862 -5.33431 -2.55353 0
M  V30 1106 H 108.792 -0.597286 -0.460179 0
M  V30 1107 H 111.443 -1.76731 -0.493803 0
M  V30 1108 H 109.825 -2.60322 -2.9841 0
M  V30 1109 H 110.999 -4.52554 -0.867824 0
M  V30 1110 H 109.314 -4.05674 -0.939002 0
M  V30 1111 H 111.911 -3.84811 -3.71248 0
M  V30 1112 H 112.254 -2.14154 -3.56992 0
M  V30 1113 H 112.787 -3.25494 -2.28688 0
M  V30 1114 H 109.526 -6.23962 -2.00878 0
M  V30 1115 H 109.046 -5.04823 -3.23904 0
M  V30 1116 H 110.725 -5.63887 -3.17239 0
M  V30 1117 N 110.857 0.726932 -1.39834 0
M  V30 1118 C 112.106 1.48214 -1.36805 0
M  V30 1119 C 112.419 1.95576 0.0305291 0
M  V30 1120 O 113.625 2.7088 0.183417 0
M  V30 1121 C 112.081 2.67854 -2.40379 0
M  V30 1122 C 111.689 2.27408 -3.85992 0
M  V30 1123 C 113.433 3.45641 -2.46439 0
M  V30 1124 C 111.34 3.43819 -4.81189 0
M  V30 1125 H 110.27 0.556606 -0.508631 0
M  V30 1126 H 112.921 0.792216 -1.65518 0
M  V30 1127 H 111.303 3.3896 -2.04749 0
M  V30 1128 H 112.477 1.63795 -4.30706 0
M  V30 1129 H 110.792 1.62692 -3.83302 0
M  V30 1130 H 113.389 4.32244 -3.14753 0
M  V30 1131 H 113.732 3.88669 -1.49139 0
M  V30 1132 H 114.265 2.8157 -2.81004 0
M  V30 1133 H 111.004 3.05834 -5.79781 0
M  V30 1134 H 110.524 4.06385 -4.41148 0
M  V30 1135 H 112.203 4.10043 -5.00474 0
M  V30 1136 N 112.336 1.25143 0.95797 0
M  V30 1137 C 113.584 1.09476 1.69881 0
M  V30 1138 C 113.905 -0.365502 1.91544 0
M  V30 1139 O 113.175 -1.25985 1.50015 0
M  V30 1140 H 111.755 0.402128 0.629525 0
M  V30 1141 H 114.417 1.57214 1.15194 0
M  V30 1142 H 113.513 1.60046 2.6794 0
M  V30 1143 N 113.814 -1.1601 1.06675 0
M  V30 1144 C 114.744 -2.22688 0.702307 0
M  V30 1145 C 115.725 -1.67306 -0.307032 0
M  V30 1146 O 116.91 -1.93352 -0.181305 0
M  V30 1147 C 114.04 -3.47178 0.092038 0
M  V30 1148 C 112.994 -4.15477 1.02777 0
M  V30 1149 C 112.32 -5.33963 0.28061 0
M  V30 1150 C 113.62 -4.66019 2.35846 0
M  V30 1151 H 115.314 -2.53429 1.59419 0
M  V30 1152 H 112.86 -1.21813 0.767961 0
M  V30 1153 H 114.813 -4.21037 -0.174814 0
M  V30 1154 H 113.537 -3.15749 -0.834877 0
M  V30 1155 H 112.196 -3.43549 1.27944 0
M  V30 1156 H 111.844 -4.98788 -0.649545 0
M  V30 1157 H 111.544 -5.806 0.904258 0
M  V30 1158 H 113.068 -6.10596 0.021396 0
M  V30 1159 H 114.482 -5.3144 2.15045 0
M  V30 1160 H 112.879 -5.23293 2.93743 0
M  V30 1161 H 113.949 -3.82023 2.98641 0
M  V30 1162 N 115.292 -0.849877 -1.32721 0
M  V30 1163 C 116.202 -0.293791 -2.32753 0
M  V30 1164 C 117.218 0.585906 -1.63839 0
M  V30 1165 O 118.394 0.487413 -1.95413 0
M  V30 1166 C 115.459 0.512752 -3.42887 0
M  V30 1167 C 114.52 -0.39252 -4.27502 0
M  V30 1168 C 113.753 0.375625 -5.32377 0
M  V30 1169 O 113.976 1.60613 -5.4732 0
M  V30 1170 O 112.91 -0.256094 -6.01355 0
M  V30 1171 H 116.736 -1.12242 -2.82197 0
M  V30 1172 H 114.321 -0.612685 -1.36259 0
M  V30 1173 H 116.203 0.970704 -4.10067 0
M  V30 1174 H 114.878 1.31826 -2.95641 0
M  V30 1175 H 113.785 -0.898547 -3.63149 0
M  V30 1176 H 115.118 -1.16309 -4.7826 0
M  V30 1177 N 116.77 1.45427 -0.607355 0
M  V30 1178 C 117.998 2.06614 -0.108814 0
M  V30 1179 C 118.413 1.45204 1.2067 0
M  V30 1180 O 117.77 0.566132 1.73497 0
M  V30 1181 C 117.821 3.61481 0.0375347 0
M  V30 1182 O 117.542 4.20598 -1.22593 0
M  V30 1183 C 119.043 4.39652 0.567561 0
M  V30 1184 H 116.263 0.66747 -0.0687351 0
M  V30 1185 H 118.807 1.86675 -0.835022 0
M  V30 1186 H 116.962 3.80762 0.714068 0
M  V30 1187 H 117.376 5.1377 -1.05547 0
M  V30 1188 H 118.85 5.48518 0.61905 0
M  V30 1189 H 119.327 4.09417 1.58978 0
M  V30 1190 H 119.933 4.25234 -0.0749202 0
M  V30 1191 N 118.248 0.346503 1.53744 0
M  V30 1192 C 119.496 -0.248612 2.00565 0
M  V30 1193 C 119.817 -1.5083 1.23593 0
M  V30 1194 O 119.087 -1.92858 0.343912 0
M  V30 1195 H 117.667 -0.0948564 0.740953 0
M  V30 1196 H 120.329 0.468341 1.89189 0
M  V30 1197 H 119.425 -0.488994 3.08245 0
M  V30 1198 N 119.726 -1.57421 0.075193 0
M  V30 1199 C 120.972 -1.93905 -0.594025 0
M  V30 1200 C 121.305 -0.955701 -1.69056 0
M  V30 1201 O 120.58 0.0145373 -1.94495 0
M  V30 1202 C 120.863 -3.40638 -1.1678 0
M  V30 1203 C 120.716 -4.49733 -0.0776792 0
M  V30 1204 C 122.035 -3.88259 -2.07228 0
M  V30 1205 H 119.154 -0.705105 -0.214466 0
M  V30 1206 H 121.796 -1.8947 0.141854 0
M  V30 1207 H 119.946 -3.44549 -1.79494 0
M  V30 1208 H 121.618 -4.57942 0.555573 0
M  V30 1209 H 119.861 -4.29751 0.591286 0
M  V30 1210 H 120.532 -5.49549 -0.519603 0
M  V30 1211 H 123.008 -3.86376 -1.54445 0
M  V30 1212 H 121.884 -4.91533 -2.44308 0
M  V30 1213 H 122.145 -3.26396 -2.98191 0
M  V30 1214 N 121.204 0.198386 -1.56346 0
M  V30 1215 C 122.453 0.917451 -1.79627 0
M  V30 1216 C 122.766 1.8456 -0.64784 0
M  V30 1217 O 123.972 2.60504 -0.764859 0
M  V30 1218 C 122.428 1.68175 -3.18191 0
M  V30 1219 C 122.036 0.798589 -4.40825 0
M  V30 1220 C 123.78 2.39065 -3.50782 0
M  V30 1221 C 121.687 1.56157 -5.70411 0
M  V30 1222 H 120.617 0.346317 -0.669762 0
M  V30 1223 H 123.268 0.170801 -1.82703 0
M  V30 1224 H 121.65 2.47216 -3.09354 0
M  V30 1225 H 122.824 0.0470665 -4.60776 0
M  V30 1226 H 121.139 0.200686 -4.15916 0
M  V30 1227 H 123.736 2.96692 -4.44835 0
M  V30 1228 H 124.079 3.13091 -2.74371 0
M  V30 1229 H 124.612 1.66993 -3.61052 0
M  V30 1230 H 121.351 0.864142 -6.49779 0
M  V30 1231 H 120.871 2.2871 -5.54483 0
M  V30 1232 H 122.55 2.11622 -6.11412 0
M  V30 1233 N 122.682 1.50554 0.465978 0
M  V30 1234 C 123.629 1.6979 1.56333 0
M  V30 1235 C 124.599 0.539239 1.57103 0
M  V30 1236 O 125.784 0.770401 1.74555 0
M  V30 1237 C 122.924 1.80273 2.94271 0
M  V30 1238 C 122.037 3.07674 3.0325 0
M  V30 1239 C 121.172 3.08922 4.32135 0
M  V30 1240 C 120.211 4.30755 4.34875 0
M  V30 1241 N 119.348 4.29714 5.55239 0
M  V30 1242 H 124.188 2.63472 1.39235 0
M  V30 1243 H 121.725 1.30602 0.676873 0
M  V30 1244 H 123.683 1.84332 3.74269 0
M  V30 1245 H 122.313 0.900258 3.09992 0
M  V30 1246 H 121.365 3.13062 2.16094 0
M  V30 1247 H 122.677 3.97642 3.01135 0
M  V30 1248 H 121.831 3.11738 5.20485 0
M  V30 1249 H 120.57 2.16792 4.36866 0
M  V30 1250 H 119.575 4.28146 3.44922 0
M  V30 1251 H 120.8 5.24117 4.31831 0
M  V30 1252 H 118.746 3.4044 5.60746 0
M  V30 1253 H 118.663 5.13456 5.54886 0
M  V30 1254 H 119.931 4.36683 6.457 0
M  V30 1255 N 124.16 -0.719506 1.40217 0
M  V30 1256 C 125.108 -1.85493 1.40339 0
M  V30 1257 C 126.102 -1.66995 0.284415 0
M  V30 1258 O 127.308 -1.74148 0.455252 0
M  V30 1259 H 123.683 -0.610857 0.438586 0
M  V30 1260 H 125.654 -1.82506 2.36081 0
M  V30 1261 C 124.403 -3.23321 1.27901 0
M  V30 1262 H 123.726 -3.38159 2.1328 0
M  V30 1263 H 125.166 -4.02914 1.32045 0
M  V30 1264 C 123.625 -3.36898 -0.0111355 0
M  V30 1265 O 124.155 -3.89674 -0.975538 0
M  V30 1266 N 122.361 -2.90492 -0.0793393 0
M  V30 1267 H 121.908 -2.47731 0.706183 0
M  V30 1268 H 121.866 -2.99955 -0.942038 0
M  V30 1269 N 125.638 -1.25649 -0.95132 0
M  V30 1270 C 126.548 -1.08073 -2.08224 0
M  V30 1271 C 127.564 -0.0169666 -1.73992 0
M  V30 1272 O 128.74 -0.218593 -2.0021 0
M  V30 1273 C 125.805 -0.704922 -3.39458 0
M  V30 1274 C 124.866 -1.84699 -3.87537 0
M  V30 1275 C 124.099 -1.48902 -5.12508 0
M  V30 1276 O 124.322 -0.386156 -5.69091 0
M  V30 1277 O 123.256 -2.32033 -5.55378 0
M  V30 1278 H 127.082 -2.02924 -2.25954 0
M  V30 1279 H 124.667 -1.04618 -1.06656 0
M  V30 1280 H 126.549 -0.507609 -4.18332 0
M  V30 1281 H 125.224 0.214291 -3.2299 0
M  V30 1282 H 124.131 -2.09919 -3.09653 0
M  V30 1283 H 125.464 -2.74557 -4.08509 0
M  V30 1284 N 127.117 1.15442 -1.07289 0
M  V30 1285 C 128.067 2.18164 -0.662467 0
M  V30 1286 C 129.051 1.57845 0.312074 0
M  V30 1287 O 130.243 1.76552 0.125905 0
M  V30 1288 C 127.372 3.43246 -0.0611295 0
M  V30 1289 C 126.458 4.1062 -1.06077 0
M  V30 1290 N 126.849 4.53491 -2.24008 0
M  V30 1291 C 125.147 4.36949 -0.893964 0
M  V30 1292 C 125.848 5.05731 -2.87422 0
M  V30 1293 N 124.824 4.99236 -2.15091 0
M  V30 1294 H 128.626 2.49038 -1.56068 0
M  V30 1295 H 126.14 1.32003 -0.945988 0
M  V30 1296 H 128.137 4.16145 0.250792 0
M  V30 1297 H 126.797 3.13854 0.832207 0
M  V30 1298 H 127.808 4.46898 -2.6173 0
M  V30 1299 H 124.485 4.17466 -0.0534693 0
M  V30 1300 H 125.875 5.48865 -3.87553 0
M  V30 1301 N 128.595 0.856903 1.32268 0
M  V30 1302 C 129.527 0.260412 2.27716 0
M  V30 1303 C 130.54 -0.569137 1.52528 0
M  V30 1304 O 131.729 -0.39326 1.74114 0
M  V30 1305 C 128.829 -0.650477 3.32599 0
M  V30 1306 C 128.002 0.14372 4.37164 0
M  V30 1307 C 127.061 -0.69328 5.21613 0
M  V30 1308 O 126.087 -0.12599 5.69061 0
M  V30 1309 N 127.289 -2.00761 5.44679 0
M  V30 1310 H 130.054 1.08059 2.79541 0
M  V30 1311 H 127.615 0.717103 1.45152 0
M  V30 1312 H 129.607 -1.21581 3.86005 0
M  V30 1313 H 128.177 -1.37133 2.80915 0
M  V30 1314 H 127.397 0.890486 3.8401 0
M  V30 1315 H 128.685 0.68915 5.04111 0
M  V30 1316 H 128.083 -2.49181 5.07863 0
M  V30 1317 H 126.64 -2.52103 6.01072 0
M  V30 1318 N 130.073 -1.45103 0.615059 0
M  V30 1319 C 131.319 -2.02483 0.113347 0
M  V30 1320 C 131.652 -1.48146 -1.25564 0
M  V30 1321 O 130.927 -0.659104 -1.82992 0
M  V30 1322 C 131.21 -3.60005 0.0825278 0
M  V30 1323 C 131.063 -4.2466 1.48271 0
M  V30 1324 C 132.382 -4.35972 -0.601401 0
M  V30 1325 H 129.501 -0.735764 0.0426632 0
M  V30 1326 H 132.143 -1.72868 0.788461 0
M  V30 1327 H 130.293 -3.85367 -0.492378 0
M  V30 1328 H 131.965 -4.10458 2.10527 0
M  V30 1329 H 130.208 -3.82772 2.04127 0
M  V30 1330 H 130.879 -5.336 1.41332 0
M  V30 1331 H 133.355 -4.15947 -0.112666 0
M  V30 1332 H 132.231 -5.45697 -0.592097 0
M  V30 1333 H 132.492 -4.09391 -1.66887 0
M  V30 1334 N 131.551 -0.354651 -1.53558 0
M  V30 1335 C 132.798 0.238443 -2.01091 0
M  V30 1336 C 133.126 1.49663 -1.24222 0
M  V30 1337 O 132.381 1.93049 -0.321003 0
M  V30 1338 C 132.68 0.587121 -3.52545 0
M  V30 1339 C 132.346 -0.575472 -4.47213 0
M  V30 1340 C 131.008 -0.894497 -4.72813 0
M  V30 1341 C 133.36 -1.35489 -5.03281 0
M  V30 1342 C 130.688 -1.99511 -5.51736 0
M  V30 1343 C 133.04 -2.44583 -5.83405 0
M  V30 1344 C 131.704 -2.77033 -6.07296 0
M  V30 1345 H 130.974 0.0872526 -0.735845 0
M  V30 1346 H 133.621 -0.484859 -1.8526 0
M  V30 1347 H 131.926 1.39129 -3.66265 0
M  V30 1348 H 133.623 1.05809 -3.86789 0
M  V30 1349 H 130.213 -0.316774 -4.27428 0
M  V30 1350 H 134.397 -1.12167 -4.83459 0
M  V30 1351 H 129.653 -2.25063 -5.68469 0
M  V30 1352 H 133.827 -3.05401 -6.25862 0
M  V30 1353 H 131.454 -3.6244 -6.68237 0
M  V30 1354 N 133.029 1.57378 -0.0835403 0
M  V30 1355 C 133.976 2.13384 0.879539 0
M  V30 1356 C 134.946 1.04936 1.28754 0
M  V30 1357 O 136.131 1.32662 1.37133 0
M  V30 1358 C 133.271 2.70932 2.13752 0
M  V30 1359 C 132.384 3.93575 1.7811 0
M  V30 1360 C 131.519 4.39326 2.98607 0
M  V30 1361 C 130.558 5.54587 2.59037 0
M  V30 1362 N 129.695 5.95243 3.72331 0
M  V30 1363 H 134.535 2.9537 0.395076 0
M  V30 1364 H 132.072 1.45953 0.183349 0
M  V30 1365 H 134.03 3.02411 2.87408 0
M  V30 1366 H 132.66 1.91693 2.59718 0
M  V30 1367 H 131.712 3.68483 0.94469 0
M  V30 1368 H 133.024 4.77258 1.45005 0
M  V30 1369 H 132.178 4.72528 3.80529 0
M  V30 1370 H 130.917 3.5452 3.34913 0
M  V30 1371 H 129.922 5.21024 1.75539 0
M  V30 1372 H 131.147 6.41133 2.23887 0
M  V30 1373 H 129.093 5.13385 4.08378 0
M  V30 1374 H 129.01 6.73694 3.43034 0
M  V30 1375 H 130.278 6.33072 4.54797 0
M  V30 1376 N 134.507 -0.190092 1.56449 0
M  V30 1377 C 135.753 -0.906472 1.82084 0
M  V30 1378 C 136.108 -1.80677 0.661335 0
M  V30 1379 O 135.401 -1.88501 -0.343237 0
M  V30 1380 C 135.595 -1.75382 3.1141 0
M  V30 1381 C 135.424 -0.937053 4.39829 0
M  V30 1382 C 134.194 -0.619507 5.01488 0
M  V30 1383 C 136.392 -0.2874 5.13496 0
M  V30 1384 N 134.374 0.215367 6.13522 0
M  V30 1385 C 135.745 0.409454 6.18646 0
M  V30 1386 C 137.8 -0.203639 4.97483 0
M  V30 1387 C 136.503 1.1821 7.0952 0
M  V30 1388 C 138.529 0.555622 5.88784 0
M  V30 1389 C 137.891 1.24091 6.93384 0
M  V30 1390 H 133.99 -0.310931 0.717528 0
M  V30 1391 H 136.574 -0.174821 1.93914 0
M  V30 1392 H 134.745 -2.45703 3.00806 0
M  V30 1393 H 136.477 -2.41006 3.25112 0
M  V30 1394 H 133.232 -0.945126 4.64074 0
M  V30 1395 H 133.656 0.622562 6.74131 0
M  V30 1396 H 138.298 -0.719099 4.1664 0
M  V30 1397 H 136.016 1.70897 7.89823 0
M  V30 1398 H 139.602 0.621854 5.78467 0
M  V30 1399 H 138.482 1.81901 7.62812 0
M  V30 1400 N 135.985 -1.50799 -0.457987 0
M  V30 1401 C 137.262 -1.52968 -1.21902 0
M  V30 1402 C 137.642 -0.281906 -2.09209 0
M  V30 1403 O 136.99 0.734076 -2.16388 0
M  V30 1404 C 137.2 -2.8326 -2.03875 0
M  V30 1405 C 138.548 -3.34425 -2.6162 0
M  V30 1406 O 139.572 -2.8467 -2.14106 0
M  V30 1407 O 138.431 -4.21188 -3.48228 0
M  V30 1408 H 135.525 -0.614129 -0.553873 0
M  V30 1409 H 138.071 -1.63098 -0.468739 0
M  V30 1410 H 136.843 -3.65543 -1.39621 0
M  V30 1411 H 136.466 -2.76195 -2.8601 0
M  V30 1412 N 137.463 0.71206 -1.40597 0
M  V30 1413 C 138.711 1.46907 -1.38791 0
M  V30 1414 C 139.032 1.94998 0.00780391 0
M  V30 1415 O 138.302 1.70587 0.963174 0
M  V30 1416 H 136.882 0.545043 -0.51082 0
M  V30 1417 H 139.544 0.843882 -1.75683 0
M  V30 1418 H 138.64 2.34021 -2.06496 0
M  V30 1419 N 138.941 1.26152 0.944643 0
M  V30 1420 C 139.888 1.07408 2.04285 0
M  V30 1421 C 140.858 -0.0198413 1.66088 0
M  V30 1422 O 142.043 0.139264 1.90291 0
M  V30 1423 C 139.183 0.70945 3.37729 0
M  V30 1424 C 138.296 1.87926 3.88983 0
M  V30 1425 C 137.431 1.45807 5.10797 0
M  V30 1426 C 136.47 2.5964 5.54305 0
M  V30 1427 N 135.607 2.18226 6.67324 0
M  V30 1428 H 140.447 2.01389 2.1965 0
M  V30 1429 H 137.984 1.00275 1.07626 0
M  V30 1430 H 139.942 0.478948 4.14442 0
M  V30 1431 H 138.572 -0.193389 3.2222 0
M  V30 1432 H 137.624 2.22279 3.08701 0
M  V30 1433 H 138.936 2.73377 4.17213 0
M  V30 1434 H 138.09 1.18781 5.94959 0
M  V30 1435 H 136.829 0.574414 4.84305 0
M  V30 1436 H 135.834 2.87399 4.68702 0
M  V30 1437 H 137.059 3.48599 5.828 0
M  V30 1438 H 135.005 1.3229 6.42523 0
M  V30 1439 H 134.922 2.97221 6.95123 0
M  V30 1440 H 136.19 1.94403 7.54869 0
M  V30 1441 N 140.419 -1.14872 1.07899 0
M  V30 1442 C 141.83 -1.67367 0.827363 0
M  V30 1443 C 142.181 -1.85236 -0.646693 0
M  V30 1444 O 141.306 -1.55974 -1.50004 0
M  V30 1445 C 141.901 -3.04016 1.49532 0
M  V30 1446 C 140.46 -3.53566 1.29106 0
M  V30 1447 C 139.607 -2.29161 1.56143 0
M  V30 1448 H 142.558 -0.990083 1.24028 0
M  V30 1449 H 142.579 -3.69219 0.919643 0
M  V30 1450 H 142.091 -2.90978 2.56814 0
M  V30 1451 H 140.192 -3.71835 0.238713 0
M  V30 1452 H 140.305 -4.34661 2.01511 0
M  V30 1453 H 138.669 -2.34978 0.982717 0
M  V30 1454 H 139.452 -2.18705 2.64619 0
M  V30 1455 N 141.898 -0.863906 -1.31812 0
M  V30 1456 C 143.314 -0.555004 -1.49639 0
M  V30 1457 C 143.514 0.912266 -1.79666 0
M  V30 1458 O 142.57 1.69479 -1.87171 0
M  V30 1459 C 143.883 -1.44998 -2.63431 0
M  V30 1460 C 145.431 -1.45138 -2.77316 0
M  V30 1461 C 145.906 -2.33179 -3.94197 0
M  V30 1462 N 147.397 -2.31025 -4.01474 0
M  V30 1463 C 148.132 -2.95871 -4.9117 0
M  V30 1464 N 147.628 -3.69863 -5.8581 0
M  V30 1465 N 149.421 -2.85211 -4.84367 0
M  V30 1466 H 141.572 -1.81339 -1.10589 0
M  V30 1467 H 143.835 -0.77505 -0.545895 0
M  V30 1468 H 143.541 -2.49377 -2.48 0
M  V30 1469 H 143.415 -1.14409 -3.59431 0
M  V30 1470 H 145.802 -0.415201 -2.92164 0
M  V30 1471 H 145.883 -1.79747 -1.82001 0
M  V30 1472 H 145.527 -3.3687 -3.80107 0
M  V30 1473 H 145.457 -1.95897 -4.88807 0
M  V30 1474 H 147.948 -1.77238 -3.33759 0
M  V30 1475 H 148.261 -4.16486 -6.50968 0
M  V30 1476 H 146.606 -3.73971 -5.85808 0
M  V30 1477 H 149.797 -2.26948 -4.09405 0
M  V30 1478 H 149.97 -3.36027 -5.54066 0
M  V30 1479 N 143.376 1.44774 -0.622745 0
M  V30 1480 C 144.339 2.29069 0.0774015 0
M  V30 1481 C 145.339 1.4059 0.780461 0
M  V30 1482 O 146.529 1.62551 0.626322 0
M  V30 1483 C 143.661 3.21974 1.12006 0
M  V30 1484 H 144.854 2.92459 -0.663901 0
M  V30 1485 H 142.407 1.51548 -0.382486 0
M  V30 1486 H 143.142 2.63417 1.89162 0
M  V30 1487 H 142.927 3.87168 0.619951 0
M  V30 1488 H 144.417 3.85318 1.60995 0
M  V30 1489 N 144.854 0.36279 1.53368 0
M  V30 1490 C 145.787 -0.528507 2.21996 0
M  V30 1491 C 146.765 -1.0852 1.21087 0
M  V30 1492 O 147.949 -1.14186 1.4998 0
M  V30 1493 C 145.076 -1.72893 2.91249 0
M  V30 1494 C 144.122 -1.29994 4.06207 0
M  V30 1495 S 144.955 -0.303575 5.34639 0
M  V30 1496 C 146.111 -1.51039 6.07403 0
M  V30 1497 H 146.344 0.0543423 2.9725 0
M  V30 1498 H 143.877 0.146889 1.537 0
M  V30 1499 H 145.835 -2.41751 3.31763 0
M  V30 1500 H 144.496 -2.28303 2.15724 0
M  V30 1501 H 143.689 -2.19549 4.53667 0
M  V30 1502 H 143.291 -0.690608 3.67569 0
M  V30 1503 H 145.583 -2.44186 6.31965 0
M  V30 1504 H 146.526 -1.07721 6.99858 0
M  V30 1505 H 146.934 -1.71518 5.37812 0
M  V30 1506 N 146.332 -1.57332 0.0918853 0
M  V30 1507 C 147.279 -2.13847 -0.868211 0
M  V30 1508 C 148.249 -1.05618 -1.28196 0
M  V30 1509 O 149.434 -1.33387 -1.36427 0
M  V30 1510 C 146.574 -2.72062 -2.12312 0
M  V30 1511 C 145.687 -3.94514 -1.7602 0
M  V30 1512 C 144.822 -4.40903 -2.96273 0
M  V30 1513 C 143.861 -5.55953 -2.56092 0
M  V30 1514 N 142.998 -5.97209 -3.69169 0
M  V30 1515 H 147.838 -2.95575 -0.379406 0
M  V30 1516 H 145.375 -1.46048 -0.175606 0
M  V30 1517 H 147.333 -3.03931 -2.858 0
M  V30 1518 H 145.963 -1.93068 -2.58698 0
M  V30 1519 H 145.015 -3.68979 -0.925135 0
M  V30 1520 H 146.327 -4.7802 -1.42472 0
M  V30 1521 H 145.481 -4.74539 -3.78018 0
M  V30 1522 H 144.22 -3.56291 -3.33029 0
M  V30 1523 H 143.225 -5.21948 -1.72773 0
M  V30 1524 H 144.45 -6.42311 -2.20484 0
M  V30 1525 H 142.396 -5.15543 -4.05649 0
M  V30 1526 H 142.313 -6.75504 -3.39456 0
M  V30 1527 H 143.581 -6.35475 -4.51434 0
M  V30 1528 N 147.81 0.181792 -1.56548 0
M  V30 1529 C 148.742 1.24956 -1.92142 0
M  V30 1530 C 149.755 1.41022 -0.813422 0
M  V30 1531 O 150.944 1.41212 -1.09186 0
M  V30 1532 C 148.044 2.61981 -2.14987 0
M  V30 1533 C 147.217 2.6735 -3.46183 0
M  V30 1534 C 146.276 3.85664 -3.5798 0
M  V30 1535 O 145.302 3.72148 -4.30691 0
M  V30 1536 N 146.504 5.01683 -2.92053 0
M  V30 1537 H 149.269 0.947329 -2.84334 0
M  V30 1538 H 146.83 0.371629 -1.57577 0
M  V30 1539 H 148.822 3.3958 -2.20154 0
M  V30 1540 H 147.392 2.84637 -1.2923 0
M  V30 1541 H 146.612 1.75925 -3.52766 0
M  V30 1542 H 147.9 2.67939 -4.32534 0
M  V30 1543 H 147.298 5.15564 -2.32832 0
M  V30 1544 H 145.855 5.77181 -3.0283 0
M  V30 1545 N 149.288 1.51039 0.449983 0
M  V30 1546 C 150.534 1.64287 1.19923 0
M  V30 1547 C 150.889 0.348701 1.89214 0
M  V30 1548 O 150.182 -0.654751 1.80065 0
M  V30 1549 C 150.376 2.77556 2.25161 0
M  V30 1550 C 150.205 4.17862 1.66198 0
M  V30 1551 C 148.975 4.83976 1.45243 0
M  V30 1552 C 151.173 5.01388 1.14519 0
M  V30 1553 N 149.155 6.08433 0.817437 0
M  V30 1554 C 150.526 6.16743 0.634705 0
M  V30 1555 C 152.581 4.87008 1.03574 0
M  V30 1556 C 151.284 7.19295 0.0255452 0
M  V30 1557 C 153.31 5.89757 0.440489 0
M  V30 1558 C 152.672 7.04375 -0.0595112 0
M  V30 1559 H 148.771 0.655161 0.426952 0
M  V30 1560 H 151.355 1.88228 0.49781 0
M  V30 1561 H 149.526 2.553 2.92706 0
M  V30 1562 H 151.258 2.80049 2.92155 0
M  V30 1563 H 148.013 4.41627 1.71063 0
M  V30 1564 H 148.437 6.75017 0.517747 0
M  V30 1565 H 153.079 3.9866 1.4082 0
M  V30 1566 H 150.797 8.07302 -0.359071 0
M  V30 1567 H 154.383 5.80698 0.35788 0
M  V30 1568 H 153.263 7.82521 -0.512882 0
M  V30 1569 N 150.766 -0.704594 1.40972 0
M  V30 1570 C 151.676 -1.84856 1.44448 0
M  V30 1571 C 152.692 -1.70726 0.335961 0
M  V30 1572 O 153.868 -1.92799 0.582276 0
M  V30 1573 C 150.933 -3.20758 1.31587 0
M  V30 1574 C 149.994 -3.47063 2.52677 0
M  V30 1575 C 149.227 -4.76481 2.4042 0
M  V30 1576 O 149.45 -5.52341 1.42391 0
M  V30 1577 O 148.384 -5.03367 3.30007 0
M  V30 1578 H 152.21 -1.8488 2.40942 0
M  V30 1579 H 149.795 -0.85647 1.22413 0
M  V30 1580 H 151.677 -4.01913 1.26665 0
M  V30 1581 H 150.352 -3.21438 0.382049 0
M  V30 1582 H 149.259 -2.65873 2.63177 0
M  V30 1583 H 150.592 -3.5119 3.44858 0
M  V30 1584 N 152.244 -1.26651 -0.937939 0
M  V30 1585 C 153.66 -1.03834 -1.21205 0
M  V30 1586 C 153.86 0.234502 -2.00131 0
M  V30 1587 O 152.916 0.942767 -2.3424 0
M  V30 1588 C 154.229 -2.27167 -1.97017 0
M  V30 1589 C 155.777 -2.32101 -2.09996 0
M  V30 1590 C 156.252 -3.55136 -2.8921 0
M  V30 1591 N 157.743 -3.55632 -2.96783 0
M  V30 1592 C 158.478 -4.475 -3.58512 0
M  V30 1593 N 157.974 -5.4966 -4.21717 0
M  V30 1594 N 159.767 -4.35145 -3.55816 0
M  V30 1595 H 151.918 -2.08398 -0.410391 0
M  V30 1596 H 154.181 -0.916031 -0.244114 0
M  V30 1597 H 153.887 -3.19765 -1.46434 0
M  V30 1598 H 153.761 -2.31672 -2.97671 0
M  V30 1599 H 156.148 -1.40015 -2.59769 0
M  V30 1600 H 156.229 -2.31605 -1.08594 0
M  V30 1601 H 155.873 -4.47553 -2.40123 0
M  V30 1602 H 155.803 -3.5288 -3.90875 0
M  V30 1603 H 158.294 -2.81743 -2.51852 0
M  V30 1604 H 158.607 -6.15943 -4.66727 0
M  V30 1605 H 156.952 -5.53514 -4.20294 0
M  V30 1606 H 160.143 -3.5455 -3.05634 0
M  V30 1607 H 160.316 -5.06934 -4.03636 0
M  V30 1608 N 153.722 1.14298 -1.08507 0
M  V30 1609 C 154.999 1.81544 -0.728088 0
M  V30 1610 C 155.379 1.95838 0.78808 0
M  V30 1611 O 154.727 1.51904 1.70697 0
M  V30 1612 C 154.937 3.17169 -1.45619 0
M  V30 1613 C 156.285 3.9265 -1.61591 0
M  V30 1614 O 157.309 3.26762 -1.41793 0
M  V30 1615 O 156.168 5.10807 -1.94263 0
M  V30 1616 H 153.262 0.78491 -0.260471 0
M  V30 1617 H 155.808 1.21307 -1.18671 0
M  V30 1618 H 154.58 3.01934 -2.489 0
M  V30 1619 H 154.203 3.851 -0.989124 0
M  V30 1620 N 155.201 0.870884 1.31352 0
M  V30 1621 C 156.131 0.343096 2.30966 0
M  V30 1622 C 157.112 -0.566507 1.60389 0
M  V30 1623 O 158.297 -0.483336 1.88089 0
M  V30 1624 C 155.427 -0.455487 3.443 0
M  V30 1625 C 154.381 0.361103 4.26474 0
M  V30 1626 C 153.707 -0.563221 5.31725 0
M  V30 1627 C 155.007 1.59566 4.97329 0
M  V30 1628 H 156.701 1.17548 2.75359 0
M  V30 1629 H 154.247 0.566686 1.32381 0
M  V30 1630 H 156.2 -0.83525 4.13039 0
M  V30 1631 H 154.924 -1.32139 2.98675 0
M  V30 1632 H 153.583 0.722825 3.59403 0
M  V30 1633 H 153.231 -1.42643 4.82351 0
M  V30 1634 H 152.931 -0.0207409 5.87596 0
M  V30 1635 H 154.455 -0.939808 6.03324 0
M  V30 1636 H 155.869 1.28728 5.58661 0
M  V30 1637 H 154.266 2.07728 5.63 0
M  V30 1638 H 155.336 2.34798 4.24262 0
M  V30 1639 N 156.679 -1.44442 0.630414 0
M  V30 1640 C 157.907 -2.06414 0.141671 0
M  V30 1641 C 158.322 -1.47105 -1.18345 0
M  V30 1642 O 157.679 -0.593662 -1.72574 0
M  V30 1643 C 157.73 -3.61494 0.0199784 0
M  V30 1644 O 157.451 -4.18594 1.29269 0
M  V30 1645 C 158.952 -4.40499 -0.497544 0
M  V30 1646 H 156.172 -0.666292 0.0793452 0
M  V30 1647 H 158.716 -1.85323 0.864614 0
M  V30 1648 H 156.871 -3.8185 -0.653402 0
M  V30 1649 H 157.285 -5.12026 1.13707 0
M  V30 1650 H 158.759 -5.49433 -0.531708 0
M  V30 1651 H 159.236 -4.11895 -1.52445 0
M  V30 1652 H 159.842 -4.25061 0.142562 0
M  V30 1653 N 158.157 -0.370918 -1.53173 0
M  V30 1654 C 159.087 0.464847 -2.28826 0
M  V30 1655 C 160.068 1.07936 -1.31468 0
M  V30 1656 O 161.253 1.0956 -1.60344 0
M  V30 1657 C 158.383 1.60196 -3.08147 0
M  V30 1658 C 157.337 1.11443 -4.13237 0
M  V30 1659 C 156.663 2.3422 -4.80672 0
M  V30 1660 C 157.963 0.195384 -5.21934 0
M  V30 1661 H 159.657 -0.166329 -2.98938 0
M  V30 1662 H 157.203 -0.0814359 -1.4377 0
M  V30 1663 H 159.156 2.19332 -3.59822 0
M  V30 1664 H 157.88 2.26045 -2.35735 0
M  V30 1665 H 156.539 0.545727 -3.62515 0
M  V30 1666 H 156.187 2.98537 -4.04827 0
M  V30 1667 H 155.887 2.02269 -5.51689 0
M  V30 1668 H 157.411 2.94032 -5.35143 0
M  V30 1669 H 158.825 0.694375 -5.69079 0
M  V30 1670 H 157.222 -0.0335027 -6.00091 0
M  V30 1671 H 158.292 -0.760961 -4.78892 0
M  V30 1672 N 159.635 1.57281 -0.100228 0
M  V30 1673 C 161.051 1.57527 0.256416 0
M  V30 1674 C 161.251 1.11173 1.68056 0
M  V30 1675 O 160.307 0.79053 2.39806 0
M  V30 1676 C 161.62 3.00673 0.0401747 0
M  V30 1677 C 163.168 3.12815 0.107528 0
M  V30 1678 C 163.643 4.57929 -0.0807834 0
M  V30 1679 N 165.134 4.63193 -0.0261207 0
M  V30 1680 C 165.869 5.73212 -0.146999 0
M  V30 1681 N 165.365 6.92047 -0.322999 0
M  V30 1682 N 167.158 5.62031 -0.0879044 0
M  V30 1683 H 159.309 1.85718 -1.03065 0
M  V30 1684 H 161.572 0.857446 -0.404339 0
M  V30 1685 H 161.278 3.38804 -0.943649 0
M  V30 1686 H 161.152 3.69042 0.780262 0
M  V30 1687 H 163.539 2.74554 1.08186 0
M  V30 1688 H 163.62 2.47028 -0.664134 0
M  V30 1689 H 163.264 4.96886 -1.05201 0
M  V30 1690 H 163.194 5.21783 0.710635 0
M  V30 1691 H 165.685 3.77748 0.107161 0
M  V30 1692 H 165.998 7.7173 -0.406608 0
M  V30 1693 H 164.343 6.94074 -0.358733 0
M  V30 1694 H 167.534 4.68075 0.048498 0
M  V30 1695 H 167.707 6.47734 -0.185557 0
M  V30 1696 N 161.113 -0.173488 1.56642 0
M  V30 1697 C 162.361 -0.888706 1.81512 0
M  V30 1698 C 162.682 -1.82875 0.676872 0
M  V30 1699 O 161.952 -1.93536 -0.303414 0
M  V30 1700 H 160.532 -0.331164 0.669582 0
M  V30 1701 H 163.194 -0.173823 1.94123 0
M  V30 1702 H 162.29 -1.46691 2.75478 0
M  V30 1703 N 162.591 -1.51276 -0.441967 0
M  V30 1704 C 163.554 -1.7167 -1.51862 0
M  V30 1705 C 164.554 -0.586793 -1.49711 0
M  V30 1706 O 165.744 -0.854276 -1.51815 0
M  V30 1707 C 162.876 -1.76889 -2.91416 0
M  V30 1708 H 164.069 -2.67754 -1.35084 0
M  V30 1709 H 161.622 -1.41196 -0.670333 0
M  V30 1710 H 162.357 -0.826026 -3.13604 0
M  V30 1711 H 162.142 -2.59001 -2.94382 0
M  V30 1712 H 163.632 -1.94522 -3.69528 0
M  V30 1713 N 164.069 0.697108 -1.41344 0
M  V30 1714 C 165.318 1.45279 -1.39918 0
M  V30 1715 C 165.631 1.95597 -0.0109624 0
M  V30 1716 O 166.837 2.71208 0.125919 0
M  V30 1717 C 165.293 2.62695 -2.46007 0
M  V30 1718 C 164.901 2.19169 -3.90729 0
M  V30 1719 C 166.645 3.40336 -2.53715 0
M  V30 1720 C 164.552 3.33535 -4.88373 0
M  V30 1721 H 163.482 0.545692 -0.520323 0
M  V30 1722 H 166.133 0.756929 -1.67161 0
M  V30 1723 H 164.515 3.34541 -2.11892 0
M  V30 1724 H 165.689 1.54623 -4.34083 0
M  V30 1725 H 164.004 1.54525 -3.86666 0
M  V30 1726 H 166.601 4.2547 -3.2385 0
M  V30 1727 H 166.944 3.85418 -1.5735 0
M  V30 1728 H 167.477 2.75546 -2.86913 0
M  V30 1729 H 164.216 2.93468 -5.86137 0
M  V30 1730 H 163.736 3.96936 -4.49668 0
M  V30 1731 H 165.415 3.99335 -5.09059 0
M  V30 1732 N 165.547 1.27147 0.931209 0
M  V30 1733 C 166.479 1.05364 2.03546 0
M  V30 1734 C 167.492 0.0108438 1.62796 0
M  V30 1735 O 168.681 0.25202 1.76712 0
M  V30 1736 C 165.781 0.575566 3.33977 0
M  V30 1737 C 164.954 1.68985 4.03439 0
M  V30 1738 C 164.013 1.20813 5.12143 0
M  V30 1739 O 163.039 1.90712 5.363 0
M  V30 1740 N 164.241 0.0618851 5.80467 0
M  V30 1741 H 167.006 2.00454 2.22796 0
M  V30 1742 H 164.567 1.18666 1.10136 0
M  V30 1743 H 166.559 0.237264 4.04004 0
M  V30 1744 H 165.129 -0.282016 3.11325 0
M  V30 1745 H 164.349 2.19861 3.27192 0
M  V30 1746 H 165.637 2.4378 4.46597 0
M  V30 1747 H 165.035 -0.521621 5.6329 0
M  V30 1748 H 163.592 -0.217264 6.51438 0
M  V30 1749 N 167.025 -1.13721 1.09112 0
M  V30 1750 C 168.271 -1.85198 0.826414 0
M  V30 1751 C 168.604 -1.83129 -0.646319 0
M  V30 1752 O 167.879 -1.2671 -1.47563 0
M  V30 1753 C 168.162 -3.33507 1.35812 0
M  V30 1754 C 168.015 -3.44108 2.89672 0
M  V30 1755 C 169.334 -4.28838 0.989256 0
M  V30 1756 H 166.453 -0.67243 0.301675 0
M  V30 1757 H 169.095 -1.33499 1.35197 0
M  V30 1758 H 167.245 -3.77666 0.911082 0
M  V30 1759 H 168.917 -3.08684 3.428 0
M  V30 1760 H 167.16 -2.85087 3.26967 0
M  V30 1761 H 167.831 -4.48388 3.21951 0
M  V30 1762 H 170.307 -3.92734 1.37475 0
M  V30 1763 H 169.183 -5.31051 1.38838 0
M  V30 1764 H 169.444 -4.4198 -0.102924 0
M  V30 1765 N 168.503 -0.877838 -1.30888 0
M  V30 1766 C 169.728 -0.506629 -2.01117 0
M  V30 1767 C 170.153 0.895564 -1.65412 0
M  V30 1768 O 169.511 1.5923 -0.866922 0
M  V30 1769 C 169.559 -0.680223 -3.54126 0
M  V30 1770 O 168.663 0.277033 -4.11468 0
M  V30 1771 H 168.004 -0.200518 -0.633 0
M  V30 1772 H 170.534 -1.18342 -1.66902 0
M  V30 1773 H 170.544 -0.5765 -4.03907 0
M  V30 1774 H 169.219 -1.70261 -3.79452 0
M  V30 1775 H 167.796 0.127606 -3.72682 0
M  V30 1776 N 169.982 1.44106 -0.638065 0
M  V30 1777 C 170.945 2.29138 0.0531013 0
M  V30 1778 C 171.945 1.41409 0.765506 0
M  V30 1779 O 173.135 1.63206 0.609046 0
M  V30 1780 C 170.267 3.23144 1.08584 0
M  V30 1781 H 171.46 2.91739 -0.694883 0
M  V30 1782 H 169.013 1.51134 -0.398538 0
M  V30 1783 H 169.748 2.65408 1.86357 0
M  V30 1784 H 169.533 3.87804 0.578852 0
M  V30 1785 H 171.023 3.87004 1.56899 0
M  V30 1786 N 171.46 0.379036 1.52974 0
M  V30 1787 C 172.706 -0.206727 2.01744 0
M  V30 1788 C 173.039 -1.47314 1.26539 0
M  V30 1789 O 172.314 -1.91084 0.362903 0
M  V30 1790 C 172.597 -0.485066 3.56818 0
M  V30 1791 C 172.45 0.795919 4.42702 0
M  V30 1792 C 173.769 -1.28003 4.21074 0
M  V30 1793 H 170.888 -0.0736607 0.73331 0
M  V30 1794 H 173.53 0.506581 1.83122 0
M  V30 1795 H 171.68 -1.09272 3.72816 0
M  V30 1796 H 173.352 1.43307 4.38476 0
M  V30 1797 H 171.595 1.41344 4.10127 0
M  V30 1798 H 172.266 0.555947 5.49193 0
M  V30 1799 H 174.742 -0.765867 4.08991 0
M  V30 1800 H 173.618 -1.44352 5.29579 0
M  V30 1801 H 173.879 -2.29236 3.78026 0
M  V30 1802 N 172.938 -1.57226 0.108567 0
M  V30 1803 C 174.349 -1.8195 -0.418464 0
M  V30 1804 C 174.7 -1.02508 -1.67292 0
M  V30 1805 O 173.825 -0.258496 -2.14851 0
M  V30 1806 C 174.42 -3.30028 -0.765979 0
M  V30 1807 C 172.979 -3.55469 -1.23769 0
M  V30 1808 C 172.126 -2.7625 -0.241106 0
M  V30 1809 H 175.077 -1.55149 0.33384 0
M  V30 1810 H 175.098 -3.44086 -1.62434 0
M  V30 1811 H 174.61 -3.87821 0.147219 0
M  V30 1812 H 172.711 -3.03022 -2.16814 0
M  V30 1813 H 172.824 -4.6408 -1.19022 0
M  V30 1814 H 171.188 -2.44133 -0.72602 0
M  V30 1815 H 171.971 -3.36797 0.665007 0
M  V30 1816 N 174.416 0.165178 -1.56732 0
M  V30 1817 C 175.662 0.882112 -1.82611 0
M  V30 1818 C 175.995 1.81628 -0.687378 0
M  V30 1819 O 175.27 1.92009 0.310267 0
M  V30 1820 C 175.553 1.67245 -3.18906 0
M  V30 1821 C 175.406 0.760987 -4.43316 0
M  V30 1822 C 176.725 2.63884 -3.52212 0
M  V30 1823 H 173.844 0.319242 -0.664269 0
M  V30 1824 H 176.486 0.148052 -1.89422 0
M  V30 1825 H 174.636 2.29824 -3.1323 0
M  V30 1826 H 176.308 0.147596 -4.61064 0
M  V30 1827 H 174.551 0.0694102 -4.33744 0
M  V30 1828 H 175.222 1.34962 -5.35247 0
M  V30 1829 H 177.698 2.11429 -3.58381 0
M  V30 1830 H 176.574 3.16245 -4.48643 0
M  V30 1831 H 176.835 3.44377 -2.77231 0
M  V30 1832 N 175.894 1.51508 0.433938 0
M  V30 1833 C 177.141 1.64345 1.18309 0
M  V30 1834 C 177.469 0.361315 1.91115 0
M  V30 1835 O 176.724 -0.654753 1.84422 0
M  V30 1836 C 177.023 2.79928 2.22205 0
M  V30 1837 C 176.689 4.19078 1.66387 0
M  V30 1838 C 175.351 4.56932 1.50887 0
M  V30 1839 C 177.703 5.05894 1.25381 0
M  V30 1840 C 175.031 5.79305 0.928608 0
M  V30 1841 C 177.383 6.2885 0.687823 0
M  V30 1842 C 176.047 6.65473 0.519755 0
M  V30 1843 H 175.317 0.601381 0.432923 0
M  V30 1844 H 177.964 1.85549 0.473676 0
M  V30 1845 H 176.269 2.52959 2.99197 0
M  V30 1846 H 177.966 2.87059 2.79997 0
M  V30 1847 H 174.556 3.89234 1.79428 0
M  V30 1848 H 178.74 4.77253 1.36175 0
M  V30 1849 H 173.996 6.06324 0.786186 0
M  V30 1850 H 178.17 6.95461 0.361581 0
M  V30 1851 H 175.797 7.6017 0.0679979 0
M  V30 1852 N 177.372 -0.689602 1.41712 0
M  V30 1853 C 178.304 -1.815 1.39966 0
M  V30 1854 C 179.317 -1.59995 0.300917 0
M  V30 1855 O 180.506 -1.69387 0.563039 0
M  V30 1856 C 177.606 -3.18364 1.16179 0
M  V30 1857 C 176.779 -3.66847 2.38206 0
M  V30 1858 C 175.838 -4.82398 2.10186 0
M  V30 1859 O 174.864 -4.93706 2.83272 0
M  V30 1860 N 176.066 -5.70064 1.0958 0
M  V30 1861 H 178.831 -1.83488 2.36965 0
M  V30 1862 H 176.392 -0.872149 1.36401 0
M  V30 1863 H 178.384 -3.93301 0.953756 0
M  V30 1864 H 176.954 -3.11365 0.27756 0
M  V30 1865 H 176.174 -2.82751 2.74673 0
M  V30 1866 H 177.462 -3.95978 3.19498 0
M  V30 1867 H 176.86 -5.63565 0.491019 0
M  V30 1868 H 175.417 -6.44874 0.947656 0
M  V30 1869 N 178.85 -1.27639 -0.924453 0
M  V30 1870 C 179.782 -1.06442 -2.02985 0
M  V30 1871 C 180.795 -0.0194771 -1.62788 0
M  V30 1872 O 181.984 -0.261388 -1.76576 0
M  V30 1873 C 179.084 -0.59327 -3.33667 0
M  V30 1874 C 178.257 -1.71123 -4.02537 0
M  V30 1875 C 177.316 -1.23527 -5.11495 0
M  V30 1876 O 176.342 -1.93553 -5.35281 0
M  V30 1877 N 177.544 -0.0926678 -5.80426 0
M  V30 1878 H 180.309 -2.01633 -2.2173 0
M  V30 1879 H 177.87 -1.19248 -1.09505 0
M  V30 1880 H 179.862 -0.258686 -4.03872 0
M  V30 1881 H 178.432 0.265502 -3.1147 0
M  V30 1882 H 177.652 -2.21593 -3.26022 0
M  V30 1883 H 178.94 -2.46145 -4.45298 0
M  V30 1884 H 178.338 0.491741 -5.63559 0
M  V30 1885 H 176.895 0.182714 -6.51544 0
M  V30 1886 N 180.328 1.1314 -1.09713 0
M  V30 1887 C 181.577 1.83838 -0.829851 0
M  V30 1888 C 181.89 1.84599 0.646728 0
M  V30 1889 O 183.096 2.51218 1.02965 0
M  V30 1890 C 181.552 3.30069 -1.43466 0
M  V30 1891 C 181.16 3.37688 -2.94399 0
M  V30 1892 C 182.904 4.05788 -1.24645 0
M  V30 1893 C 180.811 4.78209 -3.47952 0
M  V30 1894 H 179.741 0.68877 -0.306777 0
M  V30 1895 H 182.392 1.27448 -1.3202 0
M  V30 1896 H 180.774 3.8628 -0.871996 0
M  V30 1897 H 181.948 2.91456 -3.56918 0
M  V30 1898 H 180.263 2.75436 -3.12289 0
M  V30 1899 H 182.86 5.09535 -1.62107 0
M  V30 1900 H 183.203 4.15878 -0.187357 0
M  V30 1901 H 183.736 3.55915 -1.77678 0
M  V30 1902 H 180.475 4.73311 -4.53495 0
M  V30 1903 H 179.995 5.24924 -2.90198 0
M  V30 1904 H 181.674 5.47133 -3.45332 0
M  V30 1905 N 181.806 0.884767 1.30421 0
M  V30 1906 C 182.769 0.356277 2.26414 0
M  V30 1907 C 183.769 -0.501124 1.52792 0
M  V30 1908 O 184.959 -0.30831 1.7145 0
M  V30 1909 C 182.091 -0.492316 3.37326 0
M  V30 1910 H 183.284 1.20389 2.74675 0
M  V30 1911 H 180.837 0.661607 1.41607 0
M  V30 1912 H 181.572 -1.36052 2.94381 0
M  V30 1913 H 181.357 0.121832 3.91911 0
M  V30 1914 H 182.847 -0.853871 4.08777 0
M  V30 1915 N 183.284 -1.43765 0.645699 0
M  V30 1916 C 184.7 -1.56509 0.312591 0
M  V30 1917 C 184.9 -1.6307 -1.18365 0
M  V30 1918 O 183.956 -1.58167 -1.96824 0
M  V30 1919 C 185.269 -2.82968 1.01733 0
M  V30 1920 C 186.817 -2.96701 0.996865 0
M  V30 1921 C 187.292 -4.25982 1.68236 0
M  V30 1922 N 188.783 -4.32829 1.64964 0
M  V30 1923 C 189.518 -5.31613 2.14885 0
M  V30 1924 N 189.014 -6.36718 2.73061 0
M  V30 1925 N 190.807 -5.23217 2.05428 0
M  V30 1926 H 182.958 -1.3775 1.61675 0
M  V30 1927 H 185.221 -0.661067 0.679481 0
M  V30 1928 H 184.927 -2.84156 2.0724 0
M  V30 1929 H 184.801 -3.72957 0.564177 0
M  V30 1930 H 187.188 -2.95058 -0.0497719 0
M  V30 1931 H 187.269 -2.08022 1.48865 0
M  V30 1932 H 186.913 -4.28386 2.72852 0
M  V30 1933 H 186.843 -5.13545 1.16529 0
M  V30 1934 H 189.334 -3.57493 1.22503 0
M  V30 1935 H 189.647 -7.08401 3.08848 0
M  V30 1936 H 187.992 -6.37362 2.77118 0
M  V30 1937 H 191.183 -4.40019 1.59689 0
M  V30 1938 H 191.356 -6.00045 2.44643 0
M  V30 1939 N 184.763 -0.387143 -1.52771 0
M  V30 1940 C 185.673 0.456442 -2.30117 0
M  V30 1941 C 186.689 1.07342 -1.36944 0
M  V30 1942 O 187.865 1.07971 -1.70013 0
M  V30 1943 C 184.93 1.56957 -3.09136 0
M  V30 1944 C 183.991 0.977916 -4.18014 0
M  V30 1945 C 183.224 2.038 -4.93256 0
M  V30 1946 O 183.447 3.25271 -4.68567 0
M  V30 1947 O 182.381 1.6565 -5.78657 0
M  V30 1948 H 186.207 -0.17359 -3.03203 0
M  V30 1949 H 183.792 -0.150919 -1.48636 0
M  V30 1950 H 185.674 2.21628 -3.58412 0
M  V30 1951 H 184.349 2.18461 -2.38865 0
M  V30 1952 H 183.256 0.294525 -3.72939 0
M  V30 1953 H 184.589 0.407128 -4.90513 0
M  V30 1954 N 186.241 1.57166 -0.116904 0
M  V30 1955 C 187.487 1.95412 0.542405 0
M  V30 1956 C 187.82 1.00019 1.66463 0
M  V30 1957 O 187.095 0.0370346 1.94465 0
M  V30 1958 C 187.378 3.43615 1.07708 0
M  V30 1959 C 187.231 4.49781 -0.0415868 0
M  V30 1960 C 188.55 3.93616 1.96861 0
M  V30 1961 H 185.669 0.710543 0.195696 0
M  V30 1962 H 188.311 1.89027 -0.192038 0
M  V30 1963 H 186.461 3.49187 1.70296 0
M  V30 1964 H 188.133 4.56308 -0.676793 0
M  V30 1965 H 186.376 4.28033 -0.705019 0
M  V30 1966 H 187.047 5.50733 0.373717 0
M  V30 1967 H 189.523 3.90335 1.44146 0
M  V30 1968 H 188.399 4.97838 2.3119 0
M  V30 1969 H 188.66 3.34188 2.89432 0
M  V30 1970 N 187.719 -0.156864 1.56817 0
M  V30 1971 C 188.967 -0.869404 1.82444 0
M  V30 1972 C 189.288 -1.82147 0.69623 0
M  V30 1973 O 188.558 -1.93847 -0.28287 0
M  V30 1974 H 187.138 -0.324043 0.673056 0
M  V30 1975 H 189.8 -0.153224 1.94297 0
M  V30 1976 H 188.896 -1.43761 2.77019 0
M  V30 1977 N 189.197 -1.51736 -0.425897 0
M  V30 1978 C 190.107 -1.76738 -1.54275 0
M  V30 1979 C 191.123 -0.65211 -1.61318 0
M  V30 1980 O 192.299 -0.935654 -1.78346 0
M  V30 1981 C 189.364 -1.89755 -2.90162 0
M  V30 1982 C 188.425 -3.13633 -2.93143 0
M  V30 1983 C 187.658 -3.2602 -4.22548 0
M  V30 1984 O 187.881 -2.44067 -5.15546 0
M  V30 1985 O 186.815 -4.19071 -4.32046 0
M  V30 1986 H 190.641 -2.71502 -1.36089 0
M  V30 1987 H 188.226 -1.36376 -0.610069 0
M  V30 1988 H 190.108 -2.00236 -3.70788 0
M  V30 1989 H 188.783 -0.981785 -3.08452 0
M  V30 1990 H 187.69 -3.08622 -2.11431 0
M  V30 1991 H 189.023 -4.04936 -2.798 0
M  V30 1992 N 190.675 0.682077 -1.42076 0
M  V30 1993 C 191.921 1.44428 -1.42367 0
M  V30 1994 C 192.254 1.94164 -0.0373056 0
M  V30 1995 O 191.529 1.70429 0.937239 0
M  V30 1996 C 191.812 2.64654 -2.44194 0
M  V30 1997 C 191.665 2.20596 -3.91991 0
M  V30 1998 C 192.984 3.66865 -2.431 0
M  V30 1999 H 190.103 0.523834 -0.518428 0
M  V30 2000 H 192.745 0.77576 -1.73442 0
M  V30 2001 H 190.895 3.2169 -2.17826 0
M  V30 2002 H 192.567 1.68783 -4.29313 0
M  V30 2003 H 190.81 1.52242 -4.06208 0
M  V30 2004 H 191.481 3.06921 -4.58807 0
M  V30 2005 H 193.957 3.19531 -2.66532 0
M  V30 2006 H 192.833 4.48577 -3.16339 0
M  V30 2007 H 193.094 4.17493 -1.45437 0
M  V30 2008 N 192.153 1.28127 0.917671 0
M  V30 2009 C 193.569 1.05749 1.19538 0
M  V30 2010 C 193.769 -0.202633 2.00479 0
M  V30 2011 O 192.825 -0.905382 2.3571 0
M  V30 2012 C 194.138 2.30273 1.93378 0
M  V30 2013 C 195.686 2.35412 2.06277 0
M  V30 2014 C 196.161 3.59692 2.83524 0
M  V30 2015 N 197.652 3.60309 2.91087 0
M  V30 2016 C 198.387 4.53147 3.51348 0
M  V30 2017 N 197.883 5.563 4.12919 0
M  V30 2018 N 199.676 4.40751 3.48849 0
M  V30 2019 H 191.827 2.09024 0.377184 0
M  V30 2020 H 194.09 0.919798 0.22951 0
M  V30 2021 H 193.796 3.22055 1.41328 0
M  V30 2022 H 193.67 2.36378 2.93947 0
M  V30 2023 H 196.057 1.4413 2.57508 0
M  V30 2024 H 196.138 2.33304 1.04895 0
M  V30 2025 H 195.782 4.51316 2.32973 0
M  V30 2026 H 195.712 3.59054 3.85211 0
M  V30 2027 H 198.203 2.85714 2.47338 0
M  V30 2028 H 198.516 6.2329 4.56869 0
M  V30 2029 H 196.861 5.60131 4.11435 0
M  V30 2030 H 200.052 3.59367 2.99955 0
M  V30 2031 H 200.225 5.13291 3.9552 0
M  V30 2032 N 193.631 -1.12557 1.10312 0
M  V30 2033 C 194.564 -2.1737 0.694674 0
M  V30 2034 C 195.542 -1.59745 -0.303373 0
M  V30 2035 O 196.726 -1.87408 -0.202578 0
M  V30 2036 C 193.853 -3.38691 0.0248052 0
M  V30 2037 C 192.899 -4.14943 0.986121 0
M  V30 2038 S 193.732 -4.73413 2.50281 0
M  V30 2039 C 194.888 -5.9807 1.84562 0
M  V30 2040 H 195.121 -2.5168 1.58255 0
M  V30 2041 H 192.654 -1.23998 0.919992 0
M  V30 2042 H 194.612 -4.08959 -0.355361 0
M  V30 2043 H 193.273 -3.02664 -0.839851 0
M  V30 2044 H 192.466 -5.01854 0.464651 0
M  V30 2045 H 192.068 -3.50377 1.30813 0
M  V30 2046 H 194.36 -6.67232 1.17507 0
M  V30 2047 H 195.303 -6.54841 2.69423 0
M  V30 2048 H 195.711 -5.49073 1.31069 0
M  V30 2049 N 195.109 -0.891671 -1.2995 0
M  V30 2050 C 196.041 -0.320695 -2.26945 0
M  V30 2051 C 197.054 0.528497 -1.53983 0
M  V30 2052 O 198.243 0.346959 -1.75096 0
M  V30 2053 C 195.343 0.562066 -3.34207 0
M  V30 2054 C 194.516 -0.259576 -4.36629 0
M  V30 2055 C 193.575 0.554739 -5.23268 0
M  V30 2056 O 192.601 -0.0249311 -5.69195 0
M  V30 2057 N 193.803 1.8625 -5.4981 0
M  V30 2058 H 196.568 -1.15432 -2.76578 0
M  V30 2059 H 194.129 -0.755336 -1.432 0
M  V30 2060 H 196.121 1.11304 -3.89093 0
M  V30 2061 H 194.691 1.29637 -2.84452 0
M  V30 2062 H 193.911 -0.991986 -3.81514 0
M  V30 2063 H 195.199 -0.822564 -5.02107 0
M  V30 2064 H 194.597 2.35628 -5.14292 0
M  V30 2065 H 193.154 2.36078 -6.07545 0
M  V30 2066 N 196.587 1.43421 -0.653314 0
M  V30 2067 C 197.534 2.30768 0.0382271 0
M  V30 2068 C 198.504 1.44755 0.814576 0
M  V30 2069 O 199.689 1.73624 0.791162 0
M  V30 2070 C 196.829 3.30336 0.998599 0
M  V30 2071 C 195.942 4.31448 0.218342 0
M  V30 2072 C 195.077 5.18098 1.17252 0
M  V30 2073 C 194.116 6.10902 0.382702 0
M  V30 2074 N 193.253 6.90176 1.28848 0
M  V30 2075 H 198.093 2.89357 -0.712511 0
M  V30 2076 H 195.63 1.42548 -0.363128 0
M  V30 2077 H 197.588 3.86572 1.56901 0
M  V30 2078 H 196.218 2.73397 1.71621 0
M  V30 2079 H 195.27 3.77506 -0.46836 0
M  V30 2080 H 196.582 4.97227 -0.395812 0
M  V30 2081 H 195.736 5.7896 1.81356 0
M  V30 2082 H 194.475 4.52444 1.82058 0
M  V30 2083 H 193.48 5.49128 -0.27169 0
M  V30 2084 H 194.705 6.78598 -0.260957 0
M  V30 2085 H 192.651 6.27171 1.92334 0
M  V30 2086 H 192.568 7.52478 0.728887 0
M  V30 2087 H 193.836 7.55543 1.91766 0
M  V30 2088 N 198.065 0.39524 1.52563 0
M  V30 2089 C 199.295 -0.184675 2.05773 0
M  V30 2090 C 199.703 -1.40571 1.26635 0
M  V30 2091 O 199.046 -1.81105 0.30769 0
M  V30 2092 C 199.108 -0.613551 3.54226 0
M  V30 2093 C 198.772 0.49484 4.54313 0
M  V30 2094 C 199.769 1.3541 5.01956 0
M  V30 2095 C 197.454 0.663565 4.97898 0
M  V30 2096 C 199.448 2.36716 5.91814 0
M  V30 2097 C 197.135 1.67996 5.87555 0
M  V30 2098 C 198.133 2.53017 6.34406 0
M  V30 2099 O 197.821 3.52917 7.22291 0
M  V30 2100 H 197.553 -0.030077 0.675331 0
M  V30 2101 H 200.107 0.560708 1.97599 0
M  V30 2102 H 198.337 -1.411 3.60038 0
M  V30 2103 H 200.026 -1.11981 3.90148 0
M  V30 2104 H 200.792 1.23509 4.6901 0
M  V30 2105 H 196.671 0.0114913 4.60999 0
M  V30 2106 H 200.215 3.03113 6.28306 0
M  V30 2107 H 196.112 1.79933 6.19915 0
M  V30 2108 H 196.88 3.48996 7.40367 0
M  V30 2109 N 199.544 -1.57102 0.125237 0
M  V30 2110 C 200.474 -2.18659 -0.819174 0
M  V30 2111 C 201.455 -1.12843 -1.27281 0
M  V30 2112 O 202.64 -1.41104 -1.33429 0
M  V30 2113 C 199.77 -2.79096 -2.06695 0
M  V30 2114 C 198.724 -3.90548 -1.75088 0
M  V30 2115 C 198.05 -4.37821 -3.06948 0
M  V30 2116 C 199.35 -5.12356 -1.01435 0
M  V30 2117 H 201.044 -2.9783 -0.306202 0
M  V30 2118 H 198.59 -1.4326 -0.145839 0
M  V30 2119 H 200.543 -3.2082 -2.73226 0
M  V30 2120 H 199.267 -1.97223 -2.60328 0
M  V30 2121 H 197.926 -3.49409 -1.10944 0
M  V30 2122 H 197.574 -3.52799 -3.58527 0
M  V30 2123 H 197.274 -5.12982 -2.86571 0
M  V30 2124 H 198.798 -4.822 -3.74587 0
M  V30 2125 H 200.212 -5.5106 -1.58132 0
M  V30 2126 H 198.609 -5.9314 -0.911319 0
M  V30 2127 H 199.679 -4.849 -0.00218681 0
M  V30 2128 N 201.022 0.148545 -1.56898 0
M  V30 2129 C 201.969 1.18345 -1.98149 0
M  V30 2130 C 202.939 1.42772 -0.848848 0
M  V30 2131 O 204.124 1.55132 -1.11079 0
M  V30 2132 C 201.264 2.51231 -2.36594 0
M  V30 2133 C 200.377 2.33991 -3.63142 0
M  V30 2134 C 199.512 3.59902 -3.90697 0
M  V30 2135 C 198.551 3.37692 -5.1052 0
M  V30 2136 N 197.688 4.5573 -5.34092 0
M  V30 2137 H 202.528 0.82467 -2.86362 0
M  V30 2138 H 200.065 0.395756 -1.41676 0
M  V30 2139 H 202.023 3.28713 -2.56912 0
M  V30 2140 H 200.653 2.85059 -1.51463 0
M  V30 2141 H 199.705 1.47572 -3.50609 0
M  V30 2142 H 201.017 2.13539 -4.5078 0
M  V30 2143 H 200.171 4.45813 -4.11505 0
M  V30 2144 H 198.91 3.83357 -3.01477 0
M  V30 2145 H 197.915 2.5017 -4.89587 0
M  V30 2146 H 199.14 3.15637 -6.0129 0
M  V30 2147 H 197.086 4.79361 -4.47827 0
M  V30 2148 H 197.003 4.38274 -6.15996 0
M  V30 2149 H 198.271 5.42858 -5.59397 0
M  V30 2150 N 202.5 1.5196 0.417844 0
M  V30 2151 C 203.447 1.74678 1.50852 0
M  V30 2152 C 204.417 0.588947 1.55308 0
M  V30 2153 O 205.602 0.825544 1.72016 0
M  V30 2154 C 202.742 1.89544 2.88387 0
M  V30 2155 C 201.855 3.17166 2.93309 0
M  V30 2156 C 200.99 3.22513 4.22088 0
M  V30 2157 C 200.029 4.44372 4.20951 0
M  V30 2158 N 199.166 4.47161 5.41287 0
M  V30 2159 H 204.006 2.67768 1.30783 0
M  V30 2160 H 201.543 1.32689 0.63498 0
M  V30 2161 H 203.501 1.96146 3.68216 0
M  V30 2162 H 202.131 0.998424 3.06971 0
M  V30 2163 H 201.183 3.19778 2.06024 0
M  V30 2164 H 202.495 4.07021 2.88332 0
M  V30 2165 H 201.649 3.28139 5.10303 0
M  V30 2166 H 200.388 2.30581 4.29748 0
M  V30 2167 H 199.393 4.38902 3.31127 0
M  V30 2168 H 200.618 5.3759 4.14938 0
M  V30 2169 H 198.564 3.58108 5.49632 0
M  V30 2170 H 198.481 5.3085 5.3827 0
M  V30 2171 H 199.749 4.57005 6.3148 0
M  V30 2172 N 203.978 -0.674533 1.42435 0
M  V30 2173 C 205.225 -1.43459 1.42919 0
M  V30 2174 C 205.553 -1.94446 0.0457312 0
M  V30 2175 O 204.808 -1.7132 -0.94593 0
M  V30 2176 C 205.107 -2.64767 2.40069 0
M  V30 2177 C 204.773 -2.3232 3.86443 0
M  V30 2178 C 203.435 -2.23182 4.26314 0
M  V30 2179 C 205.787 -2.05977 4.78773 0
M  V30 2180 C 203.115 -1.85827 5.56494 0
M  V30 2181 C 205.467 -1.70125 6.09295 0
M  V30 2182 C 204.131 -1.59498 6.48164 0
M  V30 2183 H 203.401 -0.524952 0.522978 0
M  V30 2184 H 206.048 -0.769097 1.75377 0
M  V30 2185 H 204.353 -3.36349 2.00939 0
M  V30 2186 H 206.05 -3.22949 2.37707 0
M  V30 2187 H 202.64 -2.40334 3.54877 0
M  V30 2188 H 206.824 -2.11969 4.48757 0
M  V30 2189 H 202.08 -1.76168 5.8547 0
M  V30 2190 H 206.254 -1.48767 6.80324 0
M  V30 2191 H 203.881 -1.30322 7.48946 0
M  V30 2192 N 205.456 -1.28612 -0.910864 0
M  V30 2193 C 206.681 -1.1891 -1.69927 0
M  V30 2194 C 207.106 0.248372 -1.86453 0
M  V30 2195 O 206.464 1.17961 -1.37676 0
M  V30 2196 C 206.512 -1.89578 -3.06745 0
M  V30 2197 O 205.616 -1.20521 -3.94396 0
M  V30 2198 H 204.957 -0.412632 -0.520222 0
M  V30 2199 H 207.487 -1.69985 -1.1387 0
M  V30 2200 H 207.497 -1.97597 -3.56958 0
M  V30 2201 H 206.172 -2.94136 -2.94035 0
M  V30 2202 H 204.749 -1.20684 -3.52831 0
M  V30 2203 N 206.934 1.1197 -1.10907 0
M  V30 2204 C 208.164 1.8713 -0.875553 0
M  V30 2205 C 208.572 1.8016 0.577843 0
M  V30 2206 O 207.915 1.17699 1.41042 0
M  V30 2207 C 207.977 3.37005 -1.2517 0
M  V30 2208 C 207.641 3.67748 -2.71313 0
M  V30 2209 C 208.638 3.65698 -3.69542 0
M  V30 2210 C 206.323 3.96928 -3.07821 0
M  V30 2211 C 208.317 3.92395 -5.023 0
M  V30 2212 C 206.004 4.23284 -4.40765 0
M  V30 2213 C 207.002 4.21005 -5.37814 0
M  V30 2214 O 206.69 4.46704 -6.68364 0
M  V30 2215 H 206.422 0.598786 -0.313737 0
M  V30 2216 H 208.976 1.42568 -1.47863 0
M  V30 2217 H 207.206 3.82146 -0.591741 0
M  V30 2218 H 208.895 3.93519 -0.994877 0
M  V30 2219 H 209.661 3.43211 -3.42682 0
M  V30 2220 H 205.54 3.97841 -2.32902 0
M  V30 2221 H 209.084 3.90531 -5.78041 0
M  V30 2222 H 204.981 4.45246 -4.67361 0
M  V30 2223 H 205.749 4.64299 -6.74069 0
M  V30 2224 N 208.412 0.89855 1.29475 0
M  V30 2225 C 209.66 0.522847 1.9522 0
M  V30 2226 C 209.981 -0.93371 1.71192 0
M  V30 2227 O 209.251 -1.65823 1.04305 0
M  V30 2228 H 207.831 0.190366 0.722336 0
M  V30 2229 H 210.493 1.14459 1.5775 0
M  V30 2230 H 209.589 0.704476 3.04045 0
M  V30 2231 N 209.89 -1.43072 0.660911 0
M  V30 2232 C 210.838 -2.32569 -0.0378199 0
M  V30 2233 C 211.832 -1.49046 -0.805092 0
M  V30 2234 O 213.038 -1.65206 -0.714624 0
M  V30 2235 H 209.413 -0.75136 -0.031019 0
M  V30 2236 H 211.384 -2.89216 0.734609 0
M  V30 2237 C 210.133 -3.33453 -0.985124 0
M  V30 2238 H 209.456 -3.97752 -0.404147 0
M  V30 2239 H 210.896 -3.98691 -1.44297 0
M  V30 2240 C 209.355 -2.64642 -2.08486 0
M  V30 2241 O 209.885 -2.46776 -3.16961 0
M  V30 2242 N 208.091 -2.23891 -1.8526 0
M  V30 2243 H 207.638 -2.38621 -0.970449 0
M  V30 2244 H 207.596 -1.78181 -2.59034 0
M  V30 2245 N 211.368 -0.403325 -1.52352 0
M  V30 2246 C 212.3 0.4603 -2.2453 0
M  V30 2247 C 213.313 1.01505 -1.27282 0
M  V30 2248 O 214.502 0.914982 -1.53266 0
M  V30 2249 C 211.602 1.65208 -2.95905 0
M  V30 2250 C 210.775 1.22224 -4.19976 0
M  V30 2251 C 209.834 2.28028 -4.74226 0
M  V30 2252 O 208.86 1.88857 -5.36956 0
M  V30 2253 N 210.062 3.6012 -4.55295 0
M  V30 2254 H 212.827 -0.158156 -2.99282 0
M  V30 2255 H 210.388 -0.230402 -1.60252 0
M  V30 2256 H 212.38 2.35541 -3.29093 0
M  V30 2257 H 210.95 2.17658 -2.24374 0
M  V30 2258 H 210.17 0.34725 -3.92668 0
M  V30 2259 H 211.458 0.911924 -5.00561 0
M  V30 2260 H 210.856 3.94698 -4.05253 0
M  V30 2261 H 209.413 4.26447 -4.92936 0
M  V30 2262 N 212.846 1.57033 -0.133567 0
M  V30 2263 C 213.794 2.17348 0.828412 0
M  V30 2264 C 214.788 1.12671 1.26498 0
M  V30 2265 O 215.994 1.30947 1.23502 0
M  V30 2266 H 212.369 0.695775 0.285309 0
M  V30 2267 H 214.34 2.96935 0.295372 0
M  V30 2268 C 213.089 2.79893 2.06289 0
M  V30 2269 H 212.412 3.60147 1.73592 0
M  V30 2270 H 213.852 3.25615 2.71572 0
M  V30 2271 C 212.311 1.77713 2.86216 0
M  V30 2272 O 212.841 1.23937 3.82103 0
M  V30 2273 N 211.047 1.47321 2.50489 0
M  V30 2274 H 210.594 1.91243 1.7258 0
M  V30 2275 H 210.552 0.79199 3.04261 0
M  V30 2276 N 214.325 -0.140222 1.56975 0
M  V30 2277 C 215.574 -0.850152 1.82908 0
M  V30 2278 C 215.887 -1.82028 0.715892 0
M  V30 2279 O 217.093 -2.57485 0.861016 0
M  V30 2280 C 215.549 -1.5625 3.24213 0
M  V30 2281 C 215.157 -0.63443 4.43485 0
M  V30 2282 C 216.901 -2.25881 3.59413 0
M  V30 2283 C 214.808 -1.34879 5.75814 0
M  V30 2284 H 213.738 -0.321221 0.682153 0
M  V30 2285 H 216.389 -0.102874 1.83211 0
M  V30 2286 H 214.771 -2.35565 3.18316 0
M  V30 2287 H 215.945 0.12398 4.60633 0
M  V30 2288 H 214.26 -0.0461836 4.16374 0
M  V30 2289 H 216.857 -2.79978 4.5554 0
M  V30 2290 H 217.2 -3.02693 2.85802 0
M  V30 2291 H 217.733 -1.53477 3.67001 0
M  V30 2292 H 214.472 -0.622385 6.52539 0
M  V30 2293 H 213.992 -2.07974 5.6259 0
M  V30 2294 H 215.671 -1.88784 6.18845 0
M  V30 2295 N 215.803 -1.52179 -0.40978 0
M  V30 2296 C 217.028 -1.70347 -1.18308 0
M  V30 2297 C 217.453 -0.411887 -1.83535 0
M  V30 2298 O 216.811 0.630587 -1.6998 0
M  V30 2299 C 216.859 -2.83977 -2.22238 0
M  V30 2300 O 215.963 -2.495 -3.28365 0
M  V30 2301 H 215.304 -0.567103 -0.345384 0
M  V30 2302 H 217.834 -1.98879 -0.480445 0
M  V30 2303 H 217.844 -3.0887 -2.66577 0
M  V30 2304 H 216.519 -3.77685 -1.74146 0
M  V30 2305 H 215.096 -2.35277 -2.89308 0
M  V30 2306 N 217.281 0.66697 -1.42791 0
M  V30 2307 C 218.529 1.42417 -1.43394 0
M  V30 2308 C 218.85 1.94925 -0.0542373 0
M  V30 2309 O 218.12 1.73564 0.908415 0
M  V30 2310 H 216.7 0.528515 -0.527902 0
M  V30 2311 H 219.362 0.787562 -1.78279 0
M  V30 2312 H 218.458 2.27333 -2.13837 0
M  V30 2313 N 218.759 1.29093 0.90403 0
M  V30 2314 C 220.007 1.16583 1.65085 0
M  V30 2315 C 220.328 -0.283933 1.92922 0
M  V30 2316 O 219.598 -1.19509 1.55224 0
M  V30 2317 H 218.178 0.428467 0.611903 0
M  V30 2318 H 220.84 1.61959 1.08422 0
M  V30 2319 H 219.936 1.71266 2.6091 0
M  V30 2320 N 220.237 -1.11381 1.11499 0
M  V30 2321 C 221.486 -1.82494 0.858993 0
M  V30 2322 C 221.799 -1.85605 -0.617278 0
M  V30 2323 O 223.005 -2.52824 -0.989552 0
M  V30 2324 C 221.461 -3.27745 1.48699 0
M  V30 2325 C 221.069 -3.32961 2.99735 0
M  V30 2326 C 222.813 -4.03754 1.31085 0
M  V30 2327 C 220.72 -4.72612 3.55516 0
M  V30 2328 H 219.65 -0.683802 0.317696 0
M  V30 2329 H 222.301 -1.25331 1.34031 0
M  V30 2330 H 220.683 -3.84844 0.933339 0
M  V30 2331 H 221.857 -2.85741 3.61509 0
M  V30 2332 H 220.172 -2.70433 3.16631 0
M  V30 2333 H 222.769 -5.06891 1.70192 0
M  V30 2334 H 223.112 -4.15527 0.253496 0
M  V30 2335 H 223.645 -3.53043 1.83318 0
M  V30 2336 H 220.384 -4.66036 4.60967 0
M  V30 2337 H 219.904 -5.2024 2.98513 0
M  V30 2338 H 221.583 -5.4157 3.53992 0
M  V30 2339 N 221.715 -0.905404 -1.28997 0
M  V30 2340 C 222.992 -0.453513 -1.9027 0
M  V30 2341 C 223.372 1.06721 -1.82137 0
M  V30 2342 O 222.72 1.91159 -1.25182 0
M  V30 2343 C 222.93 -0.974494 -3.35119 0
M  V30 2344 C 224.278 -1.0216 -4.12127 0
M  V30 2345 O 225.302 -0.922557 -3.44046 0
M  V30 2346 O 224.161 -1.17121 -5.33802 0
M  V30 2347 H 221.255 -0.142347 -0.814657 0
M  V30 2348 H 223.801 -0.995642 -1.37423 0
M  V30 2349 H 222.573 -2.01848 -3.35221 0
M  V30 2350 H 222.196 -0.412706 -3.95452 0
M  V30 2351 N 223.193 1.4272 -0.668489 0
M  V30 2352 C 224.14 2.30796 0.0137489 0
M  V30 2353 C 225.11 1.4561 0.799177 0
M  V30 2354 O 226.295 1.74453 0.772702 0
M  V30 2355 C 223.435 3.31377 0.963507 0
M  V30 2356 C 222.548 4.31655 0.172569 0
M  V30 2357 C 221.683 5.19312 1.1175 0
M  V30 2358 C 220.722 6.11274 0.317886 0
M  V30 2359 N 219.859 6.91504 1.2152 0
M  V30 2360 H 224.699 2.88585 -0.743161 0
M  V30 2361 H 222.236 1.42154 -0.378226 0
M  V30 2362 H 224.194 3.88214 1.52792 0
M  V30 2363 H 222.824 2.75202 1.68712 0
M  V30 2364 H 221.876 3.76988 -0.508374 0
M  V30 2365 H 223.188 4.96779 -0.448527 0
M  V30 2366 H 222.342 5.80851 1.75206 0
M  V30 2367 H 221.081 4.5435 1.77249 0
M  V30 2368 H 220.086 5.48809 -0.329918 0
M  V30 2369 H 221.311 6.78283 -0.332917 0
M  V30 2370 H 219.257 6.29176 1.85671 0
M  V30 2371 H 219.174 7.53209 0.649036 0
M  V30 2372 H 220.442 7.57535 1.83742 0
M  V30 2373 N 224.671 0.411399 1.52136 0
M  V30 2374 C 225.918 -0.163645 2.01838 0
M  V30 2375 C 226.246 -1.4495 1.29691 0
M  V30 2376 O 225.501 -1.91725 0.392431 0
M  V30 2377 C 225.8 -0.455872 3.54481 0
M  V30 2378 C 225.466 0.741055 4.44769 0
M  V30 2379 C 224.128 1.06936 4.69167 0
M  V30 2380 C 226.48 1.54075 4.97906 0
M  V30 2381 C 223.808 2.19851 5.43951 0
M  V30 2382 C 226.16 2.66067 5.73926 0
M  V30 2383 C 224.824 2.99381 5.96596 0
M  V30 2384 H 224.094 -0.0598821 0.738576 0
M  V30 2385 H 226.741 0.553283 1.83333 0
M  V30 2386 H 225.046 -1.2544 3.71177 0
M  V30 2387 H 226.743 -0.913802 3.90449 0
M  V30 2388 H 223.333 0.475192 4.25958 0
M  V30 2389 H 227.517 1.30033 4.78963 0
M  V30 2390 H 222.773 2.46006 5.59724 0
M  V30 2391 H 226.947 3.28419 6.14096 0
M  V30 2392 H 224.574 3.86992 6.54325 0
M  V30 2393 N 226.149 -1.5696 0.141893 0
M  V30 2394 C 227.395 -1.97034 -0.504884 0
M  V30 2395 C 227.75 -1.02518 -1.62812 0
M  V30 2396 O 227.043 -0.0592943 -1.91508 0
M  V30 2397 C 227.237 -3.41242 -1.06249 0
M  V30 2398 C 227.066 -4.497 0.00519653 0
M  V30 2399 C 225.836 -5.03338 0.444873 0
M  V30 2400 C 228.034 -5.08122 0.794767 0
M  V30 2401 N 226.016 -5.95395 1.49593 0
M  V30 2402 C 227.387 -5.96339 1.69645 0
M  V30 2403 C 229.442 -4.9071 0.843122 0
M  V30 2404 C 228.145 -6.69009 2.64233 0
M  V30 2405 C 230.171 -5.64077 1.77681 0
M  V30 2406 C 229.533 -6.51999 2.66603 0
M  V30 2407 H 225.632 -0.766745 -0.153707 0
M  V30 2408 H 228.216 -1.93273 0.235313 0
M  V30 2409 H 226.387 -3.45606 -1.77231 0
M  V30 2410 H 228.119 -3.68389 -1.67546 0
M  V30 2411 H 224.874 -4.73576 0.0480959 0
M  V30 2412 H 225.298 -6.46128 2.02107 0
M  V30 2413 H 229.94 -4.22459 0.169732 0
M  V30 2414 H 227.658 -7.36492 3.32575 0
M  V30 2415 H 231.244 -5.52602 1.81996 0
M  V30 2416 H 230.124 -7.07775 3.37675 0
M  V30 2417 N 227.627 0.131896 -1.57047 0
M  V30 2418 C 228.557 1.16384 -2.02428 0
M  V30 2419 C 229.538 1.43936 -0.90644 0
M  V30 2420 O 230.723 1.54599 -1.17528 0
M  V30 2421 C 227.853 2.49328 -2.4177 0
M  V30 2422 C 226.807 2.36266 -3.56879 0
M  V30 2423 C 226.133 3.74057 -3.8208 0
M  V30 2424 C 227.433 1.834 -4.89042 0
M  V30 2425 H 229.127 0.786433 -2.88887 0
M  V30 2426 H 226.673 0.376855 -1.38981 0
M  V30 2427 H 228.626 3.21759 -2.7212 0
M  V30 2428 H 227.35 2.88934 -1.52266 0
M  V30 2429 H 226.009 1.66286 -3.26718 0
M  V30 2430 H 225.657 4.11125 -2.89803 0
M  V30 2431 H 225.357 3.66174 -4.59554 0
M  V30 2432 H 226.881 4.48012 -4.1487 0
M  V30 2433 H 228.295 2.45636 -5.18011 0
M  V30 2434 H 226.692 1.8637 -5.70426 0
M  V30 2435 H 227.762 0.790662 -4.7841 0
M  V30 2436 N 229.106 1.52395 0.401703 0
M  V30 2437 C 230.016 1.7917 1.51444 0
M  V30 2438 C 231.032 0.677691 1.6026 0
M  V30 2439 O 232.208 0.963909 1.76835 0
M  V30 2440 C 229.273 1.94347 2.87107 0
M  V30 2441 C 228.334 3.18257 2.88116 0
M  V30 2442 C 227.567 3.32701 4.17308 0
M  V30 2443 O 227.79 2.52238 5.11598 0
M  V30 2444 O 226.724 4.25891 4.25324 0
M  V30 2445 H 230.55 2.73633 1.31752 0
M  V30 2446 H 228.135 1.3733 0.588296 0
M  V30 2447 H 230.017 2.06109 3.67555 0
M  V30 2448 H 228.692 1.03073 3.06851 0
M  V30 2449 H 227.599 3.11947 2.06494 0
M  V30 2450 H 228.932 4.09336 2.73322 0
M  V30 2451 N 230.584 -0.659388 1.43143 0
M  V30 2452 C 231.832 -1.41654 1.44147 0
M  V30 2453 C 232.153 -1.94893 0.0645739 0
M  V30 2454 O 231.423 -1.74044 -0.899198 0
M  V30 2455 H 230.003 -0.525708 0.530697 0
M  V30 2456 H 232.665 -0.778097 1.78694 0
M  V30 2457 H 231.761 -2.26195 2.1504 0
M  V30 2458 N 232.062 -1.29571 -0.897171 0
M  V30 2459 C 232.994 -1.10724 -2.00681 0
M  V30 2460 C 234.007 -0.0540026 -1.6271 0
M  V30 2461 O 235.196 -0.298783 -1.75982 0
M  V30 2462 C 232.296 -0.663912 -3.32333 0
M  V30 2463 C 231.469 -1.79622 -3.98816 0
M  V30 2464 C 230.528 -1.34349 -5.0876 0
M  V30 2465 O 229.554 -2.04864 -5.31055 0
M  V30 2466 N 230.756 -0.215764 -5.80099 0
M  V30 2467 H 233.521 -2.06291 -2.17403 0
M  V30 2468 H 231.082 -1.21544 -1.06951 0
M  V30 2469 H 233.074 -0.344295 -4.03233 0
M  V30 2470 H 231.644 0.199375 -3.11964 0
M  V30 2471 H 230.864 -2.28459 -3.21248 0
M  V30 2472 H 232.152 -2.55535 -4.39976 0
M  V30 2473 H 231.55 0.372091 -5.64475 0
M  V30 2474 H 230.107 0.0444707 -6.51785 0
M  V30 2475 N 233.54 1.10788 -1.12088 0
M  V30 2476 C 234.47 2.19083 -0.807755 0
M  V30 2477 C 235.451 1.6858 0.226859 0
M  V30 2478 O 236.636 1.93997 0.0888475 0
M  V30 2479 C 233.766 3.46344 -0.257576 0
M  V30 2480 C 232.72 4.101 -1.22483 0
M  V30 2481 C 232.046 5.32016 -0.535052 0
M  V30 2482 C 233.346 4.54236 -2.57811 0
M  V30 2483 H 235.04 2.45534 -1.71328 0
M  V30 2484 H 232.586 1.1801 -0.825205 0
M  V30 2485 H 234.539 4.21392 -0.0262679 0
M  V30 2486 H 233.263 3.19373 0.683278 0
M  V30 2487 H 231.922 3.37054 -1.44189 0
M  V30 2488 H 231.57 5.01319 0.410827 0
M  V30 2489 H 231.27 5.75625 -1.18024 0
M  V30 2490 H 232.794 6.09799 -0.312695 0
M  V30 2491 H 234.208 5.20575 -2.40155 0
M  V30 2492 H 232.605 5.08682 -3.18375 0
M  V30 2493 H 233.675 3.6734 -3.16528 0
M  V30 2494 N 235.018 0.912232 1.28515 0
M  V30 2495 C 236.434 0.610159 1.47476 0
M  V30 2496 C 236.634 -0.844955 1.82928 0
M  V30 2497 O 235.69 -1.62416 1.93332 0
M  V30 2498 C 237.003 1.54675 2.57868 0
M  V30 2499 C 238.551 1.55331 2.71738 0
M  V30 2500 C 239.026 2.47649 3.85272 0
M  V30 2501 N 240.517 2.45767 3.92623 0
M  V30 2502 C 241.252 3.13896 4.79851 0
M  V30 2503 N 240.748 3.9135 5.71679 0
M  V30 2504 N 242.541 3.02991 4.73448 0
M  V30 2505 H 234.692 1.85318 1.03783 0
M  V30 2506 H 236.955 0.794777 0.516753 0
M  V30 2507 H 236.661 2.5841 2.38574 0
M  V30 2508 H 236.535 1.27671 3.54937 0
M  V30 2509 H 238.922 0.52335 2.90422 0
M  V30 2510 H 239.003 1.86378 1.75205 0
M  V30 2511 H 238.647 3.50745 3.67342 0
M  V30 2512 H 238.577 2.13904 4.81199 0
M  V30 2513 H 241.068 1.89503 3.26951 0
M  V30 2514 H 241.381 4.40359 6.35062 0
M  V30 2515 H 239.726 3.95455 5.71524 0
M  V30 2516 H 242.917 2.41987 4.007 0
M  V30 2517 H 243.09 3.5636 5.41213 0
M  V30 2518 N 236.496 -1.42363 0.676048 0
M  V30 2519 C 237.745 -2.00745 0.196037 0
M  V30 2520 C 238.058 -1.54083 -1.20489 0
M  V30 2521 O 239.264 -2.04891 -1.78134 0
M  V30 2522 C 237.72 -3.58651 0.299616 0
M  V30 2523 C 237.328 -4.143 1.70468 0
M  V30 2524 C 239.072 -4.24326 -0.121619 0
M  V30 2525 C 236.979 -5.64574 1.76096 0
M  V30 2526 H 235.909 -0.750787 0.0695301 0
M  V30 2527 H 238.56 -1.63072 0.841412 0
M  V30 2528 H 236.942 -3.93833 -0.413673 0
M  V30 2529 H 238.116 -3.90575 2.44515 0
M  V30 2530 H 236.431 -3.61081 2.07387 0
M  V30 2531 H 239.028 -5.34607 -0.0997362 0
M  V30 2532 H 239.371 -3.99897 -1.15708 0
M  V30 2533 H 239.904 -3.94108 0.540706 0
M  V30 2534 H 236.643 -5.93804 2.77628 0
M  V30 2535 H 236.163 -5.90286 1.06406 0
M  V30 2536 H 237.842 -6.29013 1.51496 0
M  V30 2537 N 237.974 -0.419461 -1.51915 0
M  V30 2538 C 239.199 0.154572 -2.06823 0
M  V30 2539 C 239.624 1.3722 -1.28656 0
M  V30 2540 O 238.982 1.78461 -0.319583 0
M  V30 2541 C 239.03 0.473172 -3.57482 0
M  V30 2542 O 238.134 1.56255 -3.81652 0
M  V30 2543 H 237.475 0.0096924 -0.663929 0
M  V30 2544 H 240.005 -0.595642 -1.95738 0
M  V30 2545 H 240.015 0.728825 -4.01438 0
M  V30 2546 H 238.69 -0.416873 -4.13805 0
M  V30 2547 H 237.267 1.29825 -3.49571 0
M  V30 2548 N 239.452 1.56882 -0.150215 0
M  V30 2549 C 240.415 2.1573 0.774157 0
M  V30 2550 C 241.415 1.0999 1.17298 0
M  V30 2551 O 242.605 1.35613 1.09338 0
M  V30 2552 C 239.737 2.72302 2.05096 0
M  V30 2553 H 240.93 2.98752 0.262201 0
M  V30 2554 H 238.483 1.55985 0.099248 0
M  V30 2555 H 239.218 1.92956 2.6065 0
M  V30 2556 H 239.003 3.49665 1.77416 0
M  V30 2557 H 240.493 3.17632 2.71109 0
M  V30 2558 N 240.93 -0.123565 1.57115 0
M  V30 2559 C 242.176 -0.833386 1.84885 0
M  V30 2560 C 242.509 -1.79742 0.735292 0
M  V30 2561 O 241.784 -1.92764 -0.25925 0
M  V30 2562 C 242.067 -1.5873 3.23228 0
M  V30 2563 C 241.92 -0.643183 4.45178 0
M  V30 2564 C 243.239 -2.54453 3.59085 0
M  V30 2565 H 240.358 -0.301518 0.6725 0
M  V30 2566 H 243 -0.097778 1.89748 0
M  V30 2567 H 241.15 -2.21438 3.19214 0
M  V30 2568 H 242.822 -0.0253015 4.61293 0
M  V30 2569 H 241.065 0.0456139 4.33776 0
M  V30 2570 H 241.736 -1.20724 5.38637 0
M  V30 2571 H 244.212 -2.01853 3.63861 0
M  V30 2572 H 243.088 -3.04238 4.5687 0
M  V30 2573 H 243.349 -3.36906 2.86264 0
M  V30 2574 N 242.408 -1.52605 -0.393616 0
M  V30 2575 C 243.356 -1.77688 -1.50099 0
M  V30 2576 C 244.35 -0.644615 -1.56656 0
M  V30 2577 O 245.556 -0.826997 -1.59877 0
M  V30 2578 H 241.931 -0.562159 -0.499481 0
M  V30 2579 H 243.902 -2.7043 -1.26135 0
M  V30 2580 C 242.651 -1.95858 -2.87289 0
M  V30 2581 H 241.974 -2.8241 -2.82992 0
M  V30 2582 H 243.414 -2.174 -3.64024 0
M  V30 2583 C 241.873 -0.729848 -3.28899 0
M  V30 2584 O 242.403 0.0949217 -4.01588 0
M  V30 2585 N 240.609 -0.561283 -2.85128 0
M  V30 2586 H 240.156 -1.23357 -2.26143 0
M  V30 2587 H 240.114 0.2595 -3.13327 0
M  V30 2588 N 243.887 0.651787 -1.4349 0
M  V30 2589 C 244.819 1.77725 -1.44729 0
M  V30 2590 C 245.832 1.59141 -0.343231 0
M  V30 2591 O 247.021 1.67835 -0.607751 0
M  V30 2592 C 244.121 3.15172 -1.24579 0
M  V30 2593 C 243.294 3.60402 -2.47849 0
M  V30 2594 C 242.353 4.76656 -2.22902 0
M  V30 2595 O 241.379 4.86022 -2.96263 0
M  V30 2596 N 242.581 5.66958 -1.24656 0
M  V30 2597 H 245.346 1.77141 -2.41746 0
M  V30 2598 H 242.907 0.835678 -1.38665 0
M  V30 2599 H 244.899 3.90634 -1.0577 0
M  V30 2600 H 243.469 3.1052 -0.360015 0
M  V30 2601 H 242.689 2.75369 -2.82073 0
M  V30 2602 H 243.977 3.87368 -3.29884 0
M  V30 2603 H 243.375 5.62065 -0.640265 0
M  V30 2604 H 241.932 6.42135 -1.1183 0
M  V30 2605 N 245.365 1.30045 0.890287 0
M  V30 2606 C 246.611 1.18737 1.64406 0
M  V30 2607 C 246.944 -0.258525 1.92472 0
M  V30 2608 O 246.219 -1.18562 1.54186 0
M  V30 2609 C 246.502 2.01087 2.98724 0
M  V30 2610 C 246.355 3.53867 2.77665 0
M  V30 2611 C 247.674 1.84457 3.9958 0
M  V30 2612 H 244.793 0.432698 0.596608 0
M  V30 2613 H 247.435 1.5962 1.0306 0
M  V30 2614 H 245.585 1.66349 3.51084 0
M  V30 2615 H 247.257 3.98637 2.32133 0
M  V30 2616 H 245.5 3.78318 2.12269 0
M  V30 2617 H 246.171 4.06772 3.7315 0
M  V30 2618 H 248.647 2.14817 3.56361 0
M  V30 2619 H 247.523 2.44411 4.91482 0
M  V30 2620 H 247.784 0.802276 4.3476 0
M  V30 2621 N 246.843 -1.10192 1.12674 0
M  V30 2622 C 247.753 -2.20172 0.810026 0
M  V30 2623 C 248.769 -1.72821 -0.202188 0
M  V30 2624 O 249.945 -2.01369 -0.0351691 0
M  V30 2625 C 247.01 -3.45631 0.272007 0
M  V30 2626 C 246.071 -4.07704 1.34447 0
M  V30 2627 C 245.304 -5.27175 0.832029 0
M  V30 2628 O 245.527 -5.69425 -0.333284 0
M  V30 2629 O 244.461 -5.80168 1.60277 0
M  V30 2630 H 248.287 -2.49701 1.72867 0
M  V30 2631 H 245.872 -1.18977 0.903597 0
M  V30 2632 H 247.754 -4.21394 -0.0230219 0
M  V30 2633 H 246.429 -3.17723 -0.619164 0
M  V30 2634 H 245.336 -3.33614 1.6927 0
M  V30 2635 H 246.669 -4.3982 2.2095 0
M  V30 2636 N 248.321 -0.919034 -1.28029 0
M  V30 2637 C 249.568 -0.554934 -1.94748 0
M  V30 2638 C 249.896 0.90231 -1.72304 0
M  V30 2639 O 249.151 1.65767 -1.04018 0
M  V30 2640 C 249.45 -0.816855 -3.4794 0
M  V30 2641 C 249.116 -2.25448 -3.90492 0
M  V30 2642 C 247.778 -2.64752 -4.01821 0
M  V30 2643 C 250.13 -3.18977 -4.12193 0
M  V30 2644 C 247.458 -3.96727 -4.32232 0
M  V30 2645 C 249.81 -4.50523 -4.44086 0
M  V30 2646 C 248.474 -4.89673 -4.53626 0
M  V30 2647 H 247.744 -0.203065 -0.712633 0
M  V30 2648 H 250.391 -1.16136 -1.52265 0
M  V30 2649 H 248.696 -0.127677 -3.91592 0
M  V30 2650 H 250.393 -0.514238 -3.97689 0
M  V30 2651 H 246.983 -1.93952 -3.82205 0
M  V30 2652 H 251.167 -2.89817 -4.02889 0
M  V30 2653 H 246.423 -4.26754 -4.37825 0
M  V30 2654 H 250.597 -5.23005 -4.59825 0
M  V30 2655 H 248.224 -5.91969 -4.76946 0
M  V30 2656 N 249.799 1.42003 -0.683588 0
M  V30 2657 C 250.729 2.33487 -0.024866 0
M  V30 2658 C 251.71 1.51163 0.779975 0
M  V30 2659 O 252.895 1.79739 0.735362 0
M  V30 2660 C 250.025 3.3487 0.920836 0
M  V30 2661 C 248.979 4.27414 0.223958 0
M  V30 2662 C 248.305 5.19074 1.2832 0
M  V30 2663 C 249.605 5.14445 -0.90242 0
M  V30 2664 H 251.299 2.88819 -0.788921 0
M  V30 2665 H 248.845 1.38873 -0.38083 0
M  V30 2666 H 250.798 3.97787 1.39081 0
M  V30 2667 H 249.522 2.77861 1.71642 0
M  V30 2668 H 248.181 3.65904 -0.225864 0
M  V30 2669 H 247.829 4.58387 2.071 0
M  V30 2670 H 247.529 5.81822 0.821995 0
M  V30 2671 H 249.053 5.84867 1.75392 0
M  V30 2672 H 250.467 5.70998 -0.513272 0
M  V30 2673 H 248.864 5.86072 -1.28997 0
M  V30 2674 H 249.934 4.52322 -1.74737 0
M  V30 2675 N 251.277 0.427512 1.51691 0
M  V30 2676 C 252.187 -0.39527 2.31246 0
M  V30 2677 C 253.203 -1.03674 1.39742 0
M  V30 2678 O 254.379 -1.03425 1.72816 0
M  V30 2679 C 251.444 -1.48706 3.13189 0
M  V30 2680 C 250.505 -0.866743 4.20459 0
M  V30 2681 C 249.738 -1.90651 4.98486 0
M  V30 2682 O 249.961 -3.12733 4.77026 0
M  V30 2683 O 248.895 -1.5025 5.82845 0
M  V30 2684 H 252.721 0.253918 3.02637 0
M  V30 2685 H 250.306 0.190274 1.48183 0
M  V30 2686 H 252.188 -2.12047 3.64162 0
M  V30 2687 H 250.863 -2.12051 2.44573 0
M  V30 2688 H 249.77 -0.195544 3.73589 0
M  V30 2689 H 251.103 -0.276934 4.9142 0
M  V30 2690 N 252.755 -1.56801 0.158532 0
M  V30 2691 C 253.98 -2.01295 -0.499516 0
M  V30 2692 C 254.405 -1.03799 -1.56867 0
M  V30 2693 O 253.763 -0.0155162 -1.81293 0
M  V30 2694 C 253.811 -3.44469 -1.06647 0
M  V30 2695 O 252.915 -3.50012 -2.18095 0
M  V30 2696 H 252.256 -0.652884 -0.12099 0
M  V30 2697 H 254.786 -2.02958 0.258661 0
M  V30 2698 H 254.796 -3.8351 -1.39227 0
M  V30 2699 H 253.471 -4.14932 -0.283581 0
M  V30 2700 H 252.048 -3.22822 -1.86656 0
M  V30 2701 N 254.233 0.115231 -1.57178 0
M  V30 2702 C 255.163 1.1423 -2.03651 0
M  V30 2703 C 256.144 1.42967 -0.921655 0
M  V30 2704 O 257.329 1.53343 -1.19162 0
M  V30 2705 C 254.459 2.4675 -2.44401 0
M  V30 2706 C 253.413 2.32467 -3.59365 0
M  V30 2707 C 252.739 3.69984 -3.86026 0
M  V30 2708 C 254.039 1.78203 -4.90959 0
M  V30 2709 H 255.733 0.755749 -2.89705 0
M  V30 2710 H 253.279 0.362093 -1.39373 0
M  V30 2711 H 255.232 3.18854 -2.75517 0
M  V30 2712 H 253.956 2.87302 -1.55322 0
M  V30 2713 H 252.615 1.62811 -3.28463 0
M  V30 2714 H 252.263 4.08028 -2.94147 0
M  V30 2715 H 251.963 3.61279 -4.63412 0
M  V30 2716 H 253.487 4.43587 -4.19599 0
M  V30 2717 H 254.901 2.40128 -5.20587 0
M  V30 2718 H 253.298 1.8031 -5.72371 0
M  V30 2719 H 254.368 0.739876 -4.79222 0
M  V30 2720 N 255.711 1.52812 0.385517 0
M  V30 2721 C 256.941 1.71658 1.14966 0
M  V30 2722 C 257.349 0.436253 1.84102 0
M  V30 2723 O 256.692 -0.599313 1.73649 0
M  V30 2724 C 256.754 2.81309 2.23843 0
M  V30 2725 C 256.418 4.22313 1.74644 0
M  V30 2726 C 257.415 5.05352 1.22129 0
M  V30 2727 C 255.1 4.68648 1.80761 0
M  V30 2728 C 257.094 6.32807 0.763838 0
M  V30 2729 C 254.781 5.96086 1.34627 0
M  V30 2730 C 255.779 6.77996 0.825264 0
M  V30 2731 O 255.467 8.03045 0.370669 0
M  V30 2732 H 255.199 0.578022 0.350523 0
M  V30 2733 H 257.753 2.00263 0.456509 0
M  V30 2734 H 255.983 2.48133 2.96592 0
M  V30 2735 H 257.672 2.88524 2.85497 0
M  V30 2736 H 258.438 4.70736 1.16758 0
M  V30 2737 H 254.317 4.04979 2.20256 0
M  V30 2738 H 257.861 6.96689 0.356494 0
M  V30 2739 H 253.758 6.30205 1.39686 0
M  V30 2740 H 254.526 8.17021 0.491829 0
M  V30 2741 N 257.189 -0.644168 1.43834 0
M  V30 2742 C 258.119 -1.76814 1.52509 0
M  V30 2743 C 259.1 -1.65823 0.379052 0
M  V30 2744 O 260.285 -1.84781 0.597466 0
M  V30 2745 C 257.415 -3.15288 1.4564 0
M  V30 2746 C 256.369 -3.41053 2.58586 0
M  V30 2747 C 255.695 -4.79421 2.36769 0
M  V30 2748 C 256.995 -3.34902 4.00797 0
M  V30 2749 H 258.689 -1.69812 2.46586 0
M  V30 2750 H 256.235 -0.815542 1.1868 0
M  V30 2751 H 258.188 -3.93681 1.50311 0
M  V30 2752 H 256.912 -3.23043 0.480725 0
M  V30 2753 H 255.571 -2.65035 2.53282 0
M  V30 2754 H 255.219 -4.83863 1.37424 0
M  V30 2755 H 254.919 -4.9762 3.12487 0
M  V30 2756 H 256.443 -5.6006 2.43238 0
M  V30 2757 H 257.857 -4.03218 4.07539 0
M  V30 2758 H 256.254 -3.64637 4.76613 0
M  V30 2759 H 257.324 -2.32928 4.25291 0
M  V30 2760 N 258.668 -1.30515 -0.883378 0
M  V30 2761 C 259.616 -1.16941 -2.01066 0
M  V30 2762 C 260.61 -0.0809148 -1.69207 0
M  V30 2763 O 261.816 -0.241877 -1.78367 0
M  V30 2764 H 258.191 -0.361705 -0.659298 0
M  V30 2765 H 260.162 -2.12344 -2.09649 0
M  V30 2766 C 258.911 -0.879694 -3.36388 0
M  V30 2767 H 258.234 -1.70936 -3.61415 0
M  V30 2768 H 259.674 -0.82483 -4.159 0
M  V30 2769 C 258.133 0.417409 -3.34304 0
M  V30 2770 O 258.663 1.43843 -3.75063 0
M  V30 2771 N 256.869 0.429141 -2.87414 0
M  V30 2772 H 256.416 -0.402222 -2.5444 0
M  V30 2773 H 256.374 1.29696 -2.86403 0
M  V30 2774 N 260.146 1.09593 -1.13257 0
M  V30 2775 C 261.093 2.1618 -0.808381 0
M  V30 2776 C 262.063 1.64517 0.228754 0
M  V30 2777 O 263.248 1.9053 0.101381 0
M  V30 2778 C 260.388 3.43973 -0.278675 0
M  V30 2779 C 259.501 4.09545 -1.37466 0
M  V30 2780 C 258.636 5.25088 -0.803479 0
M  V30 2781 C 257.675 5.82579 -1.87799 0
M  V30 2782 N 256.812 6.89486 -1.32488 0
M  V30 2783 H 261.652 2.43254 -1.72138 0
M  V30 2784 H 259.189 1.19392 -0.859294 0
M  V30 2785 H 261.147 4.17174 0.0465583 0
M  V30 2786 H 259.777 3.17223 0.597459 0
M  V30 2787 H 258.829 3.34226 -1.81652 0
M  V30 2788 H 260.141 4.48307 -2.18684 0
M  V30 2789 H 259.295 6.05178 -0.429427 0
M  V30 2790 H 258.034 4.87684 0.0397956 0
M  V30 2791 H 257.039 5.01152 -2.26113 0
M  V30 2792 H 258.264 6.22045 -2.72463 0
M  V30 2793 H 256.21 6.54064 -0.503575 0
M  V30 2794 H 256.127 7.27007 -2.07355 0
M  V30 2795 H 257.395 7.73336 -0.978336 0
M  V30 2796 N 261.624 0.925811 1.2754 0
M  V30 2797 C 262.554 0.440748 2.29303 0
M  V30 2798 C 263.535 -0.497971 1.62648 0
M  V30 2799 O 264.72 -0.403126 1.8997 0
M  V30 2800 C 261.85 -0.309048 3.45922 0
M  V30 2801 C 260.804 0.54166 4.24559 0
M  V30 2802 C 260.13 -0.337191 5.33636 0
M  V30 2803 C 261.43 1.80516 4.90114 0
M  V30 2804 H 263.124 1.29121 2.70126 0
M  V30 2805 H 260.67 0.622323 1.29858 0
M  V30 2806 H 262.623 -0.659315 4.1621 0
M  V30 2807 H 261.347 -1.19352 3.04011 0
M  V30 2808 H 260.006 0.874609 3.56014 0
M  V30 2809 H 259.654 -1.22056 4.87966 0
M  V30 2810 H 259.354 0.228497 5.87156 0
M  V30 2811 H 260.878 -0.683072 6.06767 0
M  V30 2812 H 262.292 1.52307 5.52698 0
M  V30 2813 H 260.689 2.3142 5.53683 0
M  V30 2814 H 261.759 2.52581 4.13921 0
M  V30 2815 N 263.102 -1.41638 0.69111 0
M  V30 2816 C 264.327 -2.06148 0.227583 0
M  V30 2817 C 264.752 -1.51652 -1.11281 0
M  V30 2818 O 264.11 -0.64164 -1.69566 0
M  V30 2819 C 264.158 -3.60095 0.190858 0
M  V30 2820 O 263.262 -4.03845 -0.835664 0
M  V30 2821 H 262.603 -0.654434 0.112306 0
M  V30 2822 H 265.133 -1.81484 0.944714 0
M  V30 2823 H 265.143 -4.07995 0.020207 0
M  V30 2824 H 263.818 -3.99129 1.16915 0
M  V30 2825 H 262.395 -3.67458 -0.63473 0
M  V30 2826 N 264.58 -0.43555 -1.51462 0
M  V30 2827 C 265.543 0.365137 -2.26273 0
M  V30 2828 C 266.543 0.951227 -1.29647 0
M  V30 2829 O 267.733 0.825958 -1.53374 0
M  V30 2830 C 264.865 1.51645 -3.05314 0
M  V30 2831 H 266.058 -0.290474 -2.9849 0
M  V30 2832 H 263.611 -0.188676 -1.55157 0
M  V30 2833 H 264.346 2.20816 -2.3751 0
M  V30 2834 H 264.131 1.10238 -3.76284 0
M  V30 2835 H 265.621 2.08218 -3.61987 0
M  V30 2836 N 266.058 1.56714 -0.166846 0
M  V30 2837 C 267.283 2.01557 0.488833 0
M  V30 2838 C 267.708 1.0463 1.56314 0
M  V30 2839 O 267.066 0.0251304 1.81283 0
M  V30 2840 C 267.114 3.4503 1.04818 0
M  V30 2841 O 266.218 3.51163 2.16236 0
M  V30 2842 H 265.559 0.653516 0.117526 0
M  V30 2843 H 268.089 2.02818 -0.269421 0
M  V30 2844 H 268.099 3.84243 1.37191 0
M  V30 2845 H 266.774 4.15077 0.261572 0
M  V30 2846 H 265.351 3.23807 1.84942 0
M  V30 2847 N 267.536 -0.106894 1.57237 0
M  V30 2848 C 268.483 -1.13049 2.01217 0
M  V30 2849 C 269.453 -1.40471 0.886403 0
M  V30 2850 O 270.638 -1.52133 1.15153 0
M  V30 2851 C 267.778 -2.4487 2.43172 0
M  V30 2852 C 266.891 -2.24281 3.69218 0
M  V30 2853 C 266.026 -3.49417 4.00101 0
M  V30 2854 C 265.065 -3.24038 5.19294 0
M  V30 2855 N 264.202 -4.41409 5.45988 0
M  V30 2856 H 269.042 -0.748456 2.88448 0
M  V30 2857 H 266.579 -0.358054 1.42676 0
M  V30 2858 H 268.537 -3.21786 2.65537 0
M  V30 2859 H 267.167 -2.80944 1.58967 0
M  V30 2860 H 266.219 -1.38224 3.54398 0
M  V30 2861 H 267.531 -2.01512 4.56283 0
M  V30 2862 H 266.685 -4.34746 4.2318 0
M  V30 2863 H 265.424 -3.75229 3.11535 0
M  V30 2864 H 264.429 -2.37102 4.96047 0
M  V30 2865 H 265.654 -2.99584 6.09447 0
M  V30 2866 H 263.6 -4.67319 4.60379 0
M  V30 2867 H 263.517 -4.21788 6.274 0
M  V30 2868 H 264.785 -5.27836 5.73593 0
M  V30 2869 N 269.014 -1.53014 -0.377408 0
M  V30 2870 C 269.924 -1.81557 -1.48574 0
M  V30 2871 C 270.94 -0.703102 -1.59162 0
M  V30 2872 O 272.116 -0.99192 -1.75279 0
M  V30 2873 C 269.181 -1.9889 -2.83978 0
M  V30 2874 C 268.242 -3.22801 -2.83016 0
M  V30 2875 C 267.475 -3.39298 -4.11962 0
M  V30 2876 O 267.698 -2.60345 -5.0752 0
M  V30 2877 O 266.632 -4.32604 -4.18494 0
M  V30 2878 H 270.458 -2.75695 -1.27382 0
M  V30 2879 H 268.043 -1.38248 -0.566373 0
M  V30 2880 H 269.925 -2.11931 -3.6423 0
M  V30 2881 H 268.6 -1.07942 -3.05172 0
M  V30 2882 H 267.507 -3.15193 -2.01505 0
M  V30 2883 H 268.84 -4.13632 -2.66775 0
M  V30 2884 N 270.492 0.636531 -1.44174 0
M  V30 2885 C 271.44 1.76995 -1.50915 0
M  V30 2886 C 272.434 1.65053 -0.381295 0
M  V30 2887 O 273.64 1.71197 -0.55601 0
M  V30 2888 H 270.015 0.584247 -0.473455 0
M  V30 2889 H 271.986 1.68432 -2.4632 0
M  V30 2890 C 270.735 3.15314 -1.46534 0
M  V30 2891 H 270.058 3.25149 -2.32633 0
M  V30 2892 H 271.498 3.9453 -1.55312 0
M  V30 2893 C 269.957 3.3639 -0.185305 0
M  V30 2894 O 270.487 3.94699 0.746688 0
M  V30 2895 N 268.693 2.9046 -0.0901606 0
M  V30 2896 H 268.24 2.43193 -0.849416 0
M  V30 2897 H 268.198 3.04937 0.765553 0
M  V30 2898 N 271.97 1.30982 0.876444 0
M  V30 2899 C 272.902 1.13902 1.98894 0
M  V30 2900 C 273.915 0.0798815 1.62604 0
M  V30 2901 O 275.104 0.326743 1.75484 0
M  V30 2902 C 272.204 0.716699 3.31235 0
M  V30 2903 C 271.377 1.85945 3.95908 0
M  V30 2904 C 270.436 1.42426 5.06558 0
M  V30 2905 O 269.462 2.13287 5.27729 0
M  V30 2906 N 270.664 0.308025 5.79682 0
M  V30 2907 H 273.429 2.09724 2.14094 0
M  V30 2908 H 270.99 1.2323 1.05004 0
M  V30 2909 H 272.982 0.408403 4.02634 0
M  V30 2910 H 271.552 -0.149719 3.12241 0
M  V30 2911 H 270.772 2.33541 3.17573 0
M  V30 2912 H 272.06 2.62503 4.35855 0
M  V30 2913 H 271.458 -0.282241 5.64995 0
M  V30 2914 H 270.015 0.0592282 6.51773 0
M  V30 2915 N 273.449 -1.08991 1.13837 0
M  V30 2916 C 274.379 -2.17771 0.842507 0
M  V30 2917 C 275.36 -1.6892 -0.20001 0
M  V30 2918 O 276.545 -1.94113 -0.0579731 0
M  V30 2919 C 273.675 -3.4589 0.312644 0
M  V30 2920 C 272.629 -4.08099 1.28992 0
M  V30 2921 C 271.955 -5.31098 0.619623 0
M  V30 2922 C 273.255 -4.50077 2.65005 0
M  V30 2923 H 274.949 -2.42777 1.75213 0
M  V30 2924 H 272.495 -1.16682 0.843875 0
M  V30 2925 H 274.448 -4.21297 0.0933043 0
M  V30 2926 H 273.172 -3.20419 -0.632382 0
M  V30 2927 H 271.831 -3.34717 1.49533 0
M  V30 2928 H 271.479 -5.0191 -0.33102 0
M  V30 2929 H 271.179 -5.73674 1.27167 0
M  V30 2930 H 272.703 -6.09224 0.409669 0
M  V30 2931 H 274.117 -5.16688 2.48407 0
M  V30 2932 H 272.514 -5.03553 3.26427 0
M  V30 2933 H 273.584 -3.62257 3.22332 0
M  V30 2934 N 274.927 -0.932562 -1.27047 0
M  V30 2935 C 276.176 -0.571351 -1.93439 0
M  V30 2936 C 276.489 0.892467 -1.74053 0
M  V30 2937 O 277.695 1.36267 -2.34826 0
M  V30 2938 C 276.151 -0.97106 -3.46552 0
M  V30 2939 C 275.759 -2.4559 -3.74686 0
M  V30 2940 C 277.503 -0.681333 -4.18997 0
M  V30 2941 C 275.41 -2.79475 -5.21198 0
M  V30 2942 H 274.34 -0.209966 -0.724176 0
M  V30 2943 H 276.991 -1.13403 -1.44263 0
M  V30 2944 H 275.373 -0.336983 -3.94564 0
M  V30 2945 H 276.547 -3.13829 -3.37414 0
M  V30 2946 H 274.862 -2.71802 -3.15456 0
M  V30 2947 H 277.459 -0.910939 -5.26883 0
M  V30 2948 H 277.802 0.381628 -4.14547 0
M  V30 2949 H 278.335 -1.27473 -3.76823 0
M  V30 2950 H 275.074 -3.847 -5.30741 0
M  V30 2951 H 274.594 -2.1589 -5.596 0
M  V30 2952 H 276.273 -2.67478 -5.89122 0
M  V30 2953 N 276.405 1.4127 -0.698611 0
M  V30 2954 C 277.651 2.01478 -0.231207 0
M  V30 2955 C 277.984 1.55215 1.16713 0
M  V30 2956 O 277.259 0.764672 1.78838 0
M  V30 2957 C 277.542 3.58912 -0.292281 0
M  V30 2958 C 277.395 4.15293 -1.72778 0
M  V30 2959 C 278.714 4.38736 0.346194 0
M  V30 2960 H 275.833 0.732025 -0.0854878 0
M  V30 2961 H 278.475 1.67977 -0.887906 0
M  V30 2962 H 276.625 3.87582 0.26686 0
M  V30 2963 H 278.297 3.97486 -2.341 0
M  V30 2964 H 276.54 3.7022 -2.26096 0
M  V30 2965 H 277.211 5.24452 -1.72202 0
M  V30 2966 H 279.687 4.15897 -0.130035 0
M  V30 2967 H 278.563 5.48221 0.272932 0
M  V30 2968 H 278.824 4.18425 1.42734 0
M  V30 2969 N 277.883 0.443576 1.51229 0
M  V30 2970 C 278.83 -0.364716 2.279 0
M  V30 2971 C 279.8 -1.0114 1.31757 0
M  V30 2972 O 280.985 -1.02912 1.60667 0
M  V30 2973 C 278.125 -1.45644 3.12861 0
M  V30 2974 C 277.238 -0.827269 4.24005 0
M  V30 2975 C 276.373 -1.89456 4.96266 0
M  V30 2976 C 275.412 -1.24416 5.99322 0
M  V30 2977 N 274.549 -2.25309 6.64966 0
M  V30 2978 H 279.389 0.295464 2.96532 0
M  V30 2979 H 276.926 0.157554 1.46254 0
M  V30 2980 H 278.884 -2.10076 3.6045 0
M  V30 2981 H 277.514 -2.08616 2.46331 0
M  V30 2982 H 276.566 -0.0710839 3.80334 0
M  V30 2983 H 277.878 -0.312481 4.9782 0
M  V30 2984 H 277.032 -2.61535 5.47434 0
M  V30 2985 H 275.771 -2.4431 4.22095 0
M  V30 2986 H 274.776 -0.508868 5.4744 0
M  V30 2987 H 276.001 -0.702882 6.75453 0
M  V30 2988 H 273.947 -2.79231 5.93604 0
M  V30 2989 H 273.864 -1.78739 7.34567 0
M  V30 2990 H 275.132 -2.96853 7.20763 0
M  V30 2991 N 279.361 -1.56624 0.175154 0
M  V30 2992 C 280.271 -2.21741 -0.766042 0
M  V30 2993 C 281.287 -1.21023 -1.25018 0
M  V30 2994 O 282.463 -1.53697 -1.3015 0
M  V30 2995 C 279.528 -2.84839 -1.97655 0
M  V30 2996 C 278.589 -4.00769 -1.53892 0
M  V30 2997 C 277.822 -4.60849 -2.69173 0
M  V30 2998 O 278.045 -4.19823 -3.86141 0
M  V30 2999 O 276.979 -5.50655 -2.43028 0
M  V30 3000 H 280.805 -3.02738 -0.241585 0
M  V30 3001 H 278.39 -1.49305 -0.053222 0
M  V30 3002 H 280.272 -3.24834 -2.68442 0
M  V30 3003 H 278.947 -2.06836 -2.48999 0
M  V30 3004 H 277.854 -3.65436 -0.80044 0
M  V30 3005 H 279.187 -4.80376 -1.07236 0
M  V30 3006 N 280.839 0.0985539 -1.57292 0
M  V30 3007 C 281.802 1.10402 -2.00858 0
M  V30 3008 C 282.802 1.33146 -0.901593 0
M  V30 3009 O 283.992 1.29318 -1.16716 0
M  V30 3010 C 281.124 2.45394 -2.36632 0
M  V30 3011 H 282.317 0.729099 -2.90902 0
M  V30 3012 H 279.87 0.343495 -1.52479 0
M  V30 3013 H 280.605 2.87769 -1.49531 0
M  V30 3014 H 280.39 2.30235 -3.17387 0
M  V30 3015 H 281.88 3.17718 -2.71007 0
M  V30 3016 N 282.317 1.53212 0.369288 0
M  V30 3017 C 283.247 1.82365 1.45826 0
M  V30 3018 C 284.228 0.676907 1.56051 0
M  V30 3019 O 285.413 0.926401 1.70679 0
M  V30 3020 C 282.543 2.01023 2.83208 0
M  V30 3021 C 281.497 3.1678 2.8781 0
M  V30 3022 C 280.823 3.20724 4.27832 0
M  V30 3023 C 282.123 4.55447 2.55667 0
M  V30 3024 H 283.817 2.73559 1.21678 0
M  V30 3025 H 281.363 1.3163 0.583911 0
M  V30 3026 H 283.316 2.20001 3.59413 0
M  V30 3027 H 282.04 1.06536 3.08736 0
M  V30 3028 H 280.699 2.97616 2.14056 0
M  V30 3029 H 280.347 2.23882 4.50429 0
M  V30 3030 H 280.047 3.98496 4.31827 0
M  V30 3031 H 281.571 3.41881 5.05915 0
M  V30 3032 H 282.985 4.74611 3.21586 0
M  V30 3033 H 281.382 5.35432 2.70984 0
M  V30 3034 H 282.452 4.60812 1.5093 0
M  V30 3035 N 283.795 -0.628877 1.44509 0
M  V30 3036 C 285.041 -1.39045 1.47629 0
M  V30 3037 C 285.374 -1.93892 0.109343 0
M  V30 3038 O 284.649 -1.7379 -0.87334 0
M  V30 3039 C 284.932 -2.55408 2.53848 0
M  V30 3040 C 284.785 -2.05896 3.99909 0
M  V30 3041 C 286.104 -3.5759 2.56549 0
M  V30 3042 H 283.223 -0.504232 0.537512 0
M  V30 3043 H 285.865 -0.710854 1.76201 0
M  V30 3044 H 284.015 -3.13384 2.29615 0
M  V30 3045 H 285.687 -1.52734 4.35282 0
M  V30 3046 H 283.93 -1.37061 4.11578 0
M  V30 3047 H 284.601 -2.89681 4.69882 0
M  V30 3048 H 287.077 -3.09419 2.78207 0
M  V30 3049 H 285.953 -4.36527 3.32769 0
M  V30 3050 H 286.214 -4.11808 1.60832 0
M  V30 3051 N 285.273 -1.31445 -0.869486 0
M  V30 3052 C 286.501 -1.24122 -1.65534 0
M  V30 3053 C 286.916 0.193387 -1.87807 0
M  V30 3054 O 286.273 1.12557 -1.43656 0
M  V30 3055 C 286.324 -1.98229 -3.02304 0
M  V30 3056 O 286.045 -3.3609 -2.81026 0
M  V30 3057 C 287.546 -1.97751 -3.96749 0
M  V30 3058 H 284.766 -0.428868 -0.516055 0
M  V30 3059 H 287.31 -1.73328 -1.08525 0
M  V30 3060 H 285.465 -1.52782 -3.56001 0
M  V30 3061 H 285.879 -3.7383 -3.67902 0
M  V30 3062 H 287.353 -2.54114 -4.90031 0
M  V30 3063 H 287.83 -0.960137 -4.28577 0
M  V30 3064 H 288.436 -2.43079 -3.48988 0
M  V30 3065 N 286.751 1.08385 -1.14413 0
M  V30 3066 C 287.661 2.18856 -0.844951 0
M  V30 3067 C 288.677 1.73121 0.174668 0
M  V30 3068 O 289.853 2.014 0.00312857 0
M  V30 3069 C 286.918 3.45155 -0.32696 0
M  V30 3070 C 285.979 4.05513 -1.40916 0
M  V30 3071 C 285.212 5.25784 -0.915793 0
M  V30 3072 O 285.435 5.69884 0.242651 0
M  V30 3073 O 284.369 5.77545 -1.69487 0
M  V30 3074 H 288.195 2.46919 -1.76818 0
M  V30 3075 H 285.78 1.17524 -0.922411 0
M  V30 3076 H 287.662 4.21377 -0.0440211 0
M  V30 3077 H 286.337 3.18668 0.568539 0
M  V30 3078 H 285.244 3.30879 -1.74556 0
M  V30 3079 H 286.577 4.3625 -2.27919 0
M  V30 3080 N 288.23 0.939286 1.26551 0
M  V30 3081 C 289.193 0.451987 2.24699 0
M  V30 3082 C 290.193 -0.435869 1.5478 0
M  V30 3083 O 291.383 -0.235314 1.72603 0
M  V30 3084 C 288.515 -0.348801 3.39111 0
M  V30 3085 H 289.708 1.3193 2.69322 0
M  V30 3086 H 287.261 0.721072 1.38673 0
M  V30 3087 H 287.996 -1.23444 2.99887 0
M  V30 3088 H 287.781 0.287945 3.91041 0
M  V30 3089 H 289.271 -0.679726 4.12031 0
M  V30 3090 N 289.708 -1.40897 0.706093 0
M  V30 3091 C 290.671 -2.29131 0.0562841 0
M  V30 3092 C 291.671 -1.44901 -0.697166 0
M  V30 3093 O 292.861 -1.65926 -0.530484 0
M  V30 3094 C 289.993 -3.27957 -0.93043 0
M  V30 3095 H 291.186 -2.88091 0.833284 0
M  V30 3096 H 288.739 -1.4906 0.470192 0
M  V30 3097 H 289.474 -2.73997 -1.73482 0
M  V30 3098 H 289.259 -3.90124 -0.393166 0
M  V30 3099 H 290.749 -3.94049 -1.38256 0
M  V30 3100 N 291.186 -0.45159 -1.50991 0
M  V30 3101 C 292.597 0.00818571 -1.86698 0
M  V30 3102 C 292.948 1.40661 -1.3678 0
M  V30 3103 O 292.073 2.0391 -0.724546 0
M  V30 3104 C 292.668 0.0216303 -3.38793 0
M  V30 3105 C 291.227 0.425865 -3.73983 0
M  V30 3106 C 290.374 -0.372163 -2.74791 0
M  V30 3107 H 293.325 -0.666785 -1.44013 0
M  V30 3108 H 293.346 0.828078 -3.7138 0
M  V30 3109 H 292.858 -0.996288 -3.75094 0
M  V30 3110 H 290.959 1.44886 -3.43277 0
M  V30 3111 H 291.072 0.140761 -4.78893 0
M  V30 3112 H 289.436 0.171498 -2.54122 0
M  V30 3113 H 290.219 -1.38922 -3.13935 0
M  V30 3114 N 292.664 1.56529 -0.183458 0
M  V30 3115 C 293.574 2.22144 0.754272 0
M  V30 3116 C 294.59 1.21684 1.24374 0
M  V30 3117 O 295.766 1.54385 1.29333 0
M  V30 3118 C 292.831 2.85884 1.96141 0
M  V30 3119 C 291.892 4.01579 1.51765 0
M  V30 3120 C 291.125 4.6227 2.66725 0
M  V30 3121 O 291.348 4.21865 3.83909 0
M  V30 3122 O 290.282 5.51936 2.40104 0
M  V30 3123 H 294.108 3.02861 0.225527 0
M  V30 3124 H 291.693 1.49331 0.0453032 0
M  V30 3125 H 293.575 3.26253 2.66715 0
M  V30 3126 H 292.25 2.08154 2.47899 0
M  V30 3127 H 291.157 3.65856 0.781049 0
M  V30 3128 H 292.49 4.80938 1.04686 0
M  V30 3129 N 294.142 -0.090211 1.57342 0
M  V30 3130 C 295.372 -0.805055 1.90269 0
M  V30 3131 C 295.78 -1.72561 0.775842 0
M  V30 3132 O 295.123 -1.81839 -0.260843 0
M  V30 3133 C 295.185 -1.66734 3.18497 0
M  V30 3134 C 294.849 -0.918092 4.47683 0
M  V30 3135 C 295.846 -0.245674 5.19319 0
M  V30 3136 C 293.531 -0.890724 4.94339 0
M  V30 3137 C 295.525 0.444088 6.35851 0
M  V30 3138 C 293.212 -0.197179 6.10782 0
M  V30 3139 C 294.21 0.469044 6.81388 0
M  V30 3140 O 293.898 1.15146 7.95611 0
M  V30 3141 H 293.63 -0.235143 0.633785 0
M  V30 3142 H 296.184 -0.0703805 2.05279 0
M  V30 3143 H 294.414 -2.44437 2.99646 0
M  V30 3144 H 296.103 -2.25919 3.37217 0
M  V30 3145 H 296.869 -0.258246 4.84312 0
M  V30 3146 H 292.748 -1.39873 4.39268 0
M  V30 3147 H 296.292 0.964667 6.90898 0
M  V30 3148 H 292.189 -0.18247 6.45242 0
M  V30 3149 H 292.957 1.05885 8.11622 0
M  V30 3150 N 295.62 -1.53406 -0.361157 0
M  V30 3151 C 296.55 -1.83136 -1.44857 0
M  V30 3152 C 297.531 -0.685174 -1.5569 0
M  V30 3153 O 298.716 -0.93544 -1.70186 0
M  V30 3154 C 295.846 -2.02522 -2.82138 0
M  V30 3155 C 294.8 -3.18302 -2.86126 0
M  V30 3156 C 294.126 -3.22989 -4.26125 0
M  V30 3157 C 295.426 -4.56796 -2.53248 0
M  V30 3158 H 297.12 -2.74201 -1.20226 0
M  V30 3159 H 294.666 -1.31938 -0.576922 0
M  V30 3160 H 296.619 -2.21904 -3.58241 0
M  V30 3161 H 295.343 -1.08172 -3.08166 0
M  V30 3162 H 294.002 -2.98747 -2.12475 0
M  V30 3163 H 293.65 -2.26267 -4.49235 0
M  V30 3164 H 293.35 -4.00781 -4.29708 0
M  V30 3165 H 294.874 -3.44559 -5.04094 0
M  V30 3166 H 296.288 -4.7631 -3.19064 0
M  V30 3167 H 294.685 -5.36862 -2.68141 0
M  V30 3168 H 295.755 -4.61606 -1.48484 0
M  V30 3169 N 297.098 0.621204 -1.44841 0
M  V30 3170 C 298.344 1.3826 -1.48365 0
M  V30 3171 C 298.677 1.93831 -0.119624 0
M  V30 3172 O 297.952 1.74251 0.864111 0
M  V30 3173 C 298.235 2.54058 -2.55199 0
M  V30 3174 C 298.088 2.03772 -4.00995 0
M  V30 3175 C 299.407 3.56225 -2.58442 0
M  V30 3176 H 296.526 0.501374 -0.540179 0
M  V30 3177 H 299.168 0.7015 -1.76576 0
M  V30 3178 H 297.318 3.12162 -2.31274 0
M  V30 3179 H 298.99 1.50423 -4.36086 0
M  V30 3180 H 297.233 1.34876 -4.12299 0
M  V30 3181 H 297.904 2.87185 -4.71411 0
M  V30 3182 H 300.38 3.07939 -2.79844 0
M  V30 3183 H 299.256 4.34756 -3.3508 0
M  V30 3184 H 299.517 4.10949 -1.63013 0
M  V30 3185 N 298.576 1.31904 0.862503 0
M  V30 3186 C 299.526 1.16772 1.95827 0
M  V30 3187 C 300.51 0.0767098 1.60717 0
M  V30 3188 O 301.702 0.302407 1.74398 0
M  V30 3189 C 298.831 0.884858 3.317 0
M  V30 3190 C 297.917 2.0172 3.73055 0
M  V30 3191 N 298.308 3.265 3.86305 0
M  V30 3192 C 296.606 1.91861 4.02623 0
M  V30 3193 C 297.307 4.00616 4.2176 0
M  V30 3194 N 296.283 3.28847 4.32852 0
M  V30 3195 H 300.085 2.11382 2.04193 0
M  V30 3196 H 297.599 1.2357 1.05377 0
M  V30 3197 H 299.596 0.757419 4.09962 0
M  V30 3198 H 298.256 -0.0529448 3.24657 0
M  V30 3199 H 299.267 3.61529 3.70833 0
M  V30 3200 H 295.944 1.05593 4.03926 0
M  V30 3201 H 297.334 5.08182 4.39546 0
M  V30 3202 N 300.054 -1.07777 1.14986 0
M  V30 3203 C 301.279 -1.84558 0.946213 0
M  V30 3204 C 301.704 -1.81323 -0.500362 0
M  V30 3205 O 301.062 -1.20301 -1.35637 0
M  V30 3206 C 301.11 -3.29736 1.45968 0
M  V30 3207 O 300.214 -4.07149 0.65601 0
M  V30 3208 H 299.555 -0.571641 0.33782 0
M  V30 3209 H 302.085 -1.35991 1.52865 0
M  V30 3210 H 302.095 -3.80574 1.47063 0
M  V30 3211 H 300.77 -3.31406 2.51283 0
M  V30 3212 H 299.347 -3.65994 0.714322 0
M  V30 3213 N 301.532 -0.945985 -1.26051 0
M  V30 3214 C 302.479 -0.45809 -2.26208 0
M  V30 3215 C 303.449 0.484816 -1.58867 0
M  V30 3216 O 304.634 0.399969 -1.86561 0
M  V30 3217 C 301.774 0.266131 -3.44072 0
M  V30 3218 C 300.887 -0.713005 -4.26075 0
M  V30 3219 C 300.022 0.0329013 -5.3119 0
M  V30 3220 C 299.061 -0.93774 -6.04874 0
M  V30 3221 N 298.198 -0.223274 -7.01745 0
M  V30 3222 H 303.038 -1.3171 -2.67313 0
M  V30 3223 H 300.575 -0.66069 -1.31428 0
M  V30 3224 H 302.533 0.702514 -4.11243 0
M  V30 3225 H 301.163 1.08925 -3.03867 0
M  V30 3226 H 300.215 -1.26789 -3.58648 0
M  V30 3227 H 301.527 -1.45406 -4.77136 0
M  V30 3228 H 300.681 0.528335 -6.04395 0
M  V30 3229 H 299.42 0.806801 -4.8098 0
M  V30 3230 H 298.425 -1.44425 -5.30492 0
M  V30 3231 H 299.65 -1.71172 -6.57173 0
M  V30 3232 H 297.596 0.532046 -6.53839 0
M  V30 3233 H 297.513 -0.90357 -7.50581 0
M  V30 3234 H 298.781 0.250907 -7.79096 0
M  V30 3235 N 303.011 1.40521 -0.713556 0
M  V30 3236 C 304.239 2.05237 -0.261775 0
M  V30 3237 C 304.654 1.53755 1.09567 0
M  V30 3238 O 304.011 0.693268 1.6882 0
M  V30 3239 C 304.062 3.60763 -0.230706 0
M  V30 3240 O 303.783 4.10345 -1.53455 0
M  V30 3241 C 305.284 4.42651 0.239874 0
M  V30 3242 H 302.504 0.660533 -0.118057 0
M  V30 3243 H 305.048 1.79967 -0.971192 0
M  V30 3244 H 303.203 3.8501 0.429661 0
M  V30 3245 H 303.617 5.04526 -1.43366 0
M  V30 3246 H 305.091 5.51599 0.210468 0
M  V30 3247 H 305.568 4.20082 1.28171 0
M  V30 3248 H 306.174 4.23507 -0.390142 0
M  V30 3249 N 304.489 0.459591 1.5075 0
M  V30 3250 C 305.737 -0.0991532 2.01857 0
M  V30 3251 C 306.058 -1.41247 1.34441 0
M  V30 3252 O 305.328 -1.89775 0.486022 0
M  V30 3253 H 303.908 -0.039633 0.745948 0
M  V30 3254 H 306.57 0.607387 1.85194 0
M  V30 3255 H 305.666 -0.258998 3.11023 0
M  V30 3256 N 305.967 -1.56429 0.191757 0
M  V30 3257 C 307.214 -1.97485 -0.447891 0
M  V30 3258 C 307.542 -1.07852 -1.61859 0
M  V30 3259 O 306.797 -0.116903 -1.95351 0
M  V30 3260 C 307.096 -3.44449 -0.953384 0
M  V30 3261 C 306.762 -4.50781 0.103586 0
M  V30 3262 C 305.424 -4.79584 0.394023 0
M  V30 3263 C 307.776 -5.1471 0.819946 0
M  V30 3264 C 305.104 -5.69607 1.40585 0
M  V30 3265 C 307.456 -6.05827 1.8209 0
M  V30 3266 C 306.12 -6.32987 2.11857 0
M  V30 3267 H 305.39 -0.722648 -0.163895 0
M  V30 3268 H 308.037 -1.89322 0.28802 0
M  V30 3269 H 306.342 -3.49666 -1.76751 0
M  V30 3270 H 308.039 -3.73569 -1.45765 0
M  V30 3271 H 304.629 -4.28394 -0.132951 0
M  V30 3272 H 308.813 -4.92552 0.608789 0
M  V30 3273 H 304.069 -5.88926 1.64243 0
M  V30 3274 H 308.243 -6.54424 2.38123 0
M  V30 3275 H 305.87 -7.02544 2.90407 0
M  V30 3276 N 307.445 0.0818655 -1.57387 0
M  V30 3277 C 308.67 0.799946 -1.91352 0
M  V30 3278 C 309.095 1.70833 -0.787258 0
M  V30 3279 O 308.453 1.79419 0.26048 0
M  V30 3280 C 308.501 1.57812 -3.24234 0
M  V30 3281 O 307.605 2.68806 -3.12757 0
M  V30 3282 H 306.946 0.21891 -0.626877 0
M  V30 3283 H 309.476 0.0531256 -2.04531 0
M  V30 3284 H 309.486 1.95952 -3.57864 0
M  V30 3285 H 308.161 0.911548 -4.05788 0
M  V30 3286 H 306.738 2.33597 -2.90666 0
M  V30 3287 N 308.923 1.53595 0.353017 0
M  V30 3288 C 310.171 1.70049 1.09215 0
M  V30 3289 C 310.492 0.461406 1.89463 0
M  V30 3290 O 309.762 -0.524633 1.88744 0
M  V30 3291 H 308.342 0.626912 0.40619 0
M  V30 3292 H 311.004 1.90822 0.396585 0
M  V30 3293 H 310.1 2.56718 1.77488 0
M  V30 3294 N 310.401 -0.613514 1.45168 0
M  V30 3295 C 311.647 -1.37471 1.49096 0
M  V30 3296 C 311.98 -1.93765 0.129901 0
M  V30 3297 O 311.255 -1.74707 -0.854858 0
M  V30 3298 C 311.538 -2.52701 2.56542 0
M  V30 3299 C 311.391 -2.01643 4.0207 0
M  V30 3300 C 312.71 -3.54849 2.60327 0
M  V30 3301 H 309.829 -0.498502 0.54283 0
M  V30 3302 H 312.471 -0.692125 1.76945 0
M  V30 3303 H 310.621 -3.10931 2.32926 0
M  V30 3304 H 312.293 -1.48108 4.36877 0
M  V30 3305 H 310.536 -1.32688 4.13009 0
M  V30 3306 H 311.207 -2.84681 4.72928 0
M  V30 3307 H 313.683 -3.0645 2.81474 0
M  V30 3308 H 312.559 -4.32973 3.37381 0
M  V30 3309 H 312.82 -4.10079 1.6519 0
M  V30 3310 N 311.879 -1.3236 -0.855495 0
M  V30 3311 C 313.127 -1.22629 -1.60644 0
M  V30 3312 C 313.448 0.212136 -1.93843 0
M  V30 3313 O 312.718 1.13666 -1.59552 0
M  V30 3314 H 311.298 -0.450882 -0.595579 0
M  V30 3315 H 313.96 -1.65871 -1.02337 0
M  V30 3316 H 313.056 -1.80832 -2.54374 0
M  V30 3317 N 313.357 1.07166 -1.15556 0
M  V30 3318 C 314.585 1.83514 -0.955519 0
M  V30 3319 C 315 1.82163 0.49621 0
M  V30 3320 O 314.357 1.23441 1.34419 0
M  V30 3321 C 314.408 3.30515 -1.46432 0
M  V30 3322 O 314.129 3.31937 -2.85918 0
M  V30 3323 C 315.63 4.23625 -1.30603 0
M  V30 3324 H 312.85 0.578926 -0.339244 0
M  V30 3325 H 315.394 1.35265 -1.53374 0
M  V30 3326 H 313.549 3.76106 -0.928584 0
M  V30 3327 H 313.963 4.23794 -3.09029 0
M  V30 3328 H 315.437 5.24831 -1.71047 0
M  V30 3329 H 315.914 4.38485 -0.250441 0
M  V30 3330 H 316.52 3.83871 -1.83094 0
M  V30 3331 N 314.835 0.952656 1.25548 0
M  V30 3332 C 315.745 0.47782 2.29682 0
M  V30 3333 C 316.761 -0.453859 1.67977 0
M  V30 3334 O 317.937 -0.330587 1.98668 0
M  V30 3335 C 315.002 -0.238655 3.45878 0
M  V30 3336 C 314.063 0.730994 4.23031 0
M  V30 3337 C 313.296 0.0486165 5.33678 0
M  V30 3338 O 313.519 -1.16612 5.58353 0
M  V30 3339 O 312.453 0.733152 5.97418 0
M  V30 3340 H 316.279 1.34312 2.72386 0
M  V30 3341 H 313.864 0.719026 1.30959 0
M  V30 3342 H 315.746 -0.641774 4.16484 0
M  V30 3343 H 314.421 -1.07916 3.05181 0
M  V30 3344 H 313.328 1.18428 3.5486 0
M  V30 3345 H 314.661 1.53946 4.67506 0
M  V30 3346 N 316.313 -1.40141 0.720998 0
M  V30 3347 C 317.538 -2.05618 0.271258 0
M  V30 3348 C 317.963 -1.53978 -1.08039 0
M  V30 3349 O 317.321 -0.677463 -1.68167 0
M  V30 3350 C 317.369 -3.59609 0.267197 0
M  V30 3351 O 316.473 -4.05526 -0.749814 0
M  V30 3352 H 315.814 -0.651904 0.126162 0
M  V30 3353 H 318.344 -1.79439 0.982997 0
M  V30 3354 H 318.354 -4.0786 0.106744 0
M  V30 3355 H 317.029 -3.96559 1.25354 0
M  V30 3356 H 315.606 -3.68722 -0.556644 0
M  V30 3357 N 317.792 -0.46758 -1.50504 0
M  V30 3358 C 318.74 0.342482 -2.30065 0
M  V30 3359 C 319.734 0.993596 -1.37201 0
M  V30 3360 O 320.94 0.925102 -1.54408 0
M  V30 3361 H 317.315 0.129283 -0.740803 0
M  V30 3362 H 319.286 -0.34899 -2.96352 0
M  V30 3363 C 318.035 1.4139 -3.17654 0
M  V30 3364 H 317.358 0.922264 -3.89017 0
M  V30 3365 H 318.798 1.95335 -3.76325 0
M  V30 3366 C 317.257 2.4139 -2.35016 0
M  V30 3367 O 317.787 3.46586 -2.03079 0
M  V30 3368 N 315.993 2.13021 -1.97662 0
M  V30 3369 H 315.54 1.27499 -2.23834 0
M  V30 3370 H 315.498 2.80164 -1.42673 0
M  V30 3371 N 319.27 1.56325 -0.20005 0
M  V30 3372 C 320.681 1.8408 0.31167 0
M  V30 3373 C 321.032 1.12087 1.61031 0
M  V30 3374 O 320.157 0.38332 2.12978 0
M  V30 3375 C 320.752 3.33932 0.57226 0
M  V30 3376 C 319.311 3.6208 1.02834 0
M  V30 3377 C 318.458 2.77186 0.079634 0
M  V30 3378 H 321.409 1.52939 -0.423729 0
M  V30 3379 H 321.43 3.52971 1.42096 0
M  V30 3380 H 320.942 3.86303 -0.37308 0
M  V30 3381 H 319.043 3.15147 1.98778 0
M  V30 3382 H 319.156 4.7023 0.917624 0
M  V30 3383 H 317.52 2.47951 0.582448 0
M  V30 3384 H 318.303 3.32347 -0.860238 0
M  V30 3385 N 320.748 -0.0735177 1.57428 0
M  V30 3386 C 321.996 -0.771472 1.86796 0
M  V30 3387 C 322.317 -1.78201 0.791804 0
M  V30 3388 O 321.587 -1.95074 -0.179718 0
M  V30 3389 H 320.167 -0.28791 0.689287 0
M  V30 3390 H 322.829 -0.0500161 1.94836 0
M  V30 3391 H 321.925 -1.28874 2.8425 0
M  V30 3392 N 322.226 -1.5378 -0.344866 0
M  V30 3393 C 323.472 -1.71216 -1.08687 0
M  V30 3394 C 323.805 -0.473281 -1.88345 0
M  V30 3395 O 323.08 0.52968 -1.87149 0
M  V30 3396 C 323.363 -2.97486 -2.02914 0
M  V30 3397 C 323.216 -4.31579 -1.26727 0
M  V30 3398 C 324.535 -3.19422 -3.0275 0
M  V30 3399 H 321.654 -0.62301 -0.393735 0
M  V30 3400 H 324.296 -1.8645 -0.365563 0
M  V30 3401 H 322.446 -2.84629 -2.64421 0
M  V30 3402 H 324.118 -4.56284 -0.67845 0
M  V30 3403 H 322.361 -4.30049 -0.569273 0
M  V30 3404 H 323.032 -5.16106 -1.95803 0
M  V30 3405 H 325.508 -3.316 -2.51357 0
M  V30 3406 H 324.384 -4.09169 -3.65885 0
M  V30 3407 H 324.645 -2.35656 -3.74057 0
M  V30 3408 N 323.704 0.605807 -1.45491 0
M  V30 3409 C 324.667 1.69836 -1.5391 0
M  V30 3410 C 325.667 1.55261 -0.418424 0
M  V30 3411 O 326.857 1.60296 -0.681965 0
M  V30 3412 C 323.989 3.09117 -1.43734 0
M  V30 3413 H 325.182 1.63738 -2.51257 0
M  V30 3414 H 322.735 0.821689 -1.32959 0
M  V30 3415 H 323.47 3.20791 -0.475788 0
M  V30 3416 H 323.255 3.21104 -2.25021 0
M  V30 3417 H 324.745 3.88696 -1.52661 0
M  V30 3418 N 325.182 1.32811 0.848464 0
M  V30 3419 C 326.428 1.24917 1.60522 0
M  V30 3420 C 326.783 -0.185761 1.91501 0
M  V30 3421 O 326.076 -1.12524 1.55077 0
M  V30 3422 C 326.27 2.04831 2.92881 0
M  V30 3423 C 326.099 3.55949 2.74828 0
M  V30 3424 C 324.869 4.25277 2.72887 0
M  V30 3425 C 327.067 4.50476 2.48145 0
M  V30 3426 N 325.049 5.62408 2.46111 0
M  V30 3427 C 326.42 5.75427 2.30832 0
M  V30 3428 C 328.475 4.39665 2.33664 0
M  V30 3429 C 327.178 6.90789 2.00508 0
M  V30 3430 C 329.204 5.54833 2.04731 0
M  V30 3431 C 328.566 6.78787 1.88223 0
M  V30 3432 H 324.665 0.512279 0.590842 0
M  V30 3433 H 327.249 1.67246 0.996839 0
M  V30 3434 H 325.42 1.64837 3.51686 0
M  V30 3435 H 327.152 1.88782 3.57971 0
M  V30 3436 H 323.907 3.77456 2.86049 0
M  V30 3437 H 324.331 6.3467 2.35634 0
M  V30 3438 H 328.973 3.44477 2.45144 0
M  V30 3439 H 326.691 7.85984 1.87765 0
M  V30 3440 H 330.277 5.48398 1.94295 0
M  V30 3441 H 329.157 7.66396 1.66155 0
M  V30 3442 N 326.66 -1.06551 1.16123 0
M  V30 3443 C 327.906 -1.79719 0.952505 0
M  V30 3444 C 328.261 -1.85396 -0.514385 0
M  V30 3445 O 327.554 -1.33263 -1.37665 0
M  V30 3446 C 327.748 -3.23911 1.51052 0
M  V30 3447 C 327.577 -3.32284 3.03013 0
M  V30 3448 C 326.347 -3.42371 3.71632 0
M  V30 3449 C 328.545 -3.22363 4.00732 0
M  V30 3450 N 326.527 -3.39732 5.11327 0
M  V30 3451 C 327.898 -3.26937 5.26794 0
M  V30 3452 C 329.953 -3.0623 3.92591 0
M  V30 3453 C 328.656 -3.17035 6.45663 0
M  V30 3454 C 330.682 -2.97665 5.11028 0
M  V30 3455 C 330.044 -3.02858 6.35969 0
M  V30 3456 H 326.143 -0.670585 0.402293 0
M  V30 3457 H 328.727 -1.27125 1.4747 0
M  V30 3458 H 326.898 -3.74907 1.01484 0
M  V30 3459 H 328.63 -3.85242 1.2398 0
M  V30 3460 H 325.385 -3.47058 3.22254 0
M  V30 3461 H 325.809 -3.41919 5.84312 0
M  V30 3462 H 330.451 -3.01063 2.96852 0
M  V30 3463 H 328.169 -3.2096 7.41627 0
M  V30 3464 H 331.755 -2.86273 5.06497 0
M  V30 3465 H 330.635 -2.96286 7.26075 0
M  V30 3466 N 328.138 -0.959301 -1.25041 0
M  V30 3467 C 329.384 -0.617525 -1.9317 0
M  V30 3468 C 329.717 0.843981 -1.74902 0
M  V30 3469 O 328.992 1.60615 -1.09696 0
M  V30 3470 C 329.275 -0.982736 -3.46431 0
M  V30 3471 C 329.128 -2.50032 -3.73904 0
M  V30 3472 C 330.447 -0.511176 -4.37121 0
M  V30 3473 H 327.566 -0.22582 -0.701552 0
M  V30 3474 H 330.208 -1.19679 -1.4757 0
M  V30 3475 H 328.358 -0.489806 -3.854 0
M  V30 3476 H 330.03 -3.06737 -3.44544 0
M  V30 3477 H 328.273 -2.93598 -3.19348 0
M  V30 3478 H 328.944 -2.70635 -4.81103 0
M  V30 3479 H 331.42 -0.934075 -4.0548 0
M  V30 3480 H 330.296 -0.795361 -5.43107 0
M  V30 3481 H 330.557 0.588834 -4.38161 0
M  V30 3482 N 329.616 1.39756 -0.72842 0
M  V30 3483 C 330.864 2.00248 -0.272946 0
M  V30 3484 C 331.185 1.58077 1.14178 0
M  V30 3485 O 330.455 0.826014 1.77634 0
M  V30 3486 H 329.035 0.740554 -0.0979247 0
M  V30 3487 H 331.697 1.70903 -0.936912 0
M  V30 3488 H 330.793 3.10495 -0.316142 0
M  V30 3489 N 331.094 0.475555 1.50254 0
M  V30 3490 C 332.34 -0.0701075 2.03279 0
M  V30 3491 C 332.695 -1.37007 1.35081 0
M  V30 3492 O 331.988 -1.8577 0.469052 0
M  V30 3493 C 332.182 -0.305114 3.56095 0
M  V30 3494 C 332.011 0.970515 4.39103 0
M  V30 3495 C 330.781 1.51509 4.82051 0
M  V30 3496 C 332.979 1.8671 4.79212 0
M  V30 3497 N 330.961 2.73928 5.49397 0
M  V30 3498 C 332.332 2.93715 5.46014 0
M  V30 3499 C 334.387 1.87695 4.61167 0
M  V30 3500 C 333.09 4.01699 5.96683 0
M  V30 3501 C 335.116 2.94637 5.12779 0
M  V30 3502 C 334.478 4.00361 5.79561 0
M  V30 3503 H 330.577 0.014486 0.781866 0
M  V30 3504 H 333.161 0.644755 1.83714 0
M  V30 3505 H 331.332 -0.989019 3.75597 0
M  V30 3506 H 333.064 -0.845516 3.95769 0
M  V30 3507 H 329.819 1.06367 4.61501 0
M  V30 3508 H 330.243 3.36109 5.87673 0
M  V30 3509 H 334.885 1.07273 4.08965 0
M  V30 3510 H 332.603 4.82934 6.4792 0
M  V30 3511 H 336.189 2.96388 5.00645 0
M  V30 3512 H 335.069 4.81751 6.18778 0
M  V30 3513 N 332.573 -1.56217 0.208337 0
M  V30 3514 C 333.819 -1.98242 -0.427552 0
M  V30 3515 C 334.152 -1.09554 -1.60348 0
M  V30 3516 O 333.427 -0.15035 -1.93918 0
M  V30 3517 C 333.71 -3.4931 -0.874907 0
M  V30 3518 C 333.563 -4.48773 0.303751 0
M  V30 3519 C 334.882 -4.04424 -1.73577 0
M  V30 3520 H 332.001 -0.720744 -0.153936 0
M  V30 3521 H 334.643 -1.87586 0.30192 0
M  V30 3522 H 332.793 -3.58522 -1.49648 0
M  V30 3523 H 334.465 -4.51586 0.941682 0
M  V30 3524 H 332.708 -4.23194 0.953375 0
M  V30 3525 H 333.379 -5.51976 -0.0519883 0
M  V30 3526 H 335.855 -3.98075 -1.21143 0
M  V30 3527 H 334.731 -5.1047 -2.01771 0
M  V30 3528 H 334.992 -3.50494 -2.69456 0
M  V30 3529 N 334.051 0.0651679 -1.57465 0
M  V30 3530 C 334.961 1.09448 -2.07505 0
M  V30 3531 C 335.977 1.41974 -1.00595 0
M  V30 3532 O 337.153 1.52018 -1.32107 0
M  V30 3533 C 334.218 2.38689 -2.51453 0
M  V30 3534 C 333.279 2.13073 -3.72691 0
M  V30 3535 C 332.512 3.36152 -4.14533 0
M  V30 3536 O 332.735 4.45517 -3.56189 0
M  V30 3537 O 331.669 3.23974 -5.07272 0
M  V30 3538 H 335.495 0.69935 -2.95538 0
M  V30 3539 H 333.08 0.279752 -1.46757 0
M  V30 3540 H 334.962 3.14736 -2.80212 0
M  V30 3541 H 333.637 2.77568 -1.66546 0
M  V30 3542 H 332.544 1.34709 -3.49005 0
M  V30 3543 H 333.877 1.79071 -4.5847 0
M  V30 3544 N 335.529 1.53961 0.336706 0
M  V30 3545 C 336.476 1.82428 1.41381 0
M  V30 3546 C 337.446 0.670444 1.51968 0
M  V30 3547 O 338.631 0.915565 1.67398 0
M  V30 3548 C 335.771 2.04564 2.77934 0
M  V30 3549 C 334.884 3.32267 2.76084 0
M  V30 3550 C 334.019 3.44434 4.04399 0
M  V30 3551 C 333.058 4.66061 3.96804 0
M  V30 3552 N 332.195 4.75224 5.16823 0
M  V30 3553 H 337.035 2.74324 1.16405 0
M  V30 3554 H 334.572 1.35869 0.563752 0
M  V30 3555 H 336.53 2.15388 3.57301 0
M  V30 3556 H 335.16 1.15974 3.01247 0
M  V30 3557 H 334.212 3.3025 1.88784 0
M  V30 3558 H 335.524 4.21733 2.66351 0
M  V30 3559 H 334.678 3.54728 4.92192 0
M  V30 3560 H 333.417 2.53037 4.16921 0
M  V30 3561 H 332.422 4.55838 3.07396 0
M  V30 3562 H 333.647 5.58829 3.85858 0
M  V30 3563 H 331.593 3.86739 5.29876 0
M  V30 3564 H 331.51 5.58636 5.09374 0
M  V30 3565 H 332.778 4.89835 6.06367 0
M  V30 3566 N 337.007 -0.598083 1.45811 0
M  V30 3567 C 337.917 -1.73632 1.57763 0
M  V30 3568 C 338.933 -1.67763 0.461676 0
M  V30 3569 O 340.109 -1.87949 0.723685 0
M  V30 3570 C 337.174 -3.10114 1.55018 0
M  V30 3571 C 336.235 -3.27364 2.77726 0
M  V30 3572 C 335.468 -4.57334 2.75102 0
M  V30 3573 O 335.691 -5.40258 1.8297 0
M  V30 3574 O 334.625 -4.77502 3.66437 0
M  V30 3575 H 338.451 -1.66498 2.53992 0
M  V30 3576 H 336.036 -0.763308 1.28429 0
M  V30 3577 H 337.918 -3.9141 1.56129 0
M  V30 3578 H 336.593 -3.17718 0.619431 0
M  V30 3579 H 335.5 -2.45619 2.82174 0
M  V30 3580 H 336.833 -3.24641 3.69958 0
M  V30 3581 N 338.485 -1.33259 -0.841409 0
M  V30 3582 C 339.713 -1.27605 -1.62864 0
M  V30 3583 C 340.128 0.153507 -1.88175 0
M  V30 3584 O 339.485 1.09485 -1.46011 0
M  V30 3585 C 339.536 -2.04596 -2.98031 0
M  V30 3586 O 339.257 -3.41975 -2.73834 0
M  V30 3587 C 340.758 -2.06122 -3.92465 0
M  V30 3588 H 337.978 -0.439718 -0.506842 0
M  V30 3589 H 340.522 -1.75591 -1.04824 0
M  V30 3590 H 338.677 -1.60299 -3.5268 0
M  V30 3591 H 339.091 -3.81549 -3.59889 0
M  V30 3592 H 340.565 -2.64451 -4.84531 0
M  V30 3593 H 341.042 -1.05083 -4.26444 0
M  V30 3594 H 341.648 -2.50427 -3.43753 0
M  V30 3595 N 339.963 1.05934 -1.16686 0
M  V30 3596 C 340.873 2.17014 -0.891183 0
M  V30 3597 C 341.889 1.73453 0.137907 0
M  V30 3598 O 343.065 2.01361 -0.039592 0
M  V30 3599 C 340.13 3.44384 -0.400099 0
M  V30 3600 C 339.191 4.02433 -1.49486 0
M  V30 3601 C 338.424 5.23723 -1.02711 0
M  V30 3602 O 338.647 5.7027 0.121716 0
M  V30 3603 O 337.581 5.7382 -1.81699 0
M  V30 3604 H 341.407 2.43113 -1.82015 0
M  V30 3605 H 338.992 1.15541 -0.947132 0
M  V30 3606 H 340.874 4.21189 -0.133392 0
M  V30 3607 H 339.549 3.19802 0.500817 0
M  V30 3608 H 338.456 3.27102 -1.81535 0
M  V30 3609 H 339.789 4.31317 -2.37121 0
M  V30 3610 N 341.441 0.965919 1.2453 0
M  V30 3611 C 342.687 0.62776 1.92839 0
M  V30 3612 C 343.02 -0.834694 1.75347 0
M  V30 3613 O 342.295 -1.60031 1.10546 0
M  V30 3614 C 342.578 1.00109 3.45905 0
M  V30 3615 C 342.431 2.52011 3.72573 0
M  V30 3616 C 343.75 0.53435 4.36844 0
M  V30 3617 H 340.869 0.229537 0.700344 0
M  V30 3618 H 343.511 1.2046 1.46933 0
M  V30 3619 H 341.661 0.510238 3.85135 0
M  V30 3620 H 343.333 3.08559 3.42912 0
M  V30 3621 H 341.576 2.95287 3.17786 0
M  V30 3622 H 342.247 2.73183 4.79661 0
M  V30 3623 H 344.723 0.955565 4.04979 0
M  V30 3624 H 343.599 0.824152 5.42678 0
M  V30 3625 H 343.86 -0.565589 4.38467 0
M  V30 3626 N 342.919 -1.39368 0.735821 0
M  V30 3627 C 344.149 -2.04498 0.293967 0
M  V30 3628 C 344.557 -1.55593 -1.07645 0
M  V30 3629 O 343.9 -0.716324 -1.69158 0
M  V30 3630 C 343.962 -3.58836 0.218342 0
M  V30 3631 C 343.626 -4.30721 1.52736 0
M  V30 3632 C 344.623 -4.57305 2.47322 0
M  V30 3633 C 342.308 -4.69251 1.79189 0
M  V30 3634 C 344.302 -5.21429 3.66593 0
M  V30 3635 C 341.989 -5.33104 2.98737 0
M  V30 3636 C 342.987 -5.59125 3.9226 0
M  V30 3637 O 342.675 -6.21653 5.09708 0
M  V30 3638 H 342.407 -0.664118 0.126189 0
M  V30 3639 H 344.961 -1.79385 1.00051 0
M  V30 3640 H 343.191 -3.8285 -0.544314 0
M  V30 3641 H 344.88 -4.05447 -0.191626 0
M  V30 3642 H 345.646 -4.27983 2.28156 0
M  V30 3643 H 341.525 -4.48354 1.07239 0
M  V30 3644 H 345.069 -5.41656 4.39607 0
M  V30 3645 H 340.966 -5.61846 3.17803 0
M  V30 3646 H 341.734 -6.40146 5.10054 0
M  V30 3647 N 344.397 -0.483516 -1.5 0
M  V30 3648 C 345.644 0.0671597 -2.02389 0
M  V30 3649 C 345.972 1.38597 -1.36459 0
M  V30 3650 O 345.227 1.89634 -0.483458 0
M  V30 3651 C 345.526 0.286226 -3.56252 0
M  V30 3652 C 345.192 -0.952416 -4.40726 0
M  V30 3653 C 343.854 -1.29199 -4.63531 0
M  V30 3654 C 346.206 -1.77655 -4.89988 0
M  V30 3655 C 343.534 -2.45553 -5.32842 0
M  V30 3656 C 345.886 -2.93147 -5.60578 0
M  V30 3657 C 344.55 -3.27505 -5.81633 0
M  V30 3658 H 343.82 0.0245755 -0.740592 0
M  V30 3659 H 346.467 -0.640124 -1.80485 0
M  V30 3660 H 344.772 1.07587 -3.76739 0
M  V30 3661 H 346.469 0.726473 -3.94365 0
M  V30 3662 H 343.059 -0.677881 -4.23205 0
M  V30 3663 H 347.243 -1.52737 -4.72213 0
M  V30 3664 H 342.499 -2.72431 -5.47349 0
M  V30 3665 H 346.673 -3.57344 -5.97727 0
M  V30 3666 H 344.3 -4.1777 -6.35116 0
M  V30 3667 N 345.875 1.56104 -0.216619 0
M  V30 3668 C 347.122 1.98172 0.416416 0
M  V30 3669 C 347.45 1.10413 1.60122 0
M  V30 3670 O 346.705 0.147967 1.9514 0
M  V30 3671 C 347.004 3.45923 0.898464 0
M  V30 3672 C 346.67 4.50559 -0.175288 0
M  V30 3673 C 345.332 4.78897 -0.470271 0
M  V30 3674 C 347.684 5.1334 -0.901728 0
M  V30 3675 C 345.012 5.67299 -1.4963 0
M  V30 3676 C 347.364 6.02853 -1.91705 0
M  V30 3677 C 346.028 6.29537 -2.21901 0
M  V30 3678 H 345.298 0.725164 0.152377 0
M  V30 3679 H 347.945 1.88839 -0.318103 0
M  V30 3680 H 346.25 3.52434 1.71165 0
M  V30 3681 H 347.947 3.75841 1.39803 0
M  V30 3682 H 344.537 4.28551 0.0647806 0
M  V30 3683 H 348.721 4.91521 -0.687072 0
M  V30 3684 H 343.977 5.86239 -1.73592 0
M  V30 3685 H 348.151 6.50552 -2.48505 0
M  V30 3686 H 345.778 6.97835 -3.01548 0
M  V30 3687 N 347.353 -0.0568162 1.57498 0
M  V30 3688 C 348.316 -1.05038 2.03715 0
M  V30 3689 C 349.316 -1.30709 0.936577 0
M  V30 3690 O 350.506 -1.26178 1.20103 0
M  V30 3691 C 347.638 -2.39034 2.43055 0
M  V30 3692 H 348.831 -0.651715 2.92733 0
M  V30 3693 H 346.384 -0.302947 1.53336 0
M  V30 3694 H 347.119 -2.83703 1.57108 0
M  V30 3695 H 346.904 -2.21739 3.2338 0
M  V30 3696 H 348.394 -3.10421 2.79336 0
M  V30 3697 N 348.832 -1.54138 -0.328536 0
M  V30 3698 C 350.079 -1.72105 -1.06706 0
M  V30 3699 C 350.407 -0.492111 -1.88171 0
M  V30 3700 O 349.662 0.526153 -1.88494 0
M  V30 3701 C 349.961 -2.9457 -2.02393 0
M  V30 3702 C 349.627 -4.29544 -1.37122 0
M  V30 3703 C 348.289 -4.6624 -1.19052 0
M  V30 3704 C 350.641 -5.1333 -0.902331 0
M  V30 3705 C 347.969 -5.84325 -0.527331 0
M  V30 3706 C 350.321 -6.32094 -0.252988 0
M  V30 3707 C 348.985 -6.67473 -0.0600901 0
M  V30 3708 H 348.255 -0.629775 -0.390466 0
M  V30 3709 H 350.902 -1.88372 -0.34473 0
M  V30 3710 H 349.207 -2.72969 -2.81061 0
M  V30 3711 H 350.904 -3.05665 -2.59557 0
M  V30 3712 H 347.494 -4.0067 -1.52188 0
M  V30 3713 H 351.678 -4.855 -1.02974 0
M  V30 3714 H 346.934 -6.103 -0.366634 0
M  V30 3715 H 351.108 -6.96299 0.118366 0
M  V30 3716 H 348.735 -7.58832 0.455828 0
M  V30 3717 N 350.31 0.590341 -1.46126 0
M  V30 3718 C 351.258 1.72105 -1.5647 0
M  V30 3719 C 352.252 1.63756 -0.433612 0
M  V30 3720 O 353.458 1.69342 -0.610194 0
M  V30 3721 H 349.833 0.568889 -0.491802 0
M  V30 3722 H 351.804 1.6051 -2.51553 0
M  V30 3723 C 350.553 3.10493 -1.56491 0
M  V30 3724 H 349.876 3.17583 -2.4286 0
M  V30 3725 H 351.316 3.8939 -1.67785 0
M  V30 3726 C 349.775 3.3563 -0.292231 0
M  V30 3727 O 350.305 3.96875 0.620739 0
M  V30 3728 N 348.511 2.90026 -0.182523 0
M  V30 3729 H 348.058 2.40367 -0.926356 0
M  V30 3730 H 348.016 3.07218 0.668152 0
M  V30 3731 N 351.788 1.33704 0.83433 0
M  V30 3732 C 352.721 1.18675 1.94914 0
M  V30 3733 C 353.699 0.0811145 1.62398 0
M  V30 3734 O 354.883 0.244186 1.86912 0
M  V30 3735 C 352.01 0.821231 3.28593 0
M  V30 3736 C 351.056 1.93501 3.80079 0
M  V30 3737 S 351.889 3.54671 4.01209 0
M  V30 3738 C 353.045 3.20136 5.37833 0
M  V30 3739 H 353.278 2.13043 2.07364 0
M  V30 3740 H 350.811 1.18598 0.988624 0
M  V30 3741 H 352.769 0.617123 4.05835 0
M  V30 3742 H 351.43 -0.103927 3.13928 0
M  V30 3743 H 350.623 1.63273 4.76821 0
M  V30 3744 H 350.225 2.09601 3.09747 0
M  V30 3745 H 352.517 2.71242 6.20833 0
M  V30 3746 H 353.46 4.15975 5.73036 0
M  V30 3747 H 353.868 2.56613 5.02802 0
M  V30 3748 N 353.266 -1.05314 1.17247 0
M  V30 3749 C 354.543 -1.75184 0.87005 0
M  V30 3750 C 354.923 -2.01481 -0.629965 0
M  V30 3751 O 354.271 -1.64988 -1.58086 0
M  V30 3752 C 354.481 -3.04594 1.70363 0
M  V30 3753 C 355.829 -3.78567 1.92281 0
M  V30 3754 O 356.853 -3.14461 1.67311 0
M  V30 3755 O 355.712 -4.93755 2.3424 0
M  V30 3756 H 352.806 -0.761729 0.322021 0
M  V30 3757 H 355.352 -1.11493 1.27935 0
M  V30 3758 H 354.124 -2.81201 2.72106 0
M  V30 3759 H 353.747 -3.76022 1.29202 0
M  V30 3760 N 354.744 -0.972509 -1.24016 0
M  V30 3761 C 355.993 -0.632603 -1.91523 0
M  V30 3762 C 356.306 0.836641 -1.76804 0
M  V30 3763 O 357.512 1.28728 -2.39043 0
M  V30 3764 C 355.968 -1.08082 -3.43287 0
M  V30 3765 C 355.576 -2.57386 -3.66683 0
M  V30 3766 C 357.32 -0.814288 -4.16617 0
M  V30 3767 C 355.227 -2.95915 -5.12043 0
M  V30 3768 H 354.157 -0.232898 -0.717129 0
M  V30 3769 H 356.808 -1.17936 -1.40582 0
M  V30 3770 H 355.19 -0.462339 -3.93292 0
M  V30 3771 H 356.364 -3.24405 -3.27258 0
M  V30 3772 H 354.679 -2.81701 -3.06649 0
M  V30 3773 H 357.276 -1.0781 -5.23718 0
M  V30 3774 H 357.619 0.24955 -4.15551 0
M  V30 3775 H 358.152 -1.39397 -3.72577 0
M  V30 3776 H 354.891 -4.0139 -5.18234 0
M  V30 3777 H 354.411 -2.33584 -5.52448 0
M  V30 3778 H 356.09 -2.86086 -5.80314 0
M  V30 3779 N 356.222 1.38976 -0.743202 0
M  V30 3780 C 357.499 1.94351 -0.220705 0
M  V30 3781 C 357.879 1.67935 1.2791 0
M  V30 3782 O 357.227 1.01211 2.04862 0
M  V30 3783 C 357.437 3.44426 -0.563171 0
M  V30 3784 C 358.785 4.2144 -0.517046 0
M  V30 3785 O 359.809 3.52661 -0.500846 0
M  V30 3786 O 358.668 5.44032 -0.518806 0
M  V30 3787 H 355.762 0.825879 -0.043047 0
M  V30 3788 H 358.308 1.48429 -0.822618 0
M  V30 3789 H 357.08 3.5712 -1.59941 0
M  V30 3790 H 356.703 3.97543 0.0672883 0
M  V30 3791 N 357.7 0.491464 1.49741 0
M  V30 3792 C 358.648 -0.305837 2.30581 0
M  V30 3793 C 359.642 -0.971642 1.38764 0
M  V30 3794 O 360.848 -0.90042 1.5586 0
M  V30 3795 H 357.223 -0.117482 0.742767 0
M  V30 3796 H 359.194 0.396093 2.95759 0
M  V30 3797 C 357.943 -1.36319 3.19863 0
M  V30 3798 H 357.266 -0.860258 3.90435 0
M  V30 3799 H 358.706 -1.89323 3.79385 0
M  V30 3800 C 357.165 -2.37621 2.38826 0
M  V30 3801 O 357.695 -3.43311 2.08567 0
M  V30 3802 N 355.901 -2.09849 2.01026 0
M  V30 3803 H 355.448 -1.23922 2.25834 0
M  V30 3804 H 355.406 -2.77859 1.47112 0
M  V30 3805 N 359.178 -1.55987 0.224894 0
M  V30 3806 C 360.088 -2.24066 -0.69511 0
M  V30 3807 C 361.104 -1.24939 -1.21104 0
M  V30 3808 O 362.28 -1.5776 -1.25195 0
M  V30 3809 C 359.345 -2.90983 -1.88493 0
M  V30 3810 C 358.406 -4.05462 -1.41064 0
M  V30 3811 C 357.639 -4.69179 -2.54375 0
M  V30 3812 O 357.862 -4.31895 -3.72589 0
M  V30 3813 O 356.796 -5.58108 -2.25386 0
M  V30 3814 H 360.622 -3.03353 -0.145149 0
M  V30 3815 H 358.207 -1.49399 -0.00569476 0
M  V30 3816 H 360.089 -3.33209 -2.57972 0
M  V30 3817 H 358.764 -2.14653 -2.42293 0
M  V30 3818 H 357.671 -3.67798 -0.683774 0
M  V30 3819 H 359.004 -4.83545 -0.918985 0
M  V30 3820 N 360.656 0.0484629 -1.57525 0
M  V30 3821 C 361.881 0.759177 -1.93006 0
M  V30 3822 C 362.306 1.69125 -0.823317 0
M  V30 3823 O 361.664 1.79931 0.222364 0
M  V30 3824 C 361.712 1.50899 -3.27509 0
M  V30 3825 O 360.816 2.62112 -3.18388 0
M  V30 3826 H 360.157 0.205564 -0.631379 0
M  V30 3827 H 362.687 0.00972959 -2.04598 0
M  V30 3828 H 362.697 1.88317 -3.6194 0
M  V30 3829 H 361.372 0.825269 -4.0763 0
M  V30 3830 H 359.949 2.27379 -2.95556 0
M  V30 3831 N 362.134 1.5431 0.320358 0
M  V30 3832 C 363.081 1.83918 1.39438 0
M  V30 3833 C 364.051 0.686525 1.51248 0
M  V30 3834 O 365.236 0.933269 1.66417 0
M  V30 3835 C 362.376 2.075 2.75749 0
M  V30 3836 C 361.489 3.35177 2.72544 0
M  V30 3837 C 360.624 3.48704 4.00723 0
M  V30 3838 C 359.663 4.70244 3.91838 0
M  V30 3839 N 358.8 4.80679 5.11754 0
M  V30 3840 H 363.64 2.75544 1.13489 0
M  V30 3841 H 361.177 1.36459 0.549309 0
M  V30 3842 H 363.135 2.19166 3.54996 0
M  V30 3843 H 361.765 1.19163 3 0
M  V30 3844 H 360.817 3.32233 1.85271 0
M  V30 3845 H 362.129 4.24534 2.61863 0
M  V30 3846 H 361.283 3.59928 4.88402 0
M  V30 3847 H 360.022 2.57445 4.14214 0
M  V30 3848 H 359.027 4.59072 3.02544 0
M  V30 3849 H 360.252 5.6289 3.7991 0
M  V30 3850 H 358.198 3.92337 5.25745 0
M  V30 3851 H 358.115 5.64007 5.0342 0
M  V30 3852 H 359.383 4.96239 6.01138 0
M  V30 3853 N 363.613 -0.582584 1.46437 0
M  V30 3854 C 364.543 -1.70187 1.59871 0
M  V30 3855 C 365.524 -1.64066 0.449042 0
M  V30 3856 O 366.709 -1.82081 0.6753 0
M  V30 3857 C 363.839 -3.08827 1.58881 0
M  V30 3858 C 362.793 -3.29779 2.72819 0
M  V30 3859 C 362.119 -4.68947 2.5689 0
M  V30 3860 C 363.419 -3.17601 4.1464 0
M  V30 3861 H 365.113 -1.592 2.53566 0
M  V30 3862 H 362.659 -0.764472 1.22032 0
M  V30 3863 H 364.612 -3.86951 1.66873 0
M  V30 3864 H 363.336 -3.20713 0.617306 0
M  V30 3865 H 361.995 -2.54054 2.64296 0
M  V30 3866 H 361.643 -4.77599 1.57823 0
M  V30 3867 H 361.343 -4.83919 3.33312 0
M  V30 3868 H 362.867 -5.4924 2.66773 0
M  V30 3869 H 364.281 -3.8557 4.24274 0
M  V30 3870 H 362.678 -3.44094 4.9165 0
M  V30 3871 H 363.748 -2.14681 4.34788 0
M  V30 3872 N 365.091 -1.34144 -0.827227 0
M  V30 3873 C 366.502 -1.23557 -1.39966 0
M  V30 3874 C 366.853 0.140731 -1.95695 0
M  V30 3875 O 365.978 1.04087 -1.89723 0
M  V30 3876 C 366.573 -2.23708 -2.54441 0
M  V30 3877 C 365.132 -2.16924 -3.07605 0
M  V30 3878 C 364.279 -2.10549 -1.80456 0
M  V30 3879 H 367.23 -1.45573 -0.631991 0
M  V30 3880 H 367.251 -1.85157 -3.32411 0
M  V30 3881 H 366.763 -3.23866 -2.13851 0
M  V30 3882 H 364.864 -1.20107 -3.52711 0
M  V30 3883 H 364.977 -3.07988 -3.66988 0
M  V30 3884 H 363.341 -1.56203 -2.01178 0
M  V30 3885 H 364.124 -3.12535 -1.42046 0
M  V30 3886 N 366.569 1.04691 -1.17803 0
M  V30 3887 C 367.499 2.14494 -0.92275 0
M  V30 3888 C 368.48 1.69546 0.137179 0
M  V30 3889 O 369.665 1.94195 -0.0141108 0
M  V30 3890 C 366.795 3.44491 -0.440803 0
M  V30 3891 C 365.749 4.03031 -1.4405 0
M  V30 3892 C 365.075 5.28432 -0.81631 0
M  V30 3893 C 366.375 4.39932 -2.81527 0
M  V30 3894 H 368.069 2.36107 -1.84103 0
M  V30 3895 H 365.615 1.1347 -0.886599 0
M  V30 3896 H 367.568 4.2066 -0.249602 0
M  V30 3897 H 366.292 3.22546 0.513025 0
M  V30 3898 H 364.951 3.28937 -1.61853 0
M  V30 3899 H 364.599 5.02792 0.144511 0
M  V30 3900 H 364.299 5.68559 -1.48371 0
M  V30 3901 H 365.823 6.07284 -0.635496 0
M  V30 3902 H 367.237 5.07113 -2.67412 0
M  V30 3903 H 365.634 4.9109 -3.44892 0
M  V30 3904 H 366.704 3.50045 -3.35554 0
M  V30 3905 N 368.047 0.979072 1.23499 0
M  V30 3906 C 369.463 0.687475 1.44034 0
M  V30 3907 C 369.663 -0.746801 1.8715 0
M  V30 3908 O 368.719 -1.51939 2.0167 0
M  V30 3909 C 370.032 1.68127 2.49307 0
M  V30 3910 C 371.58 1.69516 2.63122 0
M  V30 3911 C 372.055 2.67723 3.71603 0
M  V30 3912 N 373.546 2.66233 3.79044 0
M  V30 3913 C 374.281 3.38891 4.62537 0
M  V30 3914 N 373.777 4.21103 5.50131 0
M  V30 3915 N 375.57 3.27661 4.56721 0
M  V30 3916 H 367.721 1.90559 0.938135 0
M  V30 3917 H 369.984 0.821051 0.473897 0
M  V30 3918 H 369.69 2.70693 2.2454 0
M  V30 3919 H 369.564 1.46306 3.4767 0
M  V30 3920 H 371.951 0.676561 2.8724 0
M  V30 3921 H 372.032 1.95404 1.65079 0
M  V30 3922 H 371.676 3.69724 3.48233 0
M  V30 3923 H 371.606 2.39111 4.69184 0
M  V30 3924 H 374.097 2.06568 3.16446 0
M  V30 3925 H 374.41 4.73403 6.10827 0
M  V30 3926 H 372.755 4.25195 5.49759 0
M  V30 3927 H 375.946 2.62887 3.87309 0
M  V30 3928 H 376.119 3.84547 5.21562 0
M  V30 3929 N 369.525 -1.3858 0.750561 0
M  V30 3930 C 370.472 -2.30483 0.120835 0
M  V30 3931 C 371.442 -1.50022 -0.712923 0
M  V30 3932 O 372.627 -1.78662 -0.669676 0
M  V30 3933 C 369.767 -3.36431 -0.768666 0
M  V30 3934 C 368.88 -4.31927 0.0793922 0
M  V30 3935 C 368.015 -5.24944 -0.81283 0
M  V30 3936 C 367.054 -6.12088 0.0390447 0
M  V30 3937 N 366.191 -6.97412 -0.809969 0
M  V30 3938 H 371.031 -2.83761 0.91015 0
M  V30 3939 H 368.568 -1.39707 0.460463 0
M  V30 3940 H 370.526 -3.96462 -1.29898 0
M  V30 3941 H 369.156 -2.8457 -1.5238 0
M  V30 3942 H 368.208 -3.73382 0.727303 0
M  V30 3943 H 369.52 -4.93319 0.737401 0
M  V30 3944 H 368.674 -5.90078 -1.41042 0
M  V30 3945 H 367.413 -4.63911 -1.50458 0
M  V30 3946 H 366.418 -5.45952 0.649328 0
M  V30 3947 H 367.643 -6.75189 0.727809 0
M  V30 3948 H 365.589 -6.38931 -1.48672 0
M  V30 3949 H 365.506 -7.55712 -0.208789 0
M  V30 3950 H 366.774 -7.66959 -1.39263 0
M  V30 3951 N 371.003 -0.499398 -1.49478 0
M  V30 3952 C 372.228 0.044722 -2.07352 0
M  V30 3953 C 372.653 1.30207 -1.35749 0
M  V30 3954 O 372.011 1.76516 -0.413732 0
M  V30 3955 C 372.059 0.283013 -3.59488 0
M  V30 3956 O 371.163 1.35804 -3.89398 0
M  V30 3957 H 370.504 -0.0255147 -0.66351 0
M  V30 3958 H 373.034 -0.698561 -1.92305 0
M  V30 3959 H 373.044 0.515007 -4.04737 0
M  V30 3960 H 371.719 -0.635636 -4.11014 0
M  V30 3961 H 370.296 1.11113 -3.55961 0
M  V30 3962 N 372.481 1.55866 -0.233164 0
M  V30 3963 C 373.73 1.97779 0.39579 0
M  V30 3964 C 374.043 1.12419 1.60066 0
M  V30 3965 O 375.249 1.44283 2.29988 0
M  V30 3966 C 373.705 3.5188 0.755556 0
M  V30 3967 C 373.313 4.45959 -0.427152 0
M  V30 3968 C 375.057 4.02479 1.34946 0
M  V30 3969 C 372.964 5.91383 -0.0443043 0
M  V30 3970 H 371.894 0.738592 0.15165 0
M  V30 3971 H 374.545 1.80486 -0.331212 0
M  V30 3972 H 372.927 3.64816 1.5403 0
M  V30 3973 H 374.101 4.44776 -1.20462 0
M  V30 3974 H 372.416 4.05765 -0.935068 0
M  V30 3975 H 375.013 5.08637 1.649 0
M  V30 3976 H 375.356 3.49014 2.26925 0
M  V30 3977 H 375.889 3.92813 0.62791 0
M  V30 3978 H 372.628 6.48857 -0.930874 0
M  V30 3979 H 372.148 5.95734 0.697238 0
M  V30 3980 H 373.827 6.45893 0.378334 0
M  V30 3981 N 373.959 -0.0401083 1.57549 0
M  V30 3982 C 375.37 -0.588097 1.77196 0
M  V30 3983 C 375.721 -1.76209 0.862832 0
M  V30 3984 O 374.846 -2.16331 0.0548389 0
M  V30 3985 C 375.441 -1.07363 3.21339 0
M  V30 3986 C 374 -1.56723 3.42221 0
M  V30 3987 C 373.147 -0.50041 2.72747 0
M  V30 3988 H 376.098 0.186119 1.57605 0
M  V30 3989 H 376.119 -1.94143 3.27244 0
M  V30 3990 H 375.631 -0.218975 3.87482 0
M  V30 3991 H 373.732 -2.4441 2.81237 0
M  V30 3992 H 373.845 -1.62234 4.50796 0
M  V30 3993 H 372.209 -0.952894 2.36203 0
M  V30 3994 H 372.992 0.344599 3.41566 0
M  V30 3995 N 375.437 -1.54477 -0.31217 0
M  V30 3996 C 376.665 -1.77205 -1.068 0
M  V30 3997 C 377.08 -0.526114 -1.81321 0
M  V30 3998 O 376.437 0.503647 -1.75413 0
M  V30 3999 C 376.488 -2.97253 -2.05725 0
M  V30 4000 O 376.209 -4.1703 -1.34228 0
M  V30 4001 C 377.71 -3.32281 -2.93435 0
M  V30 4002 H 374.93 -0.591287 -0.317208 0
M  V30 4003 H 377.474 -2.01398 -0.354834 0
M  V30 4004 H 375.629 -2.753 -2.72559 0
M  V30 4005 H 376.043 -4.84636 -2.00571 0
M  V30 4006 H 377.517 -4.19551 -3.58721 0
M  V30 4007 H 377.994 -2.49945 -3.61143 0
M  V30 4008 H 378.6 -3.56353 -2.32147 0
M  V30 4009 N 376.915 0.57481 -1.46744 0
M  V30 4010 C 377.862 1.68329 -1.57905 0
M  V30 4011 C 378.832 1.60625 -0.422927 0
M  V30 4012 O 380.017 1.79721 -0.640711 0
M  V30 4013 C 377.157 3.06665 -1.58274 0
M  V30 4014 C 376.27 3.24935 -2.84678 0
M  V30 4015 C 375.405 4.53566 -2.76499 0
M  V30 4016 C 374.444 4.65207 -3.97806 0
M  V30 4017 N 373.581 5.85172 -3.87967 0
M  V30 4018 H 378.421 1.58127 -2.52587 0
M  V30 4019 H 375.958 0.770552 -1.25303 0
M  V30 4020 H 377.916 3.86745 -1.56473 0
M  V30 4021 H 376.546 3.15745 -0.671194 0
M  V30 4022 H 375.598 2.38405 -2.96424 0
M  V30 4023 H 376.91 3.29403 -3.7456 0
M  V30 4024 H 376.064 5.41885 -2.72848 0
M  V30 4025 H 374.803 4.51548 -1.8427 0
M  V30 4026 H 373.808 3.75304 -4.0178 0
M  V30 4027 H 375.033 4.68997 -4.9114 0
M  V30 4028 H 372.979 5.84137 -2.98529 0
M  V30 4029 H 372.896 5.90943 -4.71511 0
M  V30 4030 H 374.164 6.759 -3.88303 0
M  V30 4031 N 378.394 1.34581 0.820102 0
M  V30 4032 C 379.643 1.26437 1.57151 0
M  V30 4033 C 379.956 -0.163111 1.94919 0
M  V30 4034 O 381.162 -0.366722 2.69012 0
M  V30 4035 C 379.618 2.21658 2.83541 0
M  V30 4036 C 379.226 3.69679 2.53065 0
M  V30 4037 C 380.97 2.22428 3.61561 0
M  V30 4038 C 378.877 4.56761 3.75664 0
M  V30 4039 H 377.807 0.469707 0.589823 0
M  V30 4040 H 380.458 1.59763 0.902656 0
M  V30 4041 H 378.84 1.81287 3.52067 0
M  V30 4042 H 380.014 4.18605 1.92631 0
M  V30 4043 H 378.329 3.71384 1.88316 0
M  V30 4044 H 380.926 2.8471 4.52597 0
M  V30 4045 H 381.269 1.22434 3.97889 0
M  V30 4046 H 381.802 2.61259 2.99981 0
M  V30 4047 H 378.541 5.57702 3.44454 0
M  V30 4048 H 378.061 4.12568 4.35371 0
M  V30 4049 H 379.74 4.71509 4.43044 0
M  V30 4050 N 379.872 -1.04064 1.18357 0
M  V30 4051 C 380.805 -2.11618 0.854 0
M  V30 4052 C 381.783 -1.61555 -0.184043 0
M  V30 4053 O 382.967 -1.88395 -0.0630048 0
M  V30 4054 C 380.094 -3.37574 0.27597 0
M  V30 4055 C 379.14 -4.06485 1.2912 0
M  V30 4056 S 379.973 -4.53543 2.84709 0
M  V30 4057 C 381.129 -5.82732 2.28417 0
M  V30 4058 H 381.362 -2.39247 1.76488 0
M  V30 4059 H 378.895 -1.16832 1.00944 0
M  V30 4060 H 380.853 -4.10468 -0.051026 0
M  V30 4061 H 379.514 -3.0806 -0.613028 0
M  V30 4062 H 378.707 -4.97024 0.835633 0
M  V30 4063 H 378.309 -3.39708 1.56443 0
M  V30 4064 H 380.601 -6.56677 1.66677 0
M  V30 4065 H 381.544 -6.33052 3.17256 0
M  V30 4066 H 381.952 -5.37838 1.71436 0
M  V30 4067 N 381.35 -0.985608 -1.22978 0
M  V30 4068 C 382.26 -0.538548 -2.28335 0
M  V30 4069 C 383.276 0.409163 -1.69121 0
M  V30 4070 O 384.452 0.277797 -1.99475 0
M  V30 4071 C 381.517 0.146867 -3.46389 0
M  V30 4072 C 380.578 -0.842896 -4.20944 0
M  V30 4073 C 379.811 -0.190095 -5.33361 0
M  V30 4074 O 380.034 1.01767 -5.61248 0
M  V30 4075 O 378.968 -0.891289 -5.95264 0
M  V30 4076 H 382.794 -1.41487 -2.68729 0
M  V30 4077 H 380.379 -0.753495 -1.29007 0
M  V30 4078 H 382.261 0.531125 -4.1804 0
M  V30 4079 H 380.936 0.997871 -3.07935 0
M  V30 4080 H 379.843 -1.27795 -3.51595 0
M  V30 4081 H 381.176 -1.66287 -4.6326 0
M  V30 4082 N 382.828 1.3818 -0.7579 0
M  V30 4083 C 384.053 2.04827 -0.325679 0
M  V30 4084 C 384.478 1.56788 1.03919 0
M  V30 4085 O 383.836 0.721811 1.66312 0
M  V30 4086 C 383.884 3.58774 -0.362447 0
M  V30 4087 O 382.988 4.07372 0.642033 0
M  V30 4088 H 382.329 0.64833 -0.143402 0
M  V30 4089 H 384.859 1.7677 -1.03023 0
M  V30 4090 H 384.869 4.07434 -0.214844 0
M  V30 4091 H 383.544 3.93096 -1.35824 0
M  V30 4092 H 382.121 3.70068 0.458688 0
M  V30 4093 N 384.306 0.507319 1.49211 0
M  V30 4094 C 385.216 -0.272136 2.33016 0
M  V30 4095 C 386.232 -0.961206 1.45041 0
M  V30 4096 O 387.408 -0.941191 1.78055 0
M  V30 4097 C 384.473 -1.31895 3.20631 0
M  V30 4098 C 383.534 -0.642648 4.24463 0
M  V30 4099 C 382.767 -1.63959 5.07891 0
M  V30 4100 O 382.99 -2.87007 4.92933 0
M  V30 4101 O 381.924 -1.19143 5.8999 0
M  V30 4102 H 385.75 0.413982 3.00865 0
M  V30 4103 H 383.335 0.268556 1.46966 0
M  V30 4104 H 385.217 -1.92446 3.7489 0
M  V30 4105 H 383.892 -1.98788 2.5547 0
M  V30 4106 H 382.799 0.00276252 3.741 0
M  V30 4107 H 384.132 -0.0160534 4.92197 0
M  V30 4108 N 385.784 -1.5574 0.241426 0
M  V30 4109 C 387.032 -1.98417 -0.384075 0
M  V30 4110 C 387.353 -1.13078 -1.58866 0
M  V30 4111 O 386.623 -0.212312 -1.94746 0
M  V30 4112 H 385.203 -0.732813 -0.144894 0
M  V30 4113 H 387.865 -1.9193 0.338943 0
M  V30 4114 H 386.961 -3.04219 -0.696939 0
M  V30 4115 N 387.262 0.0317525 -1.57568 0
M  V30 4116 C 388.511 0.722131 -1.8833 0
M  V30 4117 C 388.824 1.76664 -0.839587 0
M  V30 4118 O 390.03 2.50942 -1.03635 0
M  V30 4119 C 388.486 1.33544 -3.34207 0
M  V30 4120 C 388.094 0.327415 -4.46802 0
M  V30 4121 C 389.838 2.00585 -3.7412 0
M  V30 4122 C 387.745 0.948915 -5.83738 0
M  V30 4123 H 386.675 0.273466 -0.702661 0
M  V30 4124 H 389.326 -0.0235811 -1.83485 0
M  V30 4125 H 387.708 2.13077 -3.33788 0
M  V30 4126 H 388.882 -0.441006 -4.58685 0
M  V30 4127 H 387.197 -0.240758 -4.15703 0
M  V30 4128 H 389.794 2.47932 -4.73744 0
M  V30 4129 H 390.137 2.82285 -3.05975 0
M  V30 4130 H 390.67 1.27831 -3.76702 0
M  V30 4131 H 387.409 0.171387 -6.55276 0
M  V30 4132 H 386.929 1.68724 -5.7558 0
M  V30 4133 H 388.608 1.45705 -6.3038 0
M  V30 4134 N 388.74 1.54641 0.303973 0
M  V30 4135 C 389.989 1.7299 1.03717 0
M  V30 4136 C 390.302 0.521168 1.88529 0
M  V30 4137 O 391.508 0.586408 2.65092 0
M  V30 4138 C 389.964 3.06051 1.89369 0
M  V30 4139 C 389.572 4.34393 1.09574 0
M  V30 4140 C 391.316 3.3376 2.62306 0
M  V30 4141 C 389.223 5.58506 1.94486 0
M  V30 4142 H 388.153 0.64473 0.390947 0
M  V30 4143 H 390.804 1.81124 0.294328 0
M  V30 4144 H 389.186 2.91874 2.67629 0
M  V30 4145 H 390.36 4.59396 0.359485 0
M  V30 4146 H 388.675 4.13597 0.482324 0
M  V30 4147 H 391.272 4.23687 3.26181 0
M  V30 4148 H 391.615 2.52503 3.3098 0
M  V30 4149 H 392.148 3.48894 1.91097 0
M  V30 4150 H 388.887 6.42422 1.30287 0
M  V30 4151 H 388.407 5.37694 2.65792 0
M  V30 4152 H 390.086 5.95651 2.52605 0
M  V30 4153 N 390.218 -0.567019 1.47046 0
M  V30 4154 C 391.466 -1.322 1.52864 0
M  V30 4155 C 391.787 -1.94088 0.188388 0
M  V30 4156 O 391.057 -1.7941 -0.786693 0
M  V30 4157 H 389.637 -0.490894 0.563056 0
M  V30 4158 H 392.299 -0.662879 1.83281 0
M  V30 4159 H 391.395 -2.12062 2.2899 0
M  V30 4160 N 391.696 -1.35014 -0.812953 0
M  V30 4161 C 392.944 -1.27678 -1.56661 0
M  V30 4162 C 393.265 0.150359 -1.94419 0
M  V30 4163 O 392.535 1.08532 -1.63088 0
M  V30 4164 H 391.115 -0.469602 -0.580933 0
M  V30 4165 H 393.777 -1.69043 -0.970076 0
M  V30 4166 H 392.873 -1.88833 -2.48492 0
M  V30 4167 O 393.213 0.951708 -1.30479 0
M  V30 4168 H 393.904 1.58029 -1.12012 0
M  V30 END ATOM
M  V30 BEGIN BOND
M  V30 END BOND
M  V30 END CTAB
M  END
$$$$
