drugbank_target|Q7Z5B4 Protein RIC-3 (DB00277)
 OpenBabel12092121063D

  0  0  0     0  0            999 V3000
M  V30 BEGIN CTAB
M  V30 COUNTS 5680 5743 0 0 0
M  V30 BEGIN ATOM
M  V30 1 H -0.908 1.98254 -0.117106 0
M  V30 2 N 0 1.576 0 0
M  V30 3 C 0.933 2.03868 1.02534 0
M  V30 4 C 1.911 0.928543 1.3348 0
M  V30 5 O 3.095 1.19667 1.45644 0
M  V30 6 C 0.222 2.43627 2.35294 0
M  V30 7 C -0.732 3.65373 2.2001 0
M  V30 8 S 0.101 5.13292 1.52614 0
M  V30 9 C 1.257 5.56322 2.86805 0
M  V30 10 H 1.49 2.90518 0.631377 0
M  V30 11 H -0.977 1.52953 0.210867 0
M  V30 12 H 0.981 2.67203 3.11629 0
M  V30 13 H -0.358 1.57376 2.7183 0
M  V30 14 H -1.165 3.90944 3.18086 0
M  V30 15 H -1.563 3.418 1.51819 0
M  V30 16 H 0.729 5.58782 3.83104 0
M  V30 17 H 1.672 6.56266 2.65933 0
M  V30 18 H 2.08 4.83886 2.90714 0
M  V30 19 N 1.4781 -0.272755 1.55222 0
M  V30 20 C 2.4411 -1.32041 1.87344 0
M  V30 21 C 3.4411 -1.42342 0.74803 0
M  V30 22 O 4.6311 -1.41488 1.0162 0
M  V30 23 C 1.7631 -2.70173 2.07893 0
M  V30 24 H 2.9561 -1.04789 2.80997 0
M  V30 25 H 0.5091 -0.51083 1.47717 0
M  V30 26 H 1.2441 -3.02605 1.16622 0
M  V30 27 H 1.0291 -2.64082 2.89833 0
M  V30 28 H 2.5191 -3.45869 2.34017 0
M  V30 29 N 2.9562 -1.48159 -0.537278 0
M  V30 30 C 4.1862 -1.59223 -1.3165 0
M  V30 31 C 4.5942 -0.248849 -1.87556 0
M  V30 32 O 3.9372 0.770949 -1.6674 0
M  V30 33 C 3.9992 -2.57365 -2.51005 0
M  V30 34 C 3.6632 -4.02603 -2.16239 0
M  V30 35 C 4.6602 -4.90503 -1.72344 0
M  V30 36 C 2.3452 -4.48088 -2.26986 0
M  V30 37 C 4.3392 -6.21913 -1.39651 0
M  V30 38 C 2.0262 -5.7952 -1.93906 0
M  V30 39 C 3.0242 -6.66255 -1.50309 0
M  V30 40 O 2.7122 -7.95243 -1.17659 0
M  V30 41 H 2.4442 -0.539831 -0.406889 0
M  V30 42 H 4.9982 -1.94655 -0.655641 0
M  V30 43 H 3.2282 -2.1704 -3.20048 0
M  V30 44 H 4.9172 -2.58342 -3.13072 0
M  V30 45 H 5.6832 -4.56604 -1.63517 0
M  V30 46 H 1.5622 -3.80769 -2.59877 0
M  V30 47 H 5.1062 -6.89569 -1.0555 0
M  V30 48 H 1.0032 -6.12957 -2.02371 0
M  V30 49 H 1.7712 -8.0793 -1.31119 0
M  V30 50 N 4.4343 0.785586 -1.36625 0
M  V30 51 C 5.6593 1.57963 -1.34397 0
M  V30 52 C 6.0843 1.87964 0.071526 0
M  V30 53 O 5.4423 1.48182 1.0446 0
M  V30 54 C 5.4903 2.87511 -2.17646 0
M  V30 55 O 4.5943 3.81281 -1.57158 0
M  V30 56 H 3.9353 0.479014 -0.459828 0
M  V30 57 H 6.4653 0.973411 -1.79961 0
M  V30 58 H 6.4753 3.36745 -2.30362 0
M  V30 59 H 5.1503 2.65002 -3.20541 0
M  V30 60 H 3.7273 3.39885 -1.53403 0
M  V30 61 N 5.9124 1.20967 1.01018 0
M  V30 62 C 7.1404 1.04956 1.78303 0
M  V30 63 C 7.5554 -0.400915 1.84494 0
M  V30 64 O 6.9124 -1.27826 1.30257 0
M  V30 65 C 6.9634 1.63403 3.22462 0
M  V30 66 O 6.6844 3.02775 3.16637 0
M  V30 67 C 8.1854 1.52432 4.16268 0
M  V30 68 H 5.4054 0.368858 0.560522 0
M  V30 69 H 7.9494 1.60193 1.27116 0
M  V30 70 H 6.1044 1.1227 3.70775 0
M  V30 71 H 6.5184 3.30626 4.07169 0
M  V30 72 H 7.9924 1.98078 5.15237 0
M  V30 73 H 8.4694 0.477875 4.36592 0
M  V30 74 H 9.0754 2.02787 3.73841 0
M  V30 75 N 7.3905 -1.2043 1.01659 0
M  V30 76 C 8.6365 -1.90079 0.706963 0
M  V30 77 C 8.9695 -1.78648 -0.761474 0
M  V30 78 O 8.2445 -1.17069 -1.55323 0
M  V30 79 C 8.5275 -3.41469 1.14327 0
M  V30 80 C 8.3805 -3.61833 2.67201 0
M  V30 81 C 9.6995 -4.34261 0.714529 0
M  V30 82 H 6.8185 -0.690254 0.2583 0
M  V30 83 H 9.4605 -1.41826 1.26433 0
M  V30 84 H 7.6105 -3.82696 0.669056 0
M  V30 85 H 9.2825 -3.2986 3.22475 0
M  V30 86 H 7.5255 -3.05304 3.08175 0
M  V30 87 H 8.1965 -4.67955 2.92783 0
M  V30 88 H 10.6725 -4.00682 1.12221 0
M  V30 89 H 9.5485 -5.38806 1.04784 0
M  V30 90 H 9.8095 -4.40431 -0.383799 0
M  V30 91 N 8.8686 -0.792821 -1.36206 0
M  V30 92 C 9.8006 -0.151469 -2.28699 0
M  V30 93 C 10.8136 0.641262 -1.49638 0
M  V30 94 O 12.0026 0.475885 -1.72039 0
M  V30 95 C 9.1026 0.808424 -3.29117 0
M  V30 96 C 8.2756 0.0650202 -4.37352 0
M  V30 97 C 7.3346 0.941358 -5.17711 0
M  V30 98 O 6.3606 0.397352 -5.67811 0
M  V30 99 N 7.5626 2.2652 -5.3448 0
M  V30 100 H 10.3276 -0.945982 -2.84379 0
M  V30 101 H 7.8886 -0.647032 -1.48409 0
M  V30 102 H 9.8806 1.3986 -3.79765 0
M  V30 103 H 8.4506 1.5038 -2.74052 0
M  V30 104 H 7.6706 -0.706255 -3.87822 0
M  V30 105 H 8.9586 -0.447847 -5.06825 0
M  V30 106 H 8.3566 2.73128 -4.95396 0
M  V30 107 H 6.9136 2.80493 -5.88359 0
M  V30 108 N 10.3467 1.47872 -0.545128 0
M  V30 109 C 11.7627 1.5829 -0.204032 0
M  V30 110 C 11.9627 1.54529 1.29317 0
M  V30 111 O 11.0187 1.44232 2.07252 0
M  V30 112 C 12.3317 2.89304 -0.819987 0
M  V30 113 C 13.8797 3.02864 -0.790105 0
M  V30 114 C 14.3547 4.3656 -1.38491 0
M  V30 115 N 15.8457 4.43165 -1.34755 0
M  V30 116 C 16.5807 5.45153 -1.77753 0
M  V30 117 N 16.0767 6.54016 -2.2855 0
M  V30 118 N 17.8697 5.36125 -1.68897 0
M  V30 119 H 10.0207 1.4856 -1.51802 0
M  V30 120 H 12.2837 0.706305 -0.632327 0
M  V30 121 H 11.9897 2.97757 -1.87173 0
M  V30 122 H 11.8637 3.75957 -0.305915 0
M  V30 123 H 14.2507 2.94014 0.252913 0
M  V30 124 H 14.3317 2.17782 -1.34181 0
M  V30 125 H 13.9757 4.46164 -2.42693 0
M  V30 126 H 13.9057 5.20353 -0.808754 0
M  V30 127 H 16.3967 3.65083 -0.975855 0
M  V30 128 H 16.7097 7.27994 -2.59314 0
M  V30 129 H 15.0547 6.54938 -2.32553 0
M  V30 130 H 18.2457 4.49975 -1.28998 0
M  V30 131 H 18.4187 6.15472 -2.02726 0
M  V30 132 N 11.8248 0.280983 1.55075 0
M  V30 133 C 13.0708 -0.33461 2.00021 0
M  V30 134 C 13.4038 -1.55063 1.16915 0
M  V30 135 O 12.6788 -1.93006 0.240646 0
M  V30 136 C 12.9618 -0.711007 3.53011 0
M  V30 137 C 12.8148 0.512766 4.46868 0
M  V30 138 C 14.1338 -1.54522 4.12081 0
M  V30 139 H 11.2528 -0.120147 0.727141 0
M  V30 140 H 13.8948 0.389097 1.85973 0
M  V30 141 H 12.0448 -1.32761 3.65112 0
M  V30 142 H 13.7168 1.15131 4.46702 0
M  V30 143 H 11.9598 1.14975 4.18286 0
M  V30 144 H 12.6308 0.205556 5.51617 0
M  V30 145 H 15.1068 -1.02442 4.03293 0
M  V30 146 H 13.9828 -1.77739 5.19327 0
M  V30 147 H 14.2438 -2.52813 3.62682 0
M  V30 148 N 13.3029 -1.57598 0.00835791 0
M  V30 149 C 14.2659 -2.07884 -0.965242 0
M  V30 150 C 15.2659 -0.989825 -1.26725 0
M  V30 151 O 16.4559 -1.25218 -1.21104 0
M  V30 152 C 13.5879 -2.52731 -2.28779 0
M  V30 153 H 14.7809 -2.95178 -0.530112 0
M  V30 154 H 12.3339 -1.54458 -0.239283 0
M  V30 155 H 13.0689 -1.68705 -2.76964 0
M  V30 156 H 12.8539 -3.32272 -2.08177 0
M  V30 157 H 14.3439 -2.91933 -2.98605 0
M  V30 158 N 14.781 0.264519 -1.55364 0
M  V30 159 C 15.711 1.33121 -1.91836 0
M  V30 160 C 16.692 1.51101 -0.781192 0
M  V30 161 O 17.877 1.64003 -1.04003 0
M  V30 162 C 15.007 2.68921 -2.19769 0
M  V30 163 C 13.961 2.65661 -3.35571 0
M  V30 164 C 13.287 4.05093 -3.49004 0
M  V30 165 C 14.587 2.24187 -4.71739 0
M  V30 166 H 16.281 1.02844 -2.81182 0
M  V30 167 H 13.827 0.493286 -1.35287 0
M  V30 168 H 15.78 3.43663 -2.43872 0
M  V30 169 H 14.504 3.00799 -1.27231 0
M  V30 170 H 13.163 1.93377 -3.1145 0
M  V30 171 H 12.811 4.34206 -2.53917 0
M  V30 172 H 12.511 4.03804 -4.26868 0
M  V30 173 H 14.035 4.81561 -3.75408 0
M  V30 174 H 15.449 2.88654 -4.9533 0
M  V30 175 H 13.846 2.34044 -5.52579 0
M  V30 176 H 14.916 1.19327 -4.69988 0
M  V30 177 N 16.2591 1.48442 0.529413 0
M  V30 178 C 17.2221 1.62524 1.61612 0
M  V30 179 C 18.2221 0.498509 1.52877 0
M  V30 180 O 19.4121 0.76431 1.56537 0
M  V30 181 C 16.5441 1.59597 3.01233 0
M  V30 182 H 17.7371 2.59423 1.50465 0
M  V30 183 H 15.2901 1.37047 0.751514 0
M  V30 184 H 16.0251 0.641781 3.17886 0
M  V30 185 H 15.8101 2.41397 3.08982 0
M  V30 186 H 17.3001 1.72646 3.80241 0
M  V30 187 N 17.7372 -0.778329 1.37039 0
M  V30 188 C 18.9622 -1.57248 1.35233 0
M  V30 189 C 19.3872 -1.87999 -0.0615568 0
M  V30 190 O 18.7452 -1.48734 -1.03672 0
M  V30 191 C 18.7932 -2.86353 2.19167 0
M  V30 192 O 17.8972 -3.80442 1.59178 0
M  V30 193 H 17.2382 -0.476569 0.462362 0
M  V30 194 H 19.7682 -0.963853 1.80474 0
M  V30 195 H 19.7782 -3.35519 2.32145 0
M  V30 196 H 18.4532 -2.63299 3.21942 0
M  V30 197 H 17.0302 -3.39067 1.55203 0
M  V30 198 N 19.2153 -1.21501 -1.00376 0
M  V30 199 C 20.4633 -1.03095 -1.73827 0
M  V30 200 C 20.7843 0.436341 -1.90055 0
M  V30 201 O 20.0543 1.31466 -1.45236 0
M  V30 202 H 18.6343 -0.378487 -0.644016 0
M  V30 203 H 21.2963 -1.52831 -1.20949 0
M  V30 204 H 20.3923 -1.49991 -2.73695 0
M  V30 205 N 20.6934 1.19889 -1.02296 0
M  V30 206 C 21.6234 2.25141 -0.619174 0
M  V30 207 C 22.6044 1.66051 0.368915 0
M  V30 208 O 23.7894 1.92546 0.252941 0
M  V30 209 C 20.9194 3.4728 0.0368783 0
M  V30 210 C 19.8734 4.19005 -0.872865 0
M  V30 211 C 19.1994 5.34637 -0.0822402 0
M  V30 212 C 20.4994 4.74452 -2.18387 0
M  V30 213 H 22.1934 2.59171 -1.49903 0
M  V30 214 H 19.7394 1.24579 -0.722222 0
M  V30 215 H 21.6924 4.20098 0.330958 0
M  V30 216 H 20.4164 3.12433 0.95149 0
M  V30 217 H 19.0754 3.48061 -1.15105 0
M  V30 218 H 18.7234 4.96034 0.83422 0
M  V30 219 H 18.4234 5.83557 -0.688149 0
M  V30 220 H 19.9474 6.10255 0.205238 0
M  V30 221 H 21.3614 5.39055 -1.95172 0
M  V30 222 H 19.7584 5.33834 -2.74119 0
M  V30 223 H 20.8284 3.92844 -2.84257 0
M  V30 224 N 22.1715 0.800033 1.35784 0
M  V30 225 C 23.4175 0.377901 1.99248 0
M  V30 226 C 23.7505 -1.05052 1.63333 0
M  V30 227 O 23.0255 -1.72768 0.893385 0
M  V30 228 C 23.3085 0.553922 3.55814 0
M  V30 229 C 23.1615 2.0268 4.01548 0
M  V30 230 C 24.4805 -0.0244802 4.40093 0
M  V30 231 H 21.5995 0.138782 0.723815 0
M  V30 232 H 24.2415 1.00835 1.61035 0
M  V30 233 H 22.3915 0.0172398 3.88496 0
M  V30 234 H 24.0635 2.62536 3.79305 0
M  V30 235 H 22.3065 2.5256 3.52698 0
M  V30 236 H 22.9775 2.10087 5.10458 0
M  V30 237 H 25.4535 0.433775 4.13833 0
M  V30 238 H 24.3295 0.128637 5.48749 0
M  V30 239 H 24.5905 -1.11758 4.27741 0
M  V30 240 N 23.6496 -1.47581 0.552962 0
M  V30 241 C 24.5796 -2.32762 -0.185451 0
M  V30 242 C 25.5606 -1.43527 -0.912905 0
M  V30 243 O 26.7456 -1.72388 -0.894201 0
M  V30 244 C 23.8756 -3.25219 -1.21859 0
M  V30 245 C 22.8296 -4.23661 -0.607864 0
M  V30 246 C 22.1556 -5.05413 -1.74533 0
M  V30 247 C 23.4556 -5.20481 0.435582 0
M  V30 248 H 25.1496 -2.94749 0.525684 0
M  V30 249 H 22.6956 -1.41738 0.254251 0
M  V30 250 H 24.6486 -3.8365 -1.7433 0
M  V30 251 H 23.3726 -2.61279 -1.95961 0
M  V30 252 H 22.0316 -3.66451 -0.104489 0
M  V30 253 H 21.6796 -4.3788 -2.47529 0
M  V30 254 H 21.3796 -5.72059 -1.34249 0
M  V30 255 H 22.9036 -5.66701 -2.27338 0
M  V30 256 H 24.3176 -5.733 -0.00290157 0
M  V30 257 H 22.7146 -5.95305 0.757067 0
M  V30 258 H 23.7846 -4.66217 1.33303 0
M  V30 259 N 25.1277 -0.289203 -1.54924 0
M  V30 260 C 26.0907 0.579144 -2.21762 0
M  V30 261 C 27.0907 1.07047 -1.1999 0
M  V30 262 O 28.2807 0.968384 -1.44803 0
M  V30 263 C 25.4127 1.80055 -2.8947 0
M  V30 264 H 26.6057 -0.00464908 -2.999 0
M  V30 265 H 24.1587 -0.0399306 -1.56249 0
M  V30 266 H 24.8937 2.42449 -2.15381 0
M  V30 267 H 24.6787 1.45602 -3.64064 0
M  V30 268 H 26.1687 2.41773 -3.40493 0
M  V30 269 N 26.6058 1.57591 -0.0167156 0
M  V30 270 C 27.5358 2.12496 0.967858 0
M  V30 271 C 28.5168 1.03807 1.34752 0
M  V30 272 O 29.7018 1.31577 1.42833 0
M  V30 273 C 26.8318 2.64194 2.25431 0
M  V30 274 C 25.7858 3.77559 2.01576 0
M  V30 275 C 25.1118 4.15636 3.36379 0
M  V30 276 C 26.4118 5.04151 1.36489 0
M  V30 277 H 28.1058 2.95013 0.510643 0
M  V30 278 H 25.6518 1.41915 0.244181 0
M  V30 279 H 27.6048 3.01236 2.94678 0
M  V30 280 H 26.3288 1.78821 2.73296 0
M  V30 281 H 24.9878 3.40937 1.34751 0
M  V30 282 H 24.6358 3.27263 3.81979 0
M  V30 283 H 24.3358 4.92022 3.21229 0
M  V30 284 H 25.8598 4.5525 4.06915 0
M  V30 285 H 27.2738 5.38857 1.95718 0
M  V30 286 H 25.6708 5.85453 1.31776 0
M  V30 287 H 26.7408 4.83733 0.336219 0
M  V30 288 N 28.0839 -0.256276 1.55502 0
M  V30 289 C 29.3089 -1.00766 1.81276 0
M  V30 290 C 29.7339 -1.78524 0.59252 0
M  V30 291 O 29.0919 -1.75413 -0.45827 0
M  V30 292 C 29.1399 -1.92869 3.04687 0
M  V30 293 O 28.2439 -3.019 2.80945 0
M  V30 294 H 27.5849 -0.287224 0.598664 0
M  V30 295 H 30.1149 -0.280109 2.02674 0
M  V30 296 H 30.1249 -2.34511 3.33869 0
M  V30 297 H 28.7999 -1.35689 3.93143 0
M  V30 298 H 27.3769 -2.64454 2.62904 0
M  V30 299 N 29.562 -1.4872 -0.521534 0
M  V30 300 C 30.492 -1.66771 -1.63431 0
M  V30 301 C 31.473 -0.516499 -1.62069 0
M  V30 302 O 32.658 -0.750013 -1.79132 0
M  V30 303 C 29.788 -1.71515 -3.01993 0
M  V30 304 C 28.742 -2.86222 -3.18216 0
M  V30 305 C 28.068 -2.76061 -4.57924 0
M  V30 306 C 29.368 -4.27419 -3.00184 0
M  V30 307 H 31.062 -2.59932 -1.48579 0
M  V30 308 H 28.608 -1.25089 -0.713358 0
M  V30 309 H 30.561 -1.82731 -3.7972 0
M  V30 310 H 29.285 -0.749393 -3.17886 0
M  V30 311 H 27.944 -2.74575 -2.42908 0
M  V30 312 H 27.592 -1.77437 -4.70665 0
M  V30 313 H 27.292 -3.53037 -4.69722 0
M  V30 314 H 28.816 -2.89256 -5.37739 0
M  V30 315 H 30.23 -4.39855 -3.67697 0
M  V30 316 H 28.627 -5.05458 -3.2347 0
M  V30 317 H 29.697 -4.43293 -1.96518 0
M  V30 318 N 31.0401 0.771051 -1.3745 0
M  V30 319 C 31.9701 1.89827 -1.3597 0
M  V30 320 C 32.9511 1.68562 -0.228216 0
M  V30 321 O 34.1361 1.8941 -0.428675 0
M  V30 322 C 31.2661 3.2712 -1.16662 0
M  V30 323 C 30.2201 3.6295 -2.2683 0
M  V30 324 C 29.5461 4.98791 -1.92644 0
M  V30 325 C 30.8461 3.69627 -3.69017 0
M  V30 326 H 32.5401 1.91323 -2.30295 0
M  V30 327 H 30.0861 0.919082 -1.10855 0
M  V30 328 H 32.0391 4.05615 -1.14256 0
M  V30 329 H 30.7631 3.26059 -0.187926 0
M  V30 330 H 29.4221 2.86763 -2.28392 0
M  V30 331 H 29.0701 4.94271 -0.933021 0
M  V30 332 H 28.7701 5.23733 -2.66416 0
M  V30 333 H 30.2941 5.79685 -1.91826 0
M  V30 334 H 31.7081 4.38273 -3.69581 0
M  V30 335 H 30.1051 4.06067 -4.41848 0
M  V30 336 H 31.1751 2.70273 -4.02592 0
M  V30 337 N 32.5182 1.22032 0.997298 0
M  V30 338 C 33.4482 1.01065 2.10495 0
M  V30 339 C 34.4292 -0.0669542 1.69968 0
M  V30 340 O 35.6142 0.0943987 1.9397 0
M  V30 341 C 32.7442 0.582874 3.42374 0
M  V30 342 C 31.6982 1.60592 3.96729 0
M  V30 343 C 31.0242 1.03412 5.24605 0
M  V30 344 C 32.3242 2.99478 4.27914 0
M  V30 345 H 34.0182 1.93708 2.28292 0
M  V30 346 H 31.5642 0.932761 1.09707 0
M  V30 347 H 33.5172 0.423332 4.19268 0
M  V30 348 H 32.2412 -0.379213 3.24391 0
M  V30 349 H 30.9002 1.75316 3.21963 0
M  V30 350 H 30.5482 0.063518 5.0296 0
M  V30 351 H 30.2482 1.71754 5.61938 0
M  V30 352 H 31.7722 0.886066 6.04137 0
M  V30 353 H 33.1862 2.88153 4.95622 0
M  V30 354 H 31.5832 3.64903 4.76409 0
M  V30 355 H 32.6532 3.49742 3.3587 0
M  V30 356 N 33.9963 -1.19345 1.0293 0
M  V30 357 C 35.4073 -1.70725 0.755633 0
M  V30 358 C 35.7583 -1.82326 -0.724676 0
M  V30 359 O 34.8833 -1.49471 -1.56484 0
M  V30 360 C 35.4783 -3.10084 1.36503 0
M  V30 361 C 34.0373 -3.58723 1.13994 0
M  V30 362 C 33.1843 -2.35577 1.46283 0
M  V30 363 H 36.1353 -1.0418 1.19718 0
M  V30 364 H 36.1563 -3.72787 0.762217 0
M  V30 365 H 35.6683 -3.01609 2.44241 0
M  V30 366 H 33.7693 -3.72512 0.0807901 0
M  V30 367 H 33.8823 -4.42816 1.82894 0
M  V30 368 H 32.2463 -2.38935 0.88217 0
M  V30 369 H 33.0293 -2.29731 2.55105 0
M  V30 370 N 35.4744 -0.807222 -1.35358 0
M  V30 371 C 36.4214 -0.216037 -2.29787 0
M  V30 372 C 37.3914 0.650278 -1.52842 0
M  V30 373 O 38.5764 0.595227 -1.81278 0
M  V30 374 C 35.7164 0.628893 -3.39321 0
M  V30 375 C 34.8294 -0.257927 -4.31229 0
M  V30 376 C 33.9644 0.595069 -5.27856 0
M  V30 377 C 33.0034 -0.292111 -6.11403 0
M  V30 378 N 32.1404 0.520895 -7.00165 0
M  V30 379 H 36.9804 -1.02671 -2.79755 0
M  V30 380 H 34.5174 -0.517839 -1.37684 0
M  V30 381 H 36.4754 1.13393 -4.01494 0
M  V30 382 H 35.1054 1.40482 -2.90628 0
M  V30 383 H 34.1574 -0.881076 -3.70056 0
M  V30 384 H 35.4694 -0.940759 -4.89848 0
M  V30 385 H 34.6234 1.16522 -5.95405 0
M  V30 386 H 33.3624 1.31146 -4.69736 0
M  V30 387 H 32.3674 -0.874525 -5.428 0
M  V30 388 H 33.5924 -1.00638 -6.71602 0
M  V30 389 H 31.5384 1.22125 -6.44532 0
M  V30 390 H 31.4554 -0.103877 -7.55929 0
M  V30 391 H 32.7234 1.0743 -7.72062 0
M  V30 392 N 36.9525 1.47285 -0.560781 0
M  V30 393 C 37.9155 2.28535 0.174488 0
M  V30 394 C 38.9155 1.37153 0.839388 0
M  V30 395 O 40.1055 1.59748 0.694702 0
M  V30 396 C 37.2375 3.16934 1.25561 0
M  V30 397 H 38.4305 2.95012 -0.539262 0
M  V30 398 H 35.9835 1.53034 -0.317865 0
M  V30 399 H 36.7185 2.55157 2.00164 0
M  V30 400 H 36.5035 3.8419 0.783604 0
M  V30 401 H 37.9935 3.78143 1.77193 0
M  V30 402 N 38.4306 0.297415 1.54768 0
M  V30 403 C 39.6776 -0.312913 2.00068 0
M  V30 404 C 40.0056 -1.54171 1.18582 0
M  V30 405 O 39.2606 -1.94108 0.249133 0
M  V30 406 C 39.5596 -0.717561 3.50123 0
M  V30 407 C 39.2256 0.409095 4.4904 0
M  V30 408 C 37.8876 0.718399 4.75807 0
M  V30 409 C 40.2396 1.16717 5.07963 0
M  V30 410 C 37.5676 1.78896 5.5876 0
M  V30 411 C 39.9196 2.22762 5.92081 0
M  V30 412 C 38.5836 2.54303 6.1716 0
M  V30 413 H 37.8536 -0.114503 0.7321 0
M  V30 414 H 40.5006 0.415767 1.86932 0
M  V30 415 H 38.8056 -1.52627 3.60849 0
M  V30 416 H 40.5026 -1.20091 3.82595 0
M  V30 417 H 37.0926 0.157918 4.28309 0
M  V30 418 H 41.2766 0.941466 4.87289 0
M  V30 419 H 36.5326 2.0381 5.7643 0
M  V30 420 H 40.7066 2.81962 6.36765 0
M  V30 421 H 38.3336 3.3739 6.81229 0
M  V30 422 N 39.9087 -1.5758 0.0250728 0
M  V30 423 C 40.8387 -2.13007 -0.956575 0
M  V30 424 C 41.8197 -1.0452 -1.342 0
M  V30 425 O 43.0047 -1.32332 -1.42133 0
M  V30 426 C 40.1347 -2.65386 -2.24026 0
M  V30 427 C 39.0887 -3.78623 -1.99571 0
M  V30 428 C 38.4147 -4.17414 -3.3417 0
M  V30 429 C 39.7147 -5.04867 -1.33814 0
M  V30 430 H 41.4087 -2.9528 -0.494991 0
M  V30 431 H 38.9547 -1.42042 -0.236651 0
M  V30 432 H 40.9077 -3.02794 -2.93076 0
M  V30 433 H 39.6317 -1.80268 -2.72343 0
M  V30 434 H 38.2907 -3.41646 -1.32941 0
M  V30 435 H 37.9387 -3.29284 -3.80238 0
M  V30 436 H 37.6387 -4.93719 -3.18615 0
M  V30 437 H 39.1627 -4.57402 -4.04495 0
M  V30 438 H 40.5767 -5.39888 -1.92857 0
M  V30 439 H 38.9737 -5.86144 -1.28669 0
M  V30 440 H 40.0437 -4.83904 -0.310561 0
M  V30 441 N 41.3868 0.248026 -1.55636 0
M  V30 442 C 42.6118 0.998028 -1.81808 0
M  V30 443 C 43.0368 1.78207 -0.601979 0
M  V30 444 O 42.3948 1.75653 0.448961 0
M  V30 445 C 42.4428 1.9125 -3.05705 0
M  V30 446 O 41.5468 3.00406 -2.82542 0
M  V30 447 H 40.8878 0.284045 -0.600179 0
M  V30 448 H 43.4178 0.269357 -2.02819 0
M  V30 449 H 43.4278 2.32737 -3.35108 0
M  V30 450 H 42.1028 1.33602 -3.93857 0
M  V30 451 H 40.6798 2.63056 -2.64303 0
M  V30 452 N 42.8649 1.48995 0.513639 0
M  V30 453 C 44.2809 1.35478 0.843682 0
M  V30 454 C 44.4809 0.378213 1.97919 0
M  V30 455 O 43.5369 -0.194689 2.51748 0
M  V30 456 C 44.8499 2.75901 1.1958 0
M  V30 457 C 46.3979 2.84509 1.30474 0
M  V30 458 C 46.8729 4.25671 1.69021 0
M  V30 459 N 48.3639 4.28422 1.76094 0
M  V30 460 C 49.0989 5.34601 2.07338 0
M  V30 461 N 48.5949 6.5104 2.36894 0
M  V30 462 N 50.3879 5.22007 2.08483 0
M  V30 463 H 42.5389 2.11092 -0.235328 0
M  V30 464 H 44.8019 0.947039 -0.0426669 0
M  V30 465 H 44.5079 3.49001 0.434913 0
M  V30 466 H 44.3819 3.10467 2.1422 0
M  V30 467 H 46.7689 2.11655 2.05637 0
M  V30 468 H 46.8499 2.53542 0.339155 0
M  V30 469 H 46.4939 4.99048 0.944135 0
M  V30 470 H 46.4239 4.54094 2.66658 0
M  V30 471 H 48.9149 3.44441 1.55464 0
M  V30 472 H 49.2279 7.2779 2.59887 0
M  V30 473 H 47.5729 6.54287 2.34378 0
M  V30 474 H 50.7639 4.30051 1.84861 0
M  V30 475 H 50.9369 6.04854 2.325 0
M  V30 476 N 44.343 -0.763751 1.37857 0
M  V30 477 C 45.591 -1.51957 1.33243 0
M  V30 478 C 45.912 -1.94835 -0.0801709 0
M  V30 479 O 45.182 -1.66894 -1.02582 0
M  V30 480 H 43.762 -0.563626 0.49024 0
M  V30 481 H 46.424 -0.908504 1.7243 0
M  V30 482 H 45.52 -2.41523 1.97669 0
M  V30 483 N 45.8211 -1.22559 -0.990812 0
M  V30 484 C 46.7681 -0.997519 -2.0813 0
M  V30 485 C 47.7381 0.0814702 -1.659 0
M  V30 486 O 48.9231 -0.0685424 -1.90677 0
M  V30 487 C 46.0631 -0.583615 -3.40129 0
M  V30 488 C 45.1761 -1.7336 -3.9569 0
M  V30 489 C 44.3111 -1.26748 -5.15857 0
M  V30 490 C 43.3501 -2.38888 -5.63559 0
M  V30 491 N 42.4871 -1.93308 -6.74964 0
M  V30 492 H 47.3271 -1.93099 -2.26973 0
M  V30 493 H 44.8641 -0.962114 -1.11273 0
M  V30 494 H 46.8221 -0.324801 -4.15934 0
M  V30 495 H 45.4521 0.312845 -3.2128 0
M  V30 496 H 44.5041 -2.10669 -3.16738 0
M  V30 497 H 45.8161 -2.57704 -4.27071 0
M  V30 498 H 44.9701 -0.966173 -5.98957 0
M  V30 499 H 43.7091 -0.394272 -4.86104 0
M  V30 500 H 42.7141 -2.69805 -4.79046 0
M  V30 501 H 43.9391 -3.26728 -5.95336 0
M  V30 502 H 41.8851 -1.08352 -6.4699 0
M  V30 503 H 41.8021 -2.71217 -7.05675 0
M  V30 504 H 43.0701 -1.66252 -7.61564 0
M  V30 505 N 47.2992 1.18797 -1.03562 0
M  V30 506 C 48.7152 1.40671 -0.753917 0
M  V30 507 C 48.9152 1.9043 0.658686 0
M  V30 508 O 47.9712 2.08538 1.42366 0
M  V30 509 C 49.2842 2.41192 -1.79574 0
M  V30 510 C 50.8322 2.54928 -1.81606 0
M  V30 511 C 51.3072 3.58709 -2.84766 0
M  V30 512 N 52.7982 3.66212 -2.83625 0
M  V30 513 C 53.5332 4.46225 -3.60098 0
M  V30 514 N 53.0292 5.29888 -4.46308 0
M  V30 515 N 54.8222 4.40939 -3.4861 0
M  V30 516 H 46.9732 0.848221 -1.94728 0
M  V30 517 H 49.2362 0.435081 -0.842264 0
M  V30 518 H 48.9422 2.11669 -2.80872 0
M  V30 519 H 48.8162 3.40467 -1.62365 0
M  V30 520 H 51.2032 2.83771 -0.809817 0
M  V30 521 H 51.2842 1.55784 -2.02891 0
M  V30 522 H 50.9282 3.30607 -3.85566 0
M  V30 523 H 50.8582 4.57519 -2.60737 0
M  V30 524 H 53.3492 3.06466 -2.21105 0
M  V30 525 H 53.6622 5.88078 -5.01382 0
M  V30 526 H 52.0072 5.29326 -4.50377 0
M  V30 527 H 55.1982 3.74624 -2.80668 0
M  V30 528 H 55.3712 5.03056 -4.08459 0
M  V30 529 N 48.7773 0.814389 1.34928 0
M  V30 530 C 49.7093 0.187834 2.28429 0
M  V30 531 C 50.7223 -0.617374 1.5064 0
M  V30 532 O 51.9113 -0.448454 1.72775 0
M  V30 533 C 49.0113 -0.755962 3.30361 0
M  V30 534 C 48.1843 0.00456686 4.374 0
M  V30 535 C 47.2433 -0.858876 5.19143 0
M  V30 536 O 46.2693 -0.306968 5.68372 0
M  V30 537 N 47.4713 -2.17988 5.38016 0
M  V30 538 H 50.2363 0.991105 2.82838 0
M  V30 539 H 47.7973 0.670561 1.4736 0
M  V30 540 H 49.7893 -1.338 3.81942 0
M  V30 541 H 48.3593 -1.46001 2.7641 0
M  V30 542 H 47.5793 0.767865 3.86649 0
M  V30 543 H 48.8673 0.528422 5.06049 0
M  V30 544 H 48.2653 -2.65212 4.99679 0
M  V30 545 H 46.8223 -2.71098 5.92747 0
M  V30 546 N 50.2554 -1.46986 0.568584 0
M  V30 547 C 51.1654 -2.33942 -0.17555 0
M  V30 548 C 52.1814 -1.48891 -0.90041 0
M  V30 549 O 53.3574 -1.81794 -0.86676 0
M  V30 550 C 50.4224 -3.25811 -1.18524 0
M  V30 551 C 49.4834 -4.26757 -0.466582 0
M  V30 552 C 48.7164 -5.14236 -1.42817 0
M  V30 553 O 48.9394 -5.04379 -2.66379 0
M  V30 554 O 47.8734 -5.94412 -0.946453 0
M  V30 555 H 51.6994 -2.98896 0.538036 0
M  V30 556 H 49.2844 -1.4573 0.329097 0
M  V30 557 H 51.1664 -3.82527 -1.76779 0
M  V30 558 H 49.8414 -2.63471 -1.88055 0
M  V30 559 H 48.7484 -3.73769 0.157451 0
M  V30 560 H 50.0814 -4.91843 0.187485 0
M  V30 561 N 51.7335 -0.305618 -1.54608 0
M  V30 562 C 53.1445 0.186098 -1.8577 0
M  V30 563 C 53.4955 1.53058 -1.22751 0
M  V30 564 O 52.6205 2.09888 -0.526893 0
M  V30 565 C 53.2155 0.344449 -3.37044 0
M  V30 566 C 51.7745 0.780384 -3.68221 0
M  V30 567 C 50.9215 -0.108554 -2.77087 0
M  V30 568 H 53.8725 -0.526485 -1.49712 0
M  V30 569 H 53.8935 1.17828 -3.61796 0
M  V30 570 H 53.4055 -0.634235 -3.82883 0
M  V30 571 H 51.5065 1.76945 -3.27904 0
M  V30 572 H 51.6195 0.596572 -4.75371 0
M  V30 573 H 49.9835 0.412931 -2.5133 0
M  V30 574 H 50.7665 -1.08368 -3.25747 0
M  V30 575 N 53.2116 1.57565 -0.0334293 0
M  V30 576 C 54.6226 1.79746 0.504798 0
M  V30 577 C 54.9736 0.944091 1.71992 0
M  V30 578 O 54.0986 0.155694 2.15839 0
M  V30 579 C 54.6936 3.25997 0.922567 0
M  V30 580 C 53.2526 3.49159 1.40588 0
M  V30 581 C 52.3996 2.74785 0.372633 0
M  V30 582 H 55.3506 1.56565 -0.259436 0
M  V30 583 H 55.3716 3.35945 1.78666 0
M  V30 584 H 54.8836 3.88081 0.0379825 0
M  V30 585 H 52.9846 2.92332 2.31025 0
M  V30 586 H 53.0976 4.57873 1.41028 0
M  V30 587 H 51.4616 2.40391 0.841672 0
M  V30 588 H 52.2446 3.39587 -0.503559 0
M  V30 589 N 54.6897 -0.239769 1.55765 0
M  V30 590 C 56.1007 -0.808263 1.68297 0
M  V30 591 C 56.4517 -1.85736 0.632181 0
M  V30 592 O 55.5767 -2.15277 -0.220204 0
M  V30 593 C 56.1717 -1.47284 3.05111 0
M  V30 594 C 54.7307 -1.98895 3.19559 0
M  V30 595 C 53.8777 -0.842575 2.64189 0
M  V30 596 H 56.8287 -0.0154422 1.58692 0
M  V30 597 H 56.8497 -2.34111 2.99954 0
M  V30 598 H 56.3617 -0.709053 3.81568 0
M  V30 599 H 54.4627 -2.78132 2.47938 0
M  V30 600 H 54.5757 -2.18143 4.26556 0
M  V30 601 H 52.9397 -1.24501 2.22197 0
M  V30 602 H 53.7227 -0.0917552 3.43177 0
M  V30 603 N 56.1678 -1.49265 -0.50573 0
M  V30 604 C 57.3958 -1.62215 -1.28429 0
M  V30 605 C 57.8108 -0.291697 -1.86533 0
M  V30 606 O 57.1678 0.722233 -1.67601 0
M  V30 607 C 57.2188 -2.68735 -2.41793 0
M  V30 608 O 56.9398 -3.96619 -1.86078 0
M  V30 609 C 58.4408 -2.92346 -3.3324 0
M  V30 610 H 55.6608 -0.546239 -0.389697 0
M  V30 611 H 58.2048 -1.95265 -0.607609 0
M  V30 612 H 56.3598 -2.38476 -3.053 0
M  V30 613 H 56.7738 -4.55256 -2.60465 0
M  V30 614 H 58.2478 -3.70623 -4.09075 0
M  V30 615 H 58.7248 -2.02081 -3.89948 0
M  V30 616 H 59.3308 -3.24003 -2.75503 0
M  V30 617 N 57.6459 0.756429 -1.3826 0
M  V30 618 C 59.0569 1.33359 -1.30661 0
M  V30 619 C 59.4079 1.96161 0.0388875 0
M  V30 620 O 58.5329 1.94874 0.940918 0
M  V30 621 C 59.1279 2.42477 -2.36622 0
M  V30 622 C 57.6869 2.95922 -2.3261 0
M  V30 623 C 56.8339 1.69275 -2.19639 0
M  V30 624 H 59.7849 0.55552 -1.4866 0
M  V30 625 H 59.8059 3.22345 -2.02174 0
M  V30 626 H 59.3179 1.96739 -3.34538 0
M  V30 627 H 57.4189 3.45996 -1.38267 0
M  V30 628 H 57.5319 3.50494 -3.26636 0
M  V30 629 H 55.8959 1.92793 -1.66442 0
M  V30 630 H 56.6789 1.25619 -3.19491 0
M  V30 631 N 59.124 1.23083 0.984299 0
M  V30 632 C 60.034 1.02515 2.11016 0
M  V30 633 C 61.05 -0.0291702 1.73976 0
M  V30 634 O 62.226 0.165434 2.00719 0
M  V30 635 C 59.291 0.614673 3.41208 0
M  V30 636 C 58.352 1.74359 3.92297 0
M  V30 637 C 57.585 1.35261 5.16275 0
M  V30 638 O 57.808 0.235136 5.69915 0
M  V30 639 O 56.742 2.17227 5.61334 0
M  V30 640 H 60.568 1.96862 2.31255 0
M  V30 641 H 58.153 1.01753 1.09392 0
M  V30 642 H 60.035 0.396518 4.1953 0
M  V30 643 H 58.71 -0.299851 3.22308 0
M  V30 644 H 57.617 2.01635 3.1511 0
M  V30 645 H 58.95 2.63629 4.15645 0
M  V30 646 N 60.6021 -1.18246 1.0419 0
M  V30 647 C 61.8501 -1.87886 0.744543 0
M  V30 648 C 62.1711 -1.8082 -0.730006 0
M  V30 649 O 61.4411 -1.22736 -1.52685 0
M  V30 650 H 60.0211 -0.695556 0.272417 0
M  V30 651 H 62.6831 -1.43494 1.31892 0
M  V30 652 H 61.7791 -2.9389 1.05049 0
M  V30 653 N 62.0802 -0.821533 -1.34494 0
M  V30 654 C 63.0272 -0.240397 -2.29545 0
M  V30 655 C 63.9972 0.634031 -1.53523 0
M  V30 656 O 65.1822 0.575966 -1.81899 0
M  V30 657 C 62.3222 0.592869 -3.39969 0
M  V30 658 C 61.4352 -0.30365 -4.30932 0
M  V30 659 C 60.5702 0.539049 -5.28458 0
M  V30 660 C 59.6092 -0.356942 -6.11058 0
M  V30 661 N 58.7462 0.446603 -7.00678 0
M  V30 662 H 63.5862 -1.05632 -2.7865 0
M  V30 663 H 61.1232 -0.532413 -1.37127 0
M  V30 664 H 63.0812 1.09129 -4.02675 0
M  V30 665 H 61.7112 1.37392 -2.92102 0
M  V30 666 H 60.7632 -0.920276 -3.691 0
M  V30 667 H 62.0752 -0.992661 -4.88823 0
M  V30 668 H 61.2292 1.102 -5.96608 0
M  V30 669 H 59.9682 1.26157 -4.71101 0
M  V30 670 H 58.9732 -0.932047 -5.41842 0
M  V30 671 H 60.1982 -1.07755 -6.70497 0
M  V30 672 H 58.1442 1.15282 -6.45791 0
M  V30 673 H 58.0612 -0.184048 -7.55776 0
M  V30 674 H 59.3292 0.992352 -7.73158 0
M  V30 675 N 63.5583 1.46682 -0.576371 0
M  V30 676 C 64.4883 2.33028 0.148397 0
M  V30 677 C 65.4693 1.44961 0.889956 0
M  V30 678 O 66.6543 1.73789 0.866662 0
M  V30 679 C 63.7843 3.27117 1.1667 0
M  V30 680 C 62.7383 4.24575 0.540386 0
M  V30 681 C 62.0643 5.08126 1.6647 0
M  V30 682 C 63.3643 5.19722 -0.518331 0
M  V30 683 H 65.0583 2.93875 -0.572509 0
M  V30 684 H 62.6043 1.41315 -0.276768 0
M  V30 685 H 64.5573 3.86374 1.68204 0
M  V30 686 H 63.2813 2.64364 1.9178 0
M  V30 687 H 61.9403 3.66571 0.0461769 0
M  V30 688 H 61.5883 4.41762 2.40531 0
M  V30 689 H 61.2883 5.74122 1.25131 0
M  V30 690 H 62.8123 5.70246 2.18293 0
M  V30 691 H 64.2263 5.73232 -0.0883058 0
M  V30 692 H 62.6233 5.94026 -0.851679 0
M  V30 693 H 63.6933 4.64037 -1.40703 0
M  V30 694 N 65.0364 0.313813 1.54444 0
M  V30 695 C 66.2844 -0.291099 1.99993 0
M  V30 696 C 66.6054 -1.53418 1.20366 0
M  V30 697 O 65.8754 -1.93544 0.302927 0
M  V30 698 H 64.4554 -0.110552 0.738774 0
M  V30 699 H 67.1174 0.428106 1.9014 0
M  V30 700 H 66.2134 -0.554268 3.07139 0
M  V30 701 N 66.5145 -1.57545 0.0417849 0
M  V30 702 C 67.9305 -1.56467 -0.314704 0
M  V30 703 C 68.1305 -1.04859 -1.72066 0
M  V30 704 O 67.1865 -0.700983 -2.42575 0
M  V30 705 C 68.4995 -3.00317 -0.15174 0
M  V30 706 C 70.0475 -3.12201 -0.223553 0
M  V30 707 C 70.5225 -4.57913 -0.0892295 0
M  V30 708 N 72.0135 -4.6297 -0.145808 0
M  V30 709 C 72.7485 -5.73362 -0.0658459 0
M  V30 710 N 72.2445 -6.92769 0.0659282 0
M  V30 711 N 74.0375 -5.6197 -0.12075 0
M  V30 712 H 66.1885 -1.89416 0.961014 0
M  V30 713 H 68.4515 -0.871862 0.372237 0
M  V30 714 H 68.1575 -3.42073 0.817254 0
M  V30 715 H 68.0315 -3.65892 -0.916692 0
M  V30 716 H 70.4185 -2.70349 -1.18301 0
M  V30 717 H 70.4995 -2.49323 0.571994 0
M  V30 718 H 70.1435 -5.00448 0.866867 0
M  V30 719 H 70.0735 -5.18786 -0.903802 0
M  V30 720 H 72.5645 -3.7709 -0.247286 0
M  V30 721 H 72.8775 -7.72707 0.119905 0
M  V30 722 H 71.2225 -6.94927 0.100885 0
M  V30 723 H 74.4135 -4.67572 -0.222187 0
M  V30 724 H 74.5865 -6.47977 -0.0549735 0
M  V30 725 N 67.9926 0.231505 -1.5589 0
M  V30 726 C 69.2396 0.957352 -1.78441 0
M  V30 727 C 69.5676 1.84726 -0.60882 0
M  V30 728 O 68.8226 1.91416 0.40725 0
M  V30 729 C 69.1216 1.83577 -3.0665 0
M  V30 730 C 68.7876 1.09993 -4.37278 0
M  V30 731 C 67.4496 0.896629 -4.72773 0
M  V30 732 C 69.8016 0.579558 -5.17968 0
M  V30 733 C 67.1296 0.160896 -5.86479 0
M  V30 734 C 69.4816 -0.142783 -6.32439 0
M  V30 735 C 68.1456 -0.357427 -6.66542 0
M  V30 736 H 67.4156 0.35032 -0.65296 0
M  V30 737 H 70.0626 0.226259 -1.90159 0
M  V30 738 H 68.3676 2.63441 -2.90011 0
M  V30 739 H 70.0646 2.39934 -3.21298 0
M  V30 740 H 66.6546 1.26835 -4.09403 0
M  V30 741 H 70.8386 0.724125 -4.90989 0
M  V30 742 H 66.0946 -0.0157293 -6.11398 0
M  V30 743 H 70.2686 -0.553559 -6.94196 0
M  V30 744 H 67.8956 -0.929466 -7.54497 0
M  V30 745 N 69.4707 1.49531 0.497807 0
M  V30 746 C 70.8817 1.52344 1.07927 0
M  V30 747 C 71.2327 0.311469 1.93712 0
M  V30 748 O 70.3577 -0.578405 2.08527 0
M  V30 749 C 70.9527 2.76062 1.96405 0
M  V30 750 C 69.5117 2.81643 2.49709 0
M  V30 751 C 68.6587 2.46299 1.27404 0
M  V30 752 H 71.6097 1.56182 0.281576 0
M  V30 753 H 71.6307 2.56405 2.81135 0
M  V30 754 H 71.1427 3.64254 1.33943 0
M  V30 755 H 69.2437 1.97739 3.15801 0
M  V30 756 H 69.3567 3.83891 2.86643 0
M  V30 757 H 67.7207 1.98148 1.60029 0
M  V30 758 H 68.5037 3.36769 0.66645 0
M  V30 759 N 70.9488 -0.749086 1.3866 0
M  V30 760 C 72.3598 -1.32664 1.31366 0
M  V30 761 C 72.7108 -1.96179 -0.028484 0
M  V30 762 O 71.8358 -1.9537 -0.93057 0
M  V30 763 C 72.4308 -2.41219 2.37905 0
M  V30 764 C 70.9898 -2.94684 2.34176 0
M  V30 765 C 70.1368 -1.68108 2.20533 0
M  V30 766 H 73.0878 -0.547628 1.48952 0
M  V30 767 H 73.1088 -3.21268 2.0388 0
M  V30 768 H 72.6208 -1.94962 3.35576 0
M  V30 769 H 70.7218 -3.45258 1.401 0
M  V30 770 H 70.8348 -3.48757 3.2849 0
M  V30 771 H 69.1988 -1.91907 1.67463 0
M  V30 772 H 69.9818 -1.23923 3.20153 0
M  V30 773 N 72.4269 -1.23603 -0.977757 0
M  V30 774 C 73.3599 -0.962772 -2.06896 0
M  V30 775 C 74.3379 0.0998743 -1.62293 0
M  V30 776 O 75.5219 -0.0349421 -1.88468 0
M  V30 777 C 72.6489 -0.45095 -3.35685 0
M  V30 778 C 71.6949 -1.50061 -3.99229 0
M  V30 779 S 72.5279 -3.07884 -4.38142 0
M  V30 780 C 73.6839 -2.58378 -5.7008 0
M  V30 781 H 73.9169 -1.88677 -2.29757 0
M  V30 782 H 71.4499 -1.06876 -1.11431 0
M  V30 783 H 73.4079 -0.162261 -4.10179 0
M  V30 784 H 72.0689 0.452179 -3.10828 0
M  V30 785 H 71.2619 -1.09269 -4.92013 0
M  V30 786 H 70.8639 -1.73878 -3.31123 0
M  V30 787 H 73.1559 -2.00563 -6.47133 0
M  V30 788 H 74.0989 -3.49711 -6.15717 0
M  V30 789 H 74.5069 -1.99143 -5.28207 0
M  V30 790 N 73.905 1.17692 -1.04816 0
M  V30 791 C 74.838 2.20436 -0.590173 0
M  V30 792 C 75.816 1.58115 0.379244 0
M  V30 793 O 77 1.86228 0.291762 0
M  V30 794 C 74.127 3.38424 0.136817 0
M  V30 795 C 73.173 4.19176 -0.787023 0
M  V30 796 S 74.006 4.84815 -2.27409 0
M  V30 797 C 75.162 6.06195 -1.55817 0
M  V30 798 H 75.395 2.58944 -1.46067 0
M  V30 799 H 72.928 1.28246 -0.859784 0
M  V30 800 H 74.886 4.06798 0.550076 0
M  V30 801 H 73.547 2.98312 0.983299 0
M  V30 802 H 72.74 5.03499 -0.224681 0
M  V30 803 H 72.342 3.56219 -1.13947 0
M  V30 804 H 74.634 6.72078 -0.855387 0
M  V30 805 H 75.577 6.6695 -2.37873 0
M  V30 806 H 75.985 5.54701 -1.04722 0
M  V30 807 N 75.3831 0.828654 1.34056 0
M  V30 808 C 76.3331 0.226828 2.26869 0
M  V30 809 C 77.3171 -0.612243 1.48796 0
M  V30 810 O 78.5091 -0.465884 1.70759 0
M  V30 811 C 75.6381 -0.605654 3.37915 0
M  V30 812 C 74.7241 0.244361 4.23395 0
M  V30 813 N 75.1151 1.31815 4.88322 0
M  V30 814 C 73.4131 0.0296616 4.4599 0
M  V30 815 C 74.1141 1.83895 5.51867 0
M  V30 816 N 73.0901 1.14196 5.3147 0
M  V30 817 H 76.8921 1.04811 2.74576 0
M  V30 818 H 74.4061 0.67205 1.47842 0
M  V30 819 H 76.4031 -1.05302 4.03382 0
M  V30 820 H 75.0631 -1.42504 2.91758 0
M  V30 821 H 76.0741 1.70099 4.8917 0
M  V30 822 H 72.7511 -0.757097 4.10578 0
M  V30 823 H 74.1411 2.7376 6.136 0
M  V30 824 N 76.8612 -1.46375 0.584142 0
M  V30 825 C 77.8112 -2.27371 -0.169232 0
M  V30 826 C 78.7952 -1.35955 -0.860523 0
M  V30 827 O 79.9872 -1.60119 -0.754382 0
M  V30 828 C 77.1162 -3.22334 -1.18134 0
M  V30 829 C 76.2022 -4.21235 -0.492088 0
M  V30 830 N 76.5932 -5.03766 0.453129 0
M  V30 831 C 74.8912 -4.39773 -0.742652 0
M  V30 832 C 75.5922 -5.75366 0.85609 0
M  V30 833 N 74.5682 -5.43214 0.204926 0
M  V30 834 H 78.3702 -2.88572 0.557097 0
M  V30 835 H 75.8842 -1.57242 0.406042 0
M  V30 836 H 77.8812 -3.79071 -1.73525 0
M  V30 837 H 76.5412 -2.62693 -1.90847 0
M  V30 838 H 77.5522 -5.11227 0.828723 0
M  V30 839 H 74.2292 -3.91279 -1.45625 0
M  V30 840 H 75.6192 -6.5172 1.63434 0
M  V30 841 N 78.3393 -0.321999 -1.54275 0
M  V30 842 C 79.2893 0.560185 -2.21011 0
M  V30 843 C 80.2733 1.08283 -1.19011 0
M  V30 844 O 81.4653 1.02011 -1.44647 0
M  V30 845 C 78.5943 1.72137 -2.97025 0
M  V30 846 C 77.6803 1.21369 -4.06363 0
M  V30 847 N 78.0713 0.425566 -5.04007 0
M  V30 848 C 76.3693 1.49255 -4.20284 0
M  V30 849 C 77.0703 0.152601 -5.815 0
M  V30 850 N 76.0463 0.738294 -5.38563 0
M  V30 851 H 79.8483 -0.049265 -2.93859 0
M  V30 852 H 77.3623 -0.127779 -1.61897 0
M  V30 853 H 79.3593 2.36512 -3.43319 0
M  V30 854 H 78.0193 2.33431 -2.25699 0
M  V30 855 H 79.0303 0.068551 -5.17855 0
M  V30 856 H 75.7073 2.11145 -3.60172 0
M  V30 857 H 77.0973 -0.481764 -6.70171 0
M  V30 858 N 79.8174 1.5752 -0.0501392 0
M  V30 859 C 80.7494 2.08413 0.95376 0
M  V30 860 C 81.7624 1.01175 1.27544 0
M  V30 861 O 82.9514 1.28744 1.23641 0
M  V30 862 C 80.0514 2.51138 2.27559 0
M  V30 863 C 79.2244 3.817 2.13598 0
M  V30 864 C 78.2834 4.10749 3.28895 0
M  V30 865 O 77.3094 4.80685 3.04845 0
M  V30 866 N 78.5114 3.62579 4.5334 0
M  V30 867 H 81.2764 2.95165 0.519383 0
M  V30 868 H 78.8374 1.61327 0.136127 0
M  V30 869 H 80.8294 2.67648 3.03557 0
M  V30 870 H 79.3994 1.6964 2.62567 0
M  V30 871 H 78.6194 3.74782 1.22197 0
M  V30 872 H 79.9074 4.67201 2.01496 0
M  V30 873 H 79.3054 3.06039 4.75769 0
M  V30 874 H 77.8624 3.84329 5.26436 0
M  V30 875 N 81.2955 -0.223234 1.56011 0
M  V30 876 C 82.2585 -1.26014 1.9145 0
M  V30 877 C 83.2585 -1.3989 0.792937 0
M  V30 878 O 84.4485 -1.38184 1.0607 0
M  V30 879 C 81.5805 -2.63422 2.16383 0
M  V30 880 H 82.7735 -0.95796 2.84189 0
M  V30 881 H 80.3265 -0.463576 1.49267 0
M  V30 882 H 81.0615 -2.98741 1.2619 0
M  V30 883 H 80.8465 -2.54728 2.98088 0
M  V30 884 H 82.3365 -3.38249 2.44903 0
M  V30 885 N 82.7736 -1.49793 -0.48987 0
M  V30 886 C 84.1846 -1.52914 -1.07118 0
M  V30 887 C 84.5356 -0.321738 -1.93544 0
M  V30 888 O 83.6606 0.567338 -2.08831 0
M  V30 889 C 84.2556 -2.771 -1.94938 0
M  V30 890 C 82.8146 -2.82963 -2.48212 0
M  V30 891 C 81.9616 -2.46972 -1.26096 0
M  V30 892 H 84.9126 -1.56329 -0.273289 0
M  V30 893 H 84.9336 -2.57892 -2.79771 0
M  V30 894 H 84.4456 -3.64959 -1.32009 0
M  V30 895 H 82.5466 -1.99411 -3.14748 0
M  V30 896 H 82.6596 -3.85406 -2.84603 0
M  V30 897 H 81.0236 -1.98994 -1.58976 0
M  V30 898 H 81.8066 -3.37118 -0.648581 0
M  V30 899 N 84.2517 0.741722 -1.39055 0
M  V30 900 C 85.4767 1.53607 -1.39354 0
M  V30 901 C 85.9017 1.88096 0.0116905 0
M  V30 902 O 85.2597 1.5143 0.996924 0
M  V30 903 C 85.3077 2.80441 -2.26682 0
M  V30 904 O 84.4117 3.76088 -1.69208 0
M  V30 905 H 83.7527 0.464142 -0.474835 0
M  V30 906 H 86.2827 0.915665 -1.82967 0
M  V30 907 H 86.2927 3.29246 -2.40959 0
M  V30 908 H 84.9677 2.5467 -3.2881 0
M  V30 909 H 83.5447 3.34833 -1.64138 0
M  V30 910 N 85.7298 1.2412 0.971189 0
M  V30 911 C 87.0068 0.986867 1.6888 0
M  V30 912 C 87.3868 -0.491857 2.0529 0
M  V30 913 O 86.7348 -1.46531 1.75331 0
M  V30 914 C 86.9448 1.9063 2.92338 0
M  V30 915 C 88.2928 2.17515 3.64654 0
M  V30 916 O 89.3168 1.88254 3.02388 0
M  V30 917 O 88.1758 2.6719 4.7673 0
M  V30 918 H 85.2698 0.372944 0.738134 0
M  V30 919 H 87.8158 1.35203 1.02559 0
M  V30 920 H 86.5878 2.90552 2.62097 0
M  V30 921 H 86.2108 1.54408 3.66393 0
M  V30 922 N 87.2079 -1.17134 1.05439 0
M  V30 923 C 88.4559 -1.87085 0.764429 0
M  V30 924 C 88.7769 -1.81584 -0.710787 0
M  V30 925 O 88.0469 -1.24349 -1.51374 0
M  V30 926 H 86.6269 -0.692627 0.279779 0
M  V30 927 H 89.2889 -1.42087 1.33406 0
M  V30 928 H 88.3849 -2.92759 1.0816 0
M  V30 929 N 88.686 -0.835752 -1.33615 0
M  V30 930 C 89.618 -0.224151 -2.28101 0
M  V30 931 C 90.631 0.593331 -1.51603 0
M  V30 932 O 91.82 0.420911 -1.73466 0
M  V30 933 C 88.92 0.703309 -3.31522 0
M  V30 934 C 88.093 -0.0741528 -4.37337 0
M  V30 935 C 87.152 0.776176 -5.20444 0
M  V30 936 O 86.178 0.216506 -5.68788 0
M  V30 937 N 87.38 2.09401 -5.41416 0
M  V30 938 H 90.145 -1.03598 -2.81225 0
M  V30 939 H 87.706 -0.69392 -1.46275 0
M  V30 940 H 89.698 1.27707 -3.84022 0
M  V30 941 H 88.268 1.41585 -2.78698 0
M  V30 942 H 87.488 -0.82928 -3.85378 0
M  V30 943 H 88.776 -0.608863 -5.05144 0
M  V30 944 H 88.174 2.57229 -5.03835 0
M  V30 945 H 86.731 2.61633 -5.96985 0
M  V30 946 N 90.1641 1.46063 -0.591896 0
M  V30 947 C 91.3921 2.06717 -0.0868936 0
M  V30 948 C 91.8071 1.43916 1.22203 0
M  V30 949 O 91.1641 0.547698 1.74088 0
M  V30 950 C 91.2151 3.6142 0.0758725 0
M  V30 951 O 90.9361 4.21874 -1.18126 0
M  V30 952 C 92.4371 4.39025 0.61416 0
M  V30 953 H 89.6571 0.668162 -0.0616518 0
M  V30 954 H 92.2011 1.8755 -0.815175 0
M  V30 955 H 90.3561 3.79983 0.754413 0
M  V30 956 H 90.7701 5.14861 -1.00092 0
M  V30 957 H 92.2441 5.4783 0.677193 0
M  V30 958 H 92.7211 4.07708 1.63312 0
M  V30 959 H 93.3271 4.2529 -0.0298142 0
M  V30 960 N 91.6422 0.330177 1.54103 0
M  V30 961 C 93.0532 -0.15652 1.86043 0
M  V30 962 C 93.4042 -1.51086 1.2517 0
M  V30 963 O 92.5292 -2.09023 0.560217 0
M  V30 964 C 93.1242 -0.290784 3.3755 0
M  V30 965 C 91.6832 -0.721705 3.69416 0
M  V30 966 C 90.8302 0.152622 2.7688 0
M  V30 967 H 93.7812 0.550237 1.48856 0
M  V30 968 H 93.8022 -1.12058 3.63625 0
M  V30 969 H 93.3142 0.695068 3.81825 0
M  V30 970 H 91.4152 -1.71706 3.30678 0
M  V30 971 H 91.5282 -0.520869 4.7626 0
M  V30 972 H 89.8922 -0.372894 2.51956 0
M  V30 973 H 90.6752 1.13536 3.23982 0
M  V30 974 N 93.1203 -1.57491 0.0584922 0
M  V30 975 C 94.3683 -1.92597 -0.612436 0
M  V30 976 C 94.6893 -0.938162 -1.70949 0
M  V30 977 O 93.9593 0.0158301 -1.95894 0
M  V30 978 H 92.5393 -0.710964 -0.229214 0
M  V30 979 H 95.2013 -1.94571 0.113218 0
M  V30 980 H 94.2973 -2.94038 -1.04633 0
M  V30 981 N 94.5984 0.214957 -1.56127 0
M  V30 982 C 95.5614 1.24997 -1.92116 0
M  V30 983 C 96.5614 1.39467 -0.800344 0
M  V30 984 O 97.7514 1.37619 -1.06802 0
M  V30 985 C 94.8834 2.62271 -2.17777 0
M  V30 986 H 96.0764 0.942875 -2.84693 0
M  V30 987 H 93.6294 0.455654 -1.49511 0
M  V30 988 H 94.3644 2.98068 -1.27773 0
M  V30 989 H 94.1494 2.53143 -2.99434 0
M  V30 990 H 95.6394 3.36946 -2.46693 0
M  V30 991 N 96.0765 1.50051 0.48192 0
M  V30 992 C 97.4925 1.37237 0.814756 0
M  V30 993 C 97.6925 0.420109 1.97072 0
M  V30 994 O 96.7485 -0.141246 2.52105 0
M  V30 995 C 98.0615 2.78375 1.13701 0
M  V30 996 C 99.6095 2.87213 1.2441 0
M  V30 997 C 100.084 4.29161 1.59954 0
M  V30 998 N 101.575 4.32061 1.66967 0
M  V30 999 C 102.31 5.38879 1.95952 0
M  V30 1000 N 101.806 6.55918 2.23031 0
M  V30 1001 N 103.599 5.26312 1.97363 0
M  V30 1002 H 95.7505 2.10546 -0.28005 0
M  V30 1003 H 98.0135 0.945921 -0.0627454 0
M  V30 1004 H 97.7195 3.49845 0.360787 0
M  V30 1005 H 97.5935 3.14941 2.07586 0
M  V30 1006 H 99.9805 2.15969 2.01101 0
M  V30 1007 H 100.061 2.54204 0.285299 0
M  V30 1008 H 99.7055 5.00938 0.838067 0
M  V30 1009 H 99.6355 4.59648 2.56966 0
M  V30 1010 H 102.126 3.47661 1.48123 0
M  V30 1011 H 102.439 7.33139 2.44391 0
M  V30 1012 H 100.784 6.59112 2.20447 0
M  V30 1013 H 103.975 4.33876 1.75697 0
M  V30 1014 H 104.148 6.09649 2.19618 0
M  V30 1015 N 97.5546 -0.734337 1.39446 0
M  V30 1016 C 98.8016 -1.49391 1.36706 0
M  V30 1017 C 99.1296 -1.94465 -0.0367813 0
M  V30 1018 O 98.3846 -1.67154 -1.01774 0
M  V30 1019 C 98.6836 -2.74711 2.28623 0
M  V30 1020 C 98.3496 -2.48501 3.76242 0
M  V30 1021 C 97.0116 -2.41062 4.16464 0
M  V30 1022 C 99.3636 -2.26098 4.69606 0
M  V30 1023 C 96.6916 -2.09262 5.48112 0
M  V30 1024 C 99.0436 -1.95814 6.01531 0
M  V30 1025 C 97.7076 -1.86845 6.40816 0
M  V30 1026 H 96.9776 -0.546661 0.500243 0
M  V30 1027 H 99.6246 -0.842788 1.71957 0
M  V30 1028 H 97.9296 -3.44569 1.86492 0
M  V30 1029 H 99.6266 -3.32741 2.23796 0
M  V30 1030 H 96.2166 -2.55169 3.44364 0
M  V30 1031 H 100.401 -2.30812 4.39363 0
M  V30 1032 H 95.6566 -2.00841 5.77471 0
M  V30 1033 H 99.8306 -1.77488 6.73403 0
M  V30 1034 H 97.4576 -1.6197 7.42745 0
M  V30 1035 N 99.0327 -1.24633 -0.964593 0
M  V30 1036 C 99.9647 -0.999302 -2.06268 0
M  V30 1037 C 100.978 0.0323226 -1.62768 0
M  V30 1038 O 102.167 -0.205079 -1.77318 0
M  V30 1039 C 99.2667 -0.486816 -3.35385 0
M  V30 1040 C 98.4397 -1.5823 -4.07777 0
M  V30 1041 C 97.4987 -1.07191 -5.15166 0
M  V30 1042 O 96.5247 -1.76426 -5.41168 0
M  V30 1043 N 97.7267 0.0920373 -5.80427 0
M  V30 1044 H 100.492 -1.94477 -2.28033 0
M  V30 1045 H 98.0527 -1.15704 -1.13244 0
M  V30 1046 H 100.045 -0.130066 -4.04491 0
M  V30 1047 H 98.6147 0.364459 -3.10468 0
M  V30 1048 H 97.8347 -2.11109 -3.32906 0
M  V30 1049 H 99.1227 -2.31854 -4.52903 0
M  V30 1050 H 98.5207 0.670784 -5.61709 0
M  V30 1051 H 97.0777 0.389905 -6.50633 0
M  V30 1052 N 100.511 1.16574 -1.06058 0
M  V30 1053 C 101.927 1.3904 -0.783585 0
M  V30 1054 C 102.127 1.91784 0.618145 0
M  V30 1055 O 101.183 2.11511 1.37911 0
M  V30 1056 C 102.496 2.37329 -1.84649 0
M  V30 1057 C 104.044 2.51018 -1.86973 0
M  V30 1058 C 104.519 3.52588 -2.92311 0
M  V30 1059 N 106.01 3.60113 -2.91329 0
M  V30 1060 C 106.745 4.38486 -3.69482 0
M  V30 1061 N 106.241 5.20302 -4.57447 0
M  V30 1062 N 108.034 4.33446 -3.57885 0
M  V30 1063 H 100.185 0.806725 -1.96483 0
M  V30 1064 H 102.448 0.417117 -0.851303 0
M  V30 1065 H 102.154 2.05663 -2.85299 0
M  V30 1066 H 102.028 3.36946 -1.6955 0
M  V30 1067 H 104.415 2.81989 -0.869827 0
M  V30 1068 H 104.496 1.51445 -2.0615 0
M  V30 1069 H 104.14 3.22354 -3.92492 0
M  V30 1070 H 104.07 4.51886 -2.70383 0
M  V30 1071 H 106.561 3.01707 -2.27555 0
M  V30 1072 H 106.874 5.77311 -5.13743 0
M  V30 1073 H 105.219 5.19653 -4.61503 0
M  V30 1074 H 108.41 3.68586 -2.88551 0
M  V30 1075 H 108.583 4.94279 -4.19037 0
M  V30 1076 N 101.989 0.842826 1.3317 0
M  V30 1077 C 103.214 0.453129 2.02389 0
M  V30 1078 C 103.639 -0.939105 1.6298 0
M  V30 1079 O 102.997 -1.61472 0.8244 0
M  V30 1080 C 103.045 0.586094 3.55805 0
M  V30 1081 O 102.149 -0.386029 4.10589 0
M  V30 1082 H 101.49 0.183664 0.638094 0
M  V30 1083 H 104.02 1.13875 1.69981 0
M  V30 1084 H 104.03 0.469209 4.05293 0
M  V30 1085 H 102.705 1.6014 3.83833 0
M  V30 1086 H 101.282 -0.226371 3.72212 0
M  V30 1087 N 103.467 -1.45747 0.599634 0
M  V30 1088 C 104.417 -2.27538 -0.145107 0
M  V30 1089 C 105.401 -1.3686 -0.846055 0
M  V30 1090 O 106.593 -1.6091 -0.737357 0
M  V30 1091 C 103.722 -3.23569 -1.14708 0
M  V30 1092 C 102.808 -4.21734 -0.447383 0
M  V30 1093 N 103.199 -5.03257 0.506535 0
M  V30 1094 C 101.497 -4.40536 -0.695966 0
M  V30 1095 C 102.198 -5.74426 0.917068 0
M  V30 1096 N 101.174 -5.42966 0.26253 0
M  V30 1097 H 104.976 -2.87965 0.587672 0
M  V30 1098 H 102.49 -1.56803 0.422697 0
M  V30 1099 H 104.487 -3.8089 -1.69495 0
M  V30 1100 H 103.147 -2.64702 -1.8805 0
M  V30 1101 H 104.158 -5.10319 0.882899 0
M  V30 1102 H 100.835 -3.92802 -1.41467 0
M  V30 1103 H 102.225 -6.4995 1.70338 0
M  V30 1104 N 104.945 -0.338344 -1.53925 0
M  V30 1105 C 105.875 0.51328 -2.27789 0
M  V30 1106 C 106.856 1.107 -1.29149 0
M  V30 1107 O 108.041 1.12937 -1.57984 0
M  V30 1108 C 105.171 1.66697 -3.04679 0
M  V30 1109 C 104.125 1.20183 -4.1078 0
M  V30 1110 C 103.451 2.44363 -4.75595 0
M  V30 1111 C 104.751 0.30605 -5.21403 0
M  V30 1112 H 106.445 -0.102883 -2.99223 0
M  V30 1113 H 103.991 -0.0509219 -1.4391 0
M  V30 1114 H 105.944 2.26915 -3.55088 0
M  V30 1115 H 104.668 2.30995 -2.30887 0
M  V30 1116 H 103.327 0.622499 -3.61276 0
M  V30 1117 H 102.975 3.07057 -3.98403 0
M  V30 1118 H 102.675 2.13925 -5.47275 0
M  V30 1119 H 104.199 3.05317 -5.28786 0
M  V30 1120 H 105.613 0.814929 -5.67478 0
M  V30 1121 H 104.01 0.0937929 -6.00027 0
M  V30 1122 H 105.08 -0.65921 -4.80398 0
M  V30 1123 N 106.423 1.57458 -0.0668435 0
M  V30 1124 C 107.386 2.11323 0.887422 0
M  V30 1125 C 108.386 1.03618 1.22964 0
M  V30 1126 O 109.576 1.29626 1.16373 0
M  V30 1127 C 106.708 2.61048 2.19242 0
M  V30 1128 H 107.901 2.96942 0.420194 0
M  V30 1129 H 105.454 1.55239 0.181793 0
M  V30 1130 H 106.189 1.78868 2.70512 0
M  V30 1131 H 105.974 3.39769 1.95702 0
M  V30 1132 H 107.464 3.02814 2.87565 0
M  V30 1133 N 107.901 -0.206675 1.56239 0
M  V30 1134 C 108.811 -1.27686 1.96808 0
M  V30 1135 C 109.827 -1.50455 0.874035 0
M  V30 1136 O 111.003 -1.63295 1.17884 0
M  V30 1137 C 108.068 -2.60358 2.28942 0
M  V30 1138 C 107.129 -2.45762 3.51994 0
M  V30 1139 C 106.362 -3.72108 3.82585 0
M  V30 1140 O 106.585 -4.75776 3.14631 0
M  V30 1141 O 105.519 -3.6833 4.76043 0
M  V30 1142 H 109.345 -0.962593 2.88041 0
M  V30 1143 H 106.93 -0.410746 1.43643 0
M  V30 1144 H 108.812 -3.38687 2.50737 0
M  V30 1145 H 107.487 -2.91435 1.4088 0
M  V30 1146 H 106.394 -1.65584 3.35459 0
M  V30 1147 H 107.727 -2.19621 4.40486 0
M  V30 1148 N 109.379 -1.50304 -0.473955 0
M  V30 1149 C 110.342 -1.6841 -1.55469 0
M  V30 1150 C 111.342 -0.554905 -1.50922 0
M  V30 1151 O 112.532 -0.821882 -1.53593 0
M  V30 1152 C 109.664 -1.70667 -2.95102 0
M  V30 1153 H 110.857 -2.64828 -1.40733 0
M  V30 1154 H 108.41 -1.39742 -0.700132 0
M  V30 1155 H 109.145 -0.75932 -3.15285 0
M  V30 1156 H 108.93 -2.52698 -2.9981 0
M  V30 1157 H 110.42 -1.8664 -3.73571 0
M  V30 1158 N 110.857 0.726932 -1.39834 0
M  V30 1159 C 112.104 1.48664 -1.37496 0
M  V30 1160 C 112.432 1.94482 0.0264678 0
M  V30 1161 O 111.687 1.67692 1.00886 0
M  V30 1162 C 111.986 2.73495 -2.30077 0
M  V30 1163 C 111.652 2.46502 -3.77555 0
M  V30 1164 C 110.314 2.3885 -4.17737 0
M  V30 1165 C 112.666 2.23604 -4.70798 0
M  V30 1166 C 109.994 2.06352 -5.49214 0
M  V30 1167 C 112.346 1.92622 -6.02561 0
M  V30 1168 C 111.01 1.83444 -6.41798 0
M  V30 1169 H 110.28 0.544001 -0.503135 0
M  V30 1170 H 112.927 0.833657 -1.72402 0
M  V30 1171 H 111.232 3.43575 -1.88317 0
M  V30 1172 H 112.929 3.31549 -2.25558 0
M  V30 1173 H 109.519 2.5334 -3.45712 0
M  V30 1174 H 113.703 2.28479 -4.40581 0
M  V30 1175 H 108.959 1.97776 -5.78528 0
M  V30 1176 H 113.133 1.73914 -6.74334 0
M  V30 1177 H 110.76 1.58029 -7.43593 0
M  V30 1178 N 112.336 1.25143 0.95797 0
M  V30 1179 C 113.299 1.05321 2.03569 0
M  V30 1180 C 114.299 0.007152 1.60798 0
M  V30 1181 O 115.489 0.24903 1.72411 0
M  V30 1182 C 112.621 0.598394 3.35607 0
M  V30 1183 H 113.814 2.00986 2.22586 0
M  V30 1184 H 111.367 1.07502 1.13459 0
M  V30 1185 H 112.102 -0.361014 3.22284 0
M  V30 1186 H 111.887 1.35351 3.67998 0
M  V30 1187 H 113.377 0.48104 4.1482 0
M  V30 1188 N 113.814 -1.1601 1.06675 0
M  V30 1189 C 114.761 -2.20525 0.680967 0
M  V30 1190 C 115.731 -1.62904 -0.324283 0
M  V30 1191 O 116.916 -1.89615 -0.212294 0
M  V30 1192 C 114.056 -3.45013 0.0776551 0
M  V30 1193 C 113.169 -4.16863 1.13355 0
M  V30 1194 C 112.304 -5.2888 0.49597 0
M  V30 1195 C 111.343 -5.92537 1.53513 0
M  V30 1196 N 110.48 -6.96038 0.920631 0
M  V30 1197 H 115.32 -2.52876 1.57663 0
M  V30 1198 H 112.857 -1.24199 0.788223 0
M  V30 1199 H 114.815 -4.16193 -0.289704 0
M  V30 1200 H 113.445 -3.132 -0.781393 0
M  V30 1201 H 112.497 -3.44248 1.61857 0
M  V30 1202 H 113.809 -4.60294 1.92174 0
M  V30 1203 H 112.963 -6.06653 0.0758604 0
M  V30 1204 H 111.702 -4.86622 -0.324062 0
M  V30 1205 H 110.707 -5.13482 1.9651 0
M  V30 1206 H 111.932 -6.36873 2.35733 0
M  V30 1207 H 109.878 -6.55888 0.12138 0
M  V30 1208 H 109.795 -7.3786 1.64616 0
M  V30 1209 H 111.063 -7.77725 0.525795 0
M  V30 1210 N 115.292 -0.849877 -1.32721 0
M  V30 1211 C 116.255 -0.296122 -2.27279 0
M  V30 1212 C 117.255 0.541458 -1.5141 0
M  V30 1213 O 118.445 0.353658 -1.70572 0
M  V30 1214 C 115.577 0.581579 -3.35902 0
M  V30 1215 H 116.77 -1.13064 -2.77771 0
M  V30 1216 H 114.323 -0.62383 -1.43311 0
M  V30 1217 H 115.058 1.43809 -2.9067 0
M  V30 1218 H 114.843 -0.0178814 -3.92096 0
M  V30 1219 H 116.333 0.961951 -4.0637 0
M  V30 1220 N 116.77 1.45427 -0.607355 0
M  V30 1221 C 117.717 2.3053 0.111625 0
M  V30 1222 C 118.687 1.4209 0.860216 0
M  V30 1223 O 119.872 1.71019 0.845998 0
M  V30 1224 C 117.012 3.26992 1.10319 0
M  V30 1225 C 116.125 4.30535 0.355493 0
M  V30 1226 C 115.26 5.14105 1.33676 0
M  V30 1227 C 114.299 6.09376 0.576862 0
M  V30 1228 N 113.436 6.85727 1.5074 0
M  V30 1229 H 118.276 2.91477 -0.620093 0
M  V30 1230 H 115.813 1.43631 -0.317594 0
M  V30 1231 H 117.771 3.81385 1.6912 0
M  V30 1232 H 116.401 2.67799 1.80232 0
M  V30 1233 H 115.453 3.78805 -0.348023 0
M  V30 1234 H 116.765 4.98235 -0.237423 0
M  V30 1235 H 115.919 5.72897 1.99684 0
M  V30 1236 H 114.658 4.46423 1.9636 0
M  V30 1237 H 113.663 5.49715 -0.0968519 0
M  V30 1238 H 114.888 6.79085 -0.0449341 0
M  V30 1239 H 112.834 6.20735 2.12189 0
M  V30 1240 H 112.751 7.49778 0.967913 0
M  V30 1241 H 114.019 7.4906 2.15706 0
M  V30 1242 N 118.248 0.346503 1.53744 0
M  V30 1243 C 119.496 -0.248612 2.00565 0
M  V30 1244 C 119.817 -1.5083 1.23593 0
M  V30 1245 O 119.087 -1.92858 0.343912 0
M  V30 1246 H 117.667 -0.0948564 0.740953 0
M  V30 1247 H 120.329 0.468341 1.89189 0
M  V30 1248 H 119.425 -0.488994 3.08245 0
M  V30 1249 N 119.726 -1.57421 0.075193 0
M  V30 1250 C 120.951 -1.98364 -0.605515 0
M  V30 1251 C 121.376 -0.953383 -1.62149 0
M  V30 1252 O 120.734 0.0806053 -1.81121 0
M  V30 1253 C 120.782 -3.38332 -1.24756 0
M  V30 1254 O 119.886 -3.37959 -2.36342 0
M  V30 1255 H 119.227 -0.645553 -0.155428 0
M  V30 1256 H 121.757 -2.04044 0.150714 0
M  V30 1257 H 121.767 -3.75591 -1.5936 0
M  V30 1258 H 120.442 -4.12846 -0.503129 0
M  V30 1259 H 119.019 -3.12474 -2.03506 0
M  V30 1260 N 121.204 0.198386 -1.56346 0
M  V30 1261 C 122.452 0.91747 -1.80075 0
M  V30 1262 C 122.773 1.83929 -0.647692 0
M  V30 1263 O 122.043 1.93029 0.334166 0
M  V30 1264 H 120.623 0.341774 -0.664228 0
M  V30 1265 H 123.285 0.204684 -1.93822 0
M  V30 1266 H 122.381 1.51055 -2.7311 0
M  V30 1267 N 122.682 1.50554 0.465978 0
M  V30 1268 C 123.93 1.61479 1.21528 0
M  V30 1269 C 124.251 0.319596 1.92363 0
M  V30 1270 O 123.521 -0.663194 1.84333 0
M  V30 1271 H 122.101 0.595055 0.451573 0
M  V30 1272 H 124.763 1.87355 0.53704 0
M  V30 1273 H 123.859 2.42846 1.96042 0
M  V30 1274 N 124.16 -0.719506 1.40217 0
M  V30 1275 C 125.408 -1.47641 1.3801 0
M  V30 1276 C 125.729 -1.94992 -0.018145 0
M  V30 1277 O 124.999 -1.70073 -0.972207 0
M  V30 1278 H 123.579 -0.547744 0.507923 0
M  V30 1279 H 126.241 -0.853187 1.75233 0
M  V30 1280 H 125.337 -2.35112 2.05253 0
M  V30 1281 N 125.638 -1.25649 -0.95132 0
M  V30 1282 C 126.601 -1.06399 -2.03007 0
M  V30 1283 C 127.601 -0.0156794 -1.60792 0
M  V30 1284 O 128.791 -0.25817 -1.72276 0
M  V30 1285 C 125.923 -0.616184 -3.35285 0
M  V30 1286 H 127.116 -2.02164 -2.21517 0
M  V30 1287 H 124.669 -1.08103 -1.12887 0
M  V30 1288 H 125.404 0.343917 -3.22471 0
M  V30 1289 H 125.189 -1.37301 -3.67275 0
M  V30 1290 H 126.679 -0.503032 -4.14559 0
M  V30 1291 N 127.117 1.15442 -1.07289 0
M  V30 1292 C 128.365 1.85845 -0.794096 0
M  V30 1293 C 128.686 1.82692 0.681809 0
M  V30 1294 O 127.956 1.26741 1.49377 0
M  V30 1295 H 126.536 0.688089 -0.290763 0
M  V30 1296 H 129.198 1.39947 -1.3565 0
M  V30 1297 H 128.294 2.91001 -1.12804 0
M  V30 1298 N 128.595 0.856903 1.32268 0
M  V30 1299 C 129.843 0.460474 1.96784 0
M  V30 1300 C 130.164 -0.987701 1.68135 0
M  V30 1301 O 129.434 -1.69058 0.989765 0
M  V30 1302 H 128.014 0.167289 0.728027 0
M  V30 1303 H 130.676 1.09383 1.61312 0
M  V30 1304 H 129.772 0.60739 3.06133 0
M  V30 1305 N 130.073 -1.45103 0.615059 0
M  V30 1306 C 131.321 -2.01784 0.112955 0
M  V30 1307 C 131.642 -1.48504 -1.26378 0
M  V30 1308 O 130.912 -0.682245 -1.83636 0
M  V30 1309 H 129.492 -0.745993 0.0387668 0
M  V30 1310 H 132.154 -1.77808 0.798141 0
M  V30 1311 H 131.25 -3.12025 0.0684069 0
M  V30 1312 N 131.551 -0.354651 -1.53558 0
M  V30 1313 C 132.799 0.237972 -2.00694 0
M  V30 1314 C 133.12 1.50173 -1.24391 0
M  V30 1315 O 132.39 1.92673 -0.354135 0
M  V30 1316 H 130.97 0.0909256 -0.741446 0
M  V30 1317 H 133.632 -0.478368 -1.88938 0
M  V30 1318 H 132.728 0.47264 -3.085 0
M  V30 1319 N 133.029 1.57378 -0.0835403 0
M  V30 1320 C 134.254 1.98682 0.594987 0
M  V30 1321 C 134.679 0.961969 1.61641 0
M  V30 1322 O 134.037 -0.0709989 1.81161 0
M  V30 1323 C 134.085 3.38988 1.2296 0
M  V30 1324 O 133.189 3.39208 2.34546 0
M  V30 1325 H 132.53 0.646368 0.152002 0
M  V30 1326 H 135.06 2.03961 -0.161533 0
M  V30 1327 H 135.07 3.76431 1.57366 0
M  V30 1328 H 133.745 4.13107 0.481228 0
M  V30 1329 H 132.322 3.13548 2.01846 0
M  V30 1330 N 134.507 -0.190092 1.56449 0
M  V30 1331 C 135.755 -0.907908 1.80559 0
M  V30 1332 C 136.076 -1.83583 0.657438 0
M  V30 1333 O 135.346 -1.93203 -0.323924 0
M  V30 1334 H 133.926 -0.338247 0.666032 0
M  V30 1335 H 136.588 -0.194403 1.93928 0
M  V30 1336 H 135.684 -1.49604 2.73907 0
M  V30 1337 N 135.985 -1.50799 -0.457987 0
M  V30 1338 C 137.401 -1.38515 -0.792819 0
M  V30 1339 C 137.601 -0.451409 -1.96379 0
M  V30 1340 O 136.657 0.10112 -2.52297 0
M  V30 1341 C 137.97 -2.80149 -1.09258 0
M  V30 1342 C 139.518 -2.89156 -1.19825 0
M  V30 1343 C 139.993 -4.31651 -1.53106 0
M  V30 1344 N 141.484 -4.34662 -1.60072 0
M  V30 1345 C 142.219 -5.41928 -1.87354 0
M  V30 1346 N 141.715 -6.59384 -2.12568 0
M  V30 1347 N 143.508 -5.29385 -1.88965 0
M  V30 1348 H 135.659 -2.10073 0.313511 0
M  V30 1349 H 137.922 -0.944803 0.0777862 0
M  V30 1350 H 137.628 -3.50374 -0.305084 0
M  V30 1351 H 137.502 -3.18204 -2.02549 0
M  V30 1352 H 139.889 -2.19141 -1.97639 0
M  V30 1353 H 139.97 -2.54626 -0.244821 0
M  V30 1354 H 139.614 -5.02208 -0.758266 0
M  V30 1355 H 139.544 -4.63678 -2.49621 0
M  V30 1356 H 142.035 -3.49973 -1.42573 0
M  V30 1357 H 142.348 -7.36934 -2.32696 0
M  V30 1358 H 140.693 -6.62535 -2.09933 0
M  V30 1359 H 143.884 -4.36616 -1.68772 0
M  V30 1360 H 144.057 -6.13066 -2.09891 0
M  V30 1361 N 137.463 0.71206 -1.40597 0
M  V30 1362 C 138.711 1.46907 -1.38791 0
M  V30 1363 C 139.032 1.94998 0.00780391 0
M  V30 1364 O 138.302 1.70587 0.963174 0
M  V30 1365 H 136.882 0.545043 -0.51082 0
M  V30 1366 H 139.544 0.843882 -1.75683 0
M  V30 1367 H 138.64 2.34021 -2.06496 0
M  V30 1368 N 138.941 1.26152 0.944643 0
M  V30 1369 C 139.871 1.09902 2.06019 0
M  V30 1370 C 140.852 0.00519538 1.70099 0
M  V30 1371 O 142.037 0.176583 1.93396 0
M  V30 1372 C 139.167 0.727562 3.39594 0
M  V30 1373 C 138.121 1.77274 3.89561 0
M  V30 1374 C 137.447 1.25569 5.19747 0
M  V30 1375 C 138.747 3.17357 4.14827 0
M  V30 1376 H 140.441 2.03217 2.19871 0
M  V30 1377 H 137.987 0.978452 1.05652 0
M  V30 1378 H 139.94 0.600777 4.17095 0
M  V30 1379 H 138.664 -0.241287 3.25707 0
M  V30 1380 H 137.323 1.88814 3.14237 0
M  V30 1381 H 136.971 0.276783 5.02238 0
M  V30 1382 H 136.671 1.95433 5.54148 0
M  V30 1383 H 138.195 1.1415 5.99835 0
M  V30 1384 H 139.609 3.08914 4.82954 0
M  V30 1385 H 138.006 3.84781 4.60504 0
M  V30 1386 H 139.076 3.63673 3.20734 0
M  V30 1387 N 140.419 -1.14872 1.07899 0
M  V30 1388 C 141.352 -2.18794 0.64841 0
M  V30 1389 C 142.33 -1.59065 -0.337189 0
M  V30 1390 O 143.514 -1.86936 -0.242284 0
M  V30 1391 C 140.641 -3.38667 -0.0470417 0
M  V30 1392 C 139.687 -4.16942 0.897884 0
M  V30 1393 S 140.52 -4.78615 2.40183 0
M  V30 1394 C 141.676 -6.0185 1.71834 0
M  V30 1395 H 141.909 -2.5498 1.52881 0
M  V30 1396 H 139.442 -1.25922 0.893484 0
M  V30 1397 H 141.4 -4.08113 -0.442027 0
M  V30 1398 H 140.061 -3.00814 -0.903861 0
M  V30 1399 H 139.254 -5.02726 0.358096 0
M  V30 1400 H 138.856 -3.53073 1.23352 0
M  V30 1401 H 141.148 -6.69574 1.03328 0
M  V30 1402 H 142.091 -6.60408 2.55473 0
M  V30 1403 H 142.499 -5.5173 1.19392 0
M  V30 1404 N 141.898 -0.863906 -1.31812 0
M  V30 1405 C 143.146 -0.470904 -1.96537 0
M  V30 1406 C 143.467 0.978771 -1.68657 0
M  V30 1407 O 142.737 1.6853 -0.998717 0
M  V30 1408 H 141.317 -0.171148 -0.72713 0
M  V30 1409 H 143.979 -1.10236 -1.60729 0
M  V30 1410 H 143.075 -0.623616 -3.05806 0
M  V30 1411 N 143.376 1.44774 -0.622745 0
M  V30 1412 C 144.308 2.28856 0.125485 0
M  V30 1413 C 145.321 1.40811 0.817069 0
M  V30 1414 O 146.51 1.65044 0.679918 0
M  V30 1415 C 143.61 3.16963 1.19949 0
M  V30 1416 C 142.783 4.33374 0.592064 0
M  V30 1417 C 141.842 5.02577 1.55893 0
M  V30 1418 O 140.868 5.58873 1.07933 0
M  V30 1419 N 142.07 5.03256 2.89334 0
M  V30 1420 H 144.835 2.93713 -0.596068 0
M  V30 1421 H 142.396 1.55129 -0.463303 0
M  V30 1422 H 144.388 3.60123 1.84644 0
M  V30 1423 H 142.958 2.53913 1.82337 0
M  V30 1424 H 142.178 3.93509 -0.233322 0
M  V30 1425 H 143.466 5.08527 0.166738 0
M  V30 1426 H 142.864 4.58836 3.30887 0
M  V30 1427 H 141.421 5.50232 3.49412 0
M  V30 1428 N 144.854 0.36279 1.53368 0
M  V30 1429 C 146.103 -0.22888 2.00397 0
M  V30 1430 C 146.416 -1.50096 1.25421 0
M  V30 1431 O 147.622 -2.17106 1.63025 0
M  V30 1432 C 146.078 -0.458417 3.56969 0
M  V30 1433 C 145.686 0.798877 4.4082 0
M  V30 1434 C 147.43 -1.00789 4.12361 0
M  V30 1435 C 145.337 0.539078 5.88938 0
M  V30 1436 H 144.267 -0.089305 0.748693 0
M  V30 1437 H 146.918 0.481099 1.77081 0
M  V30 1438 H 145.3 -1.22959 3.76427 0
M  V30 1439 H 146.474 1.57262 4.33134 0
M  V30 1440 H 144.789 1.27137 3.96516 0
M  V30 1441 H 147.386 -1.21754 5.20653 0
M  V30 1442 H 147.729 -1.9692 3.66781 0
M  V30 1443 H 148.262 -0.296961 3.9669 0
M  V30 1444 H 145.001 1.47064 6.3879 0
M  V30 1445 H 144.521 -0.196222 5.99479 0
M  V30 1446 H 146.2 0.163542 6.46793 0
M  V30 1447 N 146.332 -1.57332 0.0918853 0
M  V30 1448 C 147.581 -1.93412 -0.572249 0
M  V30 1449 C 147.894 -0.975515 -1.69538 0
M  V30 1450 O 149.1 -1.22991 -2.42045 0
M  V30 1451 C 147.556 -3.43648 -1.0693 0
M  V30 1452 C 147.164 -4.47994 0.0239049 0
M  V30 1453 C 148.908 -3.88695 -1.70635 0
M  V30 1454 C 146.815 -5.89381 -0.488319 0
M  V30 1455 H 145.745 -0.721939 -0.217532 0
M  V30 1456 H 148.396 -1.82735 0.167369 0
M  V30 1457 H 146.778 -3.49466 -1.8625 0
M  V30 1458 H 147.952 -4.53815 0.799277 0
M  V30 1459 H 146.267 -4.12536 0.565946 0
M  V30 1460 H 148.864 -4.91725 -2.10025 0
M  V30 1461 H 149.207 -3.27166 -2.57426 0
M  V30 1462 H 149.74 -3.85564 -0.979023 0
M  V30 1463 H 146.479 -6.54602 0.342906 0
M  V30 1464 H 145.999 -5.87037 -1.23077 0
M  V30 1465 H 147.678 -6.39863 -0.958317 0
M  V30 1466 N 147.81 0.181792 -1.56548 0
M  V30 1467 C 149.221 0.745244 -1.71181 0
M  V30 1468 C 149.572 1.83262 -0.70068 0
M  V30 1469 O 148.697 2.15946 0.140154 0
M  V30 1470 C 149.292 1.35859 -3.10367 0
M  V30 1471 C 147.851 1.86898 -3.2672 0
M  V30 1472 C 146.998 0.743942 -2.67134 0
M  V30 1473 H 149.949 -0.0434661 -1.5864 0
M  V30 1474 H 149.97 2.22817 -3.08436 0
M  V30 1475 H 149.482 0.566948 -3.83937 0
M  V30 1476 H 147.583 2.68738 -2.5809 0
M  V30 1477 H 147.696 2.02162 -4.34359 0
M  V30 1478 H 146.06 1.16169 -2.26665 0
M  V30 1479 H 146.843 -0.035676 -3.43281 0
M  V30 1480 N 149.288 1.51039 0.449983 0
M  V30 1481 C 150.537 1.62317 1.19733 0
M  V30 1482 C 150.85 0.339101 1.92638 0
M  V30 1483 O 152.056 0.331069 2.69474 0
M  V30 1484 C 150.512 2.86608 2.17678 0
M  V30 1485 C 150.12 4.21972 1.50479 0
M  V30 1486 C 151.864 3.07239 2.92924 0
M  V30 1487 C 149.771 5.37426 2.46834 0
M  V30 1488 H 148.701 0.604532 0.450619 0
M  V30 1489 H 151.352 1.77494 0.465625 0
M  V30 1490 H 149.734 2.65037 2.94231 0
M  V30 1491 H 150.908 4.53878 0.795716 0
M  V30 1492 H 149.223 4.07117 0.874344 0
M  V30 1493 H 151.82 3.90668 3.65079 0
M  V30 1494 H 152.163 2.19807 3.5354 0
M  V30 1495 H 152.696 3.29091 2.23481 0
M  V30 1496 H 149.435 6.27079 1.90926 0
M  V30 1497 H 148.955 5.09912 3.15832 0
M  V30 1498 H 150.634 5.68862 3.08228 0
M  V30 1499 N 150.766 -0.704594 1.40972 0
M  V30 1500 C 151.996 -1.49138 1.42974 0
M  V30 1501 C 152.404 -1.89175 0.0308406 0
M  V30 1502 O 151.747 -1.56734 -0.958138 0
M  V30 1503 C 151.809 -2.79016 2.26694 0
M  V30 1504 C 151.473 -2.61236 3.74973 0
M  V30 1505 C 152.47 -2.27773 4.67349 0
M  V30 1506 C 150.155 -2.77158 4.18914 0
M  V30 1507 C 152.149 -2.10457 6.01653 0
M  V30 1508 C 149.836 -2.59459 5.53285 0
M  V30 1509 C 150.834 -2.26158 6.4447 0
M  V30 1510 O 150.522 -2.08605 7.76363 0
M  V30 1511 H 150.254 -0.466443 0.489292 0
M  V30 1512 H 152.808 -0.8758 1.85793 0
M  V30 1513 H 151.038 -3.42947 1.78673 0
M  V30 1514 H 152.727 -3.40782 2.20504 0
M  V30 1515 H 153.493 -2.15095 4.34694 0
M  V30 1516 H 149.372 -3.02064 3.48251 0
M  V30 1517 H 152.916 -1.84387 6.72791 0
M  V30 1518 H 148.813 -2.71725 5.85522 0
M  V30 1519 H 149.581 -2.23439 7.87412 0
M  V30 1520 N 152.244 -1.26651 -0.937939 0
M  V30 1521 C 153.492 -1.12165 -1.68118 0
M  V30 1522 C 153.813 0.334983 -1.92101 0
M  V30 1523 O 153.083 1.23583 -1.52 0
M  V30 1524 H 151.663 -0.412093 -0.623048 0
M  V30 1525 H 154.325 -1.59027 -1.12678 0
M  V30 1526 H 153.421 -1.64289 -2.6536 0
M  V30 1527 N 153.722 1.14298 -1.08507 0
M  V30 1528 C 154.969 1.85359 -0.815373 0
M  V30 1529 C 155.297 1.83001 0.658865 0
M  V30 1530 O 154.552 1.25655 1.50031 0
M  V30 1531 C 154.851 3.33547 -1.28379 0
M  V30 1532 C 154.517 3.56093 -2.76602 0
M  V30 1533 C 153.179 3.61955 -3.17084 0
M  V30 1534 C 155.531 3.64834 -3.72217 0
M  V30 1535 C 152.859 3.74082 -4.51973 0
M  V30 1536 C 155.211 3.78487 -5.06883 0
M  V30 1537 C 153.875 3.82598 -5.46969 0
M  V30 1538 H 153.145 0.678276 -0.298366 0
M  V30 1539 H 155.792 1.35002 -1.35819 0
M  V30 1540 H 154.097 3.86191 -0.660593 0
M  V30 1541 H 155.794 3.86959 -1.05186 0
M  V30 1542 H 152.384 3.52179 -2.4427 0
M  V30 1543 H 156.568 3.59595 -3.42061 0
M  V30 1544 H 151.824 3.75527 -4.82483 0
M  V30 1545 H 155.998 3.84193 -5.80834 0
M  V30 1546 H 153.625 3.91747 -6.51489 0
M  V30 1547 N 155.201 0.870884 1.31352 0
M  V30 1548 C 156.449 0.48132 1.96285 0
M  V30 1549 C 156.77 -0.969813 1.69173 0
M  V30 1550 O 156.04 -1.67998 1.00764 0
M  V30 1551 H 154.62 0.175002 0.726212 0
M  V30 1552 H 157.282 1.11087 1.60143 0
M  V30 1553 H 156.378 0.639825 3.05471 0
M  V30 1554 N 156.679 -1.44442 0.630414 0
M  V30 1555 C 157.928 -2.01267 0.132073 0
M  V30 1556 C 158.241 -1.50172 -1.25331 0
M  V30 1557 O 159.447 -1.9912 -1.84562 0
M  V30 1558 C 157.903 -3.59422 0.185362 0
M  V30 1559 C 157.511 -4.19514 1.57201 0
M  V30 1560 C 159.255 -4.23724 -0.256553 0
M  V30 1561 C 157.162 -5.69891 1.58045 0
M  V30 1562 H 156.092 -0.752619 0.0456092 0
M  V30 1563 H 158.743 -1.65666 0.789106 0
M  V30 1564 H 157.125 -3.92318 -0.538759 0
M  V30 1565 H 158.299 -3.98156 2.31966 0
M  V30 1566 H 156.614 -3.67496 1.95795 0
M  V30 1567 H 159.211 -5.34019 -0.269767 0
M  V30 1568 H 159.554 -3.96013 -1.28372 0
M  V30 1569 H 160.087 -3.95629 0.41505 0
M  V30 1570 H 156.826 -6.02336 2.58597 0
M  V30 1571 H 156.346 -5.93373 0.875725 0
M  V30 1572 H 158.025 -6.33515 1.31408 0
M  V30 1573 N 158.157 -0.370918 -1.53173 0
M  V30 1574 C 159.404 0.217102 -2.01333 0
M  V30 1575 C 159.732 1.48338 -1.25802 0
M  V30 1576 O 158.987 1.92698 -0.34146 0
M  V30 1577 C 159.286 0.549696 -3.53147 0
M  V30 1578 C 158.952 -0.622872 -4.46577 0
M  V30 1579 C 157.614 -0.944595 -4.71838 0
M  V30 1580 C 159.966 -1.40819 -5.01816 0
M  V30 1581 C 157.294 -2.05351 -5.49589 0
M  V30 1582 C 159.646 -2.50757 -5.80778 0
M  V30 1583 C 158.31 -2.83458 -6.04324 0
M  V30 1584 H 157.58 0.0794431 -0.736729 0
M  V30 1585 H 160.227 -0.504481 -1.84736 0
M  V30 1586 H 158.532 1.35237 -3.6772 0
M  V30 1587 H 160.229 1.017 -3.87889 0
M  V30 1588 H 156.819 -0.36209 -4.27068 0
M  V30 1589 H 161.003 -1.17289 -4.82242 0
M  V30 1590 H 156.259 -2.3108 -5.6605 0
M  V30 1591 H 160.433 -3.12022 -6.22588 0
M  V30 1592 H 158.06 -3.69508 -6.64355 0
M  V30 1593 N 159.635 1.57281 -0.100228 0
M  V30 1594 C 160.565 2.17328 0.853857 0
M  V30 1595 C 161.546 1.10804 1.2906 0
M  V30 1596 O 162.731 1.38963 1.35657 0
M  V30 1597 C 159.861 2.75772 2.11109 0
M  V30 1598 C 158.815 3.87713 1.81279 0
M  V30 1599 C 158.141 4.32882 3.13874 0
M  V30 1600 C 159.441 5.10677 1.09574 0
M  V30 1601 H 161.135 2.97305 0.353545 0
M  V30 1602 H 158.681 1.43009 0.168612 0
M  V30 1603 H 160.634 3.16433 2.78296 0
M  V30 1604 H 159.358 1.93057 2.63432 0
M  V30 1605 H 158.017 3.476 1.16489 0
M  V30 1606 H 157.665 3.47051 3.64095 0
M  V30 1607 H 157.365 5.08358 2.94696 0
M  V30 1608 H 158.889 4.7618 3.82211 0
M  V30 1609 H 160.303 5.48474 1.66879 0
M  V30 1610 H 158.7 5.91615 1.00557 0
M  V30 1611 H 159.77 4.84835 0.0793299 0
M  V30 1612 N 161.113 -0.173488 1.56642 0
M  V30 1613 C 162.343 -0.904781 1.85734 0
M  V30 1614 C 162.751 -1.76431 0.68328 0
M  V30 1615 O 162.094 -1.802 -0.356865 0
M  V30 1616 C 162.156 -1.83382 3.09211 0
M  V30 1617 C 161.82 -1.15411 4.42187 0
M  V30 1618 C 162.817 -0.520609 5.17287 0
M  V30 1619 C 160.502 -1.15151 4.88923 0
M  V30 1620 C 162.496 0.106412 6.37311 0
M  V30 1621 C 160.183 -0.520664 6.08878 0
M  V30 1622 C 161.181 0.107196 6.82916 0
M  V30 1623 O 160.869 0.728102 8.00596 0
M  V30 1624 H 160.601 -0.268408 0.62043 0
M  V30 1625 H 163.155 -0.179096 2.04618 0
M  V30 1626 H 161.385 -2.59976 2.86268 0
M  V30 1627 H 163.074 -2.43476 3.24768 0
M  V30 1628 H 163.84 -0.514606 4.82262 0
M  V30 1629 H 159.719 -1.62961 4.31236 0
M  V30 1630 H 163.263 0.597081 6.9504 0
M  V30 1631 H 159.16 -0.524242 6.43368 0
M  V30 1632 H 159.928 0.627138 8.16094 0
M  V30 1633 N 162.591 -1.51276 -0.441967 0
M  V30 1634 C 163.84 -1.6295 -1.18871 0
M  V30 1635 C 164.153 -0.349312 -1.92456 0
M  V30 1636 O 165.359 -0.345355 -2.69295 0
M  V30 1637 C 163.815 -2.87759 -2.16155 0
M  V30 1638 C 163.423 -4.22764 -1.48239 0
M  V30 1639 C 165.167 -3.08788 -2.91291 0
M  V30 1640 C 163.074 -5.38728 -2.4398 0
M  V30 1641 H 162.004 -0.606913 -0.447406 0
M  V30 1642 H 164.655 -1.77739 -0.456205 0
M  V30 1643 H 163.037 -2.66593 -2.92821 0
M  V30 1644 H 164.211 -4.54293 -0.771635 0
M  V30 1645 H 162.526 -4.07575 -0.852741 0
M  V30 1646 H 165.123 -3.92599 -3.63002 0
M  V30 1647 H 165.466 -2.21679 -3.5237 0
M  V30 1648 H 165.999 -3.30272 -2.21733 0
M  V30 1649 H 162.738 -6.28082 -1.87598 0
M  V30 1650 H 162.258 -5.1158 -3.13123 0
M  V30 1651 H 163.937 -5.70489 -3.05207 0
M  V30 1652 N 164.069 0.697108 -1.41344 0
M  V30 1653 C 164.999 1.82353 -1.45841 0
M  V30 1654 C 165.98 1.67115 -0.317247 0
M  V30 1655 O 167.165 1.86871 -0.528474 0
M  V30 1656 C 164.295 3.20476 -1.33838 0
M  V30 1657 C 163.249 3.50415 -2.4575 0
M  V30 1658 C 162.575 4.87878 -2.18813 0
M  V30 1659 C 163.875 3.49546 -3.88091 0
M  V30 1660 H 165.569 1.78846 -2.40113 0
M  V30 1661 H 163.115 0.859028 -1.15571 0
M  V30 1662 H 165.068 3.98988 -1.35596 0
M  V30 1663 H 163.792 3.24604 -0.360498 0
M  V30 1664 H 162.451 2.74253 -2.43271 0
M  V30 1665 H 162.099 4.8863 -1.19371 0
M  V30 1666 H 161.799 5.08875 -2.93803 0
M  V30 1667 H 163.323 5.68702 -2.22284 0
M  V30 1668 H 164.737 4.18066 -3.92293 0
M  V30 1669 H 163.134 3.82075 -4.62751 0
M  V30 1670 H 164.204 2.48552 -4.16353 0
M  V30 1671 N 165.547 1.27147 0.931209 0
M  V30 1672 C 166.777 1.15914 1.71019 0
M  V30 1673 C 167.185 -0.287112 1.87009 0
M  V30 1674 O 166.528 -1.20761 1.38429 0
M  V30 1675 C 166.59 1.76647 3.13107 0
M  V30 1676 C 166.254 3.25807 3.20467 0
M  V30 1677 C 167.251 4.22489 3.02983 0
M  V30 1678 C 164.936 3.66452 3.43538 0
M  V30 1679 C 166.93 5.57794 3.08454 0
M  V30 1680 C 164.617 5.01888 3.48643 0
M  V30 1681 C 165.615 5.97369 3.31119 0
M  V30 1682 O 165.303 7.30337 3.35952 0
M  V30 1683 H 165.035 0.404062 0.54195 0
M  V30 1684 H 167.589 1.68457 1.17521 0
M  V30 1685 H 165.819 1.18578 3.68071 0
M  V30 1686 H 167.508 1.60179 3.72958 0
M  V30 1687 H 168.274 3.92425 2.85004 0
M  V30 1688 H 164.153 2.92611 3.5623 0
M  V30 1689 H 167.697 6.32298 2.94694 0
M  V30 1690 H 163.594 5.31609 3.66145 0
M  V30 1691 H 164.362 7.38739 3.5243 0
M  V30 1692 N 167.025 -1.13721 1.09112 0
M  V30 1693 C 168.274 -1.84275 0.82009 0
M  V30 1694 C 168.587 -1.84253 -0.656509 0
M  V30 1695 O 169.793 -2.50668 -1.04296 0
M  V30 1696 C 168.249 -3.30825 1.41714 0
M  V30 1697 C 167.857 -3.39244 2.92605 0
M  V30 1698 C 169.601 -4.06443 1.22492 0
M  V30 1699 C 167.508 -4.80047 3.45411 0
M  V30 1700 H 166.438 -0.690387 0.30312 0
M  V30 1701 H 169.089 -1.28146 1.31343 0
M  V30 1702 H 167.471 -3.86737 0.851498 0
M  V30 1703 H 168.645 -2.93344 3.55367 0
M  V30 1704 H 166.96 -2.77088 3.10823 0
M  V30 1705 H 169.557 -5.10387 1.59402 0
M  V30 1706 H 169.9 -4.15972 0.165299 0
M  V30 1707 H 170.433 -3.56852 1.75788 0
M  V30 1708 H 167.172 -4.75709 4.50978 0
M  V30 1709 H 166.692 -5.26455 2.87411 0
M  V30 1710 H 168.371 -5.48957 3.42425 0
M  V30 1711 N 168.503 -0.877838 -1.30888 0
M  V30 1712 C 169.433 -0.35534 -2.3078 0
M  V30 1713 C 170.414 0.557994 -1.60687 0
M  V30 1714 O 171.599 0.473355 -1.88343 0
M  V30 1715 C 168.729 0.437221 -3.44537 0
M  V30 1716 C 167.683 -0.383715 -4.26276 0
M  V30 1717 C 167.009 0.535014 -5.32017 0
M  V30 1718 C 168.309 -1.62201 -4.96476 0
M  V30 1719 H 170.003 -1.19007 -2.74732 0
M  V30 1720 H 167.549 -0.573698 -1.32078 0
M  V30 1721 H 169.502 0.813334 -4.13477 0
M  V30 1722 H 168.226 1.30553 -2.99372 0
M  V30 1723 H 166.885 -0.741874 -3.59015 0
M  V30 1724 H 166.533 1.40083 -4.831 0
M  V30 1725 H 166.233 -0.0104211 -5.87599 0
M  V30 1726 H 167.757 0.907799 -6.03814 0
M  V30 1727 H 169.171 -1.31689 -5.5797 0
M  V30 1728 H 167.568 -2.10711 -5.61891 0
M  V30 1729 H 168.638 -2.37044 -4.23011 0
M  V30 1730 N 169.982 1.44106 -0.638065 0
M  V30 1731 C 171.229 2.01978 -0.14533 0
M  V30 1732 C 171.557 1.50234 1.23532 0
M  V30 1733 O 170.812 0.679548 1.83523 0
M  V30 1734 C 171.111 3.5729 -0.0887327 0
M  V30 1735 C 170.777 4.28317 -1.40909 0
M  V30 1736 C 169.439 4.47437 -1.77069 0
M  V30 1737 C 171.791 4.6867 -2.28031 0
M  V30 1738 C 169.119 5.04171 -3.00047 0
M  V30 1739 C 171.471 5.26766 -3.50286 0
M  V30 1740 C 170.135 5.44104 -3.86661 0
M  V30 1741 H 169.405 0.739089 -0.0531801 0
M  V30 1742 H 172.052 1.72781 -0.825761 0
M  V30 1743 H 170.357 3.8594 0.675095 0
M  V30 1744 H 172.054 3.99807 0.309145 0
M  V30 1745 H 168.644 4.1377 -1.1177 0
M  V30 1746 H 172.828 4.53604 -2.01388 0
M  V30 1747 H 168.084 5.15782 -3.28298 0
M  V30 1748 H 172.258 5.56983 -4.18023 0
M  V30 1749 H 169.885 5.87832 -4.82034 0
M  V30 1750 N 171.46 0.379036 1.52974 0
M  V30 1751 C 172.407 -0.461048 2.26148 0
M  V30 1752 C 173.377 -1.06637 1.27349 0
M  V30 1753 O 174.562 -1.09633 1.56157 0
M  V30 1754 C 171.702 -1.58782 3.06402 0
M  V30 1755 C 170.815 -1.00636 4.20115 0
M  V30 1756 C 169.95 -2.10334 4.87784 0
M  V30 1757 C 168.989 -1.49724 5.93506 0
M  V30 1758 N 168.126 -2.5331 6.54812 0
M  V30 1759 H 172.966 0.169429 2.97518 0
M  V30 1760 H 170.503 0.0953806 1.4679 0
M  V30 1761 H 172.461 -2.25174 3.51215 0
M  V30 1762 H 171.091 -2.18876 2.37261 0
M  V30 1763 H 170.143 -0.232332 3.7969 0
M  V30 1764 H 171.455 -0.523343 4.96047 0
M  V30 1765 H 170.609 -2.84519 5.35849 0
M  V30 1766 H 169.348 -2.61992 4.11353 0
M  V30 1767 H 168.353 -0.740598 5.44789 0
M  V30 1768 H 169.578 -0.988732 6.71864 0
M  V30 1769 H 167.524 -3.04156 5.81227 0
M  V30 1770 H 167.441 -2.09734 7.26325 0
M  V30 1771 H 168.709 -3.27155 7.07524 0
M  V30 1772 N 172.938 -1.57226 0.108567 0
M  V30 1773 C 173.868 -2.17778 -0.84232 0
M  V30 1774 C 174.849 -1.11487 -1.2847 0
M  V30 1775 O 176.034 -1.39681 -1.34918 0
M  V30 1776 C 173.164 -2.76888 -2.09644 0
M  V30 1777 C 172.118 -3.88669 -1.79221 0
M  V30 1778 C 171.444 -4.34541 -3.11574 0
M  V30 1779 C 172.744 -5.11251 -1.06864 0
M  V30 1780 H 174.438 -2.97489 -0.337774 0
M  V30 1781 H 171.984 -1.43097 -0.161025 0
M  V30 1782 H 173.937 -3.17904 -2.76614 0
M  V30 1783 H 172.661 -1.94451 -2.62405 0
M  V30 1784 H 171.32 -3.48213 -1.14644 0
M  V30 1785 H 170.968 -3.48977 -3.62249 0
M  V30 1786 H 170.668 -5.09914 -2.91996 0
M  V30 1787 H 172.192 -4.782 -3.7968 0
M  V30 1788 H 173.606 -5.49352 -1.63968 0
M  V30 1789 H 172.003 -5.9214 -0.974178 0
M  V30 1790 H 173.073 -4.8487 -0.0536168 0
M  V30 1791 N 174.416 0.165178 -1.56732 0
M  V30 1792 C 175.641 0.900253 -1.86843 0
M  V30 1793 C 176.066 1.74766 -0.695596 0
M  V30 1794 O 175.424 1.77786 0.35522 0
M  V30 1795 C 175.472 1.74777 -3.15413 0
M  V30 1796 O 174.576 2.85007 -2.98068 0
M  V30 1797 H 173.917 0.251832 -0.614391 0
M  V30 1798 H 176.447 0.161468 -2.03962 0
M  V30 1799 H 176.457 2.14646 -3.46974 0
M  V30 1800 H 175.132 1.12537 -4.00385 0
M  V30 1801 H 173.709 2.48676 -2.77875 0
M  V30 1802 N 175.894 1.51508 0.433938 0
M  V30 1803 C 176.841 1.73068 1.52696 0
M  V30 1804 C 177.811 0.572441 1.55924 0
M  V30 1805 O 178.996 0.807253 1.72882 0
M  V30 1806 C 176.136 1.86474 2.90381 0
M  V30 1807 C 175.249 3.14037 2.96656 0
M  V30 1808 C 174.384 3.18019 4.25485 0
M  V30 1809 C 173.423 4.39882 4.2564 0
M  V30 1810 N 172.56 4.41394 5.45999 0
M  V30 1811 H 177.4 2.66366 1.33615 0
M  V30 1812 H 174.937 1.32008 0.649018 0
M  V30 1813 H 176.895 1.92229 3.70275 0
M  V30 1814 H 175.525 0.965809 3.08013 0
M  V30 1815 H 174.577 3.17575 2.09404 0
M  V30 1816 H 175.889 4.0394 2.92633 0
M  V30 1817 H 175.043 3.22708 5.13755 0
M  V30 1818 H 173.782 2.2601 4.3217 0
M  V30 1819 H 172.787 4.35366 3.35763 0
M  V30 1820 H 174.012 5.33159 4.20617 0
M  V30 1821 H 171.958 3.52258 5.53399 0
M  V30 1822 H 171.875 5.25111 5.4387 0
M  V30 1823 H 173.143 4.50281 6.36292 0
M  V30 1824 N 177.372 -0.689602 1.41712 0
M  V30 1825 C 178.62 -1.4468 1.4111 0
M  V30 1826 C 178.941 -1.94986 0.0232196 0
M  V30 1827 O 178.211 -1.72097 -0.935913 0
M  V30 1828 H 176.791 -0.536847 0.519427 0
M  V30 1829 H 179.453 -0.815825 1.77004 0
M  V30 1830 H 178.549 -2.30706 2.10193 0
M  V30 1831 N 178.85 -1.27639 -0.924453 0
M  V30 1832 C 179.797 -1.10644 -2.0255 0
M  V30 1833 C 180.767 -0.00658438 -1.66099 0
M  V30 1834 O 181.952 -0.16952 -1.90045 0
M  V30 1835 C 179.092 -0.76309 -3.36557 0
M  V30 1836 C 178.205 -1.94091 -3.85944 0
M  V30 1837 C 177.34 -1.53914 -5.08413 0
M  V30 1838 C 176.379 -2.68425 -5.50104 0
M  V30 1839 N 175.516 -2.28815 -6.63768 0
M  V30 1840 H 180.356 -2.04858 -2.16419 0
M  V30 1841 H 177.893 -1.01974 -1.06017 0
M  V30 1842 H 179.851 -0.544822 -4.13627 0
M  V30 1843 H 178.481 0.142102 -3.22487 0
M  V30 1844 H 177.533 -2.27162 -3.05125 0
M  V30 1845 H 178.845 -2.7998 -4.12811 0
M  V30 1846 H 177.999 -1.28231 -5.92994 0
M  V30 1847 H 176.738 -0.651391 -4.8333 0
M  V30 1848 H 175.743 -2.94819 -4.64071 0
M  V30 1849 H 176.968 -3.57826 -5.7718 0
M  V30 1850 H 174.914 -1.42495 -6.40337 0
M  V30 1851 H 174.831 -3.08242 -6.90306 0
M  V30 1852 H 176.099 -2.06387 -7.51681 0
M  V30 1853 N 180.328 1.1314 -1.09713 0
M  V30 1854 C 181.556 1.88321 -0.856898 0
M  V30 1855 C 181.971 1.79276 0.592073 0
M  V30 1856 O 181.328 1.16142 1.40774 0
M  V30 1857 C 181.379 3.37812 -1.28706 0
M  V30 1858 O 181.1 3.46627 -2.67921 0
M  V30 1859 C 182.601 4.29952 -1.07964 0
M  V30 1860 H 179.821 0.596094 -0.308079 0
M  V30 1861 H 182.365 1.43205 -1.45988 0
M  V30 1862 H 180.52 3.805 -0.727912 0
M  V30 1863 H 180.934 4.39579 -2.8613 0
M  V30 1864 H 182.408 5.33159 -1.42986 0
M  V30 1865 H 182.885 4.39196 -0.0176577 0
M  V30 1866 H 183.491 3.93036 -1.62489 0
M  V30 1867 N 181.806 0.884767 1.30421 0
M  V30 1868 C 183.034 0.518044 2.0031 0
M  V30 1869 C 183.449 -0.893408 1.66324 0
M  V30 1870 O 182.806 -1.5875 0.900262 0
M  V30 1871 C 182.857 0.682997 3.54989 0
M  V30 1872 O 182.578 2.03888 3.87764 0
M  V30 1873 C 184.079 0.31924 4.42149 0
M  V30 1874 H 181.299 0.200265 0.640418 0
M  V30 1875 H 183.843 1.19001 1.6631 0
M  V30 1876 H 181.998 0.0584052 3.87356 0
M  V30 1877 H 182.412 2.05735 4.82466 0
M  V30 1878 H 183.886 0.485555 5.4986 0
M  V30 1879 H 184.363 -0.742717 4.32875 0
M  V30 1880 H 184.969 0.920147 4.15227 0
M  V30 1881 N 183.284 -1.43765 0.645699 0
M  V30 1882 C 184.247 -2.29163 -0.0409488 0
M  V30 1883 C 185.247 -1.41813 -0.757996 0
M  V30 1884 O 186.437 -1.63527 -0.600382 0
M  V30 1885 C 183.569 -3.23716 -1.06869 0
M  V30 1886 H 184.762 -2.91366 0.710345 0
M  V30 1887 H 182.315 -1.5092 0.406547 0
M  V30 1888 H 183.05 -2.66393 -1.84947 0
M  V30 1889 H 182.835 -3.88105 -0.558277 0
M  V30 1890 H 184.325 -3.87831 -1.54845 0
M  V30 1891 N 184.763 -0.387143 -1.52771 0
M  V30 1892 C 185.673 0.456442 -2.30117 0
M  V30 1893 C 186.689 1.07342 -1.36944 0
M  V30 1894 O 187.865 1.07971 -1.70013 0
M  V30 1895 C 184.93 1.56957 -3.09136 0
M  V30 1896 C 183.991 0.977916 -4.18014 0
M  V30 1897 C 183.224 2.038 -4.93256 0
M  V30 1898 O 183.447 3.25271 -4.68567 0
M  V30 1899 O 182.381 1.6565 -5.78657 0
M  V30 1900 H 186.207 -0.17359 -3.03203 0
M  V30 1901 H 183.792 -0.150919 -1.48636 0
M  V30 1902 H 185.674 2.21628 -3.58412 0
M  V30 1903 H 184.349 2.18461 -2.38865 0
M  V30 1904 H 183.256 0.294525 -3.72939 0
M  V30 1905 H 184.589 0.407128 -4.90513 0
M  V30 1906 N 186.241 1.57166 -0.116904 0
M  V30 1907 C 187.518 1.86645 0.585049 0
M  V30 1908 C 187.898 1.0177 1.84949 0
M  V30 1909 O 187.246 0.0960379 2.28298 0
M  V30 1910 C 187.456 3.37736 0.879507 0
M  V30 1911 C 188.804 4.06289 1.23348 0
M  V30 1912 O 189.828 3.42743 0.969836 0
M  V30 1913 O 188.687 5.18455 1.7282 0
M  V30 1914 H 185.781 0.772593 0.295007 0
M  V30 1915 H 188.327 1.69025 -0.151249 0
M  V30 1916 H 187.099 3.91296 -0.0166136 0
M  V30 1917 H 186.722 3.6078 1.67103 0
M  V30 1918 N 187.719 -0.156864 1.56817 0
M  V30 1919 C 188.967 -0.869404 1.82444 0
M  V30 1920 C 189.288 -1.82147 0.69623 0
M  V30 1921 O 188.558 -1.93847 -0.28287 0
M  V30 1922 H 187.138 -0.324043 0.673056 0
M  V30 1923 H 189.8 -0.153224 1.94297 0
M  V30 1924 H 188.896 -1.43761 2.77019 0
M  V30 1925 N 189.197 -1.51736 -0.425897 0
M  V30 1926 C 190.144 -1.73875 -1.51776 0
M  V30 1927 C 191.114 -0.580702 -1.55618 0
M  V30 1928 O 192.299 -0.81641 -1.72451 0
M  V30 1929 C 189.439 -1.88012 -2.89388 0
M  V30 1930 C 188.552 -3.15606 -2.94986 0
M  V30 1931 C 187.687 -3.20271 -4.23793 0
M  V30 1932 C 186.726 -4.42134 -4.23302 0
M  V30 1933 N 185.863 -4.44284 -5.43651 0
M  V30 1934 H 190.703 -2.67071 -1.32201 0
M  V30 1935 H 188.24 -1.32351 -0.642008 0
M  V30 1936 H 190.198 -1.9419 -3.69251 0
M  V30 1937 H 188.828 -0.98213 -3.07496 0
M  V30 1938 H 187.88 -3.18681 -2.07717 0
M  V30 1939 H 189.192 -4.05486 -2.90486 0
M  V30 1940 H 188.346 -3.25428 -5.12036 0
M  V30 1941 H 187.085 -2.28299 -4.30965 0
M  V30 1942 H 186.09 -4.3714 -3.3345 0
M  V30 1943 H 187.315 -5.35382 -4.17783 0
M  V30 1944 H 185.261 -3.55188 -5.51523 0
M  V30 1945 H 185.178 -5.27988 -5.41078 0
M  V30 1946 H 186.446 -4.53649 -6.33895 0
M  V30 1947 N 190.675 0.682077 -1.42076 0
M  V30 1948 C 191.915 1.45424 -1.43636 0
M  V30 1949 C 192.279 1.91939 -0.0484001 0
M  V30 1950 O 193.48 2.6873 0.0612514 0
M  V30 1951 C 191.751 2.62427 -2.42625 0
M  V30 1952 S 193.31 3.51379 -2.62827 0
M  V30 1953 H 190.128 0.496779 -0.508657 0
M  V30 1954 H 192.73 0.794645 -1.78621 0
M  V30 1955 H 191.434 2.26481 -3.42249 0
M  V30 1956 H 190.965 3.33266 -2.09039 0
M  V30 1957 H 192.98 4.58141 -1.9058 0
M  V30 1958 N 192.153 1.28127 0.917671 0
M  V30 1959 C 193.383 1.17722 1.6978 0
M  V30 1960 C 193.791 -0.267261 1.87303 0
M  V30 1961 O 193.134 -1.19286 1.39702 0
M  V30 1962 C 193.196 1.79958 3.11216 0
M  V30 1963 C 192.86 3.29187 3.16993 0
M  V30 1964 C 193.857 4.25679 2.98485 0
M  V30 1965 C 191.542 3.70075 3.39632 0
M  V30 1966 C 193.536 5.61035 3.02521 0
M  V30 1967 C 191.223 5.05557 3.433 0
M  V30 1968 C 192.221 6.00847 3.24764 0
M  V30 1969 O 191.909 7.33859 3.28187 0
M  V30 1970 H 191.641 0.409788 0.537634 0
M  V30 1971 H 194.195 1.69694 1.15728 0
M  V30 1972 H 192.425 1.22475 3.66793 0
M  V30 1973 H 194.114 1.64125 3.71238 0
M  V30 1974 H 194.88 3.95426 2.80826 0
M  V30 1975 H 190.759 2.96373 3.53106 0
M  V30 1976 H 194.303 6.35388 2.87971 0
M  V30 1977 H 190.2 5.35462 3.60486 0
M  V30 1978 H 190.968 7.42436 3.44575 0
M  V30 1979 N 193.631 -1.12557 1.10312 0
M  V30 1980 C 194.859 -1.87864 0.866873 0
M  V30 1981 C 195.274 -1.79588 -0.582557 0
M  V30 1982 O 194.631 -1.16887 -1.40156 0
M  V30 1983 C 194.682 -3.37125 1.30496 0
M  V30 1984 O 194.403 -3.45201 2.69755 0
M  V30 1985 C 195.904 -4.29373 1.10243 0
M  V30 1986 H 193.124 -0.594452 0.311236 0
M  V30 1987 H 195.668 -1.42429 1.46745 0
M  V30 1988 H 193.823 -3.80109 0.748081 0
M  V30 1989 H 194.237 -4.38056 2.88457 0
M  V30 1990 H 195.711 -5.32394 1.45811 0
M  V30 1991 H 196.188 -4.39181 0.0409492 0
M  V30 1992 H 196.794 -3.92169 1.64571 0
M  V30 1993 N 195.109 -0.891671 -1.2995 0
M  V30 1994 C 196.072 -0.36828 -2.26222 0
M  V30 1995 C 197.072 0.493014 -1.53056 0
M  V30 1996 O 198.262 0.299213 -1.71611 0
M  V30 1997 C 195.394 0.47442 -3.37583 0
M  V30 1998 H 196.587 -1.21844 -2.74033 0
M  V30 1999 H 194.14 -0.669107 -1.41254 0
M  V30 2000 H 194.875 1.34489 -2.95099 0
M  V30 2001 H 194.66 -0.142615 -3.91841 0
M  V30 2002 H 196.15 0.83218 -4.09224 0
M  V30 2003 N 196.587 1.43421 -0.653314 0
M  V30 2004 C 197.52 2.2803 0.0879804 0
M  V30 2005 C 198.498 1.39833 0.82979 0
M  V30 2006 O 199.682 1.69275 0.829341 0
M  V30 2007 C 196.809 3.19247 1.13132 0
M  V30 2008 C 195.855 4.23704 0.487546 0
M  V30 2009 S 196.688 5.30377 -0.738961 0
M  V30 2010 C 197.844 6.25162 0.30384 0
M  V30 2011 H 198.077 2.90554 -0.629739 0
M  V30 2012 H 195.61 1.47934 -0.442156 0
M  V30 2013 H 197.568 3.72346 1.72827 0
M  V30 2014 H 196.229 2.55901 1.82136 0
M  V30 2015 H 195.422 4.87631 1.27407 0
M  V30 2016 H 195.024 3.73983 -0.0352915 0
M  V30 2017 H 197.316 6.67321 1.17 0
M  V30 2018 H 198.259 7.07463 -0.300402 0
M  V30 2019 H 198.667 5.60864 0.63969 0
M  V30 2020 N 198.065 0.39524 1.52563 0
M  V30 2021 C 199.476 -0.0774719 1.86539 0
M  V30 2022 C 199.827 -1.45641 1.31466 0
M  V30 2023 O 198.952 -2.06459 0.648367 0
M  V30 2024 C 199.547 -0.147356 3.38479 0
M  V30 2025 C 198.106 -0.564373 3.72145 0
M  V30 2026 C 197.253 0.269919 2.75983 0
M  V30 2027 H 200.204 0.612876 1.46388 0
M  V30 2028 H 200.225 -0.965343 3.68051 0
M  V30 2029 H 199.737 0.856387 3.78534 0
M  V30 2030 H 197.838 -1.57527 3.37663 0
M  V30 2031 H 197.951 -0.318402 4.78041 0
M  V30 2032 H 196.315 -0.265696 2.5331 0
M  V30 2033 H 197.098 1.27175 3.18875 0
M  V30 2034 N 199.544 -1.57102 0.125237 0
M  V30 2035 C 200.792 -1.95021 -0.530198 0
M  V30 2036 C 201.113 -1.00982 -1.66816 0
M  V30 2037 O 200.383 -0.0672693 -1.95784 0
M  V30 2038 H 198.963 -0.720046 -0.198853 0
M  V30 2039 H 201.625 -1.93916 0.19564 0
M  V30 2040 H 200.721 -2.98211 -0.920681 0
M  V30 2041 N 201.022 0.148545 -1.56898 0
M  V30 2042 C 201.97 1.20265 -1.99096 0
M  V30 2043 C 202.964 1.44559 -0.883123 0
M  V30 2044 O 204.17 1.4487 -1.0683 0
M  V30 2045 H 200.545 0.404786 -0.63376 0
M  V30 2046 H 202.516 0.82004 -2.86911 0
M  V30 2047 C 201.265 2.52886 -2.3863 0
M  V30 2048 H 200.588 2.35021 -3.23427 0
M  V30 2049 H 202.028 3.25274 -2.7198 0
M  V30 2050 C 200.487 3.13315 -1.23837 0
M  V30 2051 O 201.017 3.98077 -0.538268 0
M  V30 2052 N 199.223 2.72742 -1.00301 0
M  V30 2053 H 198.77 2.03912 -1.5741 0
M  V30 2054 H 198.728 3.13507 -0.236838 0
M  V30 2055 N 202.5 1.5196 0.417844 0
M  V30 2056 C 203.728 1.69426 1.18753 0
M  V30 2057 C 204.143 0.399955 1.84515 0
M  V30 2058 O 203.5 -0.623288 1.71527 0
M  V30 2059 C 203.551 2.82375 2.25714 0
M  V30 2060 O 203.272 4.06793 1.62638 0
M  V30 2061 C 204.773 3.11277 3.15628 0
M  V30 2062 H 201.993 0.568031 0.357186 0
M  V30 2063 H 204.537 1.98475 0.49273 0
M  V30 2064 H 202.692 2.5587 2.90877 0
M  V30 2065 H 203.106 4.69667 2.3348 0
M  V30 2066 H 204.58 3.93843 3.86771 0
M  V30 2067 H 205.057 2.24473 3.77503 0
M  V30 2068 H 205.663 3.39515 2.56144 0
M  V30 2069 N 203.978 -0.674533 1.42435 0
M  V30 2070 C 204.928 -1.7807 1.4239 0
M  V30 2071 C 205.912 -1.58169 0.295202 0
M  V30 2072 O 207.104 -1.68643 0.537449 0
M  V30 2073 C 204.233 -3.16532 1.32901 0
M  V30 2074 C 203.319 -3.42055 2.50717 0
M  V30 2075 N 203.71 -3.38162 3.76139 0
M  V30 2076 C 202.008 -3.72692 2.44983 0
M  V30 2077 C 202.709 -3.63177 4.54398 0
M  V30 2078 N 201.685 -3.83954 3.84812 0
M  V30 2079 H 205.487 -1.73454 2.37257 0
M  V30 2080 H 203.001 -0.875381 1.36788 0
M  V30 2081 H 204.998 -3.958 1.30951 0
M  V30 2082 H 203.658 -3.22345 0.390363 0
M  V30 2083 H 204.669 -3.18057 4.0873 0
M  V30 2084 H 201.346 -3.85749 1.59699 0
M  V30 2085 H 202.736 -3.66125 5.63384 0
M  V30 2086 N 205.456 -1.28612 -0.910864 0
M  V30 2087 C 206.872 -1.06381 -1.18976 0
M  V30 2088 C 207.072 0.191998 -2.00583 0
M  V30 2089 O 206.128 0.892869 -2.36187 0
M  V30 2090 C 207.441 -2.31295 -1.92154 0
M  V30 2091 C 208.989 -2.36503 -2.05025 0
M  V30 2092 C 209.464 -3.61191 -2.81612 0
M  V30 2093 N 210.955 -3.61847 -2.89172 0
M  V30 2094 C 211.69 -4.55004 -3.4894 0
M  V30 2095 N 211.186 -5.58482 -4.09963 0
M  V30 2096 N 212.979 -4.42594 -3.46506 0
M  V30 2097 H 205.13 -2.09221 -0.366094 0
M  V30 2098 H 207.393 -0.921003 -0.224629 0
M  V30 2099 H 207.099 -3.228 -1.39618 0
M  V30 2100 H 206.973 -2.37934 -2.9269 0
M  V30 2101 H 209.36 -1.45494 -2.5674 0
M  V30 2102 H 209.441 -2.33857 -1.03657 0
M  V30 2103 H 209.085 -4.52545 -2.30576 0
M  V30 2104 H 209.015 -3.61092 -3.83302 0
M  V30 2105 H 211.506 -2.87022 -2.45819 0
M  V30 2106 H 211.819 -6.25704 -4.53557 0
M  V30 2107 H 210.164 -5.62305 -4.08459 0
M  V30 2108 H 213.355 -3.60953 -2.98045 0
M  V30 2109 H 213.528 -5.15381 -3.92793 0
M  V30 2110 N 206.934 1.1197 -1.10907 0
M  V30 2111 C 207.881 2.17846 -0.762345 0
M  V30 2112 C 208.851 1.63995 0.263599 0
M  V30 2113 O 210.036 1.90273 0.141773 0
M  V30 2114 C 207.176 3.44487 -0.205651 0
M  V30 2115 C 206.289 4.12369 -1.28748 0
M  V30 2116 C 205.424 5.26674 -0.691919 0
M  V30 2117 C 204.463 5.86431 -1.75399 0
M  V30 2118 N 203.6 6.92142 -1.17833 0
M  V30 2119 H 208.44 2.46851 -1.6694 0
M  V30 2120 H 205.977 1.21188 -0.833776 0
M  V30 2121 H 207.935 4.16981 0.135037 0
M  V30 2122 H 206.565 3.15884 0.664613 0
M  V30 2123 H 205.617 3.38003 -1.74522 0
M  V30 2124 H 206.929 4.52844 -2.09125 0
M  V30 2125 H 206.083 6.05953 -0.300963 0
M  V30 2126 H 204.822 4.8749 0.143232 0
M  V30 2127 H 203.827 5.05835 -2.15432 0
M  V30 2128 H 205.052 6.27685 -2.59208 0
M  V30 2129 H 202.998 6.54985 -0.364725 0
M  V30 2130 H 202.915 7.31242 -1.91887 0
M  V30 2131 H 204.183 7.75237 -0.81408 0
M  V30 2132 N 208.412 0.89855 1.29475 0
M  V30 2133 C 209.661 0.519863 1.94885 0
M  V30 2134 C 209.974 -0.9383 1.71625 0
M  V30 2135 O 211.18 -1.42445 2.31131 0
M  V30 2136 C 209.636 0.878836 3.49005 0
M  V30 2137 C 209.244 2.35569 3.81066 0
M  V30 2138 C 210.988 0.570004 4.20656 0
M  V30 2139 C 208.895 2.65558 5.28425 0
M  V30 2140 H 207.825 0.190692 0.729488 0
M  V30 2141 H 210.476 1.09539 1.47219 0
M  V30 2142 H 208.858 0.232253 3.95318 0
M  V30 2143 H 210.032 3.04773 3.45616 0
M  V30 2144 H 208.347 2.63343 3.22552 0
M  V30 2145 H 210.944 0.770925 5.29113 0
M  V30 2146 H 211.287 -0.491404 4.1339 0
M  V30 2147 H 211.82 1.17438 3.8007 0
M  V30 2148 H 208.559 3.70493 5.40754 0
M  V30 2149 H 208.079 2.00977 5.65127 0
M  V30 2150 H 209.758 2.51765 5.96006 0
M  V30 2151 N 209.89 -1.43072 0.660911 0
M  V30 2152 C 211.118 -2.06067 0.185422 0
M  V30 2153 C 211.533 -1.49582 -1.15198 0
M  V30 2154 O 210.89 -0.630134 -1.71276 0
M  V30 2155 C 210.941 -3.61371 0.0966523 0
M  V30 2156 O 210.662 -4.15758 1.38119 0
M  V30 2157 C 212.163 -4.41455 -0.403996 0
M  V30 2158 H 209.383 -0.664459 0.0934604 0
M  V30 2159 H 211.927 -1.83447 0.90373 0
M  V30 2160 H 210.082 -3.8315 -0.572259 0
M  V30 2161 H 210.496 -5.09499 1.24542 0
M  V30 2162 H 211.97 -5.50437 -0.415045 0
M  V30 2163 H 212.447 -4.15036 -1.43674 0
M  V30 2164 H 213.053 -4.24663 0.232691 0
M  V30 2165 N 211.368 -0.403325 -1.52352 0
M  V30 2166 C 212.593 0.176499 -2.06648 0
M  V30 2167 C 213.018 1.38577 -1.27193 0
M  V30 2168 O 212.376 1.7879 -0.300637 0
M  V30 2169 C 212.424 0.511061 -3.5696 0
M  V30 2170 O 211.528 1.60294 -3.79973 0
M  V30 2171 H 210.869 0.0167337 -0.663789 0
M  V30 2172 H 213.399 -0.574848 -1.96359 0
M  V30 2173 H 213.409 0.771362 -4.00642 0
M  V30 2174 H 212.084 -0.37296 -4.14224 0
M  V30 2175 H 210.661 1.33526 -3.48174 0
M  V30 2176 N 212.846 1.57033 -0.133567 0
M  V30 2177 C 214.093 1.95686 0.520877 0
M  V30 2178 C 214.421 1.0177 1.6575 0
M  V30 2179 O 213.676 0.0443195 1.9565 0
M  V30 2180 C 213.975 3.40674 1.08057 0
M  V30 2181 C 213.641 4.50855 0.0637899 0
M  V30 2182 C 212.303 4.80716 -0.215757 0
M  V30 2183 C 214.655 5.17398 -0.62835 0
M  V30 2184 C 211.983 5.74433 -1.19348 0
M  V30 2185 C 214.335 6.12167 -1.5948 0
M  V30 2186 C 212.999 6.40414 -1.88218 0
M  V30 2187 H 212.269 0.716067 0.190602 0
M  V30 2188 H 214.916 1.9026 -0.217556 0
M  V30 2189 H 213.221 3.42865 1.89606 0
M  V30 2190 H 214.918 3.67902 1.59529 0
M  V30 2191 H 211.508 4.27605 0.291855 0
M  V30 2192 H 215.692 4.94472 -0.425562 0
M  V30 2193 H 210.948 5.94616 -1.42272 0
M  V30 2194 H 215.122 6.6281 -2.13671 0
M  V30 2195 H 212.749 7.12838 -2.64133 0
M  V30 2196 N 214.325 -0.140222 1.56975 0
M  V30 2197 C 215.235 -1.19223 2.02047 0
M  V30 2198 C 216.251 -1.46612 0.937062 0
M  V30 2199 O 217.427 -1.58148 1.24704 0
M  V30 2200 C 214.492 -2.50414 2.39778 0
M  V30 2201 C 213.553 -2.30612 3.621 0
M  V30 2202 C 212.786 -3.55547 3.98023 0
M  V30 2203 O 213.009 -4.62004 3.34528 0
M  V30 2204 O 211.943 -3.47808 4.91237 0
M  V30 2205 H 215.769 -0.839559 2.91865 0
M  V30 2206 H 213.354 -0.349453 1.45256 0
M  V30 2207 H 215.236 -3.27747 2.64877 0
M  V30 2208 H 213.911 -2.85198 1.53114 0
M  V30 2209 H 212.818 -1.51207 3.4218 0
M  V30 2210 H 214.151 -2.00741 4.49404 0
M  V30 2211 N 215.803 -1.52179 -0.40978 0
M  V30 2212 C 216.733 -1.78435 -1.5061 0
M  V30 2213 C 217.714 -0.635295 -1.57791 0
M  V30 2214 O 218.899 -0.880823 -1.73076 0
M  V30 2215 C 216.029 -1.93444 -2.88439 0
M  V30 2216 C 214.983 -3.09038 -2.96108 0
M  V30 2217 C 214.309 -3.09268 -4.36185 0
M  V30 2218 C 215.609 -4.48508 -2.67652 0
M  V30 2219 H 217.303 -2.70237 -1.28889 0
M  V30 2220 H 214.849 -1.30036 -0.618605 0
M  V30 2221 H 216.802 -2.10394 -3.65119 0
M  V30 2222 H 215.526 -0.983129 -3.11452 0
M  V30 2223 H 214.185 -2.91837 -2.21872 0
M  V30 2224 H 213.833 -2.11861 -4.56206 0
M  V30 2225 H 213.533 -3.86907 -4.42241 0
M  V30 2226 H 215.057 -3.28348 -5.14801 0
M  V30 2227 H 216.471 -4.65918 -3.34056 0
M  V30 2228 H 214.868 -5.28059 -2.85085 0
M  V30 2229 H 215.938 -4.56649 -1.63095 0
M  V30 2230 N 217.281 0.66697 -1.42791 0
M  V30 2231 C 218.244 1.76211 -1.46568 0
M  V30 2232 C 219.244 1.56896 -0.352196 0
M  V30 2233 O 220.434 1.63044 -0.613364 0
M  V30 2234 C 217.566 3.14935 -1.30494 0
M  V30 2235 H 218.759 1.74247 -2.44086 0
M  V30 2236 H 216.312 0.877342 -1.29354 0
M  V30 2237 H 217.047 3.2252 -0.339301 0
M  V30 2238 H 216.832 3.30359 -2.11199 0
M  V30 2239 H 218.322 3.94821 -1.36038 0
M  V30 2240 N 218.759 1.29093 0.90403 0
M  V30 2241 C 219.691 1.09658 2.01266 0
M  V30 2242 C 220.704 0.0453729 1.62737 0
M  V30 2243 O 221.893 0.289446 1.76138 0
M  V30 2244 C 218.993 0.646278 3.32681 0
M  V30 2245 C 218.166 1.77505 3.99763 0
M  V30 2246 C 217.225 1.31649 5.09465 0
M  V30 2247 O 216.251 2.02045 5.32134 0
M  V30 2248 N 217.453 0.184997 5.80205 0
M  V30 2249 H 220.218 2.05135 2.18494 0
M  V30 2250 H 217.779 1.20975 1.07594 0
M  V30 2251 H 219.771 0.322906 4.0341 0
M  V30 2252 H 218.341 -0.215916 3.11853 0
M  V30 2253 H 217.561 2.26752 3.22455 0
M  V30 2254 H 218.849 2.53198 4.41325 0
M  V30 2255 H 218.247 -0.402021 5.6427 0
M  V30 2256 H 216.804 -0.0790358 6.51752 0
M  V30 2257 N 220.237 -1.11381 1.11499 0
M  V30 2258 C 221.167 -2.19509 0.796125 0
M  V30 2259 C 222.148 -1.68458 -0.235796 0
M  V30 2260 O 223.333 -1.93947 -0.0991344 0
M  V30 2261 C 220.463 -3.46475 0.239205 0
M  V30 2262 C 219.417 -4.10744 1.20307 0
M  V30 2263 C 218.743 -5.32293 0.50683 0
M  V30 2264 C 220.043 -4.55597 2.55399 0
M  V30 2265 H 221.737 -2.46439 1.70024 0
M  V30 2266 H 219.283 -1.18446 0.818935 0
M  V30 2267 H 221.236 -4.214 0.00392006 0
M  V30 2268 H 219.96 -3.19006 -0.700206 0
M  V30 2269 H 218.619 -3.37813 1.42399 0
M  V30 2270 H 218.267 -5.01095 -0.437408 0
M  V30 2271 H 217.967 -5.76243 1.1497 0
M  V30 2272 H 219.491 -6.09956 0.280351 0
M  V30 2273 H 220.905 -5.21841 2.37391 0
M  V30 2274 H 219.302 -5.10363 3.15673 0
M  V30 2275 H 220.372 -3.69013 3.14575 0
M  V30 2276 N 221.715 -0.905404 -1.28997 0
M  V30 2277 C 222.647 -0.344748 -2.26592 0
M  V30 2278 C 223.66 0.512135 -1.54535 0
M  V30 2279 O 224.849 0.328368 -1.75454 0
M  V30 2280 C 221.949 0.526587 -3.34784 0
M  V30 2281 C 221.122 -0.305871 -4.36329 0
M  V30 2282 C 220.181 0.499209 -5.23827 0
M  V30 2283 O 219.207 -0.0853004 -5.69136 0
M  V30 2284 N 220.409 1.80408 -5.51755 0
M  V30 2285 H 223.174 -1.18359 -2.75338 0
M  V30 2286 H 220.735 -0.770481 -1.42391 0
M  V30 2287 H 222.727 1.07171 -3.90252 0
M  V30 2288 H 221.297 1.26613 -2.85811 0
M  V30 2289 H 220.517 -1.0324 -3.80441 0
M  V30 2290 H 221.805 -0.875773 -5.01206 0
M  V30 2291 H 221.203 2.3016 -5.16762 0
M  V30 2292 H 219.76 2.29621 -6.10014 0
M  V30 2293 N 223.193 1.4272 -0.668489 0
M  V30 2294 C 224.103 2.34596 0.0139753 0
M  V30 2295 C 225.119 1.5474 0.795703 0
M  V30 2296 O 226.295 1.87334 0.739466 0
M  V30 2297 C 223.36 3.33202 0.957982 0
M  V30 2298 C 222.421 4.28957 0.17149 0
M  V30 2299 C 221.654 5.22853 1.07053 0
M  V30 2300 O 221.877 5.21531 2.31001 0
M  V30 2301 O 220.811 5.9952 0.534727 0
M  V30 2302 H 224.637 2.9448 -0.742661 0
M  V30 2303 H 222.222 1.43117 -0.428705 0
M  V30 2304 H 224.104 3.93796 1.50008 0
M  V30 2305 H 222.779 2.758 1.69458 0
M  V30 2306 H 221.686 3.71796 -0.414558 0
M  V30 2307 H 223.019 4.89383 -0.52586 0
M  V30 2308 N 224.671 0.411399 1.52136 0
M  V30 2309 C 225.618 -0.412975 2.27075 0
M  V30 2310 C 226.588 -1.03912 1.29582 0
M  V30 2311 O 227.773 -1.06296 1.58448 0
M  V30 2312 C 224.913 -1.52247 3.09701 0
M  V30 2313 C 224.026 -0.917021 4.22155 0
M  V30 2314 C 223.161 -1.9994 4.92135 0
M  V30 2315 C 222.2 -1.37101 5.96548 0
M  V30 2316 N 221.337 -2.39364 6.60038 0
M  V30 2317 H 226.177 0.232499 2.97092 0
M  V30 2318 H 223.714 0.126496 1.46555 0
M  V30 2319 H 225.672 -2.17674 3.55913 0
M  V30 2320 H 224.302 -2.13794 2.41851 0
M  V30 2321 H 223.354 -0.151742 3.80097 0
M  V30 2322 H 224.666 -0.418006 4.97045 0
M  V30 2323 H 223.82 -2.73088 5.41763 0
M  V30 2324 H 222.559 -2.53208 4.16818 0
M  V30 2325 H 221.564 -0.624873 5.46237 0
M  V30 2326 H 222.789 -0.845998 6.7381 0
M  V30 2327 H 220.735 -2.91759 5.87548 0
M  V30 2328 H 220.652 -1.9428 7.3061 0
M  V30 2329 H 221.92 -3.12074 7.14304 0
M  V30 2330 N 226.149 -1.5696 0.141893 0
M  V30 2331 C 227.079 -2.19516 -0.795936 0
M  V30 2332 C 228.06 -1.14187 -1.26077 0
M  V30 2333 O 229.245 -1.42511 -1.31925 0
M  V30 2334 C 226.375 -2.81272 -2.03723 0
M  V30 2335 C 225.329 -3.92384 -1.70936 0
M  V30 2336 C 224.655 -4.41052 -3.02287 0
M  V30 2337 C 225.955 -5.13403 -0.959954 0
M  V30 2338 H 227.649 -2.98138 -0.274596 0
M  V30 2339 H 225.195 -1.43406 -0.130636 0
M  V30 2340 H 227.148 -3.237 -2.69808 0
M  V30 2341 H 225.872 -1.99973 -2.58221 0
M  V30 2342 H 224.531 -3.50566 -1.07232 0
M  V30 2343 H 224.179 -3.56582 -3.54765 0
M  V30 2344 H 223.879 -5.15993 -2.81114 0
M  V30 2345 H 225.403 -4.86146 -3.69451 0
M  V30 2346 H 226.817 -5.52706 -1.52279 0
M  V30 2347 H 225.214 -5.94073 -0.848357 0
M  V30 2348 H 226.284 -4.84875 0.0492434 0
M  V30 2349 N 227.627 0.131896 -1.57047 0
M  V30 2350 C 228.574 1.16236 -1.99393 0
M  V30 2351 C 229.544 1.41863 -0.863943 0
M  V30 2352 O 230.729 1.53946 -1.12718 0
M  V30 2353 C 227.869 2.48708 -2.39245 0
M  V30 2354 C 226.982 2.30127 -3.65603 0
M  V30 2355 C 226.117 3.55738 -3.94492 0
M  V30 2356 C 225.156 3.32259 -5.14073 0
M  V30 2357 N 224.293 4.50039 -5.38896 0
M  V30 2358 H 229.133 0.794251 -2.87221 0
M  V30 2359 H 226.67 0.380707 -1.42088 0
M  V30 2360 H 228.628 3.25969 -2.60384 0
M  V30 2361 H 227.258 2.83437 -1.54478 0
M  V30 2362 H 226.31 1.43845 -3.52154 0
M  V30 2363 H 227.622 2.08746 -4.5302 0
M  V30 2364 H 226.776 4.41423 -4.1621 0
M  V30 2365 H 225.515 3.80138 -3.05526 0
M  V30 2366 H 224.52 2.44963 -4.92212 0
M  V30 2367 H 225.745 3.09242 -6.04604 0
M  V30 2368 H 223.691 4.74584 -4.52886 0
M  V30 2369 H 223.608 4.31716 -6.2061 0
M  V30 2370 H 224.876 5.36895 -5.65123 0
M  V30 2371 N 229.106 1.52395 0.401703 0
M  V30 2372 C 230.016 1.7917 1.51444 0
M  V30 2373 C 231.032 0.677691 1.6026 0
M  V30 2374 O 232.208 0.963909 1.76835 0
M  V30 2375 C 229.273 1.94347 2.87107 0
M  V30 2376 C 228.334 3.18257 2.88116 0
M  V30 2377 C 227.567 3.32701 4.17308 0
M  V30 2378 O 227.79 2.52238 5.11598 0
M  V30 2379 O 226.724 4.25891 4.25324 0
M  V30 2380 H 230.55 2.73633 1.31752 0
M  V30 2381 H 228.135 1.3733 0.588296 0
M  V30 2382 H 230.017 2.06109 3.67555 0
M  V30 2383 H 228.692 1.03073 3.06851 0
M  V30 2384 H 227.599 3.11947 2.06494 0
M  V30 2385 H 228.932 4.09336 2.73322 0
M  V30 2386 N 230.584 -0.659388 1.43143 0
M  V30 2387 C 231.812 -1.44723 1.47861 0
M  V30 2388 C 232.227 -1.88563 0.0945886 0
M  V30 2389 O 231.584 -1.59108 -0.893915 0
M  V30 2390 C 231.635 -2.68627 2.41913 0
M  V30 2391 O 231.356 -2.26623 3.74932 0
M  V30 2392 C 232.857 -3.62045 2.55809 0
M  V30 2393 H 230.077 -0.444801 0.502387 0
M  V30 2394 H 232.621 -0.808916 1.87821 0
M  V30 2395 H 230.776 -3.28613 2.05164 0
M  V30 2396 H 231.19 -3.06745 4.2545 0
M  V30 2397 H 232.664 -4.45666 3.25708 0
M  V30 2398 H 233.141 -4.08981 1.60099 0
M  V30 2399 H 233.747 -3.07944 2.93344 0
M  V30 2400 N 232.062 -1.29571 -0.897171 0
M  V30 2401 C 232.972 -1.16808 -2.03453 0
M  V30 2402 C 233.988 -0.0907471 -1.73763 0
M  V30 2403 O 235.164 -0.303312 -1.99103 0
M  V30 2404 C 232.229 -0.848264 -3.36163 0
M  V30 2405 C 231.29 -2.0097 -3.79354 0
M  V30 2406 C 230.523 -1.70505 -5.05731 0
M  V30 2407 O 230.746 -0.62718 -5.66941 0
M  V30 2408 O 229.68 -2.5538 -5.45036 0
M  V30 2409 H 233.506 -2.12325 -2.17144 0
M  V30 2410 H 231.091 -1.09047 -1.02123 0
M  V30 2411 H 232.973 -0.684581 -4.15802 0
M  V30 2412 H 231.648 0.0771071 -3.23608 0
M  V30 2413 H 230.555 -2.22863 -3.00471 0
M  V30 2414 H 231.888 -2.91636 -3.96496 0
M  V30 2415 N 233.54 1.10788 -1.12088 0
M  V30 2416 C 234.503 2.15207 -0.788577 0
M  V30 2417 C 235.503 1.59609 0.195317 0
M  V30 2418 O 236.693 1.74174 -0.0300193 0
M  V30 2419 C 233.825 3.4047 -0.171174 0
M  V30 2420 H 235.018 2.46116 -1.71368 0
M  V30 2421 H 232.571 1.26089 -0.923652 0
M  V30 2422 H 233.306 3.15176 0.763832 0
M  V30 2423 H 233.091 3.82109 -0.879514 0
M  V30 2424 H 234.581 4.17576 0.04496 0
M  V30 2425 N 235.018 0.912232 1.28515 0
M  V30 2426 C 235.981 0.404223 2.25607 0
M  V30 2427 C 236.981 -0.468602 1.53821 0
M  V30 2428 O 238.171 -0.271873 1.72065 0
M  V30 2429 C 235.303 -0.420653 3.38295 0
M  V30 2430 H 236.496 1.26188 2.7206 0
M  V30 2431 H 234.049 0.691495 1.40171 0
M  V30 2432 H 234.784 -1.29777 2.97201 0
M  V30 2433 H 234.569 0.204935 3.91564 0
M  V30 2434 H 236.059 -0.766971 4.10496 0
M  V30 2435 N 236.496 -1.42363 0.676048 0
M  V30 2436 C 237.429 -2.28141 -0.0516916 0
M  V30 2437 C 238.407 -1.41135 -0.807439 0
M  V30 2438 O 239.591 -1.70573 -0.802305 0
M  V30 2439 C 236.718 -3.21007 -1.08039 0
M  V30 2440 C 235.764 -4.24426 -0.420076 0
M  V30 2441 S 236.597 -5.29134 0.823246 0
M  V30 2442 C 237.753 -6.25566 -0.204344 0
M  V30 2443 H 237.986 -2.89515 0.675884 0
M  V30 2444 H 235.519 -1.47211 0.465635 0
M  V30 2445 H 237.477 -3.75048 -1.66881 0
M  V30 2446 H 236.138 -2.58766 -1.78042 0
M  V30 2447 H 235.331 -4.89596 -1.19633 0
M  V30 2448 H 234.933 -3.7388 0.0947845 0
M  V30 2449 H 237.225 -6.69098 -1.06369 0
M  V30 2450 H 238.168 -7.06895 0.412915 0
M  V30 2451 H 238.576 -5.61811 -0.55038 0
M  V30 2452 N 237.974 -0.419461 -1.51915 0
M  V30 2453 C 238.884 0.407528 -2.31033 0
M  V30 2454 C 239.9 1.04413 -1.3919 0
M  V30 2455 O 241.076 1.0434 -1.72265 0
M  V30 2456 C 238.141 1.50365 -3.12396 0
M  V30 2457 C 237.202 0.889029 -4.19994 0
M  V30 2458 C 236.435 1.93291 -4.97468 0
M  V30 2459 O 236.658 3.15259 -4.75361 0
M  V30 2460 O 235.592 1.53339 -5.8204 0
M  V30 2461 H 239.418 -0.237865 -3.02767 0
M  V30 2462 H 237.003 -0.182413 -1.48282 0
M  V30 2463 H 238.885 2.13975 -3.63032 0
M  V30 2464 H 237.56 2.13345 -2.43445 0
M  V30 2465 H 236.467 0.215353 -3.7348 0
M  V30 2466 H 237.8 0.302991 -4.91267 0
M  V30 2467 N 239.452 1.56882 -0.150215 0
M  V30 2468 C 240.399 2.16922 0.788244 0
M  V30 2469 C 241.369 1.10303 1.24187 0
M  V30 2470 O 242.554 1.38359 1.31383 0
M  V30 2471 C 239.694 2.79754 2.02068 0
M  V30 2472 C 238.807 4.00775 1.61257 0
M  V30 2473 C 237.942 4.51595 2.79705 0
M  V30 2474 C 236.981 5.65074 2.35282 0
M  V30 2475 N 236.118 6.10499 3.4675 0
M  V30 2476 H 240.958 2.96779 0.269444 0
M  V30 2477 H 238.495 1.46599 0.12128 0
M  V30 2478 H 240.453 3.14329 2.74323 0
M  V30 2479 H 239.083 2.02536 2.51354 0
M  V30 2480 H 238.135 3.72158 0.787553 0
M  V30 2481 H 239.447 4.82978 1.24633 0
M  V30 2482 H 238.601 4.88242 3.60145 0
M  V30 2483 H 237.34 3.68406 3.19576 0
M  V30 2484 H 236.345 5.28 1.53283 0
M  V30 2485 H 237.57 6.50052 1.96493 0
M  V30 2486 H 235.516 5.30243 3.86236 0
M  V30 2487 H 235.433 6.87637 3.14152 0
M  V30 2488 H 236.701 6.51791 4.27537 0
M  V30 2489 N 240.93 -0.123565 1.57115 0
M  V30 2490 C 241.86 -1.15309 2.03042 0
M  V30 2491 C 242.841 -1.43454 0.914061 0
M  V30 2492 O 244.026 -1.53973 1.18347 0
M  V30 2493 C 241.156 -2.48043 2.43089 0
M  V30 2494 C 240.11 -2.3437 3.58127 0
M  V30 2495 C 239.436 -3.72026 3.84059 0
M  V30 2496 C 240.736 -1.80804 4.90007 0
M  V30 2497 H 242.43 -0.771102 2.893 0
M  V30 2498 H 239.976 -0.369479 1.39179 0
M  V30 2499 H 241.929 -3.20311 2.73823 0
M  V30 2500 H 240.653 -2.88122 1.53796 0
M  V30 2501 H 239.312 -1.64551 3.27595 0
M  V30 2502 H 238.96 -4.09582 2.91979 0
M  V30 2503 H 238.66 -3.63732 4.6149 0
M  V30 2504 H 240.184 -4.45806 4.1724 0
M  V30 2505 H 241.598 -2.42886 5.19307 0
M  V30 2506 H 239.995 -1.83343 5.71407 0
M  V30 2507 H 241.065 -0.76528 4.78823 0
M  V30 2508 N 242.408 -1.52605 -0.393616 0
M  V30 2509 C 243.657 -1.66649 -1.13627 0
M  V30 2510 C 243.97 -0.410364 -1.91247 0
M  V30 2511 O 245.176 -0.430854 -2.68059 0
M  V30 2512 C 243.632 -2.9449 -2.06891 0
M  V30 2513 C 243.24 -4.27266 -1.34714 0
M  V30 2514 C 244.984 -3.17899 -2.81319 0
M  V30 2515 C 242.891 -5.46217 -2.26717 0
M  V30 2516 H 241.821 -0.62084 -0.427871 0
M  V30 2517 H 244.472 -1.791 -0.399428 0
M  V30 2518 H 242.854 -2.75774 -2.84191 0
M  V30 2519 H 244.028 -4.56518 -0.626714 0
M  V30 2520 H 242.343 -4.10081 -0.722643 0
M  V30 2521 H 244.94 -4.03949 -3.50328 0
M  V30 2522 H 245.283 -2.32777 -3.45139 0
M  V30 2523 H 245.816 -3.37159 -2.11113 0
M  V30 2524 H 242.555 -6.33733 -1.67521 0
M  V30 2525 H 242.075 -5.21283 -2.96689 0
M  V30 2526 H 243.754 -5.7991 -2.86903 0
M  V30 2527 N 243.887 0.651787 -1.4349 0
M  V30 2528 C 244.835 1.78586 -1.49029 0
M  V30 2529 C 245.829 1.65448 -0.363767 0
M  V30 2530 O 247.035 1.71777 -0.537821 0
M  V30 2531 H 243.41 0.589236 -0.467231 0
M  V30 2532 H 245.381 1.71035 -2.44519 0
M  V30 2533 C 244.13 3.16851 -1.43181 0
M  V30 2534 H 243.453 3.27598 -2.29171 0
M  V30 2535 H 244.893 3.96156 -1.51118 0
M  V30 2536 C 243.352 3.36568 -0.149616 0
M  V30 2537 O 243.882 3.93885 0.788509 0
M  V30 2538 N 242.088 2.90539 -0.0593484 0
M  V30 2539 H 241.635 2.4408 -0.823575 0
M  V30 2540 H 241.593 3.04108 0.797853 0
M  V30 2541 N 245.365 1.30045 0.890287 0
M  V30 2542 C 246.781 1.08261 1.17268 0
M  V30 2543 C 246.981 -0.160063 2.00863 0
M  V30 2544 O 246.037 -0.855181 2.37577 0
M  V30 2545 C 247.35 2.34323 1.8845 0
M  V30 2546 C 248.898 2.39735 2.01237 0
M  V30 2547 C 249.373 3.65625 2.7583 0
M  V30 2548 N 250.864 3.66402 2.83379 0
M  V30 2549 C 251.599 4.60498 3.41657 0
M  V30 2550 N 251.095 5.64933 4.01026 0
M  V30 2551 N 252.888 4.48051 3.39421 0
M  V30 2552 H 245.039 2.09777 0.332762 0
M  V30 2553 H 247.302 0.92446 0.209948 0
M  V30 2554 H 247.008 3.2498 1.34465 0
M  V30 2555 H 246.882 2.4256 2.88867 0
M  V30 2556 H 249.269 1.4956 2.54393 0
M  V30 2557 H 249.35 2.35476 0.999232 0
M  V30 2558 H 248.994 4.56156 2.23347 0
M  V30 2559 H 248.924 3.67144 3.77509 0
M  V30 2560 H 251.415 2.90896 2.41222 0
M  V30 2561 H 251.728 6.32841 4.43545 0
M  V30 2562 H 250.073 5.68732 3.99461 0
M  V30 2563 H 253.264 3.65649 2.92264 0
M  V30 2564 H 253.437 5.21565 3.84544 0
M  V30 2565 N 246.843 -1.10192 1.12674 0
M  V30 2566 C 248.089 -1.82475 0.884915 0
M  V30 2567 C 248.422 -1.85093 -0.58773 0
M  V30 2568 O 247.697 -1.3134 -1.43457 0
M  V30 2569 C 247.98 -3.29018 1.46353 0
M  V30 2570 C 247.833 -3.34718 3.00473 0
M  V30 2571 C 249.152 -4.25473 1.12519 0
M  V30 2572 H 246.271 -0.662492 0.322915 0
M  V30 2573 H 248.913 -1.2913 1.39375 0
M  V30 2574 H 247.063 -3.74576 1.03077 0
M  V30 2575 H 248.735 -2.97622 3.52447 0
M  V30 2576 H 246.978 -2.74541 3.35872 0
M  V30 2577 H 247.649 -4.37918 3.36053 0
M  V30 2578 H 250.125 -3.88161 1.499 0
M  V30 2579 H 249.001 -5.26365 1.55663 0
M  V30 2580 H 249.262 -4.42084 0.0377407 0
M  V30 2581 N 248.321 -0.919034 -1.28029 0
M  V30 2582 C 249.569 -0.553838 -1.94363 0
M  V30 2583 C 249.89 0.906357 -1.72656 0
M  V30 2584 O 249.16 1.64143 -1.0693 0
M  V30 2585 H 247.74 -0.201834 -0.719216 0
M  V30 2586 H 250.402 -1.16954 -1.55909 0
M  V30 2587 H 249.498 -0.752758 -3.02886 0
M  V30 2588 N 249.799 1.42003 -0.683588 0
M  V30 2589 C 251.21 1.84501 -0.285736 0
M  V30 2590 C 251.561 1.57213 1.17382 0
M  V30 2591 O 250.686 1.03642 1.89966 0
M  V30 2592 C 251.281 3.34912 -0.511821 0
M  V30 2593 C 249.84 3.76025 -0.168005 0
M  V30 2594 C 248.987 2.6551 -0.799983 0
M  V30 2595 H 251.938 1.31724 -0.885119 0
M  V30 2596 H 251.959 3.79784 0.233292 0
M  V30 2597 H 251.471 3.54741 -1.57418 0
M  V30 2598 H 249.572 3.61801 0.890567 0
M  V30 2599 H 249.685 4.75141 -0.614661 0
M  V30 2600 H 248.049 2.53654 -0.230568 0
M  V30 2601 H 248.832 2.8816 -1.86597 0
M  V30 2602 N 251.277 0.427512 1.51691 0
M  V30 2603 C 252.225 -0.403359 2.29076 0
M  V30 2604 C 253.219 -1.02962 1.34518 0
M  V30 2605 O 254.425 -0.965715 1.51901 0
M  V30 2606 H 250.8 -0.148879 0.737115 0
M  V30 2607 H 252.771 0.270295 2.97173 0
M  V30 2608 C 251.52 -1.49763 3.13794 0
M  V30 2609 H 250.843 -1.02508 3.86435 0
M  V30 2610 H 252.283 -2.05244 3.71014 0
M  V30 2611 C 250.742 -2.47536 2.28533 0
M  V30 2612 O 251.272 -3.51848 1.93819 0
M  V30 2613 N 249.478 -2.18187 1.91945 0
M  V30 2614 H 249.025 -1.33389 2.20375 0
M  V30 2615 H 248.983 -2.83848 1.35195 0
M  V30 2616 N 252.755 -1.56801 0.158532 0
M  V30 2617 C 254.003 -1.96102 -0.488712 0
M  V30 2618 C 254.324 -1.04498 -1.64636 0
M  V30 2619 O 253.594 -0.108783 -1.95598 0
M  V30 2620 H 252.174 -0.724102 -0.183535 0
M  V30 2621 H 254.836 -1.93457 0.236728 0
M  V30 2622 H 253.932 -3.00097 -0.857219 0
M  V30 2623 N 254.233 0.115231 -1.57178 0
M  V30 2624 C 255.143 1.15994 -2.03918 0
M  V30 2625 C 256.159 1.45103 -0.960268 0
M  V30 2626 O 257.335 1.56144 -1.27204 0
M  V30 2627 C 254.4 2.46568 -2.43732 0
M  V30 2628 C 253.461 2.24822 -3.65723 0
M  V30 2629 C 252.694 3.4917 -4.03629 0
M  V30 2630 O 252.917 4.56623 -3.41835 0
M  V30 2631 O 251.851 3.39949 -4.96708 0
M  V30 2632 H 255.677 0.793019 -2.93164 0
M  V30 2633 H 253.262 0.3263 -1.45793 0
M  V30 2634 H 255.144 3.23492 -2.70057 0
M  V30 2635 H 253.819 2.82726 -1.57631 0
M  V30 2636 H 252.726 1.45744 -3.44542 0
M  V30 2637 H 254.059 1.93566 -4.52541 0
M  V30 2638 N 255.711 1.52812 0.385517 0
M  V30 2639 C 256.936 1.72207 1.15583 0
M  V30 2640 C 257.361 0.441034 1.82857 0
M  V30 2641 O 256.719 -0.603465 1.70962 0
M  V30 2642 C 256.767 2.87476 2.17692 0
M  V30 2643 O 255.871 2.54693 3.24354 0
M  V30 2644 H 255.212 0.572526 0.336319 0
M  V30 2645 H 257.742 1.99618 0.448744 0
M  V30 2646 H 257.752 3.13072 2.6163 0
M  V30 2647 H 256.427 3.80408 1.68115 0
M  V30 2648 H 255.004 2.3985 2.85529 0
M  V30 2649 N 257.189 -0.644168 1.43834 0
M  V30 2650 C 258.605 -0.960875 1.27434 0
M  V30 2651 C 258.805 -2.00499 0.200618 0
M  V30 2652 O 257.861 -2.49018 -0.417906 0
M  V30 2653 C 259.174 -1.43653 2.64167 0
M  V30 2654 C 260.722 -1.55271 2.71772 0
M  V30 2655 C 261.197 -2.06224 4.08944 0
M  V30 2656 N 262.688 -2.13513 4.11055 0
M  V30 2657 C 263.423 -2.54081 5.14033 0
M  V30 2658 N 262.919 -2.9388 6.27381 0
M  V30 2659 N 264.712 -2.54101 5.01387 0
M  V30 2660 H 256.863 0.0465779 2.12349 0
M  V30 2661 H 259.126 -0.0417638 0.94708 0
M  V30 2662 H 258.832 -0.743706 3.43747 0
M  V30 2663 H 258.706 -2.40993 2.90176 0
M  V30 2664 H 261.093 -2.23653 1.92519 0
M  V30 2665 H 261.174 -0.563395 2.49519 0
M  V30 2666 H 260.818 -1.38441 4.88668 0
M  V30 2667 H 260.748 -3.06003 4.28567 0
M  V30 2668 H 263.239 -1.85493 3.29242 0
M  V30 2669 H 263.552 -3.2361 7.01781 0
M  V30 2670 H 261.897 -2.91663 6.30839 0
M  V30 2671 H 265.088 -2.22391 4.11898 0
M  V30 2672 H 265.261 -2.85394 5.81768 0
M  V30 2673 N 258.668 -1.30515 -0.883378 0
M  V30 2674 C 259.631 -1.1701 -1.97082 0
M  V30 2675 C 260.631 -0.10089 -1.60483 0
M  V30 2676 O 261.821 -0.349127 -1.70666 0
M  V30 2677 C 258.953 -0.793045 -3.31547 0
M  V30 2678 H 260.146 -2.13622 -2.10489 0
M  V30 2679 H 257.699 -1.13935 -1.06998 0
M  V30 2680 H 258.434 0.172499 -3.23841 0
M  V30 2681 H 258.219 -1.56576 -3.5948 0
M  V30 2682 H 259.709 -0.722073 -4.1131 0
M  V30 2683 N 260.146 1.09593 -1.13257 0
M  V30 2684 C 261.078 2.16015 -0.766167 0
M  V30 2685 C 262.091 1.61423 0.211303 0
M  V30 2686 O 263.28 1.78498 -0.00863946 0
M  V30 2687 C 260.38 3.38706 -0.114662 0
M  V30 2688 C 259.553 4.22717 -1.12379 0
M  V30 2689 C 258.612 5.23835 -0.498301 0
M  V30 2690 O 257.638 5.573 -1.15781 0
M  V30 2691 N 258.84 5.75886 0.730417 0
M  V30 2692 H 261.605 2.48055 -1.68193 0
M  V30 2693 H 259.166 1.25292 -1.02535 0
M  V30 2694 H 261.158 4.03464 0.315991 0
M  V30 2695 H 259.728 3.04569 0.704011 0
M  V30 2696 H 258.948 3.54122 -1.73179 0
M  V30 2697 H 260.236 4.75673 -1.80589 0
M  V30 2698 H 259.634 5.50911 1.28504 0
M  V30 2699 H 258.191 6.42387 1.10376 0
M  V30 2700 N 261.624 0.925811 1.2754 0
M  V30 2701 C 262.852 0.581509 1.9856 0
M  V30 2702 C 263.267 -0.840041 1.69082 0
M  V30 2703 O 262.624 -1.55805 0.950312 0
M  V30 2704 C 262.675 0.795589 3.52637 0
M  V30 2705 O 262.396 2.16121 3.81082 0
M  V30 2706 C 263.897 0.459744 4.4091 0
M  V30 2707 H 261.117 0.220538 0.633722 0
M  V30 2708 H 263.661 1.24232 1.6244 0
M  V30 2709 H 261.816 0.18161 3.86974 0
M  V30 2710 H 262.23 2.2098 4.75676 0
M  V30 2711 H 263.704 0.660244 5.48037 0
M  V30 2712 H 264.181 -0.604625 4.35018 0
M  V30 2713 H 264.787 1.05178 4.12089 0
M  V30 2714 N 263.102 -1.41638 0.69111 0
M  V30 2715 C 264.348 -2.01598 0.220519 0
M  V30 2716 C 264.681 -1.54594 -1.17535 0
M  V30 2717 O 263.956 -0.755177 -1.79241 0
M  V30 2718 C 264.239 -3.59062 0.273243 0
M  V30 2719 C 264.092 -4.16203 1.70573 0
M  V30 2720 C 265.411 -4.38546 -0.369457 0
M  V30 2721 H 262.53 -0.732468 0.0816045 0
M  V30 2722 H 265.172 -1.68445 0.878986 0
M  V30 2723 H 263.322 -3.87435 -0.287411 0
M  V30 2724 H 264.994 -3.98722 2.31989 0
M  V30 2725 H 263.237 -3.71414 2.2413 0
M  V30 2726 H 263.908 -5.25358 1.69419 0
M  V30 2727 H 266.384 -4.1596 0.107977 0
M  V30 2728 H 265.26 -5.48069 -0.302002 0
M  V30 2729 H 265.521 -4.17662 -1.44951 0
M  V30 2730 N 264.58 -0.43555 -1.51462 0
M  V30 2731 C 265.808 0.130242 -2.0649 0
M  V30 2732 C 266.223 1.36614 -1.30315 0
M  V30 2733 O 265.58 1.78869 -0.362223 0
M  V30 2734 C 265.631 0.454253 -3.58635 0
M  V30 2735 O 265.352 -0.73259 -4.31931 0
M  V30 2736 C 266.853 1.07091 -4.3017 0
M  V30 2737 H 264.073 0.00871669 -0.670943 0
M  V30 2738 H 266.617 -0.614117 -1.95061 0
M  V30 2739 H 264.772 1.14851 -3.69984 0
M  V30 2740 H 265.186 -0.455787 -5.22516 0
M  V30 2741 H 266.66 1.24764 -5.37716 0
M  V30 2742 H 267.137 2.05144 -3.88346 0
M  V30 2743 H 267.743 0.416089 -4.2326 0
M  V30 2744 N 266.058 1.56714 -0.166846 0
M  V30 2745 C 267.283 2.01557 0.488833 0
M  V30 2746 C 267.708 1.0463 1.56314 0
M  V30 2747 O 267.066 0.0251304 1.81283 0
M  V30 2748 C 267.114 3.4503 1.04818 0
M  V30 2749 O 266.218 3.51163 2.16236 0
M  V30 2750 H 265.559 0.653516 0.117526 0
M  V30 2751 H 268.089 2.02818 -0.269421 0
M  V30 2752 H 268.099 3.84243 1.37191 0
M  V30 2753 H 266.774 4.15077 0.261572 0
M  V30 2754 H 265.351 3.23807 1.84942 0
M  V30 2755 N 267.536 -0.106894 1.57237 0
M  V30 2756 C 268.813 -0.843526 1.76477 0
M  V30 2757 C 269.193 -1.97499 0.745464 0
M  V30 2758 O 268.541 -2.27357 -0.228306 0
M  V30 2759 C 268.751 -1.34903 3.21873 0
M  V30 2760 C 270.099 -1.79654 3.8472 0
M  V30 2761 O 271.123 -1.44554 3.2555 0
M  V30 2762 O 269.982 -2.44515 4.88748 0
M  V30 2763 H 267.076 -0.401468 0.723016 0
M  V30 2764 H 269.622 -0.0896927 1.69463 0
M  V30 2765 H 268.394 -0.53781 3.87586 0
M  V30 2766 H 268.017 -2.16522 3.33473 0
M  V30 2767 N 269.014 -1.53014 -0.377408 0
M  V30 2768 C 269.946 -1.74884 -1.48149 0
M  V30 2769 C 270.959 -0.629433 -1.5014 0
M  V30 2770 O 272.148 -0.905416 -1.53833 0
M  V30 2771 C 269.248 -1.80299 -2.86959 0
M  V30 2772 C 268.421 -3.09776 -3.08801 0
M  V30 2773 C 267.48 -3.06586 -4.27658 0
M  V30 2774 O 266.506 -3.80419 -4.23403 0
M  V30 2775 N 267.708 -2.26578 -5.34455 0
M  V30 2776 H 270.473 -2.70147 -1.29771 0
M  V30 2777 H 268.034 -1.51646 -0.56703 0
M  V30 2778 H 270.026 -1.75657 -3.64591 0
M  V30 2779 H 268.596 -0.92372 -2.98641 0
M  V30 2780 H 267.816 -3.27815 -2.18931 0
M  V30 2781 H 269.104 -3.95366 -3.20255 0
M  V30 2782 H 268.502 -1.66081 -5.40771 0
M  V30 2783 H 267.059 -2.27766 -6.10709 0
M  V30 2784 N 270.492 0.636531 -1.44174 0
M  V30 2785 C 271.402 1.77754 -1.53103 0
M  V30 2786 C 272.418 1.68928 -0.417034 0
M  V30 2787 O 273.594 1.89801 -0.6736 0
M  V30 2788 C 270.659 3.14115 -1.46741 0
M  V30 2789 C 269.72 3.34612 -2.68948 0
M  V30 2790 C 268.953 4.64467 -2.6288 0
M  V30 2791 O 269.176 5.44919 -1.68581 0
M  V30 2792 O 268.11 4.87049 -3.53648 0
M  V30 2793 H 271.936 1.73174 -2.49489 0
M  V30 2794 H 269.521 0.79709 -1.2636 0
M  V30 2795 H 271.403 3.95412 -1.45696 0
M  V30 2796 H 270.078 3.19249 -0.534975 0
M  V30 2797 H 268.985 2.53014 -2.75562 0
M  V30 2798 H 270.318 3.34336 -3.61221 0
M  V30 2799 N 271.97 1.30982 0.876444 0
M  V30 2800 C 272.917 1.18085 1.98304 0
M  V30 2801 C 273.887 0.0682263 1.6596 0
M  V30 2802 O 275.072 0.239937 1.89285 0
M  V30 2803 C 272.212 0.887475 3.33493 0
M  V30 2804 C 271.325 2.08281 3.78475 0
M  V30 2805 C 270.46 1.72678 5.0235 0
M  V30 2806 C 269.499 2.88657 5.39762 0
M  V30 2807 N 268.636 2.53292 6.54819 0
M  V30 2808 H 273.476 2.1275 2.08666 0
M  V30 2809 H 271.013 1.05839 1.02159 0
M  V30 2810 H 272.971 0.697961 4.1132 0
M  V30 2811 H 271.601 -0.022315 3.22792 0
M  V30 2812 H 270.653 2.3833 2.96484 0
M  V30 2813 H 271.965 2.95108 4.02135 0
M  V30 2814 H 271.119 1.50151 5.87826 0
M  V30 2815 H 269.858 0.830327 4.8058 0
M  V30 2816 H 268.863 3.1184 4.52809 0
M  V30 2817 H 270.088 3.79002 5.63502 0
M  V30 2818 H 268.034 1.66163 6.34607 0
M  V30 2819 H 267.951 3.3365 6.7839 0
M  V30 2820 H 269.219 2.34143 7.43503 0
M  V30 2821 N 273.449 -1.08991 1.13837 0
M  V30 2822 C 274.865 -1.33312 0.877506 0
M  V30 2823 C 275.065 -1.95587 -0.48456 0
M  V30 2824 O 274.121 -2.20509 -1.23013 0
M  V30 2825 C 275.434 -2.24045 2.0056 0
M  V30 2826 C 276.982 -2.37542 2.03821 0
M  V30 2827 C 277.457 -3.31614 3.15905 0
M  V30 2828 N 278.948 -3.39189 3.15445 0
M  V30 2829 C 279.683 -4.11992 3.98811 0
M  V30 2830 N 279.179 -4.87553 4.92203 0
M  V30 2831 N 280.972 -4.07762 3.86894 0
M  V30 2832 H 273.123 -0.669456 2.01574 0
M  V30 2833 H 275.386 -0.357482 0.878015 0
M  V30 2834 H 275.092 -1.85521 2.98789 0
M  V30 2835 H 274.966 -3.24466 1.92359 0
M  V30 2836 H 277.353 -2.75327 1.06202 0
M  V30 2837 H 277.434 -1.36884 2.16093 0
M  V30 2838 H 277.078 -2.94551 4.13766 0
M  V30 2839 H 277.008 -4.32186 3.0087 0
M  V30 2840 H 279.499 -2.85314 2.47799 0
M  V30 2841 H 279.812 -5.40549 5.52292 0
M  V30 2842 H 278.157 -4.86627 4.96205 0
M  V30 2843 H 281.348 -3.47833 3.13257 0
M  V30 2844 H 281.521 -4.64238 4.52092 0
M  V30 2845 N 274.927 -0.932562 -1.27047 0
M  V30 2846 C 275.857 -0.452902 -2.29066 0
M  V30 2847 C 276.838 0.489338 -1.62909 0
M  V30 2848 O 278.023 0.393046 -1.90181 0
M  V30 2849 C 275.153 0.290698 -3.46081 0
M  V30 2850 C 274.107 -0.564168 -4.24265 0
M  V30 2851 C 273.433 0.308886 -5.33807 0
M  V30 2852 C 274.733 -1.83112 -4.89149 0
M  V30 2853 H 276.427 -1.30552 -2.69437 0
M  V30 2854 H 273.973 -0.629201 -1.29526 0
M  V30 2855 H 275.926 0.637233 -4.16554 0
M  V30 2856 H 274.65 1.17738 -3.0464 0
M  V30 2857 H 273.309 -0.893477 -3.55545 0
M  V30 2858 H 272.957 1.19467 -4.88607 0
M  V30 2859 H 272.657 -0.259633 -5.87026 0
M  V30 2860 H 274.181 0.650884 -6.07121 0
M  V30 2861 H 275.595 -1.55236 -5.51883 0
M  V30 2862 H 273.992 -2.34353 -5.52448 0
M  V30 2863 H 275.062 -2.54772 -4.12576 0
M  V30 2864 N 276.405 1.4127 -0.698611 0
M  V30 2865 C 277.335 2.33447 -0.049629 0
M  V30 2866 C 278.316 1.51982 0.763898 0
M  V30 2867 O 279.501 1.80509 0.716257 0
M  V30 2868 C 276.631 3.35828 0.885267 0
M  V30 2869 C 275.585 4.27627 0.178613 0
M  V30 2870 C 274.911 5.20406 1.22807 0
M  V30 2871 C 276.211 5.13459 -0.956933 0
M  V30 2872 H 277.905 2.87966 -0.81951 0
M  V30 2873 H 275.451 1.38461 -0.395538 0
M  V30 2874 H 277.404 3.9924 1.34854 0
M  V30 2875 H 276.128 2.79666 1.68685 0
M  V30 2876 H 274.787 3.65643 -0.26466 0
M  V30 2877 H 274.435 4.60558 2.02226 0
M  V30 2878 H 274.135 5.82661 0.760239 0
M  V30 2879 H 275.659 5.86695 1.69179 0
M  V30 2880 H 277.073 5.70421 -0.573805 0
M  V30 2881 H 275.47 5.8467 -1.35205 0
M  V30 2882 H 276.54 4.50443 -1.79524 0
M  V30 2883 N 277.883 0.443576 1.51229 0
M  V30 2884 C 278.833 -0.382787 2.24764 0
M  V30 2885 C 279.817 -0.984836 1.27239 0
M  V30 2886 O 281.009 -0.901943 1.52296 0
M  V30 2887 C 278.138 -1.47989 3.09765 0
M  V30 2888 C 277.224 -0.886931 4.14722 0
M  V30 2889 N 277.615 -0.0237103 5.05794 0
M  V30 2890 C 275.913 -1.15385 4.30816 0
M  V30 2891 C 276.614 0.309971 5.80874 0
M  V30 2892 N 275.59 -0.307989 5.42727 0
M  V30 2893 H 279.392 0.282624 2.92538 0
M  V30 2894 H 276.906 0.256027 1.60369 0
M  V30 2895 H 278.903 -2.08482 3.61027 0
M  V30 2896 H 277.563 -2.14758 2.43535 0
M  V30 2897 H 278.574 0.34318 5.16762 0
M  V30 2898 H 275.251 -1.81857 3.75812 0
M  V30 2899 H 276.641 1.01279 6.64223 0
M  V30 2900 N 279.361 -1.56624 0.175154 0
M  V30 2901 C 280.293 -2.15333 -0.785128 0
M  V30 2902 C 281.306 -1.1099 -1.19101 0
M  V30 2903 O 282.495 -1.38162 -1.13019 0
M  V30 2904 C 279.595 -2.68427 -2.06882 0
M  V30 2905 C 278.768 -3.97466 -1.8259 0
M  V30 2906 C 277.827 -4.35585 -2.95215 0
M  V30 2907 O 276.853 -5.03389 -2.65684 0
M  V30 2908 N 278.055 -3.97457 -4.23094 0
M  V30 2909 H 280.82 -2.98359 -0.283187 0
M  V30 2910 H 278.381 -1.61898 -0.00749817 0
M  V30 2911 H 280.373 -2.90924 -2.81328 0
M  V30 2912 H 278.943 -1.89968 -2.48256 0
M  V30 2913 H 278.163 -3.83307 -0.920287 0
M  V30 2914 H 279.451 -4.81736 -1.63733 0
M  V30 2915 H 278.849 -3.42878 -4.49945 0
M  V30 2916 H 277.406 -4.24947 -4.9423 0
M  V30 2917 N 280.839 0.0985539 -1.57292 0
M  V30 2918 C 281.769 1.12064 -2.04851 0
M  V30 2919 C 282.75 1.41981 -0.936767 0
M  V30 2920 O 283.935 1.52071 -1.20781 0
M  V30 2921 C 281.065 2.44144 -2.47004 0
M  V30 2922 C 280.019 2.28643 -3.6181 0
M  V30 2923 C 279.345 3.65869 -3.89929 0
M  V30 2924 C 280.645 1.72986 -4.92822 0
M  V30 2925 H 282.339 0.724979 -2.9049 0
M  V30 2926 H 279.885 0.34729 -1.39749 0
M  V30 2927 H 281.838 3.15914 -2.78884 0
M  V30 2928 H 280.562 2.85639 -1.5836 0
M  V30 2929 H 279.221 1.59318 -3.30172 0
M  V30 2930 H 278.869 4.04885 -2.98458 0
M  V30 2931 H 278.569 3.56344 -4.67218 0
M  V30 2932 H 280.093 4.39112 -4.2428 0
M  V30 2933 H 281.507 2.34593 -5.23105 0
M  V30 2934 H 279.904 1.74229 -5.74251 0
M  V30 2935 H 280.974 0.689007 -4.7998 0
M  V30 2936 N 282.317 1.53212 0.369288 0
M  V30 2937 C 283.733 1.42902 0.710712 0
M  V30 2938 C 283.933 0.565135 1.93413 0
M  V30 2939 O 282.989 0.0461484 2.52458 0
M  V30 2940 C 284.302 2.86042 0.927382 0
M  V30 2941 C 285.85 2.9565 1.02762 0
M  V30 2942 C 286.325 4.39843 1.27679 0
M  V30 2943 N 287.816 4.43256 1.34457 0
M  V30 2944 C 288.551 5.51929 1.55439 0
M  V30 2945 N 288.047 6.70655 1.73762 0
M  V30 2946 N 289.84 5.39502 1.57779 0
M  V30 2947 H 281.991 2.07888 -0.435457 0
M  V30 2948 H 284.254 0.938661 -0.132739 0
M  V30 2949 H 283.96 3.51557 0.100287 0
M  V30 2950 H 283.834 3.29472 1.83653 0
M  V30 2951 H 286.221 2.30291 1.84527 0
M  V30 2952 H 286.302 2.5562 0.0959504 0
M  V30 2953 H 285.946 5.05774 0.464175 0
M  V30 2954 H 285.876 4.77443 2.22162 0
M  V30 2955 H 288.367 3.5769 1.21926 0
M  V30 2956 H 288.68 7.49248 1.89335 0
M  V30 2957 H 287.025 6.73648 1.70948 0
M  V30 2958 H 290.216 4.45713 1.43029 0
M  V30 2959 H 290.389 6.2426 1.7379 0
M  V30 2960 N 283.795 -0.628877 1.44509 0
M  V30 2961 C 284.705 -1.7694 1.54044 0
M  V30 2962 C 285.721 -1.68705 0.425987 0
M  V30 2963 O 286.897 -1.89442 0.683656 0
M  V30 2964 C 283.962 -3.13332 1.48405 0
M  V30 2965 C 283.023 -3.33181 2.70719 0
M  V30 2966 C 282.256 -4.63067 2.6534 0
M  V30 2967 O 282.479 -5.44017 1.71469 0
M  V30 2968 O 281.413 -4.85167 3.56226 0
M  V30 2969 H 285.239 -1.71848 2.50403 0
M  V30 2970 H 282.824 -0.790378 1.26781 0
M  V30 2971 H 284.706 -3.94634 1.47791 0
M  V30 2972 H 283.381 -3.1896 0.551898 0
M  V30 2973 H 282.288 -2.51549 2.769 0
M  V30 2974 H 283.621 -3.32416 3.62988 0
M  V30 2975 N 285.273 -1.31445 -0.869486 0
M  V30 2976 C 286.522 -1.20517 -1.61736 0
M  V30 2977 C 286.835 0.235341 -1.94179 0
M  V30 2978 O 288.041 0.466312 -2.67465 0
M  V30 2979 C 286.497 -2.10982 -2.91573 0
M  V30 2980 C 286.105 -3.60032 -2.66611 0
M  V30 2981 C 287.849 -2.08856 -3.69567 0
M  V30 2982 C 285.756 -4.42503 -3.92358 0
M  V30 2983 H 284.686 -0.447493 -0.606849 0
M  V30 2984 H 287.337 -1.56303 -0.96133 0
M  V30 2985 H 285.719 -1.68095 -3.58553 0
M  V30 2986 H 286.893 -4.11167 -2.08035 0
M  V30 2987 H 285.208 -3.64139 -2.0197 0
M  V30 2988 H 287.805 -2.67716 -4.62852 0
M  V30 2989 H 288.148 -1.07582 -4.02159 0
M  V30 2990 H 288.681 -2.49945 -3.09471 0
M  V30 2991 H 285.42 -5.44533 -3.64916 0
M  V30 2992 H 284.94 -3.96125 -4.50383 0
M  V30 2993 H 286.619 -4.54741 -4.60238 0
M  V30 2994 N 286.751 1.08385 -1.14413 0
M  V30 2995 C 287.979 1.84517 -0.936001 0
M  V30 2996 C 288.394 1.81626 0.515503 0
M  V30 2997 O 287.751 1.22008 1.35721 0
M  V30 2998 C 287.802 3.32049 -1.42918 0
M  V30 2999 O 287.523 3.34951 -2.82381 0
M  V30 3000 C 289.024 4.24986 -1.26103 0
M  V30 3001 H 286.244 0.582491 -0.333084 0
M  V30 3002 H 288.788 1.36885 -1.5193 0
M  V30 3003 H 286.943 3.7707 -0.888641 0
M  V30 3004 H 287.357 4.27048 -3.04517 0
M  V30 3005 H 288.831 5.26615 -1.6547 0
M  V30 3006 H 289.308 4.38726 -0.20392 0
M  V30 3007 H 289.914 3.85791 -1.79012 0
M  V30 3008 N 288.23 0.939286 1.26551 0
M  V30 3009 C 289.646 0.641304 1.46149 0
M  V30 3010 C 289.846 -0.805964 1.84679 0
M  V30 3011 O 288.902 -1.58278 1.96734 0
M  V30 3012 C 290.215 1.6011 2.54529 0
M  V30 3013 C 291.763 1.6106 2.68382 0
M  V30 3014 C 292.238 2.55765 3.79932 0
M  V30 3015 N 293.729 2.5404 3.87322 0
M  V30 3016 C 294.464 3.24004 4.73085 0
M  V30 3017 N 293.96 4.03388 5.63249 0
M  V30 3018 N 295.753 3.12965 4.66914 0
M  V30 3019 H 287.904 1.87478 0.998285 0
M  V30 3020 H 290.167 0.805559 0.499779 0
M  V30 3021 H 289.873 2.63412 2.33039 0
M  V30 3022 H 289.747 1.35171 3.52149 0
M  V30 3023 H 292.134 0.584835 2.89247 0
M  V30 3024 H 292.215 1.90053 1.71212 0
M  V30 3025 H 291.859 3.58458 3.5982 0
M  V30 3026 H 291.789 2.24063 4.76554 0
M  V30 3027 H 294.28 1.96396 3.22858 0
M  V30 3028 H 294.593 4.5373 6.25579 0
M  V30 3029 H 292.938 4.07489 5.63008 0
M  V30 3030 H 296.129 2.50432 3.95476 0
M  V30 3031 H 296.302 3.67759 5.33533 0
M  V30 3032 N 289.708 -1.40897 0.706093 0
M  V30 3033 C 290.954 -2.01352 0.241889 0
M  V30 3034 C 291.287 -1.55832 -1.15888 0
M  V30 3035 O 290.562 -0.774145 -1.7843 0
M  V30 3036 C 290.845 -3.58752 0.311311 0
M  V30 3037 C 290.698 -4.1437 1.74978 0
M  V30 3038 C 292.017 -4.38914 -0.322922 0
M  V30 3039 H 289.136 -0.731562 0.0893687 0
M  V30 3040 H 291.778 -1.67504 0.896802 0
M  V30 3041 H 289.928 -3.87718 -0.246302 0
M  V30 3042 H 291.6 -3.96239 2.36205 0
M  V30 3043 H 289.843 -3.69016 2.28057 0
M  V30 3044 H 290.514 -5.23532 1.74981 0
M  V30 3045 H 292.99 -4.15822 0.152089 0
M  V30 3046 H 291.866 -5.48358 -0.243855 0
M  V30 3047 H 292.127 -4.19176 -1.40513 0
M  V30 3048 N 291.186 -0.45159 -1.50991 0
M  V30 3049 C 292.119 0.398179 -2.24699 0
M  V30 3050 C 293.097 1.01276 -1.27208 0
M  V30 3051 O 294.281 1.05247 -1.56382 0
M  V30 3052 C 291.408 1.55618 -3.00833 0
M  V30 3053 C 290.454 1.0609 -4.13095 0
M  V30 3054 S 291.287 -0.00865136 -5.35499 0
M  V30 3055 C 292.443 1.15369 -6.15175 0
M  V30 3056 H 292.676 -0.227555 -2.96428 0
M  V30 3057 H 290.209 -0.236251 -1.52582 0
M  V30 3058 H 292.167 2.21997 -3.45293 0
M  V30 3059 H 290.828 2.15337 -2.28667 0
M  V30 3060 H 290.021 1.92726 -4.65696 0
M  V30 3061 H 289.623 0.47513 -3.7097 0
M  V30 3062 H 291.915 2.06925 -6.45126 0
M  V30 3063 H 292.858 0.667344 -7.04948 0
M  V30 3064 H 293.266 1.3987 -5.46897 0
M  V30 3065 N 292.664 1.56529 -0.183458 0
M  V30 3066 C 293.611 2.18546 0.742055 0
M  V30 3067 C 294.581 1.12912 1.2182 0
M  V30 3068 O 295.766 1.41115 1.28418 0
M  V30 3069 C 292.906 2.83977 1.96089 0
M  V30 3070 C 292.019 4.04105 1.52719 0
M  V30 3071 C 291.154 4.57427 2.70063 0
M  V30 3072 C 290.193 5.69938 2.23243 0
M  V30 3073 N 289.33 6.17717 3.33722 0
M  V30 3074 H 294.17 2.97284 0.206432 0
M  V30 3075 H 291.707 1.46823 0.0901571 0
M  V30 3076 H 293.665 3.20077 2.67594 0
M  V30 3077 H 292.295 2.07822 2.47002 0
M  V30 3078 H 291.347 3.73745 0.708436 0
M  V30 3079 H 292.659 4.85513 1.1436 0
M  V30 3080 H 291.813 4.95772 3.49708 0
M  V30 3081 H 290.552 3.75101 3.11689 0
M  V30 3082 H 289.557 5.31133 1.42048 0
M  V30 3083 H 290.782 6.54073 1.82661 0
M  V30 3084 H 288.728 5.38317 3.74902 0
M  V30 3085 H 288.645 6.94146 2.99495 0
M  V30 3086 H 289.913 6.60713 4.13616 0
M  V30 3087 N 294.142 -0.090211 1.57342 0
M  V30 3088 C 295.052 -1.12735 2.05738 0
M  V30 3089 C 296.068 -1.43557 0.983231 0
M  V30 3090 O 297.244 -1.54101 1.29672 0
M  V30 3091 C 294.309 -2.42659 2.47624 0
M  V30 3092 C 293.37 -2.18975 3.69254 0
M  V30 3093 C 292.603 -3.42704 4.09133 0
M  V30 3094 O 292.826 -4.51127 3.49057 0
M  V30 3095 O 291.76 -3.32003 5.02053 0
M  V30 3096 H 295.586 -0.746279 2.94388 0
M  V30 3097 H 293.171 -0.303064 1.46294 0
M  V30 3098 H 295.053 -3.19155 2.7517 0
M  V30 3099 H 293.728 -2.80182 1.62109 0
M  V30 3100 H 292.635 -1.40244 3.46818 0
M  V30 3101 H 293.968 -1.86342 4.55563 0
M  V30 3102 N 295.62 -1.53406 -0.361157 0
M  V30 3103 C 296.868 -1.69467 -1.10115 0
M  V30 3104 C 297.189 -0.451352 -1.89705 0
M  V30 3105 O 296.459 0.534636 -1.88463 0
M  V30 3106 H 295.039 -0.624749 -0.409508 0
M  V30 3107 H 297.701 -1.90609 -0.406699 0
M  V30 3108 H 296.797 -2.55774 -1.78847 0
M  V30 3109 N 297.098 0.621204 -1.44841 0
M  V30 3110 C 298.045 1.73267 -1.5247 0
M  V30 3111 C 299.015 1.6189 -0.371611 0
M  V30 3112 O 300.2 1.81668 -0.58321 0
M  V30 3113 C 297.34 3.11545 -1.48438 0
M  V30 3114 C 296.453 3.33827 -2.74196 0
M  V30 3115 C 295.588 4.62133 -2.61929 0
M  V30 3116 C 294.627 4.77627 -3.82804 0
M  V30 3117 N 293.764 5.97219 -3.69153 0
M  V30 3118 H 298.604 1.66082 -2.47428 0
M  V30 3119 H 296.141 0.810026 -1.22788 0
M  V30 3120 H 298.099 3.91528 -1.4409 0
M  V30 3121 H 296.729 3.1772 -0.570402 0
M  V30 3122 H 295.781 2.47715 -2.88689 0
M  V30 3123 H 297.093 3.41153 -3.6389 0
M  V30 3124 H 296.247 5.50291 -2.5547 0
M  V30 3125 H 294.986 4.57182 -1.69811 0
M  V30 3126 H 293.991 3.87896 -3.89637 0
M  V30 3127 H 295.216 4.84385 -4.75971 0
M  V30 3128 H 293.162 5.93339 -2.79794 0
M  V30 3129 H 293.079 6.05644 -4.52472 0
M  V30 3130 H 294.347 6.87912 -3.66603 0
M  V30 3131 N 298.576 1.31904 0.862503 0
M  V30 3132 C 299.823 1.22017 1.61611 0
M  V30 3133 C 300.151 -0.21991 1.93253 0
M  V30 3134 O 299.406 -1.17076 1.56817 0
M  V30 3135 C 299.705 2.01713 2.95037 0
M  V30 3136 C 299.371 3.51145 2.82857 0
M  V30 3137 C 298.033 3.91889 2.79243 0
M  V30 3138 C 300.385 4.46204 2.69353 0
M  V30 3139 C 297.713 5.25947 2.59993 0
M  V30 3140 C 300.065 5.80397 2.5164 0
M  V30 3141 C 298.729 6.20352 2.46413 0
M  V30 3142 H 297.999 0.44649 0.591378 0
M  V30 3143 H 300.646 1.63248 1.00111 0
M  V30 3144 H 298.951 1.53185 3.60613 0
M  V30 3145 H 300.648 1.91437 3.52353 0
M  V30 3146 H 297.238 3.1878 2.86491 0
M  V30 3147 H 301.422 4.15652 2.71196 0
M  V30 3148 H 296.678 5.5597 2.54376 0
M  V30 3149 H 300.852 6.53676 2.40169 0
M  V30 3150 H 298.479 7.24172 2.31256 0
M  V30 3151 N 300.054 -1.07777 1.14986 0
M  V30 3152 C 301.303 -1.79669 0.916617 0
M  V30 3153 C 301.616 -1.87474 -0.557917 0
M  V30 3154 O 302.822 -2.55845 -0.908617 0
M  V30 3155 C 301.278 -3.22848 1.59051 0
M  V30 3156 C 300.886 -3.23257 3.10176 0
M  V30 3157 C 302.63 -3.99379 1.43864 0
M  V30 3158 C 300.537 -4.61063 3.70372 0
M  V30 3159 H 299.467 -0.673349 0.33929 0
M  V30 3160 H 302.118 -1.21003 1.37951 0
M  V30 3161 H 300.5 -3.8168 1.0553 0
M  V30 3162 H 301.674 -2.74095 3.70417 0
M  V30 3163 H 299.989 -2.60222 3.25074 0
M  V30 3164 H 302.586 -5.0122 1.86232 0
M  V30 3165 H 302.929 -4.14511 0.385564 0
M  V30 3166 H 303.462 -3.47032 1.94457 0
M  V30 3167 H 300.201 -4.51135 4.7556 0
M  V30 3168 H 299.721 -5.1048 3.14913 0
M  V30 3169 H 301.4 -5.30034 3.71043 0
M  V30 3170 N 301.532 -0.945985 -1.26051 0
M  V30 3171 C 302.809 -0.513816 -1.88731 0
M  V30 3172 C 303.189 1.00872 -1.8544 0
M  V30 3173 O 302.537 1.8708 -1.312 0
M  V30 3174 C 302.747 -1.08062 -3.31849 0
M  V30 3175 C 304.095 -1.1522 -4.08668 0
M  V30 3176 O 305.119 -1.03155 -3.40936 0
M  V30 3177 O 303.978 -1.34044 -5.29806 0
M  V30 3178 H 301.072 -0.168193 -0.809716 0
M  V30 3179 H 303.618 -1.03886 -1.34186 0
M  V30 3180 H 302.39 -2.1241 -3.2863 0
M  V30 3181 H 302.013 -0.538307 -3.93939 0
M  V30 3182 N 303.011 1.40521 -0.713556 0
M  V30 3183 C 304.427 1.54839 -0.386907 0
M  V30 3184 C 304.627 1.68532 1.1045 0
M  V30 3185 O 303.683 1.67377 1.89053 0
M  V30 3186 C 304.996 2.77792 -1.15118 0
M  V30 3187 C 306.544 2.91607 -1.13729 0
M  V30 3188 C 307.019 4.1747 -1.88368 0
M  V30 3189 N 308.51 4.24466 -1.85427 0
M  V30 3190 C 309.245 5.20755 -2.40004 0
M  V30 3191 N 308.741 6.22965 -3.03129 0
M  V30 3192 N 310.534 5.1282 -2.30158 0
M  V30 3193 H 302.685 1.29879 -1.68063 0
M  V30 3194 H 304.948 0.627896 -0.710247 0
M  V30 3195 H 304.654 2.73944 -2.20561 0
M  V30 3196 H 304.528 3.6984 -0.741477 0
M  V30 3197 H 306.915 2.94959 -0.0910608 0
M  V30 3198 H 306.996 2.00682 -1.5862 0
M  V30 3199 H 306.64 4.1488 -2.9298 0
M  V30 3200 H 306.57 5.074 -1.40898 0
M  V30 3201 H 309.061 3.51241 -1.3942 0
M  V30 3202 H 309.374 6.92859 -3.42295 0
M  V30 3203 H 307.719 6.23415 -3.07212 0
M  V30 3204 H 310.91 4.31899 -1.80501 0
M  V30 3205 H 311.083 5.87689 -2.72993 0
M  V30 3206 N 304.489 0.459591 1.5075 0
M  V30 3207 C 305.736 -0.0993495 2.02256 0
M  V30 3208 C 306.064 -1.40751 1.34237 0
M  V30 3209 O 305.319 -1.90379 0.453228 0
M  V30 3210 C 305.618 -0.342866 3.55752 0
M  V30 3211 C 305.284 0.88218 4.42186 0
M  V30 3212 C 303.946 1.21808 4.65528 0
M  V30 3213 C 306.298 1.69837 4.92752 0
M  V30 3214 C 303.626 2.37045 5.36681 0
M  V30 3215 C 305.978 2.84192 5.65171 0
M  V30 3216 C 304.642 3.1821 5.8677 0
M  V30 3217 H 303.912 -0.0363545 0.740108 0
M  V30 3218 H 306.559 0.611329 1.8148 0
M  V30 3219 H 304.864 -1.13567 3.7498 0
M  V30 3220 H 306.561 -0.789121 3.93159 0
M  V30 3221 H 303.151 0.610467 4.2423 0
M  V30 3222 H 307.335 1.45205 4.74583 0
M  V30 3223 H 302.591 2.63689 5.51614 0
M  V30 3224 H 306.765 3.4779 6.03337 0
M  V30 3225 H 304.392 4.07613 6.41682 0
M  V30 3226 N 305.967 -1.56429 0.191757 0
M  V30 3227 C 307.192 -2.02309 -0.456706 0
M  V30 3228 C 307.617 -1.07103 -1.5463 0
M  V30 3229 O 306.975 -0.0539677 -1.8122 0
M  V30 3230 C 307.023 -3.46654 -0.993159 0
M  V30 3231 O 306.127 -3.54559 -2.10622 0
M  V30 3232 H 305.468 -0.655303 -0.107114 0
M  V30 3233 H 307.998 -2.02364 0.301653 0
M  V30 3234 H 308.008 -3.86377 -1.31061 0
M  V30 3235 H 306.683 -4.1544 -0.195504 0
M  V30 3236 H 305.26 -3.26708 -1.79767 0
M  V30 3237 N 307.445 0.0818655 -1.57387 0
M  V30 3238 C 308.856 0.634871 -1.75574 0
M  V30 3239 C 309.207 1.78435 -0.815809 0
M  V30 3240 O 308.332 2.164 0.0025366 0
M  V30 3241 C 308.927 1.15845 -3.18379 0
M  V30 3242 C 307.486 1.65741 -3.37945 0
M  V30 3243 C 306.633 0.572549 -2.71325 0
M  V30 3244 H 309.584 -0.144268 -1.58043 0
M  V30 3245 H 309.605 2.02751 -3.21982 0
M  V30 3246 H 309.117 0.321631 -3.86765 0
M  V30 3247 H 307.218 2.51781 -2.74658 0
M  V30 3248 H 307.331 1.74129 -4.46336 0
M  V30 3249 H 305.695 1.01518 -2.33594 0
M  V30 3250 H 306.478 -0.253918 -3.4236 0
M  V30 3251 N 308.923 1.53595 0.353017 0
M  V30 3252 C 309.833 1.83897 1.45667 0
M  V30 3253 C 310.849 0.728334 1.58023 0
M  V30 3254 O 312.025 1.01968 1.73679 0
M  V30 3255 C 309.09 2.03383 2.80778 0
M  V30 3256 C 308.151 3.27262 2.77845 0
M  V30 3257 C 307.384 3.45809 4.06512 0
M  V30 3258 O 307.607 2.68387 5.03314 0
M  V30 3259 O 306.541 4.39207 4.11559 0
M  V30 3260 H 310.367 2.77686 1.2298 0
M  V30 3261 H 307.952 1.39132 0.544308 0
M  V30 3262 H 309.834 2.17698 3.60812 0
M  V30 3263 H 308.509 1.12783 3.03417 0
M  V30 3264 H 307.416 3.18359 1.96465 0
M  V30 3265 H 308.749 4.17824 2.60161 0
M  V30 3266 N 310.401 -0.613514 1.45168 0
M  V30 3267 C 311.348 -1.72456 1.53387 0
M  V30 3268 C 312.318 -1.6169 0.380191 0
M  V30 3269 O 313.503 -1.81356 0.592836 0
M  V30 3270 C 310.643 -3.10753 1.50088 0
M  V30 3271 C 309.756 -3.32368 2.75963 0
M  V30 3272 C 308.891 -4.60737 2.64376 0
M  V30 3273 C 307.93 -4.7559 3.85332 0
M  V30 3274 N 307.067 -5.95253 3.72315 0
M  V30 3275 H 311.907 -1.64768 2.48305 0
M  V30 3276 H 309.444 -0.803503 1.23216 0
M  V30 3277 H 311.402 -3.90758 1.46164 0
M  V30 3278 H 310.032 -3.17413 0.587243 0
M  V30 3279 H 309.084 -2.4618 2.89999 0
M  V30 3280 H 310.396 -3.39218 3.65695 0
M  V30 3281 H 309.55 -5.48928 2.58385 0
M  V30 3282 H 308.289 -4.56275 1.72233 0
M  V30 3283 H 307.294 -3.85824 3.91688 0
M  V30 3284 H 308.519 -4.81854 4.78533 0
M  V30 3285 H 306.465 -5.91847 2.82937 0
M  V30 3286 H 306.382 -6.03236 4.55677 0
M  V30 3287 H 307.65 -6.85958 3.70246 0
M  V30 3288 N 311.879 -1.3236 -0.855495 0
M  V30 3289 C 312.789 -1.23221 -1.99634 0
M  V30 3290 C 313.805 -0.145983 -1.73387 0
M  V30 3291 O 314.981 -0.366502 -1.98037 0
M  V30 3292 C 312.046 -0.954782 -3.33294 0
M  V30 3293 C 311.107 -2.12937 -3.72769 0
M  V30 3294 C 310.34 -1.86508 -5.00051 0
M  V30 3295 O 310.563 -0.807231 -5.64659 0
M  V30 3296 O 309.497 -2.72591 -5.36636 0
M  V30 3297 H 313.323 -2.19126 -2.1028 0
M  V30 3298 H 310.908 -1.12241 -0.986018 0
M  V30 3299 H 312.79 -0.816519 -4.13414 0
M  V30 3300 H 311.465 -0.0258854 -3.2369 0
M  V30 3301 H 310.372 -2.3231 -2.93228 0
M  V30 3302 H 311.705 -3.04102 -3.87018 0
M  V30 3303 N 313.357 1.07166 -1.15556 0
M  V30 3304 C 314.32 2.12589 -0.856644 0
M  V30 3305 C 315.32 1.6015 0.14444 0
M  V30 3306 O 316.51 1.7399 -0.0854163 0
M  V30 3307 C 313.642 3.39753 -0.279405 0
M  V30 3308 H 314.835 2.40539 -1.79112 0
M  V30 3309 H 312.388 1.23086 -0.963298 0
M  V30 3310 H 313.123 3.17447 0.663174 0
M  V30 3311 H 312.908 3.79117 -1.00063 0
M  V30 3312 H 314.398 4.17507 -0.0879113 0
M  V30 3313 N 314.835 0.952656 1.25548 0
M  V30 3314 C 315.745 0.47782 2.29682 0
M  V30 3315 C 316.761 -0.453859 1.67977 0
M  V30 3316 O 317.937 -0.330587 1.98668 0
M  V30 3317 C 315.002 -0.238655 3.45878 0
M  V30 3318 C 314.063 0.730994 4.23031 0
M  V30 3319 C 313.296 0.0486165 5.33678 0
M  V30 3320 O 313.519 -1.16612 5.58353 0
M  V30 3321 O 312.453 0.733152 5.97418 0
M  V30 3322 H 316.279 1.34312 2.72386 0
M  V30 3323 H 313.864 0.719026 1.30959 0
M  V30 3324 H 315.746 -0.641774 4.16484 0
M  V30 3325 H 314.421 -1.07916 3.05181 0
M  V30 3326 H 313.328 1.18428 3.5486 0
M  V30 3327 H 314.661 1.53946 4.67506 0
M  V30 3328 N 316.313 -1.40141 0.720998 0
M  V30 3329 C 317.223 -2.34486 0.0731031 0
M  V30 3330 C 318.239 -1.57587 -0.737723 0
M  V30 3331 O 319.415 -1.89949 -0.669429 0
M  V30 3332 C 316.48 -3.36528 -0.833656 0
M  V30 3333 C 315.541 -4.29298 -0.0121673 0
M  V30 3334 C 314.774 -5.26466 -0.875742 0
M  V30 3335 O 314.997 -5.29745 -2.11485 0
M  V30 3336 O 313.931 -6.01092 -0.31185 0
M  V30 3337 H 317.757 -2.9152 0.851444 0
M  V30 3338 H 315.342 -1.41427 0.481527 0
M  V30 3339 H 317.224 -3.99093 -1.35289 0
M  V30 3340 H 315.899 -2.81899 -1.59105 0
M  V30 3341 H 314.806 -3.70001 0.552262 0
M  V30 3342 H 316.139 -4.87094 0.707129 0
M  V30 3343 N 317.792 -0.46758 -1.50504 0
M  V30 3344 C 318.755 0.317059 -2.26996 0
M  V30 3345 C 319.755 0.923513 -1.31635 0
M  V30 3346 O 320.945 0.793239 -1.55091 0
M  V30 3347 C 318.077 1.45134 -3.08462 0
M  V30 3348 H 319.27 -0.353723 -2.97807 0
M  V30 3349 H 316.823 -0.221545 -1.54722 0
M  V30 3350 H 317.558 2.15728 -2.4214 0
M  V30 3351 H 317.343 1.02232 -3.78538 0
M  V30 3352 H 318.833 2.00493 -3.66323 0
M  V30 3353 N 319.27 1.56325 -0.20005 0
M  V30 3354 C 320.681 1.8408 0.31167 0
M  V30 3355 C 321.032 1.12087 1.61031 0
M  V30 3356 O 320.157 0.38332 2.12978 0
M  V30 3357 C 320.752 3.33932 0.57226 0
M  V30 3358 C 319.311 3.6208 1.02834 0
M  V30 3359 C 318.458 2.77186 0.079634 0
M  V30 3360 H 321.409 1.52939 -0.423729 0
M  V30 3361 H 321.43 3.52971 1.42096 0
M  V30 3362 H 320.942 3.86303 -0.37308 0
M  V30 3363 H 319.043 3.15147 1.98778 0
M  V30 3364 H 319.156 4.7023 0.917624 0
M  V30 3365 H 317.52 2.47951 0.582448 0
M  V30 3366 H 318.303 3.32347 -0.860238 0
M  V30 3367 N 320.748 -0.0735177 1.57428 0
M  V30 3368 C 321.978 -0.78483 1.91112 0
M  V30 3369 C 322.386 -1.71729 0.7941 0
M  V30 3370 O 321.729 -1.82105 -0.241542 0
M  V30 3371 C 321.791 -1.63346 3.20247 0
M  V30 3372 C 321.455 -0.870557 4.48632 0
M  V30 3373 C 322.452 -0.19058 5.19551 0
M  V30 3374 C 320.137 -0.838242 4.95256 0
M  V30 3375 C 322.131 0.511503 6.35344 0
M  V30 3376 C 319.818 -0.132386 6.10957 0
M  V30 3377 C 320.816 0.541288 6.80852 0
M  V30 3378 O 320.504 1.23578 7.94345 0
M  V30 3379 H 320.236 -0.228408 0.636244 0
M  V30 3380 H 322.79 -0.0486039 2.05342 0
M  V30 3381 H 321.02 -2.41245 3.02222 0
M  V30 3382 H 322.709 -2.22329 3.39595 0
M  V30 3383 H 323.475 -0.206864 4.84559 0
M  V30 3384 H 319.354 -1.35206 4.40727 0
M  V30 3385 H 322.898 1.03789 6.89836 0
M  V30 3386 H 318.795 -0.114023 6.45399 0
M  V30 3387 H 319.563 1.14487 8.10454 0
M  V30 3388 N 322.226 -1.5378 -0.344866 0
M  V30 3389 C 323.159 -1.7649 -1.4466 0
M  V30 3390 C 324.137 -0.613954 -1.50563 0
M  V30 3391 O 325.321 -0.84896 -1.683 0
M  V30 3392 C 322.448 -1.86235 -2.82903 0
M  V30 3393 C 321.494 -3.08375 -2.94631 0
M  V30 3394 S 322.327 -4.67457 -2.61236 0
M  V30 3395 C 323.483 -4.80079 -4.0159 0
M  V30 3396 H 323.716 -2.69661 -1.2518 0
M  V30 3397 H 321.249 -1.44632 -0.540455 0
M  V30 3398 H 323.207 -1.92535 -3.62547 0
M  V30 3399 H 321.868 -0.940786 -2.9968 0
M  V30 3400 H 321.061 -3.11865 -3.95925 0
M  V30 3401 H 320.663 -3.00294 -2.22934 0
M  V30 3402 H 322.955 -4.61407 -4.96094 0
M  V30 3403 H 323.898 -5.82168 -4.03095 0
M  V30 3404 H 324.306 -4.08544 -3.89554 0
M  V30 3405 N 323.704 0.605807 -1.45491 0
M  V30 3406 C 324.614 1.74466 -1.56839 0
M  V30 3407 C 325.63 1.68006 -0.452772 0
M  V30 3408 O 326.806 1.8833 -0.713708 0
M  V30 3409 C 323.871 3.10931 -1.53371 0
M  V30 3410 C 322.932 3.28832 -2.75986 0
M  V30 3411 C 322.165 4.58787 -2.72673 0
M  V30 3412 O 322.388 5.4122 -1.80102 0
M  V30 3413 O 321.322 4.79438 -3.63899 0
M  V30 3414 H 325.148 1.67843 -2.53106 0
M  V30 3415 H 322.733 0.770108 -1.28022 0
M  V30 3416 H 324.615 3.92233 -1.54051 0
M  V30 3417 H 323.29 3.18042 -0.602572 0
M  V30 3418 H 322.197 2.47112 -2.80867 0
M  V30 3419 H 323.53 3.26599 -3.68231 0
M  V30 3420 N 325.182 1.32811 0.848464 0
M  V30 3421 C 326.459 1.14334 1.58704 0
M  V30 3422 C 326.839 -0.293948 2.09043 0
M  V30 3423 O 326.187 -1.29153 1.88499 0
M  V30 3424 C 326.397 2.17626 2.72837 0
M  V30 3425 C 327.745 2.51282 3.42261 0
M  V30 3426 O 328.769 2.16219 2.83068 0
M  V30 3427 O 327.628 3.11413 4.49093 0
M  V30 3428 H 324.722 0.441601 0.699226 0
M  V30 3429 H 327.268 1.44362 0.892053 0
M  V30 3430 H 326.04 3.14211 2.3321 0
M  V30 3431 H 325.663 1.88628 3.50008 0
M  V30 3432 N 326.66 -1.06551 1.16123 0
M  V30 3433 C 327.906 -1.79719 0.952505 0
M  V30 3434 C 328.261 -1.85396 -0.514385 0
M  V30 3435 O 327.554 -1.33263 -1.37665 0
M  V30 3436 C 327.748 -3.23911 1.51052 0
M  V30 3437 C 327.577 -3.32284 3.03013 0
M  V30 3438 C 326.347 -3.42371 3.71632 0
M  V30 3439 C 328.545 -3.22363 4.00732 0
M  V30 3440 N 326.527 -3.39732 5.11327 0
M  V30 3441 C 327.898 -3.26937 5.26794 0
M  V30 3442 C 329.953 -3.0623 3.92591 0
M  V30 3443 C 328.656 -3.17035 6.45663 0
M  V30 3444 C 330.682 -2.97665 5.11028 0
M  V30 3445 C 330.044 -3.02858 6.35969 0
M  V30 3446 H 326.143 -0.670585 0.402293 0
M  V30 3447 H 328.727 -1.27125 1.4747 0
M  V30 3448 H 326.898 -3.74907 1.01484 0
M  V30 3449 H 328.63 -3.85242 1.2398 0
M  V30 3450 H 325.385 -3.47058 3.22254 0
M  V30 3451 H 325.809 -3.41919 5.84312 0
M  V30 3452 H 330.451 -3.01063 2.96852 0
M  V30 3453 H 328.169 -3.2096 7.41627 0
M  V30 3454 H 331.755 -2.86273 5.06497 0
M  V30 3455 H 330.635 -2.96286 7.26075 0
M  V30 3456 N 328.138 -0.959301 -1.25041 0
M  V30 3457 C 329.048 -0.489994 -2.29426 0
M  V30 3458 C 330.064 0.444944 -1.68215 0
M  V30 3459 O 331.24 0.320046 -1.98841 0
M  V30 3460 C 328.305 0.220309 -3.45999 0
M  V30 3461 C 327.366 -0.753418 -4.22637 0
M  V30 3462 C 326.599 -0.076918 -5.33645 0
M  V30 3463 O 326.822 1.13649 -5.58963 0
M  V30 3464 O 325.756 -0.764824 -5.97021 0
M  V30 3465 H 329.582 -1.35755 -2.71669 0
M  V30 3466 H 327.167 -0.725961 -1.30576 0
M  V30 3467 H 329.049 0.619677 -4.16819 0
M  V30 3468 H 327.724 1.06296 -3.0575 0
M  V30 3469 H 326.631 -1.20308 -3.54227 0
M  V30 3470 H 327.964 -1.56423 -4.66683 0
M  V30 3471 N 329.616 1.39756 -0.72842 0
M  V30 3472 C 330.864 2.00248 -0.272946 0
M  V30 3473 C 331.185 1.58077 1.14178 0
M  V30 3474 O 330.455 0.826014 1.77634 0
M  V30 3475 H 329.035 0.740554 -0.0979247 0
M  V30 3476 H 331.697 1.70903 -0.936912 0
M  V30 3477 H 330.793 3.10495 -0.316142 0
M  V30 3478 N 331.094 0.475555 1.50254 0
M  V30 3479 C 332.324 -0.0753399 2.06463 0
M  V30 3480 C 332.732 -1.33661 1.33908 0
M  V30 3481 O 332.075 -1.79219 0.403257 0
M  V30 3482 C 332.137 -0.424921 3.5698 0
M  V30 3483 C 331.801 0.734965 4.51051 0
M  V30 3484 C 332.798 1.61827 4.94073 0
M  V30 3485 C 330.483 0.926557 4.9368 0
M  V30 3486 C 332.477 2.67754 5.78434 0
M  V30 3487 C 330.164 1.98904 5.77824 0
M  V30 3488 C 331.162 2.8629 6.20103 0
M  V30 3489 O 330.85 3.90708 7.02568 0
M  V30 3490 H 330.582 0.00576308 0.675975 0
M  V30 3491 H 333.136 0.664662 1.94349 0
M  V30 3492 H 331.366 -1.21817 3.67012 0
M  V30 3493 H 333.055 -0.911422 3.95535 0
M  V30 3494 H 333.821 1.48196 4.61804 0
M  V30 3495 H 329.7 0.25584 4.6029 0
M  V30 3496 H 333.244 3.35992 6.11355 0
M  V30 3497 H 329.141 2.12541 6.09505 0
M  V30 3498 H 329.909 3.87751 7.20827 0
M  V30 3499 N 332.573 -1.56217 0.208337 0
M  V30 3500 C 333.984 -1.84243 -0.301904 0
M  V30 3501 C 334.335 -1.12939 -1.60434 0
M  V30 3502 O 333.46 -0.39461 -2.12772 0
M  V30 3503 C 334.055 -3.34231 -0.554543 0
M  V30 3504 C 332.614 -3.62621 -1.00912 0
M  V30 3505 C 331.761 -2.77224 -0.064933 0
M  V30 3506 H 334.712 -1.52712 0.431833 0
M  V30 3507 H 334.733 -3.5372 -1.40223 0
M  V30 3508 H 334.245 -3.86099 0.393561 0
M  V30 3509 H 332.346 -3.16197 -1.97104 0
M  V30 3510 H 332.459 -4.7071 -0.892674 0
M  V30 3511 H 330.823 -2.48256 -0.56929 0
M  V30 3512 H 331.606 -3.31887 0.877851 0
M  V30 3513 N 334.051 0.0651679 -1.57465 0
M  V30 3514 C 334.961 1.09448 -2.07505 0
M  V30 3515 C 335.977 1.41974 -1.00595 0
M  V30 3516 O 337.153 1.52018 -1.32107 0
M  V30 3517 C 334.218 2.38689 -2.51453 0
M  V30 3518 C 333.279 2.13073 -3.72691 0
M  V30 3519 C 332.512 3.36152 -4.14533 0
M  V30 3520 O 332.735 4.45517 -3.56189 0
M  V30 3521 O 331.669 3.23974 -5.07272 0
M  V30 3522 H 335.495 0.69935 -2.95538 0
M  V30 3523 H 333.08 0.279752 -1.46757 0
M  V30 3524 H 334.962 3.14736 -2.80212 0
M  V30 3525 H 333.637 2.77568 -1.66546 0
M  V30 3526 H 332.544 1.34709 -3.49005 0
M  V30 3527 H 333.877 1.79071 -4.5847 0
M  V30 3528 N 335.529 1.53961 0.336706 0
M  V30 3529 C 336.439 1.85432 1.43708 0
M  V30 3530 C 337.455 0.745053 1.57242 0
M  V30 3531 O 338.631 1.03804 1.72588 0
M  V30 3532 C 335.696 2.06349 2.78605 0
M  V30 3533 C 334.757 3.30191 2.74358 0
M  V30 3534 C 333.99 3.50101 4.02822 0
M  V30 3535 O 334.213 2.7371 5.00439 0
M  V30 3536 O 333.147 4.43547 4.06878 0
M  V30 3537 H 336.973 2.78975 1.20028 0
M  V30 3538 H 334.558 1.39701 0.52952 0
M  V30 3539 H 336.44 2.21513 3.58483 0
M  V30 3540 H 335.115 1.15995 3.02203 0
M  V30 3541 H 334.022 3.20425 1.93078 0
M  V30 3542 H 335.355 4.2056 2.55715 0
M  V30 3543 N 337.007 -0.598083 1.45811 0
M  V30 3544 C 338.235 -1.38322 1.53866 0
M  V30 3545 C 338.65 -1.87992 0.174479 0
M  V30 3546 O 338.007 -1.62756 -0.825627 0
M  V30 3547 C 338.058 -2.58125 2.53089 0
M  V30 3548 O 337.779 -2.10516 3.84206 0
M  V30 3549 C 339.28 -3.50869 2.70935 0
M  V30 3550 H 336.5 -0.423093 0.520801 0
M  V30 3551 H 339.044 -0.728527 1.91083 0
M  V30 3552 H 337.199 -3.19615 2.18917 0
M  V30 3553 H 337.613 -2.88425 4.38077 0
M  V30 3554 H 339.087 -4.31451 3.44317 0
M  V30 3555 H 339.564 -4.01822 1.77301 0
M  V30 3556 H 340.17 -2.95225 3.06141 0
M  V30 3557 N 338.485 -1.33259 -0.841409 0
M  V30 3558 C 339.715 -1.2742 -1.62628 0
M  V30 3559 C 340.123 0.157604 -1.88542 0
M  V30 3560 O 339.466 1.10938 -1.46419 0
M  V30 3561 C 339.528 -1.97797 -3.00194 0
M  V30 3562 C 339.192 -3.47109 -2.97261 0
M  V30 3563 C 340.189 -4.42358 -2.73159 0
M  V30 3564 C 337.874 -3.89247 -3.17478 0
M  V30 3565 C 339.868 -5.77718 -2.69296 0
M  V30 3566 C 337.555 -5.24713 -3.13241 0
M  V30 3567 C 338.553 -6.1876 -2.89181 0
M  V30 3568 O 338.241 -7.51745 -2.84843 0
M  V30 3569 H 337.973 -0.440436 -0.512827 0
M  V30 3570 H 340.527 -1.76153 -1.05638 0
M  V30 3571 H 338.757 -1.43652 -3.59028 0
M  V30 3572 H 340.446 -1.8549 -3.61038 0
M  V30 3573 H 341.212 -4.11127 -2.57294 0
M  V30 3574 H 337.091 -3.16456 -3.35226 0
M  V30 3575 H 340.635 -6.51097 -2.50436 0
M  V30 3576 H 336.532 -5.55569 -3.28654 0
M  V30 3577 H 337.3 -7.61262 -3.00702 0
M  V30 3578 N 339.963 1.05934 -1.16686 0
M  V30 3579 C 341.374 1.60263 -0.957745 0
M  V30 3580 C 341.725 1.89789 0.49745 0
M  V30 3581 O 340.85 1.67401 1.37135 0
M  V30 3582 C 341.445 2.91172 -1.73218 0
M  V30 3583 C 340.004 3.42188 -1.56794 0
M  V30 3584 C 339.151 2.16028 -1.73859 0
M  V30 3585 H 342.102 0.888392 -1.31504 0
M  V30 3586 H 342.123 3.60744 -1.21014 0
M  V30 3587 H 341.635 2.6965 -2.79124 0
M  V30 3588 H 339.736 3.68762 -0.533437 0
M  V30 3589 H 339.849 4.17273 -2.35414 0
M  V30 3590 H 338.213 2.26426 -1.16633 0
M  V30 3591 H 338.996 1.96985 -2.81161 0
M  V30 3592 N 341.441 0.965919 1.2453 0
M  V30 3593 C 342.69 0.622437 1.91856 0
M  V30 3594 C 343.003 -0.846006 1.76358 0
M  V30 3595 O 344.209 -1.29993 2.38357 0
M  V30 3596 C 342.665 1.0626 3.43856 0
M  V30 3597 C 342.273 2.55437 3.68043 0
M  V30 3598 C 344.017 0.792183 4.17043 0
M  V30 3599 C 341.924 2.93196 5.13605 0
M  V30 3600 H 340.854 0.229092 0.718354 0
M  V30 3601 H 343.505 1.17189 1.41206 0
M  V30 3602 H 341.887 0.441476 3.93531 0
M  V30 3603 H 343.061 3.22665 3.28974 0
M  V30 3604 H 341.376 2.8007 3.08139 0
M  V30 3605 H 343.973 1.05031 5.24283 0
M  V30 3606 H 344.316 -0.271584 4.15413 0
M  V30 3607 H 344.849 1.37419 3.73311 0
M  V30 3608 H 341.588 3.98636 5.20355 0
M  V30 3609 H 341.108 2.30651 5.53679 0
M  V30 3610 H 342.787 2.83004 5.81823 0
M  V30 3611 N 342.919 -1.39368 0.735821 0
M  V30 3612 C 344.149 -2.04498 0.293967 0
M  V30 3613 C 344.557 -1.55593 -1.07645 0
M  V30 3614 O 343.9 -0.716324 -1.69158 0
M  V30 3615 C 343.962 -3.58836 0.218342 0
M  V30 3616 C 343.626 -4.30721 1.52736 0
M  V30 3617 C 344.623 -4.57305 2.47322 0
M  V30 3618 C 342.308 -4.69251 1.79189 0
M  V30 3619 C 344.302 -5.21429 3.66593 0
M  V30 3620 C 341.989 -5.33104 2.98737 0
M  V30 3621 C 342.987 -5.59125 3.9226 0
M  V30 3622 O 342.675 -6.21653 5.09708 0
M  V30 3623 H 342.407 -0.664118 0.126189 0
M  V30 3624 H 344.961 -1.79385 1.00051 0
M  V30 3625 H 343.191 -3.8285 -0.544314 0
M  V30 3626 H 344.88 -4.05447 -0.191626 0
M  V30 3627 H 345.646 -4.27983 2.28156 0
M  V30 3628 H 341.525 -4.48354 1.07239 0
M  V30 3629 H 345.069 -5.41656 4.39607 0
M  V30 3630 H 340.966 -5.61846 3.17803 0
M  V30 3631 H 341.734 -6.40146 5.10054 0
M  V30 3632 N 344.397 -0.483516 -1.5 0
M  V30 3633 C 345.674 0.129337 -1.95172 0
M  V30 3634 C 346.054 1.55802 -1.4244 0
M  V30 3635 O 345.402 2.19625 -0.630649 0
M  V30 3636 C 345.612 0.0599251 -3.48949 0
M  V30 3637 C 346.96 0.242617 -4.23906 0
M  V30 3638 O 347.984 0.135933 -3.55941 0
M  V30 3639 O 346.843 0.459454 -5.44565 0
M  V30 3640 H 343.937 0.104887 -0.820322 0
M  V30 3641 H 346.483 -0.544807 -1.60717 0
M  V30 3642 H 345.255 -0.937079 -3.79914 0
M  V30 3643 H 344.878 0.774984 -3.89974 0
M  V30 3644 N 345.875 1.56104 -0.216619 0
M  V30 3645 C 346.805 2.23063 0.690296 0
M  V30 3646 C 347.786 1.20072 1.20485 0
M  V30 3647 O 348.971 1.48643 1.24976 0
M  V30 3648 C 346.101 2.90672 1.90072 0
M  V30 3649 C 345.055 4.00092 1.5202 0
M  V30 3650 C 344.381 4.54972 2.80899 0
M  V30 3651 C 345.681 5.17398 0.71391 0
M  V30 3652 H 347.375 2.99109 0.132038 0
M  V30 3653 H 344.921 1.43866 0.0620664 0
M  V30 3654 H 346.874 3.36204 2.54057 0
M  V30 3655 H 345.598 2.12066 2.48386 0
M  V30 3656 H 344.257 3.55283 0.903839 0
M  V30 3657 H 343.905 3.73102 3.37348 0
M  V30 3658 H 343.605 5.28817 2.56176 0
M  V30 3659 H 345.129 5.0322 3.45836 0
M  V30 3660 H 346.543 5.59342 1.25735 0
M  V30 3661 H 344.94 5.97444 0.563951 0
M  V30 3662 H 346.01 4.84088 -0.280527 0
M  V30 3663 N 347.353 -0.0568162 1.57498 0
M  V30 3664 C 348.578 -0.769402 1.92601 0
M  V30 3665 C 349.003 -1.69559 0.814336 0
M  V30 3666 O 348.361 -1.79811 -0.231903 0
M  V30 3667 C 348.409 -1.52634 3.26704 0
M  V30 3668 O 347.513 -2.63797 3.16994 0
M  V30 3669 H 346.854 -0.208909 0.63028 0
M  V30 3670 H 349.384 -0.0205798 2.0459 0
M  V30 3671 H 349.394 -1.90234 3.60936 0
M  V30 3672 H 348.069 -0.846875 4.07186 0
M  V30 3673 H 346.646 -2.28943 2.94346 0
M  V30 3674 N 348.832 -1.54138 -0.328536 0
M  V30 3675 C 350.109 -1.62749 -1.08499 0
M  V30 3676 C 350.489 -0.458198 -2.06067 0
M  V30 3677 O 349.837 0.548046 -2.2183 0
M  V30 3678 C 350.047 -2.99519 -1.79135 0
M  V30 3679 C 351.395 -3.55394 -2.32337 0
M  V30 3680 O 352.419 -3.01792 -1.89209 0
M  V30 3681 O 351.278 -4.49186 -3.11279 0
M  V30 3682 H 348.372 -0.65886 -0.499832 0
M  V30 3683 H 350.918 -1.66484 -0.328826 0
M  V30 3684 H 349.69 -3.76061 -1.08139 0
M  V30 3685 H 349.313 -2.99441 -2.61574 0
M  V30 3686 N 350.31 0.590341 -1.46126 0
M  V30 3687 C 351.55 1.35995 -1.52593 0
M  V30 3688 C 351.914 1.91243 -0.170368 0
M  V30 3689 O 353.115 2.68576 -0.109775 0
M  V30 3690 C 351.386 2.46465 -2.58823 0
M  V30 3691 S 352.945 3.33953 -2.84641 0
M  V30 3692 H 349.763 0.463425 -0.53922 0
M  V30 3693 H 352.365 0.67944 -1.83314 0
M  V30 3694 H 351.069 2.04256 -3.5596 0
M  V30 3695 H 350.6 3.19297 -2.2981 0
M  V30 3696 H 352.615 4.45094 -2.19331 0
M  V30 3697 N 351.788 1.33704 0.83433 0
M  V30 3698 C 353.037 1.24763 1.58484 0
M  V30 3699 C 353.35 -0.183775 1.94735 0
M  V30 3700 O 354.556 -0.395234 2.68608 0
M  V30 3701 C 353.012 2.18638 2.85876 0
M  V30 3702 C 352.62 3.66974 2.56971 0
M  V30 3703 C 354.364 2.18581 3.63899 0
M  V30 3704 C 352.271 4.5275 3.80488 0
M  V30 3705 H 351.201 0.463425 0.594772 0
M  V30 3706 H 353.852 1.58797 0.919551 0
M  V30 3707 H 352.234 1.77542 3.5397 0
M  V30 3708 H 353.408 4.16538 1.9706 0
M  V30 3709 H 351.723 3.69366 1.92244 0
M  V30 3710 H 354.32 2.79894 4.55591 0
M  V30 3711 H 354.663 1.18207 3.99165 0
M  V30 3712 H 355.196 2.58062 3.02735 0
M  V30 3713 H 351.935 5.54017 3.5035 0
M  V30 3714 H 351.455 4.07927 4.39722 0
M  V30 3715 H 353.134 4.66784 4.4802 0
M  V30 3716 N 353.266 -1.05314 1.17247 0
M  V30 3717 C 354.213 -2.13031 0.888058 0
M  V30 3718 C 355.183 -1.65253 -0.167537 0
M  V30 3719 O 356.368 -1.90775 -0.0305974 0
M  V30 3720 C 353.508 -3.42702 0.406147 0
M  V30 3721 C 352.621 -4.04161 1.52572 0
M  V30 3722 C 351.756 -5.21744 0.997808 0
M  V30 3723 C 350.795 -5.75207 2.09291 0
M  V30 3724 N 349.932 -6.84094 1.57986 0
M  V30 3725 H 354.772 -2.36698 1.81048 0
M  V30 3726 H 352.309 -1.16121 0.903013 0
M  V30 3727 H 354.267 -4.17059 0.108305 0
M  V30 3728 H 352.897 -3.19222 -0.479313 0
M  V30 3729 H 351.949 -3.27253 1.93931 0
M  V30 3730 H 353.261 -4.39881 2.35172 0
M  V30 3731 H 352.415 -6.03168 0.653739 0
M  V30 3732 H 351.154 -4.87495 0.141232 0
M  V30 3733 H 350.159 -4.92414 2.44557 0
M  V30 3734 H 351.384 -6.11505 2.95362 0
M  V30 3735 H 349.33 -6.51745 0.74598 0
M  V30 3736 H 349.247 -7.18811 2.34195 0
M  V30 3737 H 350.515 -7.69172 1.26468 0
M  V30 3738 N 354.744 -0.972509 -1.24016 0
M  V30 3739 C 356.16 -0.679827 -1.44397 0
M  V30 3740 C 356.36 0.756716 -1.86751 0
M  V30 3741 O 355.416 1.53007 -2.00861 0
M  V30 3742 C 356.729 -1.66803 -2.50195 0
M  V30 3743 C 358.277 -1.68119 -2.64017 0
M  V30 3744 C 358.752 -2.65748 -3.73017 0
M  V30 3745 N 360.243 -2.64219 -3.8045 0
M  V30 3746 C 360.978 -3.36433 -4.64328 0
M  V30 3747 N 360.474 -4.1818 -5.52356 0
M  V30 3748 N 362.267 -3.25235 -4.58453 0
M  V30 3749 H 354.418 -1.90059 -0.948228 0
M  V30 3750 H 356.681 -0.818527 -0.478245 0
M  V30 3751 H 356.387 -2.69498 -2.25973 0
M  V30 3752 H 356.261 -1.4446 -3.48441 0
M  V30 3753 H 358.648 -0.661319 -2.87594 0
M  V30 3754 H 358.729 -1.94525 -1.66113 0
M  V30 3755 H 358.373 -3.67872 -3.50189 0
M  V30 3756 H 358.303 -2.36619 -4.70446 0
M  V30 3757 H 360.794 -2.04887 -3.17537 0
M  V30 3758 H 361.107 -4.70157 -6.13329 0
M  V30 3759 H 359.452 -4.22273 -5.52006 0
M  V30 3760 H 362.643 -2.60829 -3.88698 0
M  V30 3761 H 362.816 -3.81776 -5.23594 0
M  V30 3762 N 356.222 1.38976 -0.743202 0
M  V30 3763 C 357.638 1.53984 -0.419664 0
M  V30 3764 C 357.838 1.70837 1.0685 0
M  V30 3765 O 356.894 1.7135 1.8546 0
M  V30 3766 C 358.207 2.75287 -1.20985 0
M  V30 3767 C 359.755 2.89129 -1.19889 0
M  V30 3768 C 360.23 4.13381 -1.97181 0
M  V30 3769 N 361.721 4.20437 -1.94389 0
M  V30 3770 C 362.456 5.15547 -2.50996 0
M  V30 3771 N 361.952 6.16395 -3.16274 0
M  V30 3772 N 363.745 5.07822 -2.40984 0
M  V30 3773 H 355.896 1.26285 -1.7078 0
M  V30 3774 H 358.159 0.612689 -0.723406 0
M  V30 3775 H 357.865 2.69204 -2.26323 0
M  V30 3776 H 357.739 3.68184 -0.819759 0
M  V30 3777 H 360.126 2.947 -0.153606 0
M  V30 3778 H 360.207 1.97272 -1.62841 0
M  V30 3779 H 359.851 4.08572 -3.01714 0
M  V30 3780 H 359.781 5.04298 -1.51629 0
M  V30 3781 H 362.272 3.48205 -1.46839 0
M  V30 3782 H 362.585 6.85443 -3.56915 0
M  V30 3783 H 360.93 6.16758 -3.20367 0
M  V30 3784 H 364.121 4.27973 -1.89622 0
M  V30 3785 H 364.294 5.81767 -2.85397 0
M  V30 3786 N 357.7 0.491464 1.49741 0
M  V30 3787 C 358.632 -0.328609 2.26832 0
M  V30 3788 C 359.645 -0.939113 1.32983 0
M  V30 3789 O 360.834 -0.824067 1.58339 0
M  V30 3790 C 357.934 -1.47675 3.05033 0
M  V30 3791 C 357.107 -0.975305 4.26388 0
M  V30 3792 C 356.166 -1.99991 4.86714 0
M  V30 3793 O 355.192 -1.57229 5.47054 0
M  V30 3794 N 356.394 -3.32962 4.75517 0
M  V30 3795 H 359.159 0.332377 2.97851 0
M  V30 3796 H 356.72 0.323441 1.58636 0
M  V30 3797 H 358.712 -2.15954 3.42266 0
M  V30 3798 H 357.282 -2.04206 2.36683 0
M  V30 3799 H 356.502 -0.117723 3.94024 0
M  V30 3800 H 357.79 -0.618531 5.05026 0
M  V30 3801 H 357.188 -3.70399 4.27576 0
M  V30 3802 H 355.745 -3.96982 5.16961 0
M  V30 3803 N 359.178 -1.55987 0.224894 0
M  V30 3804 C 360.088 -2.24066 -0.69511 0
M  V30 3805 C 361.104 -1.24939 -1.21104 0
M  V30 3806 O 362.28 -1.5776 -1.25195 0
M  V30 3807 C 359.345 -2.90983 -1.88493 0
M  V30 3808 C 358.406 -4.05462 -1.41064 0
M  V30 3809 C 357.639 -4.69179 -2.54375 0
M  V30 3810 O 357.862 -4.31895 -3.72589 0
M  V30 3811 O 356.796 -5.58108 -2.25386 0
M  V30 3812 H 360.622 -3.03353 -0.145149 0
M  V30 3813 H 358.207 -1.49399 -0.00569476 0
M  V30 3814 H 360.089 -3.33209 -2.57972 0
M  V30 3815 H 358.764 -2.14653 -2.42293 0
M  V30 3816 H 357.671 -3.67798 -0.683774 0
M  V30 3817 H 359.004 -4.83545 -0.918985 0
M  V30 3818 N 360.656 0.0484629 -1.57525 0
M  V30 3819 C 361.884 0.755421 -1.92616 0
M  V30 3820 C 362.299 1.69919 -0.822984 0
M  V30 3821 O 361.656 1.81378 0.202085 0
M  V30 3822 C 361.707 1.52915 -3.27566 0
M  V30 3823 O 361.428 0.62329 -4.33644 0
M  V30 3824 C 362.929 2.33502 -3.76818 0
M  V30 3825 H 360.149 0.213465 -0.63614 0
M  V30 3826 H 362.693 0.0117698 -2.04497 0
M  V30 3827 H 360.848 2.22486 -3.17142 0
M  V30 3828 H 361.262 1.16383 -5.11425 0
M  V30 3829 H 362.736 2.83214 -4.73808 0
M  V30 3830 H 363.213 3.14068 -3.07014 0
M  V30 3831 H 363.819 1.69043 -3.90262 0
M  V30 3832 N 362.134 1.5431 0.320358 0
M  V30 3833 C 363.383 1.7188 1.05546 0
M  V30 3834 C 363.696 0.501143 1.89071 0
M  V30 3835 O 364.902 0.558258 2.65699 0
M  V30 3836 C 363.358 3.04025 1.92605 0
M  V30 3837 C 362.966 4.33207 1.14176 0
M  V30 3838 C 364.71 3.30959 2.65832 0
M  V30 3839 C 362.617 5.56412 2.00399 0
M  V30 3840 H 361.547 0.640547 0.397763 0
M  V30 3841 H 364.198 1.80802 0.313522 0
M  V30 3842 H 362.58 2.89019 2.7071 0
M  V30 3843 H 363.754 4.58989 0.40819 0
M  V30 3844 H 362.069 4.13062 0.526165 0
M  V30 3845 H 364.666 4.20203 3.30656 0
M  V30 3846 H 365.009 2.48979 3.33639 0
M  V30 3847 H 365.542 3.46847 1.94787 0
M  V30 3848 H 362.281 6.41004 1.37094 0
M  V30 3849 H 361.801 5.34844 2.7148 0
M  V30 3850 H 363.48 5.92938 2.58908 0
M  V30 3851 N 363.613 -0.582584 1.46437 0
M  V30 3852 C 364.543 -1.70187 1.59871 0
M  V30 3853 C 365.524 -1.64066 0.449042 0
M  V30 3854 O 366.709 -1.82081 0.6753 0
M  V30 3855 C 363.839 -3.08827 1.58881 0
M  V30 3856 C 362.793 -3.29779 2.72819 0
M  V30 3857 C 362.119 -4.68947 2.5689 0
M  V30 3858 C 363.419 -3.17601 4.1464 0
M  V30 3859 H 365.113 -1.592 2.53566 0
M  V30 3860 H 362.659 -0.764472 1.22032 0
M  V30 3861 H 364.612 -3.86951 1.66873 0
M  V30 3862 H 363.336 -3.20713 0.617306 0
M  V30 3863 H 361.995 -2.54054 2.64296 0
M  V30 3864 H 361.643 -4.77599 1.57823 0
M  V30 3865 H 361.343 -4.83919 3.33312 0
M  V30 3866 H 362.867 -5.4924 2.66773 0
M  V30 3867 H 364.281 -3.8557 4.24274 0
M  V30 3868 H 362.678 -3.44094 4.9165 0
M  V30 3869 H 363.748 -2.14681 4.34788 0
M  V30 3870 N 365.091 -1.34144 -0.827227 0
M  V30 3871 C 366.337 -1.26446 -1.58554 0
M  V30 3872 C 366.67 0.1664 -1.93486 0
M  V30 3873 O 365.945 1.1107 -1.59667 0
M  V30 3874 C 366.228 -2.15111 -2.8879 0
M  V30 3875 C 366.081 -3.66712 -2.60465 0
M  V30 3876 C 367.4 -2.03311 -3.90324 0
M  V30 3877 H 364.519 -0.46067 -0.575284 0
M  V30 3878 H 367.161 -1.64356 -0.953269 0
M  V30 3879 H 365.311 -1.8291 -3.42748 0
M  V30 3880 H 366.983 -4.09259 -2.1285 0
M  V30 3881 H 365.226 -3.88014 -1.93978 0
M  V30 3882 H 365.897 -4.24112 -3.53317 0
M  V30 3883 H 368.373 -2.31574 -3.45706 0
M  V30 3884 H 367.249 -2.67582 -4.79261 0
M  V30 3885 H 367.51 -1.00879 -4.30437 0
M  V30 3886 N 366.569 1.04691 -1.17803 0
M  V30 3887 C 367.846 1.7472 -0.879328 0
M  V30 3888 C 368.226 2.01812 0.619271 0
M  V30 3889 O 367.574 1.65824 1.57209 0
M  V30 3890 C 367.784 3.03686 -1.71976 0
M  V30 3891 C 369.132 3.77542 -1.94286 0
M  V30 3892 O 370.156 3.13569 -1.68976 0
M  V30 3893 O 369.015 4.92506 -2.36855 0
M  V30 3894 H 366.109 0.760011 -0.326056 0
M  V30 3895 H 368.655 1.10813 -1.28525 0
M  V30 3896 H 367.427 2.79754 -2.73594 0
M  V30 3897 H 367.05 3.75332 -1.31194 0
M  V30 3898 N 368.047 0.979072 1.23499 0
M  V30 3899 C 369.277 0.664237 1.95631 0
M  V30 3900 C 369.685 -0.772653 1.72704 0
M  V30 3901 O 369.028 -1.53141 1.01457 0
M  V30 3902 C 369.09 0.873115 3.48736 0
M  V30 3903 C 368.754 2.29182 3.95379 0
M  V30 3904 C 369.751 3.2704 4.04155 0
M  V30 3905 C 367.436 2.62256 4.28401 0
M  V30 3906 C 369.43 4.56052 4.45304 0
M  V30 3907 C 367.117 3.91491 4.69231 0
M  V30 3908 C 368.115 4.88201 4.77649 0
M  V30 3909 O 367.803 6.15129 5.17563 0
M  V30 3910 H 367.535 0.245915 0.629684 0
M  V30 3911 H 370.089 1.3127 1.57979 0
M  V30 3912 H 368.319 0.167476 3.86337 0
M  V30 3913 H 370.008 0.555642 4.02079 0
M  V30 3914 H 370.774 3.02819 3.78848 0
M  V30 3915 H 366.653 1.87692 4.21061 0
M  V30 3916 H 370.197 5.31538 4.51789 0
M  V30 3917 H 366.094 4.15508 4.93987 0
M  V30 3918 H 366.862 6.18862 5.35679 0
M  V30 3919 N 369.525 -1.3858 0.750561 0
M  V30 3920 C 370.936 -1.82927 0.373438 0
M  V30 3921 C 371.287 -1.62634 -1.09748 0
M  V30 3922 O 370.412 -1.12588 -1.84805 0
M  V30 3923 C 371.007 -3.32088 0.671029 0
M  V30 3924 C 369.566 -3.74795 0.34722 0
M  V30 3925 C 368.713 -2.61391 0.92575 0
M  V30 3926 H 371.664 -1.27351 0.946958 0
M  V30 3927 H 371.685 -3.80465 -0.0518269 0
M  V30 3928 H 371.197 -3.46826 1.74164 0
M  V30 3929 H 369.298 -3.65638 -0.716933 0
M  V30 3930 H 369.411 -4.71667 0.840656 0
M  V30 3931 H 367.775 -2.52265 0.351327 0
M  V30 3932 H 368.558 -2.78929 2.00133 0
M  V30 3933 N 371.003 -0.499398 -1.49478 0
M  V30 3934 C 372.28 0.108629 -1.95298 0
M  V30 3935 C 372.66 1.54282 -1.44084 0
M  V30 3936 O 372.008 2.18944 -0.653908 0
M  V30 3937 C 372.218 0.0229111 -3.48992 0
M  V30 3938 C 373.566 0.197643 -4.2414 0
M  V30 3939 O 374.59 0.0981735 -3.56065 0
M  V30 3940 O 373.449 0.401669 -5.45022 0
M  V30 3941 H 370.543 0.096181 -0.821388 0
M  V30 3942 H 373.089 -0.561822 -1.6013 0
M  V30 3943 H 371.861 -0.977321 -3.78899 0
M  V30 3944 H 371.484 0.733579 -3.90774 0
M  V30 3945 N 372.481 1.55866 -0.233164 0
M  V30 3946 C 373.892 1.847 0.272554 0
M  V30 3947 C 374.243 1.15477 1.58617 0
M  V30 3948 O 373.368 0.42841 2.12117 0
M  V30 3949 C 373.963 3.35071 0.501299 0
M  V30 3950 C 372.522 3.6418 0.951304 0
M  V30 3951 C 371.669 2.77292 0.0208209 0
M  V30 3952 H 374.62 1.52005 -0.456074 0
M  V30 3953 H 374.641 3.55906 1.34577 0
M  V30 3954 H 374.153 3.85424 -0.454936 0
M  V30 3955 H 372.254 3.19293 1.92049 0
M  V30 3956 H 372.367 4.72071 0.817675 0
M  V30 3957 H 370.731 2.49131 0.529723 0
M  V30 3958 H 371.514 3.30448 -0.93054 0
M  V30 3959 N 373.959 -0.0401083 1.57549 0
M  V30 3960 C 374.906 -1.04413 2.05831 0
M  V30 3961 C 375.876 -1.36585 0.945184 0
M  V30 3962 O 377.061 -1.47112 1.21502 0
M  V30 3963 C 374.201 -2.34336 2.53339 0
M  V30 3964 C 373.314 -2.08419 3.78398 0
M  V30 3965 C 372.449 -3.32133 4.14561 0
M  V30 3966 C 371.488 -3.01721 5.3257 0
M  V30 3967 N 370.625 -4.17855 5.64218 0
M  V30 3968 H 375.465 -0.625442 2.91363 0
M  V30 3969 H 373.002 -0.297218 1.44066 0
M  V30 3970 H 374.96 -3.10234 2.78946 0
M  V30 3971 H 373.59 -2.73948 1.7074 0
M  V30 3972 H 372.642 -1.23069 3.59942 0
M  V30 3973 H 373.954 -1.81978 4.64419 0
M  V30 3974 H 373.108 -4.16406 4.41238 0
M  V30 3975 H 371.847 -3.61678 3.2717 0
M  V30 3976 H 370.852 -2.15849 5.05657 0
M  V30 3977 H 372.077 -2.73466 6.21605 0
M  V30 3978 H 370.023 -4.47372 4.79786 0
M  V30 3979 H 369.94 -3.94798 6.44725 0
M  V30 3980 H 371.208 -5.03033 5.95465 0
M  V30 3981 N 375.437 -1.54477 -0.31217 0
M  V30 3982 C 376.347 -1.87695 -1.4074 0
M  V30 3983 C 377.363 -0.769975 -1.56036 0
M  V30 3984 O 378.539 -1.06537 -1.70915 0
M  V30 3985 C 375.604 -2.10755 -2.75287 0
M  V30 3986 C 374.665 -3.34514 -2.69071 0
M  V30 3987 C 373.898 -3.56465 -3.97201 0
M  V30 3988 O 374.121 -2.81637 -4.96021 0
M  V30 3989 O 373.055 -4.49964 -3.9977 0
M  V30 3990 H 376.881 -2.80849 -1.15574 0
M  V30 3991 H 374.466 -1.40526 -0.507228 0
M  V30 3992 H 376.348 -2.27188 -3.54913 0
M  V30 3993 H 375.023 -1.20788 -3.0032 0
M  V30 3994 H 373.93 -3.23456 -1.87955 0
M  V30 3995 H 375.263 -4.24575 -2.48992 0
M  V30 3996 N 376.915 0.57481 -1.46744 0
M  V30 3997 C 377.845 1.69337 -1.60771 0
M  V30 3998 C 378.826 1.63825 -0.457736 0
M  V30 3999 O 380.011 1.8172 -0.684947 0
M  V30 4000 C 377.141 3.0798 -1.60517 0
M  V30 4001 C 376.095 3.28327 -2.74564 0
M  V30 4002 C 375.421 4.67578 -2.59373 0
M  V30 4003 C 376.721 3.15398 -4.16319 0
M  V30 4004 H 378.415 1.57853 -2.54407 0
M  V30 4005 H 375.961 0.75799 -1.22436 0
M  V30 4006 H 377.914 3.86061 -1.68923 0
M  V30 4007 H 376.638 3.20381 -0.634305 0
M  V30 4008 H 375.297 2.52649 -2.65639 0
M  V30 4009 H 374.945 4.76755 -1.60353 0
M  V30 4010 H 374.645 4.82144 -3.35873 0
M  V30 4011 H 376.169 5.47817 -2.69682 0
M  V30 4012 H 377.583 3.83315 -4.26313 0
M  V30 4013 H 375.98 3.41482 -4.93468 0
M  V30 4014 H 377.05 2.12372 -4.3592 0
M  V30 4015 N 378.394 1.34581 0.820102 0
M  V30 4016 C 379.619 1.30333 1.61332 0
M  V30 4017 C 380.044 -0.119339 1.87721 0
M  V30 4018 O 379.402 -1.08197 1.45475 0
M  V30 4019 C 379.45 2.10258 2.92957 0
M  V30 4020 O 378.554 1.47404 3.85157 0
M  V30 4021 H 377.895 0.447488 0.490561 0
M  V30 4022 H 380.425 1.77425 1.01889 0
M  V30 4023 H 380.435 2.21718 3.42498 0
M  V30 4024 H 379.11 3.13693 2.73074 0
M  V30 4025 H 377.687 1.44703 3.43679 0
M  V30 4026 N 379.872 -1.04064 1.18357 0
M  V30 4027 C 380.835 -2.10243 0.912707 0
M  V30 4028 C 381.835 -1.60477 -0.101928 0
M  V30 4029 O 383.025 -1.73703 0.131517 0
M  V30 4030 C 380.157 -3.38893 0.369387 0
M  V30 4031 H 381.35 -2.35706 1.85426 0
M  V30 4032 H 378.903 -1.20489 0.995594 0
M  V30 4033 H 379.638 -3.19094 -0.578776 0
M  V30 4034 H 379.423 -3.76331 1.1008 0
M  V30 4035 H 380.913 -4.17128 0.198575 0
M  V30 4036 N 381.35 -0.985608 -1.22978 0
M  V30 4037 C 382.26 -0.538548 -2.28335 0
M  V30 4038 C 383.276 0.409163 -1.69121 0
M  V30 4039 O 384.452 0.277797 -1.99475 0
M  V30 4040 C 381.517 0.146867 -3.46389 0
M  V30 4041 C 380.578 -0.842896 -4.20944 0
M  V30 4042 C 379.811 -0.190095 -5.33361 0
M  V30 4043 O 380.034 1.01767 -5.61248 0
M  V30 4044 O 378.968 -0.891289 -5.95264 0
M  V30 4045 H 382.794 -1.41487 -2.68729 0
M  V30 4046 H 380.379 -0.753495 -1.29007 0
M  V30 4047 H 382.261 0.531125 -4.1804 0
M  V30 4048 H 380.936 0.997871 -3.07935 0
M  V30 4049 H 379.843 -1.27795 -3.51595 0
M  V30 4050 H 381.176 -1.66287 -4.6326 0
M  V30 4051 N 382.828 1.3818 -0.7579 0
M  V30 4052 C 383.738 2.3421 -0.135247 0
M  V30 4053 C 384.754 1.59487 0.695683 0
M  V30 4054 O 385.93 1.91657 0.618832 0
M  V30 4055 C 382.995 3.3862 0.744139 0
M  V30 4056 C 382.056 4.2918 -0.101658 0
M  V30 4057 C 381.289 5.28603 0.735851 0
M  V30 4058 O 381.512 5.35166 1.97366 0
M  V30 4059 O 380.446 6.01707 0.152372 0
M  V30 4060 H 384.272 2.8916 -0.928436 0
M  V30 4061 H 381.857 1.40101 -0.518855 0
M  V30 4062 H 383.739 4.02539 1.2466 0
M  V30 4063 H 382.414 2.86019 1.51575 0
M  V30 4064 H 381.321 3.68407 -0.650167 0
M  V30 4065 H 382.654 4.85048 -0.836024 0
M  V30 4066 N 384.306 0.507319 1.49211 0
M  V30 4067 C 385.555 -0.0368315 2.01666 0
M  V30 4068 C 385.868 -1.37459 1.39156 0
M  V30 4069 O 387.074 -2.00579 1.82976 0
M  V30 4070 C 385.53 -0.116089 3.59713 0
M  V30 4071 C 385.138 1.2154 4.31198 0
M  V30 4072 C 386.882 -0.610268 4.2009 0
M  V30 4073 C 384.789 1.09796 5.81119 0
M  V30 4074 H 383.719 -0.0175376 0.753796 0
M  V30 4075 H 386.37 0.647691 1.71689 0
M  V30 4076 H 384.752 -0.8652 3.86433 0
M  V30 4077 H 385.926 1.9783 4.16173 0
M  V30 4078 H 384.241 1.64352 3.82593 0
M  V30 4079 H 386.838 -0.715742 5.29888 0
M  V30 4080 H 387.181 -1.61064 3.8388 0
M  V30 4081 H 387.714 0.0824916 3.97714 0
M  V30 4082 H 384.453 2.0728 6.21864 0
M  V30 4083 H 383.973 0.376058 5.9862 0
M  V30 4084 H 385.652 0.779281 6.4229 0
M  V30 4085 N 385.784 -1.5574 0.241426 0
M  V30 4086 C 386.747 -2.19877 -0.647063 0
M  V30 4087 C 387.747 -1.16642 -1.10686 0
M  V30 4088 O 388.937 -1.41757 -1.01245 0
M  V30 4089 C 386.069 -2.83797 -1.88871 0
M  V30 4090 H 387.262 -2.99772 -0.087574 0
M  V30 4091 H 384.815 -1.56298 -0.00813574 0
M  V30 4092 H 385.55 -2.07824 -2.48957 0
M  V30 4093 H 385.335 -3.59414 -1.56728 0
M  V30 4094 H 386.825 -3.32898 -2.52129 0
M  V30 4095 N 387.262 0.0317525 -1.57568 0
M  V30 4096 C 388.172 1.05021 -2.0978 0
M  V30 4097 C 389.188 1.39809 -1.03583 0
M  V30 4098 O 390.364 1.49182 -1.35302 0
M  V30 4099 C 387.429 2.33301 -2.56459 0
M  V30 4100 C 386.49 2.0512 -3.77127 0
M  V30 4101 C 385.723 3.27283 -4.2157 0
M  V30 4102 O 385.946 4.37861 -3.65559 0
M  V30 4103 O 384.88 3.13141 -5.14029 0
M  V30 4104 H 388.706 0.636505 -2.96955 0
M  V30 4105 H 386.291 0.248559 -1.47318 0
M  V30 4106 H 388.173 3.08722 -2.86825 0
M  V30 4107 H 386.848 2.73973 -1.72397 0
M  V30 4108 H 385.755 1.27276 -3.51784 0
M  V30 4109 H 387.088 1.69305 -4.62165 0
M  V30 4110 N 388.74 1.54641 0.303973 0
M  V30 4111 C 390.156 1.45788 0.649463 0
M  V30 4112 C 390.356 0.64666 1.90842 0
M  V30 4113 O 389.412 0.153183 2.52035 0
M  V30 4114 C 390.725 2.89718 0.805227 0
M  V30 4115 C 392.273 2.99742 0.901305 0
M  V30 4116 C 392.748 4.44863 1.08909 0
M  V30 4117 N 394.239 4.48559 1.15536 0
M  V30 4118 C 394.974 5.58026 1.3189 0
M  V30 4119 N 394.47 6.77422 1.45161 0
M  V30 4120 N 396.263 5.45708 1.34755 0
M  V30 4121 H 388.414 2.05854 -0.523237 0
M  V30 4122 H 390.677 0.932186 -0.172431 0
M  V30 4123 H 390.383 3.51666 -0.0489108 0
M  V30 4124 H 390.257 3.36964 1.69513 0
M  V30 4125 H 392.644 2.3791 1.74593 0
M  V30 4126 H 392.725 2.55797 -0.0125531 0
M  V30 4127 H 392.369 5.07288 0.249241 0
M  V30 4128 H 392.299 4.86436 2.01713 0
M  V30 4129 H 394.79 3.6254 1.06646 0
M  V30 4130 H 395.103 7.56604 1.57387 0
M  V30 4131 H 393.448 6.80292 1.42223 0
M  V30 4132 H 396.639 4.51378 1.23996 0
M  V30 4133 H 396.812 6.3107 1.47157 0
M  V30 4134 N 390.218 -0.567019 1.47046 0
M  V30 4135 C 391.151 -1.69016 1.53326 0
M  V30 4136 C 392.129 -1.57949 0.386126 0
M  V30 4137 O 393.313 -1.78945 0.592529 0
M  V30 4138 C 390.44 -3.07191 1.42658 0
M  V30 4139 C 389.486 -3.36733 2.6175 0
M  V30 4140 S 390.319 -3.27069 4.24012 0
M  V30 4141 C 391.475 -4.67755 4.1588 0
M  V30 4142 H 391.708 -1.63434 2.48348 0
M  V30 4143 H 389.241 -0.747048 1.35124 0
M  V30 4144 H 391.199 -3.86897 1.37191 0
M  V30 4145 H 389.86 -3.10249 0.490369 0
M  V30 4146 H 389.053 -4.37441 2.50323 0
M  V30 4147 H 388.655 -2.64627 2.64289 0
M  V30 4148 H 390.947 -5.58491 3.83529 0
M  V30 4149 H 391.89 -4.84239 5.16641 0
M  V30 4150 H 392.298 -4.45341 3.46889 0
M  V30 4151 N 391.696 -1.35014 -0.812953 0
M  V30 4152 C 392.944 -1.27678 -1.56661 0
M  V30 4153 C 393.265 0.150359 -1.94419 0
M  V30 4154 O 392.535 1.08532 -1.63088 0
M  V30 4155 H 391.115 -0.469602 -0.580933 0
M  V30 4156 H 393.777 -1.69043 -0.970076 0
M  V30 4157 H 392.873 -1.88833 -2.48492 0
M  V30 4158 N 393.175 1.03435 -1.18907 0
M  V30 4159 C 394.108 2.11162 -0.86521 0
M  V30 4160 C 395.086 1.6165 0.175473 0
M  V30 4161 O 396.27 1.88425 0.0530129 0
M  V30 4162 C 393.397 3.37423 -0.293868 0
M  V30 4163 C 392.443 4.05795 -1.31274 0
M  V30 4164 S 393.276 4.52027 -2.8711 0
M  V30 4165 C 394.432 5.81513 -2.31504 0
M  V30 4166 H 394.665 2.38308 -1.77754 0
M  V30 4167 H 392.198 1.16295 -1.01562 0
M  V30 4168 H 394.156 4.1049 0.0292572 0
M  V30 4169 H 392.817 3.0838 0.596682 0
M  V30 4170 H 392.01 4.96574 -0.86198 0
M  V30 4171 H 391.612 3.38874 -1.58242 0
M  V30 4172 H 393.904 6.55784 -1.70157 0
M  V30 4173 H 394.847 6.3136 -3.20608 0
M  V30 4174 H 395.255 5.36921 -1.74286 0
M  V30 4175 N 394.653 0.992116 1.22453 0
M  V30 4176 C 395.902 0.662992 1.90492 0
M  V30 4177 C 396.215 -0.808407 1.78113 0
M  V30 4178 O 397.421 -1.24908 2.41061 0
M  V30 4179 C 395.877 1.1353 3.41524 0
M  V30 4180 C 395.485 2.63187 3.62542 0
M  V30 4181 C 397.229 0.880465 4.15269 0
M  V30 4182 C 395.136 3.04024 5.0727 0
M  V30 4183 H 394.066 0.244278 0.713333 0
M  V30 4184 H 396.717 1.20157 1.38688 0
M  V30 4185 H 395.099 0.52485 3.92506 0
M  V30 4186 H 396.273 3.2957 3.22056 0
M  V30 4187 H 394.588 2.86543 3.02129 0
M  V30 4188 H 397.185 1.16128 5.21937 0
M  V30 4189 H 397.528 -0.183408 4.15896 0
M  V30 4190 H 398.061 1.45307 3.70312 0
M  V30 4191 H 394.8 4.09584 5.11782 0
M  V30 4192 H 394.32 2.42343 5.48662 0
M  V30 4193 H 395.999 2.95282 5.75689 0
M  V30 4194 N 396.131 -1.37776 0.765217 0
M  V30 4195 C 397.041 -2.34135 0.147666 0
M  V30 4196 C 398.057 -1.59854 -0.687215 0
M  V30 4197 O 399.233 -1.91983 -0.608659 0
M  V30 4198 C 396.298 -3.3901 -0.72617 0
M  V30 4199 C 395.359 -4.2912 0.124417 0
M  V30 4200 C 394.592 -5.28986 -0.707807 0
M  V30 4201 O 394.815 -5.36205 -1.94525 0
M  V30 4202 O 393.749 -6.01779 -0.12046 0
M  V30 4203 H 397.575 -2.88664 0.943758 0
M  V30 4204 H 395.16 -1.39824 0.526277 0
M  V30 4205 H 397.042 -4.03195 -1.22524 0
M  V30 4206 H 395.717 -2.86819 -1.50056 0
M  V30 4207 H 394.624 -3.68057 0.669696 0
M  V30 4208 H 395.957 -4.84598 0.861736 0
M  V30 4209 N 397.609 -0.515225 -1.4894 0
M  V30 4210 C 398.519 0.259774 -2.33157 0
M  V30 4211 C 399.535 0.953501 -1.45548 0
M  V30 4212 O 400.711 0.931735 -1.78552 0
M  V30 4213 C 397.776 1.30193 -3.21326 0
M  V30 4214 C 396.837 0.620129 -4.24797 0
M  V30 4215 C 396.07 1.61263 -5.08753 0
M  V30 4216 O 396.293 2.84389 -4.94448 0
M  V30 4217 O 395.227 1.16013 -5.90614 0
M  V30 4218 H 399.053 -0.429932 -3.00641 0
M  V30 4219 H 396.638 -0.276346 -1.46822 0
M  V30 4220 H 398.52 1.90455 -3.75905 0
M  V30 4221 H 397.195 1.97431 -2.56521 0
M  V30 4222 H 396.102 -0.0226019 -3.74093 0
M  V30 4223 H 397.435 -0.0100493 -4.92199 0
M  V30 4224 N 399.087 1.5561 -0.249682 0
M  V30 4225 C 399.997 2.25143 0.659375 0
M  V30 4226 C 401.013 1.2685 1.19101 0
M  V30 4227 O 402.189 1.59732 1.22669 0
M  V30 4228 C 399.254 2.93945 1.8384 0
M  V30 4229 C 398.315 4.07655 1.34596 0
M  V30 4230 C 397.548 4.73167 2.46878 0
M  V30 4231 O 397.771 4.37768 3.65671 0
M  V30 4232 O 396.705 5.61623 2.16478 0
M  V30 4233 H 400.531 3.03545 0.0968698 0
M  V30 4234 H 398.116 1.49389 -0.018074 0
M  V30 4235 H 399.998 3.37271 2.52638 0
M  V30 4236 H 398.673 2.18481 2.38847 0
M  V30 4237 H 397.58 3.68839 0.625174 0
M  V30 4238 H 398.913 4.84946 0.841941 0
M  V30 4239 N 400.565 -0.0233959 1.57583 0
M  V30 4240 C 401.475 -1.03907 2.10334 0
M  V30 4241 C 402.491 -1.39257 1.04323 0
M  V30 4242 O 403.667 -1.48462 1.36091 0
M  V30 4243 C 400.732 -2.31938 2.57693 0
M  V30 4244 C 399.793 -2.03117 3.78209 0
M  V30 4245 C 399.026 -3.25043 4.233 0
M  V30 4246 O 399.249 -4.35916 3.67876 0
M  V30 4247 O 398.183 -3.10411 5.15683 0
M  V30 4248 H 402.009 -0.620748 2.97288 0
M  V30 4249 H 399.594 -0.240743 1.47448 0
M  V30 4250 H 401.476 -3.07196 2.88458 0
M  V30 4251 H 400.151 -2.73055 1.73847 0
M  V30 4252 H 399.058 -1.25408 3.52454 0
M  V30 4253 H 400.391 -1.66852 4.63056 0
M  V30 4254 N 402.043 -1.548 -0.295768 0
M  V30 4255 C 403.268 -1.78653 -1.05346 0
M  V30 4256 C 403.693 -0.546894 -1.79974 0
M  V30 4257 O 403.051 0.502763 -1.7419 0
M  V30 4258 C 403.099 -2.99679 -2.00561 0
M  V30 4259 O 402.203 -2.7317 -3.08953 0
M  V30 4260 H 401.544 -0.59116 -0.302367 0
M  V30 4261 H 404.074 -2.01895 -0.331598 0
M  V30 4262 H 404.084 -3.27793 -2.42932 0
M  V30 4263 H 402.759 -3.89562 -1.4565 0
M  V30 4264 H 401.336 -2.56089 -2.71059 0
M  V30 4265 N 403.521 0.559213 -1.47345 0
M  V30 4266 C 404.798 1.31997 -1.44348 0
M  V30 4267 C 405.178 2.1064 -0.139358 0
M  V30 4268 O 404.526 2.1091 0.879153 0
M  V30 4269 C 404.736 2.22618 -2.68779 0
M  V30 4270 C 406.084 2.83701 -3.1591 0
M  V30 4271 O 407.108 2.32921 -2.69493 0
M  V30 4272 O 405.967 3.75993 -3.966 0
M  V30 4273 H 403.061 0.594251 -0.575147 0
M  V30 4274 H 405.607 0.578282 -1.59543 0
M  V30 4275 H 404.379 1.64093 -3.55231 0
M  V30 4276 H 404.002 3.04085 -2.5616 0
M  V30 4277 N 404.999 1.35443 0.805782 0
M  V30 4278 C 405.949 1.24972 1.90699 0
M  V30 4279 C 406.933 0.144806 1.60247 0
M  V30 4280 O 408.125 0.376102 1.72958 0
M  V30 4281 C 405.254 1.02475 3.27649 0
M  V30 4282 C 404.34 2.17361 3.64164 0
M  V30 4283 N 404.731 3.42591 3.72109 0
M  V30 4284 C 403.029 2.08765 3.94123 0
M  V30 4285 C 403.73 4.18144 4.04389 0
M  V30 4286 N 402.706 3.4691 4.18515 0
M  V30 4287 H 406.508 2.19852 1.95044 0
M  V30 4288 H 404.022 1.27928 1.00041 0
M  V30 4289 H 406.019 0.930617 4.06381 0
M  V30 4290 H 404.679 0.0848009 3.24589 0
M  V30 4291 H 405.69 3.76932 3.55166 0
M  V30 4292 H 402.367 1.22629 3.99084 0
M  V30 4293 H 403.757 5.26367 4.17597 0
M  V30 4294 N 406.477 -1.02803 1.19454 0
M  V30 4295 C 407.407 -2.12999 0.956758 0
M  V30 4296 C 408.388 -1.69743 -0.110188 0
M  V30 4297 O 409.573 -1.94148 0.0450038 0
M  V30 4298 C 406.703 -3.43746 0.495553 0
M  V30 4299 C 405.657 -4.00688 1.50443 0
M  V30 4300 C 404.983 -5.27067 0.900275 0
M  V30 4301 C 406.283 -4.35397 2.8849 0
M  V30 4302 H 407.977 -2.33148 1.87836 0
M  V30 4303 H 405.523 -1.12045 0.904539 0
M  V30 4304 H 407.476 -4.2021 0.316493 0
M  V30 4305 H 406.2 -3.23321 -0.461646 0
M  V30 4306 H 404.859 -3.2632 1.67065 0
M  V30 4307 H 404.507 -5.02959 -0.064503 0
M  V30 4308 H 404.207 -5.66127 1.57397 0
M  V30 4309 H 405.731 -6.06196 0.73203 0
M  V30 4310 H 407.145 -5.02795 2.75446 0
M  V30 4311 H 405.542 -4.85541 3.52661 0
M  V30 4312 H 406.612 -3.44662 3.41081 0
M  V30 4313 N 407.956 -0.998596 -1.21925 0
M  V30 4314 C 409.204 -0.676325 -1.90448 0
M  V30 4315 C 409.525 0.794719 -1.78071 0
M  V30 4316 O 408.795 1.5701 -1.17152 0
M  V30 4317 H 407.375 -0.247165 -0.704925 0
M  V30 4318 H 410.037 -1.26633 -1.48156 0
M  V30 4319 H 409.133 -0.943858 -2.97486 0
M  V30 4320 N 409.434 1.37368 -0.772513 0
M  V30 4321 C 410.68 2.00423 -0.3467 0
M  V30 4322 C 411.035 1.60224 1.06518 0
M  V30 4323 O 410.328 0.838712 1.72268 0
M  V30 4324 C 410.522 3.54817 -0.428876 0
M  V30 4325 C 410.351 4.10011 -1.84719 0
M  V30 4326 C 409.121 4.40927 -2.46803 0
M  V30 4327 C 411.319 4.30955 -2.80681 0
M  V30 4328 N 409.301 4.8184 -3.80399 0
M  V30 4329 C 410.672 4.74486 -3.99078 0
M  V30 4330 C 412.727 4.1309 -2.77958 0
M  V30 4331 C 411.43 5.02023 -5.15136 0
M  V30 4332 C 413.456 4.41764 -3.9319 0
M  V30 4333 C 412.818 4.85535 -5.10328 0
M  V30 4334 H 408.917 0.762413 -0.173927 0
M  V30 4335 H 411.501 1.66666 -1.00651 0
M  V30 4336 H 409.672 3.87881 0.200757 0
M  V30 4337 H 411.404 4.04696 0.0190668 0
M  V30 4338 H 408.159 4.30033 -1.98415 0
M  V30 4339 H 408.583 5.06604 -4.49089 0
M  V30 4340 H 413.225 3.7842 -1.88568 0
M  V30 4341 H 410.943 5.35582 -6.05126 0
M  V30 4342 H 414.529 4.29528 -3.92425 0
M  V30 4343 H 413.409 5.07296 -5.98013 0
M  V30 4344 N 410.912 0.523116 1.48665 0
M  V30 4345 C 411.822 -0.247406 2.33292 0
M  V30 4346 C 412.838 -0.945769 1.46052 0
M  V30 4347 O 414.014 -0.922253 1.79043 0
M  V30 4348 C 411.079 -1.28487 3.22012 0
M  V30 4349 C 410.14 -0.597592 4.2512 0
M  V30 4350 C 409.373 -1.58563 5.09601 0
M  V30 4351 O 409.596 -2.81763 4.95949 0
M  V30 4352 O 408.53 -1.12879 5.91221 0
M  V30 4353 H 412.356 0.445869 3.00409 0
M  V30 4354 H 409.941 0.284128 1.46673 0
M  V30 4355 H 411.823 -1.88459 3.7691 0
M  V30 4356 H 410.498 -1.96068 2.57564 0
M  V30 4357 H 409.405 0.0424407 3.74076 0
M  V30 4358 H 410.738 0.0361517 4.92187 0
M  V30 4359 N 412.39 -1.55475 0.257931 0
M  V30 4360 C 413.615 -2.04064 -0.370488 0
M  V30 4361 C 414.04 -1.13565 -1.49948 0
M  V30 4362 O 413.398 -0.130781 -1.80828 0
M  V30 4363 C 413.446 -3.50554 -0.845237 0
M  V30 4364 O 412.55 -3.63173 -1.95394 0
M  V30 4365 H 411.891 -0.659257 -0.0792243 0
M  V30 4366 H 414.421 -2.00903 0.387212 0
M  V30 4367 H 414.431 -3.91588 -1.14555 0
M  V30 4368 H 413.106 -4.15896 -0.0191259 0
M  V30 4369 H 411.683 -3.34039 -1.65748 0
M  V30 4370 N 413.868 0.0150385 -1.57593 0
M  V30 4371 C 414.798 1.01047 -2.10503 0
M  V30 4372 C 415.779 1.36816 -1.01071 0
M  V30 4373 O 416.964 1.45455 -1.28672 0
M  V30 4374 C 414.094 2.30708 -2.59598 0
M  V30 4375 C 413.048 2.09142 -3.73421 0
M  V30 4376 C 412.374 3.44685 -4.08774 0
M  V30 4377 C 413.674 1.46619 -5.01298 0
M  V30 4378 H 415.368 0.569978 -2.93925 0
M  V30 4379 H 412.914 0.272724 -1.41394 0
M  V30 4380 H 414.867 3.00687 -2.95238 0
M  V30 4381 H 413.591 2.76843 -1.73279 0
M  V30 4382 H 412.25 1.41592 -3.38153 0
M  V30 4383 H 411.898 3.88495 -3.195 0
M  V30 4384 H 411.598 3.31077 -4.8545 0
M  V30 4385 H 413.122 4.16004 -4.4696 0
M  V30 4386 H 414.536 2.06535 -5.34805 0
M  V30 4387 H 412.933 1.43544 -5.82679 0
M  V30 4388 H 414.003 0.433611 -4.82957 0
M  V30 4389 N 415.346 1.54954 0.287554 0
M  V30 4390 C 416.757 1.65732 0.859634 0
M  V30 4391 C 417.108 0.574767 1.87592 0
M  V30 4392 O 416.233 -0.286299 2.14498 0
M  V30 4393 C 416.828 3.00438 1.56597 0
M  V30 4394 C 415.387 3.13292 2.08627 0
M  V30 4395 C 414.534 2.61473 0.923416 0
M  V30 4396 H 417.485 1.5857 0.0642338 0
M  V30 4397 H 417.506 2.92613 2.43224 0
M  V30 4398 H 417.018 3.79207 0.826053 0
M  V30 4399 H 415.119 2.39268 2.85625 0
M  V30 4400 H 415.232 4.19647 2.31157 0
M  V30 4401 H 413.596 2.18264 1.31275 0
M  V30 4402 H 414.379 3.42733 0.197241 0
M  V30 4403 N 416.824 -0.551391 1.4764 0
M  V30 4404 C 418.052 -1.33357 1.58189 0
M  V30 4405 C 418.467 -1.87342 0.234199 0
M  V30 4406 O 417.824 -1.65301 -0.77343 0
M  V30 4407 C 417.875 -2.49942 2.61173 0
M  V30 4408 O 417.596 -1.98187 3.90709 0
M  V30 4409 C 419.097 -3.42072 2.8196 0
M  V30 4410 H 416.317 -0.40631 0.533998 0
M  V30 4411 H 418.861 -0.667367 1.93304 0
M  V30 4412 H 417.016 -3.12489 2.28975 0
M  V30 4413 H 417.43 -2.74342 4.47031 0
M  V30 4414 H 418.904 -4.20278 3.57869 0
M  V30 4415 H 419.381 -3.95978 1.89995 0
M  V30 4416 H 419.987 -2.85336 3.15378 0
M  V30 4417 N 418.302 -1.35869 -0.798587 0
M  V30 4418 C 419.579 -1.20145 -1.54352 0
M  V30 4419 C 419.959 0.216161 -2.0999 0
M  V30 4420 O 419.307 1.22068 -1.93162 0
M  V30 4421 C 419.517 -2.27602 -2.64572 0
M  V30 4422 C 420.865 -2.63811 -3.32699 0
M  V30 4423 O 421.889 -2.26576 -2.74849 0
M  V30 4424 O 420.748 -3.27866 -4.37226 0
M  V30 4425 H 417.842 -0.467248 -0.682355 0
M  V30 4426 H 420.388 -1.47574 -0.837859 0
M  V30 4427 H 419.16 -3.2265 -2.21388 0
M  V30 4428 H 418.783 -2.01488 -3.42766 0
M  V30 4429 N 419.78 1.02168 -1.19998 0
M  V30 4430 C 421.191 1.57135 -1.00825 0
M  V30 4431 C 421.542 1.91276 0.436818 0
M  V30 4432 O 420.667 1.71679 1.3174 0
M  V30 4433 C 421.262 2.85514 -1.82393 0
M  V30 4434 C 419.821 3.37027 -1.67601 0
M  V30 4435 C 418.968 2.10388 -1.80644 0
M  V30 4436 H 421.919 0.846106 -1.34264 0
M  V30 4437 H 421.94 3.56711 -1.32429 0
M  V30 4438 H 421.452 2.60634 -2.87561 0
M  V30 4439 H 419.553 3.66878 -0.650485 0
M  V30 4440 H 419.666 4.09572 -2.4857 0
M  V30 4441 H 418.03 2.22601 -1.23778 0
M  V30 4442 H 418.813 1.8794 -2.87286 0
M  V30 4443 N 421.258 1.00505 1.21394 0
M  V30 4444 C 422.674 0.717873 1.42544 0
M  V30 4445 C 422.874 -0.706936 1.88692 0
M  V30 4446 O 421.93 -1.47627 2.04847 0
M  V30 4447 C 423.243 1.73377 2.45684 0
M  V30 4448 C 424.791 1.75059 2.59467 0
M  V30 4449 C 425.266 2.75545 3.6584 0
M  V30 4450 N 426.757 2.74213 3.73311 0
M  V30 4451 C 427.492 3.48626 4.55245 0
M  V30 4452 N 426.988 4.32678 5.41075 0
M  V30 4453 N 428.781 3.37276 4.49668 0
M  V30 4454 H 420.932 1.92506 0.897503 0
M  V30 4455 H 423.195 0.830919 0.456375 0
M  V30 4456 H 422.901 2.75395 2.18748 0
M  V30 4457 H 422.775 1.53647 3.44489 0
M  V30 4458 H 425.162 0.737337 2.8574 0
M  V30 4459 H 425.243 1.98861 1.60897 0
M  V30 4460 H 424.887 3.77028 3.40313 0
M  V30 4461 H 424.817 2.49009 4.64007 0
M  V30 4462 H 427.308 2.13234 3.11993 0
M  V30 4463 H 427.621 4.86253 6.00648 0
M  V30 4464 H 425.966 4.3676 5.40616 0
M  V30 4465 H 429.157 2.71043 3.81646 0
M  V30 4466 H 429.33 3.95524 5.13288 0
M  V30 4467 N 422.737 -1.36956 0.779787 0
M  V30 4468 C 423.7 -2.2851 0.177662 0
M  V30 4469 C 424.7 -1.48393 -0.619377 0
M  V30 4470 O 425.89 -1.68505 -0.441785 0
M  V30 4471 C 423.022 -3.32428 -0.755279 0
M  V30 4472 H 424.215 -2.83269 0.984823 0
M  V30 4473 H 421.768 -1.46358 0.548544 0
M  V30 4474 H 422.503 -2.82808 -1.58714 0
M  V30 4475 H 422.288 -3.91659 -0.185817 0
M  V30 4476 H 423.778 -4.00824 -1.17174 0
M  V30 4477 N 424.215 -0.530993 -1.48385 0
M  V30 4478 C 425.147 0.268353 -2.27624 0
M  V30 4479 C 426.16 0.903525 -1.35426 0
M  V30 4480 O 427.349 0.781796 -1.60469 0
M  V30 4481 C 424.449 1.39535 -3.08842 0
M  V30 4482 C 423.622 0.861913 -4.28824 0
M  V30 4483 C 422.681 1.87016 -4.91845 0
M  V30 4484 O 421.707 1.4267 -5.5103 0
M  V30 4485 N 422.909 3.20238 -4.84178 0
M  V30 4486 H 425.674 -0.41123 -2.96865 0
M  V30 4487 H 423.235 -0.365387 -1.57723 0
M  V30 4488 H 425.227 2.06803 -3.47871 0
M  V30 4489 H 423.797 1.97859 -2.42014 0
M  V30 4490 H 423.017 0.0132126 -3.94198 0
M  V30 4491 H 424.305 0.484415 -5.06489 0
M  V30 4492 H 423.703 3.58932 -4.37246 0
M  V30 4493 H 422.26 3.83136 -5.27305 0
M  V30 4494 N 425.693 1.55336 -0.266172 0
M  V30 4495 C 426.603 2.2583 0.635458 0
M  V30 4496 C 427.619 1.28106 1.17749 0
M  V30 4497 O 428.795 1.61024 1.20968 0
M  V30 4498 C 425.86 2.95879 1.80712 0
M  V30 4499 C 424.921 4.09059 1.30265 0
M  V30 4500 C 424.154 4.75759 2.41846 0
M  V30 4501 O 424.377 4.41622 3.61007 0
M  V30 4502 O 423.311 5.63888 2.1051 0
M  V30 4503 H 427.137 3.03631 0.0646693 0
M  V30 4504 H 424.722 1.49361 -0.0339177 0
M  V30 4505 H 426.604 3.39932 2.49047 0
M  V30 4506 H 425.279 2.21002 2.36516 0
M  V30 4507 H 424.186 3.69482 0.586019 0
M  V30 4508 H 425.519 4.85811 0.790458 0
M  V30 4509 N 427.171 -0.0066808 1.57599 0
M  V30 4510 C 428.448 -0.729586 1.81484 0
M  V30 4511 C 428.828 -1.92359 0.869558 0
M  V30 4512 O 428.176 -2.28348 -0.0832533 0
M  V30 4513 C 428.386 -1.1416 3.29801 0
M  V30 4514 C 429.734 -1.54823 3.95367 0
M  V30 4515 O 430.758 -1.23558 3.34084 0
M  V30 4516 O 429.617 -2.12937 5.03309 0
M  V30 4517 H 426.711 -0.354674 0.747085 0
M  V30 4518 H 429.257 0.0182609 1.6969 0
M  V30 4519 H 428.029 -0.290231 3.90222 0
M  V30 4520 H 427.652 -1.94876 3.46568 0
M  V30 4521 N 428.649 -1.55105 -0.279332 0
M  V30 4522 C 429.597 -1.88333 -1.36505 0
M  V30 4523 C 430.591 -0.759043 -1.51443 0
M  V30 4524 O 431.797 -0.943312 -1.53302 0
M  V30 4525 H 428.172 -0.59766 -0.456406 0
M  V30 4526 H 430.143 -2.79041 -1.05728 0
M  V30 4527 C 428.892 -2.16628 -2.7197 0
M  V30 4528 H 428.215 -3.02624 -2.61264 0
M  V30 4529 H 429.655 -2.43803 -3.46895 0
M  V30 4530 C 428.114 -0.971807 -3.22579 0
M  V30 4531 O 428.644 -0.203228 -4.01186 0
M  V30 4532 N 426.85 -0.771238 -2.80179 0
M  V30 4533 H 426.397 -1.39792 -2.1637 0
M  V30 4534 H 426.355 0.0263667 -3.14389 0
M  V30 4535 N 430.127 0.543554 -1.4793 0
M  V30 4536 C 431.352 1.32995 -1.59145 0
M  V30 4537 C 431.777 1.86472 -0.246956 0
M  V30 4538 O 431.135 1.63696 0.779324 0
M  V30 4539 C 431.183 2.46623 -2.63077 0
M  V30 4540 O 430.287 3.49261 -2.19295 0
M  V30 4541 H 429.628 0.394472 -0.534124 0
M  V30 4542 H 432.158 0.655489 -1.93816 0
M  V30 4543 H 432.168 2.93001 -2.83926 0
M  V30 4544 H 430.843 2.07059 -3.60693 0
M  V30 4545 H 429.42 3.09094 -2.08603 0
M  V30 4546 N 431.605 1.3629 0.791371 0
M  V30 4547 C 432.851 1.30605 1.55146 0
M  V30 4548 C 433.184 -0.115042 1.93859 0
M  V30 4549 O 432.459 -1.06798 1.62556 0
M  V30 4550 C 432.742 2.22692 2.82985 0
M  V30 4551 C 432.595 3.73489 2.50651 0
M  V30 4552 C 433.914 2.13588 3.84796 0
M  V30 4553 H 431.033 0.475761 0.562868 0
M  V30 4554 H 433.675 1.66825 0.909358 0
M  V30 4555 H 431.825 1.91933 3.37778 0
M  V30 4556 H 433.497 4.14758 2.01924 0
M  V30 4557 H 431.74 3.93021 1.83622 0
M  V30 4558 H 432.411 4.3333 3.41949 0
M  V30 4559 H 434.887 2.40659 3.39445 0
M  V30 4560 H 433.763 2.80195 4.71998 0
M  V30 4561 H 434.024 1.12256 4.27611 0
M  V30 4562 N 433.083 -1.0153 1.20538 0
M  V30 4563 C 434.311 -1.78746 1.04199 0
M  V30 4564 C 434.726 -1.84323 -0.408733 0
M  V30 4565 O 434.083 -1.29714 -1.28377 0
M  V30 4566 C 434.134 -3.23152 1.62035 0
M  V30 4567 O 433.855 -3.17918 3.0143 0
M  V30 4568 C 435.356 -4.16911 1.50666 0
M  V30 4569 H 432.576 -0.56208 0.366479 0
M  V30 4570 H 435.12 -1.27794 1.59653 0
M  V30 4571 H 433.275 -3.71248 1.10697 0
M  V30 4572 H 433.689 -4.08567 3.28897 0
M  V30 4573 H 435.163 -5.16072 1.95892 0
M  V30 4574 H 435.64 -4.36791 0.459363 0
M  V30 4575 H 436.246 -3.74698 2.01201 0
M  V30 4576 N 434.561 -1.01147 -1.20859 0
M  V30 4577 C 435.786 -0.716698 -1.94623 0
M  V30 4578 C 436.211 0.715415 -1.73964 0
M  V30 4579 O 435.569 1.49157 -1.03062 0
M  V30 4580 C 435.617 -1.0513 -3.44935 0
M  V30 4581 O 434.721 -0.160131 -4.12089 0
M  V30 4582 H 434.062 -0.266404 -0.608214 0
M  V30 4583 H 436.592 -1.35346 -1.53436 0
M  V30 4584 H 436.602 -1.00086 -3.95533 0
M  V30 4585 H 435.277 -2.09475 -3.59295 0
M  V30 4586 H 433.854 -0.267657 -3.71938 0
M  V30 4587 N 436.039 1.36541 -0.78704 0
M  V30 4588 C 437.279 2.01138 -0.363714 0
M  V30 4589 C 437.643 1.61114 1.04433 0
M  V30 4590 O 438.844 2.18285 1.56861 0
M  V30 4591 C 437.115 3.53603 -0.519582 0
M  V30 4592 S 438.674 4.38415 -0.183782 0
M  V30 4593 H 435.492 0.697263 -0.13909 0
M  V30 4594 H 438.094 1.66475 -1.02501 0
M  V30 4595 H 436.798 3.8022 -1.5447 0
M  V30 4596 H 436.329 3.93084 0.15773 0
M  V30 4597 H 438.344 4.85698 1.01547 0
M  V30 4598 N 437.518 0.538854 1.48102 0
M  V30 4599 C 438.795 -0.0568108 1.95517 0
M  V30 4600 C 439.175 -1.50408 1.48124 0
M  V30 4601 O 438.523 -2.17133 0.711727 0
M  V30 4602 C 438.733 0.0696262 3.48931 0
M  V30 4603 C 440.081 -0.0851202 4.24515 0
M  V30 4604 O 441.105 -0.0037347 3.562 0
M  V30 4605 O 439.964 -0.257025 5.45895 0
M  V30 4606 H 437.058 -0.0743695 0.823649 0
M  V30 4607 H 439.604 0.604081 1.58584 0
M  V30 4608 H 438.376 1.07744 3.76174 0
M  V30 4609 H 437.999 -0.629714 3.92582 0
M  V30 4610 N 438.996 -1.55193 0.274407 0
M  V30 4611 C 440.407 -1.85358 -0.223488 0
M  V30 4612 C 440.758 -1.19642 -1.555 0
M  V30 4613 O 439.883 -0.484498 -2.10907 0
M  V30 4614 C 440.478 -3.36282 -0.412285 0
M  V30 4615 C 439.037 -3.66574 -0.854413 0
M  V30 4616 C 438.184 -2.7725 0.0527056 0
M  V30 4617 H 441.135 -1.50743 0.496215 0
M  V30 4618 H 441.156 -3.59349 -1.25094 0
M  V30 4619 H 440.668 -3.84083 0.556965 0
M  V30 4620 H 438.769 -3.24273 -1.83516 0
M  V30 4621 H 438.882 -4.74073 -0.692226 0
M  V30 4622 H 437.246 -2.50447 -0.463484 0
M  V30 4623 H 438.029 -3.27865 1.01783 0
M  V30 4624 N 440.474 -0.00167713 -1.576 0
M  V30 4625 C 441.421 0.989195 -2.08527 0
M  V30 4626 C 442.391 1.34031 -0.981065 0
M  V30 4627 O 443.576 1.43839 -1.2536 0
M  V30 4628 C 440.716 2.27537 -2.59463 0
M  V30 4629 C 439.829 1.98314 -3.83791 0
M  V30 4630 C 438.964 3.21025 -4.23222 0
M  V30 4631 C 438.003 2.87495 -5.40382 0
M  V30 4632 N 437.14 4.02749 -5.75098 0
M  V30 4633 H 441.98 0.547973 -2.92919 0
M  V30 4634 H 439.517 0.258917 -1.44803 0
M  V30 4635 H 441.475 3.02729 -2.87073 0
M  V30 4636 H 440.105 2.69325 -1.77943 0
M  V30 4637 H 439.157 1.13482 -3.63078 0
M  V30 4638 H 440.469 1.69601 -4.69081 0
M  V30 4639 H 439.623 4.04561 -4.52123 0
M  V30 4640 H 438.362 3.52877 -3.36644 0
M  V30 4641 H 437.367 2.02367 -5.11202 0
M  V30 4642 H 438.592 2.56889 -6.28637 0
M  V30 4643 H 436.538 4.34494 -4.91478 0
M  V30 4644 H 436.455 3.77566 -6.54966 0
M  V30 4645 H 437.723 4.87068 -6.08592 0
M  V30 4646 N 441.952 1.55251 0.271103 0
M  V30 4647 C 443.363 1.66635 0.842007 0
M  V30 4648 C 443.714 0.594631 1.86972 0
M  V30 4649 O 442.839 -0.263532 2.14789 0
M  V30 4650 C 443.434 3.02082 1.53401 0
M  V30 4651 C 441.993 3.15487 2.05293 0
M  V30 4652 C 441.14 2.62438 0.895631 0
M  V30 4653 H 444.091 1.58629 0.0474117 0
M  V30 4654 H 444.112 2.95176 2.40107 0
M  V30 4655 H 443.624 3.80062 0.785786 0
M  V30 4656 H 441.725 2.42284 2.83071 0
M  V30 4657 H 441.838 4.22075 2.26693 0
M  V30 4658 H 440.202 2.19644 1.28953 0
M  V30 4659 H 440.985 3.42923 0.160878 0
M  V30 4660 N 443.43 -0.535701 1.48216 0
M  V30 4661 C 444.34 -1.66785 1.64985 0
M  V30 4662 C 445.356 -1.65654 0.532414 0
M  V30 4663 O 446.532 -1.8471 0.80275 0
M  V30 4664 C 443.597 -3.0326 1.68031 0
M  V30 4665 C 442.658 -3.1529 2.9136 0
M  V30 4666 C 441.891 -4.45255 2.94252 0
M  V30 4667 O 442.114 -5.32011 2.05719 0
M  V30 4668 O 441.048 -4.6153 3.86359 0
M  V30 4669 H 444.874 -1.55576 2.60825 0
M  V30 4670 H 442.459 -0.70815 1.31551 0
M  V30 4671 H 444.341 -3.84436 1.72589 0
M  V30 4672 H 443.016 -3.14805 0.753628 0
M  V30 4673 H 441.923 -2.3343 2.92337 0
M  V30 4674 H 443.256 -3.08658 3.83394 0
M  V30 4675 N 444.908 -1.36708 -0.784132 0
M  V30 4676 C 446.136 -1.34398 -1.57305 0
M  V30 4677 C 446.551 0.0735577 -1.88657 0
M  V30 4678 O 445.908 1.03193 -1.50524 0
M  V30 4679 C 445.959 -2.17053 -2.89085 0
M  V30 4680 O 445.68 -3.53281 -2.59083 0
M  V30 4681 C 447.181 -2.22583 -3.83369 0
M  V30 4682 H 444.401 -0.460819 -0.487736 0
M  V30 4683 H 446.945 -1.79879 -0.972819 0
M  V30 4684 H 445.1 -1.75113 -3.45564 0
M  V30 4685 H 445.514 -3.9647 -3.43383 0
M  V30 4686 H 446.988 -2.84763 -4.72878 0
M  V30 4687 H 447.465 -1.23075 -4.21603 0
M  V30 4688 H 448.071 -2.64781 -3.32823 0
M  V30 4689 N 446.386 1.0089 -1.21074 0
M  V30 4690 C 447.626 1.76142 -1.03699 0
M  V30 4691 C 447.99 1.87292 0.422587 0
M  V30 4692 O 449.191 2.59068 0.716752 0
M  V30 4693 C 447.462 3.13805 -1.7106 0
M  V30 4694 S 449.021 4.04996 -1.68889 0
M  V30 4695 H 445.839 0.606113 -0.371683 0
M  V30 4696 H 448.441 1.20744 -1.53756 0
M  V30 4697 H 447.145 3.0332 -2.76451 0
M  V30 4698 H 446.676 3.74276 -1.21166 0
M  V30 4699 H 448.691 4.90842 -0.727211 0
M  V30 4700 N 447.864 1.01787 1.20321 0
M  V30 4701 C 449.089 0.727009 1.9424 0
M  V30 4702 C 449.514 -0.706179 1.74341 0
M  V30 4703 O 448.872 -1.48609 1.03852 0
M  V30 4704 C 448.92 1.06958 3.44372 0
M  V30 4705 O 448.024 0.181983 4.11998 0
M  V30 4706 H 447.365 0.269626 0.606793 0
M  V30 4707 H 449.895 1.36158 1.52716 0
M  V30 4708 H 449.905 1.02182 3.94997 0
M  V30 4709 H 448.58 2.11378 3.58179 0
M  V30 4710 H 447.157 0.287378 3.71791 0
M  V30 4711 N 449.342 -1.36122 0.79427 0
M  V30 4712 C 450.582 -2.00942 0.374376 0
M  V30 4713 C 450.946 -1.61666 -1.03577 0
M  V30 4714 O 452.147 -2.19113 -1.55701 0
M  V30 4715 C 450.418 -3.53323 0.538327 0
M  V30 4716 S 451.977 -4.38311 0.20703 0
M  V30 4717 H 448.795 -0.696515 0.142785 0
M  V30 4718 H 451.397 -1.65929 1.03382 0
M  V30 4719 H 450.101 -3.79395 1.56484 0
M  V30 4720 H 449.632 -3.93162 -0.136882 0
M  V30 4721 H 451.647 -4.8623 -0.989695 0
M  V30 4722 N 450.82 -0.546701 -1.47814 0
M  V30 4723 C 452.06 -0.0209604 -2.04389 0
M  V30 4724 C 452.424 1.29993 -1.413 0
M  V30 4725 O 453.625 1.91273 -1.8886 0
M  V30 4726 C 451.896 0.0812844 -3.57308 0
M  V30 4727 S 453.455 0.55467 -4.3528 0
M  V30 4728 H 450.273 -0.0200865 -0.710716 0
M  V30 4729 H 452.875 -0.731055 -1.81317 0
M  V30 4730 H 451.579 -0.884616 -4.00753 0
M  V30 4731 H 451.11 0.815253 -3.8486 0
M  V30 4732 H 453.125 1.81627 -4.61764 0
M  V30 4733 N 452.299 1.55045 -0.282633 0
M  V30 4734 C 453.546 1.9976 0.33199 0
M  V30 4735 C 453.874 1.17105 1.55295 0
M  V30 4736 O 453.129 0.230599 1.94337 0
M  V30 4737 C 453.428 3.49422 0.750938 0
M  V30 4738 C 453.094 4.4941 -0.366228 0
M  V30 4739 C 451.756 4.76471 -0.672964 0
M  V30 4740 C 454.108 5.09054 -1.11864 0
M  V30 4741 C 451.436 5.60442 -1.73556 0
M  V30 4742 C 453.788 5.9418 -2.17102 0
M  V30 4743 C 452.452 6.19558 -2.48402 0
M  V30 4744 H 451.722 0.730974 0.121484 0
M  V30 4745 H 454.369 1.8732 -0.39791 0
M  V30 4746 H 452.674 3.59377 1.56063 0
M  V30 4747 H 454.371 3.81432 1.23736 0
M  V30 4748 H 450.961 4.2844 -0.117041 0
M  V30 4749 H 455.145 4.88165 -0.894925 0
M  V30 4750 H 450.401 5.78349 -1.983 0
M  V30 4751 H 454.575 6.39427 -2.75873 0
M  V30 4752 H 452.202 6.84417 -3.30874 0
M  V30 4753 N 453.777 0.010035 1.57597 0
M  V30 4754 C 454.727 -0.986858 2.05536 0
M  V30 4755 C 455.711 -1.29711 0.952042 0
M  V30 4756 O 456.903 -1.28641 1.21575 0
M  V30 4757 C 454.032 -2.2756 2.57043 0
M  V30 4758 C 453.118 -1.99455 3.74271 0
M  V30 4759 N 453.509 -1.41546 4.85591 0
M  V30 4760 C 451.807 -2.29547 3.82393 0
M  V30 4761 C 452.508 -1.3014 5.66956 0
M  V30 4762 N 451.484 -1.79044 5.13268 0
M  V30 4763 H 455.286 -0.533778 2.89012 0
M  V30 4764 H 452.8 -0.195432 1.6122 0
M  V30 4765 H 454.797 -2.99829 2.89669 0
M  V30 4766 H 453.457 -2.73512 1.7499 0
M  V30 4767 H 454.468 -1.09294 5.06236 0
M  V30 4768 H 451.145 -2.78304 3.11213 0
M  V30 4769 H 452.535 -0.855237 6.66435 0
M  V30 4770 N 455.255 -1.55392 -0.262866 0
M  V30 4771 C 456.165 -1.92077 -1.34698 0
M  V30 4772 C 457.181 -0.819227 -1.53508 0
M  V30 4773 O 458.357 -1.11921 -1.67439 0
M  V30 4774 C 455.422 -2.19407 -2.68443 0
M  V30 4775 C 454.483 -3.42905 -2.58292 0
M  V30 4776 C 453.716 -3.68921 -3.85659 0
M  V30 4777 O 453.939 -2.97275 -4.8681 0
M  V30 4778 O 452.873 -4.62455 -3.85252 0
M  V30 4779 H 456.699 -2.84384 -1.06581 0
M  V30 4780 H 454.284 -1.42069 -0.462264 0
M  V30 4781 H 456.166 -2.38365 -3.47506 0
M  V30 4782 H 454.841 -1.30282 -2.96325 0
M  V30 4783 H 453.748 -3.29272 -1.7757 0
M  V30 4784 H 455.081 -4.32282 -2.35358 0
M  V30 4785 N 456.733 0.527833 -1.48498 0
M  V30 4786 C 458.01 1.28905 -1.47115 0
M  V30 4787 C 458.39 2.10297 -0.184007 0
M  V30 4788 O 457.738 2.12728 0.834218 0
M  V30 4789 C 457.948 2.16866 -2.73441 0
M  V30 4790 C 459.296 2.76936 -3.21857 0
M  V30 4791 O 460.32 2.27152 -2.74373 0
M  V30 4792 O 459.179 3.67496 -4.04486 0
M  V30 4793 H 456.273 0.581918 -0.587623 0
M  V30 4794 H 458.819 0.544311 -1.60734 0
M  V30 4795 H 457.591 1.56521 -3.58632 0
M  V30 4796 H 457.214 2.98583 -2.62553 0
M  V30 4797 N 458.211 1.37122 0.776871 0
M  V30 4798 C 459.121 1.34651 1.9211 0
M  V30 4799 C 460.137 0.246824 1.7224 0
M  V30 4800 O 461.313 0.48134 1.95563 0
M  V30 4801 C 458.378 1.14748 3.2716 0
M  V30 4802 C 457.439 2.34308 3.5972 0
M  V30 4803 C 456.672 2.15345 4.88326 0
M  V30 4804 O 456.895 1.13507 5.58992 0
M  V30 4805 O 455.829 3.03414 5.1983 0
M  V30 4806 H 459.655 2.31013 1.97146 0
M  V30 4807 H 457.24 1.17799 0.918901 0
M  V30 4808 H 459.122 1.05616 4.0795 0
M  V30 4809 H 457.797 0.214562 3.22988 0
M  V30 4810 H 456.704 2.49011 2.79185 0
M  V30 4811 H 458.037 3.26149 3.68629 0
M  V30 4812 N 459.689 -1.00246 1.21608 0
M  V30 4813 C 460.966 -1.71336 0.943568 0
M  V30 4814 C 461.346 -2.03972 -0.543943 0
M  V30 4815 O 460.694 -1.71545 -1.50946 0
M  V30 4816 C 460.904 -2.97094 1.83128 0
M  V30 4817 C 462.252 -3.70071 2.08165 0
M  V30 4818 O 463.276 -3.07081 1.80498 0
M  V30 4819 O 462.135 -4.83376 2.54971 0
M  V30 4820 H 459.229 -0.747386 0.354039 0
M  V30 4821 H 461.775 -1.05967 1.32549 0
M  V30 4822 H 460.547 -2.69407 2.83788 0
M  V30 4823 H 460.17 -3.70204 1.45034 0
M  V30 4824 N 461.167 -1.02423 -1.1978 0
M  V30 4825 C 462.578 -0.748389 -1.71044 0
M  V30 4826 C 462.929 0.732398 -1.82017 0
M  V30 4827 O 462.054 1.57116 -1.48807 0
M  V30 4828 C 462.649 -1.35187 -3.1066 0
M  V30 4829 C 461.208 -1.12472 -3.59203 0
M  V30 4830 C 460.355 -1.45283 -2.36195 0
M  V30 4831 H 463.306 -1.19275 -1.04686 0
M  V30 4832 H 463.327 -0.746408 -3.73107 0
M  V30 4833 H 462.839 -2.4296 -3.02642 0
M  V30 4834 H 460.94 -0.0649983 -3.72543 0
M  V30 4835 H 461.053 -1.81016 -4.43588 0
M  V30 4836 H 459.417 -0.872034 -2.39307 0
M  V30 4837 H 460.2 -2.54129 -2.30811 0
M  V30 4838 N 462.645 1.35699 -0.801477 0
M  V30 4839 C 463.608 2.28199 -0.213994 0
M  V30 4840 C 464.608 1.49359 0.595691 0
M  V30 4841 O 465.798 1.69186 0.414921 0
M  V30 4842 C 462.93 3.33587 0.702297 0
M  V30 4843 H 464.123 2.81666 -1.02976 0
M  V30 4844 H 461.676 1.45467 -0.571759 0
M  V30 4845 H 462.411 2.85297 1.54195 0
M  V30 4846 H 462.196 3.91906 0.123484 0
M  V30 4847 H 463.686 4.02638 1.10783 0
M  V30 4848 N 464.123 0.554532 1.47522 0
M  V30 4849 C 465.369 0.0295227 2.02779 0
M  V30 4850 C 465.702 -1.31582 1.42828 0
M  V30 4851 O 464.977 -1.85561 0.582872 0
M  V30 4852 C 465.26 -0.0664057 3.60039 0
M  V30 4853 C 465.113 1.30585 4.30427 0
M  V30 4854 C 466.432 -0.781162 4.33112 0
M  V30 4855 H 463.551 0.0122027 0.736899 0
M  V30 4856 H 466.193 0.716305 1.7598 0
M  V30 4857 H 464.343 -0.651307 3.83002 0
M  V30 4858 H 466.015 1.93374 4.18813 0
M  V30 4859 H 464.258 1.88125 3.90886 0
M  V30 4860 H 464.929 1.19147 5.38988 0
M  V30 4861 H 467.405 -0.284565 4.15126 0
M  V30 4862 H 466.281 -0.817237 5.42782 0
M  V30 4863 H 466.542 -1.83672 4.0214 0
M  V30 4864 N 465.601 -1.54893 0.290851 0
M  V30 4865 C 466.531 -2.26103 -0.583084 0
M  V30 4866 C 467.512 -1.25684 -1.14619 0
M  V30 4867 O 468.697 -1.54436 -1.17741 0
M  V30 4868 C 465.827 -2.99409 -1.75987 0
M  V30 4869 C 464.781 -4.0689 -1.32758 0
M  V30 4870 C 464.107 -4.67856 -2.58872 0
M  V30 4871 C 465.407 -5.20215 -0.46624 0
M  V30 4872 H 467.101 -2.99398 0.0108214 0
M  V30 4873 H 464.647 -1.43998 0.00664468 0
M  V30 4874 H 466.6 -3.47943 -2.37727 0
M  V30 4875 H 465.324 -2.23675 -2.37985 0
M  V30 4876 H 463.983 -3.59191 -0.733299 0
M  V30 4877 H 463.631 -3.88772 -3.19163 0
M  V30 4878 H 463.331 -5.40438 -2.30653 0
M  V30 4879 H 464.855 -5.19147 -3.21433 0
M  V30 4880 H 466.269 -5.64704 -0.989047 0
M  V30 4881 H 464.666 -5.99455 -0.27826 0
M  V30 4882 H 465.736 -4.82198 0.511173 0
M  V30 4883 N 467.08 -0.0183926 -1.57589 0
M  V30 4884 C 468.043 0.951986 -2.08494 0
M  V30 4885 C 469.043 1.26092 -0.997874 0
M  V30 4886 O 470.233 1.20304 -1.25987 0
M  V30 4887 C 467.365 2.27165 -2.54182 0
M  V30 4888 H 468.558 0.511307 -2.95509 0
M  V30 4889 H 466.111 0.229444 -1.54607 0
M  V30 4890 H 466.846 2.75884 -1.70465 0
M  V30 4891 H 466.631 2.06057 -3.33591 0
M  V30 4892 H 468.121 2.9674 -2.93828 0
M  V30 4893 N 468.558 1.5553 0.254621 0
M  V30 4894 C 469.468 1.92789 1.33677 0
M  V30 4895 C 470.484 0.827356 1.53071 0
M  V30 4896 O 471.66 1.12807 1.66843 0
M  V30 4897 C 468.725 2.20827 2.67275 0
M  V30 4898 C 467.786 3.4427 2.5647 0
M  V30 4899 C 467.019 3.70961 3.83697 0
M  V30 4900 O 467.242 2.99852 4.85227 0
M  V30 4901 O 466.176 4.64491 3.82794 0
M  V30 4902 H 470.002 2.84945 1.05071 0
M  V30 4903 H 467.587 1.42312 0.454723 0
M  V30 4904 H 469.469 2.40204 3.46237 0
M  V30 4905 H 468.144 1.31851 2.9563 0
M  V30 4906 H 467.051 3.30209 1.75821 0
M  V30 4907 H 468.384 4.33524 2.33062 0
M  V30 4908 N 470.036 -0.519951 1.48776 0
M  V30 4909 C 470.984 -1.64443 1.64503 0
M  V30 4910 C 471.978 -1.61501 0.511248 0
M  V30 4911 O 473.184 -1.66238 0.690294 0
M  V30 4912 H 469.559 -0.544776 0.518385 0
M  V30 4913 H 471.53 -1.48325 2.58925 0
M  V30 4914 C 470.279 -3.02673 1.71127 0
M  V30 4915 H 469.602 -3.05635 2.57735 0
M  V30 4916 H 471.042 -3.80941 1.86172 0
M  V30 4917 C 469.501 -3.33854 0.452032 0
M  V30 4918 O 470.031 -3.99385 -0.430678 0
M  V30 4919 N 468.237 -2.88825 0.32069 0
M  V30 4920 H 467.784 -2.35674 1.03998 0
M  V30 4921 H 467.742 -3.10056 -0.520814 0
M  V30 4922 N 471.514 -1.37532 -0.769588 0
M  V30 4923 C 472.477 -1.33292 -1.86456 0
M  V30 4924 C 473.477 -0.236537 -1.59051 0
M  V30 4925 O 474.667 -0.492511 -1.67093 0
M  V30 4926 C 471.799 -1.07118 -3.23633 0
M  V30 4927 H 472.992 -2.30692 -1.91628 0
M  V30 4928 H 470.545 -1.22593 -0.969572 0
M  V30 4929 H 471.28 -0.102578 -3.24138 0
M  V30 4930 H 471.065 -1.86479 -3.44917 0
M  V30 4931 H 472.555 -1.06806 -4.03711 0
M  V30 4932 N 472.992 0.995999 -1.22138 0
M  V30 4933 C 474.24 1.73167 -1.042 0
M  V30 4934 C 474.561 1.90329 0.42423 0
M  V30 4935 O 473.831 1.4607 1.30539 0
M  V30 4936 H 472.411 0.641593 -0.38258 0
M  V30 4937 H 475.073 1.19974 -1.53598 0
M  V30 4938 H 474.169 2.72734 -1.51731 0
M  V30 4939 N 474.47 1.03057 1.19235 0
M  V30 4940 C 475.717 0.728019 1.88961 0
M  V30 4941 C 476.045 -0.743515 1.79728 0
M  V30 4942 O 475.3 -1.55729 1.1852 0
M  V30 4943 C 475.599 1.1268 3.39172 0
M  V30 4944 C 475.265 2.5969 3.68608 0
M  V30 4945 C 473.927 2.99854 3.76352 0
M  V30 4946 C 476.279 3.54793 3.81801 0
M  V30 4947 C 473.607 4.34031 3.94758 0
M  V30 4948 C 475.959 4.88675 4.0172 0
M  V30 4949 C 474.623 5.28526 4.07697 0
M  V30 4950 H 473.893 0.266401 0.691456 0
M  V30 4951 H 476.54 1.29373 1.41191 0
M  V30 4952 H 474.845 0.479722 3.88852 0
M  V30 4953 H 476.542 0.870203 3.91444 0
M  V30 4954 H 473.132 2.27575 3.63191 0
M  V30 4955 H 477.316 3.24914 3.7516 0
M  V30 4956 H 472.572 4.6444 3.97625 0
M  V30 4957 H 476.746 5.6228 4.1087 0
M  V30 4958 H 474.373 6.32506 4.21712 0
M  V30 4959 N 475.948 -1.35272 0.808662 0
M  V30 4960 C 477.173 -2.03477 0.401475 0
M  V30 4961 C 477.598 -1.60537 -0.980279 0
M  V30 4962 O 476.956 -0.78304 -1.63518 0
M  V30 4963 C 477.004 -3.57181 0.495354 0
M  V30 4964 O 476.108 -4.09474 -0.490397 0
M  V30 4965 H 475.449 -0.642561 0.167366 0
M  V30 4966 H 477.979 -1.72824 1.09512 0
M  V30 4967 H 477.989 -4.06356 0.365912 0
M  V30 4968 H 476.664 -3.87784 1.5032 0
M  V30 4969 H 475.241 -3.71516 -0.321023 0
M  V30 4970 N 477.426 -0.562348 -1.47226 0
M  V30 4971 C 478.389 0.172056 -2.28553 0
M  V30 4972 C 479.389 0.837928 -1.37242 0
M  V30 4973 O 480.579 0.693001 -1.59822 0
M  V30 4974 C 477.711 1.25223 -3.17068 0
M  V30 4975 H 478.904 -0.542401 -2.94954 0
M  V30 4976 H 476.457 -0.319493 -1.53 0
M  V30 4977 H 477.192 1.99892 -2.55369 0
M  V30 4978 H 476.977 0.779515 -3.84273 0
M  V30 4979 H 478.467 1.76791 -3.78332 0
M  V30 4980 N 478.904 1.54736 -0.299062 0
M  V30 4981 C 480.181 1.92187 0.363802 0
M  V30 4982 C 480.561 1.22607 1.71845 0
M  V30 4983 O 479.909 0.361141 2.25628 0
M  V30 4984 C 480.119 3.45678 0.480377 0
M  V30 4985 C 481.467 4.17885 0.752147 0
M  V30 4986 O 482.491 3.51702 0.564264 0
M  V30 4987 O 481.35 5.35048 1.11294 0
M  V30 4988 H 478.444 0.801681 0.203066 0
M  V30 4989 H 480.99 1.66115 -0.346978 0
M  V30 4990 H 479.762 3.88443 -0.471999 0
M  V30 4991 H 479.385 3.77779 1.2397 0
M  V30 4992 N 480.382 0.0267497 1.57577 0
M  V30 4993 C 481.607 -0.666227 1.96408 0
M  V30 4994 C 482.032 -1.65004 0.903071 0
M  V30 4995 O 481.39 -1.80787 -0.136263 0
M  V30 4996 C 481.438 -1.35101 3.34335 0
M  V30 4997 O 480.542 -2.46623 3.30531 0
M  V30 4998 H 479.883 -0.175206 0.640468 0
M  V30 4999 H 482.413 0.0878977 2.04411 0
M  V30 5000 H 482.423 -1.70834 3.70513 0
M  V30 5001 H 481.098 -0.629844 4.11103 0
M  V30 5002 H 479.675 -2.13019 3.06068 0
M  V30 5003 N 481.861 -1.55662 -0.24637 0
M  V30 5004 C 483.091 -1.81312 -0.990438 0
M  V30 5005 C 483.499 -0.600234 -1.79426 0
M  V30 5006 O 482.842 0.440537 -1.78339 0
M  V30 5007 C 482.904 -3.0032 -1.97607 0
M  V30 5008 C 482.568 -4.36322 -1.35912 0
M  V30 5009 C 483.565 -5.14295 -0.761348 0
M  V30 5010 C 481.25 -4.83019 -1.37833 0
M  V30 5011 C 483.244 -6.37114 -0.190998 0
M  V30 5012 C 480.931 -6.05786 -0.804128 0
M  V30 5013 C 481.929 -6.82672 -0.211489 0
M  V30 5014 O 481.617 -8.03121 0.353845 0
M  V30 5015 H 481.349 -0.607233 -0.297058 0
M  V30 5016 H 483.903 -2.0356 -0.274351 0
M  V30 5017 H 482.133 -2.73829 -2.73047 0
M  V30 5018 H 483.822 -3.13057 -2.58361 0
M  V30 5019 H 484.588 -4.79337 -0.739013 0
M  V30 5020 H 480.467 -4.23165 -1.829 0
M  V30 5021 H 484.011 -6.97069 0.272206 0
M  V30 5022 H 479.908 -6.40222 -0.823792 0
M  V30 5023 H 480.676 -8.18131 0.245761 0
M  V30 5024 N 483.339 0.512053 -1.4905 0
M  V30 5025 C 484.75 1.09376 -1.51307 0
M  V30 5026 C 485.101 1.94 -0.292971 0
M  V30 5027 O 484.226 2.07965 0.598277 0
M  V30 5028 C 484.821 1.99031 -2.74176 0
M  V30 5029 C 483.38 2.52385 -2.79247 0
M  V30 5030 C 482.527 1.29749 -2.45073 0
M  V30 5031 H 485.478 0.296467 -1.55906 0
M  V30 5032 H 485.499 2.83569 -2.53711 0
M  V30 5033 H 485.011 1.37412 -3.62959 0
M  V30 5034 H 483.112 3.17673 -1.94716 0
M  V30 5035 H 483.225 2.90293 -3.81139 0
M  V30 5036 H 481.589 1.61912 -1.96612 0
M  V30 5037 H 482.372 0.698555 -3.36118 0
M  V30 5038 N 484.817 1.37938 0.762283 0
M  V30 5039 C 485.727 1.36681 1.90671 0
M  V30 5040 C 486.743 0.265078 1.71969 0
M  V30 5041 O 487.919 0.502055 1.95042 0
M  V30 5042 C 484.984 1.18211 3.25925 0
M  V30 5043 C 484.045 2.3811 3.57214 0
M  V30 5044 C 483.278 2.20512 4.86014 0
M  V30 5045 O 483.501 1.19429 5.57757 0
M  V30 5046 O 482.435 3.08911 5.16583 0
M  V30 5047 H 486.261 2.33091 1.94685 0
M  V30 5048 H 483.846 1.18767 0.906356 0
M  V30 5049 H 485.728 1.09937 4.06807 0
M  V30 5050 H 484.403 0.248807 3.22742 0
M  V30 5051 H 483.31 2.51958 2.76529 0
M  V30 5052 H 484.643 3.30041 3.65149 0
M  V30 5053 N 486.295 -0.989507 1.22664 0
M  V30 5054 C 487.227 -2.0824 0.957542 0
M  V30 5055 C 488.24 -1.6267 -0.0651098 0
M  V30 5056 O 489.429 -1.77695 0.169312 0
M  V30 5057 C 486.529 -3.36298 0.419145 0
M  V30 5058 C 485.702 -4.10882 1.49982 0
M  V30 5059 C 484.761 -5.17221 0.967904 0
M  V30 5060 O 483.787 -5.44613 1.65487 0
M  V30 5061 N 484.989 -5.80124 -0.20896 0
M  V30 5062 H 487.754 -2.31904 1.89843 0
M  V30 5063 H 485.315 -1.15552 1.13399 0
M  V30 5064 H 487.307 -4.04671 0.0485451 0
M  V30 5065 H 485.877 -3.09671 -0.426937 0
M  V30 5066 H 485.097 -3.37092 2.04359 0
M  V30 5067 H 486.385 -4.57482 2.22682 0
M  V30 5068 H 485.783 -5.60244 -0.783818 0
M  V30 5069 H 484.34 -6.49715 -0.520913 0
M  V30 5070 N 487.773 -1.03688 -1.18687 0
M  V30 5071 C 488.683 -0.634908 -2.25845 0
M  V30 5072 C 489.699 0.337065 -1.70704 0
M  V30 5073 O 490.875 0.192943 -2.00474 0
M  V30 5074 C 487.94 -0.000180054 -3.467 0
M  V30 5075 C 487.001 -1.02067 -4.1699 0
M  V30 5076 C 486.234 -0.41614 -5.32075 0
M  V30 5077 O 486.457 0.778712 -5.65059 0
M  V30 5078 O 485.391 -1.14296 -5.90948 0
M  V30 5079 H 489.217 -1.52757 -2.62486 0
M  V30 5080 H 486.802 -0.807533 -1.25695 0
M  V30 5081 H 488.684 0.353342 -4.19916 0
M  V30 5082 H 487.359 0.866367 -3.11891 0
M  V30 5083 H 486.266 -1.42592 -3.45859 0
M  V30 5084 H 487.599 -1.85786 -4.5579 0
M  V30 5085 N 489.251 1.34841 -0.815825 0
M  V30 5086 C 490.161 2.33425 -0.234462 0
M  V30 5087 C 491.177 1.62295 0.627413 0
M  V30 5088 O 492.353 1.94109 0.536987 0
M  V30 5089 C 489.418 3.41471 0.599849 0
M  V30 5090 C 488.479 4.28362 -0.283596 0
M  V30 5091 C 487.712 5.31248 0.51099 0
M  V30 5092 O 487.935 5.43056 1.7449 0
M  V30 5093 O 486.869 6.01812 -0.10297 0
M  V30 5094 H 490.695 2.84962 -1.05024 0
M  V30 5095 H 488.28 1.37774 -0.577809 0
M  V30 5096 H 490.162 4.07464 1.07475 0
M  V30 5097 H 488.837 2.9219 1.39308 0
M  V30 5098 H 487.744 3.65318 -0.805836 0
M  V30 5099 H 489.077 4.81066 -1.041 0
M  V30 5100 N 490.729 0.570148 1.46925 0
M  V30 5101 C 491.957 0.0561966 2.06824 0
M  V30 5102 C 492.372 -1.24326 1.42086 0
M  V30 5103 O 491.729 -1.74882 0.521794 0
M  V30 5104 C 491.78 -0.129517 3.61268 0
M  V30 5105 O 491.501 1.1185 4.23581 0
M  V30 5106 C 493.002 -0.679266 4.38065 0
M  V30 5107 H 490.222 0.0517261 0.669003 0
M  V30 5108 H 492.766 0.787243 1.8874 0
M  V30 5109 H 490.921 -0.810739 3.78822 0
M  V30 5110 H 491.335 0.924375 5.1629 0
M  V30 5111 H 492.809 -0.758445 5.46765 0
M  V30 5112 H 493.286 -1.69346 4.05239 0
M  V30 5113 H 493.892 -0.0333237 4.25287 0
M  V30 5114 N 492.207 -1.54576 0.307264 0
M  V30 5115 C 493.435 -2.04675 -0.302597 0
M  V30 5116 C 493.85 -1.18425 -1.47041 0
M  V30 5117 O 493.207 -0.211257 -1.81273 0
M  V30 5118 C 493.258 -3.53575 -0.752801 0
M  V30 5119 O 492.979 -4.36547 0.368536 0
M  V30 5120 C 494.48 -4.19699 -1.42717 0
M  V30 5121 H 491.7 -0.66786 -0.0648374 0
M  V30 5122 H 494.244 -1.99516 0.448716 0
M  V30 5123 H 492.399 -3.59074 -1.45412 0
M  V30 5124 H 492.813 -5.24497 0.0168937 0
M  V30 5125 H 494.287 -5.25388 -1.69327 0
M  V30 5126 H 494.764 -3.69815 -2.36925 0
M  V30 5127 H 495.37 -4.18293 -0.768856 0
M  V30 5128 N 493.685 -0.035106 -1.57561 0
M  V30 5129 C 494.632 0.94474 -2.10578 0
M  V30 5130 C 495.602 1.3192 -1.00927 0
M  V30 5131 O 496.787 1.41147 -1.28382 0
M  V30 5132 C 493.927 2.21982 -2.64231 0
M  V30 5133 C 493.04 1.90128 -3.87911 0
M  V30 5134 C 492.175 3.11975 -4.29936 0
M  V30 5135 C 491.214 2.75968 -5.46359 0
M  V30 5136 N 490.351 3.90459 -5.83512 0
M  V30 5137 H 495.191 0.485717 -2.94015 0
M  V30 5138 H 492.728 0.228143 -1.4532 0
M  V30 5139 H 494.686 2.96572 -2.9343 0
M  V30 5140 H 493.316 2.6549 -1.83616 0
M  V30 5141 H 492.368 1.05755 -3.65404 0
M  V30 5142 H 493.68 1.59613 -4.72573 0
M  V30 5143 H 492.834 3.9488 -4.60603 0
M  V30 5144 H 491.573 3.45657 -3.44053 0
M  V30 5145 H 490.578 1.91478 -5.1538 0
M  V30 5146 H 491.803 2.43497 -6.33945 0
M  V30 5147 H 489.749 4.23971 -5.00584 0
M  V30 5148 H 489.666 3.63588 -6.62827 0
M  V30 5149 H 490.934 4.7405 -6.18787 0
M  V30 5150 N 495.163 1.55791 0.238111 0
M  V30 5151 C 496.073 1.94196 1.31625 0
M  V30 5152 C 497.089 0.843545 1.52185 0
M  V30 5153 O 498.265 1.1457 1.65637 0
M  V30 5154 C 495.33 2.2365 2.64918 0
M  V30 5155 C 494.391 3.46971 2.52804 0
M  V30 5156 C 493.624 3.7501 3.79741 0
M  V30 5157 O 493.847 3.04982 4.82019 0
M  V30 5158 O 492.781 4.68525 3.77846 0
M  V30 5159 H 496.607 2.86044 1.02043 0
M  V30 5160 H 494.192 1.42786 0.439603 0
M  V30 5161 H 496.074 2.43863 3.4367 0
M  V30 5162 H 494.749 1.34979 2.94215 0
M  V30 5163 H 493.656 3.32055 1.72309 0
M  V30 5164 H 494.989 4.35971 2.28451 0
M  V30 5165 N 496.642 -0.504142 1.49319 0
M  V30 5166 C 497.552 -1.63248 1.68486 0
M  V30 5167 C 498.568 -1.64488 0.567432 0
M  V30 5168 O 499.744 -1.82966 0.841749 0
M  V30 5169 C 496.809 -2.99627 1.74426 0
M  V30 5170 C 495.87 -3.09039 2.97982 0
M  V30 5171 C 495.103 -4.38913 3.0363 0
M  V30 5172 O 495.326 -5.27528 2.16958 0
M  V30 5173 O 494.26 -4.53231 3.96062 0
M  V30 5174 H 498.086 -1.50008 2.64067 0
M  V30 5175 H 495.671 -0.680086 1.33023 0
M  V30 5176 H 497.553 -3.80689 1.80705 0
M  V30 5177 H 496.228 -3.13136 0.820233 0
M  V30 5178 H 495.135 -2.27177 2.97223 0
M  V30 5179 H 496.468 -3.00456 3.89855 0
M  V30 5180 N 498.12 -1.38341 -0.754957 0
M  V30 5181 C 499.366 -1.35678 -1.51536 0
M  V30 5182 C 499.721 0.0533985 -1.92326 0
M  V30 5183 O 499.014 1.01573 -1.6246 0
M  V30 5184 C 499.208 -2.2452 -2.78075 0
M  V30 5185 C 499.037 -3.74035 -2.49655 0
M  V30 5186 C 497.807 -4.43066 -2.42942 0
M  V30 5187 C 500.005 -4.665 -2.16523 0
M  V30 5188 N 497.987 -5.78026 -2.06783 0
M  V30 5189 C 499.358 -5.89962 -1.90644 0
M  V30 5190 C 501.413 -4.54718 -2.02821 0
M  V30 5191 C 500.116 -7.0296 -1.52444 0
M  V30 5192 C 502.142 -5.67618 -1.66023 0
M  V30 5193 C 501.504 -6.90141 -1.41015 0
M  V30 5194 H 497.603 -0.551764 -0.554148 0
M  V30 5195 H 500.187 -1.73716 -0.879258 0
M  V30 5196 H 498.358 -1.88673 -3.39496 0
M  V30 5197 H 500.09 -2.12993 -3.44116 0
M  V30 5198 H 496.845 -3.96264 -2.59367 0
M  V30 5199 H 497.269 -6.49394 -1.91353 0
M  V30 5200 H 501.911 -3.60546 -2.20831 0
M  V30 5201 H 499.629 -7.97051 -1.33174 0
M  V30 5202 H 503.215 -5.6048 -1.56055 0
M  V30 5203 H 502.095 -7.76021 -1.12965 0
M  V30 5204 N 499.598 0.982988 -1.23187 0
M  V30 5205 C 500.823 1.76455 -1.08988 0
M  V30 5206 C 501.248 1.84726 0.354691 0
M  V30 5207 O 500.606 1.30699 1.25649 0
M  V30 5208 C 500.654 3.17094 -1.71708 0
M  V30 5209 O 499.758 4.00648 -0.977477 0
M  V30 5210 H 499.099 0.542988 -0.382177 0
M  V30 5211 H 501.629 1.23413 -1.63188 0
M  V30 5212 H 501.639 3.67684 -1.76841 0
M  V30 5213 H 500.314 3.10389 -2.76823 0
M  V30 5214 H 498.891 3.59161 -1.0029 0
M  V30 5215 N 501.076 1.04316 1.18135 0
M  V30 5216 C 502.008 0.594444 2.21357 0
M  V30 5217 C 503.021 -0.337215 1.59269 0
M  V30 5218 O 504.21 -0.131337 1.78016 0
M  V30 5219 C 501.31 -0.151251 3.38562 0
M  V30 5220 C 500.483 0.788907 4.30227 0
M  V30 5221 C 499.542 0.0860572 5.2613 0
M  V30 5222 O 498.568 0.717302 5.64662 0
M  V30 5223 N 499.77 -1.17969 5.68387 0
M  V30 5224 H 502.535 1.48227 2.60478 0
M  V30 5225 H 500.096 0.92396 1.32946 0
M  V30 5226 H 502.088 -0.631352 3.99745 0
M  V30 5227 H 500.658 -0.940639 2.98112 0
M  V30 5228 H 499.878 1.44882 3.6661 0
M  V30 5229 H 501.166 1.42738 4.88368 0
M  V30 5230 H 500.564 -1.71302 5.3914 0
M  V30 5231 H 499.121 -1.60402 6.31755 0
M  V30 5232 N 502.554 -1.34406 0.822964 0
M  V30 5233 C 503.831 -1.92733 0.333641 0
M  V30 5234 C 504.211 -1.75107 -1.17901 0
M  V30 5235 O 503.559 -1.12983 -1.98613 0
M  V30 5236 C 503.769 -3.40557 0.763023 0
M  V30 5237 C 505.117 -4.17709 0.761879 0
M  V30 5238 O 506.141 -3.49141 0.705606 0
M  V30 5239 O 505 -5.40082 0.835109 0
M  V30 5240 H 502.094 -0.821964 0.0911249 0
M  V30 5241 H 504.64 -1.4338 0.907757 0
M  V30 5242 H 503.412 -3.47187 1.8049 0
M  V30 5243 H 503.035 -3.97259 0.164605 0
M  V30 5244 N 504.032 -0.577932 -1.46621 0
M  V30 5245 C 505.279 -0.0616879 -2.02406 0
M  V30 5246 C 505.607 1.29638 -1.44997 0
M  V30 5247 O 504.862 1.86176 -0.60308 0
M  V30 5248 C 505.161 0.0590832 -3.57351 0
M  V30 5249 C 504.827 -1.23077 -4.33777 0
M  V30 5250 C 503.489 -1.58416 -4.54376 0
M  V30 5251 C 505.841 -2.08457 -4.77698 0
M  V30 5252 C 503.169 -2.78943 -5.16147 0
M  V30 5253 C 505.521 -3.28204 -5.408 0
M  V30 5254 C 504.185 -3.63832 -5.59627 0
M  V30 5255 H 503.455 -0.0225732 -0.740656 0
M  V30 5256 H 506.102 -0.753609 -1.76048 0
M  V30 5257 H 504.407 0.834104 -3.82818 0
M  V30 5258 H 506.104 0.474202 -3.98186 0
M  V30 5259 H 502.694 -0.945652 -4.18038 0
M  V30 5260 H 506.878 -1.82459 -4.61544 0
M  V30 5261 H 502.134 -3.06689 -5.28916 0
M  V30 5262 H 506.308 -3.94634 -5.73792 0
M  V30 5263 H 503.935 -4.57315 -6.07262 0
M  V30 5264 N 505.51 1.54411 -0.315457 0
M  V30 5265 C 506.457 2.24048 0.554166 0
M  V30 5266 C 507.427 1.2283 1.11812 0
M  V30 5267 O 508.612 1.51491 1.15997 0
M  V30 5268 C 505.752 2.99574 1.71316 0
M  V30 5269 C 504.865 4.15594 1.17922 0
M  V30 5270 C 504 4.78669 2.30324 0
M  V30 5271 C 503.039 5.86807 1.74137 0
M  V30 5272 N 502.176 6.43777 2.8017 0
M  V30 5273 H 507.016 2.97964 -0.0462602 0
M  V30 5274 H 504.553 1.47059 -0.0346009 0
M  V30 5275 H 506.511 3.41604 2.39505 0
M  V30 5276 H 505.141 2.28008 2.285 0
M  V30 5277 H 504.193 3.78404 0.389136 0
M  V30 5278 H 505.505 4.93459 0.728012 0
M  V30 5279 H 504.659 5.23626 3.06433 0
M  V30 5280 H 503.398 4.00168 2.78778 0
M  V30 5281 H 502.403 5.41261 0.965236 0
M  V30 5282 H 503.628 6.67201 1.2657 0
M  V30 5283 H 501.574 5.68153 3.2793 0
M  V30 5284 H 501.491 7.17031 2.39588 0
M  V30 5285 H 502.759 6.9339 3.56132 0
M  V30 5286 N 506.988 0.0434614 1.5754 0
M  V30 5287 C 508.265 -0.671479 1.83713 0
M  V30 5288 C 508.645 -1.89495 0.930315 0
M  V30 5289 O 507.993 -2.28498 -0.0105639 0
M  V30 5290 C 508.203 -1.0361 3.33266 0
M  V30 5291 C 509.551 -1.42167 4.00092 0
M  V30 5292 O 510.575 -1.12866 3.37846 0
M  V30 5293 O 509.434 -1.96817 5.09829 0
M  V30 5294 H 506.528 -0.330726 0.75799 0
M  V30 5295 H 509.074 0.0722373 1.69546 0
M  V30 5296 H 507.846 -0.165938 3.90948 0
M  V30 5297 H 507.469 -1.83751 3.52592 0
M  V30 5298 N 508.466 -1.55915 -0.229846 0
M  V30 5299 C 509.376 -1.94891 -1.30593 0
M  V30 5300 C 510.392 -0.851604 -1.51736 0
M  V30 5301 O 511.568 -1.15447 -1.65027 0
M  V30 5302 C 508.633 -2.25052 -2.63728 0
M  V30 5303 C 507.694 -3.48306 -2.5096 0
M  V30 5304 C 506.927 -3.77019 -3.77747 0
M  V30 5305 O 507.15 -3.07534 -4.80395 0
M  V30 5306 O 506.084 -4.70523 -3.75356 0
M  V30 5307 H 509.91 -2.86581 -1.00525 0
M  V30 5308 H 507.495 -1.43017 -0.432025 0
M  V30 5309 H 509.377 -2.45682 -3.42372 0
M  V30 5310 H 508.052 -1.36538 -2.93495 0
M  V30 5311 H 506.959 -3.32964 -1.70546 0
M  V30 5312 H 508.292 -4.37177 -2.26136 0
M  V30 5313 N 509.944 0.496216 -1.49584 0
M  V30 5314 C 511.192 1.24756 -1.58998 0
M  V30 5315 C 511.513 1.92968 -0.280775 0
M  V30 5316 O 510.783 1.82959 0.700198 0
M  V30 5317 H 509.363 0.463471 -0.585836 0
M  V30 5318 H 512.025 0.574678 -1.86235 0
M  V30 5319 H 511.121 2.00895 -2.38847 0
M  V30 5320 N 511.423 1.38739 0.74761 0
M  V30 5321 C 512.353 1.39173 1.87492 0
M  V30 5322 C 513.334 0.256794 1.6815 0
M  V30 5323 O 514.519 0.460762 1.88655 0
M  V30 5324 C 511.649 1.22197 3.25093 0
M  V30 5325 C 510.603 2.32957 3.59047 0
M  V30 5326 C 509.929 2.01082 4.95449 0
M  V30 5327 C 511.229 3.75237 3.6331 0
M  V30 5328 H 512.923 2.3351 1.87386 0
M  V30 5329 H 510.469 1.12399 0.900134 0
M  V30 5330 H 512.422 1.21124 4.03617 0
M  V30 5331 H 511.146 0.243241 3.25693 0
M  V30 5332 H 509.805 2.33226 2.82845 0
M  V30 5333 H 509.453 1.01678 4.92616 0
M  V30 5334 H 509.153 2.75267 5.19136 0
M  V30 5335 H 510.677 2.01638 5.76346 0
M  V30 5336 H 512.091 3.76966 4.31937 0
M  V30 5337 H 510.488 4.48677 3.98509 0
M  V30 5338 H 511.558 4.07122 2.634 0
M  V30 5339 N 512.901 -0.976442 1.23707 0
M  V30 5340 C 514.149 -1.71487 1.06942 0
M  V30 5341 C 514.47 -1.9098 -0.393897 0
M  V30 5342 O 513.74 -1.48128 -1.28198 0
M  V30 5343 H 512.32 -0.635425 0.392739 0
M  V30 5344 H 514.982 -1.17515 1.55487 0
M  V30 5345 H 514.078 -2.70286 1.56051 0
M  V30 5346 N 514.379 -1.04941 -1.1758 0
M  V30 5347 C 515.628 -0.753124 -1.87112 0
M  V30 5348 C 515.941 0.722507 -1.81767 0
M  V30 5349 O 517.147 1.13265 -2.46746 0
M  V30 5350 C 515.603 -1.29695 -3.35719 0
M  V30 5351 C 515.211 -2.80184 -3.49572 0
M  V30 5352 C 516.955 -1.07759 -4.10595 0
M  V30 5353 C 514.862 -3.2788 -4.92187 0
M  V30 5354 H 513.792 -0.278034 -0.700866 0
M  V30 5355 H 516.443 -1.26637 -1.32798 0
M  V30 5356 H 514.825 -0.711522 -3.89555 0
M  V30 5357 H 515.999 -3.44561 -3.05965 0
M  V30 5358 H 514.314 -3.00632 -2.88113 0
M  V30 5359 H 516.911 -1.40899 -5.15802 0
M  V30 5360 H 517.254 -0.0152302 -4.16297 0
M  V30 5361 H 517.787 -1.62809 -3.62957 0
M  V30 5362 H 514.526 -4.33535 -4.91658 0
M  V30 5363 H 514.046 -2.68245 -5.36475 0
M  V30 5364 H 515.725 -3.22412 -5.60945 0
M  V30 5365 N 515.857 1.33968 -0.830081 0
M  V30 5366 C 517.082 2.02813 -0.433796 0
M  V30 5367 C 517.507 1.62076 0.954614 0
M  V30 5368 O 516.865 0.808955 1.62252 0
M  V30 5369 C 516.913 3.56348 -0.552115 0
M  V30 5370 O 516.017 4.10202 0.425191 0
M  V30 5371 H 515.358 0.639817 -0.177567 0
M  V30 5372 H 517.888 1.7106 -1.12248 0
M  V30 5373 H 517.898 4.05722 -0.430513 0
M  V30 5374 H 516.573 3.85344 -1.56471 0
M  V30 5375 H 515.15 3.71979 0.261878 0
M  V30 5376 N 517.335 0.585699 1.46312 0
M  V30 5377 C 518.563 0.0781299 2.06752 0
M  V30 5378 C 518.978 -1.22812 1.43396 0
M  V30 5379 O 518.335 -1.74318 0.540314 0
M  V30 5380 C 518.386 -0.0911927 3.61385 0
M  V30 5381 O 518.107 1.16336 4.22371 0
M  V30 5382 C 519.608 -0.632765 4.38761 0
M  V30 5383 H 516.828 0.0588188 0.668417 0
M  V30 5384 H 519.372 0.807218 1.87894 0
M  V30 5385 H 517.527 -0.770514 3.7966 0
M  V30 5386 H 517.941 0.979082 5.15281 0
M  V30 5387 H 519.415 -0.70041 5.47538 0
M  V30 5388 H 519.892 -1.65039 4.07012 0
M  V30 5389 H 520.498 0.0117856 4.25298 0
M  V30 5390 N 518.813 -1.54241 0.323641 0
M  V30 5391 C 520.09 -1.92741 -0.333181 0
M  V30 5392 C 520.47 -1.25326 -1.69872 0
M  V30 5393 O 519.818 -0.396991 -2.25025 0
M  V30 5394 C 520.028 -3.46399 -0.425322 0
M  V30 5395 C 521.376 -4.19029 -0.68557 0
M  V30 5396 O 522.4 -3.52555 -0.50824 0
M  V30 5397 O 521.259 -5.36751 -1.02767 0
M  V30 5398 H 518.353 -0.804811 -0.190286 0
M  V30 5399 H 520.899 -1.65542 0.373361 0
M  V30 5400 H 519.671 -3.87643 0.533737 0
M  V30 5401 H 519.294 -3.79704 -1.17944 0
M  V30 5402 N 520.291 -0.0518155 -1.57515 0
M  V30 5403 C 521.238 0.922352 -2.11569 0
M  V30 5404 C 522.208 1.30842 -1.02321 0
M  V30 5405 O 523.393 1.39778 -1.29872 0
M  V30 5406 C 520.533 2.19167 -2.6657 0
M  V30 5407 C 519.646 1.86003 -3.89906 0
M  V30 5408 C 518.781 3.07398 -4.33221 0
M  V30 5409 C 517.82 2.70158 -5.49255 0
M  V30 5410 N 516.957 3.84248 -5.8762 0
M  V30 5411 H 521.797 0.454506 -2.94514 0
M  V30 5412 H 519.334 0.212718 -1.45554 0
M  V30 5413 H 521.292 2.93443 -2.96559 0
M  V30 5414 H 519.922 2.63528 -1.86421 0
M  V30 5415 H 518.974 1.01874 -3.66505 0
M  V30 5416 H 520.286 1.54592 -4.74239 0
M  V30 5417 H 519.44 3.89972 -4.64765 0
M  V30 5418 H 518.179 3.41988 -3.477 0
M  V30 5419 H 517.184 1.86001 -5.17382 0
M  V30 5420 H 518.409 2.36759 -6.36492 0
M  V30 5421 H 516.355 4.18638 -5.05053 0
M  V30 5422 H 516.272 3.56538 -6.66646 0
M  V30 5423 H 517.54 4.6746 -6.2378 0
M  V30 5424 N 521.769 1.56035 0.221574 0
M  V30 5425 C 522.732 1.91584 1.2581 0
M  V30 5426 C 523.732 0.794425 1.39805 0
M  V30 5427 O 524.922 1.06217 1.38071 0
M  V30 5428 C 522.054 2.16663 2.63192 0
M  V30 5429 H 523.247 2.8429 0.954935 0
M  V30 5430 H 520.8 1.49316 0.461988 0
M  V30 5431 H 521.535 1.26508 2.98607 0
M  V30 5432 H 521.32 2.98358 2.5441 0
M  V30 5433 H 522.81 2.45262 3.37988 0
M  V30 5434 N 523.247 -0.488276 1.49845 0
M  V30 5435 C 524.477 -1.26344 1.63465 0
M  V30 5436 C 524.885 -1.86637 0.310379 0
M  V30 5437 O 524.228 -1.69184 -0.715712 0
M  V30 5438 C 524.29 -2.42407 2.65479 0
M  V30 5439 C 523.954 -2.02886 4.09495 0
M  V30 5440 C 524.951 -1.56124 4.95904 0
M  V30 5441 C 522.636 -2.12131 4.55308 0
M  V30 5442 C 524.63 -1.19129 6.26169 0
M  V30 5443 C 522.317 -1.74747 5.85582 0
M  V30 5444 C 523.315 -1.28322 6.70837 0
M  V30 5445 O 523.003 -0.914491 7.98682 0
M  V30 5446 H 522.735 -0.388921 0.552916 0
M  V30 5447 H 525.289 -0.591288 1.96705 0
M  V30 5448 H 523.519 -3.12739 2.27445 0
M  V30 5449 H 525.208 -3.04409 2.68495 0
M  V30 5450 H 525.974 -1.48417 4.61733 0
M  V30 5451 H 521.853 -2.47217 3.89107 0
M  V30 5452 H 525.397 -0.828211 6.92666 0
M  V30 5453 H 521.294 -1.82109 6.19279 0
M  V30 5454 H 522.062 -1.04485 8.11804 0
M  V30 5455 N 524.725 -1.39134 -0.740242 0
M  V30 5456 C 525.953 -1.39334 -1.5295 0
M  V30 5457 C 526.368 0.0135008 -1.88795 0
M  V30 5458 O 525.725 0.983524 -1.5373 0
M  V30 5459 C 525.776 -2.2614 -2.82034 0
M  V30 5460 O 525.497 -3.61345 -2.47712 0
M  V30 5461 C 526.998 -2.34666 -3.76094 0
M  V30 5462 H 524.218 -0.476103 -0.472828 0
M  V30 5463 H 526.762 -1.82883 -0.9151 0
M  V30 5464 H 524.917 -1.86018 -3.39818 0
M  V30 5465 H 525.331 -4.07194 -3.30595 0
M  V30 5466 H 526.805 -2.99663 -4.63579 0
M  V30 5467 H 527.282 -1.36426 -4.17474 0
M  V30 5468 H 527.888 -2.75236 -3.2423 0
M  V30 5469 N 526.204 0.969867 -1.24223 0
M  V30 5470 C 527.452 1.70918 -1.0785 0
M  V30 5471 C 527.773 1.91186 0.383763 0
M  V30 5472 O 527.043 1.48806 1.27411 0
M  V30 5473 H 525.623 0.633334 -0.396103 0
M  V30 5474 H 528.285 1.16689 -1.56108 0
M  V30 5475 H 527.381 2.69455 -1.57482 0
M  V30 5476 N 527.682 1.05563 1.17022 0
M  V30 5477 C 528.907 0.788437 1.91829 0
M  V30 5478 C 529.332 -0.650356 1.76499 0
M  V30 5479 O 528.69 -1.45229 1.08527 0
M  V30 5480 C 528.738 1.1786 3.40795 0
M  V30 5481 O 527.842 0.312965 4.11211 0
M  V30 5482 H 527.183 0.288794 0.597908 0
M  V30 5483 H 529.713 1.40948 1.48307 0
M  V30 5484 H 529.723 1.14697 3.91546 0
M  V30 5485 H 528.398 2.22666 3.51273 0
M  V30 5486 H 526.975 0.405515 3.70689 0
M  V30 5487 N 529.16 -1.33526 0.837174 0
M  V30 5488 C 530.093 -2.27192 0.214233 0
M  V30 5489 C 531.071 -1.49575 -0.637657 0
M  V30 5490 O 532.255 -1.78753 -0.598291 0
M  V30 5491 C 529.382 -3.31401 -0.699367 0
M  V30 5492 C 528.428 -4.26431 0.0768429 0
M  V30 5493 S 529.261 -5.15954 1.4336 0
M  V30 5494 C 530.417 -6.23692 0.525251 0
M  V30 5495 H 530.65 -2.79679 1.00831 0
M  V30 5496 H 528.183 -1.4079 0.633834 0
M  V30 5497 H 530.141 -3.91924 -1.22088 0
M  V30 5498 H 528.802 -2.77732 -1.46709 0
M  V30 5499 H 527.995 -5.00193 -0.618268 0
M  V30 5500 H 527.597 -3.70235 0.529364 0
M  V30 5501 H 529.889 -6.76931 -0.277575 0
M  V30 5502 H 530.832 -6.97283 1.23299 0
M  V30 5503 H 531.24 -5.64398 0.107351 0
M  V30 5504 N 530.638 -0.59345 -1.46 0
M  V30 5505 C 531.568 0.121192 -2.33185 0
M  V30 5506 C 532.549 0.872977 -1.4599 0
M  V30 5507 O 533.734 0.846321 -1.74789 0
M  V30 5508 C 530.864 1.12844 -3.28456 0
M  V30 5509 C 529.818 0.4908 -4.25177 0
M  V30 5510 C 529.144 1.60529 -5.10034 0
M  V30 5511 C 530.444 -0.578949 -5.19081 0
M  V30 5512 H 532.138 -0.606767 -2.93187 0
M  V30 5513 H 529.684 -0.293242 -1.40983 0
M  V30 5514 H 531.637 1.63684 -3.88311 0
M  V30 5515 H 530.361 1.88681 -2.66584 0
M  V30 5516 H 529.02 0.00339328 -3.666 0
M  V30 5517 H 528.668 2.35359 -4.44539 0
M  V30 5518 H 528.368 1.18422 -5.75543 0
M  V30 5519 H 529.892 2.11623 -5.72755 0
M  V30 5520 H 531.306 -0.155199 -5.7309 0
M  V30 5521 H 529.703 -0.920947 -5.92991 0
M  V30 5522 H 530.773 -1.46109 -4.62364 0
M  V30 5523 N 532.116 1.54067 -0.331816 0
M  V30 5524 C 533.532 1.59587 0.0205388 0
M  V30 5525 C 533.732 1.34813 1.49759 0
M  V30 5526 O 532.788 1.13661 2.25471 0
M  V30 5527 C 534.101 2.97959 -0.405103 0
M  V30 5528 C 535.649 3.10964 -0.356454 0
M  V30 5529 C 536.124 4.51694 -0.757384 0
M  V30 5530 N 537.615 4.57709 -0.71111 0
M  V30 5531 C 538.35 5.64729 -0.993427 0
M  V30 5532 N 537.846 6.79652 -1.3433 0
M  V30 5533 N 539.639 5.54546 -0.918442 0
M  V30 5534 H 531.79 1.68426 -1.29407 0
M  V30 5535 H 534.053 0.78819 -0.526745 0
M  V30 5536 H 533.759 3.21115 -1.43451 0
M  V30 5537 H 533.633 3.76524 0.225692 0
M  V30 5538 H 536.02 2.87538 0.663763 0
M  V30 5539 H 536.101 2.34484 -1.02229 0
M  V30 5540 H 535.745 4.75853 -1.77555 0
M  V30 5541 H 535.675 5.26555 -0.0691444 0
M  V30 5542 H 538.166 3.75176 -0.452883 0
M  V30 5543 H 538.479 7.57221 -1.54388 0
M  V30 5544 H 536.824 6.81128 -1.38164 0
M  V30 5545 H 540.015 4.63641 -0.644536 0
M  V30 5546 H 540.188 6.37861 -1.14181 0
M  V30 5547 N 533.594 0.0601682 1.57485 0
M  V30 5548 C 534.541 -0.91112 2.12055 0
M  V30 5549 C 535.511 -1.30298 1.03013 0
M  V30 5550 O 536.696 -1.39087 1.30612 0
M  V30 5551 C 533.836 -2.1775 2.67729 0
M  V30 5552 C 532.949 -1.83933 3.90887 0
M  V30 5553 C 532.084 -3.05096 4.34845 0
M  V30 5554 C 531.123 -2.67241 5.5068 0
M  V30 5555 N 530.26 -3.81127 5.8965 0
M  V30 5556 H 535.1 -0.43888 2.9475 0
M  V30 5557 H 532.637 -0.204995 1.45665 0
M  V30 5558 H 534.595 -2.91866 2.98111 0
M  V30 5559 H 533.225 -2.62535 1.87816 0
M  V30 5560 H 532.277 -0.999287 3.6704 0
M  V30 5561 H 533.589 -1.52074 4.75052 0
M  V30 5562 H 532.743 -3.87502 4.66827 0
M  V30 5563 H 531.482 -3.40139 3.49509 0
M  V30 5564 H 530.487 -1.83254 5.18361 0
M  V30 5565 H 531.712 -2.3338 6.37738 0
M  V30 5566 H 529.658 -4.15954 5.07266 0
M  V30 5567 H 529.575 -3.52997 6.68528 0
M  V30 5568 H 530.843 -4.64145 6.2625 0
M  V30 5569 N 535.072 -1.5615 -0.213296 0
M  V30 5570 C 536.488 -1.49327 -0.56336 0
M  V30 5571 C 536.688 -0.756826 -1.86747 0
M  V30 5572 O 535.744 -0.299866 -2.50713 0
M  V30 5573 C 537.057 -2.9392 -0.634944 0
M  V30 5574 C 538.605 -3.04487 -0.725013 0
M  V30 5575 C 539.08 -4.50456 -0.82787 0
M  V30 5576 N 540.571 -4.54533 -0.891876 0
M  V30 5577 C 541.306 -5.64766 -0.991315 0
M  V30 5578 N 540.802 -6.84733 -1.05419 0
M  V30 5579 N 542.595 -5.52637 -1.02709 0
M  V30 5580 H 534.746 -2.02453 0.642366 0
M  V30 5581 H 537.009 -0.920548 0.226487 0
M  V30 5582 H 536.715 -3.50783 0.253859 0
M  V30 5583 H 536.589 -3.46274 -1.49579 0
M  V30 5584 H 538.976 -2.47685 -1.60425 0
M  V30 5585 H 539.057 -2.55289 0.161669 0
M  V30 5586 H 538.701 -5.07878 0.0469464 0
M  V30 5587 H 538.631 -4.97369 -1.73009 0
M  V30 5588 H 541.122 -3.68141 -0.85327 0
M  V30 5589 H 541.435 -7.64493 -1.13007 0
M  V30 5590 H 539.78 -6.87427 -1.02318 0
M  V30 5591 H 542.971 -4.5784 -0.974687 0
M  V30 5592 H 543.144 -6.38576 -1.10113 0
M  V30 5593 N 536.55 0.480323 -1.50102 0
M  V30 5594 C 537.498 1.60024 -1.68805 0
M  V30 5595 C 538.492 1.60089 -0.553888 0
M  V30 5596 O 539.698 1.64349 -0.734127 0
M  V30 5597 H 536.073 0.530841 -0.532646 0
M  V30 5598 H 538.044 1.41408 -2.62767 0
M  V30 5599 C 536.793 2.98029 -1.79092 0
M  V30 5600 H 536.116 2.98694 -2.65748 0
M  V30 5601 H 537.556 3.75871 -1.96206 0
M  V30 5602 C 536.015 3.32538 -0.540388 0
M  V30 5603 O 536.545 4.00386 0.324637 0
M  V30 5604 N 534.751 2.87873 -0.397154 0
M  V30 5605 H 534.298 2.32834 -1.1021 0
M  V30 5606 H 534.256 3.11328 0.438425 0
M  V30 5607 N 538.028 1.39524 0.732853 0
M  V30 5608 C 539.439 1.32905 1.31122 0
M  V30 5609 C 539.79 -0.00558708 1.96199 0
M  V30 5610 O 538.915 -0.907706 1.96443 0
M  V30 5611 C 539.51 2.40704 2.38426 0
M  V30 5612 C 538.069 2.37599 2.91931 0
M  V30 5613 C 537.216 2.2248 1.65523 0
M  V30 5614 H 540.167 1.49581 0.530207 0
M  V30 5615 H 540.188 2.07616 3.18867 0
M  V30 5616 H 539.7 3.37829 1.91033 0
M  V30 5617 H 537.801 1.44119 3.43599 0
M  V30 5618 H 537.914 3.32538 3.44899 0
M  V30 5619 H 536.278 1.69691 1.8994 0
M  V30 5620 H 537.061 3.21577 1.20178 0
M  V30 5621 N 539.506 -0.963266 1.24736 0
M  V30 5622 C 540.438 -2.06162 1.0015 0
M  V30 5623 C 541.451 -1.62771 -0.0305905 0
M  V30 5624 O 542.64 -1.77296 0.206966 0
M  V30 5625 C 539.74 -3.35333 0.490385 0
M  V30 5626 C 538.913 -4.07609 1.58663 0
M  V30 5627 C 537.972 -5.15052 1.0774 0
M  V30 5628 O 536.998 -5.4098 1.77002 0
M  V30 5629 N 538.2 -5.80436 -0.0858605 0
M  V30 5630 H 540.965 -2.27825 1.94719 0
M  V30 5631 H 538.526 -1.13121 1.15825 0
M  V30 5632 H 540.518 -4.04477 0.134371 0
M  V30 5633 H 539.088 -3.10507 -0.361155 0
M  V30 5634 H 538.308 -3.32681 2.11463 0
M  V30 5635 H 539.596 -4.52656 2.32336 0
M  V30 5636 H 538.994 -5.6178 -0.664806 0
M  V30 5637 H 537.551 -6.50674 -0.382981 0
M  V30 5638 N 540.985 -1.06182 -1.16461 0
M  V30 5639 C 542.233 -0.776326 -1.86595 0
M  V30 5640 C 542.554 0.69921 -1.82033 0
M  V30 5641 O 541.824 1.50579 -1.2531 0
M  V30 5642 H 540.404 -0.284184 -0.690832 0
M  V30 5643 H 543.066 -1.34308 -1.41235 0
M  V30 5644 H 542.162 -1.10022 -2.92064 0
M  V30 5645 N 542.463 1.3308 -0.844243 0
M  V30 5646 C 543.393 2.3161 -0.296493 0
M  V30 5647 C 544.374 1.59215 0.598707 0
M  V30 5648 O 545.559 1.87077 0.521134 0
M  V30 5649 C 542.689 3.43313 0.524762 0
M  V30 5650 C 541.643 4.27115 -0.275106 0
M  V30 5651 C 540.969 5.30483 0.670236 0
M  V30 5652 C 542.269 5.00443 -1.49514 0
M  V30 5653 H 543.963 2.77672 -1.11976 0
M  V30 5654 H 541.509 1.33496 -0.539899 0
M  V30 5655 H 543.462 4.11273 0.918298 0
M  V30 5656 H 542.186 2.95952 1.3813 0
M  V30 5657 H 540.845 3.60787 -0.650267 0
M  V30 5658 H 540.493 4.79379 1.52332 0
M  V30 5659 H 540.193 5.87435 0.139123 0
M  V30 5660 H 541.717 6.01308 1.06117 0
M  V30 5661 H 543.131 5.61141 -1.17447 0
M  V30 5662 H 541.528 5.67071 -1.96343 0
M  V30 5663 H 542.598 4.28906 -2.26202 0
M  V30 5664 N 543.941 0.601185 1.45683 0
M  V30 5665 C 544.851 -0.123395 2.34275 0
M  V30 5666 C 545.867 -0.86702 1.5086 0
M  V30 5667 O 547.043 -0.826049 1.8368 0
M  V30 5668 C 544.108 -1.11237 3.2837 0
M  V30 5669 C 543.169 -0.371405 4.2769 0
M  V30 5670 C 542.402 -1.31327 5.1729 0
M  V30 5671 O 542.625 -2.55078 5.10188 0
M  V30 5672 O 541.559 -0.813811 5.96373 0
M  V30 5673 H 545.385 0.604483 2.97623 0
M  V30 5674 H 542.97 0.361477 1.44961 0
M  V30 5675 H 544.852 -1.68214 3.8637 0
M  V30 5676 H 543.527 -1.82139 2.67595 0
M  V30 5677 H 542.434 0.24067 3.73325 0
M  V30 5678 H 543.767 0.296998 4.91303 0
M  V30 5679 O 545.458 -1.54135 0.48216 0
M  V30 5680 H 546.149 -1.93658 -0.0403371 0
M  V30 END ATOM
M  V30 BEGIN BOND
M  V30 END BOND
M  V30 END CTAB
M  END
$$$$
