drugbank_target|Q8WVQ1 Soluble calcium-activated nucleotidase 1 (DB03486)
 OpenBabel12092119593D

  0  0  0     0  0            999 V3000
M  V30 BEGIN CTAB
M  V30 COUNTS 6260 6350 0 0 0
M  V30 BEGIN ATOM
M  V30 1 H -0.908 1.98254 -0.117106 0
M  V30 2 N 0 1.576 0 0
M  V30 3 C 0.933 2.03868 1.02534 0
M  V30 4 C 1.911 0.928543 1.3348 0
M  V30 5 O 3.095 1.19667 1.45644 0
M  V30 6 C 0.222 2.43627 2.35294 0
M  V30 7 C -0.732 3.65373 2.2001 0
M  V30 8 S 0.101 5.13292 1.52614 0
M  V30 9 C 1.257 5.56322 2.86805 0
M  V30 10 H 1.49 2.90518 0.631377 0
M  V30 11 H -0.977 1.52953 0.210867 0
M  V30 12 H 0.981 2.67203 3.11629 0
M  V30 13 H -0.358 1.57376 2.7183 0
M  V30 14 H -1.165 3.90944 3.18086 0
M  V30 15 H -1.563 3.418 1.51819 0
M  V30 16 H 0.729 5.58782 3.83104 0
M  V30 17 H 1.672 6.56266 2.65933 0
M  V30 18 H 2.08 4.83886 2.90714 0
M  V30 19 N 1.4781 -0.272755 1.55222 0
M  V30 20 C 2.8891 -0.84378 1.66545 0
M  V30 21 C 3.2401 -1.87035 0.592641 0
M  V30 22 O 2.3651 -2.14761 -0.265818 0
M  V30 23 C 2.9601 -1.53723 3.01918 0
M  V30 24 C 1.5191 -2.05628 3.15268 0
M  V30 25 C 0.6661 -0.898424 2.62343 0
M  V30 26 H 3.6171 -0.0490998 1.58624 0
M  V30 27 H 3.6381 -2.40421 2.94921 0
M  V30 28 H 3.1501 -0.78983 3.79978 0
M  V30 29 H 1.2511 -2.83329 2.41983 0
M  V30 30 H 1.3641 -2.27142 4.21833 0
M  V30 31 H -0.2719 -1.29186 2.19506 0
M  V30 32 H 0.5111 -0.164528 3.42906 0
M  V30 33 N 2.9562 -1.48159 -0.537278 0
M  V30 34 C 4.2022 -1.56035 -1.29541 0
M  V30 35 C 4.5352 -0.230377 -1.92829 0
M  V30 36 O 3.8102 0.762952 -1.78911 0
M  V30 37 C 4.0932 -2.69323 -2.39034 0
M  V30 38 C 3.9462 -4.12002 -1.80485 0
M  V30 39 C 5.2652 -2.78408 -3.40847 0
M  V30 40 H 2.3842 -0.567992 -0.469632 0
M  V30 41 H 5.0262 -1.80302 -0.599277 0
M  V30 42 H 3.1762 -2.48763 -2.98412 0
M  V30 43 H 4.8482 -4.43981 -1.25215 0
M  V30 44 H 3.0912 -4.19344 -1.11055 0
M  V30 45 H 3.7622 -4.87077 -2.59731 0
M  V30 46 H 6.2382 -2.97012 -2.91416 0
M  V30 47 H 5.1142 -3.59416 -4.14863 0
M  V30 48 H 5.3752 -1.86269 -4.00944 0
M  V30 49 N 4.4343 0.785586 -1.36625 0
M  V30 50 C 5.3663 1.90711 -1.2713 0
M  V30 51 C 6.3793 1.61688 -0.189986 0
M  V30 52 O 7.5683 1.72864 -0.445014 0
M  V30 53 C 4.6683 3.25611 -0.939713 0
M  V30 54 C 3.8413 3.82385 -2.12369 0
M  V30 55 C 2.9003 4.95732 -1.76456 0
M  V30 56 O 1.9263 5.12047 -2.48589 0
M  V30 57 N 3.1283 5.76258 -0.700492 0
M  V30 58 H 5.8933 1.99376 -2.23762 0
M  V30 59 H 3.4543 0.964041 -1.30069 0
M  V30 60 H 5.4463 3.98937 -0.680554 0
M  V30 61 H 4.0163 3.12538 -0.0624074 0
M  V30 62 H 3.2363 3.01001 -2.54543 0
M  V30 63 H 4.5243 4.17047 -2.9146 0
M  V30 64 H 3.9223 5.65609 -0.101624 0
M  V30 65 H 2.4793 6.4987 -0.501165 0
M  V30 66 N 5.9124 1.20967 1.01018 0
M  V30 67 C 6.8424 0.988272 2.11555 0
M  V30 68 C 7.8234 -0.0849778 1.69888 0
M  V30 69 O 9.0084 0.0738202 1.9406 0
M  V30 70 C 6.1384 0.546528 3.42973 0
M  V30 71 C 5.0924 1.56375 3.9841 0
M  V30 72 C 4.4184 0.97842 5.25672 0
M  V30 73 C 5.7184 2.94922 4.31066 0
M  V30 74 H 7.4124 1.91276 2.30334 0
M  V30 75 H 4.9584 0.921073 1.1069 0
M  V30 76 H 6.9114 0.378839 4.19694 0
M  V30 77 H 5.6354 -0.413598 3.23971 0
M  V30 78 H 4.2944 1.71891 3.23804 0
M  V30 79 H 3.9424 0.0101688 5.02999 0
M  V30 80 H 3.6424 1.65784 5.63728 0
M  V30 81 H 5.1664 0.821939 6.05043 0
M  V30 82 H 6.5804 2.8288 4.9865 0
M  V30 83 H 4.9774 3.5983 4.80253 0
M  V30 84 H 6.0474 3.4616 3.39561 0
M  V30 85 N 7.3905 -1.2043 1.01659 0
M  V30 86 C 8.6155 -1.94318 0.724942 0
M  V30 87 C 9.0405 -1.74266 -0.708034 0
M  V30 88 O 8.3985 -1.03694 -1.48719 0
M  V30 89 C 8.4465 -3.44486 1.06591 0
M  V30 90 O 7.5505 -4.12017 0.177599 0
M  V30 91 H 6.8915 -0.60708 0.26898 0
M  V30 92 H 9.4215 -1.52861 1.35995 0
M  V30 93 H 9.4315 -3.95106 1.01762 0
M  V30 94 H 8.1065 -3.58404 2.10997 0
M  V30 95 H 6.6835 -3.71821 0.283421 0
M  V30 96 N 8.8686 -0.792821 -1.36206 0
M  V30 97 C 9.7786 -0.194808 -2.3379 0
M  V30 98 C 10.7946 0.654869 -1.61206 0
M  V30 99 O 11.9706 0.569856 -1.9317 0
M  V30 100 C 9.0356 0.657721 -3.40404 0
M  V30 101 C 8.0966 -0.210849 -4.28782 0
M  V30 102 C 7.3296 0.601086 -5.30304 0
M  V30 103 O 7.5526 1.83682 -5.40016 0
M  V30 104 O 6.4866 -0.000808277 -6.019 0
M  V30 105 H 10.3126 -1.00172 -2.86704 0
M  V30 106 H 7.8976 -0.554341 -1.38735 0
M  V30 107 H 9.7796 1.14375 -4.05581 0
M  V30 108 H 8.4546 1.44247 -2.89784 0
M  V30 109 H 7.3616 -0.743714 -3.66633 0
M  V30 110 H 8.6946 -0.959195 -4.82763 0
M  V30 111 N 10.3467 1.47872 -0.545128 0
M  V30 112 C 11.2967 2.26842 0.229456 0
M  V30 113 C 12.2807 1.33626 0.896267 0
M  V30 114 O 13.4727 1.58063 0.79657 0
M  V30 115 C 10.6017 3.19089 1.26638 0
M  V30 116 C 9.6877 4.19783 0.603598 0
M  V30 117 N 10.0787 5.0479 -0.319405 0
M  V30 118 C 8.3767 4.3765 0.858989 0
M  V30 119 C 9.0777 5.77433 -0.703241 0
M  V30 120 N 8.0537 5.43566 -0.0608309 0
M  V30 121 H 11.8557 2.89947 -0.480391 0
M  V30 122 H 9.3697 1.58263 -0.364209 0
M  V30 123 H 11.3667 3.74337 1.83515 0
M  V30 124 H 10.0267 2.5754 1.97745 0
M  V30 125 H 11.0377 5.13244 -0.692889 0
M  V30 126 H 7.7147 3.87281 1.55948 0
M  V30 127 H 9.1047 6.55824 -1.46098 0
M  V30 128 N 11.8248 0.280983 1.55075 0
M  V30 129 C 13.2358 -0.215629 1.85451 0
M  V30 130 C 13.5868 -1.54991 1.203 0
M  V30 131 O 12.7118 -2.10699 0.493435 0
M  V30 132 C 13.3068 -0.398026 3.36454 0
M  V30 133 C 11.8658 -0.838866 3.66933 0
M  V30 134 C 11.0128 0.064458 2.77225 0
M  V30 135 H 13.9638 0.502601 1.50531 0
M  V30 136 H 13.9848 -1.23569 3.59876 0
M  V30 137 H 13.4968 0.573241 3.83843 0
M  V30 138 H 11.5978 -1.8214 3.25048 0
M  V30 139 H 11.7108 -0.672123 4.74362 0
M  V30 140 H 10.0748 -0.452863 2.50642 0
M  V30 141 H 10.8578 1.03172 3.2743 0
M  V30 142 N 13.3029 -1.57598 0.00835791 0
M  V30 143 C 14.2129 -2.12385 -0.996487 0
M  V30 144 C 15.2289 -1.07108 -1.37127 0
M  V30 145 O 16.4049 -1.39055 -1.4569 0
M  V30 146 C 13.4699 -2.62314 -2.26699 0
M  V30 147 C 12.5309 -3.82225 -1.95456 0
M  V30 148 C 11.7639 -4.29763 -3.16449 0
M  V30 149 O 11.9869 -3.76584 -4.28416 0
M  V30 150 O 10.9209 -5.21832 -2.99958 0
M  V30 151 H 14.7469 -2.98479 -0.560725 0
M  V30 152 H 12.3319 -1.47903 -0.210987 0
M  V30 153 H 14.2139 -2.94589 -3.01322 0
M  V30 154 H 12.8889 -1.79313 -2.69497 0
M  V30 155 H 11.7959 -3.54909 -1.18282 0
M  V30 156 H 13.1289 -4.66324 -1.57489 0
M  V30 157 N 14.781 0.264519 -1.55364 0
M  V30 158 C 16.027 0.992314 -1.77552 0
M  V30 159 C 16.382 1.83626 -0.574379 0
M  V30 160 O 15.675 1.86648 0.432782 0
M  V30 161 C 15.869 1.9004 -3.02687 0
M  V30 162 C 15.698 1.14583 -4.34857 0
M  V30 163 C 14.468 0.858068 -4.97961 0
M  V30 164 C 16.666 0.532069 -5.1154 0
M  V30 165 N 14.648 0.0775974 -6.13851 0
M  V30 166 C 16.019 -0.113823 -6.19896 0
M  V30 167 C 18.074 0.440763 -4.95945 0
M  V30 168 C 16.777 -0.842231 -7.14352 0
M  V30 169 C 18.803 -0.274072 -5.90765 0
M  V30 170 C 18.165 -0.90867 -6.98515 0
M  V30 171 H 14.264 0.344811 -0.701875 0
M  V30 172 H 16.848 0.267141 -1.92859 0
M  V30 173 H 15.019 2.59775 -2.88741 0
M  V30 174 H 16.751 2.56243 -3.13243 0
M  V30 175 H 13.506 1.16547 -4.59036 0
M  V30 176 H 13.93 -0.300216 -6.76334 0
M  V30 177 H 18.572 0.917064 -4.12735 0
M  V30 178 H 16.29 -1.33019 -7.97077 0
M  V30 179 H 19.876 -0.345151 -5.80775 0
M  V30 180 H 18.756 -1.45299 -7.70622 0
M  V30 181 N 16.2591 1.48442 0.529413 0
M  V30 182 C 17.2071 1.63452 1.65487 0
M  V30 183 C 18.2011 0.500955 1.61823 0
M  V30 184 O 19.4071 0.679695 1.66674 0
M  V30 185 H 15.7821 0.514905 0.548066 0
M  V30 186 H 17.7531 2.57975 1.49971 0
M  V30 187 C 16.5021 1.69196 3.03756 0
M  V30 188 H 15.8251 2.55784 3.07269 0
M  V30 189 H 17.2651 1.83743 3.82119 0
M  V30 190 C 15.7241 0.430765 3.34135 0
M  V30 191 O 16.2541 -0.4561 3.99102 0
M  V30 192 N 14.4601 0.302293 2.89023 0
M  V30 193 H 14.0071 1.02496 2.36331 0
M  V30 194 H 13.9651 -0.540546 3.09718 0
M  V30 195 N 17.7372 -0.778329 1.37039 0
M  V30 196 C 18.6472 -1.92253 1.34446 0
M  V30 197 C 19.6632 -1.72267 0.244991 0
M  V30 198 O 20.8392 -1.95615 0.479258 0
M  V30 199 C 17.9042 -3.27282 1.144 0
M  V30 200 C 16.9652 -3.59969 2.33925 0
M  V30 201 C 16.1982 -4.88555 2.14825 0
M  V30 202 O 16.4212 -5.59113 1.12912 0
M  V30 203 O 15.3552 -5.20153 3.02861 0
M  V30 204 H 19.1812 -1.97392 2.30803 0
M  V30 205 H 16.7662 -0.920154 1.17701 0
M  V30 206 H 18.6482 -4.08062 1.05182 0
M  V30 207 H 17.3232 -3.23011 0.211124 0
M  V30 208 H 16.2302 -2.7945 2.48714 0
M  V30 209 H 17.5632 -3.68976 3.25757 0
M  V30 210 N 19.2153 -1.21501 -1.00376 0
M  V30 211 C 20.4403 -1.05977 -1.78279 0
M  V30 212 C 20.8653 0.385994 -1.84097 0
M  V30 213 O 20.2233 1.27849 -1.28547 0
M  V30 214 C 20.2713 -1.66302 -3.19963 0
M  V30 215 O 19.3753 -0.909333 -4.0225 0
M  V30 216 H 18.7163 -0.372906 -0.549397 0
M  V30 217 H 21.2463 -1.6107 -1.26165 0
M  V30 218 H 21.2563 -1.70574 -3.70632 0
M  V30 219 H 19.9313 -2.71515 -3.15043 0
M  V30 220 H 18.5083 -0.941795 -3.60811 0
M  V30 221 N 20.6934 1.19889 -1.02296 0
M  V30 222 C 21.6264 2.21639 -0.543282 0
M  V30 223 C 22.6044 1.57275 0.412698 0
M  V30 224 O 23.7884 1.85568 0.331198 0
M  V30 225 C 20.9154 3.38057 0.208571 0
M  V30 226 C 19.9614 4.20751 -0.697933 0
M  V30 227 S 20.7944 4.89529 -2.17075 0
M  V30 228 C 21.9504 6.09363 -1.42923 0
M  V30 229 H 22.1834 2.61984 -1.40541 0
M  V30 230 H 19.7164 1.30041 -0.832387 0
M  V30 231 H 21.6744 4.05539 0.63624 0
M  V30 232 H 20.3354 2.96159 1.04635 0
M  V30 233 H 19.5284 5.03862 -0.117831 0
M  V30 234 H 19.1304 3.58556 -1.06366 0
M  V30 235 H 21.4224 6.73742 -0.712637 0
M  V30 236 H 22.3654 6.71845 -2.23673 0
M  V30 237 H 22.7734 5.56798 -0.929327 0
M  V30 238 N 22.1715 0.800033 1.35784 0
M  V30 239 C 23.1215 0.178654 2.27299 0
M  V30 240 C 24.1055 -0.643667 1.47464 0
M  V30 241 O 25.2975 -0.502 1.69732 0
M  V30 242 C 22.4265 -0.677194 3.36555 0
M  V30 243 C 21.5125 0.154497 4.23818 0
M  V30 244 N 21.9035 1.21427 4.91008 0
M  V30 245 C 20.2015 -0.0649462 4.45953 0
M  V30 246 C 20.9025 1.72147 5.55644 0
M  V30 247 N 19.8785 1.02897 5.33773 0
M  V30 248 H 23.6805 0.989637 2.76737 0
M  V30 249 H 21.1945 0.64054 1.49234 0
M  V30 250 H 23.1915 -1.13835 4.01058 0
M  V30 251 H 21.8515 -1.4866 2.8867 0
M  V30 252 H 22.8625 1.59684 4.92668 0
M  V30 253 H 19.5395 -0.844016 4.0888 0
M  V30 254 H 20.9295 2.60683 6.19269 0
M  V30 255 N 23.6496 -1.47581 0.552962 0
M  V30 256 C 24.8746 -2.07378 0.0300593 0
M  V30 257 C 25.2996 -1.40355 -1.25229 0
M  V30 258 O 24.6576 -0.477099 -1.7491 0
M  V30 259 C 24.7056 -3.60274 -0.153231 0
M  V30 260 O 23.8096 -3.94041 -1.21678 0
M  V30 261 H 23.1506 -0.662158 0.0494182 0
M  V30 262 H 25.6806 -1.89662 0.767434 0
M  V30 263 H 25.6906 -4.0633 -0.368761 0
M  V30 264 H 24.3656 -4.08455 0.783397 0
M  V30 265 H 22.9426 -3.59735 -0.982079 0
M  V30 266 N 25.1277 -0.289203 -1.54924 0
M  V30 267 C 26.0577 0.58549 -2.2604 0
M  V30 268 C 27.0387 1.14753 -1.25562 0
M  V30 269 O 28.2237 1.17906 -1.54311 0
M  V30 270 C 25.3537 1.76305 -2.99222 0
M  V30 271 C 24.3077 1.33191 -4.06748 0
M  V30 272 C 23.6337 2.5937 -4.6758 0
M  V30 273 C 24.9337 0.471775 -5.20165 0
M  V30 274 H 26.6277 -0.00763532 -2.99399 0
M  V30 275 H 24.1737 -0.00511229 -1.43999 0
M  V30 276 H 26.1267 2.38097 -3.47689 0
M  V30 277 H 24.8507 2.38223 -2.23422 0
M  V30 278 H 23.5097 0.737121 -3.59113 0
M  V30 279 H 23.1577 3.19576 -3.88433 0
M  V30 280 H 22.8577 2.31228 -5.40192 0
M  V30 281 H 24.3817 3.21985 -5.18804 0
M  V30 282 H 25.7957 0.995056 -5.64599 0
M  V30 283 H 24.1927 0.284639 -5.99425 0
M  V30 284 H 25.2627 -0.506041 -4.82252 0
M  V30 285 N 26.6058 1.57591 -0.0167156 0
M  V30 286 C 28.0218 1.55946 0.339557 0
M  V30 287 C 28.2218 1.02109 1.73713 0
M  V30 288 O 27.2778 0.662303 2.43659 0
M  V30 289 C 28.5908 3.00037 0.199499 0
M  V30 290 C 30.1388 3.11805 0.273193 0
M  V30 291 C 30.6138 4.57713 0.162068 0
M  V30 292 N 32.1048 4.6268 0.219444 0
M  V30 293 C 32.8398 5.73185 0.157054 0
M  V30 294 N 32.3358 6.92786 0.0442936 0
M  V30 295 N 34.1288 5.61707 0.21014 0
M  V30 296 H 26.2798 1.90921 -0.930758 0
M  V30 297 H 28.5428 0.877674 -0.358319 0
M  V30 298 H 28.2488 3.4333 -0.76273 0
M  V30 299 H 28.1228 3.64387 0.974786 0
M  V30 300 H 30.5098 2.68433 1.22587 0
M  V30 301 H 30.5908 2.50201 -0.532256 0
M  V30 302 H 30.2348 5.01763 -0.78714 0
M  V30 303 H 30.1648 5.17283 0.986222 0
M  V30 304 H 32.6558 3.76649 0.307246 0
M  V30 305 H 32.9688 7.728 0.00304069 0
M  V30 306 H 31.3138 6.94999 0.00968457 0
M  V30 307 H 34.5048 4.6716 0.296546 0
M  V30 308 H 34.6778 6.47807 0.158054 0
M  V30 309 N 28.0839 -0.256276 1.55502 0
M  V30 310 C 29.3329 -0.983486 1.76098 0
M  V30 311 C 29.6459 -1.86837 0.578896 0
M  V30 312 O 30.8519 -2.63163 0.667648 0
M  V30 313 C 29.3079 -1.79868 3.1173 0
M  V30 314 C 28.9159 -0.961648 4.37557 0
M  V30 315 C 30.6599 -2.51919 3.41668 0
M  V30 316 C 28.5669 -1.77219 5.64223 0
M  V30 317 H 27.4969 -0.370936 0.656447 0
M  V30 318 H 30.1479 -0.238492 1.81944 0
M  V30 319 H 28.5299 -2.58527 2.99966 0
M  V30 320 H 29.7039 -0.218048 4.60284 0
M  V30 321 H 28.0189 -0.354913 4.14885 0
M  V30 322 H 30.6159 -3.12998 4.33516 0
M  V30 323 H 30.9589 -3.23059 2.62562 0
M  V30 324 H 31.4919 -1.80278 3.54605 0
M  V30 325 H 28.2309 -1.10471 6.46124 0
M  V30 326 H 27.7509 -2.49132 5.45613 0
M  V30 327 H 29.4299 -2.34169 6.03137 0
M  V30 328 N 29.562 -1.4872 -0.521534 0
M  V30 329 C 30.787 -1.61101 -1.30618 0
M  V30 330 C 31.212 -0.274611 -1.86085 0
M  V30 331 O 30.57 0.754937 -1.64834 0
M  V30 332 C 30.618 -2.66709 -2.4269 0
M  V30 333 O 29.722 -2.24456 -3.45967 0
M  V30 334 H 29.063 -0.539921 -0.386499 0
M  V30 335 H 31.593 -1.94767 -0.626645 0
M  V30 336 H 31.603 -2.88245 -2.88754 0
M  V30 337 H 30.278 -3.63727 -2.01682 0
M  V30 338 H 28.855 -2.13168 -3.05964 0
M  V30 339 N 31.0401 0.771051 -1.3745 0
M  V30 340 C 32.2861 1.5319 -1.32894 0
M  V30 341 C 32.6191 1.94008 0.0862511 0
M  V30 342 O 31.8941 1.64124 1.04373 0
M  V30 343 C 32.1771 2.79648 -2.26868 0
M  V30 344 C 32.0301 2.45079 -3.77169 0
M  V30 345 C 33.3491 3.81583 -2.19277 0
M  V30 346 H 30.4681 0.555744 -0.484064 0
M  V30 347 H 33.1101 0.884492 -1.68157 0
M  V30 348 H 31.2601 3.34891 -1.96926 0
M  V30 349 H 32.9321 1.95745 -4.1771 0
M  V30 350 H 31.1751 1.77767 -3.95704 0
M  V30 351 H 31.8461 3.35478 -4.38359 0
M  V30 352 H 34.3221 3.35835 -2.45671 0
M  V30 353 H 33.1981 4.67787 -2.87171 0
M  V30 354 H 33.4591 4.25897 -1.18592 0
M  V30 355 N 32.5182 1.22032 0.997298 0
M  V30 356 C 33.7662 1.04016 1.73278 0
M  V30 357 C 34.0872 -0.426255 1.90284 0
M  V30 358 O 33.3572 -1.30694 1.45931 0
M  V30 359 H 31.9372 0.381897 0.642 0
M  V30 360 H 34.5992 1.5347 1.20137 0
M  V30 361 H 33.6952 1.51441 2.72896 0
M  V30 362 N 33.9963 -1.19345 1.0293 0
M  V30 363 C 35.2443 -1.88665 0.724574 0
M  V30 364 C 35.5653 -1.80036 -0.749144 0
M  V30 365 O 34.8353 -1.2111 -1.53978 0
M  V30 366 H 33.4153 -0.698406 0.265025 0
M  V30 367 H 36.0773 -1.44885 1.30362 0
M  V30 368 H 35.1733 -2.94987 1.01926 0
M  V30 369 N 35.4744 -0.807222 -1.35358 0
M  V30 370 C 36.4044 -0.232509 -2.3234 0
M  V30 371 C 37.3854 0.642386 -1.57504 0
M  V30 372 O 38.5704 0.572526 -1.85569 0
M  V30 373 C 35.7004 0.619238 -3.41735 0
M  V30 374 C 34.6544 -0.157215 -4.27711 0
M  V30 375 C 33.9804 0.816273 -5.28433 0
M  V30 376 C 35.2804 -1.35656 -5.04376 0
M  V30 377 H 36.9744 -1.04276 -2.80654 0
M  V30 378 H 34.5204 -0.50288 -1.34934 0
M  V30 379 H 36.4734 1.03137 -4.08584 0
M  V30 380 H 35.1974 1.46239 -2.92031 0
M  V30 381 H 33.8564 -0.550525 -3.62443 0
M  V30 382 H 33.5044 1.65494 -4.74996 0
M  V30 383 H 33.2044 0.301067 -5.86828 0
M  V30 384 H 34.7284 1.22659 -5.98153 0
M  V30 385 H 36.1424 -1.01927 -5.64166 0
M  V30 386 H 34.5394 -1.8063 -5.7227 0
M  V30 387 H 35.6094 -2.14288 -4.34981 0
M  V30 388 N 36.9525 1.47285 -0.560781 0
M  V30 389 C 38.3635 1.86258 -0.128343 0
M  V30 390 C 38.7145 1.46699 1.30284 0
M  V30 391 O 37.8395 0.871698 1.98067 0
M  V30 392 C 38.4345 3.38044 -0.22614 0
M  V30 393 C 36.9935 3.76096 0.151283 0
M  V30 394 C 36.1405 2.71335 -0.572084 0
M  V30 395 H 39.0915 1.38752 -0.770297 0
M  V30 396 H 39.1125 3.76441 0.554322 0
M  V30 397 H 38.6245 3.66806 -1.26788 0
M  V30 398 H 36.7255 3.52951 1.19399 0
M  V30 399 H 36.8385 4.78641 -0.209765 0
M  V30 400 H 35.2025 2.54696 -0.0147653 0
M  V30 401 H 35.9855 3.02938 -1.61504 0
M  V30 402 N 38.4306 0.297415 1.54768 0
M  V30 403 C 39.6766 -0.313376 2.00364 0
M  V30 404 C 40.0096 -1.53815 1.18553 0
M  V30 405 O 39.2846 -1.92739 0.261103 0
M  V30 406 C 39.5676 -0.673525 3.53745 0
M  V30 407 C 39.4206 0.560133 4.46299 0
M  V30 408 C 40.7396 -1.50143 4.13697 0
M  V30 409 H 37.8586 -0.112428 0.728374 0
M  V30 410 H 40.5006 0.4088 1.8555 0
M  V30 411 H 38.6506 -1.28881 3.665 0
M  V30 412 H 40.3226 1.19863 4.45455 0
M  V30 413 H 38.5656 1.19405 4.17043 0
M  V30 414 H 39.2366 0.26405 5.51368 0
M  V30 415 H 41.7126 -0.981588 4.04356 0
M  V30 416 H 40.5886 -1.72221 5.21182 0
M  V30 417 H 40.8496 -2.48952 3.65343 0
M  V30 418 N 39.9087 -1.5758 0.0250728 0
M  V30 419 C 40.8387 -2.13007 -0.956575 0
M  V30 420 C 41.8197 -1.0452 -1.342 0
M  V30 421 O 43.0047 -1.32332 -1.42133 0
M  V30 422 C 40.1347 -2.65386 -2.24026 0
M  V30 423 C 39.0887 -3.78623 -1.99571 0
M  V30 424 C 38.4147 -4.17414 -3.3417 0
M  V30 425 C 39.7147 -5.04867 -1.33814 0
M  V30 426 H 41.4087 -2.9528 -0.494991 0
M  V30 427 H 38.9547 -1.42042 -0.236651 0
M  V30 428 H 40.9077 -3.02794 -2.93076 0
M  V30 429 H 39.6317 -1.80268 -2.72343 0
M  V30 430 H 38.2907 -3.41646 -1.32941 0
M  V30 431 H 37.9387 -3.29284 -3.80238 0
M  V30 432 H 37.6387 -4.93719 -3.18615 0
M  V30 433 H 39.1627 -4.57402 -4.04495 0
M  V30 434 H 40.5767 -5.39888 -1.92857 0
M  V30 435 H 38.9737 -5.86144 -1.28669 0
M  V30 436 H 40.0437 -4.83904 -0.310561 0
M  V30 437 N 41.3868 0.248026 -1.55636 0
M  V30 438 C 42.3498 1.29044 -1.89421 0
M  V30 439 C 43.3498 1.41134 -0.770581 0
M  V30 440 O 44.5398 1.39854 -1.03858 0
M  V30 441 C 41.6718 2.66831 -2.12165 0
M  V30 442 H 42.8648 1.00305 -2.82629 0
M  V30 443 H 40.4178 0.487265 -1.48511 0
M  V30 444 H 41.1528 3.00711 -1.21422 0
M  V30 445 H 40.9378 2.59438 -2.93997 0
M  V30 446 H 42.4278 3.42103 -2.3949 0
M  V30 447 N 42.8649 1.48995 0.513639 0
M  V30 448 C 44.0899 1.61792 1.29762 0
M  V30 449 C 44.5149 0.284475 1.85936 0
M  V30 450 O 43.8729 -0.746185 1.65232 0
M  V30 451 C 43.9209 2.67993 2.41272 0
M  V30 452 O 43.0249 2.26287 3.44772 0
M  V30 453 H 42.3659 0.541963 0.38363 0
M  V30 454 H 44.8959 1.95097 0.616307 0
M  V30 455 H 44.9059 2.89772 2.87221 0
M  V30 456 H 43.5809 3.64791 1.9975 0
M  V30 457 H 42.1579 2.14788 3.04829 0
M  V30 458 N 44.343 -0.763751 1.37857 0
M  V30 459 C 45.276 -1.88486 1.28639 0
M  V30 460 C 46.254 -1.61757 0.165363 0
M  V30 461 O 47.438 -1.85391 0.340948 0
M  V30 462 C 44.565 -3.23884 0.990811 0
M  V30 463 C 43.611 -3.69514 2.12983 0
M  V30 464 S 44.444 -3.82244 3.75033 0
M  V30 465 C 45.6 -5.20477 3.47641 0
M  V30 466 H 45.833 -1.96017 2.23527 0
M  V30 467 H 43.366 -0.925684 1.23574 0
M  V30 468 H 45.324 -4.02081 0.827101 0
M  V30 469 H 43.985 -3.14044 0.0592832 0
M  V30 470 H 43.178 -4.67696 1.87821 0
M  V30 471 H 42.78 -2.98441 2.25408 0
M  V30 472 H 45.072 -6.05905 3.03125 0
M  V30 473 H 46.015 -5.50655 4.4518 0
M  V30 474 H 46.423 -4.88793 2.82385 0
M  V30 475 N 45.8211 -1.22559 -0.990812 0
M  V30 476 C 47.0491 -1.07779 -1.76611 0
M  V30 477 C 47.4641 0.371513 -1.85109 0
M  V30 478 O 46.8211 1.25737 -1.32274 0
M  V30 479 C 46.8721 -1.68512 -3.19822 0
M  V30 480 O 46.5931 -3.07774 -3.1178 0
M  V30 481 C 48.0941 -1.59035 -4.13791 0
M  V30 482 H 45.3141 -0.377729 -0.554583 0
M  V30 483 H 47.8581 -1.62195 -1.24551 0
M  V30 484 H 46.0131 -1.18154 -3.68942 0
M  V30 485 H 46.4271 -3.37062 -4.01858 0
M  V30 486 H 47.9011 -2.0625 -5.1202 0
M  V30 487 H 48.3781 -0.547273 -4.35777 0
M  V30 488 H 48.9841 -2.08709 -3.70568 0
M  V30 489 N 47.2992 1.18797 -1.03562 0
M  V30 490 C 48.2462 2.22253 -0.622259 0
M  V30 491 C 49.2162 1.61987 0.36736 0
M  V30 492 O 50.4012 1.88986 0.262492 0
M  V30 493 C 47.5412 3.45097 0.0138462 0
M  V30 494 C 46.6542 4.19722 -1.02263 0
M  V30 495 C 45.7892 5.30009 -0.355573 0
M  V30 496 C 44.8282 5.96399 -1.37749 0
M  V30 497 N 43.9652 6.98234 -0.735766 0
M  V30 498 H 48.8052 2.56968 -1.50903 0
M  V30 499 H 46.3422 1.26245 -0.755017 0
M  V30 500 H 48.3002 4.15279 0.399948 0
M  V30 501 H 46.9302 3.11018 0.864158 0
M  V30 502 H 45.9822 3.48418 -1.52673 0
M  V30 503 H 47.2942 4.65227 -1.79903 0
M  V30 504 H 46.4482 6.0664 0.0850095 0
M  V30 505 H 45.1872 4.85592 0.452967 0
M  V30 506 H 44.1922 5.18512 -1.82826 0
M  V30 507 H 45.4172 6.42899 -2.18764 0
M  V30 508 H 43.3632 6.55979 0.0525597 0
M  V30 509 H 43.2802 7.41965 -1.44995 0
M  V30 510 H 44.5482 7.78845 -0.31941 0
M  V30 511 N 48.7773 0.814389 1.34928 0
M  V30 512 C 49.7403 0.235759 2.27984 0
M  V30 513 C 50.7403 -0.581412 1.49921 0
M  V30 514 O 51.9303 -0.398758 1.69575 0
M  V30 515 C 49.0623 -0.670433 3.34242 0
M  V30 516 H 50.2553 1.05659 2.80671 0
M  V30 517 H 47.8083 0.585614 1.44915 0
M  V30 518 H 48.5433 -1.51466 2.86755 0
M  V30 519 H 48.3283 -0.0860822 3.92005 0
M  V30 520 H 49.8183 -1.06935 4.03676 0
M  V30 521 N 50.2554 -1.46986 0.568584 0
M  V30 522 C 51.2184 -2.28624 -0.162366 0
M  V30 523 C 52.2184 -1.37596 -0.832103 0
M  V30 524 O 53.4084 -1.60115 -0.68622 0
M  V30 525 C 50.5404 -3.17596 -1.23878 0
M  V30 526 H 51.7334 -2.94722 0.554899 0
M  V30 527 H 49.2864 -1.52863 0.325976 0
M  V30 528 H 50.0214 -2.56214 -1.98808 0
M  V30 529 H 49.8064 -3.846 -0.763219 0
M  V30 530 H 51.2964 -3.79078 -1.75185 0
M  V30 531 N 51.7335 -0.305618 -1.54608 0
M  V30 532 C 53.0105 0.355652 -1.92339 0
M  V30 533 C 53.3905 1.71324 -1.23335 0
M  V30 534 O 52.7385 2.25473 -0.370702 0
M  V30 535 C 52.9485 0.46572 -3.45879 0
M  V30 536 C 54.2965 0.734426 -4.182 0
M  V30 537 O 55.3205 0.54935 -3.51938 0
M  V30 538 O 54.1795 1.09024 -5.35515 0
M  V30 539 H 51.2735 0.199666 -0.802535 0
M  V30 540 H 53.8195 -0.354017 -1.65966 0
M  V30 541 H 52.5915 -0.488461 -3.88239 0
M  V30 542 H 52.2145 1.22367 -3.78301 0
M  V30 543 N 53.2116 1.57565 -0.0334293 0
M  V30 544 C 54.6226 1.79746 0.504798 0
M  V30 545 C 54.9736 0.944091 1.71992 0
M  V30 546 O 54.0986 0.155694 2.15839 0
M  V30 547 C 54.6936 3.25997 0.922567 0
M  V30 548 C 53.2526 3.49159 1.40588 0
M  V30 549 C 52.3996 2.74785 0.372633 0
M  V30 550 H 55.3506 1.56565 -0.259436 0
M  V30 551 H 55.3716 3.35945 1.78666 0
M  V30 552 H 54.8836 3.88081 0.0379825 0
M  V30 553 H 52.9846 2.92332 2.31025 0
M  V30 554 H 53.0976 4.57873 1.41028 0
M  V30 555 H 51.4616 2.40391 0.841672 0
M  V30 556 H 52.2446 3.39587 -0.503559 0
M  V30 557 N 54.6897 -0.239769 1.55765 0
M  V30 558 C 56.1057 -0.588624 1.48349 0
M  V30 559 C 56.3057 -1.88005 0.72502 0
M  V30 560 O 55.3617 -2.51186 0.257269 0
M  V30 561 C 56.6747 -0.68474 2.928 0
M  V30 562 C 58.2227 -0.77659 3.03213 0
M  V30 563 C 58.6977 -0.904207 4.48986 0
M  V30 564 N 60.1887 -0.968896 4.52953 0
M  V30 565 C 60.9237 -1.08703 5.63002 0
M  V30 566 N 60.4197 -1.17026 6.82845 0
M  V30 567 N 62.2127 -1.12074 5.50814 0
M  V30 568 H 54.3637 0.607911 2.03515 0
M  V30 569 H 56.6267 0.21083 0.924259 0
M  V30 570 H 56.3327 0.194284 3.51163 0
M  V30 571 H 56.2067 -1.55435 3.43686 0
M  V30 572 H 58.5937 -1.64606 2.44926 0
M  V30 573 H 58.6747 0.118315 2.55526 0
M  V30 574 H 58.3187 -0.0392633 5.07885 0
M  V30 575 H 58.2487 -1.81426 4.9436 0
M  V30 576 H 60.7397 -0.915633 3.6664 0
M  V30 577 H 61.0527 -1.25966 7.62465 0
M  V30 578 H 59.3977 -1.13971 6.85591 0
M  V30 579 H 62.5887 -1.05226 4.5612 0
M  V30 580 H 62.7617 -1.20936 6.36615 0
M  V30 581 N 56.1678 -1.49265 -0.50573 0
M  V30 582 C 57.4148 -1.58513 -1.26015 0
M  V30 583 C 57.7428 -0.26972 -1.92621 0
M  V30 584 O 56.9978 0.741997 -1.81088 0
M  V30 585 C 57.2968 -2.69008 -2.35308 0
M  V30 586 C 56.9628 -4.10662 -1.86192 0
M  V30 587 C 55.6248 -4.49212 -1.72516 0
M  V30 588 C 57.9768 -4.99336 -1.49375 0
M  V30 589 C 55.3048 -5.74214 -1.20394 0
M  V30 590 C 57.6568 -6.24852 -0.987072 0
M  V30 591 C 56.3208 -6.62236 -0.836669 0
M  V30 592 H 55.5908 -0.580041 -0.461122 0
M  V30 593 H 58.2378 -1.83078 -0.561665 0
M  V30 594 H 56.5428 -2.38396 -3.10926 0
M  V30 595 H 58.2398 -2.73373 -2.93374 0
M  V30 596 H 54.8298 -3.8023 -1.97795 0
M  V30 597 H 59.0138 -4.70212 -1.5879 0
M  V30 598 H 54.2698 -6.01883 -1.07458 0
M  V30 599 H 58.4438 -6.92944 -0.692983 0
M  V30 600 H 56.0708 -7.58979 -0.430607 0
M  V30 601 N 57.6459 0.756429 -1.3826 0
M  V30 602 C 59.0619 1.0591 -1.19395 0
M  V30 603 C 59.2619 2.01459 -0.0406567 0
M  V30 604 O 58.3179 2.44909 0.614467 0
M  V30 605 C 59.6309 1.64191 -2.51916 0
M  V30 606 C 61.1789 1.76376 -2.58574 0
M  V30 607 C 61.6539 2.38069 -3.91264 0
M  V30 608 N 63.1449 2.45503 -3.92788 0
M  V30 609 C 63.8799 2.94126 -4.92217 0
M  V30 610 N 63.3759 3.42805 -6.02043 0
M  V30 611 N 65.1689 2.9314 -4.7961 0
M  V30 612 H 57.3199 0.122313 -2.12048 0
M  V30 613 H 59.5829 0.116892 -0.940766 0
M  V30 614 H 59.2889 1.01451 -3.3675 0
M  V30 615 H 59.1629 2.6329 -2.70108 0
M  V30 616 H 61.5499 2.38244 -1.74137 0
M  V30 617 H 61.6309 0.759894 -2.44252 0
M  V30 618 H 61.2749 1.76835 -4.76121 0
M  V30 619 H 61.2049 3.39091 -4.02895 0
M  V30 620 H 63.6959 2.1107 -3.13461 0
M  V30 621 H 64.0089 3.78354 -6.73846 0
M  V30 622 H 62.3539 3.4087 -6.05667 0
M  V30 623 H 65.5449 2.54419 -3.92923 0
M  V30 624 H 65.7179 3.30721 -5.5725 0
M  V30 625 N 59.124 1.23083 0.984299 0
M  V30 626 C 60.535 1.05609 1.5396 0
M  V30 627 C 60.886 -0.377793 1.92528 0
M  V30 628 O 60.011 -1.26398 1.75649 0
M  V30 629 C 60.606 1.91087 2.7977 0
M  V30 630 C 59.165 1.77885 3.31713 0
M  V30 631 C 58.312 1.87028 2.04733 0
M  V30 632 H 61.263 1.36802 0.804419 0
M  V30 633 H 61.284 1.43336 3.5247 0
M  V30 634 H 60.796 2.9544 2.51668 0
M  V30 635 H 58.897 0.762995 3.64704 0
M  V30 636 H 59.01 2.61047 4.01735 0
M  V30 637 H 57.374 1.30565 2.18689 0
M  V30 638 H 58.157 2.92929 1.79017 0
M  V30 639 N 60.6021 -1.18246 1.0419 0
M  V30 640 C 62.0181 -1.40269 0.761366 0
M  V30 641 C 62.2181 -1.90777 -0.648578 0
M  V30 642 O 61.2741 -2.0929 -1.41258 0
M  V30 643 C 62.5871 -2.40237 1.8085 0
M  V30 644 C 64.1351 -2.53961 1.82955 0
M  V30 645 C 64.6101 -3.57194 2.86664 0
M  V30 646 N 66.1011 -3.64702 2.85563 0
M  V30 647 C 66.8361 -4.44309 3.6246 0
M  V30 648 N 66.3321 -5.27514 4.49111 0
M  V30 649 N 68.1251 -4.39084 3.50944 0
M  V30 650 H 60.2761 -0.837882 1.95175 0
M  V30 651 H 62.5391 -0.430608 0.84456 0
M  V30 652 H 62.2451 -2.10176 2.81991 0
M  V30 653 H 62.1191 -3.39601 1.64168 0
M  V30 654 H 64.5061 -2.83338 0.824855 0
M  V30 655 H 64.5871 -1.54706 2.03715 0
M  V30 656 H 64.2311 -3.28558 3.87314 0
M  V30 657 H 64.1611 -4.5613 2.6316 0
M  V30 658 H 66.6521 -3.05289 2.22727 0
M  V30 659 H 66.9651 -5.85411 5.04493 0
M  V30 660 H 65.3101 -5.2693 4.53178 0
M  V30 661 H 68.5011 -3.7313 2.82651 0
M  V30 662 H 68.6741 -5.00883 4.11121 0
M  V30 663 N 62.0802 -0.821533 -1.34494 0
M  V30 664 C 63.3262 -0.418729 -1.99043 0
M  V30 665 C 63.6812 1.00672 -1.6396 0
M  V30 666 O 62.9742 1.69132 -0.900271 0
M  V30 667 C 63.1682 -0.556512 -3.53041 0
M  V30 668 C 62.9972 -1.9938 -4.03085 0
M  V30 669 C 61.7672 -2.62539 -4.31742 0
M  V30 670 C 63.9652 -2.96035 -4.20556 0
M  V30 671 N 61.9472 -3.97523 -4.67813 0
M  V30 672 C 63.3182 -4.15924 -4.59791 0
M  V30 673 C 65.3732 -2.9267 -4.02801 0
M  V30 674 C 64.0762 -5.32899 -4.83126 0
M  V30 675 C 66.1022 -4.08861 -4.27302 0
M  V30 676 C 65.4642 -5.275 -4.66822 0
M  V30 677 H 61.5632 -0.201299 -0.755647 0
M  V30 678 H 64.1472 -1.06594 -1.62929 0
M  V30 679 H 62.3182 0.0607924 -3.88352 0
M  V30 680 H 64.0502 -0.126842 -4.04501 0
M  V30 681 H 60.8052 -2.13789 -4.22601 0
M  V30 682 H 61.2292 -4.67061 -4.90085 0
M  V30 683 H 65.8712 -2.02088 -3.71376 0
M  V30 684 H 63.5892 -6.24041 -5.13418 0
M  V30 685 H 67.1752 -4.07654 -4.15101 0
M  V30 686 H 66.0552 -6.15913 -4.85408 0
M  V30 687 N 63.5583 1.46682 -0.576371 0
M  V30 688 C 64.5053 2.30241 0.160499 0
M  V30 689 C 65.4753 1.40233 0.890162 0
M  V30 690 O 66.6603 1.69186 0.882084 0
M  V30 691 C 63.8003 3.24578 1.1723 0
M  V30 692 C 62.9133 4.29684 0.446736 0
M  V30 693 C 62.0483 5.11154 1.44551 0
M  V30 694 C 61.0873 6.08015 0.70599 0
M  V30 695 N 60.2243 6.82376 1.65251 0
M  V30 696 H 65.0643 2.92727 -0.558127 0
M  V30 697 H 62.6013 1.44272 -0.287056 0
M  V30 698 H 64.5593 3.77711 1.77172 0
M  V30 699 H 63.1893 2.63916 1.85872 0
M  V30 700 H 62.2413 3.79458 -0.267594 0
M  V30 701 H 63.5533 4.98626 -0.131686 0
M  V30 702 H 62.7073 5.68533 2.11791 0
M  V30 703 H 61.4463 4.42158 2.05786 0
M  V30 704 H 60.4513 5.49796 0.0197725 0
M  V30 705 H 61.6763 6.79028 0.09912 0
M  V30 706 H 59.6223 6.16094 2.25308 0
M  V30 707 H 59.5393 7.47556 1.12673 0
M  V30 708 H 60.8073 7.44316 2.31546 0
M  V30 709 N 65.0364 0.313813 1.54444 0
M  V30 710 C 66.2824 -0.292108 2.00685 0
M  V30 711 C 66.6154 -1.52548 1.20177 0
M  V30 712 O 65.8904 -1.92452 0.281531 0
M  V30 713 C 66.1734 -0.635968 3.5444 0
M  V30 714 C 66.0264 0.607437 4.4568 0
M  V30 715 C 67.3454 -1.45747 4.15266 0
M  V30 716 H 64.4644 -0.104697 0.729526 0
M  V30 717 H 67.1064 0.428457 1.85106 0
M  V30 718 H 65.2564 -1.24986 3.67846 0
M  V30 719 H 66.9284 1.24581 4.44159 0
M  V30 720 H 65.1714 1.23822 4.15753 0
M  V30 721 H 65.8424 0.322515 5.51057 0
M  V30 722 H 68.3184 -0.938645 4.05375 0
M  V30 723 H 67.1944 -1.66683 5.2298 0
M  V30 724 H 67.4554 -2.45063 3.67963 0
M  V30 725 N 66.5145 -1.57545 0.0417849 0
M  V30 726 C 67.7635 -1.91494 -0.633492 0
M  V30 727 C 68.0765 -0.921084 -1.72556 0
M  V30 728 O 69.2825 -1.15228 -2.45835 0
M  V30 729 C 67.7385 -3.40072 -1.17808 0
M  V30 730 C 67.3465 -4.47843 -0.118633 0
M  V30 731 C 69.0905 -3.8307 -1.82915 0
M  V30 732 C 66.9975 -5.87529 -0.675578 0
M  V30 733 H 65.9275 -0.714653 -0.24039 0
M  V30 734 H 68.5785 -1.83175 0.109148 0
M  V30 735 H 66.9605 -3.43364 -1.97274 0
M  V30 736 H 68.1345 -4.56128 0.654494 0
M  V30 737 H 66.4495 -4.14128 0.434414 0
M  V30 738 H 69.0465 -4.84794 -2.25563 0
M  V30 739 H 69.3895 -3.1881 -2.67705 0
M  V30 740 H 69.9225 -3.82255 -1.10119 0
M  V30 741 H 66.6615 -6.55362 0.134475 0
M  V30 742 H 66.1815 -5.82824 -1.4169 0
M  V30 743 H 67.8605 -6.36491 -1.1614 0
M  V30 744 N 67.9926 0.231505 -1.5589 0
M  V30 745 C 68.9226 1.29022 -1.94617 0
M  V30 746 C 69.9036 1.4941 -0.813067 0
M  V30 747 O 71.0886 1.6176 -1.07459 0
M  V30 748 C 68.2186 2.64199 -2.25424 0
M  V30 749 C 67.1726 2.58484 -3.41131 0
M  V30 750 C 66.4986 3.97599 -3.57518 0
M  V30 751 C 67.7986 2.1413 -4.76388 0
M  V30 752 H 69.4926 0.968563 -2.83301 0
M  V30 753 H 67.0386 0.464479 -1.36303 0
M  V30 754 H 68.9916 3.38413 -2.51107 0
M  V30 755 H 67.7156 2.98032 -1.33583 0
M  V30 756 H 66.3746 1.86727 -3.15481 0
M  V30 757 H 66.0226 4.28723 -2.6307 0
M  V30 758 H 65.7226 3.94659 -4.35337 0
M  V30 759 H 67.2466 4.7349 -3.85538 0
M  V30 760 H 68.6606 2.78083 -5.01341 0
M  V30 761 H 67.0576 2.2227 -5.57419 0
M  V30 762 H 68.1276 1.09331 -4.72414 0
M  V30 763 N 69.4707 1.49531 0.497807 0
M  V30 764 C 70.6987 1.62893 1.27567 0
M  V30 765 C 71.1137 0.301585 1.86376 0
M  V30 766 O 70.4707 -0.713335 1.67982 0
M  V30 767 C 70.5217 2.70013 2.40364 0
M  V30 768 O 70.2427 3.976 1.83972 0
M  V30 769 C 71.7437 2.94109 3.31685 0
M  V30 770 H 68.9637 0.548298 0.386794 0
M  V30 771 H 71.5077 1.95584 0.597245 0
M  V30 772 H 69.6627 2.40092 3.04031 0
M  V30 773 H 70.0767 4.56631 2.58047 0
M  V30 774 H 71.5507 3.72788 4.07104 0
M  V30 775 H 72.0277 2.04147 3.88871 0
M  V30 776 H 72.6337 3.2546 2.73781 0
M  V30 777 N 70.9488 -0.749086 1.3866 0
M  V30 778 C 72.1958 -1.50833 1.35114 0
M  V30 779 C 72.5238 -1.94415 -0.0574049 0
M  V30 780 O 71.7788 -1.66065 -1.03541 0
M  V30 781 C 72.0778 -2.7712 2.25697 0
M  V30 782 C 71.7438 -2.52477 3.73585 0
M  V30 783 C 70.4058 -2.45466 4.13884 0
M  V30 784 C 72.7578 -2.31066 4.67181 0
M  V30 785 C 70.0858 -2.15064 5.45861 0
M  V30 786 C 72.4378 -2.02183 5.9942 0
M  V30 787 C 71.1018 -1.93631 6.38798 0
M  V30 788 H 70.3718 -0.551936 0.494416 0
M  V30 789 H 73.0188 -0.860979 1.71054 0
M  V30 790 H 71.3238 -3.46528 1.82827 0
M  V30 791 H 73.0208 -3.35096 2.20254 0
M  V30 792 H 69.6108 -2.58807 3.41638 0
M  V30 793 H 73.7948 -2.35459 4.3689 0
M  V30 794 H 69.0508 -2.06954 5.75308 0
M  V30 795 H 73.2248 -1.8462 6.71482 0
M  V30 796 H 70.8518 -1.69839 7.40985 0
M  V30 797 N 72.4269 -1.23603 -0.977757 0
M  V30 798 C 73.6739 -1.06971 -1.71941 0
M  V30 799 C 74.0019 0.393009 -1.90488 0
M  V30 800 O 73.2569 1.30719 -1.4564 0
M  V30 801 C 73.5559 -1.7433 -3.11999 0
M  V30 802 C 73.2219 -3.24252 -3.13323 0
M  V30 803 C 71.8839 -3.65156 -3.13392 0
M  V30 804 C 74.2359 -4.20141 -3.08433 0
M  V30 805 C 71.5639 -5.00403 -3.0629 0
M  V30 806 C 73.9159 -5.55384 -3.02873 0
M  V30 807 C 72.5799 -5.95647 -3.01265 0
M  V30 808 H 71.8499 -0.391433 -0.629175 0
M  V30 809 H 74.4969 -1.53572 -1.14403 0
M  V30 810 H 72.8019 -1.20096 -3.7294 0
M  V30 811 H 74.4989 -1.58936 -3.68158 0
M  V30 812 H 71.0889 -2.91692 -3.14029 0
M  V30 813 H 75.2729 -3.89547 -3.07517 0
M  V30 814 H 70.5289 -5.3081 -3.03399 0
M  V30 815 H 74.7029 -6.29398 -2.98046 0
M  V30 816 H 72.3299 -7.0041 -2.95516 0
M  V30 817 N 73.905 1.17692 -1.04816 0
M  V30 818 C 75.151 1.88137 -0.75711 0
M  V30 819 C 75.484 1.80604 0.713841 0
M  V30 820 O 74.759 1.21146 1.52164 0
M  V30 821 C 75.042 3.38318 -1.2334 0
M  V30 822 C 74.895 3.54622 -2.76701 0
M  V30 823 C 76.214 4.32214 -0.829415 0
M  V30 824 H 73.333 0.683163 -0.27651 0
M  V30 825 H 75.975 1.38424 -1.30149 0
M  V30 826 H 74.125 3.80787 -0.770286 0
M  V30 827 H 75.797 3.21194 -3.31107 0
M  V30 828 H 74.04 2.97026 -3.16161 0
M  V30 829 H 74.711 4.60028 -3.05088 0
M  V30 830 H 77.187 3.97565 -1.22805 0
M  V30 831 H 76.063 5.35838 -1.19033 0
M  V30 832 H 76.324 4.41294 0.266891 0
M  V30 833 N 75.3831 0.828654 1.34056 0
M  V30 834 C 76.6311 0.41863 1.97717 0
M  V30 835 C 76.9521 -1.02314 1.66002 0
M  V30 836 O 76.2221 -1.71119 0.953683 0
M  V30 837 H 74.8021 0.151809 0.731412 0
M  V30 838 H 77.4641 1.05936 1.63596 0
M  V30 839 H 76.5601 0.542318 3.07352 0
M  V30 840 N 76.8612 -1.46375 0.584142 0
M  V30 841 C 77.8242 -2.28784 -0.138108 0
M  V30 842 C 78.8242 -1.38471 -0.817462 0
M  V30 843 O 80.0142 -1.60833 -0.669199 0
M  V30 844 C 77.1462 -3.18892 -1.20503 0
M  V30 845 H 78.3392 -2.94117 0.586127 0
M  V30 846 H 75.8922 -1.52509 0.342171 0
M  V30 847 H 76.6272 -2.58309 -1.96079 0
M  V30 848 H 76.4122 -3.85388 -0.722384 0
M  V30 849 H 77.9022 -3.80914 -1.71155 0
M  V30 850 N 78.3393 -0.321999 -1.54275 0
M  V30 851 C 79.3023 0.531975 -2.22941 0
M  V30 852 C 80.3023 1.04478 -1.22234 0
M  V30 853 O 81.4923 0.937452 -1.46825 0
M  V30 854 C 78.6243 1.73874 -2.93224 0
M  V30 855 H 79.8173 -0.0682612 -2.99822 0
M  V30 856 H 77.3703 -0.0730644 -1.56129 0
M  V30 857 H 78.1053 2.37825 -2.20476 0
M  V30 858 H 77.8903 1.37847 -3.6707 0
M  V30 859 H 79.3803 2.34496 -3.45545 0
M  V30 860 N 79.8174 1.5752 -0.0501392 0
M  V30 861 C 81.0664 1.91827 0.623328 0
M  V30 862 C 81.3794 0.930222 1.72065 0
M  V30 863 O 82.5854 1.1653 2.4522 0
M  V30 864 C 81.0414 3.40692 1.16003 0
M  V30 865 C 80.6494 4.479 0.0948811 0
M  V30 866 C 82.3934 3.84034 1.80881 0
M  V30 867 C 80.3004 5.87879 0.644411 0
M  V30 868 H 79.2304 0.715918 0.236596 0
M  V30 869 H 81.8814 1.83115 -0.118861 0
M  V30 870 H 80.2634 3.44405 1.9545 0
M  V30 871 H 81.4374 4.55775 -0.678675 0
M  V30 872 H 79.7524 4.13892 -0.45637 0
M  V30 873 H 82.3494 4.85984 2.22988 0
M  V30 874 H 82.6924 3.20225 2.6601 0
M  V30 875 H 83.2254 3.82833 1.0809 0
M  V30 876 H 79.9644 6.55282 -0.169229 0
M  V30 877 H 79.4844 5.83567 1.38598 0
M  V30 878 H 81.1634 6.37098 1.12763 0
M  V30 879 N 81.2955 -0.223234 1.56011 0
M  V30 880 C 82.2255 -1.27988 1.95298 0
M  V30 881 C 83.2065 -1.48976 0.820979 0
M  V30 882 O 84.3915 -1.61188 1.08315 0
M  V30 883 C 81.5215 -2.63 2.26822 0
M  V30 884 C 80.4755 -2.56671 3.42497 0
M  V30 885 C 79.8015 -3.95697 3.59622 0
M  V30 886 C 81.1015 -2.11601 4.77517 0
M  V30 887 H 82.7955 -0.953525 2.8381 0
M  V30 888 H 80.3415 -0.457244 1.36548 0
M  V30 889 H 82.2945 -3.37077 2.52898 0
M  V30 890 H 81.0185 -2.9732 1.35161 0
M  V30 891 H 79.6775 -1.85051 3.16467 0
M  V30 892 H 79.3255 -4.27322 2.6534 0
M  V30 893 H 79.0255 -3.92345 4.37424 0
M  V30 894 H 80.5495 -4.71438 3.88044 0
M  V30 895 H 81.9635 -2.7542 5.02809 0
M  V30 896 H 80.3605 -2.19311 5.5859 0
M  V30 897 H 81.4305 -1.06824 4.72987 0
M  V30 898 N 82.7736 -1.49793 -0.48987 0
M  V30 899 C 84.0196 -1.61049 -1.24236 0
M  V30 900 C 84.3746 -0.298412 -1.90072 0
M  V30 901 O 83.6676 0.702262 -1.78266 0
M  V30 902 C 83.8616 -2.71488 -2.32441 0
M  V30 903 C 83.6906 -4.13308 -1.77218 0
M  V30 904 C 82.4606 -4.79955 -1.58023 0
M  V30 905 C 84.6586 -4.98176 -1.27772 0
M  V30 906 N 82.6406 -6.06052 -0.978465 0
M  V30 907 C 84.0116 -6.14843 -0.798 0
M  V30 908 C 86.0666 -4.84091 -1.16449 0
M  V30 909 C 84.7696 -7.18975 -0.216245 0
M  V30 910 C 86.7956 -5.88382 -0.596698 0
M  V30 911 C 86.1576 -7.04285 -0.127262 0
M  V30 912 H 82.2566 -0.643611 -0.444172 0
M  V30 913 H 84.8406 -1.86842 -0.54754 0
M  V30 914 H 83.0116 -2.47449 -2.99372 0
M  V30 915 H 84.7436 -2.72205 -2.99477 0
M  V30 916 H 81.4986 -4.36936 -1.82712 0
M  V30 917 H 81.9226 -6.73407 -0.696534 0
M  V30 918 H 86.5646 -3.94786 -1.5134 0
M  V30 919 H 84.2826 -8.0797 0.144903 0
M  V30 920 H 87.8686 -5.79545 -0.511716 0
M  V30 921 H 86.7486 -7.83606 0.30523 0
M  V30 922 N 84.2517 0.741722 -1.39055 0
M  V30 923 C 85.1817 1.869 -1.39966 0
M  V30 924 C 86.1627 1.6804 -0.26392 0
M  V30 925 O 87.3477 1.88458 -0.468755 0
M  V30 926 C 84.4777 3.24572 -1.23574 0
M  V30 927 C 83.4317 3.58056 -2.34477 0
M  V30 928 C 82.7577 4.94593 -2.0318 0
M  V30 929 C 84.0577 3.61716 -3.76774 0
M  V30 930 H 85.7517 1.86395 -2.34302 0
M  V30 931 H 83.2977 0.895361 -1.1278 0
M  V30 932 H 85.2507 4.031 -1.22834 0
M  V30 933 H 83.9747 3.25587 -0.257045 0
M  V30 934 H 82.6337 2.81854 -2.34423 0
M  V30 935 H 82.2817 4.92181 -1.03765 0
M  V30 936 H 81.9817 5.17964 -2.77465 0
M  V30 937 H 83.5057 5.75486 -2.04079 0
M  V30 938 H 84.9197 4.30335 -3.78794 0
M  V30 939 H 83.3167 3.96603 -4.50362 0
M  V30 940 H 84.3867 2.61672 -4.08235 0
M  V30 941 N 85.7298 1.2412 0.971189 0
M  V30 942 C 86.6598 1.05508 2.08304 0
M  V30 943 C 87.6408 -0.0308864 1.70072 0
M  V30 944 O 88.8258 0.135521 1.93727 0
M  V30 945 C 85.9558 0.655365 3.4106 0
M  V30 946 C 84.9098 1.68971 3.93234 0
M  V30 947 C 84.2358 1.14516 5.22293 0
M  V30 948 C 85.5358 3.08487 4.21465 0
M  V30 949 H 87.2298 1.98507 2.24132 0
M  V30 950 H 84.7758 0.955821 1.07704 0
M  V30 951 H 86.7288 0.51217 4.18276 0
M  V30 952 H 85.4528 -0.31032 3.25122 0
M  V30 953 H 84.1118 1.82106 3.18171 0
M  V30 954 H 83.7598 0.170189 5.02712 0
M  V30 955 H 83.4598 1.83635 5.58168 0
M  V30 956 H 84.9838 1.01401 6.02121 0
M  V30 957 H 86.3978 2.98601 4.89398 0
M  V30 958 H 84.7948 3.74926 4.68562 0
M  V30 959 H 85.8648 3.56787 3.28376 0
M  V30 960 N 87.2079 -1.17134 1.05439 0
M  V30 961 C 88.4479 -1.89137 0.77502 0
M  V30 962 C 88.8119 -1.79345 -0.685526 0
M  V30 963 O 90.0129 -2.46188 -1.0791 0
M  V30 964 C 88.2839 -3.35003 1.2453 0
M  V30 965 S 89.8429 -4.24952 1.09367 0
M  V30 966 H 86.6609 -0.652949 0.281387 0
M  V30 967 H 89.2629 -1.4145 1.34953 0
M  V30 968 H 87.9669 -3.39666 2.30338 0
M  V30 969 H 87.4979 -3.87736 0.665166 0
M  V30 970 H 89.5129 -4.96196 0.0193397 0
M  V30 971 N 88.686 -0.835752 -1.33615 0
M  V30 972 C 89.911 -0.442389 -2.02627 0
M  V30 973 C 90.336 0.947735 -1.62479 0
M  V30 974 O 89.694 1.61907 -0.815826 0
M  V30 975 C 89.742 -0.567216 -3.56111 0
M  V30 976 O 88.846 0.407799 -4.10379 0
M  V30 977 H 88.187 -0.180278 -0.639059 0
M  V30 978 H 90.717 -1.12972 -1.70583 0
M  V30 979 H 90.727 -0.447708 -4.05536 0
M  V30 980 H 89.402 -1.58103 -3.84677 0
M  V30 981 H 87.979 0.246107 -3.72087 0
M  V30 982 N 90.1641 1.46063 -0.591896 0
M  V30 983 C 91.1141 2.27458 0.157172 0
M  V30 984 C 92.0981 1.3641 0.853301 0
M  V30 985 O 93.2901 1.60517 0.74588 0
M  V30 986 C 90.4191 3.22956 1.16423 0
M  V30 987 C 89.5051 4.2149 0.469742 0
M  V30 988 N 89.8961 5.03519 -0.479839 0
M  V30 989 C 88.1941 4.40161 0.719319 0
M  V30 990 C 88.8951 5.74904 -0.886591 0
M  V30 991 N 87.8711 5.43097 -0.233731 0
M  V30 992 H 91.6731 2.88272 -0.572392 0
M  V30 993 H 89.1871 1.57024 -0.414375 0
M  V30 994 H 91.1841 3.79986 1.71513 0
M  V30 995 H 89.8441 2.63701 1.89451 0
M  V30 996 H 90.8551 5.1078 -0.855823 0
M  V30 997 H 87.5321 3.92046 1.43548 0
M  V30 998 H 88.9221 6.50844 -1.66888 0
M  V30 999 N 91.6422 0.330177 1.54103 0
M  V30 1000 C 93.0582 -0.0222371 1.59585 0
M  V30 1001 C 93.2582 -1.49902 1.34654 0
M  V30 1002 O 92.3142 -2.25592 1.13421 0
M  V30 1003 C 93.6272 0.401932 2.98002 0
M  V30 1004 C 95.1752 0.353145 3.11001 0
M  V30 1005 C 95.6502 0.752576 4.51775 0
M  V30 1006 N 97.1412 0.706239 4.57784 0
M  V30 1007 C 97.8762 0.987417 5.64834 0
M  V30 1008 N 97.3722 1.33607 6.79795 0
M  V30 1009 N 99.1652 0.91254 5.54643 0
M  V30 1010 H 91.3162 1.29228 1.68564 0
M  V30 1011 H 93.5792 0.525906 0.78875 0
M  V30 1012 H 93.2852 1.4311 3.21267 0
M  V30 1013 H 93.1592 -0.229699 3.765 0
M  V30 1014 H 95.5462 -0.666822 2.87467 0
M  V30 1015 H 95.6272 1.0198 2.34593 0
M  V30 1016 H 95.2712 1.77049 4.76042 0
M  V30 1017 H 95.2012 0.0635409 5.26562 0
M  V30 1018 H 97.6922 0.44889 3.75224 0
M  V30 1019 H 98.0052 1.53582 7.57385 0
M  V30 1020 H 96.3502 1.37439 6.81275 0
M  V30 1021 H 99.5412 0.639601 4.6371 0
M  V30 1022 H 99.7142 1.13503 6.37982 0
M  V30 1023 N 93.1203 -1.57491 0.0584922 0
M  V30 1024 C 94.5313 -1.80526 -0.476138 0
M  V30 1025 C 94.8823 -0.971334 -1.70469 0
M  V30 1026 O 94.0073 -0.190012 -2.15564 0
M  V30 1027 C 94.6023 -3.27424 -0.870587 0
M  V30 1028 C 93.1613 -3.51351 -1.35015 0
M  V30 1029 C 92.3083 -2.75343 -0.32887 0
M  V30 1030 H 95.2593 -1.56133 0.284312 0
M  V30 1031 H 95.2803 -3.38745 -1.73299 0
M  V30 1032 H 94.7923 -3.88093 0.0237627 0
M  V30 1033 H 92.8933 -2.95971 -2.26345 0
M  V30 1034 H 93.0063 -4.60059 -1.33726 0
M  V30 1035 H 91.3703 -2.417 -0.803321 0
M  V30 1036 H 92.1533 -3.38743 0.557521 0
M  V30 1037 N 94.5984 0.214957 -1.56127 0
M  V30 1038 C 95.5614 1.24997 -1.92116 0
M  V30 1039 C 96.5614 1.39467 -0.800344 0
M  V30 1040 O 97.7514 1.37619 -1.06802 0
M  V30 1041 C 94.8834 2.62271 -2.17777 0
M  V30 1042 H 96.0764 0.942875 -2.84693 0
M  V30 1043 H 93.6294 0.455654 -1.49511 0
M  V30 1044 H 94.3644 2.98068 -1.27773 0
M  V30 1045 H 94.1494 2.53143 -2.99434 0
M  V30 1046 H 95.6394 3.36946 -2.46693 0
M  V30 1047 N 96.0765 1.50051 0.48192 0
M  V30 1048 C 97.4875 1.5348 1.06305 0
M  V30 1049 C 97.8385 0.331997 1.93371 0
M  V30 1050 O 96.9635 -0.556256 2.09129 0
M  V30 1051 C 97.5585 2.7813 1.93466 0
M  V30 1052 C 96.1175 2.84275 2.46707 0
M  V30 1053 C 95.2645 2.47637 1.24785 0
M  V30 1054 H 98.2155 1.56472 0.264995 0
M  V30 1055 H 98.2365 2.59372 2.78399 0
M  V30 1056 H 97.7485 3.65654 1.30072 0
M  V30 1057 H 95.8495 2.01077 3.13686 0
M  V30 1058 H 95.9625 3.8691 2.82555 0
M  V30 1059 H 94.3265 1.99835 1.57918 0
M  V30 1060 H 95.1095 3.37457 0.630694 0
M  V30 1061 N 97.5546 -0.734337 1.39446 0
M  V30 1062 C 98.8026 -1.49096 1.36436 0
M  V30 1063 C 99.1236 -1.94961 -0.0388255 0
M  V30 1064 O 98.3936 -1.69033 -0.990191 0
M  V30 1065 H 96.9736 -0.5531 0.502085 0
M  V30 1066 H 99.6356 -0.871725 1.74319 0
M  V30 1067 H 98.7316 -2.37276 2.02747 0
M  V30 1068 N 99.0327 -1.24633 -0.964593 0
M  V30 1069 C 100.449 -1.01239 -1.2338 0
M  V30 1070 C 100.649 0.2769 -1.99588 0
M  V30 1071 O 99.7047 0.992241 -2.32187 0
M  V30 1072 C 101.018 -2.22937 -2.01791 0
M  V30 1073 C 102.566 -2.27594 -2.14872 0
M  V30 1074 C 103.041 -3.48921 -2.96678 0
M  V30 1075 N 104.532 -3.49257 -3.04259 0
M  V30 1076 C 105.267 -4.39795 -3.67924 0
M  V30 1077 N 104.763 -5.40591 -4.33281 0
M  V30 1078 N 106.556 -4.275 -3.64966 0
M  V30 1079 H 98.7067 -2.0748 -0.454502 0
M  V30 1080 H 100.97 -0.910647 -0.26349 0
M  V30 1081 H 100.676 -3.16587 -1.53184 0
M  V30 1082 H 100.55 -2.25306 -3.02518 0
M  V30 1083 H 102.937 -1.34473 -2.6268 0
M  V30 1084 H 103.018 -2.2925 -1.13482 0
M  V30 1085 H 102.662 -4.42359 -2.49562 0
M  V30 1086 H 102.592 -3.4451 -3.98272 0
M  V30 1087 H 105.083 -2.76337 -2.57771 0
M  V30 1088 H 105.396 -6.05904 -4.79687 0
M  V30 1089 H 103.741 -5.44475 -4.3194 0
M  V30 1090 H 106.932 -3.47987 -3.13086 0
M  V30 1091 H 107.105 -4.98258 -4.14298 0
M  V30 1092 N 100.511 1.16574 -1.06058 0
M  V30 1093 C 101.922 1.68662 -0.800632 0
M  V30 1094 C 102.273 1.84184 0.67608 0
M  V30 1095 O 101.398 1.53568 1.52466 0
M  V30 1096 C 101.993 3.06356 -1.44676 0
M  V30 1097 C 100.552 3.55575 -1.23465 0
M  V30 1098 C 99.6988 2.31616 -1.52477 0
M  V30 1099 H 102.65 1.00969 -1.22438 0
M  V30 1100 H 102.671 3.70636 -0.860788 0
M  V30 1101 H 102.183 2.95027 -2.52152 0
M  V30 1102 H 100.284 3.72167 -0.179527 0
M  V30 1103 H 100.397 4.37812 -1.94571 0
M  V30 1104 H 98.7608 2.36512 -0.945209 0
M  V30 1105 H 99.5438 2.22887 -2.61106 0
M  V30 1106 N 101.989 0.842826 1.3317 0
M  V30 1107 C 103.4 0.496651 1.79973 0
M  V30 1108 C 103.751 -0.984641 1.69703 0
M  V30 1109 O 102.876 -1.76743 1.24863 0
M  V30 1110 C 103.471 0.894727 3.26772 0
M  V30 1111 C 102.03 0.600629 3.71577 0
M  V30 1112 C 101.177 1.10091 2.5451 0
M  V30 1113 H 104.128 1.03116 1.20635 0
M  V30 1114 H 104.149 0.206347 3.7994 0
M  V30 1115 H 103.661 1.97287 3.34215 0
M  V30 1116 H 101.762 -0.467284 3.69658 0
M  V30 1117 H 101.875 1.15863 4.64879 0
M  V30 1118 H 100.239 0.52162 2.49301 0
M  V30 1119 H 101.022 2.18591 2.64713 0
M  V30 1120 N 103.467 -1.45747 0.599634 0
M  V30 1121 C 104.695 -2.06668 0.0978551 0
M  V30 1122 C 105.11 -1.44562 -1.21439 0
M  V30 1123 O 104.467 -0.556923 -1.73795 0
M  V30 1124 C 104.518 -3.61456 -0.0567044 0
M  V30 1125 O 104.239 -4.21242 1.20361 0
M  V30 1126 C 105.74 -4.39345 -0.590869 0
M  V30 1127 H 102.96 -0.667825 0.0651943 0
M  V30 1128 H 105.504 -1.87115 0.82511 0
M  V30 1129 H 103.659 -3.80378 -0.734251 0
M  V30 1130 H 104.073 -5.14323 1.02821 0
M  V30 1131 H 105.547 -5.48182 -0.648131 0
M  V30 1132 H 106.024 -4.08568 -1.61147 0
M  V30 1133 H 106.63 -4.25268 0.0523679 0
M  V30 1134 N 104.945 -0.338344 -1.53925 0
M  V30 1135 C 105.895 0.536712 -2.21593 0
M  V30 1136 C 106.879 1.07015 -1.20153 0
M  V30 1137 O 108.071 1.00471 -1.45721 0
M  V30 1138 C 105.2 1.68977 -2.98834 0
M  V30 1139 C 104.286 1.17052 -4.07627 0
M  V30 1140 N 104.677 0.372085 -5.0443 0
M  V30 1141 C 102.975 1.44789 -4.21844 0
M  V30 1142 C 103.676 0.0909171 -5.81629 0
M  V30 1143 N 102.652 0.681131 -5.39316 0
M  V30 1144 H 106.454 -0.0804298 -2.9379 0
M  V30 1145 H 103.968 -0.144943 -1.61752 0
M  V30 1146 H 105.965 2.32857 -3.45808 0
M  V30 1147 H 104.625 2.31024 -2.28162 0
M  V30 1148 H 105.636 0.0136217 -5.17898 0
M  V30 1149 H 102.313 2.07313 -3.62391 0
M  V30 1150 H 103.703 -0.552817 -6.69622 0
M  V30 1151 N 106.423 1.57458 -0.0668435 0
M  V30 1152 C 107.371 2.13639 0.919851 0
M  V30 1153 C 108.365 1.07204 1.31163 0
M  V30 1154 O 109.571 1.25591 1.28945 0
M  V30 1155 H 105.946 0.683048 0.314562 0
M  V30 1156 H 107.917 2.95415 0.421047 0
M  V30 1157 C 106.666 2.70892 2.17975 0
M  V30 1158 H 105.989 3.5246 1.88711 0
M  V30 1159 H 107.429 3.13803 2.85138 0
M  V30 1160 C 105.888 1.65414 2.93496 0
M  V30 1161 O 106.418 1.07619 3.87015 0
M  V30 1162 N 104.624 1.36564 2.56512 0
M  V30 1163 H 104.171 1.83751 1.80536 0
M  V30 1164 H 104.129 0.66223 3.07347 0
M  V30 1165 N 107.901 -0.206675 1.56239 0
M  V30 1166 C 108.864 -1.23976 1.92776 0
M  V30 1167 C 109.864 -1.39041 0.807729 0
M  V30 1168 O 111.054 -1.37051 1.0753 0
M  V30 1169 C 108.186 -2.61112 2.19165 0
M  V30 1170 H 109.379 -0.927764 2.85189 0
M  V30 1171 H 106.932 -0.447718 1.4975 0
M  V30 1172 H 107.667 -2.97386 1.29352 0
M  V30 1173 H 107.452 -2.51552 3.00772 0
M  V30 1174 H 108.942 -3.35633 2.48476 0
M  V30 1175 N 109.379 -1.50304 -0.473955 0
M  V30 1176 C 110.329 -1.65347 -1.56985 0
M  V30 1177 C 111.313 -0.508176 -1.52664 0
M  V30 1178 O 112.505 -0.762446 -1.59737 0
M  V30 1179 C 109.634 -1.74832 -2.95447 0
M  V30 1180 C 108.72 -2.95028 -3.04662 0
M  V30 1181 N 109.111 -4.18747 -2.83698 0
M  V30 1182 C 107.409 -2.93527 -3.35795 0
M  V30 1183 C 108.11 -4.99687 -2.97805 0
M  V30 1184 N 107.086 -4.33585 -3.2788 0
M  V30 1185 H 110.888 -2.58698 -1.39472 0
M  V30 1186 H 108.402 -1.47449 -0.680629 0
M  V30 1187 H 110.399 -1.83712 -3.7424 0
M  V30 1188 H 109.059 -0.826376 -3.14008 0
M  V30 1189 H 110.07 -4.48291 -2.59337 0
M  V30 1190 H 106.747 -2.10821 -3.60362 0
M  V30 1191 H 108.137 -6.08057 -2.85861 0
M  V30 1192 N 110.857 0.726932 -1.39834 0
M  V30 1193 C 111.805 1.86235 -1.39353 0
M  V30 1194 C 112.799 1.67144 -0.275555 0
M  V30 1195 O 114.005 1.74387 -0.44601 0
M  V30 1196 H 110.38 0.613174 -0.43534 0
M  V30 1197 H 112.351 1.83756 -2.35109 0
M  V30 1198 C 111.1 3.23995 -1.26185 0
M  V30 1199 H 110.423 3.39285 -2.11484 0
M  V30 1200 H 111.863 4.03609 -1.29907 0
M  V30 1201 C 110.322 3.36888 0.0290018 0
M  V30 1202 O 110.852 3.89152 0.99619 0
M  V30 1203 N 109.058 2.90446 0.0947437 0
M  V30 1204 H 108.605 2.48102 -0.693035 0
M  V30 1205 H 108.563 2.99451 0.957932 0
M  V30 1206 N 112.336 1.25143 0.95797 0
M  V30 1207 C 113.582 1.10863 1.70531 0
M  V30 1208 C 113.937 -0.347391 1.89238 0
M  V30 1209 O 113.23 -1.25262 1.44983 0
M  V30 1210 C 113.424 1.79272 3.09187 0
M  V30 1211 C 113.253 3.31376 3.04006 0
M  V30 1212 C 112.023 4.0062 3.07948 0
M  V30 1213 C 114.221 4.27825 2.8543 0
M  V30 1214 N 112.203 5.39526 2.9289 0
M  V30 1215 C 113.574 5.53794 2.78769 0
M  V30 1216 C 115.629 4.1828 2.70085 0
M  V30 1217 C 114.332 6.7131 2.58331 0
M  V30 1218 C 116.358 5.35485 2.51017 0
M  V30 1219 C 115.72 6.60393 2.45073 0
M  V30 1220 H 111.819 0.460362 0.632132 0
M  V30 1221 H 114.403 1.58196 1.13499 0
M  V30 1222 H 112.574 1.34439 3.64391 0
M  V30 1223 H 114.306 1.57764 3.72683 0
M  V30 1224 H 111.061 3.51855 3.17009 0
M  V30 1225 H 111.485 6.12416 2.88574 0
M  V30 1226 H 116.127 3.22461 2.73457 0
M  V30 1227 H 113.845 7.67243 2.53701 0
M  V30 1228 H 117.431 5.29959 2.40073 0
M  V30 1229 H 116.311 7.49557 2.30509 0
M  V30 1230 N 113.814 -1.1601 1.06675 0
M  V30 1231 C 115.23 -1.38622 0.790948 0
M  V30 1232 C 115.43 -1.92109 -0.607965 0
M  V30 1233 O 114.486 -2.12239 -1.36787 0
M  V30 1234 C 115.799 -2.36347 1.85905 0
M  V30 1235 C 117.347 -2.50023 1.88301 0
M  V30 1236 C 117.822 -3.51033 2.94176 0
M  V30 1237 N 119.313 -3.58563 2.93235 0
M  V30 1238 C 120.048 -4.36521 3.71803 0
M  V30 1239 N 119.544 -5.17869 4.602 0
M  V30 1240 N 121.337 -4.31541 3.60178 0
M  V30 1241 H 113.488 -0.796294 1.96908 0
M  V30 1242 H 115.751 -0.412597 0.853503 0
M  V30 1243 H 115.457 -2.04147 2.86386 0
M  V30 1244 H 115.331 -3.36042 1.71334 0
M  V30 1245 H 117.718 -2.81524 0.884769 0
M  V30 1246 H 117.799 -1.5035 2.06951 0
M  V30 1247 H 117.443 -3.20268 3.94196 0
M  V30 1248 H 117.373 -4.50445 2.72776 0
M  V30 1249 H 119.864 -3.00496 2.29152 0
M  V30 1250 H 120.177 -5.74578 5.16797 0
M  V30 1251 H 118.522 -5.17199 4.64253 0
M  V30 1252 H 121.713 -3.67051 2.90502 0
M  V30 1253 H 121.886 -4.9205 4.21653 0
M  V30 1254 N 115.292 -0.849877 -1.32721 0
M  V30 1255 C 116.222 -0.306308 -2.31482 0
M  V30 1256 C 117.203 0.591952 -1.59468 0
M  V30 1257 O 118.388 0.513199 -1.87296 0
M  V30 1258 C 115.518 0.510204 -3.43532 0
M  V30 1259 C 114.472 -0.293209 -4.26994 0
M  V30 1260 C 113.798 0.647743 -5.30762 0
M  V30 1261 C 115.098 -1.51634 -4.99804 0
M  V30 1262 H 116.792 -1.13153 -2.77195 0
M  V30 1263 H 114.338 -0.545553 -1.33266 0
M  V30 1264 H 116.291 0.900856 -4.11658 0
M  V30 1265 H 115.015 1.36874 -2.96535 0
M  V30 1266 H 113.674 -0.665555 -3.60508 0
M  V30 1267 H 113.322 1.50299 -4.8002 0
M  V30 1268 H 113.022 0.11422 -5.87489 0
M  V30 1269 H 114.546 1.03567 -6.01753 0
M  V30 1270 H 115.96 -1.19824 -5.60638 0
M  V30 1271 H 114.357 -1.98745 -5.66234 0
M  V30 1272 H 115.427 -2.28018 -4.27943 0
M  V30 1273 N 116.77 1.45427 -0.607355 0
M  V30 1274 C 118.018 2.01841 -0.102253 0
M  V30 1275 C 118.339 1.47832 1.27164 0
M  V30 1276 O 117.609 0.672497 1.83995 0
M  V30 1277 H 116.189 0.746188 -0.0348101 0
M  V30 1278 H 118.851 1.78229 -0.7887 0
M  V30 1279 H 117.947 3.12057 -0.0518585 0
M  V30 1280 N 118.248 0.346503 1.53744 0
M  V30 1281 C 119.18 -0.543316 2.22667 0
M  V30 1282 C 120.193 -1.06159 1.23427 0
M  V30 1283 O 121.382 -0.971235 1.49764 0
M  V30 1284 C 118.482 -1.76076 2.89569 0
M  V30 1285 C 117.655 -1.37727 4.15151 0
M  V30 1286 C 116.714 -2.45471 4.65436 0
M  V30 1287 O 115.74 -2.08655 5.29577 0
M  V30 1288 N 116.942 -3.7677 4.41616 0
M  V30 1289 H 119.707 0.0469703 2.99663 0
M  V30 1290 H 117.268 0.170766 1.60997 0
M  V30 1291 H 119.26 -2.47593 3.20125 0
M  V30 1292 H 117.83 -2.25835 2.16142 0
M  V30 1293 H 117.05 -0.492746 3.91108 0
M  V30 1294 H 118.338 -1.09708 4.96832 0
M  V30 1295 H 117.736 -4.09467 3.90325 0
M  V30 1296 H 116.293 -4.44448 4.7677 0
M  V30 1297 N 119.726 -1.57421 0.075193 0
M  V30 1298 C 120.689 -2.11791 -0.876203 0
M  V30 1299 C 121.689 -1.04268 -1.22412 0
M  V30 1300 O 122.879 -1.30242 -1.15684 0
M  V30 1301 C 120.011 -2.62207 -2.17854 0
M  V30 1302 H 121.204 -2.9716 -0.40444 0
M  V30 1303 H 118.757 -1.55333 -0.173557 0
M  V30 1304 H 119.492 -1.803 -2.6956 0
M  V30 1305 H 119.277 -3.40802 -1.93897 0
M  V30 1306 H 120.767 -3.04335 -2.85955 0
M  V30 1307 N 121.204 0.198386 -1.56346 0
M  V30 1308 C 122.615 0.763358 -1.70381 0
M  V30 1309 C 122.966 1.83995 -0.681203 0
M  V30 1310 O 122.091 2.15785 0.16305 0
M  V30 1311 C 122.686 1.39143 -3.08909 0
M  V30 1312 C 121.245 1.90352 -3.2472 0
M  V30 1313 C 120.392 0.772233 -2.6633 0
M  V30 1314 H 123.343 -0.0266377 -1.58678 0
M  V30 1315 H 123.364 2.26076 -3.06055 0
M  V30 1316 H 122.876 0.607638 -3.83314 0
M  V30 1317 H 120.977 2.71461 -2.55225 0
M  V30 1318 H 121.09 2.06757 -4.3219 0
M  V30 1319 H 119.454 1.18566 -2.2542 0
M  V30 1320 H 120.237 0.00073556 -3.433 0
M  V30 1321 N 122.682 1.50554 0.465978 0
M  V30 1322 C 123.645 1.69233 1.54574 0
M  V30 1323 C 124.645 0.562901 1.50626 0
M  V30 1324 O 125.835 0.830016 1.53155 0
M  V30 1325 C 122.967 1.7223 2.94193 0
M  V30 1326 H 124.16 2.65571 1.39327 0
M  V30 1327 H 121.713 1.40111 0.692711 0
M  V30 1328 H 122.448 0.77603 3.14878 0
M  V30 1329 H 122.233 2.54285 2.98466 0
M  V30 1330 H 123.723 1.88618 3.72576 0
M  V30 1331 N 124.16 -0.719506 1.40217 0
M  V30 1332 C 125.108 -1.85493 1.40339 0
M  V30 1333 C 126.102 -1.66995 0.284415 0
M  V30 1334 O 127.308 -1.74148 0.455252 0
M  V30 1335 H 123.683 -0.610857 0.438586 0
M  V30 1336 H 125.654 -1.82506 2.36081 0
M  V30 1337 C 124.403 -3.23321 1.27901 0
M  V30 1338 H 123.726 -3.38159 2.1328 0
M  V30 1339 H 125.166 -4.02914 1.32045 0
M  V30 1340 C 123.625 -3.36898 -0.0111355 0
M  V30 1341 O 124.155 -3.89674 -0.975538 0
M  V30 1342 N 122.361 -2.90492 -0.0793393 0
M  V30 1343 H 121.908 -2.47731 0.706183 0
M  V30 1344 H 121.866 -2.99955 -0.942038 0
M  V30 1345 N 125.638 -1.25649 -0.95132 0
M  V30 1346 C 126.884 -1.11766 -1.69941 0
M  V30 1347 C 127.239 0.33735 -1.89419 0
M  V30 1348 O 126.532 1.24491 -1.45645 0
M  V30 1349 C 126.726 -1.80909 -3.08231 0
M  V30 1350 C 126.555 -3.32984 -3.02245 0
M  V30 1351 C 125.325 -4.02247 -3.05819 0
M  V30 1352 C 127.523 -4.29332 -2.83157 0
M  V30 1353 N 125.505 -5.41072 -2.90024 0
M  V30 1354 C 126.876 -5.55265 -2.75828 0
M  V30 1355 C 128.931 -4.19707 -2.67863 0
M  V30 1356 C 127.634 -6.72671 -2.54767 0
M  V30 1357 C 129.66 -5.36809 -2.48173 0
M  V30 1358 C 129.022 -6.61683 -2.41567 0
M  V30 1359 H 125.121 -0.463708 -0.629682 0
M  V30 1360 H 127.705 -1.58796 -1.12659 0
M  V30 1361 H 125.876 -1.36369 -3.63673 0
M  V30 1362 H 127.608 -1.59739 -3.71841 0
M  V30 1363 H 124.363 -3.53531 -3.15139 0
M  V30 1364 H 124.787 -6.13938 -2.85323 0
M  V30 1365 H 129.429 -3.23907 -2.71743 0
M  V30 1366 H 127.147 -7.68577 -2.49629 0
M  V30 1367 H 130.733 -5.31224 -2.37259 0
M  V30 1368 H 129.613 -7.50768 -2.26531 0
M  V30 1369 N 127.117 1.15442 -1.07289 0
M  V30 1370 C 128.347 1.89821 -0.815576 0
M  V30 1371 C 128.755 1.7823 0.634867 0
M  V30 1372 O 128.098 1.13152 1.44715 0
M  V30 1373 C 128.16 3.40817 -1.14385 0
M  V30 1374 C 127.824 3.76193 -2.59476 0
M  V30 1375 C 128.821 3.77269 -3.57721 0
M  V30 1376 C 126.506 4.0652 -2.95037 0
M  V30 1377 C 128.5 4.08176 -4.89562 0
M  V30 1378 C 126.187 4.37092 -4.27076 0
M  V30 1379 C 127.185 4.37902 -5.24148 0
M  V30 1380 O 126.873 4.67741 -6.53815 0
M  V30 1381 H 126.605 0.608465 -0.294528 0
M  V30 1382 H 129.159 1.472 -1.43252 0
M  V30 1383 H 127.389 3.83835 -0.469865 0
M  V30 1384 H 129.078 3.96485 -0.869179 0
M  V30 1385 H 129.844 3.5394 -3.3159 0
M  V30 1386 H 125.723 4.05049 -2.20128 0
M  V30 1387 H 129.267 4.08723 -5.65324 0
M  V30 1388 H 125.164 4.59889 -4.5296 0
M  V30 1389 H 125.932 4.85509 -6.58957 0
M  V30 1390 N 128.595 0.856903 1.32268 0
M  V30 1391 C 129.543 0.291987 2.3076 0
M  V30 1392 C 130.537 -0.585857 1.58947 0
M  V30 1393 O 131.743 -0.47341 1.73663 0
M  V30 1394 H 128.118 0.075721 0.748178 0
M  V30 1395 H 130.089 1.13687 2.75895 0
M  V30 1396 C 128.838 -0.502869 3.44044 0
M  V30 1397 H 128.161 0.163328 3.99466 0
M  V30 1398 H 129.601 -0.863691 4.1511 0
M  V30 1399 C 128.06 -1.68898 2.91505 0
M  V30 1400 O 128.59 -2.78811 2.89184 0
M  V30 1401 N 126.796 -1.51679 2.47875 0
M  V30 1402 H 126.343 -0.622666 2.49961 0
M  V30 1403 H 126.301 -2.31184 2.13076 0
M  V30 1404 N 130.073 -1.45103 0.615059 0
M  V30 1405 C 131.35 -1.95549 0.0448276 0
M  V30 1406 C 131.73 -1.55737 -1.4251 0
M  V30 1407 O 131.078 -0.823556 -2.13143 0
M  V30 1408 C 131.288 -3.48098 0.250785 0
M  V30 1409 C 132.636 -4.24384 0.135509 0
M  V30 1410 O 133.66 -3.55738 0.181299 0
M  V30 1411 O 132.519 -5.46493 0.0268878 0
M  V30 1412 H 129.613 -0.8264 -0.0314845 0
M  V30 1413 H 132.159 -1.55232 0.685642 0
M  V30 1414 H 130.931 -3.7007 1.27139 0
M  V30 1415 H 130.554 -3.95323 -0.424937 0
M  V30 1416 N 131.551 -0.354651 -1.53558 0
M  V30 1417 C 132.779 0.239515 -2.05509 0
M  V30 1418 C 133.194 1.4333 -1.2289 0
M  V30 1419 O 132.551 1.80538 -0.266899 0
M  V30 1420 C 132.602 0.643719 -3.55723 0
M  V30 1421 O 132.323 -0.502602 -4.35207 0
M  V30 1422 C 133.824 1.29743 -4.23889 0
M  V30 1423 H 131.044 0.0442697 -0.669538 0
M  V30 1424 H 133.588 -0.509856 -1.98042 0
M  V30 1425 H 131.743 1.34302 -3.63376 0
M  V30 1426 H 132.157 -0.178172 -5.24197 0
M  V30 1427 H 133.631 1.53091 -5.30346 0
M  V30 1428 H 134.108 2.25441 -3.76926 0
M  V30 1429 H 134.714 0.639865 -4.20459 0
M  V30 1430 N 133.029 1.57378 -0.0835403 0
M  V30 1431 C 134.259 1.97975 0.590713 0
M  V30 1432 C 134.667 0.961083 1.62972 0
M  V30 1433 O 134.01 -0.0590879 1.83605 0
M  V30 1434 C 134.072 3.34915 1.3066 0
M  V30 1435 C 133.736 4.55069 0.419698 0
M  V30 1436 C 134.733 5.18868 -0.32749 0
M  V30 1437 C 132.418 5.0114 0.341137 0
M  V30 1438 C 134.412 6.27098 -1.14134 0
M  V30 1439 C 132.099 6.0924 -0.476374 0
M  V30 1440 C 133.097 6.72083 -1.21627 0
M  V30 1441 O 132.785 7.781 -2.02028 0
M  V30 1442 H 132.517 0.655818 0.163947 0
M  V30 1443 H 135.071 2.04807 -0.156021 0
M  V30 1444 H 133.301 3.24733 2.09966 0
M  V30 1445 H 134.99 3.60037 1.87424 0
M  V30 1446 H 135.756 4.84211 -0.276459 0
M  V30 1447 H 131.635 4.51996 0.90668 0
M  V30 1448 H 135.179 6.7608 -1.71935 0
M  V30 1449 H 131.076 6.43329 -0.528927 0
M  V30 1450 H 131.844 7.95034 -1.94586 0
M  V30 1451 N 134.507 -0.190092 1.56449 0
M  V30 1452 C 135.918 -0.754312 1.70784 0
M  V30 1453 C 136.269 -1.83631 0.690951 0
M  V30 1454 O 135.394 -2.15868 -0.151604 0
M  V30 1455 C 135.989 -1.37503 3.09642 0
M  V30 1456 C 134.548 -1.88628 3.25725 0
M  V30 1457 C 133.695 -0.758098 2.66736 0
M  V30 1458 H 136.646 0.0350524 1.58661 0
M  V30 1459 H 136.667 -2.2445 3.0725 0
M  V30 1460 H 136.179 -0.587302 3.83631 0
M  V30 1461 H 134.28 -2.70103 2.56661 0
M  V30 1462 H 134.393 -2.04462 4.3328 0
M  V30 1463 H 132.757 -1.17369 2.26046 0
M  V30 1464 H 133.54 0.0174705 3.43296 0
M  V30 1465 N 135.985 -1.50799 -0.457987 0
M  V30 1466 C 136.915 -1.73553 -1.5621 0
M  V30 1467 C 137.896 -0.584774 -1.59732 0
M  V30 1468 O 139.081 -0.825314 -1.7579 0
M  V30 1469 C 136.211 -1.84169 -2.94447 0
M  V30 1470 C 135.165 -2.99461 -3.0579 0
M  V30 1471 C 134.491 -2.95235 -4.45803 0
M  V30 1472 C 135.791 -4.39766 -2.81786 0
M  V30 1473 H 137.485 -2.66 -1.37421 0
M  V30 1474 H 135.031 -1.28002 -0.659662 0
M  V30 1475 H 136.984 -1.98672 -3.71628 0
M  V30 1476 H 135.708 -0.883545 -3.14422 0
M  V30 1477 H 134.367 -2.8463 -2.31044 0
M  V30 1478 H 134.015 -1.97239 -4.62715 0
M  V30 1479 H 133.715 -3.72642 -4.54326 0
M  V30 1480 H 135.239 -3.11803 -5.24987 0
M  V30 1481 H 136.653 -4.55054 -3.4871 0
M  V30 1482 H 135.05 -5.18722 -3.0174 0
M  V30 1483 H 136.12 -4.51229 -1.7754 0
M  V30 1484 N 137.463 0.71206 -1.40597 0
M  V30 1485 C 138.688 1.50617 -1.42581 0
M  V30 1486 C 139.113 1.88079 -0.0282102 0
M  V30 1487 O 138.471 1.53511 0.964579 0
M  V30 1488 C 138.519 2.7557 -2.3258 0
M  V30 1489 O 137.623 3.72414 -1.77148 0
M  V30 1490 H 136.964 0.453966 -0.484573 0
M  V30 1491 H 139.494 0.876649 -1.84868 0
M  V30 1492 H 139.504 3.2406 -2.47889 0
M  V30 1493 H 138.179 2.47639 -3.34138 0
M  V30 1494 H 136.756 3.31276 -1.71204 0
M  V30 1495 N 138.941 1.26152 0.944643 0
M  V30 1496 C 140.352 1.10454 1.50522 0
M  V30 1497 C 140.703 -0.31635 1.93633 0
M  V30 1498 O 139.828 -1.20746 1.79581 0
M  V30 1499 C 140.423 1.99891 2.73549 0
M  V30 1500 C 138.982 1.88348 3.25886 0
M  V30 1501 C 138.129 1.93447 1.9868 0
M  V30 1502 H 141.08 1.39292 0.760489 0
M  V30 1503 H 141.101 1.54477 3.47732 0
M  V30 1504 H 140.613 3.03297 2.42141 0
M  V30 1505 H 138.714 0.878636 3.62092 0
M  V30 1506 H 138.827 2.73696 3.93227 0
M  V30 1507 H 137.191 1.37456 2.14425 0
M  V30 1508 H 137.974 2.98476 1.69607 0
M  V30 1509 N 140.419 -1.14872 1.07899 0
M  V30 1510 C 141.83 -1.67367 0.827363 0
M  V30 1511 C 142.181 -1.85236 -0.646693 0
M  V30 1512 O 141.306 -1.55974 -1.50004 0
M  V30 1513 C 141.901 -3.04016 1.49532 0
M  V30 1514 C 140.46 -3.53566 1.29106 0
M  V30 1515 C 139.607 -2.29161 1.56143 0
M  V30 1516 H 142.558 -0.990083 1.24028 0
M  V30 1517 H 142.579 -3.69219 0.919643 0
M  V30 1518 H 142.091 -2.90978 2.56814 0
M  V30 1519 H 140.192 -3.71835 0.238713 0
M  V30 1520 H 140.305 -4.34661 2.01511 0
M  V30 1521 H 138.669 -2.34978 0.982717 0
M  V30 1522 H 139.452 -2.18705 2.64619 0
M  V30 1523 N 141.898 -0.863906 -1.31812 0
M  V30 1524 C 142.83 -0.272485 -2.27575 0
M  V30 1525 C 143.843 0.56104 -1.52827 0
M  V30 1526 O 145.032 0.384021 -1.7432 0
M  V30 1527 C 142.132 0.63283 -3.32939 0
M  V30 1528 C 141.305 -0.166902 -4.37081 0
M  V30 1529 C 140.364 0.665608 -5.21973 0
M  V30 1530 O 139.39 0.0958091 -5.69119 0
M  V30 1531 N 140.592 1.9787 -5.45736 0
M  V30 1532 H 143.357 -1.0954 -2.78964 0
M  V30 1533 H 140.918 -0.724791 -1.4477 0
M  V30 1534 H 142.91 1.19532 -3.86645 0
M  V30 1535 H 141.48 1.35642 -2.81638 0
M  V30 1536 H 140.7 -0.910838 -3.83533 0
M  V30 1537 H 141.988 -0.715874 -5.03739 0
M  V30 1538 H 141.386 2.46484 -5.09178 0
M  V30 1539 H 139.943 2.48911 -6.024 0
M  V30 1540 N 143.376 1.44774 -0.622745 0
M  V30 1541 C 144.792 1.56986 -0.287652 0
M  V30 1542 C 144.992 1.61167 1.20944 0
M  V30 1543 O 144.048 1.55015 1.99315 0
M  V30 1544 C 145.361 2.84551 -0.972188 0
M  V30 1545 C 146.909 2.9825 -0.949536 0
M  V30 1546 C 147.384 4.28605 -1.61437 0
M  V30 1547 N 148.875 4.35399 -1.58057 0
M  V30 1548 C 149.61 5.34964 -2.064 0
M  V30 1549 N 149.106 6.40981 -2.62897 0
M  V30 1550 N 150.899 5.26419 -1.97078 0
M  V30 1551 H 143.05 1.40304 -1.59463 0
M  V30 1552 H 145.313 0.671794 -0.668878 0
M  V30 1553 H 145.019 2.87417 -2.02693 0
M  V30 1554 H 144.893 3.73807 -0.504771 0
M  V30 1555 H 147.28 2.94941 0.0967067 0
M  V30 1556 H 147.361 2.10364 -1.45536 0
M  V30 1557 H 147.005 4.32672 -2.66002 0
M  V30 1558 H 146.935 5.15334 -1.08344 0
M  V30 1559 H 149.426 3.59397 -1.16801 0
M  V30 1560 H 149.739 7.13225 -2.97539 0
M  V30 1561 H 148.084 6.4169 -2.66943 0
M  V30 1562 H 151.275 4.42504 -1.52669 0
M  V30 1563 H 151.448 6.03861 -2.35066 0
M  V30 1564 N 144.854 0.36279 1.53368 0
M  V30 1565 C 146.082 -0.228613 2.05633 0
M  V30 1566 C 146.497 -1.42676 1.23649 0
M  V30 1567 O 145.854 -1.80394 0.27647 0
M  V30 1568 C 145.905 -0.624845 3.56059 0
M  V30 1569 O 145.626 0.525675 4.34935 0
M  V30 1570 C 147.127 -1.27493 4.24571 0
M  V30 1571 H 144.347 -0.0407183 0.669763 0
M  V30 1572 H 146.891 0.520352 1.97769 0
M  V30 1573 H 145.046 -1.32373 3.64083 0
M  V30 1574 H 145.46 0.205969 5.24095 0
M  V30 1575 H 146.934 -1.50277 5.31151 0
M  V30 1576 H 147.411 -2.23439 3.78116 0
M  V30 1577 H 148.017 -0.617558 4.20792 0
M  V30 1578 N 146.332 -1.57332 0.0918853 0
M  V30 1579 C 147.743 -1.81496 -0.437739 0
M  V30 1580 C 148.094 -1.00727 -1.6837 0
M  V30 1581 O 147.219 -0.235694 -2.15113 0
M  V30 1582 C 147.814 -3.29197 -0.800939 0
M  V30 1583 C 146.373 -3.54136 -1.27532 0
M  V30 1584 C 145.52 -2.75979 -0.270392 0
M  V30 1585 H 148.471 -1.55494 0.317366 0
M  V30 1586 H 148.492 -3.42344 -1.66074 0
M  V30 1587 H 148.004 -3.87955 0.106078 0
M  V30 1588 H 146.105 -3.00705 -2.20016 0
M  V30 1589 H 146.218 -4.62792 -1.23938 0
M  V30 1590 H 144.582 -2.43349 -0.751872 0
M  V30 1591 H 145.365 -3.37484 0.629248 0
M  V30 1592 N 147.81 0.181792 -1.56548 0
M  V30 1593 C 148.773 1.20894 -1.94724 0
M  V30 1594 C 149.773 1.37738 -0.829747 0
M  V30 1595 O 150.963 1.35323 -1.09697 0
M  V30 1596 C 148.095 2.57593 -2.23291 0
M  V30 1597 H 149.288 0.882275 -2.86629 0
M  V30 1598 H 146.841 0.423838 -1.50444 0
M  V30 1599 H 147.576 2.95291 -1.34067 0
M  V30 1600 H 147.361 2.46735 -3.04736 0
M  V30 1601 H 148.851 3.31637 -2.53785 0
M  V30 1602 N 149.288 1.51039 0.449983 0
M  V30 1603 C 150.536 1.62759 1.19808 0
M  V30 1604 C 150.857 0.339981 1.92013 0
M  V30 1605 O 150.127 -0.643606 1.85026 0
M  V30 1606 H 148.707 0.599811 0.445237 0
M  V30 1607 H 151.369 1.87914 0.517138 0
M  V30 1608 H 150.465 2.44911 1.93455 0
M  V30 1609 N 150.766 -0.704594 1.40972 0
M  V30 1610 C 152.015 -1.46018 1.39146 0
M  V30 1611 C 152.328 -1.956 0.000589254 0
M  V30 1612 O 153.534 -2.71137 -0.1403 0
M  V30 1613 C 151.99 -2.63996 2.4461 0
M  V30 1614 C 151.598 -2.21238 3.89561 0
M  V30 1615 C 153.342 -3.41677 2.51907 0
M  V30 1616 C 151.249 -3.3612 4.86598 0
M  V30 1617 H 150.179 -0.548444 0.517422 0
M  V30 1618 H 152.83 -0.765784 1.66757 0
M  V30 1619 H 151.212 -3.3566 2.10115 0
M  V30 1620 H 152.386 -1.56923 4.33257 0
M  V30 1621 H 150.701 -1.56574 3.85841 0
M  V30 1622 H 153.298 -4.27182 3.2159 0
M  V30 1623 H 153.641 -3.86247 1.55303 0
M  V30 1624 H 154.174 -2.77064 2.85448 0
M  V30 1625 H 150.913 -2.96572 5.84573 0
M  V30 1626 H 150.433 -3.99315 4.47557 0
M  V30 1627 H 152.112 -4.02029 5.06934 0
M  V30 1628 N 152.244 -1.26651 -0.937939 0
M  V30 1629 C 153.66 -1.03834 -1.21205 0
M  V30 1630 C 153.86 0.234502 -2.00131 0
M  V30 1631 O 152.916 0.942767 -2.3424 0
M  V30 1632 C 154.229 -2.27167 -1.97017 0
M  V30 1633 C 155.777 -2.32101 -2.09996 0
M  V30 1634 C 156.252 -3.55136 -2.8921 0
M  V30 1635 N 157.743 -3.55632 -2.96783 0
M  V30 1636 C 158.478 -4.475 -3.58512 0
M  V30 1637 N 157.974 -5.4966 -4.21717 0
M  V30 1638 N 159.767 -4.35145 -3.55816 0
M  V30 1639 H 151.918 -2.08398 -0.410391 0
M  V30 1640 H 154.181 -0.916031 -0.244114 0
M  V30 1641 H 153.887 -3.19765 -1.46434 0
M  V30 1642 H 153.761 -2.31672 -2.97671 0
M  V30 1643 H 156.148 -1.40015 -2.59769 0
M  V30 1644 H 156.229 -2.31605 -1.08594 0
M  V30 1645 H 155.873 -4.47553 -2.40123 0
M  V30 1646 H 155.803 -3.5288 -3.90875 0
M  V30 1647 H 158.294 -2.81743 -2.51852 0
M  V30 1648 H 158.607 -6.15943 -4.66727 0
M  V30 1649 H 156.952 -5.53514 -4.20294 0
M  V30 1650 H 160.143 -3.5455 -3.05634 0
M  V30 1651 H 160.316 -5.06934 -4.03636 0
M  V30 1652 N 153.722 1.14298 -1.08507 0
M  V30 1653 C 154.952 1.88945 -0.835663 0
M  V30 1654 C 155.36 1.78894 0.615928 0
M  V30 1655 O 154.703 1.1468 1.43506 0
M  V30 1656 C 154.765 3.39585 -1.17994 0
M  V30 1657 C 154.429 3.7342 -2.63451 0
M  V30 1658 C 155.426 3.73454 -3.61702 0
M  V30 1659 C 153.111 4.03368 -2.99332 0
M  V30 1660 C 155.105 4.02961 -4.93864 0
M  V30 1661 C 152.792 4.32538 -4.31687 0
M  V30 1662 C 153.79 4.32318 -5.28763 0
M  V30 1663 O 153.478 4.6078 -6.58739 0
M  V30 1664 H 153.21 0.605307 -0.300965 0
M  V30 1665 H 155.764 1.45673 -1.44806 0
M  V30 1666 H 153.994 3.83315 -0.51055 0
M  V30 1667 H 155.683 3.9554 -0.911182 0
M  V30 1668 H 156.449 3.50403 -3.35325 0
M  V30 1669 H 152.328 4.02692 -2.24411 0
M  V30 1670 H 155.872 4.02704 -5.69627 0
M  V30 1671 H 151.769 4.55059 -4.57812 0
M  V30 1672 H 152.537 4.78492 -6.64069 0
M  V30 1673 N 155.201 0.870884 1.31352 0
M  V30 1674 C 156.617 0.562932 1.49343 0
M  V30 1675 C 156.817 -0.902725 1.80148 0
M  V30 1676 O 155.873 -1.68484 1.88067 0
M  V30 1677 C 157.186 1.46393 2.62659 0
M  V30 1678 C 158.734 1.46607 2.76542 0
M  V30 1679 C 159.209 2.35266 3.92955 0
M  V30 1680 N 160.7 2.33151 4.00243 0
M  V30 1681 C 161.435 2.98471 4.89594 0
M  V30 1682 N 160.931 3.72964 5.8384 0
M  V30 1683 N 162.724 2.87775 4.82848 0
M  V30 1684 H 154.875 1.81923 1.09626 0
M  V30 1685 H 157.138 0.777934 0.541777 0
M  V30 1686 H 156.844 2.50689 2.46674 0
M  V30 1687 H 156.718 1.16314 3.58819 0
M  V30 1688 H 159.105 0.43069 2.9194 0
M  V30 1689 H 159.186 1.8071 1.81046 0
M  V30 1690 H 158.83 3.38881 3.78315 0
M  V30 1691 H 158.76 1.98487 4.87761 0
M  V30 1692 H 161.251 1.79006 3.32814 0
M  V30 1693 H 161.564 4.19932 6.4875 0
M  V30 1694 H 159.909 3.77073 5.83816 0
M  V30 1695 H 163.1 2.29116 4.08195 0
M  V30 1696 H 163.273 3.38961 5.52277 0
M  V30 1697 N 156.679 -1.44442 0.630414 0
M  V30 1698 C 157.928 -2.01267 0.132073 0
M  V30 1699 C 158.241 -1.50172 -1.25331 0
M  V30 1700 O 159.447 -1.9912 -1.84562 0
M  V30 1701 C 157.903 -3.59422 0.185362 0
M  V30 1702 C 157.511 -4.19514 1.57201 0
M  V30 1703 C 159.255 -4.23724 -0.256553 0
M  V30 1704 C 157.162 -5.69891 1.58045 0
M  V30 1705 H 156.092 -0.752619 0.0456092 0
M  V30 1706 H 158.743 -1.65666 0.789106 0
M  V30 1707 H 157.125 -3.92318 -0.538759 0
M  V30 1708 H 158.299 -3.98156 2.31966 0
M  V30 1709 H 156.614 -3.67496 1.95795 0
M  V30 1710 H 159.211 -5.34019 -0.269767 0
M  V30 1711 H 159.554 -3.96013 -1.28372 0
M  V30 1712 H 160.087 -3.95629 0.41505 0
M  V30 1713 H 156.826 -6.02336 2.58597 0
M  V30 1714 H 156.346 -5.93373 0.875725 0
M  V30 1715 H 158.025 -6.33515 1.31408 0
M  V30 1716 N 158.157 -0.370918 -1.53173 0
M  V30 1717 C 159.12 0.460778 -2.24521 0
M  V30 1718 C 160.12 1.00536 -1.25496 0
M  V30 1719 O 161.31 0.890266 -1.49733 0
M  V30 1720 C 158.442 1.64457 -2.98608 0
M  V30 1721 H 159.635 -0.163613 -2.99453 0
M  V30 1722 H 157.188 -0.122699 -1.55818 0
M  V30 1723 H 157.923 2.30691 -2.2793 0
M  V30 1724 H 157.708 1.26099 -3.7127 0
M  V30 1725 H 159.198 2.23384 -3.5283 0
M  V30 1726 N 159.635 1.57281 -0.100228 0
M  V30 1727 C 160.881 1.94826 0.563101 0
M  V30 1728 C 161.214 0.982475 1.67514 0
M  V30 1729 O 160.489 0.0164069 1.94493 0
M  V30 1730 C 160.772 3.42453 1.11346 0
M  V30 1731 C 160.625 4.498 0.00612081 0
M  V30 1732 C 161.944 3.91506 2.01024 0
M  V30 1733 H 159.063 0.708428 0.203221 0
M  V30 1734 H 161.705 1.8922 -0.171979 0
M  V30 1735 H 159.855 3.47361 1.7399 0
M  V30 1736 H 161.527 4.57 -0.628357 0
M  V30 1737 H 159.77 4.28756 -0.659581 0
M  V30 1738 H 160.441 5.50306 0.432109 0
M  V30 1739 H 162.917 3.88784 1.48278 0
M  V30 1740 H 161.793 4.95358 2.36457 0
M  V30 1741 H 162.054 3.31099 2.92961 0
M  V30 1742 N 161.113 -0.173488 1.56642 0
M  V30 1743 C 162.362 -0.888758 1.81063 0
M  V30 1744 C 162.675 -1.83506 0.67712 0
M  V30 1745 O 163.881 -2.59254 0.806206 0
M  V30 1746 C 162.337 -1.63091 3.20826 0
M  V30 1747 C 161.945 -0.728357 4.4204 0
M  V30 1748 C 163.689 -2.33454 3.54541 0
M  V30 1749 C 161.596 -1.47062 5.72823 0
M  V30 1750 H 160.526 -0.335618 0.675186 0
M  V30 1751 H 163.177 -0.141712 1.82952 0
M  V30 1752 H 161.559 -2.42263 3.13248 0
M  V30 1753 H 162.733 0.0262449 4.60793 0
M  V30 1754 H 161.048 -0.134492 4.16183 0
M  V30 1755 H 163.645 -2.89578 4.49498 0
M  V30 1756 H 163.988 -3.08687 2.79317 0
M  V30 1757 H 164.521 -1.61227 3.63663 0
M  V30 1758 H 161.26 -0.760658 6.51072 0
M  V30 1759 H 160.78 -2.1986 5.58052 0
M  V30 1760 H 162.459 -2.01868 6.14702 0
M  V30 1761 N 162.591 -1.51276 -0.441967 0
M  V30 1762 C 163.554 -1.7167 -1.51862 0
M  V30 1763 C 164.554 -0.586793 -1.49711 0
M  V30 1764 O 165.744 -0.854276 -1.51815 0
M  V30 1765 C 162.876 -1.76889 -2.91416 0
M  V30 1766 H 164.069 -2.67754 -1.35084 0
M  V30 1767 H 161.622 -1.41196 -0.670333 0
M  V30 1768 H 162.357 -0.826026 -3.13604 0
M  V30 1769 H 162.142 -2.59001 -2.94382 0
M  V30 1770 H 163.632 -1.94522 -3.69528 0
M  V30 1771 N 164.069 0.697108 -1.41344 0
M  V30 1772 C 165.346 1.45154 -1.31109 0
M  V30 1773 C 165.726 2.11009 0.0620449 0
M  V30 1774 O 165.074 2.01571 1.07618 0
M  V30 1775 C 165.284 2.47223 -2.46337 0
M  V30 1776 C 166.632 3.1252 -2.87431 0
M  V30 1777 O 167.656 2.57547 -2.46065 0
M  V30 1778 O 166.515 4.12083 -3.58957 0
M  V30 1779 H 163.609 0.646365 -0.515889 0
M  V30 1780 H 166.155 0.727716 -1.53305 0
M  V30 1781 H 164.927 1.97204 -3.37974 0
M  V30 1782 H 164.55 3.27116 -2.2601 0
M  V30 1783 N 165.547 1.27147 0.931209 0
M  V30 1784 C 166.477 1.12081 2.04842 0
M  V30 1785 C 167.458 0.0232364 1.70084 0
M  V30 1786 O 168.643 0.197085 1.93197 0
M  V30 1787 C 165.773 0.76354 3.38803 0
M  V30 1788 C 164.727 1.81396 3.87659 0
M  V30 1789 C 164.053 1.31075 5.18385 0
M  V30 1790 C 165.353 3.21739 4.11438 0
M  V30 1791 H 167.047 2.05537 2.17703 0
M  V30 1792 H 164.593 0.989603 1.04608 0
M  V30 1793 H 166.546 0.644982 4.16435 0
M  V30 1794 H 165.27 -0.206727 3.25945 0
M  V30 1795 H 163.929 1.92136 3.12217 0
M  V30 1796 H 163.577 0.330037 5.01916 0
M  V30 1797 H 163.277 2.013 5.52044 0
M  V30 1798 H 164.801 1.20506 5.98591 0
M  V30 1799 H 166.215 3.14019 4.79651 0
M  V30 1800 H 164.612 3.89644 4.56397 0
M  V30 1801 H 165.682 3.67054 3.16859 0
M  V30 1802 N 167.025 -1.13721 1.09112 0
M  V30 1803 C 168.302 -1.81155 0.737706 0
M  V30 1804 C 168.682 -1.96253 -0.777683 0
M  V30 1805 O 168.03 -1.52807 -1.69889 0
M  V30 1806 C 168.24 -3.16392 1.47299 0
M  V30 1807 C 169.588 -3.91787 1.63671 0
M  V30 1808 O 170.612 -3.26005 1.43524 0
M  V30 1809 O 169.471 -5.0977 1.96969 0
M  V30 1810 H 166.565 -0.783518 0.26463 0
M  V30 1811 H 169.111 -1.20676 1.19312 0
M  V30 1812 H 167.883 -3.0061 2.50498 0
M  V30 1813 H 167.506 -3.8457 1.00953 0
M  V30 1814 N 168.503 -0.877838 -1.30888 0
M  V30 1815 C 169.731 -0.507414 -2.00581 0
M  V30 1816 C 170.146 0.902216 -1.65848 0
M  V30 1817 O 169.503 1.59225 -0.891831 0
M  V30 1818 C 169.554 -0.664162 -3.55347 0
M  V30 1819 O 169.275 -2.01829 -3.8884 0
M  V30 1820 C 170.776 -0.295787 -4.42312 0
M  V30 1821 H 167.996 -0.196866 -0.641471 0
M  V30 1822 H 170.54 -1.18117 -1.66939 0
M  V30 1823 H 168.695 -0.0378619 -3.87381 0
M  V30 1824 H 169.109 -2.03174 -4.8355 0
M  V30 1825 H 170.583 -0.456388 -5.5011 0
M  V30 1826 H 171.06 0.765663 -4.32475 0
M  V30 1827 H 171.666 -0.898113 -4.15709 0
M  V30 1828 N 169.982 1.44106 -0.638065 0
M  V30 1829 C 170.892 2.34513 0.0637334 0
M  V30 1830 C 171.908 1.53018 0.828346 0
M  V30 1831 O 173.084 1.85723 0.779036 0
M  V30 1832 C 170.149 3.31095 1.02844 0
M  V30 1833 C 169.21 4.28497 0.26244 0
M  V30 1834 C 168.443 5.20465 1.1812 0
M  V30 1835 O 168.666 5.16514 2.42011 0
M  V30 1836 O 167.6 5.98251 0.661774 0
M  V30 1837 H 171.426 2.95989 -0.68003 0
M  V30 1838 H 169.011 1.43994 -0.398252 0
M  V30 1839 H 170.893 3.90526 1.58327 0
M  V30 1840 H 169.568 2.72144 1.7527 0
M  V30 1841 H 168.475 3.72592 -0.335602 0
M  V30 1842 H 169.808 4.90388 -0.421936 0
M  V30 1843 N 171.46 0.379036 1.52974 0
M  V30 1844 C 172.685 -0.209353 2.06341 0
M  V30 1845 C 173.11 -1.40583 1.24972 0
M  V30 1846 O 172.468 -1.79246 0.272155 0
M  V30 1847 C 172.516 -0.567786 3.56102 0
M  V30 1848 O 171.62 -1.66318 3.77375 0
M  V30 1849 H 170.961 -0.0272919 0.663439 0
M  V30 1850 H 173.491 0.543536 1.97248 0
M  V30 1851 H 173.501 -0.835003 3.99364 0
M  V30 1852 H 172.176 0.307013 4.14765 0
M  V30 1853 H 170.753 -1.39048 3.46006 0
M  V30 1854 N 172.938 -1.57226 0.108567 0
M  V30 1855 C 174.354 -1.5766 -0.248058 0
M  V30 1856 C 174.554 -1.12063 -1.67464 0
M  V30 1857 O 173.61 -0.803236 -2.39383 0
M  V30 1858 C 174.923 -3.0069 -0.0242287 0
M  V30 1859 C 176.471 -3.12868 -0.0909372 0
M  V30 1860 C 176.946 -4.57879 0.105067 0
M  V30 1861 N 178.437 -4.63172 0.0506846 0
M  V30 1862 C 179.172 -5.73126 0.177396 0
M  V30 1863 N 178.668 -6.91866 0.359696 0
M  V30 1864 N 180.461 -5.61977 0.117709 0
M  V30 1865 H 172.612 -1.85169 1.04049 0
M  V30 1866 H 174.875 -0.85529 0.40888 0
M  V30 1867 H 174.581 -3.38299 0.961604 0
M  V30 1868 H 174.455 -3.6945 -0.76068 0
M  V30 1869 H 176.842 -2.75124 -1.06729 0
M  V30 1870 H 176.923 -2.46672 0.677225 0
M  V30 1871 H 176.567 -4.96321 1.07834 0
M  V30 1872 H 176.497 -5.22153 -0.682954 0
M  V30 1873 H 178.988 -3.778 -0.0871266 0
M  V30 1874 H 179.301 -7.71503 0.447529 0
M  V30 1875 H 177.646 -6.93874 0.395536 0
M  V30 1876 H 180.837 -4.68094 -0.0236741 0
M  V30 1877 H 181.01 -6.47627 0.219905 0
M  V30 1878 N 174.416 0.165178 -1.56732 0
M  V30 1879 C 175.379 1.18822 -1.95995 0
M  V30 1880 C 176.379 1.3685 -0.84431 0
M  V30 1881 O 177.569 1.34152 -1.11126 0
M  V30 1882 C 174.701 2.5521 -2.26011 0
M  V30 1883 H 175.894 0.851825 -2.87548 0
M  V30 1884 H 173.447 0.407857 -1.50885 0
M  V30 1885 H 174.182 2.93852 -1.37191 0
M  V30 1886 H 173.967 2.43489 -3.07336 0
M  V30 1887 H 175.457 3.28927 -2.57288 0
M  V30 1888 N 175.894 1.51508 0.433938 0
M  V30 1889 C 176.826 1.69266 1.54537 0
M  V30 1890 C 177.839 0.573276 1.52373 0
M  V30 1891 O 179.028 0.847698 1.57087 0
M  V30 1892 C 176.128 1.69524 2.93453 0
M  V30 1893 C 175.301 2.98101 3.20085 0
M  V30 1894 C 174.36 2.90502 4.38742 0
M  V30 1895 O 173.386 3.64442 4.3723 0
M  V30 1896 N 174.588 2.06586 5.42496 0
M  V30 1897 H 177.353 2.65145 1.39708 0
M  V30 1898 H 174.914 1.49437 0.622922 0
M  V30 1899 H 176.906 1.62004 3.70859 0
M  V30 1900 H 175.476 0.812245 3.01863 0
M  V30 1901 H 174.696 3.19464 2.30947 0
M  V30 1902 H 175.984 3.83207 3.34708 0
M  V30 1903 H 175.382 1.45896 5.46563 0
M  V30 1904 H 173.939 2.04943 6.18742 0
M  V30 1905 N 177.372 -0.689602 1.41712 0
M  V30 1906 C 178.282 -1.83314 1.46401 0
M  V30 1907 C 179.298 -1.7036 0.35405 0
M  V30 1908 O 180.474 -1.92171 0.602692 0
M  V30 1909 C 177.539 -3.19344 1.34982 0
M  V30 1910 C 176.6 -3.44363 2.56344 0
M  V30 1911 C 175.833 -4.73904 2.45461 0
M  V30 1912 O 176.056 -5.508 1.48241 0
M  V30 1913 O 174.99 -4.99839 3.35328 0
M  V30 1914 H 178.816 -1.82314 2.42889 0
M  V30 1915 H 176.401 -0.843438 1.23315 0
M  V30 1916 H 178.283 -4.00547 1.3092 0
M  V30 1917 H 176.958 -3.21014 0.41612 0
M  V30 1918 H 175.865 -2.63067 2.65982 0
M  V30 1919 H 177.198 -3.47512 3.48563 0
M  V30 1920 N 178.85 -1.27639 -0.924453 0
M  V30 1921 C 179.76 -1.12466 -2.05885 0
M  V30 1922 C 180.776 -0.053869 -1.73917 0
M  V30 1923 O 181.952 -0.261012 -1.99702 0
M  V30 1924 C 179.017 -0.776768 -3.37886 0
M  V30 1925 C 178.078 -1.92878 -3.83532 0
M  V30 1926 C 177.311 -1.59739 -5.09234 0
M  V30 1927 O 177.534 -0.506782 -5.68144 0
M  V30 1928 O 176.468 -2.43761 -5.50331 0
M  V30 1929 H 180.294 -2.07671 -2.21599 0
M  V30 1930 H 177.879 -1.06857 -1.04413 0
M  V30 1931 H 179.761 -0.596229 -4.17161 0
M  V30 1932 H 178.436 0.145732 -3.23372 0
M  V30 1933 H 177.343 -2.1644 -3.0513 0
M  V30 1934 H 178.676 -2.8316 -4.02593 0
M  V30 1935 N 180.328 1.1314 -1.09713 0
M  V30 1936 C 181.276 2.20717 -0.733934 0
M  V30 1937 C 182.27 1.6729 0.266506 0
M  V30 1938 O 183.476 1.79547 0.127656 0
M  V30 1939 H 179.851 0.719292 -0.21937 0
M  V30 1940 H 181.822 2.48611 -1.6503 0
M  V30 1941 C 180.571 3.47265 -0.173849 0
M  V30 1942 H 179.894 3.88716 -0.934873 0
M  V30 1943 H 181.334 4.23979 0.0423126 0
M  V30 1944 C 179.793 3.18724 1.09164 0
M  V30 1945 O 180.323 3.37762 2.17439 0
M  V30 1946 N 178.529 2.72583 1.00732 0
M  V30 1947 H 178.076 2.57291 0.126121 0
M  V30 1948 H 178.034 2.53862 1.85476 0
M  V30 1949 N 181.806 0.884767 1.30421 0
M  V30 1950 C 183.034 0.518044 2.0031 0
M  V30 1951 C 183.449 -0.893408 1.66324 0
M  V30 1952 O 182.806 -1.5875 0.900262 0
M  V30 1953 C 182.857 0.682997 3.54989 0
M  V30 1954 O 182.578 2.03888 3.87764 0
M  V30 1955 C 184.079 0.31924 4.42149 0
M  V30 1956 H 181.299 0.200265 0.640418 0
M  V30 1957 H 183.843 1.19001 1.6631 0
M  V30 1958 H 181.998 0.0584052 3.87356 0
M  V30 1959 H 182.412 2.05735 4.82466 0
M  V30 1960 H 183.886 0.485555 5.4986 0
M  V30 1961 H 184.363 -0.742717 4.32875 0
M  V30 1962 H 184.969 0.920147 4.15227 0
M  V30 1963 N 183.284 -1.43765 0.645699 0
M  V30 1964 C 184.53 -2.02731 0.164844 0
M  V30 1965 C 184.885 -1.49983 -1.2051 0
M  V30 1966 O 184.178 -0.680208 -1.79119 0
M  V30 1967 C 184.372 -3.57238 0.107679 0
M  V30 1968 C 184.201 -4.24977 1.47054 0
M  V30 1969 C 182.971 -4.61356 2.06103 0
M  V30 1970 C 185.169 -4.54476 2.40741 0
M  V30 1971 N 183.151 -5.14132 3.35473 0
M  V30 1972 C 184.522 -5.08489 3.54737 0
M  V30 1973 C 186.577 -4.36438 2.39637 0
M  V30 1974 C 185.28 -5.46364 4.67845 0
M  V30 1975 C 187.306 -4.7537 3.5182 0
M  V30 1976 C 186.668 -5.2951 4.64541 0
M  V30 1977 H 182.767 -0.774976 0.104578 0
M  V30 1978 H 185.351 -1.75051 0.852367 0
M  V30 1979 H 183.522 -3.84498 -0.549165 0
M  V30 1980 H 185.254 -4.0288 -0.383351 0
M  V30 1981 H 182.009 -4.46151 1.58892 0
M  V30 1982 H 182.433 -5.4498 4.01654 0
M  V30 1983 H 187.075 -3.93861 1.53731 0
M  V30 1984 H 184.793 -5.87888 5.54448 0
M  V30 1985 H 188.379 -4.63115 3.52159 0
M  V30 1986 H 187.259 -5.59077 5.49911 0
M  V30 1987 N 184.763 -0.387143 -1.52771 0
M  V30 1988 C 186.01 0.195735 -2.01552 0
M  V30 1989 C 186.338 1.46995 -1.27369 0
M  V30 1990 O 185.593 1.92325 -0.361879 0
M  V30 1991 C 185.892 0.512209 -3.53711 0
M  V30 1992 C 185.558 -0.670202 -4.45891 0
M  V30 1993 C 184.22 -0.994586 -4.70809 0
M  V30 1994 C 186.572 -1.46134 -5.00294 0
M  V30 1995 C 183.9 -2.11169 -5.4738 0
M  V30 1996 C 186.252 -2.56903 -5.78086 0
M  V30 1997 C 184.916 -2.89852 -6.01284 0
M  V30 1998 H 184.186 0.0716246 -0.73753 0
M  V30 1999 H 186.833 -0.524046 -1.8419 0
M  V30 2000 H 185.138 1.31329 -3.69134 0
M  V30 2001 H 186.835 0.975804 -3.88946 0
M  V30 2002 H 183.425 -0.407366 -4.2666 0
M  V30 2003 H 187.609 -1.22397 -4.80971 0
M  V30 2004 H 182.865 -2.3707 -5.63567 0
M  V30 2005 H 187.039 -3.18608 -6.19243 0
M  V30 2006 H 184.666 -3.76533 -6.60399 0
M  V30 2007 N 186.241 1.57166 -0.116904 0
M  V30 2008 C 187.466 1.999 0.55271 0
M  V30 2009 C 187.891 0.996039 1.59564 0
M  V30 2010 O 187.249 -0.032556 1.81271 0
M  V30 2011 C 187.297 3.4152 1.15742 0
M  V30 2012 O 186.401 3.44106 2.27299 0
M  V30 2013 H 185.742 0.649447 0.138258 0
M  V30 2014 H 188.272 2.03573 -0.204759 0
M  V30 2015 H 188.282 3.79684 1.49346 0
M  V30 2016 H 186.957 4.14034 0.393493 0
M  V30 2017 H 185.534 3.17759 1.9515 0
M  V30 2018 N 187.719 -0.156864 1.56817 0
M  V30 2019 C 188.949 -0.885031 1.86684 0
M  V30 2020 C 189.357 -1.75696 0.701954 0
M  V30 2021 O 188.7 -1.80569 -0.337732 0
M  V30 2022 C 188.762 -1.80092 3.11138 0
M  V30 2023 C 188.426 -1.10714 4.43386 0
M  V30 2024 C 189.423 -0.465714 5.1781 0
M  V30 2025 C 187.108 -1.09959 4.90117 0
M  V30 2026 C 189.102 0.174002 6.37162 0
M  V30 2027 C 186.789 -0.456055 6.09396 0
M  V30 2028 C 187.787 0.179622 6.82764 0
M  V30 2029 O 187.475 0.812975 7.99779 0
M  V30 2030 H 187.207 -0.261813 0.623242 0
M  V30 2031 H 189.761 -0.157383 2.04796 0
M  V30 2032 H 187.991 -2.56926 2.89009 0
M  V30 2033 H 189.68 -2.40018 3.27332 0
M  V30 2034 H 190.446 -0.463427 4.82781 0
M  V30 2035 H 186.325 -1.58378 4.3294 0
M  V30 2036 H 189.869 0.670765 6.94368 0
M  V30 2037 H 185.766 -0.455975 6.43888 0
M  V30 2038 H 186.534 0.71366 8.15383 0
M  V30 2039 N 189.197 -1.51736 -0.425897 0
M  V30 2040 C 190.127 -1.76827 -1.52494 0
M  V30 2041 C 191.108 -0.618524 -1.58456 0
M  V30 2042 O 192.293 -0.862416 -1.74 0
M  V30 2043 C 189.423 -1.90374 -2.90474 0
M  V30 2044 C 188.377 -3.0588 -2.99369 0
M  V30 2045 C 187.703 -3.04625 -4.3944 0
M  V30 2046 C 189.003 -4.45644 -2.72394 0
M  V30 2047 H 190.697 -2.68855 -1.31748 0
M  V30 2048 H 188.243 -1.29372 -0.632362 0
M  V30 2049 H 190.196 -2.0651 -3.6733 0
M  V30 2050 H 188.92 -0.95004 -3.12477 0
M  V30 2051 H 187.579 -2.89467 -2.24954 0
M  V30 2052 H 187.227 -2.0701 -4.58428 0
M  V30 2053 H 186.927 -3.82195 -4.46319 0
M  V30 2054 H 188.451 -3.22869 -5.18255 0
M  V30 2055 H 189.865 -4.62348 -3.38979 0
M  V30 2056 H 188.262 -5.25006 -2.9067 0
M  V30 2057 H 189.332 -4.54893 -1.67929 0
M  V30 2058 N 190.675 0.682077 -1.42076 0
M  V30 2059 C 191.622 1.79578 -1.44984 0
M  V30 2060 C 192.592 1.6332 -0.302614 0
M  V30 2061 O 193.777 1.83978 -0.505633 0
M  V30 2062 C 190.917 3.1756 -1.35091 0
M  V30 2063 C 190.03 3.45156 -2.59791 0
M  V30 2064 C 189.165 4.72826 -2.42093 0
M  V30 2065 C 188.204 4.93433 -3.62202 0
M  V30 2066 N 187.341 6.12338 -3.43491 0
M  V30 2067 H 192.181 1.76427 -2.40161 0
M  V30 2068 H 189.718 0.861376 -1.19242 0
M  V30 2069 H 191.676 3.97287 -1.27354 0
M  V30 2070 H 190.306 3.19854 -0.435133 0
M  V30 2071 H 189.358 2.59736 -2.77923 0
M  V30 2072 H 190.67 3.5628 -3.49094 0
M  V30 2073 H 189.824 5.60631 -2.319 0
M  V30 2074 H 188.563 4.63973 -1.50268 0
M  V30 2075 H 187.568 4.04073 -3.72834 0
M  V30 2076 H 188.793 5.04136 -4.54998 0
M  V30 2077 H 186.739 6.04672 -2.54377 0
M  V30 2078 H 186.656 6.2429 -4.26377 0
M  V30 2079 H 187.924 7.02841 -3.37097 0
M  V30 2080 N 192.153 1.28127 0.917671 0
M  V30 2081 C 193.1 1.11717 2.0196 0
M  V30 2082 C 194.07 0.0153929 1.66093 0
M  V30 2083 O 195.255 0.179596 1.89953 0
M  V30 2084 C 192.395 0.780927 3.36148 0
M  V30 2085 C 191.508 1.96135 3.84909 0
M  V30 2086 C 190.643 1.56609 5.0759 0
M  V30 2087 C 189.682 2.71339 5.48673 0
M  V30 2088 N 188.819 2.32332 6.62545 0
M  V30 2089 H 193.659 2.06003 2.15329 0
M  V30 2090 H 191.196 1.02535 1.05475 0
M  V30 2091 H 193.154 0.56675 4.13333 0
M  V30 2092 H 191.784 -0.124998 3.22558 0
M  V30 2093 H 190.836 2.28777 3.03916 0
M  V30 2094 H 192.148 2.82165 4.1132 0
M  V30 2095 H 191.302 1.31374 5.92305 0
M  V30 2096 H 190.041 0.677014 4.82978 0
M  V30 2097 H 189.046 2.97276 4.62501 0
M  V30 2098 H 190.271 3.60882 5.75274 0
M  V30 2099 H 188.217 1.45889 6.39572 0
M  V30 2100 H 188.134 3.11899 6.88662 0
M  V30 2101 H 189.402 2.10371 7.50576 0
M  V30 2102 N 193.631 -1.12557 1.10312 0
M  V30 2103 C 194.879 -1.83675 0.843091 0
M  V30 2104 C 195.2 -1.84435 -0.633131 0
M  V30 2105 O 194.47 -1.30657 -1.45964 0
M  V30 2106 H 193.05 -0.680138 0.308904 0
M  V30 2107 H 195.712 -1.36301 1.39313 0
M  V30 2108 H 194.808 -2.87908 1.2048 0
M  V30 2109 N 195.109 -0.891671 -1.2995 0
M  V30 2110 C 196.339 -0.527893 -1.99742 0
M  V30 2111 C 196.747 0.88979 -1.66971 0
M  V30 2112 O 196.09 1.59766 -0.906667 0
M  V30 2113 C 196.152 -0.630804 -3.53922 0
M  V30 2114 C 195.816 -2.01401 -4.10228 0
M  V30 2115 C 196.813 -2.98422 -4.25724 0
M  V30 2116 C 194.498 -2.32121 -4.45449 0
M  V30 2117 C 196.492 -4.24293 -4.75662 0
M  V30 2118 C 194.179 -3.58237 -4.95086 0
M  V30 2119 C 195.177 -4.54137 -5.10146 0
M  V30 2120 O 194.865 -5.78014 -5.58708 0
M  V30 2121 H 194.597 -0.201953 -0.645129 0
M  V30 2122 H 197.151 -1.20076 -1.66646 0
M  V30 2123 H 195.381 0.0990616 -3.86573 0
M  V30 2124 H 197.07 -0.277338 -4.04951 0
M  V30 2125 H 197.836 -2.76001 -3.98809 0
M  V30 2126 H 193.715 -1.5824 -4.32991 0
M  V30 2127 H 197.259 -4.99153 -4.87332 0
M  V30 2128 H 193.156 -3.80491 -5.21437 0
M  V30 2129 H 193.924 -5.8049 -5.77039 0
M  V30 2130 N 196.587 1.43421 -0.653314 0
M  V30 2131 C 197.517 2.33487 0.0246656 0
M  V30 2132 C 198.498 1.49475 0.811863 0
M  V30 2133 O 199.683 1.78139 0.773322 0
M  V30 2134 C 196.813 3.32841 0.99166 0
M  V30 2135 C 195.767 4.26842 0.314568 0
M  V30 2136 C 195.093 5.16236 1.39302 0
M  V30 2137 C 196.393 5.16243 -0.793095 0
M  V30 2138 H 198.087 2.90427 -0.727481 0
M  V30 2139 H 195.633 1.39649 -0.351287 0
M  V30 2140 H 197.586 3.94747 1.47487 0
M  V30 2141 H 196.31 2.74158 1.77497 0
M  V30 2142 H 194.969 3.663 -0.148199 0
M  V30 2143 H 194.617 4.53891 2.16776 0
M  V30 2144 H 194.317 5.79948 0.945223 0
M  V30 2145 H 195.841 5.81015 1.87759 0
M  V30 2146 H 197.255 5.71958 -0.392039 0
M  V30 2147 H 195.652 5.88676 -1.16536 0
M  V30 2148 H 196.722 4.55927 -1.65103 0
M  V30 2149 N 198.065 0.39524 1.52563 0
M  V30 2150 C 199.293 -0.184943 2.06072 0
M  V30 2151 C 199.708 -1.40021 1.26647 0
M  V30 2152 O 199.065 -1.79767 0.314672 0
M  V30 2153 C 199.116 -0.549179 3.57304 0
M  V30 2154 O 198.837 0.617813 4.33722 0
M  V30 2155 C 200.338 -1.18459 4.2718 0
M  V30 2156 H 197.558 -0.0265025 0.670476 0
M  V30 2157 H 200.102 0.562184 1.96621 0
M  V30 2158 H 198.257 -1.2462 3.66809 0
M  V30 2159 H 198.671 0.317091 5.23541 0
M  V30 2160 H 200.145 -1.38976 5.34219 0
M  V30 2161 H 200.622 -2.15368 3.82771 0
M  V30 2162 H 201.228 -0.528163 4.22008 0
M  V30 2163 N 199.544 -1.57102 0.125237 0
M  V30 2164 C 200.474 -2.18659 -0.819174 0
M  V30 2165 C 201.455 -1.12843 -1.27281 0
M  V30 2166 O 202.64 -1.41104 -1.33429 0
M  V30 2167 C 199.77 -2.79096 -2.06695 0
M  V30 2168 C 198.724 -3.90548 -1.75088 0
M  V30 2169 C 198.05 -4.37821 -3.06948 0
M  V30 2170 C 199.35 -5.12356 -1.01435 0
M  V30 2171 H 201.044 -2.9783 -0.306202 0
M  V30 2172 H 198.59 -1.4326 -0.145839 0
M  V30 2173 H 200.543 -3.2082 -2.73226 0
M  V30 2174 H 199.267 -1.97223 -2.60328 0
M  V30 2175 H 197.926 -3.49409 -1.10944 0
M  V30 2176 H 197.574 -3.52799 -3.58527 0
M  V30 2177 H 197.274 -5.12982 -2.86571 0
M  V30 2178 H 198.798 -4.822 -3.74587 0
M  V30 2179 H 200.212 -5.5106 -1.58132 0
M  V30 2180 H 198.609 -5.9314 -0.911319 0
M  V30 2181 H 199.679 -4.849 -0.00218681 0
M  V30 2182 N 201.022 0.148545 -1.56898 0
M  V30 2183 C 202.247 0.880385 -1.87787 0
M  V30 2184 C 202.672 1.74018 -0.714093 0
M  V30 2185 O 202.03 1.78153 0.336343 0
M  V30 2186 C 202.078 1.71422 -3.17249 0
M  V30 2187 O 201.182 2.8183 -3.01074 0
M  V30 2188 H 200.523 0.245301 -0.617028 0
M  V30 2189 H 203.053 0.139826 -2.04122 0
M  V30 2190 H 203.063 2.10954 -3.49231 0
M  V30 2191 H 201.738 1.08284 -4.01556 0
M  V30 2192 H 200.315 2.45715 -2.80497 0
M  V30 2193 N 202.5 1.5196 0.417844 0
M  V30 2194 C 203.777 1.56146 1.17803 0
M  V30 2195 C 204.157 0.337275 2.08388 0
M  V30 2196 O 203.505 -0.676447 2.18258 0
M  V30 2197 C 203.715 2.88566 1.96293 0
M  V30 2198 C 205.063 3.41244 2.52662 0
M  V30 2199 O 206.087 2.90247 2.06483 0
M  V30 2200 O 204.946 4.30273 3.36938 0
M  V30 2201 H 202.04 0.628598 0.537395 0
M  V30 2202 H 204.586 1.64283 0.425331 0
M  V30 2203 H 203.358 3.69116 1.2988 0
M  V30 2204 H 202.981 2.83681 2.78587 0
M  V30 2205 N 203.978 -0.674533 1.42435 0
M  V30 2206 C 205.203 -1.46784 1.46524 0
M  V30 2207 C 205.628 -1.87938 0.078066 0
M  V30 2208 O 204.986 -1.56014 -0.92354 0
M  V30 2209 C 205.034 -2.69307 2.39805 0
M  V30 2210 O 204.138 -3.67587 1.86959 0
M  V30 2211 H 203.479 -0.440959 0.496439 0
M  V30 2212 H 206.009 -0.827326 1.87127 0
M  V30 2213 H 206.019 -3.17374 2.56393 0
M  V30 2214 H 204.694 -2.38692 3.40586 0
M  V30 2215 H 203.271 -3.2662 1.79927 0
M  V30 2216 N 205.456 -1.28612 -0.910864 0
M  V30 2217 C 206.704 -1.15705 -1.65701 0
M  V30 2218 C 207.025 0.29416 -1.92769 0
M  V30 2219 O 206.295 1.20331 -1.54588 0
M  V30 2220 H 204.875 -0.425216 -0.614167 0
M  V30 2221 H 207.537 -1.61381 -1.0928 0
M  V30 2222 H 206.633 -1.6988 -2.61815 0
M  V30 2223 N 206.934 1.1197 -1.10907 0
M  V30 2224 C 208.211 1.79959 -0.766432 0
M  V30 2225 C 208.591 1.97466 0.746363 0
M  V30 2226 O 207.939 1.55491 1.67436 0
M  V30 2227 C 208.149 3.14009 -1.52314 0
M  V30 2228 C 209.497 3.89134 -1.69883 0
M  V30 2229 O 210.521 3.2368 -1.48692 0
M  V30 2230 O 209.38 5.06572 -2.05054 0
M  V30 2231 H 206.474 0.779208 -0.277062 0
M  V30 2232 H 209.02 1.18762 -1.21217 0
M  V30 2233 H 207.792 2.96587 -2.55249 0
M  V30 2234 H 207.415 3.82915 -1.07059 0
M  V30 2235 N 208.412 0.89855 1.29475 0
M  V30 2236 C 209.359 0.373819 2.27753 0
M  V30 2237 C 210.329 -0.543444 1.56958 0
M  V30 2238 O 211.514 -0.468934 1.84948 0
M  V30 2239 C 208.654 -0.393648 3.42848 0
M  V30 2240 C 207.767 0.554379 4.28428 0
M  V30 2241 C 206.902 -0.230026 5.30702 0
M  V30 2242 C 205.941 0.712599 6.07938 0
M  V30 2243 N 205.078 -0.0373283 7.0209 0
M  V30 2244 H 209.918 1.21699 2.72017 0
M  V30 2245 H 207.455 0.611456 1.33789 0
M  V30 2246 H 209.413 -0.85466 4.08352 0
M  V30 2247 H 208.043 -1.20128 2.99615 0
M  V30 2248 H 207.095 1.13391 3.63107 0
M  V30 2249 H 208.407 1.27597 4.82204 0
M  V30 2250 H 207.561 -0.752288 6.02018 0
M  V30 2251 H 206.3 -0.984758 4.77654 0
M  V30 2252 H 205.305 1.24637 5.35486 0
M  V30 2253 H 206.53 1.46664 6.63074 0
M  V30 2254 H 204.476 -0.774348 6.51414 0
M  V30 2255 H 204.393 0.624374 7.53417 0
M  V30 2256 H 205.661 -0.539891 7.77628 0
M  V30 2257 N 209.89 -1.43072 0.660911 0
M  V30 2258 C 211.136 -2.0202 0.177708 0
M  V30 2259 C 211.469 -1.52066 -1.20787 0
M  V30 2260 O 210.744 -0.716987 -1.80802 0
M  V30 2261 C 211.027 -3.59561 0.197019 0
M  V30 2262 C 210.88 -4.19727 1.61706 0
M  V30 2263 C 212.199 -4.37664 -0.462396 0
M  V30 2264 H 209.318 -0.734034 0.0660494 0
M  V30 2265 H 211.96 -1.70272 0.843058 0
M  V30 2266 H 210.11 -3.86739 -0.369527 0
M  V30 2267 H 211.782 -4.03553 2.23479 0
M  V30 2268 H 210.025 -3.76084 2.16201 0
M  V30 2269 H 210.696 -5.28834 1.58237 0
M  V30 2270 H 213.172 -4.16095 0.0197215 0
M  V30 2271 H 212.048 -5.47305 -0.418188 0
M  V30 2272 H 212.309 -4.14493 -1.53778 0
M  V30 2273 N 211.368 -0.403325 -1.52352 0
M  V30 2274 C 212.331 0.413051 -2.25447 0
M  V30 2275 C 213.331 0.978513 -1.276 0
M  V30 2276 O 214.521 0.858305 -1.51587 0
M  V30 2277 C 211.653 1.58087 -3.02029 0
M  V30 2278 H 212.846 -0.227094 -2.99039 0
M  V30 2279 H 210.399 -0.155722 -1.55522 0
M  V30 2280 H 211.134 2.25804 -2.32772 0
M  V30 2281 H 210.919 1.18195 -3.73861 0
M  V30 2282 H 212.409 2.1585 -3.57489 0
M  V30 2283 N 212.846 1.57033 -0.133567 0
M  V30 2284 C 214.092 1.95976 0.521649 0
M  V30 2285 C 214.425 1.01779 1.65393 0
M  V30 2286 O 213.7 0.0576581 1.94415 0
M  V30 2287 C 213.983 3.44738 1.04057 0
M  V30 2288 C 213.836 4.49711 -0.0892897 0
M  V30 2289 C 215.155 3.95682 1.92675 0
M  V30 2290 H 212.274 0.712579 0.188149 0
M  V30 2291 H 214.916 1.88813 -0.212076 0
M  V30 2292 H 213.066 3.50973 1.66583 0
M  V30 2293 H 214.738 4.55565 -0.725152 0
M  V30 2294 H 212.981 4.27261 -0.750378 0
M  V30 2295 H 213.652 5.51099 0.315284 0
M  V30 2296 H 216.128 3.91841 1.39998 0
M  V30 2297 H 215.004 5.00262 2.25897 0
M  V30 2298 H 215.265 3.37239 2.85872 0
M  V30 2299 N 214.325 -0.140222 1.56975 0
M  V30 2300 C 215.235 -1.19223 2.02047 0
M  V30 2301 C 216.251 -1.46612 0.937062 0
M  V30 2302 O 217.427 -1.58148 1.24704 0
M  V30 2303 C 214.492 -2.50414 2.39778 0
M  V30 2304 C 213.553 -2.30612 3.621 0
M  V30 2305 C 212.786 -3.55547 3.98023 0
M  V30 2306 O 213.009 -4.62004 3.34528 0
M  V30 2307 O 211.943 -3.47808 4.91237 0
M  V30 2308 H 215.769 -0.839559 2.91865 0
M  V30 2309 H 213.354 -0.349453 1.45256 0
M  V30 2310 H 215.236 -3.27747 2.64877 0
M  V30 2311 H 213.911 -2.85198 1.53114 0
M  V30 2312 H 212.818 -1.51207 3.4218 0
M  V30 2313 H 214.151 -2.00741 4.49404 0
M  V30 2314 N 215.803 -1.52179 -0.40978 0
M  V30 2315 C 217.049 -1.67408 -1.15525 0
M  V30 2316 C 217.404 -0.398746 -1.88223 0
M  V30 2317 O 216.697 0.60678 -1.81738 0
M  V30 2318 C 216.891 -2.83428 -2.17723 0
M  V30 2319 C 216.72 -4.22121 -1.55061 0
M  V30 2320 C 215.49 -4.87657 -1.3236 0
M  V30 2321 C 217.688 -5.04248 -1.01185 0
M  V30 2322 N 215.67 -6.10387 -0.655834 0
M  V30 2323 C 217.041 -6.18209 -0.470963 0
M  V30 2324 C 219.096 -4.89583 -0.906252 0
M  V30 2325 C 217.799 -7.1911 0.165172 0
M  V30 2326 C 219.825 -5.90718 -0.28397 0
M  V30 2327 C 219.187 -7.03969 0.246243 0
M  V30 2328 H 215.286 -0.666251 -0.409431 0
M  V30 2329 H 217.87 -1.89482 -0.447729 0
M  V30 2330 H 216.041 -2.6297 -2.85834 0
M  V30 2331 H 217.773 -2.87697 -2.84627 0
M  V30 2332 H 214.528 -4.46007 -1.59294 0
M  V30 2333 H 214.952 -6.76153 -0.338596 0
M  V30 2334 H 219.594 -4.02253 -1.302 0
M  V30 2335 H 217.312 -8.06066 0.572986 0
M  V30 2336 H 220.898 -5.81443 -0.203792 0
M  V30 2337 H 219.778 -7.80886 0.720173 0
M  V30 2338 N 217.281 0.66697 -1.42791 0
M  V30 2339 C 218.558 1.4234 -1.34159 0
M  V30 2340 C 218.938 2.11093 0.0172729 0
M  V30 2341 O 218.286 2.03808 1.03318 0
M  V30 2342 C 218.496 2.41942 -2.51526 0
M  V30 2343 C 219.844 3.06353 -2.93995 0
M  V30 2344 O 220.868 2.52269 -2.51473 0
M  V30 2345 O 219.727 4.04376 -3.67617 0
M  V30 2346 H 216.821 0.635277 -0.529483 0
M  V30 2347 H 219.367 0.695034 -1.54814 0
M  V30 2348 H 218.139 1.89991 -3.42081 0
M  V30 2349 H 217.762 3.22249 -2.32898 0
M  V30 2350 N 218.759 1.29093 0.90403 0
M  V30 2351 C 219.706 1.13853 2.00764 0
M  V30 2352 C 220.676 0.0330084 1.66067 0
M  V30 2353 O 221.861 0.199733 1.89752 0
M  V30 2354 C 219.001 0.816537 3.35301 0
M  V30 2355 C 218.114 2.00206 3.82807 0
M  V30 2356 C 217.249 1.61983 5.059 0
M  V30 2357 C 216.288 2.77143 5.45764 0
M  V30 2358 N 215.425 2.39346 6.60044 0
M  V30 2359 H 220.265 2.08276 2.13132 0
M  V30 2360 H 217.802 1.03648 1.04381 0
M  V30 2361 H 219.76 0.610557 4.12708 0
M  V30 2362 H 218.39 -0.090779 3.22672 0
M  V30 2363 H 217.442 2.31988 3.01473 0
M  V30 2364 H 218.754 2.86512 4.08304 0
M  V30 2365 H 217.908 1.37649 5.90879 0
M  V30 2366 H 216.647 0.728202 4.82233 0
M  V30 2367 H 215.652 3.02165 4.59322 0
M  V30 2368 H 216.877 3.66964 5.71414 0
M  V30 2369 H 214.823 1.52665 6.37989 0
M  V30 2370 H 214.74 3.19185 6.85315 0
M  V30 2371 H 216.008 2.1832 7.48303 0
M  V30 2372 N 220.237 -1.11381 1.11499 0
M  V30 2373 C 221.514 -1.7955 0.775965 0
M  V30 2374 C 221.894 -1.97859 -0.73588 0
M  V30 2375 O 221.242 -1.56376 -1.66609 0
M  V30 2376 C 221.452 -3.13196 1.53977 0
M  V30 2377 C 222.8 -3.88227 1.71944 0
M  V30 2378 O 223.824 -3.22887 1.50407 0
M  V30 2379 O 222.683 -5.05477 2.07738 0
M  V30 2380 H 219.777 -0.777728 0.28119 0
M  V30 2381 H 222.323 -1.18118 1.21845 0
M  V30 2382 H 221.095 -2.95229 2.56818 0
M  V30 2383 H 220.718 -3.82342 1.09088 0
M  V30 2384 N 221.715 -0.905404 -1.28997 0
M  V30 2385 C 222.665 -0.358713 -2.25161 0
M  V30 2386 C 223.649 0.524449 -1.52113 0
M  V30 2387 O 224.841 0.365534 -1.73184 0
M  V30 2388 C 221.97 0.407609 -3.40872 0
M  V30 2389 C 221.056 -0.490797 -4.21251 0
M  V30 2390 N 221.447 -1.60061 -4.79806 0
M  V30 2391 C 219.745 -0.289636 -4.45059 0
M  V30 2392 C 220.446 -2.15757 -5.40207 0
M  V30 2393 N 219.422 -1.44988 -5.23908 0
M  V30 2394 H 223.224 -1.20642 -2.67998 0
M  V30 2395 H 220.738 -0.757103 -1.43672 0
M  V30 2396 H 222.735 0.816046 -4.08835 0
M  V30 2397 H 221.395 1.25251 -2.9957 0
M  V30 2398 H 222.406 -1.98329 -4.7842 0
M  V30 2399 H 219.083 0.51643 -4.14294 0
M  V30 2400 H 220.473 -3.09069 -5.96595 0
M  V30 2401 N 223.193 1.4272 -0.668489 0
M  V30 2402 C 224.441 2.01226 -0.187769 0
M  V30 2403 C 224.762 1.53092 1.2078 0
M  V30 2404 O 224.032 0.74993 1.80977 0
M  V30 2405 H 222.612 0.744041 -0.0664272 0
M  V30 2406 H 225.274 1.74723 -0.863583 0
M  V30 2407 H 224.37 3.11556 -0.184166 0
M  V30 2408 N 224.671 0.411399 1.52136 0
M  V30 2409 C 225.917 -0.163888 2.02137 0
M  V30 2410 C 226.25 -1.44597 1.29636 0
M  V30 2411 O 225.525 -1.90272 0.403353 0
M  V30 2412 C 225.808 -0.40927 3.57767 0
M  V30 2413 C 225.661 0.889643 4.40914 0
M  V30 2414 C 226.98 -1.19042 4.23694 0
M  V30 2415 H 224.099 -0.0580896 0.734707 0
M  V30 2416 H 226.741 0.54531 1.82007 0
M  V30 2417 H 224.891 -1.0134 3.7505 0
M  V30 2418 H 226.563 1.52575 4.35337 0
M  V30 2419 H 224.806 1.50011 4.07037 0
M  V30 2420 H 225.477 0.672314 5.4789 0
M  V30 2421 H 227.953 -0.678942 4.10524 0
M  V30 2422 H 226.829 -1.33086 5.32522 0
M  V30 2423 H 227.09 -2.21166 3.82803 0
M  V30 2424 N 226.149 -1.5696 0.141893 0
M  V30 2425 C 227.079 -2.19516 -0.795936 0
M  V30 2426 C 228.06 -1.14187 -1.26077 0
M  V30 2427 O 229.245 -1.42511 -1.31925 0
M  V30 2428 C 226.375 -2.81272 -2.03723 0
M  V30 2429 C 225.329 -3.92384 -1.70936 0
M  V30 2430 C 224.655 -4.41052 -3.02287 0
M  V30 2431 C 225.955 -5.13403 -0.959954 0
M  V30 2432 H 227.649 -2.98138 -0.274596 0
M  V30 2433 H 225.195 -1.43406 -0.130636 0
M  V30 2434 H 227.148 -3.237 -2.69808 0
M  V30 2435 H 225.872 -1.99973 -2.58221 0
M  V30 2436 H 224.531 -3.50566 -1.07232 0
M  V30 2437 H 224.179 -3.56582 -3.54765 0
M  V30 2438 H 223.879 -5.15993 -2.81114 0
M  V30 2439 H 225.403 -4.86146 -3.69451 0
M  V30 2440 H 226.817 -5.52706 -1.52279 0
M  V30 2441 H 225.214 -5.94073 -0.848357 0
M  V30 2442 H 226.284 -4.84875 0.0492434 0
M  V30 2443 N 227.627 0.131896 -1.57047 0
M  V30 2444 C 228.537 1.1815 -2.02676 0
M  V30 2445 C 229.553 1.46113 -0.944824 0
M  V30 2446 O 230.729 1.57485 -1.25541 0
M  V30 2447 C 227.794 2.49139 -2.41103 0
M  V30 2448 C 226.855 2.28688 -3.63318 0
M  V30 2449 C 226.088 3.53431 -3.99903 0
M  V30 2450 O 226.311 4.60223 -3.36973 0
M  V30 2451 O 225.245 3.45198 -4.93074 0
M  V30 2452 H 229.071 0.824069 -2.92306 0
M  V30 2453 H 226.656 0.341745 -1.45439 0
M  V30 2454 H 228.538 3.26338 -2.66611 0
M  V30 2455 H 227.213 2.84382 -1.54624 0
M  V30 2456 H 226.12 1.4939 -3.42977 0
M  V30 2457 H 227.453 1.98355 -4.50462 0
M  V30 2458 N 229.106 1.52395 0.401703 0
M  V30 2459 C 230.331 1.70972 1.17403 0
M  V30 2460 C 230.756 0.421615 1.83314 0
M  V30 2461 O 230.114 -0.621564 1.70312 0
M  V30 2462 C 230.162 2.85151 2.20728 0
M  V30 2463 O 229.266 2.51238 3.27037 0
M  V30 2464 H 228.607 0.568927 0.342372 0
M  V30 2465 H 231.137 1.99131 0.469891 0
M  V30 2466 H 231.147 3.10279 2.64936 0
M  V30 2467 H 229.822 3.78603 1.7214 0
M  V30 2468 H 228.399 2.36808 2.88057 0
M  V30 2469 N 230.584 -0.659388 1.43143 0
M  V30 2470 C 231.534 -1.7655 1.44271 0
M  V30 2471 C 232.518 -1.57847 0.311961 0
M  V30 2472 O 233.71 -1.68064 0.555306 0
M  V30 2473 C 230.839 -3.15104 1.36251 0
M  V30 2474 C 229.925 -3.39377 2.54331 0
M  V30 2475 N 230.316 -3.34153 3.79704 0
M  V30 2476 C 228.614 -3.70072 2.48922 0
M  V30 2477 C 229.315 -3.58337 4.58225 0
M  V30 2478 N 228.291 -3.79851 3.88863 0
M  V30 2479 H 232.093 -1.70928 2.39083 0
M  V30 2480 H 229.607 -0.860823 1.37708 0
M  V30 2481 H 231.604 -3.94389 1.35141 0
M  V30 2482 H 230.264 -3.21913 0.424531 0
M  V30 2483 H 231.275 -3.13704 4.1208 0
M  V30 2484 H 227.952 -3.84034 1.63781 0
M  V30 2485 H 229.342 -3.60129 5.67236 0
M  V30 2486 N 232.062 -1.29571 -0.897171 0
M  V30 2487 C 232.992 -1.17473 -2.01798 0
M  V30 2488 C 233.973 -0.068323 -1.69963 0
M  V30 2489 O 235.158 -0.248239 -1.92607 0
M  V30 2490 C 232.288 -0.853099 -3.36659 0
M  V30 2491 C 231.242 -1.9161 -3.82713 0
M  V30 2492 C 230.568 -1.44773 -5.14728 0
M  V30 2493 C 231.868 -3.32535 -4.02763 0
M  V30 2494 H 233.562 -2.11237 -2.12177 0
M  V30 2495 H 231.108 -1.01699 -1.01948 0
M  V30 2496 H 233.061 -0.755165 -4.14578 0
M  V30 2497 H 231.785 0.120236 -3.26379 0
M  V30 2498 H 230.444 -2.00346 -3.07013 0
M  V30 2499 H 230.092 -0.462995 -5.00865 0
M  V30 2500 H 229.792 -2.15865 -5.46513 0
M  V30 2501 H 231.316 -1.36334 -5.95185 0
M  V30 2502 H 232.73 -3.26626 -4.71156 0
M  V30 2503 H 231.127 -4.01607 -4.45905 0
M  V30 2504 H 232.197 -3.75326 -3.07016 0
M  V30 2505 N 233.54 1.10788 -1.12088 0
M  V30 2506 C 234.503 2.15207 -0.788577 0
M  V30 2507 C 235.503 1.59609 0.195317 0
M  V30 2508 O 236.693 1.74174 -0.0300193 0
M  V30 2509 C 233.825 3.4047 -0.171174 0
M  V30 2510 H 235.018 2.46116 -1.71368 0
M  V30 2511 H 232.571 1.26089 -0.923652 0
M  V30 2512 H 233.306 3.15176 0.763832 0
M  V30 2513 H 233.091 3.82109 -0.879514 0
M  V30 2514 H 234.581 4.17576 0.04496 0
M  V30 2515 N 235.018 0.912232 1.28515 0
M  V30 2516 C 235.928 0.404506 2.31086 0
M  V30 2517 C 236.944 -0.50707 1.66448 0
M  V30 2518 O 238.12 -0.393624 1.97516 0
M  V30 2519 C 235.185 -0.348572 3.44943 0
M  V30 2520 C 234.246 0.59604 4.25142 0
M  V30 2521 C 233.479 -0.121194 5.33562 0
M  V30 2522 O 233.702 -1.34317 5.5436 0
M  V30 2523 O 232.636 0.542716 5.99448 0
M  V30 2524 H 236.462 1.25579 2.76521 0
M  V30 2525 H 234.047 0.676998 1.33181 0
M  V30 2526 H 235.929 -0.77395 4.14232 0
M  V30 2527 H 234.604 -1.17571 3.01594 0
M  V30 2528 H 233.511 1.07079 3.58448 0
M  V30 2529 H 234.844 1.38995 4.72167 0
M  V30 2530 N 236.496 -1.42363 0.676048 0
M  V30 2531 C 237.443 -2.308 -0.00150904 0
M  V30 2532 C 238.413 -1.46032 -0.791444 0
M  V30 2533 O 239.598 -1.74861 -0.76344 0
M  V30 2534 C 236.738 -3.31883 -0.945919 0
M  V30 2535 C 235.851 -4.31741 -0.149675 0
M  V30 2536 C 234.986 -5.19898 -1.08995 0
M  V30 2537 C 234.025 -6.11434 -0.285465 0
M  V30 2538 N 233.162 -6.92138 -1.17851 0
M  V30 2539 H 238.002 -2.88187 0.758455 0
M  V30 2540 H 235.539 -1.41952 0.38576 0
M  V30 2541 H 237.497 -3.89019 -1.50731 0
M  V30 2542 H 236.127 -2.76093 -1.6725 0
M  V30 2543 H 235.179 -3.76713 0.528359 0
M  V30 2544 H 236.491 -4.96534 0.474866 0
M  V30 2545 H 235.645 -5.81772 -1.72123 0
M  V30 2546 H 234.384 -4.55284 -1.74837 0
M  V30 2547 H 233.389 -5.48627 0.359018 0
M  V30 2548 H 234.614 -6.78097 0.368883 0
M  V30 2549 H 232.56 -6.30152 -1.82332 0
M  V30 2550 H 232.477 -7.53542 -0.609082 0
M  V30 2551 H 233.745 -7.58499 -1.79722 0
M  V30 2552 N 237.974 -0.419461 -1.51915 0
M  V30 2553 C 239.222 0.152637 -2.01523 0
M  V30 2554 C 239.543 1.44762 -1.30649 0
M  V30 2555 O 238.813 1.90997 -0.435535 0
M  V30 2556 H 237.393 0.0593966 -0.744635 0
M  V30 2557 H 240.055 -0.558073 -1.86739 0
M  V30 2558 H 239.151 0.341369 -3.10227 0
M  V30 2559 N 239.452 1.56882 -0.150215 0
M  V30 2560 C 240.868 1.58263 0.20617 0
M  V30 2561 C 241.068 1.16464 1.64434 0
M  V30 2562 O 240.124 0.866422 2.3717 0
M  V30 2563 C 241.437 3.00649 -0.0555025 0
M  V30 2564 C 242.985 3.12999 0.00795388 0
M  V30 2565 C 243.46 4.5744 -0.226429 0
M  V30 2566 N 244.951 4.62875 -0.173469 0
M  V30 2567 C 245.686 5.72454 -0.329288 0
M  V30 2568 N 245.182 6.90669 -0.543005 0
M  V30 2569 N 246.975 5.61467 -0.266666 0
M  V30 2570 H 239.126 1.82345 -1.08922 0
M  V30 2571 H 241.389 0.844149 -0.431413 0
M  V30 2572 H 241.095 3.3563 -1.05096 0
M  V30 2573 H 240.969 3.71337 0.66246 0
M  V30 2574 H 243.356 2.77857 0.993966 0
M  V30 2575 H 243.437 2.4479 -0.742388 0
M  V30 2576 H 243.081 4.93287 -1.20956 0
M  V30 2577 H 243.011 5.2378 0.544274 0
M  V30 2578 H 245.502 3.77898 -0.0130709 0
M  V30 2579 H 245.815 7.70045 -0.651922 0
M  V30 2580 H 244.16 6.92581 -0.579366 0
M  V30 2581 H 247.351 4.67992 -0.100441 0
M  V30 2582 H 247.524 6.46816 -0.391535 0
M  V30 2583 N 240.93 -0.123565 1.57115 0
M  V30 2584 C 242.178 -0.83051 1.84247 0
M  V30 2585 C 242.499 -1.80629 0.73471 0
M  V30 2586 O 241.769 -1.94403 -0.241688 0
M  V30 2587 H 240.349 -0.309694 0.679778 0
M  V30 2588 H 243.011 -0.111976 1.94578 0
M  V30 2589 H 242.107 -1.37852 2.80006 0
M  V30 2590 N 242.408 -1.52605 -0.393616 0
M  V30 2591 C 243.341 -1.71798 -1.50202 0
M  V30 2592 C 244.319 -0.565743 -1.52441 0
M  V30 2593 O 245.503 -0.794987 -1.70916 0
M  V30 2594 C 242.63 -1.7714 -2.88685 0
M  V30 2595 C 241.676 -2.98845 -3.04292 0
M  V30 2596 S 242.509 -4.58909 -2.75976 0
M  V30 2597 C 243.665 -4.6706 -4.1666 0
M  V30 2598 H 243.898 -2.65542 -1.33696 0
M  V30 2599 H 241.431 -1.42839 -0.586195 0
M  V30 2600 H 243.389 -1.80903 -3.68489 0
M  V30 2601 H 242.05 -0.844969 -3.02521 0
M  V30 2602 H 241.243 -2.99111 -4.05646 0
M  V30 2603 H 240.845 -2.9305 -2.32374 0
M  V30 2604 H 243.137 -4.45391 -5.10523 0
M  V30 2605 H 244.08 -5.6905 -4.21412 0
M  V30 2606 H 244.488 -3.95944 -4.02354 0
M  V30 2607 N 243.887 0.651787 -1.4349 0
M  V30 2608 C 244.797 1.79368 -1.5121 0
M  V30 2609 C 245.813 1.69361 -0.399093 0
M  V30 2610 O 246.989 1.90505 -0.653431 0
M  V30 2611 C 244.054 3.15653 -1.43401 0
M  V30 2612 C 243.115 3.37446 -2.65384 0
M  V30 2613 C 242.348 4.67229 -2.57939 0
M  V30 2614 O 242.571 5.46676 -1.62792 0
M  V30 2615 O 241.505 4.90773 -3.48462 0
M  V30 2616 H 245.331 1.7581 -2.47638 0
M  V30 2617 H 242.916 0.810447 -1.25507 0
M  V30 2618 H 244.798 3.96935 -1.41494 0
M  V30 2619 H 243.473 3.19798 -0.501085 0
M  V30 2620 H 242.38 2.55923 -2.72863 0
M  V30 2621 H 243.713 3.38148 -3.57654 0
M  V30 2622 N 245.365 1.30045 0.890287 0
M  V30 2623 C 246.295 1.18541 2.01172 0
M  V30 2624 C 247.276 0.0773356 1.69924 0
M  V30 2625 O 248.461 0.25845 1.92473 0
M  V30 2626 C 245.591 0.870941 3.36202 0
M  V30 2627 C 244.545 1.93637 3.81692 0
M  V30 2628 C 243.871 1.475 5.13953 0
M  V30 2629 C 245.171 3.34666 4.00994 0
M  V30 2630 H 246.865 2.12359 2.11054 0
M  V30 2631 H 244.411 1.02238 1.01407 0
M  V30 2632 H 246.364 0.777141 4.14172 0
M  V30 2633 H 245.088 -0.102926 3.26438 0
M  V30 2634 H 243.747 2.01972 3.05946 0
M  V30 2635 H 243.395 0.489551 5.00612 0
M  V30 2636 H 243.095 2.1876 5.4536 0
M  V30 2637 H 244.619 1.39489 5.94454 0
M  V30 2638 H 246.033 3.2912 4.69417 0
M  V30 2639 H 244.43 4.03966 4.43769 0
M  V30 2640 H 245.5 3.76949 3.05021 0
M  V30 2641 N 246.843 -1.10192 1.12674 0
M  V30 2642 C 248.068 -1.86523 0.906853 0
M  V30 2643 C 248.493 -1.80221 -0.538711 0
M  V30 2644 O 247.851 -1.17396 -1.38158 0
M  V30 2645 C 247.899 -3.32758 1.3894 0
M  V30 2646 O 247.003 -4.08449 0.5695 0
M  V30 2647 H 246.344 -0.578678 0.325619 0
M  V30 2648 H 248.874 -1.39203 1.49946 0
M  V30 2649 H 248.884 -3.83608 1.38958 0
M  V30 2650 H 247.559 -3.36661 2.44197 0
M  V30 2651 H 246.136 -3.67427 0.636528 0
M  V30 2652 N 248.321 -0.919034 -1.28029 0
M  V30 2653 C 249.598 -0.473668 -1.89778 0
M  V30 2654 C 249.978 1.04783 -1.83259 0
M  V30 2655 O 249.326 1.8982 -1.27202 0
M  V30 2656 C 249.536 -1.00998 -3.34066 0
M  V30 2657 C 250.884 -1.06525 -4.1102 0
M  V30 2658 O 251.908 -0.958996 -3.43048 0
M  V30 2659 O 250.767 -1.22776 -5.3253 0
M  V30 2660 H 247.861 -0.15098 -0.813101 0
M  V30 2661 H 250.407 -1.01016 -1.36359 0
M  V30 2662 H 249.179 -2.05392 -3.33061 0
M  V30 2663 H 248.802 -0.454626 -3.94992 0
M  V30 2664 N 249.799 1.42003 -0.683588 0
M  V30 2665 C 250.729 2.33487 -0.024866 0
M  V30 2666 C 251.71 1.51163 0.779975 0
M  V30 2667 O 252.895 1.79739 0.735362 0
M  V30 2668 C 250.025 3.3487 0.920836 0
M  V30 2669 C 248.979 4.27414 0.223958 0
M  V30 2670 C 248.305 5.19074 1.2832 0
M  V30 2671 C 249.605 5.14445 -0.90242 0
M  V30 2672 H 251.299 2.88819 -0.788921 0
M  V30 2673 H 248.845 1.38873 -0.38083 0
M  V30 2674 H 250.798 3.97787 1.39081 0
M  V30 2675 H 249.522 2.77861 1.71642 0
M  V30 2676 H 248.181 3.65904 -0.225864 0
M  V30 2677 H 247.829 4.58387 2.071 0
M  V30 2678 H 247.529 5.81822 0.821995 0
M  V30 2679 H 249.053 5.84867 1.75392 0
M  V30 2680 H 250.467 5.70998 -0.513272 0
M  V30 2681 H 248.864 5.86072 -1.28997 0
M  V30 2682 H 249.934 4.52322 -1.74737 0
M  V30 2683 N 251.277 0.427512 1.51691 0
M  V30 2684 C 252.526 -0.143679 2.01188 0
M  V30 2685 C 252.839 -1.44642 1.31674 0
M  V30 2686 O 254.045 -2.09997 1.72086 0
M  V30 2687 C 252.501 -0.306602 3.58592 0
M  V30 2688 C 252.109 0.985125 4.37035 0
M  V30 2689 C 253.853 -0.832091 4.16265 0
M  V30 2690 C 251.76 0.788382 5.86122 0
M  V30 2691 H 250.69 -0.0574701 0.751807 0
M  V30 2692 H 253.341 0.555772 1.74881 0
M  V30 2693 H 251.723 -1.06882 3.81303 0
M  V30 2694 H 252.897 1.75492 4.26074 0
M  V30 2695 H 251.212 1.4384 3.90767 0
M  V30 2696 H 253.809 -0.995617 5.25349 0
M  V30 2697 H 254.152 -1.81186 3.74803 0
M  V30 2698 H 254.685 -0.128444 3.97593 0
M  V30 2699 H 251.424 1.74025 6.31978 0
M  V30 2700 H 250.944 0.0582143 5.99772 0
M  V30 2701 H 252.623 0.437722 6.45518 0
M  V30 2702 N 252.755 -1.56801 0.158532 0
M  V30 2703 C 254.001 -1.96781 -0.490405 0
M  V30 2704 C 254.334 -1.04397 -1.63753 0
M  V30 2705 O 253.609 -0.0885805 -1.94298 0
M  V30 2706 C 253.892 -3.4635 -0.985594 0
M  V30 2707 C 253.745 -4.49512 0.160824 0
M  V30 2708 C 255.064 -3.98697 -1.86355 0
M  V30 2709 H 252.183 -0.715482 -0.176788 0
M  V30 2710 H 254.825 -1.88451 0.242088 0
M  V30 2711 H 252.975 -3.53579 -1.60978 0
M  V30 2712 H 254.647 -4.54353 0.797537 0
M  V30 2713 H 252.89 -4.26013 0.818256 0
M  V30 2714 H 253.561 -5.51531 -0.227569 0
M  V30 2715 H 256.037 -3.94019 -1.33746 0
M  V30 2716 H 254.913 -5.03792 -2.17909 0
M  V30 2717 H 255.174 -3.41744 -2.8047 0
M  V30 2718 N 254.233 0.115231 -1.57178 0
M  V30 2719 C 255.48 0.822351 -1.8505 0
M  V30 2720 C 255.808 1.79701 -0.744168 0
M  V30 2721 O 255.063 1.93909 0.26414 0
M  V30 2722 C 255.362 1.60324 -3.19423 0
M  V30 2723 C 255.028 0.772536 -4.44233 0
M  V30 2724 C 253.69 0.543468 -4.78121 0
M  V30 2725 C 256.042 0.193746 -5.2084 0
M  V30 2726 C 253.37 -0.274583 -5.86057 0
M  V30 2727 C 255.722 -0.611517 -6.29637 0
M  V30 2728 C 254.386 -0.850867 -6.62055 0
M  V30 2729 H 253.656 0.30092 -0.677147 0
M  V30 2730 H 256.303 0.0845802 -1.91313 0
M  V30 2731 H 254.608 2.41203 -3.08753 0
M  V30 2732 H 256.305 2.1544 -3.38211 0
M  V30 2733 H 252.895 0.96117 -4.17683 0
M  V30 2734 H 257.079 0.357926 -4.95008 0
M  V30 2735 H 252.335 -0.469206 -6.09597 0
M  V30 2736 H 256.509 -1.06697 -6.88178 0
M  V30 2737 H 254.136 -1.48657 -7.45523 0
M  V30 2738 N 255.711 1.52812 0.385517 0
M  V30 2739 C 256.659 1.78482 1.49155 0
M  V30 2740 C 257.653 0.652914 1.56312 0
M  V30 2741 O 258.859 0.835464 1.59436 0
M  V30 2742 H 255.234 0.5648 0.496493 0
M  V30 2743 H 257.205 2.71095 1.24699 0
M  V30 2744 C 255.954 1.97378 2.86247 0
M  V30 2745 H 255.277 2.83907 2.81491 0
M  V30 2746 H 256.717 2.19327 3.62866 0
M  V30 2747 C 255.176 0.74728 3.28508 0
M  V30 2748 O 255.706 -0.0736232 4.01633 0
M  V30 2749 N 253.912 0.576396 2.84826 0
M  V30 2750 H 253.459 1.24555 2.25486 0
M  V30 2751 H 253.417 -0.24288 3.1346 0
M  V30 2752 N 257.189 -0.644168 1.43834 0
M  V30 2753 C 258.437 -1.40117 1.45642 0
M  V30 2754 C 258.758 -1.94814 0.0852413 0
M  V30 2755 O 258.028 -1.74988 -0.880688 0
M  V30 2756 H 256.608 -0.52005 0.536243 0
M  V30 2757 H 259.27 -0.7591 1.7951 0
M  V30 2758 H 258.366 -2.23902 2.17427 0
M  V30 2759 N 258.668 -1.30515 -0.883378 0
M  V30 2760 C 259.615 -1.17032 -1.98927 0
M  V30 2761 C 260.585 -0.0594241 -1.65994 0
M  V30 2762 O 261.77 -0.229895 -1.8941 0
M  V30 2763 C 258.91 -0.869777 -3.33959 0
M  V30 2764 C 258.023 -2.06271 -3.79574 0
M  V30 2765 C 257.158 -1.70011 -5.03259 0
M  V30 2766 C 256.197 -2.8579 -5.41286 0
M  V30 2767 N 255.334 -2.49816 -6.56153 0
M  V30 2768 H 260.174 -2.1164 -2.09792 0
M  V30 2769 H 257.711 -1.05296 -1.02719 0
M  V30 2770 H 259.669 -0.676138 -4.11685 0
M  V30 2771 H 258.299 0.0394332 -3.22776 0
M  V30 2772 H 257.351 -2.36755 -2.97744 0
M  V30 2773 H 258.663 -2.92971 -4.03694 0
M  V30 2774 H 257.817 -1.47032 -5.88614 0
M  V30 2775 H 256.556 -0.804829 -4.81013 0
M  V30 2776 H 255.561 -3.09434 -4.54456 0
M  V30 2777 H 256.786 -3.76008 -5.65504 0
M  V30 2778 H 254.732 -1.62795 -6.35479 0
M  V30 2779 H 254.649 -3.30048 -6.8015 0
M  V30 2780 H 255.917 -2.30197 -7.44735 0
M  V30 2781 N 260.146 1.09593 -1.13257 0
M  V30 2782 C 261.076 2.18214 -0.830946 0
M  V30 2783 C 262.057 1.68812 0.208966 0
M  V30 2784 O 263.242 1.9408 0.0682666 0
M  V30 2785 C 260.372 3.46051 -0.294296 0
M  V30 2786 C 259.326 4.08778 -1.26826 0
M  V30 2787 C 258.652 5.31419 -0.591449 0
M  V30 2788 C 259.952 4.51476 -2.62615 0
M  V30 2789 H 261.646 2.43703 -1.73923 0
M  V30 2790 H 259.192 1.17128 -0.837675 0
M  V30 2791 H 261.145 4.2134 -0.0709606 0
M  V30 2792 H 259.869 3.20079 0.649366 0
M  V30 2793 H 258.528 3.35505 -1.47756 0
M  V30 2794 H 258.176 5.01727 0.357633 0
M  V30 2795 H 257.876 5.74341 -1.24123 0
M  V30 2796 H 259.4 6.09433 -0.377355 0
M  V30 2797 H 260.814 5.17999 -2.45663 0
M  V30 2798 H 259.211 5.05277 -3.23752 0
M  V30 2799 H 260.281 3.63962 -3.20406 0
M  V30 2800 N 261.624 0.925811 1.2754 0
M  V30 2801 C 262.854 0.580666 1.98272 0
M  V30 2802 C 263.262 -0.845207 1.69272 0
M  V30 2803 O 262.605 -1.57306 0.948707 0
M  V30 2804 C 262.667 0.724418 3.52126 0
M  V30 2805 C 262.331 2.12206 4.04744 0
M  V30 2806 C 263.328 3.09604 4.17662 0
M  V30 2807 C 261.013 2.4385 4.39138 0
M  V30 2808 C 263.007 4.36755 4.64246 0
M  V30 2809 C 260.694 3.71237 4.85414 0
M  V30 2810 C 261.692 4.67503 4.97926 0
M  V30 2811 O 261.38 5.92624 5.43187 0
M  V30 2812 H 261.112 0.218987 0.639547 0
M  V30 2813 H 263.666 1.24452 1.63404 0
M  V30 2814 H 261.896 0.0034663 3.867 0
M  V30 2815 H 263.585 0.384607 4.04074 0
M  V30 2816 H 264.351 2.86478 3.91351 0
M  V30 2817 H 260.23 1.69665 4.28643 0
M  V30 2818 H 263.774 5.11898 4.73927 0
M  V30 2819 H 259.671 3.94182 5.11166 0
M  V30 2820 H 260.439 5.95585 5.61445 0
M  V30 2821 N 263.102 -1.41638 0.69111 0
M  V30 2822 C 264.327 -2.06148 0.227583 0
M  V30 2823 C 264.752 -1.51652 -1.11281 0
M  V30 2824 O 264.11 -0.64164 -1.69566 0
M  V30 2825 C 264.158 -3.60095 0.190858 0
M  V30 2826 O 263.262 -4.03845 -0.835664 0
M  V30 2827 H 262.603 -0.654434 0.112306 0
M  V30 2828 H 265.133 -1.81484 0.944714 0
M  V30 2829 H 265.143 -4.07995 0.020207 0
M  V30 2830 H 263.818 -3.99129 1.16915 0
M  V30 2831 H 262.395 -3.67458 -0.63473 0
M  V30 2832 N 264.58 -0.43555 -1.51462 0
M  V30 2833 C 265.826 0.131709 -2.02372 0
M  V30 2834 C 266.159 1.42516 -1.3192 0
M  V30 2835 O 265.434 1.89606 -0.433573 0
M  V30 2836 C 265.717 0.352301 -3.58373 0
M  V30 2837 C 265.57 -0.959676 -4.39443 0
M  V30 2838 C 266.889 1.12286 -4.25535 0
M  V30 2839 H 264.008 0.0463936 -0.735538 0
M  V30 2840 H 266.65 -0.574197 -1.81116 0
M  V30 2841 H 264.8 0.9536 -3.76615 0
M  V30 2842 H 266.472 -1.59482 -4.32855 0
M  V30 2843 H 264.715 -1.56468 -4.04599 0
M  V30 2844 H 265.386 -0.759394 -5.46752 0
M  V30 2845 H 267.862 0.613545 -4.11552 0
M  V30 2846 H 266.738 1.24598 -5.34571 0
M  V30 2847 H 266.999 2.15048 -3.86273 0
M  V30 2848 N 266.058 1.56714 -0.166846 0
M  V30 2849 C 267.335 1.88412 0.525373 0
M  V30 2850 C 267.715 1.07602 1.81618 0
M  V30 2851 O 267.063 0.168621 2.27877 0
M  V30 2852 C 267.273 3.40363 0.771613 0
M  V30 2853 C 268.621 4.10007 1.1036 0
M  V30 2854 O 269.645 3.45655 0.860304 0
M  V30 2855 O 268.504 5.2369 1.56239 0
M  V30 2856 H 265.598 0.781587 0.270278 0
M  V30 2857 H 268.144 1.68458 -0.204946 0
M  V30 2858 H 266.916 3.91046 -0.141093 0
M  V30 2859 H 266.539 3.65914 1.55541 0
M  V30 2860 N 267.536 -0.106894 1.57237 0
M  V30 2861 C 268.813 -0.843526 1.76477 0
M  V30 2862 C 269.193 -1.97499 0.745464 0
M  V30 2863 O 268.541 -2.27357 -0.228306 0
M  V30 2864 C 268.751 -1.34903 3.21873 0
M  V30 2865 C 270.099 -1.79654 3.8472 0
M  V30 2866 O 271.123 -1.44554 3.2555 0
M  V30 2867 O 269.982 -2.44515 4.88748 0
M  V30 2868 H 267.076 -0.401468 0.723016 0
M  V30 2869 H 269.622 -0.0896927 1.69463 0
M  V30 2870 H 268.394 -0.53781 3.87586 0
M  V30 2871 H 268.017 -2.16522 3.33473 0
M  V30 2872 N 269.014 -1.53014 -0.377408 0
M  V30 2873 C 270.43 -1.42523 -0.718281 0
M  V30 2874 C 270.63 -0.55487 -1.9371 0
M  V30 2875 O 269.686 -0.0327593 -2.52479 0
M  V30 2876 C 270.999 -2.85546 -0.942539 0
M  V30 2877 C 272.547 -2.95101 -1.04329 0
M  V30 2878 C 273.022 -4.3916 -1.3001 0
M  V30 2879 N 274.513 -4.42536 -1.36806 0
M  V30 2880 C 275.248 -5.51097 -1.58364 0
M  V30 2881 N 274.744 -6.69724 -1.77317 0
M  V30 2882 N 276.537 -5.38657 -1.60638 0
M  V30 2883 H 268.688 -2.08116 0.424426 0
M  V30 2884 H 270.951 -0.939352 0.127759 0
M  V30 2885 H 270.657 -3.51499 -0.118929 0
M  V30 2886 H 270.531 -3.28493 -1.85397 0
M  V30 2887 H 272.918 -2.29309 -1.85745 0
M  V30 2888 H 272.999 -2.55566 -0.109505 0
M  V30 2889 H 272.643 -5.05521 -0.490991 0
M  V30 2890 H 272.573 -4.76258 -2.24691 0
M  V30 2891 H 275.064 -3.57039 -1.23821 0
M  V30 2892 H 275.377 -7.48233 -1.93306 0
M  V30 2893 H 273.722 -6.72732 -1.74518 0
M  V30 2894 H 276.913 -4.44948 -1.45391 0
M  V30 2895 H 277.086 -6.2333 -1.77098 0
M  V30 2896 N 270.492 0.636531 -1.44174 0
M  V30 2897 C 271.72 1.42353 -1.50144 0
M  V30 2898 C 272.135 1.88389 -0.124575 0
M  V30 2899 O 271.492 1.6051 0.868489 0
M  V30 2900 C 271.543 2.64744 -2.46156 0
M  V30 2901 O 271.264 2.20629 -3.7849 0
M  V30 2902 C 272.765 3.57929 -2.61537 0
M  V30 2903 H 269.985 0.436752 -0.5094 0
M  V30 2904 H 272.529 0.778933 -1.89084 0
M  V30 2905 H 270.684 3.25307 -2.10366 0
M  V30 2906 H 271.098 2.99938 -4.30276 0
M  V30 2907 H 272.572 4.40428 -3.32757 0
M  V30 2908 H 273.049 4.06382 -1.66585 0
M  V30 2909 H 273.655 3.03238 -2.98206 0
M  V30 2910 N 271.97 1.30982 0.876444 0
M  V30 2911 C 273.218 1.20058 1.62575 0
M  V30 2912 C 273.539 -0.242947 1.93481 0
M  V30 2913 O 272.809 -1.1619 1.57724 0
M  V30 2914 H 271.389 0.44135 0.602677 0
M  V30 2915 H 274.051 1.64222 1.04962 0
M  V30 2916 H 273.147 1.76762 2.57219 0
M  V30 2917 N 273.449 -1.08991 1.13837 0
M  V30 2918 C 274.695 -1.81526 0.90422 0
M  V30 2919 C 275.028 -1.85706 -0.568066 0
M  V30 2920 O 274.303 -1.32855 -1.42056 0
M  V30 2921 C 274.586 -3.27447 1.49835 0
M  V30 2922 C 274.439 -3.31512 3.04006 0
M  V30 2923 C 275.758 -4.24256 1.17025 0
M  V30 2924 H 272.877 -0.659029 0.329923 0
M  V30 2925 H 275.519 -1.27644 1.40737 0
M  V30 2926 H 273.669 -3.73462 1.07044 0
M  V30 2927 H 275.341 -2.93867 3.55584 0
M  V30 2928 H 273.584 -2.70963 3.38765 0
M  V30 2929 H 274.255 -4.34329 3.40679 0
M  V30 2930 H 276.731 -3.86549 1.54009 0
M  V30 2931 H 275.607 -5.24684 1.61237 0
M  V30 2932 H 275.868 -4.42019 0.0846274 0
M  V30 2933 N 274.927 -0.932562 -1.27047 0
M  V30 2934 C 276.173 -0.576412 -1.94436 0
M  V30 2935 C 276.506 0.880891 -1.73072 0
M  V30 2936 O 275.781 1.62905 -1.06264 0
M  V30 2937 C 276.064 -0.909031 -3.48437 0
M  V30 2938 C 275.917 -2.42044 -3.79123 0
M  V30 2939 C 277.236 -0.418341 -4.38107 0
M  V30 2940 H 274.355 -0.210888 -0.706184 0
M  V30 2941 H 276.997 -1.16522 -1.50075 0
M  V30 2942 H 275.147 -0.407947 -3.86352 0
M  V30 2943 H 276.819 -2.99359 -3.50973 0
M  V30 2944 H 275.062 -2.86758 -3.25503 0
M  V30 2945 H 275.733 -2.6037 -4.86736 0
M  V30 2946 H 278.209 -0.847856 -4.0737 0
M  V30 2947 H 277.085 -0.679981 -5.44672 0
M  V30 2948 H 277.346 0.681642 -4.36814 0
M  V30 2949 N 276.405 1.4127 -0.698611 0
M  V30 2950 C 277.635 2.05205 -0.239644 0
M  V30 2951 C 278.043 1.52684 1.11733 0
M  V30 2952 O 277.386 0.671222 1.70998 0
M  V30 2953 C 277.448 3.59289 -0.123126 0
M  V30 2954 C 277.112 4.34619 -1.41263 0
M  V30 2955 C 278.109 4.63701 -2.35111 0
M  V30 2956 C 275.794 4.73837 -1.66684 0
M  V30 2957 C 277.788 5.30966 -3.52639 0
M  V30 2958 C 275.475 5.40837 -2.84498 0
M  V30 2959 C 276.473 5.69329 -3.77298 0
M  V30 2960 O 276.161 6.34949 -4.93047 0
M  V30 2961 H 275.893 0.66723 -0.108537 0
M  V30 2962 H 278.447 1.81974 -0.952602 0
M  V30 2963 H 276.677 3.81272 0.645628 0
M  V30 2964 H 278.366 4.04797 0.299056 0
M  V30 2965 H 279.132 4.33882 -2.16729 0
M  V30 2966 H 275.011 4.51039 -0.953135 0
M  V30 2967 H 278.555 5.53121 -4.25091 0
M  V30 2968 H 274.452 5.70075 -3.02795 0
M  V30 2969 H 275.22 6.53445 -4.92902 0
M  V30 2970 N 277.883 0.443576 1.51229 0
M  V30 2971 C 278.815 -0.400608 2.25672 0
M  V30 2972 C 279.828 -0.980945 1.29928 0
M  V30 2973 O 281.017 -0.874024 1.55638 0
M  V30 2974 C 278.117 -1.57304 3.00181 0
M  V30 2975 C 277.29 -1.11046 4.23069 0
M  V30 2976 C 276.349 -2.15374 4.80105 0
M  V30 2977 O 275.375 -1.74554 5.41774 0
M  V30 2978 N 276.577 -3.47922 4.64683 0
M  V30 2979 H 279.342 0.23745 2.98758 0
M  V30 2980 H 276.903 0.272809 1.59585 0
M  V30 2981 H 278.895 -2.26733 3.35223 0
M  V30 2982 H 277.465 -2.11632 2.30066 0
M  V30 2983 H 276.685 -0.243019 3.9345 0
M  V30 2984 H 277.973 -0.778888 5.02803 0
M  V30 2985 H 277.371 -3.83815 4.15575 0
M  V30 2986 H 275.928 -4.13228 5.0407 0
M  V30 2987 N 279.361 -1.56624 0.175154 0
M  V30 2988 C 280.61 -1.96173 -0.468921 0
M  V30 2989 C 280.923 -1.06401 -1.64128 0
M  V30 2990 O 282.129 -1.35648 -2.35185 0
M  V30 2991 C 280.585 -3.48833 -0.885633 0
M  V30 2992 C 280.193 -4.47237 0.261343 0
M  V30 2993 C 281.937 -3.97194 -1.49791 0
M  V30 2994 C 279.844 -5.9114 -0.175214 0
M  V30 2995 H 278.774 -0.732455 -0.178958 0
M  V30 2996 H 281.425 -1.81591 0.263997 0
M  V30 2997 H 279.807 -3.58848 -1.67464 0
M  V30 2998 H 280.981 -4.4894 1.03871 0
M  V30 2999 H 279.296 -4.08956 0.783827 0
M  V30 3000 H 281.893 -5.02167 -1.83665 0
M  V30 3001 H 282.236 -3.40351 -2.39722 0
M  V30 3002 H 282.769 -3.90212 -0.773267 0
M  V30 3003 H 279.508 -6.51865 0.689414 0
M  V30 3004 H 279.028 -5.92735 -0.91786 0
M  V30 3005 H 280.707 -6.44044 -0.617792 0
M  V30 3006 N 280.839 0.0985539 -1.57292 0
M  V30 3007 C 281.749 1.13824 -2.05137 0
M  V30 3008 C 282.765 1.44076 -0.975604 0
M  V30 3009 O 283.941 1.54786 -1.28853 0
M  V30 3010 C 281.006 2.43969 -2.46333 0
M  V30 3011 C 280.067 2.2093 -3.68087 0
M  V30 3012 C 279.3 3.44869 -4.0731 0
M  V30 3013 O 279.523 4.52972 -3.46659 0
M  V30 3014 O 278.457 3.34661 -5.00285 0
M  V30 3015 H 282.283 0.761881 -2.93988 0
M  V30 3016 H 279.868 0.310818 -1.46131 0
M  V30 3017 H 281.75 3.20609 -2.73473 0
M  V30 3018 H 280.425 2.81038 -1.60621 0
M  V30 3019 H 279.332 1.42081 -3.46069 0
M  V30 3020 H 280.665 1.88755 -4.54568 0
M  V30 3021 N 282.317 1.53212 0.369288 0
M  V30 3022 C 283.565 1.68881 1.11012 0
M  V30 3023 C 283.886 0.441285 1.89941 0
M  V30 3024 O 283.156 -0.544623 1.88177 0
M  V30 3025 H 281.736 0.622569 0.412816 0
M  V30 3026 H 284.398 1.90391 0.416802 0
M  V30 3027 H 283.494 2.54822 1.80201 0
M  V30 3028 N 283.795 -0.628877 1.44509 0
M  V30 3029 C 285.02 -1.42048 1.5112 0
M  V30 3030 C 285.445 -1.87594 0.137818 0
M  V30 3031 O 284.803 -1.58873 -0.873437 0
M  V30 3032 C 284.851 -2.61541 2.48251 0
M  V30 3033 O 283.955 -3.61453 1.98559 0
M  V30 3034 H 283.296 -0.424942 0.510216 0
M  V30 3035 H 285.826 -0.767374 1.89664 0
M  V30 3036 H 285.836 -3.09057 2.66361 0
M  V30 3037 H 284.511 -2.27736 3.48007 0
M  V30 3038 H 283.088 -3.20731 1.90227 0
M  V30 3039 N 285.273 -1.31445 -0.869486 0
M  V30 3040 C 286.22 -1.19135 -1.97675 0
M  V30 3041 C 287.19 -0.0770266 -1.65921 0
M  V30 3042 O 288.375 -0.249972 -1.89155 0
M  V30 3043 C 285.515 -0.905149 -3.33018 0
M  V30 3044 C 284.628 -2.10285 -3.77365 0
M  V30 3045 C 283.763 -1.75339 -5.01427 0
M  V30 3046 C 282.802 -2.91515 -5.38224 0
M  V30 3047 N 281.939 -2.56762 -6.53466 0
M  V30 3048 H 286.779 -2.13853 -2.07535 0
M  V30 3049 H 284.316 -1.06379 -1.01597 0
M  V30 3050 H 286.274 -0.719765 -4.10944 0
M  V30 3051 H 284.904 0.00519624 -3.228 0
M  V30 3052 H 283.956 -2.39899 -2.95216 0
M  V30 3053 H 285.268 -2.97237 -4.00564 0
M  V30 3054 H 284.422 -1.53266 -5.87022 0
M  V30 3055 H 283.161 -0.855801 -4.80133 0
M  V30 3056 H 282.166 -3.14237 -4.51149 0
M  V30 3057 H 283.391 -3.81985 -5.61484 0
M  V30 3058 H 281.337 -1.69526 -6.33717 0
M  V30 3059 H 281.254 -3.37243 -6.76612 0
M  V30 3060 H 282.522 -2.38083 -7.42251 0
M  V30 3061 N 286.751 1.08385 -1.14413 0
M  V30 3062 C 287.714 2.13486 -0.834048 0
M  V30 3063 C 288.714 1.59988 0.161418 0
M  V30 3064 O 289.904 1.74071 -0.0669575 0
M  V30 3065 C 287.036 3.4003 -0.243354 0
M  V30 3066 H 288.229 2.42425 -1.7655 0
M  V30 3067 H 285.782 1.24101 -0.950189 0
M  V30 3068 H 286.517 3.16726 0.696807 0
M  V30 3069 H 286.302 3.80157 -0.960367 0
M  V30 3070 H 287.792 4.17577 -0.0436242 0
M  V30 3071 N 288.23 0.939286 1.26551 0
M  V30 3072 C 289.476 0.586715 1.94128 0
M  V30 3073 C 289.809 -0.8717 1.73537 0
M  V30 3074 O 289.084 -1.62339 1.07127 0
M  V30 3075 C 289.367 0.927497 3.4795 0
M  V30 3076 C 289.22 2.44052 3.77834 0
M  V30 3077 C 290.539 0.441569 4.37879 0
M  V30 3078 H 287.658 0.21463 0.705055 0
M  V30 3079 H 290.3 1.17316 1.49455 0
M  V30 3080 H 288.45 0.428431 3.8613 0
M  V30 3081 H 290.122 3.01216 3.4938 0
M  V30 3082 H 288.365 2.8848 3.23978 0
M  V30 3083 H 289.036 2.62947 4.85348 0
M  V30 3084 H 291.512 0.869448 4.06915 0
M  V30 3085 H 290.388 0.708856 5.44304 0
M  V30 3086 H 290.649 -0.658467 4.37169 0
M  V30 3087 N 289.708 -1.40897 0.706093 0
M  V30 3088 C 291.119 -1.84023 0.315052 0
M  V30 3089 C 291.47 -1.5906 -1.14866 0
M  V30 3090 O 290.595 -1.06651 -1.88293 0
M  V30 3091 C 291.19 -3.34055 0.565038 0
M  V30 3092 C 289.749 -3.7571 0.227806 0
M  V30 3093 C 288.896 -2.64204 0.842122 0
M  V30 3094 H 291.847 -1.303 0.905963 0
M  V30 3095 H 291.868 -3.80107 -0.172843 0
M  V30 3096 H 291.38 -3.52192 1.63042 0
M  V30 3097 H 289.481 -3.63172 -0.832895 0
M  V30 3098 H 289.594 -4.74103 0.690174 0
M  V30 3099 H 287.958 -2.53255 0.270893 0
M  V30 3100 H 288.741 -2.85155 1.91158 0
M  V30 3101 N 291.186 -0.45159 -1.50991 0
M  V30 3102 C 292.432 0.102439 -2.03142 0
M  V30 3103 C 292.787 1.39138 -1.32884 0
M  V30 3104 O 292.08 1.86493 -0.439438 0
M  V30 3105 C 292.274 0.361728 -3.55565 0
M  V30 3106 C 292.103 -0.900535 -4.40591 0
M  V30 3107 C 290.873 -1.43821 -4.844 0
M  V30 3108 C 293.071 -1.79063 -4.82121 0
M  V30 3109 N 291.053 -2.65153 -5.53685 0
M  V30 3110 C 292.424 -2.84991 -5.50618 0
M  V30 3111 C 294.479 -1.80334 -4.64095 0
M  V30 3112 C 293.182 -3.92155 -6.02998 0
M  V30 3113 C 295.208 -2.86442 -5.17402 0
M  V30 3114 C 294.57 -3.9109 -5.85857 0
M  V30 3115 H 290.669 -0.00204537 -0.781997 0
M  V30 3116 H 293.253 -0.615446 -1.84717 0
M  V30 3117 H 291.424 1.04865 -3.73976 0
M  V30 3118 H 293.156 0.908372 -3.94374 0
M  V30 3119 H 289.911 -0.990117 -4.63135 0
M  V30 3120 H 290.335 -3.26717 -5.92946 0
M  V30 3121 H 294.977 -1.00753 -4.1062 0
M  V30 3122 H 292.695 -4.72565 -6.55521 0
M  V30 3123 H 296.281 -2.88386 -5.05297 0
M  V30 3124 H 295.161 -4.71845 -6.26364 0
M  V30 3125 N 292.664 1.56529 -0.183458 0
M  V30 3126 C 293.91 1.97537 0.459036 0
M  V30 3127 C 294.243 1.06989 1.62071 0
M  V30 3128 O 293.518 0.11948 1.94133 0
M  V30 3129 C 293.801 3.47874 0.930368 0
M  V30 3130 C 293.654 4.492 -0.232317 0
M  V30 3131 C 294.973 4.01612 1.79989 0
M  V30 3132 H 292.092 0.718204 0.165383 0
M  V30 3133 H 294.734 1.88042 -0.272038 0
M  V30 3134 H 292.884 3.56095 1.55333 0
M  V30 3135 H 294.556 4.53027 -0.86972 0
M  V30 3136 H 292.799 4.24657 -0.885928 0
M  V30 3137 H 293.47 5.51823 0.139796 0
M  V30 3138 H 295.946 3.96097 1.27461 0
M  V30 3139 H 294.822 5.07195 2.09867 0
M  V30 3140 H 295.083 3.46163 2.74998 0
M  V30 3141 N 294.142 -0.090211 1.57342 0
M  V30 3142 C 295.391 -0.791531 1.8552 0
M  V30 3143 C 295.704 -1.79659 0.773441 0
M  V30 3144 O 296.91 -2.54616 0.942497 0
M  V30 3145 C 295.366 -1.45856 3.2902 0
M  V30 3146 C 294.974 -0.493017 4.45279 0
M  V30 3147 C 296.718 -2.14332 3.66418 0
M  V30 3148 C 294.625 -1.16491 5.79814 0
M  V30 3149 H 293.555 -0.299356 0.692027 0
M  V30 3150 H 296.206 -0.0445343 1.83446 0
M  V30 3151 H 294.588 -2.25318 3.2565 0
M  V30 3152 H 295.762 0.270464 4.60006 0
M  V30 3153 H 294.077 0.0863061 4.16311 0
M  V30 3154 H 296.674 -2.65344 4.64216 0
M  V30 3155 H 297.017 -2.93447 2.95287 0
M  V30 3156 H 297.55 -1.41724 3.71698 0
M  V30 3157 H 294.289 -0.41447 6.54188 0
M  V30 3158 H 293.809 -1.8997 5.68921 0
M  V30 3159 H 295.488 -1.69001 6.24538 0
M  V30 3160 N 295.62 -1.53406 -0.361157 0
M  V30 3161 C 296.55 -1.83136 -1.44857 0
M  V30 3162 C 297.531 -0.685174 -1.5569 0
M  V30 3163 O 298.716 -0.93544 -1.70186 0
M  V30 3164 C 295.846 -2.02522 -2.82138 0
M  V30 3165 C 294.8 -3.18302 -2.86126 0
M  V30 3166 C 294.126 -3.22989 -4.26125 0
M  V30 3167 C 295.426 -4.56796 -2.53248 0
M  V30 3168 H 297.12 -2.74201 -1.20226 0
M  V30 3169 H 294.666 -1.31938 -0.576922 0
M  V30 3170 H 296.619 -2.21904 -3.58241 0
M  V30 3171 H 295.343 -1.08172 -3.08166 0
M  V30 3172 H 294.002 -2.98747 -2.12475 0
M  V30 3173 H 293.65 -2.26267 -4.49235 0
M  V30 3174 H 293.35 -4.00781 -4.29708 0
M  V30 3175 H 294.874 -3.44559 -5.04094 0
M  V30 3176 H 296.288 -4.7631 -3.19064 0
M  V30 3177 H 294.685 -5.36862 -2.68141 0
M  V30 3178 H 295.755 -4.61606 -1.48484 0
M  V30 3179 N 297.098 0.621204 -1.44841 0
M  V30 3180 C 298.323 1.41244 -1.51871 0
M  V30 3181 C 298.748 1.87519 -0.147764 0
M  V30 3182 O 298.106 1.59334 0.865 0
M  V30 3183 C 298.154 2.60221 -2.49634 0
M  V30 3184 O 297.258 3.60395 -2.00473 0
M  V30 3185 H 296.599 0.42223 -0.512463 0
M  V30 3186 H 299.129 0.757305 -1.90069 0
M  V30 3187 H 299.139 3.0764 -2.67996 0
M  V30 3188 H 297.814 2.25887 -3.4921 0
M  V30 3189 H 296.391 3.19717 -1.91925 0
M  V30 3190 N 298.576 1.31904 0.862503 0
M  V30 3191 C 299.853 1.12644 1.59908 0
M  V30 3192 C 300.233 -0.316104 2.0872 0
M  V30 3193 O 299.581 -1.31145 1.87118 0
M  V30 3194 C 299.791 2.1472 2.7513 0
M  V30 3195 C 301.139 2.47637 3.44907 0
M  V30 3196 O 302.163 2.13205 2.85346 0
M  V30 3197 O 301.022 3.06632 4.52371 0
M  V30 3198 H 298.116 0.43416 0.703871 0
M  V30 3199 H 300.662 1.43408 0.907314 0
M  V30 3200 H 299.434 3.1172 2.3653 0
M  V30 3201 H 299.057 1.84905 3.51989 0
M  V30 3202 N 300.054 -1.07777 1.14986 0
M  V30 3203 C 301.302 -1.79934 0.920235 0
M  V30 3204 C 301.623 -1.86955 -0.554336 0
M  V30 3205 O 300.893 -1.36731 -1.40291 0
M  V30 3206 H 299.473 -0.666424 0.337473 0
M  V30 3207 H 302.135 -1.3027 1.44968 0
M  V30 3208 H 301.231 -2.82539 1.32583 0
M  V30 3209 N 301.532 -0.945985 -1.26051 0
M  V30 3210 C 302.809 -0.513816 -1.88731 0
M  V30 3211 C 303.189 1.00872 -1.8544 0
M  V30 3212 O 302.537 1.8708 -1.312 0
M  V30 3213 C 302.747 -1.08062 -3.31849 0
M  V30 3214 C 304.095 -1.1522 -4.08668 0
M  V30 3215 O 305.119 -1.03155 -3.40936 0
M  V30 3216 O 303.978 -1.34044 -5.29806 0
M  V30 3217 H 301.072 -0.168193 -0.809716 0
M  V30 3218 H 303.618 -1.03886 -1.34186 0
M  V30 3219 H 302.39 -2.1241 -3.2863 0
M  V30 3220 H 302.013 -0.538307 -3.93939 0
M  V30 3221 N 303.011 1.40521 -0.713556 0
M  V30 3222 C 304.259 2.00527 -0.251692 0
M  V30 3223 C 304.58 1.56857 1.15848 0
M  V30 3224 O 303.85 0.807127 1.785 0
M  V30 3225 H 302.43 0.741551 -0.0900646 0
M  V30 3226 H 305.092 1.71887 -0.918733 0
M  V30 3227 H 304.188 3.10813 -0.283192 0
M  V30 3228 N 304.489 0.459591 1.5075 0
M  V30 3229 C 305.717 -0.0973749 2.06671 0
M  V30 3230 C 306.132 -1.34524 1.32472 0
M  V30 3231 O 305.489 -1.7827 0.390634 0
M  V30 3232 C 305.54 -0.39714 3.59312 0
M  V30 3233 O 305.261 0.801214 4.30711 0
M  V30 3234 C 306.762 -1.00234 4.31819 0
M  V30 3235 H 303.982 0.00195854 0.670997 0
M  V30 3236 H 306.526 0.645072 1.94059 0
M  V30 3237 H 304.681 -1.08951 3.71764 0
M  V30 3238 H 305.095 0.538857 5.21725 0
M  V30 3239 H 306.569 -1.16193 5.39632 0
M  V30 3240 H 307.046 -1.98939 3.91561 0
M  V30 3241 H 307.652 -0.348699 4.23868 0
M  V30 3242 N 305.967 -1.56429 0.191757 0
M  V30 3243 C 307.213 -1.97777 -0.448554 0
M  V30 3244 C 307.546 -1.07847 -1.61501 0
M  V30 3245 O 306.821 -0.129774 -1.94067 0
M  V30 3246 C 307.104 -3.48362 -0.911906 0
M  V30 3247 C 306.957 -4.4907 0.256136 0
M  V30 3248 C 308.276 -4.02561 -1.77857 0
M  V30 3249 H 305.395 -0.719071 -0.161572 0
M  V30 3250 H 308.037 -1.87896 0.282007 0
M  V30 3251 H 306.187 -3.56914 -1.53442 0
M  V30 3252 H 307.859 -4.5256 0.893733 0
M  V30 3253 H 306.102 -4.24181 0.908436 0
M  V30 3254 H 306.773 -5.51889 -0.11053 0
M  V30 3255 H 309.249 -3.96767 -1.25359 0
M  V30 3256 H 308.125 -5.08301 -2.07174 0
M  V30 3257 H 308.386 -3.47616 -2.73158 0
M  V30 3258 N 307.445 0.0818655 -1.57387 0
M  V30 3259 C 308.355 1.11642 -2.06333 0
M  V30 3260 C 309.371 1.43033 -0.99083 0
M  V30 3261 O 310.547 1.53411 -1.30488 0
M  V30 3262 C 307.612 2.41342 -2.48907 0
M  V30 3263 C 306.673 2.17014 -3.7041 0
M  V30 3264 C 305.906 3.4053 -4.10944 0
M  V30 3265 O 306.129 4.4927 -3.51444 0
M  V30 3266 O 305.063 3.29336 -5.03807 0
M  V30 3267 H 308.889 0.730657 -2.9478 0
M  V30 3268 H 306.474 0.295301 -1.46452 0
M  V30 3269 H 308.356 3.17691 -2.76858 0
M  V30 3270 H 307.031 2.79319 -1.63593 0
M  V30 3271 H 305.938 1.38403 -3.47556 0
M  V30 3272 H 307.271 1.83923 -4.56545 0
M  V30 3273 N 308.923 1.53595 0.353017 0
M  V30 3274 C 309.87 1.80919 1.43308 0
M  V30 3275 C 310.84 0.654288 1.5267 0
M  V30 3276 O 312.025 0.897759 1.6836 0
M  V30 3277 C 309.165 2.01605 2.80089 0
M  V30 3278 C 308.278 3.29321 2.79593 0
M  V30 3279 C 307.413 3.40125 4.0803 0
M  V30 3280 C 306.452 4.61826 4.01725 0
M  V30 3281 N 305.589 4.69716 5.21834 0
M  V30 3282 H 310.429 2.73074 1.19308 0
M  V30 3283 H 307.966 1.35263 0.578131 0
M  V30 3284 H 309.924 2.11586 3.59565 0
M  V30 3285 H 308.554 1.12772 3.0246 0
M  V30 3286 H 307.606 3.28229 1.92276 0
M  V30 3287 H 308.918 4.18884 2.70809 0
M  V30 3288 H 308.072 3.49488 4.95927 0
M  V30 3289 H 306.811 2.48601 4.19582 0
M  V30 3290 H 305.816 4.52552 3.12213 0
M  V30 3291 H 307.041 5.54705 3.91764 0
M  V30 3292 H 304.987 3.81097 5.33948 0
M  V30 3293 H 304.904 5.53202 5.1527 0
M  V30 3294 H 306.172 4.83376 6.11529 0
M  V30 3295 N 310.401 -0.613514 1.45168 0
M  V30 3296 C 311.649 -1.36997 1.48581 0
M  V30 3297 C 311.97 -1.94589 0.126545 0
M  V30 3298 O 311.24 -1.76816 -0.843372 0
M  V30 3299 H 309.82 -0.508558 0.547154 0
M  V30 3300 H 312.482 -0.720853 1.81079 0
M  V30 3301 H 311.578 -2.1924 2.22127 0
M  V30 3302 N 311.879 -1.3236 -0.855495 0
M  V30 3303 C 313.126 -1.22872 -1.60962 0
M  V30 3304 C 313.454 0.209658 -1.93367 0
M  V30 3305 O 312.709 1.16243 -1.57436 0
M  V30 3306 C 313.008 -2.03275 -2.93963 0
M  V30 3307 C 312.674 -3.5264 -2.80991 0
M  V30 3308 C 311.336 -3.93364 -2.7716 0
M  V30 3309 C 313.688 -4.47626 -2.66983 0
M  V30 3310 C 311.016 -5.27319 -2.572 0
M  V30 3311 C 313.368 -5.81723 -2.48558 0
M  V30 3312 C 312.032 -6.2165 -2.4312 0
M  V30 3313 H 311.302 -0.44962 -0.589001 0
M  V30 3314 H 313.949 -1.63777 -0.992442 0
M  V30 3315 H 312.254 -1.55095 -3.59795 0
M  V30 3316 H 313.951 -1.93303 -3.51333 0
M  V30 3317 H 310.541 -3.20295 -2.84797 0
M  V30 3318 H 314.725 -4.17084 -2.68988 0
M  V30 3319 H 309.981 -5.57311 -2.51424 0
M  V30 3320 H 314.155 -6.5494 -2.36699 0
M  V30 3321 H 311.782 -7.25388 -2.27412 0
M  V30 3322 N 313.357 1.07166 -1.15556 0
M  V30 3323 C 314.304 2.14417 -0.854055 0
M  V30 3324 C 315.274 1.64965 0.193806 0
M  V30 3325 O 316.459 1.90703 0.0609443 0
M  V30 3326 C 313.599 3.43304 -0.351574 0
M  V30 3327 C 312.712 4.06537 -1.46123 0
M  V30 3328 C 311.847 5.23266 -0.914677 0
M  V30 3329 C 310.886 5.78464 -2.00114 0
M  V30 3330 N 310.023 6.86521 -1.47083 0
M  V30 3331 H 314.863 2.39548 -1.77259 0
M  V30 3332 H 312.4 1.17543 -0.884425 0
M  V30 3333 H 314.358 4.17179 -0.0419409 0
M  V30 3334 H 312.988 3.18419 0.530037 0
M  V30 3335 H 312.04 3.30297 -1.88701 0
M  V30 3336 H 313.352 4.43567 -2.28144 0
M  V30 3337 H 312.506 6.04131 -0.557698 0
M  V30 3338 H 311.245 4.87658 -0.0636583 0
M  V30 3339 H 310.25 4.96243 -2.36692 0
M  V30 3340 H 311.475 6.16126 -2.85597 0
M  V30 3341 H 309.421 6.52849 -0.642198 0
M  V30 3342 H 309.338 7.22446 -2.22729 0
M  V30 3343 H 310.606 7.71087 -1.14215 0
M  V30 3344 N 314.835 0.952656 1.25548 0
M  V30 3345 C 315.798 0.475794 2.24207 0
M  V30 3346 C 316.798 -0.419428 1.55234 0
M  V30 3347 O 317.988 -0.216994 1.72843 0
M  V30 3348 C 315.12 -0.312814 3.39462 0
M  V30 3349 H 316.313 1.34779 2.67908 0
M  V30 3350 H 313.866 0.735739 1.37901 0
M  V30 3351 H 314.601 -1.20257 3.01179 0
M  V30 3352 H 314.386 0.329404 3.90714 0
M  V30 3353 H 315.876 -0.635986 4.12729 0
M  V30 3354 N 316.313 -1.40141 0.720998 0
M  V30 3355 C 317.223 -2.34486 0.0731031 0
M  V30 3356 C 318.239 -1.57587 -0.737723 0
M  V30 3357 O 319.415 -1.89949 -0.669429 0
M  V30 3358 C 316.48 -3.36528 -0.833656 0
M  V30 3359 C 315.541 -4.29298 -0.0121673 0
M  V30 3360 C 314.774 -5.26466 -0.875742 0
M  V30 3361 O 314.997 -5.29745 -2.11485 0
M  V30 3362 O 313.931 -6.01092 -0.31185 0
M  V30 3363 H 317.757 -2.9152 0.851444 0
M  V30 3364 H 315.342 -1.41427 0.481527 0
M  V30 3365 H 317.224 -3.99093 -1.35289 0
M  V30 3366 H 315.899 -2.81899 -1.59105 0
M  V30 3367 H 314.806 -3.70001 0.552262 0
M  V30 3368 H 316.139 -4.87094 0.707129 0
M  V30 3369 N 317.792 -0.46758 -1.50504 0
M  V30 3370 C 319.038 0.0808869 -2.03239 0
M  V30 3371 C 319.393 1.37721 -1.34353 0
M  V30 3372 O 318.686 1.86016 -0.459194 0
M  V30 3373 C 318.88 0.323995 -3.55928 0
M  V30 3374 C 318.709 -0.947215 -4.39611 0
M  V30 3375 C 317.479 -1.48951 -4.82848 0
M  V30 3376 C 319.677 -1.84166 -4.80195 0
M  V30 3377 N 317.659 -2.71011 -5.50842 0
M  V30 3378 C 319.03 -2.90815 -5.47564 0
M  V30 3379 C 321.085 -1.85246 -4.62156 0
M  V30 3380 C 319.788 -3.98529 -5.98805 0
M  V30 3381 C 321.814 -2.91914 -5.14335 0
M  V30 3382 C 321.176 -3.97282 -5.81676 0
M  V30 3383 H 317.275 -0.0103394 -0.781932 0
M  V30 3384 H 319.859 -0.635003 -1.84054 0
M  V30 3385 H 318.03 1.00892 -3.75067 0
M  V30 3386 H 319.762 0.866492 -3.95315 0
M  V30 3387 H 316.517 -1.03918 -4.62058 0
M  V30 3388 H 316.941 -3.32988 -5.89447 0
M  V30 3389 H 321.583 -1.05103 -4.09528 0
M  V30 3390 H 319.301 -4.79491 -6.50472 0
M  V30 3391 H 322.887 -2.93729 -5.0221 0
M  V30 3392 H 321.767 -4.78462 -6.21324 0
M  V30 3393 N 319.27 1.56325 -0.20005 0
M  V30 3394 C 320.2 2.22318 0.713916 0
M  V30 3395 C 321.181 1.18788 1.21752 0
M  V30 3396 O 322.366 1.47309 1.26545 0
M  V30 3397 C 319.496 2.88639 1.93144 0
M  V30 3398 C 318.45 3.98457 1.56255 0
M  V30 3399 C 317.776 4.51967 2.85709 0
M  V30 3400 C 319.076 5.16612 0.768747 0
M  V30 3401 H 320.77 2.98952 0.163755 0
M  V30 3402 H 318.316 1.43792 0.0773219 0
M  V30 3403 H 320.269 3.33491 2.57608 0
M  V30 3404 H 318.993 2.09419 2.50621 0
M  V30 3405 H 317.652 3.54305 0.941471 0
M  V30 3406 H 317.3 3.69503 3.41287 0
M  V30 3407 H 317 5.26071 2.6177 0
M  V30 3408 H 318.524 4.99523 3.51154 0
M  V30 3409 H 319.938 5.57977 1.3166 0
M  V30 3410 H 318.335 5.96812 0.627286 0
M  V30 3411 H 319.405 4.84358 -0.229168 0
M  V30 3412 N 320.748 -0.0735177 1.57428 0
M  V30 3413 C 321.711 -1.07192 2.02589 0
M  V30 3414 C 322.711 -1.31695 0.922661 0
M  V30 3415 O 323.901 -1.27445 1.18758 0
M  V30 3416 C 321.033 -2.41599 2.40506 0
M  V30 3417 H 322.226 -0.682727 2.92025 0
M  V30 3418 H 319.779 -0.319193 1.53006 0
M  V30 3419 H 320.514 -2.85354 1.5409 0
M  V30 3420 H 320.299 -2.25156 3.21009 0
M  V30 3421 H 321.789 -3.13367 2.76027 0
M  V30 3422 N 322.226 -1.5378 -0.344866 0
M  V30 3423 C 323.472 -1.71216 -1.08687 0
M  V30 3424 C 323.805 -0.473281 -1.88345 0
M  V30 3425 O 323.08 0.52968 -1.87149 0
M  V30 3426 C 323.363 -2.97486 -2.02914 0
M  V30 3427 C 323.216 -4.31579 -1.26727 0
M  V30 3428 C 324.535 -3.19422 -3.0275 0
M  V30 3429 H 321.654 -0.62301 -0.393735 0
M  V30 3430 H 324.296 -1.8645 -0.365563 0
M  V30 3431 H 322.446 -2.84629 -2.64421 0
M  V30 3432 H 324.118 -4.56284 -0.67845 0
M  V30 3433 H 322.361 -4.30049 -0.569273 0
M  V30 3434 H 323.032 -5.16106 -1.95803 0
M  V30 3435 H 325.508 -3.316 -2.51357 0
M  V30 3436 H 324.384 -4.09169 -3.65885 0
M  V30 3437 H 324.645 -2.35656 -3.74057 0
M  V30 3438 N 323.704 0.605807 -1.45491 0
M  V30 3439 C 324.651 1.7164 -1.54299 0
M  V30 3440 C 325.621 1.61486 -0.388761 0
M  V30 3441 O 326.806 1.81039 -0.602445 0
M  V30 3442 C 323.946 3.09953 -1.51734 0
M  V30 3443 C 323.059 3.309 -2.77721 0
M  V30 3444 C 322.194 4.59329 -2.66816 0
M  V30 3445 C 321.233 4.7354 -3.87848 0
M  V30 3446 N 320.37 5.9327 -3.75467 0
M  V30 3447 H 325.21 1.63449 -2.49176 0
M  V30 3448 H 322.747 0.796957 -1.23641 0
M  V30 3449 H 324.705 3.89977 -1.48235 0
M  V30 3450 H 323.335 3.17098 -0.604068 0
M  V30 3451 H 322.387 2.44639 -2.913 0
M  V30 3452 H 323.699 3.37274 -3.67488 0
M  V30 3453 H 322.853 5.4755 -2.61292 0
M  V30 3454 H 321.592 4.55355 -1.74651 0
M  V30 3455 H 320.597 3.83741 -3.93729 0
M  V30 3456 H 321.822 4.79309 -4.81082 0
M  V30 3457 H 319.768 5.90338 -2.86072 0
M  V30 3458 H 319.685 6.00811 -4.5887 0
M  V30 3459 H 320.953 6.83984 -3.73879 0
M  V30 3460 N 325.182 1.32811 0.848464 0
M  V30 3461 C 326.459 1.14334 1.58704 0
M  V30 3462 C 326.839 -0.293948 2.09043 0
M  V30 3463 O 326.187 -1.29153 1.88499 0
M  V30 3464 C 326.397 2.17626 2.72837 0
M  V30 3465 C 327.745 2.51282 3.42261 0
M  V30 3466 O 328.769 2.16219 2.83068 0
M  V30 3467 O 327.628 3.11413 4.49093 0
M  V30 3468 H 324.722 0.441601 0.699226 0
M  V30 3469 H 327.268 1.44362 0.892053 0
M  V30 3470 H 326.04 3.14211 2.3321 0
M  V30 3471 H 325.663 1.88628 3.50008 0
M  V30 3472 N 326.66 -1.06551 1.16123 0
M  V30 3473 C 327.57 -2.17484 0.879662 0
M  V30 3474 C 328.586 -1.73377 -0.147104 0
M  V30 3475 O 329.762 -2.01379 0.0289128 0
M  V30 3476 C 326.827 -3.44591 0.381829 0
M  V30 3477 C 325.888 -4.0322 1.4735 0
M  V30 3478 C 325.121 -5.24261 0.999324 0
M  V30 3479 O 325.344 -5.70198 -0.151957 0
M  V30 3480 O 324.278 -5.74775 1.78653 0
M  V30 3481 H 328.104 -2.44075 1.80724 0
M  V30 3482 H 325.689 -1.16042 0.940992 0
M  V30 3483 H 327.571 -4.21254 0.111053 0
M  V30 3484 H 326.246 -3.19532 -0.51777 0
M  V30 3485 H 325.153 -3.2806 1.79798 0
M  V30 3486 H 326.486 -4.32568 2.34831 0
M  V30 3487 N 328.138 -0.959301 -1.25041 0
M  V30 3488 C 329.554 -0.664474 -1.4511 0
M  V30 3489 C 329.754 0.776481 -1.85938 0
M  V30 3490 O 328.81 1.55128 -1.99227 0
M  V30 3491 C 330.123 -1.64139 -2.5195 0
M  V30 3492 C 331.671 -1.65309 -2.65786 0
M  V30 3493 C 332.146 -2.61777 -3.75815 0
M  V30 3494 N 333.637 -2.60169 -3.83231 0
M  V30 3495 C 334.372 -3.31489 -4.6787 0
M  V30 3496 N 333.868 -4.12298 -5.56761 0
M  V30 3497 N 335.661 -3.20354 -4.61876 0
M  V30 3498 H 327.812 -1.89043 -0.968332 0
M  V30 3499 H 330.075 -0.813408 -0.4869 0
M  V30 3500 H 329.781 -2.67086 -2.28819 0
M  V30 3501 H 329.655 -1.40756 -3.49954 0
M  V30 3502 H 332.042 -0.630778 -2.8828 0
M  V30 3503 H 332.123 -1.92753 -1.68167 0
M  V30 3504 H 331.767 -3.64137 -3.54071 0
M  V30 3505 H 331.697 -2.31616 -4.72929 0
M  V30 3506 H 334.188 -2.01507 -3.19692 0
M  V30 3507 H 334.501 -4.63625 -6.18281 0
M  V30 3508 H 332.846 -4.16395 -5.56454 0
M  V30 3509 H 336.037 -2.56692 -3.91442 0
M  V30 3510 H 336.21 -3.76201 -5.27614 0
M  V30 3511 N 329.616 1.39756 -0.72842 0
M  V30 3512 C 330.546 2.33289 -0.0991354 0
M  V30 3513 C 331.527 1.53568 0.731489 0
M  V30 3514 O 332.712 1.81987 0.677807 0
M  V30 3515 C 329.842 3.3763 0.813834 0
M  V30 3516 C 328.796 4.2791 0.0878663 0
M  V30 3517 C 328.122 5.22894 1.11741 0
M  V30 3518 C 329.422 5.11314 -1.06563 0
M  V30 3519 H 331.116 2.86163 -0.880408 0
M  V30 3520 H 328.662 1.37591 -0.424819 0
M  V30 3521 H 330.615 4.0201 1.26355 0
M  V30 3522 H 329.339 2.83181 1.62715 0
M  V30 3523 H 327.998 3.65 -0.342159 0
M  V30 3524 H 327.646 4.64744 1.92412 0
M  V30 3525 H 327.346 5.84143 0.636477 0
M  V30 3526 H 328.87 5.90151 1.56697 0
M  V30 3527 H 330.284 5.69076 -0.694671 0
M  V30 3528 H 328.681 5.81671 -1.47577 0
M  V30 3529 H 329.751 4.46534 -1.89038 0
M  V30 3530 N 331.094 0.475555 1.50254 0
M  V30 3531 C 332.324 -0.0753399 2.06463 0
M  V30 3532 C 332.732 -1.33661 1.33908 0
M  V30 3533 O 332.075 -1.79219 0.403257 0
M  V30 3534 C 332.137 -0.424921 3.5698 0
M  V30 3535 C 331.801 0.734965 4.51051 0
M  V30 3536 C 332.798 1.61827 4.94073 0
M  V30 3537 C 330.483 0.926557 4.9368 0
M  V30 3538 C 332.477 2.67754 5.78434 0
M  V30 3539 C 330.164 1.98904 5.77824 0
M  V30 3540 C 331.162 2.8629 6.20103 0
M  V30 3541 O 330.85 3.90708 7.02568 0
M  V30 3542 H 330.582 0.00576308 0.675975 0
M  V30 3543 H 333.136 0.664662 1.94349 0
M  V30 3544 H 331.366 -1.21817 3.67012 0
M  V30 3545 H 333.055 -0.911422 3.95535 0
M  V30 3546 H 333.821 1.48196 4.61804 0
M  V30 3547 H 329.7 0.25584 4.6029 0
M  V30 3548 H 333.244 3.35992 6.11355 0
M  V30 3549 H 329.141 2.12541 6.09505 0
M  V30 3550 H 329.909 3.87751 7.20827 0
M  V30 3551 N 332.573 -1.56217 0.208337 0
M  V30 3552 C 333.819 -1.98242 -0.427552 0
M  V30 3553 C 334.152 -1.09554 -1.60348 0
M  V30 3554 O 333.427 -0.15035 -1.93918 0
M  V30 3555 C 333.71 -3.4931 -0.874907 0
M  V30 3556 C 333.563 -4.48773 0.303751 0
M  V30 3557 C 334.882 -4.04424 -1.73577 0
M  V30 3558 H 332.001 -0.720744 -0.153936 0
M  V30 3559 H 334.643 -1.87586 0.30192 0
M  V30 3560 H 332.793 -3.58522 -1.49648 0
M  V30 3561 H 334.465 -4.51586 0.941682 0
M  V30 3562 H 332.708 -4.23194 0.953375 0
M  V30 3563 H 333.379 -5.51976 -0.0519883 0
M  V30 3564 H 335.855 -3.98075 -1.21143 0
M  V30 3565 H 334.731 -5.1047 -2.01771 0
M  V30 3566 H 334.992 -3.50494 -2.69456 0
M  V30 3567 N 334.051 0.0651679 -1.57465 0
M  V30 3568 C 335.299 0.761555 -1.87202 0
M  V30 3569 C 335.62 1.77778 -0.801243 0
M  V30 3570 O 334.89 1.95166 0.16937 0
M  V30 3571 H 333.47 0.284251 -0.690804 0
M  V30 3572 H 336.132 0.0396827 -1.9486 0
M  V30 3573 H 335.228 1.27365 -2.84929 0
M  V30 3574 N 335.529 1.53961 0.336706 0
M  V30 3575 C 336.777 1.71197 1.07405 0
M  V30 3576 C 337.098 0.481475 1.88962 0
M  V30 3577 O 336.368 -0.504585 1.8929 0
M  V30 3578 H 334.948 0.631185 0.399517 0
M  V30 3579 H 337.61 1.91232 0.376323 0
M  V30 3580 H 336.706 2.58587 1.74755 0
M  V30 3581 N 337.007 -0.598083 1.45811 0
M  V30 3582 C 337.937 -1.71873 1.58057 0
M  V30 3583 C 338.918 -1.64533 0.431615 0
M  V30 3584 O 340.103 -1.82787 0.65595 0
M  V30 3585 C 337.233 -3.10495 1.55597 0
M  V30 3586 C 336.187 -3.32654 2.69305 0
M  V30 3587 C 335.513 -4.71646 2.51902 0
M  V30 3588 C 336.813 -3.21981 4.11248 0
M  V30 3589 H 338.507 -1.61881 2.51863 0
M  V30 3590 H 336.053 -0.777372 1.21214 0
M  V30 3591 H 338.006 -3.88699 1.6276 0
M  V30 3592 H 336.73 -3.2135 0.583255 0
M  V30 3593 H 335.389 -2.56843 2.61586 0
M  V30 3594 H 335.037 -4.79246 1.52748 0
M  V30 3595 H 334.737 -4.87426 3.2816 0
M  V30 3596 H 336.261 -5.52038 2.60933 0
M  V30 3597 H 337.675 -3.90049 4.20161 0
M  V30 3598 H 336.072 -3.49289 4.87972 0
M  V30 3599 H 337.142 -2.1928 4.32486 0
M  V30 3600 N 338.485 -1.33259 -0.841409 0
M  V30 3601 C 339.733 -1.24326 -1.59334 0
M  V30 3602 C 340.054 0.191564 -1.94057 0
M  V30 3603 O 339.324 1.11967 -1.60749 0
M  V30 3604 H 337.904 -0.457174 -0.590763 0
M  V30 3605 H 340.566 -1.66947 -1.00571 0
M  V30 3606 H 339.662 -1.8352 -2.52442 0
M  V30 3607 N 339.963 1.05934 -1.16686 0
M  V30 3608 C 340.91 2.13499 -0.876748 0
M  V30 3609 C 341.88 1.65162 0.176299 0
M  V30 3610 O 343.065 1.90757 0.0407143 0
M  V30 3611 C 340.205 3.42912 -0.387967 0
M  V30 3612 C 339.318 4.04964 -1.50426 0
M  V30 3613 C 338.453 5.22266 -0.970125 0
M  V30 3614 C 337.492 5.76309 -2.06238 0
M  V30 3615 N 336.629 6.84922 -1.54356 0
M  V30 3616 H 341.469 2.37654 -1.7979 0
M  V30 3617 H 339.006 1.16598 -0.896843 0
M  V30 3618 H 340.964 4.17111 -0.086186 0
M  V30 3619 H 339.594 3.18963 0.496235 0
M  V30 3620 H 338.646 3.28277 -1.92193 0
M  V30 3621 H 339.958 4.41122 -2.32836 0
M  V30 3622 H 339.112 6.03506 -0.621743 0
M  V30 3623 H 337.851 4.87564 -0.115377 0
M  V30 3624 H 336.856 4.93704 -2.41942 0
M  V30 3625 H 338.081 6.13062 -2.92115 0
M  V30 3626 H 336.027 6.52131 -0.711406 0
M  V30 3627 H 335.944 7.20043 -2.30379 0
M  V30 3628 H 337.212 7.69832 -1.22387 0
M  V30 3629 N 341.441 0.965919 1.2453 0
M  V30 3630 C 342.351 0.502154 2.29163 0
M  V30 3631 C 343.367 -0.436017 1.68448 0
M  V30 3632 O 344.543 -0.309497 1.99008 0
M  V30 3633 C 341.608 -0.201956 3.46111 0
M  V30 3634 C 340.669 0.775821 4.22232 0
M  V30 3635 C 339.902 0.105217 5.33596 0
M  V30 3636 O 340.125 -1.10683 5.59558 0
M  V30 3637 O 339.059 0.796475 5.96607 0
M  V30 3638 H 342.885 1.37194 2.70946 0
M  V30 3639 H 340.47 0.732875 1.30189 0
M  V30 3640 H 342.352 -0.597564 4.17142 0
M  V30 3641 H 341.027 -1.04673 3.06309 0
M  V30 3642 H 339.934 1.22185 3.53584 0
M  V30 3643 H 341.267 1.58896 4.65846 0
M  V30 3644 N 342.919 -1.39368 0.735821 0
M  V30 3645 C 344.165 -2.01272 0.293439 0
M  V30 3646 C 344.52 -1.57344 -1.10728 0
M  V30 3647 O 343.813 -0.792744 -1.74431 0
M  V30 3648 C 344.007 -3.5583 0.334651 0
M  V30 3649 C 343.836 -4.14764 1.73784 0
M  V30 3650 C 342.606 -4.47315 2.35026 0
M  V30 3651 C 344.804 -4.38246 2.69157 0
M  V30 3652 N 342.786 -4.91756 3.6749 0
M  V30 3653 C 344.157 -4.849 3.86357 0
M  V30 3654 C 346.212 -4.20315 2.66908 0
M  V30 3655 C 344.915 -5.15505 5.01645 0
M  V30 3656 C 346.941 -4.52033 3.8134 0
M  V30 3657 C 346.303 -4.98895 4.97276 0
M  V30 3658 H 342.402 -0.766756 0.153652 0
M  V30 3659 H 344.986 -1.69276 0.961967 0
M  V30 3660 H 343.157 -3.87212 -0.303527 0
M  V30 3661 H 344.889 -4.04503 -0.126358 0
M  V30 3662 H 341.644 -4.35143 1.86943 0
M  V30 3663 H 342.068 -5.18333 4.35499 0
M  V30 3664 H 346.71 -3.83287 1.78468 0
M  V30 3665 H 344.428 -5.51437 5.90713 0
M  V30 3666 H 348.014 -4.39781 3.80899 0
M  V30 3667 H 346.894 -5.22973 5.84353 0
M  V30 3668 N 344.397 -0.483516 -1.5 0
M  V30 3669 C 345.625 0.0644831 -2.06799 0
M  V30 3670 C 346.04 1.32399 -1.34596 0
M  V30 3671 O 345.397 1.77626 -0.418946 0
M  V30 3672 C 345.448 0.339927 -3.59898 0
M  V30 3673 O 345.169 -0.869635 -4.29382 0
M  V30 3674 C 346.67 0.933515 -4.33359 0
M  V30 3675 H 343.89 -0.0126333 -0.670881 0
M  V30 3676 H 346.434 -0.675864 -1.93009 0
M  V30 3677 H 344.589 1.03022 -3.7345 0
M  V30 3678 H 345.003 -0.62179 -5.20801 0
M  V30 3679 H 346.477 1.07593 -5.41413 0
M  V30 3680 H 346.954 1.92685 -3.94676 0
M  V30 3681 H 347.56 0.281221 -4.24369 0
M  V30 3682 N 345.875 1.56104 -0.216619 0
M  V30 3683 C 347.103 2.02563 0.421413 0
M  V30 3684 C 347.518 1.0965 1.53695 0
M  V30 3685 O 346.875 0.10521 1.82196 0
M  V30 3686 C 346.926 3.48584 0.957665 0
M  V30 3687 O 346.647 4.37953 -0.113389 0
M  V30 3688 C 348.148 4.10664 1.66943 0
M  V30 3689 H 345.368 0.662944 0.103665 0
M  V30 3690 H 347.912 2.01793 -0.331629 0
M  V30 3691 H 346.067 3.49985 1.661 0
M  V30 3692 H 346.481 5.23704 0.288932 0
M  V30 3693 H 347.955 5.14622 1.99671 0
M  V30 3694 H 348.432 3.55373 2.58083 0
M  V30 3695 H 349.038 4.13098 1.01142 0
M  V30 3696 N 347.353 -0.0568162 1.57498 0
M  V30 3697 C 348.581 -0.765626 1.92213 0
M  V30 3698 C 348.996 -1.70353 0.813961 0
M  V30 3699 O 348.353 -1.81268 -0.211701 0
M  V30 3700 C 348.404 -1.5465 3.2675 0
M  V30 3701 O 348.125 -0.646278 4.33307 0
M  V30 3702 C 349.626 -2.35497 3.75574 0
M  V30 3703 H 346.846 -0.216835 0.634999 0
M  V30 3704 H 349.39 -0.0226146 2.04487 0
M  V30 3705 H 347.545 -2.24165 3.15957 0
M  V30 3706 H 347.959 -1.19093 5.108 0
M  V30 3707 H 349.433 -2.85722 4.72299 0
M  V30 3708 H 349.91 -3.15692 3.05344 0
M  V30 3709 H 350.516 -1.7111 3.8936 0
M  V30 3710 N 348.832 -1.54138 -0.328536 0
M  V30 3711 C 350.06 -1.76062 -1.08673 0
M  V30 3712 C 350.475 -0.506852 -1.81869 0
M  V30 3713 O 349.832 0.522223 -1.74869 0
M  V30 3714 C 349.883 -2.95054 -2.08866 0
M  V30 3715 O 349.604 -4.15583 -1.38644 0
M  V30 3716 C 351.105 -3.2915 -2.96943 0
M  V30 3717 H 348.325 -0.587889 -0.323461 0
M  V30 3718 H 350.869 -2.0101 -0.376175 0
M  V30 3719 H 349.024 -2.72394 -2.75464 0
M  V30 3720 H 349.438 -4.82481 -2.05699 0
M  V30 3721 H 350.912 -4.15723 -3.63151 0
M  V30 3722 H 351.389 -2.461 -3.63774 0
M  V30 3723 H 351.995 -3.53871 -2.35914 0
M  V30 3724 N 350.31 0.590341 -1.46126 0
M  V30 3725 C 351.558 1.34616 -1.50742 0
M  V30 3726 C 351.879 1.94363 -0.157486 0
M  V30 3727 O 351.149 1.78136 0.815136 0
M  V30 3728 H 349.729 0.499789 -0.555175 0
M  V30 3729 H 352.391 0.691953 -1.82203 0
M  V30 3730 H 351.487 2.15678 -2.25587 0
M  V30 3731 N 351.788 1.33704 0.83433 0
M  V30 3732 C 353.065 1.16011 1.57483 0
M  V30 3733 C 353.445 -0.27176 2.09343 0
M  V30 3734 O 352.793 -1.27146 1.89858 0
M  V30 3735 C 353.003 2.20507 2.70514 0
M  V30 3736 C 354.351 2.54898 3.39577 0
M  V30 3737 O 355.375 2.19209 2.80759 0
M  V30 3738 O 354.234 3.16158 4.45765 0
M  V30 3739 H 351.328 0.448992 0.694503 0
M  V30 3740 H 353.874 1.453 0.876691 0
M  V30 3741 H 352.646 3.16667 2.29865 0
M  V30 3742 H 352.269 1.92329 3.47987 0
M  V30 3743 N 353.266 -1.05314 1.17247 0
M  V30 3744 C 354.512 -1.78557 0.961513 0
M  V30 3745 C 354.845 -1.87419 -0.508697 0
M  V30 3746 O 354.12 -1.37307 -1.37757 0
M  V30 3747 C 354.403 -3.22514 1.60176 0
M  V30 3748 C 354.256 -3.21673 3.14399 0
M  V30 3749 C 355.575 -4.20318 1.30463 0
M  V30 3750 H 352.694 -0.6482 0.350723 0
M  V30 3751 H 355.336 -1.23102 1.44727 0
M  V30 3752 H 353.486 -3.69867 1.18871 0
M  V30 3753 H 355.158 -2.82405 3.64753 0
M  V30 3754 H 353.401 -2.60048 3.47214 0
M  V30 3755 H 354.072 -4.23271 3.54324 0
M  V30 3756 H 356.548 -3.81454 1.66229 0
M  V30 3757 H 355.424 -5.19289 1.77848 0
M  V30 3758 H 355.685 -4.41526 0.22521 0
M  V30 3759 N 354.744 -0.972509 -1.24016 0
M  V30 3760 C 355.99 -0.637978 -1.92504 0
M  V30 3761 C 356.323 0.825383 -1.75787 0
M  V30 3762 O 355.598 1.59442 -1.11393 0
M  V30 3763 C 355.881 -1.01942 -3.45369 0
M  V30 3764 C 355.734 -2.53983 -3.71231 0
M  V30 3765 C 357.053 -0.55751 -4.36555 0
M  V30 3766 H 354.172 -0.233248 -0.699117 0
M  V30 3767 H 356.814 -1.21238 -1.46292 0
M  V30 3768 H 354.964 -0.530656 -3.84859 0
M  V30 3769 H 356.636 -3.10374 -3.41271 0
M  V30 3770 H 354.879 -2.96968 -3.16216 0
M  V30 3771 H 355.55 -2.75723 -4.78206 0
M  V30 3772 H 358.026 -0.977029 -4.04467 0
M  V30 3773 H 356.902 -0.85292 -5.42233 0
M  V30 3774 H 357.163 0.542328 -4.38761 0
M  V30 3775 N 356.222 1.38976 -0.743202 0
M  V30 3776 C 357.17 2.32394 -0.0978389 0
M  V30 3777 C 358.164 1.53486 0.716824 0
M  V30 3778 O 359.37 1.69092 0.617088 0
M  V30 3779 H 355.745 0.75189 -0.0128402 0
M  V30 3780 H 357.716 2.84441 -0.901981 0
M  V30 3781 C 356.465 3.38629 0.789036 0
M  V30 3782 H 355.788 3.99432 0.171559 0
M  V30 3783 H 357.228 4.06426 1.20807 0
M  V30 3784 C 355.687 2.76347 1.92702 0
M  V30 3785 O 356.217 2.64836 3.02034 0
M  V30 3786 N 354.423 2.34311 1.71891 0
M  V30 3787 H 353.97 2.43873 0.829675 0
M  V30 3788 H 353.928 1.9298 2.48205 0
M  V30 3789 N 357.7 0.491464 1.49741 0
M  V30 3790 C 358.61 -0.296835 2.32715 0
M  V30 3791 C 359.626 -0.976536 1.44013 0
M  V30 3792 O 360.802 -0.960023 1.77047 0
M  V30 3793 C 357.867 -1.35288 3.19215 0
M  V30 3794 C 356.928 -0.687632 4.23757 0
M  V30 3795 C 356.161 -1.69336 5.06123 0
M  V30 3796 O 356.384 -2.92219 4.89861 0
M  V30 3797 O 355.318 -1.25394 5.88693 0
M  V30 3798 H 359.144 0.382048 3.01287 0
M  V30 3799 H 356.729 0.252953 1.47243 0
M  V30 3800 H 358.611 -1.96411 3.72828 0
M  V30 3801 H 357.286 -2.01487 2.53347 0
M  V30 3802 H 356.193 -0.0369159 3.74082 0
M  V30 3803 H 357.526 -0.0682566 4.92153 0
M  V30 3804 N 359.178 -1.55987 0.224894 0
M  V30 3805 C 360.126 -2.21808 -0.700283 0
M  V30 3806 C 361.12 -1.19854 -1.19714 0
M  V30 3807 O 362.326 -1.37925 -1.15658 0
M  V30 3808 H 358.701 -0.711226 -0.244258 0
M  V30 3809 H 360.672 -2.98152 -0.121749 0
M  V30 3810 C 359.421 -2.91444 -1.8962 0
M  V30 3811 H 358.744 -3.69655 -1.52299 0
M  V30 3812 H 360.184 -3.40894 -2.52125 0
M  V30 3813 C 358.643 -1.94098 -2.75368 0
M  V30 3814 O 359.173 -1.46004 -3.74227 0
M  V30 3815 N 357.379 -1.61675 -2.41474 0
M  V30 3816 H 356.926 -2.00979 -1.61137 0
M  V30 3817 H 356.884 -0.968036 -2.99126 0
M  V30 3818 N 360.656 0.0484629 -1.57525 0
M  V30 3819 C 362.067 0.597486 -1.76881 0
M  V30 3820 C 362.418 1.76664 -0.853475 0
M  V30 3821 O 361.543 2.16357 -0.0433656 0
M  V30 3822 C 362.138 1.09066 -3.20765 0
M  V30 3823 C 360.697 1.58535 -3.41385 0
M  V30 3824 C 359.844 0.514868 -2.72478 0
M  V30 3825 H 362.795 -0.177758 -1.57701 0
M  V30 3826 H 362.816 1.95875 -3.2621 0
M  V30 3827 H 362.328 0.239521 -3.8736 0
M  V30 3828 H 360.429 2.45898 -2.79937 0
M  V30 3829 H 360.542 1.64622 -4.49929 0
M  V30 3830 H 358.906 0.965407 -2.35695 0
M  V30 3831 H 359.689 -0.32648 -3.41744 0
M  V30 3832 N 362.134 1.5431 0.320358 0
M  V30 3833 C 363.044 1.86946 1.41734 0
M  V30 3834 C 364.06 0.761689 1.56443 0
M  V30 3835 O 365.236 1.05629 1.71477 0
M  V30 3836 C 362.301 2.09293 2.76401 0
M  V30 3837 C 361.362 3.33082 2.70841 0
M  V30 3838 C 360.595 3.54353 3.99086 0
M  V30 3839 O 360.818 2.79002 4.97508 0
M  V30 3840 O 359.752 4.47838 4.0215 0
M  V30 3841 H 363.578 2.80232 1.17062 0
M  V30 3842 H 361.163 1.40255 0.514673 0
M  V30 3843 H 363.045 2.25303 3.56113 0
M  V30 3844 H 361.72 1.19194 3.00956 0
M  V30 3845 H 360.627 3.22454 1.89668 0
M  V30 3846 H 361.96 4.23249 2.5124 0
M  V30 3847 N 363.613 -0.582584 1.46437 0
M  V30 3848 C 364.859 -1.34064 1.52965 0
M  V30 3849 C 365.214 -1.91566 0.178968 0
M  V30 3850 O 364.507 -1.73526 -0.812365 0
M  V30 3851 C 364.701 -2.48964 2.56421 0
M  V30 3852 C 364.53 -2.02717 4.01417 0
M  V30 3853 C 363.3 -1.87728 4.69134 0
M  V30 3854 C 365.498 -1.58675 4.8921 0
M  V30 3855 N 363.48 -1.35554 5.98747 0
M  V30 3856 C 364.851 -1.18093 6.08649 0
M  V30 3857 C 366.906 -1.46494 4.75861 0
M  V30 3858 C 365.609 -0.665427 7.16215 0
M  V30 3859 C 367.635 -0.96347 5.83499 0
M  V30 3860 C 366.997 -0.567432 7.02111 0
M  V30 3861 H 363.096 -0.483551 0.614575 0
M  V30 3862 H 365.68 -0.663309 1.83053 0
M  V30 3863 H 363.851 -3.1426 2.28244 0
M  V30 3864 H 365.583 -3.15913 2.52944 0
M  V30 3865 H 362.338 -2.09678 4.24655 0
M  V30 3866 H 362.762 -1.11628 6.67734 0
M  V30 3867 H 367.404 -1.75731 3.8455 0
M  V30 3868 H 365.122 -0.360639 8.07295 0
M  V30 3869 H 368.708 -0.873129 5.75211 0
M  V30 3870 H 367.588 -0.185389 7.83981 0
M  V30 3871 N 365.091 -1.34144 -0.827227 0
M  V30 3872 C 366.337 -1.26446 -1.58554 0
M  V30 3873 C 366.67 0.1664 -1.93486 0
M  V30 3874 O 365.945 1.1107 -1.59667 0
M  V30 3875 C 366.228 -2.15111 -2.8879 0
M  V30 3876 C 366.081 -3.66712 -2.60465 0
M  V30 3877 C 367.4 -2.03311 -3.90324 0
M  V30 3878 H 364.519 -0.46067 -0.575284 0
M  V30 3879 H 367.161 -1.64356 -0.953269 0
M  V30 3880 H 365.311 -1.8291 -3.42748 0
M  V30 3881 H 366.983 -4.09259 -2.1285 0
M  V30 3882 H 365.226 -3.88014 -1.93978 0
M  V30 3883 H 365.897 -4.24112 -3.53317 0
M  V30 3884 H 368.373 -2.31574 -3.45706 0
M  V30 3885 H 367.249 -2.67582 -4.79261 0
M  V30 3886 H 367.51 -1.00879 -4.30437 0
M  V30 3887 N 366.569 1.04691 -1.17803 0
M  V30 3888 C 367.516 2.12557 -0.899343 0
M  V30 3889 C 368.486 1.65339 0.158771 0
M  V30 3890 O 369.671 1.90789 0.0204797 0
M  V30 3891 C 366.811 3.42481 -0.424315 0
M  V30 3892 C 365.924 4.03346 -1.54713 0
M  V30 3893 C 365.059 5.21208 -1.02546 0
M  V30 3894 C 364.098 5.74089 -2.12339 0
M  V30 3895 N 363.235 6.83247 -1.61612 0
M  V30 3896 H 368.075 2.35734 -1.823 0
M  V30 3897 H 365.612 1.1564 -0.909159 0
M  V30 3898 H 367.57 4.16996 -0.130421 0
M  V30 3899 H 366.2 3.19471 0.462377 0
M  V30 3900 H 365.252 3.2622 -1.95664 0
M  V30 3901 H 366.564 4.38628 -2.37501 0
M  V30 3902 H 365.718 6.02812 -0.685718 0
M  V30 3903 H 364.457 4.87414 -0.167084 0
M  V30 3904 H 363.462 4.91111 -2.47165 0
M  V30 3905 H 364.687 6.0993 -2.98601 0
M  V30 3906 H 362.633 6.5134 -0.780533 0
M  V30 3907 H 362.55 7.17559 -2.38003 0
M  V30 3908 H 363.818 7.68491 -1.30545 0
M  V30 3909 N 368.047 0.979072 1.23499 0
M  V30 3910 C 369.293 0.648178 1.92163 0
M  V30 3911 C 369.626 -0.816049 1.76222 0
M  V30 3912 O 368.901 -1.58849 1.12237 0
M  V30 3913 C 369.184 1.03773 3.44824 0
M  V30 3914 C 369.037 2.55948 3.69879 0
M  V30 3915 C 370.356 0.580653 4.36253 0
M  V30 3916 H 367.475 0.236952 0.69787 0
M  V30 3917 H 370.117 1.22012 1.45647 0
M  V30 3918 H 368.267 0.551058 3.84572 0
M  V30 3919 H 369.939 3.12179 3.3962 0
M  V30 3920 H 368.182 2.98641 3.14636 0
M  V30 3921 H 368.853 2.78255 4.76737 0
M  V30 3922 H 371.329 0.998465 4.03943 0
M  V30 3923 H 370.205 0.881663 5.41773 0
M  V30 3924 H 370.466 -0.519052 4.39042 0
M  V30 3925 N 369.525 -1.3858 0.750561 0
M  V30 3926 C 370.771 -2.00481 0.305825 0
M  V30 3927 C 371.104 -1.5944 -1.10872 0
M  V30 3928 O 370.379 -0.83052 -1.75877 0
M  V30 3929 C 370.662 -3.5758 0.425287 0
M  V30 3930 C 370.515 -4.08594 1.88072 0
M  V30 3931 C 371.834 -4.39719 -0.183122 0
M  V30 3932 H 368.953 -0.728348 0.112598 0
M  V30 3933 H 371.595 -1.64566 0.949638 0
M  V30 3934 H 369.745 -3.88306 -0.122828 0
M  V30 3935 H 371.417 -3.88523 2.48691 0
M  V30 3936 H 369.66 -3.61574 2.39681 0
M  V30 3937 H 370.331 -5.177 1.91548 0
M  V30 3938 H 372.807 -4.15128 0.284303 0
M  V30 3939 H 371.683 -5.48856 -0.0692757 0
M  V30 3940 H 371.944 -4.23434 -1.27106 0
M  V30 3941 N 371.003 -0.499398 -1.49478 0
M  V30 3942 C 372.251 0.0455996 -2.02049 0
M  V30 3943 C 372.572 1.37633 -1.38138 0
M  V30 3944 O 371.842 1.8842 -0.536166 0
M  V30 3945 H 370.422 0.0198416 -0.746736 0
M  V30 3946 H 373.084 -0.656274 -1.83519 0
M  V30 3947 H 372.18 0.176445 -3.11601 0
M  V30 3948 N 372.481 1.55866 -0.233164 0
M  V30 3949 C 373.711 2.02704 0.399325 0
M  V30 3950 C 374.119 1.11204 1.53069 0
M  V30 3951 O 373.462 0.116182 1.83332 0
M  V30 3952 C 373.524 3.45844 0.981429 0
M  V30 3953 C 373.188 4.56997 -0.0159561 0
M  V30 3954 C 374.185 5.13384 -0.820552 0
M  V30 3955 C 371.87 5.0211 -0.138072 0
M  V30 3956 C 373.864 6.13365 -1.73386 0
M  V30 3957 C 371.551 6.01926 -1.0549 0
M  V30 3958 C 372.549 6.57431 -1.85132 0
M  V30 3959 O 372.237 7.55302 -2.75272 0
M  V30 3960 H 371.969 0.668459 0.100692 0
M  V30 3961 H 374.523 2.02387 -0.35052 0
M  V30 3962 H 372.753 3.43267 1.78058 0
M  V30 3963 H 374.442 3.76262 1.52255 0
M  V30 3964 H 375.208 4.79372 -0.736721 0
M  V30 3965 H 371.087 4.5858 0.471737 0
M  V30 3966 H 374.631 6.56614 -2.35592 0
M  V30 3967 H 370.528 6.35359 -1.1397 0
M  V30 3968 H 371.296 7.72867 -2.69477 0
M  V30 3969 N 373.959 -0.0401083 1.57549 0
M  V30 3970 C 374.906 -1.04413 2.05831 0
M  V30 3971 C 375.876 -1.36585 0.945184 0
M  V30 3972 O 377.061 -1.47112 1.21502 0
M  V30 3973 C 374.201 -2.34336 2.53339 0
M  V30 3974 C 373.314 -2.08419 3.78398 0
M  V30 3975 C 372.449 -3.32133 4.14561 0
M  V30 3976 C 371.488 -3.01721 5.3257 0
M  V30 3977 N 370.625 -4.17855 5.64218 0
M  V30 3978 H 375.465 -0.625442 2.91363 0
M  V30 3979 H 373.002 -0.297218 1.44066 0
M  V30 3980 H 374.96 -3.10234 2.78946 0
M  V30 3981 H 373.59 -2.73948 1.7074 0
M  V30 3982 H 372.642 -1.23069 3.59942 0
M  V30 3983 H 373.954 -1.81978 4.64419 0
M  V30 3984 H 373.108 -4.16406 4.41238 0
M  V30 3985 H 371.847 -3.61678 3.2717 0
M  V30 3986 H 370.852 -2.15849 5.05657 0
M  V30 3987 H 372.077 -2.73466 6.21605 0
M  V30 3988 H 370.023 -4.47372 4.79786 0
M  V30 3989 H 369.94 -3.94798 6.44725 0
M  V30 3990 H 371.208 -5.03033 5.95465 0
M  V30 3991 N 375.437 -1.54477 -0.31217 0
M  V30 3992 C 376.685 -1.72884 -1.04668 0
M  V30 3993 C 377.006 -0.511477 -1.88173 0
M  V30 3994 O 376.276 0.474407 -1.90069 0
M  V30 3995 H 374.856 -0.637461 -0.389425 0
M  V30 3996 H 377.518 -1.91807 -0.345852 0
M  V30 3997 H 376.614 -2.61334 -1.70619 0
M  V30 3998 N 376.915 0.57481 -1.46744 0
M  V30 3999 C 378.14 1.36341 -1.56288 0
M  V30 4000 C 378.565 1.86954 -0.207347 0
M  V30 4001 O 377.923 1.62006 0.813871 0
M  V30 4002 C 377.971 2.52147 -2.57787 0
M  V30 4003 O 377.075 3.53834 -2.11838 0
M  V30 4004 H 376.416 0.405713 -0.525636 0
M  V30 4005 H 378.946 0.696453 -1.92382 0
M  V30 4006 H 378.956 2.98958 -2.77648 0
M  V30 4007 H 377.631 2.14663 -3.5622 0
M  V30 4008 H 376.208 3.1345 -2.01999 0
M  V30 4009 N 378.394 1.34581 0.820102 0
M  V30 4010 C 379.64 1.27285 1.57881 0
M  V30 4011 C 379.973 -0.156137 1.93571 0
M  V30 4012 O 379.248 -1.10222 1.60254 0
M  V30 4013 C 379.531 2.16639 2.87645 0
M  V30 4014 C 379.384 3.68088 2.58517 0
M  V30 4015 C 380.703 2.05378 3.8924 0
M  V30 4016 H 377.822 0.463714 0.572833 0
M  V30 4017 H 380.464 1.64859 0.944539 0
M  V30 4018 H 378.614 1.84725 3.41773 0
M  V30 4019 H 380.286 4.10382 2.10676 0
M  V30 4020 H 378.529 3.89038 1.91917 0
M  V30 4021 H 379.2 4.2598 3.51063 0
M  V30 4022 H 381.676 2.33404 3.44473 0
M  V30 4023 H 380.552 2.7012 4.77835 0
M  V30 4024 H 380.813 1.0316 4.29896 0
M  V30 4025 N 379.872 -1.04064 1.18357 0
M  V30 4026 C 381.149 -1.74252 0.888581 0
M  V30 4027 C 381.529 -2.02138 -0.60856 0
M  V30 4028 O 380.877 -1.66656 -1.56327 0
M  V30 4029 C 381.087 -3.0277 1.73584 0
M  V30 4030 C 382.435 -3.76506 1.96286 0
M  V30 4031 O 383.459 -3.12668 1.70637 0
M  V30 4032 O 382.318 -4.91243 2.39464 0
M  V30 4033 H 379.412 -0.758271 0.330082 0
M  V30 4034 H 381.958 -1.1013 1.2911 0
M  V30 4035 H 380.73 -2.78299 2.75073 0
M  V30 4036 H 380.353 -3.74631 1.33183 0
M  V30 4037 N 381.35 -0.985608 -1.22978 0
M  V30 4038 C 382.3 -0.50118 -2.22423 0
M  V30 4039 C 383.284 0.426649 -1.5514 0
M  V30 4040 O 384.476 0.254656 -1.75159 0
M  V30 4041 C 381.605 0.190003 -3.42774 0
M  V30 4042 C 380.691 -0.757703 -4.17276 0
M  V30 4043 N 381.082 -1.90251 -4.68656 0
M  V30 4044 C 379.38 -0.57209 -4.42316 0
M  V30 4045 C 380.081 -2.49676 -5.25392 0
M  V30 4046 N 379.057 -1.78013 -5.13627 0
M  V30 4047 H 382.859 -1.37441 -2.59783 0
M  V30 4048 H 380.373 -0.846941 -1.38567 0
M  V30 4049 H 382.37 0.55439 -4.13197 0
M  V30 4050 H 381.03 1.05946 -3.06929 0
M  V30 4051 H 382.041 -2.28354 -4.64839 0
M  V30 4052 H 378.718 0.251909 -4.16739 0
M  V30 4053 H 380.108 -3.46384 -5.75732 0
M  V30 4054 N 382.828 1.3818 -0.7579 0
M  V30 4055 C 383.738 2.3421 -0.135247 0
M  V30 4056 C 384.754 1.59487 0.695683 0
M  V30 4057 O 385.93 1.91657 0.618832 0
M  V30 4058 C 382.995 3.3862 0.744139 0
M  V30 4059 C 382.056 4.2918 -0.101658 0
M  V30 4060 C 381.289 5.28603 0.735851 0
M  V30 4061 O 381.512 5.35166 1.97366 0
M  V30 4062 O 380.446 6.01707 0.152372 0
M  V30 4063 H 384.272 2.8916 -0.928436 0
M  V30 4064 H 381.857 1.40101 -0.518855 0
M  V30 4065 H 383.739 4.02539 1.2466 0
M  V30 4066 H 382.414 2.86019 1.51575 0
M  V30 4067 H 381.321 3.68407 -0.650167 0
M  V30 4068 H 382.654 4.85048 -0.836024 0
M  V30 4069 N 384.306 0.507319 1.49211 0
M  V30 4070 C 385.254 -0.281364 2.30892 0
M  V30 4071 C 386.248 -0.95687 1.39787 0
M  V30 4072 O 387.454 -0.883838 1.56807 0
M  V30 4073 H 383.829 -0.109597 0.743971 0
M  V30 4074 H 385.8 0.42744 2.95323 0
M  V30 4075 C 384.549 -1.32918 3.21291 0
M  V30 4076 H 383.872 -0.818799 3.91326 0
M  V30 4077 H 385.312 -1.85288 3.81372 0
M  V30 4078 C 383.771 -2.35074 2.41333 0
M  V30 4079 O 384.301 -3.4108 2.12197 0
M  V30 4080 N 382.507 -2.07705 2.03241 0
M  V30 4081 H 382.054 -1.2152 2.27136 0
M  V30 4082 H 382.012 -2.76283 1.50051 0
M  V30 4083 N 385.784 -1.5574 0.241426 0
M  V30 4084 C 387.03 -1.99846 -0.378555 0
M  V30 4085 C 387.385 -1.12665 -1.55963 0
M  V30 4086 O 386.678 -0.180966 -1.90743 0
M  V30 4087 C 386.872 -3.47308 -0.843317 0
M  V30 4088 C 386.701 -4.48756 0.291178 0
M  V30 4089 C 385.471 -4.9949 0.764077 0
M  V30 4090 C 387.669 -5.02039 1.11631 0
M  V30 4091 N 385.651 -5.84676 1.87156 0
M  V30 4092 C 387.022 -5.84343 2.07226 0
M  V30 4093 C 389.077 -4.84354 1.15349 0
M  V30 4094 C 387.78 -6.50851 3.06245 0
M  V30 4095 C 389.806 -5.51636 2.13195 0
M  V30 4096 C 389.168 -6.33724 3.07528 0
M  V30 4097 H 385.267 -0.774968 -0.104634 0
M  V30 4098 H 387.851 -1.91385 0.357751 0
M  V30 4099 H 386.022 -3.56178 -1.54893 0
M  V30 4100 H 387.754 -3.78299 -1.43779 0
M  V30 4101 H 384.509 -4.72311 0.349175 0
M  V30 4102 H 384.933 -6.31967 2.42789 0
M  V30 4103 H 389.575 -4.20525 0.438057 0
M  V30 4104 H 387.293 -7.1385 3.78739 0
M  V30 4105 H 390.879 -5.39909 2.16771 0
M  V30 4106 H 389.759 -6.84867 3.82003 0
M  V30 4107 N 387.262 0.0317525 -1.57568 0
M  V30 4108 C 388.508 0.724175 -1.8943 0
M  V30 4109 C 388.841 1.75149 -0.838836 0
M  V30 4110 O 388.116 1.93948 0.146422 0
M  V30 4111 C 388.399 1.39615 -3.31933 0
M  V30 4112 C 388.252 0.382537 -4.4817 0
M  V30 4113 C 389.571 2.33084 -3.73309 0
M  V30 4114 H 386.69 0.261797 -0.688935 0
M  V30 4115 H 389.332 -0.013017 -1.89996 0
M  V30 4116 H 387.482 2.02451 -3.31581 0
M  V30 4117 H 389.154 -0.243689 -4.60656 0
M  V30 4118 H 387.397 -0.29844 -4.32772 0
M  V30 4119 H 388.068 0.891145 -5.44759 0
M  V30 4120 H 390.544 1.80295 -3.7501 0
M  V30 4121 H 389.42 2.77084 -4.73831 0
M  V30 4122 H 389.681 3.19643 -3.05419 0
M  V30 4123 N 388.74 1.54641 0.303973 0
M  V30 4124 C 389.965 1.78092 1.06292 0
M  V30 4125 C 390.39 0.537342 1.80262 0
M  V30 4126 O 389.748 -0.511993 1.7392 0
M  V30 4127 C 389.796 2.98612 2.02147 0
M  V30 4128 O 388.9 2.71528 3.10397 0
M  V30 4129 H 388.241 0.589548 0.305497 0
M  V30 4130 H 390.771 2.01716 0.3423 0
M  V30 4131 H 390.781 3.265 2.44667 0
M  V30 4132 H 389.456 3.88785 1.47714 0
M  V30 4133 H 388.033 2.54648 2.72413 0
M  V30 4134 N 390.218 -0.567019 1.47046 0
M  V30 4135 C 391.166 -1.69593 1.59188 0
M  V30 4136 C 392.16 -1.63046 0.459609 0
M  V30 4137 O 393.366 -1.6835 0.637058 0
M  V30 4138 H 389.741 -0.560993 0.500791 0
M  V30 4139 H 391.712 -1.56488 2.54075 0
M  V30 4140 C 390.461 -3.07964 1.61411 0
M  V30 4141 H 389.784 -3.13679 2.47881 0
M  V30 4142 H 391.224 -3.86671 1.73958 0
M  V30 4143 C 389.683 -3.35123 0.34559 0
M  V30 4144 O 390.213 -3.97812 -0.557521 0
M  V30 4145 N 388.419 -2.89699 0.22864 0
M  V30 4146 H 387.966 -2.38863 0.964479 0
M  V30 4147 H 387.924 -3.08242 -0.619192 0
M  V30 4148 N 391.696 -1.35014 -0.812953 0
M  V30 4149 C 392.926 -1.30841 -1.59888 0
M  V30 4150 C 393.334 0.117576 -1.88834 0
M  V30 4151 O 392.677 1.07807 -1.48739 0
M  V30 4152 C 392.739 -2.0412 -2.95931 0
M  V30 4153 C 392.403 -3.53336 -2.89832 0
M  V30 4154 C 393.4 -4.48052 -2.63714 0
M  V30 4155 C 391.085 -3.95894 -3.0915 0
M  V30 4156 C 393.079 -5.833 -2.56982 0
M  V30 4157 C 390.766 -5.31239 -3.0204 0
M  V30 4158 C 391.764 -6.24754 -2.75991 0
M  V30 4159 O 391.452 -7.57617 -2.68833 0
M  V30 4160 H 391.184 -0.451215 -0.50337 0
M  V30 4161 H 393.738 -1.78354 -1.01877 0
M  V30 4162 H 391.968 -1.51235 -3.559 0
M  V30 4163 H 393.657 -1.93107 -3.57022 0
M  V30 4164 H 394.423 -4.16492 -2.48515 0
M  V30 4165 H 390.302 -3.23495 -3.28438 0
M  V30 4166 H 393.846 -6.56263 -2.36569 0
M  V30 4167 H 389.743 -5.62415 -3.16796 0
M  V30 4168 H 390.511 -7.67469 -2.84487 0
M  V30 4169 N 393.175 1.03435 -1.18907 0
M  V30 4170 C 394.123 2.13703 -0.918353 0
M  V30 4171 C 395.117 1.68947 0.123767 0
M  V30 4172 O 396.323 1.79983 -0.0249701 0
M  V30 4173 H 392.698 0.698112 -0.279542 0
M  V30 4174 H 394.669 2.33731 -1.85506 0
M  V30 4175 C 393.418 3.44542 -0.467532 0
M  V30 4176 H 392.741 3.79394 -1.26095 0
M  V30 4177 H 394.181 4.22812 -0.317164 0
M  V30 4178 C 392.64 3.26829 0.817588 0
M  V30 4179 O 393.17 3.54975 1.88031 0
M  V30 4180 N 391.376 2.80139 0.772677 0
M  V30 4181 H 390.923 2.57434 -0.0923883 0
M  V30 4182 H 390.881 2.68668 1.63294 0
M  V30 4183 N 394.653 0.992116 1.22453 0
M  V30 4184 C 395.616 0.546883 2.2258 0
M  V30 4185 C 396.616 -0.369829 1.56489 0
M  V30 4186 O 397.806 -0.161896 1.73446 0
M  V30 4187 C 394.938 -0.204659 3.40285 0
M  V30 4188 H 396.131 1.43234 2.63484 0
M  V30 4189 H 393.684 0.779239 1.3549 0
M  V30 4190 H 394.419 -1.10614 3.04853 0
M  V30 4191 H 394.204 0.45354 3.89468 0
M  V30 4192 H 395.694 -0.504358 4.14543 0
M  V30 4193 N 396.131 -1.37776 0.765217 0
M  V30 4194 C 397.061 -2.32945 0.160953 0
M  V30 4195 C 398.042 -1.55454 -0.690516 0
M  V30 4196 O 399.227 -1.83721 -0.629318 0
M  V30 4197 C 396.357 -3.39669 -0.724031 0
M  V30 4198 C 395.311 -4.27992 0.0256173 0
M  V30 4199 C 394.637 -5.25673 -0.978383 0
M  V30 4200 C 395.937 -5.08309 1.20082 0
M  V30 4201 H 397.631 -2.83728 0.955969 0
M  V30 4202 H 395.177 -1.36416 0.461149 0
M  V30 4203 H 397.13 -4.05219 -1.15652 0
M  V30 4204 H 395.854 -2.87396 -1.5515 0
M  V30 4205 H 394.513 -3.63964 0.438812 0
M  V30 4206 H 394.161 -4.69682 -1.80022 0
M  V30 4207 H 393.861 -5.85625 -0.481378 0
M  V30 4208 H 395.385 -5.94098 -1.40995 0
M  V30 4209 H 396.799 -5.67034 0.845307 0
M  V30 4210 H 395.196 -5.77554 1.62947 0
M  V30 4211 H 396.266 -4.41365 2.00811 0
M  V30 4212 N 397.609 -0.515225 -1.4894 0
M  V30 4213 C 399.025 -0.172099 -1.58669 0
M  V30 4214 C 399.225 1.32405 -1.51892 0
M  V30 4215 O 398.281 2.10116 -1.40027 0
M  V30 4216 C 399.594 -0.761533 -2.90897 0
M  V30 4217 C 401.142 -0.728926 -3.04394 0
M  V30 4218 C 401.617 -1.29667 -4.39261 0
M  V30 4219 N 403.108 -1.25799 -4.4579 0
M  V30 4220 C 403.843 -1.66733 -5.48623 0
M  V30 4221 N 403.339 -2.15327 -6.58488 0
M  V30 4222 N 405.132 -1.58061 -5.39419 0
M  V30 4223 H 397.283 -1.48778 -1.51588 0
M  V30 4224 H 399.546 -0.617968 -0.718901 0
M  V30 4225 H 399.252 -1.81136 -3.01468 0
M  V30 4226 H 399.126 -0.230106 -3.76497 0
M  V30 4227 H 401.513 0.312098 -2.93445 0
M  V30 4228 H 401.594 -1.29766 -2.20442 0
M  V30 4229 H 401.238 -2.33655 -4.50963 0
M  V30 4230 H 401.168 -0.703752 -5.21876 0
M  V30 4231 H 403.659 -0.902102 -3.66975 0
M  V30 4232 H 403.972 -2.44594 -7.33071 0
M  V30 4233 H 402.317 -2.19311 -6.59491 0
M  V30 4234 H 405.508 -1.19906 -4.52482 0
M  V30 4235 H 405.681 -1.90284 -6.19432 0
M  V30 4236 N 399.087 1.5561 -0.249682 0
M  V30 4237 C 400.05 2.20217 0.635394 0
M  V30 4238 C 401.05 1.17227 1.10066 0
M  V30 4239 O 402.24 1.42292 1.00492 0
M  V30 4240 C 399.372 2.84794 1.87363 0
M  V30 4241 H 400.565 2.99814 0.0716752 0
M  V30 4242 H 398.118 1.563 -0.000153234 0
M  V30 4243 H 398.853 2.09142 2.47851 0
M  V30 4244 H 398.638 3.60241 1.5482 0
M  V30 4245 H 400.128 3.3423 2.5036 0
M  V30 4246 N 400.565 -0.0233959 1.57583 0
M  V30 4247 C 401.528 -1.00693 2.05897 0
M  V30 4248 C 402.528 -1.28693 0.964092 0
M  V30 4249 O 403.718 -1.23602 1.22753 0
M  V30 4250 C 400.85 -2.33825 2.4807 0
M  V30 4251 H 402.043 -0.589476 2.9405 0
M  V30 4252 H 399.596 -0.270354 1.53944 0
M  V30 4253 H 400.331 -2.80307 1.6309 0
M  V30 4254 H 400.116 -2.1483 3.2801 0
M  V30 4255 H 401.606 -3.04426 2.85857 0
M  V30 4256 N 402.043 -1.548 -0.295768 0
M  V30 4257 C 403.006 -1.85363 -1.34808 0
M  V30 4258 C 404.006 -0.726817 -1.43436 0
M  V30 4259 O 405.196 -0.995088 -1.42981 0
M  V30 4260 C 402.328 -2.03859 -2.73229 0
M  V30 4261 H 403.521 -2.7941 -1.08949 0
M  V30 4262 H 401.074 -1.46942 -0.532702 0
M  V30 4263 H 401.809 -1.12117 -3.04303 0
M  V30 4264 H 401.594 -2.8588 -2.68356 0
M  V30 4265 H 403.084 -2.28857 -3.49305 0
M  V30 4266 N 403.521 0.559213 -1.47345 0
M  V30 4267 C 404.769 1.31388 -1.53563 0
M  V30 4268 C 405.09 1.93985 -0.198678 0
M  V30 4269 O 404.36 1.79825 0.777167 0
M  V30 4270 H 402.94 0.487901 -0.565652 0
M  V30 4271 H 405.602 0.65315 -1.8363 0
M  V30 4272 H 404.698 2.10844 -2.30111 0
M  V30 4273 N 404.999 1.35443 0.805782 0
M  V30 4274 C 406.248 1.28097 1.55801 0
M  V30 4275 C 406.561 -0.142428 1.95081 0
M  V30 4276 O 407.767 -0.33817 2.69386 0
M  V30 4277 C 406.223 2.24653 2.81174 0
M  V30 4278 C 405.831 3.72342 2.49129 0
M  V30 4279 C 407.575 2.2625 3.59181 0
M  V30 4280 C 405.482 4.60719 3.70799 0
M  V30 4281 H 404.412 0.475937 0.584808 0
M  V30 4282 H 407.063 1.60712 0.885661 0
M  V30 4283 H 405.445 1.85011 3.50124 0
M  V30 4284 H 406.619 4.20624 1.88181 0
M  V30 4285 H 404.934 3.73361 1.84366 0
M  V30 4286 H 407.531 2.89495 4.49552 0
M  V30 4287 H 407.874 1.26647 3.96568 0
M  V30 4288 H 408.407 2.64426 2.97193 0
M  V30 4289 H 405.146 5.61324 3.3852 0
M  V30 4290 H 404.666 4.17163 4.3097 0
M  V30 4291 H 406.345 4.76182 4.38018 0
M  V30 4292 N 406.477 -1.02803 1.19454 0
M  V30 4293 C 407.409 -2.11181 0.890807 0
M  V30 4294 C 408.422 -1.6238 -0.116829 0
M  V30 4295 O 409.611 -1.78144 0.112694 0
M  V30 4296 C 406.711 -3.37461 0.311942 0
M  V30 4297 C 405.884 -4.15446 1.36834 0
M  V30 4298 C 404.943 -5.20039 0.802864 0
M  V30 4299 O 403.969 -5.49602 1.48077 0
M  V30 4300 N 405.171 -5.79165 -0.393417 0
M  V30 4301 H 407.936 -2.37827 1.82369 0
M  V30 4302 H 405.497 -1.19101 1.09666 0
M  V30 4303 H 407.489 -4.0462 -0.0802225 0
M  V30 4304 H 406.059 -3.08156 -0.52524 0
M  V30 4305 H 405.279 -3.43423 1.93531 0
M  V30 4306 H 406.567 -4.64335 2.08015 0
M  V30 4307 H 405.965 -5.57466 -0.961658 0
M  V30 4308 H 404.522 -6.47729 -0.727351 0
M  V30 4309 N 407.956 -0.998596 -1.21925 0
M  V30 4310 C 409.367 -0.711939 -1.72593 0
M  V30 4311 C 409.718 0.770842 -1.80423 0
M  V30 4312 O 408.843 1.60237 -1.4544 0
M  V30 4313 C 409.438 -1.28567 -3.13458 0
M  V30 4314 C 407.997 -1.04828 -3.61508 0
M  V30 4315 C 407.144 -1.4024 -2.39224 0
M  V30 4316 H 410.095 -1.17027 -1.07193 0
M  V30 4317 H 410.116 -0.667098 -3.74607 0
M  V30 4318 H 409.628 -2.36486 -3.07727 0
M  V30 4319 H 407.729 0.0140383 -3.72597 0
M  V30 4320 H 407.842 -1.71566 -4.47328 0
M  V30 4321 H 406.206 -0.821077 -2.41103 0
M  V30 4322 H 406.989 -2.49176 -2.36149 0
M  V30 4323 N 409.434 1.37368 -0.772513 0
M  V30 4324 C 410.845 1.8231 -0.402493 0
M  V30 4325 C 411.196 1.6436 1.07146 0
M  V30 4326 O 410.321 1.15514 1.82991 0
M  V30 4327 C 410.916 3.30979 -0.723776 0
M  V30 4328 C 409.475 3.74195 -0.406802 0
M  V30 4329 C 408.622 2.59885 -0.967218 0
M  V30 4330 H 411.573 1.25829 -0.967099 0
M  V30 4331 H 411.594 3.80499 -0.00870832 0
M  V30 4332 H 411.106 3.44011 -1.7966 0
M  V30 4333 H 409.207 3.66732 0.658673 0
M  V30 4334 H 409.32 4.7027 -0.915588 0
M  V30 4335 H 407.684 2.51674 -0.391416 0
M  V30 4336 H 408.467 2.7571 -2.04546 0
M  V30 4337 N 410.912 0.523116 1.48665 0
M  V30 4338 C 412.16 -0.0134497 2.02096 0
M  V30 4339 C 412.481 -1.35418 1.40311 0
M  V30 4340 O 411.751 -1.87543 0.566074 0
M  V30 4341 H 410.331 -0.00795915 0.746958 0
M  V30 4342 H 412.993 0.685388 1.82451 0
M  V30 4343 H 412.089 -0.126849 3.11842 0
M  V30 4344 N 412.39 -1.55475 0.257931 0
M  V30 4345 C 413.62 -2.03314 -0.367026 0
M  V30 4346 C 414.028 -1.13625 -1.51281 0
M  V30 4347 O 413.371 -0.145334 -1.83124 0
M  V30 4348 C 413.433 -3.47362 -0.926284 0
M  V30 4349 C 413.097 -4.56914 0.0886584 0
M  V30 4350 C 414.094 -5.12013 0.902123 0
M  V30 4351 C 411.779 -5.01827 0.217936 0
M  V30 4352 C 413.773 -6.10529 1.83122 0
M  V30 4353 C 411.46 -6.00172 1.15052 0
M  V30 4354 C 412.458 -6.54402 1.95568 0
M  V30 4355 O 412.146 -7.50827 2.87253 0
M  V30 4356 H 411.878 -0.669976 -0.0900443 0
M  V30 4357 H 414.432 -2.01804 0.382673 0
M  V30 4358 H 412.662 -3.46056 -1.72575 0
M  V30 4359 H 414.351 -3.78637 -1.46249 0
M  V30 4360 H 415.117 -4.78139 0.812891 0
M  V30 4361 H 410.996 -4.59272 -0.398721 0
M  V30 4362 H 414.54 -6.52783 2.46008 0
M  V30 4363 H 410.437 -6.33465 1.24064 0
M  V30 4364 H 411.205 -7.68483 2.81739 0
M  V30 4365 N 413.868 0.0150385 -1.57593 0
M  V30 4366 C 414.798 1.01047 -2.10503 0
M  V30 4367 C 415.779 1.36816 -1.01071 0
M  V30 4368 O 416.964 1.45455 -1.28672 0
M  V30 4369 C 414.094 2.30708 -2.59598 0
M  V30 4370 C 413.048 2.09142 -3.73421 0
M  V30 4371 C 412.374 3.44685 -4.08774 0
M  V30 4372 C 413.674 1.46619 -5.01298 0
M  V30 4373 H 415.368 0.569978 -2.93925 0
M  V30 4374 H 412.914 0.272724 -1.41394 0
M  V30 4375 H 414.867 3.00687 -2.95238 0
M  V30 4376 H 413.591 2.76843 -1.73279 0
M  V30 4377 H 412.25 1.41592 -3.38153 0
M  V30 4378 H 411.898 3.88495 -3.195 0
M  V30 4379 H 411.598 3.31077 -4.8545 0
M  V30 4380 H 413.122 4.16004 -4.4696 0
M  V30 4381 H 414.536 2.06535 -5.34805 0
M  V30 4382 H 412.933 1.43544 -5.82679 0
M  V30 4383 H 414.003 0.433611 -4.82957 0
M  V30 4384 N 415.346 1.54954 0.287554 0
M  V30 4385 C 416.595 1.74081 1.01877 0
M  V30 4386 C 416.908 0.541135 1.87966 0
M  V30 4387 O 418.114 0.614491 2.64455 0
M  V30 4388 C 416.57 3.08042 1.86113 0
M  V30 4389 C 416.178 4.35531 1.04961 0
M  V30 4390 C 417.922 3.36523 2.58752 0
M  V30 4391 C 415.829 5.60538 1.88551 0
M  V30 4392 H 414.759 0.64884 0.384087 0
M  V30 4393 H 417.41 1.81426 0.275101 0
M  V30 4394 H 415.792 2.94696 2.64519 0
M  V30 4395 H 416.966 4.59751 0.31074 0
M  V30 4396 H 415.281 4.14085 0.43843 0
M  V30 4397 H 417.878 4.27122 3.21668 0
M  V30 4398 H 418.221 2.56 3.28283 0
M  V30 4399 H 418.754 3.50901 1.87386 0
M  V30 4400 H 415.493 6.43767 1.23466 0
M  V30 4401 H 415.013 5.40483 2.60074 0
M  V30 4402 H 416.692 5.98297 2.46273 0
M  V30 4403 N 416.824 -0.551391 1.4764 0
M  V30 4404 C 417.774 -1.65362 1.56969 0
M  V30 4405 C 418.758 -1.55098 0.428189 0
M  V30 4406 O 419.95 -1.63481 0.678441 0
M  V30 4407 C 417.079 -3.04129 1.59249 0
M  V30 4408 C 416.165 -3.19576 2.78804 0
M  V30 4409 N 416.556 -3.05067 4.03445 0
M  V30 4410 C 414.854 -3.50588 2.75688 0
M  V30 4411 C 415.555 -3.2336 4.83543 0
M  V30 4412 N 414.531 -3.4996 4.15968 0
M  V30 4413 H 418.333 -1.52722 2.51104 0
M  V30 4414 H 415.847 -0.756303 1.43714 0
M  V30 4415 H 417.844 -3.83278 1.64024 0
M  V30 4416 H 416.504 -3.17877 0.662148 0
M  V30 4417 H 417.515 -2.82273 4.34215 0
M  V30 4418 H 414.192 -3.70827 1.91817 0
M  V30 4419 H 415.582 -3.17061 5.92387 0
M  V30 4420 N 418.302 -1.35869 -0.798587 0
M  V30 4421 C 419.212 -1.31578 -1.94228 0
M  V30 4422 C 420.228 -0.21939 -1.72611 0
M  V30 4423 O 421.404 -0.450167 -1.96305 0
M  V30 4424 C 418.469 -1.09528 -3.28944 0
M  V30 4425 C 417.53 -2.28556 -3.63402 0
M  V30 4426 C 416.763 -2.07549 -4.9169 0
M  V30 4427 O 416.986 -1.046 -5.60727 0
M  V30 4428 O 415.92 -2.95106 -5.24591 0
M  V30 4429 H 419.746 -2.27847 -2.00796 0
M  V30 4430 H 417.331 -1.16322 -0.937526 0
M  V30 4431 H 419.213 -0.991127 -4.09579 0
M  V30 4432 H 417.888 -0.16315 -3.23289 0
M  V30 4433 H 416.795 -2.44538 -2.83112 0
M  V30 4434 H 418.128 -3.20244 -3.73771 0
M  V30 4435 N 419.78 1.02168 -1.19998 0
M  V30 4436 C 421.005 1.79833 -1.03319 0
M  V30 4437 C 421.43 1.83504 0.413281 0
M  V30 4438 O 420.788 1.26635 1.29743 0
M  V30 4439 C 420.836 3.22396 -1.61533 0
M  V30 4440 O 419.94 4.03555 -0.849519 0
M  V30 4441 H 419.281 0.554872 -0.364709 0
M  V30 4442 H 421.811 1.28542 -1.59179 0
M  V30 4443 H 421.821 3.73124 -1.65054 0
M  V30 4444 H 420.496 3.19039 -2.66809 0
M  V30 4445 H 419.073 3.62169 -0.888129 0
M  V30 4446 N 421.258 1.00505 1.21394 0
M  V30 4447 C 422.221 0.570459 2.21987 0
M  V30 4448 C 423.221 -0.353211 1.56873 0
M  V30 4449 O 424.411 -0.14349 1.73608 0
M  V30 4450 C 421.543 -0.168555 3.40483 0
M  V30 4451 H 422.736 1.46021 2.6195 0
M  V30 4452 H 420.289 0.793565 1.34656 0
M  V30 4453 H 421.024 -1.07374 3.06009 0
M  V30 4454 H 420.809 0.494823 3.88965 0
M  V30 4455 H 422.299 -0.460362 4.15055 0
M  V30 4456 N 422.737 -1.36956 0.779787 0
M  V30 4457 C 423.977 -2.01328 0.353043 0
M  V30 4458 C 424.341 -1.60558 -1.05286 0
M  V30 4459 O 425.542 -2.1745 -1.58016 0
M  V30 4460 C 423.813 -3.53874 0.500822 0
M  V30 4461 S 425.372 -4.38506 0.16053 0
M  V30 4462 H 422.19 -0.69799 0.13539 0
M  V30 4463 H 424.792 -1.67016 1.01617 0
M  V30 4464 H 423.496 -3.81034 1.52451 0
M  V30 4465 H 423.027 -3.92994 -0.178574 0
M  V30 4466 H 425.042 -4.85153 -1.04121 0
M  V30 4467 N 424.215 -0.530993 -1.48385 0
M  V30 4468 C 425.461 -0.00538653 -2.03399 0
M  V30 4469 C 425.816 1.31899 -1.40073 0
M  V30 4470 O 425.109 1.83901 -0.537676 0
M  V30 4471 C 425.303 0.172742 -3.56982 0
M  V30 4472 C 425.132 -1.13282 -4.35198 0
M  V30 4473 C 423.902 -1.69296 -4.76096 0
M  V30 4474 C 426.1 -2.04367 -4.71952 0
M  V30 4475 N 424.082 -2.9413 -5.38851 0
M  V30 4476 C 425.453 -3.13777 -5.34737 0
M  V30 4477 C 427.508 -2.04681 -4.53883 0
M  V30 4478 C 426.211 -4.23567 -5.81363 0
M  V30 4479 C 428.237 -3.13466 -5.01491 0
M  V30 4480 C 427.599 -4.21595 -5.64302 0
M  V30 4481 H 423.698 -0.0434945 -0.780789 0
M  V30 4482 H 426.282 -0.712495 -1.81195 0
M  V30 4483 H 424.453 0.848937 -3.79009 0
M  V30 4484 H 426.185 0.698046 -3.98634 0
M  V30 4485 H 422.94 -1.23422 -4.57235 0
M  V30 4486 H 423.364 -3.57689 -5.74794 0
M  V30 4487 H 428.006 -1.22378 -4.04702 0
M  V30 4488 H 425.724 -5.06648 -6.2955 0
M  V30 4489 H 429.31 -3.14765 -4.893 0
M  V30 4490 H 428.19 -5.04384 -6.00472 0
M  V30 4491 N 425.693 1.55336 -0.266172 0
M  V30 4492 C 426.918 2.04258 0.359661 0
M  V30 4493 C 427.343 1.14359 1.49344 0
M  V30 4494 O 426.701 0.140369 1.80756 0
M  V30 4495 C 426.749 3.50997 0.826635 0
M  V30 4496 O 425.853 3.64204 1.93466 0
M  V30 4497 H 425.194 0.659668 0.075727 0
M  V30 4498 H 427.724 2.00694 -0.39786 0
M  V30 4499 H 427.734 3.9219 1.12477 0
M  V30 4500 H 426.409 4.159 -0.00293032 0
M  V30 4501 H 424.986 3.34913 1.63974 0
M  V30 4502 N 427.171 -0.0066808 1.57599 0
M  V30 4503 C 428.448 -0.729586 1.81484 0
M  V30 4504 C 428.828 -1.92359 0.869558 0
M  V30 4505 O 428.176 -2.28348 -0.0832533 0
M  V30 4506 C 428.386 -1.1416 3.29801 0
M  V30 4507 C 429.734 -1.54823 3.95367 0
M  V30 4508 O 430.758 -1.23558 3.34084 0
M  V30 4509 O 429.617 -2.12937 5.03309 0
M  V30 4510 H 426.711 -0.354674 0.747085 0
M  V30 4511 H 429.257 0.0182609 1.6969 0
M  V30 4512 H 428.029 -0.290231 3.90222 0
M  V30 4513 H 427.652 -1.94876 3.46568 0
M  V30 4514 N 428.649 -1.55105 -0.279332 0
M  V30 4515 C 429.877 -1.7943 -1.03017 0
M  V30 4516 C 430.292 -0.564456 -1.80165 0
M  V30 4517 O 429.649 0.466326 -1.76442 0
M  V30 4518 C 429.7 -3.0155 -1.99374 0
M  V30 4519 O 429.421 -4.19784 -1.25352 0
M  V30 4520 C 430.922 -3.3843 -2.86321 0
M  V30 4521 H 428.142 -0.597882 -0.304594 0
M  V30 4522 H 430.686 -2.02105 -0.312035 0
M  V30 4523 H 428.841 -2.81019 -2.66659 0
M  V30 4524 H 429.255 -4.88781 -1.90246 0
M  V30 4525 H 430.729 -4.27066 -3.49741 0
M  V30 4526 H 431.206 -2.57549 -3.5576 0
M  V30 4527 H 431.812 -3.61197 -2.24536 0
M  V30 4528 N 430.127 0.543554 -1.4793 0
M  V30 4529 C 431.057 1.65888 -1.64327 0
M  V30 4530 C 432.038 1.62818 -0.492383 0
M  V30 4531 O 433.223 1.80226 -0.723338 0
M  V30 4532 C 430.353 3.04506 -1.67013 0
M  V30 4533 C 429.307 3.2243 -2.81466 0
M  V30 4534 C 428.633 4.61972 -2.69233 0
M  V30 4535 C 429.933 3.06496 -4.22915 0
M  V30 4536 H 431.627 1.52421 -2.57698 0
M  V30 4537 H 429.173 0.731849 -1.24016 0
M  V30 4538 H 431.126 3.82391 -1.77074 0
M  V30 4539 H 429.85 3.18964 -0.70212 0
M  V30 4540 H 428.509 2.46957 -2.70938 0
M  V30 4541 H 428.157 4.73247 -1.7043 0
M  V30 4542 H 427.857 4.74911 -3.46025 0
M  V30 4543 H 429.381 5.41974 -2.81242 0
M  V30 4544 H 430.795 3.74186 -4.34348 0
M  V30 4545 H 429.192 3.30938 -5.006 0
M  V30 4546 H 430.262 2.03077 -4.40327 0
M  V30 4547 N 431.605 1.3629 0.791371 0
M  V30 4548 C 432.537 1.26321 1.91248 0
M  V30 4549 C 433.55 0.18313 1.61767 0
M  V30 4550 O 434.739 0.437682 1.73051 0
M  V30 4551 C 431.839 0.925901 3.26007 0
M  V30 4552 C 431.012 2.10746 3.83281 0
M  V30 4553 C 430.071 1.74352 4.96475 0
M  V30 4554 O 429.097 2.46416 5.13096 0
M  V30 4555 N 430.299 0.676058 5.7655 0
M  V30 4556 H 433.064 2.22915 2.00323 0
M  V30 4557 H 430.625 1.29659 0.969546 0
M  V30 4558 H 432.617 0.663636 3.99222 0
M  V30 4559 H 431.187 0.0491581 3.12561 0
M  V30 4560 H 430.407 2.53264 3.02077 0
M  V30 4561 H 431.695 2.8969 4.18279 0
M  V30 4562 H 431.093 0.0776467 5.65647 0
M  V30 4563 H 429.65 0.473612 6.50077 0
M  V30 4564 N 433.083 -1.0153 1.20538 0
M  V30 4565 C 434.499 -1.27461 0.96051 0
M  V30 4566 C 434.699 -1.98273 -0.359193 0
M  V30 4567 O 433.755 -2.27886 -1.0874 0
M  V30 4568 C 435.068 -2.10837 2.14402 0
M  V30 4569 C 436.616 -2.24099 2.18515 0
M  V30 4570 C 437.091 -3.10852 3.36355 0
M  V30 4571 N 438.582 -3.18441 3.36377 0
M  V30 4572 C 439.317 -3.85795 4.24205 0
M  V30 4573 N 438.813 -4.55264 5.22213 0
M  V30 4574 N 440.606 -3.82331 4.12043 0
M  V30 4575 H 432.757 -0.539907 2.05423 0
M  V30 4576 H 435.02 -0.30092 0.898972 0
M  V30 4577 H 434.726 -1.66144 3.09983 0
M  V30 4578 H 434.6 -3.11576 2.12604 0
M  V30 4579 H 436.987 -2.68016 1.23497 0
M  V30 4580 H 437.068 -1.22865 2.24361 0
M  V30 4581 H 436.712 -2.6764 4.31661 0
M  V30 4582 H 436.642 -4.12177 3.27746 0
M  V30 4583 H 439.133 -2.68978 2.65442 0
M  V30 4584 H 439.446 -5.04331 5.85551 0
M  V30 4585 H 437.791 -4.54085 5.26148 0
M  V30 4586 H 440.982 -3.27207 3.34743 0
M  V30 4587 H 441.155 -4.34547 4.807 0
M  V30 4588 N 434.561 -1.01147 -1.20859 0
M  V30 4589 C 435.807 -0.708598 -1.90658 0
M  V30 4590 C 436.162 0.753069 -1.7705 0
M  V30 4591 O 435.455 1.53952 -1.14059 0
M  V30 4592 C 435.649 -1.0727 -3.40922 0
M  V30 4593 C 435.478 -2.56821 -3.69152 0
M  V30 4594 C 434.248 -3.23524 -3.8815 0
M  V30 4595 C 436.446 -3.54997 -3.72131 0
M  V30 4596 N 434.428 -4.62359 -4.03853 0
M  V30 4597 C 435.799 -4.79371 -3.93196 0
M  V30 4598 C 437.854 -3.49042 -3.55069 0
M  V30 4599 C 436.557 -5.98512 -3.98969 0
M  V30 4600 C 438.583 -4.67579 -3.6211 0
M  V30 4601 C 437.945 -5.9076 -3.83643 0
M  V30 4602 H 434.044 -0.31088 -0.71755 0
M  V30 4603 H 436.628 -1.29526 -1.45366 0
M  V30 4604 H 434.799 -0.51443 -3.84978 0
M  V30 4605 H 436.531 -0.723891 -3.98173 0
M  V30 4606 H 433.286 -2.73958 -3.86321 0
M  V30 4607 H 433.71 -5.34427 -4.15592 0
M  V30 4608 H 438.352 -2.54808 -3.37391 0
M  V30 4609 H 436.07 -6.93132 -4.15444 0
M  V30 4610 H 439.656 -4.64581 -3.50222 0
M  V30 4611 H 438.536 -6.8095 -3.88944 0
M  V30 4612 N 436.039 1.36541 -0.78704 0
M  V30 4613 C 437.286 1.99304 -0.358341 0
M  V30 4614 C 437.614 1.62467 1.06933 0
M  V30 4615 O 436.869 0.870019 1.75297 0
M  V30 4616 C 437.168 3.54343 -0.466485 0
M  V30 4617 C 436.834 4.10993 -1.85461 0
M  V30 4618 C 435.496 4.26177 -2.23443 0
M  V30 4619 C 437.848 4.41895 -2.76366 0
M  V30 4620 C 435.176 4.69573 -3.51736 0
M  V30 4621 C 437.528 4.86722 -4.04084 0
M  V30 4622 C 436.192 5.00112 -4.42091 0
M  V30 4623 H 435.462 0.729306 -0.131126 0
M  V30 4624 H 438.109 1.63068 -1.00404 0
M  V30 4625 H 436.414 3.90918 0.262719 0
M  V30 4626 H 438.111 4.00833 -0.115854 0
M  V30 4627 H 434.701 3.99612 -1.54946 0
M  V30 4628 H 438.885 4.29735 -2.48277 0
M  V30 4629 H 434.141 4.78127 -3.81057 0
M  V30 4630 H 438.315 5.09598 -4.7464 0
M  V30 4631 H 435.942 5.33498 -5.41557 0
M  V30 4632 N 437.518 0.538854 1.48102 0
M  V30 4633 C 438.765 0.0080018 2.02498 0
M  V30 4634 C 439.093 -1.33437 1.41509 0
M  V30 4635 O 438.348 -1.87709 0.553507 0
M  V30 4636 C 438.647 -0.153808 3.57069 0
M  V30 4637 C 438.313 1.11533 4.36888 0
M  V30 4638 C 436.975 1.46314 4.58417 0
M  V30 4639 C 439.327 1.95718 4.83057 0
M  V30 4640 C 436.655 2.6516 5.23361 0
M  V30 4641 C 439.007 3.13751 5.49312 0
M  V30 4642 C 437.671 3.48866 5.69077 0
M  V30 4643 H 436.941 0.00292807 0.740994 0
M  V30 4644 H 439.588 0.706668 1.77984 0
M  V30 4645 H 437.893 -0.935309 3.80472 0
M  V30 4646 H 439.59 -0.579607 3.96789 0
M  V30 4647 H 436.18 0.834484 4.20398 0
M  V30 4648 H 440.364 1.70158 4.66219 0
M  V30 4649 H 435.62 2.92558 5.36861 0
M  V30 4650 H 439.794 3.79282 5.84053 0
M  V30 4651 H 437.421 4.41054 6.19173 0
M  V30 4652 N 438.996 -1.55193 0.274407 0
M  V30 4653 C 439.926 -2.25471 -0.607032 0
M  V30 4654 C 440.907 -1.24461 -1.15946 0
M  V30 4655 O 442.092 -1.53179 -1.19373 0
M  V30 4656 C 439.222 -2.97526 -1.79153 0
M  V30 4657 C 438.176 -4.05459 -1.37067 0
M  V30 4658 C 437.502 -4.65084 -2.6382 0
M  V30 4659 C 438.802 -5.19691 -0.521389 0
M  V30 4660 H 440.496 -2.99393 -0.0209343 0
M  V30 4661 H 438.042 -1.43997 -0.00862866 0
M  V30 4662 H 439.995 -3.45402 -2.41404 0
M  V30 4663 H 438.719 -2.21138 -2.40344 0
M  V30 4664 H 437.378 -3.58393 -0.771355 0
M  V30 4665 H 437.026 -3.85365 -3.23268 0
M  V30 4666 H 436.726 -5.37961 -2.36372 0
M  V30 4667 H 438.25 -5.15708 -3.26921 0
M  V30 4668 H 439.664 -5.63623 -1.04889 0
M  V30 4669 H 438.061 -5.99126 -0.341825 0
M  V30 4670 H 439.131 -4.82713 0.46 0
M  V30 4671 N 440.474 -0.00167713 -1.576 0
M  V30 4672 C 441.885 0.54091 -1.78693 0
M  V30 4673 C 442.236 1.7386 -0.909247 0
M  V30 4674 O 441.361 2.16109 -0.112176 0
M  V30 4675 C 441.956 0.98806 -3.24072 0
M  V30 4676 C 440.515 1.47594 -3.46256 0
M  V30 4677 C 439.662 0.42792 -2.73978 0
M  V30 4678 H 442.613 -0.22784 -1.57056 0
M  V30 4679 H 442.634 1.85398 -3.32277 0
M  V30 4680 H 442.146 0.116164 -3.87926 0
M  V30 4681 H 440.247 2.36868 -2.87618 0
M  V30 4682 H 440.36 1.50225 -4.54939 0
M  V30 4683 H 438.724 0.889934 -2.38647 0
M  V30 4684 H 439.507 -0.435038 -3.40532 0
M  V30 4685 N 441.952 1.55251 0.271103 0
M  V30 4686 C 443.368 1.47133 0.618393 0
M  V30 4687 C 443.568 0.686994 1.89427 0
M  V30 4688 O 442.624 0.206609 2.51653 0
M  V30 4689 C 443.937 2.91361 0.743593 0
M  V30 4690 C 445.485 3.01587 0.837522 0
M  V30 4691 C 445.96 4.47073 0.994483 0
M  V30 4692 N 447.451 4.50909 1.05996 0
M  V30 4693 C 448.186 5.60698 1.20024 0
M  V30 4694 N 447.682 6.80348 1.30759 0
M  V30 4695 N 449.475 5.48444 1.23149 0
M  V30 4696 H 441.626 2.04698 -0.566784 0
M  V30 4697 H 443.889 0.928319 -0.192165 0
M  V30 4698 H 443.595 3.51483 -0.123493 0
M  V30 4699 H 443.469 3.40484 1.62328 0
M  V30 4700 H 445.856 2.4156 1.69507 0
M  V30 4701 H 445.937 2.55713 -0.0668086 0
M  V30 4702 H 445.581 5.07703 0.141582 0
M  V30 4703 H 445.511 4.90605 1.91349 0
M  V30 4704 H 448.002 3.6472 0.989316 0
M  V30 4705 H 448.315 7.59772 1.41303 0
M  V30 4706 H 446.66 6.83156 1.27761 0
M  V30 4707 H 449.851 4.53907 1.14394 0
M  V30 4708 H 450.024 6.34049 1.33738 0
M  V30 4709 N 443.43 -0.535701 1.48216 0
M  V30 4710 C 444.846 -0.863701 1.3421 0
M  V30 4711 C 445.046 -1.98458 0.34879 0
M  V30 4712 O 444.102 -2.51432 -0.23204 0
M  V30 4713 C 445.415 -1.23662 2.74095 0
M  V30 4714 C 446.963 -1.34683 2.82541 0
M  V30 4715 C 447.438 -1.75322 4.23115 0
M  V30 4716 N 448.929 -1.82434 4.2576 0
M  V30 4717 C 449.664 -2.15252 5.31464 0
M  V30 4718 N 449.16 -2.46533 6.47452 0
M  V30 4719 N 450.953 -2.16209 5.18855 0
M  V30 4720 H 443.104 0.203965 2.11418 0
M  V30 4721 H 445.367 0.0286033 0.947568 0
M  V30 4722 H 445.073 -0.486674 3.48316 0
M  V30 4723 H 444.947 -2.18805 3.07253 0
M  V30 4724 H 447.334 -2.08756 2.08579 0
M  V30 4725 H 447.415 -0.376756 2.5301 0
M  V30 4726 H 447.059 -1.01812 4.97591 0
M  V30 4727 H 446.989 -2.7337 4.50085 0
M  V30 4728 H 449.48 -1.6056 3.42095 0
M  V30 4729 H 449.793 -2.70662 7.23852 0
M  V30 4730 H 448.138 -2.44065 6.50736 0
M  V30 4731 H 451.329 -1.91224 4.2726 0
M  V30 4732 H 451.502 -2.41453 6.01335 0
M  V30 4733 N 444.908 -1.36708 -0.784132 0
M  V30 4734 C 445.871 -1.31307 -1.87859 0
M  V30 4735 C 446.871 -0.219654 -1.59293 0
M  V30 4736 O 448.061 -0.47476 -1.67606 0
M  V30 4737 C 445.193 -1.03679 -3.24751 0
M  V30 4738 H 446.386 -2.28647 -1.94064 0
M  V30 4739 H 443.939 -1.21558 -0.98252 0
M  V30 4740 H 444.674 -0.0681936 -3.24228 0
M  V30 4741 H 444.459 -1.82811 -3.46876 0
M  V30 4742 H 445.949 -1.02518 -4.04821 0
M  V30 4743 N 446.386 1.0089 -1.21074 0
M  V30 4744 C 447.611 1.78727 -1.05221 0
M  V30 4745 C 448.036 1.83932 0.393795 0
M  V30 4746 O 447.394 1.28004 1.28393 0
M  V30 4747 C 447.442 3.20665 -1.64944 0
M  V30 4748 O 446.546 4.02632 -0.892273 0
M  V30 4749 H 445.887 0.550973 -0.370574 0
M  V30 4750 H 448.417 1.26847 -1.60534 0
M  V30 4751 H 448.427 3.71352 -1.69002 0
M  V30 4752 H 447.102 3.16191 -2.70177 0
M  V30 4753 H 445.679 3.61207 -0.926492 0
M  V30 4754 N 447.864 1.01787 1.20321 0
M  V30 4755 C 448.796 0.547357 2.22568 0
M  V30 4756 C 449.809 -0.370922 1.58518 0
M  V30 4757 O 450.998 -0.169067 1.77698 0
M  V30 4758 C 448.098 -0.223031 3.38165 0
M  V30 4759 C 447.271 0.697472 4.31803 0
M  V30 4760 C 446.33 -0.025562 5.26194 0
M  V30 4761 O 445.356 0.597367 5.66057 0
M  V30 4762 N 446.558 -1.29999 5.65757 0
M  V30 4763 H 449.323 1.42668 2.63564 0
M  V30 4764 H 446.884 0.895552 1.34876 0
M  V30 4765 H 448.876 -0.716002 3.98316 0
M  V30 4766 H 447.446 -1.00366 2.9605 0
M  V30 4767 H 446.666 1.37073 3.69601 0
M  V30 4768 H 447.954 1.32347 4.91286 0
M  V30 4769 H 447.352 -1.827 5.35385 0
M  V30 4770 H 445.909 -1.73766 6.28211 0
M  V30 4771 N 449.342 -1.36122 0.79427 0
M  V30 4772 C 450.252 -2.33769 0.197296 0
M  V30 4773 C 451.268 -1.61276 -0.653153 0
M  V30 4774 O 452.444 -1.9323 -0.5678 0
M  V30 4775 C 449.509 -3.40474 -0.654098 0
M  V30 4776 C 448.57 -4.28759 0.215411 0
M  V30 4777 C 447.803 -5.30368 -0.595443 0
M  V30 4778 O 448.026 -5.40211 -1.83107 0
M  V30 4779 O 446.96 -6.019 0.00721351 0
M  V30 4780 H 450.786 -2.86597 1.00478 0
M  V30 4781 H 448.371 -1.38676 0.555818 0
M  V30 4782 H 450.253 -4.05703 -1.13944 0
M  V30 4783 H 448.928 -2.89937 -1.43938 0
M  V30 4784 H 447.835 -3.66554 0.747615 0
M  V30 4785 H 449.168 -4.82661 0.964332 0
M  V30 4786 N 450.82 -0.546701 -1.47814 0
M  V30 4787 C 452.236 -0.205717 -1.58269 0
M  V30 4788 C 452.436 1.29153 -1.54667 0
M  V30 4789 O 451.492 2.07098 -1.44453 0
M  V30 4790 C 452.805 -0.823065 -2.89216 0
M  V30 4791 C 454.353 -0.793328 -3.02779 0
M  V30 4792 C 454.828 -1.38955 -4.36412 0
M  V30 4793 N 456.319 -1.35227 -4.43021 0
M  V30 4794 C 457.054 -1.78333 -5.44963 0
M  V30 4795 N 456.55 -2.29246 -6.53772 0
M  V30 4796 N 458.343 -1.69467 -5.35945 0
M  V30 4797 H 450.494 -1.5196 -1.48398 0
M  V30 4798 H 452.757 -0.633078 -0.705632 0
M  V30 4799 H 452.463 -1.8749 -2.97558 0
M  V30 4800 H 452.337 -0.309915 -3.75925 0
M  V30 4801 H 454.724 0.249784 -2.94041 0
M  V30 4802 H 454.805 -1.34412 -2.17639 0
M  V30 4803 H 454.449 -2.43168 -4.45906 0
M  V30 4804 H 454.379 -0.814291 -5.20266 0
M  V30 4805 H 456.87 -0.979739 -3.64979 0
M  V30 4806 H 457.183 -2.60089 -7.27718 0
M  V30 4807 H 455.528 -2.3325 -6.5469 0
M  V30 4808 H 458.719 -1.29477 -4.49837 0
M  V30 4809 H 458.892 -2.03381 -6.15256 0
M  V30 4810 N 452.299 1.55045 -0.282633 0
M  V30 4811 C 453.529 2.03872 0.334635 0
M  V30 4812 C 453.937 1.16018 1.49454 0
M  V30 4813 O 453.28 0.174449 1.8287 0
M  V30 4814 C 453.342 3.48791 0.870905 0
M  V30 4815 C 453.006 4.56715 -0.161338 0
M  V30 4816 C 454.003 5.10513 -0.983466 0
M  V30 4817 C 451.688 5.01417 -0.297745 0
M  V30 4818 C 453.682 6.07538 -1.92811 0
M  V30 4819 C 451.369 5.98265 -1.24586 0
M  V30 4820 C 452.367 6.51208 -2.05954 0
M  V30 4821 O 452.055 7.46162 -2.99162 0
M  V30 4822 H 451.787 0.671324 0.0793742 0
M  V30 4823 H 454.341 2.01169 -0.41473 0
M  V30 4824 H 452.571 3.48758 1.67047 0
M  V30 4825 H 454.26 3.80916 1.40207 0
M  V30 4826 H 455.026 4.76785 -0.888856 0
M  V30 4827 H 450.905 4.59849 0.325604 0
M  V30 4828 H 454.449 6.48787 -2.56363 0
M  V30 4829 H 450.346 6.31412 -1.34126 0
M  V30 4830 H 451.114 7.63903 -2.93929 0
M  V30 4831 N 453.777 0.010035 1.57597 0
M  V30 4832 C 455.002 -0.687021 1.95691 0
M  V30 4833 C 455.427 -1.65952 0.885519 0
M  V30 4834 O 454.785 -1.80633 -0.15543 0
M  V30 4835 C 454.833 -1.3864 3.32884 0
M  V30 4836 O 453.937 -2.50115 3.27897 0
M  V30 4837 H 453.278 -0.181989 0.638573 0
M  V30 4838 H 455.808 0.0662122 2.04493 0
M  V30 4839 H 455.818 -1.74754 3.6868 0
M  V30 4840 H 454.493 -0.673411 4.10412 0
M  V30 4841 H 453.07 -2.16253 3.03791 0
M  V30 4842 N 455.255 -1.55392 -0.262866 0
M  V30 4843 C 456.165 -1.92077 -1.34698 0
M  V30 4844 C 457.181 -0.819227 -1.53508 0
M  V30 4845 O 458.357 -1.11921 -1.67439 0
M  V30 4846 C 455.422 -2.19407 -2.68443 0
M  V30 4847 C 454.483 -3.42905 -2.58292 0
M  V30 4848 C 453.716 -3.68921 -3.85659 0
M  V30 4849 O 453.939 -2.97275 -4.8681 0
M  V30 4850 O 452.873 -4.62455 -3.85252 0
M  V30 4851 H 456.699 -2.84384 -1.06581 0
M  V30 4852 H 454.284 -1.42069 -0.462264 0
M  V30 4853 H 456.166 -2.38365 -3.47506 0
M  V30 4854 H 454.841 -1.30282 -2.96325 0
M  V30 4855 H 453.748 -3.29272 -1.7757 0
M  V30 4856 H 455.081 -4.32282 -2.35358 0
M  V30 4857 N 456.733 0.527833 -1.48498 0
M  V30 4858 C 457.68 1.6322 -1.6318 0
M  V30 4859 C 458.65 1.59199 -0.473815 0
M  V30 4860 O 459.835 1.77591 -0.697563 0
M  V30 4861 C 456.975 3.01474 -1.67951 0
M  V30 4862 C 456.088 3.15713 -2.94871 0
M  V30 4863 C 455.223 4.44539 -2.90789 0
M  V30 4864 C 454.262 4.52315 -4.12404 0
M  V30 4865 N 453.399 5.72533 -4.06387 0
M  V30 4866 H 458.239 1.50011 -2.57489 0
M  V30 4867 H 455.776 0.730298 -1.27691 0
M  V30 4868 H 457.734 3.81572 -1.68698 0
M  V30 4869 H 456.364 3.1345 -0.771306 0
M  V30 4870 H 455.416 2.28854 -3.03859 0
M  V30 4871 H 456.728 3.1732 -3.8485 0
M  V30 4872 H 455.882 5.3293 -2.89949 0
M  V30 4873 H 454.621 4.45457 -1.98542 0
M  V30 4874 H 453.626 3.62331 -4.13517 0
M  V30 4875 H 454.851 4.53134 -5.05812 0
M  V30 4876 H 452.797 5.74344 -3.16962 0
M  V30 4877 H 452.714 5.75643 -4.90073 0
M  V30 4878 H 453.982 6.63204 -4.0961 0
M  V30 4879 N 458.211 1.37122 0.776871 0
M  V30 4880 C 459.488 1.22586 1.52421 0
M  V30 4881 C 459.868 -0.182726 2.10308 0
M  V30 4882 O 459.216 -1.18979 1.9508 0
M  V30 4883 C 459.426 2.31782 2.60918 0
M  V30 4884 C 460.774 2.69071 3.2846 0
M  V30 4885 O 461.798 2.3092 2.71209 0
M  V30 4886 O 460.657 3.3478 4.31954 0
M  V30 4887 H 457.751 0.478045 0.674835 0
M  V30 4888 H 460.297 1.48888 0.814275 0
M  V30 4889 H 459.069 3.26131 2.16227 0
M  V30 4890 H 458.692 2.06916 3.39517 0
M  V30 4891 N 459.689 -1.00246 1.21608 0
M  V30 4892 C 460.966 -1.71336 0.943568 0
M  V30 4893 C 461.346 -2.03972 -0.543943 0
M  V30 4894 O 460.694 -1.71545 -1.50946 0
M  V30 4895 C 460.904 -2.97094 1.83128 0
M  V30 4896 C 462.252 -3.70071 2.08165 0
M  V30 4897 O 463.276 -3.07081 1.80498 0
M  V30 4898 O 462.135 -4.83376 2.54971 0
M  V30 4899 H 459.229 -0.747386 0.354039 0
M  V30 4900 H 461.775 -1.05967 1.32549 0
M  V30 4901 H 460.547 -2.69407 2.83788 0
M  V30 4902 H 460.17 -3.70204 1.45034 0
M  V30 4903 N 461.167 -1.02423 -1.1978 0
M  V30 4904 C 462.077 -0.610919 -2.26506 0
M  V30 4905 C 463.093 0.355152 -1.70337 0
M  V30 4906 O 464.269 0.214195 -2.00258 0
M  V30 4907 C 461.334 0.0365921 -3.46681 0
M  V30 4908 C 460.395 -0.976389 -4.18049 0
M  V30 4909 C 459.628 -0.359683 -5.32487 0
M  V30 4910 O 459.851 0.838601 -5.64202 0
M  V30 4911 O 458.785 -1.08022 -5.92127 0
M  V30 4912 H 462.611 -1.49965 -2.64091 0
M  V30 4913 H 460.196 -0.794156 -1.26545 0
M  V30 4914 H 462.078 0.39786 -4.19518 0
M  V30 4915 H 460.753 0.899398 -3.10954 0
M  V30 4916 H 459.66 -1.38916 -3.47352 0
M  V30 4917 H 460.993 -1.80941 -4.57735 0
M  V30 4918 N 462.645 1.35699 -0.801477 0
M  V30 4919 C 464.061 1.52065 -0.484596 0
M  V30 4920 C 464.261 1.75215 0.995084 0
M  V30 4921 O 463.317 1.79061 1.78026 0
M  V30 4922 C 464.63 2.69908 -1.32552 0
M  V30 4923 C 466.178 2.83784 -1.32044 0
M  V30 4924 C 466.653 4.04646 -2.14536 0
M  V30 4925 N 468.144 4.11814 -2.12046 0
M  V30 4926 C 468.879 5.04437 -2.72636 0
M  V30 4927 N 468.375 6.02426 -3.42133 0
M  V30 4928 N 470.168 4.97144 -2.62305 0
M  V30 4929 H 462.319 1.18928 -1.75983 0
M  V30 4930 H 464.582 0.581455 -0.748741 0
M  V30 4931 H 464.288 2.59363 -2.37537 0
M  V30 4932 H 464.162 3.64376 -0.975181 0
M  V30 4933 H 466.549 2.93783 -0.27846 0
M  V30 4934 H 466.63 1.90188 -1.71062 0
M  V30 4935 H 466.274 3.95407 -3.18772 0
M  V30 4936 H 466.204 4.97413 -1.72882 0
M  V30 4937 H 468.695 3.41664 -1.61476 0
M  V30 4938 H 469.008 6.69688 -3.85666 0
M  V30 4939 H 467.353 6.02615 -3.46237 0
M  V30 4940 H 470.544 4.19546 -2.07603 0
M  V30 4941 H 470.717 5.69138 -3.09815 0
M  V30 4942 N 464.123 0.554532 1.47522 0
M  V30 4943 C 465.07 -0.19466 2.29978 0
M  V30 4944 C 466.04 -0.910882 1.38896 0
M  V30 4945 O 467.225 -0.907102 1.67858 0
M  V30 4946 C 464.365 -1.22035 3.22802 0
M  V30 4947 C 463.478 -0.510474 4.28973 0
M  V30 4948 C 462.613 -1.52123 5.08952 0
M  V30 4949 C 461.652 -0.796173 6.069 0
M  V30 4950 N 460.789 -1.75363 6.79847 0
M  V30 4951 H 465.629 0.51461 2.93523 0
M  V30 4952 H 463.166 0.265607 1.44682 0
M  V30 4953 H 465.124 -1.8276 3.7504 0
M  V30 4954 H 463.754 -1.89769 2.61127 0
M  V30 4955 H 462.806 0.211234 3.79813 0
M  V30 4956 H 464.118 0.0576503 4.98767 0
M  V30 4957 H 463.272 -2.20207 5.65326 0
M  V30 4958 H 462.011 -2.12327 4.39054 0
M  V30 4959 H 461.016 -0.101388 5.49707 0
M  V30 4960 H 462.241 -0.199911 6.78806 0
M  V30 4961 H 460.187 -2.3443 6.12682 0
M  V30 4962 H 460.104 -1.23759 7.45801 0
M  V30 4963 H 461.372 -2.4257 7.40797 0
M  V30 4964 N 465.601 -1.54893 0.290851 0
M  V30 4965 C 466.849 -1.99538 -0.320756 0
M  V30 4966 C 467.17 -1.18075 -1.55188 0
M  V30 4967 O 466.44 -0.274162 -1.93972 0
M  V30 4968 H 465.02 -0.737052 -0.121507 0
M  V30 4969 H 467.682 -1.90755 0.399832 0
M  V30 4970 H 466.778 -3.06282 -0.599802 0
M  V30 4971 N 467.08 -0.0183926 -1.57589 0
M  V30 4972 C 468.043 0.951986 -2.08494 0
M  V30 4973 C 469.043 1.26092 -0.997874 0
M  V30 4974 O 470.233 1.20304 -1.25987 0
M  V30 4975 C 467.365 2.27165 -2.54182 0
M  V30 4976 H 468.558 0.511307 -2.95509 0
M  V30 4977 H 466.111 0.229444 -1.54607 0
M  V30 4978 H 466.846 2.75884 -1.70465 0
M  V30 4979 H 466.631 2.06057 -3.33591 0
M  V30 4980 H 468.121 2.9674 -2.93828 0
M  V30 4981 N 468.558 1.5553 0.254621 0
M  V30 4982 C 469.506 1.9048 1.33492 0
M  V30 4983 C 470.5 0.78304 1.50216 0
M  V30 4984 O 471.706 0.967582 1.51782 0
M  V30 4985 H 468.081 0.604846 0.44684 0
M  V30 4986 H 470.052 2.80688 1.01275 0
M  V30 4987 C 468.801 2.20928 2.68489 0
M  V30 4988 H 468.124 3.06742 2.56417 0
M  V30 4989 H 469.564 2.49291 3.42972 0
M  V30 4990 C 468.023 1.023 3.20993 0
M  V30 4991 O 468.553 0.267027 4.00811 0
M  V30 4992 N 466.759 0.815714 2.78917 0
M  V30 4993 H 466.306 1.43217 2.14119 0
M  V30 4994 H 466.264 0.0236532 3.14391 0
M  V30 4995 N 470.036 -0.519951 1.48776 0
M  V30 4996 C 470.966 -1.63253 1.66945 0
M  V30 4997 C 471.947 -1.62014 0.518224 0
M  V30 4998 O 473.132 -1.79053 0.751919 0
M  V30 4999 C 470.262 -3.0181 1.71836 0
M  V30 5000 C 469.216 -3.17911 2.8656 0
M  V30 5001 C 468.542 -4.5763 2.76548 0
M  V30 5002 C 469.842 -2.99729 4.27738 0
M  V30 5003 H 471.536 -1.48302 2.6009 0
M  V30 5004 H 469.082 -0.712026 1.25165 0
M  V30 5005 H 471.035 -3.79525 1.83135 0
M  V30 5006 H 469.759 -3.17806 0.752775 0
M  V30 5007 H 468.418 -2.42616 2.74833 0
M  V30 5008 H 468.066 -4.70476 1.77937 0
M  V30 5009 H 467.766 -4.69346 3.53536 0
M  V30 5010 H 469.29 -5.37431 2.89828 0
M  V30 5011 H 470.704 -3.67228 4.40246 0
M  V30 5012 H 469.101 -3.22932 5.05801 0
M  V30 5013 H 470.171 -1.96047 4.43502 0
M  V30 5014 N 471.514 -1.37532 -0.769588 0
M  V30 5015 C 472.444 -1.36172 -1.89682 0
M  V30 5016 C 473.425 -0.23001 -1.68538 0
M  V30 5017 O 474.61 -0.43069 -1.89364 0
M  V30 5018 C 471.74 -1.1701 -3.26995 0
M  V30 5019 C 470.694 -2.27216 -3.62708 0
M  V30 5020 C 470.02 -1.93174 -4.98586 0
M  V30 5021 C 471.32 -3.6941 -3.69234 0
M  V30 5022 H 473.014 -2.30499 -1.91078 0
M  V30 5023 H 470.56 -1.10953 -0.917902 0
M  V30 5024 H 472.513 -1.14688 -4.05493 0
M  V30 5025 H 471.237 -0.191395 -3.26039 0
M  V30 5026 H 469.896 -2.28697 -2.86519 0
M  V30 5027 H 469.544 -0.938281 -4.94171 0
M  V30 5028 H 469.244 -2.66973 -5.23449 0
M  V30 5029 H 470.768 -1.92443 -5.79481 0
M  V30 5030 H 472.182 -3.70047 -4.37879 0
M  V30 5031 H 470.579 -4.4228 -4.05597 0
M  V30 5032 H 471.649 -4.0288 -2.69844 0
M  V30 5033 N 472.992 0.995999 -1.22138 0
M  V30 5034 C 473.922 2.10387 -1.01289 0
M  V30 5035 C 474.903 1.69975 0.0651454 0
M  V30 5036 O 476.088 1.9396 -0.0964628 0
M  V30 5037 C 473.218 3.42312 -0.586517 0
M  V30 5038 C 472.172 3.96558 -1.61014 0
M  V30 5039 C 471.498 5.24494 -1.0397 0
M  V30 5040 C 472.798 4.27595 -2.99933 0
M  V30 5041 H 474.492 2.28086 -1.93951 0
M  V30 5042 H 472.038 1.09607 -0.933928 0
M  V30 5043 H 473.991 4.19223 -0.427793 0
M  V30 5044 H 472.715 3.24431 0.375761 0
M  V30 5045 H 471.374 3.21776 -1.75658 0
M  V30 5046 H 471.022 5.02953 -0.0688703 0
M  V30 5047 H 470.722 5.61755 -1.72352 0
M  V30 5048 H 472.246 6.04042 -0.892494 0
M  V30 5049 H 473.66 4.95315 -2.8868 0
M  V30 5050 H 472.057 4.76021 -3.6541 0
M  V30 5051 H 473.127 3.35498 -3.50099 0
M  V30 5052 N 474.47 1.03057 1.19235 0
M  V30 5053 C 475.695 0.74757 1.93458 0
M  V30 5054 C 476.12 -0.687648 1.7508 0
M  V30 5055 O 475.478 -1.47499 1.05422 0
M  V30 5056 C 475.526 1.10604 3.43219 0
M  V30 5057 O 474.63 0.225671 4.11782 0
M  V30 5058 H 473.971 0.276047 0.603899 0
M  V30 5059 H 476.501 1.3777 1.51263 0
M  V30 5060 H 476.511 1.06366 3.93891 0
M  V30 5061 H 475.186 2.15165 3.55917 0
M  V30 5062 H 473.763 0.326795 3.71465 0
M  V30 5063 N 475.948 -1.35272 0.808662 0
M  V30 5064 C 476.911 -2.28082 0.226093 0
M  V30 5065 C 477.911 -1.49673 -0.587762 0
M  V30 5066 O 479.101 -1.69404 -0.405943 0
M  V30 5067 C 476.233 -3.33955 -0.684596 0
M  V30 5068 H 477.426 -2.81116 1.04469 0
M  V30 5069 H 474.979 -1.45162 0.579466 0
M  V30 5070 H 475.714 -2.86111 -1.5268 0
M  V30 5071 H 475.499 -3.91965 -0.102699 0
M  V30 5072 H 476.989 -4.03219 -1.08646 0
M  V30 5073 N 477.426 -0.562348 -1.47226 0
M  V30 5074 C 478.651 -0.0432632 -2.07355 0
M  V30 5075 C 479.076 1.24332 -1.41149 0
M  V30 5076 O 478.434 1.74603 -0.488226 0
M  V30 5077 C 478.482 0.130288 -3.60365 0
M  V30 5078 O 477.586 1.19166 -3.94808 0
M  V30 5079 H 476.927 -0.0536334 -0.66183 0
M  V30 5080 H 479.457 -0.779495 -1.89169 0
M  V30 5081 H 479.467 0.342881 -4.06557 0
M  V30 5082 H 478.142 -0.809389 -4.07948 0
M  V30 5083 H 476.719 0.959153 -3.60354 0
M  V30 5084 N 478.904 1.54736 -0.299062 0
M  V30 5085 C 480.315 1.8569 0.193971 0
M  V30 5086 C 480.666 1.22101 1.53577 0
M  V30 5087 O 479.791 0.51799 2.10109 0
M  V30 5088 C 480.386 3.36895 0.358733 0
M  V30 5089 C 478.945 3.67887 0.795986 0
M  V30 5090 C 478.092 2.77131 -0.096807 0
M  V30 5091 H 481.043 1.49934 -0.520134 0
M  V30 5092 H 481.064 3.61294 1.19361 0
M  V30 5093 H 480.576 3.83148 -0.617998 0
M  V30 5094 H 478.677 3.27151 1.78334 0
M  V30 5095 H 478.79 4.75114 0.616718 0
M  V30 5096 H 477.154 2.51153 0.423581 0
M  V30 5097 H 477.937 3.26204 -1.06986 0
M  V30 5098 N 480.382 0.0267497 1.57577 0
M  V30 5099 C 481.659 -0.690926 1.82991 0
M  V30 5100 C 482.039 -1.90471 0.910164 0
M  V30 5101 O 481.387 -2.28474 -0.0347985 0
M  V30 5102 C 481.597 -1.07139 3.32148 0
M  V30 5103 C 482.945 -1.46402 3.98562 0
M  V30 5104 O 483.969 -1.16443 3.36629 0
M  V30 5105 O 482.828 -2.02214 5.07712 0
M  V30 5106 H 479.922 -0.338747 0.75444 0
M  V30 5107 H 482.468 0.0542506 1.69613 0
M  V30 5108 H 481.24 -0.207394 3.9075 0
M  V30 5109 H 480.863 -1.87481 3.50623 0
M  V30 5110 N 481.861 -1.55662 -0.24637 0
M  V30 5111 C 483.108 -1.77519 -0.974335 0
M  V30 5112 C 483.436 -0.591165 -1.85298 0
M  V30 5113 O 482.691 0.425497 -1.91018 0
M  V30 5114 C 482.99 -3.04885 -1.86494 0
M  V30 5115 C 482.656 -4.36209 -1.14161 0
M  V30 5116 C 481.318 -4.71896 -0.941701 0
M  V30 5117 C 483.67 -5.17391 -0.628957 0
M  V30 5118 C 480.998 -5.86299 -0.216852 0
M  V30 5119 C 483.35 -6.32546 0.0824273 0
M  V30 5120 C 482.014 -6.66853 0.293807 0
M  V30 5121 H 481.284 -0.649588 -0.356535 0
M  V30 5122 H 483.931 -1.89934 -0.244394 0
M  V30 5123 H 482.236 -2.87484 -2.66196 0
M  V30 5124 H 483.933 -3.18994 -2.42989 0
M  V30 5125 H 480.523 -4.08174 -1.30736 0
M  V30 5126 H 484.707 -4.90276 -0.770943 0
M  V30 5127 H 479.963 -6.11385 -0.0426124 0
M  V30 5128 H 484.137 -6.94693 0.487292 0
M  V30 5129 H 481.764 -7.55349 0.857428 0
M  V30 5130 N 483.339 0.512053 -1.4905 0
M  V30 5131 C 484.587 1.26436 -1.57665 0
M  V30 5132 C 484.908 1.93255 -0.260293 0
M  V30 5133 O 484.178 1.82206 0.719564 0
M  V30 5134 H 482.758 0.469658 -0.580888 0
M  V30 5135 H 485.42 0.594398 -1.85615 0
M  V30 5136 H 484.516 2.03417 -2.36702 0
M  V30 5137 N 484.817 1.37938 0.762283 0
M  V30 5138 C 486.094 1.24196 1.51112 0
M  V30 5139 C 486.474 -0.160409 2.1049 0
M  V30 5140 O 485.822 -1.16904 1.96331 0
M  V30 5141 C 486.032 2.34537 2.58445 0
M  V30 5142 C 487.38 2.7254 3.25588 0
M  V30 5143 O 488.404 2.33783 2.68745 0
M  V30 5144 O 487.263 3.39343 4.28379 0
M  V30 5145 H 484.357 0.485175 0.669727 0
M  V30 5146 H 486.903 1.49743 0.798438 0
M  V30 5147 H 485.675 3.28406 2.12756 0
M  V30 5148 H 485.298 2.10505 3.37303 0
M  V30 5149 N 486.295 -0.989507 1.22664 0
M  V30 5150 C 487.544 -1.72375 1.04737 0
M  V30 5151 C 487.857 -1.91096 -0.417316 0
M  V30 5152 O 489.063 -2.6188 -0.716334 0
M  V30 5153 C 487.519 -3.10161 1.82561 0
M  V30 5154 C 487.127 -2.99358 3.333 0
M  V30 5155 C 488.871 -3.87607 1.73093 0
M  V30 5156 C 486.778 -4.32319 4.03552 0
M  V30 5157 H 485.708 -0.646326 0.388302 0
M  V30 5158 H 488.359 -1.10437 1.46546 0
M  V30 5159 H 486.741 -3.728 1.33552 0
M  V30 5160 H 487.915 -2.45863 3.89728 0
M  V30 5161 H 486.23 -2.35392 3.43481 0
M  V30 5162 H 488.827 -4.86025 2.22899 0
M  V30 5163 H 489.17 -4.10509 0.691976 0
M  V30 5164 H 489.703 -3.31652 2.19663 0
M  V30 5165 H 486.442 -4.14616 5.07714 0
M  V30 5166 H 485.962 -4.85714 3.51911 0
M  V30 5167 H 487.641 -5.01051 4.09337 0
M  V30 5168 N 487.773 -1.03688 -1.18687 0
M  V30 5169 C 488.736 -0.629115 -2.20397 0
M  V30 5170 C 489.736 0.311495 -1.57754 0
M  V30 5171 O 490.926 0.0974107 -1.73927 0
M  V30 5172 C 488.058 0.0782231 -3.4081 0
M  V30 5173 H 489.251 -1.52915 -2.57987 0
M  V30 5174 H 486.804 -0.828988 -1.32505 0
M  V30 5175 H 487.539 0.992233 -3.08748 0
M  V30 5176 H 487.324 -0.597776 -3.87517 0
M  V30 5177 H 488.814 0.350156 -4.16129 0
M  V30 5178 N 489.251 1.34841 -0.815825 0
M  V30 5179 C 490.497 1.98793 -0.401129 0
M  V30 5180 C 490.83 1.64548 1.03139 0
M  V30 5181 O 490.105 0.913487 1.71714 0
M  V30 5182 C 490.388 3.55143 -0.595409 0
M  V30 5183 C 490.241 3.99155 -2.07352 0
M  V30 5184 C 491.56 4.40092 -0.0268823 0
M  V30 5185 H 488.679 0.722146 -0.14722 0
M  V30 5186 H 491.321 1.59847 -1.02707 0
M  V30 5187 H 489.471 3.8845 -0.0625779 0
M  V30 5188 H 491.143 3.76216 -2.66945 0
M  V30 5189 H 489.386 3.49726 -2.56659 0
M  V30 5190 H 490.057 5.07971 -2.1603 0
M  V30 5191 H 492.533 4.13298 -0.482042 0
M  V30 5192 H 491.409 5.48562 -0.19267 0
M  V30 5193 H 491.67 4.29016 1.06759 0
M  V30 5194 N 490.729 0.570148 1.46925 0
M  V30 5195 C 491.954 0.0542592 2.07329 0
M  V30 5196 C 492.379 -1.23582 1.41806 0
M  V30 5197 O 491.737 -1.74341 0.497479 0
M  V30 5198 C 491.785 -0.111175 3.60429 0
M  V30 5199 O 490.889 -1.17071 3.95434 0
M  V30 5200 H 490.23 0.0571425 0.661537 0
M  V30 5201 H 492.76 0.789516 1.88753 0
M  V30 5202 H 492.77 -0.321315 4.06733 0
M  V30 5203 H 491.445 0.831012 4.07513 0
M  V30 5204 H 490.022 -0.940029 3.60857 0
M  V30 5205 N 492.207 -1.54576 0.307264 0
M  V30 5206 C 493.157 -2.20467 -0.581249 0
M  V30 5207 C 494.141 -1.17972 -1.09414 0
M  V30 5208 O 495.333 -1.43667 -1.03387 0
M  V30 5209 C 492.462 -2.95369 -1.74963 0
M  V30 5210 C 491.548 -4.05186 -1.25241 0
M  V30 5211 N 491.939 -5.03577 -0.47364 0
M  V30 5212 C 490.237 -4.18841 -1.53259 0
M  V30 5213 C 490.938 -5.81328 -0.208083 0
M  V30 5214 N 489.914 -5.37834 -0.789651 0
M  V30 5215 H 493.716 -2.93892 0.0212221 0
M  V30 5216 H 491.23 -1.62011 0.112325 0
M  V30 5217 H 493.227 -3.41046 -2.39777 0
M  V30 5218 H 491.887 -2.23461 -2.35574 0
M  V30 5219 H 492.898 -5.17766 -0.117963 0
M  V30 5220 H 489.575 -3.58141 -2.14573 0
M  V30 5221 H 490.965 -6.706 0.417793 0
M  V30 5222 N 493.685 -0.035106 -1.57561 0
M  V30 5223 C 494.931 0.64318 -1.92331 0
M  V30 5224 C 495.264 1.71434 -0.912368 0
M  V30 5225 O 494.539 1.94395 0.0640303 0
M  V30 5226 C 494.822 1.25411 -3.37556 0
M  V30 5227 C 494.675 0.192109 -4.4939 0
M  V30 5228 C 495.994 2.17041 -3.82859 0
M  V30 5229 H 493.113 0.232341 -0.699419 0
M  V30 5230 H 495.755 -0.0935889 -1.89769 0
M  V30 5231 H 493.905 1.88205 -3.39869 0
M  V30 5232 H 495.577 -0.438849 -4.59208 0
M  V30 5233 H 493.82 -0.481725 -4.31117 0
M  V30 5234 H 494.491 0.659292 -5.48049 0
M  V30 5235 H 496.967 1.64228 -3.8232 0
M  V30 5236 H 495.843 2.56738 -4.85157 0
M  V30 5237 H 496.104 3.06401 -3.18702 0
M  V30 5238 N 495.163 1.55791 0.238111 0
M  V30 5239 C 496.411 1.77681 0.963001 0
M  V30 5240 C 496.732 0.600674 1.85518 0
M  V30 5241 O 496.002 -0.383182 1.92116 0
M  V30 5242 H 494.582 0.655315 0.358568 0
M  V30 5243 H 497.244 1.93239 0.253945 0
M  V30 5244 H 496.34 2.69177 1.57956 0
M  V30 5245 N 496.642 -0.504142 1.49319 0
M  V30 5246 C 497.605 -1.5883 1.65244 0
M  V30 5247 C 498.605 -1.52009 0.524386 0
M  V30 5248 O 499.795 -1.55218 0.79077 0
M  V30 5249 C 496.927 -2.98481 1.64687 0
M  V30 5250 H 498.12 -1.4604 2.61939 0
M  V30 5251 H 495.673 -0.728144 1.38303 0
M  V30 5252 H 496.408 -3.16751 0.695644 0
M  V30 5253 H 496.193 -3.0484 2.46607 0
M  V30 5254 H 497.683 -3.77256 1.79075 0
M  V30 5255 N 498.12 -1.38341 -0.754957 0
M  V30 5256 C 499.366 -1.34672 -1.51628 0
M  V30 5257 C 499.699 0.0636036 -1.94096 0
M  V30 5258 O 498.974 1.0245 -1.6533 0
M  V30 5259 C 499.257 -2.30116 -2.76981 0
M  V30 5260 C 499.11 -3.80003 -2.4066 0
M  V30 5261 C 500.429 -2.23715 -3.78998 0
M  V30 5262 H 497.548 -0.490517 -0.550056 0
M  V30 5263 H 500.19 -1.69178 -0.864807 0
M  V30 5264 H 498.34 -2.00821 -3.3257 0
M  V30 5265 H 500.012 -4.19966 -1.90856 0
M  V30 5266 H 498.255 -3.97751 -1.73137 0
M  V30 5267 H 498.926 -4.42244 -3.30339 0
M  V30 5268 H 501.402 -2.49574 -3.32945 0
M  V30 5269 H 500.278 -2.9261 -4.64403 0
M  V30 5270 H 500.539 -1.23554 -4.24484 0
M  V30 5271 N 499.598 0.982988 -1.23187 0
M  V30 5272 C 500.844 1.72648 -1.06398 0
M  V30 5273 C 501.177 1.90066 0.398561 0
M  V30 5274 O 500.452 1.45105 1.29518 0
M  V30 5275 C 500.735 3.12627 -1.78707 0
M  V30 5276 C 500.588 3.02795 -3.32618 0
M  V30 5277 C 501.907 4.11997 -1.54747 0
M  V30 5278 H 499.026 0.626649 -0.387918 0
M  V30 5279 H 501.668 1.14455 -1.51658 0
M  V30 5280 H 499.818 3.62308 -1.40234 0
M  V30 5281 H 501.49 2.60659 -3.80598 0
M  V30 5282 H 499.733 2.39362 -3.61785 0
M  V30 5283 H 500.404 4.01893 -3.78399 0
M  V30 5284 H 502.88 3.71114 -1.88186 0
M  V30 5285 H 501.756 5.08037 -2.07821 0
M  V30 5286 H 502.017 4.39462 -0.482249 0
M  V30 5287 N 501.076 1.04316 1.18135 0
M  V30 5288 C 502.487 0.775505 1.69832 0
M  V30 5289 C 502.838 -0.703348 1.8316 0
M  V30 5290 O 501.963 -1.54729 1.51287 0
M  V30 5291 C 502.558 1.40112 3.0847 0
M  V30 5292 C 501.117 1.18172 3.57368 0
M  V30 5293 C 500.264 1.49022 2.33854 0
M  V30 5294 H 503.215 1.20925 1.02775 0
M  V30 5295 H 503.236 0.805672 3.71873 0
M  V30 5296 H 502.748 2.47744 2.98738 0
M  V30 5297 H 500.849 0.124258 3.72393 0
M  V30 5298 H 500.962 1.8805 4.40652 0
M  V30 5299 H 499.326 0.909995 2.37889 0
M  V30 5300 H 500.109 2.57768 2.26738 0
M  V30 5301 N 502.554 -1.34406 0.822964 0
M  V30 5302 C 503.782 -2.02508 0.424039 0
M  V30 5303 C 504.197 -1.61975 -0.970022 0
M  V30 5304 O 503.554 -0.825228 -1.62777 0
M  V30 5305 C 503.605 -3.57789 0.516657 0
M  V30 5306 O 503.326 -3.96853 1.85577 0
M  V30 5307 C 504.827 -4.43157 0.112637 0
M  V30 5308 H 502.047 -0.649063 0.170173 0
M  V30 5309 H 504.591 -1.7168 1.11113 0
M  V30 5310 H 502.746 -3.87207 -0.122353 0
M  V30 5311 H 503.16 -4.91538 1.83005 0
M  V30 5312 H 504.634 -5.51527 0.228526 0
M  V30 5313 H 505.111 -4.28939 -0.943837 0
M  V30 5314 H 505.717 -4.19067 0.725449 0
M  V30 5315 N 504.032 -0.577932 -1.46621 0
M  V30 5316 C 504.982 0.178869 -2.27297 0
M  V30 5317 C 505.966 0.866279 -1.35589 0
M  V30 5318 O 507.158 0.761163 -1.59798 0
M  V30 5319 C 504.287 1.19499 -3.2183 0
M  V30 5320 C 503.373 0.50994 -4.21023 0
M  V30 5321 N 503.764 -0.43177 -5.03954 0
M  V30 5322 C 502.062 0.761287 -4.39455 0
M  V30 5323 C 502.763 -0.831693 -5.75724 0
M  V30 5324 N 501.739 -0.181897 -5.43296 0
M  V30 5325 H 505.541 -0.544859 -2.88805 0
M  V30 5326 H 503.055 -0.399373 -1.57413 0
M  V30 5327 H 505.052 1.75131 -3.78332 0
M  V30 5328 H 503.712 1.91959 -2.61881 0
M  V30 5329 H 504.723 -0.807045 -5.11573 0
M  V30 5330 H 501.4 1.47282 -3.90659 0
M  V30 5331 H 502.79 -1.6067 -6.52407 0
M  V30 5332 N 505.51 1.54411 -0.315457 0
M  V30 5333 C 506.758 2.00023 0.288971 0
M  V30 5334 C 507.079 1.20529 1.5329 0
M  V30 5335 O 506.349 0.304986 1.93511 0
M  V30 5336 H 504.929 0.738891 0.109766 0
M  V30 5337 H 507.591 1.90094 -0.430129 0
M  V30 5338 H 506.687 3.07198 0.550999 0
M  V30 5339 N 506.988 0.0434614 1.5754 0
M  V30 5340 C 508.235 -0.632035 1.92384 0
M  V30 5341 C 508.563 -1.71304 0.921157 0
M  V30 5342 O 507.818 -1.95583 -0.067744 0
M  V30 5343 C 508.117 -1.2738 3.3393 0
M  V30 5344 C 507.783 -0.321757 4.49751 0
M  V30 5345 C 506.445 -0.0597611 4.81163 0
M  V30 5346 C 508.797 0.331158 5.20147 0
M  V30 5347 C 506.125 0.862715 5.80322 0
M  V30 5348 C 508.477 1.24178 6.20292 0
M  V30 5349 C 507.141 1.51252 6.50138 0
M  V30 5350 H 506.411 -0.231278 0.703983 0
M  V30 5351 H 509.058 0.108294 1.91194 0
M  V30 5352 H 507.363 -2.08921 3.3145 0
M  V30 5353 H 509.06 -1.80326 3.58167 0
M  V30 5354 H 505.65 -0.53614 4.25233 0
M  V30 5355 H 509.834 0.141826 4.96097 0
M  V30 5356 H 505.09 1.08003 6.01785 0
M  V30 5357 H 509.264 1.75381 6.73954 0
M  V30 5358 H 506.891 2.22897 7.26788 0
M  V30 5359 N 508.466 -1.55915 -0.229846 0
M  V30 5360 C 509.691 -1.8296 -0.976743 0
M  V30 5361 C 510.116 -0.622735 -1.77493 0
M  V30 5362 O 509.474 0.428431 -1.76165 0
M  V30 5363 C 509.522 -3.07916 -1.8767 0
M  V30 5364 O 508.626 -2.86028 -2.97088 0
M  V30 5365 H 507.967 -0.603453 -0.277021 0
M  V30 5366 H 510.497 -2.0312 -0.245669 0
M  V30 5367 H 510.507 -3.37802 -2.2881 0
M  V30 5368 H 509.182 -3.95389 -1.28996 0
M  V30 5369 H 507.759 -2.67355 -2.59954 0
M  V30 5370 N 509.944 0.496216 -1.49584 0
M  V30 5371 C 511.169 1.27865 -1.63295 0
M  V30 5372 C 511.594 1.85592 -0.306156 0
M  V30 5373 O 510.952 1.66092 0.726851 0
M  V30 5374 C 511 2.38128 -2.7079 0
M  V30 5375 O 510.104 3.42108 -2.30296 0
M  V30 5376 H 509.445 0.377279 -0.546403 0
M  V30 5377 H 511.975 0.593497 -1.95803 0
M  V30 5378 H 511.985 2.8382 -2.93104 0
M  V30 5379 H 510.66 1.95479 -3.67098 0
M  V30 5380 H 509.237 3.02301 -2.18331 0
M  V30 5381 N 511.423 1.38739 0.74761 0
M  V30 5382 C 512.67 1.35274 1.50689 0
M  V30 5383 C 512.998 -0.0553359 1.94421 0
M  V30 5384 O 512.253 -1.03365 1.66175 0
M  V30 5385 C 512.552 2.25992 2.7688 0
M  V30 5386 C 512.218 3.73854 2.5208 0
M  V30 5387 C 510.88 4.14145 2.45025 0
M  V30 5388 C 513.232 4.67427 2.30568 0
M  V30 5389 C 510.56 5.4609 2.14483 0
M  V30 5390 C 512.912 5.99635 2.01545 0
M  V30 5391 C 511.576 6.39004 1.92951 0
M  V30 5392 H 510.846 0.495003 0.55141 0
M  V30 5393 H 513.493 1.71145 0.859158 0
M  V30 5394 H 511.798 1.83196 3.46333 0
M  V30 5395 H 513.495 2.20611 3.34861 0
M  V30 5396 H 510.085 3.41913 2.58444 0
M  V30 5397 H 514.269 4.3714 2.34994 0
M  V30 5398 H 509.525 5.75528 2.06342 0
M  V30 5399 H 513.699 6.71678 1.83906 0
M  V30 5400 H 511.326 7.41165 1.6905 0
M  V30 5401 N 512.901 -0.976442 1.23707 0
M  V30 5402 C 513.848 -2.06952 1.02174 0
M  V30 5403 C 514.818 -1.65984 -0.0621034 0
M  V30 5404 O 516.003 -1.90584 0.0907906 0
M  V30 5405 C 513.143 -3.39425 0.62327 0
M  V30 5406 C 512.256 -3.9364 1.77966 0
M  V30 5407 C 511.391 -5.14343 1.3276 0
M  V30 5408 C 510.43 -5.60733 2.45449 0
M  V30 5409 N 509.567 -6.72662 2.01172 0
M  V30 5410 H 514.407 -2.24704 1.95734 0
M  V30 5411 H 511.944 -1.10143 0.975034 0
M  V30 5412 H 513.902 -4.15526 0.37332 0
M  V30 5413 H 512.532 -3.21624 -0.275329 0
M  V30 5414 H 511.584 -3.14258 2.14351 0
M  V30 5415 H 512.896 -4.24035 2.62671 0
M  V30 5416 H 512.05 -5.97789 1.03601 0
M  V30 5417 H 510.789 -4.8561 0.450975 0
M  V30 5418 H 509.794 -4.75865 2.75378 0
M  V30 5419 H 511.019 -5.91483 3.33654 0
M  V30 5420 H 508.965 -6.45681 1.15895 0
M  V30 5421 H 508.882 -7.02462 2.79434 0
M  V30 5422 H 510.15 -7.59572 1.75129 0
M  V30 5423 N 514.379 -1.04941 -1.1758 0
M  V30 5424 C 515.626 -0.757989 -1.87779 0
M  V30 5425 C 515.954 0.714827 -1.80888 0
M  V30 5426 O 515.209 1.53824 -1.20982 0
M  V30 5427 C 515.508 -1.18062 -3.37337 0
M  V30 5428 C 515.174 -2.65521 -3.6443 0
M  V30 5429 C 513.836 -3.05804 -3.71534 0
M  V30 5430 C 516.188 -3.60822 -3.76108 0
M  V30 5431 C 513.516 -4.40256 -3.87803 0
M  V30 5432 C 515.868 -4.95005 -3.93895 0
M  V30 5433 C 514.532 -5.34945 -3.99237 0
M  V30 5434 H 513.802 -0.277368 -0.68713 0
M  V30 5435 H 516.449 -1.31603 -1.39115 0
M  V30 5436 H 514.754 -0.541525 -3.8804 0
M  V30 5437 H 516.451 -0.932368 -3.9001 0
M  V30 5438 H 513.041 -2.33324 -3.59524 0
M  V30 5439 H 517.225 -3.30841 -3.69943 0
M  V30 5440 H 512.481 -4.70707 -3.90186 0
M  V30 5441 H 516.655 -5.68746 -4.01872 0
M  V30 5442 H 514.282 -6.39135 -4.11596 0
M  V30 5443 N 515.857 1.33968 -0.830081 0
M  V30 5444 C 517.106 1.97323 -0.417928 0
M  V30 5445 C 517.419 1.6652 1.02618 0
M  V30 5446 O 518.625 2.2342 1.54259 0
M  V30 5447 C 517.081 3.53099 -0.696359 0
M  V30 5448 C 516.689 3.92788 -2.15457 0
M  V30 5449 C 518.433 4.23049 -0.350724 0
M  V30 5450 C 516.34 5.41506 -2.37751 0
M  V30 5451 H 515.27 0.738409 -0.152541 0
M  V30 5452 H 517.921 1.52711 -1.01744 0
M  V30 5453 H 516.303 3.95991 -0.0265904 0
M  V30 5454 H 517.477 3.6098 -2.86408 0
M  V30 5455 H 515.792 3.35795 -2.46232 0
M  V30 5456 H 518.389 5.32403 -0.495036 0
M  V30 5457 H 518.732 4.10279 0.705476 0
M  V30 5458 H 519.265 3.85657 -0.975362 0
M  V30 5459 H 516.004 5.5927 -3.41903 0
M  V30 5460 H 515.524 5.74804 -1.7135 0
M  V30 5461 H 517.203 6.0828 -2.20465 0
M  V30 5462 N 517.335 0.585699 1.46312 0
M  V30 5463 C 518.746 0.159938 1.86014 0
M  V30 5464 C 519.097 -1.27775 1.48889 0
M  V30 5465 O 518.222 -1.96559 0.90519 0
M  V30 5466 C 518.817 0.283485 3.37612 0
M  V30 5467 C 517.376 -0.0874256 3.76298 0
M  V30 5468 C 516.523 0.618055 2.70325 0
M  V30 5469 H 519.474 0.793737 1.37425 0
M  V30 5470 H 519.495 -0.490348 3.77327 0
M  V30 5471 H 519.007 1.32995 3.64601 0
M  V30 5472 H 517.108 -1.13391 3.54927 0
M  V30 5473 H 517.221 0.290975 4.78216 0
M  V30 5474 H 515.585 0.057993 2.54634 0
M  V30 5475 H 516.368 1.66623 3.00153 0
M  V30 5476 N 518.813 -1.54241 0.323641 0
M  V30 5477 C 519.761 -2.25813 -0.557804 0
M  V30 5478 C 520.755 -1.27225 -1.11849 0
M  V30 5479 O 521.961 -1.45001 -1.06652 0
M  V30 5480 H 518.336 -0.72532 -0.198532 0
M  V30 5481 H 520.307 -2.98322 0.0681112 0
M  V30 5482 C 519.056 -3.02913 -1.70701 0
M  V30 5483 H 518.379 -3.78593 -1.28482 0
M  V30 5484 H 519.819 -3.56238 -2.29935 0
M  V30 5485 C 518.278 -2.11217 -2.62467 0
M  V30 5486 O 518.808 -1.69508 -3.64184 0
M  V30 5487 N 517.014 -1.76704 -2.30703 0
M  V30 5488 H 516.561 -2.1082 -1.48029 0
M  V30 5489 H 516.519 -1.15631 -2.92364 0
M  V30 5490 N 520.291 -0.0518155 -1.57515 0
M  V30 5491 C 521.519 0.631395 -1.9703 0
M  V30 5492 C 521.934 1.64341 -0.92938 0
M  V30 5493 O 521.291 1.82296 0.0863266 0
M  V30 5494 C 521.342 1.31774 -3.36627 0
M  V30 5495 O 521.063 0.346247 -4.3673 0
M  V30 5496 C 522.564 2.09065 -3.90905 0
M  V30 5497 H 519.784 0.172576 -0.648428 0
M  V30 5498 H 522.328 -0.118306 -2.04158 0
M  V30 5499 H 520.483 2.01867 -3.30649 0
M  V30 5500 H 520.897 0.836226 -5.17791 0
M  V30 5501 H 522.371 2.52508 -4.9086 0
M  V30 5502 H 522.848 2.93908 -3.26366 0
M  V30 5503 H 523.454 1.43882 -4.00223 0
M  V30 5504 N 521.769 1.56035 0.221574 0
M  V30 5505 C 523.046 1.69837 0.970301 0
M  V30 5506 C 523.426 0.599065 2.02421 0
M  V30 5507 O 522.774 -0.393929 2.25079 0
M  V30 5508 C 522.984 3.11148 1.58076 0
M  V30 5509 C 524.332 3.70555 2.07302 0
M  V30 5510 O 525.356 3.14109 1.6797 0
M  V30 5511 O 524.215 4.69562 2.79596 0
M  V30 5512 H 521.309 0.691727 0.453257 0
M  V30 5513 H 523.855 1.68353 0.213358 0
M  V30 5514 H 522.627 3.82617 0.819759 0
M  V30 5515 H 522.25 3.16749 2.40324 0
M  V30 5516 N 523.247 -0.488276 1.49845 0
M  V30 5517 C 524.524 -1.24959 1.50481 0
M  V30 5518 C 524.904 -2.09735 0.239698 0
M  V30 5519 O 524.252 -2.14865 -0.777524 0
M  V30 5520 C 524.462 -2.0954 2.79095 0
M  V30 5521 C 525.81 -2.68305 3.29086 0
M  V30 5522 O 526.834 -2.19797 2.80299 0
M  V30 5523 O 525.693 -3.56643 4.14087 0
M  V30 5524 H 522.787 -0.566133 0.602845 0
M  V30 5525 H 525.333 -0.501504 1.6212 0
M  V30 5526 H 524.105 -1.46958 3.62656 0
M  V30 5527 H 523.728 -2.91517 2.70377 0
M  V30 5528 N 524.725 -1.39134 -0.740242 0
M  V30 5529 C 525.657 -1.33332 -1.86428 0
M  V30 5530 C 526.67 -0.243042 -1.60976 0
M  V30 5531 O 527.859 -0.501608 -1.71307 0
M  V30 5532 C 524.959 -1.04626 -3.22346 0
M  V30 5533 C 524.132 -2.24826 -3.75196 0
M  V30 5534 C 523.191 -1.92659 -4.89662 0
M  V30 5535 O 522.217 -2.6529 -5.03597 0
M  V30 5536 N 523.419 -0.889575 -5.73643 0
M  V30 5537 H 526.184 -2.30196 -1.91911 0
M  V30 5538 H 523.745 -1.33168 -0.920756 0
M  V30 5539 H 525.737 -0.811347 -3.96484 0
M  V30 5540 H 524.307 -0.165129 -3.12164 0
M  V30 5541 H 523.527 -2.64301 -2.9247 0
M  V30 5542 H 524.815 -3.05015 -4.07239 0
M  V30 5543 H 524.213 -0.287529 -5.64969 0
M  V30 5544 H 522.77 -0.714557 -6.47871 0
M  V30 5545 N 526.204 0.969867 -1.24223 0
M  V30 5546 C 527.453 1.70687 -1.07466 0
M  V30 5547 C 527.766 1.91736 0.386861 0
M  V30 5548 O 528.972 2.62986 0.674581 0
M  V30 5549 C 527.428 3.07217 -1.87472 0
M  V30 5550 C 527.036 2.94018 -3.3802 0
M  V30 5551 C 528.78 3.84804 -1.79237 0
M  V30 5552 C 526.687 4.25844 -4.10379 0
M  V30 5553 H 525.617 0.640067 -0.398536 0
M  V30 5554 H 528.268 1.08092 -1.48285 0
M  V30 5555 H 526.65 3.70628 -1.39466 0
M  V30 5556 H 527.824 2.39632 -3.9359 0
M  V30 5557 H 526.139 2.29898 -3.47183 0
M  V30 5558 H 528.736 4.82417 -2.30603 0
M  V30 5559 H 529.079 4.09356 -0.757197 0
M  V30 5560 H 529.612 3.28115 -2.24912 0
M  V30 5561 H 526.351 4.06486 -5.14246 0
M  V30 5562 H 525.871 4.80054 -3.59594 0
M  V30 5563 H 527.55 4.94475 -4.17257 0
M  V30 5564 N 527.682 1.05563 1.17022 0
M  V30 5565 C 528.931 0.763036 1.8671 0
M  V30 5566 C 529.244 -0.712857 1.82147 0
M  V30 5567 O 530.45 -1.11955 2.47343 0
M  V30 5568 C 528.906 1.31474 3.35026 0
M  V30 5569 C 528.514 2.82034 3.48081 0
M  V30 5570 C 530.258 1.09935 4.10018 0
M  V30 5571 C 528.165 3.30486 4.90442 0
M  V30 5572 H 527.095 0.281747 0.699382 0
M  V30 5573 H 529.746 1.2734 1.32124 0
M  V30 5574 H 528.128 0.732171 3.89173 0
M  V30 5575 H 529.302 3.46178 3.04133 0
M  V30 5576 H 527.617 3.02156 2.86515 0
M  V30 5577 H 530.214 1.43632 5.15048 0
M  V30 5578 H 530.557 0.0373072 4.16283 0
M  V30 5579 H 531.09 1.64732 3.62089 0
M  V30 5580 H 527.829 4.36137 4.89352 0
M  V30 5581 H 527.349 2.71086 5.35044 0
M  V30 5582 H 529.028 3.25382 5.59227 0
M  V30 5583 N 529.16 -1.33526 0.837174 0
M  V30 5584 C 530.406 -1.9813 0.432704 0
M  V30 5585 C 530.739 -1.66168 -1.00508 0
M  V30 5586 O 530.014 -0.94069 -1.70239 0
M  V30 5587 C 530.297 -3.54151 0.651834 0
M  V30 5588 C 530.15 -3.95806 2.13676 0
M  V30 5589 C 531.469 -4.39993 0.0968937 0
M  V30 5590 H 528.588 -0.719713 0.15869 0
M  V30 5591 H 531.23 -1.58193 1.05237 0
M  V30 5592 H 529.38 -3.88301 0.124369 0
M  V30 5593 H 531.052 -3.71921 2.72896 0
M  V30 5594 H 529.295 -3.45599 2.62191 0
M  V30 5595 H 529.966 -5.0447 2.24084 0
M  V30 5596 H 532.442 -4.12479 0.547733 0
M  V30 5597 H 531.318 -5.48186 0.279917 0
M  V30 5598 H 531.579 -4.3066 -0.9992 0
M  V30 5599 N 530.638 -0.59345 -1.46 0
M  V30 5600 C 531.601 0.123538 -2.28867 0
M  V30 5601 C 532.601 0.808628 -1.38989 0
M  V30 5602 O 533.791 0.658945 -1.61256 0
M  V30 5603 C 530.923 1.1847 -3.19653 0
M  V30 5604 H 532.116 -0.604843 -2.93737 0
M  V30 5605 H 529.669 -0.351875 -1.52288 0
M  V30 5606 H 530.404 1.94431 -2.59552 0
M  V30 5607 H 530.189 0.69783 -3.8584 0
M  V30 5608 H 531.679 1.68726 -3.81997 0
M  V30 5609 N 532.116 1.54067 -0.331816 0
M  V30 5610 C 533.046 2.27569 0.522932 0
M  V30 5611 C 534.027 1.28679 1.11247 0
M  V30 5612 O 535.212 1.57504 1.13605 0
M  V30 5613 C 532.342 3.0397 1.67987 0
M  V30 5614 C 531.296 4.10267 1.21924 0
M  V30 5615 C 530.622 4.74555 2.46377 0
M  V30 5616 C 531.922 5.21268 0.32815 0
M  V30 5617 H 533.616 2.99264 -0.0901977 0
M  V30 5618 H 531.162 1.4393 -0.044821 0
M  V30 5619 H 533.115 3.54123 2.28418 0
M  V30 5620 H 531.839 2.29906 2.31971 0
M  V30 5621 H 530.498 3.61009 0.637809 0
M  V30 5622 H 530.146 3.97098 3.08743 0
M  V30 5623 H 529.846 5.46363 2.16243 0
M  V30 5624 H 531.37 5.27487 3.07555 0
M  V30 5625 H 532.784 5.67128 0.838978 0
M  V30 5626 H 531.181 5.99982 0.119228 0
M  V30 5627 H 532.251 4.80673 -0.638839 0
M  V30 5628 N 533.594 0.0601682 1.57485 0
M  V30 5629 C 534.541 -0.91112 2.12055 0
M  V30 5630 C 535.511 -1.30298 1.03013 0
M  V30 5631 O 536.696 -1.39087 1.30612 0
M  V30 5632 C 533.836 -2.1775 2.67729 0
M  V30 5633 C 532.949 -1.83933 3.90887 0
M  V30 5634 C 532.084 -3.05096 4.34845 0
M  V30 5635 C 531.123 -2.67241 5.5068 0
M  V30 5636 N 530.26 -3.81127 5.8965 0
M  V30 5637 H 535.1 -0.43888 2.9475 0
M  V30 5638 H 532.637 -0.204995 1.45665 0
M  V30 5639 H 534.595 -2.91866 2.98111 0
M  V30 5640 H 533.225 -2.62535 1.87816 0
M  V30 5641 H 532.277 -0.999287 3.6704 0
M  V30 5642 H 533.589 -1.52074 4.75052 0
M  V30 5643 H 532.743 -3.87502 4.66827 0
M  V30 5644 H 531.482 -3.40139 3.49509 0
M  V30 5645 H 530.487 -1.83254 5.18361 0
M  V30 5646 H 531.712 -2.3338 6.37738 0
M  V30 5647 H 529.658 -4.15954 5.07266 0
M  V30 5648 H 529.575 -3.52997 6.68528 0
M  V30 5649 H 530.843 -4.64145 6.2625 0
M  V30 5650 N 535.072 -1.5615 -0.213296 0
M  V30 5651 C 536.297 -1.83986 -0.957282 0
M  V30 5652 C 536.722 -0.641526 -1.76822 0
M  V30 5653 O 536.08 0.409722 -1.7661 0
M  V30 5654 C 536.128 -3.09889 -1.84393 0
M  V30 5655 O 535.232 -2.89163 -2.94038 0
M  V30 5656 H 534.573 -0.606357 -0.270605 0
M  V30 5657 H 537.103 -2.03369 -0.224111 0
M  V30 5658 H 537.113 -3.40209 -2.25215 0
M  V30 5659 H 535.788 -3.96735 -1.24795 0
M  V30 5660 H 534.365 -2.70097 -2.57103 0
M  V30 5661 N 536.55 0.480323 -1.50102 0
M  V30 5662 C 537.46 1.60547 -1.71061 0
M  V30 5663 C 538.476 1.63564 -0.593529 0
M  V30 5664 O 539.652 1.81604 -0.870751 0
M  V30 5665 C 536.717 2.96814 -1.79171 0
M  V30 5666 C 535.778 3.04259 -3.02861 0
M  V30 5667 C 535.011 4.34027 -3.10574 0
M  V30 5668 O 535.234 5.24009 -2.25323 0
M  V30 5669 O 534.168 4.46873 -4.03223 0
M  V30 5670 H 537.994 1.45788 -2.6642 0
M  V30 5671 H 535.579 0.658838 -1.34088 0
M  V30 5672 H 537.461 3.77765 -1.86738 0
M  V30 5673 H 536.136 3.11791 -0.869947 0
M  V30 5674 H 535.043 2.22419 -3.008 0
M  V30 5675 H 536.376 2.94216 -3.94586 0
M  V30 5676 N 538.028 1.39524 0.732853 0
M  V30 5677 C 538.938 1.40695 1.87729 0
M  V30 5678 C 539.954 0.301496 1.71368 0
M  V30 5679 O 541.13 0.543313 1.93933 0
M  V30 5680 C 538.195 1.25098 3.23344 0
M  V30 5681 C 537.256 2.45634 3.52083 0
M  V30 5682 C 536.489 2.30772 4.81228 0
M  V30 5683 O 536.712 1.31233 5.55098 0
M  V30 5684 O 535.646 3.19799 5.09914 0
M  V30 5685 H 539.472 2.37168 1.89697 0
M  V30 5686 H 537.057 1.20663 0.880959 0
M  V30 5687 H 538.939 1.18541 4.04383 0
M  V30 5688 H 537.614 0.317209 3.22142 0
M  V30 5689 H 536.521 2.57767 2.71122 0
M  V30 5690 H 537.854 3.37712 3.58066 0
M  V30 5691 N 539.506 -0.963266 1.24736 0
M  V30 5692 C 540.783 -1.68248 0.9976 0
M  V30 5693 C 541.163 -2.05599 -0.478776 0
M  V30 5694 O 540.511 -1.7626 -1.45412 0
M  V30 5695 C 540.721 -2.91118 1.92487 0
M  V30 5696 C 542.069 -3.63261 2.19833 0
M  V30 5697 O 543.093 -3.01184 1.90176 0
M  V30 5698 O 541.952 -4.75019 2.7022 0
M  V30 5699 H 539.046 -0.735744 0.377637 0
M  V30 5700 H 541.592 -1.01696 1.35853 0
M  V30 5701 H 540.364 -2.60242 2.92215 0
M  V30 5702 H 539.987 -3.65402 1.56738 0
M  V30 5703 N 540.985 -1.06182 -1.16461 0
M  V30 5704 C 542.21 -0.798599 -1.91408 0
M  V30 5705 C 542.635 0.640987 -1.76842 0
M  V30 5706 O 541.993 1.44652 -1.09296 0
M  V30 5707 C 542.041 -1.19665 -3.40165 0
M  V30 5708 O 541.145 -0.334768 -4.11039 0
M  V30 5709 H 540.486 -0.291961 -0.596368 0
M  V30 5710 H 543.016 -1.41732 -1.47557 0
M  V30 5711 H 543.026 -1.16772 -3.90933 0
M  V30 5712 H 541.701 -2.24526 -3.50087 0
M  V30 5713 H 540.278 -0.425168 -3.70468 0
M  V30 5714 N 542.463 1.3308 -0.844243 0
M  V30 5715 C 543.711 1.97215 -0.441676 0
M  V30 5716 C 544.032 1.67185 1.0037 0
M  V30 5717 O 543.302 0.973588 1.69994 0
M  V30 5718 H 541.882 0.72959 -0.160335 0
M  V30 5719 H 544.544 1.62348 -1.07838 0
M  V30 5720 H 543.64 3.06698 -0.57815 0
M  V30 5721 N 543.941 0.601185 1.45683 0
M  V30 5722 C 545.357 0.264315 1.57396 0
M  V30 5723 C 545.557 -1.23324 1.59353 0
M  V30 5724 O 544.613 -2.01594 1.52039 0
M  V30 5725 C 545.926 0.929839 2.85962 0
M  V30 5726 C 547.474 0.905156 2.99626 0
M  V30 5727 C 547.949 1.55057 4.30954 0
M  V30 5728 N 549.44 1.51576 4.37697 0
M  V30 5729 C 550.175 1.98436 5.37969 0
M  V30 5730 N 549.671 2.53352 6.44813 0
M  V30 5731 N 551.464 1.89242 5.29286 0
M  V30 5732 H 543.615 1.57363 1.42656 0
M  V30 5733 H 545.878 0.658831 0.681649 0
M  V30 5734 H 545.584 1.98404 2.90394 0
M  V30 5735 H 545.458 0.449224 3.74515 0
M  V30 5736 H 547.845 -0.14048 2.94765 0
M  V30 5737 H 547.926 1.42397 2.12501 0
M  V30 5738 H 547.57 2.5955 4.36573 0
M  V30 5739 H 547.5 1.00682 5.16886 0
M  V30 5740 H 549.991 1.11452 3.61091 0
M  V30 5741 H 550.304 2.86918 7.17564 0
M  V30 5742 H 548.649 2.57388 6.45582 0
M  V30 5743 H 551.84 1.46083 4.44722 0
M  V30 5744 H 552.013 2.26075 6.07284 0
M  V30 5745 N 545.419 -1.53889 0.339982 0
M  V30 5746 C 546.665 -2.01152 -0.258003 0
M  V30 5747 C 546.998 -1.22749 -1.50487 0
M  V30 5748 O 546.273 -0.314156 -1.91946 0
M  V30 5749 C 546.556 -3.55468 -0.575717 0
M  V30 5750 C 546.409 -4.44584 0.682996 0
M  V30 5751 C 547.728 -4.1768 -1.38677 0
M  V30 5752 H 544.847 -0.731198 -0.0922992 0
M  V30 5753 H 547.489 -1.84352 0.459814 0
M  V30 5754 H 545.639 -3.69914 -1.18725 0
M  V30 5755 H 547.311 -4.41981 1.32102 0
M  V30 5756 H 545.554 -4.13592 1.3086 0
M  V30 5757 H 546.225 -5.5043 0.416001 0
M  V30 5758 H 548.701 -4.0691 -0.869705 0
M  V30 5759 H 547.577 -5.25734 -1.57783 0
M  V30 5760 H 547.838 -3.72069 -2.38782 0
M  V30 5761 N 546.897 -0.0685191 -1.57451 0
M  V30 5762 C 547.86 0.885173 -2.11417 0
M  V30 5763 C 548.86 1.22853 -1.03748 0
M  V30 5764 O 550.05 1.16235 -1.2975 0
M  V30 5765 C 547.182 2.18964 -2.61281 0
M  V30 5766 H 548.375 0.417034 -2.96986 0
M  V30 5767 H 545.928 0.18014 -1.55258 0
M  V30 5768 H 546.663 2.70321 -1.79156 0
M  V30 5769 H 546.448 1.9534 -3.39977 0
M  V30 5770 H 547.938 2.87242 -3.0312 0
M  V30 5771 N 548.375 1.56261 0.205012 0
M  V30 5772 C 549.6 1.84491 0.947512 0
M  V30 5773 C 550.025 0.650894 1.76479 0
M  V30 5774 O 549.383 -0.40035 1.76824 0
M  V30 5775 C 549.431 3.10863 1.82747 0
M  V30 5776 O 548.535 2.90719 2.925 0
M  V30 5777 H 547.876 0.607783 0.267386 0
M  V30 5778 H 550.406 2.03485 0.213323 0
M  V30 5779 H 550.416 3.41399 2.23407 0
M  V30 5780 H 549.091 3.97392 1.2269 0
M  V30 5781 H 547.668 2.71457 2.55667 0
M  V30 5782 N 549.853 -0.472356 1.50355 0
M  V30 5783 C 551.083 -1.24603 1.64796 0
M  V30 5784 C 551.491 -1.86297 0.330156 0
M  V30 5785 O 550.834 -1.69934 -0.697728 0
M  V30 5786 C 550.896 -2.39578 2.68035 0
M  V30 5787 C 550.56 -1.98531 4.11624 0
M  V30 5788 C 551.557 -1.50856 4.97532 0
M  V30 5789 C 549.242 -2.0729 4.57532 0
M  V30 5790 C 551.236 -1.12481 6.27397 0
M  V30 5791 C 548.923 -1.68527 5.87403 0
M  V30 5792 C 549.921 -1.212 6.7216 0
M  V30 5793 O 549.609 -0.829728 7.99607 0
M  V30 5794 H 549.341 -0.383035 0.55701 0
M  V30 5795 H 551.895 -0.570392 1.97321 0
M  V30 5796 H 550.125 -3.10309 2.30749 0
M  V30 5797 H 551.814 -3.01544 2.71709 0
M  V30 5798 H 552.58 -1.43511 4.63281 0
M  V30 5799 H 548.459 -2.43076 3.91708 0
M  V30 5800 H 552.003 -0.754698 6.93506 0
M  V30 5801 H 547.9 -1.7553 6.21176 0
M  V30 5802 H 548.668 -0.958689 8.12866 0
M  V30 5803 N 551.331 -1.39911 -0.725443 0
M  V30 5804 C 552.58 -1.36963 -1.48068 0
M  V30 5805 C 552.893 0.0284478 -1.95579 0
M  V30 5806 O 554.099 0.180535 -2.70899 0
M  V30 5807 C 552.555 -2.40664 -2.67598 0
M  V30 5808 C 552.163 -3.86234 -2.26997 0
M  V30 5809 C 553.907 -2.46807 -3.45379 0
M  V30 5810 C 551.814 -4.81554 -3.43307 0
M  V30 5811 H 550.744 -0.509223 -0.556065 0
M  V30 5812 H 553.395 -1.65602 -0.790454 0
M  V30 5813 H 551.777 -2.05109 -3.38742 0
M  V30 5814 H 552.951 -4.3088 -1.63337 0
M  V30 5815 H 551.266 -3.83475 -1.62284 0
M  V30 5816 H 553.863 -3.15213 -4.31909 0
M  V30 5817 H 554.206 -1.49552 -3.8851 0
M  V30 5818 H 554.739 -2.81303 -2.81271 0
M  V30 5819 H 551.478 -5.80106 -3.05217 0
M  V30 5820 H 550.998 -4.4158 -4.05915 0
M  V30 5821 H 552.677 -5.0091 -4.0951 0
M  V30 5822 N 552.809 0.956637 -1.25245 0
M  V30 5823 C 553.742 2.05232 -0.99775 0
M  V30 5824 C 554.72 1.62439 0.0723137 0
M  V30 5825 O 555.904 1.88381 -0.066926 0
M  V30 5826 C 553.031 3.34871 -0.507861 0
M  V30 5827 C 552.077 3.96625 -1.56815 0
M  V30 5828 S 552.91 4.32853 -3.15276 0
M  V30 5829 C 554.066 5.65613 -2.68017 0
M  V30 5830 H 554.299 2.26521 -1.9255 0
M  V30 5831 H 551.832 1.09601 -1.08752 0
M  V30 5832 H 553.79 4.09845 -0.231858 0
M  V30 5833 H 552.451 3.11551 0.399356 0
M  V30 5834 H 551.644 4.90087 -1.17604 0
M  V30 5835 H 551.246 3.28124 -1.79473 0
M  V30 5836 H 553.538 6.43635 -2.11518 0
M  V30 5837 H 554.481 6.09693 -3.60112 0
M  V30 5838 H 554.889 5.24751 -2.0808 0
M  V30 5839 N 554.287 1.06798 1.15896 0
M  V30 5840 C 555.25 0.687328 2.18651 0
M  V30 5841 C 556.25 -0.269559 1.58524 0
M  V30 5842 O 557.44 -0.0512627 1.74125 0
M  V30 5843 C 554.572 0.0121642 3.40898 0
M  V30 5844 H 555.765 1.59701 2.53842 0
M  V30 5845 H 553.318 0.863828 1.3026 0
M  V30 5846 H 554.053 -0.910025 3.1127 0
M  V30 5847 H 553.838 0.700309 3.85795 0
M  V30 5848 H 555.328 -0.239703 4.16911 0
M  V30 5849 N 555.766 -1.3263 0.851289 0
M  V30 5850 C 557.013 -1.97368 0.453023 0
M  V30 5851 C 557.341 -1.67384 -0.990596 0
M  V30 5852 O 556.596 -0.952665 -1.70947 0
M  V30 5853 C 556.895 -3.51713 0.635015 0
M  V30 5854 C 556.561 -4.01676 2.04859 0
M  V30 5855 C 555.223 -4.15031 2.43522 0
M  V30 5856 C 557.575 -4.28206 2.97135 0
M  V30 5857 C 554.903 -4.52257 3.73739 0
M  V30 5858 C 557.255 -4.66889 4.26846 0
M  V30 5859 C 555.919 -4.7845 4.65448 0
M  V30 5860 H 555.189 -0.722219 0.165773 0
M  V30 5861 H 557.836 -1.58092 1.0807 0
M  V30 5862 H 556.141 -3.91726 -0.0759081 0
M  V30 5863 H 557.838 -3.99823 0.306964 0
M  V30 5864 H 554.428 -3.91764 1.73836 0
M  V30 5865 H 558.612 -4.174 2.68498 0
M  V30 5866 H 553.868 -4.59402 4.03435 0
M  V30 5867 H 558.042 -4.86372 4.98413 0
M  V30 5868 H 555.669 -5.07052 5.66395 0
M  V30 5869 N 557.244 -0.608902 -1.45362 0
M  V30 5870 C 558.472 -0.111013 -2.06602 0
M  V30 5871 C 558.887 1.20516 -1.45332 0
M  V30 5872 O 558.244 1.73437 -0.567978 0
M  V30 5873 C 558.295 0.033688 -3.61484 0
M  V30 5874 O 558.016 -1.23041 -4.20467 0
M  V30 5875 C 559.517 0.562882 -4.39712 0
M  V30 5876 H 556.737 -0.0694453 -0.667397 0
M  V30 5877 H 559.281 -0.837008 -1.86586 0
M  V30 5878 H 557.436 0.710016 -3.80838 0
M  V30 5879 H 557.85 -1.06094 -5.13658 0
M  V30 5880 H 559.324 0.613213 -5.48583 0
M  V30 5881 H 559.801 1.58543 -4.09586 0
M  V30 5882 H 560.407 -0.0794454 -4.25226 0
M  V30 5883 N 558.722 1.53707 -0.348139 0
M  V30 5884 C 559.652 2.28111 0.498766 0
M  V30 5885 C 560.633 1.29851 1.09876 0
M  V30 5886 O 561.818 1.587 1.11928 0
M  V30 5887 C 558.948 3.05735 1.64753 0
M  V30 5888 C 557.902 4.11537 1.17565 0
M  V30 5889 C 557.228 4.77142 2.4133 0
M  V30 5890 C 558.528 5.21587 0.272844 0
M  V30 5891 H 560.222 2.99152 -0.121934 0
M  V30 5892 H 557.768 1.43875 -0.0600842 0
M  V30 5893 H 559.721 3.56526 2.24649 0
M  V30 5894 H 558.445 2.32354 2.2952 0
M  V30 5895 H 557.104 3.61665 0.599483 0
M  V30 5896 H 556.752 4.0035 3.04514 0
M  V30 5897 H 556.452 5.48626 2.10436 0
M  V30 5898 H 557.976 5.30719 3.01943 0
M  V30 5899 H 559.39 5.67986 0.778779 0
M  V30 5900 H 557.787 6.00074 0.0555849 0
M  V30 5901 H 558.857 4.79969 -0.689785 0
M  V30 5902 N 560.2 0.0768682 1.57412 0
M  V30 5903 C 561.477 -0.632359 1.85096 0
M  V30 5904 C 561.857 -1.87479 0.9703 0
M  V30 5905 O 561.205 -2.28469 0.0379062 0
M  V30 5906 C 561.415 -0.965174 3.35388 0
M  V30 5907 C 562.763 -1.33648 4.03018 0
M  V30 5908 O 563.787 -1.05675 3.40164 0
M  V30 5909 O 562.646 -1.85959 5.13889 0
M  V30 5910 H 559.74 -0.314574 0.764835 0
M  V30 5911 H 562.286 0.108184 1.69355 0
M  V30 5912 H 561.058 -0.0829745 3.91212 0
M  V30 5913 H 560.681 -1.76231 3.5641 0
M  V30 5914 N 561.678 -1.56367 -0.196722 0
M  V30 5915 C 562.926 -1.80172 -0.915554 0
M  V30 5916 C 563.247 -0.649649 -1.8386 0
M  V30 5917 O 562.517 0.332111 -1.93064 0
M  V30 5918 H 561.097 -0.664592 -0.341067 0
M  V30 5919 H 563.759 -1.93844 -0.202622 0
M  V30 5920 H 562.855 -2.7327 -1.50764 0
M  V30 5921 N 563.156 0.464375 -1.50603 0
M  V30 5922 C 564.572 0.798684 -1.38178 0
M  V30 5923 C 564.772 1.96568 -0.44308 0
M  V30 5924 O 563.828 2.52252 0.111814 0
M  V30 5925 C 565.141 1.10444 -2.79683 0
M  V30 5926 C 566.689 1.2105 -2.88645 0
M  V30 5927 C 567.164 1.54934 -4.30998 0
M  V30 5928 N 568.655 1.61913 -4.3398 0
M  V30 5929 C 569.39 1.8965 -5.41129 0
M  V30 5930 N 568.886 2.15361 -6.58477 0
M  V30 5931 N 570.679 1.91207 -5.28579 0
M  V30 5932 H 562.83 -0.304603 -2.10204 0
M  V30 5933 H 565.093 -0.0737804 -0.945125 0
M  V30 5934 H 564.799 0.319934 -3.50242 0
M  V30 5935 H 564.673 2.03896 -3.17342 0
M  V30 5936 H 567.06 1.98567 -2.18301 0
M  V30 5937 H 567.141 0.255613 -2.5452 0
M  V30 5938 H 566.785 0.779549 -5.01882 0
M  V30 5939 H 566.715 2.51584 -4.62615 0
M  V30 5940 H 569.206 1.44055 -3.49366 0
M  V30 5941 H 569.519 2.35818 -7.35941 0
M  V30 5942 H 567.864 2.1274 -6.6164 0
M  V30 5943 H 571.055 1.70622 -4.35897 0
M  V30 5944 H 571.228 2.12488 -6.12171 0
M  V30 5945 N 564.634 1.40294 0.718013 0
M  V30 5946 C 565.881 1.3844 1.47786 0
M  V30 5947 C 566.209 -0.0140838 1.94495 0
M  V30 5948 O 565.464 -0.998165 1.68331 0
M  V30 5949 C 565.763 2.31814 2.72024 0
M  V30 5950 C 565.429 3.79117 2.44093 0
M  V30 5951 C 564.091 4.19249 2.36185 0
M  V30 5952 C 566.443 4.72212 2.20602 0
M  V30 5953 C 563.771 5.50516 2.02851 0
M  V30 5954 C 566.123 6.03775 1.88781 0
M  V30 5955 C 564.787 6.42953 1.79354 0
M  V30 5956 H 564.057 0.506588 0.540786 0
M  V30 5957 H 566.704 1.72929 0.822663 0
M  V30 5958 H 565.009 1.90501 3.42369 0
M  V30 5959 H 566.706 2.27664 3.30106 0
M  V30 5960 H 563.296 3.47318 2.51133 0
M  V30 5961 H 567.48 4.42026 2.25669 0
M  V30 5962 H 562.736 5.79776 1.94088 0
M  V30 5963 H 566.91 6.75428 1.69617 0
M  V30 5964 H 564.537 7.44584 1.53291 0
M  V30 5965 N 566.112 -0.949982 1.2575 0
M  V30 5966 C 567.042 -2.06483 1.09028 0
M  V30 5967 C 568.023 -1.701 -0.00201532 0
M  V30 5968 O 569.208 -1.93469 0.168383 0
M  V30 5969 C 566.338 -3.39899 0.71316 0
M  V30 5970 C 565.292 -3.90309 1.75621 0
M  V30 5971 C 564.618 -5.20274 1.23365 0
M  V30 5972 C 565.918 -4.16169 3.15596 0
M  V30 5973 H 567.612 -2.20731 2.02283 0
M  V30 5974 H 565.158 -1.06066 0.973964 0
M  V30 5975 H 567.111 -4.17346 0.58309 0
M  V30 5976 H 565.835 -3.25602 -0.255091 0
M  V30 5977 H 564.494 -3.15035 1.8748 0
M  V30 5978 H 564.142 -5.02351 0.255491 0
M  V30 5979 H 563.842 -5.54971 1.93082 0
M  V30 5980 H 565.366 -6.00314 1.11607 0
M  V30 5981 H 566.78 -4.84259 3.06864 0
M  V30 5982 H 565.177 -4.62131 3.82825 0
M  V30 5983 H 566.247 -3.22273 3.6231 0
M  V30 5984 N 567.59 -1.07411 -1.15328 0
M  V30 5985 C 568.52 -0.716472 -2.22236 0
M  V30 5986 C 569.501 0.296373 -1.67498 0
M  V30 5987 O 570.686 0.168989 -1.93463 0
M  V30 5988 C 567.816 -0.114142 -3.47112 0
M  V30 5989 C 566.77 -1.05421 -4.14814 0
M  V30 5990 C 566.096 -0.314604 -5.33774 0
M  V30 5991 C 567.396 -2.38808 -4.64508 0
M  V30 5992 H 569.09 -1.61029 -2.52408 0
M  V30 5993 H 566.636 -0.775702 -1.21321 0
M  V30 5994 H 568.589 0.148001 -4.2114 0
M  V30 5995 H 567.313 0.814755 -3.16274 0
M  V30 5996 H 565.972 -1.30128 -3.42728 0
M  V30 5997 H 565.62 0.617772 -4.99192 0
M  V30 5998 H 565.32 -0.941209 -5.80013 0
M  V30 5999 H 566.844 -0.0602747 -6.1057 0
M  V30 6000 H 568.258 -2.18424 -5.3006 0
M  V30 6001 H 566.655 -2.97069 -5.21412 0
M  V30 6002 H 567.725 -3.01067 -3.80114 0
M  V30 6003 N 569.068 1.32177 -0.85831 0
M  V30 6004 C 570.479 1.79381 -0.517621 0
M  V30 6005 C 570.83 1.70841 0.964769 0
M  V30 6006 O 569.955 1.26917 1.75274 0
M  V30 6007 C 570.55 3.25706 -0.932801 0
M  V30 6008 C 569.109 3.70851 -0.643953 0
M  V30 6009 C 568.256 2.53208 -1.13054 0
M  V30 6010 H 571.207 1.19424 -1.04516 0
M  V30 6011 H 571.228 3.79673 -0.250674 0
M  V30 6012 H 570.74 3.31889 -2.01174 0
M  V30 6013 H 568.841 3.70178 0.424112 0
M  V30 6014 H 568.954 4.63495 -1.21281 0
M  V30 6015 H 567.318 2.48676 -0.550679 0
M  V30 6016 H 568.101 2.62143 -2.21666 0
M  V30 6017 N 570.547 0.616602 1.45037 0
M  V30 6018 C 571.457 -0.0985401 2.34393 0
M  V30 6019 C 572.473 -0.850971 1.51771 0
M  V30 6020 O 573.649 -0.806521 1.84546 0
M  V30 6021 C 570.714 -1.07748 3.29532 0
M  V30 6022 C 569.775 -0.326022 4.2806 0
M  V30 6023 C 569.008 -1.25833 5.18654 0
M  V30 6024 O 569.231 -2.49652 5.12864 0
M  V30 6025 O 568.165 -0.750512 5.97203 0
M  V30 6026 H 571.991 0.636016 2.96966 0
M  V30 6027 H 569.576 0.376832 1.44569 0
M  V30 6028 H 571.458 -1.64107 3.88133 0
M  V30 6029 H 570.133 -1.79291 2.69512 0
M  V30 6030 H 569.04 0.280253 3.73049 0
M  V30 6031 H 570.373 0.349091 4.9096 0
M  V30 6032 N 572.025 -1.5352 0.356285 0
M  V30 6033 C 573.253 -2.05534 -0.237328 0
M  V30 6034 C 573.668 -1.23043 -1.43199 0
M  V30 6035 O 573.025 -0.268821 -1.80509 0
M  V30 6036 C 573.076 -3.55791 -0.639933 0
M  V30 6037 O 572.797 -4.35154 0.507233 0
M  V30 6038 C 574.298 -4.24027 -1.29292 0
M  V30 6039 H 571.518 -0.669585 -0.0435572 0
M  V30 6040 H 574.062 -1.97988 0.511963 0
M  V30 6041 H 572.217 -3.63518 -1.33915 0
M  V30 6042 H 572.631 -5.24178 0.18375 0
M  V30 6043 H 574.105 -5.30509 -1.52527 0
M  V30 6044 H 574.582 -3.77166 -2.25039 0
M  V30 6045 H 575.188 -4.20527 -0.63539 0
M  V30 6046 N 573.503 -0.0852151 -1.57369 0
M  V30 6047 C 574.45 0.877268 -2.13478 0
M  V30 6048 C 575.42 1.28642 -1.05073 0
M  V30 6049 O 576.605 1.36992 -1.32808 0
M  V30 6050 C 573.745 2.13464 -2.71159 0
M  V30 6051 C 572.858 1.77691 -3.93764 0
M  V30 6052 C 571.993 2.98139 -4.39643 0
M  V30 6053 C 571.032 2.58447 -5.54862 0
M  V30 6054 N 570.169 3.71698 -5.95639 0
M  V30 6055 H 575.009 0.391933 -2.95411 0
M  V30 6056 H 572.546 0.181796 -1.45972 0
M  V30 6057 H 574.504 2.87086 -3.02717 0
M  V30 6058 H 573.134 2.59514 -1.91969 0
M  V30 6059 H 572.186 0.940768 -3.68583 0
M  V30 6060 H 573.498 1.44497 -4.77412 0
M  V30 6061 H 572.652 3.80026 -4.72933 0
M  V30 6062 H 571.391 3.34536 -3.54876 0
M  V30 6063 H 570.396 1.74984 -5.21211 0
M  V30 6064 H 571.621 2.23205 -6.41371 0
M  V30 6065 H 569.567 4.07831 -5.13819 0
M  V30 6066 H 569.484 3.42317 -6.74059 0
M  V30 6067 H 570.752 4.54123 -6.33555 0
M  V30 6068 N 574.981 1.5647 0.188427 0
M  V30 6069 C 576.23 1.80207 0.905995 0
M  V30 6070 C 576.543 0.659579 1.84144 0
M  V30 6071 O 577.749 0.781431 2.60011 0
M  V30 6072 C 576.205 3.19255 1.66145 0
M  V30 6073 C 575.813 4.41324 0.770504 0
M  V30 6074 C 577.557 3.52298 2.36826 0
M  V30 6075 C 575.464 5.71394 1.52521 0
M  V30 6076 H 574.394 0.671953 0.342045 0
M  V30 6077 H 577.045 1.82808 0.159164 0
M  V30 6078 H 575.427 3.10922 2.45242 0
M  V30 6079 H 576.601 4.60797 0.0177261 0
M  V30 6080 H 574.916 4.16035 0.174199 0
M  V30 6081 H 577.513 4.46715 2.93854 0
M  V30 6082 H 577.856 2.76359 3.11338 0
M  V30 6083 H 578.389 3.62108 1.6469 0
M  V30 6084 H 575.128 6.50316 0.82275 0
M  V30 6085 H 574.648 5.55928 2.25175 0
M  V30 6086 H 576.327 6.12747 2.07725 0
M  V30 6087 N 576.459 -0.456382 1.50847 0
M  V30 6088 C 577.707 -1.20497 1.62249 0
M  V30 6089 C 578.028 -1.92156 0.331839 0
M  V30 6090 O 577.298 -1.84751 -0.651443 0
M  V30 6091 H 575.878 -0.447775 0.597918 0
M  V30 6092 H 578.54 -0.525099 1.87693 0
M  V30 6093 H 577.636 -1.94492 2.44089 0
M  V30 6094 N 577.937 -1.40673 -0.710563 0
M  V30 6095 C 579.162 -1.42741 -1.50465 0
M  V30 6096 C 579.587 -0.0302116 -1.88076 0
M  V30 6097 O 578.945 0.962945 -1.53613 0
M  V30 6098 C 578.993 -2.32873 -2.75322 0
M  V30 6099 O 578.097 -1.77544 -3.72226 0
M  V30 6100 H 577.438 -0.485056 -0.45345 0
M  V30 6101 H 579.968 -1.84961 -0.874681 0
M  V30 6102 H 579.978 -2.48233 -3.23797 0
M  V30 6103 H 578.653 -3.34401 -2.47283 0
M  V30 6104 H 577.23 -1.71556 -3.31093 0
M  V30 6105 N 579.415 0.9433 -1.26252 0
M  V30 6106 C 580.661 1.69175 -1.11837 0
M  V30 6107 C 580.994 1.91238 0.337891 0
M  V30 6108 O 580.269 1.49152 1.24836 0
M  V30 6109 C 580.552 3.06783 -1.88563 0
M  V30 6110 C 580.405 2.9206 -3.42083 0
M  V30 6111 C 581.724 4.06865 -1.67776 0
M  V30 6112 H 578.843 0.61399 -0.407658 0
M  V30 6113 H 581.485 1.09572 -1.55222 0
M  V30 6114 H 579.635 3.57663 -1.51689 0
M  V30 6115 H 581.307 2.48419 -3.88698 0
M  V30 6116 H 579.55 2.27731 -3.69217 0
M  V30 6117 H 580.221 3.89651 -3.90994 0
M  V30 6118 H 582.697 3.64939 -1.99897 0
M  V30 6119 H 581.573 5.01168 -2.23879 0
M  V30 6120 H 581.834 4.37705 -0.621816 0
M  V30 6121 N 580.893 1.08022 1.14757 0
M  V30 6122 C 581.84 0.706657 2.19716 0
M  V30 6123 C 582.81 -0.30525 1.63271 0
M  V30 6124 O 583.995 -0.19015 1.8985 0
M  V30 6125 C 581.135 0.117914 3.44898 0
M  V30 6126 C 580.248 1.18212 4.15512 0
M  V30 6127 C 579.383 0.557659 5.28265 0
M  V30 6128 C 578.422 1.60418 5.90705 0
M  V30 6129 N 577.559 1.0018 6.94916 0
M  V30 6130 H 582.399 1.60603 2.51019 0
M  V30 6131 H 579.936 0.802664 1.23271 0
M  V30 6132 H 581.894 -0.241112 4.16503 0
M  V30 6133 H 580.524 -0.744788 3.1409 0
M  V30 6134 H 579.576 1.65863 3.42335 0
M  V30 6135 H 580.888 1.97533 4.5802 0
M  V30 6136 H 580.042 0.146654 6.06523 0
M  V30 6137 H 578.781 -0.267249 4.86967 0
M  V30 6138 H 577.786 2.02489 5.11154 0
M  V30 6139 H 579.011 2.43149 6.34078 0
M  V30 6140 H 576.957 0.197917 6.55701 0
M  V30 6141 H 576.874 1.73216 7.35889 0
M  V30 6142 H 578.142 0.616523 7.77058 0
M  V30 6143 N 582.371 -1.3172 0.865308 0
M  V30 6144 C 583.601 -2.00765 0.487543 0
M  V30 6145 C 584.009 -1.65145 -0.92325 0
M  V30 6146 O 583.352 -0.874294 -1.61561 0
M  V30 6147 C 583.414 -3.55122 0.559369 0
M  V30 6148 C 583.078 -4.14202 1.93095 0
M  V30 6149 C 584.075 -4.3165 2.89784 0
M  V30 6150 C 581.76 -4.50036 2.23099 0
M  V30 6151 C 583.754 -4.84114 4.14623 0
M  V30 6152 C 581.441 -5.02203 3.48189 0
M  V30 6153 C 582.439 -5.19192 4.43767 0
M  V30 6154 O 582.127 -5.70241 5.6664 0
M  V30 6155 H 581.859 -0.649066 0.188915 0
M  V30 6156 H 584.413 -1.69032 1.16694 0
M  V30 6157 H 582.643 -3.86295 -0.176926 0
M  V30 6158 H 584.332 -4.05428 0.195694 0
M  V30 6159 H 585.098 -4.04288 2.6791 0
M  V30 6160 H 580.977 -4.36091 1.49485 0
M  V30 6161 H 584.521 -4.9729 4.89233 0
M  V30 6162 H 580.418 -5.28997 3.69908 0
M  V30 6163 H 581.186 -5.88617 5.68746 0
M  V30 6164 N 583.85 -0.624285 -1.44708 0
M  V30 6165 C 584.76 0.0861083 -2.34442 0
M  V30 6166 C 585.776 0.84291 -1.5222 0
M  V30 6167 O 586.952 0.796723 -1.84971 0
M  V30 6168 C 584.017 1.05999 -3.30099 0
M  V30 6169 C 583.077 0.303316 -4.28227 0
M  V30 6170 C 582.311 1.23081 -5.19314 0
M  V30 6171 O 582.534 2.46929 -5.14181 0
M  V30 6172 O 581.468 0.71883 -5.97592 0
M  V30 6173 H 585.293 -0.651756 -2.96624 0
M  V30 6174 H 582.879 -0.384493 -1.44368 0
M  V30 6175 H 584.76 1.62046 -3.88997 0
M  V30 6176 H 583.436 1.77859 -2.70459 0
M  V30 6177 H 582.343 -0.300033 -3.72895 0
M  V30 6178 H 583.676 -0.375123 -4.90768 0
M  V30 6179 N 585.328 1.53329 -0.364422 0
M  V30 6180 C 586.576 2.00842 0.225189 0
M  V30 6181 C 586.897 1.25345 1.49378 0
M  V30 6182 O 586.167 0.366396 1.92443 0
M  V30 6183 H 584.747 0.742009 0.0862027 0
M  V30 6184 H 587.409 1.8863 -0.490389 0
M  V30 6185 H 586.505 3.08795 0.452987 0
M  V30 6186 N 586.806 0.0935595 1.57322 0
M  V30 6187 C 588.055 -0.570191 1.93473 0
M  V30 6188 C 588.368 -1.69434 0.977318 0
M  V30 6189 O 589.574 -2.41914 1.23248 0
M  V30 6190 C 588.03 -1.06564 3.43762 0
M  V30 6191 C 587.638 0.0286723 4.47991 0
M  V30 6192 C 589.382 -1.70221 3.88877 0
M  V30 6193 C 587.289 -0.482046 5.89432 0
M  V30 6194 H 586.219 -0.216764 0.72217 0
M  V30 6195 H 588.87 0.169313 1.82717 0
M  V30 6196 H 587.252 -1.85878 3.49664 0
M  V30 6197 H 588.426 0.804106 4.5373 0
M  V30 6198 H 586.741 0.570336 4.12476 0
M  V30 6199 H 589.338 -2.09502 4.91948 0
M  V30 6200 H 589.681 -2.57078 3.27439 0
M  V30 6201 H 590.214 -0.974919 3.85668 0
M  V30 6202 H 586.953 0.349871 6.54566 0
M  V30 6203 H 586.473 -1.22452 5.87167 0
M  V30 6204 H 588.152 -0.951508 6.39965 0
M  V30 6205 N 588.284 -1.56567 -0.180126 0
M  V30 6206 C 589.194 -1.98947 -1.24327 0
M  V30 6207 C 590.21 -0.899446 -1.4895 0
M  V30 6208 O 591.386 -1.20639 -1.61271 0
M  V30 6209 C 588.451 -2.33328 -2.56435 0
M  V30 6210 C 587.512 -3.56114 -2.39752 0
M  V30 6211 C 586.745 -3.88845 -3.65561 0
M  V30 6212 O 586.968 -3.22662 -4.70368 0
M  V30 6213 O 585.902 -4.82226 -3.60197 0
M  V30 6214 H 589.728 -2.89634 -0.913565 0
M  V30 6215 H 587.313 -1.44319 -0.386306 0
M  V30 6216 H 589.195 -2.5645 -3.34382 0
M  V30 6217 H 587.87 -1.45806 -2.89002 0
M  V30 6218 H 586.777 -3.38221 -1.59866 0
M  V30 6219 H 588.11 -4.4415 -2.12113 0
M  V30 6220 N 589.762 0.448376 -1.51087 0
M  V30 6221 C 591.009 1.19872 -1.63209 0
M  V30 6222 C 591.337 1.91451 -0.343062 0
M  V30 6223 O 590.592 1.83789 0.672321 0
M  V30 6224 C 590.891 2.24866 -2.77795 0
M  V30 6225 C 590.557 1.70378 -4.17471 0
M  V30 6226 C 589.219 1.55241 -4.55471 0
M  V30 6227 C 591.571 1.30203 -5.04675 0
M  V30 6228 C 588.899 0.983844 -5.78392 0
M  V30 6229 C 591.251 0.747798 -6.28165 0
M  V30 6230 C 589.915 0.583233 -6.64947 0
M  V30 6231 H 589.185 0.438642 -0.597222 0
M  V30 6232 H 591.832 0.49136 -1.85089 0
M  V30 6233 H 590.137 3.01598 -2.50092 0
M  V30 6234 H 591.834 2.82723 -2.84374 0
M  V30 6235 H 588.424 1.83134 -3.87505 0
M  V30 6236 H 592.608 1.40723 -4.75932 0
M  V30 6237 H 587.864 0.844007 -6.05546 0
M  V30 6238 H 592.038 0.427927 -6.95084 0
M  V30 6239 H 589.665 0.140532 -7.6007 0
M  V30 6240 N 591.24 1.41047 0.703093 0
M  V30 6241 C 592.489 1.39301 1.4587 0
M  V30 6242 C 592.802 0.00267077 1.956 0
M  V30 6243 O 594.008 -0.137414 2.71152 0
M  V30 6244 C 592.464 2.44891 2.63735 0
M  V30 6245 C 592.072 3.89796 2.20824 0
M  V30 6246 C 593.816 2.5227 3.41409 0
M  V30 6247 C 591.723 4.86955 3.35602 0
M  V30 6248 H 590.653 0.518005 0.547893 0
M  V30 6249 H 593.304 1.66839 0.764009 0
M  V30 6250 H 591.686 2.10472 3.35436 0
M  V30 6251 H 592.86 4.33424 1.56461 0
M  V30 6252 H 591.175 3.86008 1.56163 0
M  V30 6253 H 593.772 3.22044 4.26839 0
M  V30 6254 H 594.115 1.55714 3.86081 0
M  V30 6255 H 594.648 2.85742 2.7676 0
M  V30 6256 H 591.387 5.84888 2.9595 0
M  V30 6257 H 590.907 4.47982 3.98839 0
M  V30 6258 H 592.586 5.07361 4.01489 0
M  V30 6259 O 592.757 -0.845013 1.37629 0
M  V30 6260 H 593.448 -1.48628 1.24215 0
M  V30 END ATOM
M  V30 BEGIN BOND
M  V30 END BOND
M  V30 END CTAB
M  END
$$$$
