drugbank_target|P35367 Histamine H1 receptor (DB00215; DB00245; DB00246; DB00283; DB00321; DB00334; DB00341; DB00342; DB00354; DB00363; DB00366; DB00370; DB00405; DB00408; DB00420; DB00427; DB00433; DB00434; DB00455; DB00458; DB00477; DB00502; DB00540; DB00543; DB00555; DB00557; DB00568; DB00637; DB00656; DB00715; DB00719; DB00726; DB00734; DB00737; DB00748; DB00751; DB00767; DB00768; DB00777; DB00792; DB00797; DB00835; DB00902; DB00920; DB00934; DB00950; DB00967; DB00972; DB00985; DB01069; DB01071; DB01075; DB01084; DB01106; DB01114; DB01142; DB01146; DB01151; DB01173; DB01175; DB01176; DB01224; DB01237; DB01238; DB01239; DB01246; DB01267; DB01403; DB01615; DB01619; DB01620; DB01624; DB04837; DB04841; DB04890; DB04905; DB04946; DB05079; DB05080; DB05345; DB05381; DB05492; DB06016; DB06148; DB06153; DB06216; DB06229; DB06282; DB06678; DB06691; DB06698; DB06766; DB08799; DB08800; DB08801; DB08802; DB08922; DB08936; DB09016; DB09167; DB09195; DB09488; DB09555; DB11235; DB11591; DB11614; DB14185)
 OpenBabel12092119323D

  0  0  0     0  0            999 V3000
M  V30 BEGIN CTAB
M  V30 COUNTS 7895 7992 0 0 0
M  V30 BEGIN ATOM
M  V30 1 H -0.908 1.98254 -0.117106 0
M  V30 2 N 0 1.576 0 0
M  V30 3 C 0.933 2.03868 1.02534 0
M  V30 4 C 1.911 0.928543 1.3348 0
M  V30 5 O 3.095 1.19667 1.45644 0
M  V30 6 C 0.222 2.43627 2.35294 0
M  V30 7 C -0.732 3.65373 2.2001 0
M  V30 8 S 0.101 5.13292 1.52614 0
M  V30 9 C 1.257 5.56322 2.86805 0
M  V30 10 H 1.49 2.90518 0.631377 0
M  V30 11 H -0.977 1.52953 0.210867 0
M  V30 12 H 0.981 2.67203 3.11629 0
M  V30 13 H -0.358 1.57376 2.7183 0
M  V30 14 H -1.165 3.90944 3.18086 0
M  V30 15 H -1.563 3.418 1.51819 0
M  V30 16 H 0.729 5.58782 3.83104 0
M  V30 17 H 1.672 6.56266 2.65933 0
M  V30 18 H 2.08 4.83886 2.90714 0
M  V30 19 N 1.4781 -0.272755 1.55222 0
M  V30 20 C 2.7031 -1.02683 1.80197 0
M  V30 21 C 3.1281 -1.79142 0.573551 0
M  V30 22 O 2.4861 -1.74917 -0.476849 0
M  V30 23 C 2.5341 -1.9609 3.02624 0
M  V30 24 O 1.6381 -3.04863 2.77727 0
M  V30 25 H 0.9791 -0.293557 0.595584 0
M  V30 26 H 3.5091 -0.30159 2.02365 0
M  V30 27 H 3.5191 -2.38039 3.31363 0
M  V30 28 H 2.1941 -1.39851 3.91682 0
M  V30 29 H 0.7711 -2.67228 2.60084 0
M  V30 30 N 2.9562 -1.48159 -0.537278 0
M  V30 31 C 3.8862 -1.65029 -1.6519 0
M  V30 32 C 4.8672 -0.499281 -1.62607 0
M  V30 33 O 6.0522 -0.730972 -1.79918 0
M  V30 34 C 3.1822 -1.68303 -3.03795 0
M  V30 35 C 2.1362 -2.8283 -3.21234 0
M  V30 36 C 1.4622 -2.71189 -4.60826 0
M  V30 37 C 2.7622 -4.24211 -3.04701 0
M  V30 38 H 4.4562 -2.58341 -1.51328 0
M  V30 39 H 2.0022 -1.24325 -0.726585 0
M  V30 40 H 3.9552 -1.78693 -3.81637 0
M  V30 41 H 2.6792 -0.715635 -3.18663 0
M  V30 42 H 1.3382 -2.71983 -2.45807 0
M  V30 43 H 0.9862 -1.72435 -4.7252 0
M  V30 44 H 0.6862 -3.48035 -4.7344 0
M  V30 45 H 2.2102 -2.83537 -5.40777 0
M  V30 46 H 3.6242 -4.3593 -3.72341 0
M  V30 47 H 2.0212 -5.01998 -3.28813 0
M  V30 48 H 3.0912 -4.41184 -2.01209 0
M  V30 49 N 4.4343 0.785586 -1.36625 0
M  V30 50 C 5.8453 1.36101 -1.27803 0
M  V30 51 C 6.1963 1.96035 0.0804875 0
M  V30 52 O 5.3213 1.92834 0.982042 0
M  V30 53 C 5.9163 2.47442 -2.31426 0
M  V30 54 C 4.4753 3.00789 -2.26281 0
M  V30 55 C 3.6223 1.73896 -2.15999 0
M  V30 56 H 6.5733 0.586928 -1.47448 0
M  V30 57 H 6.5943 3.2656 -1.95291 0
M  V30 58 H 6.1063 2.03791 -3.30289 0
M  V30 59 H 4.2073 3.48851 -1.30896 0
M  V30 60 H 4.3203 3.57343 -3.19128 0
M  V30 61 H 2.6843 1.9628 -1.62316 0
M  V30 62 H 3.4673 1.32368 -3.16755 0
M  V30 63 N 5.9124 1.20967 1.01018 0
M  V30 64 C 6.8604 0.961223 2.1181 0
M  V30 65 C 7.8544 -0.0897034 1.69162 0
M  V30 66 O 9.0604 0.0612271 1.79896 0
M  V30 67 H 5.4354 0.29355 0.692338 0
M  V30 68 H 7.4064 1.90178 2.29946 0
M  V30 69 C 6.1554 0.536854 3.4353 0
M  V30 70 H 5.4784 1.33713 3.76777 0
M  V30 71 H 6.9184 0.402286 4.22087 0
M  V30 72 C 5.3774 -0.751574 3.2841 0
M  V30 73 O 5.9074 -1.80841 3.58691 0
M  V30 74 N 4.1134 -0.716079 2.81639 0
M  V30 75 H 3.6604 0.144236 2.57196 0
M  V30 76 H 3.6184 -1.57847 2.71904 0
M  V30 77 N 7.3905 -1.2043 1.01659 0
M  V30 78 C 8.6155 -1.94318 0.724942 0
M  V30 79 C 9.0405 -1.74266 -0.708034 0
M  V30 80 O 8.3985 -1.03694 -1.48719 0
M  V30 81 C 8.4465 -3.44486 1.06591 0
M  V30 82 O 7.5505 -4.12017 0.177599 0
M  V30 83 H 6.8915 -0.60708 0.26898 0
M  V30 84 H 9.4215 -1.52861 1.35995 0
M  V30 85 H 9.4315 -3.95106 1.01762 0
M  V30 86 H 8.1065 -3.58404 2.10997 0
M  V30 87 H 6.6835 -3.71821 0.283421 0
M  V30 88 N 8.8686 -0.792821 -1.36206 0
M  V30 89 C 10.0936 -0.377701 -2.03932 0
M  V30 90 C 10.5186 0.998947 -1.59382 0
M  V30 91 O 9.8766 1.64421 -0.763903 0
M  V30 92 C 9.9246 -0.453635 -3.57735 0
M  V30 93 O 9.0286 0.538151 -4.08874 0
M  V30 94 H 8.3696 -0.159855 -0.644471 0
M  V30 95 H 10.8996 -1.07488 -1.7409 0
M  V30 96 H 10.9096 -0.318464 -4.06755 0
M  V30 97 H 9.5846 -1.45784 -3.89512 0
M  V30 98 H 8.1616 0.364359 -3.71116 0
M  V30 99 N 10.3467 1.47872 -0.545128 0
M  V30 100 C 11.5867 2.04391 -0.0187854 0
M  V30 101 C 11.9507 1.41162 1.30144 0
M  V30 102 O 13.1517 1.88656 1.91474 0
M  V30 103 C 11.4227 3.57299 0.0850867 0
M  V30 104 S 12.9817 4.35221 0.559302 0
M  V30 105 H 9.7997 0.710737 -0.0193301 0
M  V30 106 H 12.4017 1.81395 -0.729125 0
M  V30 107 H 11.1057 4.00847 -0.880351 0
M  V30 108 H 10.6367 3.84773 0.819348 0
M  V30 109 H 12.6517 4.61571 1.82118 0
M  V30 110 N 11.8248 0.280983 1.55075 0
M  V30 111 C 12.7548 -0.597469 2.25727 0
M  V30 112 C 13.7358 -1.15417 1.24952 0
M  V30 113 O 14.9208 -1.18722 1.53684 0
M  V30 114 C 12.0508 -1.7789 2.98283 0
M  V30 115 C 11.0048 -1.35347 4.06036 0
M  V30 116 C 10.3308 -2.61846 4.66198 0
M  V30 117 C 11.6308 -0.499354 5.19907 0
M  V30 118 H 13.3248 -0.00824265 2.99399 0
M  V30 119 H 10.8708 -0.0025244 1.44 0
M  V30 120 H 12.8238 -2.39937 3.46422 0
M  V30 121 H 11.5478 -2.39405 2.22155 0
M  V30 122 H 10.2068 -0.756156 3.58717 0
M  V30 123 H 9.8548 -3.21632 3.86732 0
M  V30 124 H 9.5548 -2.3409 5.38958 0
M  V30 125 H 11.0788 -3.24732 5.1709 0
M  V30 126 H 12.4928 -1.02498 5.64063 0
M  V30 127 H 10.8898 -0.316424 5.99265 0
M  V30 128 H 11.9598 0.480459 4.82514 0
M  V30 129 N 13.3029 -1.57598 0.00835791 0
M  V30 130 C 14.2329 -2.1198 -0.979113 0
M  V30 131 C 15.2139 -1.03091 -1.35301 0
M  V30 132 O 16.3989 -1.30818 -1.43528 0
M  V30 133 C 13.5289 -2.62995 -2.26828 0
M  V30 134 C 12.4829 -3.76485 -2.03576 0
M  V30 135 C 11.8089 -4.13846 -3.38579 0
M  V30 136 C 13.1089 -5.0342 -1.39161 0
M  V30 137 H 14.8029 -2.94738 -0.526281 0
M  V30 138 H 12.3489 -1.41783 -0.251704 0
M  V30 139 H 14.3019 -2.99669 -2.96271 0
M  V30 140 H 13.0259 -1.7737 -2.7424 0
M  V30 141 H 11.6849 -3.40217 -1.36557 0
M  V30 142 H 11.3329 -3.25232 -3.83709 0
M  V30 143 H 11.0329 -4.90312 -3.23834 0
M  V30 144 H 12.5569 -4.53086 -4.09323 0
M  V30 145 H 13.9709 -5.37812 -1.98573 0
M  V30 146 H 12.3679 -5.84746 -1.34878 0
M  V30 147 H 13.4379 -4.83548 -0.361868 0
M  V30 148 N 14.781 0.264519 -1.55364 0
M  V30 149 C 15.691 1.34902 -1.91934 0
M  V30 150 C 16.707 1.53595 -0.817593 0
M  V30 151 O 17.883 1.67558 -1.11742 0
M  V30 152 C 14.948 2.68676 -2.19121 0
M  V30 153 C 14.009 2.58657 -3.4263 0
M  V30 154 C 13.242 3.86051 -3.68511 0
M  V30 155 O 13.465 4.87126 -2.96757 0
M  V30 156 O 12.399 3.85744 -4.62045 0
M  V30 157 H 16.225 1.06883 -2.8427 0
M  V30 158 H 13.81 0.463775 -1.42019 0
M  V30 159 H 15.692 3.47759 -2.37995 0
M  V30 160 H 14.367 2.96463 -1.29966 0
M  V30 161 H 13.274 1.7792 -3.29082 0
M  V30 162 H 14.607 2.35818 -4.32031 0
M  V30 163 N 16.2591 1.48442 0.529413 0
M  V30 164 C 17.5361 1.46978 1.29062 0
M  V30 165 C 17.9161 0.181769 2.10316 0
M  V30 166 O 17.2641 -0.836481 2.12639 0
M  V30 167 C 17.4741 2.7321 2.17157 0
M  V30 168 C 18.8221 3.21562 2.77278 0
M  V30 169 O 19.8461 2.74131 2.27444 0
M  V30 170 O 18.7051 4.04094 3.67927 0
M  V30 171 H 15.7991 0.587003 0.582543 0
M  V30 172 H 18.3451 1.60676 0.546021 0
M  V30 173 H 17.1171 3.58465 1.56903 0
M  V30 174 H 16.7401 2.62235 2.98862 0
M  V30 175 N 17.7372 -0.778329 1.37039 0
M  V30 176 C 18.6842 -1.89139 1.32269 0
M  V30 177 C 19.6542 -1.65017 0.189387 0
M  V30 178 O 20.8392 -1.87024 0.377693 0
M  V30 179 C 17.9792 -3.26112 1.12894 0
M  V30 180 C 17.0922 -3.62233 2.35396 0
M  V30 181 C 16.2272 -4.8838 2.08946 0
M  V30 182 C 15.2662 -5.17212 3.2735 0
M  V30 183 N 14.4032 -6.34546 3.00492 0
M  V30 184 H 19.2432 -1.92552 2.27437 0
M  V30 185 H 16.7802 -0.941473 1.13025 0
M  V30 186 H 18.7382 -4.05116 0.996835 0
M  V30 187 H 17.3682 -3.22091 0.213758 0
M  V30 188 H 16.4202 -2.78265 2.5937 0
M  V30 189 H 17.7322 -3.79481 3.23721 0
M  V30 190 H 16.8862 -5.75274 1.92729 0
M  V30 191 H 15.6252 -4.73222 1.17949 0
M  V30 192 H 14.6302 -4.28796 3.44113 0
M  V30 193 H 15.8552 -5.34283 4.19188 0
M  V30 194 H 13.8012 -6.20759 2.12118 0
M  V30 195 H 13.7182 -6.52179 3.82358 0
M  V30 196 H 14.9862 -7.24394 2.87879 0
M  V30 197 N 19.2153 -1.21501 -1.00376 0
M  V30 198 C 20.1483 -0.918669 -2.08892 0
M  V30 199 C 21.1263 0.134277 -1.62045 0
M  V30 200 O 22.3103 0.00504255 -1.88499 0
M  V30 201 C 19.4373 -0.379645 -3.36566 0
M  V30 202 C 18.4833 -1.41559 -4.02323 0
M  V30 203 S 19.3163 -2.98521 -4.44574 0
M  V30 204 C 20.4723 -2.46228 -5.75433 0
M  V30 205 H 20.7053 -1.83761 -2.33707 0
M  V30 206 H 18.2383 -1.04489 -1.13673 0
M  V30 207 H 20.1963 -0.0752195 -4.10431 0
M  V30 208 H 18.8573 0.518008 -3.09799 0
M  V30 209 H 18.0503 -0.988076 -4.9422 0
M  V30 210 H 17.6523 -1.66815 -3.34737 0
M  V30 211 H 19.9443 -1.86791 -6.51241 0
M  V30 212 H 20.8873 -3.36572 -6.22997 0
M  V30 213 H 21.2953 -1.87894 -5.32312 0
M  V30 214 N 20.6934 1.19889 -1.02296 0
M  V30 215 C 21.9334 1.91125 -0.724602 0
M  V30 216 C 22.2974 1.77464 0.732835 0
M  V30 217 O 23.4984 2.43241 1.144 0
M  V30 218 C 21.7694 3.38187 -1.15604 0
M  V30 219 S 23.3284 4.27702 -0.980621 0
M  V30 220 H 20.1464 0.66018 -0.263976 0
M  V30 221 H 22.7484 1.44978 -1.31155 0
M  V30 222 H 21.4524 3.45653 -2.21251 0
M  V30 223 H 20.9834 3.89363 -0.562131 0
M  V30 224 H 22.9984 4.96073 0.112225 0
M  V30 225 N 22.1715 0.800033 1.35784 0
M  V30 226 C 23.0815 0.207204 2.33683 0
M  V30 227 C 24.0975 -0.64631 1.61551 0
M  V30 228 O 25.2735 -0.559604 1.93469 0
M  V30 229 C 22.3385 -0.639659 3.40748 0
M  V30 230 C 21.3995 0.233585 4.28664 0
M  V30 231 C 20.6325 -0.572954 5.30616 0
M  V30 232 O 20.8555 -1.80816 5.40982 0
M  V30 233 O 19.7895 0.0327285 6.01891 0
M  V30 234 H 23.6155 1.01692 2.86169 0
M  V30 235 H 21.2005 0.561691 1.38439 0
M  V30 236 H 23.0825 -1.12223 4.06182 0
M  V30 237 H 21.7575 -1.42708 2.90544 0
M  V30 238 H 20.6645 0.763147 3.66233 0
M  V30 239 H 21.9975 0.984784 4.82248 0
M  V30 240 N 23.6496 -1.47581 0.552962 0
M  V30 241 C 24.8976 -2.02082 0.0272703 0
M  V30 242 C 25.2186 -1.4301 -1.32563 0
M  V30 243 O 24.4886 -0.603745 -1.86365 0
M  V30 244 H 23.0686 -0.746966 0.00709182 0
M  V30 245 H 25.7306 -1.81033 0.722008 0
M  V30 246 H 24.8266 -3.12034 -0.0639951 0
M  V30 247 N 25.1277 -0.289203 -1.54924 0
M  V30 248 C 26.0757 0.607966 -2.24514 0
M  V30 249 C 27.0697 1.14655 -1.24702 0
M  V30 250 O 28.2757 1.09856 -1.4259 0
M  V30 251 H 24.6507 0.21464 -0.720718 0
M  V30 252 H 26.6217 -0.00164182 -2.984 0
M  V30 253 C 25.3707 1.77406 -2.99036 0
M  V30 254 H 24.6937 1.36884 -3.75637 0
M  V30 255 H 26.1337 2.37814 -3.51028 0
M  V30 256 C 24.5927 2.67107 -2.05318 0
M  V30 257 O 25.1227 3.6787 -1.61353 0
M  V30 258 N 23.3287 2.34582 -1.71521 0
M  V30 259 H 22.8757 1.52688 -2.07471 0
M  V30 260 H 22.8337 2.94867 -1.0909 0
M  V30 261 N 26.6058 1.57591 -0.0167156 0
M  V30 262 C 27.5528 2.09462 0.969251 0
M  V30 263 C 28.5228 0.99381 1.33089 0
M  V30 264 O 29.7078 1.26726 1.42636 0
M  V30 265 C 26.8478 2.61622 2.25051 0
M  V30 266 C 25.9608 3.85666 1.94642 0
M  V30 267 C 25.0958 4.26266 3.16972 0
M  V30 268 C 24.1348 5.43101 2.82326 0
M  V30 269 N 23.2718 5.78915 3.97243 0
M  V30 270 H 28.1118 2.93428 0.519997 0
M  V30 271 H 25.6488 1.45044 0.245087 0
M  V30 272 H 27.6068 2.89949 2.99976 0
M  V30 273 H 26.2368 1.80505 2.67615 0
M  V30 274 H 25.2888 3.64145 1.10013 0
M  V30 275 H 26.6008 4.70678 1.65117 0
M  V30 276 H 25.7548 4.55963 4.00228 0
M  V30 277 H 24.4938 3.39996 3.49648 0
M  V30 278 H 23.4988 5.1311 1.97479 0
M  V30 279 H 24.7238 6.3106 2.50879 0
M  V30 280 H 22.6698 4.95602 4.29785 0
M  V30 281 H 22.5868 6.58539 3.71299 0
M  V30 282 H 23.8548 6.13212 4.81239 0
M  V30 283 N 28.0839 -0.256276 1.55502 0
M  V30 284 C 29.3119 -1.00342 1.8094 0
M  V30 285 C 29.7269 -1.79307 0.59114 0
M  V30 286 O 29.0839 -1.77114 -0.440081 0
M  V30 287 C 29.1349 -1.94875 3.04476 0
M  V30 288 O 28.8559 -1.19107 4.21598 0
M  V30 289 C 30.3569 -2.81266 3.42644 0
M  V30 290 H 27.5769 -0.295685 0.602338 0
M  V30 291 H 30.1209 -0.281998 2.02546 0
M  V30 292 H 28.2759 -2.62457 2.84947 0
M  V30 293 H 28.6899 -1.82969 4.91551 0
M  V30 294 H 30.1639 -3.43362 4.32211 0
M  V30 295 H 30.6409 -3.51897 2.62802 0
M  V30 296 H 31.2469 -2.1915 3.64491 0
M  V30 297 N 29.562 -1.4872 -0.521534 0
M  V30 298 C 30.79 -1.60843 -1.30142 0
M  V30 299 C 31.205 -0.271897 -1.86832 0
M  V30 300 O 30.562 0.739969 -1.66825 0
M  V30 301 C 30.613 -2.66155 -2.4463 0
M  V30 302 O 30.334 -3.94623 -1.90275 0
M  V30 303 C 31.835 -2.88795 -3.36322 0
M  V30 304 H 29.055 -0.542075 -0.395468 0
M  V30 305 H 31.599 -1.94609 -0.628285 0
M  V30 306 H 29.754 -2.35224 -3.07812 0
M  V30 307 H 30.168 -4.52468 -2.65279 0
M  V30 308 H 31.642 -3.66264 -4.12983 0
M  V30 309 H 32.119 -1.97934 -3.9207 0
M  V30 310 H 32.725 -3.21063 -2.78924 0
M  V30 311 N 31.0401 0.771051 -1.3745 0
M  V30 312 C 31.9731 1.89166 -1.27638 0
M  V30 313 C 32.9511 1.61842 -0.156782 0
M  V30 314 O 34.1351 1.85569 -0.331111 0
M  V30 315 C 31.2621 3.24405 -0.973621 0
M  V30 316 C 30.3081 3.70638 -2.1102 0
M  V30 317 S 31.1411 3.84228 -3.73 0
M  V30 318 C 32.2971 5.22313 -3.44876 0
M  V30 319 H 32.5301 1.972 -2.22485 0
M  V30 320 H 30.0631 0.932224 -1.23081 0
M  V30 321 H 32.0211 4.02514 -0.805766 0
M  V30 322 H 30.6821 3.14071 -0.0426279 0
M  V30 323 H 29.8751 4.68685 -1.85338 0
M  V30 324 H 29.4771 2.99632 -2.23822 0
M  V30 325 H 31.7691 6.07505 -2.99908 0
M  V30 326 H 32.7121 5.53008 -4.42253 0
M  V30 327 H 33.1201 4.90284 -2.79789 0
M  V30 328 N 32.5182 1.22032 0.997298 0
M  V30 329 C 33.4812 0.987909 2.06816 0
M  V30 330 C 34.4812 -0.0440084 1.6074 0
M  V30 331 O 35.6712 0.194053 1.73116 0
M  V30 332 C 32.8032 0.49132 3.37341 0
M  V30 333 H 33.9962 1.93803 2.28868 0
M  V30 334 H 31.5492 1.03838 1.16822 0
M  V30 335 H 32.2842 -0.463364 3.20973 0
M  V30 336 H 32.0692 1.23575 3.72118 0
M  V30 337 H 33.5592 0.348824 4.16141 0
M  V30 338 N 33.9963 -1.19345 1.0293 0
M  V30 339 C 35.2213 -1.93538 0.745511 0
M  V30 340 C 35.6463 -1.75007 -0.689511 0
M  V30 341 O 35.0043 -1.05265 -1.47611 0
M  V30 342 C 35.0523 -3.43336 1.10239 0
M  V30 343 O 34.1563 -4.11806 0.221289 0
M  V30 344 H 33.4973 -0.604193 0.275404 0
M  V30 345 H 36.0273 -1.5141 1.37609 0
M  V30 346 H 36.0373 -3.94004 1.05947 0
M  V30 347 H 34.7123 -3.56146 2.14786 0
M  V30 348 H 33.2893 -3.715 0.322842 0
M  V30 349 N 35.4744 -0.807222 -1.35358 0
M  V30 350 C 36.8854 -0.44876 -1.81226 0
M  V30 351 C 37.2364 1.02929 -1.67033 0
M  V30 352 O 36.3614 1.79991 -1.20133 0
M  V30 353 C 36.9564 -0.807774 -3.2903 0
M  V30 354 C 35.5154 -0.501901 -3.73039 0
M  V30 355 C 34.6624 -1.03304 -2.57339 0
M  V30 356 H 37.6134 -0.998808 -1.23327 0
M  V30 357 H 37.6344 -0.10554 -3.80354 0
M  V30 358 H 37.1464 -1.88357 -3.39328 0
M  V30 359 H 35.2474 0.565128 -3.68289 0
M  V30 360 H 35.3604 -1.03497 -4.67787 0
M  V30 361 H 33.7244 -0.455339 -2.50597 0
M  V30 362 H 34.5074 -2.11496 -2.70415 0
M  V30 363 N 36.9525 1.47285 -0.560781 0
M  V30 364 C 37.8845 2.28118 0.222438 0
M  V30 365 C 38.8975 1.37219 0.876056 0
M  V30 366 O 40.0865 1.62011 0.749307 0
M  V30 367 C 37.1865 3.1159 1.33285 0
M  V30 368 C 36.3595 4.30473 0.77534 0
M  V30 369 C 35.4185 4.95513 1.77069 0
M  V30 370 O 34.4445 5.53792 1.31539 0
M  V30 371 N 35.6465 4.90531 3.10418 0
M  V30 372 H 38.4115 2.95976 -0.470958 0
M  V30 373 H 35.9725 1.56955 -0.39709 0
M  V30 374 H 37.9645 3.51967 1.99752 0
M  V30 375 H 36.5345 2.45951 1.92943 0
M  V30 376 H 35.7545 3.94144 -0.0662113 0
M  V30 377 H 37.0425 5.07362 0.382272 0
M  V30 378 H 36.4405 4.44389 3.5005 0
M  V30 379 H 34.9975 5.34917 3.72434 0
M  V30 380 N 38.4306 0.297415 1.54768 0
M  V30 381 C 39.3606 -0.573494 2.26348 0
M  V30 382 C 40.3416 -1.14085 1.26169 0
M  V30 383 O 41.5266 -1.17086 1.54934 0
M  V30 384 C 38.6566 -1.74716 3.00153 0
M  V30 385 C 37.6106 -1.31032 4.07449 0
M  V30 386 C 36.9366 -2.56887 4.68949 0
M  V30 387 C 38.2366 -0.444183 5.20408 0
M  V30 388 H 39.9306 0.0235131 2.99391 0
M  V30 389 H 37.4766 0.0127488 1.43994 0
M  V30 390 H 39.4296 -2.3625 3.48947 0
M  V30 391 H 38.1536 -2.37035 2.24682 0
M  V30 392 H 36.8126 -0.718066 3.59499 0
M  V30 393 H 36.4606 -3.17512 3.90122 0
M  V30 394 H 36.1606 -2.2836 5.41411 0
M  V30 395 H 37.6846 -3.19229 5.20505 0
M  V30 396 H 39.0986 -0.9651 5.65118 0
M  V30 397 H 37.4956 -0.252846 5.99567 0
M  V30 398 H 38.5656 0.531609 4.81977 0
M  V30 399 N 39.9087 -1.5758 0.0250728 0
M  V30 400 C 40.8417 -2.05473 -0.992777 0
M  V30 401 C 41.8197 -0.949661 -1.31986 0
M  V30 402 O 43.0037 -1.21969 -1.43722 0
M  V30 403 C 40.1307 -2.4734 -2.31389 0
M  V30 404 C 39.1767 -3.68827 -2.1417 0
M  V30 405 S 40.0097 -5.15655 -1.44429 0
M  V30 406 C 41.1657 -5.60814 -2.77918 0
M  V30 407 H 41.3987 -2.91486 -0.585078 0
M  V30 408 H 38.9317 -1.53269 -0.186507 0
M  V30 409 H 40.8897 -2.72127 -3.07339 0
M  V30 410 H 39.5507 -1.6168 -2.69292 0
M  V30 411 H 38.7437 -3.95955 -3.11826 0
M  V30 412 H 38.3457 -3.44172 -1.46362 0
M  V30 413 H 40.6377 -5.64806 -3.74166 0
M  V30 414 H 41.5807 -6.60414 -2.55459 0
M  V30 415 H 41.9887 -4.8845 -2.82979 0
M  V30 416 N 41.3868 0.248026 -1.55636 0
M  V30 417 C 42.7978 0.817177 -1.67866 0
M  V30 418 C 43.1488 1.86069 -0.622322 0
M  V30 419 O 42.2738 2.15157 0.231618 0
M  V30 420 C 42.8688 1.489 -3.04326 0
M  V30 421 C 41.4278 2.00587 -3.185 0
M  V30 422 C 40.5748 0.856573 -2.63739 0
M  V30 423 H 43.5258 0.0238579 -1.58682 0
M  V30 424 H 43.5468 2.35698 -2.98708 0
M  V30 425 H 43.0588 0.729279 -3.81186 0
M  V30 426 H 41.1598 2.79443 -2.4646 0
M  V30 427 H 41.2728 2.20402 -4.25393 0
M  V30 428 H 39.6368 1.25678 -2.21534 0
M  V30 429 H 40.4198 0.109953 -3.43124 0
M  V30 430 N 42.8649 1.48995 0.513639 0
M  V30 431 C 43.7949 1.67636 1.62544 0
M  V30 432 C 44.7759 0.525087 1.61793 0
M  V30 433 O 45.9609 0.759502 1.78732 0
M  V30 434 C 43.0909 1.73114 3.01079 0
M  V30 435 C 42.0449 2.87905 3.16693 0
M  V30 436 C 41.3709 2.78486 4.56453 0
M  V30 437 C 42.6709 4.29005 2.97913 0
M  V30 438 H 44.3649 2.60716 1.47198 0
M  V30 439 H 41.9109 1.25465 0.706714 0
M  V30 440 H 43.8639 1.84742 3.78746 0
M  V30 441 H 42.5879 0.766241 3.17484 0
M  V30 442 H 41.2469 2.75859 2.41448 0
M  V30 443 H 40.8949 1.7993 4.69717 0
M  V30 444 H 40.5949 3.55523 4.67843 0
M  V30 445 H 42.1189 2.92104 5.36197 0
M  V30 446 H 43.5329 4.41798 3.65359 0
M  V30 447 H 41.9299 5.07166 3.20785 0
M  V30 448 H 42.9999 4.44329 1.94165 0
M  V30 449 N 44.343 -0.763751 1.37857 0
M  V30 450 C 45.589 -1.52483 1.33704 0
M  V30 451 C 45.922 -1.94051 -0.0759612 0
M  V30 452 O 45.197 -1.64675 -1.03501 0
M  V30 453 C 45.48 -2.78441 2.28348 0
M  V30 454 C 45.333 -2.43075 3.78463 0
M  V30 455 C 46.652 -3.80415 2.21298 0
M  V30 456 H 43.771 -0.553169 0.487005 0
M  V30 457 H 46.413 -0.875562 1.68624 0
M  V30 458 H 44.563 -3.33842 1.987 0
M  V30 459 H 46.235 -1.93527 4.18742 0
M  V30 460 H 44.478 -1.75666 3.96641 0
M  V30 461 H 45.149 -3.33149 4.40132 0
M  V30 462 H 47.625 -3.34527 2.47449 0
M  V30 463 H 46.501 -4.66257 2.89647 0
M  V30 464 H 46.762 -4.25262 1.20849 0
M  V30 465 N 45.8211 -1.22559 -0.990812 0
M  V30 466 C 47.0671 -1.05297 -1.73322 0
M  V30 467 C 47.4001 0.410655 -1.89808 0
M  V30 468 O 46.6751 1.30439 -1.44277 0
M  V30 469 C 46.9581 -1.76713 -3.13759 0
M  V30 470 C 46.8111 -3.30684 -3.04907 0
M  V30 471 C 48.1301 -1.52121 -4.12974 0
M  V30 472 H 45.2491 -0.38392 -0.629106 0
M  V30 473 H 47.8911 -1.50926 -1.15418 0
M  V30 474 H 46.0411 -1.37924 -3.63193 0
M  V30 475 H 47.7131 -3.7893 -2.63077 0
M  V30 476 H 45.9561 -3.60253 -2.41661 0
M  V30 477 H 46.6271 -3.75833 -4.04294 0
M  V30 478 H 49.1031 -1.85819 -3.72304 0
M  V30 479 H 47.9791 -2.04582 -5.0935 0
M  V30 480 H 48.2401 -0.454257 -4.3976 0
M  V30 481 N 47.2992 1.18797 -1.03562 0
M  V30 482 C 48.5452 1.8893 -0.737113 0
M  V30 483 C 48.8782 1.79837 0.732956 0
M  V30 484 O 48.1532 1.19525 1.5344 0
M  V30 485 C 48.4362 3.39607 -1.19745 0
M  V30 486 C 48.2892 3.57537 -2.72924 0
M  V30 487 C 49.6082 4.33069 -0.783526 0
M  V30 488 H 46.7272 0.686057 -0.269249 0
M  V30 489 H 49.3692 1.39797 -1.28673 0
M  V30 490 H 47.5192 3.81583 -0.729855 0
M  V30 491 H 49.1912 3.24688 -3.27682 0
M  V30 492 H 47.4342 3.00363 -3.12993 0
M  V30 493 H 48.1052 4.63238 -3.00191 0
M  V30 494 H 50.5812 3.98846 -1.18581 0
M  V30 495 H 49.4572 5.3707 -1.13343 0
M  V30 496 H 49.7182 4.40986 0.313681 0
M  V30 497 N 48.7773 0.814389 1.34928 0
M  V30 498 C 49.7073 0.244827 2.32213 0
M  V30 499 C 50.6883 -0.634024 1.57842 0
M  V30 500 O 51.8733 -0.562676 1.8587 0
M  V30 501 C 49.0033 -0.601106 3.42058 0
M  V30 502 C 47.9573 0.179896 4.27622 0
M  V30 503 C 47.2833 -0.788237 5.28858 0
M  V30 504 C 48.5833 1.38329 5.03649 0
M  V30 505 H 50.2773 1.05763 2.80097 0
M  V30 506 H 47.8233 0.510029 1.34665 0
M  V30 507 H 49.7763 -1.00968 4.09125 0
M  V30 508 H 48.5003 -1.44688 2.92802 0
M  V30 509 H 47.1593 0.569739 3.62146 0
M  V30 510 H 46.8073 -1.62973 4.75866 0
M  V30 511 H 46.5073 -0.269942 5.8698 0
M  V30 512 H 48.0313 -1.19485 5.98795 0
M  V30 513 H 49.4453 1.04918 5.63618 0
M  V30 514 H 47.8423 1.83662 5.71304 0
M  V30 515 H 48.9123 2.16592 4.33839 0
M  V30 516 N 50.2554 -1.46986 0.568584 0
M  V30 517 C 51.4804 -2.07335 0.0520528 0
M  V30 518 C 51.9054 -1.41675 -1.23733 0
M  V30 519 O 51.2634 -0.495623 -1.74394 0
M  V30 520 C 51.3114 -3.60417 -0.11501 0
M  V30 521 O 50.4154 -3.95309 -1.17492 0
M  V30 522 H 49.7564 -0.661597 0.0564385 0
M  V30 523 H 52.2864 -1.88837 0.787507 0
M  V30 524 H 52.2964 -4.06698 -0.325644 0
M  V30 525 H 50.9714 -4.07601 0.826675 0
M  V30 526 H 49.5484 -3.60757 -0.943869 0
M  V30 527 N 51.7335 -0.305618 -1.54608 0
M  V30 528 C 52.9615 0.304775 -2.04643 0
M  V30 529 C 53.3765 1.47167 -1.18268 0
M  V30 530 O 52.7335 1.81296 -0.209328 0
M  V30 531 C 52.7845 0.756564 -3.53495 0
M  V30 532 O 52.5055 -0.36389 -4.36586 0
M  V30 533 C 54.0065 1.43163 -4.19546 0
M  V30 534 H 51.2265 0.0655481 -0.667791 0
M  V30 535 H 53.7705 -0.446592 -1.99564 0
M  V30 536 H 51.9255 1.45794 -3.58919 0
M  V30 537 H 52.3395 -0.0113121 -5.24499 0
M  V30 538 H 53.8135 1.69886 -5.25207 0
M  V30 539 H 54.2905 2.37318 -3.69563 0
M  V30 540 H 54.8965 0.773307 -4.18211 0
M  V30 541 N 53.2116 1.57565 -0.0334293 0
M  V30 542 C 54.4606 1.91155 0.643639 0
M  V30 543 C 54.7736 0.91192 1.73042 0
M  V30 544 O 55.9796 1.13923 2.46442 0
M  V30 545 C 54.4356 3.39443 1.1961 0
M  V30 546 C 54.0436 4.47774 0.142381 0
M  V30 547 C 55.7876 3.82094 1.84944 0
M  V30 548 C 53.6946 5.87162 0.706727 0
M  V30 549 H 52.6246 0.713368 0.244176 0
M  V30 550 H 55.2756 1.8323 -0.0994323 0
M  V30 551 H 53.6576 3.42313 1.99092 0
M  V30 552 H 54.8316 4.56469 -0.630296 0
M  V30 553 H 53.1466 4.14352 -0.412446 0
M  V30 554 H 55.7436 4.83591 2.2813 0
M  V30 555 H 56.0866 3.17386 2.69392 0
M  V30 556 H 56.6196 3.81665 1.12145 0
M  V30 557 H 53.3586 6.55424 -0.0997178 0
M  V30 558 H 52.8786 5.82064 1.44779 0
M  V30 559 H 54.5576 6.35866 1.19514 0
M  V30 560 N 54.6897 -0.239769 1.55765 0
M  V30 561 C 55.9297 -0.974076 1.79697 0
M  V30 562 C 56.2937 -1.82249 0.604088 0
M  V30 563 O 57.4947 -2.58913 0.722324 0
M  V30 564 C 55.7657 -1.80595 3.08416 0
M  V30 565 S 57.3247 -2.59838 3.53596 0
M  V30 566 H 54.1427 -0.327524 0.63107 0
M  V30 567 H 56.7447 -0.241277 1.94005 0
M  V30 568 H 55.4487 -1.17249 3.93295 0
M  V30 569 H 54.9797 -2.58137 2.96865 0
M  V30 570 H 56.9947 -3.82987 3.15492 0
M  V30 571 N 56.1678 -1.49265 -0.50573 0
M  V30 572 C 57.0978 -1.68495 -1.61653 0
M  V30 573 C 58.0788 -0.53366 -1.61512 0
M  V30 574 O 59.2638 -0.76897 -1.78327 0
M  V30 575 C 56.3938 -1.74709 -3.00157 0
M  V30 576 C 55.3478 -2.89581 -3.15162 0
M  V30 577 C 54.6738 -2.80903 -4.5497 0
M  V30 578 C 55.9738 -4.30578 -2.95634 0
M  V30 579 H 57.6678 -2.61493 -1.45814 0
M  V30 580 H 55.2138 -1.25838 -0.70005 0
M  V30 581 H 57.1668 -1.86748 -3.77761 0
M  V30 582 H 55.8908 -0.783067 -3.17074 0
M  V30 583 H 54.5498 -2.77136 -2.39982 0
M  V30 584 H 54.1978 -1.82419 -4.68756 0
M  V30 585 H 53.8978 -3.57999 -4.65951 0
M  V30 586 H 55.4218 -2.94944 -5.34641 0
M  V30 587 H 56.8358 -4.4373 -3.63011 0
M  V30 588 H 55.2328 -5.0886 -3.18091 0
M  V30 589 H 56.3028 -4.45352 -1.91806 0
M  V30 590 N 57.6459 0.756429 -1.3826 0
M  V30 591 C 58.8919 1.51772 -1.34511 0
M  V30 592 C 59.2249 1.94089 0.0656691 0
M  V30 593 O 58.4999 1.65221 1.02626 0
M  V30 594 C 58.7829 2.77226 -2.29821 0
M  V30 595 C 58.6359 2.41065 -3.79747 0
M  V30 596 C 59.9549 3.79236 -2.23312 0
M  V30 597 H 57.0739 0.550578 -0.489931 0
M  V30 598 H 59.7159 0.866607 -1.69086 0
M  V30 599 H 57.8659 3.32784 -2.00467 0
M  V30 600 H 59.5379 1.91303 -4.19763 0
M  V30 601 H 57.7809 1.7356 -3.97567 0
M  V30 602 H 58.4519 3.3081 -4.41892 0
M  V30 603 H 60.9279 3.3321 -2.49219 0
M  V30 604 H 59.8039 4.64714 -2.92116 0
M  V30 605 H 60.0649 4.24615 -1.23102 0
M  V30 606 N 59.124 1.23083 0.984299 0
M  V30 607 C 60.352 1.08714 1.76037 0
M  V30 608 C 60.767 -0.361691 1.85303 0
M  V30 609 O 60.124 -1.25034 1.32939 0
M  V30 610 C 60.175 1.70206 3.18923 0
M  V30 611 O 59.896 3.09423 3.10144 0
M  V30 612 C 61.397 1.61227 4.12941 0
M  V30 613 H 58.617 0.380664 0.552572 0
M  V30 614 H 61.161 1.62853 1.23689 0
M  V30 615 H 59.316 1.20109 3.6831 0
M  V30 616 H 59.73 3.39188 4.00065 0
M  V30 617 H 61.204 2.08962 5.10919 0
M  V30 618 H 61.681 0.570375 4.35481 0
M  V30 619 H 62.287 2.10671 3.69456 0
M  V30 620 N 60.6021 -1.18246 1.0419 0
M  V30 621 C 61.8481 -1.88536 0.747122 0
M  V30 622 C 62.1811 -1.80223 -0.723409 0
M  V30 623 O 61.4561 -1.20337 -1.52804 0
M  V30 624 C 61.7391 -3.38968 1.21544 0
M  V30 625 C 61.5921 -3.56084 2.74816 0
M  V30 626 C 62.9111 -4.32648 0.806482 0
M  V30 627 H 60.0301 -0.684619 0.272883 0
M  V30 628 H 62.6721 -1.39113 1.29413 0
M  V30 629 H 60.8221 -3.8119 0.750081 0
M  V30 630 H 62.4941 -3.22946 3.29399 0
M  V30 631 H 60.7371 -2.98699 3.14582 0
M  V30 632 H 61.4081 -4.61639 3.02644 0
M  V30 633 H 63.8841 -3.98211 1.20695 0
M  V30 634 H 62.7601 -5.36462 1.1619 0
M  V30 635 H 63.0211 -4.41146 -0.29029 0
M  V30 636 N 62.0802 -0.821533 -1.34494 0
M  V30 637 C 63.3282 -0.408139 -1.97936 0
M  V30 638 C 63.6492 1.03193 -1.65457 0
M  V30 639 O 62.9192 1.71622 -0.944595 0
M  V30 640 H 61.4992 -0.147928 -0.732206 0
M  V30 641 H 64.1612 -1.05067 -1.64155 0
M  V30 642 H 63.2572 -0.52601 -3.07635 0
M  V30 643 N 63.5583 1.46682 -0.576371 0
M  V30 644 C 64.4883 2.33028 0.148397 0
M  V30 645 C 65.4693 1.44961 0.889956 0
M  V30 646 O 66.6543 1.73789 0.866662 0
M  V30 647 C 63.7843 3.27117 1.1667 0
M  V30 648 C 62.7383 4.24575 0.540386 0
M  V30 649 C 62.0643 5.08126 1.6647 0
M  V30 650 C 63.3643 5.19722 -0.518331 0
M  V30 651 H 65.0583 2.93875 -0.572509 0
M  V30 652 H 62.6043 1.41315 -0.276768 0
M  V30 653 H 64.5573 3.86374 1.68204 0
M  V30 654 H 63.2813 2.64364 1.9178 0
M  V30 655 H 61.9403 3.66571 0.0461769 0
M  V30 656 H 61.5883 4.41762 2.40531 0
M  V30 657 H 61.2883 5.74122 1.25131 0
M  V30 658 H 62.8123 5.70246 2.18293 0
M  V30 659 H 64.2263 5.73232 -0.0883058 0
M  V30 660 H 62.6233 5.94026 -0.851679 0
M  V30 661 H 63.6933 4.64037 -1.40703 0
M  V30 662 N 65.0364 0.313813 1.54444 0
M  V30 663 C 65.9844 -0.572171 2.25453 0
M  V30 664 C 66.9784 -1.12657 1.2651 0
M  V30 665 O 68.1844 -1.07573 1.44319 0
M  V30 666 H 64.5594 -0.203146 0.724041 0
M  V30 667 H 66.5304 0.0491145 2.9836 0
M  V30 668 C 65.2794 -1.72626 3.0182 0
M  V30 669 H 64.6024 -1.30891 3.77767 0
M  V30 670 H 66.0424 -2.32199 3.54767 0
M  V30 671 C 64.5014 -2.63806 2.09542 0
M  V30 672 O 65.0314 -3.65256 1.67185 0
M  V30 673 N 63.2374 -2.31824 1.75232 0
M  V30 674 H 62.7844 -1.49368 2.09873 0
M  V30 675 H 62.7424 -2.93095 1.13767 0
M  V30 676 N 66.5145 -1.57545 0.0417849 0
M  V30 677 C 67.4445 -2.14009 -0.933929 0
M  V30 678 C 68.4255 -1.05938 -1.33083 0
M  V30 679 O 69.6105 -1.33833 -1.40721 0
M  V30 680 C 66.7405 -2.67747 -2.21199 0
M  V30 681 C 65.6945 -3.80718 -1.95544 0
M  V30 682 C 65.0205 -4.20935 -3.29724 0
M  V30 683 C 66.3205 -5.06258 -1.28452 0
M  V30 684 H 68.0145 -2.95788 -0.463645 0
M  V30 685 H 65.5605 -1.42285 -0.221573 0
M  V30 686 H 67.5135 -3.05886 -2.89848 0
M  V30 687 H 66.2375 -1.83147 -2.70416 0
M  V30 688 H 64.8965 -3.43037 -1.2931 0
M  V30 689 H 64.5445 -3.33298 -3.76724 0
M  V30 690 H 64.2445 -4.9707 -3.13361 0
M  V30 691 H 65.7685 -4.61666 -3.9962 0
M  V30 692 H 67.1825 -5.41903 -1.8712 0
M  V30 693 H 65.5795 -5.87475 -1.22445 0
M  V30 694 H 66.6495 -4.84207 -0.259219 0
M  V30 695 N 67.9926 0.231505 -1.5589 0
M  V30 696 C 68.9226 1.29022 -1.94617 0
M  V30 697 C 69.9036 1.4941 -0.813067 0
M  V30 698 O 71.0886 1.6176 -1.07459 0
M  V30 699 C 68.2186 2.64199 -2.25424 0
M  V30 700 C 67.1726 2.58484 -3.41131 0
M  V30 701 C 66.4986 3.97599 -3.57518 0
M  V30 702 C 67.7986 2.1413 -4.76388 0
M  V30 703 H 69.4926 0.968563 -2.83301 0
M  V30 704 H 67.0386 0.464479 -1.36303 0
M  V30 705 H 68.9916 3.38413 -2.51107 0
M  V30 706 H 67.7156 2.98032 -1.33583 0
M  V30 707 H 66.3746 1.86727 -3.15481 0
M  V30 708 H 66.0226 4.28723 -2.6307 0
M  V30 709 H 65.7226 3.94659 -4.35337 0
M  V30 710 H 67.2466 4.7349 -3.85538 0
M  V30 711 H 68.6606 2.78083 -5.01341 0
M  V30 712 H 67.0576 2.2227 -5.57419 0
M  V30 713 H 68.1276 1.09331 -4.72414 0
M  V30 714 N 69.4707 1.49531 0.497807 0
M  V30 715 C 70.7167 1.59415 1.25358 0
M  V30 716 C 71.0497 0.281422 1.9215 0
M  V30 717 O 70.3247 -0.715249 1.80871 0
M  V30 718 C 70.6077 2.75566 2.3181 0
M  V30 719 C 70.4607 4.16642 1.69498 0
M  V30 720 C 71.7797 2.87347 3.33346 0
M  V30 721 H 68.8987 0.580244 0.454408 0
M  V30 722 H 71.5407 1.81827 0.551262 0
M  V30 723 H 69.6907 2.56587 2.91711 0
M  V30 724 H 71.3627 4.47145 1.13399 0
M  V30 725 H 69.6057 4.22141 0.998978 0
M  V30 726 H 70.2767 4.93792 2.46725 0
M  V30 727 H 72.7527 3.04634 2.83438 0
M  V30 728 H 71.6287 3.70289 4.05188 0
M  V30 729 H 71.8897 1.96834 3.95865 0
M  V30 730 N 70.9488 -0.749086 1.3866 0
M  V30 731 C 71.8788 -1.8764 1.38973 0
M  V30 732 C 72.8598 -1.68178 0.255004 0
M  V30 733 O 74.0448 -1.88704 0.458754 0
M  V30 734 C 71.1748 -3.25222 1.21851 0
M  V30 735 C 70.1288 -3.59295 2.32575 0
M  V30 736 C 69.4548 -4.95663 2.00555 0
M  V30 737 C 70.7548 -3.63709 3.7485 0
M  V30 738 H 72.4488 -1.87635 2.3331 0
M  V30 739 H 69.9948 -0.901329 1.12303 0
M  V30 740 H 71.9478 -4.03746 1.20695 0
M  V30 741 H 70.6718 -3.25719 0.239775 0
M  V30 742 H 69.3308 -2.83093 2.32925 0
M  V30 743 H 68.9788 -4.92724 1.01154 0
M  V30 744 H 68.6788 -5.19429 2.74714 0
M  V30 745 H 70.2028 -5.7656 2.01024 0
M  V30 746 H 71.6168 -4.32338 3.76506 0
M  V30 747 H 70.0138 -3.98986 4.48252 0
M  V30 748 H 71.0838 -2.63834 4.06841 0
M  V30 749 N 72.4269 -1.23603 -0.977757 0
M  V30 750 C 73.6569 -1.09487 -1.75203 0
M  V30 751 C 74.0649 0.356321 -1.85814 0
M  V30 752 O 73.4079 1.25816 -1.33851 0
M  V30 753 C 73.4699 -1.64905 -3.19447 0
M  V30 754 C 73.1339 -3.13688 -3.32338 0
M  V30 755 C 74.1309 -4.10953 -3.18455 0
M  V30 756 C 71.8159 -3.53449 -3.56902 0
M  V30 757 C 73.8099 -5.45962 -3.28944 0
M  V30 758 C 71.4969 -4.88602 -3.6703 0
M  V30 759 C 72.4949 -5.84668 -3.53062 0
M  V30 760 O 72.1829 -7.17365 -3.62826 0
M  V30 761 H 71.9149 -0.38367 -0.556573 0
M  V30 762 H 74.4689 -1.6398 -1.23693 0
M  V30 763 H 72.6989 -1.04835 -3.72218 0
M  V30 764 H 74.3879 -1.46226 -3.78646 0
M  V30 765 H 75.1539 -3.81577 -2.99372 0
M  V30 766 H 71.0329 -2.79188 -3.66844 0
M  V30 767 H 74.5769 -6.20925 -3.17958 0
M  V30 768 H 70.4739 -5.17653 -3.85623 0
M  V30 769 H 71.2419 -7.2515 -3.79605 0
M  V30 770 N 73.905 1.17692 -1.04816 0
M  V30 771 C 74.868 2.19787 -0.650117 0
M  V30 772 C 75.868 1.58044 0.296427 0
M  V30 773 O 77.058 1.74012 0.0808097 0
M  V30 774 C 74.19 3.40869 0.0456987 0
M  V30 775 H 75.383 2.56516 -1.5537 0
M  V30 776 H 72.936 1.31708 -0.841594 0
M  V30 777 H 73.671 3.09681 0.962726 0
M  V30 778 H 73.456 3.86928 -0.634727 0
M  V30 779 H 74.946 4.16445 0.310432 0
M  V30 780 N 75.3831 0.828654 1.34056 0
M  V30 781 C 76.6291 0.42008 1.98402 0
M  V30 782 C 76.9621 -1.01564 1.65525 0
M  V30 783 O 76.2371 -1.70834 0.929831 0
M  V30 784 C 76.5201 0.62927 3.54559 0
M  V30 785 C 76.3731 2.11152 3.97159 0
M  V30 786 C 77.6921 0.0688756 4.40046 0
M  V30 787 H 74.8111 0.154104 0.720709 0
M  V30 788 H 77.4531 1.04228 1.5886 0
M  V30 789 H 75.6031 0.0996418 3.88372 0
M  V30 790 H 77.2751 2.70522 3.73651 0
M  V30 791 H 75.5181 2.59985 3.47261 0
M  V30 792 H 76.1891 2.20868 5.05887 0
M  V30 793 H 78.6651 0.521458 4.1282 0
M  V30 794 H 77.5411 0.245006 5.48353 0
M  V30 795 H 77.8021 -1.0266 4.30015 0
M  V30 796 N 76.8612 -1.46375 0.584142 0
M  V30 797 C 78.2772 -1.57694 0.245929 0
M  V30 798 C 78.4772 -1.57903 -1.25175 0
M  V30 799 O 77.5332 -1.49676 -2.03355 0
M  V30 800 C 78.8462 -2.87028 0.896402 0
M  V30 801 C 80.3942 -3.00662 0.870127 0
M  V30 802 C 80.8692 -4.32734 1.50017 0
M  V30 803 N 82.3602 -4.39436 1.46458 0
M  V30 804 C 83.0952 -5.40248 1.92144 0
M  V30 805 N 82.5912 -6.47726 2.4581 0
M  V30 806 N 84.3842 -5.31459 1.83052 0
M  V30 807 H 76.5352 -1.44483 1.55687 0
M  V30 808 H 78.7982 -0.689291 0.650831 0
M  V30 809 H 78.5042 -2.9269 1.95002 0
M  V30 810 H 78.3782 -3.75014 0.405486 0
M  V30 811 H 80.7652 -2.94581 -0.174871 0
M  V30 812 H 80.8462 -2.14148 1.39908 0
M  V30 813 H 80.4902 -4.39573 2.54437 0
M  V30 814 H 80.4202 -5.18025 0.946432 0
M  V30 815 H 82.9112 -3.62367 1.07231 0
M  V30 816 H 83.2242 -7.20863 2.78525 0
M  V30 817 H 81.5692 -6.48542 2.49836 0
M  V30 818 H 84.7602 -4.46396 1.40883 0
M  V30 819 H 84.9332 -6.09881 2.18973 0
M  V30 820 N 78.3393 -0.321999 -1.54275 0
M  V30 821 C 79.5643 0.285791 -2.05422 0
M  V30 822 C 79.9893 1.45124 -1.19669 0
M  V30 823 O 79.3473 1.80132 -0.205441 0
M  V30 824 C 79.3953 0.69956 -3.53749 0
M  V30 825 O 78.4993 1.8021 -3.70942 0
M  V30 826 H 77.8403 0.0518962 -0.661969 0
M  V30 827 H 80.3703 -0.469954 -1.9913 0
M  V30 828 H 80.3803 0.982649 -3.9599 0
M  V30 829 H 79.0553 -0.152864 -4.15619 0
M  V30 830 H 77.6323 1.51794 -3.40607 0
M  V30 831 N 79.8174 1.5752 -0.0501392 0
M  V30 832 C 80.7274 2.14952 0.939827 0
M  V30 833 C 81.7434 1.10706 1.34239 0
M  V30 834 O 82.9194 1.42869 1.41952 0
M  V30 835 C 79.9844 2.68232 2.19665 0
M  V30 836 C 79.0454 3.87272 1.85253 0
M  V30 837 C 78.2784 4.38002 3.04943 0
M  V30 838 O 78.5014 3.87811 4.18281 0
M  V30 839 O 77.4354 5.29602 2.86017 0
M  V30 840 H 81.2614 2.9986 0.481392 0
M  V30 841 H 78.8464 1.4841 0.171699 0
M  V30 842 H 80.7284 3.02475 2.93406 0
M  V30 843 H 79.4034 1.86395 2.64648 0
M  V30 844 H 78.3104 3.5792 1.0883 0
M  V30 845 H 79.6434 4.70336 1.4507 0
M  V30 846 N 81.2955 -0.223234 1.56011 0
M  V30 847 C 82.7115 -0.572856 1.48965 0
M  V30 848 C 82.9115 -1.87225 0.74492 0
M  V30 849 O 81.9675 -2.50899 0.283896 0
M  V30 850 C 83.2805 -0.653646 2.9351 0
M  V30 851 C 84.8285 -0.744386 3.0402 0
M  V30 852 C 85.3035 -0.856535 4.49919 0
M  V30 853 N 86.7945 -0.9208 4.53955 0
M  V30 854 C 87.5295 -1.02726 5.64123 0
M  V30 855 N 87.0255 -1.09777 6.84047 0
M  V30 856 N 88.8185 -1.06226 5.51971 0
M  V30 857 H 80.9695 0.629462 2.02858 0
M  V30 858 H 83.2325 0.220621 0.921971 0
M  V30 859 H 82.9385 0.231518 3.50937 0
M  V30 860 H 82.8125 -1.51781 3.45315 0
M  V30 861 H 85.1995 -1.61999 2.46658 0
M  V30 862 H 85.2805 0.14541 2.55386 0
M  V30 863 H 84.9245 0.0146069 5.07898 0
M  V30 864 H 84.8545 -1.76172 4.96257 0
M  V30 865 H 87.3455 -0.876694 3.6759 0
M  V30 866 H 87.6585 -1.17872 7.63758 0
M  V30 867 H 86.0035 -1.06693 6.86762 0
M  V30 868 H 89.1945 -1.00382 4.5721 0
M  V30 869 H 89.3675 -1.14177 6.37862 0
M  V30 870 N 82.7736 -1.49793 -0.48987 0
M  V30 871 C 83.7206 -1.67281 -1.59014 0
M  V30 872 C 84.6906 -0.514177 -1.57941 0
M  V30 873 O 85.8756 -0.742533 -1.75759 0
M  V30 874 C 83.0156 -1.75569 -2.97102 0
M  V30 875 C 82.1286 -3.0281 -3.08107 0
M  V30 876 C 81.2636 -3.02008 -4.36995 0
M  V30 877 C 80.3026 -4.23782 -4.41673 0
M  V30 878 N 79.4396 -4.20826 -5.62005 0
M  V30 879 H 84.2796 -2.61224 -1.43409 0
M  V30 880 H 81.8166 -1.29508 -0.697565 0
M  V30 881 H 83.7746 -1.78354 -3.77155 0
M  V30 882 H 82.4046 -0.850827 -3.11385 0
M  V30 883 H 81.4566 -3.09584 -2.21047 0
M  V30 884 H 82.7686 -3.92801 -3.07423 0
M  V30 885 H 81.9226 -3.03418 -5.25378 0
M  V30 886 H 80.6616 -2.09815 -4.4026 0
M  V30 887 H 79.6666 -4.22604 -3.5169 0
M  V30 888 H 80.8916 -5.17181 -4.40115 0
M  V30 889 H 78.8376 -3.31476 -5.66091 0
M  V30 890 H 78.7546 -5.04564 -5.62984 0
M  V30 891 H 80.0226 -4.26355 -6.52565 0
M  V30 892 N 84.2517 0.741722 -1.39055 0
M  V30 893 C 85.1817 1.869 -1.39966 0
M  V30 894 C 86.1627 1.6804 -0.26392 0
M  V30 895 O 87.3477 1.88458 -0.468755 0
M  V30 896 C 84.4777 3.24572 -1.23574 0
M  V30 897 C 83.4317 3.58056 -2.34477 0
M  V30 898 C 82.7577 4.94593 -2.0318 0
M  V30 899 C 84.0577 3.61716 -3.76774 0
M  V30 900 H 85.7517 1.86395 -2.34302 0
M  V30 901 H 83.2977 0.895361 -1.1278 0
M  V30 902 H 85.2507 4.031 -1.22834 0
M  V30 903 H 83.9747 3.25587 -0.257045 0
M  V30 904 H 82.6337 2.81854 -2.34423 0
M  V30 905 H 82.2817 4.92181 -1.03765 0
M  V30 906 H 81.9817 5.17964 -2.77465 0
M  V30 907 H 83.5057 5.75486 -2.04079 0
M  V30 908 H 84.9197 4.30335 -3.78794 0
M  V30 909 H 83.3167 3.96603 -4.50362 0
M  V30 910 H 84.3867 2.61672 -4.08235 0
M  V30 911 N 85.7298 1.2412 0.971189 0
M  V30 912 C 86.6798 0.997551 2.05019 0
M  V30 913 C 87.6638 -0.0597747 1.60789 0
M  V30 914 O 88.8558 0.153516 1.76333 0
M  V30 915 C 85.9848 0.600557 3.38006 0
M  V30 916 C 85.0708 1.69377 3.88809 0
M  V30 917 N 85.4618 2.92586 4.12586 0
M  V30 918 C 83.7598 1.57048 4.17435 0
M  V30 919 C 84.4608 3.63431 4.54195 0
M  V30 920 N 83.4368 2.90979 4.59165 0
M  V30 921 H 87.2388 1.93316 2.21374 0
M  V30 922 H 84.7528 1.14194 1.1547 0
M  V30 923 H 86.7498 0.40725 4.14906 0
M  V30 924 H 85.4098 -0.327903 3.2304 0
M  V30 925 H 86.4208 3.288 4.00139 0
M  V30 926 H 83.0978 0.709798 4.11422 0
M  V30 927 H 84.4878 4.69102 4.81033 0
M  V30 928 N 87.2079 -1.17134 1.05439 0
M  V30 929 C 88.4359 -1.91372 0.786414 0
M  V30 930 C 88.8509 -1.76955 -0.658202 0
M  V30 931 O 88.2079 -1.10838 -1.44987 0
M  V30 932 C 88.2589 -3.42356 1.1608 0
M  V30 933 O 87.9799 -3.56332 2.54871 0
M  V30 934 C 89.4809 -4.33663 0.919322 0
M  V30 935 H 86.7009 -0.607118 0.285743 0
M  V30 936 H 89.2449 -1.48525 1.40572 0
M  V30 937 H 87.3999 -3.82939 0.586191 0
M  V30 938 H 87.8139 -4.49896 2.69618 0
M  V30 939 H 89.2879 -5.38099 1.231 0
M  V30 940 H 89.7649 -4.38959 -0.145359 0
M  V30 941 H 90.3709 -3.98796 1.47789 0
M  V30 942 N 88.686 -0.835752 -1.33615 0
M  V30 943 C 89.932 -0.430596 -1.98176 0
M  V30 944 C 90.265 1.00684 -1.66061 0
M  V30 945 O 89.54 1.70339 -0.938877 0
M  V30 946 C 89.823 -0.648065 -3.5422 0
M  V30 947 C 89.676 -2.13255 -3.96033 0
M  V30 948 C 90.995 -0.0922113 -4.40003 0
M  V30 949 H 88.114 -0.157924 -0.719881 0
M  V30 950 H 90.756 -1.05069 -1.58305 0
M  V30 951 H 88.906 -0.120237 -3.88314 0
M  V30 952 H 90.578 -2.725 -3.72211 0
M  V30 953 H 88.821 -2.61823 -3.45878 0
M  V30 954 H 89.492 -2.23547 -5.04708 0
M  V30 955 H 91.968 -0.543343 -4.12537 0
M  V30 956 H 90.844 -0.274083 -5.48215 0
M  V30 957 H 91.105 1.00378 -4.30554 0
M  V30 958 N 90.1641 1.46063 -0.591896 0
M  V30 959 C 91.4121 2.01938 -0.0808391 0
M  V30 960 C 91.7331 1.46475 1.28725 0
M  V30 961 O 91.0031 0.652944 1.84698 0
M  V30 962 H 89.5831 0.746516 -0.0268938 0
M  V30 963 H 92.2451 1.79055 -0.769752 0
M  V30 964 H 91.3411 3.12094 -0.0187578 0
M  V30 965 N 91.6422 0.330177 1.54103 0
M  V30 966 C 92.5902 -0.548226 2.26047 0
M  V30 967 C 93.5842 -1.11309 1.27698 0
M  V30 968 O 94.7902 -1.06036 1.45452 0
M  V30 969 H 91.1652 -0.195456 0.726155 0
M  V30 970 H 93.1362 0.0807567 2.98291 0
M  V30 971 C 91.8852 -1.69415 3.03634 0
M  V30 972 H 91.2082 -1.26876 3.79134 0
M  V30 973 H 92.6482 -2.28423 3.5721 0
M  V30 974 C 91.1072 -2.61569 2.12328 0
M  V30 975 O 91.6372 -3.63462 1.7105 0
M  V30 976 N 89.8432 -2.29952 1.77681 0
M  V30 977 H 89.3902 -1.47134 2.11446 0
M  V30 978 H 89.3482 -2.91871 1.16869 0
M  V30 979 N 93.1203 -1.57491 0.0584922 0
M  V30 980 C 94.0503 -2.14988 -0.911178 0
M  V30 981 C 95.0313 -1.07343 -1.31952 0
M  V30 982 O 96.2163 -1.35318 -1.39294 0
M  V30 983 C 93.3463 -2.70078 -2.18347 0
M  V30 984 C 92.3003 -3.82771 -1.91495 0
M  V30 985 C 91.6263 -4.24408 -3.25241 0
M  V30 986 C 92.9263 -5.07592 -1.23075 0
M  V30 987 H 94.6203 -2.96263 -0.432246 0
M  V30 988 H 92.1663 -1.42512 -0.206469 0
M  V30 989 H 94.1193 -3.08943 -2.86587 0
M  V30 990 H 92.8433 -1.86005 -2.68458 0
M  V30 991 H 91.5023 -3.44389 -1.25664 0
M  V30 992 H 91.1503 -3.37275 -3.73168 0
M  V30 993 H 90.8503 -5.00366 -3.08071 0
M  V30 994 H 92.3743 -4.65879 -3.94701 0
M  V30 995 H 93.7883 -5.43857 -1.81362 0
M  V30 996 H 92.1853 -5.88741 -1.16207 0
M  V30 997 H 93.2553 -4.84454 -0.207847 0
M  V30 998 N 94.5984 0.214957 -1.56127 0
M  V30 999 C 95.8284 0.953707 -1.8327 0
M  V30 1000 C 96.2364 1.78181 -0.636262 0
M  V30 1001 O 95.5794 1.79191 0.404516 0
M  V30 1002 C 95.6414 1.91516 -3.0424 0
M  V30 1003 C 95.3054 1.27094 -4.38972 0
M  V30 1004 C 96.3024 0.657575 -5.15725 0
M  V30 1005 C 93.9874 1.28073 -4.85698 0
M  V30 1006 C 95.9814 0.0625968 -6.37369 0
M  V30 1007 C 93.6684 0.681914 -6.07283 0
M  V30 1008 C 94.6664 0.0739046 -6.8296 0
M  V30 1009 O 94.3544 -0.515582 -8.02245 0
M  V30 1010 H 94.0864 0.284764 -0.613095 0
M  V30 1011 H 96.6404 0.233283 -2.04071 0
M  V30 1012 H 94.8704 2.67475 -2.79274 0
M  V30 1013 H 96.5594 2.52001 -3.18198 0
M  V30 1014 H 97.3254 0.642288 -4.80728 0
M  V30 1015 H 93.2044 1.74337 -4.26764 0
M  V30 1016 H 96.7484 -0.412593 -6.96379 0
M  V30 1017 H 92.6454 0.694636 -6.41752 0
M  V30 1018 H 93.4134 -0.410544 -8.1747 0
M  V30 1019 N 96.0765 1.50051 0.48192 0
M  V30 1020 C 97.3255 1.59741 1.23149 0
M  V30 1021 C 97.6385 0.298163 1.93314 0
M  V30 1022 O 98.8445 0.273835 2.70116 0
M  V30 1023 C 97.3005 2.81926 2.23708 0
M  V30 1024 C 96.9085 4.18685 1.59396 0
M  V30 1025 C 98.6525 3.00956 2.99375 0
M  V30 1026 C 96.5595 5.3207 2.58178 0
M  V30 1027 H 95.4895 0.594838 0.46334 0
M  V30 1028 H 98.1405 1.76467 0.503169 0
M  V30 1029 H 96.5225 2.58736 2.99786 0
M  V30 1030 H 97.6965 4.52088 0.891811 0
M  V30 1031 H 96.0115 4.05171 0.960503 0
M  V30 1032 H 98.6085 3.82836 3.73283 0
M  V30 1033 H 98.9515 2.12258 3.58123 0
M  V30 1034 H 99.4845 3.24277 2.30411 0
M  V30 1035 H 96.2235 6.22888 2.04184 0
M  V30 1036 H 95.7435 5.03098 3.26577 0
M  V30 1037 H 97.4225 5.62196 3.20225 0
M  V30 1038 N 97.5546 -0.734337 1.39446 0
M  V30 1039 C 98.8006 -1.49613 1.36908 0
M  V30 1040 C 99.1336 -1.94169 -0.0347829 0
M  V30 1041 O 98.4086 -1.66833 -0.999847 0
M  V30 1042 C 98.6916 -2.73534 2.34203 0
M  V30 1043 C 98.5446 -2.34993 3.83534 0
M  V30 1044 C 99.8636 -3.75635 2.29317 0
M  V30 1045 H 96.9826 -0.542714 0.498629 0
M  V30 1046 H 99.6246 -0.839597 1.70443 0
M  V30 1047 H 97.7746 -3.29553 2.05736 0
M  V30 1048 H 99.4466 -1.84601 4.22753 0
M  V30 1049 H 97.6896 -1.67213 4.00278 0
M  V30 1050 H 98.3606 -3.23738 4.47099 0
M  V30 1051 H 100.837 -3.29203 2.54489 0
M  V30 1052 H 99.7126 -4.60008 2.99472 0
M  V30 1053 H 99.9736 -4.22603 1.29842 0
M  V30 1054 N 99.0327 -1.24633 -0.964593 0
M  V30 1055 C 100.258 -1.11596 -1.74818 0
M  V30 1056 C 100.683 0.32723 -1.85232 0
M  V30 1057 O 100.041 1.23695 -1.32549 0
M  V30 1058 C 100.089 -1.76397 -3.1451 0
M  V30 1059 O 99.1927 -1.03685 -3.99153 0
M  V30 1060 H 98.5337 -0.390196 -0.537255 0
M  V30 1061 H 101.064 -1.65002 -1.20977 0
M  V30 1062 H 101.074 -1.8228 -3.65018 0
M  V30 1063 H 99.7487 -2.81401 -3.06246 0
M  V30 1064 H 98.3257 -1.05611 -3.57632 0
M  V30 1065 N 100.511 1.16574 -1.06058 0
M  V30 1066 C 101.441 2.23057 -0.690488 0
M  V30 1067 C 102.422 1.67141 0.315901 0
M  V30 1068 O 103.607 1.93253 0.191556 0
M  V30 1069 C 100.737 3.47222 -0.073625 0
M  V30 1070 C 99.6908 4.16016 -1.00573 0
M  V30 1071 C 99.0168 5.34104 -0.252289 0
M  V30 1072 C 100.317 4.67264 -2.33371 0
M  V30 1073 H 102.011 2.54271 -1.58072 0
M  V30 1074 H 99.5568 1.22218 -0.76149 0
M  V30 1075 H 101.51 4.20939 0.19714 0
M  V30 1076 H 100.234 3.15302 0.85161 0
M  V30 1077 H 98.8928 3.44223 -1.2612 0
M  V30 1078 H 98.5408 4.98437 0.675988 0
M  V30 1079 H 98.2408 5.81072 -0.873455 0
M  V30 1080 H 99.7648 6.10599 0.0109857 0
M  V30 1081 H 101.179 5.32573 -2.12223 0
M  V30 1082 H 99.5758 5.24843 -2.90963 0
M  V30 1083 H 100.646 3.83602 -2.96611 0
M  V30 1084 N 101.989 0.842826 1.3317 0
M  V30 1085 C 103.214 0.453129 2.02389 0
M  V30 1086 C 103.639 -0.939105 1.6298 0
M  V30 1087 O 102.997 -1.61472 0.8244 0
M  V30 1088 C 103.045 0.586094 3.55805 0
M  V30 1089 O 102.149 -0.386029 4.10589 0
M  V30 1090 H 101.49 0.183664 0.638094 0
M  V30 1091 H 104.02 1.13875 1.69981 0
M  V30 1092 H 104.03 0.469209 4.05293 0
M  V30 1093 H 102.705 1.6014 3.83833 0
M  V30 1094 H 101.282 -0.226371 3.72212 0
M  V30 1095 N 103.467 -1.45747 0.599634 0
M  V30 1096 C 104.713 -2.02592 0.0918643 0
M  V30 1097 C 105.046 -1.46806 -1.27128 0
M  V30 1098 O 104.321 -0.639658 -1.83681 0
M  V30 1099 C 104.604 -3.60073 0.0443398 0
M  V30 1100 C 104.457 -4.26208 1.43759 0
M  V30 1101 C 105.776 -4.35309 -0.647608 0
M  V30 1102 H 102.895 -0.736175 0.034857 0
M  V30 1103 H 105.537 -1.73694 0.770081 0
M  V30 1104 H 103.687 -3.84823 -0.533224 0
M  V30 1105 H 105.359 -4.12668 2.06162 0
M  V30 1106 H 103.602 -3.84916 2.00056 0
M  V30 1107 H 104.273 -5.35069 1.35665 0
M  V30 1108 H 106.749 -4.15805 -0.156776 0
M  V30 1109 H 105.625 -5.45038 -0.649942 0
M  V30 1110 H 105.886 -4.07598 -1.71219 0
M  V30 1111 N 104.945 -0.338344 -1.53925 0
M  V30 1112 C 105.908 0.508299 -2.23493 0
M  V30 1113 C 106.908 1.03175 -1.23335 0
M  V30 1114 O 108.098 0.921826 -1.47811 0
M  V30 1115 C 105.23 1.70754 -2.95052 0
M  V30 1116 H 106.423 -0.100058 -2.99733 0
M  V30 1117 H 103.976 -0.0896198 -1.56043 0
M  V30 1118 H 104.711 2.35474 -2.22986 0
M  V30 1119 H 104.496 1.33946 -3.68512 0
M  V30 1120 H 105.986 2.30818 -3.48013 0
M  V30 1121 N 106.423 1.57458 -0.0668435 0
M  V30 1122 C 107.7 1.8469 0.644132 0
M  V30 1123 C 108.08 0.958343 1.88093 0
M  V30 1124 O 107.428 0.0233579 2.28488 0
M  V30 1125 C 107.638 3.34767 0.986509 0
M  V30 1126 C 108.986 4.02159 1.36212 0
M  V30 1127 O 110.01 3.39484 1.07839 0
M  V30 1128 O 108.869 5.12694 1.89227 0
M  V30 1129 H 105.963 0.762816 0.319437 0
M  V30 1130 H 108.509 1.6942 -0.0973986 0
M  V30 1131 H 107.281 3.91151 0.107883 0
M  V30 1132 H 106.904 3.55281 1.78497 0
M  V30 1133 N 107.901 -0.206675 1.56239 0
M  V30 1134 C 108.831 -1.25909 1.96645 0
M  V30 1135 C 109.812 -1.48097 0.836734 0
M  V30 1136 O 110.997 -1.6003 1.10019 0
M  V30 1137 C 108.127 -2.6058 2.29599 0
M  V30 1138 C 107.081 -2.53024 3.452 0
M  V30 1139 C 106.407 -3.91861 3.63798 0
M  V30 1140 C 107.707 -2.06524 4.79734 0
M  V30 1141 H 109.401 -0.923369 2.84806 0
M  V30 1142 H 106.947 -0.442735 1.37025 0
M  V30 1143 H 108.9 -3.34375 2.56459 0
M  V30 1144 H 107.624 -2.95869 1.38307 0
M  V30 1145 H 106.283 -1.81684 3.18412 0
M  V30 1146 H 105.931 -4.24483 2.69857 0
M  V30 1147 H 105.631 -3.87683 4.4156 0
M  V30 1148 H 107.155 -4.67296 3.93022 0
M  V30 1149 H 108.569 -2.70072 5.05702 0
M  V30 1150 H 106.966 -2.13374 5.60885 0
M  V30 1151 H 108.036 -1.01802 4.74093 0
M  V30 1152 N 109.379 -1.50304 -0.473955 0
M  V30 1153 C 110.628 -1.60392 -1.22301 0
M  V30 1154 C 110.941 -0.308411 -1.93153 0
M  V30 1155 O 112.147 -0.288156 -2.69966 0
M  V30 1156 C 110.603 -2.83109 -2.2221 0
M  V30 1157 C 110.211 -4.19524 -1.57173 0
M  V30 1158 C 111.955 -3.0254 -2.97775 0
M  V30 1159 C 109.862 -5.33431 -2.55353 0
M  V30 1160 H 108.792 -0.597286 -0.460179 0
M  V30 1161 H 111.443 -1.76731 -0.493803 0
M  V30 1162 H 109.825 -2.60322 -2.9841 0
M  V30 1163 H 110.999 -4.52554 -0.867824 0
M  V30 1164 H 109.314 -4.05674 -0.939002 0
M  V30 1165 H 111.911 -3.84811 -3.71248 0
M  V30 1166 H 112.254 -2.14154 -3.56992 0
M  V30 1167 H 112.787 -3.25494 -2.28688 0
M  V30 1168 H 109.526 -6.23962 -2.00878 0
M  V30 1169 H 109.046 -5.04823 -3.23904 0
M  V30 1170 H 110.725 -5.63887 -3.17239 0
M  V30 1171 N 110.857 0.726932 -1.39834 0
M  V30 1172 C 112.103 1.48884 -1.377 0
M  V30 1173 C 112.436 1.94185 0.0244852 0
M  V30 1174 O 111.711 1.67361 0.990986 0
M  V30 1175 C 111.994 2.72288 -2.3565 0
M  V30 1176 C 111.847 2.32956 -3.84775 0
M  V30 1177 C 113.166 3.74414 -2.31306 0
M  V30 1178 H 110.285 0.540062 -0.5015 0
M  V30 1179 H 112.927 0.830547 -1.70886 0
M  V30 1180 H 111.077 3.28457 -2.07481 0
M  V30 1181 H 112.749 1.82356 -4.23726 0
M  V30 1182 H 110.992 1.65088 -4.01159 0
M  V30 1183 H 111.663 3.21362 -4.4881 0
M  V30 1184 H 114.139 3.27849 -2.56231 0
M  V30 1185 H 113.015 4.58414 -3.01907 0
M  V30 1186 H 113.276 4.21909 -1.32081 0
M  V30 1187 N 112.336 1.25143 0.95797 0
M  V30 1188 C 113.584 1.09476 1.69881 0
M  V30 1189 C 113.905 -0.365502 1.91544 0
M  V30 1190 O 113.175 -1.25985 1.50015 0
M  V30 1191 H 111.755 0.402128 0.629525 0
M  V30 1192 H 114.417 1.57214 1.15194 0
M  V30 1193 H 113.513 1.60046 2.6794 0
M  V30 1194 N 113.814 -1.1601 1.06675 0
M  V30 1195 C 114.777 -2.18724 0.685001 0
M  V30 1196 C 115.777 -1.58496 -0.271246 0
M  V30 1197 O 116.967 -1.74119 -0.0531156 0
M  V30 1198 C 114.099 -3.40899 0.00853648 0
M  V30 1199 H 115.292 -2.54011 1.59431 0
M  V30 1200 H 112.845 -1.30352 0.862441 0
M  V30 1201 H 113.58 -3.11173 -0.913337 0
M  V30 1202 H 113.365 -3.8587 0.696204 0
M  V30 1203 H 114.855 -4.16886 -0.24414 0
M  V30 1204 N 115.292 -0.849877 -1.32721 0
M  V30 1205 C 116.538 -0.451591 -1.97708 0
M  V30 1206 C 116.871 0.989175 -1.6712 0
M  V30 1207 O 116.146 1.69334 -0.956891 0
M  V30 1208 C 116.429 -0.685598 -3.53513 0
M  V30 1209 C 116.282 -2.17444 -3.93749 0
M  V30 1210 C 117.601 -0.138874 -4.39881 0
M  V30 1211 H 114.72 -0.16555 -0.718166 0
M  V30 1212 H 117.362 -1.06742 -1.57182 0
M  V30 1213 H 115.512 -0.161416 -3.88165 0
M  V30 1214 H 117.184 -2.76433 -3.693 0
M  V30 1215 H 115.427 -2.65476 -3.43081 0
M  V30 1216 H 116.098 -2.28888 -5.02309 0
M  V30 1217 H 118.574 -0.587068 -4.11938 0
M  V30 1218 H 117.45 -0.332213 -5.47894 0
M  V30 1219 H 117.711 0.95806 -4.31594 0
M  V30 1220 N 116.77 1.45427 -0.607355 0
M  V30 1221 C 118.016 2.0254 -0.102607 0
M  V30 1222 C 118.349 1.47478 1.26348 0
M  V30 1223 O 117.624 0.64939 1.83339 0
M  V30 1224 C 117.907 3.60044 -0.0634347 0
M  V30 1225 C 117.76 4.2544 -1.46017 0
M  V30 1226 C 119.079 4.35646 0.624514 0
M  V30 1227 H 116.198 0.73598 -0.0387607 0
M  V30 1228 H 118.84 1.73284 -0.779282 0
M  V30 1229 H 116.99 3.85101 0.512808 0
M  V30 1230 H 118.662 4.11569 -2.08347 0
M  V30 1231 H 116.905 3.83849 -2.02094 0
M  V30 1232 H 117.576 5.34342 -1.385 0
M  V30 1233 H 120.052 4.15882 0.134723 0
M  V30 1234 H 118.928 5.45376 0.621028 0
M  V30 1235 H 119.189 4.08501 1.69055 0
M  V30 1236 N 118.248 0.346503 1.53744 0
M  V30 1237 C 119.181 -0.552023 2.21423 0
M  V30 1238 C 120.159 -1.09798 1.19929 0
M  V30 1239 O 121.343 -1.1577 1.4876 0
M  V30 1240 C 118.47 -1.75972 2.89398 0
M  V30 1241 C 117.516 -1.34295 4.04805 0
M  V30 1242 S 118.349 -0.360263 5.34287 0
M  V30 1243 C 119.505 -1.57473 6.05767 0
M  V30 1244 H 119.738 0.0228119 2.97291 0
M  V30 1245 H 117.271 0.130579 1.53847 0
M  V30 1246 H 119.229 -2.45256 3.2918 0
M  V30 1247 H 117.89 -2.30578 2.1329 0
M  V30 1248 H 117.083 -2.24349 4.51313 0
M  V30 1249 H 116.685 -0.729555 3.66815 0
M  V30 1250 H 118.977 -2.50875 6.29339 0
M  V30 1251 H 119.92 -1.15138 6.98676 0
M  V30 1252 H 120.328 -1.77212 5.35963 0
M  V30 1253 N 119.726 -1.57421 0.075193 0
M  V30 1254 C 121.137 -1.81021 -0.456964 0
M  V30 1255 C 121.488 -0.98936 -1.69429 0
M  V30 1256 O 120.613 -0.212865 -2.15351 0
M  V30 1257 C 121.208 -3.28329 -0.83581 0
M  V30 1258 C 119.767 -3.52764 -1.31281 0
M  V30 1259 C 118.914 -2.75676 -0.299648 0
M  V30 1260 H 121.865 -1.55822 0.300856 0
M  V30 1261 H 121.886 -3.40564 -1.69696 0
M  V30 1262 H 121.398 -3.88046 0.0649238 0
M  V30 1263 H 119.499 -2.98355 -2.23193 0
M  V30 1264 H 119.612 -4.61451 -1.28839 0
M  V30 1265 H 117.976 -2.42538 -0.777641 0
M  V30 1266 H 118.759 -3.38132 0.593417 0
M  V30 1267 N 121.204 0.198386 -1.56346 0
M  V30 1268 C 122.137 1.27381 -1.89339 0
M  V30 1269 C 123.115 1.44106 -0.753134 0
M  V30 1270 O 124.299 1.59549 -1.00381 0
M  V30 1271 C 121.426 2.6409 -2.12071 0
M  V30 1272 C 120.472 2.64253 -3.34772 0
M  V30 1273 S 121.305 2.16013 -4.89999 0
M  V30 1274 C 122.461 3.54553 -5.15794 0
M  V30 1275 H 122.694 0.992058 -2.8026 0
M  V30 1276 H 120.227 0.401726 -1.49082 0
M  V30 1277 H 122.185 3.42786 -2.2585 0
M  V30 1278 H 120.846 2.89478 -1.21906 0
M  V30 1279 H 120.039 3.64768 -3.47794 0
M  V30 1280 H 119.641 1.93637 -3.1997 0
M  V30 1281 H 121.933 4.50396 -5.06112 0
M  V30 1282 H 122.876 3.46428 -6.1757 0
M  V30 1283 H 123.284 3.49313 -4.43442 0
M  V30 1284 N 122.682 1.50554 0.465978 0
M  V30 1285 C 123.63 1.70324 1.58406 0
M  V30 1286 C 124.624 0.569139 1.59553 0
M  V30 1287 O 125.83 0.749776 1.63641 0
M  V30 1288 H 122.205 0.537688 0.525734 0
M  V30 1289 H 124.176 2.64104 1.38894 0
M  V30 1290 C 122.925 1.81928 2.96307 0
M  V30 1291 H 122.248 2.68586 2.96144 0
M  V30 1292 H 123.688 1.99784 3.73982 0
M  V30 1293 C 122.147 0.572095 3.32007 0
M  V30 1294 O 122.677 -0.286416 4.00678 0
M  V30 1295 N 120.883 0.424606 2.87481 0
M  V30 1296 H 120.43 1.12427 2.31771 0
M  V30 1297 H 120.388 -0.408697 3.11732 0
M  V30 1298 N 124.16 -0.719506 1.40217 0
M  V30 1299 C 125.409 -1.47486 1.37589 0
M  V30 1300 C 125.722 -1.9559 -0.0201568 0
M  V30 1301 O 126.928 -2.70973 -0.169049 0
M  V30 1302 C 125.384 -2.66575 2.41796 0
M  V30 1303 C 124.992 -2.25358 3.87192 0
M  V30 1304 C 126.736 -3.4433 2.48269 0
M  V30 1305 C 124.643 -3.41262 4.83005 0
M  V30 1306 H 123.573 -0.553901 0.511576 0
M  V30 1307 H 126.224 -0.783427 1.65936 0
M  V30 1308 H 124.606 -3.3787 2.06543 0
M  V30 1309 H 125.78 -1.61509 4.31569 0
M  V30 1310 H 124.095 -1.60657 3.84159 0
M  V30 1311 H 126.692 -4.30569 3.17041 0
M  V30 1312 H 127.035 -3.87872 1.51198 0
M  V30 1313 H 127.568 -2.80076 2.82493 0
M  V30 1314 H 124.307 -3.02755 5.81394 0
M  V30 1315 H 123.827 -4.0404 4.43297 0
M  V30 1316 H 125.506 -4.07383 5.02641 0
M  V30 1317 N 125.638 -1.25649 -0.95132 0
M  V30 1318 C 126.568 -1.08808 -2.06599 0
M  V30 1319 C 127.549 0.00382547 -1.701 0
M  V30 1320 O 128.734 -0.166325 -1.93486 0
M  V30 1321 C 125.864 -0.709542 -3.39975 0
M  V30 1322 C 124.818 -1.75206 -3.90496 0
M  V30 1323 C 124.144 -1.22811 -5.20405 0
M  V30 1324 C 125.444 -3.15153 -4.16504 0
M  V30 1325 H 127.138 -2.02048 -2.20946 0
M  V30 1326 H 124.684 -0.972835 -1.06169 0
M  V30 1327 H 126.637 -0.578649 -4.17408 0
M  V30 1328 H 125.361 0.258556 -3.25575 0
M  V30 1329 H 124.02 -1.87145 -3.15234 0
M  V30 1330 H 123.668 -0.250145 -5.02378 0
M  V30 1331 H 123.368 -1.92492 -5.55176 0
M  V30 1332 H 124.892 -1.10968 -6.00432 0
M  V30 1333 H 126.306 -3.06349 -4.84586 0
M  V30 1334 H 124.703 -3.82333 -4.62538 0
M  V30 1335 H 125.773 -3.61966 -3.22658 0
M  V30 1336 N 127.117 1.15442 -1.07289 0
M  V30 1337 C 128.347 1.89821 -0.815576 0
M  V30 1338 C 128.755 1.7823 0.634867 0
M  V30 1339 O 128.098 1.13152 1.44715 0
M  V30 1340 C 128.16 3.40817 -1.14385 0
M  V30 1341 C 127.824 3.76193 -2.59476 0
M  V30 1342 C 128.821 3.77269 -3.57721 0
M  V30 1343 C 126.506 4.0652 -2.95037 0
M  V30 1344 C 128.5 4.08176 -4.89562 0
M  V30 1345 C 126.187 4.37092 -4.27076 0
M  V30 1346 C 127.185 4.37902 -5.24148 0
M  V30 1347 O 126.873 4.67741 -6.53815 0
M  V30 1348 H 126.605 0.608465 -0.294528 0
M  V30 1349 H 129.159 1.472 -1.43252 0
M  V30 1350 H 127.389 3.83835 -0.469865 0
M  V30 1351 H 129.078 3.96485 -0.869179 0
M  V30 1352 H 129.844 3.5394 -3.3159 0
M  V30 1353 H 125.723 4.05049 -2.20128 0
M  V30 1354 H 129.267 4.08723 -5.65324 0
M  V30 1355 H 125.164 4.59889 -4.5296 0
M  V30 1356 H 125.932 4.85509 -6.58957 0
M  V30 1357 N 128.595 0.856903 1.32268 0
M  V30 1358 C 129.525 0.31858 2.31316 0
M  V30 1359 C 130.506 -0.583487 1.59779 0
M  V30 1360 O 131.691 -0.503259 1.87566 0
M  V30 1361 C 128.821 -0.491979 3.43798 0
M  V30 1362 C 127.775 0.315849 4.26833 0
M  V30 1363 C 127.101 -0.619586 5.31098 0
M  V30 1364 C 128.401 1.54282 4.98993 0
M  V30 1365 H 130.095 1.14621 2.76591 0
M  V30 1366 H 127.641 0.552613 1.32974 0
M  V30 1367 H 129.594 -0.879012 4.1213 0
M  V30 1368 H 128.318 -1.35299 2.97257 0
M  V30 1369 H 126.977 0.684664 3.6015 0
M  V30 1370 H 126.625 -1.47751 4.8081 0
M  V30 1371 H 126.325 -0.0830621 5.87541 0
M  V30 1372 H 127.849 -1.00375 6.02293 0
M  V30 1373 H 129.263 1.22796 5.59995 0
M  V30 1374 H 127.66 2.01745 5.65172 0
M  V30 1375 H 128.73 2.30285 4.26728 0
M  V30 1376 N 130.073 -1.45103 0.615059 0
M  V30 1377 C 131.003 -2.33339 -0.0865619 0
M  V30 1378 C 131.984 -1.4727 -0.851209 0
M  V30 1379 O 133.169 -1.76026 -0.820281 0
M  V30 1380 C 130.299 -3.30095 -1.07956 0
M  V30 1381 C 129.253 -4.25858 -0.427628 0
M  V30 1382 C 128.579 -5.12361 -1.5294 0
M  V30 1383 C 129.879 -5.18165 0.655944 0
M  V30 1384 H 131.573 -2.92254 0.650224 0
M  V30 1385 H 129.119 -1.40532 0.314138 0
M  V30 1386 H 131.072 -3.90698 -1.57901 0
M  V30 1387 H 129.796 -2.69355 -1.84703 0
M  V30 1388 H 128.455 -3.66564 0.0510292 0
M  V30 1389 H 128.103 -4.47984 -2.28734 0
M  V30 1390 H 127.803 -5.77238 -1.09865 0
M  V30 1391 H 129.327 -5.75833 -2.03098 0
M  V30 1392 H 130.741 -5.72796 0.240257 0
M  V30 1393 H 129.138 -5.91559 1.00888 0
M  V30 1394 H 130.208 -4.60144 1.52957 0
M  V30 1395 N 131.551 -0.354651 -1.53558 0
M  V30 1396 C 132.484 0.540273 -2.21712 0
M  V30 1397 C 133.462 1.09161 -1.2051 0
M  V30 1398 O 134.646 1.14979 -1.49372 0
M  V30 1399 C 131.773 1.74435 -2.90328 0
M  V30 1400 C 130.819 1.32146 -4.05512 0
M  V30 1401 S 131.652 0.331924 -5.3447 0
M  V30 1402 C 132.808 1.54258 -6.06593 0
M  V30 1403 H 133.041 -0.0385776 -2.97275 0
M  V30 1404 H 130.574 -0.138736 -1.53775 0
M  V30 1405 H 132.532 2.43507 -3.30476 0
M  V30 1406 H 131.193 2.29444 -2.1451 0
M  V30 1407 H 130.386 2.21952 -4.52497 0
M  V30 1408 H 129.988 0.710091 -3.67197 0
M  V30 1409 H 132.28 2.47534 -6.30661 0
M  V30 1410 H 133.223 1.11431 -6.99277 0
M  V30 1411 H 133.631 1.74367 -5.36895 0
M  V30 1412 N 133.029 1.57378 -0.0835403 0
M  V30 1413 C 134.254 1.98682 0.594987 0
M  V30 1414 C 134.679 0.961969 1.61641 0
M  V30 1415 O 134.037 -0.0709989 1.81161 0
M  V30 1416 C 134.085 3.38988 1.2296 0
M  V30 1417 O 133.189 3.39208 2.34546 0
M  V30 1418 H 132.53 0.646368 0.152002 0
M  V30 1419 H 135.06 2.03961 -0.161533 0
M  V30 1420 H 135.07 3.76431 1.57366 0
M  V30 1421 H 133.745 4.13107 0.481228 0
M  V30 1422 H 132.322 3.13548 2.01846 0
M  V30 1423 N 134.507 -0.190092 1.56449 0
M  V30 1424 C 135.454 -1.23557 1.94942 0
M  V30 1425 C 136.424 -1.44972 0.810696 0
M  V30 1426 O 137.609 -1.58023 1.06927 0
M  V30 1427 C 134.749 -2.57416 2.2985 0
M  V30 1428 C 133.862 -2.43537 3.5681 0
M  V30 1429 C 132.997 -3.70134 3.81017 0
M  V30 1430 C 132.036 -3.51109 5.01387 0
M  V30 1431 N 131.173 -4.6973 5.21822 0
M  V30 1432 H 136.013 -0.900304 2.84075 0
M  V30 1433 H 133.55 -0.43318 1.40577 0
M  V30 1434 H 135.508 -3.35409 2.48106 0
M  V30 1435 H 134.138 -2.88975 1.43852 0
M  V30 1436 H 133.19 -1.56816 3.46573 0
M  V30 1437 H 134.502 -2.25415 4.4496 0
M  V30 1438 H 133.656 -4.56566 3.9954 0
M  V30 1439 H 132.395 -3.91215 2.91207 0
M  V30 1440 H 131.4 -2.63063 4.82782 0
M  V30 1441 H 132.625 -3.31468 5.9271 0
M  V30 1442 H 130.571 -4.91065 4.34961 0
M  V30 1443 H 130.488 -4.54452 6.0416 0
M  V30 1444 H 131.756 -5.57499 5.44808 0
M  V30 1445 N 135.985 -1.50799 -0.457987 0
M  V30 1446 C 137.231 -1.63648 -1.20792 0
M  V30 1447 C 137.586 -0.338662 -1.89396 0
M  V30 1448 O 136.879 0.664291 -1.79716 0
M  V30 1449 C 137.073 -2.76358 -2.2663 0
M  V30 1450 C 136.902 -4.16974 -1.68411 0
M  V30 1451 C 135.672 -4.83199 -1.47807 0
M  V30 1452 C 137.87 -5.00774 -1.17176 0
M  V30 1453 N 135.852 -6.07991 -0.849692 0
M  V30 1454 C 137.223 -6.16397 -0.667403 0
M  V30 1455 C 139.278 -4.86452 -1.06155 0
M  V30 1456 C 137.981 -7.19272 -0.0636908 0
M  V30 1457 C 140.007 -5.89515 -0.471759 0
M  V30 1458 C 139.369 -7.04397 0.0221557 0
M  V30 1459 H 135.468 -0.652888 -0.43042 0
M  V30 1460 H 138.052 -1.87962 -0.507785 0
M  V30 1461 H 136.223 -2.53744 -2.94056 0
M  V30 1462 H 137.955 -2.78496 -2.93636 0
M  V30 1463 H 134.71 -4.40714 -1.73403 0
M  V30 1464 H 135.134 -6.74733 -0.553537 0
M  V30 1465 H 139.776 -3.97907 -1.42932 0
M  V30 1466 H 137.494 -8.07481 0.316253 0
M  V30 1467 H 141.08 -5.805 -0.388671 0
M  V30 1468 H 139.96 -7.82782 0.471375 0
M  V30 1469 N 137.463 0.71206 -1.40597 0
M  V30 1470 C 138.688 1.50617 -1.42581 0
M  V30 1471 C 139.113 1.88079 -0.0282102 0
M  V30 1472 O 138.471 1.53511 0.964579 0
M  V30 1473 C 138.519 2.7557 -2.3258 0
M  V30 1474 O 137.623 3.72414 -1.77148 0
M  V30 1475 H 136.964 0.453966 -0.484573 0
M  V30 1476 H 139.494 0.876649 -1.84868 0
M  V30 1477 H 139.504 3.2406 -2.47889 0
M  V30 1478 H 138.179 2.47639 -3.34138 0
M  V30 1479 H 136.756 3.31276 -1.71204 0
M  V30 1480 N 138.941 1.26152 0.944643 0
M  V30 1481 C 139.871 1.09902 2.06019 0
M  V30 1482 C 140.852 0.00519538 1.70099 0
M  V30 1483 O 142.037 0.176583 1.93396 0
M  V30 1484 C 139.167 0.727562 3.39594 0
M  V30 1485 C 138.121 1.77274 3.89561 0
M  V30 1486 C 137.447 1.25569 5.19747 0
M  V30 1487 C 138.747 3.17357 4.14827 0
M  V30 1488 H 140.441 2.03217 2.19871 0
M  V30 1489 H 137.987 0.978452 1.05652 0
M  V30 1490 H 139.94 0.600777 4.17095 0
M  V30 1491 H 138.664 -0.241287 3.25707 0
M  V30 1492 H 137.323 1.88814 3.14237 0
M  V30 1493 H 136.971 0.276783 5.02238 0
M  V30 1494 H 136.671 1.95433 5.54148 0
M  V30 1495 H 138.195 1.1415 5.99835 0
M  V30 1496 H 139.609 3.08914 4.82954 0
M  V30 1497 H 138.006 3.84781 4.60504 0
M  V30 1498 H 139.076 3.63673 3.20734 0
M  V30 1499 N 140.419 -1.14872 1.07899 0
M  V30 1500 C 141.667 -1.85422 0.803941 0
M  V30 1501 C 141.988 -1.83051 -0.67211 0
M  V30 1502 O 141.258 -1.27532 -1.48703 0
M  V30 1503 H 139.838 -0.686537 0.294408 0
M  V30 1504 H 142.5 -1.39226 1.3639 0
M  V30 1505 H 141.596 -2.90399 1.14346 0
M  V30 1506 N 141.898 -0.863906 -1.31812 0
M  V30 1507 C 143.314 -0.555004 -1.49639 0
M  V30 1508 C 143.514 0.912266 -1.79666 0
M  V30 1509 O 142.57 1.69479 -1.87171 0
M  V30 1510 C 143.883 -1.44998 -2.63431 0
M  V30 1511 C 145.431 -1.45138 -2.77316 0
M  V30 1512 C 145.906 -2.33179 -3.94197 0
M  V30 1513 N 147.397 -2.31025 -4.01474 0
M  V30 1514 C 148.132 -2.95871 -4.9117 0
M  V30 1515 N 147.628 -3.69863 -5.8581 0
M  V30 1516 N 149.421 -2.85211 -4.84367 0
M  V30 1517 H 141.572 -1.81339 -1.10589 0
M  V30 1518 H 143.835 -0.77505 -0.545895 0
M  V30 1519 H 143.541 -2.49377 -2.48 0
M  V30 1520 H 143.415 -1.14409 -3.59431 0
M  V30 1521 H 145.802 -0.415201 -2.92164 0
M  V30 1522 H 145.883 -1.79747 -1.82001 0
M  V30 1523 H 145.527 -3.3687 -3.80107 0
M  V30 1524 H 145.457 -1.95897 -4.88807 0
M  V30 1525 H 147.948 -1.77238 -3.33759 0
M  V30 1526 H 148.261 -4.16486 -6.50968 0
M  V30 1527 H 146.606 -3.73971 -5.85808 0
M  V30 1528 H 149.797 -2.26948 -4.09405 0
M  V30 1529 H 149.97 -3.36027 -5.54066 0
M  V30 1530 N 143.376 1.44774 -0.622745 0
M  V30 1531 C 144.787 1.85546 -0.207226 0
M  V30 1532 C 145.138 1.52093 1.23944 0
M  V30 1533 O 144.263 0.95492 1.94191 0
M  V30 1534 C 144.858 3.36781 -0.369313 0
M  V30 1535 C 143.417 3.76399 -0.00836847 0
M  V30 1536 C 142.564 2.68664 -0.686651 0
M  V30 1537 H 145.515 1.3536 -0.828454 0
M  V30 1538 H 145.536 3.78453 0.394162 0
M  V30 1539 H 145.048 3.61098 -1.42231 0
M  V30 1540 H 143.149 3.57698 1.04322 0
M  V30 1541 H 143.262 4.7732 -0.412584 0
M  V30 1542 H 141.626 2.54404 -0.122777 0
M  V30 1543 H 142.409 2.95815 -1.74208 0
M  V30 1544 N 144.854 0.36279 1.53368 0
M  V30 1545 C 145.784 -0.476976 2.28576 0
M  V30 1546 C 146.765 -1.08631 1.30894 0
M  V30 1547 O 147.95 -1.10409 1.59761 0
M  V30 1548 C 145.08 -1.61828 3.07293 0
M  V30 1549 C 144.034 -1.13633 4.1264 0
M  V30 1550 C 143.36 -2.36766 4.79423 0
M  V30 1551 C 144.66 -0.223061 5.21823 0
M  V30 1552 H 146.354 0.150474 2.99022 0
M  V30 1553 H 143.9 0.0738103 1.43811 0
M  V30 1554 H 145.853 -2.21237 3.58653 0
M  V30 1555 H 144.577 -2.27292 2.34533 0
M  V30 1556 H 143.236 -0.564945 3.62221 0
M  V30 1557 H 142.884 -3.0068 4.03238 0
M  V30 1558 H 142.584 -2.05192 5.50609 0
M  V30 1559 H 144.108 -2.96865 5.33576 0
M  V30 1560 H 145.522 -0.724545 5.68703 0
M  V30 1561 H 143.919 0.001678 6.001 0
M  V30 1562 H 144.989 0.735553 4.79289 0
M  V30 1563 N 146.332 -1.57332 0.0918853 0
M  V30 1564 C 147.572 -1.96117 -0.575988 0
M  V30 1565 C 147.936 -0.972499 -1.65549 0
M  V30 1566 O 149.137 -1.24872 -2.38034 0
M  V30 1567 C 147.408 -3.39407 -1.11973 0
M  V30 1568 S 148.967 -4.00185 -1.79992 0
M  V30 1569 H 145.785 -0.685682 -0.188045 0
M  V30 1570 H 148.387 -1.94755 0.170525 0
M  V30 1571 H 147.091 -4.09131 -0.322504 0
M  V30 1572 H 146.622 -3.44358 -1.90214 0
M  V30 1573 H 148.637 -3.88728 -3.08391 0
M  V30 1574 N 147.81 0.181792 -1.56548 0
M  V30 1575 C 148.74 1.22765 -1.98623 0
M  V30 1576 C 149.721 1.46747 -0.860189 0
M  V30 1577 O 150.906 1.58259 -1.12551 0
M  V30 1578 C 148.036 2.56894 -2.33715 0
M  V30 1579 C 146.99 2.475 -3.49182 0
M  V30 1580 C 146.316 3.86023 -3.69986 0
M  V30 1581 C 147.616 1.98866 -4.82959 0
M  V30 1582 H 149.31 0.877942 -2.86239 0
M  V30 1583 H 146.856 0.42088 -1.37712 0
M  V30 1584 H 148.809 3.30253 -2.61746 0
M  V30 1585 H 147.533 2.93632 -1.42997 0
M  V30 1586 H 146.192 1.76596 -3.21262 0
M  V30 1587 H 145.84 4.20136 -2.76576 0
M  V30 1588 H 145.54 3.80609 -4.47672 0
M  V30 1589 H 147.064 4.60984 -4.00407 0
M  V30 1590 H 148.478 2.61992 -5.09934 0
M  V30 1591 H 146.875 2.04424 -5.64208 0
M  V30 1592 H 147.945 0.942465 -4.75653 0
M  V30 1593 N 149.288 1.51039 0.449983 0
M  V30 1594 C 150.535 1.63081 1.20045 0
M  V30 1595 C 150.863 0.341024 1.91487 0
M  V30 1596 O 150.118 -0.674276 1.83717 0
M  V30 1597 C 150.417 2.77556 2.25161 0
M  V30 1598 C 150.083 4.17289 1.70823 0
M  V30 1599 C 148.745 4.55305 1.55725 0
M  V30 1600 C 151.097 5.04536 1.3074 0
M  V30 1601 C 148.425 5.78287 0.989999 0
M  V30 1602 C 150.777 6.28085 0.754482 0
M  V30 1603 C 149.441 6.64885 0.590308 0
M  V30 1604 H 148.711 0.596755 0.439277 0
M  V30 1605 H 151.358 1.85037 0.49333 0
M  V30 1606 H 149.663 2.49771 3.01863 0
M  V30 1607 H 151.36 2.84073 2.83026 0
M  V30 1608 H 147.95 3.8731 1.83546 0
M  V30 1609 H 152.134 4.75782 1.41229 0
M  V30 1610 H 147.39 6.05456 0.850451 0
M  V30 1611 H 151.564 6.95038 0.435324 0
M  V30 1612 H 149.191 7.60055 0.14862 0
M  V30 1613 N 150.766 -0.704594 1.40972 0
M  V30 1614 C 152.012 -1.46546 1.41053 0
M  V30 1615 C 152.367 -1.92393 0.0159714 0
M  V30 1616 O 151.66 -1.66017 -0.956506 0
M  V30 1617 C 151.854 -2.698 2.34399 0
M  V30 1618 C 151.683 -2.36008 3.82793 0
M  V30 1619 C 150.453 -2.26812 4.51536 0
M  V30 1620 C 152.651 -1.99565 4.74003 0
M  V30 1621 N 150.633 -1.8581 5.85105 0
M  V30 1622 C 152.004 -1.69251 5.96451 0
M  V30 1623 C 154.059 -1.86296 4.61734 0
M  V30 1624 C 152.762 -1.27003 7.07999 0
M  V30 1625 C 154.788 -1.45452 5.73234 0
M  V30 1626 C 154.15 -1.16043 6.94776 0
M  V30 1627 H 150.249 -0.533896 0.571383 0
M  V30 1628 H 152.833 -0.816061 1.76773 0
M  V30 1629 H 151.004 -3.32473 2.00789 0
M  V30 1630 H 152.736 -3.36214 2.25261 0
M  V30 1631 H 149.491 -2.44913 4.05357 0
M  V30 1632 H 149.915 -1.67817 6.55871 0
M  V30 1633 H 154.557 -2.0769 3.68273 0
M  V30 1634 H 152.275 -1.04353 8.01334 0
M  V30 1635 H 155.861 -1.35748 5.65742 0
M  V30 1636 H 154.741 -0.84915 7.79589 0
M  V30 1637 N 152.244 -1.26651 -0.937939 0
M  V30 1638 C 153.174 -1.10993 -2.05433 0
M  V30 1639 C 154.155 -0.0142161 -1.70094 0
M  V30 1640 O 155.34 -0.186837 -1.93299 0
M  V30 1641 C 152.47 -0.745561 -3.39203 0
M  V30 1642 C 151.424 -1.79337 -3.88616 0
M  V30 1643 C 150.75 -1.28324 -5.19073 0
M  V30 1644 C 152.05 -3.19553 -4.13138 0
M  V30 1645 H 153.744 -2.0438 -2.1879 0
M  V30 1646 H 151.29 -0.984041 -1.05131 0
M  V30 1647 H 153.243 -0.622888 -4.16771 0
M  V30 1648 H 151.967 0.22401 -3.25831 0
M  V30 1649 H 150.626 -1.90477 -3.13231 0
M  V30 1650 H 150.274 -0.303414 -5.02084 0
M  V30 1651 H 149.974 -1.98369 -5.53103 0
M  V30 1652 H 151.498 -1.1733 -5.99221 0
M  V30 1653 H 152.912 -3.11471 -4.81309 0
M  V30 1654 H 151.309 -3.87218 -4.58457 0
M  V30 1655 H 152.379 -3.65368 -3.18801 0
M  V30 1656 N 153.722 1.14298 -1.08507 0
M  V30 1657 C 154.947 1.8976 -0.837001 0
M  V30 1658 C 155.372 1.78097 0.605228 0
M  V30 1659 O 154.73 1.12188 1.4242 0
M  V30 1660 C 154.778 3.37685 -1.26495 0
M  V30 1661 O 153.882 4.10281 -0.417514 0
M  V30 1662 H 153.223 0.590365 -0.303917 0
M  V30 1663 H 155.753 1.44672 -1.44676 0
M  V30 1664 H 155.763 3.88501 -1.24625 0
M  V30 1665 H 154.438 3.45492 -2.31534 0
M  V30 1666 H 153.015 3.69536 -0.499722 0
M  V30 1667 N 155.201 0.870884 1.31352 0
M  V30 1668 C 156.134 0.271983 2.26573 0
M  V30 1669 C 157.112 -0.599385 1.51149 0
M  V30 1670 O 158.296 -0.552605 1.80218 0
M  V30 1671 C 155.423 -0.614801 3.33073 0
M  V30 1672 C 154.469 0.185342 4.26097 0
M  V30 1673 S 155.302 1.56444 5.12138 0
M  V30 1674 C 156.458 0.683807 6.22153 0
M  V30 1675 H 156.691 1.07916 2.77023 0
M  V30 1676 H 154.224 0.669459 1.39132 0
M  V30 1677 H 156.182 -1.12074 3.94905 0
M  V30 1678 H 154.843 -1.39593 2.81376 0
M  V30 1679 H 154.036 -0.490771 5.01605 0
M  V30 1680 H 153.638 0.623415 3.68768 0
M  V30 1681 H 155.93 -0.10521 6.77418 0
M  V30 1682 H 156.873 1.41004 6.93919 0
M  V30 1683 H 157.281 0.250952 5.63942 0
M  V30 1684 N 156.679 -1.44442 0.630414 0
M  V30 1685 C 157.956 -1.9549 0.0655657 0
M  V30 1686 C 158.336 -1.5724 -1.40851 0
M  V30 1687 O 157.684 -0.846116 -2.12257 0
M  V30 1688 C 157.894 -3.47812 0.287691 0
M  V30 1689 C 159.242 -4.24216 0.180513 0
M  V30 1690 O 160.266 -3.55526 0.219019 0
M  V30 1691 O 159.125 -5.46434 0.0848493 0
M  V30 1692 H 156.219 -0.826688 -0.0227177 0
M  V30 1693 H 158.765 -1.54496 0.702068 0
M  V30 1694 H 157.537 -3.687 1.31056 0
M  V30 1695 H 157.16 -3.95751 -0.382984 0
M  V30 1696 N 158.157 -0.370918 -1.53173 0
M  V30 1697 C 159.387 0.217389 -2.05453 0
M  V30 1698 C 159.795 1.42568 -1.24382 0
M  V30 1699 O 159.138 1.81571 -0.278839 0
M  V30 1700 C 159.2 0.669827 -3.53205 0
M  V30 1701 C 158.864 -0.4225 -4.55043 0
M  V30 1702 C 159.861 -1.27407 -5.04047 0
M  V30 1703 C 157.546 -0.58427 -4.9889 0
M  V30 1704 C 159.54 -2.27271 -5.95505 0
M  V30 1705 C 157.227 -1.58627 -5.90153 0
M  V30 1706 C 158.225 -2.42892 -6.38351 0
M  V30 1707 O 157.913 -3.41382 -7.27814 0
M  V30 1708 H 157.645 0.0408171 -0.674767 0
M  V30 1709 H 160.199 -0.5292 -1.98466 0
M  V30 1710 H 158.429 1.4681 -3.57748 0
M  V30 1711 H 160.118 1.18173 -3.88317 0
M  V30 1712 H 160.884 -1.16031 -4.70916 0
M  V30 1713 H 156.763 0.061851 -4.60959 0
M  V30 1714 H 160.307 -2.93079 -6.33049 0
M  V30 1715 H 156.204 -1.70048 -6.22699 0
M  V30 1716 H 156.972 -3.37173 -7.45826 0
M  V30 1717 N 159.635 1.57281 -0.100228 0
M  V30 1718 C 160.881 1.94826 0.563101 0
M  V30 1719 C 161.214 0.982475 1.67514 0
M  V30 1720 O 160.489 0.0164069 1.94493 0
M  V30 1721 C 160.772 3.42453 1.11346 0
M  V30 1722 C 160.625 4.498 0.00612081 0
M  V30 1723 C 161.944 3.91506 2.01024 0
M  V30 1724 H 159.063 0.708428 0.203221 0
M  V30 1725 H 161.705 1.8922 -0.171979 0
M  V30 1726 H 159.855 3.47361 1.7399 0
M  V30 1727 H 161.527 4.57 -0.628357 0
M  V30 1728 H 159.77 4.28756 -0.659581 0
M  V30 1729 H 160.441 5.50306 0.432109 0
M  V30 1730 H 162.917 3.88784 1.48278 0
M  V30 1731 H 161.793 4.95358 2.36457 0
M  V30 1732 H 162.054 3.31099 2.92961 0
M  V30 1733 N 161.113 -0.173488 1.56642 0
M  V30 1734 C 162.076 -1.19859 1.95362 0
M  V30 1735 C 163.076 -1.37296 0.83704 0
M  V30 1736 O 164.266 -1.34739 1.10413 0
M  V30 1737 C 161.398 -2.56405 2.24654 0
M  V30 1738 H 162.591 -0.867062 2.87092 0
M  V30 1739 H 160.144 -0.415853 1.50666 0
M  V30 1740 H 160.879 -2.94576 1.35631 0
M  V30 1741 H 160.664 -2.45115 3.06041 0
M  V30 1742 H 162.154 -3.30287 2.5554 0
M  V30 1743 N 162.591 -1.51276 -0.441967 0
M  V30 1744 C 163.816 -1.67799 -1.21895 0
M  V30 1745 C 164.241 -0.372864 -1.84367 0
M  V30 1746 O 163.599 0.666501 -1.68604 0
M  V30 1747 C 163.647 -2.79199 -2.28211 0
M  V30 1748 O 162.751 -2.42479 -3.33583 0
M  V30 1749 H 162.092 -0.559649 -0.357336 0
M  V30 1750 H 164.622 -1.97815 -0.522522 0
M  V30 1751 H 164.632 -3.03146 -2.73069 0
M  V30 1752 H 163.307 -3.73906 -1.82118 0
M  V30 1753 H 161.884 -2.29087 -2.94234 0
M  V30 1754 N 164.069 0.697108 -1.41344 0
M  V30 1755 C 165.297 1.48593 -1.43972 0
M  V30 1756 C 165.712 1.88747 -0.0445612 0
M  V30 1757 O 165.069 1.56682 0.935785 0
M  V30 1758 C 165.12 2.74946 -2.34706 0
M  V30 1759 O 164.841 2.36484 -3.68791 0
M  V30 1760 C 166.342 3.687 -2.46121 0
M  V30 1761 H 163.562 0.457964 -0.490418 0
M  V30 1762 H 166.106 0.858429 -1.8561 0
M  V30 1763 H 164.261 3.33937 -1.9638 0
M  V30 1764 H 164.675 3.17918 -4.17167 0
M  V30 1765 H 166.149 4.54145 -3.13777 0
M  V30 1766 H 166.626 4.13081 -1.49199 0
M  V30 1767 H 167.232 3.15613 -2.85076 0
M  V30 1768 N 165.547 1.27147 0.931209 0
M  V30 1769 C 166.51 1.09615 2.01289 0
M  V30 1770 C 167.51 0.0412581 1.60747 0
M  V30 1771 O 168.7 0.285545 1.71844 0
M  V30 1772 C 165.832 0.669447 3.34262 0
M  V30 1773 H 167.025 2.05662 2.18273 0
M  V30 1774 H 164.578 1.09885 1.11153 0
M  V30 1775 H 165.313 -0.292572 3.22978 0
M  V30 1776 H 165.098 1.43127 3.65044 0
M  V30 1777 H 166.588 0.568921 4.13706 0
M  V30 1778 N 167.025 -1.13721 1.09112 0
M  V30 1779 C 168.25 -1.89314 0.847053 0
M  V30 1780 C 168.675 -1.78416 -0.595774 0
M  V30 1781 O 168.033 -1.12942 -1.41823 0
M  V30 1782 C 168.081 -3.3701 1.28284 0
M  V30 1783 O 167.185 -4.10054 0.439267 0
M  V30 1784 H 166.526 -0.588745 0.307044 0
M  V30 1785 H 169.056 -1.43902 1.45442 0
M  V30 1786 H 169.066 -3.87834 1.26683 0
M  V30 1787 H 167.741 -3.4426 2.33363 0
M  V30 1788 H 166.318 -3.69266 0.519312 0
M  V30 1789 N 168.503 -0.877838 -1.30888 0
M  V30 1790 C 169.752 -0.488793 -1.95688 0
M  V30 1791 C 170.065 0.965485 -1.70111 0
M  V30 1792 O 171.271 1.46104 -2.28836 0
M  V30 1793 C 169.727 -0.823201 -3.50359 0
M  V30 1794 C 169.335 -2.29477 -3.84765 0
M  V30 1795 C 171.079 -0.503009 -4.21509 0
M  V30 1796 C 168.986 -2.57118 -5.32583 0
M  V30 1797 H 167.916 -0.179062 -0.732429 0
M  V30 1798 H 170.567 -1.07183 -1.48943 0
M  V30 1799 H 168.949 -0.169331 -3.95638 0
M  V30 1800 H 170.123 -2.99236 -3.5042 0
M  V30 1801 H 168.438 -2.58178 -3.267 0
M  V30 1802 H 171.035 -0.68665 -5.30273 0
M  V30 1803 H 171.378 0.557109 -4.12555 0
M  V30 1804 H 171.911 -1.11376 -3.8189 0
M  V30 1805 H 168.65 -3.61843 -5.4658 0
M  V30 1806 H 168.17 -1.91961 -5.68253 0
M  V30 1807 H 169.849 -2.42251 -5.99936 0
M  V30 1808 N 169.982 1.44106 -0.638065 0
M  V30 1809 C 171.229 2.01978 -0.14533 0
M  V30 1810 C 171.557 1.50234 1.23532 0
M  V30 1811 O 170.812 0.679548 1.83523 0
M  V30 1812 C 171.111 3.5729 -0.0887327 0
M  V30 1813 C 170.777 4.28317 -1.40909 0
M  V30 1814 C 169.439 4.47437 -1.77069 0
M  V30 1815 C 171.791 4.6867 -2.28031 0
M  V30 1816 C 169.119 5.04171 -3.00047 0
M  V30 1817 C 171.471 5.26766 -3.50286 0
M  V30 1818 C 170.135 5.44104 -3.86661 0
M  V30 1819 H 169.405 0.739089 -0.0531801 0
M  V30 1820 H 172.052 1.72781 -0.825761 0
M  V30 1821 H 170.357 3.8594 0.675095 0
M  V30 1822 H 172.054 3.99807 0.309145 0
M  V30 1823 H 168.644 4.1377 -1.1177 0
M  V30 1824 H 172.828 4.53604 -2.01388 0
M  V30 1825 H 168.084 5.15782 -3.28298 0
M  V30 1826 H 172.258 5.56983 -4.18023 0
M  V30 1827 H 169.885 5.87832 -4.82034 0
M  V30 1828 N 171.46 0.379036 1.52974 0
M  V30 1829 C 172.685 -0.209353 2.06341 0
M  V30 1830 C 173.11 -1.40583 1.24972 0
M  V30 1831 O 172.468 -1.79246 0.272155 0
M  V30 1832 C 172.516 -0.567786 3.56102 0
M  V30 1833 O 171.62 -1.66318 3.77375 0
M  V30 1834 H 170.961 -0.0272919 0.663439 0
M  V30 1835 H 173.491 0.543536 1.97248 0
M  V30 1836 H 173.501 -0.835003 3.99364 0
M  V30 1837 H 172.176 0.307013 4.14765 0
M  V30 1838 H 170.753 -1.39048 3.46006 0
M  V30 1839 N 172.938 -1.57226 0.108567 0
M  V30 1840 C 174.184 -1.95121 -0.552761 0
M  V30 1841 C 174.517 -0.991345 -1.66991 0
M  V30 1842 O 173.792 -0.0267211 -1.94482 0
M  V30 1843 C 174.075 -3.43039 -1.09528 0
M  V30 1844 C 173.928 -4.49797 0.0177332 0
M  V30 1845 C 175.247 -3.92567 -1.98945 0
M  V30 1846 H 172.366 -0.709496 -0.199461 0
M  V30 1847 H 175.008 -1.89126 0.182011 0
M  V30 1848 H 173.158 -3.48279 -1.72146 0
M  V30 1849 H 174.83 -4.56661 0.652584 0
M  V30 1850 H 173.073 -4.284 0.682309 0
M  V30 1851 H 173.744 -5.50528 -0.402919 0
M  V30 1852 H 176.22 -3.89565 -1.46214 0
M  V30 1853 H 175.096 -4.96605 -2.33827 0
M  V30 1854 H 175.357 -3.32648 -2.91201 0
M  V30 1855 N 174.416 0.165178 -1.56732 0
M  V30 1856 C 175.663 0.880807 -1.8234 0
M  V30 1857 C 175.991 1.81977 -0.686621 0
M  V30 1858 O 175.246 1.92971 0.325697 0
M  V30 1859 C 175.545 1.70405 -3.1416 0
M  V30 1860 C 175.211 0.913475 -4.4155 0
M  V30 1861 C 173.873 0.695303 -4.7615 0
M  V30 1862 C 176.225 0.359349 -5.1996 0
M  V30 1863 C 173.553 -0.0879947 -5.86634 0
M  V30 1864 C 175.905 -0.410893 -6.31264 0
M  V30 1865 C 174.569 -0.639808 -6.64427 0
M  V30 1866 H 173.839 0.32231 -0.667231 0
M  V30 1867 H 176.486 0.145402 -1.90947 0
M  V30 1868 H 174.791 2.50903 -3.00923 0
M  V30 1869 H 176.488 2.26091 -3.31186 0
M  V30 1870 H 173.078 1.09357 -4.14414 0
M  V30 1871 H 177.262 0.515228 -4.93618 0
M  V30 1872 H 172.518 -0.27503 -6.10781 0
M  V30 1873 H 176.692 -0.847494 -6.91224 0
M  V30 1874 H 174.319 -1.24864 -7.49875 0
M  V30 1875 N 175.894 1.51508 0.433938 0
M  V30 1876 C 177.143 1.63578 1.18005 0
M  V30 1877 C 177.456 0.359514 1.92268 0
M  V30 1878 O 178.662 0.359632 2.69108 0
M  V30 1879 C 177.118 2.88901 2.14626 0
M  V30 1880 C 176.726 4.23544 1.45995 0
M  V30 1881 C 178.47 3.10328 2.89649 0
M  V30 1882 C 176.377 5.40014 2.4112 0
M  V30 1883 H 175.307 0.609277 0.444182 0
M  V30 1884 H 177.958 1.77978 0.446773 0
M  V30 1885 H 176.34 2.68142 2.91403 0
M  V30 1886 H 177.514 4.54696 0.747532 0
M  V30 1887 H 175.829 4.08021 0.831115 0
M  V30 1888 H 178.426 3.94518 3.60915 0
M  V30 1889 H 178.769 2.23544 3.51189 0
M  V30 1890 H 179.302 3.31443 2.19978 0
M  V30 1891 H 176.041 6.29068 1.84264 0
M  V30 1892 H 175.561 5.13233 3.10406 0
M  V30 1893 H 177.24 5.72099 3.02177 0
M  V30 1894 N 177.372 -0.689602 1.41712 0
M  V30 1895 C 178.302 -1.81577 1.46806 0
M  V30 1896 C 179.283 -1.66945 0.326105 0
M  V30 1897 O 180.468 -1.86588 0.538377 0
M  V30 1898 C 177.598 -3.19762 1.35535 0
M  V30 1899 C 176.552 -3.49107 2.47605 0
M  V30 1900 C 175.878 -4.86711 2.21397 0
M  V30 1901 C 177.178 -3.47483 3.89939 0
M  V30 1902 H 178.872 -1.7757 2.41058 0
M  V30 1903 H 176.418 -0.852887 1.16025 0
M  V30 1904 H 178.371 -3.98263 1.3771 0
M  V30 1905 H 177.095 -3.24409 0.377708 0
M  V30 1906 H 175.754 -2.72959 2.44722 0
M  V30 1907 H 175.402 -4.8799 1.21961 0
M  V30 1908 H 175.102 -5.0731 2.96497 0
M  V30 1909 H 176.626 -5.67515 2.25297 0
M  V30 1910 H 178.04 -4.1598 3.94505 0
M  V30 1911 H 176.437 -3.79615 4.64771 0
M  V30 1912 H 177.507 -2.46341 4.17665 0
M  V30 1913 N 178.85 -1.27639 -0.924453 0
M  V30 1914 C 180.09 -1.15407 -1.68703 0
M  V30 1915 C 180.454 0.294581 -1.89727 0
M  V30 1916 O 181.655 0.539385 -2.63333 0
M  V30 1917 C 179.926 -1.9195 -3.0148 0
M  V30 1918 S 181.485 -1.95969 -3.92609 0
M  V30 1919 H 178.303 -0.411937 -0.579507 0
M  V30 1920 H 180.905 -1.61592 -1.10038 0
M  V30 1921 H 179.609 -2.96387 -2.83871 0
M  V30 1922 H 179.14 -1.46272 -3.65196 0
M  V30 1923 H 181.155 -1.05846 -4.84779 0
M  V30 1924 N 180.328 1.1314 -1.09713 0
M  V30 1925 C 181.577 1.83838 -0.829851 0
M  V30 1926 C 181.89 1.84599 0.646728 0
M  V30 1927 O 183.096 2.51218 1.02965 0
M  V30 1928 C 181.552 3.30069 -1.43466 0
M  V30 1929 C 181.16 3.37688 -2.94399 0
M  V30 1930 C 182.904 4.05788 -1.24645 0
M  V30 1931 C 180.811 4.78209 -3.47952 0
M  V30 1932 H 179.741 0.68877 -0.306777 0
M  V30 1933 H 182.392 1.27448 -1.3202 0
M  V30 1934 H 180.774 3.8628 -0.871996 0
M  V30 1935 H 181.948 2.91456 -3.56918 0
M  V30 1936 H 180.263 2.75436 -3.12289 0
M  V30 1937 H 182.86 5.09535 -1.62107 0
M  V30 1938 H 183.203 4.15878 -0.187357 0
M  V30 1939 H 183.736 3.55915 -1.77678 0
M  V30 1940 H 180.475 4.73311 -4.53495 0
M  V30 1941 H 179.995 5.24924 -2.90198 0
M  V30 1942 H 181.674 5.47133 -3.45332 0
M  V30 1943 N 181.806 0.884767 1.30421 0
M  V30 1944 C 183.083 0.423185 1.90967 0
M  V30 1945 C 183.463 -1.09605 1.80416 0
M  V30 1946 O 182.811 -1.93126 1.22125 0
M  V30 1947 C 183.021 0.921056 3.36627 0
M  V30 1948 C 184.369 0.955903 4.137 0
M  V30 1949 O 185.393 0.867706 3.4547 0
M  V30 1950 O 184.252 1.08614 5.35598 0
M  V30 1951 H 181.346 0.129369 0.816819 0
M  V30 1952 H 183.892 0.973653 1.3899 0
M  V30 1953 H 182.664 1.96489 3.3839 0
M  V30 1954 H 182.287 0.349741 3.96059 0
M  V30 1955 N 183.284 -1.43765 0.645699 0
M  V30 1956 C 184.7 -1.56509 0.312591 0
M  V30 1957 C 184.9 -1.6307 -1.18365 0
M  V30 1958 O 183.956 -1.58167 -1.96824 0
M  V30 1959 C 185.269 -2.82968 1.01733 0
M  V30 1960 C 186.817 -2.96701 0.996865 0
M  V30 1961 C 187.292 -4.25982 1.68236 0
M  V30 1962 N 188.783 -4.32829 1.64964 0
M  V30 1963 C 189.518 -5.31613 2.14885 0
M  V30 1964 N 189.014 -6.36718 2.73061 0
M  V30 1965 N 190.807 -5.23217 2.05428 0
M  V30 1966 H 182.958 -1.3775 1.61675 0
M  V30 1967 H 185.221 -0.661067 0.679481 0
M  V30 1968 H 184.927 -2.84156 2.0724 0
M  V30 1969 H 184.801 -3.72957 0.564177 0
M  V30 1970 H 187.188 -2.95058 -0.0497719 0
M  V30 1971 H 187.269 -2.08022 1.48865 0
M  V30 1972 H 186.913 -4.28386 2.72852 0
M  V30 1973 H 186.843 -5.13545 1.16529 0
M  V30 1974 H 189.334 -3.57493 1.22503 0
M  V30 1975 H 189.647 -7.08401 3.08848 0
M  V30 1976 H 187.992 -6.37362 2.77118 0
M  V30 1977 H 191.183 -4.40019 1.59689 0
M  V30 1978 H 191.356 -6.00045 2.44643 0
M  V30 1979 N 184.763 -0.387143 -1.52771 0
M  V30 1980 C 185.993 0.195585 -2.05672 0
M  V30 1981 C 186.401 1.41241 -1.25887 0
M  V30 1982 O 185.744 1.81265 -0.298081 0
M  V30 1983 C 185.806 0.632327 -3.53895 0
M  V30 1984 C 185.47 -0.470739 -4.54569 0
M  V30 1985 C 186.467 -1.32746 -5.02667 0
M  V30 1986 C 184.152 -0.637151 -4.98243 0
M  V30 1987 C 186.146 -2.33574 -5.93061 0
M  V30 1988 C 183.833 -1.64877 -5.88438 0
M  V30 1989 C 184.831 -2.49649 -6.35739 0
M  V30 1990 O 184.519 -3.49082 -7.24153 0
M  V30 1991 H 184.251 0.033658 -0.675162 0
M  V30 1992 H 186.805 -0.550221 -1.97893 0
M  V30 1993 H 185.035 1.43008 -3.59285 0
M  V30 1994 H 186.724 1.14048 -3.89548 0
M  V30 1995 H 187.49 -1.21019 -4.69659 0
M  V30 1996 H 183.369 0.0129567 -4.60998 0
M  V30 1997 H 186.913 -2.99777 -6.29904 0
M  V30 1998 H 182.81 -1.76643 -6.2086 0
M  V30 1999 H 183.578 -3.45065 -7.42208 0
M  V30 2000 N 186.241 1.57166 -0.116904 0
M  V30 2001 C 187.657 1.5779 0.239693 0
M  V30 2002 C 187.857 1.1295 1.66867 0
M  V30 2003 O 186.913 0.81592 2.38954 0
M  V30 2004 C 188.226 3.00699 0.00828202 0
M  V30 2005 C 189.774 3.12912 0.0743438 0
M  V30 2006 C 190.249 4.57817 -0.129348 0
M  V30 2007 N 191.74 4.63139 -0.075247 0
M  V30 2008 C 192.475 5.73023 -0.207788 0
M  V30 2009 N 191.971 6.91665 -0.396382 0
M  V30 2010 N 193.764 5.61906 -0.14751 0
M  V30 2011 H 185.915 1.84615 -1.05029 0
M  V30 2012 H 188.178 0.85311 -0.41341 0
M  V30 2013 H 187.884 3.37784 -0.979531 0
M  V30 2014 H 187.758 3.69848 0.741077 0
M  V30 2015 H 190.145 2.75686 1.05268 0
M  V30 2016 H 190.226 2.4631 -0.690297 0
M  V30 2017 H 189.87 4.95742 -1.10465 0
M  V30 2018 H 189.8 5.22507 0.655253 0
M  V30 2019 H 192.291 3.7784 0.0670898 0
M  V30 2020 H 192.604 7.71255 -0.488437 0
M  V30 2021 H 190.949 6.93654 -0.432329 0
M  V30 2022 H 194.14 4.681 -0.00115036 0
M  V30 2023 H 194.313 6.47501 -0.254247 0
M  V30 2024 N 187.719 -0.156864 1.56817 0
M  V30 2025 C 188.944 -0.890331 1.87318 0
M  V30 2026 C 189.369 -1.74394 0.704855 0
M  V30 2027 O 188.727 -1.77972 -0.345786 0
M  V30 2028 C 188.775 -1.73102 3.16336 0
M  V30 2029 O 187.879 -2.83422 2.99576 0
M  V30 2030 H 187.22 -0.24857 0.615718 0
M  V30 2031 H 189.75 -0.150649 2.04045 0
M  V30 2032 H 189.76 -2.12803 3.48107 0
M  V30 2033 H 188.435 -1.10412 4.00976 0
M  V30 2034 H 187.012 -2.47199 2.7919 0
M  V30 2035 N 189.197 -1.51736 -0.425897 0
M  V30 2036 C 190.443 -1.65214 -1.1761 0
M  V30 2037 C 190.776 -0.372778 -1.90589 0
M  V30 2038 O 190.051 0.628139 -1.84078 0
M  V30 2039 C 190.334 -2.86312 -2.18398 0
M  V30 2040 C 190.187 -4.24254 -1.49426 0
M  V30 2041 C 191.506 -3.02925 -3.19256 0
M  V30 2042 H 188.625 -0.601263 -0.426206 0
M  V30 2043 H 191.267 -1.8425 -0.463882 0
M  V30 2044 H 189.417 -2.70213 -2.79137 0
M  V30 2045 H 191.089 -4.52046 -0.919362 0
M  V30 2046 H 189.332 -4.26426 -0.796432 0
M  V30 2047 H 190.003 -5.05001 -2.22885 0
M  V30 2048 H 192.479 -3.1781 -2.68581 0
M  V30 2049 H 191.355 -3.89199 -3.8706 0
M  V30 2050 H 191.616 -2.15497 -3.86023 0
M  V30 2051 N 190.675 0.682077 -1.42076 0
M  V30 2052 C 191.607 1.80755 -1.40926 0
M  V30 2053 C 192.62 1.59833 -0.309398 0
M  V30 2054 O 193.809 1.69087 -0.572014 0
M  V30 2055 C 190.909 3.17744 -1.17865 0
M  V30 2056 C 190.082 3.65578 -2.40149 0
M  V30 2057 C 189.141 4.81277 -2.12742 0
M  V30 2058 O 188.167 4.92197 -2.85887 0
M  V30 2059 N 189.369 5.69474 -1.12602 0
M  V30 2060 H 192.134 1.82229 -2.37935 0
M  V30 2061 H 189.695 0.864903 -1.36861 0
M  V30 2062 H 191.687 3.9279 -0.9746 0
M  V30 2063 H 190.257 3.11214 -0.294068 0
M  V30 2064 H 189.477 2.81291 -2.76169 0
M  V30 2065 H 190.765 3.94278 -3.21593 0
M  V30 2066 H 190.163 5.63297 -0.520899 0
M  V30 2067 H 188.72 6.44363 -0.981842 0
M  V30 2068 N 192.153 1.28127 0.917671 0
M  V30 2069 C 193.085 1.07517 2.02417 0
M  V30 2070 C 194.098 0.0281099 1.62776 0
M  V30 2071 O 195.287 0.270748 1.76435 0
M  V30 2072 C 192.387 0.610957 3.33347 0
M  V30 2073 C 191.56 1.73255 4.01624 0
M  V30 2074 C 190.619 1.26238 5.10833 0
M  V30 2075 O 189.645 1.96389 5.34247 0
M  V30 2076 N 190.847 0.123448 5.80369 0
M  V30 2077 H 193.612 2.02806 2.20658 0
M  V30 2078 H 191.173 1.19827 1.08871 0
M  V30 2079 H 193.165 0.280101 4.0373 0
M  V30 2080 H 191.735 -0.24898 3.11607 0
M  V30 2081 H 190.955 2.23319 3.24842 0
M  V30 2082 H 192.243 2.48503 4.43986 0
M  V30 2083 H 191.641 -0.461847 5.63812 0
M  V30 2084 H 190.198 -0.148158 6.51632 0
M  V30 2085 N 193.631 -1.12557 1.10312 0
M  V30 2086 C 195.042 -1.65574 0.862678 0
M  V30 2087 C 195.393 -1.86566 -0.607256 0
M  V30 2088 O 194.518 -1.59121 -1.46662 0
M  V30 2089 C 195.113 -3.00776 1.55947 0
M  V30 2090 C 193.672 -3.50748 1.36576 0
M  V30 2091 C 192.819 -2.25797 1.60968 0
M  V30 2092 H 195.77 -0.963552 1.26101 0
M  V30 2093 H 195.791 -3.67185 0.997753 0
M  V30 2094 H 195.303 -2.85465 2.62928 0
M  V30 2095 H 193.404 -3.71245 0.317531 0
M  V30 2096 H 193.517 -4.30289 2.10686 0
M  V30 2097 H 191.881 -2.32841 1.03234 0
M  V30 2098 H 192.664 -2.13043 2.69198 0
M  V30 2099 N 195.109 -0.891671 -1.2995 0
M  V30 2100 C 196.039 -0.379797 -2.30391 0
M  V30 2101 C 197.02 0.540919 -1.6127 0
M  V30 2102 O 198.205 0.453352 -1.88834 0
M  V30 2103 C 195.335 0.400654 -3.44981 0
M  V30 2104 C 194.289 -0.428905 -4.25846 0
M  V30 2105 C 193.615 0.478557 -5.32554 0
M  V30 2106 C 194.915 -1.67458 -4.94727 0
M  V30 2107 H 196.609 -1.21914 -2.73454 0
M  V30 2108 H 194.155 -0.587675 -1.31462 0
M  V30 2109 H 196.108 0.769434 -4.14316 0
M  V30 2110 H 194.832 1.27371 -3.0074 0
M  V30 2111 H 193.491 -0.779911 -3.58208 0
M  V30 2112 H 193.139 1.34951 -4.84559 0
M  V30 2113 H 192.839 -0.0727433 -5.87555 0
M  V30 2114 H 194.363 0.843705 -6.04743 0
M  V30 2115 H 195.777 -1.376 -5.56542 0
M  V30 2116 H 194.174 -2.16659 -5.59624 0
M  V30 2117 H 195.244 -2.41518 -4.20473 0
M  V30 2118 N 196.587 1.43421 -0.653314 0
M  V30 2119 C 198.003 1.56341 -0.320886 0
M  V30 2120 C 198.203 1.63696 1.17499 0
M  V30 2121 O 197.259 1.59208 1.95982 0
M  V30 2122 C 198.572 2.82424 -1.03233 0
M  V30 2123 C 200.12 2.96168 -1.01259 0
M  V30 2124 C 200.595 4.25084 -1.70492 0
M  V30 2125 N 202.086 4.31948 -1.67257 0
M  V30 2126 C 202.821 5.30466 -2.17701 0
M  V30 2127 N 202.317 6.35261 -2.76434 0
M  V30 2128 N 204.11 5.2212 -2.082 0
M  V30 2129 H 196.261 1.3689 -1.62403 0
M  V30 2130 H 198.524 0.657455 -0.682977 0
M  V30 2131 H 198.23 2.83053 -2.08744 0
M  V30 2132 H 198.104 3.72653 -0.583948 0
M  V30 2133 H 200.491 2.9508 0.0341235 0
M  V30 2134 H 200.572 2.07229 -1.49966 0
M  V30 2135 H 200.216 4.26932 -2.7512 0
M  V30 2136 H 200.146 5.1292 -1.19251 0
M  V30 2137 H 202.637 3.56838 -1.24398 0
M  V30 2138 H 202.95 7.06754 -3.12601 0
M  V30 2139 H 201.295 6.35884 -2.80495 0
M  V30 2140 H 204.486 4.39166 -1.62021 0
M  V30 2141 H 204.659 5.98739 -2.47822 0
M  V30 2142 N 198.065 0.39524 1.52563 0
M  V30 2143 C 199.295 -0.184675 2.05773 0
M  V30 2144 C 199.703 -1.40571 1.26635 0
M  V30 2145 O 199.046 -1.81105 0.30769 0
M  V30 2146 C 199.108 -0.613551 3.54226 0
M  V30 2147 C 198.772 0.49484 4.54313 0
M  V30 2148 C 199.769 1.3541 5.01956 0
M  V30 2149 C 197.454 0.663565 4.97898 0
M  V30 2150 C 199.448 2.36716 5.91814 0
M  V30 2151 C 197.135 1.67996 5.87555 0
M  V30 2152 C 198.133 2.53017 6.34406 0
M  V30 2153 O 197.821 3.52917 7.22291 0
M  V30 2154 H 197.553 -0.030077 0.675331 0
M  V30 2155 H 200.107 0.560708 1.97599 0
M  V30 2156 H 198.337 -1.411 3.60038 0
M  V30 2157 H 200.026 -1.11981 3.90148 0
M  V30 2158 H 200.792 1.23509 4.6901 0
M  V30 2159 H 196.671 0.0114913 4.60999 0
M  V30 2160 H 200.215 3.03113 6.28306 0
M  V30 2161 H 196.112 1.79933 6.19915 0
M  V30 2162 H 196.88 3.48996 7.40367 0
M  V30 2163 N 199.544 -1.57102 0.125237 0
M  V30 2164 C 200.474 -2.18659 -0.819174 0
M  V30 2165 C 201.455 -1.12843 -1.27281 0
M  V30 2166 O 202.64 -1.41104 -1.33429 0
M  V30 2167 C 199.77 -2.79096 -2.06695 0
M  V30 2168 C 198.724 -3.90548 -1.75088 0
M  V30 2169 C 198.05 -4.37821 -3.06948 0
M  V30 2170 C 199.35 -5.12356 -1.01435 0
M  V30 2171 H 201.044 -2.9783 -0.306202 0
M  V30 2172 H 198.59 -1.4326 -0.145839 0
M  V30 2173 H 200.543 -3.2082 -2.73226 0
M  V30 2174 H 199.267 -1.97223 -2.60328 0
M  V30 2175 H 197.926 -3.49409 -1.10944 0
M  V30 2176 H 197.574 -3.52799 -3.58527 0
M  V30 2177 H 197.274 -5.12982 -2.86571 0
M  V30 2178 H 198.798 -4.822 -3.74587 0
M  V30 2179 H 200.212 -5.5106 -1.58132 0
M  V30 2180 H 198.609 -5.9314 -0.911319 0
M  V30 2181 H 199.679 -4.849 -0.00218681 0
M  V30 2182 N 201.022 0.148545 -1.56898 0
M  V30 2183 C 201.969 1.18345 -1.98149 0
M  V30 2184 C 202.939 1.42772 -0.848848 0
M  V30 2185 O 204.124 1.55132 -1.11079 0
M  V30 2186 C 201.264 2.51231 -2.36594 0
M  V30 2187 C 200.377 2.33991 -3.63142 0
M  V30 2188 C 199.512 3.59902 -3.90697 0
M  V30 2189 C 198.551 3.37692 -5.1052 0
M  V30 2190 N 197.688 4.5573 -5.34092 0
M  V30 2191 H 202.528 0.82467 -2.86362 0
M  V30 2192 H 200.065 0.395756 -1.41676 0
M  V30 2193 H 202.023 3.28713 -2.56912 0
M  V30 2194 H 200.653 2.85059 -1.51463 0
M  V30 2195 H 199.705 1.47572 -3.50609 0
M  V30 2196 H 201.017 2.13539 -4.5078 0
M  V30 2197 H 200.171 4.45813 -4.11505 0
M  V30 2198 H 198.91 3.83357 -3.01477 0
M  V30 2199 H 197.915 2.5017 -4.89587 0
M  V30 2200 H 199.14 3.15637 -6.0129 0
M  V30 2201 H 197.086 4.79361 -4.47827 0
M  V30 2202 H 197.003 4.38274 -6.15996 0
M  V30 2203 H 198.271 5.42858 -5.59397 0
M  V30 2204 N 202.5 1.5196 0.417844 0
M  V30 2205 C 203.73 1.69181 1.18581 0
M  V30 2206 C 204.138 0.397104 1.84986 0
M  V30 2207 O 203.481 -0.636011 1.72339 0
M  V30 2208 C 203.543 2.76497 2.29759 0
M  V30 2209 C 203.207 4.18514 1.83563 0
M  V30 2210 C 204.204 5.02648 1.32821 0
M  V30 2211 C 201.889 4.64708 1.90661 0
M  V30 2212 C 203.883 6.31044 0.897894 0
M  V30 2213 C 201.57 5.93096 1.47241 0
M  V30 2214 C 202.568 6.76093 0.968891 0
M  V30 2215 O 202.256 8.02078 0.540924 0
M  V30 2216 H 201.988 0.570457 0.362705 0
M  V30 2217 H 204.542 1.99249 0.498885 0
M  V30 2218 H 202.772 2.41786 3.01789 0
M  V30 2219 H 204.461 2.82403 2.91553 0
M  V30 2220 H 205.227 4.68154 1.26716 0
M  V30 2221 H 201.106 4.00216 2.28797 0
M  V30 2222 H 204.65 6.95776 0.504192 0
M  V30 2223 H 200.547 6.271 1.53022 0
M  V30 2224 H 201.315 8.15794 0.66502 0
M  V30 2225 N 203.978 -0.674533 1.42435 0
M  V30 2226 C 205.394 -0.98769 1.25367 0
M  V30 2227 C 205.594 -2.00879 0.158044 0
M  V30 2228 O 204.65 -2.48075 -0.470633 0
M  V30 2229 C 205.963 -1.49224 2.6106 0
M  V30 2230 C 207.511 -1.61 2.68417 0
M  V30 2231 C 207.986 -2.14852 4.04478 0
M  V30 2232 N 209.477 -2.22185 4.06434 0
M  V30 2233 C 210.212 -2.64928 5.08528 0
M  V30 2234 N 209.708 -3.07121 6.21006 0
M  V30 2235 N 211.501 -2.64679 4.95885 0
M  V30 2236 H 203.652 0.00152503 2.124 0
M  V30 2237 H 205.915 -0.0618434 0.945981 0
M  V30 2238 H 205.621 -0.816453 3.42092 0
M  V30 2239 H 205.495 -2.47094 2.84999 0
M  V30 2240 H 207.882 -2.27686 1.87732 0
M  V30 2241 H 207.963 -0.616195 2.48267 0
M  V30 2242 H 207.607 -1.48775 4.85622 0
M  V30 2243 H 207.537 -3.15024 4.2198 0
M  V30 2244 H 210.028 -1.92435 3.25234 0
M  V30 2245 H 210.341 -3.38423 6.94759 0
M  V30 2246 H 208.686 -3.04978 6.24511 0
M  V30 2247 H 211.877 -2.31078 4.07088 0
M  V30 2248 H 212.05 -2.9767 5.75584 0
M  V30 2249 N 205.456 -1.28612 -0.910864 0
M  V30 2250 C 206.684 -1.18792 -1.69399 0
M  V30 2251 C 207.099 0.253039 -1.87097 0
M  V30 2252 O 206.456 1.17071 -1.40003 0
M  V30 2253 C 206.507 -1.88511 -3.08457 0
M  V30 2254 O 206.228 -3.26979 -2.91576 0
M  V30 2255 C 207.729 -1.85029 -4.02839 0
M  V30 2256 H 204.949 -0.412233 -0.529438 0
M  V30 2257 H 207.493 -1.69788 -1.13984 0
M  V30 2258 H 205.648 -1.41379 -3.60681 0
M  V30 2259 H 206.062 -3.61936 -3.79608 0
M  V30 2260 H 207.536 -2.38395 -4.97867 0
M  V30 2261 H 208.013 -0.823303 -4.31414 0
M  V30 2262 H 208.619 -2.31853 -3.56545 0
M  V30 2263 N 206.934 1.1197 -1.10907 0
M  V30 2264 C 207.881 2.17846 -0.762345 0
M  V30 2265 C 208.851 1.63995 0.263599 0
M  V30 2266 O 210.036 1.90273 0.141773 0
M  V30 2267 C 207.176 3.44487 -0.205651 0
M  V30 2268 C 206.289 4.12369 -1.28748 0
M  V30 2269 C 205.424 5.26674 -0.691919 0
M  V30 2270 C 204.463 5.86431 -1.75399 0
M  V30 2271 N 203.6 6.92142 -1.17833 0
M  V30 2272 H 208.44 2.46851 -1.6694 0
M  V30 2273 H 205.977 1.21188 -0.833776 0
M  V30 2274 H 207.935 4.16981 0.135037 0
M  V30 2275 H 206.565 3.15884 0.664613 0
M  V30 2276 H 205.617 3.38003 -1.74522 0
M  V30 2277 H 206.929 4.52844 -2.09125 0
M  V30 2278 H 206.083 6.05953 -0.300963 0
M  V30 2279 H 204.822 4.8749 0.143232 0
M  V30 2280 H 203.827 5.05835 -2.15432 0
M  V30 2281 H 205.052 6.27685 -2.59208 0
M  V30 2282 H 202.998 6.54985 -0.364725 0
M  V30 2283 H 202.915 7.31242 -1.91887 0
M  V30 2284 H 204.183 7.75237 -0.81408 0
M  V30 2285 N 208.412 0.89855 1.29475 0
M  V30 2286 C 209.64 0.539261 1.99749 0
M  V30 2287 C 210.055 -0.875716 1.67262 0
M  V30 2288 O 209.412 -1.57786 0.917049 0
M  V30 2289 C 209.463 0.72061 3.54245 0
M  V30 2290 O 209.184 2.07989 3.8558 0
M  V30 2291 C 210.685 0.366118 4.41786 0
M  V30 2292 H 207.905 0.207047 0.638258 0
M  V30 2293 H 210.449 1.20758 1.65039 0
M  V30 2294 H 208.604 0.0994862 3.87272 0
M  V30 2295 H 209.018 2.10841 4.80257 0
M  V30 2296 H 210.492 0.543848 5.49314 0
M  V30 2297 H 210.969 -0.696763 4.33638 0
M  V30 2298 H 211.575 0.964135 4.14228 0
M  V30 2299 N 209.89 -1.43072 0.660911 0
M  V30 2300 C 211.306 -1.56169 0.329173 0
M  V30 2301 C 211.506 -1.64317 -1.16629 0
M  V30 2302 O 210.562 -1.60245 -1.95135 0
M  V30 2303 C 211.875 -2.81873 1.04729 0
M  V30 2304 C 213.423 -2.95627 1.02828 0
M  V30 2305 C 213.898 -4.24174 1.72744 0
M  V30 2306 N 215.389 -4.31055 1.69545 0
M  V30 2307 C 216.124 -5.29304 2.20511 0
M  V30 2308 N 215.62 -6.33786 2.79799 0
M  V30 2309 N 217.413 -5.21008 2.10966 0
M  V30 2310 H 209.564 -1.36027 1.63127 0
M  V30 2311 H 211.827 -0.653823 0.686454 0
M  V30 2312 H 211.533 -2.81942 2.10242 0
M  V30 2313 H 211.407 -3.72338 0.603702 0
M  V30 2314 H 213.794 -2.95094 -0.0184742 0
M  V30 2315 H 213.875 -2.06431 1.51063 0
M  V30 2316 H 213.519 -4.25467 2.7738 0
M  V30 2317 H 213.449 -5.1228 1.2197 0
M  V30 2318 H 215.94 -3.56174 1.26288 0
M  V30 2319 H 216.253 -7.05086 3.16344 0
M  V30 2320 H 214.598 -6.34387 2.83863 0
M  V30 2321 H 217.789 -4.38301 1.64347 0
M  V30 2322 H 217.962 -5.97416 2.50993 0
M  V30 2323 N 211.368 -0.403325 -1.52352 0
M  V30 2324 C 212.331 0.413051 -2.25447 0
M  V30 2325 C 213.331 0.978513 -1.276 0
M  V30 2326 O 214.521 0.858305 -1.51587 0
M  V30 2327 C 211.653 1.58087 -3.02029 0
M  V30 2328 H 212.846 -0.227094 -2.99039 0
M  V30 2329 H 210.399 -0.155722 -1.55522 0
M  V30 2330 H 211.134 2.25804 -2.32772 0
M  V30 2331 H 210.919 1.18195 -3.73861 0
M  V30 2332 H 212.409 2.1585 -3.57489 0
M  V30 2333 N 212.846 1.57033 -0.133567 0
M  V30 2334 C 214.071 2.00475 0.531477 0
M  V30 2335 C 214.496 1.01291 1.58499 0
M  V30 2336 O 213.854 -0.0133279 1.81295 0
M  V30 2337 C 213.902 3.42729 1.12113 0
M  V30 2338 O 213.006 3.46498 2.23636 0
M  V30 2339 H 212.347 0.650876 0.131362 0
M  V30 2340 H 214.877 2.03344 -0.22634 0
M  V30 2341 H 214.887 3.81246 1.4531 0
M  V30 2342 H 213.562 4.14428 0.349557 0
M  V30 2343 H 212.139 3.19811 1.91769 0
M  V30 2344 N 214.325 -0.140222 1.56975 0
M  V30 2345 C 215.288 -1.15689 1.97861 0
M  V30 2346 C 216.288 -1.3549 0.865974 0
M  V30 2347 O 217.478 -1.32367 1.13246 0
M  V30 2348 C 214.61 -2.51582 2.30042 0
M  V30 2349 H 215.803 -0.805971 2.88867 0
M  V30 2350 H 213.356 -0.383801 1.51515 0
M  V30 2351 H 214.091 -2.91632 1.41849 0
M  V30 2352 H 213.876 -2.38569 3.11171 0
M  V30 2353 H 215.366 -3.24792 2.62488 0
M  V30 2354 N 215.803 -1.52179 -0.40978 0
M  V30 2355 C 217.031 -1.70054 -1.17853 0
M  V30 2356 C 217.446 -0.409735 -1.843 0
M  V30 2357 O 216.803 0.614183 -1.71855 0
M  V30 2358 C 216.854 -2.83568 -2.24213 0
M  V30 2359 O 216.575 -4.0765 -1.60478 0
M  V30 2360 C 218.076 -3.12947 -3.13973 0
M  V30 2361 H 215.296 -0.569917 -0.354169 0
M  V30 2362 H 217.84 -1.98734 -0.482198 0
M  V30 2363 H 215.995 -2.57409 -2.89516 0
M  V30 2364 H 216.409 -4.70899 -2.30986 0
M  V30 2365 H 217.883 -3.95889 -3.84677 0
M  V30 2366 H 218.36 -2.26472 -3.76307 0
M  V30 2367 H 218.966 -3.40868 -2.5434 0
M  V30 2368 N 217.281 0.66697 -1.42791 0
M  V30 2369 C 218.53 1.42278 -1.42968 0
M  V30 2370 C 218.843 1.9553 -0.0524489 0
M  V30 2371 O 220.049 2.71414 0.068363 0
M  V30 2372 C 218.505 2.57418 -2.51524 0
M  V30 2373 C 218.113 2.10832 -3.9529 0
M  V30 2374 C 219.857 3.34878 -2.60877 0
M  V30 2375 C 217.764 3.23101 -4.95338 0
M  V30 2376 H 216.694 0.534533 -0.531781 0
M  V30 2377 H 219.345 0.721302 -1.68729 0
M  V30 2378 H 217.727 3.29971 -2.18941 0
M  V30 2379 H 218.901 1.4538 -4.37266 0
M  V30 2380 H 217.216 1.46289 -3.89857 0
M  V30 2381 H 219.813 4.18505 -3.32802 0
M  V30 2382 H 220.156 3.81993 -1.6549 0
M  V30 2383 H 220.689 2.69398 -2.92693 0
M  V30 2384 H 217.428 2.80969 -5.9223 0
M  V30 2385 H 216.948 3.87309 -4.57987 0
M  V30 2386 H 218.627 3.88447 -5.17415 0
M  V30 2387 N 218.759 1.29093 0.90403 0
M  V30 2388 C 219.689 1.16401 2.02418 0
M  V30 2389 C 220.67 0.0593085 1.69997 0
M  V30 2390 O 221.855 0.238021 1.92736 0
M  V30 2391 C 218.985 0.835233 3.37107 0
M  V30 2392 C 217.939 1.89578 3.83724 0
M  V30 2393 C 217.265 1.42041 5.15489 0
M  V30 2394 C 218.565 3.30394 4.04521 0
M  V30 2395 H 220.259 2.10109 2.13295 0
M  V30 2396 H 217.805 1.01157 1.02486 0
M  V30 2397 H 219.758 0.733169 4.14973 0
M  V30 2398 H 218.482 -0.137543 3.2631 0
M  V30 2399 H 217.141 1.98715 3.08071 0
M  V30 2400 H 216.789 0.436426 5.01103 0
M  V30 2401 H 216.489 2.12964 5.4765 0
M  V30 2402 H 218.013 1.33176 5.959 0
M  V30 2403 H 219.427 3.24123 4.72882 0
M  V30 2404 H 217.824 3.99237 4.48029 0
M  V30 2405 H 218.894 3.73692 3.09002 0
M  V30 2406 N 220.237 -1.11381 1.11499 0
M  V30 2407 C 221.485 -1.8277 0.862524 0
M  V30 2408 C 221.806 -1.85097 -0.613534 0
M  V30 2409 O 221.076 -1.32198 -1.4457 0
M  V30 2410 H 219.656 -0.676823 0.316101 0
M  V30 2411 H 222.318 -1.34816 1.4075 0
M  V30 2412 H 221.414 -2.86614 1.23527 0
M  V30 2413 N 221.715 -0.905404 -1.28997 0
M  V30 2414 C 222.678 -0.392253 -2.25819 0
M  V30 2415 C 223.678 0.476753 -1.5357 0
M  V30 2416 O 224.868 0.280994 -1.71919 0
M  V30 2417 C 222 0.438588 -3.38067 0
M  V30 2418 H 223.193 -1.24743 -2.72725 0
M  V30 2419 H 220.746 -0.684051 -1.40536 0
M  V30 2420 H 221.481 1.31352 -2.96508 0
M  V30 2421 H 221.266 -0.184167 -3.91667 0
M  V30 2422 H 222.756 0.78873 -4.10084 0
M  V30 2423 N 223.193 1.4272 -0.668489 0
M  V30 2424 C 224.439 2.02443 -0.197076 0
M  V30 2425 C 224.794 1.51882 1.18109 0
M  V30 2426 O 224.087 0.708618 1.78015 0
M  V30 2427 C 224.281 3.57021 -0.164499 0
M  V30 2428 C 224.11 4.22583 -1.53797 0
M  V30 2429 C 222.88 4.58019 -2.13416 0
M  V30 2430 C 225.078 4.50588 -2.47941 0
M  V30 2431 N 223.06 5.08729 -3.4361 0
M  V30 2432 C 224.431 5.02782 -3.62782 0
M  V30 2433 C 226.486 4.32571 -2.46551 0
M  V30 2434 C 225.189 5.38852 -4.76478 0
M  V30 2435 C 227.215 4.69713 -3.59338 0
M  V30 2436 C 226.577 5.22053 -4.72906 0
M  V30 2437 H 222.676 0.773214 -0.116894 0
M  V30 2438 H 225.26 1.73673 -0.880108 0
M  V30 2439 H 223.431 3.85323 0.487925 0
M  V30 2440 H 225.163 4.03439 0.319207 0
M  V30 2441 H 221.918 4.43566 -1.65969 0
M  V30 2442 H 222.342 5.38521 -4.10273 0
M  V30 2443 H 226.984 3.91365 -1.59978 0
M  V30 2444 H 224.702 5.78993 -5.63731 0
M  V30 2445 H 228.288 4.57454 -3.59482 0
M  V30 2446 H 227.168 5.50258 -5.58736 0
M  V30 2447 N 224.671 0.411399 1.52136 0
M  V30 2448 C 225.918 -0.163645 2.01838 0
M  V30 2449 C 226.246 -1.4495 1.29691 0
M  V30 2450 O 225.501 -1.91725 0.392431 0
M  V30 2451 C 225.8 -0.455872 3.54481 0
M  V30 2452 C 225.466 0.741055 4.44769 0
M  V30 2453 C 224.128 1.06936 4.69167 0
M  V30 2454 C 226.48 1.54075 4.97906 0
M  V30 2455 C 223.808 2.19851 5.43951 0
M  V30 2456 C 226.16 2.66067 5.73926 0
M  V30 2457 C 224.824 2.99381 5.96596 0
M  V30 2458 H 224.094 -0.0598821 0.738576 0
M  V30 2459 H 226.741 0.553283 1.83333 0
M  V30 2460 H 225.046 -1.2544 3.71177 0
M  V30 2461 H 226.743 -0.913802 3.90449 0
M  V30 2462 H 223.333 0.475192 4.25958 0
M  V30 2463 H 227.517 1.30033 4.78963 0
M  V30 2464 H 222.773 2.46006 5.59724 0
M  V30 2465 H 226.947 3.28419 6.14096 0
M  V30 2466 H 224.574 3.86992 6.54325 0
M  V30 2467 N 226.149 -1.5696 0.141893 0
M  V30 2468 C 227.079 -2.19516 -0.795936 0
M  V30 2469 C 228.06 -1.14187 -1.26077 0
M  V30 2470 O 229.245 -1.42511 -1.31925 0
M  V30 2471 C 226.375 -2.81272 -2.03723 0
M  V30 2472 C 225.329 -3.92384 -1.70936 0
M  V30 2473 C 224.655 -4.41052 -3.02287 0
M  V30 2474 C 225.955 -5.13403 -0.959954 0
M  V30 2475 H 227.649 -2.98138 -0.274596 0
M  V30 2476 H 225.195 -1.43406 -0.130636 0
M  V30 2477 H 227.148 -3.237 -2.69808 0
M  V30 2478 H 225.872 -1.99973 -2.58221 0
M  V30 2479 H 224.531 -3.50566 -1.07232 0
M  V30 2480 H 224.179 -3.56582 -3.54765 0
M  V30 2481 H 223.879 -5.15993 -2.81114 0
M  V30 2482 H 225.403 -4.86146 -3.69451 0
M  V30 2483 H 226.817 -5.52706 -1.52279 0
M  V30 2484 H 225.214 -5.94073 -0.848357 0
M  V30 2485 H 226.284 -4.84875 0.0492434 0
M  V30 2486 N 227.627 0.131896 -1.57047 0
M  V30 2487 C 228.852 0.860418 -1.8871 0
M  V30 2488 C 229.277 1.73251 -0.73251 0
M  V30 2489 O 228.635 1.785 0.317429 0
M  V30 2490 C 228.683 1.68047 -3.19049 0
M  V30 2491 O 227.787 2.7862 -3.04047 0
M  V30 2492 H 227.128 0.238743 -0.619595 0
M  V30 2493 H 229.658 0.118169 -2.04258 0
M  V30 2494 H 229.668 2.07238 -3.51449 0
M  V30 2495 H 228.343 1.04018 -4.02682 0
M  V30 2496 H 226.92 2.42726 -2.83088 0
M  V30 2497 N 229.106 1.52395 0.401703 0
M  V30 2498 C 230.353 1.66817 1.14796 0
M  V30 2499 C 230.681 0.401772 1.90305 0
M  V30 2500 O 229.936 -0.615487 1.85769 0
M  V30 2501 C 230.235 2.84578 2.16217 0
M  V30 2502 C 229.901 4.22513 1.5746 0
M  V30 2503 C 228.563 4.60029 1.41161 0
M  V30 2504 C 230.915 5.0844 1.14622 0
M  V30 2505 C 228.243 5.81144 0.80552 0
M  V30 2506 C 230.595 6.30167 0.55428 0
M  V30 2507 C 229.259 6.66426 0.378482 0
M  V30 2508 H 228.529 0.610428 0.420069 0
M  V30 2509 H 231.176 1.86512 0.434212 0
M  V30 2510 H 229.481 2.59248 2.93764 0
M  V30 2511 H 231.178 2.92933 2.73845 0
M  V30 2512 H 227.768 3.92953 1.71132 0
M  V30 2513 H 231.952 4.80034 1.26021 0
M  V30 2514 H 227.208 6.07855 0.657399 0
M  V30 2515 H 231.382 6.96071 0.213983 0
M  V30 2516 H 229.009 7.60143 -0.0932606 0
M  V30 2517 N 230.584 -0.659388 1.43143 0
M  V30 2518 C 231.514 -1.78422 1.50625 0
M  V30 2519 C 232.495 -1.66216 0.361443 0
M  V30 2520 O 233.68 -1.85404 0.577834 0
M  V30 2521 C 230.81 -3.16815 1.42287 0
M  V30 2522 C 229.764 -3.43777 2.54954 0
M  V30 2523 C 229.09 -4.81905 2.31671 0
M  V30 2524 C 230.39 -3.39134 3.97222 0
M  V30 2525 H 232.084 -1.72417 2.44771 0
M  V30 2526 H 229.63 -0.828084 1.17808 0
M  V30 2527 H 231.583 -3.95253 1.46127 0
M  V30 2528 H 230.307 -3.23534 0.446435 0
M  V30 2529 H 228.966 -2.67707 2.50457 0
M  V30 2530 H 228.614 -4.85294 1.32284 0
M  V30 2531 H 228.314 -5.00906 3.07192 0
M  V30 2532 H 229.838 -5.62609 2.37284 0
M  V30 2533 H 231.252 -4.07518 4.03239 0
M  V30 2534 H 229.649 -3.69671 4.72719 0
M  V30 2535 H 230.719 -2.37426 4.22797 0
M  V30 2536 N 232.062 -1.29571 -0.897171 0
M  V30 2537 C 233.308 -1.18873 -1.65048 0
M  V30 2538 C 233.663 0.256707 -1.9068 0
M  V30 2539 O 232.956 1.18202 -1.50794 0
M  V30 2540 C 233.15 -1.9382 -3.00281 0
M  V30 2541 C 232.979 -3.45503 -2.8785 0
M  V30 2542 C 231.749 -4.14856 -2.88483 0
M  V30 2543 C 233.947 -4.40956 -2.64693 0
M  V30 2544 N 231.929 -5.52886 -2.66815 0
M  V30 2545 C 233.3 -5.66464 -2.5203 0
M  V30 2546 C 235.355 -4.3069 -2.49821 0
M  V30 2547 C 234.058 -6.82871 -2.26008 0
M  V30 2548 C 236.084 -5.46852 -2.25182 0
M  V30 2549 C 235.446 -6.71333 -2.13286 0
M  V30 2550 H 231.545 -0.489998 -0.609447 0
M  V30 2551 H 234.129 -1.63431 -1.05822 0
M  V30 2552 H 232.3 -1.51671 -3.57562 0
M  V30 2553 H 234.032 -1.75366 -3.64731 0
M  V30 2554 H 230.787 -3.66579 -2.99861 0
M  V30 2555 H 231.211 -6.25487 -2.59027 0
M  V30 2556 H 235.853 -3.35141 -2.5776 0
M  V30 2557 H 233.571 -7.78473 -2.16806 0
M  V30 2558 H 237.157 -5.40809 -2.14515 0
M  V30 2559 H 236.037 -7.59701 -1.94485 0
M  V30 2560 N 233.54 1.10788 -1.12088 0
M  V30 2561 C 234.786 1.82942 -0.875226 0
M  V30 2562 C 235.119 1.84779 0.597538 0
M  V30 2563 O 234.394 1.30578 1.44152 0
M  V30 2564 C 234.677 3.29789 -1.44606 0
M  V30 2565 C 234.53 3.36307 -2.98693 0
M  V30 2566 C 235.849 4.26064 -1.10261 0
M  V30 2567 H 232.968 0.664195 -0.319397 0
M  V30 2568 H 235.61 1.29867 -1.38689 0
M  V30 2569 H 233.76 3.75118 -1.01089 0
M  V30 2570 H 235.432 2.99487 -3.50864 0
M  V30 2571 H 233.675 2.76318 -3.34411 0
M  V30 2572 H 234.346 4.39694 -3.33726 0
M  V30 2573 H 236.822 3.88951 -1.4784 0
M  V30 2574 H 235.698 5.27183 -1.52869 0
M  V30 2575 H 235.959 4.42098 -0.0142953 0
M  V30 2576 N 235.018 0.912232 1.28515 0
M  V30 2577 C 236.267 0.540504 1.94323 0
M  V30 2578 C 236.58 -0.920044 1.72611 0
M  V30 2579 O 237.786 -1.39986 2.32629 0
M  V30 2580 C 236.242 0.915803 3.48053 0
M  V30 2581 C 235.85 2.39598 3.78546 0
M  V30 2582 C 237.594 0.614588 4.20027 0
M  V30 2583 C 235.501 2.71148 5.25578 0
M  V30 2584 H 234.431 0.198418 0.727424 0
M  V30 2585 H 237.082 1.11094 1.46049 0
M  V30 2586 H 235.464 0.274168 3.9505 0
M  V30 2587 H 236.638 3.08422 3.42364 0
M  V30 2588 H 234.953 2.66749 3.1974 0
M  V30 2589 H 237.55 0.827002 5.28266 0
M  V30 2590 H 237.893 -0.447531 4.13887 0
M  V30 2591 H 238.426 1.21462 3.78803 0
M  V30 2592 H 235.165 3.76207 5.36794 0
M  V30 2593 H 234.685 2.0696 5.62963 0
M  V30 2594 H 236.364 2.58072 5.93302 0
M  V30 2595 N 236.496 -1.42363 0.676048 0
M  V30 2596 C 237.907 -1.84649 0.275948 0
M  V30 2597 C 238.258 -1.56588 -1.18214 0
M  V30 2598 O 237.383 -1.02634 -1.90513 0
M  V30 2599 C 237.978 -3.35178 0.494053 0
M  V30 2600 C 236.537 -3.76109 0.148061 0
M  V30 2601 C 235.684 -2.65931 0.785891 0
M  V30 2602 H 238.635 -1.32192 0.878121 0
M  V30 2603 H 238.656 -3.79655 -0.25343 0
M  V30 2604 H 238.168 -3.55571 1.55535 0
M  V30 2605 H 236.269 -3.61323 -0.909742 0
M  V30 2606 H 236.382 -4.7546 0.589454 0
M  V30 2607 H 234.746 -2.53773 0.217113 0
M  V30 2608 H 235.529 -2.89146 1.85067 0
M  V30 2609 N 237.974 -0.419461 -1.51915 0
M  V30 2610 C 239.223 0.154346 -2.01109 0
M  V30 2611 C 239.536 1.45338 -1.30905 0
M  V30 2612 O 240.742 2.10906 -1.7097 0
M  V30 2613 C 239.198 0.325615 -3.58424 0
M  V30 2614 C 238.806 -0.961934 -4.37551 0
M  V30 2615 C 240.55 0.854155 -4.15818 0
M  V30 2616 C 238.457 -0.757287 -5.86531 0
M  V30 2617 H 237.387 0.0614563 -0.751491 0
M  V30 2618 H 240.038 -0.54649 -1.75173 0
M  V30 2619 H 238.42 1.08903 -3.80731 0
M  V30 2620 H 239.594 -1.7323 -4.26999 0
M  V30 2621 H 237.909 -1.41766 -3.91524 0
M  V30 2622 H 240.506 1.02346 -5.24814 0
M  V30 2623 H 240.849 1.83172 -3.73837 0
M  V30 2624 H 241.382 0.149528 -3.97519 0
M  V30 2625 H 238.121 -1.70671 -6.32892 0
M  V30 2626 H 237.641 -0.0264061 -5.99794 0
M  V30 2627 H 239.32 -0.403482 -6.45741 0
M  V30 2628 N 239.452 1.56882 -0.150215 0
M  V30 2629 C 240.382 2.19935 0.784284 0
M  V30 2630 C 241.363 1.14854 1.25469 0
M  V30 2631 O 242.548 1.43209 1.31168 0
M  V30 2632 C 239.678 2.82349 2.02229 0
M  V30 2633 C 238.632 3.93285 1.68853 0
M  V30 2634 C 237.958 4.42649 2.99944 0
M  V30 2635 C 239.258 5.13904 0.932714 0
M  V30 2636 H 240.952 2.9828 0.258781 0
M  V30 2637 H 238.498 1.43473 0.123029 0
M  V30 2638 H 240.451 3.25126 2.68088 0
M  V30 2639 H 239.175 2.0134 2.57157 0
M  V30 2640 H 237.834 3.5113 1.05371 0
M  V30 2641 H 237.482 3.58458 3.52869 0
M  V30 2642 H 237.182 5.17476 2.78374 0
M  V30 2643 H 238.706 4.88099 3.66868 0
M  V30 2644 H 240.12 5.53506 1.49345 0
M  V30 2645 H 238.517 5.94515 0.81684 0
M  V30 2646 H 239.587 4.84842 -0.0749568 0
M  V30 2647 N 240.93 -0.123565 1.57115 0
M  V30 2648 C 242.178 -0.83051 1.84247 0
M  V30 2649 C 242.499 -1.80629 0.73471 0
M  V30 2650 O 241.769 -1.94403 -0.241688 0
M  V30 2651 H 240.349 -0.309694 0.679778 0
M  V30 2652 H 243.011 -0.111976 1.94578 0
M  V30 2653 H 242.107 -1.37852 2.80006 0
M  V30 2654 N 242.408 -1.52605 -0.393616 0
M  V30 2655 C 243.654 -1.68624 -1.13743 0
M  V30 2656 C 244.009 -0.418687 -1.87789 0
M  V30 2657 O 243.302 0.58747 -1.82371 0
M  V30 2658 C 243.496 -2.85721 -2.14705 0
M  V30 2659 C 243.325 -4.23742 -1.50575 0
M  V30 2660 C 242.095 -4.89033 -1.2718 0
M  V30 2661 C 244.293 -5.05293 -0.958311 0
M  V30 2662 N 242.275 -6.11048 -0.591058 0
M  V30 2663 C 243.646 -6.18673 -0.405367 0
M  V30 2664 C 245.701 -4.90517 -0.854274 0
M  V30 2665 C 244.404 -7.18895 0.241434 0
M  V30 2666 C 246.43 -5.90986 -0.221301 0
M  V30 2667 C 245.792 -7.03669 0.320894 0
M  V30 2668 H 241.891 -0.670556 -0.402342 0
M  V30 2669 H 244.475 -1.89946 -0.427607 0
M  V30 2670 H 242.646 -2.65987 -2.83029 0
M  V30 2671 H 244.378 -2.90699 -2.8156 0
M  V30 2672 H 241.133 -4.47672 -1.54554 0
M  V30 2673 H 241.557 -6.76474 -0.266862 0
M  V30 2674 H 246.199 -4.03612 -1.25926 0
M  V30 2675 H 243.917 -8.05413 0.658448 0
M  V30 2676 H 247.503 -5.81626 -0.142111 0
M  V30 2677 H 246.383 -7.80078 0.802956 0
M  V30 2678 N 243.887 0.651787 -1.4349 0
M  V30 2679 C 244.835 1.78586 -1.49029 0
M  V30 2680 C 245.829 1.65448 -0.363767 0
M  V30 2681 O 247.035 1.71777 -0.537821 0
M  V30 2682 H 243.41 0.589236 -0.467231 0
M  V30 2683 H 245.381 1.71035 -2.44519 0
M  V30 2684 C 244.13 3.16851 -1.43181 0
M  V30 2685 H 243.453 3.27598 -2.29171 0
M  V30 2686 H 244.893 3.96156 -1.51118 0
M  V30 2687 C 243.352 3.36568 -0.149616 0
M  V30 2688 O 243.882 3.93885 0.788509 0
M  V30 2689 N 242.088 2.90539 -0.0593484 0
M  V30 2690 H 241.635 2.4408 -0.823575 0
M  V30 2691 H 241.593 3.04108 0.797853 0
M  V30 2692 N 245.365 1.30045 0.890287 0
M  V30 2693 C 246.315 1.12592 1.9826 0
M  V30 2694 C 247.299 0.0426021 1.60844 0
M  V30 2695 O 248.491 0.265346 1.75 0
M  V30 2696 C 245.62 0.814301 3.33503 0
M  V30 2697 C 244.706 1.93761 3.7725 0
M  V30 2698 N 245.097 3.18232 3.93143 0
M  V30 2699 C 243.395 1.83277 4.06602 0
M  V30 2700 C 244.096 3.9158 4.30163 0
M  V30 2701 N 243.072 3.19591 4.3973 0
M  V30 2702 H 246.874 2.07003 2.08631 0
M  V30 2703 H 244.388 1.21307 1.07974 0
M  V30 2704 H 246.385 0.67029 4.11476 0
M  V30 2705 H 245.045 -0.121797 3.24471 0
M  V30 2706 H 246.056 3.53581 3.78419 0
M  V30 2707 H 242.733 0.97001 4.06075 0
M  V30 2708 H 244.123 4.98744 4.50226 0
M  V30 2709 N 246.843 -1.10192 1.12674 0
M  V30 2710 C 248.09 -1.82205 0.883606 0
M  V30 2711 C 248.418 -1.8532 -0.590492 0
M  V30 2712 O 247.673 -1.31137 -1.45264 0
M  V30 2713 C 247.972 -3.28552 1.4067 0
M  V30 2714 C 247.638 -3.45582 2.89627 0
M  V30 2715 C 246.3 -3.49937 3.30299 0
M  V30 2716 C 248.652 -3.50768 3.85501 0
M  V30 2717 C 245.98 -3.57049 4.65546 0
M  V30 2718 C 248.332 -3.59414 5.20581 0
M  V30 2719 C 246.996 -3.62034 5.60792 0
M  V30 2720 H 246.266 -0.666735 0.323334 0
M  V30 2721 H 248.913 -1.29868 1.40736 0
M  V30 2722 H 247.218 -3.83473 0.80347 0
M  V30 2723 H 248.915 -3.82788 1.19475 0
M  V30 2724 H 245.505 -3.42871 2.57172 0
M  V30 2725 H 249.689 -3.46651 3.55171 0
M  V30 2726 H 244.945 -3.57361 4.96088 0
M  V30 2727 H 249.119 -3.62371 5.94693 0
M  V30 2728 H 246.746 -3.67298 6.6558 0
M  V30 2729 N 248.321 -0.919034 -1.28029 0
M  V30 2730 C 249.254 -0.355887 -2.25408 0
M  V30 2731 C 250.232 0.542874 -1.5327 0
M  V30 2732 O 251.416 0.485338 -1.82145 0
M  V30 2733 C 248.543 0.490759 -3.35126 0
M  V30 2734 C 247.589 -0.343358 -4.25116 0
M  V30 2735 S 248.422 -1.75344 -5.05979 0
M  V30 2736 C 249.578 -0.914244 -6.19187 0
M  V30 2737 H 249.811 -1.18123 -2.72826 0
M  V30 2738 H 247.344 -0.720636 -1.36551 0
M  V30 2739 H 249.302 0.973404 -3.98792 0
M  V30 2740 H 247.963 1.29054 -2.86363 0
M  V30 2741 H 247.156 0.304266 -5.03081 0
M  V30 2742 H 246.758 -0.759851 -3.662 0
M  V30 2743 H 249.05 -0.146282 -6.77342 0
M  V30 2744 H 249.993 -1.66661 -6.88208 0
M  V30 2745 H 250.401 -0.460082 -5.62622 0
M  V30 2746 N 249.799 1.42003 -0.683588 0
M  V30 2747 C 250.731 2.29183 0.0283068 0
M  V30 2748 C 251.744 1.4415 0.756611 0
M  V30 2749 O 252.933 1.67779 0.609306 0
M  V30 2750 C 250.033 3.21765 1.06398 0
M  V30 2751 C 249.206 4.35496 0.407723 0
M  V30 2752 C 248.265 5.08737 1.34437 0
M  V30 2753 O 247.291 5.62948 0.841318 0
M  V30 2754 N 248.493 5.15075 2.67728 0
M  V30 2755 H 251.258 2.9092 -0.720105 0
M  V30 2756 H 248.819 1.53025 -0.528682 0
M  V30 2757 H 250.811 3.6763 1.69204 0
M  V30 2758 H 249.381 2.61418 1.71404 0
M  V30 2759 H 248.601 3.92165 -0.400012 0
M  V30 2760 H 249.889 5.08776 -0.0490956 0
M  V30 2761 H 249.287 4.72457 3.11129 0
M  V30 2762 H 247.844 5.64556 3.2576 0
M  V30 2763 N 251.277 0.427512 1.51691 0
M  V30 2764 C 252.209 -0.424521 2.25234 0
M  V30 2765 C 253.222 -0.994671 1.2888 0
M  V30 2766 O 254.411 -0.890483 1.54702 0
M  V30 2767 C 251.511 -1.60479 2.98496 0
M  V30 2768 C 250.684 -1.15527 4.21868 0
M  V30 2769 C 249.743 -2.20454 4.77793 0
M  V30 2770 O 248.769 -1.8029 5.39893 0
M  V30 2771 N 249.971 -3.52831 4.60967 0
M  V30 2772 H 252.736 0.205749 2.98993 0
M  V30 2773 H 250.297 0.255867 1.59865 0
M  V30 2774 H 252.289 -2.30276 3.32799 0
M  V30 2775 H 250.859 -2.14061 2.27809 0
M  V30 2776 H 250.079 -0.284736 3.9317 0
M  V30 2777 H 251.367 -0.832173 5.01949 0
M  V30 2778 H 250.765 -3.88201 4.11481 0
M  V30 2779 H 249.322 -4.18551 4.99658 0
M  V30 2780 N 252.755 -1.56801 0.158532 0
M  V30 2781 C 253.983 -2.00859 -0.496303 0
M  V30 2782 C 254.398 -1.03871 -1.57659 0
M  V30 2783 O 253.755 -0.0375165 -1.82461 0
M  V30 2784 C 253.806 -3.4479 -1.08638 0
M  V30 2785 O 253.527 -4.38072 -0.0492322 0
M  V30 2786 C 255.028 -4.04185 -1.8207 0
M  V30 2787 H 252.248 -0.65864 -0.128199 0
M  V30 2788 H 254.792 -2.02885 0.256506 0
M  V30 2789 H 252.947 -3.43579 -1.78975 0
M  V30 2790 H 253.361 -5.2227 -0.483102 0
M  V30 2791 H 254.835 -5.06857 -2.18633 0
M  V30 2792 H 255.312 -3.45549 -2.71095 0
M  V30 2793 H 255.918 -4.0906 -1.16405 0
M  V30 2794 N 254.233 0.115231 -1.57178 0
M  V30 2795 C 255.458 0.840354 -1.89612 0
M  V30 2796 C 255.883 1.72464 -0.750845 0
M  V30 2797 O 255.241 1.78826 0.298478 0
M  V30 2798 C 255.289 1.64654 -3.20814 0
M  V30 2799 O 254.393 2.7538 -3.06985 0
M  V30 2800 H 253.734 0.232158 -0.622092 0
M  V30 2801 H 256.264 0.0964977 -2.04372 0
M  V30 2802 H 256.274 2.03499 -3.53627 0
M  V30 2803 H 254.949 0.997416 -4.03763 0
M  V30 2804 H 253.526 2.3971 -2.85646 0
M  V30 2805 N 255.711 1.52812 0.385517 0
M  V30 2806 C 256.957 1.68275 1.13188 0
M  V30 2807 C 257.29 0.423179 1.89533 0
M  V30 2808 O 256.565 -0.579113 1.85679 0
M  V30 2809 C 256.848 2.92001 2.1073 0
M  V30 2810 C 256.701 4.28067 1.38125 0
M  V30 2811 C 258.02 3.11283 3.11113 0
M  V30 2812 H 255.139 0.612352 0.410115 0
M  V30 2813 H 257.781 1.85415 0.414869 0
M  V30 2814 H 255.931 2.77519 2.71874 0
M  V30 2815 H 257.603 4.54324 0.799187 0
M  V30 2816 H 255.846 4.28388 0.683092 0
M  V30 2817 H 256.517 5.10733 2.09417 0
M  V30 2818 H 258.993 3.2482 2.6006 0
M  V30 2819 H 257.869 3.99325 3.76605 0
M  V30 2820 H 258.13 2.25656 3.80173 0
M  V30 2821 N 257.189 -0.644168 1.43834 0
M  V30 2822 C 258.605 -0.960875 1.27434 0
M  V30 2823 C 258.805 -2.00499 0.200618 0
M  V30 2824 O 257.861 -2.49018 -0.417906 0
M  V30 2825 C 259.174 -1.43653 2.64167 0
M  V30 2826 C 260.722 -1.55271 2.71772 0
M  V30 2827 C 261.197 -2.06224 4.08944 0
M  V30 2828 N 262.688 -2.13513 4.11055 0
M  V30 2829 C 263.423 -2.54081 5.14033 0
M  V30 2830 N 262.919 -2.9388 6.27381 0
M  V30 2831 N 264.712 -2.54101 5.01387 0
M  V30 2832 H 256.863 0.0465779 2.12349 0
M  V30 2833 H 259.126 -0.0417638 0.94708 0
M  V30 2834 H 258.832 -0.743706 3.43747 0
M  V30 2835 H 258.706 -2.40993 2.90176 0
M  V30 2836 H 261.093 -2.23653 1.92519 0
M  V30 2837 H 261.174 -0.563395 2.49519 0
M  V30 2838 H 260.818 -1.38441 4.88668 0
M  V30 2839 H 260.748 -3.06003 4.28567 0
M  V30 2840 H 263.239 -1.85493 3.29242 0
M  V30 2841 H 263.552 -3.2361 7.01781 0
M  V30 2842 H 261.897 -2.91663 6.30839 0
M  V30 2843 H 265.088 -2.22391 4.11898 0
M  V30 2844 H 265.261 -2.85394 5.81768 0
M  V30 2845 N 258.668 -1.30515 -0.883378 0
M  V30 2846 C 260.084 -1.08881 -1.16692 0
M  V30 2847 C 260.284 0.149409 -2.00945 0
M  V30 2848 O 259.34 0.84257 -2.38027 0
M  V30 2849 C 260.653 -2.35319 -1.87204 0
M  V30 2850 C 262.201 -2.40799 -1.99962 0
M  V30 2851 C 262.676 -3.67083 -2.73887 0
M  V30 2852 N 264.167 -3.679 -2.81432 0
M  V30 2853 C 264.902 -4.62303 -3.3921 0
M  V30 2854 N 264.398 -5.67052 -3.98025 0
M  V30 2855 N 266.191 -4.49845 -3.3704 0
M  V30 2856 H 258.342 -2.09951 -0.321633 0
M  V30 2857 H 260.605 -0.92556 -0.205043 0
M  V30 2858 H 260.311 -3.25689 -1.3274 0
M  V30 2859 H 260.185 -2.44089 -2.87577 0
M  V30 2860 H 262.572 -1.50907 -2.53597 0
M  V30 2861 H 262.653 -2.36003 -0.98673 0
M  V30 2862 H 262.297 -4.57334 -2.20925 0
M  V30 2863 H 262.227 -3.69141 -3.75556 0
M  V30 2864 H 264.718 -2.92171 -2.39676 0
M  V30 2865 H 265.031 -6.35184 -4.40183 0
M  V30 2866 H 263.376 -5.70842 -3.96439 0
M  V30 2867 H 266.567 -3.67194 -2.90321 0
M  V30 2868 H 266.74 -5.23597 -3.81772 0
M  V30 2869 N 260.146 1.09593 -1.13257 0
M  V30 2870 C 261.056 2.19739 -0.821691 0
M  V30 2871 C 262.072 1.72926 0.19302 0
M  V30 2872 O 263.248 2.01385 0.0244895 0
M  V30 2873 C 260.313 3.45482 -0.290333 0
M  V30 2874 C 259.374 4.06985 -1.36607 0
M  V30 2875 C 258.607 5.26726 -0.859975 0
M  V30 2876 O 258.83 5.69594 0.303082 0
M  V30 2877 O 257.764 5.7931 -1.63351 0
M  V30 2878 H 261.59 2.48781 -1.74189 0
M  V30 2879 H 259.175 1.18496 -0.909894 0
M  V30 2880 H 261.057 4.214 0.000674022 0
M  V30 2881 H 259.732 3.18047 0.602306 0
M  V30 2882 H 258.639 3.32712 -1.71037 0
M  V30 2883 H 259.972 4.38643 -2.23279 0
M  V30 2884 N 261.624 0.925811 1.2754 0
M  V30 2885 C 262.901 0.483726 1.89524 0
M  V30 2886 C 263.281 -1.03809 1.83812 0
M  V30 2887 O 262.629 -1.89143 1.28207 0
M  V30 2888 C 262.839 1.02769 3.33526 0
M  V30 2889 C 264.187 1.08703 4.10449 0
M  V30 2890 O 265.211 0.977175 3.42534 0
M  V30 2891 O 264.07 1.25599 5.31871 0
M  V30 2892 H 261.164 0.15529 0.812289 0
M  V30 2893 H 263.71 1.01738 1.35822 0
M  V30 2894 H 262.482 2.07155 3.31967 0
M  V30 2895 H 262.105 0.475567 3.94746 0
M  V30 2896 N 263.102 -1.41638 0.69111 0
M  V30 2897 C 264.049 -2.30789 0.0229705 0
M  V30 2898 C 265.019 -1.46863 -0.775911 0
M  V30 2899 O 266.204 -1.75661 -0.74485 0
M  V30 2900 C 263.344 -3.32868 -0.910666 0
M  V30 2901 C 262.457 -4.31875 -0.103874 0
M  V30 2902 C 261.592 -5.21024 -1.03475 0
M  V30 2903 C 260.631 -6.11702 -0.220598 0
M  V30 2904 N 259.768 -6.93349 -1.10504 0
M  V30 2905 H 264.608 -2.87366 0.788978 0
M  V30 2906 H 262.145 -1.41535 0.400794 0
M  V30 2907 H 264.103 -3.90596 -1.46597 0
M  V30 2908 H 262.733 -2.77851 -1.64312 0
M  V30 2909 H 261.785 -3.76131 0.568285 0
M  V30 2910 H 263.097 -4.96003 0.527504 0
M  V30 2911 H 262.251 -5.83565 -1.65943 0
M  V30 2912 H 260.99 -4.57112 -1.69999 0
M  V30 2913 H 259.995 -5.48215 0.417187 0
M  V30 2914 H 261.22 -6.77668 0.440784 0
M  V30 2915 H 259.166 -6.3205 -1.75638 0
M  V30 2916 H 259.083 -7.54146 -0.529125 0
M  V30 2917 H 260.351 -7.60362 -1.71667 0
M  V30 2918 N 264.58 -0.43555 -1.51462 0
M  V30 2919 C 265.82 0.130708 -2.03982 0
M  V30 2920 C 266.184 1.40117 -1.31268 0
M  V30 2921 O 267.385 2.04755 -1.74152 0
M  V30 2922 C 265.656 0.346102 -3.5572 0
M  V30 2923 S 267.215 0.876022 -4.29967 0
M  V30 2924 H 264.033 0.0326881 -0.710248 0
M  V30 2925 H 266.635 -0.594544 -1.8624 0
M  V30 2926 H 265.339 -0.584911 -4.0621 0
M  V30 2927 H 264.87 1.09849 -3.77752 0
M  V30 2928 H 266.885 2.15379 -4.47019 0
M  V30 2929 N 266.058 1.56714 -0.166846 0
M  V30 2930 C 266.968 2.21331 0.777791 0
M  V30 2931 C 267.984 1.20358 1.25658 0
M  V30 2932 O 269.16 1.53005 1.30964 0
M  V30 2933 C 266.225 2.83787 1.99163 0
M  V30 2934 C 265.286 3.99947 1.56016 0
M  V30 2935 C 264.519 4.59415 2.71613 0
M  V30 2936 O 264.742 4.17769 3.88362 0
M  V30 2937 O 263.676 5.49359 2.45945 0
M  V30 2938 H 267.502 3.02605 0.257636 0
M  V30 2939 H 265.087 1.49275 0.0611393 0
M  V30 2940 H 266.969 3.23405 2.70161 0
M  V30 2941 H 265.644 2.05513 2.50092 0
M  V30 2942 H 264.551 3.65007 0.819809 0
M  V30 2943 H 265.884 4.79801 1.09782 0
M  V30 2944 N 267.536 -0.106894 1.57237 0
M  V30 2945 C 268.764 -0.826389 1.8968 0
M  V30 2946 C 269.179 -1.72856 0.759353 0
M  V30 2947 O 268.536 -1.80503 -0.269263 0
M  V30 2948 C 268.587 -1.64967 3.21665 0
M  V30 2949 O 268.308 -0.783804 4.31031 0
M  V30 2950 C 269.809 -2.47326 3.67892 0
M  V30 2951 H 267.029 -0.236927 0.627779 0
M  V30 2952 H 269.573 -0.0876593 2.04312 0
M  V30 2953 H 267.728 -2.34103 3.08666 0
M  V30 2954 H 268.142 -1.35284 5.06753 0
M  V30 2955 H 269.616 -3.00604 4.6297 0
M  V30 2956 H 270.093 -3.25247 2.95146 0
M  V30 2957 H 270.699 -1.83411 3.83719 0
M  V30 2958 N 269.014 -1.53014 -0.377408 0
M  V30 2959 C 270.291 -1.59215 -1.13622 0
M  V30 2960 C 270.671 -0.392407 -2.07421 0
M  V30 2961 O 270.019 0.618342 -2.19975 0
M  V30 2962 C 270.229 -2.93669 -1.88573 0
M  V30 2963 C 271.577 -3.47822 -2.43526 0
M  V30 2964 O 272.601 -2.9562 -1.98715 0
M  V30 2965 O 271.46 -4.39055 -3.25412 0
M  V30 2966 H 268.554 -0.642625 -0.52054 0
M  V30 2967 H 271.1 -1.65353 -0.381625 0
M  V30 2968 H 269.872 -3.7243 -1.20048 0
M  V30 2969 H 269.495 -2.90968 -2.70968 0
M  V30 2970 N 270.492 0.636531 -1.44174 0
M  V30 2971 C 271.739 1.39619 -1.46672 0
M  V30 2972 C 272.067 1.94257 -0.0972691 0
M  V30 2973 O 271.322 1.73768 0.900175 0
M  V30 2974 C 271.621 2.58309 -2.47005 0
M  V30 2975 C 271.287 2.21992 -3.92467 0
M  V30 2976 C 269.949 2.118 -4.32081 0
M  V30 2977 C 272.301 1.9321 -4.84065 0
M  V30 2978 C 269.629 1.71007 -5.61225 0
M  V30 2979 C 271.981 1.53911 -6.13591 0
M  V30 2980 C 270.645 1.42257 -6.52165 0
M  V30 2981 H 269.915 0.510902 -0.536712 0
M  V30 2982 H 272.562 0.722328 -1.77355 0
M  V30 2983 H 270.867 3.30903 -2.09786 0
M  V30 2984 H 272.564 3.16533 -2.46186 0
M  V30 2985 H 269.154 2.30841 -3.61124 0
M  V30 2986 H 273.338 1.99997 -4.54219 0
M  V30 2987 H 268.594 1.60583 -5.89935 0
M  V30 2988 H 272.768 1.30677 -6.8403 0
M  V30 2989 H 270.395 1.10419 -7.52138 0
M  V30 2990 N 271.97 1.30982 0.876444 0
M  V30 2991 C 273.2 1.23063 1.65949 0
M  V30 2992 C 273.608 -0.207537 1.88058 0
M  V30 2993 O 272.951 -1.14781 1.43426 0
M  V30 2994 C 273.013 1.89768 3.05333 0
M  V30 2995 C 272.677 3.39106 3.0636 0
M  V30 2996 C 273.674 4.3496 2.84791 0
M  V30 2997 C 271.359 3.80693 3.27686 0
M  V30 2998 C 273.353 5.70375 2.84519 0
M  V30 2999 C 271.04 5.16223 3.27043 0
M  V30 3000 C 272.038 6.10875 3.05485 0
M  V30 3001 O 271.726 7.43928 3.04674 0
M  V30 3002 H 271.458 0.426685 0.524324 0
M  V30 3003 H 274.012 1.7329 1.10271 0
M  V30 3004 H 272.242 1.34082 3.6271 0
M  V30 3005 H 273.931 1.75853 3.65829 0
M  V30 3006 H 274.697 4.0416 2.68103 0
M  V30 3007 H 270.576 3.07457 3.43499 0
M  V30 3008 H 274.12 6.44228 2.67611 0
M  V30 3009 H 270.017 5.4666 3.43269 0
M  V30 3010 H 270.785 7.53022 3.2078 0
M  V30 3011 N 273.449 -1.08991 1.13837 0
M  V30 3012 C 274.726 -1.77863 0.813876 0
M  V30 3013 C 275.106 -1.99375 -0.693746 0
M  V30 3014 O 274.454 -1.59875 -1.63255 0
M  V30 3015 C 274.664 -3.0986 1.60586 0
M  V30 3016 C 276.012 -3.84493 1.8014 0
M  V30 3017 O 277.036 -3.19624 1.57222 0
M  V30 3018 O 275.895 -5.00957 2.18413 0
M  V30 3019 H 272.989 -0.771589 0.297624 0
M  V30 3020 H 275.535 -1.15507 1.24323 0
M  V30 3021 H 274.307 -2.89715 2.63022 0
M  V30 3022 H 273.93 -3.79942 1.17173 0
M  V30 3023 N 274.927 -0.932562 -1.27047 0
M  V30 3024 C 276.173 -0.576412 -1.94436 0
M  V30 3025 C 276.506 0.880891 -1.73072 0
M  V30 3026 O 275.781 1.62905 -1.06264 0
M  V30 3027 C 276.064 -0.909031 -3.48437 0
M  V30 3028 C 275.917 -2.42044 -3.79123 0
M  V30 3029 C 277.236 -0.418341 -4.38107 0
M  V30 3030 H 274.355 -0.210888 -0.706184 0
M  V30 3031 H 276.997 -1.16522 -1.50075 0
M  V30 3032 H 275.147 -0.407947 -3.86352 0
M  V30 3033 H 276.819 -2.99359 -3.50973 0
M  V30 3034 H 275.062 -2.86758 -3.25503 0
M  V30 3035 H 275.733 -2.6037 -4.86736 0
M  V30 3036 H 278.209 -0.847856 -4.0737 0
M  V30 3037 H 277.085 -0.679981 -5.44672 0
M  V30 3038 H 277.346 0.681642 -4.36814 0
M  V30 3039 N 276.405 1.4127 -0.698611 0
M  V30 3040 C 277.633 2.05503 -0.239992 0
M  V30 3041 C 278.048 1.52584 1.11191 0
M  V30 3042 O 277.405 0.675323 1.69545 0
M  V30 3043 C 277.456 3.60987 -0.192429 0
M  V30 3044 O 277.177 4.1195 -1.49094 0
M  V30 3045 C 278.678 4.42371 0.28681 0
M  V30 3046 H 275.898 0.661748 -0.111045 0
M  V30 3047 H 278.442 1.80987 -0.95205 0
M  V30 3048 H 276.597 3.84533 0.470472 0
M  V30 3049 H 277.011 5.06018 -1.38007 0
M  V30 3050 H 278.485 5.51344 0.26896 0
M  V30 3051 H 278.962 4.18699 1.32619 0
M  V30 3052 H 279.568 4.23897 -0.345201 0
M  V30 3053 N 277.883 0.443576 1.51229 0
M  V30 3054 C 279.129 -0.11321 2.03085 0
M  V30 3055 C 279.484 -1.39841 1.32145 0
M  V30 3056 O 278.777 -1.86723 0.429542 0
M  V30 3057 C 278.971 -0.380579 3.55368 0
M  V30 3058 C 278.8 0.877157 4.41062 0
M  V30 3059 C 277.57 1.4125 4.85156 0
M  V30 3060 C 279.768 1.76503 4.83064 0
M  V30 3061 N 277.75 2.62213 5.55083 0
M  V30 3062 C 279.121 2.82067 5.52122 0
M  V30 3063 C 281.176 1.7787 4.65045 0
M  V30 3064 C 279.879 3.88952 6.05069 0
M  V30 3065 C 281.905 2.83694 5.18914 0
M  V30 3066 C 281.267 3.87978 5.87922 0
M  V30 3067 H 277.366 -0.00210178 0.781997 0
M  V30 3068 H 279.95 0.605641 1.85041 0
M  V30 3069 H 278.121 -1.06847 3.73414 0
M  V30 3070 H 279.853 -0.929274 3.93887 0
M  V30 3071 H 276.608 0.965542 4.63653 0
M  V30 3072 H 277.032 3.23568 5.9467 0
M  V30 3073 H 281.674 0.985744 4.11148 0
M  V30 3074 H 279.392 4.69082 6.58018 0
M  V30 3075 H 282.978 2.85702 5.06819 0
M  V30 3076 H 281.858 4.68517 6.28857 0
M  V30 3077 N 279.361 -1.56624 0.175154 0
M  V30 3078 C 280.608 -1.96999 -0.468811 0
M  V30 3079 C 280.936 -1.06129 -1.62994 0
M  V30 3080 O 280.191 -0.0961771 -1.95464 0
M  V30 3081 C 280.49 -3.43419 -0.989864 0
M  V30 3082 C 280.156 -4.50866 0.0557687 0
M  V30 3083 C 278.818 -4.79975 0.343134 0
M  V30 3084 C 281.17 -5.15551 0.765308 0
M  V30 3085 C 278.498 -5.71066 1.34536 0
M  V30 3086 C 280.85 -6.07724 1.75654 0
M  V30 3087 C 279.514 -6.35199 2.05132 0
M  V30 3088 H 278.784 -0.720869 -0.17155 0
M  V30 3089 H 281.431 -1.89616 0.267924 0
M  V30 3090 H 279.736 -3.47772 -1.80449 0
M  V30 3091 H 281.433 -3.72002 -1.49719 0
M  V30 3092 H 278.023 -4.28229 -0.178381 0
M  V30 3093 H 282.207 -4.9317 0.556513 0
M  V30 3094 H 277.463 -5.90635 1.57988 0
M  V30 3095 H 281.637 -6.56912 2.31169 0
M  V30 3096 H 279.264 -7.05584 2.8294 0
M  V30 3097 N 280.839 0.0985539 -1.57292 0
M  V30 3098 C 281.786 1.11981 -2.01814 0
M  V30 3099 C 282.756 1.39999 -0.89384 0
M  V30 3100 O 283.941 1.5152 -1.15958 0
M  V30 3101 C 281.081 2.43577 -2.44467 0
M  V30 3102 C 280.194 2.2232 -3.70402 0
M  V30 3103 C 279.329 3.4729 -4.01949 0
M  V30 3104 C 278.368 3.2128 -5.21005 0
M  V30 3105 N 277.505 4.38507 -5.48321 0
M  V30 3106 H 282.345 0.733149 -2.88841 0
M  V30 3107 H 279.882 0.350482 -1.42864 0
M  V30 3108 H 281.84 3.20373 -2.6724 0
M  V30 3109 H 280.47 2.80097 -1.60455 0
M  V30 3110 H 279.522 1.36343 -3.55126 0
M  V30 3111 H 280.834 1.99089 -4.57345 0
M  V30 3112 H 279.988 4.32495 -4.25479 0
M  V30 3113 H 278.727 3.73572 -3.13521 0
M  V30 3114 H 277.732 2.34468 -4.97298 0
M  V30 3115 H 278.957 2.96348 -6.11028 0
M  V30 3116 H 276.903 4.64871 -4.62851 0
M  V30 3117 H 276.82 4.18455 -6.29628 0
M  V30 3118 H 278.088 5.24787 -5.76385 0
M  V30 3119 N 282.317 1.53212 0.369288 0
M  V30 3120 C 283.563 1.69466 1.11397 0
M  V30 3121 C 283.896 0.443257 1.89074 0
M  V30 3122 O 283.171 -0.559386 1.86282 0
M  V30 3123 C 283.454 2.9422 2.07621 0
M  V30 3124 C 283.307 4.29508 1.33577 0
M  V30 3125 C 284.626 3.14565 3.07794 0
M  V30 3126 H 281.745 0.616667 0.403597 0
M  V30 3127 H 284.387 1.85845 0.395179 0
M  V30 3128 H 282.537 2.80387 2.68916 0
M  V30 3129 H 284.209 4.55147 0.750955 0
M  V30 3130 H 282.452 4.29088 0.637618 0
M  V30 3131 H 283.123 5.12926 2.03989 0
M  V30 3132 H 285.599 3.2756 2.56601 0
M  V30 3133 H 284.475 4.03297 3.72348 0
M  V30 3134 H 284.736 2.29675 3.77759 0
M  V30 3135 N 283.795 -0.628877 1.44509 0
M  V30 3136 C 284.728 -1.75367 1.46019 0
M  V30 3137 C 285.706 -1.59444 0.318787 0
M  V30 3138 O 286.89 -1.81297 0.516099 0
M  V30 3139 C 284.017 -3.12965 1.29501 0
M  V30 3140 C 283.063 -3.47532 2.47233 0
M  V30 3141 S 283.896 -3.44758 4.09758 0
M  V30 3142 C 285.052 -4.84973 3.95667 0
M  V30 3143 H 285.285 -1.7382 2.41193 0
M  V30 3144 H 282.818 -0.803686 1.31834 0
M  V30 3145 H 284.776 -3.92367 1.20658 0
M  V30 3146 H 283.437 -3.12049 0.358341 0
M  V30 3147 H 282.63 -4.47664 2.31544 0
M  V30 3148 H 282.232 -2.75598 2.52828 0
M  V30 3149 H 284.524 -5.74255 3.59496 0
M  V30 3150 H 285.467 -5.05716 4.95638 0
M  V30 3151 H 285.875 -4.59653 3.27688 0
M  V30 3152 N 285.273 -1.31445 -0.869486 0
M  V30 3153 C 286.501 -1.24122 -1.65534 0
M  V30 3154 C 286.916 0.193387 -1.87807 0
M  V30 3155 O 286.273 1.12557 -1.43656 0
M  V30 3156 C 286.324 -1.98229 -3.02304 0
M  V30 3157 O 286.045 -3.3609 -2.81026 0
M  V30 3158 C 287.546 -1.97751 -3.96749 0
M  V30 3159 H 284.766 -0.428868 -0.516055 0
M  V30 3160 H 287.31 -1.73328 -1.08525 0
M  V30 3161 H 285.465 -1.52782 -3.56001 0
M  V30 3162 H 285.879 -3.7383 -3.67902 0
M  V30 3163 H 287.353 -2.54114 -4.90031 0
M  V30 3164 H 287.83 -0.960137 -4.28577 0
M  V30 3165 H 288.436 -2.43079 -3.48988 0
M  V30 3166 N 286.751 1.08385 -1.14413 0
M  V30 3167 C 287.714 2.13486 -0.834048 0
M  V30 3168 C 288.714 1.59988 0.161418 0
M  V30 3169 O 289.904 1.74071 -0.0669575 0
M  V30 3170 C 287.036 3.4003 -0.243354 0
M  V30 3171 H 288.229 2.42425 -1.7655 0
M  V30 3172 H 285.782 1.24101 -0.950189 0
M  V30 3173 H 286.517 3.16726 0.696807 0
M  V30 3174 H 286.302 3.80157 -0.960367 0
M  V30 3175 H 287.792 4.17577 -0.0436242 0
M  V30 3176 N 288.23 0.939286 1.26551 0
M  V30 3177 C 289.479 0.581601 1.93133 0
M  V30 3178 C 289.792 -0.883224 1.74524 0
M  V30 3179 O 290.998 -1.3502 2.35546 0
M  V30 3180 C 289.454 0.989425 3.46032 0
M  V30 3181 C 289.062 2.47573 3.73379 0
M  V30 3182 C 290.806 0.703544 4.18629 0
M  V30 3183 C 288.713 2.82235 5.19709 0
M  V30 3184 H 287.643 0.213803 0.723052 0
M  V30 3185 H 290.294 1.14167 1.4366 0
M  V30 3186 H 288.676 0.357902 3.94379 0
M  V30 3187 H 289.85 3.15614 3.35744 0
M  V30 3188 H 288.165 2.73471 3.1401 0
M  V30 3189 H 290.762 0.938869 5.26393 0
M  V30 3190 H 291.105 -0.359639 4.14744 0
M  V30 3191 H 291.638 1.2947 3.76141 0
M  V30 3192 H 288.377 3.87509 5.28694 0
M  V30 3193 H 287.897 2.18854 5.58447 0
M  V30 3194 H 289.576 2.70599 5.87695 0
M  V30 3195 N 289.708 -1.40897 0.706093 0
M  V30 3196 C 290.957 -2.00284 0.238574 0
M  V30 3197 C 291.27 -1.56604 -1.17194 0
M  V30 3198 O 292.476 -2.08624 -1.73748 0
M  V30 3199 C 290.932 -3.57934 0.375623 0
M  V30 3200 C 290.54 -4.10591 1.79217 0
M  V30 3201 C 292.284 -4.24488 -0.0315857 0
M  V30 3202 C 290.191 -5.60712 1.88032 0
M  V30 3203 H 289.121 -0.749144 0.0854398 0
M  V30 3204 H 291.772 -1.61251 0.875813 0
M  V30 3205 H 290.154 -3.94622 -0.330042 0
M  V30 3206 H 291.328 -3.85301 2.52745 0
M  V30 3207 H 289.643 -3.56601 2.15 0
M  V30 3208 H 292.24 -5.34698 0.0136842 0
M  V30 3209 H 292.583 -4.02261 -1.072 0
M  V30 3210 H 293.116 -3.92873 0.624181 0
M  V30 3211 H 289.855 -5.87781 2.90161 0
M  V30 3212 H 289.375 -5.87896 1.18903 0
M  V30 3213 H 291.054 -6.25658 1.64805 0
M  V30 3214 N 291.186 -0.45159 -1.50991 0
M  V30 3215 C 292.134 0.366864 -2.29689 0
M  V30 3216 C 293.128 1.00809 -1.36139 0
M  V30 3217 O 294.334 0.941427 -1.53418 0
M  V30 3218 H 290.709 0.137133 -0.739391 0
M  V30 3219 H 292.68 -0.317538 -2.96706 0
M  V30 3220 C 291.429 1.44751 -3.16137 0
M  V30 3221 H 290.752 0.963473 -3.88017 0
M  V30 3222 H 292.192 1.99315 -3.74232 0
M  V30 3223 C 290.651 2.43869 -2.32442 0
M  V30 3224 O 291.181 3.4872 -1.99392 0
M  V30 3225 N 289.387 2.15105 -1.95392 0
M  V30 3226 H 288.934 1.29866 -2.22469 0
M  V30 3227 H 288.892 2.81661 -1.39693 0
M  V30 3228 N 292.664 1.56529 -0.183458 0
M  V30 3229 C 293.911 1.97244 0.458357 0
M  V30 3230 C 294.239 1.06992 1.62428 0
M  V30 3231 O 293.494 0.106542 1.9541 0
M  V30 3232 C 293.793 3.43939 0.971637 0
M  V30 3233 C 293.459 4.5083 -0.0796784 0
M  V30 3234 C 292.121 4.79786 -0.368584 0
M  V30 3235 C 294.473 5.15138 -0.792638 0
M  V30 3236 C 291.801 5.70345 -1.37563 0
M  V30 3237 C 294.153 6.06784 -1.78875 0
M  V30 3238 C 292.817 6.34102 -2.08497 0
M  V30 3239 H 292.087 0.721768 0.167725 0
M  V30 3240 H 294.734 1.89472 -0.277976 0
M  V30 3241 H 293.039 3.48724 1.78602 0
M  V30 3242 H 294.736 3.72791 1.47744 0
M  V30 3243 H 291.326 4.28317 0.155668 0
M  V30 3244 H 295.51 4.92868 -0.582659 0
M  V30 3245 H 290.766 5.89789 -1.61118 0
M  V30 3246 H 294.94 6.55677 -2.3465 0
M  V30 3247 H 292.567 7.04074 -2.86678 0
M  V30 3248 N 294.142 -0.090211 1.57342 0
M  V30 3249 C 295.372 -0.805055 1.90269 0
M  V30 3250 C 295.78 -1.72561 0.775842 0
M  V30 3251 O 295.123 -1.81839 -0.260843 0
M  V30 3252 C 295.185 -1.66734 3.18497 0
M  V30 3253 C 294.849 -0.918092 4.47683 0
M  V30 3254 C 295.846 -0.245674 5.19319 0
M  V30 3255 C 293.531 -0.890724 4.94339 0
M  V30 3256 C 295.525 0.444088 6.35851 0
M  V30 3257 C 293.212 -0.197179 6.10782 0
M  V30 3258 C 294.21 0.469044 6.81388 0
M  V30 3259 O 293.898 1.15146 7.95611 0
M  V30 3260 H 293.63 -0.235143 0.633785 0
M  V30 3261 H 296.184 -0.0703805 2.05279 0
M  V30 3262 H 294.414 -2.44437 2.99646 0
M  V30 3263 H 296.103 -2.25919 3.37217 0
M  V30 3264 H 296.869 -0.258246 4.84312 0
M  V30 3265 H 292.748 -1.39873 4.39268 0
M  V30 3266 H 296.292 0.964667 6.90898 0
M  V30 3267 H 292.189 -0.18247 6.45242 0
M  V30 3268 H 292.957 1.05885 8.11622 0
M  V30 3269 N 295.62 -1.53406 -0.361157 0
M  V30 3270 C 296.55 -1.83136 -1.44857 0
M  V30 3271 C 297.531 -0.685174 -1.5569 0
M  V30 3272 O 298.716 -0.93544 -1.70186 0
M  V30 3273 C 295.846 -2.02522 -2.82138 0
M  V30 3274 C 294.8 -3.18302 -2.86126 0
M  V30 3275 C 294.126 -3.22989 -4.26125 0
M  V30 3276 C 295.426 -4.56796 -2.53248 0
M  V30 3277 H 297.12 -2.74201 -1.20226 0
M  V30 3278 H 294.666 -1.31938 -0.576922 0
M  V30 3279 H 296.619 -2.21904 -3.58241 0
M  V30 3280 H 295.343 -1.08172 -3.08166 0
M  V30 3281 H 294.002 -2.98747 -2.12475 0
M  V30 3282 H 293.65 -2.26267 -4.49235 0
M  V30 3283 H 293.35 -4.00781 -4.29708 0
M  V30 3284 H 294.874 -3.44559 -5.04094 0
M  V30 3285 H 296.288 -4.7631 -3.19064 0
M  V30 3286 H 294.685 -5.36862 -2.68141 0
M  V30 3287 H 295.755 -4.61606 -1.48484 0
M  V30 3288 N 297.098 0.621204 -1.44841 0
M  V30 3289 C 298.509 1.20298 -1.42777 0
M  V30 3290 C 298.86 1.95639 -0.148259 0
M  V30 3291 O 297.985 2.02955 0.750892 0
M  V30 3292 C 298.58 2.1882 -2.58657 0
M  V30 3293 C 297.139 2.72403 -2.59756 0
M  V30 3294 C 296.286 1.4757 -2.34773 0
M  V30 3295 H 299.237 0.411297 -1.53278 0
M  V30 3296 H 299.258 3.01607 -2.31977 0
M  V30 3297 H 298.77 1.63957 -3.51766 0
M  V30 3298 H 296.871 3.31242 -1.70615 0
M  V30 3299 H 296.984 3.17765 -3.58556 0
M  V30 3300 H 295.348 1.76051 -1.8406 0
M  V30 3301 H 296.131 0.945954 -3.3001 0
M  V30 3302 N 298.576 1.31904 0.862503 0
M  V30 3303 C 299.804 1.24998 1.64873 0
M  V30 3304 C 300.219 -0.183425 1.87907 0
M  V30 3305 O 299.576 -1.11794 1.44251 0
M  V30 3306 C 299.627 1.99829 3.01248 0
M  V30 3307 O 299.348 3.37575 2.79239 0
M  V30 3308 C 300.849 1.99852 3.95694 0
M  V30 3309 H 298.069 0.431599 0.513773 0
M  V30 3310 H 300.613 1.73901 1.07604 0
M  V30 3311 H 298.768 1.54668 3.55185 0
M  V30 3312 H 299.182 3.75776 3.65914 0
M  V30 3313 H 300.656 2.56709 4.88676 0
M  V30 3314 H 301.133 0.982852 4.28062 0
M  V30 3315 H 301.739 2.44926 3.47694 0
M  V30 3316 N 300.054 -1.07777 1.14986 0
M  V30 3317 C 300.984 -2.16865 0.865557 0
M  V30 3318 C 301.965 -1.69123 -0.182083 0
M  V30 3319 O 303.15 -1.94164 -0.0373815 0
M  V30 3320 C 300.28 -3.45539 0.349313 0
M  V30 3321 C 299.234 -4.06708 1.33313 0
M  V30 3322 C 298.56 -5.30411 0.675918 0
M  V30 3323 C 299.86 -4.47241 2.69764 0
M  V30 3324 H 301.554 -2.40905 1.77778 0
M  V30 3325 H 299.1 -1.15781 0.856203 0
M  V30 3326 H 301.053 -4.21174 0.137983 0
M  V30 3327 H 299.777 -3.21072 -0.598362 0
M  V30 3328 H 298.436 -3.33112 1.53075 0
M  V30 3329 H 298.084 -5.02232 -0.277767 0
M  V30 3330 H 297.784 -5.72293 1.33244 0
M  V30 3331 H 299.308 -6.08755 0.474262 0
M  V30 3332 H 300.722 -5.14025 2.53873 0
M  V30 3333 H 299.119 -5.00062 3.3175 0
M  V30 3334 H 300.189 -3.58818 3.26156 0
M  V30 3335 N 301.532 -0.945985 -1.26051 0
M  V30 3336 C 302.462 -0.477172 -2.28572 0
M  V30 3337 C 303.443 0.472032 -1.63419 0
M  V30 3338 O 304.628 0.372853 -1.90587 0
M  V30 3339 C 301.758 0.253975 -3.4637 0
M  V30 3340 C 300.712 -0.609135 -4.23643 0
M  V30 3341 C 300.038 0.252252 -5.34105 0
M  V30 3342 C 301.338 -1.8829 -4.8718 0
M  V30 3343 H 303.032 -1.33402 -2.68038 0
M  V30 3344 H 300.578 -0.642904 -1.28852 0
M  V30 3345 H 302.531 0.593016 -4.17207 0
M  V30 3346 H 301.255 1.145 -3.05871 0
M  V30 3347 H 299.914 -0.931138 -3.54578 0
M  V30 3348 H 299.562 1.14278 -4.89846 0
M  V30 3349 H 299.262 -0.32188 -5.86718 0
M  V30 3350 H 300.786 0.586454 -6.07777 0
M  V30 3351 H 302.2 -1.61081 -5.50205 0
M  V30 3352 H 300.597 -2.40199 -5.49931 0
M  V30 3353 H 301.667 -2.59134 -4.09851 0
M  V30 3354 N 303.011 1.40521 -0.713556 0
M  V30 3355 C 303.944 2.28198 -0.00881422 0
M  V30 3356 C 304.922 1.43227 0.769735 0
M  V30 3357 O 306.106 1.72641 0.756799 0
M  V30 3358 C 303.233 3.23758 0.994899 0
M  V30 3359 C 302.279 4.25391 0.3074 0
M  V30 3360 S 303.112 5.26765 -0.963247 0
M  V30 3361 C 304.268 6.25888 0.0384143 0
M  V30 3362 H 304.501 2.87622 -0.752407 0
M  V30 3363 H 302.034 1.45925 -0.504502 0
M  V30 3364 H 303.992 3.79341 1.56879 0
M  V30 3365 H 302.653 2.63396 1.71118 0
M  V30 3366 H 301.846 4.92596 1.0661 0
M  V30 3367 H 301.448 3.73497 -0.193879 0
M  V30 3368 H 303.74 6.71683 0.885912 0
M  V30 3369 H 304.683 7.05552 -0.60019 0
M  V30 3370 H 305.091 5.63072 0.401233 0
M  V30 3371 N 304.489 0.459591 1.5075 0
M  V30 3372 C 305.419 -0.330644 2.31147 0
M  V30 3373 C 306.4 -1.00087 1.37538 0
M  V30 3374 O 307.585 -1.00025 1.66459 0
M  V30 3375 C 304.715 -1.41958 3.16962 0
M  V30 3376 C 303.669 -0.871608 4.19031 0
M  V30 3377 C 302.995 -2.05797 4.9351 0
M  V30 3378 C 304.295 0.109251 5.22186 0
M  V30 3379 H 305.989 0.340336 2.97459 0
M  V30 3380 H 303.535 0.165119 1.4305 0
M  V30 3381 H 305.488 -1.9798 3.71997 0
M  V30 3382 H 304.212 -2.11917 2.48513 0
M  V30 3383 H 302.871 -0.333442 3.6508 0
M  V30 3384 H 302.519 -2.74427 4.21544 0
M  V30 3385 H 302.219 -1.6976 5.62544 0
M  V30 3386 H 303.743 -2.62331 5.51375 0
M  V30 3387 H 305.157 -0.361405 5.7216 0
M  V30 3388 H 303.554 0.383316 5.98875 0
M  V30 3389 H 304.624 1.03887 4.73641 0
M  V30 3390 N 305.967 -1.56429 0.191757 0
M  V30 3391 C 307.213 -1.98541 -0.441943 0
M  V30 3392 C 307.568 -1.07646 -1.59468 0
M  V30 3393 O 306.861 -0.120191 -1.91223 0
M  V30 3394 C 307.055 -3.44449 -0.953384 0
M  V30 3395 C 306.884 -4.49456 0.148262 0
M  V30 3396 C 305.654 -5.01668 0.604781 0
M  V30 3397 C 307.852 -5.05336 0.95602 0
M  V30 3398 N 305.834 -5.90334 1.6846 0
M  V30 3399 C 307.205 -5.9064 1.88531 0
M  V30 3400 C 309.26 -4.87779 0.998811 0
M  V30 3401 C 307.963 -6.60264 2.85383 0
M  V30 3402 C 309.989 -5.58139 1.95537 0
M  V30 3403 C 309.351 -6.43187 2.8721 0
M  V30 3404 H 305.45 -0.771247 -0.129236 0
M  V30 3405 H 308.034 -1.92426 0.296682 0
M  V30 3406 H 306.205 -3.5107 -1.66146 0
M  V30 3407 H 307.937 -3.73533 -1.55741 0
M  V30 3408 H 304.692 -4.73183 0.198736 0
M  V30 3409 H 305.116 -6.39371 2.22561 0
M  V30 3410 H 309.758 -4.21705 0.304048 0
M  V30 3411 H 307.476 -7.25538 3.55837 0
M  V30 3412 H 311.062 -5.46532 1.99484 0
M  V30 3413 H 309.942 -6.96674 3.60022 0
M  V30 3414 N 307.445 0.0818655 -1.57387 0
M  V30 3415 C 308.692 0.782914 -1.86753 0
M  V30 3416 C 309.02 1.78082 -0.782118 0
M  V30 3417 O 308.275 1.94426 0.22295 0
M  V30 3418 C 308.574 1.53513 -3.22752 0
M  V30 3419 C 308.24 0.678134 -4.45771 0
M  V30 3420 C 306.902 0.441929 -4.79166 0
M  V30 3421 C 309.254 0.0832243 -5.21134 0
M  V30 3422 C 306.582 -0.398833 -5.85343 0
M  V30 3423 C 308.934 -0.744935 -6.28199 0
M  V30 3424 C 307.598 -0.991107 -6.60101 0
M  V30 3425 H 306.868 0.286489 -0.683378 0
M  V30 3426 H 309.515 0.0439808 -1.91449 0
M  V30 3427 H 307.82 2.34599 -3.138 0
M  V30 3428 H 309.517 2.08218 -3.42705 0
M  V30 3429 H 306.107 0.872357 -4.19628 0
M  V30 3430 H 310.291 0.252847 -4.95655 0
M  V30 3431 H 305.547 -0.598405 -6.08465 0
M  V30 3432 H 309.721 -1.21271 -6.8576 0
M  V30 3433 H 307.348 -1.64437 -7.42202 0
M  V30 3434 N 308.923 1.53595 0.353017 0
M  V30 3435 C 310.153 1.74058 1.11299 0
M  V30 3436 C 310.561 0.475205 1.83135 0
M  V30 3437 O 309.904 -0.562344 1.74881 0
M  V30 3438 C 309.966 2.85994 2.17825 0
M  V30 3439 C 309.63 4.25923 1.65647 0
M  V30 3440 C 310.627 5.07829 1.11383 0
M  V30 3441 C 308.312 4.72377 1.7078 0
M  V30 3442 C 310.306 6.34285 0.629439 0
M  V30 3443 C 307.993 5.98808 1.21953 0
M  V30 3444 C 308.991 6.79594 0.681265 0
M  V30 3445 O 308.679 8.03651 0.200248 0
M  V30 3446 H 308.411 0.585327 0.338183 0
M  V30 3447 H 310.965 2.01186 0.413927 0
M  V30 3448 H 309.195 2.54368 2.91262 0
M  V30 3449 H 310.884 2.94515 2.79313 0
M  V30 3450 H 311.65 4.73107 1.06746 0
M  V30 3451 H 307.529 4.0956 2.11617 0
M  V30 3452 H 311.073 6.97288 0.208636 0
M  V30 3453 H 306.97 6.33026 1.26287 0
M  V30 3454 H 307.738 8.1788 0.318416 0
M  V30 3455 N 310.401 -0.613514 1.45168 0
M  V30 3456 C 311.364 -1.7065 1.53007 0
M  V30 3457 C 312.364 -1.5548 0.410184 0
M  V30 3458 O 313.554 -1.60656 0.673455 0
M  V30 3459 C 310.686 -3.09875 1.42093 0
M  V30 3460 H 311.879 -1.65068 2.50385 0
M  V30 3461 H 309.432 -0.828728 1.32521 0
M  V30 3462 H 310.167 -3.21039 0.458769 0
M  V30 3463 H 309.952 -3.22293 2.23315 0
M  V30 3464 H 311.442 -3.895 1.50598 0
M  V30 3465 N 311.879 -1.3236 -0.855495 0
M  V30 3466 C 312.826 -1.21225 -1.964 0
M  V30 3467 C 313.796 -0.0946204 -1.6583 0
M  V30 3468 O 314.981 -0.27002 -1.8888 0
M  V30 3469 C 312.121 -0.940419 -3.32039 0
M  V30 3470 C 311.234 -2.14276 -3.75113 0
M  V30 3471 C 310.369 -1.80648 -4.9954 0
M  V30 3472 C 309.408 -2.97208 -5.35102 0
M  V30 3473 N 308.545 -2.63678 -6.50706 0
M  V30 3474 H 313.385 -2.16042 -2.05255 0
M  V30 3475 H 310.922 -1.07451 -1.00463 0
M  V30 3476 H 312.88 -0.763311 -4.10158 0
M  V30 3477 H 311.51 -0.0290413 -3.22787 0
M  V30 3478 H 310.562 -2.43017 -2.92655 0
M  V30 3479 H 311.874 -3.01468 -3.97389 0
M  V30 3480 H 311.028 -1.59484 -5.85363 0
M  V30 3481 H 309.767 -0.906678 -4.79198 0
M  V30 3482 H 308.772 -3.19004 -4.47791 0
M  V30 3483 H 309.997 -3.87918 -5.57401 0
M  V30 3484 H 307.943 -1.76238 -6.31883 0
M  V30 3485 H 307.86 -3.444 -6.72997 0
M  V30 3486 H 309.128 -2.45942 -7.39684 0
M  V30 3487 N 313.357 1.07166 -1.15556 0
M  V30 3488 C 314.606 1.79181 -0.926132 0
M  V30 3489 C 314.919 1.87768 0.547967 0
M  V30 3490 O 316.125 2.56323 0.895036 0
M  V30 3491 C 314.581 3.22 -1.60761 0
M  V30 3492 C 314.189 3.21607 -3.11886 0
M  V30 3493 C 315.933 3.9861 -1.4598 0
M  V30 3494 C 313.84 4.59092 -3.72812 0
M  V30 3495 H 312.77 0.67154 -0.342856 0
M  V30 3496 H 315.421 1.2027 -1.3859 0
M  V30 3497 H 313.803 3.81115 -1.07553 0
M  V30 3498 H 314.977 2.72127 -3.71865 0
M  V30 3499 H 313.292 2.58495 -3.2645 0
M  V30 3500 H 315.889 5.00225 -1.88888 0
M  V30 3501 H 316.232 4.143 -0.407541 0
M  V30 3502 H 316.765 3.45996 -1.96295 0
M  V30 3503 H 313.504 4.48606 -4.77946 0
M  V30 3504 H 313.024 5.08803 -3.17616 0
M  V30 3505 H 314.703 5.28059 -3.73848 0
M  V30 3506 N 314.835 0.952656 1.25548 0
M  V30 3507 C 316.065 0.622592 1.96996 0
M  V30 3508 C 316.473 -0.809112 1.71026 0
M  V30 3509 O 315.816 -1.55258 0.981861 0
M  V30 3510 C 315.878 0.798946 3.5051 0
M  V30 3511 C 315.542 2.20744 4.00151 0
M  V30 3512 C 316.539 3.18394 4.11001 0
M  V30 3513 C 314.224 2.5311 4.33867 0
M  V30 3514 C 316.218 4.46504 4.54877 0
M  V30 3515 C 313.905 3.8145 4.7743 0
M  V30 3516 C 314.903 4.77959 4.87897 0
M  V30 3517 O 314.591 6.04012 5.30494 0
M  V30 3518 H 314.323 0.232503 0.634758 0
M  V30 3519 H 316.877 1.2789 1.60728 0
M  V30 3520 H 315.107 0.0854903 3.86605 0
M  V30 3521 H 316.796 0.47023 4.03167 0
M  V30 3522 H 317.562 2.94715 3.85186 0
M  V30 3523 H 313.441 1.78719 4.24948 0
M  V30 3524 H 316.985 5.21835 4.62962 0
M  V30 3525 H 312.882 4.04936 5.0269 0
M  V30 3526 H 313.65 6.0736 5.48685 0
M  V30 3527 N 316.313 -1.40141 0.720998 0
M  V30 3528 C 317.26 -2.30688 0.071919 0
M  V30 3529 C 318.23 -1.48476 -0.744584 0
M  V30 3530 O 319.415 -1.77201 -0.707423 0
M  V30 3531 C 316.555 -3.34724 -0.839855 0
M  V30 3532 C 315.668 -4.31998 -0.0122438 0
M  V30 3533 C 314.803 -5.23102 -0.923995 0
M  V30 3534 C 313.842 -6.12033 -0.0907969 0
M  V30 3535 N 312.979 -6.95537 -0.957718 0
M  V30 3536 H 317.819 -2.85628 0.849755 0
M  V30 3537 H 315.356 -1.40653 0.430726 0
M  V30 3538 H 317.314 -3.93618 -1.38279 0
M  V30 3539 H 315.944 -2.81274 -1.58381 0
M  V30 3540 H 314.996 -3.74841 0.64794 0
M  V30 3541 H 316.308 -4.94772 0.632595 0
M  V30 3542 H 315.462 -5.86953 -1.53527 0
M  V30 3543 H 314.201 -4.60615 -1.60264 0
M  V30 3544 H 313.206 -5.47207 0.533377 0
M  V30 3545 H 314.431 -6.76581 0.584428 0
M  V30 3546 H 312.377 -6.35633 -1.62192 0
M  V30 3547 H 312.294 -7.55099 -0.36904 0
M  V30 3548 H 313.562 -7.63832 -1.555 0
M  V30 3549 N 317.792 -0.46758 -1.50504 0
M  V30 3550 C 318.755 0.317059 -2.26996 0
M  V30 3551 C 319.755 0.923513 -1.31635 0
M  V30 3552 O 320.945 0.793239 -1.55091 0
M  V30 3553 C 318.077 1.45134 -3.08462 0
M  V30 3554 H 319.27 -0.353723 -2.97807 0
M  V30 3555 H 316.823 -0.221545 -1.54722 0
M  V30 3556 H 317.558 2.15728 -2.4214 0
M  V30 3557 H 317.343 1.02232 -3.78538 0
M  V30 3558 H 318.833 2.00493 -3.66323 0
M  V30 3559 N 319.27 1.56325 -0.20005 0
M  V30 3560 C 320.516 1.98012 0.438059 0
M  V30 3561 C 320.849 1.08702 1.60927 0
M  V30 3562 O 320.124 0.140064 1.93995 0
M  V30 3563 C 320.407 3.48841 0.893419 0
M  V30 3564 C 320.26 4.48928 -0.279947 0
M  V30 3565 C 321.579 4.03498 1.75719 0
M  V30 3566 H 318.698 0.719918 0.157757 0
M  V30 3567 H 321.34 1.87743 -0.291968 0
M  V30 3568 H 319.49 3.57723 1.51547 0
M  V30 3569 H 321.162 4.52079 -0.91772 0
M  V30 3570 H 319.405 4.23694 -0.930919 0
M  V30 3571 H 320.076 5.5194 0.0812601 0
M  V30 3572 H 322.552 3.97427 1.23253 0
M  V30 3573 H 321.428 5.09393 2.04476 0
M  V30 3574 H 321.689 3.4906 2.71311 0
M  V30 3575 N 320.748 -0.0735177 1.57428 0
M  V30 3576 C 322.164 -0.428264 1.53747 0
M  V30 3577 C 322.364 -1.79272 0.91998 0
M  V30 3578 O 321.42 -2.47051 0.521745 0
M  V30 3579 C 322.733 -0.370914 2.98404 0
M  V30 3580 C 324.281 -0.451224 3.0973 0
M  V30 3581 C 324.756 -0.4238 4.56035 0
M  V30 3582 N 326.247 -0.483925 4.60665 0
M  V30 3583 C 326.982 -0.484891 5.71346 0
M  V30 3584 N 326.478 -0.440775 6.91396 0
M  V30 3585 N 328.271 -0.531319 5.59583 0
M  V30 3586 H 320.422 0.819949 1.95935 0
M  V30 3587 H 322.685 0.307493 0.896745 0
M  V30 3588 H 322.391 0.564956 3.47133 0
M  V30 3589 H 322.265 -1.18176 3.5821 0
M  V30 3590 H 324.652 -1.37752 2.60976 0
M  V30 3591 H 324.733 0.388167 2.52838 0
M  V30 3592 H 324.377 0.498638 5.05446 0
M  V30 3593 H 324.307 -1.2807 5.10789 0
M  V30 3594 H 326.798 -0.522338 3.74273 0
M  V30 3595 H 327.111 -0.44539 7.71515 0
M  V30 3596 H 325.456 -0.40749 6.93804 0
M  V30 3597 H 328.647 -0.563464 4.64696 0
M  V30 3598 H 328.82 -0.528603 6.4584 0
M  V30 3599 N 322.226 -1.5378 -0.344866 0
M  V30 3600 C 323.158 -1.77988 -1.44406 0
M  V30 3601 C 324.171 -0.661138 -1.48771 0
M  V30 3602 O 325.36 -0.937842 -1.51877 0
M  V30 3603 C 322.46 -1.86345 -2.8307 0
M  V30 3604 C 321.633 -3.16256 -3.0216 0
M  V30 3605 C 320.692 -3.15588 -4.21059 0
M  V30 3606 O 319.718 -3.89314 -4.15239 0
M  V30 3607 N 320.92 -2.37864 -5.29529 0
M  V30 3608 H 323.685 -2.72839 -1.24012 0
M  V30 3609 H 321.246 -1.52814 -0.534737 0
M  V30 3610 H 323.238 -1.83351 -3.60783 0
M  V30 3611 H 321.808 -0.986858 -2.96614 0
M  V30 3612 H 321.028 -3.32385 -2.11929 0
M  V30 3613 H 322.316 -4.0207 -3.11797 0
M  V30 3614 H 321.714 -1.77514 -5.37127 0
M  V30 3615 H 320.271 -2.40668 -6.05741 0
M  V30 3616 N 323.704 0.605807 -1.45491 0
M  V30 3617 C 324.654 1.71074 -1.50724 0
M  V30 3618 C 325.638 1.5658 -0.37033 0
M  V30 3619 O 326.83 1.65887 -0.617299 0
M  V30 3620 C 323.959 3.0983 -1.47852 0
M  V30 3621 C 323.045 3.29704 -2.66751 0
M  V30 3622 N 323.436 3.19831 -3.91844 0
M  V30 3623 C 321.734 3.60579 -2.62486 0
M  V30 3624 C 322.435 3.41083 -4.71208 0
M  V30 3625 N 321.411 3.65157 -4.02693 0
M  V30 3626 H 325.213 1.61937 -2.45263 0
M  V30 3627 H 322.727 0.80912 -1.40808 0
M  V30 3628 H 324.724 3.89101 -1.49686 0
M  V30 3629 H 323.384 3.20115 -0.543714 0
M  V30 3630 H 324.395 2.98194 -4.23439 0
M  V30 3631 H 321.072 3.7769 -1.77922 0
M  V30 3632 H 322.462 3.38828 -5.80211 0
M  V30 3633 N 325.182 1.32811 0.848464 0
M  V30 3634 C 326.422 1.25046 1.61687 0
M  V30 3635 C 326.786 -0.183464 1.91121 0
M  V30 3636 O 327.987 -0.384937 2.66029 0
M  V30 3637 C 326.258 2.09201 2.89775 0
M  V30 3638 S 327.817 2.18526 3.80515 0
M  V30 3639 H 324.635 0.445023 0.554505 0
M  V30 3640 H 327.237 1.67733 1.00429 0
M  V30 3641 H 325.941 3.12433 2.66108 0
M  V30 3642 H 325.472 1.67315 3.56047 0
M  V30 3643 H 327.487 1.3393 4.77784 0
M  V30 3644 N 326.66 -1.06551 1.16123 0
M  V30 3645 C 327.592 -2.13908 0.823171 0
M  V30 3646 C 328.605 -1.61926 -0.16843 0
M  V30 3647 O 329.794 -1.78412 0.055962 0
M  V30 3648 C 326.894 -3.38283 0.204424 0
M  V30 3649 C 326.067 -4.19589 1.23548 0
M  V30 3650 C 325.126 -5.2233 0.637011 0
M  V30 3651 O 324.152 -5.54034 1.30516 0
M  V30 3652 N 325.354 -5.77621 -0.577474 0
M  V30 3653 H 328.119 -2.43508 1.74711 0
M  V30 3654 H 325.68 -1.2253 1.05821 0
M  V30 3655 H 327.672 -4.0416 -0.208909 0
M  V30 3656 H 326.242 -3.06329 -0.623012 0
M  V30 3657 H 325.462 -3.49406 1.82507 0
M  V30 3658 H 326.75 -4.70718 1.93137 0
M  V30 3659 H 326.148 -5.54125 -1.13853 0
M  V30 3660 H 324.705 -6.45087 -0.933053 0
M  V30 3661 N 328.138 -0.959301 -1.25041 0
M  V30 3662 C 329.088 -0.453888 -2.23436 0
M  V30 3663 C 330.072 0.459461 -1.542 0
M  V30 3664 O 331.264 0.291752 -1.74579 0
M  V30 3665 C 328.393 0.262667 -3.42294 0
M  V30 3666 C 327.479 -0.669022 -4.1879 0
M  V30 3667 N 327.87 -1.80267 -4.72586 0
M  V30 3668 C 326.168 -0.47814 -4.4343 0
M  V30 3669 C 326.869 -2.38475 -5.3057 0
M  V30 3670 N 325.845 -1.67078 -5.17287 0
M  V30 3671 H 329.647 -1.319 -2.6264 0
M  V30 3672 H 327.161 -0.817358 -1.40332 0
M  V30 3673 H 329.158 0.641911 -4.11929 0
M  V30 3674 H 327.818 1.12432 -3.04613 0
M  V30 3675 H 328.829 -2.18442 -4.69578 0
M  V30 3676 H 325.506 0.340249 -4.16111 0
M  V30 3677 H 326.896 -3.34094 -5.8295 0
M  V30 3678 N 329.616 1.39756 -0.72842 0
M  V30 3679 C 331.032 1.5442 -0.403308 0
M  V30 3680 C 331.232 1.69694 1.08656 0
M  V30 3681 O 330.288 1.69373 1.87267 0
M  V30 3682 C 331.601 2.76555 -1.18058 0
M  V30 3683 C 333.149 2.90384 -1.16815 0
M  V30 3684 C 333.624 4.15449 -1.92785 0
M  V30 3685 N 335.115 4.22475 -1.89918 0
M  V30 3686 C 335.85 5.1818 -2.45514 0
M  V30 3687 N 335.346 6.19714 -3.09719 0
M  V30 3688 N 337.139 5.1035 -2.35584 0
M  V30 3689 H 329.29 1.28089 -1.69431 0
M  V30 3690 H 331.553 0.620327 -0.716867 0
M  V30 3691 H 331.259 2.7159 -2.23455 0
M  V30 3692 H 331.133 3.69033 -0.780662 0
M  V30 3693 H 333.52 2.94846 -0.12234 0
M  V30 3694 H 333.601 1.98988 -1.6074 0
M  V30 3695 H 333.245 4.11749 -2.97364 0
M  V30 3696 H 333.175 5.05877 -1.46272 0
M  V30 3697 H 335.666 3.49743 -1.43138 0
M  V30 3698 H 335.979 6.8919 -3.49625 0
M  V30 3699 H 334.324 6.20121 -3.13807 0
M  V30 3700 H 337.515 4.2996 -1.85072 0
M  V30 3701 H 337.688 5.84761 -2.79211 0
M  V30 3702 N 331.094 0.475555 1.50254 0
M  V30 3703 C 332.004 -0.321501 2.32387 0
M  V30 3704 C 333.02 -0.991755 1.42969 0
M  V30 3705 O 334.196 -0.978747 1.76018 0
M  V30 3706 C 331.261 -1.38667 3.17762 0
M  V30 3707 C 330.322 -0.732538 4.23004 0
M  V30 3708 C 329.555 -1.74695 5.04299 0
M  V30 3709 O 329.778 -2.97399 4.86734 0
M  V30 3710 O 328.712 -1.31631 5.8733 0
M  V30 3711 H 332.538 0.350071 3.01676 0
M  V30 3712 H 330.123 0.237321 1.47503 0
M  V30 3713 H 332.005 -2.00354 3.70724 0
M  V30 3714 H 330.68 -2.04163 2.51196 0
M  V30 3715 H 329.587 -0.0765902 3.74022 0
M  V30 3716 H 330.92 -0.120452 4.92053 0
M  V30 3717 N 332.573 -1.56217 0.208337 0
M  V30 3718 C 333.503 -2.22694 -0.702116 0
M  V30 3719 C 334.484 -1.19432 -1.2112 0
M  V30 3720 O 335.669 -1.47978 -1.25762 0
M  V30 3721 C 332.799 -2.8966 -1.9161 0
M  V30 3722 C 331.753 -3.9928 -1.5414 0
M  V30 3723 C 331.079 -4.53476 -2.83308 0
M  V30 3724 C 332.379 -5.17012 -0.741339 0
M  V30 3725 H 334.073 -2.99034 -0.147898 0
M  V30 3726 H 331.619 -1.43831 -0.0696951 0
M  V30 3727 H 333.572 -3.34852 -2.55836 0
M  V30 3728 H 332.296 -2.10746 -2.49507 0
M  V30 3729 H 330.955 -3.54799 -0.922668 0
M  V30 3730 H 330.603 -3.71308 -3.39322 0
M  V30 3731 H 330.303 -5.27451 -2.58976 0
M  V30 3732 H 331.827 -5.01378 -3.485 0
M  V30 3733 H 333.241 -5.58667 -1.28699 0
M  V30 3734 H 331.638 -5.97137 -0.595627 0
M  V30 3735 H 332.708 -4.8423 0.254851 0
M  V30 3736 N 334.051 0.0651679 -1.57465 0
M  V30 3737 C 335.3 0.761916 -1.86756 0
M  V30 3738 C 335.613 1.78406 -0.801925 0
M  V30 3739 O 336.819 2.53084 -0.982885 0
M  V30 3740 C 335.275 1.40603 -3.31299 0
M  V30 3741 C 334.883 0.422115 -4.46007 0
M  V30 3742 C 336.627 2.08476 -3.69781 0
M  V30 3743 C 334.534 1.07252 -5.81593 0
M  V30 3744 H 333.464 0.288308 -0.696702 0
M  V30 3745 H 336.115 0.015344 -1.83494 0
M  V30 3746 H 334.497 2.20109 -3.29193 0
M  V30 3747 H 335.671 -0.343613 -4.59517 0
M  V30 3748 H 333.986 -0.152527 -4.16121 0
M  V30 3749 H 336.583 2.57925 -4.68379 0
M  V30 3750 H 336.926 2.88712 -2.99919 0
M  V30 3751 H 337.459 1.35792 -3.73905 0
M  V30 3752 H 334.198 0.310342 -6.54765 0
M  V30 3753 H 333.718 1.80895 -5.71872 0
M  V30 3754 H 335.397 1.59043 -6.27148 0
M  V30 3755 N 335.529 1.53961 0.336706 0
M  V30 3756 C 336.477 1.83136 1.43401 0
M  V30 3757 C 337.471 0.702313 1.54156 0
M  V30 3758 O 338.677 0.885765 1.56698 0
M  V30 3759 H 335.052 0.580309 0.478273 0
M  V30 3760 H 337.023 2.74925 1.16012 0
M  V30 3761 C 335.772 2.06385 2.79822 0
M  V30 3762 H 335.095 2.92718 2.72316 0
M  V30 3763 H 336.535 2.30761 3.55704 0
M  V30 3764 C 334.994 0.851414 3.25964 0
M  V30 3765 O 335.524 0.0541904 4.01663 0
M  V30 3766 N 333.73 0.66672 2.82848 0
M  V30 3767 H 333.277 1.31665 2.21409 0
M  V30 3768 H 333.235 -0.143032 3.14074 0
M  V30 3769 N 337.007 -0.598083 1.45811 0
M  V30 3770 C 338.423 -0.919847 1.30426 0
M  V30 3771 C 338.623 -1.99759 0.264303 0
M  V30 3772 O 337.679 -2.50221 -0.338472 0
M  V30 3773 C 338.992 -1.35176 2.68603 0
M  V30 3774 C 340.54 -1.46546 2.76574 0
M  V30 3775 C 341.015 -1.9311 4.15298 0
M  V30 3776 N 342.506 -2.00328 4.1764 0
M  V30 3777 C 343.241 -2.37599 5.21856 0
M  V30 3778 N 342.737 -2.73771 6.36413 0
M  V30 3779 N 344.53 -2.38021 5.09218 0
M  V30 3780 H 336.681 0.114111 2.12093 0
M  V30 3781 H 338.944 -0.0116121 0.947929 0
M  V30 3782 H 338.65 -0.633969 3.45939 0
M  V30 3783 H 338.524 -2.3164 2.97696 0
M  V30 3784 H 340.911 -2.17415 1.99537 0
M  V30 3785 H 340.992 -0.483727 2.51185 0
M  V30 3786 H 340.636 -1.22824 4.92825 0
M  V30 3787 H 340.566 -2.92213 4.38086 0
M  V30 3788 H 343.057 -1.74925 3.34977 0
M  V30 3789 H 343.37 -3.0112 7.11721 0
M  V30 3790 H 341.715 -2.71445 6.39799 0
M  V30 3791 H 344.906 -2.09174 4.18765 0
M  V30 3792 H 345.079 -2.66741 5.90554 0
M  V30 3793 N 338.485 -1.33259 -0.841409 0
M  V30 3794 C 339.71 -1.2775 -1.63385 0
M  V30 3795 C 340.135 0.149188 -1.87507 0
M  V30 3796 O 339.493 1.10498 -1.43736 0
M  V30 3797 C 339.541 -2.05571 -2.96265 0
M  V30 3798 O 338.645 -1.41257 -3.87453 0
M  V30 3799 H 337.986 -0.439627 -0.497618 0
M  V30 3800 H 340.516 -1.75782 -1.04699 0
M  V30 3801 H 340.526 -2.16241 -3.45982 0
M  V30 3802 H 339.201 -3.09309 -2.7803 0
M  V30 3803 H 337.778 -1.39217 -3.45938 0
M  V30 3804 N 339.963 1.05934 -1.16686 0
M  V30 3805 C 340.893 2.1546 -0.899949 0
M  V30 3806 C 341.874 1.69391 0.155154 0
M  V30 3807 O 343.059 1.94199 0.00648693 0
M  V30 3808 C 340.189 3.44939 -0.404241 0
M  V30 3809 C 339.143 4.04536 -1.39767 0
M  V30 3810 C 338.469 5.29268 -0.760216 0
M  V30 3811 C 339.769 4.42893 -2.76845 0
M  V30 3812 H 341.463 2.38046 -1.81588 0
M  V30 3813 H 339.009 1.14404 -0.874514 0
M  V30 3814 H 340.962 4.20901 -0.204971 0
M  V30 3815 H 339.686 3.21983 0.547206 0
M  V30 3816 H 338.345 3.30635 -1.58355 0
M  V30 3817 H 337.993 5.02611 0.197831 0
M  V30 3818 H 337.693 5.70101 -1.42332 0
M  V30 3819 H 339.217 6.07924 -0.57105 0
M  V30 3820 H 340.631 5.09921 -2.62019 0
M  V30 3821 H 339.028 4.94721 -3.39663 0
M  V30 3822 H 340.098 3.53584 -3.31823 0
M  V30 3823 N 341.441 0.965919 1.2453 0
M  V30 3824 C 342.852 0.665929 1.7442 0
M  V30 3825 C 343.203 -0.818407 1.78316 0
M  V30 3826 O 342.328 -1.64037 1.41141 0
M  V30 3827 C 342.923 1.20211 3.16757 0
M  V30 3828 C 341.482 0.952059 3.6416 0
M  V30 3829 C 340.629 1.33848 2.42858 0
M  V30 3830 H 343.58 1.14144 1.10258 0
M  V30 3831 H 343.601 0.567544 3.76244 0
M  V30 3832 H 343.113 2.28244 3.13889 0
M  V30 3833 H 341.214 -0.112821 3.72429 0
M  V30 3834 H 341.327 1.59645 4.51719 0
M  V30 3835 H 339.691 0.756864 2.43195 0
M  V30 3836 H 340.474 2.42827 2.42673 0
M  V30 3837 N 342.919 -1.39368 0.735821 0
M  V30 3838 C 344.144 -2.05319 0.293052 0
M  V30 3839 C 344.569 -1.55115 -1.064 0
M  V30 3840 O 343.927 -0.695261 -1.67439 0
M  V30 3841 C 343.975 -3.59305 0.305323 0
M  V30 3842 O 343.079 -4.06299 -0.706761 0
M  V30 3843 H 342.42 -0.650529 0.13307 0
M  V30 3844 H 344.95 -1.78386 1.00197 0
M  V30 3845 H 344.96 -4.07724 0.149997 0
M  V30 3846 H 343.635 -3.95207 1.29553 0
M  V30 3847 H 342.212 -3.69292 -0.517504 0
M  V30 3848 N 344.397 -0.483516 -1.5 0
M  V30 3849 C 345.644 0.0671597 -2.02389 0
M  V30 3850 C 345.972 1.38597 -1.36459 0
M  V30 3851 O 345.227 1.89634 -0.483458 0
M  V30 3852 C 345.526 0.286226 -3.56252 0
M  V30 3853 C 345.192 -0.952416 -4.40726 0
M  V30 3854 C 343.854 -1.29199 -4.63531 0
M  V30 3855 C 346.206 -1.77655 -4.89988 0
M  V30 3856 C 343.534 -2.45553 -5.32842 0
M  V30 3857 C 345.886 -2.93147 -5.60578 0
M  V30 3858 C 344.55 -3.27505 -5.81633 0
M  V30 3859 H 343.82 0.0245755 -0.740592 0
M  V30 3860 H 346.467 -0.640124 -1.80485 0
M  V30 3861 H 344.772 1.07587 -3.76739 0
M  V30 3862 H 346.469 0.726473 -3.94365 0
M  V30 3863 H 343.059 -0.677881 -4.23205 0
M  V30 3864 H 347.243 -1.52737 -4.72213 0
M  V30 3865 H 342.499 -2.72431 -5.47349 0
M  V30 3866 H 346.673 -3.57344 -5.97727 0
M  V30 3867 H 344.3 -4.1777 -6.35116 0
M  V30 3868 N 345.875 1.56104 -0.216619 0
M  V30 3869 C 347.1 2.0301 0.424462 0
M  V30 3870 C 347.525 1.0955 1.52907 0
M  V30 3871 O 346.883 0.0827914 1.81111 0
M  V30 3872 C 346.931 3.4819 0.937883 0
M  V30 3873 O 346.035 3.57865 2.04955 0
M  V30 3874 H 345.376 0.656925 0.0966755 0
M  V30 3875 H 347.906 2.01859 -0.33381 0
M  V30 3876 H 347.916 3.88413 1.24897 0
M  V30 3877 H 346.591 4.15699 0.129387 0
M  V30 3878 H 345.168 3.29527 1.74546 0
M  V30 3879 N 347.353 -0.0568162 1.57498 0
M  V30 3880 C 348.263 -1.08346 2.08083 0
M  V30 3881 C 349.279 -1.41439 1.01346 0
M  V30 3882 O 350.455 -1.51316 1.32912 0
M  V30 3883 C 347.52 -2.37352 2.52715 0
M  V30 3884 C 346.581 -2.11093 3.73816 0
M  V30 3885 C 345.814 -3.33949 4.1631 0
M  V30 3886 O 346.037 -4.43622 3.58547 0
M  V30 3887 O 344.971 -3.21279 5.08983 0
M  V30 3888 H 348.797 -0.683667 2.95905 0
M  V30 3889 H 346.382 -0.271965 1.46904 0
M  V30 3890 H 348.264 -3.13246 2.81877 0
M  V30 3891 H 346.939 -2.76681 1.68016 0
M  V30 3892 H 345.846 -1.32856 3.49714 0
M  V30 3893 H 347.179 -1.76637 4.59413 0
M  V30 3894 N 348.832 -1.54138 -0.328536 0
M  V30 3895 C 350.081 -1.71318 -1.06456 0
M  V30 3896 C 350.394 -0.491109 -1.89334 0
M  V30 3897 O 351.6 -0.54416 -2.65991 0
M  V30 3898 C 350.056 -3.03 -1.94214 0
M  V30 3899 C 349.664 -4.32595 -1.16471 0
M  V30 3900 C 351.408 -3.29544 -2.67583 0
M  V30 3901 C 349.315 -5.55341 -2.03347 0
M  V30 3902 H 348.245 -0.638429 -0.401155 0
M  V30 3903 H 350.896 -1.80633 -0.323106 0
M  V30 3904 H 349.278 -2.87579 -2.72239 0
M  V30 3905 H 350.452 -4.58766 -0.432525 0
M  V30 3906 H 348.767 -4.12777 -0.548063 0
M  V30 3907 H 351.364 -4.18444 -3.3288 0
M  V30 3908 H 351.707 -2.47206 -3.34955 0
M  V30 3909 H 352.24 -3.45809 -1.96623 0
M  V30 3910 H 348.979 -6.40268 -1.40491 0
M  V30 3911 H 348.499 -5.33397 -2.74313 0
M  V30 3912 H 350.178 -5.91557 -2.62049 0
M  V30 3913 N 350.31 0.590341 -1.46126 0
M  V30 3914 C 351.257 1.69994 -1.56111 0
M  V30 3915 C 352.227 1.61065 -0.405867 0
M  V30 3916 O 353.412 1.8039 -0.621613 0
M  V30 3917 C 350.552 3.08326 -1.55013 0
M  V30 3918 C 349.665 3.27936 -2.81215 0
M  V30 3919 C 348.8 4.56473 -2.71673 0
M  V30 3920 C 347.839 4.694 -3.92849 0
M  V30 3921 N 346.976 5.89254 -3.81738 0
M  V30 3922 H 351.816 1.60797 -2.50895 0
M  V30 3923 H 349.353 0.783799 -1.24479 0
M  V30 3924 H 351.311 3.88383 -1.52362 0
M  V30 3925 H 349.941 3.16439 -0.637667 0
M  V30 3926 H 348.993 2.41536 -2.93879 0
M  V30 3927 H 350.305 3.33357 -3.71045 0
M  V30 3928 H 349.459 5.44748 -2.67085 0
M  V30 3929 H 348.198 4.53477 -1.7947 0
M  V30 3930 H 347.203 3.79544 -3.97777 0
M  V30 3931 H 348.428 4.7418 -4.86138 0
M  V30 3932 H 346.374 5.87271 -2.92317 0
M  V30 3933 H 346.291 5.95911 -4.65217 0
M  V30 3934 H 347.559 6.79981 -3.81112 0
M  V30 3935 N 351.788 1.33704 0.83433 0
M  V30 3936 C 352.718 1.26967 1.95963 0
M  V30 3937 C 353.699 0.149337 1.69443 0
M  V30 3938 O 354.884 0.339852 1.91203 0
M  V30 3939 C 352.014 1.01275 3.32206 0
M  V30 3940 C 350.968 2.09652 3.73136 0
M  V30 3941 C 350.294 1.69166 5.07235 0
M  V30 3942 C 351.594 3.51372 3.86439 0
M  V30 3943 H 353.288 2.2112 2.01857 0
M  V30 3944 H 350.834 1.06447 0.969793 0
M  V30 3945 H 352.787 0.952106 4.10503 0
M  V30 3946 H 351.511 0.0356203 3.26581 0
M  V30 3947 H 350.17 2.14766 2.97104 0
M  V30 3948 H 349.818 0.701437 4.98085 0
M  V30 3949 H 349.518 2.41694 5.35591 0
M  V30 3950 H 351.042 1.64576 5.88003 0
M  V30 3951 H 352.456 3.48734 4.55036 0
M  V30 3952 H 350.853 4.22425 4.26236 0
M  V30 3953 H 351.923 3.89546 2.88759 0
M  V30 3954 N 353.266 -1.05314 1.17247 0
M  V30 3955 C 354.682 -1.30452 0.919473 0
M  V30 3956 C 354.882 -1.9703 -0.42209 0
M  V30 3957 O 353.938 -2.24311 -1.15935 0
M  V30 3958 C 355.251 -2.17551 2.07586 0
M  V30 3959 C 356.799 -2.30937 2.11275 0
M  V30 3960 C 357.274 -3.21396 3.26296 0
M  V30 3961 N 358.765 -3.28981 3.26076 0
M  V30 3962 C 359.5 -3.99095 4.11716 0
M  V30 3963 N 358.996 -4.71648 5.07465 0
M  V30 3964 N 360.789 -3.95247 3.9967 0
M  V30 3965 H 352.94 -0.604988 2.03602 0
M  V30 3966 H 355.203 -0.329368 0.888944 0
M  V30 3967 H 354.909 -1.75921 3.0454 0
M  V30 3968 H 354.783 -3.18182 2.02584 0
M  V30 3969 H 357.17 -2.71809 1.14907 0
M  V30 3970 H 357.251 -1.2994 2.20339 0
M  V30 3971 H 356.895 -2.81238 4.22927 0
M  V30 3972 H 356.825 -4.22395 3.14467 0
M  V30 3973 H 359.316 -2.77286 2.5675 0
M  V30 3974 H 359.629 -5.22705 5.6921 0
M  V30 3975 H 357.974 -4.70594 5.11435 0
M  V30 3976 H 361.165 -3.37691 3.24164 0
M  V30 3977 H 361.338 -4.4962 4.66632 0
M  V30 3978 N 354.744 -0.972509 -1.24016 0
M  V30 3979 C 356.155 -0.67517 -1.74064 0
M  V30 3980 C 356.506 0.808939 -1.78747 0
M  V30 3981 O 355.631 1.63286 -1.42009 0
M  V30 3982 C 356.226 -1.21889 -3.16115 0
M  V30 3983 C 354.785 -0.971358 -3.6365 0
M  V30 3984 C 353.932 -1.35134 -2.42145 0
M  V30 3985 H 356.883 -1.14727 -1.09651 0
M  V30 3986 H 356.904 -0.587489 -3.75937 0
M  V30 3987 H 356.416 -2.29906 -3.12674 0
M  V30 3988 H 354.517 0.0930686 -3.72484 0
M  V30 3989 H 354.63 -1.62039 -4.50866 0
M  V30 3990 H 352.994 -0.769751 -2.4279 0
M  V30 3991 H 353.777 -2.4411 -2.41381 0
M  V30 3992 N 356.222 1.38976 -0.743202 0
M  V30 3993 C 357.132 2.3434 -0.110399 0
M  V30 3994 C 358.148 1.58741 0.712559 0
M  V30 3995 O 359.324 1.9099 0.639125 0
M  V30 3996 C 356.389 3.37812 0.780012 0
M  V30 3997 C 355.45 4.29263 -0.0561319 0
M  V30 3998 C 354.683 5.27793 0.791875 0
M  V30 3999 O 354.906 5.33043 2.03031 0
M  V30 4000 O 353.84 6.01512 0.216183 0
M  V30 4001 H 357.666 2.90129 -0.897714 0
M  V30 4002 H 355.251 1.40643 -0.503966 0
M  V30 4003 H 357.133 4.01194 1.28923 0
M  V30 4004 H 355.808 2.84395 1.546 0
M  V30 4005 H 354.715 3.69076 -0.611056 0
M  V30 4006 H 356.048 4.85907 -0.784531 0
M  V30 4007 N 357.7 0.491464 1.49741 0
M  V30 4008 C 358.648 -0.305837 2.30581 0
M  V30 4009 C 359.642 -0.971642 1.38764 0
M  V30 4010 O 360.848 -0.90042 1.5586 0
M  V30 4011 H 357.223 -0.117482 0.742767 0
M  V30 4012 H 359.194 0.396093 2.95759 0
M  V30 4013 C 357.943 -1.36319 3.19863 0
M  V30 4014 H 357.266 -0.860258 3.90435 0
M  V30 4015 H 358.706 -1.89323 3.79385 0
M  V30 4016 C 357.165 -2.37621 2.38826 0
M  V30 4017 O 357.695 -3.43311 2.08567 0
M  V30 4018 N 355.901 -2.09849 2.01026 0
M  V30 4019 H 355.448 -1.23922 2.25834 0
M  V30 4020 H 355.406 -2.77859 1.47112 0
M  V30 4021 N 359.178 -1.55987 0.224894 0
M  V30 4022 C 360.589 -1.84553 -0.282345 0
M  V30 4023 C 360.94 -1.14634 -1.59227 0
M  V30 4024 O 360.065 -0.417155 -2.12341 0
M  V30 4025 C 360.66 -3.348 -0.519062 0
M  V30 4026 C 359.219 -3.63671 -0.970604 0
M  V30 4027 C 358.366 -2.77277 -0.0355261 0
M  V30 4028 H 361.317 -1.52245 0.448006 0
M  V30 4029 H 361.338 -3.55187 -1.36463 0
M  V30 4030 H 360.85 -3.8566 0.43449 0
M  V30 4031 H 358.951 -3.1827 -1.9374 0
M  V30 4032 H 359.064 -4.71631 -0.842698 0
M  V30 4033 H 357.428 -2.48846 -0.542927 0
M  V30 4034 H 358.211 -3.30937 0.913003 0
M  V30 4035 N 360.656 0.0484629 -1.57525 0
M  V30 4036 C 361.603 1.05504 -2.05275 0
M  V30 4037 C 362.573 1.37084 -0.937927 0
M  V30 4038 O 363.758 1.47754 -1.2072 0
M  V30 4039 C 360.898 2.35676 -2.52093 0
M  V30 4040 C 360.011 2.10423 -3.77288 0
M  V30 4041 C 359.146 3.34327 -4.12794 0
M  V30 4042 C 358.185 3.04542 -5.30962 0
M  V30 4043 N 357.322 4.20841 -5.61994 0
M  V30 4044 H 362.162 0.640885 -2.91027 0
M  V30 4045 H 359.699 0.304854 -1.43906 0
M  V30 4046 H 361.657 3.11709 -2.77297 0
M  V30 4047 H 360.287 2.7485 -1.69285 0
M  V30 4048 H 359.339 1.24976 -3.59284 0
M  V30 4049 H 360.651 1.84438 -4.63448 0
M  V30 4050 H 359.805 4.1874 -4.39024 0
M  V30 4051 H 358.544 3.63408 -3.25247 0
M  V30 4052 H 357.549 2.18528 -5.04505 0
M  V30 4053 H 358.774 2.76758 -6.20146 0
M  V30 4054 H 356.72 4.4991 -4.77406 0
M  V30 4055 H 356.637 3.98212 -6.42622 0
M  V30 4056 H 357.905 5.06184 -5.92789 0
M  V30 4057 N 362.134 1.5431 0.320358 0
M  V30 4058 C 363.382 1.72327 1.05583 0
M  V30 4059 C 363.703 0.50149 1.88441 0
M  V30 4060 O 362.973 -0.48448 1.89815 0
M  V30 4061 H 361.553 0.635387 0.3928 0
M  V30 4062 H 364.215 1.91621 0.356019 0
M  V30 4063 H 363.311 2.60426 1.72003 0
M  V30 4064 N 363.613 -0.582584 1.46437 0
M  V30 4065 C 364.89 -1.34276 1.4223 0
M  V30 4066 C 365.27 -2.10835 0.10583 0
M  V30 4067 O 364.618 -2.09485 -0.912596 0
M  V30 4068 C 364.828 -2.26865 2.65204 0
M  V30 4069 C 366.176 -2.88691 3.11356 0
M  V30 4070 O 367.2 -2.37178 2.65753 0
M  V30 4071 O 366.059 -3.82255 3.90568 0
M  V30 4072 H 363.153 -0.603326 0.565621 0
M  V30 4073 H 365.699 -0.603591 1.58603 0
M  V30 4074 H 364.471 -1.69724 3.52576 0
M  V30 4075 H 364.094 -3.08122 2.5129 0
M  V30 4076 N 365.091 -1.34144 -0.827227 0
M  V30 4077 C 366.054 -1.25264 -1.91942 0
M  V30 4078 C 367.054 -0.168866 -1.59911 0
M  V30 4079 O 368.244 -0.421198 -1.69031 0
M  V30 4080 C 365.376 -0.932952 -3.27885 0
M  V30 4081 H 366.569 -2.22357 -2.0124 0
M  V30 4082 H 364.122 -1.1837 -1.0207 0
M  V30 4083 H 364.857 0.0349917 -3.24281 0
M  V30 4084 H 364.642 -1.71682 -3.52516 0
M  V30 4085 H 366.132 -0.895874 -4.07877 0
M  V30 4086 N 366.569 1.04691 -1.17803 0
M  V30 4087 C 367.516 2.12557 -0.899343 0
M  V30 4088 C 368.486 1.65339 0.158771 0
M  V30 4089 O 369.671 1.90789 0.0204797 0
M  V30 4090 C 366.811 3.42481 -0.424315 0
M  V30 4091 C 365.924 4.03346 -1.54713 0
M  V30 4092 C 365.059 5.21208 -1.02546 0
M  V30 4093 C 364.098 5.74089 -2.12339 0
M  V30 4094 N 363.235 6.83247 -1.61612 0
M  V30 4095 H 368.075 2.35734 -1.823 0
M  V30 4096 H 365.612 1.1564 -0.909159 0
M  V30 4097 H 367.57 4.16996 -0.130421 0
M  V30 4098 H 366.2 3.19471 0.462377 0
M  V30 4099 H 365.252 3.2622 -1.95664 0
M  V30 4100 H 366.564 4.38628 -2.37501 0
M  V30 4101 H 365.718 6.02812 -0.685718 0
M  V30 4102 H 364.457 4.87414 -0.167084 0
M  V30 4103 H 363.462 4.91111 -2.47165 0
M  V30 4104 H 364.687 6.0993 -2.98601 0
M  V30 4105 H 362.633 6.5134 -0.780533 0
M  V30 4106 H 362.55 7.17559 -2.38003 0
M  V30 4107 H 363.818 7.68491 -1.30545 0
M  V30 4108 N 368.047 0.979072 1.23499 0
M  V30 4109 C 368.994 0.517904 2.24914 0
M  V30 4110 C 369.964 -0.442525 1.60097 0
M  V30 4111 O 371.149 -0.350365 1.87556 0
M  V30 4112 C 368.289 -0.174813 3.44657 0
M  V30 4113 C 367.402 0.825721 4.24035 0
M  V30 4114 C 366.537 0.107946 5.3109 0
M  V30 4115 C 365.576 1.09778 6.02175 0
M  V30 4116 N 364.713 0.40925 7.00906 0
M  V30 4117 H 369.553 1.38751 2.63727 0
M  V30 4118 H 367.09 0.695303 1.2963 0
M  V30 4119 H 369.048 -0.593233 4.12961 0
M  V30 4120 H 367.678 -1.0083 3.06648 0
M  V30 4121 H 366.73 1.36253 3.55161 0
M  V30 4122 H 368.042 1.58005 4.73113 0
M  V30 4123 H 367.196 -0.367904 6.05583 0
M  V30 4124 H 365.935 -0.678994 4.8295 0
M  V30 4125 H 364.94 1.5844 5.26476 0
M  V30 4126 H 366.165 1.88536 6.52404 0
M  V30 4127 H 364.111 -0.358506 6.5502 0
M  V30 4128 H 364.028 1.10226 7.47921 0
M  V30 4129 H 365.296 -0.0442557 7.79487 0
M  V30 4130 N 369.525 -1.3858 0.750561 0
M  V30 4131 C 370.936 -1.82927 0.373438 0
M  V30 4132 C 371.287 -1.62634 -1.09748 0
M  V30 4133 O 370.412 -1.12588 -1.84805 0
M  V30 4134 C 371.007 -3.32088 0.671029 0
M  V30 4135 C 369.566 -3.74795 0.34722 0
M  V30 4136 C 368.713 -2.61391 0.92575 0
M  V30 4137 H 371.664 -1.27351 0.946958 0
M  V30 4138 H 371.685 -3.80465 -0.0518269 0
M  V30 4139 H 371.197 -3.46826 1.74164 0
M  V30 4140 H 369.298 -3.65638 -0.716933 0
M  V30 4141 H 369.411 -4.71667 0.840656 0
M  V30 4142 H 367.775 -2.52265 0.351327 0
M  V30 4143 H 368.558 -2.78929 2.00133 0
M  V30 4144 N 371.003 -0.499398 -1.49478 0
M  V30 4145 C 372.251 0.0455996 -2.02049 0
M  V30 4146 C 372.572 1.37633 -1.38138 0
M  V30 4147 O 371.842 1.8842 -0.536166 0
M  V30 4148 H 370.422 0.0198416 -0.746736 0
M  V30 4149 H 373.084 -0.656274 -1.83519 0
M  V30 4150 H 372.18 0.176445 -3.11601 0
M  V30 4151 N 372.481 1.55866 -0.233164 0
M  V30 4152 C 373.428 2.20796 0.67215 0
M  V30 4153 C 374.398 1.16731 1.18166 0
M  V30 4154 O 375.583 1.45129 1.23864 0
M  V30 4155 C 372.723 2.90072 1.86955 0
M  V30 4156 C 371.836 4.08759 1.39786 0
M  V30 4157 C 370.971 4.65787 2.55374 0
M  V30 4158 C 370.01 5.76752 2.04998 0
M  V30 4159 N 369.147 6.28021 3.13901 0
M  V30 4160 H 373.987 2.9779 0.111749 0
M  V30 4161 H 371.524 1.47036 0.0434007 0
M  V30 4162 H 373.482 3.28428 2.57276 0
M  V30 4163 H 372.112 2.15575 2.40265 0
M  V30 4164 H 371.164 3.7581 0.589173 0
M  V30 4165 H 372.476 4.88906 0.98856 0
M  V30 4166 H 371.63 5.06646 3.33758 0
M  V30 4167 H 370.369 3.84828 2.99598 0
M  V30 4168 H 369.374 5.35383 1.25079 0
M  V30 4169 H 370.599 6.59553 1.61759 0
M  V30 4170 H 368.545 5.49971 3.57586 0
M  V30 4171 H 368.462 7.03323 2.7726 0
M  V30 4172 H 369.73 6.73538 3.92386 0
M  V30 4173 N 373.959 -0.0401083 1.57549 0
M  V30 4174 C 374.869 -1.06133 2.0922 0
M  V30 4175 C 375.885 -1.40356 1.0284 0
M  V30 4176 O 377.061 -1.49897 1.34509 0
M  V30 4177 C 374.126 -2.34658 2.55218 0
M  V30 4178 C 373.187 -2.07117 3.76033 0
M  V30 4179 C 372.42 -3.29514 4.19829 0
M  V30 4180 O 372.643 -4.39794 3.63232 0
M  V30 4181 O 371.577 -3.15863 5.12362 0
M  V30 4182 H 375.403 -0.652244 2.96613 0
M  V30 4183 H 372.988 -0.256368 1.47184 0
M  V30 4184 H 374.87 -3.10239 2.85184 0
M  V30 4185 H 373.545 -2.74883 1.70941 0
M  V30 4186 H 372.452 -1.29139 3.51104 0
M  V30 4187 H 373.785 -1.71754 4.61261 0
M  V30 4188 N 375.437 -1.54477 -0.31217 0
M  V30 4189 C 376.662 -1.77526 -1.07235 0
M  V30 4190 C 377.087 -0.527775 -1.80544 0
M  V30 4191 O 376.445 0.52121 -1.73646 0
M  V30 4192 C 376.493 -2.97535 -2.03728 0
M  V30 4193 O 375.597 -2.69878 -3.11833 0
M  V30 4194 H 374.938 -0.58792 -0.30862 0
M  V30 4195 H 377.468 -2.01532 -0.352993 0
M  V30 4196 H 377.478 -3.25198 -2.46395 0
M  V30 4197 H 376.153 -3.87996 -1.49774 0
M  V30 4198 H 374.73 -2.53199 -2.7376 0
M  V30 4199 N 376.915 0.57481 -1.46744 0
M  V30 4200 C 378.326 1.15695 -1.46532 0
M  V30 4201 C 378.677 1.95068 -0.210425 0
M  V30 4202 O 377.802 2.05241 0.685944 0
M  V30 4203 C 378.397 2.1048 -2.65487 0
M  V30 4204 C 376.956 2.64002 -2.68291 0
M  V30 4205 C 376.103 1.40026 -2.39349 0
M  V30 4206 H 379.054 0.362325 -1.54509 0
M  V30 4207 H 379.075 2.94074 -2.41455 0
M  V30 4208 H 378.587 1.52683 -3.56805 0
M  V30 4209 H 376.688 3.25646 -1.81067 0
M  V30 4210 H 376.801 3.06197 -3.68483 0
M  V30 4211 H 375.165 1.70106 -1.89568 0
M  V30 4212 H 375.948 0.840485 -3.32852 0
M  V30 4213 N 378.394 1.34581 0.820102 0
M  V30 4214 C 379.64 1.28294 1.57836 0
M  V30 4215 C 379.995 -0.145099 1.91852 0
M  V30 4216 O 379.288 -1.09209 1.57429 0
M  V30 4217 C 379.482 2.10997 2.8847 0
M  V30 4218 C 379.311 3.61698 2.67216 0
M  V30 4219 C 378.081 4.3097 2.63805 0
M  V30 4220 C 380.279 4.55638 2.38534 0
M  V30 4221 N 378.261 5.67502 2.34126 0
M  V30 4222 C 379.632 5.80194 2.18574 0
M  V30 4223 C 381.687 4.44523 2.24285 0
M  V30 4224 C 380.39 6.94886 1.8581 0
M  V30 4225 C 382.416 5.5905 1.92916 0
M  V30 4226 C 381.778 6.82627 1.73782 0
M  V30 4227 H 377.877 0.524697 0.579842 0
M  V30 4228 H 380.461 1.69323 0.961139 0
M  V30 4229 H 378.632 1.7226 3.48111 0
M  V30 4230 H 380.364 1.96333 3.53886 0
M  V30 4231 H 377.119 3.83438 2.77978 0
M  V30 4232 H 377.543 6.39525 2.22118 0
M  V30 4233 H 382.185 3.49599 2.37782 0
M  V30 4234 H 379.903 7.89789 1.7105 0
M  V30 4235 H 383.489 5.52396 1.82619 0
M  V30 4236 H 382.369 7.69748 1.49861 0
M  V30 4237 N 379.872 -1.04064 1.18357 0
M  V30 4238 C 380.782 -2.15569 0.925596 0
M  V30 4239 C 381.798 -1.7365 -0.110295 0
M  V30 4240 O 382.974 -2.01273 0.0716218 0
M  V30 4241 C 380.039 -3.43704 0.454836 0
M  V30 4242 C 379.1 -4.00004 1.55869 0
M  V30 4243 C 378.333 -5.22023 1.1103 0
M  V30 4244 O 378.556 -5.70392 -0.0309756 0
M  V30 4245 O 377.49 -5.70856 1.90805 0
M  V30 4246 H 381.316 -2.40187 1.8586 0
M  V30 4247 H 378.901 -1.1402 0.965394 0
M  V30 4248 H 380.783 -4.20923 0.200382 0
M  V30 4249 H 379.458 -3.20559 -0.449876 0
M  V30 4250 H 378.365 -3.24172 1.86716 0
M  V30 4251 H 379.698 -4.2749 2.43953 0
M  V30 4252 N 381.35 -0.985608 -1.22978 0
M  V30 4253 C 382.596 -0.65836 -1.91816 0
M  V30 4254 C 382.929 0.806692 -1.76653 0
M  V30 4255 O 382.204 1.58252 -1.13078 0
M  V30 4256 C 382.487 -1.056 -3.44268 0
M  V30 4257 C 382.34 -2.57906 -3.68516 0
M  V30 4258 C 383.659 -0.603781 -4.35939 0
M  V30 4259 H 380.778 -0.24065 -0.696604 0
M  V30 4260 H 383.42 -1.22783 -1.44998 0
M  V30 4261 H 381.57 -0.571445 -3.84274 0
M  V30 4262 H 383.242 -3.13976 -3.3796 0
M  V30 4263 H 381.485 -3.00305 -3.13048 0
M  V30 4264 H 382.156 -2.80779 -4.75255 0
M  V30 4265 H 384.632 -1.01987 -4.03408 0
M  V30 4266 H 383.508 -0.910383 -5.41298 0
M  V30 4267 H 383.769 0.495761 -4.39312 0
M  V30 4268 N 382.828 1.3818 -0.7579 0
M  V30 4269 C 383.758 2.33027 -0.148597 0
M  V30 4270 C 384.739 1.55085 0.69875 0
M  V30 4271 O 385.924 1.83384 0.639053 0
M  V30 4272 C 383.054 3.3928 0.742034 0
M  V30 4273 C 382.008 4.28 -0.00291946 0
M  V30 4274 C 381.334 5.25146 1.00625 0
M  V30 4275 C 382.634 5.08938 -1.17385 0
M  V30 4276 H 384.328 2.84231 -0.940909 0
M  V30 4277 H 381.874 1.36659 -0.453908 0
M  V30 4278 H 383.827 4.046 1.17799 0
M  V30 4279 H 382.551 2.86569 1.56671 0
M  V30 4280 H 381.21 3.64192 -0.419504 0
M  V30 4281 H 380.858 4.68721 1.8251 0
M  V30 4282 H 380.558 5.85361 0.512428 0
M  V30 4283 H 382.082 5.93342 1.44143 0
M  V30 4284 H 383.496 5.67474 -0.815224 0
M  V30 4285 H 381.893 5.7841 -1.59882 0
M  V30 4286 H 382.963 4.42424 -1.98468 0
M  V30 4287 N 384.306 0.507319 1.49211 0
M  V30 4288 C 385.253 -0.267728 2.29242 0
M  V30 4289 C 386.223 -0.954609 1.35928 0
M  V30 4290 O 387.408 -0.960046 1.64887 0
M  V30 4291 C 384.548 -1.32243 3.18756 0
M  V30 4292 C 383.661 -0.64669 4.27132 0
M  V30 4293 C 382.796 -1.68238 5.03855 0
M  V30 4294 C 381.835 -0.98885 6.0406 0
M  V30 4295 N 380.972 -1.96903 6.73924 0
M  V30 4296 H 385.812 0.420968 2.95012 0
M  V30 4297 H 383.349 0.219443 1.45454 0
M  V30 4298 H 385.307 -1.94599 3.69036 0
M  V30 4299 H 383.937 -1.97981 2.54958 0
M  V30 4300 H 382.989 0.0902926 3.80293 0
M  V30 4301 H 384.301 -0.101058 4.98698 0
M  V30 4302 H 383.455 -2.38081 5.58034 0
M  V30 4303 H 382.194 -2.26187 4.32077 0
M  V30 4304 H 381.199 -0.276222 5.49106 0
M  V30 4305 H 382.424 -0.415767 6.77826 0
M  V30 4306 H 380.37 -2.53803 6.04913 0
M  V30 4307 H 380.287 -1.47423 7.41487 0
M  V30 4308 H 381.555 -2.66015 7.32705 0
M  V30 4309 N 385.784 -1.5574 0.241426 0
M  V30 4310 C 387.2 -1.59196 -0.113548 0
M  V30 4311 C 387.4 -1.25852 -1.57364 0
M  V30 4312 O 386.456 -1.00322 -2.31715 0
M  V30 4313 C 387.769 -2.99814 0.230695 0
M  V30 4314 C 389.317 -3.12513 0.174547 0
M  V30 4315 C 389.792 -4.55342 0.492744 0
M  V30 4316 N 391.283 -4.61076 0.443043 0
M  V30 4317 C 392.018 -5.6956 0.662484 0
M  V30 4318 N 391.514 -6.86328 0.944761 0
M  V30 4319 N 393.307 -5.58957 0.593564 0
M  V30 4320 H 385.458 -1.75685 1.19368 0
M  V30 4321 H 387.721 -0.81756 0.479896 0
M  V30 4322 H 387.427 -3.28932 1.24485 0
M  V30 4323 H 387.301 -3.74568 -0.444833 0
M  V30 4324 H 389.688 -2.83179 -0.830277 0
M  V30 4325 H 389.769 -2.40045 0.883845 0
M  V30 4326 H 389.413 -4.85396 1.4951 0
M  V30 4327 H 389.343 -5.26062 -0.23797 0
M  V30 4328 H 391.834 -3.77179 0.233374 0
M  V30 4329 H 392.147 -7.64935 1.09977 0
M  V30 4330 H 390.492 -6.88025 0.982175 0
M  V30 4331 H 393.683 -4.66611 0.373123 0
M  V30 4332 H 393.856 -6.43433 0.767981 0
M  V30 4333 N 387.262 0.0317525 -1.57568 0
M  V30 4334 C 388.209 1.0332 -2.06382 0
M  V30 4335 C 389.179 1.36082 -0.952414 0
M  V30 4336 O 390.364 1.46466 -1.2228 0
M  V30 4337 C 387.504 2.32989 -2.54578 0
M  V30 4338 C 386.617 2.0641 -3.79498 0
M  V30 4339 C 385.752 3.2993 -4.16317 0
M  V30 4340 C 384.791 2.98893 -5.34162 0
M  V30 4341 N 383.928 4.14857 -5.66426 0
M  V30 4342 H 388.768 0.609982 -2.9169 0
M  V30 4343 H 386.305 0.289573 -1.44222 0
M  V30 4344 H 388.263 3.0875 -2.80587 0
M  V30 4345 H 386.893 2.73039 -1.7219 0
M  V30 4346 H 385.945 1.21158 -3.6059 0
M  V30 4347 H 387.257 1.79513 -4.65378 0
M  V30 4348 H 386.411 4.1406 -4.4344 0
M  V30 4349 H 385.15 3.59938 -3.29083 0
M  V30 4350 H 384.155 2.13164 -5.06795 0
M  V30 4351 H 385.38 2.70165 -6.23047 0
M  V30 4352 H 383.326 4.44821 -4.82151 0
M  V30 4353 H 383.243 3.91374 -6.4681 0
M  V30 4354 H 384.511 4.99868 -5.98124 0
M  V30 4355 N 388.74 1.54641 0.303973 0
M  V30 4356 C 390.151 1.64811 0.877163 0
M  V30 4357 C 390.502 0.554838 1.88191 0
M  V30 4358 O 389.627 -0.309033 2.14182 0
M  V30 4359 C 390.222 2.9876 1.59775 0
M  V30 4360 C 388.781 3.11061 2.11938 0
M  V30 4361 C 387.928 2.60479 0.951097 0
M  V30 4362 H 390.879 1.58493 0.0810486 0
M  V30 4363 H 390.9 2.90017 2.46314 0
M  V30 4364 H 390.412 3.7831 0.866226 0
M  V30 4365 H 388.513 2.36225 2.88146 0
M  V30 4366 H 388.626 4.17171 2.35595 0
M  V30 4367 H 386.99 2.16859 1.33583 0
M  V30 4368 H 387.773 3.42504 0.233581 0
M  V30 4369 N 390.218 -0.567019 1.47046 0
M  V30 4370 C 391.165 -1.67489 1.58796 0
M  V30 4371 C 392.135 -1.60399 0.43144 0
M  V30 4372 O 393.32 -1.79378 0.650233 0
M  V30 4373 C 390.46 -3.05821 1.59899 0
M  V30 4374 C 389.573 -3.2342 2.86397 0
M  V30 4375 C 388.708 -4.52093 2.789 0
M  V30 4376 C 387.747 -4.6309 4.00267 0
M  V30 4377 N 386.884 -5.83106 3.91064 0
M  V30 4378 H 391.724 -1.56785 2.53422 0
M  V30 4379 H 389.261 -0.763896 1.2571 0
M  V30 4380 H 391.219 -3.8591 1.58522 0
M  V30 4381 H 389.849 -3.15384 0.687929 0
M  V30 4382 H 388.901 -2.3683 2.97684 0
M  V30 4383 H 390.213 -3.27412 3.76301 0
M  V30 4384 H 389.367 -5.4043 2.75718 0
M  V30 4385 H 388.106 -4.50565 1.86662 0
M  V30 4386 H 387.111 -3.73168 4.03765 0
M  V30 4387 H 388.336 -4.66386 4.93621 0
M  V30 4388 H 386.282 -5.82546 3.01623 0
M  V30 4389 H 386.199 -5.88434 4.74638 0
M  V30 4390 H 387.467 -6.73831 3.91882 0
M  V30 4391 N 391.696 -1.35014 -0.812953 0
M  V30 4392 C 392.973 -1.18502 -1.55617 0
M  V30 4393 C 393.353 0.238421 -2.09749 0
M  V30 4394 O 392.701 1.2411 -1.91857 0
M  V30 4395 C 392.911 -2.24783 -2.66971 0
M  V30 4396 C 394.259 -2.60268 -3.35478 0
M  V30 4397 O 395.283 -2.23648 -2.77236 0
M  V30 4398 O 394.142 -3.2321 -4.40678 0
M  V30 4399 H 391.236 -0.459984 -0.687272 0
M  V30 4400 H 393.782 -1.46677 -0.853464 0
M  V30 4401 H 392.554 -3.20284 -2.24798 0
M  V30 4402 H 392.177 -1.97841 -3.44884 0
M  V30 4403 N 393.175 1.03435 -1.18907 0
M  V30 4404 C 394.138 2.09756 -0.923844 0
M  V30 4405 C 395.138 1.60528 0.093416 0
M  V30 4406 O 396.328 1.73631 -0.140727 0
M  V30 4407 C 393.46 3.38692 -0.387354 0
M  V30 4408 H 394.653 2.34719 -1.86674 0
M  V30 4409 H 392.206 1.19959 -1.00197 0
M  V30 4410 H 392.941 3.19396 0.561845 0
M  V30 4411 H 392.726 3.75742 -1.12074 0
M  V30 4412 H 394.216 4.17016 -0.220694 0
M  V30 4413 N 394.653 0.992116 1.22453 0
M  V30 4414 C 395.901 0.666215 1.90804 0
M  V30 4415 C 396.222 -0.804152 1.77647 0
M  V30 4416 O 395.492 -1.57629 1.16318 0
M  V30 4417 H 394.072 0.243423 0.706225 0
M  V30 4418 H 396.734 1.25845 1.48825 0
M  V30 4419 H 395.83 0.928069 2.97982 0
M  V30 4420 N 396.131 -1.37776 0.765217 0
M  V30 4421 C 397.379 -1.99454 0.325943 0
M  V30 4422 C 397.7 -1.61049 -1.09947 0
M  V30 4423 O 396.97 -0.872821 -1.75381 0
M  V30 4424 H 395.55 -0.737697 0.117525 0
M  V30 4425 H 398.212 -1.68359 0.981895 0
M  V30 4426 H 397.308 -3.09547 0.398353 0
M  V30 4427 N 397.609 -0.515225 -1.4894 0
M  V30 4428 C 398.857 0.0241671 -2.02086 0
M  V30 4429 C 399.178 1.3616 -1.3959 0
M  V30 4430 O 398.448 1.87841 -0.556121 0
M  V30 4431 H 397.028 0.0119203 -0.746905 0
M  V30 4432 H 399.69 -0.675702 -1.82812 0
M  V30 4433 H 398.786 0.143385 -3.1177 0
M  V30 4434 N 399.087 1.5561 -0.249682 0
M  V30 4435 C 400.312 2.03865 0.381305 0
M  V30 4436 C 400.737 1.12769 1.50548 0
M  V30 4437 O 400.095 0.121189 1.80895 0
M  V30 4438 C 400.143 3.50101 0.863816 0
M  V30 4439 O 399.247 3.62132 1.97318 0
M  V30 4440 H 398.588 0.658827 0.0827194 0
M  V30 4441 H 401.118 2.01105 -0.376552 0
M  V30 4442 H 401.128 3.90975 1.1663 0
M  V30 4443 H 399.803 4.1588 0.0411816 0
M  V30 4444 H 398.38 3.33155 1.67517 0
M  V30 4445 N 400.565 -0.0233959 1.57583 0
M  V30 4446 C 401.811 -0.714119 1.89811 0
M  V30 4447 C 402.144 -1.74702 0.848113 0
M  V30 4448 O 401.419 -1.94023 -0.136135 0
M  V30 4449 C 401.702 -1.37853 3.32669 0
M  V30 4450 C 401.555 -0.358764 4.48367 0
M  V30 4451 C 402.874 -2.31101 3.7454 0
M  V30 4452 H 399.993 -0.25814 0.690314 0
M  V30 4453 H 402.635 0.0230927 1.89986 0
M  V30 4454 H 400.785 -2.00689 3.3265 0
M  V30 4455 H 402.457 0.268115 4.6052 0
M  V30 4456 H 400.7 0.321387 4.32608 0
M  V30 4457 H 401.371 -0.862242 5.45224 0
M  V30 4458 H 403.847 -1.78304 3.75961 0
M  V30 4459 H 402.723 -2.74567 4.75294 0
M  V30 4460 H 402.984 -3.18018 3.0711 0
M  V30 4461 N 402.043 -1.548 -0.295768 0
M  V30 4462 C 402.973 -1.89115 -1.36959 0
M  V30 4463 C 403.954 -0.75059 -1.52644 0
M  V30 4464 O 405.139 -1.00678 -1.66065 0
M  V30 4465 C 402.269 -2.14307 -2.73295 0
M  V30 4466 C 401.223 -3.30151 -2.72368 0
M  V30 4467 C 400.549 -3.40772 -4.12042 0
M  V30 4468 C 401.849 -4.67126 -2.33646 0
M  V30 4469 H 403.543 -2.79053 -1.08488 0
M  V30 4470 H 401.089 -1.34266 -0.520443 0
M  V30 4471 H 403.042 -2.36898 -3.48507 0
M  V30 4472 H 401.766 -1.21145 -3.03301 0
M  V30 4473 H 400.425 -3.0749 -1.99613 0
M  V30 4474 H 400.073 -2.45117 -4.39234 0
M  V30 4475 H 399.773 -4.18645 -4.12322 0
M  V30 4476 H 401.297 -3.6563 -4.89027 0
M  V30 4477 H 402.711 -4.89414 -2.98575 0
M  V30 4478 H 401.108 -5.47751 -2.45129 0
M  V30 4479 H 402.178 -4.67489 -1.28772 0
M  V30 4480 N 403.521 0.559213 -1.47345 0
M  V30 4481 C 404.468 1.66645 -1.59682 0
M  V30 4482 C 405.438 1.60168 -0.43994 0
M  V30 4483 O 406.623 1.79031 -0.659736 0
M  V30 4484 C 403.763 3.04969 -1.61518 0
M  V30 4485 C 402.876 3.21897 -2.88108 0
M  V30 4486 C 402.011 4.50608 -2.81294 0
M  V30 4487 C 401.05 4.60961 -4.02717 0
M  V30 4488 N 400.187 5.81024 -3.94151 0
M  V30 4489 H 405.027 1.55439 -2.54249 0
M  V30 4490 H 402.564 0.757219 -1.26113 0
M  V30 4491 H 404.522 3.85064 -1.60566 0
M  V30 4492 H 403.152 3.15015 -0.704645 0
M  V30 4493 H 402.204 2.35248 -2.98936 0
M  V30 4494 H 403.516 3.25412 -3.78032 0
M  V30 4495 H 402.67 5.3896 -2.7858 0
M  V30 4496 H 401.409 4.49568 -1.89049 0
M  V30 4497 H 400.414 3.71021 -4.05738 0
M  V30 4498 H 401.639 4.63761 -4.96087 0
M  V30 4499 H 399.585 5.80938 -3.04708 0
M  V30 4500 H 399.502 5.85909 -4.77752 0
M  V30 4501 H 400.77 6.71744 -3.9545 0
M  V30 4502 N 404.999 1.35443 0.805782 0
M  V30 4503 C 406.224 1.32037 1.59941 0
M  V30 4504 C 406.649 -0.0994215 1.87837 0
M  V30 4505 O 406.007 -1.06648 1.46615 0
M  V30 4506 C 406.055 2.13354 2.90711 0
M  V30 4507 O 405.159 1.5148 3.83572 0
M  V30 4508 H 404.5 0.452666 0.485787 0
M  V30 4509 H 407.03 1.78496 1.00002 0
M  V30 4510 H 407.04 2.25338 3.40128 0
M  V30 4511 H 405.715 3.16572 2.69732 0
M  V30 4512 H 404.292 1.4834 3.42125 0
M  V30 4513 N 406.477 -1.02803 1.19454 0
M  V30 4514 C 407.888 -1.57667 0.999899 0
M  V30 4515 C 408.239 -1.91041 -0.446956 0
M  V30 4516 O 407.364 -1.70978 -1.32648 0
M  V30 4517 C 407.959 -2.86477 1.80877 0
M  V30 4518 C 406.518 -3.37911 1.65811 0
M  V30 4519 C 405.665 -2.11343 1.79526 0
M  V30 4520 H 408.616 -0.853214 1.33813 0
M  V30 4521 H 408.637 -3.57408 1.30536 0
M  V30 4522 H 408.149 -2.62155 2.86175 0
M  V30 4523 H 406.25 -3.67218 0.63102 0
M  V30 4524 H 406.363 -4.10885 2.46395 0
M  V30 4525 H 404.727 -2.23254 1.22596 0
M  V30 4526 H 405.51 -1.89461 2.86285 0
M  V30 4527 N 407.956 -0.998596 -1.21925 0
M  V30 4528 C 409.181 -0.696015 -1.95372 0
M  V30 4529 C 409.606 0.733826 -1.73195 0
M  V30 4530 O 408.964 1.50242 -1.01474 0
M  V30 4531 C 409.012 -1.01466 -3.4603 0
M  V30 4532 O 408.116 -0.116415 -4.12236 0
M  V30 4533 H 407.457 -0.259938 -0.611006 0
M  V30 4534 H 409.987 -1.33711 -1.54863 0
M  V30 4535 H 409.997 -0.958855 -3.96573 0
M  V30 4536 H 408.672 -2.05653 -3.61497 0
M  V30 4537 H 407.249 -0.228193 -3.72201 0
M  V30 4538 N 409.434 1.37368 -0.772513 0
M  V30 4539 C 410.366 2.28899 -0.117502 0
M  V30 4540 C 411.379 1.4867 0.663405 0
M  V30 4541 O 412.568 1.71314 0.501372 0
M  V30 4542 C 409.668 3.2788 0.857192 0
M  V30 4543 C 408.841 4.37207 0.129938 0
M  V30 4544 C 407.9 5.16257 1.01811 0
M  V30 4545 O 406.926 5.67159 0.481601 0
M  V30 4546 N 408.128 5.31058 2.3443 0
M  V30 4547 H 410.893 2.85752 -0.903662 0
M  V30 4548 H 408.454 1.49353 -0.62493 0
M  V30 4549 H 410.446 3.77647 1.45482 0
M  V30 4550 H 409.016 2.7179 1.54432 0
M  V30 4551 H 408.236 3.88827 -0.648605 0
M  V30 4552 H 409.524 5.07434 -0.372559 0
M  V30 4553 H 408.922 4.91287 2.80452 0
M  V30 4554 H 407.479 5.84131 2.89197 0
M  V30 4555 N 410.912 0.523116 1.48665 0
M  V30 4556 C 412.14 -0.0096312 2.06898 0
M  V30 4557 C 412.555 -1.28784 1.38059 0
M  V30 4558 O 411.912 -1.76453 0.465893 0
M  V30 4559 C 411.963 -0.244386 3.60673 0
M  V30 4560 O 411.684 0.983172 4.26925 0
M  V30 4561 C 413.185 -0.818289 4.35682 0
M  V30 4562 H 410.405 0.0304161 0.67031 0
M  V30 4563 H 412.949 0.726799 1.91149 0
M  V30 4564 H 411.104 -0.930847 3.76051 0
M  V30 4565 H 411.518 0.759653 5.1897 0
M  V30 4566 H 412.992 -0.93201 5.44075 0
M  V30 4567 H 413.469 -1.82153 3.99646 0
M  V30 4568 H 414.075 -0.168609 4.24966 0
M  V30 4569 N 412.39 -1.55475 0.257931 0
M  V30 4570 C 413.801 -1.8511 -0.243135 0
M  V30 4571 C 414.152 -1.17986 -1.5676 0
M  V30 4572 O 413.277 -0.462102 -2.11409 0
M  V30 4573 C 413.872 -3.35826 -0.447929 0
M  V30 4574 C 412.431 -3.65647 -0.893245 0
M  V30 4575 C 411.578 -2.7729 0.0232965 0
M  V30 4576 H 414.529 -1.51261 0.480199 0
M  V30 4577 H 414.55 -3.58002 -1.28898 0
M  V30 4578 H 414.062 -3.84652 0.516196 0
M  V30 4579 H 412.163 -3.22308 -1.86945 0
M  V30 4580 H 412.276 -4.73312 -0.742469 0
M  V30 4581 H 410.64 -2.49942 -0.490021 0
M  V30 4582 H 411.423 -3.28926 0.982994 0
M  V30 4583 N 413.868 0.0150385 -1.57593 0
M  V30 4584 C 414.815 1.01126 -2.07466 0
M  V30 4585 C 415.785 1.35064 -0.966794 0
M  V30 4586 O 416.97 1.4516 -1.23827 0
M  V30 4587 C 414.11 2.30276 -2.57035 0
M  V30 4588 C 413.223 2.02373 -3.81666 0
M  V30 4589 C 412.358 3.25496 -4.19793 0
M  V30 4590 C 411.397 2.93211 -5.37303 0
M  V30 4591 N 410.534 4.08826 -5.70794 0
M  V30 4592 H 415.374 0.57901 -2.92321 0
M  V30 4593 H 412.911 0.27426 -1.44521 0
M  V30 4594 H 414.869 3.05757 -2.83846 0
M  V30 4595 H 413.499 2.71197 -1.75077 0
M  V30 4596 H 412.551 1.17327 -3.61854 0
M  V30 4597 H 413.863 1.74567 -4.67256 0
M  V30 4598 H 413.017 4.09333 -4.47807 0
M  V30 4599 H 411.756 3.56428 -3.32882 0
M  V30 4600 H 410.761 2.07777 -5.09027 0
M  V30 4601 H 411.986 2.63542 -6.25877 0
M  V30 4602 H 409.932 4.39682 -4.86842 0
M  V30 4603 H 409.849 3.84491 -6.50924 0
M  V30 4604 H 411.117 4.93496 -6.03392 0
M  V30 4605 N 415.346 1.54954 0.287554 0
M  V30 4606 C 416.256 1.8991 1.37736 0
M  V30 4607 C 417.272 0.794701 1.54792 0
M  V30 4608 O 418.448 1.09243 1.69198 0
M  V30 4609 C 415.513 2.15108 2.71899 0
M  V30 4610 C 414.574 3.38752 2.63715 0
M  V30 4611 C 413.807 3.62739 3.91479 0
M  V30 4612 O 414.03 2.89492 4.91478 0
M  V30 4613 O 412.964 4.56267 3.92561 0
M  V30 4614 H 416.79 2.82652 1.11092 0
M  V30 4615 H 414.375 1.41315 0.484807 0
M  V30 4616 H 416.257 2.32806 3.51254 0
M  V30 4617 H 414.932 1.25551 2.9836 0
M  V30 4618 H 413.839 3.26405 1.82786 0
M  V30 4619 H 415.172 4.28483 2.42205 0
M  V30 4620 N 416.824 -0.551391 1.4764 0
M  V30 4621 C 417.757 -1.6738 1.5511 0
M  V30 4622 C 418.735 -1.5753 0.402856 0
M  V30 4623 O 419.919 -1.78307 0.611475 0
M  V30 4624 C 417.046 -3.05661 1.45908 0
M  V30 4625 C 416.092 -3.33938 2.65307 0
M  V30 4626 S 416.925 -3.22553 4.27457 0
M  V30 4627 C 418.081 -4.63317 4.20818 0
M  V30 4628 H 418.314 -1.6079 2.50068 0
M  V30 4629 H 415.847 -0.732674 1.35909 0
M  V30 4630 H 417.805 -3.8542 1.41286 0
M  V30 4631 H 416.466 -3.09711 0.523248 0
M  V30 4632 H 415.659 -4.34761 2.54948 0
M  V30 4633 H 415.261 -2.61809 2.67081 0
M  V30 4634 H 417.553 -5.54391 3.89431 0
M  V30 4635 H 418.496 -4.78732 5.21748 0
M  V30 4636 H 418.904 -4.41636 3.51593 0
M  V30 4637 N 418.302 -1.35869 -0.798587 0
M  V30 4638 C 419.249 -1.29446 -1.91082 0
M  V30 4639 C 420.219 -0.16487 -1.6528 0
M  V30 4640 O 421.404 -0.349888 -1.87564 0
M  V30 4641 C 418.544 -1.0804 -3.27752 0
M  V30 4642 C 417.657 -2.29993 -3.65687 0
M  V30 4643 C 416.792 -2.01673 -4.91428 0
M  V30 4644 C 415.831 -3.19636 -5.22015 0
M  V30 4645 N 414.968 -2.91039 -6.38937 0
M  V30 4646 H 419.808 -2.24553 -1.95907 0
M  V30 4647 H 417.345 -1.11615 -0.958148 0
M  V30 4648 H 419.303 -0.936586 -4.06551 0
M  V30 4649 H 417.933 -0.16592 -3.22373 0
M  V30 4650 H 416.985 -2.55211 -2.82085 0
M  V30 4651 H 418.297 -3.18052 -3.84245 0
M  V30 4652 H 417.451 -1.84168 -5.78072 0
M  V30 4653 H 416.19 -1.10911 -4.74921 0
M  V30 4654 H 415.195 -3.37709 -4.33858 0
M  V30 4655 H 416.42 -4.11211 -5.40447 0
M  V30 4656 H 414.366 -2.0288 -6.2384 0
M  V30 4657 H 414.283 -3.72635 -6.57784 0
M  V30 4658 H 415.551 -2.77093 -7.28587 0
M  V30 4659 N 419.78 1.02168 -1.19998 0
M  V30 4660 C 421.005 1.79833 -1.03319 0
M  V30 4661 C 421.43 1.83504 0.413281 0
M  V30 4662 O 420.788 1.26635 1.29743 0
M  V30 4663 C 420.836 3.22396 -1.61533 0
M  V30 4664 O 419.94 4.03555 -0.849519 0
M  V30 4665 H 419.281 0.554872 -0.364709 0
M  V30 4666 H 421.811 1.28542 -1.59179 0
M  V30 4667 H 421.821 3.73124 -1.65054 0
M  V30 4668 H 420.496 3.19039 -2.66809 0
M  V30 4669 H 419.073 3.62169 -0.888129 0
M  V30 4670 N 421.258 1.00505 1.21394 0
M  V30 4671 C 422.669 0.721082 1.72213 0
M  V30 4672 C 423.02 -0.761263 1.80829 0
M  V30 4673 O 422.145 -1.59464 1.46288 0
M  V30 4674 C 422.74 1.30228 3.12772 0
M  V30 4675 C 421.299 1.06743 3.60947 0
M  V30 4676 C 420.446 1.41507 2.38477 0
M  V30 4677 H 423.397 1.17594 1.06571 0
M  V30 4678 H 423.418 0.686955 3.74247 0
M  V30 4679 H 422.93 2.38115 3.06468 0
M  V30 4680 H 421.031 0.00572162 3.726 0
M  V30 4681 H 421.144 1.73936 4.46411 0
M  V30 4682 H 419.508 0.833852 2.40664 0
M  V30 4683 H 420.291 2.50424 2.34824 0
M  V30 4684 N 422.737 -1.36956 0.779787 0
M  V30 4685 C 423.983 -1.99787 0.348281 0
M  V30 4686 C 424.316 -1.61756 -1.07465 0
M  V30 4687 O 423.591 -0.867639 -1.74075 0
M  V30 4688 C 423.874 -3.56597 0.50104 0
M  V30 4689 C 423.727 -4.04513 1.96697 0
M  V30 4690 C 425.046 -4.40008 -0.0898097 0
M  V30 4691 H 422.165 -0.725796 0.128022 0
M  V30 4692 H 424.807 -1.62514 0.984331 0
M  V30 4693 H 422.957 -3.88479 -0.0404347 0
M  V30 4694 H 424.629 -3.83161 2.56876 0
M  V30 4695 H 422.872 -3.56408 2.47297 0
M  V30 4696 H 423.543 -5.1352 2.02486 0
M  V30 4697 H 426.019 -4.14431 0.372293 0
M  V30 4698 H 424.895 -5.4888 0.0471605 0
M  V30 4699 H 425.156 -4.26035 -1.18096 0
M  V30 4700 N 424.215 -0.530993 -1.48385 0
M  V30 4701 C 425.461 0.00274135 -2.028 0
M  V30 4702 C 425.794 1.33838 -1.40716 0
M  V30 4703 O 425.069 1.86465 -0.553277 0
M  V30 4704 C 425.352 0.123676 -3.59888 0
M  V30 4705 C 425.205 -1.2372 -4.3245 0
M  V30 4706 C 426.524 0.849967 -4.31814 0
M  V30 4707 H 423.643 -0.000477758 -0.737 0
M  V30 4708 H 426.285 -0.688217 -1.77098 0
M  V30 4709 H 424.435 0.712157 -3.81917 0
M  V30 4710 H 426.107 -1.86687 -4.21836 0
M  V30 4711 H 424.35 -1.81882 -3.93829 0
M  V30 4712 H 425.021 -1.10557 -5.40815 0
M  V30 4713 H 427.497 0.350572 -4.14621 0
M  V30 4714 H 426.373 0.903486 -5.41413 0
M  V30 4715 H 426.634 1.90047 -3.99167 0
M  V30 4716 N 425.693 1.55336 -0.266172 0
M  V30 4717 C 426.94 1.99397 0.353158 0
M  V30 4718 C 427.268 1.15451 1.56529 0
M  V30 4719 O 426.523 0.209974 1.9457 0
M  V30 4720 C 426.822 3.48606 0.787957 0
M  V30 4721 C 426.488 4.49773 -0.318541 0
M  V30 4722 C 425.15 4.77158 -0.62239 0
M  V30 4723 C 427.502 5.10212 -1.06459 0
M  V30 4724 C 424.83 5.62251 -1.67602 0
M  V30 4725 C 427.182 5.96449 -2.10788 0
M  V30 4726 C 425.846 6.22158 -2.41817 0
M  V30 4727 H 425.116 0.729644 0.12923 0
M  V30 4728 H 427.763 1.87732 -0.37802 0
M  V30 4729 H 426.068 3.57701 1.59866 0
M  V30 4730 H 427.765 3.80098 1.27775 0
M  V30 4731 H 424.355 4.2854 -0.0715925 0
M  V30 4732 H 428.539 4.89086 -0.843098 0
M  V30 4733 H 423.795 5.80419 -1.92155 0
M  V30 4734 H 427.969 6.42317 -2.69076 0
M  V30 4735 H 425.596 6.87888 -3.23596 0
M  V30 4736 N 427.171 -0.0066808 1.57599 0
M  V30 4737 C 428.396 -0.707738 1.94951 0
M  V30 4738 C 428.821 -1.66882 0.867868 0
M  V30 4739 O 428.179 -1.80457 -0.17458 0
M  V30 4740 C 428.227 -1.42162 3.31394 0
M  V30 4741 O 427.331 -2.53578 3.25226 0
M  V30 4742 H 426.672 -0.188752 0.636607 0
M  V30 4743 H 429.202 0.0445193 2.04552 0
M  V30 4744 H 429.212 -1.78655 3.66806 0
M  V30 4745 H 427.887 -0.716903 4.09675 0
M  V30 4746 H 426.464 -2.19463 3.01481 0
M  V30 4747 N 428.649 -1.55105 -0.279332 0
M  V30 4748 C 429.581 -1.83952 -1.36727 0
M  V30 4749 C 430.594 -0.723642 -1.45833 0
M  V30 4750 O 431.783 -1.00141 -1.47763 0
M  V30 4751 C 428.883 -1.98183 -2.74912 0
M  V30 4752 C 428.056 -3.28787 -2.88475 0
M  V30 4753 C 427.115 -3.33162 -4.07295 0
M  V30 4754 O 426.141 -4.06576 -3.98353 0
M  V30 4755 N 427.343 -2.60109 -5.18964 0
M  V30 4756 H 430.108 -2.77853 -1.12328 0
M  V30 4757 H 427.669 -1.54945 -0.469442 0
M  V30 4758 H 429.661 -1.98488 -3.52682 0
M  V30 4759 H 428.231 -1.11177 -2.92162 0
M  V30 4760 H 427.451 -3.41075 -1.97641 0
M  V30 4761 H 428.739 -4.14933 -2.94463 0
M  V30 4762 H 428.137 -2.00136 -5.29115 0
M  V30 4763 H 426.694 -2.66143 -5.94988 0
M  V30 4764 N 430.127 0.543554 -1.4793 0
M  V30 4765 C 431.037 1.67657 -1.64098 0
M  V30 4766 C 432.053 1.65934 -0.523622 0
M  V30 4767 O 433.229 1.85133 -0.792943 0
M  V30 4768 C 430.294 3.04146 -1.66421 0
M  V30 4769 C 429.355 3.16831 -2.89684 0
M  V30 4770 C 428.588 4.46809 -2.91886 0
M  V30 4771 O 428.811 5.33095 -2.02895 0
M  V30 4772 O 427.745 4.63573 -3.83906 0
M  V30 4773 H 431.571 1.56957 -2.59997 0
M  V30 4774 H 429.156 0.715116 -1.31173 0
M  V30 4775 H 431.038 3.85346 -1.70548 0
M  V30 4776 H 429.713 3.152 -0.736923 0
M  V30 4777 H 428.62 2.34977 -2.91095 0
M  V30 4778 H 429.953 3.10687 -3.81752 0
M  V30 4779 N 431.605 1.3629 0.791371 0
M  V30 4780 C 432.882 1.20962 1.53712 0
M  V30 4781 C 433.262 -0.205021 2.10102 0
M  V30 4782 O 432.61 -1.21042 1.93807 0
M  V30 4783 C 432.82 2.29002 2.63361 0
M  V30 4784 C 434.168 2.65572 3.31295 0
M  V30 4785 O 435.192 2.2803 2.73643 0
M  V30 4786 O 434.051 3.3018 4.35481 0
M  V30 4787 H 431.145 0.47086 0.679867 0
M  V30 4788 H 433.691 1.48016 0.830021 0
M  V30 4789 H 432.463 3.2382 2.19674 0
M  V30 4790 H 432.086 2.03303 3.41692 0
M  V30 4791 N 433.083 -1.0153 1.20538 0
M  V30 4792 C 434.36 -1.72327 0.925343 0
M  V30 4793 C 434.74 -2.03383 -0.565547 0
M  V30 4794 O 434.088 -1.69934 -1.52757 0
M  V30 4795 C 434.298 -2.9902 1.79967 0
M  V30 4796 C 435.646 -3.72258 2.04228 0
M  V30 4797 O 436.67 -3.08979 1.77231 0
M  V30 4798 O 435.529 -4.86053 2.4983 0
M  V30 4799 H 432.623 -0.751099 0.346092 0
M  V30 4800 H 435.169 -1.07366 1.31417 0
M  V30 4801 H 433.941 -2.72402 2.80915 0
M  V30 4802 H 433.564 -3.71721 1.41099 0
M  V30 4803 N 434.561 -1.01147 -1.20859 0
M  V30 4804 C 435.977 -0.725422 -1.42161 0
M  V30 4805 C 436.177 0.696919 -1.89064 0
M  V30 4806 O 435.233 1.46539 -2.05627 0
M  V30 4807 C 436.546 -1.74678 -2.44761 0
M  V30 4808 C 438.094 -1.76433 -2.58535 0
M  V30 4809 C 438.569 -2.77481 -3.64374 0
M  V30 4810 N 440.06 -2.76189 -3.71852 0
M  V30 4811 C 440.795 -3.51035 -4.53389 0
M  V30 4812 N 440.291 -4.35541 -5.38773 0
M  V30 4813 N 442.084 -3.39655 -4.47873 0
M  V30 4814 H 434.235 -1.92979 -0.887282 0
M  V30 4815 H 436.498 -0.833327 -0.451962 0
M  V30 4816 H 436.204 -2.76551 -2.17285 0
M  V30 4817 H 436.078 -1.55472 -3.43669 0
M  V30 4818 H 438.465 -0.75248 -2.85345 0
M  V30 4819 H 438.546 -1.99712 -1.5984 0
M  V30 4820 H 438.19 -3.78827 -3.38308 0
M  V30 4821 H 438.12 -2.51466 -4.6268 0
M  V30 4822 H 440.611 -2.14885 -3.10858 0
M  V30 4823 H 440.924 -4.89432 -5.98061 0
M  V30 4824 H 439.269 -4.39621 -5.38292 0
M  V30 4825 H 442.46 -2.73063 -3.80203 0
M  V30 4826 H 442.633 -3.9824 -5.11184 0
M  V30 4827 N 436.039 1.36541 -0.78704 0
M  V30 4828 C 436.949 2.3387 -0.184896 0
M  V30 4829 C 437.965 1.60927 0.661697 0
M  V30 4830 O 439.141 1.92927 0.57804 0
M  V30 4831 C 436.206 3.40122 0.672145 0
M  V30 4832 C 435.267 4.28867 -0.19267 0
M  V30 4833 C 434.5 5.30045 0.623561 0
M  V30 4834 O 434.723 5.39232 1.8597 0
M  V30 4835 O 433.657 6.01895 0.0247068 0
M  V30 4836 H 437.483 2.87126 -0.989562 0
M  V30 4837 H 435.068 1.38969 -0.548455 0
M  V30 4838 H 436.95 4.05093 1.16094 0
M  V30 4839 H 435.625 2.89169 1.45474 0
M  V30 4840 H 434.532 3.66945 -0.728166 0
M  V30 4841 H 435.865 4.83165 -0.938722 0
M  V30 4842 N 437.518 0.538854 1.48102 0
M  V30 4843 C 438.764 0.00801365 2.02798 0
M  V30 4844 C 439.097 -1.3309 1.41424 0
M  V30 4845 O 438.372 -1.86169 0.563158 0
M  V30 4846 C 438.655 -0.104589 3.59948 0
M  V30 4847 C 438.508 1.26012 4.31788 0
M  V30 4848 C 439.827 -0.827055 4.32259 0
M  V30 4849 H 436.946 0.00438624 0.736987 0
M  V30 4850 H 439.588 0.6976 1.7673 0
M  V30 4851 H 437.738 -0.691893 3.82289 0
M  V30 4852 H 439.41 1.88922 4.2084 0
M  V30 4853 H 437.653 1.83968 3.92859 0
M  V30 4854 H 438.324 1.13424 5.40221 0
M  V30 4855 H 440.8 -0.328578 4.14801 0
M  V30 4856 H 439.676 -0.87476 5.41885 0
M  V30 4857 H 439.937 -1.87927 4.0017 0
M  V30 4858 N 438.996 -1.55193 0.274407 0
M  V30 4859 C 440.273 -1.91584 -0.394331 0
M  V30 4860 C 440.653 -1.19858 -1.73774 0
M  V30 4861 O 440.001 -0.3252 -2.26174 0
M  V30 4862 C 440.211 -3.4487 -0.535311 0
M  V30 4863 C 441.559 -4.16636 -0.818534 0
M  V30 4864 O 442.583 -3.5076 -0.620146 0
M  V30 4865 O 441.442 -5.33209 -1.19792 0
M  V30 4866 H 438.536 -0.798349 -0.215794 0
M  V30 4867 H 441.082 -1.66646 0.320507 0
M  V30 4868 H 439.854 -3.89145 0.410141 0
M  V30 4869 H 439.477 -3.75759 -1.29964 0
M  V30 4870 N 440.474 -0.00167713 -1.576 0
M  V30 4871 C 441.421 0.989195 -2.08527 0
M  V30 4872 C 442.391 1.34031 -0.981065 0
M  V30 4873 O 443.576 1.43839 -1.2536 0
M  V30 4874 C 440.716 2.27537 -2.59463 0
M  V30 4875 C 439.829 1.98314 -3.83791 0
M  V30 4876 C 438.964 3.21025 -4.23222 0
M  V30 4877 C 438.003 2.87495 -5.40382 0
M  V30 4878 N 437.14 4.02749 -5.75098 0
M  V30 4879 H 441.98 0.547973 -2.92919 0
M  V30 4880 H 439.517 0.258917 -1.44803 0
M  V30 4881 H 441.475 3.02729 -2.87073 0
M  V30 4882 H 440.105 2.69325 -1.77943 0
M  V30 4883 H 439.157 1.13482 -3.63078 0
M  V30 4884 H 440.469 1.69601 -4.69081 0
M  V30 4885 H 439.623 4.04561 -4.52123 0
M  V30 4886 H 438.362 3.52877 -3.36644 0
M  V30 4887 H 437.367 2.02367 -5.11202 0
M  V30 4888 H 438.592 2.56889 -6.28637 0
M  V30 4889 H 436.538 4.34494 -4.91478 0
M  V30 4890 H 436.455 3.77566 -6.54966 0
M  V30 4891 H 437.723 4.87068 -6.08592 0
M  V30 4892 N 441.952 1.55251 0.271103 0
M  V30 4893 C 442.882 1.9127 1.33933 0
M  V30 4894 C 443.863 0.77478 1.5143 0
M  V30 4895 O 445.048 1.03307 1.64442 0
M  V30 4896 C 442.178 2.18627 2.69851 0
M  V30 4897 C 441.132 3.34442 2.67081 0
M  V30 4898 C 440.458 3.47284 4.06569 0
M  V30 4899 C 441.758 4.70784 2.26185 0
M  V30 4900 H 443.452 2.80744 1.04035 0
M  V30 4901 H 440.998 1.35077 0.499017 0
M  V30 4902 H 442.951 2.42413 3.44694 0
M  V30 4903 H 441.675 1.25955 3.01335 0
M  V30 4904 H 440.334 3.10627 1.94695 0
M  V30 4905 H 439.982 2.52074 4.35279 0
M  V30 4906 H 439.682 4.25152 4.0561 0
M  V30 4907 H 441.206 3.73363 4.83148 0
M  V30 4908 H 442.62 4.94102 2.90751 0
M  V30 4909 H 441.017 5.51582 2.36384 0
M  V30 4910 H 442.087 4.69478 1.21319 0
M  V30 4911 N 443.43 -0.535701 1.48216 0
M  V30 4912 C 444.66 -1.3148 1.59363 0
M  V30 4913 C 445.068 -1.8753 0.250844 0
M  V30 4914 O 444.411 -1.66821 -0.769174 0
M  V30 4915 C 444.473 -2.50731 2.57632 0
M  V30 4916 C 444.137 -2.15811 4.02833 0
M  V30 4917 C 445.134 -1.71822 4.90686 0
M  V30 4918 C 442.819 -2.26509 4.48329 0
M  V30 4919 C 444.813 -1.3899 6.22062 0
M  V30 4920 C 442.5 -1.93289 5.79726 0
M  V30 4921 C 443.498 -1.49599 6.66415 0
M  V30 4922 O 443.186 -1.16812 7.95368 0
M  V30 4923 H 442.918 -0.406315 0.540263 0
M  V30 4924 H 445.472 -0.653569 1.94725 0
M  V30 4925 H 443.702 -3.19817 2.1738 0
M  V30 4926 H 445.391 -3.12797 2.58675 0
M  V30 4927 H 446.157 -1.63031 4.56778 0
M  V30 4928 H 442.036 -2.59471 3.81045 0
M  V30 4929 H 445.58 -1.04816 6.89681 0
M  V30 4930 H 441.477 -2.01718 6.13172 0
M  V30 4931 H 442.245 -1.30259 8.08069 0
M  V30 4932 N 444.908 -1.36708 -0.784132 0
M  V30 4933 C 446.148 -1.32618 -1.55537 0
M  V30 4934 C 446.512 0.0920681 -1.91779 0
M  V30 4935 O 447.713 0.257573 -2.67563 0
M  V30 4936 C 445.984 -2.22788 -2.79464 0
M  V30 4937 S 447.543 -2.36432 -3.69656 0
M  V30 4938 H 444.361 -0.470973 -0.53264 0
M  V30 4939 H 446.963 -1.72333 -0.92312 0
M  V30 4940 H 445.667 -3.24774 -2.50899 0
M  V30 4941 H 445.198 -1.84112 -3.47658 0
M  V30 4942 H 447.213 -1.56573 -4.7085 0
M  V30 4943 N 446.386 1.0089 -1.21074 0
M  V30 4944 C 447.633 1.74607 -1.0256 0
M  V30 4945 C 447.961 1.89426 0.44136 0
M  V30 4946 O 447.216 1.42266 1.34384 0
M  V30 4947 C 447.515 3.16335 -1.66334 0
M  V30 4948 C 447.181 3.21474 -3.16173 0
M  V30 4949 C 445.843 3.22583 -3.57062 0
M  V30 4950 C 448.195 3.19025 -4.12156 0
M  V30 4951 C 445.523 3.18925 -4.92446 0
M  V30 4952 C 447.875 3.16909 -5.47496 0
M  V30 4953 C 446.539 3.16326 -5.87787 0
M  V30 4954 H 445.809 0.638933 -0.375294 0
M  V30 4955 H 448.456 1.18274 -1.50611 0
M  V30 4956 H 446.761 3.75876 -1.10566 0
M  V30 4957 H 448.458 3.72083 -1.49516 0
M  V30 4958 H 445.048 3.2135 -2.83605 0
M  V30 4959 H 449.232 3.17332 -3.81595 0
M  V30 4960 H 444.488 3.16809 -5.22917 0
M  V30 4961 H 448.662 3.13968 -6.21609 0
M  V30 4962 H 446.289 3.13246 -6.92662 0
M  V30 4963 N 447.864 1.01787 1.20321 0
M  V30 4964 C 449.275 0.739307 1.71438 0
M  V30 4965 C 449.626 -0.742041 1.81627 0
M  V30 4966 O 448.751 -1.57903 1.47971 0
M  V30 4967 C 449.346 1.33538 3.11373 0
M  V30 4968 C 447.905 1.10566 3.59795 0
M  V30 4969 C 447.052 1.44028 2.36962 0
M  V30 4970 H 450.003 1.18718 1.05317 0
M  V30 4971 H 450.024 0.726611 3.73498 0
M  V30 4972 H 449.536 2.41352 3.03926 0
M  V30 4973 H 447.637 0.0452405 3.72573 0
M  V30 4974 H 447.75 1.78661 4.44542 0
M  V30 4975 H 446.114 0.85933 2.39766 0
M  V30 4976 H 446.897 2.52901 2.32155 0
M  V30 4977 N 449.342 -1.36122 0.79427 0
M  V30 4978 C 450.272 -2.32551 0.210328 0
M  V30 4979 C 451.253 -1.56884 -0.657386 0
M  V30 4980 O 452.438 -1.85014 -0.590207 0
M  V30 4981 C 449.568 -3.41128 -0.651819 0
M  V30 4982 C 448.522 -4.27842 0.116395 0
M  V30 4983 C 447.848 -5.2763 -0.86666 0
M  V30 4984 C 449.148 -5.05647 1.30837 0
M  V30 4985 H 450.842 -2.81636 1.01594 0
M  V30 4986 H 448.388 -1.35407 0.489981 0
M  V30 4987 H 450.341 -4.07581 -1.07031 0
M  V30 4988 H 449.065 -2.90622 -1.49019 0
M  V30 4989 H 447.724 -3.62952 0.515915 0
M  V30 4990 H 447.372 -4.73395 -1.70019 0
M  V30 4991 H 447.072 -5.86514 -0.35705 0
M  V30 4992 H 448.596 -5.96955 -1.28361 0
M  V30 4993 H 450.01 -5.65113 0.965393 0
M  V30 4994 H 448.407 -5.73967 1.75161 0
M  V30 4995 H 449.477 -4.37006 2.10128 0
M  V30 4996 N 450.82 -0.546701 -1.47814 0
M  V30 4997 C 452.097 0.0464413 -1.95545 0
M  V30 4998 C 452.477 1.4962 -1.48919 0
M  V30 4999 O 451.825 2.16752 -0.723232 0
M  V30 5000 C 452.035 -0.0881298 -3.48889 0
M  V30 5001 C 453.383 0.0626059 -4.24554 0
M  V30 5002 O 454.407 -0.0151555 -3.56197 0
M  V30 5003 O 453.266 0.228071 -5.46024 0
M  V30 5004 H 450.36 0.0700004 -0.824032 0
M  V30 5005 H 452.906 -0.612482 -1.58262 0
M  V30 5006 H 451.678 -1.09737 -3.75597 0
M  V30 5007 H 451.301 0.608886 -3.9291 0
M  V30 5008 N 452.299 1.55045 -0.282633 0
M  V30 5009 C 453.548 1.98938 0.332667 0
M  V30 5010 C 453.861 1.17455 1.56409 0
M  V30 5011 O 455.067 1.51527 2.25282 0
M  V30 5012 C 453.523 3.54105 0.643226 0
M  V30 5013 C 453.131 4.44374 -0.568814 0
M  V30 5014 C 454.875 4.06569 1.22074 0
M  V30 5015 C 452.782 5.90943 -0.232426 0
M  V30 5016 H 451.712 0.743043 0.128075 0
M  V30 5017 H 454.363 1.79341 -0.388464 0
M  V30 5018 H 452.745 3.69532 1.42346 0
M  V30 5019 H 453.919 4.40718 -1.34551 0
M  V30 5020 H 452.234 4.02585 -1.06369 0
M  V30 5021 H 454.831 5.13626 1.48635 0
M  V30 5022 H 455.174 3.56057 2.15707 0
M  V30 5023 H 455.707 3.94612 0.502621 0
M  V30 5024 H 452.446 6.45567 -1.13683 0
M  V30 5025 H 451.966 5.9765 0.507357 0
M  V30 5026 H 453.645 6.4677 0.172657 0
M  V30 5027 N 453.777 0.010035 1.57597 0
M  V30 5028 C 455.023 -0.673697 1.91283 0
M  V30 5029 C 455.356 -1.72863 0.884979 0
M  V30 5030 O 454.631 -1.94268 -0.0949487 0
M  V30 5031 C 454.914 -1.30766 3.35518 0
M  V30 5032 C 454.767 -0.263578 4.49027 0
M  V30 5033 C 456.086 -2.23105 3.79358 0
M  V30 5034 H 453.205 -0.243439 0.695634 0
M  V30 5035 H 455.847 0.0633864 1.89894 0
M  V30 5036 H 453.997 -1.93588 3.36832 0
M  V30 5037 H 455.669 0.365738 4.59848 0
M  V30 5038 H 453.912 0.413077 4.31829 0
M  V30 5039 H 454.583 -0.746398 5.4693 0
M  V30 5040 H 457.059 -1.70289 3.79659 0
M  V30 5041 H 455.935 -2.64424 4.81011 0
M  V30 5042 H 456.196 -3.11433 3.13787 0
M  V30 5043 N 455.255 -1.55392 -0.262866 0
M  V30 5044 C 456.205 -1.85355 -1.32768 0
M  V30 5045 C 457.189 -0.713188 -1.44231 0
M  V30 5046 O 458.381 -0.974765 -1.47741 0
M  V30 5047 C 455.51 -2.13781 -2.68612 0
M  V30 5048 C 454.596 -3.34104 -2.61219 0
M  V30 5049 N 454.987 -4.53766 -2.2345 0
M  V30 5050 C 453.285 -3.36895 -2.92263 0
M  V30 5051 C 453.986 -5.35877 -2.26298 0
M  V30 5052 N 452.962 -4.74536 -2.65172 0
M  V30 5053 H 456.764 -2.75413 -1.02591 0
M  V30 5054 H 454.278 -1.55405 -0.471503 0
M  V30 5055 H 456.275 -2.33407 -3.45437 0
M  V30 5056 H 454.935 -1.25013 -2.99669 0
M  V30 5057 H 455.946 -4.79682 -1.95258 0
M  V30 5058 H 452.623 -2.58351 -3.27965 0
M  V30 5059 H 454.013 -6.41577 -1.99572 0
M  V30 5060 N 456.733 0.527833 -1.48498 0
M  V30 5061 C 457.666 1.64892 -1.57753 0
M  V30 5062 C 458.644 1.5687 -0.427867 0
M  V30 5063 O 459.828 1.77311 -0.639764 0
M  V30 5064 C 456.955 3.03301 -1.50752 0
M  V30 5065 C 456.001 3.29675 -2.70586 0
M  V30 5066 S 456.834 3.15712 -4.32535 0
M  V30 5067 C 457.99 4.56564 -4.28136 0
M  V30 5068 H 458.223 1.56792 -2.52594 0
M  V30 5069 H 455.756 0.710959 -1.37057 0
M  V30 5070 H 457.714 3.83123 -1.474 0
M  V30 5071 H 456.375 3.08839 -0.572454 0
M  V30 5072 H 455.568 4.3065 -2.61833 0
M  V30 5073 H 455.17 2.57526 -2.71212 0
M  V30 5074 H 457.462 5.48126 -3.98201 0
M  V30 5075 H 458.405 4.70371 -5.29298 0
M  V30 5076 H 458.813 4.35987 -3.58574 0
M  V30 5077 N 458.211 1.37122 0.776871 0
M  V30 5078 C 459.143 1.28342 1.89897 0
M  V30 5079 C 460.156 0.200277 1.61563 0
M  V30 5080 O 461.345 0.456012 1.72577 0
M  V30 5081 C 458.445 0.960427 3.25006 0
M  V30 5082 C 457.618 2.148 3.81025 0
M  V30 5083 C 456.677 1.79608 4.94598 0
M  V30 5084 O 455.703 2.51845 5.10454 0
M  V30 5085 N 456.905 0.737171 5.758 0
M  V30 5086 H 459.67 2.25027 1.97947 0
M  V30 5087 H 457.231 1.3068 0.955739 0
M  V30 5088 H 459.223 0.705942 3.98495 0
M  V30 5089 H 457.793 0.0823066 3.12492 0
M  V30 5090 H 457.013 2.56454 2.99374 0
M  V30 5091 H 458.301 2.9411 4.15183 0
M  V30 5092 H 457.699 0.137637 5.65533 0
M  V30 5093 H 456.256 0.542534 6.49538 0
M  V30 5094 N 459.689 -1.00246 1.21608 0
M  V30 5095 C 460.652 -2.07233 0.979133 0
M  V30 5096 C 461.652 -1.6072 -0.0508219 0
M  V30 5097 O 462.842 -1.73196 0.186712 0
M  V30 5098 C 459.974 -3.37546 0.477016 0
M  V30 5099 H 461.167 -2.29687 1.92831 0
M  V30 5100 H 458.72 -1.17261 1.03342 0
M  V30 5101 H 459.455 -3.20773 -0.476966 0
M  V30 5102 H 459.24 -3.72638 1.21997 0
M  V30 5103 H 460.73 -4.16285 0.331181 0
M  V30 5104 N 461.167 -1.02423 -1.1978 0
M  V30 5105 C 462.13 -0.605703 -2.21052 0
M  V30 5106 C 463.13 0.328209 -1.57415 0
M  V30 5107 O 464.32 0.115853 -1.73814 0
M  V30 5108 C 461.452 0.114366 -3.40708 0
M  V30 5109 H 462.645 -1.5017 -2.59594 0
M  V30 5110 H 460.198 -0.814888 -1.33376 0
M  V30 5111 H 460.933 1.02492 -3.07678 0
M  V30 5112 H 460.718 -0.556641 -3.88129 0
M  V30 5113 H 462.208 0.394272 -4.15735 0
M  V30 5114 N 462.645 1.35699 -0.801477 0
M  V30 5115 C 463.608 2.28199 -0.213994 0
M  V30 5116 C 464.608 1.49359 0.595691 0
M  V30 5117 O 465.798 1.69186 0.414921 0
M  V30 5118 C 462.93 3.33587 0.702297 0
M  V30 5119 H 464.123 2.81666 -1.02976 0
M  V30 5120 H 461.676 1.45467 -0.571759 0
M  V30 5121 H 462.411 2.85297 1.54195 0
M  V30 5122 H 462.196 3.91906 0.123484 0
M  V30 5123 H 463.686 4.02638 1.10783 0
M  V30 5124 N 464.123 0.554532 1.47522 0
M  V30 5125 C 465.033 -0.197865 2.33764 0
M  V30 5126 C 466.049 -0.914576 1.48025 0
M  V30 5127 O 467.225 -0.884067 1.80959 0
M  V30 5128 C 464.29 -1.21628 3.24665 0
M  V30 5129 C 463.351 -0.507283 4.26292 0
M  V30 5130 C 462.584 -1.47718 5.1285 0
M  V30 5131 O 462.807 -2.7118 5.01814 0
M  V30 5132 O 461.741 -1.00313 5.93482 0
M  V30 5133 H 465.567 0.50949 2.99396 0
M  V30 5134 H 463.152 0.315176 1.46038 0
M  V30 5135 H 465.034 -1.80421 3.80823 0
M  V30 5136 H 463.709 -1.9056 2.61665 0
M  V30 5137 H 462.616 0.121778 3.73902 0
M  V30 5138 H 463.949 0.140544 4.91999 0
M  V30 5139 N 465.601 -1.54893 0.290851 0
M  V30 5140 C 466.849 -1.99538 -0.320756 0
M  V30 5141 C 467.17 -1.18075 -1.55188 0
M  V30 5142 O 466.44 -0.274162 -1.93972 0
M  V30 5143 H 465.02 -0.737052 -0.121507 0
M  V30 5144 H 467.682 -1.90755 0.399832 0
M  V30 5145 H 466.778 -3.06282 -0.599802 0
M  V30 5146 N 467.08 -0.0183926 -1.57589 0
M  V30 5147 C 468.305 0.676634 -1.96052 0
M  V30 5148 C 468.73 1.6548 -0.894307 0
M  V30 5149 O 468.088 1.80712 0.145849 0
M  V30 5150 C 468.136 1.36872 -3.33614 0
M  V30 5151 O 467.24 2.48372 -3.29219 0
M  V30 5152 H 466.581 0.1786 -0.63953 0
M  V30 5153 H 469.111 -0.077056 -2.04455 0
M  V30 5154 H 469.121 1.72797 -3.69601 0
M  V30 5155 H 467.796 0.651636 -4.10763 0
M  V30 5156 H 466.373 2.14639 -3.04934 0
M  V30 5157 N 468.558 1.5553 0.254621 0
M  V30 5158 C 469.783 1.81383 1.00573 0
M  V30 5159 C 470.208 0.594419 1.78461 0
M  V30 5160 O 469.566 -0.456403 1.75461 0
M  V30 5161 C 469.614 3.04892 1.92545 0
M  V30 5162 O 468.718 2.81266 3.01601 0
M  V30 5163 H 468.059 0.598969 0.286587 0
M  V30 5164 H 470.589 2.02703 0.277952 0
M  V30 5165 H 470.599 3.34119 2.34155 0
M  V30 5166 H 469.274 3.93287 1.3527 0
M  V30 5167 H 467.851 2.63185 2.64174 0
M  V30 5168 N 470.036 -0.519951 1.48776 0
M  V30 5169 C 471.452 -0.849418 1.35119 0
M  V30 5170 C 471.652 -1.98077 0.36982 0
M  V30 5171 O 470.708 -2.51664 -0.205359 0
M  V30 5172 C 472.021 -1.20748 2.75391 0
M  V30 5173 C 473.569 -1.31679 2.83954 0
M  V30 5174 C 474.044 -1.70824 4.24951 0
M  V30 5175 N 475.535 -1.77908 4.27672 0
M  V30 5176 C 476.27 -2.09603 5.33717 0
M  V30 5177 N 475.766 -2.39652 6.5003 0
M  V30 5178 N 477.559 -2.10694 5.21119 0
M  V30 5179 H 469.71 0.226377 2.1119 0
M  V30 5180 H 471.973 0.0386519 0.947212 0
M  V30 5181 H 471.679 -0.449703 3.48813 0
M  V30 5182 H 471.553 -2.15534 3.09556 0
M  V30 5183 H 473.94 -2.06532 2.10781 0
M  V30 5184 H 474.021 -0.3499 2.53396 0
M  V30 5185 H 473.665 -0.965282 4.98643 0
M  V30 5186 H 473.595 -2.6858 4.52959 0
M  V30 5187 H 476.086 -1.56923 3.43779 0
M  V30 5188 H 476.399 -2.6297 7.26682 0
M  V30 5189 H 474.744 -2.37149 6.53288 0
M  V30 5190 H 477.935 -1.86682 4.29264 0
M  V30 5191 H 478.108 -2.35062 6.03863 0
M  V30 5192 N 471.514 -1.37532 -0.769588 0
M  V30 5193 C 472.791 -1.23392 -1.51768 0
M  V30 5194 C 473.171 0.17157 -2.10402 0
M  V30 5195 O 472.519 1.17943 -1.95708 0
M  V30 5196 C 472.729 -2.33163 -2.59685 0
M  V30 5197 C 474.077 -2.70809 -3.27028 0
M  V30 5198 O 475.101 -2.32355 -2.69981 0
M  V30 5199 O 473.96 -3.37066 -4.30173 0
M  V30 5200 H 471.054 -0.481617 -0.67229 0
M  V30 5201 H 473.6 -1.49318 -0.806368 0
M  V30 5202 H 472.372 -3.27273 -2.14494 0
M  V30 5203 H 471.995 -2.08713 -3.38415 0
M  V30 5204 N 472.992 0.995999 -1.22138 0
M  V30 5205 C 474.222 1.76809 -1.06874 0
M  V30 5206 C 474.63 1.85265 0.383866 0
M  V30 5207 O 473.973 1.31969 1.27789 0
M  V30 5208 C 474.035 3.2186 -1.60144 0
M  V30 5209 C 473.699 3.36958 -3.0872 0
M  V30 5210 C 474.696 3.2452 -4.0618 0
M  V30 5211 C 472.381 3.62109 -3.48112 0
M  V30 5212 C 474.375 3.37013 -5.41019 0
M  V30 5213 C 472.062 3.74243 -4.831 0
M  V30 5214 C 473.06 3.61702 -5.79362 0
M  V30 5215 O 472.748 3.73436 -7.119 0
M  V30 5216 H 472.48 0.562207 -0.375365 0
M  V30 5217 H 475.034 1.26113 -1.62125 0
M  V30 5218 H 473.264 3.73734 -0.992981 0
M  V30 5219 H 474.953 3.80775 -1.40589 0
M  V30 5220 H 475.719 3.05004 -3.77091 0
M  V30 5221 H 471.598 3.70949 -2.73712 0
M  V30 5222 H 475.142 3.27141 -6.16137 0
M  V30 5223 H 471.039 3.93266 -5.11872 0
M  V30 5224 H 471.807 3.90328 -7.19435 0
M  V30 5225 N 474.47 1.03057 1.19235 0
M  V30 5226 C 475.716 0.729098 1.89241 0
M  V30 5227 C 476.049 -0.740573 1.79525 0
M  V30 5228 O 475.324 -1.53946 1.18874 0
M  V30 5229 C 475.607 1.18304 3.40112 0
M  V30 5230 C 475.46 2.71406 3.5869 0
M  V30 5231 C 476.779 0.765161 4.33397 0
M  V30 5232 H 473.898 0.266338 0.687192 0
M  V30 5233 H 476.54 1.28079 1.40341 0
M  V30 5234 H 474.69 0.713672 3.81889 0
M  V30 5235 H 476.362 3.26303 3.26074 0
M  V30 5236 H 474.605 3.11717 3.01687 0
M  V30 5237 H 475.276 2.98225 4.64506 0
M  V30 5238 H 477.752 1.16889 3.99345 0
M  V30 5239 H 476.628 1.11065 5.37546 0
M  V30 5240 H 476.889 -0.332372 4.40849 0
M  V30 5241 N 475.948 -1.35272 0.808662 0
M  V30 5242 C 476.911 -2.28082 0.226093 0
M  V30 5243 C 477.911 -1.49673 -0.587762 0
M  V30 5244 O 479.101 -1.69404 -0.405943 0
M  V30 5245 C 476.233 -3.33955 -0.684596 0
M  V30 5246 H 477.426 -2.81116 1.04469 0
M  V30 5247 H 474.979 -1.45162 0.579466 0
M  V30 5248 H 475.714 -2.86111 -1.5268 0
M  V30 5249 H 475.499 -3.91965 -0.102699 0
M  V30 5250 H 476.989 -4.03219 -1.08646 0
M  V30 5251 N 477.426 -0.562348 -1.47226 0
M  V30 5252 C 478.672 -0.0402761 -2.0276 0
M  V30 5253 C 479.005 1.30823 -1.43523 0
M  V30 5254 O 478.28 1.85249 -0.592705 0
M  V30 5255 C 478.563 0.047311 -3.60069 0
M  V30 5256 C 478.416 -1.32865 -4.29729 0
M  V30 5257 C 479.735 0.758182 -4.3352 0
M  V30 5258 H 476.854 -0.0161105 -0.736824 0
M  V30 5259 H 479.496 -0.725628 -1.75598 0
M  V30 5260 H 477.646 0.630986 -3.83342 0
M  V30 5261 H 479.318 -1.95593 -4.17781 0
M  V30 5262 H 477.561 -1.90195 -3.89882 0
M  V30 5263 H 478.232 -1.22004 -5.38349 0
M  V30 5264 H 480.708 0.262546 -4.15271 0
M  V30 5265 H 479.584 0.78844 -5.43208 0
M  V30 5266 H 479.845 1.81537 -4.03109 0
M  V30 5267 N 478.904 1.54736 -0.299062 0
M  V30 5268 C 479.852 2.24897 0.593658 0
M  V30 5269 C 480.846 1.25429 1.13859 0
M  V30 5270 O 482.052 1.43286 1.08945 0
M  V30 5271 H 478.427 0.72207 0.210046 0
M  V30 5272 H 480.398 2.98393 -0.0206421 0
M  V30 5273 C 479.147 3.00159 1.75499 0
M  V30 5274 H 478.47 3.76501 1.34489 0
M  V30 5275 H 479.91 3.52535 2.35574 0
M  V30 5276 C 478.369 2.07015 2.65794 0
M  V30 5277 O 478.899 1.63692 3.66835 0
M  V30 5278 N 477.105 1.73012 2.33485 0
M  V30 5279 H 476.652 2.08439 1.51364 0
M  V30 5280 H 476.61 1.10965 2.94167 0
M  V30 5281 N 480.382 0.0267497 1.57577 0
M  V30 5282 C 481.798 -0.32962 1.56159 0
M  V30 5283 C 481.998 -1.73059 1.03213 0
M  V30 5284 O 481.054 -2.43233 0.677804 0
M  V30 5285 C 482.367 -0.18039 3.00158 0
M  V30 5286 C 483.915 -0.253334 3.11973 0
M  V30 5287 C 484.39 -0.132921 4.57807 0
M  V30 5288 N 485.881 -0.189979 4.6281 0
M  V30 5289 C 486.616 -0.120554 5.73273 0
M  V30 5290 N 486.112 -0.000180315 6.928 0
M  V30 5291 N 487.905 -0.174369 5.61829 0
M  V30 5292 H 480.056 0.942896 1.90324 0
M  V30 5293 H 482.319 0.3639 0.875375 0
M  V30 5294 H 482.025 0.784576 3.42837 0
M  V30 5295 H 481.899 -0.951565 3.65 0
M  V30 5296 H 484.286 -1.20876 2.69208 0
M  V30 5297 H 484.367 0.548177 2.49857 0
M  V30 5298 H 484.011 0.819073 5.01252 0
M  V30 5299 H 483.941 -0.953264 5.179 0
M  V30 5300 H 486.432 -0.283257 3.76837 0
M  V30 5301 H 486.745 0.0461666 7.72786 0
M  V30 5302 H 485.09 0.034569 6.94991 0
M  V30 5303 H 488.281 -0.266794 4.67339 0
M  V30 5304 H 488.454 -0.116802 6.47895 0
M  V30 5305 N 481.861 -1.55662 -0.24637 0
M  V30 5306 C 483.086 -1.81914 -0.996093 0
M  V30 5307 C 483.511 -0.603875 -1.78143 0
M  V30 5308 O 482.869 0.447091 -1.75701 0
M  V30 5309 C 482.917 -3.05908 -1.90925 0
M  V30 5310 O 482.021 -2.82861 -3.00105 0
M  V30 5311 H 481.362 -0.600481 -0.283406 0
M  V30 5312 H 483.892 -2.02848 -0.267199 0
M  V30 5313 H 483.902 -3.35356 -2.3238 0
M  V30 5314 H 482.577 -3.93999 -1.33183 0
M  V30 5315 H 481.154 -2.64583 -2.62775 0
M  V30 5316 N 483.339 0.512053 -1.4905 0
M  V30 5317 C 484.289 1.61142 -1.61298 0
M  V30 5318 C 485.273 1.53908 -0.46916 0
M  V30 5319 O 486.465 1.61625 -0.721547 0
M  V30 5320 C 483.594 2.998 -1.67256 0
M  V30 5321 C 482.68 3.12072 -2.87179 0
M  V30 5322 N 483.071 2.94263 -4.11391 0
M  V30 5323 C 481.369 3.43156 -2.84886 0
M  V30 5324 C 482.07 3.10426 -4.91946 0
M  V30 5325 N 481.046 3.38808 -4.251 0
M  V30 5326 H 484.848 1.46011 -2.55065 0
M  V30 5327 H 482.362 0.717934 -1.45669 0
M  V30 5328 H 484.359 3.78794 -1.74128 0
M  V30 5329 H 483.019 3.1601 -0.746195 0
M  V30 5330 H 484.03 2.70661 -4.41546 0
M  V30 5331 H 480.707 3.65611 -2.01581 0
M  V30 5332 H 482.097 3.01243 -6.00585 0
M  V30 5333 N 484.817 1.37938 0.762283 0
M  V30 5334 C 486.065 1.33404 1.51815 0
M  V30 5335 C 486.386 -0.0780975 1.94844 0
M  V30 5336 O 485.656 -1.02405 1.67003 0
M  V30 5337 H 484.236 0.490839 0.563104 0
M  V30 5338 H 486.898 1.72527 0.906669 0
M  V30 5339 H 485.994 1.97926 2.41313 0
M  V30 5340 N 486.295 -0.989507 1.22664 0
M  V30 5341 C 487.227 -2.0824 0.957542 0
M  V30 5342 C 488.24 -1.6267 -0.0651098 0
M  V30 5343 O 489.429 -1.77695 0.169312 0
M  V30 5344 C 486.529 -3.36298 0.419145 0
M  V30 5345 C 485.702 -4.10882 1.49982 0
M  V30 5346 C 484.761 -5.17221 0.967904 0
M  V30 5347 O 483.787 -5.44613 1.65487 0
M  V30 5348 N 484.989 -5.80124 -0.20896 0
M  V30 5349 H 487.754 -2.31904 1.89843 0
M  V30 5350 H 485.315 -1.15552 1.13399 0
M  V30 5351 H 487.307 -4.04671 0.0485451 0
M  V30 5352 H 485.877 -3.09671 -0.426937 0
M  V30 5353 H 485.097 -3.37092 2.04359 0
M  V30 5354 H 486.385 -4.57482 2.22682 0
M  V30 5355 H 485.783 -5.60244 -0.783818 0
M  V30 5356 H 484.34 -6.49715 -0.520913 0
M  V30 5357 N 487.773 -1.03688 -1.18687 0
M  V30 5358 C 488.703 -0.645407 -2.24403 0
M  V30 5359 C 489.684 0.349511 -1.66471 0
M  V30 5360 O 490.869 0.230453 -1.92828 0
M  V30 5361 C 487.999 -0.00365337 -3.473 0
M  V30 5362 C 486.953 -0.921705 -4.17958 0
M  V30 5363 C 486.279 -0.144629 -5.34504 0
M  V30 5364 C 487.579 -2.23909 -4.71871 0
M  V30 5365 H 489.273 -1.52917 -2.57404 0
M  V30 5366 H 486.819 -0.736711 -1.23728 0
M  V30 5367 H 488.772 0.281908 -4.20456 0
M  V30 5368 H 487.496 0.914963 -3.13522 0
M  V30 5369 H 486.155 -1.19159 -3.46694 0
M  V30 5370 H 485.803 0.776274 -4.96974 0
M  V30 5371 H 485.503 -0.756206 -5.82714 0
M  V30 5372 H 487.027 0.134004 -6.10453 0
M  V30 5373 H 488.441 -2.0145 -5.36741 0
M  V30 5374 H 486.838 -2.8033 -5.30599 0
M  V30 5375 H 487.908 -2.88822 -3.895 0
M  V30 5376 N 489.251 1.34841 -0.815825 0
M  V30 5377 C 490.198 2.29644 -0.230664 0
M  V30 5378 C 491.168 1.53253 0.640533 0
M  V30 5379 O 492.353 1.81653 0.583672 0
M  V30 5380 C 489.493 3.39715 0.607275 0
M  V30 5381 C 488.606 4.31056 -0.28538 0
M  V30 5382 C 487.741 5.28225 0.561446 0
M  V30 5383 C 486.78 6.11204 -0.331035 0
M  V30 5384 N 485.917 7.00483 0.476302 0
M  V30 5385 H 490.757 2.79095 -1.0445 0
M  V30 5386 H 488.294 1.37351 -0.526595 0
M  V30 5387 H 490.252 4.02208 1.10835 0
M  V30 5388 H 488.882 2.91517 1.38629 0
M  V30 5389 H 487.934 3.69487 -0.904621 0
M  V30 5390 H 489.246 4.89239 -0.97193 0
M  V30 5391 H 488.4 5.96135 1.12728 0
M  V30 5392 H 487.139 4.70562 1.28153 0
M  V30 5393 H 486.144 5.42232 -0.909069 0
M  V30 5394 H 487.369 6.70947 -1.04912 0
M  V30 5395 H 485.315 6.45296 1.18019 0
M  V30 5396 H 485.232 7.55847 -0.152008 0
M  V30 5397 H 486.5 7.7273 1.02512 0
M  V30 5398 N 490.729 0.570148 1.46925 0
M  V30 5399 C 491.957 0.0561966 2.06824 0
M  V30 5400 C 492.372 -1.24326 1.42086 0
M  V30 5401 O 491.729 -1.74882 0.521794 0
M  V30 5402 C 491.78 -0.129517 3.61268 0
M  V30 5403 O 491.501 1.1185 4.23581 0
M  V30 5404 C 493.002 -0.679266 4.38065 0
M  V30 5405 H 490.222 0.0517261 0.669003 0
M  V30 5406 H 492.766 0.787243 1.8874 0
M  V30 5407 H 490.921 -0.810739 3.78822 0
M  V30 5408 H 491.335 0.924375 5.1629 0
M  V30 5409 H 492.809 -0.758445 5.46765 0
M  V30 5410 H 493.286 -1.69346 4.05239 0
M  V30 5411 H 493.892 -0.0333237 4.25287 0
M  V30 5412 N 492.207 -1.54576 0.307264 0
M  V30 5413 C 493.484 -1.92377 -0.353605 0
M  V30 5414 C 493.864 -1.23517 -1.71192 0
M  V30 5415 O 493.212 -0.373101 -2.25433 0
M  V30 5416 C 493.422 -3.45928 -0.462039 0
M  V30 5417 C 494.77 -4.18278 -0.729975 0
M  V30 5418 O 495.794 -3.51997 -0.545605 0
M  V30 5419 O 494.653 -5.3563 -1.08454 0
M  V30 5420 H 491.747 -0.802747 -0.198812 0
M  V30 5421 H 494.293 -1.65929 0.355783 0
M  V30 5422 H 493.065 -3.88187 0.492592 0
M  V30 5423 H 492.688 -3.78431 -1.21965 0
M  V30 5424 N 493.685 -0.035106 -1.57561 0
M  V30 5425 C 494.595 0.960295 -2.14046 0
M  V30 5426 C 495.611 1.3529 -1.0942 0
M  V30 5427 O 496.787 1.43309 -1.41508 0
M  V30 5428 C 493.852 2.22214 -2.66124 0
M  V30 5429 C 492.913 1.8894 -3.85487 0
M  V30 5430 C 492.146 3.09109 -4.35072 0
M  V30 5431 O 492.369 4.21963 -3.83802 0
M  V30 5432 O 491.303 2.91058 -5.26848 0
M  V30 5433 H 495.129 0.509983 -2.99387 0
M  V30 5434 H 492.714 0.185853 -1.48239 0
M  V30 5435 H 494.596 2.96279 -2.99661 0
M  V30 5436 H 493.271 2.66414 -1.83862 0
M  V30 5437 H 492.178 1.12241 -3.56865 0
M  V30 5438 H 493.511 1.49551 -4.6893 0
M  V30 5439 N 495.163 1.55791 0.238111 0
M  V30 5440 C 496.095 1.87513 1.31802 0
M  V30 5441 C 497.108 0.762053 1.43863 0
M  V30 5442 O 498.297 1.04024 1.45056 0
M  V30 5443 C 495.397 2.05402 2.69561 0
M  V30 5444 C 494.57 3.3632 2.79656 0
M  V30 5445 C 493.629 3.43844 3.98319 0
M  V30 5446 O 492.655 4.16994 3.87433 0
M  V30 5447 N 493.857 2.73777 5.11885 0
M  V30 5448 H 496.622 2.80734 1.04922 0
M  V30 5449 H 494.183 1.56135 0.428196 0
M  V30 5450 H 496.175 2.07769 3.47296 0
M  V30 5451 H 494.745 1.18884 2.89111 0
M  V30 5452 H 493.965 3.46195 1.88528 0
M  V30 5453 H 495.253 4.22594 2.83358 0
M  V30 5454 H 494.651 2.14094 5.23622 0
M  V30 5455 H 493.208 2.81825 5.87723 0
M  V30 5456 N 496.642 -0.504142 1.49319 0
M  V30 5457 C 497.89 -1.25598 1.58334 0
M  V30 5458 C 498.211 -1.93114 0.270538 0
M  V30 5459 O 497.481 -1.82585 -0.709891 0
M  V30 5460 H 496.061 -0.466571 0.58337 0
M  V30 5461 H 498.723 -0.584547 1.85928 0
M  V30 5462 H 497.819 -2.02159 2.37778 0
M  V30 5463 N 498.12 -1.38341 -0.754957 0
M  V30 5464 C 499.05 -1.38176 -1.88227 0
M  V30 5465 C 500.031 -0.247873 -1.68284 0
M  V30 5466 O 501.216 -0.45075 -1.88896 0
M  V30 5467 C 498.346 -1.20471 -3.25736 0
M  V30 5468 C 497.3 -2.3105 -3.60278 0
M  V30 5469 C 496.626 -1.98452 -4.96509 0
M  V30 5470 C 497.926 -3.73305 -3.65295 0
M  V30 5471 H 499.62 -2.32512 -1.88622 0
M  V30 5472 H 497.166 -1.1192 -0.906082 0
M  V30 5473 H 499.119 -1.18982 -4.04254 0
M  V30 5474 H 497.843 -0.225965 -3.25817 0
M  V30 5475 H 496.502 -2.31723 -2.84078 0
M  V30 5476 H 496.15 -0.990641 -4.93148 0
M  V30 5477 H 495.85 -2.7251 -5.20588 0
M  V30 5478 H 497.374 -1.98578 -5.77407 0
M  V30 5479 H 498.788 -3.7467 -4.3393 0
M  V30 5480 H 497.185 -4.46557 -4.00883 0
M  V30 5481 H 498.255 -4.05719 -2.65556 0
M  V30 5482 N 499.598 0.982988 -1.23187 0
M  V30 5483 C 500.546 2.09616 -1.00817 0
M  V30 5484 C 501.54 1.6932 0.0519995 0
M  V30 5485 O 502.746 1.79715 -0.101284 0
M  V30 5486 H 499.121 0.685628 -0.308899 0
M  V30 5487 H 501.092 2.25652 -1.95253 0
M  V30 5488 C 499.841 3.42249 -0.613243 0
M  V30 5489 H 499.164 3.73705 -1.42073 0
M  V30 5490 H 500.604 4.21086 -0.496208 0
M  V30 5491 C 499.063 3.30002 0.678233 0
M  V30 5492 O 499.593 3.6263 1.72807 0
M  V30 5493 N 497.799 2.83164 0.653165 0
M  V30 5494 H 497.346 2.56811 -0.201492 0
M  V30 5495 H 497.304 2.75352 1.51752 0
M  V30 5496 N 501.076 1.04316 1.18135 0
M  V30 5497 C 502.304 0.768117 1.92113 0
M  V30 5498 C 502.719 -0.675057 1.76319 0
M  V30 5499 O 502.076 -1.46038 1.09449 0
M  V30 5500 C 502.127 1.12808 3.43448 0
M  V30 5501 O 501.848 2.5146 3.58747 0
M  V30 5502 C 503.349 0.8779 4.3452 0
M  V30 5503 H 500.569 0.279937 0.609817 0
M  V30 5504 H 503.113 1.39149 1.49859 0
M  V30 5505 H 501.268 0.549623 3.83481 0
M  V30 5506 H 501.682 2.65313 4.52448 0
M  V30 5507 H 503.156 1.17959 5.39249 0
M  V30 5508 H 503.633 -0.187239 4.38801 0
M  V30 5509 H 504.239 1.43977 4.00188 0
M  V30 5510 N 502.554 -1.34406 0.822964 0
M  V30 5511 C 503.504 -2.26963 0.217208 0
M  V30 5512 C 504.488 -1.48536 -0.618545 0
M  V30 5513 O 505.68 -1.7056 -0.473118 0
M  V30 5514 C 502.809 -3.37655 -0.619973 0
M  V30 5515 C 501.895 -4.23495 0.226411 0
M  V30 5516 N 502.286 -4.88876 1.29744 0
M  V30 5517 C 500.584 -4.45999 0.0107554 0
M  V30 5518 C 501.285 -5.52642 1.81553 0
M  V30 5519 N 500.261 -5.31949 1.11942 0
M  V30 5520 H 504.063 -2.75017 1.03647 0
M  V30 5521 H 501.577 -1.48126 0.665777 0
M  V30 5522 H 503.574 -4.02932 -1.07011 0
M  V30 5523 H 502.234 -2.91151 -1.43739 0
M  V30 5524 H 503.245 -4.89886 1.68024 0
M  V30 5525 H 499.922 -4.10253 -0.774495 0
M  V30 5526 H 501.312 -6.14755 2.71156 0
M  V30 5527 N 504.032 -0.577932 -1.46621 0
M  V30 5528 C 505.28 -0.061566 -2.02006 0
M  V30 5529 C 505.601 1.30117 -1.4524 0
M  V30 5530 O 504.871 1.85313 -0.63529 0
M  V30 5531 H 503.451 -0.0197692 -0.746738 0
M  V30 5532 H 506.113 -0.752631 -1.79782 0
M  V30 5533 H 505.209 0.0110238 -3.12098 0
M  V30 5534 N 505.51 1.54411 -0.315457 0
M  V30 5535 C 506.473 2.22713 0.54142 0
M  V30 5536 C 507.473 1.2179 1.04995 0
M  V30 5537 O 508.663 1.46426 0.943667 0
M  V30 5538 C 505.795 2.92485 1.75116 0
M  V30 5539 H 506.988 2.99849 -0.0555508 0
M  V30 5540 H 504.541 1.56159 -0.0664453 0
M  V30 5541 H 505.276 2.19466 2.38758 0
M  V30 5542 H 505.061 3.66483 1.39401 0
M  V30 5543 H 506.551 3.44548 2.35959 0
M  V30 5544 N 506.988 0.0434614 1.5754 0
M  V30 5545 C 508.213 -0.645358 1.97104 0
M  V30 5546 C 508.638 -1.64037 0.920521 0
M  V30 5547 O 507.996 -1.80922 -0.11708 0
M  V30 5548 C 508.044 -1.31547 3.35749 0
M  V30 5549 O 507.148 -2.43103 3.33129 0
M  V30 5550 H 506.489 -0.168403 0.64229 0
M  V30 5551 H 509.019 0.109573 2.04306 0
M  V30 5552 H 509.029 -1.66895 3.72304 0
M  V30 5553 H 507.704 -0.586205 4.11748 0
M  V30 5554 H 506.281 -2.0976 3.0831 0
M  V30 5555 N 508.466 -1.55915 -0.229846 0
M  V30 5556 C 509.376 -1.94891 -1.30593 0
M  V30 5557 C 510.392 -0.851604 -1.51736 0
M  V30 5558 O 511.568 -1.15447 -1.65027 0
M  V30 5559 C 508.633 -2.25052 -2.63728 0
M  V30 5560 C 507.694 -3.48306 -2.5096 0
M  V30 5561 C 506.927 -3.77019 -3.77747 0
M  V30 5562 O 507.15 -3.07534 -4.80395 0
M  V30 5563 O 506.084 -4.70523 -3.75356 0
M  V30 5564 H 509.91 -2.86581 -1.00525 0
M  V30 5565 H 507.495 -1.43017 -0.432025 0
M  V30 5566 H 509.377 -2.45682 -3.42372 0
M  V30 5567 H 508.052 -1.36538 -2.93495 0
M  V30 5568 H 506.959 -3.32964 -1.70546 0
M  V30 5569 H 508.292 -4.37177 -2.26136 0
M  V30 5570 N 509.944 0.496216 -1.49584 0
M  V30 5571 C 511.193 1.24668 -1.58558 0
M  V30 5572 C 511.506 1.9359 -0.279703 0
M  V30 5573 O 512.712 2.70365 -0.248048 0
M  V30 5574 C 511.168 2.26388 -2.79779 0
M  V30 5575 C 510.776 1.63384 -4.17145 0
M  V30 5576 C 512.52 3.02233 -2.98086 0
M  V30 5577 C 510.427 2.63243 -5.29582 0
M  V30 5578 H 509.357 0.468995 -0.590389 0
M  V30 5579 H 512.008 0.519985 -1.75978 0
M  V30 5580 H 510.39 3.02241 -2.55863 0
M  V30 5581 H 511.564 0.93491 -4.51216 0
M  V30 5582 H 509.879 0.999121 -4.04236 0
M  V30 5583 H 512.476 3.76919 -3.79257 0
M  V30 5584 H 512.819 3.60132 -2.08831 0
M  V30 5585 H 513.352 2.33495 -3.22063 0
M  V30 5586 H 510.091 2.10119 -6.20911 0
M  V30 5587 H 509.611 3.31363 -4.99959 0
M  V30 5588 H 511.29 3.25575 -5.59115 0
M  V30 5589 N 511.423 1.38739 0.74761 0
M  V30 5590 C 512.648 1.38702 1.54197 0
M  V30 5591 C 513.073 -0.019664 1.8809 0
M  V30 5592 O 512.431 -1.00333 1.51006 0
M  V30 5593 C 512.479 2.25492 2.814 0
M  V30 5594 O 511.583 1.67613 3.76802 0
M  V30 5595 H 510.924 0.472863 0.466151 0
M  V30 5596 H 513.454 1.82577 0.923413 0
M  V30 5597 H 513.464 2.39561 3.30264 0
M  V30 5598 H 512.139 3.27727 2.56062 0
M  V30 5599 H 510.716 1.62718 3.35526 0
M  V30 5600 N 512.901 -0.976442 1.23707 0
M  V30 5601 C 513.811 -2.10359 1.03856 0
M  V30 5602 C 514.827 -1.73991 -0.0180919 0
M  V30 5603 O 516.003 -2.0061 0.178211 0
M  V30 5604 C 513.068 -3.40809 0.636387 0
M  V30 5605 C 512.129 -3.91179 1.76854 0
M  V30 5606 C 511.362 -5.15404 1.38546 0
M  V30 5607 O 511.585 -5.69754 0.27142 0
M  V30 5608 O 510.519 -5.5994 2.20797 0
M  V30 5609 H 514.345 -2.29997 1.98331 0
M  V30 5610 H 511.93 -1.08742 1.02448 0
M  V30 5611 H 513.812 -4.19269 0.423223 0
M  V30 5612 H 512.487 -3.22493 -0.279322 0
M  V30 5613 H 511.394 -3.13819 2.03638 0
M  V30 5614 H 512.727 -4.13958 2.6627 0
M  V30 5615 N 514.379 -1.04941 -1.1758 0
M  V30 5616 C 515.656 -0.671918 -1.83697 0
M  V30 5617 C 516.036 0.847929 -1.93322 0
M  V30 5618 O 515.384 1.75287 -1.46583 0
M  V30 5619 C 515.594 -1.35797 -3.21497 0
M  V30 5620 C 516.942 -1.4944 -3.97433 0
M  V30 5621 O 517.966 -1.31678 -3.30967 0
M  V30 5622 O 516.825 -1.78463 -5.1654 0
M  V30 5623 H 513.919 -0.236212 -0.792548 0
M  V30 5624 H 516.465 -1.14884 -1.24899 0
M  V30 5625 H 515.237 -2.39498 -3.09446 0
M  V30 5626 H 514.86 -0.870236 -3.8796 0
M  V30 5627 N 515.857 1.33968 -0.830081 0
M  V30 5628 C 516.789 2.28194 -0.21448 0
M  V30 5629 C 517.802 1.5135 0.599752 0
M  V30 5630 O 518.991 1.73286 0.42826 0
M  V30 5631 C 516.091 3.31221 0.717356 0
M  V30 5632 C 515.264 4.37365 -0.055613 0
M  V30 5633 C 514.323 5.2011 0.798231 0
M  V30 5634 O 513.349 5.68691 0.240616 0
M  V30 5635 N 514.551 5.40523 2.11695 0
M  V30 5636 H 517.316 2.81662 -1.02405 0
M  V30 5637 H 514.877 1.46568 -0.687713 0
M  V30 5638 H 516.869 3.83477 1.29334 0
M  V30 5639 H 515.439 2.78095 1.42765 0
M  V30 5640 H 514.659 3.85727 -0.812936 0
M  V30 5641 H 515.947 5.05397 -0.587444 0
M  V30 5642 H 515.345 5.0274 2.59363 0
M  V30 5643 H 513.902 5.95871 2.64162 0
M  V30 5644 N 517.335 0.585699 1.46312 0
M  V30 5645 C 518.268 -0.194257 2.27372 0
M  V30 5646 C 519.246 -0.894116 1.3581 0
M  V30 5647 O 520.43 -0.907402 1.65222 0
M  V30 5648 C 517.557 -1.27901 3.13622 0
M  V30 5649 C 516.603 -0.684666 4.20969 0
M  V30 5650 S 517.436 0.490745 5.33247 0
M  V30 5651 C 518.592 -0.595137 6.23064 0
M  V30 5652 H 518.825 0.493515 2.93175 0
M  V30 5653 H 516.358 0.372666 1.49835 0
M  V30 5654 H 518.316 -1.90008 3.63878 0
M  V30 5655 H 516.977 -1.93875 2.47126 0
M  V30 5656 H 516.17 -1.50015 4.81156 0
M  V30 5657 H 515.772 -0.139204 3.73741 0
M  V30 5658 H 518.064 -1.48002 6.61137 0
M  V30 5659 H 519.007 -0.0299446 7.08094 0
M  V30 5660 H 519.415 -0.900627 5.57269 0
M  V30 5661 N 518.813 -1.54241 0.323641 0
M  V30 5662 C 519.743 -2.27289 -0.534993 0
M  V30 5663 C 520.724 -1.28087 -1.11927 0
M  V30 5664 O 521.909 -1.56899 -1.14439 0
M  V30 5665 C 519.039 -3.03075 -1.69596 0
M  V30 5666 C 517.993 -4.09614 -1.24098 0
M  V30 5667 C 517.319 -4.73242 -2.4889 0
M  V30 5668 C 518.619 -5.21087 -0.355789 0
M  V30 5669 H 520.313 -2.99308 0.0743257 0
M  V30 5670 H 517.859 -1.43952 0.0371874 0
M  V30 5671 H 519.812 -3.52907 -2.30293 0
M  V30 5672 H 518.536 -2.28673 -2.33187 0
M  V30 5673 H 517.195 -3.60666 -0.656945 0
M  V30 5674 H 516.843 -3.95455 -3.10845 0
M  V30 5675 H 516.543 -5.45209 -2.19138 0
M  V30 5676 H 518.067 -5.25848 -3.10348 0
M  V30 5677 H 519.481 -5.66675 -0.869042 0
M  V30 5678 H 517.878 -5.9991 -0.151045 0
M  V30 5679 H 518.948 -4.81005 0.613339 0
M  V30 5680 N 520.291 -0.0518155 -1.57515 0
M  V30 5681 C 521.539 0.620595 -1.92336 0
M  V30 5682 C 521.86 1.71345 -0.930907 0
M  V30 5683 O 521.13 1.95885 0.0241341 0
M  V30 5684 H 519.71 0.232226 -0.709986 0
M  V30 5685 H 522.372 -0.104969 -1.94617 0
M  V30 5686 H 521.468 1.05879 -2.93592 0
M  V30 5687 N 521.769 1.56035 0.221574 0
M  V30 5688 C 523.046 1.69837 0.970301 0
M  V30 5689 C 523.426 0.599065 2.02421 0
M  V30 5690 O 522.774 -0.393929 2.25079 0
M  V30 5691 C 522.984 3.11148 1.58076 0
M  V30 5692 C 524.332 3.70555 2.07302 0
M  V30 5693 O 525.356 3.14109 1.6797 0
M  V30 5694 O 524.215 4.69562 2.79596 0
M  V30 5695 H 521.309 0.691727 0.453257 0
M  V30 5696 H 523.855 1.68353 0.213358 0
M  V30 5697 H 522.627 3.82617 0.819759 0
M  V30 5698 H 522.25 3.16749 2.40324 0
M  V30 5699 N 523.247 -0.488276 1.49845 0
M  V30 5700 C 524.472 -1.26997 1.63971 0
M  V30 5701 C 524.897 -1.85427 0.315994 0
M  V30 5702 O 524.255 -1.66475 -0.718032 0
M  V30 5703 C 524.303 -2.36689 2.72049 0
M  V30 5704 O 523.407 -3.40882 2.32107 0
M  V30 5705 H 522.748 -0.374376 0.548396 0
M  V30 5706 H 525.278 -0.583104 1.96115 0
M  V30 5707 H 525.288 -2.82262 2.94605 0
M  V30 5708 H 523.963 -1.93529 3.68129 0
M  V30 5709 H 522.54 -3.01139 2.19931 0
M  V30 5710 N 524.725 -1.39134 -0.740242 0
M  V30 5711 C 525.657 -1.33332 -1.86428 0
M  V30 5712 C 526.67 -0.243042 -1.60976 0
M  V30 5713 O 527.859 -0.501608 -1.71307 0
M  V30 5714 C 524.959 -1.04626 -3.22346 0
M  V30 5715 C 524.132 -2.24826 -3.75196 0
M  V30 5716 C 523.191 -1.92659 -4.89662 0
M  V30 5717 O 522.217 -2.6529 -5.03597 0
M  V30 5718 N 523.419 -0.889575 -5.73643 0
M  V30 5719 H 526.184 -2.30196 -1.91911 0
M  V30 5720 H 523.745 -1.33168 -0.920756 0
M  V30 5721 H 525.737 -0.811347 -3.96484 0
M  V30 5722 H 524.307 -0.165129 -3.12164 0
M  V30 5723 H 523.527 -2.64301 -2.9247 0
M  V30 5724 H 524.815 -3.05015 -4.07239 0
M  V30 5725 H 524.213 -0.287529 -5.64969 0
M  V30 5726 H 522.77 -0.714557 -6.47871 0
M  V30 5727 N 526.204 0.969867 -1.24223 0
M  V30 5728 C 527.429 1.75289 -1.10853 0
M  V30 5729 C 527.854 1.85091 0.335079 0
M  V30 5730 O 527.212 1.32024 1.24255 0
M  V30 5731 C 527.26 3.15255 -1.75062 0
M  V30 5732 O 526.364 3.99589 -1.01992 0
M  V30 5733 H 525.705 0.538904 -0.387915 0
M  V30 5734 H 528.235 1.21675 -1.64488 0
M  V30 5735 H 528.245 3.65787 -1.80731 0
M  V30 5736 H 526.92 3.07436 -2.801 0
M  V30 5737 H 525.497 3.58077 -1.04094 0
M  V30 5738 N 527.682 1.05563 1.17022 0
M  V30 5739 C 528.929 0.767937 1.87374 0
M  V30 5740 C 529.257 -0.705224 1.81265 0
M  V30 5741 O 528.512 -1.5318 1.21796 0
M  V30 5742 C 528.811 1.19849 3.36706 0
M  V30 5743 C 528.477 2.6745 3.63017 0
M  V30 5744 C 527.139 3.0777 3.69907 0
M  V30 5745 C 529.491 3.62811 3.74189 0
M  V30 5746 C 526.819 4.42307 3.85463 0
M  V30 5747 C 529.171 4.97087 3.91264 0
M  V30 5748 C 527.835 5.37055 3.96394 0
M  V30 5749 H 527.105 0.281008 0.68565 0
M  V30 5750 H 529.752 1.32339 1.38415 0
M  V30 5751 H 528.057 0.562096 3.87747 0
M  V30 5752 H 529.754 0.953038 3.8951 0
M  V30 5753 H 526.344 2.35228 3.58282 0
M  V30 5754 H 530.528 3.32798 3.68183 0
M  V30 5755 H 525.784 4.72769 3.87684 0
M  V30 5756 H 529.958 5.70869 3.9885 0
M  V30 5757 H 527.585 6.41308 4.082 0
M  V30 5758 N 529.16 -1.33526 0.837174 0
M  V30 5759 C 530.385 -2.0258 0.444545 0
M  V30 5760 C 530.81 -1.6258 -0.946006 0
M  V30 5761 O 530.168 -0.817548 -1.6182 0
M  V30 5762 C 530.216 -3.5605 0.571006 0
M  V30 5763 O 529.32 -4.10422 -0.403431 0
M  V30 5764 H 528.661 -0.638866 0.180958 0
M  V30 5765 H 531.191 -1.70462 1.13154 0
M  V30 5766 H 531.201 -4.05488 0.452024 0
M  V30 5767 H 529.876 -3.84509 1.58512 0
M  V30 5768 H 528.453 -3.72113 -0.242147 0
M  V30 5769 N 530.638 -0.59345 -1.46 0
M  V30 5770 C 532.054 -0.255965 -1.57534 0
M  V30 5771 C 532.254 1.24167 -1.58697 0
M  V30 5772 O 531.31 2.02398 -1.50968 0
M  V30 5773 C 532.623 -0.91466 -2.86451 0
M  V30 5774 C 534.171 -0.889253 -3.00102 0
M  V30 5775 C 534.646 -1.52769 -4.3177 0
M  V30 5776 N 536.137 -1.49253 -4.38495 0
M  V30 5777 C 536.872 -1.9558 -5.39014 0
M  V30 5778 N 536.368 -2.49929 -6.46148 0
M  V30 5779 N 538.161 -1.86432 -5.30282 0
M  V30 5780 H 530.312 -1.56604 -1.43489 0
M  V30 5781 H 532.575 -0.655207 -0.685133 0
M  V30 5782 H 532.281 -1.96861 -2.91442 0
M  V30 5783 H 532.155 -0.429356 -3.74748 0
M  V30 5784 H 534.542 0.156111 -2.94687 0
M  V30 5785 H 534.623 -1.41268 -2.13253 0
M  V30 5786 H 534.267 -2.57231 -4.37944 0
M  V30 5787 H 534.197 -0.979398 -5.17412 0
M  V30 5788 H 536.688 -1.09536 -3.61677 0
M  V30 5789 H 537.001 -2.83109 -7.19075 0
M  V30 5790 H 535.346 -2.53961 -6.46938 0
M  V30 5791 H 538.537 -1.43722 -4.4549 0
M  V30 5792 H 538.71 -2.22852 -6.08474 0
M  V30 5793 N 532.116 1.54067 -0.331816 0
M  V30 5794 C 533.344 2.05131 0.269996 0
M  V30 5795 C 533.759 1.20749 1.45138 0
M  V30 5796 O 533.116 0.240069 1.80914 0
M  V30 5797 C 533.167 3.54728 0.696456 0
M  V30 5798 O 532.888 4.35906 -0.43794 0
M  V30 5799 C 534.389 4.21916 1.36021 0
M  V30 5800 H 531.609 0.668807 0.0542042 0
M  V30 5801 H 534.153 1.98777 -0.4804 0
M  V30 5802 H 532.308 3.61342 1.39681 0
M  V30 5803 H 532.722 5.24404 -0.100334 0
M  V30 5804 H 534.196 5.28015 1.60947 0
M  V30 5805 H 534.673 3.73538 2.31011 0
M  V30 5806 H 535.279 4.19463 0.702212 0
M  V30 5807 N 533.594 0.0601682 1.57485 0
M  V30 5808 C 534.871 -0.651956 1.84415 0
M  V30 5809 C 535.251 -1.88498 0.950361 0
M  V30 5810 O 534.599 -2.28496 0.0136719 0
M  V30 5811 C 534.809 -1.00069 3.34346 0
M  V30 5812 C 536.157 -1.37915 4.01578 0
M  V30 5813 O 537.181 -1.09277 3.39024 0
M  V30 5814 O 536.04 -1.91399 5.11887 0
M  V30 5815 H 533.134 -0.322668 0.761455 0
M  V30 5816 H 535.68 0.0902159 1.6946 0
M  V30 5817 H 534.452 -0.124463 3.91102 0
M  V30 5818 H 534.075 -1.80001 3.54521 0
M  V30 5819 N 535.072 -1.5615 -0.213296 0
M  V30 5820 C 536.297 -1.83986 -0.957282 0
M  V30 5821 C 536.722 -0.641526 -1.76822 0
M  V30 5822 O 536.08 0.409722 -1.7661 0
M  V30 5823 C 536.128 -3.09889 -1.84393 0
M  V30 5824 O 535.232 -2.89163 -2.94038 0
M  V30 5825 H 534.573 -0.606357 -0.270605 0
M  V30 5826 H 537.103 -2.03369 -0.224111 0
M  V30 5827 H 537.113 -3.40209 -2.25215 0
M  V30 5828 H 535.788 -3.96735 -1.24795 0
M  V30 5829 H 534.365 -2.70097 -2.57103 0
M  V30 5830 N 536.55 0.480323 -1.50102 0
M  V30 5831 C 537.827 1.24159 -1.51142 0
M  V30 5832 C 538.207 2.09605 -0.250818 0
M  V30 5833 O 537.555 2.15274 0.766118 0
M  V30 5834 C 537.765 2.08057 -2.80202 0
M  V30 5835 C 539.113 2.66556 -3.30504 0
M  V30 5836 O 540.137 2.18308 -2.81461 0
M  V30 5837 O 538.996 3.54442 -4.15973 0
M  V30 5838 H 536.09 0.562928 -0.605839 0
M  V30 5839 H 538.636 0.492899 -1.62384 0
M  V30 5840 H 537.408 1.45032 -3.6343 0
M  V30 5841 H 537.031 2.90079 -2.71919 0
M  V30 5842 N 538.028 1.39524 0.732853 0
M  V30 5843 C 539.256 1.40143 1.52209 0
M  V30 5844 C 539.671 -0.00348836 1.888 0
M  V30 5845 O 539.028 -0.975357 1.5425 0
M  V30 5846 C 539.079 2.27632 2.8083 0
M  V30 5847 O 538.8 3.62654 2.45792 0
M  V30 5848 C 540.301 2.36658 3.74844 0
M  V30 5849 H 537.521 0.478604 0.470297 0
M  V30 5850 H 540.065 1.83366 0.905388 0
M  V30 5851 H 538.22 1.87818 3.38826 0
M  V30 5852 H 538.634 4.08941 3.28431 0
M  V30 5853 H 540.108 3.02118 4.61984 0
M  V30 5854 H 540.585 1.38638 4.16745 0
M  V30 5855 H 541.191 2.76951 3.22766 0
M  V30 5856 N 539.506 -0.963266 1.24736 0
M  V30 5857 C 540.734 -1.74166 1.11686 0
M  V30 5858 C 541.149 -1.8589 -0.330187 0
M  V30 5859 O 540.506 -1.35042 -1.2276 0
M  V30 5860 C 540.557 -3.15989 1.75595 0
M  V30 5861 O 540.278 -3.04847 3.14642 0
M  V30 5862 C 541.779 -4.10145 1.68213 0
M  V30 5863 H 538.999 -0.546031 0.389989 0
M  V30 5864 H 541.543 -1.20907 1.64929 0
M  V30 5865 H 539.698 -3.66219 1.26343 0
M  V30 5866 H 540.112 -3.9425 3.4593 0
M  V30 5867 H 541.586 -5.07299 2.17604 0
M  V30 5868 H 542.063 -4.3445 0.644208 0
M  V30 5869 H 542.669 -3.65827 2.16912 0
M  V30 5870 N 540.985 -1.06182 -1.16461 0
M  V30 5871 C 542.213 -0.798583 -1.90867 0
M  V30 5872 C 542.628 0.646921 -1.77371 0
M  V30 5873 O 541.985 1.44279 -1.11758 0
M  V30 5874 C 542.036 -1.18258 -3.4161 0
M  V30 5875 O 541.757 -2.57135 -3.54701 0
M  V30 5876 C 543.258 -0.946917 -4.33069 0
M  V30 5877 H 540.478 -0.289603 -0.605286 0
M  V30 5878 H 543.022 -1.41515 -1.47627 0
M  V30 5879 H 541.177 -0.610562 -3.82558 0
M  V30 5880 H 541.591 -2.72477 -4.4817 0
M  V30 5881 H 543.065 -1.26523 -5.37304 0
M  V30 5882 H 543.542 0.117406 -4.39043 0
M  V30 5883 H 544.148 -1.50326 -3.97847 0
M  V30 5884 N 542.463 1.3308 -0.844243 0
M  V30 5885 C 543.373 2.32876 -0.283922 0
M  V30 5886 C 544.389 1.63589 0.592846 0
M  V30 5887 O 545.565 1.95205 0.495693 0
M  V30 5888 C 542.63 3.42667 0.527283 0
M  V30 5889 C 541.691 4.27664 -0.374394 0
M  V30 5890 C 540.924 5.32212 0.39819 0
M  V30 5891 O 541.147 5.46635 1.62932 0
M  V30 5892 O 540.081 6.01458 -0.2306 0
M  V30 5893 H 543.907 2.82671 -1.11045 0
M  V30 5894 H 541.492 1.36518 -0.606903 0
M  V30 5895 H 543.374 4.09652 0.988078 0
M  V30 5896 H 542.049 2.95079 1.33078 0
M  V30 5897 H 540.956 3.63526 -0.883144 0
M  V30 5898 H 542.289 4.78749 -1.1428 0
M  V30 5899 N 543.941 0.601185 1.45683 0
M  V30 5900 C 545.169 0.100054 2.06658 0
M  V30 5901 C 545.584 -1.21285 1.44691 0
M  V30 5902 O 544.941 -1.73735 0.558772 0
M  V30 5903 C 544.992 -0.0528579 3.61461 0
M  V30 5904 O 544.713 1.20809 4.21114 0
M  V30 5905 C 546.214 -0.586193 4.39407 0
M  V30 5906 H 543.434 0.065905 0.667756 0
M  V30 5907 H 545.978 0.827101 1.87028 0
M  V30 5908 H 544.133 -0.730203 3.80456 0
M  V30 5909 H 544.547 1.03368 5.14213 0
M  V30 5910 H 546.021 -0.642297 5.4825 0
M  V30 5911 H 546.498 -1.60713 4.0874 0
M  V30 5912 H 547.104 0.0568935 4.25262 0
M  V30 5913 N 545.419 -1.53889 0.339982 0
M  V30 5914 C 546.382 -2.23547 -0.50592 0
M  V30 5915 C 547.382 -1.23445 -1.03044 0
M  V30 5916 O 548.572 -1.47909 -0.920253 0
M  V30 5917 C 545.704 -2.95234 -1.7044 0
M  V30 5918 H 546.897 -2.99722 0.103247 0
M  V30 5919 H 544.45 -1.56033 0.0912804 0
M  V30 5920 H 545.185 -2.23236 -2.35236 0
M  V30 5921 H 544.97 -3.68654 -1.33553 0
M  V30 5922 H 546.46 -3.48258 -2.30447 0
M  V30 5923 N 546.897 -0.0685191 -1.57451 0
M  V30 5924 C 548.308 0.464634 -1.80826 0
M  V30 5925 C 548.659 1.69847 -0.982169 0
M  V30 5926 O 547.784 2.15439 -0.203734 0
M  V30 5927 C 548.379 0.849721 -3.27971 0
M  V30 5928 C 546.938 1.32776 -3.52204 0
M  V30 5929 C 546.085 0.311332 -2.75547 0
M  V30 5930 H 549.036 -0.294248 -1.55948 0
M  V30 5931 H 549.057 1.71138 -3.39841 0
M  V30 5932 H 548.569 -0.0484736 -3.8807 0
M  V30 5933 H 546.67 2.24456 -2.97406 0
M  V30 5934 H 546.783 1.30794 -4.60901 0
M  V30 5935 H 545.147 0.787915 -2.42206 0
M  V30 5936 H 545.93 -0.579078 -3.38381 0
M  V30 5937 N 548.375 1.56261 0.205012 0
M  V30 5938 C 549.623 1.79684 0.925096 0
M  V30 5939 C 549.944 0.63989 1.84202 0
M  V30 5940 O 549.214 -0.342345 1.92885 0
M  V30 5941 H 547.794 0.662774 0.344587 0
M  V30 5942 H 550.456 1.93734 0.212899 0
M  V30 5943 H 549.552 2.72467 1.52211 0
M  V30 5944 N 549.853 -0.472356 1.50355 0
M  V30 5945 C 550.8 -1.57051 1.69126 0
M  V30 5946 C 551.77 -1.5733 0.532574 0
M  V30 5947 O 552.955 -1.7488 0.762994 0
M  V30 5948 C 550.095 -2.95033 1.79024 0
M  V30 5949 C 549.208 -3.04552 3.06386 0
M  V30 5950 C 548.343 -4.33441 3.07087 0
M  V30 5951 C 547.382 -4.36697 4.28908 0
M  V30 5952 N 546.519 -5.57056 4.27356 0
M  V30 5953 H 551.359 -1.40351 2.62879 0
M  V30 5954 H 548.896 -0.682403 1.30314 0
M  V30 5955 H 550.854 -3.75048 1.82744 0
M  V30 5956 H 549.484 -3.10371 0.887109 0
M  V30 5957 H 548.536 -2.17419 3.12143 0
M  V30 5958 H 549.848 -3.02818 3.96362 0
M  V30 5959 H 549.002 -5.21801 3.09529 0
M  V30 5960 H 547.741 -4.37782 2.14939 0
M  V30 5961 H 546.746 -3.46734 4.2668 0
M  V30 5962 H 547.971 -4.34049 5.22282 0
M  V30 5963 H 545.917 -5.62184 3.3806 0
M  V30 5964 H 545.834 -5.57058 5.111 0
M  V30 5965 H 547.102 -6.47545 4.33942 0
M  V30 5966 N 551.331 -1.39911 -0.725443 0
M  V30 5967 C 552.579 -1.37382 -1.48224 0
M  V30 5968 C 552.9 0.0264107 -1.94982 0
M  V30 5969 O 552.17 0.979408 -1.6966 0
M  V30 5970 H 550.75 -0.505596 -0.549892 0
M  V30 5971 H 553.412 -1.7487 -0.860608 0
M  V30 5972 H 552.508 -2.04254 -2.3598 0
M  V30 5973 N 552.809 0.956637 -1.25245 0
M  V30 5974 C 553.756 2.053 -1.05454 0
M  V30 5975 C 554.726 1.66062 0.0356889 0
M  V30 5976 O 555.911 1.90415 -0.121099 0
M  V30 5977 C 553.051 3.38391 -0.677191 0
M  V30 5978 C 552.164 3.90758 -1.84206 0
M  V30 5979 C 551.299 5.12165 -1.40926 0
M  V30 5980 C 550.338 5.56757 -2.54338 0
M  V30 5981 N 549.475 6.69376 -2.11848 0
M  V30 5982 H 554.315 2.21562 -1.99284 0
M  V30 5983 H 551.852 1.08578 -0.992434 0
M  V30 5984 H 553.81 4.1488 -0.43938 0
M  V30 5985 H 552.44 3.22021 0.224127 0
M  V30 5986 H 551.492 3.10808 -2.19323 0
M  V30 5987 H 552.804 4.19802 -2.69383 0
M  V30 5988 H 551.958 5.96065 -1.13098 0
M  V30 5989 H 550.697 4.84832 -0.528175 0
M  V30 5990 H 549.702 4.71423 -2.82913 0
M  V30 5991 H 550.927 5.861 -3.43022 0
M  V30 5992 H 548.873 6.43756 -1.26153 0
M  V30 5993 H 548.79 6.97927 -2.90574 0
M  V30 5994 H 550.058 7.5669 -1.87191 0
M  V30 5995 N 554.287 1.06798 1.15896 0
M  V30 5996 C 555.217 0.704677 2.22613 0
M  V30 5997 C 556.198 -0.305252 1.67339 0
M  V30 5998 O 557.383 -0.179247 1.93371 0
M  V30 5999 C 554.513 0.0957325 3.47168 0
M  V30 6000 C 553.467 1.0322 4.15367 0
M  V30 6001 C 552.793 0.286293 5.33933 0
M  V30 6002 C 554.093 2.36341 4.65768 0
M  V30 6003 H 555.787 1.59688 2.53259 0
M  V30 6004 H 553.333 0.769257 1.21731 0
M  V30 6005 H 555.286 -0.170333 4.21056 0
M  V30 6006 H 554.01 -0.831516 3.15838 0
M  V30 6007 H 552.669 1.28309 3.43413 0
M  V30 6008 H 552.317 -0.644237 4.98857 0
M  V30 6009 H 552.017 0.910436 5.80504 0
M  V30 6010 H 553.541 0.0278938 6.10594 0
M  V30 6011 H 554.955 2.1561 5.31211 0
M  V30 6012 H 553.352 2.94299 5.2298 0
M  V30 6013 H 554.422 2.99047 3.81705 0
M  V30 6014 N 555.766 -1.3263 0.851289 0
M  V30 6015 C 557.182 -1.50162 0.5407 0
M  V30 6016 C 557.382 -1.78788 -0.929369 0
M  V30 6017 O 556.438 -1.85545 -1.71258 0
M  V30 6018 C 557.751 -2.64803 1.42478 0
M  V30 6019 C 559.299 -2.78688 1.42485 0
M  V30 6020 C 559.774 -3.96405 2.29407 0
M  V30 6021 N 561.265 -4.0366 2.27184 0
M  V30 6022 C 562 -4.93971 2.9117 0
M  V30 6023 N 561.496 -5.89313 3.64256 0
M  V30 6024 N 563.289 -4.87066 2.80576 0
M  V30 6025 H 555.44 -1.12315 1.80275 0
M  V30 6026 H 557.703 -0.553266 0.769806 0
M  V30 6027 H 557.409 -2.50368 2.46999 0
M  V30 6028 H 557.283 -3.60506 1.10974 0
M  V30 6029 H 559.67 -2.92547 0.387304 0
M  V30 6030 H 559.751 -1.83708 1.78002 0
M  V30 6031 H 559.395 -3.83304 3.33228 0
M  V30 6032 H 559.325 -4.90654 1.91224 0
M  V30 6033 H 561.816 -3.35435 1.74045 0
M  V30 6034 H 562.129 -6.54913 4.10255 0
M  V30 6035 H 560.474 -5.8935 3.68364 0
M  V30 6036 H 563.665 -4.11552 2.23031 0
M  V30 6037 H 563.838 -5.57248 3.30725 0
M  V30 6038 N 557.244 -0.608902 -1.45362 0
M  V30 6039 C 558.469 -0.10921 -2.07112 0
M  V30 6040 C 558.894 1.19779 -1.45033 0
M  V30 6041 O 558.252 1.72961 -0.543527 0
M  V30 6042 C 558.3 0.0155745 -3.60597 0
M  V30 6043 O 557.404 1.06546 -3.98399 0
M  V30 6044 H 556.745 -0.0746619 -0.659789 0
M  V30 6045 H 559.275 -0.839283 -1.86594 0
M  V30 6046 H 559.285 0.213364 -4.07442 0
M  V30 6047 H 557.96 -0.938765 -4.05167 0
M  V30 6048 H 556.537 0.844024 -3.63223 0
M  V30 6049 N 558.722 1.53707 -0.348139 0
M  V30 6050 C 559.97 2.00591 0.246478 0
M  V30 6051 C 560.291 1.23753 1.50699 0
M  V30 6052 O 559.561 0.345964 1.92821 0
M  V30 6053 H 558.141 0.741053 0.0940679 0
M  V30 6054 H 560.803 1.89139 -0.470354 0
M  V30 6055 H 559.899 3.08297 0.485714 0
M  V30 6056 N 560.2 0.0768682 1.57412 0
M  V30 6057 C 561.425 -0.603404 1.98428 0
M  V30 6058 C 561.85 -1.62047 0.955108 0
M  V30 6059 O 561.208 -1.81129 -0.0786778 0
M  V30 6060 C 561.256 -1.24396 3.38464 0
M  V30 6061 O 560.36 -2.35982 3.3821 0
M  V30 6062 H 559.701 -0.154741 0.645718 0
M  V30 6063 H 562.231 0.152885 2.04028 0
M  V30 6064 H 562.241 -1.5896 3.7576 0
M  V30 6065 H 560.916 -0.498735 4.12899 0
M  V30 6066 H 559.493 -2.03173 3.1269 0
M  V30 6067 N 561.678 -1.56367 -0.196722 0
M  V30 6068 C 562.626 -1.95304 -1.2633 0
M  V30 6069 C 563.62 -0.838252 -1.47206 0
M  V30 6070 O 564.826 -1.02325 -1.48087 0
M  V30 6071 H 561.201 -0.621013 -0.424083 0
M  V30 6072 H 563.172 -2.84254 -0.907879 0
M  V30 6073 C 561.921 -2.3074 -2.60104 0
M  V30 6074 H 561.244 -3.16047 -2.44856 0
M  V30 6075 H 562.684 -2.61849 -3.33484 0
M  V30 6076 C 561.143 -1.14143 -3.16975 0
M  V30 6077 O 561.673 -0.415602 -3.99544 0
M  V30 6078 N 559.879 -0.91867 -2.75697 0
M  V30 6079 H 559.426 -1.51065 -2.08656 0
M  V30 6080 H 559.384 -0.140321 -3.14087 0
M  V30 6081 N 563.156 0.464375 -1.50603 0
M  V30 6082 C 564.384 1.23907 -1.65695 0
M  V30 6083 C 564.799 1.85658 -0.343027 0
M  V30 6084 O 564.156 1.69529 0.675739 0
M  V30 6085 C 564.207 2.3429 -2.75301 0
M  V30 6086 O 563.928 1.7507 -4.01599 0
M  V30 6087 C 565.429 3.25051 -3.01424 0
M  V30 6088 H 562.649 0.374485 -0.556778 0
M  V30 6089 H 565.193 0.55353 -1.96866 0
M  V30 6090 H 563.348 2.98607 -2.46804 0
M  V30 6091 H 563.762 2.47812 -4.62266 0
M  V30 6092 H 565.236 3.98699 -3.81763 0
M  V30 6093 H 565.713 3.84227 -2.12758 0
M  V30 6094 H 566.319 2.66463 -3.31477 0
M  V30 6095 N 564.634 1.40294 0.718013 0
M  V30 6096 C 565.882 1.38167 1.47494 0
M  V30 6097 C 566.203 -0.01607 1.94993 0
M  V30 6098 O 565.473 -0.970396 1.70177 0
M  V30 6099 H 564.053 0.508505 0.547203 0
M  V30 6100 H 566.715 1.75324 0.851322 0
M  V30 6101 H 565.811 2.05503 2.34894 0
M  V30 6102 N 566.112 -0.949982 1.2575 0
M  V30 6103 C 567.042 -2.06483 1.09028 0
M  V30 6104 C 568.023 -1.701 -0.00201532 0
M  V30 6105 O 569.208 -1.93469 0.168383 0
M  V30 6106 C 566.338 -3.39899 0.71316 0
M  V30 6107 C 565.292 -3.90309 1.75621 0
M  V30 6108 C 564.618 -5.20274 1.23365 0
M  V30 6109 C 565.918 -4.16169 3.15596 0
M  V30 6110 H 567.612 -2.20731 2.02283 0
M  V30 6111 H 565.158 -1.06066 0.973964 0
M  V30 6112 H 567.111 -4.17346 0.58309 0
M  V30 6113 H 565.835 -3.25602 -0.255091 0
M  V30 6114 H 564.494 -3.15035 1.8748 0
M  V30 6115 H 564.142 -5.02351 0.255491 0
M  V30 6116 H 563.842 -5.54971 1.93082 0
M  V30 6117 H 565.366 -6.00314 1.11607 0
M  V30 6118 H 566.78 -4.84259 3.06864 0
M  V30 6119 H 565.177 -4.62131 3.82825 0
M  V30 6120 H 566.247 -3.22273 3.6231 0
M  V30 6121 N 567.59 -1.07411 -1.15328 0
M  V30 6122 C 568.867 -0.710732 -1.82231 0
M  V30 6123 C 569.247 0.806732 -1.95077 0
M  V30 6124 O 568.595 1.72139 -1.50268 0
M  V30 6125 C 568.805 -1.42586 -3.18544 0
M  V30 6126 C 570.153 -1.57836 -3.94174 0
M  V30 6127 O 571.177 -1.38669 -3.281 0
M  V30 6128 O 570.036 -1.8938 -5.12638 0
M  V30 6129 H 567.13 -0.25297 -0.78736 0
M  V30 6130 H 569.676 -1.17508 -1.22434 0
M  V30 6131 H 568.448 -2.46008 -3.04296 0
M  V30 6132 H 568.071 -0.952332 -3.86026 0
M  V30 6133 N 569.068 1.32177 -0.85831 0
M  V30 6134 C 570.298 2.01021 -0.476889 0
M  V30 6135 C 570.706 1.64653 0.931995 0
M  V30 6136 O 570.049 0.865713 1.62022 0
M  V30 6137 C 570.111 3.55413 -0.540528 0
M  V30 6138 C 569.775 4.1522 -1.90895 0
M  V30 6139 C 570.772 4.3318 -2.87491 0
M  V30 6140 C 568.457 4.51212 -2.20709 0
M  V30 6141 C 570.451 4.86306 -4.1205 0
M  V30 6142 C 568.138 5.04042 -3.45521 0
M  V30 6143 C 569.136 5.21538 -4.41007 0
M  V30 6144 O 568.824 5.73238 -5.63608 0
M  V30 6145 H 568.556 0.650059 -0.18547 0
M  V30 6146 H 571.11 1.69648 -1.15796 0
M  V30 6147 H 569.34 3.86196 0.19741 0
M  V30 6148 H 571.029 4.05526 -0.174191 0
M  V30 6149 H 571.795 4.05704 -2.65762 0
M  V30 6150 H 567.674 4.36878 -1.4717 0
M  V30 6151 H 571.218 4.99877 -4.86589 0
M  V30 6152 H 567.115 5.30952 -3.67098 0
M  V30 6153 H 567.883 5.91625 -5.65617 0
M  V30 6154 N 570.547 0.616602 1.45037 0
M  V30 6155 C 571.796 0.112861 2.01384 0
M  V30 6156 C 572.109 -1.26758 1.48969 0
M  V30 6157 O 573.315 -1.86454 1.9735 0
M  V30 6158 C 571.771 0.151057 3.59583 0
M  V30 6159 C 571.379 1.53191 4.20995 0
M  V30 6160 C 573.123 -0.296974 4.2346 0
M  V30 6161 C 571.03 1.526 5.71373 0
M  V30 6162 H 569.96 0.0384254 0.75302 0
M  V30 6163 H 572.611 0.773262 1.66412 0
M  V30 6164 H 570.993 -0.57617 3.91786 0
M  V30 6165 H 572.167 2.28156 4.00352 0
M  V30 6166 H 570.482 1.92279 3.69348 0
M  V30 6167 H 573.079 -0.320712 5.33737 0
M  V30 6168 H 573.422 -1.32145 3.9477 0
M  V30 6169 H 573.955 0.377279 3.96007 0
M  V30 6170 H 570.694 2.52837 6.04776 0
M  V30 6171 H 570.214 0.819064 5.94181 0
M  V30 6172 H 571.893 1.25357 6.3474 0
M  V30 6173 N 572.025 -1.5352 0.356285 0
M  V30 6174 C 572.972 -2.25439 -0.494569 0
M  V30 6175 C 573.942 -1.25752 -1.08516 0
M  V30 6176 O 575.127 -1.54513 -1.1194 0
M  V30 6177 C 572.267 -3.04011 -1.63313 0
M  V30 6178 C 571.38 -4.18574 -1.06862 0
M  V30 6179 C 570.515 -4.84607 -2.17552 0
M  V30 6180 C 569.554 -5.91218 -1.58518 0
M  V30 6181 N 568.691 -6.50979 -2.63003 0
M  V30 6182 H 573.531 -2.97737 0.125244 0
M  V30 6183 H 571.068 -1.46916 0.0735789 0
M  V30 6184 H 573.026 -3.47834 -2.30363 0
M  V30 6185 H 571.656 -2.33986 -2.22374 0
M  V30 6186 H 570.708 -3.79303 -0.288672 0
M  V30 6187 H 572.02 -4.95215 -0.596924 0
M  V30 6188 H 571.174 -5.31566 -2.92442 0
M  V30 6189 H 569.913 -4.07418 -2.6807 0
M  V30 6190 H 568.918 -5.4363 -0.821391 0
M  V30 6191 H 570.143 -6.70322 -1.08836 0
M  V30 6192 H 568.089 -5.76648 -3.12751 0
M  V30 6193 H 568.006 -7.23131 -2.20493 0
M  V30 6194 H 569.274 -7.02589 -3.37623 0
M  V30 6195 N 573.503 -0.0852151 -1.57369 0
M  V30 6196 C 574.75 0.580806 -1.93992 0
M  V30 6197 C 575.078 1.68801 -0.966252 0
M  V30 6198 O 574.333 1.95694 0.0158649 0
M  V30 6199 C 574.632 1.18482 -3.3719 0
M  V30 6200 C 574.298 0.2024 -4.50446 0
M  V30 6201 C 572.96 -0.0678318 -4.81152 0
M  V30 6202 C 575.312 -0.46895 -5.19086 0
M  V30 6203 C 572.64 -1.01627 -5.77831 0
M  V30 6204 C 574.992 -1.4058 -6.16782 0
M  V30 6205 C 573.656 -1.68436 -6.45899 0
M  V30 6206 H 572.926 0.212532 -0.709867 0
M  V30 6207 H 575.573 -0.158947 -1.90839 0
M  V30 6208 H 573.878 2.0006 -3.36873 0
M  V30 6209 H 575.575 1.70767 -3.62822 0
M  V30 6210 H 572.165 0.423208 -4.26505 0
M  V30 6211 H 576.349 -0.273307 -4.95547 0
M  V30 6212 H 571.605 -1.2392 -5.9871 0
M  V30 6213 H 575.779 -1.93188 -6.69068 0
M  V30 6214 H 573.406 -2.42088 -7.20623 0
M  V30 6215 N 574.981 1.5647 0.188427 0
M  V30 6216 C 576.209 1.85131 0.923803 0
M  V30 6217 C 576.624 0.668537 1.76567 0
M  V30 6218 O 575.981 -0.362662 1.7886 0
M  V30 6219 C 576.032 3.12661 1.81453 0
M  V30 6220 O 575.753 4.26378 1.00665 0
M  V30 6221 C 577.254 3.54548 2.66103 0
M  V30 6222 H 574.474 0.614624 0.269218 0
M  V30 6223 H 577.018 2.03581 0.193671 0
M  V30 6224 H 575.173 2.96088 2.49821 0
M  V30 6225 H 575.587 4.99041 1.61425 0
M  V30 6226 H 577.061 4.4673 3.24247 0
M  V30 6227 H 577.538 2.77853 3.40139 0
M  V30 6228 H 578.144 3.73674 2.03096 0
M  V30 6229 N 576.459 -0.456382 1.50847 0
M  V30 6230 C 577.705 -1.20618 1.63777 0
M  V30 6231 C 578.06 -1.8936 0.340677 0
M  V30 6232 O 577.353 -1.79786 -0.662378 0
M  V30 6233 C 577.547 -2.26336 2.76599 0
M  V30 6234 C 577.376 -1.67968 4.17153 0
M  V30 6235 C 576.146 -1.47293 4.83356 0
M  V30 6236 C 578.344 -1.16643 5.00898 0
M  V30 6237 N 576.326 -0.843222 6.08081 0
M  V30 6238 C 577.697 -0.660843 6.16468 0
M  V30 6239 C 579.752 -1.05637 4.86565 0
M  V30 6240 C 578.455 -0.0560365 7.19278 0
M  V30 6241 C 580.481 -0.465485 5.89565 0
M  V30 6242 C 579.843 0.0296516 7.04394 0
M  V30 6243 H 575.942 -0.429725 0.653345 0
M  V30 6244 H 578.526 -0.505784 1.88016 0
M  V30 6245 H 576.697 -2.93785 2.54056 0
M  V30 6246 H 578.429 -2.9334 2.78808 0
M  V30 6247 H 575.184 -1.72934 4.40898 0
M  V30 6248 H 575.608 -0.546357 6.74792 0
M  V30 6249 H 580.25 -1.42508 3.98059 0
M  V30 6250 H 577.968 0.324845 8.07447 0
M  V30 6251 H 581.554 -0.382493 5.80541 0
M  V30 6252 H 580.434 0.479705 7.82731 0
M  V30 6253 N 577.937 -1.40673 -0.710563 0
M  V30 6254 C 578.884 -1.41336 -1.82463 0
M  V30 6255 C 579.854 -0.269648 -1.63897 0
M  V30 6256 O 581.039 -0.468463 -1.8496 0
M  V30 6257 C 578.179 -1.28665 -3.20218 0
M  V30 6258 C 577.292 -2.52784 -3.5032 0
M  V30 6259 C 576.427 -2.32517 -4.77608 0
M  V30 6260 C 575.466 -3.52187 -5.0063 0
M  V30 6261 N 574.603 -3.31084 -6.19135 0
M  V30 6262 H 579.443 -2.36558 -1.8123 0
M  V30 6263 H 576.98 -1.17483 -0.885226 0
M  V30 6264 H 578.938 -1.19324 -3.99772 0
M  V30 6265 H 577.568 -0.370602 -3.20666 0
M  V30 6266 H 576.62 -2.72634 -2.65283 0
M  V30 6267 H 577.932 -3.41845 -3.63241 0
M  V30 6268 H 577.086 -2.20558 -5.65189 0
M  V30 6269 H 575.825 -1.40889 -4.66906 0
M  V30 6270 H 574.83 -3.64617 -4.11502 0
M  V30 6271 H 576.055 -4.44749 -5.13201 0
M  V30 6272 H 574.001 -2.42143 -6.09674 0
M  V30 6273 H 573.918 -4.13713 -6.32754 0
M  V30 6274 H 575.186 -3.22868 -7.0949 0
M  V30 6275 N 579.415 0.9433 -1.26252 0
M  V30 6276 C 580.831 1.21644 -1.03319 0
M  V30 6277 C 581.031 2.0003 0.242983 0
M  V30 6278 O 580.087 2.33838 0.952688 0
M  V30 6279 C 581.4 1.97978 -2.2633 0
M  V30 6280 C 582.948 2.10978 -2.31209 0
M  V30 6281 C 583.423 2.90713 -3.53907 0
M  V30 6282 N 584.914 2.98287 -3.54371 0
M  V30 6283 C 585.649 3.60406 -4.45976 0
M  V30 6284 N 585.145 4.24043 -5.47868 0
M  V30 6285 N 586.938 3.57658 -4.33633 0
M  V30 6286 H 579.089 0.419221 -2.08222 0
M  V30 6287 H 581.352 0.247995 -0.914988 0
M  V30 6288 H 581.058 1.47788 -3.19142 0
M  V30 6289 H 580.932 2.9865 -2.30408 0
M  V30 6290 H 583.319 2.6036 -1.38913 0
M  V30 6291 H 583.4 1.09575 -2.31143 0
M  V30 6292 H 583.044 2.42018 -4.46531 0
M  V30 6293 H 582.974 3.92367 -3.5122 0
M  V30 6294 H 585.465 2.53044 -2.80673 0
M  V30 6295 H 585.778 4.69334 -6.13959 0
M  V30 6296 H 584.123 4.22637 -5.51728 0
M  V30 6297 H 587.314 3.07134 -3.53251 0
M  V30 6298 H 587.487 4.05782 -5.05218 0
M  V30 6299 N 580.893 1.08022 1.14757 0
M  V30 6300 C 581.823 0.728248 2.21853 0
M  V30 6301 C 582.804 -0.287486 1.67653 0
M  V30 6302 O 583.989 -0.158727 1.9355 0
M  V30 6303 C 581.119 0.132549 3.47047 0
M  V30 6304 C 580.073 1.07619 4.14249 0
M  V30 6305 C 579.399 0.342907 5.33599 0
M  V30 6306 C 580.699 2.41268 4.63235 0
M  V30 6307 H 582.393 1.62365 2.51551 0
M  V30 6308 H 579.939 0.782125 1.20908 0
M  V30 6309 H 581.892 -0.125665 4.21213 0
M  V30 6310 H 580.616 -0.797971 3.16702 0
M  V30 6311 H 579.275 1.31944 3.42033 0
M  V30 6312 H 578.923 -0.59129 4.99513 0
M  V30 6313 H 578.623 0.971955 5.79506 0
M  V30 6314 H 580.147 0.0926538 6.1053 0
M  V30 6315 H 581.561 2.21232 5.28894 0
M  V30 6316 H 579.958 2.9983 5.19829 0
M  V30 6317 H 581.028 3.03079 3.78512 0
M  V30 6318 N 582.371 -1.3172 0.865308 0
M  V30 6319 C 583.787 -1.4958 0.556596 0
M  V30 6320 C 583.987 -1.79763 -0.910353 0
M  V30 6321 O 583.043 -1.87351 -1.6928 0
M  V30 6322 C 584.356 -2.63277 1.45279 0
M  V30 6323 C 585.904 -2.77161 1.45433 0
M  V30 6324 C 586.379 -3.93949 2.33598 0
M  V30 6325 N 587.87 -4.01228 2.31453 0
M  V30 6326 C 588.605 -4.90855 2.96393 0
M  V30 6327 N 588.101 -5.85416 3.70486 0
M  V30 6328 N 589.894 -4.84063 2.85726 0
M  V30 6329 H 582.045 -1.10396 1.81456 0
M  V30 6330 H 584.308 -0.54507 0.775631 0
M  V30 6331 H 584.014 -2.47734 2.49641 0
M  V30 6332 H 583.888 -3.59309 1.14792 0
M  V30 6333 H 586.275 -2.9212 0.41831 0
M  V30 6334 H 586.356 -1.8181 1.79941 0
M  V30 6335 H 586 -3.79748 3.37274 0
M  V30 6336 H 585.93 -4.88598 1.96417 0
M  V30 6337 H 588.421 -3.3357 1.77593 0
M  V30 6338 H 588.734 -6.50525 4.17178 0
M  V30 6339 H 587.079 -5.85409 3.74594 0
M  V30 6340 H 590.27 -4.09163 2.27384 0
M  V30 6341 H 590.443 -5.53708 3.36617 0
M  V30 6342 N 583.85 -0.624285 -1.44708 0
M  V30 6343 C 585.075 -0.131171 -2.06985 0
M  V30 6344 C 585.5 1.18234 -1.46295 0
M  V30 6345 O 584.858 1.72375 -0.561842 0
M  V30 6346 C 584.906 -0.0226724 -3.60593 0
M  V30 6347 O 584.01 1.02314 -3.99507 0
M  V30 6348 H 583.351 -0.0816556 -0.65896 0
M  V30 6349 H 585.88 -0.859027 -1.85693 0
M  V30 6350 H 585.891 0.170138 -4.07645 0
M  V30 6351 H 584.566 -0.981685 -4.04148 0
M  V30 6352 H 583.143 0.805452 -3.64097 0
M  V30 6353 N 585.328 1.53329 -0.364422 0
M  V30 6354 C 586.278 2.22472 0.499024 0
M  V30 6355 C 587.262 1.21952 1.0496 0
M  V30 6356 O 588.454 1.47405 0.979836 0
M  V30 6357 C 585.583 3.01659 1.6388 0
M  V30 6358 C 584.669 4.09555 1.10116 0
M  V30 6359 N 585.06 5.04988 0.286414 0
M  V30 6360 C 583.358 4.2424 1.37608 0
M  V30 6361 C 584.059 5.81699 -0.00781682 0
M  V30 6362 N 583.035 5.40394 0.589494 0
M  V30 6363 H 586.837 2.93611 -0.130284 0
M  V30 6364 H 584.351 1.61483 -0.172377 0
M  V30 6365 H 586.348 3.4971 2.26954 0
M  V30 6366 H 585.008 2.32051 2.27118 0
M  V30 6367 H 586.019 5.17847 -0.0742839 0
M  V30 6368 H 582.696 3.65858 2.01133 0
M  V30 6369 H 584.086 6.68587 -0.666394 0
M  V30 6370 N 586.806 0.0935595 1.57322 0
M  V30 6371 C 588.031 -0.582324 1.99057 0
M  V30 6372 C 588.456 -1.61025 0.972242 0
M  V30 6373 O 587.814 -1.81202 -0.0594622 0
M  V30 6374 C 587.862 -1.20799 3.39765 0
M  V30 6375 O 586.966 -2.32382 3.40694 0
M  V30 6376 H 586.307 -0.147884 0.647323 0
M  V30 6377 H 588.837 0.174516 2.03854 0
M  V30 6378 H 588.847 -1.54966 3.77425 0
M  V30 6379 H 587.522 -0.454914 4.13405 0
M  V30 6380 H 586.099 -1.99845 3.14827 0
M  V30 6381 N 588.284 -1.56567 -0.180126 0
M  V30 6382 C 589.7 -1.50488 -0.531559 0
M  V30 6383 C 589.9 -0.796267 -1.851 0
M  V30 6384 O 588.956 -0.352978 -2.50021 0
M  V30 6385 C 590.269 -2.95201 -0.572456 0
M  V30 6386 C 591.817 -3.05957 -0.660264 0
M  V30 6387 C 592.292 -4.5211 -0.732135 0
M  V30 6388 N 593.783 -4.56322 -0.795262 0
M  V30 6389 C 594.518 -5.66742 -0.871296 0
M  V30 6390 N 594.014 -6.86815 -0.908708 0
M  V30 6391 N 595.807 -5.54691 -0.909639 0
M  V30 6392 H 587.958 -2.01045 0.685165 0
M  V30 6393 H 590.221 -0.915536 0.245962 0
M  V30 6394 H 589.927 -3.50165 0.328208 0
M  V30 6395 H 589.801 -3.49369 -1.422 0
M  V30 6396 H 592.188 -2.51032 -1.55136 0
M  V30 6397 H 592.269 -2.54888 0.215783 0
M  V30 6398 H 591.913 -5.07664 0.154664 0
M  V30 6399 H 591.843 -5.00926 -1.6242 0
M  V30 6400 H 594.334 -3.69868 -0.77499 0
M  V30 6401 H 594.647 -7.66718 -0.967654 0
M  V30 6402 H 592.992 -6.89443 -0.877132 0
M  V30 6403 H 596.183 -4.59804 -0.877353 0
M  V30 6404 H 596.356 -6.40768 -0.965434 0
M  V30 6405 N 589.762 0.448376 -1.51087 0
M  V30 6406 C 590.694 1.56146 -1.67783 0
M  V30 6407 C 591.707 1.52913 -0.55871 0
M  V30 6408 O 592.896 1.57889 -0.83267 0
M  V30 6409 C 589.996 2.95057 -1.66716 0
M  V30 6410 C 589.169 3.22915 -2.95033 0
M  V30 6411 C 588.228 4.41495 -2.86302 0
M  V30 6412 O 587.254 4.40688 -3.60254 0
M  V30 6413 N 588.456 5.44443 -2.014 0
M  V30 6414 H 591.221 1.42232 -2.638 0
M  V30 6415 H 588.782 0.637153 -1.48835 0
M  V30 6416 H 590.774 3.72388 -1.58458 0
M  V30 6417 H 589.344 3.02624 -0.783403 0
M  V30 6418 H 588.564 2.33985 -3.17245 0
M  V30 6419 H 589.852 3.38349 -3.79996 0
M  V30 6420 H 589.25 5.4793 -1.40674 0
M  V30 6421 H 587.807 6.2067 -1.99029 0
M  V30 6422 N 591.24 1.41047 0.703093 0
M  V30 6423 C 592.47 1.43133 1.48985 0
M  V30 6424 C 592.878 0.0328537 1.89171 0
M  V30 6425 O 592.221 -0.956469 1.56835 0
M  V30 6426 C 592.283 2.26991 2.78775 0
M  V30 6427 C 591.947 3.7525 2.60837 0
M  V30 6428 C 592.944 4.67591 2.27276 0
M  V30 6429 C 590.629 4.19208 2.76712 0
M  V30 6430 C 592.623 6.01877 2.09817 0
M  V30 6431 C 590.31 5.53561 2.5887 0
M  V30 6432 C 591.308 6.4471 2.25472 0
M  V30 6433 O 590.996 7.76584 2.07778 0
M  V30 6434 H 590.728 0.489788 0.465922 0
M  V30 6435 H 593.282 1.85886 0.873822 0
M  V30 6436 H 591.512 1.79038 3.42757 0
M  V30 6437 H 593.201 2.20867 3.40547 0
M  V30 6438 H 593.967 4.34923 2.14633 0
M  V30 6439 H 589.846 3.48572 3.01693 0
M  V30 6440 H 593.39 6.72986 1.83671 0
M  V30 6441 H 589.287 5.85811 2.71102 0
M  V30 6442 H 590.055 7.87649 2.22601 0
M  V30 6443 N 592.718 -0.936591 1.26751 0
M  V30 6444 C 593.964 -1.6858 1.12733 0
M  V30 6445 C 594.297 -1.91414 -0.327745 0
M  V30 6446 O 593.572 -1.49812 -1.24043 0
M  V30 6447 C 593.855 -3.05779 1.90187 0
M  V30 6448 C 593.708 -2.90242 3.43627 0
M  V30 6449 C 595.027 -4.0597 1.69931 0
M  V30 6450 H 592.146 -0.61182 0.410908 0
M  V30 6451 H 594.788 -1.08747 1.55801 0
M  V30 6452 H 592.938 -3.56853 1.53584 0
M  V30 6453 H 594.61 -2.46354 3.9001 0
M  V30 6454 H 592.853 -2.2577 3.70419 0
M  V30 6455 H 593.524 -3.87572 3.93055 0
M  V30 6456 H 596 -3.63874 2.0183 0
M  V30 6457 H 594.876 -4.99974 2.26534 0
M  V30 6458 H 595.137 -4.37369 0.64502 0
M  V30 6459 N 594.196 -1.08629 -1.14182 0
M  V30 6460 C 595.421 -0.83902 -1.89671 0
M  V30 6461 C 595.846 0.603332 -1.78161 0
M  V30 6462 O 595.204 1.42301 -1.12339 0
M  V30 6463 C 595.252 -1.26854 -3.37551 0
M  V30 6464 O 594.356 -0.42188 -4.10236 0
M  V30 6465 H 593.697 -0.304545 -0.590041 0
M  V30 6466 H 596.227 -1.4483 -1.44518 0
M  V30 6467 H 596.237 -1.25038 -3.88368 0
M  V30 6468 H 594.912 -2.31901 -3.45246 0
M  V30 6469 H 593.489 -0.503654 -3.69483 0
M  V30 6470 N 595.674 1.31259 -0.872281 0
M  V30 6471 C 596.922 1.96233 -0.483409 0
M  V30 6472 C 597.243 1.69276 0.968012 0
M  V30 6473 O 596.513 1.00943 1.67891 0
M  V30 6474 H 595.093 0.726025 -0.175774 0
M  V30 6475 H 597.755 1.60024 -1.11258 0
M  V30 6476 H 596.851 3.05403 -0.643075 0
M  V30 6477 N 597.152 0.631951 1.44375 0
M  V30 6478 C 598.082 -0.0593243 2.33425 0
M  V30 6479 C 599.063 -0.833964 1.48253 0
M  V30 6480 O 600.248 -0.799682 1.76971 0
M  V30 6481 C 597.378 -1.04096 3.31333 0
M  V30 6482 C 596.332 -0.377899 4.26328 0
M  V30 6483 C 595.658 -1.4695 5.14111 0
M  V30 6484 C 596.958 0.716371 5.17364 0
M  V30 6485 H 598.652 0.684287 2.91475 0
M  V30 6486 H 596.198 0.330518 1.40156 0
M  V30 6487 H 598.151 -1.53331 3.92514 0
M  V30 6488 H 596.875 -1.81547 2.71493 0
M  V30 6489 H 595.534 0.0938054 3.6648 0
M  V30 6490 H 595.182 -2.2349 4.50623 0
M  V30 6491 H 594.882 -1.03121 5.78481 0
M  V30 6492 H 596.406 -1.96363 5.78164 0
M  V30 6493 H 597.82 0.307089 5.72477 0
M  V30 6494 H 596.217 1.07784 5.90341 0
M  V30 6495 H 597.287 1.58316 4.58327 0
M  V30 6496 N 598.631 -1.53133 0.372548 0
M  V30 6497 C 599.581 -2.22733 -0.487218 0
M  V30 6498 C 600.565 -1.22506 -1.04312 0
M  V30 6499 O 601.757 -1.47923 -0.972005 0
M  V30 6500 C 598.886 -3.02524 -1.62278 0
M  V30 6501 C 597.972 -4.10133 -1.07943 0
M  V30 6502 N 598.363 -5.05133 -0.259629 0
M  V30 6503 C 596.661 -4.24964 -1.35356 0
M  V30 6504 C 597.362 -5.81687 0.0386656 0
M  V30 6505 N 596.338 -5.40699 -0.560827 0
M  V30 6506 H 600.14 -2.93538 0.145853 0
M  V30 6507 H 597.654 -1.61389 0.180938 0
M  V30 6508 H 599.651 -3.50909 -2.25096 0
M  V30 6509 H 598.311 -2.33252 -2.25884 0
M  V30 6510 H 599.322 -5.178 0.101746 0
M  V30 6511 H 595.999 -3.66919 -1.9919 0
M  V30 6512 H 597.389 -6.68224 0.701841 0
M  V30 6513 N 600.109 -0.101901 -1.5727 0
M  V30 6514 C 601.042 0.891377 -2.10071 0
M  V30 6515 C 602.02 1.27197 -1.01291 0
M  V30 6516 O 603.204 1.37602 -1.28833 0
M  V30 6517 C 600.331 2.19049 -2.58331 0
M  V30 6518 C 599.377 1.95925 -3.78834 0
M  V30 6519 S 600.21 1.19106 -5.22086 0
M  V30 6520 C 601.366 2.50234 -5.73702 0
M  V30 6521 H 601.599 0.442212 -2.93993 0
M  V30 6522 H 599.132 0.111529 -1.53997 0
M  V30 6523 H 601.09 2.937 -2.86793 0
M  V30 6524 H 599.751 2.61086 -1.74622 0
M  V30 6525 H 598.944 2.92143 -4.10693 0
M  V30 6526 H 598.546 1.29401 -3.50901 0
M  V30 6527 H 600.838 3.46173 -5.82384 0
M  V30 6528 H 601.781 2.22944 -6.72088 0
M  V30 6529 H 602.189 2.58818 -5.01671 0
M  V30 6530 N 601.587 1.56661 0.17182 0
M  V30 6531 C 602.535 1.97289 1.23207 0
M  V30 6532 C 603.529 0.861566 1.45854 0
M  V30 6533 O 604.735 1.04668 1.4644 0
M  V30 6534 H 601.11 0.627681 0.41415 0
M  V30 6535 H 603.081 2.85662 0.862542 0
M  V30 6536 C 601.83 2.34849 2.564 0
M  V30 6537 H 601.153 3.19903 2.39797 0
M  V30 6538 H 602.593 2.67121 3.29276 0
M  V30 6539 C 601.052 1.19172 3.15119 0
M  V30 6540 O 601.582 0.479113 3.98833 0
M  V30 6541 N 599.788 0.962415 2.74201 0
M  V30 6542 H 599.335 1.54365 2.06226 0
M  V30 6543 H 599.293 0.190272 3.13824 0
M  V30 6544 N 603.065 -0.440357 1.51323 0
M  V30 6545 C 604.481 -0.7766 1.39431 0
M  V30 6546 C 604.681 -1.95838 0.474296 0
M  V30 6547 O 603.737 -2.52398 -0.0716692 0
M  V30 6548 C 605.05 -1.05981 2.81405 0
M  V30 6549 C 606.598 -1.16442 2.90534 0
M  V30 6550 C 607.073 -1.48058 4.33408 0
M  V30 6551 N 608.564 -1.54988 4.36501 0
M  V30 6552 C 609.299 -1.81017 5.44078 0
M  V30 6553 N 608.795 -2.04858 6.61819 0
M  V30 6554 N 610.588 -1.82774 5.31554 0
M  V30 6555 H 602.739 0.338006 2.09693 0
M  V30 6556 H 605.002 0.0888072 0.943831 0
M  V30 6557 H 604.708 -0.264173 3.50706 0
M  V30 6558 H 604.582 -1.98822 3.20546 0
M  V30 6559 H 606.969 -1.95068 2.21432 0
M  V30 6560 H 607.05 -0.215088 2.54894 0
M  V30 6561 H 606.694 -0.699605 5.03059 0
M  V30 6562 H 606.624 -2.44192 4.66559 0
M  V30 6563 H 609.115 -1.38479 3.51613 0
M  V30 6564 H 609.428 -2.2408 7.396 0
M  V30 6565 H 607.773 -2.02187 6.6494 0
M  V30 6566 H 610.964 -1.63665 4.38556 0
M  V30 6567 H 611.137 -2.02722 6.15474 0
M  V30 6568 N 604.543 -1.41418 -0.695603 0
M  V30 6569 C 605.453 -1.45622 -1.83933 0
M  V30 6570 C 606.469 -0.346825 -1.70508 0
M  V30 6571 O 607.645 -0.59454 -1.92424 0
M  V30 6572 C 604.71 -1.33627 -3.19914 0
M  V30 6573 C 603.771 -2.54882 -3.45447 0
M  V30 6574 C 603.004 -2.43449 -4.7494 0
M  V30 6575 O 603.227 -1.45905 -5.51424 0
M  V30 6576 O 602.161 -3.33206 -5.01256 0
M  V30 6577 H 605.987 -2.42114 -1.83342 0
M  V30 6578 H 603.572 -1.22956 -0.848658 0
M  V30 6579 H 605.454 -1.29221 -4.01098 0
M  V30 6580 H 604.129 -0.402508 -3.21188 0
M  V30 6581 H 603.036 -2.64865 -2.64192 0
M  V30 6582 H 604.369 -3.47087 -3.48987 0
M  V30 6583 N 606.021 0.929856 -1.27246 0
M  V30 6584 C 607.437 1.20542 -1.04603 0
M  V30 6585 C 607.637 2.00276 0.221754 0
M  V30 6586 O 606.693 2.34835 0.927833 0
M  V30 6587 C 608.006 1.95566 -2.28417 0
M  V30 6588 C 609.554 2.08513 -2.33433 0
M  V30 6589 C 610.029 2.86943 -3.5697 0
M  V30 6590 N 611.52 2.94512 -3.57515 0
M  V30 6591 C 612.255 3.55656 -4.49774 0
M  V30 6592 N 611.751 4.18209 -5.52334 0
M  V30 6593 N 613.544 3.53038 -4.37402 0
M  V30 6594 H 605.695 0.397113 -2.08655 0
M  V30 6595 H 607.958 0.238277 -0.917566 0
M  V30 6596 H 607.664 1.44395 -3.20691 0
M  V30 6597 H 607.538 2.9619 -2.33563 0
M  V30 6598 H 609.925 2.58872 -1.41666 0
M  V30 6599 H 610.006 1.07117 -2.32292 0
M  V30 6600 H 609.65 2.37268 -4.49072 0
M  V30 6601 H 609.58 3.8862 -3.55362 0
M  V30 6602 H 612.071 2.50053 -2.83341 0
M  V30 6603 H 612.384 4.62796 -6.18902 0
M  V30 6604 H 610.729 4.16761 -5.56179 0
M  V30 6605 H 613.92 3.0337 -3.56489 0
M  V30 6606 H 614.093 4.004 -5.09493 0
M  V30 6607 N 607.499 1.09233 1.13605 0
M  V30 6608 C 608.446 0.729921 2.18954 0
M  V30 6609 C 609.416 -0.287916 1.63586 0
M  V30 6610 O 610.601 -0.170003 1.90041 0
M  V30 6611 C 607.741 0.154489 3.44754 0
M  V30 6612 C 606.854 1.22613 4.14234 0
M  V30 6613 C 605.989 0.613657 5.27644 0
M  V30 6614 C 605.028 1.66674 5.8897 0
M  V30 6615 N 604.165 1.07545 6.93814 0
M  V30 6616 H 609.005 1.63257 2.49302 0
M  V30 6617 H 606.542 0.815693 1.22413 0
M  V30 6618 H 608.5 -0.196923 4.16735 0
M  V30 6619 H 607.13 -0.711433 3.14863 0
M  V30 6620 H 606.182 1.69485 3.40557 0
M  V30 6621 H 607.494 2.0238 4.55899 0
M  V30 6622 H 606.648 0.210976 6.06333 0
M  V30 6623 H 605.387 -0.215584 4.87223 0
M  V30 6624 H 604.392 2.07899 5.08978 0
M  V30 6625 H 605.617 2.49861 6.31464 0
M  V30 6626 H 603.563 0.267451 6.55455 0
M  V30 6627 H 603.48 1.81011 7.3401 0
M  V30 6628 H 604.748 0.698906 7.7636 0
M  V30 6629 N 608.977 -1.30795 0.87923 0
M  V30 6630 C 609.94 -2.26563 0.346676 0
M  V30 6631 C 610.94 -1.52578 -0.507597 0
M  V30 6632 O 612.13 -1.71318 -0.315575 0
M  V30 6633 C 609.262 -3.37115 -0.506611 0
M  V30 6634 H 610.455 -2.75183 1.19223 0
M  V30 6635 H 608.008 -1.41886 0.655598 0
M  V30 6636 H 608.743 -2.93802 -1.37299 0
M  V30 6637 H 608.528 -3.91959 0.105218 0
M  V30 6638 H 610.018 -4.08412 -0.871192 0
M  V30 6639 N 610.455 -0.639598 -1.44038 0
M  V30 6640 C 611.418 0.0506628 -2.29144 0
M  V30 6641 C 612.418 0.764001 -1.41491 0
M  V30 6642 O 613.608 0.607309 -1.63271 0
M  V30 6643 C 610.74 1.0824 -3.2326 0
M  V30 6644 H 611.933 -0.697987 -2.91664 0
M  V30 6645 H 609.486 -0.400146 -1.51091 0
M  V30 6646 H 610.221 1.86075 -2.65606 0
M  V30 6647 H 610.006 0.574725 -3.87865 0
M  V30 6648 H 611.496 1.56487 -3.87171 0
M  V30 6649 N 611.933 1.52934 -0.380664 0
M  V30 6650 C 612.88 2.26197 0.458641 0
M  V30 6651 C 613.85 1.27462 1.06502 0
M  V30 6652 O 615.035 1.56274 1.09467 0
M  V30 6653 C 612.175 3.06571 1.58456 0
M  V30 6654 C 611.288 4.20222 1.00189 0
M  V30 6655 C 610.423 4.88007 2.09815 0
M  V30 6656 C 609.462 5.93665 1.49092 0
M  V30 6657 N 608.599 6.55081 2.52613 0
M  V30 6658 H 613.439 2.975 -0.172595 0
M  V30 6659 H 610.976 1.4678 -0.0969426 0
M  V30 6660 H 612.934 3.51455 2.24801 0
M  V30 6661 H 611.564 2.37494 2.18624 0
M  V30 6662 H 610.616 3.79714 0.228292 0
M  V30 6663 H 611.928 4.96102 0.518064 0
M  V30 6664 H 611.082 5.36151 2.83948 0
M  V30 6665 H 609.821 4.11632 2.61555 0
M  V30 6666 H 608.826 5.44868 0.7348 0
M  V30 6667 H 610.051 6.71969 0.981582 0
M  V30 6668 H 607.997 5.8155 3.03538 0
M  V30 6669 H 607.914 7.26548 2.08961 0
M  V30 6670 H 609.182 7.07871 3.26402 0
M  V30 6671 N 613.412 0.11024 1.57214 0
M  V30 6672 C 614.344 -0.873497 2.11902 0
M  V30 6673 C 615.357 -1.23588 1.05971 0
M  V30 6674 O 616.546 -1.18636 1.33371 0
M  V30 6675 C 613.646 -2.17805 2.59643 0
M  V30 6676 C 612.819 -1.98869 3.89576 0
M  V30 6677 C 611.878 -3.12974 4.23006 0
M  V30 6678 O 610.904 -2.86272 4.91973 0
M  V30 6679 N 612.106 -4.39167 3.79622 0
M  V30 6680 H 614.871 -0.406317 2.96933 0
M  V30 6681 H 612.432 -0.074437 1.61729 0
M  V30 6682 H 614.424 -2.93117 2.79042 0
M  V30 6683 H 612.994 -2.55899 1.7954 0
M  V30 6684 H 612.214 -1.078 3.79174 0
M  V30 6685 H 613.502 -1.83512 4.74553 0
M  V30 6686 H 612.9 -4.63739 3.2398 0
M  V30 6687 H 611.457 -5.11379 4.04147 0
M  V30 6688 N 614.89 -1.56749 -0.16351 0
M  V30 6689 C 615.82 -2.00042 -1.20438 0
M  V30 6690 C 616.801 -0.877256 -1.45733 0
M  V30 6691 O 617.986 -1.1439 -1.56935 0
M  V30 6692 C 615.116 -2.36697 -2.54149 0
M  V30 6693 C 614.07 -3.52046 -2.43408 0
M  V30 6694 C 613.396 -3.74466 -3.81679 0
M  V30 6695 C 614.696 -4.85247 -1.93216 0
M  V30 6696 H 616.39 -2.87244 -0.844477 0
M  V30 6697 H 613.936 -1.38194 -0.40478 0
M  V30 6698 H 615.889 -2.65582 -3.27176 0
M  V30 6699 H 614.613 -1.46414 -2.91943 0
M  V30 6700 H 613.272 -3.23301 -1.72834 0
M  V30 6701 H 612.92 -2.81461 -4.1688 0
M  V30 6702 H 612.62 -4.52084 -3.75359 0
M  V30 6703 H 614.144 -4.0576 -4.5628 0
M  V30 6704 H 615.558 -5.12957 -2.56023 0
M  V30 6705 H 613.955 -5.66556 -1.97825 0
M  V30 6706 H 615.025 -4.7672 -0.88689 0
M  V30 6707 N 616.368 0.432326 -1.51554 0
M  V30 6708 C 617.616 1.17901 -1.64146 0
M  V30 6709 C 617.937 1.91604 -0.362367 0
M  V30 6710 O 617.207 1.85764 0.621968 0
M  V30 6711 H 615.787 0.438206 -0.604966 0
M  V30 6712 H 618.449 0.495172 -1.88505 0
M  V30 6713 H 617.545 1.90584 -2.47152 0
M  V30 6714 N 617.846 1.41785 0.688094 0
M  V30 6715 C 619.093 1.41544 1.44816 0
M  V30 6716 C 619.421 0.0271746 1.94481 0
M  V30 6717 O 618.676 -0.962235 1.7041 0
M  V30 6718 C 618.975 2.37532 2.67046 0
M  V30 6719 C 618.641 3.84209 2.35996 0
M  V30 6720 C 617.303 4.24165 2.27239 0
M  V30 6721 C 619.655 4.76785 2.10536 0
M  V30 6722 C 616.983 5.54695 1.91128 0
M  V30 6723 C 619.335 6.07644 1.75931 0
M  V30 6724 C 617.999 6.46613 1.65675 0
M  V30 6725 H 617.269 0.517945 0.529919 0
M  V30 6726 H 619.916 1.74635 0.785797 0
M  V30 6727 H 618.221 1.9772 3.38251 0
M  V30 6728 H 619.918 2.34615 3.25203 0
M  V30 6729 H 616.508 3.52567 2.4371 0
M  V30 6730 H 620.692 4.46714 2.16242 0
M  V30 6731 H 615.948 5.83762 1.81746 0
M  V30 6732 H 620.122 6.78874 1.55252 0
M  V30 6733 H 617.749 7.47668 1.37463 0
M  V30 6734 N 619.324 -0.923095 1.27737 0
M  V30 6735 C 620.573 -1.66581 1.13727 0
M  V30 6736 C 620.886 -1.9304 -0.315433 0
M  V30 6737 O 622.092 -2.65309 -0.57651 0
M  V30 6738 C 620.548 -3.00047 1.98745 0
M  V30 6739 C 620.156 -2.8127 3.48699 0
M  V30 6740 C 621.9 -3.77887 1.93395 0
M  V30 6741 C 619.807 -4.1032 4.25901 0
M  V30 6742 H 618.737 -0.624834 0.422017 0
M  V30 6743 H 621.388 -1.02514 1.52194 0
M  V30 6744 H 619.77 -3.65197 1.53125 0
M  V30 6745 H 620.944 -2.24859 4.02213 0
M  V30 6746 H 619.259 -2.16854 3.55476 0
M  V30 6747 H 621.856 -4.73526 2.48348 0
M  V30 6748 H 622.199 -4.06264 0.908605 0
M  V30 6749 H 622.732 -3.19541 2.36935 0
M  V30 6750 H 619.471 -3.8712 5.28978 0
M  V30 6751 H 618.991 -4.66377 3.77163 0
M  V30 6752 H 620.67 -4.78648 4.35321 0
M  V30 6753 N 620.802 -1.09834 -1.13024 0
M  V30 6754 C 621.735 -0.685453 -2.17662 0
M  V30 6755 C 622.713 0.310142 -1.59615 0
M  V30 6756 O 623.897 0.21052 -1.87321 0
M  V30 6757 C 621.024 -0.0104476 -3.38698 0
M  V30 6758 C 620.07 -0.968522 -4.15358 0
M  V30 6759 S 620.903 -2.48272 -4.74469 0
M  V30 6760 C 622.059 -1.82025 -5.98847 0
M  V30 6761 H 622.292 -1.57187 -2.52348 0
M  V30 6762 H 619.825 -0.914728 -1.24387 0
M  V30 6763 H 621.783 0.372694 -4.08805 0
M  V30 6764 H 620.444 0.852673 -3.02305 0
M  V30 6765 H 619.637 -0.443373 -5.02046 0
M  V30 6766 H 619.239 -1.29327 -3.50928 0
M  V30 6767 H 621.531 -1.14678 -6.67724 0
M  V30 6768 H 622.474 -2.66645 -6.55977 0
M  V30 6769 H 622.882 -1.2874 -5.49624 0
M  V30 6770 N 622.28 1.30327 -0.886154 0
M  V30 6771 C 623.243 2.26376 -0.358687 0
M  V30 6772 C 624.243 1.52845 0.499498 0
M  V30 6773 O 625.433 1.71483 0.306485 0
M  V30 6774 C 622.565 3.37379 0.488726 0
M  V30 6775 H 623.758 2.74547 -1.20681 0
M  V30 6776 H 621.311 1.41536 -0.663113 0
M  V30 6777 H 622.046 2.94526 1.35739 0
M  V30 6778 H 621.831 3.91897 -0.126003 0
M  V30 6779 H 623.321 4.08868 0.84952 0
M  V30 6780 N 623.758 0.647228 1.43697 0
M  V30 6781 C 624.721 -0.0385101 2.29168 0
M  V30 6782 C 625.721 -0.756487 1.41894 0
M  V30 6783 O 626.911 -0.598641 1.63591 0
M  V30 6784 C 624.043 -1.06524 3.23829 0
M  V30 6785 H 625.236 0.713445 2.9129 0
M  V30 6786 H 622.789 0.408153 1.50877 0
M  V30 6787 H 623.524 -1.84664 2.66589 0
M  V30 6788 H 623.309 -0.554147 3.88164 0
M  V30 6789 H 624.799 -1.54432 3.87996 0
M  V30 6790 N 625.236 -1.5273 0.388769 0
M  V30 6791 C 626.483 -2.01573 -0.19359 0
M  V30 6792 C 626.811 -1.27525 -1.46859 0
M  V30 6793 O 626.066 -0.363926 -1.92286 0
M  V30 6794 C 626.365 -3.53765 -0.508445 0
M  V30 6795 C 626.031 -4.4582 0.674947 0
M  V30 6796 C 624.693 -4.70703 0.999596 0
M  V30 6797 C 627.045 -5.00138 1.46666 0
M  V30 6798 C 624.373 -5.47155 2.11751 0
M  V30 6799 C 626.725 -5.77812 2.57518 0
M  V30 6800 C 625.389 -6.00975 2.90492 0
M  V30 6801 H 624.659 -0.737606 -0.0708397 0
M  V30 6802 H 627.306 -1.84134 0.526006 0
M  V30 6803 H 625.611 -3.69274 -1.30936 0
M  V30 6804 H 627.308 -3.8905 -0.971664 0
M  V30 6805 H 623.898 -4.26616 0.411906 0
M  V30 6806 H 628.082 -4.8084 1.22909 0
M  V30 6807 H 623.338 -5.63314 2.3767 0
M  V30 6808 H 627.512 -6.18904 3.19267 0
M  V30 6809 H 625.139 -6.59998 3.77236 0
M  V30 6810 N 626.714 -0.118576 -1.57153 0
M  V30 6811 C 627.963 0.539339 -1.94355 0
M  V30 6812 C 628.276 1.67858 -1.00415 0
M  V30 6813 O 629.482 2.39922 -1.27081 0
M  V30 6814 C 627.938 1.01082 -3.45414 0
M  V30 6815 C 627.546 -0.0999402 -4.47889 0
M  V30 6816 C 629.29 1.64013 -3.91535 0
M  V30 6817 C 627.197 0.388212 -5.90124 0
M  V30 6818 H 626.127 0.205247 -0.725527 0
M  V30 6819 H 628.778 -0.19836 -1.82425 0
M  V30 6820 H 627.16 1.80292 -3.52577 0
M  V30 6821 H 628.334 -0.876189 -4.52393 0
M  V30 6822 H 626.649 -0.635885 -4.11516 0
M  V30 6823 H 629.246 2.01649 -4.95219 0
M  V30 6824 H 629.589 2.51836 -3.31488 0
M  V30 6825 H 630.122 0.913439 -3.87171 0
M  V30 6826 H 626.861 -0.453963 -6.53926 0
M  V30 6827 H 626.381 1.13095 -5.89041 0
M  V30 6828 H 628.06 0.849574 -6.41398 0
M  V30 6829 N 628.193 1.56834 0.155195 0
M  V30 6830 C 629.123 2.00678 1.19376 0
M  V30 6831 C 630.104 0.884973 1.45266 0
M  V30 6832 O 631.289 1.1522 1.56326 0
M  V30 6833 C 628.419 2.38042 2.5289 0
M  V30 6834 C 627.373 3.53332 2.41538 0
M  V30 6835 C 626.699 3.76485 3.79688 0
M  V30 6836 C 627.999 4.86265 1.9064 0
M  V30 6837 H 629.693 2.87688 0.829232 0
M  V30 6838 H 627.239 1.38407 0.397445 0
M  V30 6839 H 629.192 2.67314 3.25763 0
M  V30 6840 H 627.916 1.4796 2.91162 0
M  V30 6841 H 626.575 3.24213 1.71117 0
M  V30 6842 H 626.223 2.83667 4.15382 0
M  V30 6843 H 625.923 4.54068 3.72956 0
M  V30 6844 H 627.447 4.08174 4.54122 0
M  V30 6845 H 628.861 5.14308 2.53299 0
M  V30 6846 H 627.258 5.67597 1.94818 0
M  V30 6847 H 628.328 4.77184 0.861596 0
M  V30 6848 N 629.671 -0.424282 1.51781 0
M  V30 6849 C 630.911 -1.18194 1.66762 0
M  V30 6850 C 631.275 -1.88164 0.381857 0
M  V30 6851 O 632.476 -2.65692 0.407586 0
M  V30 6852 C 630.747 -2.16173 2.84612 0
M  V30 6853 S 632.306 -3.0025 3.19993 0
M  V30 6854 H 629.124 -0.400626 0.587384 0
M  V30 6855 H 631.726 -0.471499 1.89729 0
M  V30 6856 H 630.43 -1.6343 3.76455 0
M  V30 6857 H 629.961 -2.91778 2.63873 0
M  V30 6858 H 631.976 -4.1796 2.67439 0
M  V30 6859 N 631.149 -1.42148 -0.680565 0
M  V30 6860 C 632.395 -1.4352 -1.44131 0
M  V30 6861 C 632.75 -0.0486244 -1.92339 0
M  V30 6862 O 632.043 0.92819 -1.67616 0
M  V30 6863 C 632.237 -2.38945 -2.65782 0
M  V30 6864 C 632.066 -3.86743 -2.29477 0
M  V30 6865 C 630.836 -4.5532 -2.19115 0
M  V30 6866 C 633.034 -4.77321 -1.91491 0
M  V30 6867 N 631.016 -5.88174 -1.75853 0
M  V30 6868 C 632.387 -5.99238 -1.59103 0
M  V30 6869 C 634.442 -4.64829 -1.78432 0
M  V30 6870 C 633.145 -7.10053 -1.14968 0
M  V30 6871 C 635.171 -5.75621 -1.35702 0
M  V30 6872 C 634.533 -6.96645 -1.04234 0
M  V30 6873 H 630.632 -0.580363 -0.524121 0
M  V30 6874 H 633.216 -1.78132 -0.785939 0
M  V30 6875 H 631.387 -2.06403 -3.29017 0
M  V30 6876 H 633.119 -2.30935 -3.32342 0
M  V30 6877 H 629.874 -4.09456 -2.37998 0
M  V30 6878 H 630.298 -6.58625 -1.56661 0
M  V30 6879 H 634.94 -3.71745 -2.01409 0
M  V30 6880 H 632.658 -8.0299 -0.907365 0
M  V30 6881 H 636.244 -5.67964 -1.26126 0
M  V30 6882 H 635.124 -7.80918 -0.716707 0
M  V30 6883 N 632.627 0.916307 -1.28225 0
M  V30 6884 C 633.876 1.65975 -1.14608 0
M  V30 6885 C 634.189 1.93204 0.305191 0
M  V30 6886 O 635.395 2.65611 0.562432 0
M  V30 6887 C 633.851 2.98989 -2.00333 0
M  V30 6888 C 633.459 2.79417 -3.50186 0
M  V30 6889 C 635.203 3.76856 -1.95397 0
M  V30 6890 C 633.11 4.08056 -4.28071 0
M  V30 6891 H 632.04 0.622587 -0.425324 0
M  V30 6892 H 634.691 1.01705 -1.52736 0
M  V30 6893 H 633.073 3.6438 -1.5506 0
M  V30 6894 H 634.247 2.22723 -4.034 0
M  V30 6895 H 632.562 2.14966 -3.56621 0
M  V30 6896 H 635.159 4.72203 -2.50856 0
M  V30 6897 H 635.502 4.05776 -0.930137 0
M  V30 6898 H 636.035 3.1828 -2.38626 0
M  V30 6899 H 632.774 3.8431 -5.31024 0
M  V30 6900 H 632.294 4.64371 -3.79631 0
M  V30 6901 H 633.973 4.76333 -4.37854 0
M  V30 6902 N 634.105 1.10431 1.1244 0
M  V30 6903 C 635.516 0.864439 1.65482 0
M  V30 6904 C 635.867 -0.60527 1.8663 0
M  V30 6905 O 634.992 -1.46492 1.59276 0
M  V30 6906 C 635.587 1.56267 3.0061 0
M  V30 6907 C 634.146 1.3695 3.50602 0
M  V30 6908 C 633.293 1.61209 2.25626 0
M  V30 6909 H 636.244 1.26203 0.962209 0
M  V30 6910 H 636.265 1.00166 3.67079 0
M  V30 6911 H 635.777 2.63231 2.85186 0
M  V30 6912 H 633.878 0.321481 3.71211 0
M  V30 6913 H 633.991 2.11143 4.30064 0
M  V30 6914 H 632.355 1.03482 2.32731 0
M  V30 6915 H 633.138 2.69425 2.12756 0
M  V30 6916 N 635.583 -1.29855 0.893053 0
M  V30 6917 C 636.813 -1.99686 0.530019 0
M  V30 6918 C 637.221 -1.67066 -0.888012 0
M  V30 6919 O 636.564 -0.908366 -1.5967 0
M  V30 6920 C 636.626 -3.53855 0.63457 0
M  V30 6921 C 636.29 -4.10013 2.01837 0
M  V30 6922 C 637.287 -4.25406 2.98874 0
M  V30 6923 C 634.972 -4.45202 2.32595 0
M  V30 6924 C 636.966 -4.7521 4.24799 0
M  V30 6925 C 634.653 -4.94704 3.58763 0
M  V30 6926 C 635.651 -5.09662 4.5468 0
M  V30 6927 O 635.339 -5.58093 5.78608 0
M  V30 6928 H 635.071 -0.644913 0.20264 0
M  V30 6929 H 637.625 -1.66518 1.20253 0
M  V30 6930 H 635.855 -3.86583 -0.0949477 0
M  V30 6931 H 637.544 -4.04922 0.281648 0
M  V30 6932 H 638.31 -3.98515 2.76425 0
M  V30 6933 H 634.189 -4.32822 1.58701 0
M  V30 6934 H 637.733 -4.86801 4.99671 0
M  V30 6935 H 633.63 -5.21032 3.81046 0
M  V30 6936 H 634.398 -5.7642 5.81104 0
M  V30 6937 N 637.061 -0.65484 -1.43351 0
M  V30 6938 C 638.308 -0.168892 -2.01794 0
M  V30 6939 C 638.636 1.2177 -1.51665 0
M  V30 6940 O 637.891 1.82717 -0.70092 0
M  V30 6941 C 638.19 -0.130424 -3.57162 0
M  V30 6942 C 637.856 -1.45898 -4.26643 0
M  V30 6943 C 636.518 -1.82279 -4.4534 0
M  V30 6944 C 638.87 -2.33485 -4.65976 0
M  V30 6945 C 636.198 -3.0591 -5.00635 0
M  V30 6946 C 638.55 -3.5641 -5.22642 0
M  V30 6947 C 637.214 -3.92985 -5.39555 0
M  V30 6948 H 636.484 -0.061802 -0.738418 0
M  V30 6949 H 639.131 -0.845869 -1.71806 0
M  V30 6950 H 637.436 0.630008 -3.86702 0
M  V30 6951 H 639.133 0.262465 -4.0014 0
M  V30 6952 H 635.723 -1.16591 -4.12437 0
M  V30 6953 H 639.907 -2.06668 -4.51223 0
M  V30 6954 H 635.163 -3.34295 -5.11915 0
M  V30 6955 H 639.337 -4.24495 -5.52066 0
M  V30 6956 H 636.964 -4.88862 -5.82167 0
M  V30 6957 N 638.539 1.52521 -0.396863 0
M  V30 6958 C 639.788 2.00857 0.184184 0
M  V30 6959 C 640.101 1.28733 1.47265 0
M  V30 6960 O 641.307 1.67821 2.13421 0
M  V30 6961 C 639.763 3.57901 0.378787 0
M  V30 6962 C 639.371 4.38931 -0.896873 0
M  V30 6963 C 641.115 4.14504 0.915789 0
M  V30 6964 C 639.022 5.87591 -0.670133 0
M  V30 6965 H 637.952 0.750496 0.0726055 0
M  V30 6966 H 640.603 1.75965 -0.520425 0
M  V30 6967 H 638.985 3.79072 1.14543 0
M  V30 6968 H 640.159 4.29524 -1.66872 0
M  V30 6969 H 638.474 3.93586 -1.35938 0
M  V30 6970 H 641.071 5.23236 1.10126 0
M  V30 6971 H 641.414 3.71076 1.88701 0
M  V30 6972 H 641.947 3.97253 0.208523 0
M  V30 6973 H 638.686 6.35355 -1.61257 0
M  V30 6974 H 638.206 5.99767 0.0626368 0
M  V30 6975 H 639.885 6.46268 -0.307577 0
M  V30 6976 N 640.017 0.126909 1.57088 0
M  V30 6977 C 641.264 -0.529168 1.95464 0
M  V30 6978 C 641.592 -1.6618 1.01067 0
M  V30 6979 O 640.847 -1.95667 0.0360254 0
M  V30 6980 C 641.146 -1.095 3.40212 0
M  V30 6981 C 640.812 -0.0829015 4.50824 0
M  V30 6982 C 639.474 0.195377 4.80803 0
M  V30 6983 C 641.826 0.606411 5.1766 0
M  V30 6984 C 639.154 1.16912 5.74933 0
M  V30 6985 C 641.506 1.56884 6.12838 0
M  V30 6986 C 640.17 1.85502 6.41206 0
M  V30 6987 H 639.44 -0.193636 0.715252 0
M  V30 6988 H 642.087 0.209489 1.90351 0
M  V30 6989 H 640.392 -1.91058 3.42059 0
M  V30 6990 H 642.089 -1.61087 3.67222 0
M  V30 6991 H 638.679 -0.309979 4.27478 0
M  V30 6992 H 642.863 0.404597 4.94648 0
M  V30 6993 H 638.119 1.3975 5.95214 0
M  V30 6994 H 642.293 2.10859 6.6371 0
M  V30 6995 H 639.92 2.61109 7.13951 0
M  V30 6996 N 641.495 -1.56914 -0.146875 0
M  V30 6997 C 642.742 -1.83356 -0.859467 0
M  V30 6998 C 643.07 -0.707811 -1.81164 0
M  V30 6999 O 642.325 0.303155 -1.93338 0
M  V30 7000 C 642.624 -3.16128 -1.66727 0
M  V30 7001 C 642.29 -4.42586 -0.861881 0
M  V30 7002 C 640.952 -4.76929 -0.639687 0
M  V30 7003 C 643.304 -5.20344 -0.298643 0
M  V30 7004 C 640.632 -5.86491 0.156451 0
M  V30 7005 C 642.984 -6.30742 0.484536 0
M  V30 7006 C 641.648 -6.63635 0.717306 0
M  V30 7007 H 640.918 -0.670947 -0.314501 0
M  V30 7008 H 643.565 -1.91104 -0.123108 0
M  V30 7009 H 641.87 -3.03831 -2.47374 0
M  V30 7010 H 643.567 -3.33802 -2.2221 0
M  V30 7011 H 640.157 -4.15662 -1.04513 0
M  V30 7012 H 644.341 -4.94186 -0.457585 0
M  V30 7013 H 639.597 -6.10419 0.346292 0
M  V30 7014 H 643.771 -6.90188 0.928105 0
M  V30 7015 H 641.398 -7.48367 1.33607 0
M  V30 7016 N 642.974 0.416227 -1.52004 0
M  V30 7017 C 643.907 1.52736 -1.6955 0
M  V30 7018 C 644.885 1.53264 -0.54305 0
M  V30 7019 O 646.069 1.72077 -0.769527 0
M  V30 7020 C 643.196 2.91283 -1.72835 0
M  V30 7021 C 642.242 3.08695 -2.94295 0
M  V30 7022 S 643.075 2.82758 -4.54762 0
M  V30 7023 C 644.231 4.23548 -4.60823 0
M  V30 7024 H 644.464 1.37623 -2.63528 0
M  V30 7025 H 641.997 0.607335 -1.41954 0
M  V30 7026 H 643.955 3.71134 -1.75413 0
M  V30 7027 H 642.616 3.03742 -0.799966 0
M  V30 7028 H 641.809 4.10042 -2.93056 0
M  V30 7029 H 641.411 2.36699 -2.89568 0
M  V30 7030 H 643.703 5.17078 -4.37763 0
M  V30 7031 H 644.646 4.29813 -5.62731 0
M  V30 7032 H 645.054 4.08188 -3.89927 0
M  V30 7033 N 644.452 1.42507 0.673017 0
M  V30 7034 C 645.698 1.43284 1.43519 0
M  V30 7035 C 646.031 0.049668 1.94136 0
M  V30 7036 O 645.306 -0.926369 1.71022 0
M  V30 7037 C 645.589 2.45874 2.63093 0
M  V30 7038 C 645.442 3.93388 2.18096 0
M  V30 7039 C 646.761 2.45431 3.6531 0
M  V30 7040 H 643.88 0.521752 0.520522 0
M  V30 7041 H 646.522 1.73932 0.764701 0
M  V30 7042 H 644.672 2.19869 3.20296 0
M  V30 7043 H 646.344 4.30379 1.66046 0
M  V30 7044 H 644.587 4.07169 1.49652 0
M  V30 7045 H 645.258 4.60752 3.03993 0
M  V30 7046 H 647.734 2.68561 3.17827 0
M  V30 7047 H 646.61 3.19189 4.46553 0
M  V30 7048 H 646.871 1.48092 4.16559 0
M  V30 7049 N 645.93 -0.909495 1.28709 0
M  V30 7050 C 647.179 -1.65365 1.15487 0
M  V30 7051 C 647.492 -1.93364 -0.294941 0
M  V30 7052 O 648.698 -2.65905 -0.548338 0
M  V30 7053 C 647.154 -2.97923 2.01916 0
M  V30 7054 C 646.762 -2.77556 3.51663 0
M  V30 7055 C 648.506 -3.75814 1.97393 0
M  V30 7056 C 646.413 -4.0578 4.30229 0
M  V30 7057 H 645.343 -0.620323 0.42862 0
M  V30 7058 H 647.994 -1.00894 1.53273 0
M  V30 7059 H 646.376 -3.63552 1.5699 0
M  V30 7060 H 647.55 -2.2058 4.04575 0
M  V30 7061 H 645.865 -2.13072 3.57756 0
M  V30 7062 H 648.462 -4.70866 2.53357 0
M  V30 7063 H 648.805 -4.05277 0.951643 0
M  V30 7064 H 649.338 -3.1701 2.40311 0
M  V30 7065 H 646.077 -3.81488 5.33055 0
M  V30 7066 H 645.597 -4.62351 3.82089 0
M  V30 7067 H 647.276 -4.74004 4.40374 0
M  V30 7068 N 647.408 -1.11026 -1.11852 0
M  V30 7069 C 648.371 -0.768006 -2.1595 0
M  V30 7070 C 649.371 0.210538 -1.59416 0
M  V30 7071 O 650.561 -0.0133978 -1.74195 0
M  V30 7072 C 647.693 -0.138678 -3.40618 0
M  V30 7073 H 648.886 -1.69012 -2.4774 0
M  V30 7074 H 646.439 -0.911578 -1.26964 0
M  V30 7075 H 647.174 0.793872 -3.14433 0
M  V30 7076 H 646.959 -0.843012 -3.8293 0
M  V30 7077 H 648.449 0.0848039 -4.17514 0
M  V30 7078 N 648.886 1.2938 -0.899927 0
M  V30 7079 C 650.133 1.9555 -0.525963 0
M  V30 7080 C 650.461 1.70945 0.927789 0
M  V30 7081 O 649.716 1.01545 1.67293 0
M  V30 7082 C 650.015 3.49114 -0.765113 0
M  V30 7083 C 649.681 3.93796 -2.19626 0
M  V30 7084 C 648.343 4.05707 -2.58758 0
M  V30 7085 C 650.695 4.16883 -3.12823 0
M  V30 7086 C 648.023 4.38074 -3.90267 0
M  V30 7087 C 650.375 4.50725 -4.4388 0
M  V30 7088 C 649.039 4.60845 -4.82885 0
M  V30 7089 H 648.309 0.715569 -0.192463 0
M  V30 7090 H 650.956 1.53972 -1.13863 0
M  V30 7091 H 649.261 3.91738 -0.069531 0
M  V30 7092 H 650.958 3.98409 -0.455144 0
M  V30 7093 H 647.548 3.85042 -1.88256 0
M  V30 7094 H 651.732 4.07147 -2.83804 0
M  V30 7095 H 646.988 4.44112 -4.20207 0
M  V30 7096 H 651.162 4.67538 -5.16121 0
M  V30 7097 H 648.789 4.85681 -5.84823 0
M  V30 7098 N 650.364 0.662433 1.43002 0
M  V30 7099 C 651.604 0.183312 2.03576 0
M  V30 7100 C 651.968 -1.18354 1.51183 0
M  V30 7101 O 653.169 -1.7566 2.03462 0
M  V30 7102 C 651.44 0.202908 3.56824 0
M  V30 7103 S 652.999 -0.20702 4.38311 0
M  V30 7104 H 649.817 0.0765001 0.706872 0
M  V30 7105 H 652.419 0.872827 1.74934 0
M  V30 7106 H 651.123 1.20028 3.92456 0
M  V30 7107 H 650.654 -0.506845 3.90121 0
M  V30 7108 H 652.669 -1.44358 4.74737 0
M  V30 7109 N 651.842 -1.52309 0.404946 0
M  V30 7110 C 652.789 -2.26898 -0.422597 0
M  V30 7111 C 653.759 -1.2914 -1.04461 0
M  V30 7112 O 654.944 -1.57996 -1.06967 0
M  V30 7113 C 652.084 -3.09053 -1.53559 0
M  V30 7114 C 651.197 -4.21762 -0.934908 0
M  V30 7115 C 650.332 -4.91283 -2.02025 0
M  V30 7116 C 649.371 -5.95962 -1.39628 0
M  V30 7117 N 648.508 -6.59017 -2.42159 0
M  V30 7118 H 653.348 -2.97188 0.219903 0
M  V30 7119 H 650.885 -1.46607 0.120282 0
M  V30 7120 H 652.843 -3.54987 -2.19181 0
M  V30 7121 H 651.473 -2.40942 -2.14818 0
M  V30 7122 H 650.525 -3.80029 -0.167854 0
M  V30 7123 H 651.837 -4.96864 -0.439073 0
M  V30 7124 H 650.991 -5.40601 -2.75383 0
M  V30 7125 H 649.73 -4.15741 -2.54973 0
M  V30 7126 H 648.735 -5.45968 -0.648023 0
M  V30 7127 H 649.96 -6.73445 -0.874553 0
M  V30 7128 H 647.906 -5.86306 -2.94247 0
M  V30 7129 H 647.823 -7.2978 -1.97376 0
M  V30 7130 H 649.091 -7.12974 -3.15099 0
M  V30 7131 N 653.32 -0.135238 -1.57019 0
M  V30 7132 C 654.268 0.826099 -2.17436 0
M  V30 7133 C 655.262 1.26378 -1.12805 0
M  V30 7134 O 656.468 1.23363 -1.31079 0
M  V30 7135 H 652.843 0.284568 -0.696078 0
M  V30 7136 H 654.814 0.292212 -2.96966 0
M  V30 7137 C 653.563 2.05991 -2.80112 0
M  V30 7138 H 652.886 1.73209 -3.60331 0
M  V30 7139 H 654.326 2.71225 -3.25903 0
M  V30 7140 C 652.785 2.86027 -1.78017 0
M  V30 7141 O 653.315 3.81971 -1.24344 0
M  V30 7142 N 651.521 2.50332 -1.47588 0
M  V30 7143 H 651.068 1.72377 -1.91426 0
M  V30 7144 H 651.026 3.04177 -0.795228 0
M  V30 7145 N 654.798 1.5699 0.138552 0
M  V30 7146 C 656.038 1.85619 0.855849 0
M  V30 7147 C 656.402 0.720663 1.77962 0
M  V30 7148 O 657.603 0.888221 2.53701 0
M  V30 7149 C 655.874 3.19447 1.60275 0
M  V30 7150 S 657.433 3.69656 2.36431 0
M  V30 7151 H 654.251 0.650926 0.286035 0
M  V30 7152 H 656.853 1.9516 0.115331 0
M  V30 7153 H 655.557 4.00053 0.915737 0
M  V30 7154 H 655.088 3.12935 2.38402 0
M  V30 7155 H 657.103 3.39595 3.61787 0
M  V30 7156 N 656.276 -0.40816 1.52223 0
M  V30 7157 C 657.516 -1.16418 1.68006 0
M  V30 7158 C 657.88 -1.87749 0.401793 0
M  V30 7159 O 659.081 -2.65245 0.435743 0
M  V30 7160 C 657.352 -2.13143 2.86889 0
M  V30 7161 S 658.911 -2.96839 3.2316 0
M  V30 7162 H 655.729 -0.394373 0.5916 0
M  V30 7163 H 658.331 -0.451349 1.90219 0
M  V30 7164 H 657.035 -1.59428 3.78168 0
M  V30 7165 H 656.566 -2.88963 2.66953 0
M  V30 7166 H 658.581 -4.151 2.71857 0
M  V30 7167 N 657.755 -1.42862 -0.66545 0
M  V30 7168 C 658.703 -1.47319 -1.8 0
M  V30 7169 C 659.697 -0.347963 -1.65788 0
M  V30 7170 O 660.903 -0.521406 -1.72283 0
M  V30 7171 H 657.278 -0.461588 -0.593667 0
M  V30 7172 H 659.249 -2.42876 -1.7336 0
M  V30 7173 C 657.998 -1.40152 -3.18203 0
M  V30 7174 H 657.321 -2.26035 -3.2977 0
M  V30 7175 H 658.761 -1.47331 -3.9758 0
M  V30 7176 C 657.22 -0.117493 -3.36695 0
M  V30 7177 O 657.75 0.826058 -3.93115 0
M  V30 7178 N 655.956 -0.0316218 -2.90583 0
M  V30 7179 H 655.503 -0.800247 -2.44855 0
M  V30 7180 H 655.461 0.826835 -3.03333 0
M  V30 7181 N 659.233 0.902656 -1.29189 0
M  V30 7182 C 660.143 2.03946 -1.15944 0
M  V30 7183 C 661.159 1.738 -0.0833803 0
M  V30 7184 O 662.335 1.9923 -0.29487 0
M  V30 7185 C 659.4 3.36519 -0.834006 0
M  V30 7186 C 658.461 3.80203 -1.9936 0
M  V30 7187 C 657.694 5.06449 -1.68359 0
M  V30 7188 O 657.917 5.67202 -0.603141 0
M  V30 7189 O 656.851 5.46114 -2.53067 0
M  V30 7190 H 660.677 2.18043 -2.11403 0
M  V30 7191 H 658.262 1.02584 -1.08613 0
M  V30 7192 H 660.144 4.16089 -0.666949 0
M  V30 7193 H 658.819 3.23573 0.0908245 0
M  V30 7194 H 657.726 3.01413 -2.21588 0
M  V30 7195 H 659.059 3.97729 -2.89952 0
M  V30 7196 N 660.711 1.11618 1.11262 0
M  V30 7197 C 661.661 0.745274 2.15475 0
M  V30 7198 C 662.645 -0.251585 1.58921 0
M  V30 7199 O 663.837 -0.0584093 1.76904 0
M  V30 7200 C 660.966 0.192128 3.42762 0
M  V30 7201 C 660.052 1.21676 4.0627 0
M  V30 7202 N 660.443 2.41158 4.44608 0
M  V30 7203 C 658.741 1.06013 4.33217 0
M  V30 7204 C 659.442 3.0652 4.94389 0
M  V30 7205 N 658.418 2.33994 4.9066 0
M  V30 7206 H 662.22 1.65462 2.42898 0
M  V30 7207 H 659.734 0.995695 1.28295 0
M  V30 7208 H 661.731 -0.0917339 4.16799 0
M  V30 7209 H 660.391 -0.711778 3.16802 0
M  V30 7210 H 661.402 2.786 4.3658 0
M  V30 7211 H 658.079 0.212809 4.16957 0
M  V30 7212 H 659.469 4.08225 5.33669 0
M  V30 7213 N 662.189 -1.289 0.906776 0
M  V30 7214 C 663.119 -2.29932 0.406659 0
M  V30 7215 C 664.1 -1.6189 -0.522061 0
M  V30 7216 O 665.285 -1.8935 -0.431283 0
M  V30 7217 C 662.415 -3.45425 -0.360366 0
M  V30 7218 C 661.369 -4.25316 0.478574 0
M  V30 7219 C 660.695 -5.33076 -0.416373 0
M  V30 7220 C 661.995 -4.92739 1.7322 0
M  V30 7221 H 663.689 -2.72013 1.25097 0
M  V30 7222 H 661.235 -1.30768 0.602977 0
M  V30 7223 H 663.188 -4.15186 -0.721029 0
M  V30 7224 H 661.912 -3.02206 -1.23852 0
M  V30 7225 H 660.571 -3.57273 0.821662 0
M  V30 7226 H 660.219 -4.86101 -1.29287 0
M  V30 7227 H 659.919 -5.8743 0.141309 0
M  V30 7228 H 661.443 -6.05686 -0.773072 0
M  V30 7229 H 662.857 -5.54898 1.44086 0
M  V30 7230 H 661.254 -5.57057 2.23175 0
M  V30 7231 H 662.324 -4.17625 2.46408 0
M  V30 7232 N 663.667 -0.670007 -1.42649 0
M  V30 7233 C 664.617 0.0339546 -2.27975 0
M  V30 7234 C 665.601 0.778295 -1.40824 0
M  V30 7235 O 666.793 0.657997 -1.64315 0
M  V30 7236 C 663.922 0.987899 -3.28779 0
M  V30 7237 C 663.008 0.241153 -4.23414 0
M  V30 7238 N 663.399 -0.751392 -5.00188 0
M  V30 7239 C 661.697 0.480269 -4.43407 0
M  V30 7240 C 662.398 -1.19615 -5.69269 0
M  V30 7241 N 661.374 -0.527045 -5.41039 0
M  V30 7242 H 665.176 -0.727425 -2.84756 0
M  V30 7243 H 662.69 -0.498673 -1.54554 0
M  V30 7244 H 664.687 1.50716 -3.88703 0
M  V30 7245 H 663.347 1.74916 -2.73559 0
M  V30 7246 H 664.358 -1.13075 -5.05405 0
M  V30 7247 H 661.035 1.2214 -3.99234 0
M  V30 7248 H 662.425 -2.01836 -6.40868 0
M  V30 7249 N 665.145 1.52092 -0.413018 0
M  V30 7250 C 666.078 2.23613 0.455234 0
M  V30 7251 C 667.056 1.2459 1.04481 0
M  V30 7252 O 668.24 1.53653 1.09193 0
M  V30 7253 C 665.367 2.96775 1.63224 0
M  V30 7254 C 664.413 4.10261 1.16568 0
M  V30 7255 S 665.246 5.35348 0.127633 0
M  V30 7256 C 666.402 6.1204 1.30987 0
M  V30 7257 H 666.635 2.96911 -0.152042 0
M  V30 7258 H 664.168 1.53134 -0.197343 0
M  V30 7259 H 666.126 3.39532 2.30713 0
M  V30 7260 H 664.787 2.23113 2.21087 0
M  V30 7261 H 663.98 4.6064 2.04515 0
M  V30 7262 H 663.582 3.6964 0.569386 0
M  V30 7263 H 665.874 6.39651 2.23276 0
M  V30 7264 H 666.817 7.03022 0.846533 0
M  V30 7265 H 667.225 5.43161 1.53743 0
M  V30 7266 N 666.623 0.143563 1.56945 0
M  V30 7267 C 667.87 -0.508407 1.96014 0
M  V30 7268 C 668.198 -1.65099 1.02824 0
M  V30 7269 O 667.453 -1.95618 0.0567764 0
M  V30 7270 C 667.752 -1.05885 3.41355 0
M  V30 7271 C 667.418 -0.0350809 4.50886 0
M  V30 7272 C 666.08 0.246362 4.80569 0
M  V30 7273 C 668.432 0.661282 5.16988 0
M  V30 7274 C 665.76 1.23003 5.73661 0
M  V30 7275 C 668.112 1.63375 6.11139 0
M  V30 7276 C 666.776 1.92292 6.39203 0
M  V30 7277 H 666.046 -0.186039 0.717266 0
M  V30 7278 H 668.693 0.229667 1.90118 0
M  V30 7279 H 666.998 -1.87419 3.44066 0
M  V30 7280 H 668.695 -1.57183 3.6891 0
M  V30 7281 H 665.285 -0.264622 4.27782 0
M  V30 7282 H 669.469 0.457038 4.94191 0
M  V30 7283 H 664.725 1.46056 5.93698 0
M  V30 7284 H 668.899 2.17887 6.61436 0
M  V30 7285 H 666.526 2.68666 7.11142 0
M  V30 7286 N 668.101 -1.57061 -0.130224 0
M  V30 7287 C 669.329 -1.88432 -0.854456 0
M  V30 7288 C 669.744 -0.733608 -1.73964 0
M  V30 7289 O 669.101 0.296029 -1.80083 0
M  V30 7290 C 669.152 -3.1918 -1.69724 0
M  V30 7291 O 668.873 -4.2982 -0.847705 0
M  V30 7292 C 670.374 -3.6418 -2.5276 0
M  V30 7293 H 667.594 -0.624193 -0.246221 0
M  V30 7294 H 670.138 -2.04159 -0.11798 0
M  V30 7295 H 668.293 -3.05156 -2.3866 0
M  V30 7296 H 668.707 -5.04689 -1.42792 0
M  V30 7297 H 670.181 -4.58457 -3.07443 0
M  V30 7298 H 670.658 -2.90285 -3.29592 0
M  V30 7299 H 671.264 -3.80954 -1.89087 0
M  V30 7300 N 669.579 0.400081 -1.52437 0
M  V30 7301 C 670.828 1.14332 -1.66166 0
M  V30 7302 C 671.141 1.91419 -0.402253 0
M  V30 7303 O 672.347 2.6824 -0.419487 0
M  V30 7304 C 670.803 2.08137 -2.9361 0
M  V30 7305 C 670.411 1.36524 -4.26691 0
M  V30 7306 C 672.155 2.82664 -3.16703 0
M  V30 7307 C 670.062 2.29031 -5.45251 0
M  V30 7308 H 668.992 0.430499 -0.61902 0
M  V30 7309 H 671.643 0.407017 -1.78929 0
M  V30 7310 H 670.025 2.85358 -2.74567 0
M  V30 7311 H 671.199 0.646061 -4.56249 0
M  V30 7312 H 669.514 0.74002 -4.09771 0
M  V30 7313 H 672.111 3.52037 -4.0246 0
M  V30 7314 H 672.454 3.46122 -2.31312 0
M  V30 7315 H 672.987 2.12541 -3.36261 0
M  V30 7316 H 669.726 1.70206 -6.33017 0
M  V30 7317 H 669.246 2.98896 -5.2002 0
M  V30 7318 H 670.925 2.89359 -5.78689 0
M  V30 7319 N 671.057 1.43213 0.657864 0
M  V30 7320 C 672.303 1.45795 1.41829 0
M  V30 7321 C 672.658 0.0792176 1.92237 0
M  V30 7322 O 671.951 -0.901406 1.69072 0
M  V30 7323 C 672.145 2.43143 2.61947 0
M  V30 7324 C 671.974 3.90345 2.23295 0
M  V30 7325 C 670.744 4.58749 2.11843 0
M  V30 7326 C 672.942 4.80308 1.83873 0
M  V30 7327 N 670.924 5.90898 1.66473 0
M  V30 7328 C 672.295 6.01693 1.49549 0
M  V30 7329 C 674.35 4.67609 1.71015 0
M  V30 7330 C 673.053 7.11792 1.03657 0
M  V30 7331 C 675.079 5.77707 1.26527 0
M  V30 7332 C 674.441 6.98215 0.931379 0
M  V30 7333 H 670.54 0.588628 0.514822 0
M  V30 7334 H 673.124 1.7936 0.7575 0
M  V30 7335 H 671.295 2.11612 3.25692 0
M  V30 7336 H 673.027 2.36193 3.28626 0
M  V30 7337 H 669.782 4.1319 2.31453 0
M  V30 7338 H 670.206 6.61034 1.46163 0
M  V30 7339 H 674.848 3.74902 1.95469 0
M  V30 7340 H 672.566 8.04332 0.779502 0
M  V30 7341 H 676.152 5.69899 1.17074 0
M  V30 7342 H 675.032 7.81959 0.592379 0
M  V30 7343 N 672.536 -0.895792 1.29666 0
M  V30 7344 C 673.466 -2.01673 1.17688 0
M  V30 7345 C 674.447 -1.69955 0.0701317 0
M  V30 7346 O 675.632 -1.9258 0.250289 0
M  V30 7347 C 672.762 -3.36568 0.856681 0
M  V30 7348 C 671.716 -3.82509 1.92017 0
M  V30 7349 C 671.042 -5.14574 1.4532 0
M  V30 7350 C 672.342 -4.02409 3.32963 0
M  V30 7351 H 674.036 -2.11953 2.11463 0
M  V30 7352 H 671.582 -1.01839 1.01807 0
M  V30 7353 H 673.535 -4.14498 0.759577 0
M  V30 7354 H 672.259 -3.26391 -0.116763 0
M  V30 7355 H 670.918 -3.068 2.00673 0
M  V30 7356 H 670.566 -5.00815 0.468325 0
M  V30 7357 H 670.266 -5.46283 2.16447 0
M  V30 7358 H 671.79 -5.9504 1.36968 0
M  V30 7359 H 673.204 -4.70808 3.27127 0
M  V30 7360 H 671.601 -4.45478 4.02082 0
M  V30 7361 H 672.671 -3.06616 3.75652 0
M  V30 7362 N 674.014 -1.12206 -1.10668 0
M  V30 7363 C 675.262 -0.874144 -1.82217 0
M  V30 7364 C 675.583 0.601736 -1.85484 0
M  V30 7365 O 674.853 1.43725 -1.33116 0
M  V30 7366 H 673.433 -0.320404 -0.674797 0
M  V30 7367 H 676.095 -1.41606 -1.33917 0
M  V30 7368 H 675.191 -1.25349 -2.85822 0
M  V30 7369 N 675.492 1.28418 -0.913599 0
M  V30 7370 C 676.722 1.98817 -0.56172 0
M  V30 7371 C 677.13 1.68457 0.861321 0
M  V30 7372 O 676.473 0.933653 1.58204 0
M  V30 7373 C 676.535 3.52801 -0.690785 0
M  V30 7374 C 676.199 4.0675 -2.08334 0
M  V30 7375 C 677.196 4.20597 -3.05604 0
M  V30 7376 C 674.881 4.41445 -2.39648 0
M  V30 7377 C 676.875 4.68392 -4.32305 0
M  V30 7378 C 674.562 4.88934 -3.66588 0
M  V30 7379 C 675.56 5.02364 -4.6273 0
M  V30 7380 O 675.248 5.48817 -5.87414 0
M  V30 7381 H 674.98 0.641608 -0.212874 0
M  V30 7382 H 677.534 1.64584 -1.22887 0
M  V30 7383 H 675.764 3.86686 0.0334336 0
M  V30 7384 H 677.453 4.04422 -0.346031 0
M  V30 7385 H 678.219 3.94067 -2.8273 0
M  V30 7386 H 674.098 4.30242 -1.65567 0
M  V30 7387 H 677.642 4.7879 -5.07352 0
M  V30 7388 H 673.539 5.14904 -3.89287 0
M  V30 7389 H 674.307 5.67103 -5.90201 0
M  V30 7390 N 676.97 0.677563 1.42291 0
M  V30 7391 C 678.219 0.198173 2.00724 0
M  V30 7392 C 678.532 -1.20325 1.54211 0
M  V30 7393 O 679.738 -1.77916 2.05081 0
M  V30 7394 C 678.194 0.303432 3.58619 0
M  V30 7395 C 677.802 1.70909 4.14119 0
M  V30 7396 C 679.546 -0.117103 4.24338 0
M  V30 7397 C 677.453 1.76696 5.64387 0
M  V30 7398 H 676.383 0.070329 0.750713 0
M  V30 7399 H 679.034 0.843147 1.62982 0
M  V30 7400 H 677.416 -0.409482 3.93877 0
M  V30 7401 H 678.59 2.44931 3.90315 0
M  V30 7402 H 676.905 2.07771 3.6086 0
M  V30 7403 H 679.502 -0.0940471 5.34617 0
M  V30 7404 H 679.845 -1.15283 4.00019 0
M  V30 7405 H 680.378 0.5449 3.9405 0
M  V30 7406 H 677.117 2.7826 5.93508 0
M  V30 7407 H 676.637 1.07034 5.90173 0
M  V30 7408 H 678.316 1.52166 6.28852 0
M  V30 7409 N 678.448 -1.51871 0.421078 0
M  V30 7410 C 679.396 -2.28903 -0.413066 0
M  V30 7411 C 680.39 -1.3408 -1.03532 0
M  V30 7412 O 681.596 -1.5149 -0.972146 0
M  V30 7413 H 677.971 -0.736478 -0.152003 0
M  V30 7414 H 679.942 -2.97285 0.257695 0
M  V30 7415 C 678.691 -3.13156 -1.51091 0
M  V30 7416 H 678.014 -3.85997 -1.04145 0
M  V30 7417 H 679.454 -3.7014 -2.06814 0
M  V30 7418 C 677.913 -2.27482 -2.48503 0
M  V30 7419 O 678.443 -1.92325 -3.52667 0
M  V30 7420 N 676.649 -1.91019 -2.18998 0
M  V30 7421 H 676.196 -2.19808 -1.34322 0
M  V30 7422 H 676.154 -1.3399 -2.84419 0
M  V30 7423 N 679.926 -0.151884 -1.56866 0
M  V30 7424 C 681.151 0.508044 -2.01081 0
M  V30 7425 C 681.576 1.57306 -1.03134 0
M  V30 7426 O 680.934 1.81298 -0.0078309 0
M  V30 7427 C 680.982 1.08106 -3.44014 0
M  V30 7428 O 680.086 2.19577 -3.49084 0
M  V30 7429 H 679.427 0.123757 -0.652365 0
M  V30 7430 H 681.957 -0.250055 -2.03066 0
M  V30 7431 H 681.967 1.40851 -3.82916 0
M  V30 7432 H 680.642 0.301168 -4.14808 0
M  V30 7433 H 679.219 1.88023 -3.22027 0
M  V30 7434 N 681.404 1.57128 0.121893 0
M  V30 7435 C 682.632 1.88883 0.844451 0
M  V30 7436 C 683.047 0.742824 1.73573 0
M  V30 7437 O 682.404 -0.286475 1.80238 0
M  V30 7438 C 682.455 3.20076 1.68029 0
M  V30 7439 O 682.176 4.30264 0.824898 0
M  V30 7440 C 683.677 3.65515 2.50826 0
M  V30 7441 H 680.897 0.62549 0.242907 0
M  V30 7442 H 683.441 2.04219 0.107151 0
M  V30 7443 H 681.596 3.06418 2.37038 0
M  V30 7444 H 682.01 5.05439 1.40113 0
M  V30 7445 H 683.484 4.60081 3.05008 0
M  V30 7446 H 683.961 2.92029 3.28048 0
M  V30 7447 H 684.567 3.81952 1.87064 0
M  V30 7448 N 682.882 -0.391992 1.52647 0
M  V30 7449 C 683.812 -1.48517 1.8018 0
M  V30 7450 C 684.793 -1.57039 0.653667 0
M  V30 7451 O 685.978 -1.72036 0.900962 0
M  V30 7452 C 683.108 -2.86161 1.96797 0
M  V30 7453 C 682.062 -2.92481 3.12472 0
M  V30 7454 C 681.388 -4.32546 3.14338 0
M  V30 7455 C 682.688 -2.624 4.51601 0
M  V30 7456 H 684.382 -1.25726 2.71723 0
M  V30 7457 H 681.928 -0.603387 1.30749 0
M  V30 7458 H 683.881 -3.62639 2.14641 0
M  V30 7459 H 682.605 -3.10283 1.01941 0
M  V30 7460 H 681.264 -2.18451 2.94406 0
M  V30 7461 H 680.912 -4.53703 2.1717 0
M  V30 7462 H 680.612 -4.37695 3.92042 0
M  V30 7463 H 682.136 -5.10934 3.34333 0
M  V30 7464 H 683.55 -3.28596 4.69785 0
M  V30 7465 H 681.947 -2.78903 5.3135 0
M  V30 7466 H 683.017 -1.57754 4.58521 0
M  V30 7467 N 684.36 -1.4356 -0.65026 0
M  V30 7468 C 685.308 -1.49219 -1.78427 0
M  V30 7469 C 686.302 -0.365528 -1.65409 0
M  V30 7470 O 687.508 -0.539649 -1.7172 0
M  V30 7471 H 683.883 -0.467858 -0.588738 0
M  V30 7472 H 685.854 -2.44701 -1.70774 0
M  V30 7473 C 684.603 -1.43519 -3.16698 0
M  V30 7474 H 683.926 -2.2952 -3.27354 0
M  V30 7475 H 685.366 -1.5154 -3.95995 0
M  V30 7476 C 683.825 -0.153197 -3.36552 0
M  V30 7477 O 684.355 0.784317 -3.93969 0
M  V30 7478 N 682.561 -0.0624402 -2.90533 0
M  V30 7479 H 682.108 -0.826172 -2.43992 0
M  V30 7480 H 682.066 0.794616 -3.04193 0
M  V30 7481 N 685.838 0.888903 -1.30139 0
M  V30 7482 C 687.249 1.45578 -1.16893 0
M  V30 7483 C 687.6 1.94825 0.231866 0
M  V30 7484 O 686.725 1.84661 1.12824 0
M  V30 7485 C 687.32 2.646 -2.11595 0
M  V30 7486 C 685.879 3.17389 -2.02339 0
M  V30 7487 C 685.026 1.90081 -2.01902 0
M  V30 7488 H 687.977 0.69921 -1.42467 0
M  V30 7489 H 687.998 3.40687 -1.69449 0
M  V30 7490 H 687.51 2.28726 -3.13538 0
M  V30 7491 H 685.611 3.5793 -1.03523 0
M  V30 7492 H 685.724 3.80955 -2.90534 0
M  V30 7493 H 684.088 2.08246 -1.46648 0
M  V30 7494 H 684.871 1.5647 -3.05568 0
M  V30 7495 N 687.317 1.12792 1.10072 0
M  V30 7496 C 688.247 0.821688 2.18565 0
M  V30 7497 C 689.228 -0.21612 1.68721 0
M  V30 7498 O 690.413 -0.0764932 1.94049 0
M  V30 7499 C 687.543 0.279624 3.46172 0
M  V30 7500 C 686.497 1.25092 4.09312 0
M  V30 7501 C 685.823 0.568916 5.31665 0
M  V30 7502 C 687.123 2.60699 4.52585 0
M  V30 7503 H 688.817 1.72888 2.44438 0
M  V30 7504 H 686.363 0.832702 1.17482 0
M  V30 7505 H 688.316 0.053099 4.21367 0
M  V30 7506 H 687.04 -0.662929 3.19801 0
M  V30 7507 H 685.699 1.46332 3.36129 0
M  V30 7508 H 685.347 -0.378898 5.01571 0
M  V30 7509 H 685.047 1.21687 5.74862 0
M  V30 7510 H 686.571 0.351517 6.09587 0
M  V30 7511 H 687.985 2.43465 5.19035 0
M  V30 7512 H 686.382 3.21608 5.06644 0
M  V30 7513 H 687.452 3.1886 3.65317 0
M  V30 7514 N 688.795 -1.27931 0.920396 0
M  V30 7515 C 690.044 -1.93975 0.552867 0
M  V30 7516 C 690.357 -1.73193 -0.909035 0
M  V30 7517 O 691.563 -2.33515 -1.38502 0
M  V30 7518 C 690.019 -3.47463 0.937947 0
M  V30 7519 C 689.627 -3.77013 2.42003 0
M  V30 7520 C 691.371 -4.19628 0.64132 0
M  V30 7521 C 689.278 -5.23841 2.74489 0
M  V30 7522 H 688.208 -0.726146 0.203046 0
M  V30 7523 H 690.859 -1.45339 1.12022 0
M  V30 7524 H 689.241 -3.94867 0.299317 0
M  V30 7525 H 690.415 -3.40393 3.10595 0
M  V30 7526 H 688.73 -3.18035 2.6878 0
M  V30 7527 H 691.327 -5.27729 0.860622 0
M  V30 7528 H 691.67 -4.14164 -0.421168 0
M  V30 7529 H 692.203 -3.78022 1.23872 0
M  V30 7530 H 688.942 -5.34388 3.79618 0
M  V30 7531 H 688.462 -5.61634 2.1054 0
M  V30 7532 H 690.141 -5.91647 2.61845 0
M  V30 7533 N 690.273 -0.685099 -1.4193 0
M  V30 7534 C 691.503 -0.220052 -2.05425 0
M  V30 7535 C 691.911 1.13185 -1.51611 0
M  V30 7536 O 691.254 1.71631 -0.654875 0
M  V30 7537 C 691.316 -0.0888364 -3.5939 0
M  V30 7538 C 690.98 -1.37109 -4.35947 0
M  V30 7539 C 691.977 -2.30675 -4.65924 0
M  V30 7540 C 689.662 -1.62155 -4.75406 0
M  V30 7541 C 691.656 -3.47556 -5.34306 0
M  V30 7542 C 689.343 -2.79324 -5.43527 0
M  V30 7543 C 690.341 -3.71848 -5.72903 0
M  V30 7544 O 690.029 -4.86966 -6.39624 0
M  V30 7545 H 689.761 -0.102165 -0.668235 0
M  V30 7546 H 692.315 -0.935194 -1.82875 0
M  V30 7547 H 690.545 0.681981 -3.80639 0
M  V30 7548 H 692.234 0.337669 -4.04493 0
M  V30 7549 H 693 -2.12579 -4.3593 0
M  V30 7550 H 688.879 -0.910053 -4.51928 0
M  V30 7551 H 692.423 -4.19794 -5.57153 0
M  V30 7552 H 688.32 -2.97342 -5.72938 0
M  V30 7553 H 689.088 -4.86644 -6.58118 0
M  V30 7554 N 691.751 1.51645 -0.429126 0
M  V30 7555 C 693.162 1.86665 0.0359003 0
M  V30 7556 C 693.513 1.34677 1.42676 0
M  V30 7557 O 692.638 0.694195 2.04963 0
M  V30 7558 C 693.233 3.38724 0.0719221 0
M  V30 7559 C 691.792 3.7331 0.481336 0
M  V30 7560 C 690.939 2.75313 -0.331329 0
M  V30 7561 H 693.89 1.44987 -0.645333 0
M  V30 7562 H 693.911 3.7011 0.883118 0
M  V30 7563 H 693.423 3.76532 -0.940495 0
M  V30 7564 H 691.524 3.41088 1.49966 0
M  V30 7565 H 691.637 4.78631 0.211837 0
M  V30 7566 H 690.001 2.53839 0.209204 0
M  V30 7567 H 690.784 3.15963 -1.34247 0
M  V30 7568 N 693.229 0.160201 1.56784 0
M  V30 7569 C 694.159 -0.770264 2.2043 0
M  V30 7570 C 695.14 -1.24736 1.15651 0
M  V30 7571 O 696.325 -1.30253 1.44041 0
M  V30 7572 C 693.455 -2.00427 2.83631 0
M  V30 7573 C 692.409 -1.66345 3.94352 0
M  V30 7574 C 691.735 -2.97119 4.4455 0
M  V30 7575 C 693.035 -0.899972 5.14488 0
M  V30 7576 H 694.729 -0.239783 2.98438 0
M  V30 7577 H 692.275 -0.113891 1.43549 0
M  V30 7578 H 694.228 -2.66012 3.26827 0
M  V30 7579 H 692.952 -2.5587 2.02973 0
M  V30 7580 H 691.611 -1.03133 3.51794 0
M  V30 7581 H 691.259 -3.5058 3.60698 0
M  V30 7582 H 690.959 -2.75073 5.19238 0
M  V30 7583 H 692.483 -3.63753 4.90425 0
M  V30 7584 H 693.897 -1.45818 5.54446 0
M  V30 7585 H 692.294 -0.778968 5.95023 0
M  V30 7586 H 693.364 0.105827 4.84785 0
M  V30 7587 N 694.707 -1.5719 -0.113559 0
M  V30 7588 C 695.947 -1.86958 -0.82621 0
M  V30 7589 C 696.311 -0.748884 -1.76793 0
M  V30 7590 O 697.512 -0.92847 -2.52256 0
M  V30 7591 C 695.783 -3.21957 -1.55173 0
M  V30 7592 S 697.342 -3.73371 -2.3052 0
M  V30 7593 H 694.16 -0.655394 -0.275643 0
M  V30 7594 H 696.762 -1.95318 -0.0842684 0
M  V30 7595 H 695.466 -4.01459 -0.851977 0
M  V30 7596 H 694.997 -3.16688 -2.33393 0
M  V30 7597 H 697.012 -3.45308 -3.56338 0
M  V30 7598 N 696.185 0.383891 -1.52853 0
M  V30 7599 C 697.133 1.48965 -1.7864 0
M  V30 7600 C 698.127 1.56242 -0.654577 0
M  V30 7601 O 699.333 1.59347 -0.83716 0
M  V30 7602 H 695.708 0.495892 -0.565328 0
M  V30 7603 H 697.679 1.24411 -2.71228 0
M  V30 7604 C 696.428 2.86036 -1.97683 0
M  V30 7605 H 695.751 2.81188 -2.84206 0
M  V30 7606 H 697.191 3.62632 -2.19713 0
M  V30 7607 C 695.65 3.28428 -0.750776 0
M  V30 7608 O 696.18 4.0164 0.0693491 0
M  V30 7609 N 694.386 2.84765 -0.579427 0
M  V30 7610 H 693.933 2.25353 -1.24795 0
M  V30 7611 H 693.891 3.13486 0.239544 0
M  V30 7612 N 697.663 1.43903 0.642637 0
M  V30 7613 C 698.573 1.52349 1.78401 0
M  V30 7614 C 699.589 0.409869 1.69104 0
M  V30 7615 O 700.765 0.665548 1.90085 0
M  V30 7616 C 697.83 1.45408 3.14734 0
M  V30 7617 C 696.891 2.67528 3.35749 0
M  V30 7618 C 696.124 2.60909 4.65577 0
M  V30 7619 O 696.347 1.6627 5.45628 0
M  V30 7620 O 695.281 3.5158 4.88544 0
M  V30 7621 H 699.107 2.48752 1.7423 0
M  V30 7622 H 696.692 1.26021 0.802439 0
M  V30 7623 H 698.574 1.44019 3.96026 0
M  V30 7624 H 697.249 0.521437 3.19473 0
M  V30 7625 H 696.156 2.74487 2.5418 0
M  V30 7626 H 697.489 3.598 3.35864 0
M  V30 7627 N 699.141 -0.881989 1.30609 0
M  V30 7628 C 700.089 -2.00942 1.17155 0
M  V30 7629 C 701.083 -1.69198 0.0827154 0
M  V30 7630 O 702.289 -1.78342 0.243775 0
M  V30 7631 H 698.664 -0.658913 0.362406 0
M  V30 7632 H 700.635 -2.09423 2.12567 0
M  V30 7633 C 699.384 -3.36294 0.883273 0
M  V30 7634 H 698.707 -3.61233 1.7132 0
M  V30 7635 H 700.147 -4.15812 0.829255 0
M  V30 7636 C 698.606 -3.34348 -0.413851 0
M  V30 7637 O 699.136 -3.75216 -1.43444 0
M  V30 7638 N 697.342 -2.87459 -0.426082 0
M  V30 7639 H 696.889 -2.54397 0.40493 0
M  V30 7640 H 696.847 -2.8654 -1.29391 0
M  V30 7641 N 700.619 -1.13374 -1.09472 0
M  V30 7642 C 701.866 -0.89519 -1.81639 0
M  V30 7643 C 702.194 0.57868 -1.85692 0
M  V30 7644 O 701.449 1.44426 -1.32059 0
M  V30 7645 C 701.748 -1.42759 -3.2765 0
M  V30 7646 C 701.414 -2.91822 -3.43731 0
M  V30 7647 C 700.076 -3.32521 -3.47827 0
M  V30 7648 C 702.428 -3.87727 -3.48307 0
M  V30 7649 C 699.756 -4.6781 -3.54078 0
M  V30 7650 C 702.108 -5.22859 -3.56091 0
M  V30 7651 C 700.772 -5.63086 -3.58456 0
M  V30 7652 H 700.042 -0.327573 -0.664663 0
M  V30 7653 H 702.689 -1.4156 -1.28969 0
M  V30 7654 H 700.994 -0.827871 -3.82954 0
M  V30 7655 H 702.691 -1.2191 -3.8202 0
M  V30 7656 H 699.281 -2.5935 -3.41226 0
M  V30 7657 H 703.465 -3.57371 -3.44383 0
M  V30 7658 H 698.721 -4.98353 -3.54195 0
M  V30 7659 H 702.895 -5.96989 -3.58577 0
M  V30 7660 H 700.522 -6.67905 -3.63052 0
M  V30 7661 N 702.098 1.27442 -0.927168 0
M  V30 7662 C 703.045 2.26863 -0.424459 0
M  V30 7663 C 704.015 1.5813 0.508346 0
M  V30 7664 O 705.2 1.85946 0.42762 0
M  V30 7665 C 702.34 3.43639 0.31718 0
M  V30 7666 C 701.453 4.27087 -0.649675 0
M  V30 7667 C 700.588 5.31082 0.111753 0
M  V30 7668 C 699.627 6.062 -0.847843 0
M  V30 7669 N 698.764 7.01999 -0.119074 0
M  V30 7670 H 703.604 2.69239 -1.27728 0
M  V30 7671 H 701.141 1.32394 -0.641106 0
M  V30 7672 H 703.099 4.10155 0.763486 0
M  V30 7673 H 701.729 3.02217 1.13424 0
M  V30 7674 H 700.781 3.60491 -1.21451 0
M  V30 7675 H 702.093 4.79242 -1.38307 0
M  V30 7676 H 701.247 6.03544 0.618 0
M  V30 7677 H 699.986 4.7973 0.878114 0
M  V30 7678 H 698.991 5.32577 -1.36534 0
M  V30 7679 H 700.216 6.59642 -1.61398 0
M  V30 7680 H 698.162 6.52977 0.629051 0
M  V30 7681 H 698.079 7.5184 -0.792046 0
M  V30 7682 H 699.347 7.78638 0.366537 0
M  V30 7683 N 703.576 0.692616 1.41565 0
M  V30 7684 C 704.523 0.0254264 2.30786 0
M  V30 7685 C 705.493 -0.774347 1.46946 0
M  V30 7686 O 706.678 -0.742981 1.7574 0
M  V30 7687 C 703.818 -0.907123 3.32964 0
M  V30 7688 C 702.931 -0.0992784 4.31886 0
M  V30 7689 C 702.066 -1.0292 5.21134 0
M  V30 7690 C 701.105 -0.214088 6.11725 0
M  V30 7691 N 700.242 -1.09766 6.93467 0
M  V30 7692 H 705.082 0.792036 2.87282 0
M  V30 7693 H 702.619 0.4023 1.41492 0
M  V30 7694 H 704.577 -1.46181 3.90752 0
M  V30 7695 H 703.207 -1.64016 2.78026 0
M  V30 7696 H 702.259 0.572287 3.76071 0
M  V30 7697 H 703.571 0.532782 4.95946 0
M  V30 7698 H 702.725 -1.65321 5.83741 0
M  V30 7699 H 701.464 -1.69512 4.57293 0
M  V30 7700 H 700.469 0.42302 5.4817 0
M  V30 7701 H 701.694 0.447995 6.77621 0
M  V30 7702 H 699.64 -1.74965 6.32237 0
M  V30 7703 H 699.557 -0.521099 7.54202 0
M  V30 7704 H 700.825 -1.70858 7.60544 0
M  V30 7705 N 705.054 -1.51416 0.437162 0
M  V30 7706 C 706.282 -2.06503 -0.128045 0
M  V30 7707 C 706.697 -1.30461 -1.36475 0
M  V30 7708 O 706.054 -0.364127 -1.78831 0
M  V30 7709 C 706.105 -3.58683 -0.450437 0
M  V30 7710 O 705.826 -4.31853 0.737186 0
M  V30 7711 C 707.327 -4.30284 -1.06633 0
M  V30 7712 H 704.547 -0.670952 -0.00800269 0
M  V30 7713 H 707.091 -1.94996 0.616193 0
M  V30 7714 H 705.246 -3.70106 -1.14457 0
M  V30 7715 H 705.66 -5.22467 0.461347 0
M  V30 7716 H 707.134 -5.37848 -1.24191 0
M  V30 7717 H 707.611 -3.88564 -2.0473 0
M  V30 7718 H 708.217 -4.23304 -0.411585 0
M  V30 7719 N 706.532 -0.168513 -1.56696 0
M  V30 7720 C 707.779 0.477158 -1.96798 0
M  V30 7721 C 708.107 1.63442 -1.05437 0
M  V30 7722 O 707.362 1.95503 -0.0878903 0
M  V30 7723 C 707.661 1.00441 -3.42996 0
M  V30 7724 C 707.327 -0.0366556 -4.50885 0
M  V30 7725 C 705.989 -0.322785 -4.80116 0
M  V30 7726 C 708.341 -0.743447 -5.1587 0
M  V30 7727 C 705.669 -1.32114 -5.71632 0
M  V30 7728 C 708.021 -1.73077 -6.08463 0
M  V30 7729 C 706.685 -2.02437 -6.36062 0
M  V30 7730 H 705.955 0.174604 -0.720135 0
M  V30 7731 H 708.602 -0.259884 -1.89728 0
M  V30 7732 H 706.907 1.81922 -3.47004 0
M  V30 7733 H 708.604 1.51294 -3.71364 0
M  V30 7734 H 705.194 0.196532 -4.28149 0
M  V30 7735 H 709.378 -0.535602 -4.93401 0
M  V30 7736 H 704.634 -1.55482 -5.913 0
M  V30 7737 H 708.808 -2.28382 -6.57886 0
M  V30 7738 H 706.435 -2.79946 -7.06777 0
M  V30 7739 N 708.01 1.57248 0.105221 0
M  V30 7740 C 708.957 2.01338 1.12835 0
M  V30 7741 C 709.927 0.887897 1.40377 0
M  V30 7742 O 711.112 1.15315 1.5201 0
M  V30 7743 C 708.252 2.43432 2.44611 0
M  V30 7744 C 707.365 3.69457 2.23888 0
M  V30 7745 C 706.5 4.00473 3.48991 0
M  V30 7746 C 705.539 5.19638 3.23485 0
M  V30 7747 N 704.676 5.46457 4.40828 0
M  V30 7748 H 709.516 2.88527 0.745386 0
M  V30 7749 H 707.053 1.42714 0.356535 0
M  V30 7750 H 709.011 2.65879 3.21503 0
M  V30 7751 H 707.641 1.59266 2.80774 0
M  V30 7752 H 706.693 3.54545 1.37847 0
M  V30 7753 H 708.005 4.56497 2.01026 0
M  V30 7754 H 707.159 4.23642 4.34295 0
M  V30 7755 H 705.898 3.11935 3.74897 0
M  V30 7756 H 704.903 4.96299 2.36574 0
M  V30 7757 H 706.128 6.09766 2.98935 0
M  V30 7758 H 704.074 4.60876 4.66829 0
M  V30 7759 H 703.991 6.27849 4.2112 0
M  V30 7760 H 705.259 5.74155 5.27225 0
M  V30 7761 N 709.488 -0.375779 1.53054 0
M  V30 7762 C 710.904 -0.716764 1.426 0
M  V30 7763 C 711.104 -1.93651 0.556931 0
M  V30 7764 O 710.16 -2.52475 0.0354461 0
M  V30 7765 C 711.473 -0.939499 2.85646 0
M  V30 7766 C 713.021 -1.04015 2.95212 0
M  V30 7767 C 713.496 -1.29543 4.39298 0
M  V30 7768 N 714.987 -1.36335 4.42682 0
M  V30 7769 C 715.722 -1.57778 5.51266 0
M  V30 7770 N 715.218 -1.76604 6.69913 0
M  V30 7771 N 717.011 -1.60065 5.38828 0
M  V30 7772 H 709.162 0.42664 2.08071 0
M  V30 7773 H 711.425 0.128758 0.939215 0
M  V30 7774 H 711.131 -0.115189 3.51511 0
M  V30 7775 H 711.005 -1.85048 3.2869 0
M  V30 7776 H 713.392 -1.85501 2.29507 0
M  V30 7777 H 713.473 -0.106785 2.55577 0
M  V30 7778 H 713.117 -0.485611 5.05573 0
M  V30 7779 H 713.047 -2.24184 4.76497 0
M  V30 7780 H 715.538 -1.23441 3.5717 0
M  V30 7781 H 715.851 -1.9251 7.48438 0
M  V30 7782 H 714.196 -1.73802 6.72917 0
M  V30 7783 H 717.387 -1.44917 4.45103 0
M  V30 7784 H 717.56 -1.76435 6.23518 0
M  V30 7785 N 710.966 -1.44241 -0.634997 0
M  V30 7786 C 712.215 -1.46102 -1.39058 0
M  V30 7787 C 712.528 -0.0959909 -1.95364 0
M  V30 7788 O 713.734 0.00788751 -2.71499 0
M  V30 7789 C 712.19 -2.57195 -2.51751 0
M  V30 7790 C 711.798 -3.99888 -2.01974 0
M  V30 7791 C 713.542 -2.68272 -3.28984 0
M  V30 7792 C 711.449 -5.02412 -3.11987 0
M  V30 7793 H 710.379 -0.543556 -0.522554 0
M  V30 7794 H 713.03 -1.70294 -0.683538 0
M  V30 7795 H 711.412 -2.26237 -3.25012 0
M  V30 7796 H 712.586 -4.40396 -1.35604 0
M  V30 7797 H 710.901 -3.93019 -1.37568 0
M  V30 7798 H 713.498 -3.42042 -4.10988 0
M  V30 7799 H 713.841 -1.73957 -3.78212 0
M  V30 7800 H 714.374 -2.98622 -2.62812 0
M  V30 7801 H 711.113 -5.98342 -2.67707 0
M  V30 7802 H 710.633 -4.66501 -3.77011 0
M  V30 7803 H 712.312 -5.25939 -3.76825 0
M  V30 7804 N 712.444 0.87505 -1.31075 0
M  V30 7805 C 713.374 1.99775 -1.20881 0
M  V30 7806 C 714.355 1.69822 -0.0971612 0
M  V30 7807 O 715.54 1.92158 -0.280895 0
M  V30 7808 C 712.67 3.35163 -0.910118 0
M  V30 7809 C 711.624 3.79406 -1.98078 0
M  V30 7810 C 710.95 5.12197 -1.53488 0
M  V30 7811 C 712.25 3.97061 -3.39323 0
M  V30 7812 H 713.944 2.08562 -2.14808 0
M  V30 7813 H 711.49 1.00207 -1.03415 0
M  V30 7814 H 713.443 4.13237 -0.825423 0
M  V30 7815 H 712.167 3.26536 0.064822 0
M  V30 7816 H 710.826 3.03568 -2.05528 0
M  V30 7817 H 710.474 5.00007 -0.547941 0
M  V30 7818 H 710.174 5.4277 -2.2511 0
M  V30 7819 H 711.698 5.92785 -1.46417 0
M  V30 7820 H 713.112 4.65545 -3.34576 0
M  V30 7821 H 711.509 4.39025 -4.09118 0
M  V30 7822 H 712.579 3.00601 -3.80483 0
M  V30 7823 N 713.922 1.13953 1.08869 0
M  V30 7824 C 714.872 0.790812 2.13846 0
M  V30 7825 C 715.856 -0.217819 1.59419 0
M  V30 7826 O 717.048 -0.0208723 1.76988 0
M  V30 7827 C 714.177 0.26479 3.42277 0
M  V30 7828 C 713.263 1.30267 4.03598 0
M  V30 7829 N 713.654 2.50535 4.39393 0
M  V30 7830 C 711.952 1.15178 4.30871 0
M  V30 7831 C 712.653 3.16938 4.87776 0
M  V30 7832 N 711.629 2.44349 4.85587 0
M  V30 7833 H 715.431 1.70577 2.39334 0
M  V30 7834 H 712.945 1.02268 1.26154 0
M  V30 7835 H 714.942 -0.00330398 4.169 0
M  V30 7836 H 713.602 -0.644419 3.18241 0
M  V30 7837 H 714.613 2.87798 4.30572 0
M  V30 7838 H 711.29 0.301204 4.16412 0
M  V30 7839 H 712.68 4.19453 5.2489 0
M  V30 7840 N 715.4 -1.26948 0.933913 0
M  V30 7841 C 716.649 -1.93378 0.573409 0
M  V30 7842 C 716.962 -1.74148 -0.890614 0
M  V30 7843 O 718.168 -2.34971 -1.36017 0
M  V30 7844 C 716.624 -3.46449 0.974747 0
M  V30 7845 C 716.232 -3.74425 2.45988 0
M  V30 7846 C 717.976 -4.18924 0.685791 0
M  V30 7847 C 715.883 -5.209 2.8003 0
M  V30 7848 H 714.813 -0.723952 0.210736 0
M  V30 7849 H 717.464 -1.44143 1.13557 0
M  V30 7850 H 715.846 -3.94528 0.341181 0
M  V30 7851 H 717.02 -3.37079 3.14188 0
M  V30 7852 H 715.335 -3.15167 2.72138 0
M  V30 7853 H 717.932 -5.26786 0.916546 0
M  V30 7854 H 718.275 -4.14587 -0.377217 0
M  V30 7855 H 718.808 -3.76687 1.27874 0
M  V30 7856 H 715.547 -5.30332 3.85264 0
M  V30 7857 H 715.067 -5.59369 2.16485 0
M  V30 7858 H 716.746 -5.88837 2.68105 0
M  V30 7859 N 716.879 -0.700114 -1.41195 0
M  V30 7860 C 718.295 -0.372114 -1.55201 0
M  V30 7861 C 718.495 1.12053 -1.6747 0
M  V30 7862 O 717.551 1.90642 -1.65566 0
M  V30 7863 C 718.864 -1.12462 -2.78878 0
M  V30 7864 C 720.412 -1.10941 -2.92679 0
M  V30 7865 C 720.887 -1.84376 -4.19249 0
M  V30 7866 N 722.378 -1.81368 -4.26216 0
M  V30 7867 C 723.113 -2.35024 -5.23021 0
M  V30 7868 N 722.609 -2.9717 -6.25829 0
M  V30 7869 N 724.402 -2.25254 -5.14992 0
M  V30 7870 H 716.553 -1.66816 -1.31477 0
M  V30 7871 H 718.816 -0.704223 -0.634644 0
M  V30 7872 H 718.522 -2.17937 -2.76037 0
M  V30 7873 H 718.396 -0.706152 -3.70531 0
M  V30 7874 H 720.783 -0.062911 -2.95033 0
M  V30 7875 H 720.864 -1.56698 -2.02187 0
M  V30 7876 H 720.508 -2.89008 -4.17656 0
M  V30 7877 H 720.438 -1.3605 -5.08722 0
M  V30 7878 H 722.929 -1.36062 -3.52556 0
M  V30 7879 H 723.242 -3.35668 -6.96094 0
M  V30 7880 H 721.587 -3.01249 -6.26318 0
M  V30 7881 H 724.778 -1.76372 -4.33602 0
M  V30 7882 H 724.951 -2.67373 -5.90268 0
M  V30 7883 N 718.357 1.51182 -0.445186 0
M  V30 7884 C 719.582 2.07056 0.119445 0
M  V30 7885 C 720.007 1.30966 1.35016 0
M  V30 7886 O 719.365 0.349827 1.77893 0
M  V30 7887 C 719.413 3.58234 0.412428 0
M  V30 7888 O 718.517 3.84249 1.49754 0
M  V30 7889 H 717.858 0.663998 -0.00157797 0
M  V30 7890 H 720.388 1.94699 -0.628779 0
M  V30 7891 H 720.398 4.02617 0.660583 0
M  V30 7892 H 719.073 4.13038 -0.487049 0
M  V30 7893 H 717.65 3.51724 1.23873 0
M  V30 7894 O 719.874 0.317958 1.58339 0
M  V30 7895 H 720.565 -0.243085 1.92169 0
M  V30 END ATOM
M  V30 BEGIN BOND
M  V30 END BOND
M  V30 END CTAB
M  END
$$$$
