drugbank_target|Q01118 Sodium channel protein type 7 subunit alpha (DB00273; DB00555; DB00564; DB01069; DB09085; DB09088; DB09342; DB09345; DB11186; DB13746)
 OpenBabel12092120593D

  0  0  0     0  0            999 V3000
M  V30 BEGIN CTAB
M  V30 COUNTS 27475 27807 0 0 0
M  V30 BEGIN ATOM
M  V30 1 H -0.908 1.98254 -0.117106 0
M  V30 2 N 0 1.576 0 0
M  V30 3 C 0.933 2.03868 1.02534 0
M  V30 4 C 1.911 0.928543 1.3348 0
M  V30 5 O 3.095 1.19667 1.45644 0
M  V30 6 C 0.222 2.43627 2.35294 0
M  V30 7 C -0.732 3.65373 2.2001 0
M  V30 8 S 0.101 5.13292 1.52614 0
M  V30 9 C 1.257 5.56322 2.86805 0
M  V30 10 H 1.49 2.90518 0.631377 0
M  V30 11 H -0.977 1.52953 0.210867 0
M  V30 12 H 0.981 2.67203 3.11629 0
M  V30 13 H -0.358 1.57376 2.7183 0
M  V30 14 H -1.165 3.90944 3.18086 0
M  V30 15 H -1.563 3.418 1.51819 0
M  V30 16 H 0.729 5.58782 3.83104 0
M  V30 17 H 1.672 6.56266 2.65933 0
M  V30 18 H 2.08 4.83886 2.90714 0
M  V30 19 N 1.4781 -0.272755 1.55222 0
M  V30 20 C 2.4081 -1.34136 1.91127 0
M  V30 21 C 3.3891 -1.51513 0.773168 0
M  V30 22 O 4.5741 -1.64552 1.03132 0
M  V30 23 C 1.7041 -2.70083 2.1834 0
M  V30 24 C 0.6581 -2.67437 3.34158 0
M  V30 25 C -0.0159 -4.06938 3.46851 0
M  V30 26 C 1.2841 -2.26686 4.70543 0
M  V30 27 H 2.9781 -1.04333 2.80633 0
M  V30 28 H 0.5241 -0.500454 1.35024 0
M  V30 29 H 2.4771 -3.44952 2.42046 0
M  V30 30 H 1.2011 -3.01469 1.25634 0
M  V30 31 H -0.1399 -1.95026 3.1042 0
M  V30 32 H -0.4919 -4.35547 2.51611 0
M  V30 33 H -0.7919 -4.06062 4.2472 0
M  V30 34 H 0.7321 -4.83545 3.72849 0
M  V30 35 H 2.1461 -2.91277 4.93792 0
M  V30 36 H 0.5431 -2.36971 5.5133 0
M  V30 37 H 1.6131 -1.21818 4.69349 0
M  V30 38 N 2.9562 -1.48159 -0.537278 0
M  V30 39 C 3.9192 -1.61665 -1.62472 0
M  V30 40 C 4.9192 -0.490395 -1.5314 0
M  V30 41 O 6.1092 -0.755998 -1.5694 0
M  V30 42 C 3.2412 -1.57997 -3.02076 0
M  V30 43 H 4.4342 -2.58621 -1.51839 0
M  V30 44 H 1.9872 -1.36647 -0.758771 0
M  V30 45 H 2.7222 -0.624913 -3.18222 0
M  V30 46 H 2.5072 -2.39755 -3.10258 0
M  V30 47 H 3.9972 -1.70627 -3.81151 0
M  V30 48 N 4.4343 0.785586 -1.36625 0
M  V30 49 C 5.6593 1.57963 -1.34397 0
M  V30 50 C 6.0843 1.87964 0.071526 0
M  V30 51 O 5.4423 1.48182 1.0446 0
M  V30 52 C 5.4903 2.87511 -2.17646 0
M  V30 53 O 4.5943 3.81281 -1.57158 0
M  V30 54 H 3.9353 0.479014 -0.459828 0
M  V30 55 H 6.4653 0.973411 -1.79961 0
M  V30 56 H 6.4753 3.36745 -2.30362 0
M  V30 57 H 5.1503 2.65002 -3.20541 0
M  V30 58 H 3.7273 3.39885 -1.53403 0
M  V30 59 N 5.9124 1.20967 1.01018 0
M  V30 60 C 7.3234 1.02319 1.56165 0
M  V30 61 C 7.6744 -0.418546 1.91684 0
M  V30 62 O 6.7994 -1.30096 1.72928 0
M  V30 63 C 7.3944 1.85109 2.8376 0
M  V30 64 C 5.9534 1.70809 3.35412 0
M  V30 65 C 5.1004 1.82643 2.08655 0
M  V30 66 H 8.0514 1.35065 0.833255 0
M  V30 67 H 8.0724 1.35827 3.55431 0
M  V30 68 H 7.5844 2.90035 2.57878 0
M  V30 69 H 5.6854 0.685464 3.66241 0
M  V30 70 H 5.7984 2.52467 4.07182 0
M  V30 71 H 4.1624 1.25896 2.21409 0
M  V30 72 H 4.9454 2.89066 1.85191 0
M  V30 73 N 7.3905 -1.2043 1.01659 0
M  V30 74 C 8.3005 -2.2689 0.596484 0
M  V30 75 C 9.3165 -1.70107 -0.36599 0
M  V30 76 O 10.4925 -2.00117 -0.226942 0
M  V30 77 C 7.5575 -3.4665 -0.0586659 0
M  V30 78 C 6.6185 -4.18662 0.949751 0
M  V30 79 C 5.8515 -5.32705 0.32577 0
M  V30 80 O 6.0745 -5.63656 -0.874509 0
M  V30 81 O 5.0085 -5.92803 1.04249 0
M  V30 82 H 8.8345 -2.65041 1.4828 0
M  V30 83 H 6.4195 -1.27048 0.786082 0
M  V30 84 H 8.3015 -4.19256 -0.424564 0
M  V30 85 H 6.9765 -3.10375 -0.91918 0
M  V30 86 H 5.8835 -3.48229 1.36702 0
M  V30 87 H 7.2165 -4.58878 1.78023 0
M  V30 88 N 8.8686 -0.792821 -1.36206 0
M  V30 89 C 10.2796 -0.429513 -1.81692 0
M  V30 90 C 10.6306 1.04695 -1.65932 0
M  V30 91 O 9.7556 1.81256 -1.18218 0
M  V30 92 C 10.3506 -0.772831 -3.29868 0
M  V30 93 C 8.9096 -0.462307 -3.7355 0
M  V30 94 C 8.0566 -1.00569 -2.5842 0
M  V30 95 H 11.0076 -0.985672 -1.24379 0
M  V30 96 H 11.0286 -0.0651928 -3.80444 0
M  V30 97 H 10.5406 -1.84747 -3.41307 0
M  V30 98 H 8.6416 0.604158 -3.67669 0
M  V30 99 H 8.7546 -0.985299 -4.68859 0
M  V30 100 H 7.1186 -0.428734 -2.51066 0
M  V30 101 H 7.9016 -2.08616 -2.72643 0
M  V30 102 N 10.3467 1.47872 -0.545128 0
M  V30 103 C 11.2937 2.29849 0.2093 0
M  V30 104 C 12.2637 1.38313 0.919707 0
M  V30 105 O 13.4487 1.67277 0.917772 0
M  V30 106 C 10.5887 3.22019 1.24088 0
M  V30 107 C 9.7017 4.2864 0.537778 0
M  V30 108 C 8.8367 5.07973 1.5536 0
M  V30 109 C 7.8757 6.06381 0.8348 0
M  V30 110 N 7.0127 6.78717 1.79688 0
M  V30 111 H 11.8527 2.93845 -0.49591 0
M  V30 112 H 9.3897 1.44848 -0.256389 0
M  V30 113 H 11.3477 3.73868 1.85144 0
M  V30 114 H 9.9777 2.59914 1.91428 0
M  V30 115 H 9.0297 3.7994 -0.187046 0
M  V30 116 H 10.3417 4.98793 -0.0258907 0
M  V30 117 H 9.4957 5.63912 2.23803 0
M  V30 118 H 8.2347 4.37693 2.15118 0
M  V30 119 H 7.2397 5.49631 0.136388 0
M  V30 120 H 8.4647 6.78665 0.24313 0
M  V30 121 H 6.4107 6.11177 2.38326 0
M  V30 122 H 6.3277 7.44998 1.28505 0
M  V30 123 H 7.5957 7.39237 2.47282 0
M  V30 124 N 11.8248 0.280983 1.55075 0
M  V30 125 C 13.0728 -0.333455 1.9933 0
M  V30 126 C 13.3938 -1.55937 1.17085 0
M  V30 127 O 12.6638 -1.94143 0.261805 0
M  V30 128 H 11.2438 -0.126197 0.736263 0
M  V30 129 H 13.9058 0.387678 1.91005 0
M  V30 130 H 13.0018 -0.619292 3.05894 0
M  V30 131 N 13.3029 -1.57598 0.00835791 0
M  V30 132 C 14.2329 -2.1198 -0.979113 0
M  V30 133 C 15.2139 -1.03091 -1.35301 0
M  V30 134 O 16.3989 -1.30818 -1.43528 0
M  V30 135 C 13.5289 -2.62995 -2.26828 0
M  V30 136 C 12.4829 -3.76485 -2.03576 0
M  V30 137 C 11.8089 -4.13846 -3.38579 0
M  V30 138 C 13.1089 -5.0342 -1.39161 0
M  V30 139 H 14.8029 -2.94738 -0.526281 0
M  V30 140 H 12.3489 -1.41783 -0.251704 0
M  V30 141 H 14.3019 -2.99669 -2.96271 0
M  V30 142 H 13.0259 -1.7737 -2.7424 0
M  V30 143 H 11.6849 -3.40217 -1.36557 0
M  V30 144 H 11.3329 -3.25232 -3.83709 0
M  V30 145 H 11.0329 -4.90312 -3.23834 0
M  V30 146 H 12.5569 -4.53086 -4.09323 0
M  V30 147 H 13.9709 -5.37812 -1.98573 0
M  V30 148 H 12.3679 -5.84746 -1.34878 0
M  V30 149 H 13.4379 -4.83548 -0.361868 0
M  V30 150 N 14.781 0.264519 -1.55364 0
M  V30 151 C 16.027 0.99646 -1.76631 0
M  V30 152 C 16.36 1.85632 -0.570478 0
M  V30 153 O 15.635 1.89647 0.43175 0
M  V30 154 C 15.918 1.87187 -3.07625 0
M  V30 155 C 15.771 1.04138 -4.37579 0
M  V30 156 C 17.09 2.85749 -3.34717 0
M  V30 157 H 14.209 0.360841 -0.642622 0
M  V30 158 H 16.851 0.268218 -1.88097 0
M  V30 159 H 15.001 2.49279 -2.9798 0
M  V30 160 H 16.673 0.440517 -4.59192 0
M  V30 161 H 14.916 0.345115 -4.32425 0
M  V30 162 H 15.587 1.68729 -5.2558 0
M  V30 163 H 18.063 2.33793 -3.4421 0
M  V30 164 H 16.939 3.44136 -4.27623 0
M  V30 165 H 17.2 3.61311 -2.54768 0
M  V30 166 N 16.2591 1.48442 0.529413 0
M  V30 167 C 17.6701 1.5002 1.11134 0
M  V30 168 C 18.0211 0.27031 1.94329 0
M  V30 169 O 17.1461 -0.622507 2.07253 0
M  V30 170 C 17.7411 2.71834 2.02217 0
M  V30 171 C 16.3001 2.76283 2.55627 0
M  V30 172 C 15.4471 2.43542 1.326 0
M  V30 173 H 18.3981 1.5555 0.314641 0
M  V30 174 H 18.4191 2.50384 2.8651 0
M  V30 175 H 17.9311 3.61331 1.41639 0
M  V30 176 H 16.0321 1.90995 3.19924 0
M  V30 177 H 16.1451 3.77725 2.94721 0
M  V30 178 H 14.5091 1.94709 1.64196 0
M  V30 179 H 15.2921 3.3528 0.737734 0
M  V30 180 N 17.7372 -0.778329 1.37039 0
M  V30 181 C 18.9842 -1.53665 1.31884 0
M  V30 182 C 19.3122 -1.9425 -0.0986303 0
M  V30 183 O 18.5672 -1.63832 -1.07041 0
M  V30 184 C 18.8662 -2.81845 2.19768 0
M  V30 185 C 18.5322 -2.60345 3.68146 0
M  V30 186 C 17.1942 -2.5419 4.08584 0
M  V30 187 C 19.5462 -2.40923 4.62175 0
M  V30 188 C 16.8742 -2.26594 5.41177 0
M  V30 189 C 19.2262 -2.14852 5.94997 0
M  V30 190 C 17.8902 -2.07137 6.34547 0
M  V30 191 H 17.1602 -0.562299 0.482598 0
M  V30 192 H 19.8072 -0.897069 1.69189 0
M  V30 193 H 18.1122 -3.50328 1.75436 0
M  V30 194 H 19.8092 -3.39692 2.13097 0
M  V30 195 H 16.3992 -2.65996 3.36072 0
M  V30 196 H 20.5832 -2.44673 4.31797 0
M  V30 197 H 15.8392 -2.19111 5.70789 0
M  V30 198 H 20.0132 -1.98822 6.67415 0
M  V30 199 H 17.6402 -1.85518 7.37216 0
M  V30 200 N 19.2153 -1.21501 -1.00376 0
M  V30 201 C 20.4433 -1.059 -1.77744 0
M  V30 202 C 20.8583 0.391125 -1.84704 0
M  V30 203 O 20.2153 1.27133 -1.30933 0
M  V30 204 C 20.2663 -1.65111 -3.21591 0
M  V30 205 O 19.9873 -3.0445 -3.15027 0
M  V30 206 C 21.4883 -1.54637 -4.15454 0
M  V30 207 H 18.7083 -0.371825 -0.558558 0
M  V30 208 H 21.2523 -1.60865 -1.26264 0
M  V30 209 H 19.4073 -1.14235 -3.70175 0
M  V30 210 H 19.8213 -3.3278 -4.0541 0
M  V30 211 H 21.2953 -2.00808 -5.14179 0
M  V30 212 H 21.7723 -0.501022 -4.36333 0
M  V30 213 H 22.3783 -2.04767 -3.72761 0
M  V30 214 N 20.6934 1.19889 -1.02296 0
M  V30 215 C 21.6404 2.22901 -0.598651 0
M  V30 216 C 22.6104 1.61588 0.384521 0
M  V30 217 O 23.7954 1.88697 0.282522 0
M  V30 218 C 20.9354 3.45063 0.0504476 0
M  V30 219 C 20.0484 4.20783 -0.978053 0
M  V30 220 C 19.1834 5.30356 -0.299338 0
M  V30 221 C 18.2224 5.97826 -1.31416 0
M  V30 222 N 17.3594 6.98975 -0.661667 0
M  V30 223 H 22.1994 2.58554 -1.48169 0
M  V30 224 H 19.7364 1.27039 -0.741584 0
M  V30 225 H 21.6944 4.14831 0.443971 0
M  V30 226 H 20.3244 3.10084 0.897097 0
M  V30 227 H 19.3764 3.50018 -1.48969 0
M  V30 228 H 20.6884 4.67109 -1.74958 0
M  V30 229 H 19.8424 6.06516 0.149347 0
M  V30 230 H 18.5814 4.85084 0.504445 0
M  V30 231 H 17.5864 5.20422 -1.77317 0
M  V30 232 H 18.8114 6.45183 -2.11933 0
M  V30 233 H 16.7574 6.55886 0.122132 0
M  V30 234 H 16.6744 7.43461 -1.37117 0
M  V30 235 H 17.9424 7.7914 -0.236785 0
M  V30 236 N 22.1715 0.800033 1.35784 0
M  V30 237 C 23.0815 0.207204 2.33683 0
M  V30 238 C 24.0975 -0.64631 1.61551 0
M  V30 239 O 25.2735 -0.559604 1.93469 0
M  V30 240 C 22.3385 -0.639659 3.40748 0
M  V30 241 C 21.3995 0.233585 4.28664 0
M  V30 242 C 20.6325 -0.572954 5.30616 0
M  V30 243 O 20.8555 -1.80816 5.40982 0
M  V30 244 O 19.7895 0.0327285 6.01891 0
M  V30 245 H 23.6155 1.01692 2.86169 0
M  V30 246 H 21.2005 0.561691 1.38439 0
M  V30 247 H 23.0825 -1.12223 4.06182 0
M  V30 248 H 21.7575 -1.42708 2.90544 0
M  V30 249 H 20.6645 0.763147 3.66233 0
M  V30 250 H 21.9975 0.984784 4.82248 0
M  V30 251 N 23.6496 -1.47581 0.552962 0
M  V30 252 C 24.8746 -2.07378 0.0300593 0
M  V30 253 C 25.2996 -1.40355 -1.25229 0
M  V30 254 O 24.6576 -0.477099 -1.7491 0
M  V30 255 C 24.7056 -3.60274 -0.153231 0
M  V30 256 O 23.8096 -3.94041 -1.21678 0
M  V30 257 H 23.1506 -0.662158 0.0494182 0
M  V30 258 H 25.6806 -1.89662 0.767434 0
M  V30 259 H 25.6906 -4.0633 -0.368761 0
M  V30 260 H 24.3656 -4.08455 0.783397 0
M  V30 261 H 22.9426 -3.59735 -0.982079 0
M  V30 262 N 25.1277 -0.289203 -1.54924 0
M  V30 263 C 26.3747 0.323519 -1.99899 0
M  V30 264 C 26.7027 1.54797 -1.17762 0
M  V30 265 O 25.9577 1.94237 -0.238835 0
M  V30 266 C 26.2567 0.736119 -3.49737 0
M  V30 267 C 25.9227 -0.385276 -4.49251 0
M  V30 268 C 24.5847 -0.693156 -4.76181 0
M  V30 269 C 26.9367 -1.14021 -5.08575 0
M  V30 270 C 24.2647 -1.7593 -5.59701 0
M  V30 271 C 26.6167 -2.19619 -5.93254 0
M  V30 272 C 25.2807 -2.51026 -6.185 0
M  V30 273 H 24.5507 0.118384 -0.731482 0
M  V30 274 H 27.1977 -0.405847 -1.8715 0
M  V30 275 H 25.5027 1.54539 -3.60035 0
M  V30 276 H 27.1997 1.22118 -3.81953 0
M  V30 277 H 23.7897 -0.135202 -4.28387 0
M  V30 278 H 27.9737 -0.915611 -4.87781 0
M  V30 279 H 23.2297 -2.0075 -5.77503 0
M  V30 280 H 27.4037 -2.78581 -6.38252 0
M  V30 281 H 25.0307 -3.33772 -6.83008 0
M  V30 282 N 26.6058 1.57591 -0.0167156 0
M  V30 283 C 27.5158 2.1291 0.98521 0
M  V30 284 C 28.5318 1.07834 1.36557 0
M  V30 285 O 29.7078 1.39826 1.44951 0
M  V30 286 C 26.7728 2.63512 2.25305 0
M  V30 287 C 25.8338 3.83256 1.93426 0
M  V30 288 C 25.0668 4.31435 3.14165 0
M  V30 289 O 25.2898 3.78851 4.26413 0
M  V30 290 O 24.2238 5.23416 2.97186 0
M  V30 291 H 28.0498 2.98772 0.544888 0
M  V30 292 H 25.6348 1.48012 0.203141 0
M  V30 293 H 27.5168 2.96183 2.99756 0
M  V30 294 H 26.1918 1.8074 2.68542 0
M  V30 295 H 25.0988 3.55531 1.16398 0
M  V30 296 H 26.4318 4.67153 1.55013 0
M  V30 297 N 28.0839 -0.256276 1.55502 0
M  V30 298 C 29.0139 -1.32102 1.92539 0
M  V30 299 C 29.9949 -1.50684 0.789194 0
M  V30 300 O 31.1799 -1.63449 1.04872 0
M  V30 301 C 28.3099 -2.67752 2.21192 0
M  V30 302 C 27.2639 -2.63878 3.36975 0
M  V30 303 C 26.5899 -4.03236 3.51147 0
M  V30 304 C 27.8899 -2.21682 4.72921 0
M  V30 305 H 29.5839 -1.01351 2.81724 0
M  V30 306 H 27.1299 -0.486105 1.35547 0
M  V30 307 H 29.0829 -3.42365 2.45691 0
M  V30 308 H 27.8069 -3.0012 1.28824 0
M  V30 309 H 26.4659 -1.91722 3.12471 0
M  V30 310 H 26.1139 -4.32854 2.56216 0
M  V30 311 H 25.8139 -4.01535 4.29003 0
M  V30 312 H 27.3379 -4.79563 3.77957 0
M  V30 313 H 28.7519 -2.86023 4.96854 0
M  V30 314 H 27.1489 -2.3111 5.53812 0
M  V30 315 H 28.2189 -1.16833 4.70615 0
M  V30 316 N 29.562 -1.4872 -0.521534 0
M  V30 317 C 30.811 -1.56419 -1.27341 0
M  V30 318 C 31.124 -0.246805 -1.94037 0
M  V30 319 O 32.33 -0.202122 -2.70747 0
M  V30 320 C 30.786 -2.75896 -2.31105 0
M  V30 321 C 30.394 -4.14311 -1.70441 0
M  V30 322 C 32.138 -2.92913 -3.07249 0
M  V30 323 C 30.045 -5.25038 -2.72194 0
M  V30 324 H 28.975 -0.582344 -0.478949 0
M  V30 325 H 31.626 -1.75071 -0.549779 0
M  V30 326 H 30.008 -2.50697 -3.06541 0
M  V30 327 H 31.182 -4.49564 -1.01136 0
M  V30 328 H 29.497 -4.02482 -1.06759 0
M  V30 329 H 32.094 -3.72805 -3.83302 0
M  V30 330 H 32.437 -2.02689 -3.63625 0
M  V30 331 H 32.97 -3.18054 -2.38928 0
M  V30 332 H 29.709 -6.17255 -2.20627 0
M  V30 333 H 29.229 -4.94263 -3.39801 0
M  V30 334 H 30.908 -5.53508 -3.35019 0
M  V30 335 N 31.0401 0.771051 -1.3745 0
M  V30 336 C 31.9871 1.88435 -1.3327 0
M  V30 337 C 32.9571 1.64914 -0.198136 0
M  V30 338 O 34.1421 1.86821 -0.387606 0
M  V30 339 C 31.2821 3.25509 -1.14622 0
M  V30 340 C 30.3951 3.60979 -2.37314 0
M  V30 341 C 29.5301 4.87265 -2.11533 0
M  V30 342 C 28.5691 5.15469 -3.30088 0
M  V30 343 N 27.7061 6.32944 -3.03853 0
M  V30 344 H 32.5461 1.91344 -2.28455 0
M  V30 345 H 30.0831 0.935466 -1.13523 0
M  V30 346 H 32.0411 4.04582 -1.01831 0
M  V30 347 H 30.6711 3.21974 -0.230837 0
M  V30 348 H 29.7231 2.76885 -2.60842 0
M  V30 349 H 31.0351 3.77759 -3.25729 0
M  V30 350 H 30.1891 5.74244 -1.95777 0
M  V30 351 H 28.9281 4.7259 -1.20457 0
M  V30 352 H 27.9331 4.26966 -3.46382 0
M  V30 353 H 29.1581 5.32052 -4.22016 0
M  V30 354 H 27.1041 6.19625 -2.15407 0
M  V30 355 H 27.0211 6.50143 -3.85812 0
M  V30 356 H 28.2891 7.22857 -2.91716 0
M  V30 357 N 32.5182 1.22032 0.997298 0
M  V30 358 C 33.4502 0.944263 2.08845 0
M  V30 359 C 34.4632 -0.0754663 1.62625 0
M  V30 360 O 35.6522 0.157994 1.77799 0
M  V30 361 C 32.7522 0.397723 3.36558 0
M  V30 362 C 31.9252 1.47362 4.11829 0
M  V30 363 C 30.9842 0.934951 5.17827 0
M  V30 364 O 30.0102 1.62016 5.45655 0
M  V30 365 N 31.2122 -0.245895 5.79979 0
M  V30 366 H 33.9772 1.88363 2.33109 0
M  V30 367 H 31.5382 1.12661 1.16272 0
M  V30 368 H 33.5302 0.0227771 4.04694 0
M  V30 369 H 32.1002 -0.446646 3.09393 0
M  V30 370 H 31.3202 2.02208 3.38386 0
M  V30 371 H 32.6082 2.19764 4.58891 0
M  V30 372 H 32.0062 -0.819475 5.59733 0
M  V30 373 H 30.5632 -0.562272 6.4937 0
M  V30 374 N 33.9963 -1.19345 1.0293 0
M  V30 375 C 34.9463 -2.20472 0.58104 0
M  V30 376 C 35.9303 -1.56578 -0.370442 0
M  V30 377 O 37.1223 -1.75963 -0.191344 0
M  V30 378 C 34.2513 -3.43236 -0.066306 0
M  V30 379 C 33.3373 -4.14274 0.907642 0
M  V30 380 N 33.7283 -4.61492 2.07023 0
M  V30 381 C 32.0263 -4.39966 0.731177 0
M  V30 382 C 32.7273 -5.1605 2.68454 0
M  V30 383 N 31.7033 -5.06875 1.96414 0
M  V30 384 H 35.5053 -2.54659 1.46717 0
M  V30 385 H 33.0193 -1.35423 0.896345 0
M  V30 386 H 35.0163 -4.14927 -0.405068 0
M  V30 387 H 33.6763 -3.10549 -0.948118 0
M  V30 388 H 34.6873 -4.56304 2.44963 0
M  V30 389 H 31.3643 -4.17377 -0.101507 0
M  V30 390 H 32.7543 -5.6287 3.66915 0
M  V30 391 N 35.4744 -0.807222 -1.35358 0
M  V30 392 C 36.7234 -0.384376 -1.98004 0
M  V30 393 C 37.0364 1.0543 -1.64754 0
M  V30 394 O 38.2424 1.58029 -2.20769 0
M  V30 395 C 36.6984 -0.636326 -3.5423 0
M  V30 396 C 36.3064 -2.08759 -3.96388 0
M  V30 397 C 38.0504 -0.278869 -4.23583 0
M  V30 398 C 35.9574 -2.28525 -5.45463 0
M  V30 399 H 34.8874 -0.139986 -0.740891 0
M  V30 400 H 37.5384 -0.991369 -1.54415 0
M  V30 401 H 35.9204 0.0406256 -3.95979 0
M  V30 402 H 37.0944 -2.8024 -3.6579 0
M  V30 403 H 35.4094 -2.40497 -3.39926 0
M  V30 404 H 38.0064 -0.404599 -5.33167 0
M  V30 405 H 38.3494 0.775012 -4.09022 0
M  V30 406 H 38.8824 -0.909764 -3.87257 0
M  V30 407 H 35.6214 -3.32361 -5.64992 0
M  V30 408 H 35.1414 -1.61569 -5.77629 0
M  V30 409 H 36.8204 -2.10109 -6.11934 0
M  V30 410 N 36.9525 1.47285 -0.560781 0
M  V30 411 C 37.9155 2.28535 0.174488 0
M  V30 412 C 38.9155 1.37153 0.839388 0
M  V30 413 O 40.1055 1.59748 0.694702 0
M  V30 414 C 37.2375 3.16934 1.25561 0
M  V30 415 H 38.4305 2.95012 -0.539262 0
M  V30 416 H 35.9835 1.53034 -0.317865 0
M  V30 417 H 36.7185 2.55157 2.00164 0
M  V30 418 H 36.5035 3.8419 0.783604 0
M  V30 419 H 37.9935 3.78143 1.77193 0
M  V30 420 N 38.4306 0.297415 1.54768 0
M  V30 421 C 39.3776 -0.580276 2.23386 0
M  V30 422 C 40.3476 -1.13238 1.21517 0
M  V30 423 O 41.5326 -1.17757 1.50126 0
M  V30 424 C 38.6726 -1.74801 2.97555 0
M  V30 425 C 37.7856 -1.22764 4.1419 0
M  V30 426 C 36.9206 -2.35895 4.75949 0
M  V30 427 C 35.9596 -1.80974 5.84735 0
M  V30 428 N 35.0966 -2.87664 6.40464 0
M  V30 429 H 39.9366 0.0114833 2.97998 0
M  V30 430 H 37.4736 0.0174361 1.4709 0
M  V30 431 H 39.4316 -2.43475 3.38786 0
M  V30 432 H 38.0616 -2.31145 2.25326 0
M  V30 433 H 37.1136 -0.433271 3.77924 0
M  V30 434 H 38.4256 -0.785551 4.92575 0
M  V30 435 H 37.5796 -3.12523 5.20014 0
M  V30 436 H 36.3186 -2.83429 3.96887 0
M  V30 437 H 35.3236 -1.02834 5.40097 0
M  V30 438 H 36.5486 -1.34348 6.65678 0
M  V30 439 H 34.4946 -3.34538 5.64287 0
M  V30 440 H 34.4116 -2.4794 7.14186 0
M  V30 441 H 35.6796 -3.642 6.89187 0
M  V30 442 N 39.9087 -1.5758 0.0250728 0
M  V30 443 C 41.1367 -1.9593 -0.664747 0
M  V30 444 C 41.5517 -0.901352 -1.65895 0
M  V30 445 O 40.9087 0.117255 -1.82123 0
M  V30 446 C 40.9597 -3.34342 -1.37468 0
M  V30 447 O 40.6807 -4.36079 -0.420324 0
M  V30 448 C 42.1817 -3.873 -2.1567 0
M  V30 449 H 39.4017 -0.645405 -0.183557 0
M  V30 450 H 41.9457 -2.04329 0.0836372 0
M  V30 451 H 40.1007 -3.27175 -2.0745 0
M  V30 452 H 40.5147 -5.16297 -0.923991 0
M  V30 453 H 41.9887 -4.86504 -2.60803 0
M  V30 454 H 42.4657 -3.21331 -2.99405 0
M  V30 455 H 43.0717 -3.97723 -1.50654 0
M  V30 456 N 41.3868 0.248026 -1.55636 0
M  V30 457 C 42.3368 1.30994 -1.86614 0
M  V30 458 C 43.3208 1.43543 -0.726918 0
M  V30 459 O 44.5128 1.46804 -0.988818 0
M  V30 460 C 41.6418 2.6656 -2.16335 0
M  V30 461 C 40.7278 2.58019 -3.36581 0
M  V30 462 N 41.1188 2.1911 -4.55878 0
M  V30 463 C 39.4168 2.89035 -3.39669 0
M  V30 464 C 40.1178 2.21174 -5.38012 0
M  V30 465 N 39.0938 2.60632 -4.77045 0
M  V30 466 H 42.8958 0.999583 -2.76379 0
M  V30 467 H 40.4098 0.456652 -1.55848 0
M  V30 468 H 42.4068 3.43194 -2.36692 0
M  V30 469 H 41.0668 2.98463 -1.27867 0
M  V30 470 H 42.0778 1.90672 -4.81523 0
M  V30 471 H 38.7548 3.25485 -2.61469 0
M  V30 472 H 40.1448 1.9344 -6.43452 0
M  V30 473 N 42.8649 1.48995 0.513639 0
M  V30 474 C 43.8129 1.65199 1.63744 0
M  V30 475 C 44.8069 0.51809 1.61283 0
M  V30 476 O 46.0129 0.697335 1.65943 0
M  V30 477 H 42.3879 0.52069 0.542574 0
M  V30 478 H 44.3589 2.59552 1.47226 0
M  V30 479 C 43.1079 1.72409 3.01945 0
M  V30 480 H 42.4309 2.59029 3.04539 0
M  V30 481 H 43.8709 1.87785 3.80148 0
M  V30 482 C 42.3299 0.46618 3.33659 0
M  V30 483 O 42.8599 -0.413744 3.99564 0
M  V30 484 N 41.0659 0.332931 2.88687 0
M  V30 485 H 40.6129 1.04996 2.35231 0
M  V30 486 H 40.5709 -0.507665 3.10274 0
M  V30 487 N 44.343 -0.763751 1.37857 0
M  V30 488 C 45.253 -1.90817 1.36478 0
M  V30 489 C 46.269 -1.71997 0.263248 0
M  V30 490 O 47.445 -1.95095 0.499979 0
M  V30 491 C 44.51 -3.2605 1.17864 0
M  V30 492 C 43.571 -3.57467 2.3773 0
M  V30 493 C 42.804 -4.86249 2.19995 0
M  V30 494 O 43.027 -5.57884 1.18836 0
M  V30 495 O 41.961 -5.16911 3.08361 0
M  V30 496 H 45.787 -1.94933 2.32884 0
M  V30 497 H 43.372 -0.907619 1.1867 0
M  V30 498 H 45.254 -4.06924 1.09504 0
M  V30 499 H 43.929 -3.22769 0.245372 0
M  V30 500 H 42.836 -2.76796 2.51664 0
M  V30 501 H 44.169 -3.655 3.29652 0
M  V30 502 N 45.8211 -1.22559 -0.990812 0
M  V30 503 C 47.0981 -0.959875 -1.70428 0
M  V30 504 C 47.4781 0.524455 -2.04481 0
M  V30 505 O 46.8261 1.49302 -1.72977 0
M  V30 506 C 47.0361 -1.85955 -2.95333 0
M  V30 507 C 48.3841 -2.11687 -3.68068 0
M  V30 508 O 49.4081 -1.8342 -3.05345 0
M  V30 509 O 48.2671 -2.59572 -4.80921 0
M  V30 510 H 45.3611 -0.361154 -0.743974 0
M  V30 511 H 47.9071 -1.33554 -1.04697 0
M  V30 512 H 46.6791 -2.86346 -2.66687 0
M  V30 513 H 46.3021 -1.4856 -3.68803 0
M  V30 514 N 47.2992 1.18797 -1.03562 0
M  V30 515 C 48.2492 2.20161 -0.592724 0
M  V30 516 C 49.2332 1.56772 0.362133 0
M  V30 517 O 50.4252 1.76062 0.182009 0
M  V30 518 C 47.5542 3.43266 0.0481024 0
M  V30 519 C 46.6402 4.13786 -0.9296 0
M  V30 520 N 47.0312 4.60388 -2.09467 0
M  V30 521 C 45.3292 4.39572 -0.754499 0
M  V30 522 C 46.0302 5.14619 -2.71187 0
M  V30 523 N 45.0062 5.05826 -1.991 0
M  V30 524 H 48.8082 2.53877 -1.48066 0
M  V30 525 H 46.3222 1.34946 -0.903514 0
M  V30 526 H 48.3192 4.15136 0.383058 0
M  V30 527 H 46.9792 3.11048 0.931636 0
M  V30 528 H 47.9902 4.54999 -2.47379 0
M  V30 529 H 44.6672 4.17425 0.0793713 0
M  V30 530 H 46.0572 5.60917 -3.69895 0
M  V30 531 N 48.7773 0.814389 1.34928 0
M  V30 532 C 49.6873 0.231978 2.3345 0
M  V30 533 C 50.7033 -0.629139 1.62228 0
M  V30 534 O 51.8793 -0.539052 1.94052 0
M  V30 535 C 48.9443 -0.603482 3.41407 0
M  V30 536 C 48.0053 0.279037 4.28392 0
M  V30 537 C 47.2383 -0.516643 5.31193 0
M  V30 538 O 47.4613 -1.75068 5.4287 0
M  V30 539 O 46.3953 0.0965652 6.01823 0
M  V30 540 H 50.2213 1.04721 2.85074 0
M  V30 541 H 47.8063 0.576343 1.37836 0
M  V30 542 H 49.6883 -1.07908 4.0735 0
M  V30 543 H 48.3633 -1.39618 2.92042 0
M  V30 544 H 47.2703 0.801948 3.65403 0
M  V30 545 H 48.6033 1.03588 4.81176 0
M  V30 546 N 50.2554 -1.46986 0.568584 0
M  V30 547 C 51.1654 -2.33942 -0.17555 0
M  V30 548 C 52.1814 -1.48891 -0.90041 0
M  V30 549 O 53.3574 -1.81794 -0.86676 0
M  V30 550 C 50.4224 -3.25811 -1.18524 0
M  V30 551 C 49.4834 -4.26757 -0.466582 0
M  V30 552 C 48.7164 -5.14236 -1.42817 0
M  V30 553 O 48.9394 -5.04379 -2.66379 0
M  V30 554 O 47.8734 -5.94412 -0.946453 0
M  V30 555 H 51.6994 -2.98896 0.538036 0
M  V30 556 H 49.2844 -1.4573 0.329097 0
M  V30 557 H 51.1664 -3.82527 -1.76779 0
M  V30 558 H 49.8414 -2.63471 -1.88055 0
M  V30 559 H 48.7484 -3.73769 0.157451 0
M  V30 560 H 50.0814 -4.91843 0.187485 0
M  V30 561 N 51.7335 -0.305618 -1.54608 0
M  V30 562 C 52.6435 0.57778 -2.27374 0
M  V30 563 C 53.6595 1.14451 -1.31061 0
M  V30 564 O 54.8355 1.16831 -1.6405 0
M  V30 565 C 51.9005 1.73123 -3.00382 0
M  V30 566 C 50.9615 1.19812 -4.12242 0
M  V30 567 C 50.1945 2.2966 -4.81759 0
M  V30 568 O 50.4175 3.49651 -4.50666 0
M  V30 569 O 49.3515 1.96091 -5.69062 0
M  V30 570 H 53.1775 -0.012624 -3.03697 0
M  V30 571 H 50.7625 -0.0719184 -1.49227 0
M  V30 572 H 52.6445 2.40315 -3.4616 0
M  V30 573 H 51.3195 2.30815 -2.26949 0
M  V30 574 H 50.2265 0.491798 -3.70853 0
M  V30 575 H 51.5595 0.666566 -4.87666 0
M  V30 576 N 53.2116 1.57565 -0.0334293 0
M  V30 577 C 54.4886 1.83282 0.683163 0
M  V30 578 C 54.8686 0.91823 1.90084 0
M  V30 579 O 54.2166 -0.025113 2.28486 0
M  V30 580 C 54.4266 3.32599 1.0573 0
M  V30 581 C 55.7746 3.99179 1.44711 0
M  V30 582 O 56.7986 3.3712 1.15015 0
M  V30 583 O 55.6576 5.08565 2.0006 0
M  V30 584 H 52.7516 0.755869 0.335546 0
M  V30 585 H 55.2976 1.69589 -0.0614402 0
M  V30 586 H 54.0696 3.90834 0.190828 0
M  V30 587 H 53.6926 3.51415 1.85993 0
M  V30 588 N 54.6897 -0.239769 1.55765 0
M  V30 589 C 55.6197 -1.30052 1.9393 0
M  V30 590 C 56.6007 -1.49839 0.805132 0
M  V30 591 O 57.7857 -1.62328 1.06599 0
M  V30 592 C 54.9157 -2.65391 2.2402 0
M  V30 593 C 53.8697 -2.60289 3.39755 0
M  V30 594 C 53.1957 -3.99489 3.55405 0
M  V30 595 C 54.4957 -2.16654 4.75246 0
M  V30 596 H 56.1897 -0.983573 2.82783 0
M  V30 597 H 53.7357 -0.471701 1.36055 0
M  V30 598 H 55.6887 -3.3974 2.49308 0
M  V30 599 H 54.4127 -2.98736 1.32 0
M  V30 600 H 53.0717 -1.88398 3.14487 0
M  V30 601 H 52.7197 -4.30112 2.60793 0
M  V30 602 H 52.4197 -3.96962 4.33238 0
M  V30 603 H 53.9437 -4.75528 3.83022 0
M  V30 604 H 55.3577 -2.80737 4.99859 0
M  V30 605 H 53.7547 -2.25223 5.56232 0
M  V30 606 H 54.8247 -1.11835 4.71827 0
M  V30 607 N 56.1678 -1.49265 -0.50573 0
M  V30 608 C 57.1148 -1.65585 -1.6078 0
M  V30 609 C 58.0848 -0.497396 -1.58478 0
M  V30 610 O 59.2698 -0.72385 -1.76536 0
M  V30 611 C 56.4098 -1.72408 -2.98948 0
M  V30 612 C 55.5228 -2.99525 -3.11301 0
M  V30 613 C 54.6578 -2.97356 -4.40174 0
M  V30 614 C 53.6968 -4.19074 -4.46143 0
M  V30 615 N 52.8338 -4.14841 -5.66437 0
M  V30 616 H 57.6738 -2.59688 -1.46172 0
M  V30 617 H 55.2108 -1.28761 -0.711261 0
M  V30 618 H 57.1688 -1.74344 -3.79025 0
M  V30 619 H 55.7988 -0.817753 -3.1227 0
M  V30 620 H 54.8508 -3.07222 -2.24318 0
M  V30 621 H 56.1628 -3.89518 -3.11572 0
M  V30 622 H 55.3168 -2.97829 -5.28567 0
M  V30 623 H 54.0558 -2.05133 -4.42461 0
M  V30 624 H 53.0608 -4.1885 -3.56153 0
M  V30 625 H 54.2858 -5.12483 -4.45575 0
M  V30 626 H 52.2318 -3.25453 -5.69575 0
M  V30 627 H 52.1488 -4.98564 -5.68304 0
M  V30 628 H 53.4168 -4.1941 -6.57051 0
M  V30 629 N 57.6459 0.756429 -1.3826 0
M  V30 630 C 59.0569 1.33359 -1.30661 0
M  V30 631 C 59.4079 1.96161 0.0388875 0
M  V30 632 O 58.5329 1.94874 0.940918 0
M  V30 633 C 59.1279 2.42477 -2.36622 0
M  V30 634 C 57.6869 2.95922 -2.3261 0
M  V30 635 C 56.8339 1.69275 -2.19639 0
M  V30 636 H 59.7849 0.55552 -1.4866 0
M  V30 637 H 59.8059 3.22345 -2.02174 0
M  V30 638 H 59.3179 1.96739 -3.34538 0
M  V30 639 H 57.4189 3.45996 -1.38267 0
M  V30 640 H 57.5319 3.50494 -3.26636 0
M  V30 641 H 55.8959 1.92793 -1.66442 0
M  V30 642 H 56.6789 1.25619 -3.19491 0
M  V30 643 N 59.124 1.23083 0.984299 0
M  V30 644 C 60.352 1.08714 1.76037 0
M  V30 645 C 60.767 -0.361691 1.85303 0
M  V30 646 O 60.124 -1.25034 1.32939 0
M  V30 647 C 60.175 1.70206 3.18923 0
M  V30 648 O 59.896 3.09423 3.10144 0
M  V30 649 C 61.397 1.61227 4.12941 0
M  V30 650 H 58.617 0.380664 0.552572 0
M  V30 651 H 61.161 1.62853 1.23689 0
M  V30 652 H 59.316 1.20109 3.6831 0
M  V30 653 H 59.73 3.39188 4.00065 0
M  V30 654 H 61.204 2.08962 5.10919 0
M  V30 655 H 61.681 0.570375 4.35481 0
M  V30 656 H 62.287 2.10671 3.69456 0
M  V30 657 N 60.6021 -1.18246 1.0419 0
M  V30 658 C 62.0131 -1.69914 0.773698 0
M  V30 659 C 62.3641 -1.83085 -0.705297 0
M  V30 660 O 61.4891 -1.51123 -1.5489 0
M  V30 661 C 62.0841 -3.08619 1.39784 0
M  V30 662 C 60.6431 -3.57494 1.17792 0
M  V30 663 C 59.7901 -2.34013 1.48773 0
M  V30 664 H 62.7411 -1.02904 1.20816 0
M  V30 665 H 62.7621 -3.71958 0.801714 0
M  V30 666 H 62.2741 -2.99001 2.47426 0
M  V30 667 H 60.3751 -3.72406 0.120295 0
M  V30 668 H 60.4881 -4.40852 1.87581 0
M  V30 669 H 58.8521 -2.37986 0.907463 0
M  V30 670 H 59.6351 -2.27013 2.57527 0
M  V30 671 N 62.0802 -0.821533 -1.34494 0
M  V30 672 C 63.3572 -0.33159 -1.92769 0
M  V30 673 C 63.7372 1.18088 -1.74981 0
M  V30 674 O 63.0852 1.98733 -1.12772 0
M  V30 675 C 63.2952 -0.759398 -3.40638 0
M  V30 676 C 64.6432 -0.757433 -4.1779 0
M  V30 677 O 65.6672 -0.70189 -3.49216 0
M  V30 678 O 64.5262 -0.829361 -5.4017 0
M  V30 679 H 61.6202 -0.0902502 -0.822061 0
M  V30 680 H 64.1662 -0.906231 -1.43477 0
M  V30 681 H 62.9382 -1.8012 -3.47379 0
M  V30 682 H 62.5612 -0.160378 -3.97276 0
M  V30 683 N 63.5583 1.46682 -0.576371 0
M  V30 684 C 64.4883 2.33028 0.148397 0
M  V30 685 C 65.4693 1.44961 0.889956 0
M  V30 686 O 66.6543 1.73789 0.866662 0
M  V30 687 C 63.7843 3.27117 1.1667 0
M  V30 688 C 62.7383 4.24575 0.540386 0
M  V30 689 C 62.0643 5.08126 1.6647 0
M  V30 690 C 63.3643 5.19722 -0.518331 0
M  V30 691 H 65.0583 2.93875 -0.572509 0
M  V30 692 H 62.6043 1.41315 -0.276768 0
M  V30 693 H 64.5573 3.86374 1.68204 0
M  V30 694 H 63.2813 2.64364 1.9178 0
M  V30 695 H 61.9403 3.66571 0.0461769 0
M  V30 696 H 61.5883 4.41762 2.40531 0
M  V30 697 H 61.2883 5.74122 1.25131 0
M  V30 698 H 62.8123 5.70246 2.18293 0
M  V30 699 H 64.2263 5.73232 -0.0883058 0
M  V30 700 H 62.6233 5.94026 -0.851679 0
M  V30 701 H 63.6933 4.64037 -1.40703 0
M  V30 702 N 65.0364 0.313813 1.54444 0
M  V30 703 C 65.9464 -0.565714 2.27677 0
M  V30 704 C 66.9624 -1.13754 1.31666 0
M  V30 705 O 68.1384 -1.15959 1.64668 0
M  V30 706 C 65.2034 -1.71528 3.01296 0
M  V30 707 C 64.2644 -1.17624 4.12872 0
M  V30 708 C 63.4974 -2.27102 4.8297 0
M  V30 709 O 63.7204 -3.47256 4.52514 0
M  V30 710 O 62.6544 -1.9307 5.70094 0
M  V30 711 H 66.4804 0.0287296 3.03686 0
M  V30 712 H 64.0654 0.0798312 1.49187 0
M  V30 713 H 65.9474 -2.38476 3.4743 0
M  V30 714 H 64.6224 -2.29608 2.2817 0
M  V30 715 H 63.5294 -0.472124 3.71109 0
M  V30 716 H 64.8624 -0.640695 4.88012 0
M  V30 717 N 66.5145 -1.57545 0.0417849 0
M  V30 718 C 67.7605 -1.92601 -0.635021 0
M  V30 719 C 68.0935 -0.919627 -1.71045 0
M  V30 720 O 67.3685 0.0557892 -1.9442 0
M  V30 721 C 67.6515 -3.38085 -1.23979 0
M  V30 722 C 67.5045 -4.49467 -0.173057 0
M  V30 723 C 68.8235 -3.83776 -2.15416 0
M  V30 724 H 65.9425 -0.700397 -0.229374 0
M  V30 725 H 68.5845 -1.89728 0.101633 0
M  V30 726 H 66.7345 -3.40664 -1.86762 0
M  V30 727 H 68.4065 -4.59018 0.458312 0
M  V30 728 H 66.6495 -4.30909 0.499996 0
M  V30 729 H 67.3205 -5.48323 -0.636054 0
M  V30 730 H 69.7965 -3.83013 -1.62605 0
M  V30 731 H 68.6725 -4.8624 -2.54679 0
M  V30 732 H 68.9335 -3.19998 -3.05047 0
M  V30 733 N 67.9926 0.231505 -1.5589 0
M  V30 734 C 69.2406 0.955461 -1.78088 0
M  V30 735 C 69.5616 1.85262 -0.608533 0
M  V30 736 O 68.8316 1.92277 0.375035 0
M  V30 737 H 67.4116 0.355787 -0.656829 0
M  V30 738 H 70.0736 0.245751 -1.93344 0
M  V30 739 H 69.1696 1.56814 -2.69844 0
M  V30 740 N 69.4707 1.49531 0.497807 0
M  V30 741 C 70.4177 1.66436 1.59899 0
M  V30 742 C 71.3877 0.505793 1.58212 0
M  V30 743 O 72.5727 0.733202 1.7615 0
M  V30 744 C 69.7127 1.7399 2.98029 0
M  V30 745 C 68.8257 3.01172 3.09708 0
M  V30 746 C 67.9607 2.99686 4.38591 0
M  V30 747 C 66.9997 4.21434 4.43914 0
M  V30 748 N 66.1367 4.1784 5.64229 0
M  V30 749 H 70.9767 2.60459 1.44793 0
M  V30 750 H 68.5137 1.29137 0.704423 0
M  V30 751 H 70.4717 1.76352 3.78095 0
M  V30 752 H 69.1017 0.834301 3.11832 0
M  V30 753 H 68.1537 3.08408 2.22685 0
M  V30 754 H 69.4657 3.91165 3.09502 0
M  V30 755 H 68.6197 3.00628 5.2698 0
M  V30 756 H 67.3587 2.07477 4.41367 0
M  V30 757 H 66.3637 4.20733 3.53926 0
M  V30 758 H 67.5887 5.14839 4.42851 0
M  V30 759 H 65.5347 3.28469 5.67841 0
M  V30 760 H 65.4517 5.01571 5.65652 0
M  V30 761 H 66.7197 4.22889 6.54817 0
M  V30 762 N 70.9488 -0.749086 1.3866 0
M  V30 763 C 71.8958 -1.86291 1.36251 0
M  V30 764 C 72.8658 -1.64578 0.224347 0
M  V30 765 O 74.0508 -1.86181 0.417279 0
M  V30 766 C 71.1908 -3.23644 1.19786 0
M  V30 767 C 70.3038 -3.57158 2.43027 0
M  V30 768 C 69.4388 -4.83838 2.19258 0
M  V30 769 C 68.4778 -5.10152 3.38247 0
M  V30 770 N 67.6148 -6.28029 3.13884 0
M  V30 771 H 72.4548 -1.87685 2.3147 0
M  V30 772 H 69.9918 -0.917287 1.14997 0
M  V30 773 H 71.9498 -4.0291 1.08254 0
M  V30 774 H 70.5798 -3.21566 0.282031 0
M  V30 775 H 69.6318 -2.72701 2.65214 0
M  V30 776 H 70.9438 -3.7253 3.31697 0
M  V30 777 H 70.0978 -5.71057 2.04888 0
M  V30 778 H 68.8368 -4.70614 1.2796 0
M  V30 779 H 67.8418 -4.21401 3.53131 0
M  V30 780 H 69.0668 -5.25271 4.30427 0
M  V30 781 H 67.0128 -6.1612 2.25238 0
M  V30 782 H 66.9298 -6.43922 3.96106 0
M  V30 783 H 68.1978 -7.18124 3.03179 0
M  V30 784 N 72.4269 -1.23603 -0.977757 0
M  V30 785 C 73.3569 -1.04401 -2.0886 0
M  V30 786 C 74.3379 0.0399052 -1.70053 0
M  V30 787 O 75.5229 -0.125246 -1.93796 0
M  V30 788 C 72.6529 -0.637269 -3.41403 0
M  V30 789 C 71.6069 -1.66883 -3.94124 0
M  V30 790 C 70.9329 -1.11745 -5.22893 0
M  V30 791 C 72.2329 -3.06247 -4.23096 0
M  V30 792 H 73.9269 -1.97316 -2.25182 0
M  V30 793 H 71.4729 -0.950096 -1.08209 0
M  V30 794 H 73.4259 -0.48998 -4.18542 0
M  V30 795 H 72.1499 0.327557 -3.24953 0
M  V30 796 H 70.8089 -1.80416 -3.19133 0
M  V30 797 H 70.4569 -0.143527 -5.02795 0
M  V30 798 H 70.1569 -1.80672 -5.59134 0
M  V30 799 H 71.6809 -0.982067 -6.02651 0
M  V30 800 H 73.0949 -2.96001 -4.90975 0
M  V30 801 H 71.4919 -3.72436 -4.70544 0
M  V30 802 H 72.5619 -3.55041 -3.30263 0
M  V30 803 N 73.905 1.17692 -1.04816 0
M  V30 804 C 75.316 1.69501 -0.782698 0
M  V30 805 C 75.667 1.83456 0.695577 0
M  V30 806 O 74.792 1.51942 1.54086 0
M  V30 807 C 75.387 3.07874 -1.41419 0
M  V30 808 C 73.946 3.56864 -1.19686 0
M  V30 809 C 73.093 2.3322 -1.50012 0
M  V30 810 H 76.044 1.02262 -1.2136 0
M  V30 811 H 76.065 3.71528 -0.821428 0
M  V30 812 H 75.577 2.97685 -2.49009 0
M  V30 813 H 73.678 3.72337 -0.140043 0
M  V30 814 H 73.791 4.39851 -1.89916 0
M  V30 815 H 72.155 2.37501 -0.920071 0
M  V30 816 H 72.938 2.25644 -2.58727 0
M  V30 817 N 75.3831 0.828654 1.34056 0
M  V30 818 C 76.6301 0.419458 1.98108 0
M  V30 819 C 76.9581 -1.01886 1.65679 0
M  V30 820 O 76.2131 -1.72539 0.923512 0
M  V30 821 C 76.5121 0.575226 3.52741 0
M  V30 822 C 76.1781 1.98012 4.05095 0
M  V30 823 C 74.8401 2.36442 4.19104 0
M  V30 824 C 77.1921 2.89824 4.33188 0
M  V30 825 C 74.5201 3.66009 4.58535 0
M  V30 826 C 76.8721 4.1886 4.74066 0
M  V30 827 C 75.5361 4.5726 4.86281 0
M  V30 828 H 74.8061 0.153491 0.724929 0
M  V30 829 H 77.4531 1.05371 1.59904 0
M  V30 830 H 75.7581 -0.142385 3.91541 0
M  V30 831 H 77.4551 0.239057 4.00287 0
M  V30 832 H 74.0451 1.67162 3.94658 0
M  V30 833 H 78.2291 2.61375 4.21897 0
M  V30 834 H 73.4851 3.95579 4.66184 0
M  V30 835 H 77.6591 4.90086 4.94761 0
M  V30 836 H 75.2861 5.57707 5.16592 0
M  V30 837 N 76.8612 -1.46375 0.584142 0
M  V30 838 C 78.1102 -2.01585 0.0679741 0
M  V30 839 C 78.4232 -1.46109 -1.30045 0
M  V30 840 O 79.6292 -1.93148 -1.90804 0
M  V30 841 C 78.0852 -3.5983 0.0709207 0
M  V30 842 C 77.6932 -4.24303 1.43775 0
M  V30 843 C 79.4372 -4.22693 -0.391228 0
M  V30 844 C 77.3442 -5.74631 1.39834 0
M  V30 845 H 76.2742 -0.753689 0.0216421 0
M  V30 846 H 78.9252 -1.68093 0.736001 0
M  V30 847 H 77.3072 -3.90405 -0.663299 0
M  V30 848 H 78.4812 -4.05335 2.19181 0
M  V30 849 H 76.7962 -3.73539 1.84004 0
M  V30 850 H 79.3932 -5.3289 -0.439524 0
M  V30 851 H 79.7362 -3.91728 -1.40906 0
M  V30 852 H 80.2692 -3.96749 0.288974 0
M  V30 853 H 77.0082 -6.10258 2.39303 0
M  V30 854 H 76.5282 -5.95858 0.686505 0
M  V30 855 H 78.2072 -6.37375 1.11187 0
M  V30 856 N 78.3393 -0.321999 -1.54275 0
M  V30 857 C 79.5693 0.282642 -2.04658 0
M  V30 858 C 79.9773 1.46453 -1.19784 0
M  V30 859 O 79.3203 1.82367 -0.220932 0
M  V30 860 C 79.3823 0.781857 -3.50895 0
M  V30 861 C 79.0463 -0.277517 -4.56157 0
M  V30 862 C 80.0433 -1.11307 -5.07845 0
M  V30 863 C 77.7283 -0.425256 -5.00497 0
M  V30 864 C 79.7223 -2.08211 -6.02434 0
M  V30 865 C 77.4093 -1.39771 -5.94901 0
M  V30 866 C 78.4073 -2.2246 -6.45756 0
M  V30 867 O 78.0953 -3.18054 -7.38307 0
M  V30 868 H 77.8273 0.0622636 -0.673126 0
M  V30 869 H 80.3813 -0.465792 -2.00049 0
M  V30 870 H 78.6113 1.58118 -3.52896 0
M  V30 871 H 80.3003 1.30467 -3.84361 0
M  V30 872 H 81.0663 -1.00991 -4.74369 0
M  V30 873 H 76.9453 0.20847 -4.60528 0
M  V30 874 H 80.4893 -2.72791 -6.42052 0
M  V30 875 H 76.3863 -1.50152 -6.27794 0
M  V30 876 H 77.1543 -3.13275 -7.56175 0
M  V30 877 N 79.8174 1.5752 -0.0501392 0
M  V30 878 C 81.0654 1.9227 0.622642 0
M  V30 879 C 81.3864 0.929083 1.71444 0
M  V30 880 O 80.6564 -0.0262186 1.95882 0
M  V30 881 H 79.2364 0.709739 0.232981 0
M  V30 882 H 81.8984 1.94628 -0.102898 0
M  V30 883 H 80.9944 2.93479 1.06191 0
M  V30 884 N 81.2955 -0.223234 1.56011 0
M  V30 885 C 82.2435 -1.29627 1.93131 0
M  V30 886 C 83.2375 -1.48608 0.813146 0
M  V30 887 O 84.4435 -1.49802 0.997966 0
M  V30 888 H 80.8185 -0.434563 0.613726 0
M  V30 889 H 82.7895 -0.955995 2.82672 0
M  V30 890 C 81.5385 -2.63983 2.26292 0
M  V30 891 H 80.8615 -2.50185 3.11846 0
M  V30 892 H 82.3015 -3.3788 2.56151 0
M  V30 893 C 80.7605 -3.18866 1.08747 0
M  V30 894 O 81.2905 -4.00192 0.347727 0
M  V30 895 N 79.4965 -2.77217 0.871743 0
M  V30 896 H 79.0435 -2.1119 1.47501 0
M  V30 897 H 79.0015 -3.1428 0.0869905 0
M  V30 898 N 82.7736 -1.49793 -0.48987 0
M  V30 899 C 83.7036 -1.70201 -1.59856 0
M  V30 900 C 84.6846 -0.55076 -1.60937 0
M  V30 901 O 85.8696 -0.787841 -1.77501 0
M  V30 902 C 82.9996 -1.77882 -2.98287 0
M  V30 903 C 81.9536 -2.92907 -3.12073 0
M  V30 904 C 81.2796 -2.85712 -4.51965 0
M  V30 905 C 82.5796 -4.3369 -2.91051 0
M  V30 906 H 84.2736 -2.63025 -1.43032 0
M  V30 907 H 81.8196 -1.26574 -0.686664 0
M  V30 908 H 83.7726 -1.90744 -3.75759 0
M  V30 909 H 82.4966 -0.816653 -3.16225 0
M  V30 910 H 81.1556 -2.79665 -2.37029 0
M  V30 911 H 80.8036 -1.8738 -4.66795 0
M  V30 912 H 80.5036 -3.62921 -4.62128 0
M  V30 913 H 82.0276 -3.00598 -5.31482 0
M  V30 914 H 83.4416 -4.47555 -3.58284 0
M  V30 915 H 81.8386 -5.12205 -3.12675 0
M  V30 916 H 82.9086 -4.47362 -1.87071 0
M  V30 917 N 84.2517 0.741722 -1.39055 0
M  V30 918 C 85.4767 1.53607 -1.39354 0
M  V30 919 C 85.9017 1.88096 0.0116905 0
M  V30 920 O 85.2597 1.5143 0.996924 0
M  V30 921 C 85.3077 2.80441 -2.26682 0
M  V30 922 O 84.4117 3.76088 -1.69208 0
M  V30 923 H 83.7527 0.464142 -0.474835 0
M  V30 924 H 86.2827 0.915665 -1.82967 0
M  V30 925 H 86.2927 3.29246 -2.40959 0
M  V30 926 H 84.9677 2.5467 -3.2881 0
M  V30 927 H 83.5447 3.34833 -1.64138 0
M  V30 928 N 85.7298 1.2412 0.971189 0
M  V30 929 C 86.6618 0.988349 2.06795 0
M  V30 930 C 87.6748 -0.0409541 1.62748 0
M  V30 931 O 88.8638 0.195673 1.77424 0
M  V30 932 C 85.9638 0.469023 3.35639 0
M  V30 933 C 85.1368 1.56065 4.08611 0
M  V30 934 C 84.1958 1.04458 5.15728 0
M  V30 935 O 83.2218 1.73553 5.42096 0
M  V30 936 N 84.4238 -0.122817 5.8037 0
M  V30 937 H 87.1888 1.93265 2.29061 0
M  V30 938 H 84.7498 1.15102 1.13856 0
M  V30 939 H 86.7418 0.108613 4.04554 0
M  V30 940 H 85.3118 -0.380919 3.1027 0
M  V30 941 H 84.5318 2.09341 3.34021 0
M  V30 942 H 85.8198 2.29449 4.54126 0
M  V30 943 H 85.2178 -0.700563 5.61345 0
M  V30 944 H 83.7748 -0.424404 6.50417 0
M  V30 945 N 87.2079 -1.17134 1.05439 0
M  V30 946 C 88.4559 -1.87085 0.764429 0
M  V30 947 C 88.7769 -1.81584 -0.710787 0
M  V30 948 O 88.0469 -1.24349 -1.51374 0
M  V30 949 H 86.6269 -0.692627 0.279779 0
M  V30 950 H 89.2889 -1.42087 1.33406 0
M  V30 951 H 88.3849 -2.92759 1.0816 0
M  V30 952 N 88.686 -0.835752 -1.33615 0
M  V30 953 C 89.619 -0.211815 -2.27215 0
M  V30 954 C 90.597 0.639249 -1.49507 0
M  V30 955 O 91.781 0.600193 -1.78689 0
M  V30 956 C 88.908 0.702893 -3.31326 0
M  V30 957 C 87.954 -0.0723049 -4.26439 0
M  V30 958 S 88.787 -1.42811 -5.16106 0
M  V30 959 C 89.943 -0.518613 -6.23748 0
M  V30 960 H 90.176 -1.00533 -2.79786 0
M  V30 961 H 87.709 -0.632336 -1.40858 0
M  V30 962 H 89.667 1.22505 -3.91794 0
M  V30 963 H 88.328 1.47004 -2.77576 0
M  V30 964 H 87.521 0.62359 -5.00127 0
M  V30 965 H 87.123 -0.525424 -3.70291 0
M  V30 966 H 89.415 0.284778 -6.76901 0
M  V30 967 H 90.358 -1.22556 -6.97413 0
M  V30 968 H 90.766 -0.101344 -5.64409 0
M  V30 969 N 90.1641 1.46063 -0.591896 0
M  V30 970 C 91.4101 2.02638 -0.0811191 0
M  V30 971 C 91.7431 1.4613 1.27905 0
M  V30 972 O 91.0181 0.629908 1.84017 0
M  V30 973 C 91.3011 3.60091 -0.0252436 0
M  V30 974 C 91.1541 4.26965 -1.41496 0
M  V30 975 C 92.4731 4.3496 0.670685 0
M  V30 976 H 89.5921 0.73635 -0.0309524 0
M  V30 977 H 92.2341 1.741 -0.760859 0
M  V30 978 H 90.3841 3.84535 0.553624 0
M  V30 979 H 92.0561 4.13756 -2.0397 0
M  V30 980 H 90.2991 3.85971 -1.98011 0
M  V30 981 H 90.9701 5.35781 -1.32825 0
M  V30 982 H 93.4461 4.15716 0.178825 0
M  V30 983 H 92.3221 5.44686 0.678837 0
M  V30 984 H 92.5831 4.06685 1.73379 0
M  V30 985 N 91.6422 0.330177 1.54103 0
M  V30 986 C 92.8672 -0.274893 2.0557 0
M  V30 987 C 93.2922 -1.44487 1.20437 0
M  V30 988 O 92.6502 -1.80021 0.214991 0
M  V30 989 C 92.6982 -0.68079 3.54115 0
M  V30 990 O 91.8022 -1.7824 3.71893 0
M  V30 991 H 91.1432 -0.0483849 0.662235 0
M  V30 992 H 93.6732 0.480508 1.98878 0
M  V30 993 H 93.6832 -0.961635 3.96505 0
M  V30 994 H 92.3582 0.174903 4.15532 0
M  V30 995 H 90.9352 -1.49985 3.41407 0
M  V30 996 N 93.1203 -1.57491 0.0584922 0
M  V30 997 C 94.0303 -2.15448 -0.928414 0
M  V30 998 C 95.0463 -1.11416 -1.3365 0
M  V30 999 O 96.2223 -1.4362 -1.41193 0
M  V30 1000 C 93.2873 -2.69393 -2.18239 0
M  V30 1001 C 92.3483 -3.88249 -1.83196 0
M  V30 1002 C 91.5813 -4.39613 -3.02616 0
M  V30 1003 O 91.8043 -3.90023 -4.16219 0
M  V30 1004 O 90.7383 -5.31111 -2.83204 0
M  V30 1005 H 94.5643 -3.00112 -0.465483 0
M  V30 1006 H 92.1493 -1.48499 -0.163826 0
M  V30 1007 H 94.0313 -3.04026 -2.91798 0
M  V30 1008 H 92.7063 -1.87796 -2.63656 0
M  V30 1009 H 91.6133 -3.58492 -1.06931 0
M  V30 1010 H 92.9463 -4.71098 -1.42573 0
M  V30 1011 N 94.5984 0.214957 -1.56127 0
M  V30 1012 C 96.0094 0.781386 -1.69562 0
M  V30 1013 C 96.3604 1.84707 -0.66165 0
M  V30 1014 O 95.4854 2.156 0.185927 0
M  V30 1015 C 96.0804 1.42411 -3.07416 0
M  V30 1016 C 94.6394 1.93786 -3.22683 0
M  V30 1017 C 93.7864 0.800438 -2.65496 0
M  V30 1018 H 96.7374 -0.00980633 -1.58697 0
M  V30 1019 H 96.7584 2.29309 -3.0364 0
M  V30 1020 H 96.2704 0.64826 -3.82648 0
M  V30 1021 H 94.3714 2.74152 -2.52332 0
M  V30 1022 H 94.4844 2.1133 -4.29973 0
M  V30 1023 H 92.8484 1.2095 -2.2415 0
M  V30 1024 H 93.6314 0.0371471 -3.4328 0
M  V30 1025 N 96.0765 1.50051 0.48192 0
M  V30 1026 C 97.0065 1.71046 1.58951 0
M  V30 1027 C 97.9875 0.559288 1.60642 0
M  V30 1028 O 99.1725 0.797243 1.77081 0
M  V30 1029 C 96.3025 1.79462 2.97339 0
M  V30 1030 C 95.2565 2.94558 3.10515 0
M  V30 1031 C 94.5825 2.88105 4.50444 0
M  V30 1032 C 95.8825 4.35227 2.88747 0
M  V30 1033 H 97.5765 2.6378 1.41635 0
M  V30 1034 H 95.1225 1.26936 0.679942 0
M  V30 1035 H 97.0755 1.92734 3.74742 0
M  V30 1036 H 95.7995 0.833412 3.15788 0
M  V30 1037 H 94.4585 2.80918 2.35543 0
M  V30 1038 H 94.1065 1.89853 4.65795 0
M  V30 1039 H 93.8065 3.65366 4.60197 0
M  V30 1040 H 95.3305 3.03412 5.29881 0
M  V30 1041 H 96.7445 4.49449 3.55905 0
M  V30 1042 H 95.1415 5.13856 3.09955 0
M  V30 1043 H 96.2115 4.48347 1.84696 0
M  V30 1044 N 97.5546 -0.734337 1.39446 0
M  V30 1045 C 98.4646 -1.87879 1.40495 0
M  V30 1046 C 99.4806 -1.714 0.299672 0
M  V30 1047 O 100.657 -1.93991 0.541249 0
M  V30 1048 C 97.7216 -3.23477 1.24754 0
M  V30 1049 C 96.7826 -3.52344 2.45259 0
M  V30 1050 C 96.0156 -4.81473 2.30259 0
M  V30 1051 O 96.2386 -5.55237 1.30643 0
M  V30 1052 O 95.1726 -5.10254 3.19256 0
M  V30 1053 H 98.9986 -1.89949 2.36966 0
M  V30 1054 H 96.5836 -0.882243 1.20569 0
M  V30 1055 H 98.4656 -4.04509 1.18111 0
M  V30 1056 H 97.1406 -3.22176 0.313781 0
M  V30 1057 H 96.0476 -2.71396 2.57478 0
M  V30 1058 H 97.3806 -3.58426 3.37331 0
M  V30 1059 N 99.0327 -1.24633 -0.964593 0
M  V30 1060 C 100.31 -0.995809 -1.68354 0
M  V30 1061 C 100.69 0.480964 -2.05548 0
M  V30 1062 O 100.038 1.45599 -1.76105 0
M  V30 1063 C 100.248 -1.92177 -2.91323 0
M  V30 1064 C 101.596 -2.19446 -3.63495 0
M  V30 1065 O 102.62 -1.89855 -3.01386 0
M  V30 1066 O 101.479 -2.69714 -4.75307 0
M  V30 1067 H 98.5727 -0.376854 -0.736146 0
M  V30 1068 H 101.119 -1.35745 -1.0184 0
M  V30 1069 H 99.8907 -2.91938 -2.60553 0
M  V30 1070 H 99.5137 -1.56349 -3.65569 0
M  V30 1071 N 100.511 1.16574 -1.06058 0
M  V30 1072 C 101.757 1.87324 -0.777022 0
M  V30 1073 C 102.09 1.81351 0.694645 0
M  V30 1074 O 101.365 1.22753 1.50871 0
M  V30 1075 C 101.648 3.36991 -1.26922 0
M  V30 1076 C 101.501 3.51667 -2.80447 0
M  V30 1077 C 102.82 4.3131 -0.87521 0
M  V30 1078 H 99.9388 0.680191 -0.28374 0
M  V30 1079 H 102.581 1.37036 -1.3161 0
M  V30 1080 H 100.731 3.79949 -0.81063 0
M  V30 1081 H 102.403 3.17664 -3.34495 0
M  V30 1082 H 100.646 2.93656 -3.19294 0
M  V30 1083 H 101.317 4.56766 -3.0995 0
M  V30 1084 H 103.793 3.9624 -1.27014 0
M  V30 1085 H 102.669 5.34545 -1.2471 0
M  V30 1086 H 102.93 4.41552 0.220071 0
M  V30 1087 N 101.989 0.842826 1.3317 0
M  V30 1088 C 103.266 0.362216 1.92217 0
M  V30 1089 C 103.646 -1.15289 1.76838 0
M  V30 1090 O 102.994 -1.96914 1.15919 0
M  V30 1091 C 103.204 0.813495 3.39387 0
M  V30 1092 C 104.552 0.823804 4.16532 0
M  V30 1093 O 105.576 0.757358 3.48055 0
M  V30 1094 O 104.435 0.915193 5.38782 0
M  V30 1095 H 101.529 0.103317 0.820521 0
M  V30 1096 H 104.075 0.928942 1.42017 0
M  V30 1097 H 102.847 1.85624 3.4447 0
M  V30 1098 H 102.47 0.223561 3.96971 0
M  V30 1099 N 103.467 -1.45747 0.599634 0
M  V30 1100 C 104.878 -1.85853 0.177681 0
M  V30 1101 C 105.229 -1.50102 -1.26348 0
M  V30 1102 O 104.354 -0.923905 -1.95686 0
M  V30 1103 C 104.949 -3.37326 0.315688 0
M  V30 1104 C 103.508 -3.76365 -0.0515144 0
M  V30 1105 C 102.655 -2.69722 0.643822 0
M  V30 1106 H 105.606 -1.36661 0.806814 0
M  V30 1107 H 105.627 -3.77778 -0.454321 0
M  V30 1108 H 105.139 -3.63315 1.36468 0
M  V30 1109 H 103.24 -3.55993 -1.09999 0
M  V30 1110 H 103.353 -4.77916 0.336594 0
M  V30 1111 H 101.717 -2.54567 0.0822881 0
M  V30 1112 H 102.5 -2.98549 1.6948 0
M  V30 1113 N 104.945 -0.338344 -1.53925 0
M  V30 1114 C 106.175 0.260919 -2.04946 0
M  V30 1115 C 106.583 1.45174 -1.2133 0
M  V30 1116 O 105.926 1.82122 -0.240262 0
M  V30 1117 C 105.988 0.744596 -3.51704 0
M  V30 1118 C 105.652 -0.325883 -4.55837 0
M  V30 1119 C 106.649 -1.16687 -5.06636 0
M  V30 1120 C 104.334 -0.478317 -5.00017 0
M  V30 1121 C 106.328 -2.14588 -6.00192 0
M  V30 1122 C 104.015 -1.46073 -5.93385 0
M  V30 1123 C 105.013 -2.29297 -6.4336 0
M  V30 1124 O 104.701 -3.25867 -7.34892 0
M  V30 1125 H 104.433 0.0551207 -0.673749 0
M  V30 1126 H 106.987 -0.486984 -1.99544 0
M  V30 1127 H 105.217 1.54366 -3.54553 0
M  V30 1128 H 106.906 1.26383 -3.85723 0
M  V30 1129 H 107.672 -1.06016 -4.73271 0
M  V30 1130 H 103.551 0.159613 -4.60724 0
M  V30 1131 H 107.095 -2.79585 -6.39123 0
M  V30 1132 H 102.992 -1.56802 -6.26166 0
M  V30 1133 H 103.76 -3.21278 -7.5281 0
M  V30 1134 N 106.423 1.57458 -0.0668435 0
M  V30 1135 C 107.653 1.97337 0.611677 0
M  V30 1136 C 108.061 0.943744 1.63982 0
M  V30 1137 O 107.404 -0.0785584 1.83532 0
M  V30 1138 C 107.466 3.33511 1.34205 0
M  V30 1139 C 107.13 4.54598 0.467941 0
M  V30 1140 C 108.127 5.19186 -0.272439 0
M  V30 1141 C 105.812 5.0075 0.39427 0
M  V30 1142 C 107.806 6.28274 -1.07476 0
M  V30 1143 C 105.493 6.09711 -0.411729 0
M  V30 1144 C 106.491 6.73335 -1.14492 0
M  V30 1145 O 106.179 7.80199 -1.93763 0
M  V30 1146 H 105.911 0.654042 0.170893 0
M  V30 1147 H 108.465 2.04961 -0.134289 0
M  V30 1148 H 106.695 3.22487 2.13398 0
M  V30 1149 H 108.384 3.58029 1.91233 0
M  V30 1150 H 109.15 4.84477 -0.225086 0
M  V30 1151 H 105.029 4.51009 0.954569 0
M  V30 1152 H 108.573 6.77866 -1.64755 0
M  V30 1153 H 104.47 6.43854 -0.460664 0
M  V30 1154 H 105.238 7.97053 -1.86142 0
M  V30 1155 N 107.901 -0.206675 1.56239 0
M  V30 1156 C 109.131 -0.943975 1.83773 0
M  V30 1157 C 109.539 -1.77841 0.645703 0
M  V30 1158 O 108.882 -1.79403 -0.395008 0
M  V30 1159 C 108.944 -1.899 3.05251 0
M  V30 1160 C 108.608 -1.24764 4.39639 0
M  V30 1161 C 109.605 -0.630216 5.16066 0
M  V30 1162 C 107.29 -1.25496 4.8637 0
M  V30 1163 C 109.284 -0.0287946 6.37393 0
M  V30 1164 C 106.971 -0.649698 6.07637 0
M  V30 1165 C 107.969 -0.0376845 6.8299 0
M  V30 1166 O 107.657 0.55812 8.0196 0
M  V30 1167 H 107.389 -0.281508 0.614597 0
M  V30 1168 H 109.943 -0.222458 2.04192 0
M  V30 1169 H 108.173 -2.6599 2.80689 0
M  V30 1170 H 109.862 -2.5031 3.1953 0
M  V30 1171 H 110.628 -0.616785 4.81062 0
M  V30 1172 H 106.507 -1.72072 4.27683 0
M  V30 1173 H 110.051 0.449518 6.9615 0
M  V30 1174 H 105.948 -0.660592 6.42111 0
M  V30 1175 H 106.716 0.453891 8.17241 0
M  V30 1176 N 109.379 -1.50304 -0.473955 0
M  V30 1177 C 110.326 -1.68959 -1.57231 0
M  V30 1178 C 111.296 -0.530899 -1.57387 0
M  V30 1179 O 112.481 -0.761133 -1.74961 0
M  V30 1180 C 109.621 -1.7871 -2.95223 0
M  V30 1181 C 108.734 -3.06061 -3.04878 0
M  V30 1182 C 107.869 -3.06626 -4.33767 0
M  V30 1183 C 106.908 -4.28443 -4.37154 0
M  V30 1184 N 106.045 -4.26763 -5.5751 0
M  V30 1185 H 110.885 -2.6273 -1.40631 0
M  V30 1186 H 108.422 -1.30241 -0.683789 0
M  V30 1187 H 110.38 -1.82344 -3.75242 0
M  V30 1188 H 109.01 -0.883806 -3.10465 0
M  V30 1189 H 108.062 -3.11911 -2.17751 0
M  V30 1190 H 109.374 -3.96039 -3.0324 0
M  V30 1191 H 108.528 -3.08973 -5.22131 0
M  V30 1192 H 107.267 -2.14473 -4.3801 0
M  V30 1193 H 106.272 -4.2631 -3.47188 0
M  V30 1194 H 107.497 -5.2182 -4.34605 0
M  V30 1195 H 105.443 -3.37462 -5.62544 0
M  V30 1196 H 105.36 -5.10507 -5.57601 0
M  V30 1197 H 106.628 -4.33253 -6.48006 0
M  V30 1198 N 110.857 0.726932 -1.39834 0
M  V30 1199 C 111.804 1.841 -1.39197 0
M  V30 1200 C 112.774 1.642 -0.250502 0
M  V30 1201 O 113.959 1.85494 -0.446846 0
M  V30 1202 C 111.099 3.21697 -1.24919 0
M  V30 1203 C 110.212 3.53247 -2.48678 0
M  V30 1204 C 109.347 4.80289 -2.26928 0
M  V30 1205 C 108.386 5.04707 -3.4632 0
M  V30 1206 N 107.523 6.22956 -3.23836 0
M  V30 1207 H 112.363 1.83979 -2.34427 0
M  V30 1208 H 109.9 0.898876 -1.16442 0
M  V30 1209 H 111.858 4.01137 -1.1465 0
M  V30 1210 H 110.488 3.21076 -0.333153 0
M  V30 1211 H 109.54 2.68447 -2.69519 0
M  V30 1212 H 110.852 3.67205 -3.37582 0
M  V30 1213 H 110.006 5.67725 -2.13947 0
M  V30 1214 H 108.745 4.68519 -1.35431 0
M  V30 1215 H 107.75 4.1573 -3.5979 0
M  V30 1216 H 108.975 5.18357 -4.38729 0
M  V30 1217 H 106.921 6.12459 -2.35011 0
M  V30 1218 H 106.838 6.37539 -4.063 0
M  V30 1219 H 108.106 7.1321 -3.14566 0
M  V30 1220 N 112.336 1.25143 0.95797 0
M  V30 1221 C 113.283 1.05235 2.05412 0
M  V30 1222 C 114.253 -0.0374561 1.66058 0
M  V30 1223 O 115.438 0.119073 1.90428 0
M  V30 1224 C 112.578 0.673589 3.38462 0
M  V30 1225 C 111.691 1.8379 3.90954 0
M  V30 1226 C 110.826 1.40381 5.12315 0
M  V30 1227 C 109.865 2.53746 5.57027 0
M  V30 1228 N 109.002 2.11136 6.69601 0
M  V30 1229 H 113.842 1.99048 2.21774 0
M  V30 1230 H 111.379 0.991277 1.08683 0
M  V30 1231 H 113.337 0.434964 4.14926 0
M  V30 1232 H 111.967 -0.227554 3.21997 0
M  V30 1233 H 111.019 2.18992 3.11041 0
M  V30 1234 H 112.331 2.68937 4.20089 0
M  V30 1235 H 111.485 1.12464 5.96185 0
M  V30 1236 H 110.224 0.523015 4.84887 0
M  V30 1237 H 109.229 2.82412 4.71724 0
M  V30 1238 H 110.454 3.42398 5.86464 0
M  V30 1239 H 108.4 1.25468 6.4389 0
M  V30 1240 H 108.317 2.89832 6.98236 0
M  V30 1241 H 109.585 1.86385 7.56889 0
M  V30 1242 N 113.814 -1.1601 1.06675 0
M  V30 1243 C 114.762 -2.22586 0.675157 0
M  V30 1244 C 115.756 -1.66525 -0.310766 0
M  V30 1245 O 116.962 -1.79145 -0.175215 0
M  V30 1246 H 113.337 -0.724855 0.200223 0
M  V30 1247 H 115.308 -2.52899 1.58381 0
M  V30 1248 C 114.057 -3.47604 0.0817162 0
M  V30 1249 H 113.38 -3.91058 0.831484 0
M  V30 1250 H 114.82 -4.23718 -0.154708 0
M  V30 1251 C 113.279 -3.15718 -1.17576 0
M  V30 1252 O 113.809 -3.31878 -2.26318 0
M  V30 1253 N 112.015 -2.69816 -1.07923 0
M  V30 1254 H 111.562 -2.56866 -0.194293 0
M  V30 1255 H 111.52 -2.48855 -1.92141 0
M  V30 1256 N 115.292 -0.849877 -1.32721 0
M  V30 1257 C 116.52 -0.464754 -2.01613 0
M  V30 1258 C 116.935 0.937191 -1.63897 0
M  V30 1259 O 116.292 1.61081 -0.857856 0
M  V30 1260 C 116.343 -0.588638 -3.56675 0
M  V30 1261 O 116.064 -1.93535 -3.93034 0
M  V30 1262 C 117.565 -0.2019 -4.4284 0
M  V30 1263 H 114.785 -0.183215 -0.645502 0
M  V30 1264 H 117.329 -1.1455 -1.69407 0
M  V30 1265 H 115.484 0.0443159 -3.87375 0
M  V30 1266 H 115.898 -1.92871 -4.87751 0
M  V30 1267 H 117.372 -0.339599 -5.50954 0
M  V30 1268 H 117.849 0.857224 -4.30753 0
M  V30 1269 H 118.455 -0.809733 -4.17521 0
M  V30 1270 N 116.77 1.45427 -0.607355 0
M  V30 1271 C 118.017 2.02241 -0.102455 0
M  V30 1272 C 118.345 1.4758 1.26691 0
M  V30 1273 O 117.6 0.640468 1.84923 0
M  V30 1274 C 117.899 3.57398 -0.0129263 0
M  V30 1275 C 117.565 4.3121 -1.31792 0
M  V30 1276 C 116.227 4.51092 -1.67539 0
M  V30 1277 C 118.579 4.73401 -2.18039 0
M  V30 1278 C 115.907 5.10422 -2.89285 0
M  V30 1279 C 118.259 5.34078 -3.39034 0
M  V30 1280 C 116.923 5.52184 -3.75033 0
M  V30 1281 H 116.193 0.740051 -0.037491 0
M  V30 1282 H 118.84 1.74494 -0.788926 0
M  V30 1283 H 117.145 3.84421 0.756806 0
M  V30 1284 H 118.842 3.99061 0.393881 0
M  V30 1285 H 115.432 4.16047 -1.02968 0
M  V30 1286 H 119.616 4.57774 -1.91721 0
M  V30 1287 H 114.872 5.22629 -3.17283 0
M  V30 1288 H 119.046 5.65724 -4.06115 0
M  V30 1289 H 116.673 5.97925 -4.69457 0
M  V30 1290 N 118.248 0.346503 1.53744 0
M  V30 1291 C 119.497 -0.250122 2.00143 0
M  V30 1292 C 119.81 -1.51418 1.23822 0
M  V30 1293 O 121.016 -2.18823 1.60713 0
M  V30 1294 C 119.472 -0.496252 3.56462 0
M  V30 1295 C 119.08 0.752077 4.41642 0
M  V30 1296 C 120.824 -1.05157 4.11269 0
M  V30 1297 C 118.731 0.476583 5.89477 0
M  V30 1298 H 117.661 -0.0972409 0.747703 0
M  V30 1299 H 120.312 0.46229 1.77581 0
M  V30 1300 H 118.694 -1.26944 3.75102 0
M  V30 1301 H 119.868 1.5266 4.34778 0
M  V30 1302 H 118.183 1.22925 3.97842 0
M  V30 1303 H 120.78 -1.27269 5.19333 0
M  V30 1304 H 121.123 -2.00799 3.64672 0
M  V30 1305 H 121.656 -0.339019 3.96353 0
M  V30 1306 H 118.395 1.4028 6.40314 0
M  V30 1307 H 117.915 -0.259794 5.99237 0
M  V30 1308 H 119.594 0.0949315 6.4693 0
M  V30 1309 N 119.726 -1.57421 0.075193 0
M  V30 1310 C 120.972 -1.93905 -0.594025 0
M  V30 1311 C 121.305 -0.955701 -1.69056 0
M  V30 1312 O 120.58 0.0145373 -1.94495 0
M  V30 1313 C 120.863 -3.40638 -1.1678 0
M  V30 1314 C 120.716 -4.49733 -0.0776792 0
M  V30 1315 C 122.035 -3.88259 -2.07228 0
M  V30 1316 H 119.154 -0.705105 -0.214466 0
M  V30 1317 H 121.796 -1.8947 0.141854 0
M  V30 1318 H 119.946 -3.44549 -1.79494 0
M  V30 1319 H 121.618 -4.57942 0.555573 0
M  V30 1320 H 119.861 -4.29751 0.591286 0
M  V30 1321 H 120.532 -5.49549 -0.519603 0
M  V30 1322 H 123.008 -3.86376 -1.54445 0
M  V30 1323 H 121.884 -4.91533 -2.44308 0
M  V30 1324 H 122.145 -3.26396 -2.98191 0
M  V30 1325 N 121.204 0.198386 -1.56346 0
M  V30 1326 C 122.134 1.24865 -1.9731 0
M  V30 1327 C 123.115 1.47651 -0.844576 0
M  V30 1328 O 124.3 1.59444 -1.10866 0
M  V30 1329 C 121.43 2.59358 -2.30977 0
M  V30 1330 C 120.384 2.5119 -3.46537 0
M  V30 1331 C 119.71 3.89926 -3.65871 0
M  V30 1332 C 121.01 2.03977 -4.80823 0
M  V30 1333 H 122.704 0.908252 -2.85291 0
M  V30 1334 H 120.25 0.435462 -1.37258 0
M  V30 1335 H 122.203 3.33011 -2.58228 0
M  V30 1336 H 120.927 2.95132 -1.39874 0
M  V30 1337 H 119.586 1.79993 -3.19371 0
M  V30 1338 H 119.234 4.23046 -2.72105 0
M  V30 1339 H 118.934 3.85336 -4.4361 0
M  V30 1340 H 120.458 4.65205 -3.95495 0
M  V30 1341 H 121.872 2.67386 -5.07127 0
M  V30 1342 H 120.269 2.10397 -5.62008 0
M  V30 1343 H 121.339 0.992861 -4.74626 0
M  V30 1344 N 122.682 1.50554 0.465978 0
M  V30 1345 C 123.63 1.70324 1.58406 0
M  V30 1346 C 124.624 0.569139 1.59553 0
M  V30 1347 O 125.83 0.749776 1.63641 0
M  V30 1348 H 122.205 0.537688 0.525734 0
M  V30 1349 H 124.176 2.64104 1.38894 0
M  V30 1350 C 122.925 1.81928 2.96307 0
M  V30 1351 H 122.248 2.68586 2.96144 0
M  V30 1352 H 123.688 1.99784 3.73982 0
M  V30 1353 C 122.147 0.572095 3.32007 0
M  V30 1354 O 122.677 -0.286416 4.00678 0
M  V30 1355 N 120.883 0.424606 2.87481 0
M  V30 1356 H 120.43 1.12427 2.31771 0
M  V30 1357 H 120.388 -0.408697 3.11732 0
M  V30 1358 N 124.16 -0.719506 1.40217 0
M  V30 1359 C 125.107 -1.83359 1.40172 0
M  V30 1360 C 126.077 -1.64065 0.259206 0
M  V30 1361 O 127.262 -1.85254 0.456677 0
M  V30 1362 C 124.402 -3.2103 1.26624 0
M  V30 1363 C 123.515 -3.51923 2.50548 0
M  V30 1364 C 122.65 -4.79079 2.29471 0
M  V30 1365 C 121.689 -5.02863 3.48992 0
M  V30 1366 N 120.826 -6.2123 3.27135 0
M  V30 1367 H 125.666 -1.82733 2.35399 0
M  V30 1368 H 123.203 -0.892688 1.16917 0
M  V30 1369 H 125.161 -4.00524 1.16776 0
M  V30 1370 H 123.791 -3.20895 0.350176 0
M  V30 1371 H 122.843 -2.67014 2.70939 0
M  V30 1372 H 124.155 -3.6541 3.39525 0
M  V30 1373 H 123.309 -5.66582 2.16955 0
M  V30 1374 H 122.048 -4.67794 1.37913 0
M  V30 1375 H 121.053 -4.13816 3.6199 0
M  V30 1376 H 122.278 -5.16023 4.41472 0
M  V30 1377 H 120.224 -6.11204 2.38256 0
M  V30 1378 H 120.141 -6.35375 4.09675 0
M  V30 1379 H 121.409 -7.11532 3.18344 0
M  V30 1380 N 125.638 -1.25649 -0.95132 0
M  V30 1381 C 126.586 -1.06118 -2.06982 0
M  V30 1382 C 127.58 0.00889169 -1.69398 0
M  V30 1383 O 128.786 -0.146988 -1.79399 0
M  V30 1384 H 125.161 -0.326248 -0.677544 0
M  V30 1385 H 127.132 -2.00932 -2.2061 0
M  V30 1386 C 125.881 -0.700145 -3.40578 0
M  V30 1387 H 125.204 -1.51537 -3.69968 0
M  V30 1388 H 126.644 -0.603211 -4.19687 0
M  V30 1389 C 125.103 0.59403 -3.31622 0
M  V30 1390 O 125.633 1.63522 -3.66911 0
M  V30 1391 N 123.839 0.58089 -2.84735 0
M  V30 1392 H 123.386 -0.266783 -2.56215 0
M  V30 1393 H 123.344 1.44695 -2.79125 0
M  V30 1394 N 127.117 1.15442 -1.07289 0
M  V30 1395 C 128.533 1.38201 -0.798288 0
M  V30 1396 C 128.733 1.92429 0.597769 0
M  V30 1397 O 127.789 2.12962 1.3566 0
M  V30 1398 C 129.102 2.35357 -1.87156 0
M  V30 1399 C 130.65 2.49021 -1.89624 0
M  V30 1400 C 131.125 3.49468 -2.96034 0
M  V30 1401 N 132.616 3.57003 -2.95132 0
M  V30 1402 C 133.351 4.34543 -3.74112 0
M  V30 1403 N 132.847 5.15421 -4.6294 0
M  V30 1404 N 134.64 4.29625 -3.62462 0
M  V30 1405 H 126.791 0.78584 -1.97328 0
M  V30 1406 H 129.054 0.408065 -0.855679 0
M  V30 1407 H 128.76 2.02626 -2.87464 0
M  V30 1408 H 128.634 3.35129 -1.73114 0
M  V30 1409 H 131.021 2.81051 -0.899687 0
M  V30 1410 H 131.102 1.4925 -2.07745 0
M  V30 1411 H 130.746 3.18173 -3.95889 0
M  V30 1412 H 130.676 4.48992 -2.75161 0
M  V30 1413 H 133.167 2.99276 -2.30743 0
M  V30 1414 H 133.48 5.7183 -5.19837 0
M  V30 1415 H 131.825 5.14729 -4.66989 0
M  V30 1416 H 135.016 3.65505 -2.92444 0
M  V30 1417 H 135.189 4.89807 -4.24256 0
M  V30 1418 N 128.595 0.856903 1.32268 0
M  V30 1419 C 129.823 0.475439 2.01363 0
M  V30 1420 C 130.238 -0.928486 1.64392 0
M  V30 1421 O 129.595 -1.60624 0.866387 0
M  V30 1422 C 129.646 0.607545 3.56358 0
M  V30 1423 O 129.367 1.95617 3.92002 0
M  V30 1424 C 130.868 0.225382 4.42727 0
M  V30 1425 H 128.088 0.186636 0.644521 0
M  V30 1426 H 130.632 1.15446 1.68797 0
M  V30 1427 H 128.787 -0.0237719 3.87393 0
M  V30 1428 H 129.201 1.95455 4.86721 0
M  V30 1429 H 130.675 0.368813 5.50767 0
M  V30 1430 H 131.152 -0.834369 4.31202 0
M  V30 1431 H 131.758 0.831864 4.17085 0
M  V30 1432 N 130.073 -1.45103 0.615059 0
M  V30 1433 C 131.322 -2.01396 0.110718 0
M  V30 1434 C 131.635 -1.48834 -1.26916 0
M  V30 1435 O 132.841 -1.97152 -1.86664 0
M  V30 1436 C 131.297 -3.59599 0.14723 0
M  V30 1437 C 130.905 -4.21158 1.52743 0
M  V30 1438 C 132.649 -4.23428 -0.30148 0
M  V30 1439 C 130.556 -5.71535 1.51992 0
M  V30 1440 H 129.486 -0.753061 0.0376241 0
M  V30 1441 H 132.137 -1.66494 0.77149 0
M  V30 1442 H 130.519 -3.91724 -0.580339 0
M  V30 1443 H 131.693 -4.00594 2.2773 0
M  V30 1444 H 130.008 -3.69552 1.91886 0
M  V30 1445 H 132.605 -5.33703 -0.326392 0
M  V30 1446 H 132.948 -3.94629 -1.32565 0
M  V30 1447 H 133.481 -3.96047 0.373065 0
M  V30 1448 H 130.22 -6.05044 2.52193 0
M  V30 1449 H 129.74 -5.94268 0.81274 0
M  V30 1450 H 131.419 -6.34873 1.24681 0
M  V30 1451 N 131.551 -0.354651 -1.53558 0
M  V30 1452 C 132.798 0.238443 -2.01091 0
M  V30 1453 C 133.126 1.49663 -1.24222 0
M  V30 1454 O 132.381 1.93049 -0.321003 0
M  V30 1455 C 132.68 0.587121 -3.52545 0
M  V30 1456 C 132.346 -0.575472 -4.47213 0
M  V30 1457 C 131.008 -0.894497 -4.72813 0
M  V30 1458 C 133.36 -1.35489 -5.03281 0
M  V30 1459 C 130.688 -1.99511 -5.51736 0
M  V30 1460 C 133.04 -2.44583 -5.83405 0
M  V30 1461 C 131.704 -2.77033 -6.07296 0
M  V30 1462 H 130.974 0.0872526 -0.735845 0
M  V30 1463 H 133.621 -0.484859 -1.8526 0
M  V30 1464 H 131.926 1.39129 -3.66265 0
M  V30 1465 H 133.623 1.05809 -3.86789 0
M  V30 1466 H 130.213 -0.316774 -4.27428 0
M  V30 1467 H 134.397 -1.12167 -4.83459 0
M  V30 1468 H 129.653 -2.25063 -5.68469 0
M  V30 1469 H 133.827 -3.05401 -6.25862 0
M  V30 1470 H 131.454 -3.6244 -6.68237 0
M  V30 1471 N 133.029 1.57378 -0.0835403 0
M  V30 1472 C 134.445 1.57246 0.273109 0
M  V30 1473 C 134.645 1.09385 1.69225 0
M  V30 1474 O 133.701 0.765051 2.40631 0
M  V30 1475 C 135.014 3.00614 0.0720628 0
M  V30 1476 C 136.562 3.12684 0.1407 0
M  V30 1477 C 137.037 4.57989 -0.0322094 0
M  V30 1478 N 138.528 4.63194 0.0230085 0
M  V30 1479 C 139.263 5.73335 -0.0861941 0
M  V30 1480 N 138.759 6.9235 -0.24958 0
M  V30 1481 N 140.552 5.62093 -0.0282886 0
M  V30 1482 H 132.703 1.86801 -1.0109 0
M  V30 1483 H 134.966 0.861687 -0.395222 0
M  V30 1484 H 134.672 3.39786 -0.907662 0
M  V30 1485 H 134.546 3.68193 0.81936 0
M  V30 1486 H 136.933 2.73391 1.11092 0
M  V30 1487 H 137.014 2.47719 -0.637896 0
M  V30 1488 H 136.658 4.97973 -0.999247 0
M  V30 1489 H 136.588 5.21 0.765937 0
M  V30 1490 H 139.079 3.77613 0.14722 0
M  V30 1491 H 139.392 7.72117 -0.324733 0
M  V30 1492 H 137.737 6.94415 -0.285097 0
M  V30 1493 H 140.928 4.67997 0.0981408 0
M  V30 1494 H 141.101 6.47895 -0.116845 0
M  V30 1495 N 134.507 -0.190092 1.56449 0
M  V30 1496 C 135.754 -0.909705 1.80916 0
M  V30 1497 C 136.082 -1.83047 0.657583 0
M  V30 1498 O 135.337 -1.92428 -0.356356 0
M  V30 1499 C 135.636 -1.75382 3.1141 0
M  V30 1500 C 135.302 -0.983606 4.40041 0
M  V30 1501 C 133.964 -0.770967 4.74984 0
M  V30 1502 C 136.316 -0.442024 5.19322 0
M  V30 1503 C 133.644 -0.0053448 5.867 0
M  V30 1504 C 135.996 0.310412 6.31838 0
M  V30 1505 C 134.66 0.534023 6.6536 0
M  V30 1506 H 133.93 -0.332885 0.662019 0
M  V30 1507 H 136.577 -0.175762 1.90692 0
M  V30 1508 H 134.882 -2.55659 2.96893 0
M  V30 1509 H 136.579 -2.31331 3.27547 0
M  V30 1510 H 133.169 -1.15936 4.12622 0
M  V30 1511 H 137.353 -0.593693 4.92736 0
M  V30 1512 H 132.609 0.177825 6.11141 0
M  V30 1513 H 136.783 0.737419 6.92485 0
M  V30 1514 H 134.41 1.12918 7.51767 0
M  V30 1515 N 135.985 -1.50799 -0.457987 0
M  V30 1516 C 136.933 -1.71162 -1.575 0
M  V30 1517 C 137.927 -0.577592 -1.59249 0
M  V30 1518 O 139.133 -0.758443 -1.63241 0
M  V30 1519 H 135.508 -0.540468 -0.522875 0
M  V30 1520 H 137.479 -2.64837 -1.37492 0
M  V30 1521 C 136.228 -1.83496 -2.95338 0
M  V30 1522 H 135.551 -2.70153 -2.94716 0
M  V30 1523 H 136.991 -2.01765 -3.72917 0
M  V30 1524 C 135.45 -0.589694 -3.31699 0
M  V30 1525 O 135.98 0.265163 -4.00824 0
M  V30 1526 N 134.186 -0.439845 -2.87252 0
M  V30 1527 H 133.733 -1.13655 -2.31172 0
M  V30 1528 H 133.691 0.392159 -3.11945 0
M  V30 1529 N 137.463 0.71206 -1.40597 0
M  V30 1530 C 138.426 1.80785 -1.40888 0
M  V30 1531 C 139.426 1.57937 -0.302103 0
M  V30 1532 O 140.616 1.64913 -0.561182 0
M  V30 1533 C 137.748 3.18927 -1.20409 0
M  V30 1534 H 138.941 1.81924 -2.38419 0
M  V30 1535 H 136.494 0.91805 -1.26497 0
M  V30 1536 H 137.229 3.23436 -0.236522 0
M  V30 1537 H 137.014 3.36911 -2.00582 0
M  V30 1538 H 138.504 3.98949 -1.23408 0
M  V30 1539 N 138.941 1.26152 0.944643 0
M  V30 1540 C 139.904 1.07474 2.0244 0
M  V30 1541 C 140.904 0.0242064 1.60782 0
M  V30 1542 O 142.094 0.267302 1.72137 0
M  V30 1543 C 139.226 0.633956 3.34953 0
M  V30 1544 H 140.419 2.03336 2.20442 0
M  V30 1545 H 137.972 1.087 1.12312 0
M  V30 1546 H 138.707 -0.326811 3.22649 0
M  V30 1547 H 138.492 1.39247 3.66542 0
M  V30 1548 H 139.982 0.52501 4.14287 0
M  V30 1549 N 140.419 -1.14872 1.07899 0
M  V30 1550 C 141.644 -1.90202 0.826926 0
M  V30 1551 C 142.069 -1.77774 -0.614664 0
M  V30 1552 O 141.427 -1.11431 -1.43013 0
M  V30 1553 C 141.475 -3.38352 1.24702 0
M  V30 1554 O 140.579 -4.10497 0.39575 0
M  V30 1555 H 139.92 -0.591968 0.300782 0
M  V30 1556 H 142.45 -1.45437 1.43907 0
M  V30 1557 H 142.46 -3.89156 1.22563 0
M  V30 1558 H 141.135 -3.46715 2.29698 0
M  V30 1559 H 139.712 -3.69796 0.480117 0
M  V30 1560 N 141.898 -0.863906 -1.31812 0
M  V30 1561 C 143.147 -0.46801 -1.96195 0
M  V30 1562 C 143.46 0.983474 -1.69077 0
M  V30 1563 O 144.666 1.48523 -2.27273 0
M  V30 1564 C 143.122 -0.785995 -3.51212 0
M  V30 1565 C 142.73 -2.25383 -3.87178 0
M  V30 1566 C 144.474 -0.458274 -4.22019 0
M  V30 1567 C 142.381 -2.51455 -5.3528 0
M  V30 1568 H 141.311 -0.171283 -0.734287 0
M  V30 1569 H 143.962 -1.05597 -1.50072 0
M  V30 1570 H 142.344 -0.127359 -3.95795 0
M  V30 1571 H 143.518 -2.95502 -3.53575 0
M  V30 1572 H 141.833 -2.54698 -3.2942 0
M  V30 1573 H 144.43 -0.630369 -5.30971 0
M  V30 1574 H 144.773 0.600834 -4.11941 0
M  V30 1575 H 145.306 -1.07319 -3.8305 0
M  V30 1576 H 142.045 -3.56025 -5.50387 0
M  V30 1577 H 141.565 -1.85923 -5.70257 0
M  V30 1578 H 143.244 -2.35874 -6.02472 0
M  V30 1579 N 143.376 1.44774 -0.622745 0
M  V30 1580 C 144.306 2.33382 0.0741861 0
M  V30 1581 C 145.287 1.47719 0.843387 0
M  V30 1582 O 146.472 1.76458 0.810934 0
M  V30 1583 C 143.602 3.30663 1.06204 0
M  V30 1584 C 142.556 4.26079 0.405037 0
M  V30 1585 C 141.882 5.13165 1.5022 0
M  V30 1586 C 143.182 5.1781 -0.683414 0
M  V30 1587 H 144.876 2.91905 -0.665713 0
M  V30 1588 H 142.422 1.40363 -0.321587 0
M  V30 1589 H 144.375 3.9153 1.55827 0
M  V30 1590 H 143.099 2.70331 1.83272 0
M  V30 1591 H 141.758 3.66532 -0.0704683 0
M  V30 1592 H 141.406 4.49191 2.26355 0
M  V30 1593 H 141.106 5.77812 1.06803 0
M  V30 1594 H 142.63 5.76902 2.00041 0
M  V30 1595 H 144.044 5.72661 -0.270631 0
M  V30 1596 H 142.441 5.91015 -1.04023 0
M  V30 1597 H 143.511 4.59326 -1.55395 0
M  V30 1598 N 144.854 0.36279 1.53368 0
M  V30 1599 C 146.094 -0.227882 2.03126 0
M  V30 1600 C 146.458 -1.4622 1.24434 0
M  V30 1601 O 147.659 -2.12831 1.64184 0
M  V30 1602 C 145.93 -0.515427 3.53664 0
M  V30 1603 S 147.489 -1.08017 4.25297 0
M  V30 1604 H 144.307 -0.0665377 0.70788 0
M  V30 1605 H 146.909 0.50501 1.88865 0
M  V30 1606 H 145.613 0.390436 4.08539 0
M  V30 1607 H 145.144 -1.27747 3.72081 0
M  V30 1608 H 147.159 -2.36462 4.36234 0
M  V30 1609 N 146.332 -1.57332 0.0918853 0
M  V30 1610 C 147.56 -1.98574 -0.581048 0
M  V30 1611 C 147.975 -0.970903 -1.61923 0
M  V30 1612 O 147.332 0.0399054 -1.82456 0
M  V30 1613 C 147.383 -3.39872 -1.23164 0
M  V30 1614 O 147.104 -4.37469 -0.234989 0
M  V30 1615 C 148.605 -3.96099 -1.99049 0
M  V30 1616 H 145.825 -0.65261 -0.156018 0
M  V30 1617 H 148.369 -2.0379 0.170225 0
M  V30 1618 H 146.524 -3.35679 -1.93386 0
M  V30 1619 H 146.938 -5.19751 -0.70418 0
M  V30 1620 H 148.412 -4.97127 -2.39934 0
M  V30 1621 H 148.889 -3.3374 -2.85507 0
M  V30 1622 H 149.495 -4.03755 -1.3365 0
M  V30 1623 N 147.81 0.181792 -1.56548 0
M  V30 1624 C 148.74 1.22765 -1.98623 0
M  V30 1625 C 149.721 1.46747 -0.860189 0
M  V30 1626 O 150.906 1.58259 -1.12551 0
M  V30 1627 C 148.036 2.56894 -2.33715 0
M  V30 1628 C 146.99 2.475 -3.49182 0
M  V30 1629 C 146.316 3.86023 -3.69986 0
M  V30 1630 C 147.616 1.98866 -4.82959 0
M  V30 1631 H 149.31 0.877942 -2.86239 0
M  V30 1632 H 146.856 0.42088 -1.37712 0
M  V30 1633 H 148.809 3.30253 -2.61746 0
M  V30 1634 H 147.533 2.93632 -1.42997 0
M  V30 1635 H 146.192 1.76596 -3.21262 0
M  V30 1636 H 145.84 4.20136 -2.76576 0
M  V30 1637 H 145.54 3.80609 -4.47672 0
M  V30 1638 H 147.064 4.60984 -4.00407 0
M  V30 1639 H 148.478 2.61992 -5.09934 0
M  V30 1640 H 146.875 2.04424 -5.64208 0
M  V30 1641 H 147.945 0.942465 -4.75653 0
M  V30 1642 N 149.288 1.51039 0.449983 0
M  V30 1643 C 150.513 1.6715 1.22783 0
M  V30 1644 C 150.938 0.363081 1.84563 0
M  V30 1645 O 150.296 -0.675433 1.68249 0
M  V30 1646 C 150.344 2.77985 2.29689 0
M  V30 1647 O 149.448 2.40707 3.34864 0
M  V30 1648 H 148.789 0.557746 0.360299 0
M  V30 1649 H 151.319 1.97535 0.533005 0
M  V30 1650 H 151.329 3.01693 2.74673 0
M  V30 1651 H 150.004 3.72935 1.84098 0
M  V30 1652 H 148.581 2.27523 2.95445 0
M  V30 1653 N 150.766 -0.704594 1.40972 0
M  V30 1654 C 152.177 -1.28418 1.3552 0
M  V30 1655 C 152.528 -1.96171 0.0339434 0
M  V30 1656 O 151.653 -1.98231 -0.867944 0
M  V30 1657 C 152.248 -2.33528 2.45459 0
M  V30 1658 C 150.807 -2.87085 2.43433 0
M  V30 1659 C 149.954 -1.61007 2.2577 0
M  V30 1660 H 152.905 -0.499963 1.50619 0
M  V30 1661 H 152.926 -3.14619 2.13998 0
M  V30 1662 H 152.438 -1.84187 3.41609 0
M  V30 1663 H 150.539 -3.40626 1.51013 0
M  V30 1664 H 150.652 -3.3813 3.39419 0
M  V30 1665 H 149.016 -1.86482 1.73483 0
M  V30 1666 H 149.799 -1.13675 3.23933 0
M  V30 1667 N 152.244 -1.26651 -0.937939 0
M  V30 1668 C 153.491 -1.12387 -1.6845 0
M  V30 1669 C 153.819 0.332208 -1.91642 0
M  V30 1670 O 153.074 1.2602 -1.49725 0
M  V30 1671 C 153.373 -1.84168 -3.06295 0
M  V30 1672 C 153.039 -3.34056 -3.02849 0
M  V30 1673 C 151.701 -3.74942 -3.01616 0
M  V30 1674 C 154.053 -4.29741 -2.9491 0
M  V30 1675 C 151.381 -5.09894 -2.90215 0
M  V30 1676 C 153.733 -5.64738 -2.8505 0
M  V30 1677 C 152.397 -6.0493 -2.82162 0
M  V30 1678 H 151.667 -0.411252 -0.616403 0
M  V30 1679 H 154.314 -1.57134 -1.09459 0
M  V30 1680 H 152.619 -1.319 -3.6893 0
M  V30 1681 H 154.316 -1.70569 -3.62915 0
M  V30 1682 H 150.906 -3.01534 -3.0459 0
M  V30 1683 H 155.09 -3.99133 -2.94969 0
M  V30 1684 H 150.346 -5.40194 -2.86358 0
M  V30 1685 H 154.52 -6.38561 -2.77872 0
M  V30 1686 H 152.147 -7.09457 -2.73084 0
M  V30 1687 N 153.722 1.14298 -1.08507 0
M  V30 1688 C 154.67 2.21483 -0.710483 0
M  V30 1689 C 155.664 1.66998 0.284234 0
M  V30 1690 O 156.87 1.79401 0.146692 0
M  V30 1691 H 153.245 0.721578 -0.211729 0
M  V30 1692 H 155.216 2.50348 -1.62384 0
M  V30 1693 C 153.965 3.4743 -0.137007 0
M  V30 1694 H 153.288 3.89686 -0.893592 0
M  V30 1695 H 154.728 4.2391 0.0872789 0
M  V30 1696 C 153.187 3.17548 1.12538 0
M  V30 1697 O 153.717 3.35437 2.21009 0
M  V30 1698 N 151.923 2.71499 1.03617 0
M  V30 1699 H 151.47 2.57143 0.153403 0
M  V30 1700 H 151.428 2.51881 1.88158 0
M  V30 1701 N 155.201 0.870884 1.31352 0
M  V30 1702 C 156.441 0.488783 1.9847 0
M  V30 1703 C 156.805 -0.941536 1.67329 0
M  V30 1704 O 158.006 -1.42903 2.27667 0
M  V30 1705 C 156.277 0.739688 3.49662 0
M  V30 1706 S 157.836 0.457582 4.36408 0
M  V30 1707 H 154.654 0.18242 0.6872 0
M  V30 1708 H 157.256 1.12711 1.59739 0
M  V30 1709 H 155.96 1.77944 3.69816 0
M  V30 1710 H 155.491 0.0883905 3.93301 0
M  V30 1711 H 157.506 -0.709752 4.91098 0
M  V30 1712 N 156.679 -1.44442 0.630414 0
M  V30 1713 C 157.928 -2.01267 0.132073 0
M  V30 1714 C 158.241 -1.50172 -1.25331 0
M  V30 1715 O 159.447 -1.9912 -1.84562 0
M  V30 1716 C 157.903 -3.59422 0.185362 0
M  V30 1717 C 157.511 -4.19514 1.57201 0
M  V30 1718 C 159.255 -4.23724 -0.256553 0
M  V30 1719 C 157.162 -5.69891 1.58045 0
M  V30 1720 H 156.092 -0.752619 0.0456092 0
M  V30 1721 H 158.743 -1.65666 0.789106 0
M  V30 1722 H 157.125 -3.92318 -0.538759 0
M  V30 1723 H 158.299 -3.98156 2.31966 0
M  V30 1724 H 156.614 -3.67496 1.95795 0
M  V30 1725 H 159.211 -5.34019 -0.269767 0
M  V30 1726 H 159.554 -3.96013 -1.28372 0
M  V30 1727 H 160.087 -3.95629 0.41505 0
M  V30 1728 H 156.826 -6.02336 2.58597 0
M  V30 1729 H 156.346 -5.93373 0.875725 0
M  V30 1730 H 158.025 -6.33515 1.31408 0
M  V30 1731 N 158.157 -0.370918 -1.53173 0
M  V30 1732 C 159.573 -0.0200818 -1.59587 0
M  V30 1733 C 159.773 1.46279 -1.38581 0
M  V30 1734 O 158.829 2.22506 -1.19363 0
M  V30 1735 C 160.142 -0.4808 -2.96831 0
M  V30 1736 C 161.69 -0.435477 -3.09956 0
M  V30 1737 C 162.165 -0.872092 -4.4962 0
M  V30 1738 N 163.656 -0.827364 -4.55751 0
M  V30 1739 C 164.391 -1.13683 -5.62018 0
M  V30 1740 N 163.887 -1.51584 -6.76014 0
M  V30 1741 N 165.68 -1.05927 -5.52029 0
M  V30 1742 H 157.831 -1.33652 -1.65079 0
M  V30 1743 H 160.094 -0.546634 -0.774529 0
M  V30 1744 H 159.8 -1.51577 -3.1736 0
M  V30 1745 H 159.674 0.129796 -3.76977 0
M  V30 1746 H 162.061 0.590371 -2.89134 0
M  V30 1747 H 162.142 -1.08164 -2.31806 0
M  V30 1748 H 161.786 -1.89608 -4.71181 0
M  V30 1749 H 161.716 -0.203127 -5.26208 0
M  V30 1750 H 164.207 -0.548216 -3.73902 0
M  V30 1751 H 164.52 -1.73609 -7.53047 0
M  V30 1752 H 162.865 -1.55454 -6.77391 0
M  V30 1753 H 166.056 -0.762321 -4.61851 0
M  V30 1754 H 166.229 -1.30378 -6.34749 0
M  V30 1755 N 159.635 1.57281 -0.100228 0
M  V30 1756 C 161.051 1.57527 0.256416 0
M  V30 1757 C 161.251 1.11173 1.68056 0
M  V30 1758 O 160.307 0.79053 2.39806 0
M  V30 1759 C 161.62 3.00673 0.0401747 0
M  V30 1760 C 163.168 3.12815 0.107528 0
M  V30 1761 C 163.643 4.57929 -0.0807834 0
M  V30 1762 N 165.134 4.63193 -0.0261207 0
M  V30 1763 C 165.869 5.73212 -0.146999 0
M  V30 1764 N 165.365 6.92047 -0.322999 0
M  V30 1765 N 167.158 5.62031 -0.0879044 0
M  V30 1766 H 159.309 1.85718 -1.03065 0
M  V30 1767 H 161.572 0.857446 -0.404339 0
M  V30 1768 H 161.278 3.38804 -0.943649 0
M  V30 1769 H 161.152 3.69042 0.780262 0
M  V30 1770 H 163.539 2.74554 1.08186 0
M  V30 1771 H 163.62 2.47028 -0.664134 0
M  V30 1772 H 163.264 4.96886 -1.05201 0
M  V30 1773 H 163.194 5.21783 0.710635 0
M  V30 1774 H 165.685 3.77748 0.107161 0
M  V30 1775 H 165.998 7.7173 -0.406608 0
M  V30 1776 H 164.343 6.94074 -0.358733 0
M  V30 1777 H 167.534 4.68075 0.048498 0
M  V30 1778 H 167.707 6.47734 -0.185557 0
M  V30 1779 N 161.113 -0.173488 1.56642 0
M  V30 1780 C 162.341 -0.906095 1.86004 0
M  V30 1781 C 162.756 -1.75921 0.685355 0
M  V30 1782 O 162.113 -1.79198 -0.345578 0
M  V30 1783 C 162.164 -1.78462 3.14378 0
M  V30 1784 O 161.885 -0.965914 4.27319 0
M  V30 1785 C 163.386 -2.62707 3.57071 0
M  V30 1786 H 160.606 -0.263341 0.617165 0
M  V30 1787 H 163.15 -0.174236 2.03756 0
M  V30 1788 H 161.305 -2.46984 2.98459 0
M  V30 1789 H 161.719 -1.56655 5.00559 0
M  V30 1790 H 163.193 -3.19969 4.49804 0
M  V30 1791 H 163.67 -3.37472 2.81086 0
M  V30 1792 H 164.276 -1.99521 3.75595 0
M  V30 1793 N 162.591 -1.51276 -0.441967 0
M  V30 1794 C 163.819 -1.67516 -1.21434 0
M  V30 1795 C 164.234 -0.37055 -1.85128 0
M  V30 1796 O 163.591 0.650498 -1.70513 0
M  V30 1797 C 163.642 -2.78748 -2.30177 0
M  V30 1798 O 163.363 -4.04154 -1.69089 0
M  V30 1799 C 164.864 -3.06217 -3.20541 0
M  V30 1800 H 162.084 -0.562276 -0.366178 0
M  V30 1801 H 164.628 -1.97666 -0.524244 0
M  V30 1802 H 162.783 -2.5121 -2.94911 0
M  V30 1803 H 163.197 -4.65894 -2.40922 0
M  V30 1804 H 164.671 -3.8764 -3.92987 0
M  V30 1805 H 165.148 -2.18439 -3.81026 0
M  V30 1806 H 165.754 -3.35397 -2.61513 0
M  V30 1807 N 164.069 0.697108 -1.41344 0
M  V30 1808 C 165.318 1.45279 -1.39918 0
M  V30 1809 C 165.631 1.95597 -0.0109624 0
M  V30 1810 O 166.837 2.71208 0.125919 0
M  V30 1811 C 165.293 2.62695 -2.46007 0
M  V30 1812 C 164.901 2.19169 -3.90729 0
M  V30 1813 C 166.645 3.40336 -2.53715 0
M  V30 1814 C 164.552 3.33535 -4.88373 0
M  V30 1815 H 163.482 0.545692 -0.520323 0
M  V30 1816 H 166.133 0.756929 -1.67161 0
M  V30 1817 H 164.515 3.34541 -2.11892 0
M  V30 1818 H 165.689 1.54623 -4.34083 0
M  V30 1819 H 164.004 1.54525 -3.86666 0
M  V30 1820 H 166.601 4.2547 -3.2385 0
M  V30 1821 H 166.944 3.85418 -1.5735 0
M  V30 1822 H 167.477 2.75546 -2.86913 0
M  V30 1823 H 164.216 2.93468 -5.86137 0
M  V30 1824 H 163.736 3.96936 -4.49668 0
M  V30 1825 H 165.415 3.99335 -5.09059 0
M  V30 1826 N 165.547 1.27147 0.931209 0
M  V30 1827 C 166.494 1.09568 2.03134 0
M  V30 1828 C 167.464 -0.00222433 1.661 0
M  V30 1829 O 168.649 0.159439 1.90133 0
M  V30 1830 C 165.789 0.745231 3.36957 0
M  V30 1831 C 164.902 1.92041 3.86968 0
M  V30 1832 C 164.037 1.51216 5.09222 0
M  V30 1833 C 163.076 2.65504 5.5152 0
M  V30 1834 N 162.213 2.25291 6.64972 0
M  V30 1835 H 167.053 2.03708 2.17502 0
M  V30 1836 H 164.59 1.01411 1.06556 0
M  V30 1837 H 166.548 0.522878 4.1391 0
M  V30 1838 H 165.178 -0.159202 3.22407 0
M  V30 1839 H 164.23 2.25541 3.06326 0
M  V30 1840 H 165.542 2.77787 4.1429 0
M  V30 1841 H 164.696 1.25084 5.93666 0
M  V30 1842 H 163.435 0.625749 4.83669 0
M  V30 1843 H 162.44 2.92354 4.65628 0
M  V30 1844 H 163.665 3.54761 5.7907 0
M  V30 1845 H 161.611 1.39098 6.41083 0
M  V30 1846 H 161.528 3.04577 6.91931 0
M  V30 1847 H 162.796 2.02398 7.52765 0
M  V30 1848 N 167.025 -1.13721 1.09112 0
M  V30 1849 C 168.271 -1.85198 0.826414 0
M  V30 1850 C 168.604 -1.83129 -0.646319 0
M  V30 1851 O 167.879 -1.2671 -1.47563 0
M  V30 1852 C 168.162 -3.33507 1.35812 0
M  V30 1853 C 168.015 -3.44108 2.89672 0
M  V30 1854 C 169.334 -4.28838 0.989256 0
M  V30 1855 H 166.453 -0.67243 0.301675 0
M  V30 1856 H 169.095 -1.33499 1.35197 0
M  V30 1857 H 167.245 -3.77666 0.911082 0
M  V30 1858 H 168.917 -3.08684 3.428 0
M  V30 1859 H 167.16 -2.85087 3.26967 0
M  V30 1860 H 167.831 -4.48388 3.21951 0
M  V30 1861 H 170.307 -3.92734 1.37475 0
M  V30 1862 H 169.183 -5.31051 1.38838 0
M  V30 1863 H 169.444 -4.4198 -0.102924 0
M  V30 1864 N 168.503 -0.877838 -1.30888 0
M  V30 1865 C 169.433 -0.35534 -2.3078 0
M  V30 1866 C 170.414 0.557994 -1.60687 0
M  V30 1867 O 171.599 0.473355 -1.88343 0
M  V30 1868 C 168.729 0.437221 -3.44537 0
M  V30 1869 C 167.683 -0.383715 -4.26276 0
M  V30 1870 C 167.009 0.535014 -5.32017 0
M  V30 1871 C 168.309 -1.62201 -4.96476 0
M  V30 1872 H 170.003 -1.19007 -2.74732 0
M  V30 1873 H 167.549 -0.573698 -1.32078 0
M  V30 1874 H 169.502 0.813334 -4.13477 0
M  V30 1875 H 168.226 1.30553 -2.99372 0
M  V30 1876 H 166.885 -0.741874 -3.59015 0
M  V30 1877 H 166.533 1.40083 -4.831 0
M  V30 1878 H 166.233 -0.0104211 -5.87599 0
M  V30 1879 H 167.757 0.907799 -6.03814 0
M  V30 1880 H 169.171 -1.31689 -5.5797 0
M  V30 1881 H 167.568 -2.10711 -5.61891 0
M  V30 1882 H 168.638 -2.37044 -4.23011 0
M  V30 1883 N 169.982 1.44106 -0.638065 0
M  V30 1884 C 171.228 2.02277 -0.145546 0
M  V30 1885 C 171.561 1.50125 1.23191 0
M  V30 1886 O 170.836 0.688133 1.8192 0
M  V30 1887 C 171.119 3.59829 -0.139791 0
M  V30 1888 C 170.972 4.22247 -1.55008 0
M  V30 1889 C 172.291 4.36873 0.531966 0
M  V30 1890 H 169.41 0.734992 -0.0543632 0
M  V30 1891 H 172.052 1.71592 -0.815863 0
M  V30 1892 H 170.202 3.86102 0.431007 0
M  V30 1893 H 171.874 4.07057 -2.1703 0
M  V30 1894 H 170.117 3.79476 -2.10191 0
M  V30 1895 H 170.788 5.31284 -1.49804 0
M  V30 1896 H 173.264 4.16074 0.0464781 0
M  V30 1897 H 172.14 5.4657 0.505206 0
M  V30 1898 H 172.401 4.11995 1.60352 0
M  V30 1899 N 171.46 0.379036 1.52974 0
M  V30 1900 C 172.41 -0.477772 2.22938 0
M  V30 1901 C 173.394 -1.03792 1.22948 0
M  V30 1902 O 174.586 -0.965725 1.48333 0
M  V30 1903 C 171.715 -1.60994 3.03209 0
M  V30 1904 C 170.801 -1.06203 4.10587 0
M  V30 1905 N 171.192 -0.238214 5.05239 0
M  V30 1906 C 169.49 -1.33554 4.25534 0
M  V30 1907 C 170.191 0.0633235 5.81666 0
M  V30 1908 N 169.167 -0.537901 5.40932 0
M  V30 1909 H 172.969 0.158295 2.93473 0
M  V30 1910 H 170.483 0.187778 1.61311 0
M  V30 1911 H 172.48 -2.23607 3.5186 0
M  V30 1912 H 171.14 -2.24893 2.34207 0
M  V30 1913 H 172.151 0.123695 5.17752 0
M  V30 1914 H 168.828 -1.97632 3.6776 0
M  V30 1915 H 170.218 0.730161 6.67921 0
M  V30 1916 N 172.938 -1.57226 0.108567 0
M  V30 1917 C 174.349 -1.8195 -0.418464 0
M  V30 1918 C 174.7 -1.02508 -1.67292 0
M  V30 1919 O 173.825 -0.258496 -2.14851 0
M  V30 1920 C 174.42 -3.30028 -0.765979 0
M  V30 1921 C 172.979 -3.55469 -1.23769 0
M  V30 1922 C 172.126 -2.7625 -0.241106 0
M  V30 1923 H 175.077 -1.55149 0.33384 0
M  V30 1924 H 175.098 -3.44086 -1.62434 0
M  V30 1925 H 174.61 -3.87821 0.147219 0
M  V30 1926 H 172.711 -3.03022 -2.16814 0
M  V30 1927 H 172.824 -4.6408 -1.19022 0
M  V30 1928 H 171.188 -2.44133 -0.72602 0
M  V30 1929 H 171.971 -3.36797 0.665007 0
M  V30 1930 N 174.416 0.165178 -1.56732 0
M  V30 1931 C 175.663 0.880807 -1.8234 0
M  V30 1932 C 175.991 1.81977 -0.686621 0
M  V30 1933 O 175.246 1.92971 0.325697 0
M  V30 1934 C 175.545 1.70405 -3.1416 0
M  V30 1935 C 175.211 0.913475 -4.4155 0
M  V30 1936 C 173.873 0.695303 -4.7615 0
M  V30 1937 C 176.225 0.359349 -5.1996 0
M  V30 1938 C 173.553 -0.0879947 -5.86634 0
M  V30 1939 C 175.905 -0.410893 -6.31264 0
M  V30 1940 C 174.569 -0.639808 -6.64427 0
M  V30 1941 H 173.839 0.32231 -0.667231 0
M  V30 1942 H 176.486 0.145402 -1.90947 0
M  V30 1943 H 174.791 2.50903 -3.00923 0
M  V30 1944 H 176.488 2.26091 -3.31186 0
M  V30 1945 H 173.078 1.09357 -4.14414 0
M  V30 1946 H 177.262 0.515228 -4.93618 0
M  V30 1947 H 172.518 -0.27503 -6.10781 0
M  V30 1948 H 176.692 -0.847494 -6.91224 0
M  V30 1949 H 174.319 -1.24864 -7.49875 0
M  V30 1950 N 175.894 1.51508 0.433938 0
M  V30 1951 C 177.141 1.64345 1.18309 0
M  V30 1952 C 177.469 0.361315 1.91115 0
M  V30 1953 O 176.724 -0.654753 1.84422 0
M  V30 1954 C 177.023 2.79928 2.22205 0
M  V30 1955 C 176.689 4.19078 1.66387 0
M  V30 1956 C 175.351 4.56932 1.50887 0
M  V30 1957 C 177.703 5.05894 1.25381 0
M  V30 1958 C 175.031 5.79305 0.928608 0
M  V30 1959 C 177.383 6.2885 0.687823 0
M  V30 1960 C 176.047 6.65473 0.519755 0
M  V30 1961 H 175.317 0.601381 0.432923 0
M  V30 1962 H 177.964 1.85549 0.473676 0
M  V30 1963 H 176.269 2.52959 2.99197 0
M  V30 1964 H 177.966 2.87059 2.79997 0
M  V30 1965 H 174.556 3.89234 1.79428 0
M  V30 1966 H 178.74 4.77253 1.36175 0
M  V30 1967 H 173.996 6.06324 0.786186 0
M  V30 1968 H 178.17 6.95461 0.361581 0
M  V30 1969 H 175.797 7.6017 0.0679979 0
M  V30 1970 N 177.372 -0.689602 1.41712 0
M  V30 1971 C 178.304 -1.815 1.39966 0
M  V30 1972 C 179.317 -1.59995 0.300917 0
M  V30 1973 O 180.506 -1.69387 0.563039 0
M  V30 1974 C 177.606 -3.18364 1.16179 0
M  V30 1975 C 176.779 -3.66847 2.38206 0
M  V30 1976 C 175.838 -4.82398 2.10186 0
M  V30 1977 O 174.864 -4.93706 2.83272 0
M  V30 1978 N 176.066 -5.70064 1.0958 0
M  V30 1979 H 178.831 -1.83488 2.36965 0
M  V30 1980 H 176.392 -0.872149 1.36401 0
M  V30 1981 H 178.384 -3.93301 0.953756 0
M  V30 1982 H 176.954 -3.11365 0.27756 0
M  V30 1983 H 176.174 -2.82751 2.74673 0
M  V30 1984 H 177.462 -3.95978 3.19498 0
M  V30 1985 H 176.86 -5.63565 0.491019 0
M  V30 1986 H 175.417 -6.44874 0.947656 0
M  V30 1987 N 178.85 -1.27639 -0.924453 0
M  V30 1988 C 179.78 -1.13166 -2.04244 0
M  V30 1989 C 180.761 -0.032256 -1.70069 0
M  V30 1990 O 181.946 -0.207328 -1.9309 0
M  V30 1991 C 179.076 -0.781496 -3.38393 0
M  V30 1992 C 178.03 -1.83449 -3.86692 0
M  V30 1993 C 177.356 -1.33822 -5.17683 0
M  V30 1994 C 178.656 -3.23917 -4.09726 0
M  V30 1995 H 180.35 -2.06689 -2.1661 0
M  V30 1996 H 177.896 -0.995136 -1.04082 0
M  V30 1997 H 179.849 -0.667057 -4.16087 0
M  V30 1998 H 178.573 0.189439 -3.2605 0
M  V30 1999 H 177.232 -1.93789 -3.11193 0
M  V30 2000 H 176.88 -0.35665 -5.01734 0
M  V30 2001 H 176.58 -2.04224 -5.50968 0
M  V30 2002 H 178.104 -1.23679 -5.97943 0
M  V30 2003 H 179.518 -3.16559 -4.77978 0
M  V30 2004 H 177.915 -3.92059 -4.54324 0
M  V30 2005 H 178.985 -3.68729 -3.14908 0
M  V30 2006 N 180.328 1.1314 -1.09713 0
M  V30 2007 C 181.575 1.84484 -0.834987 0
M  V30 2008 C 181.903 1.83689 0.639418 0
M  V30 2009 O 181.158 1.2724 1.4869 0
M  V30 2010 C 181.457 3.32167 -1.3191 0
M  V30 2011 C 181.123 3.53139 -2.80363 0
M  V30 2012 C 179.785 3.58571 -3.20905 0
M  V30 2013 C 182.137 3.60866 -3.76065 0
M  V30 2014 C 179.465 3.69267 -4.55916 0
M  V30 2015 C 181.817 3.73089 -5.10869 0
M  V30 2016 C 180.481 3.76775 -5.50996 0
M  V30 2017 H 179.751 0.675073 -0.305544 0
M  V30 2018 H 182.398 1.33554 -1.37243 0
M  V30 2019 H 180.703 3.85469 -0.701517 0
M  V30 2020 H 182.4 3.85821 -1.09284 0
M  V30 2021 H 178.99 3.49569 -2.47991 0
M  V30 2022 H 183.174 3.55946 -3.45855 0
M  V30 2023 H 178.43 3.70388 -4.86438 0
M  V30 2024 H 182.604 3.78011 -5.84877 0
M  V30 2025 H 180.231 3.84815 -6.55608 0
M  V30 2026 N 181.806 0.884767 1.30421 0
M  V30 2027 C 183.055 0.499164 1.95426 0
M  V30 2028 C 183.368 -0.95645 1.70621 0
M  V30 2029 O 184.574 -1.44889 2.29607 0
M  V30 2030 C 183.03 0.84177 3.49917 0
M  V30 2031 C 182.638 2.31514 3.83543 0
M  V30 2032 C 184.382 0.525355 4.21237 0
M  V30 2033 C 182.289 2.59939 5.31212 0
M  V30 2034 H 181.219 0.182944 0.73147 0
M  V30 2035 H 183.87 1.07971 1.48373 0
M  V30 2036 H 182.252 0.190311 3.95542 0
M  V30 2037 H 183.426 3.0109 3.48829 0
M  V30 2038 H 181.741 2.59907 3.25326 0
M  V30 2039 H 184.338 0.714762 5.29901 0
M  V30 2040 H 184.681 -0.535222 4.12845 0
M  V30 2041 H 185.214 1.134 3.81294 0
M  V30 2042 H 181.953 3.64736 5.44654 0
M  V30 2043 H 181.473 1.94972 5.67227 0
M  V30 2044 H 183.152 2.45429 5.98643 0
M  V30 2045 N 183.284 -1.43765 0.645699 0
M  V30 2046 C 184.214 -2.33471 -0.0370477 0
M  V30 2047 C 185.195 -1.49042 -0.819779 0
M  V30 2048 O 186.38 -1.77726 -0.782758 0
M  V30 2049 C 183.51 -3.32311 -1.0093 0
M  V30 2050 C 182.464 -4.2667 -0.337201 0
M  V30 2051 C 181.79 -5.1549 -1.42037 0
M  V30 2052 C 183.09 -5.16657 0.765706 0
M  V30 2053 H 184.784 -2.90809 0.712069 0
M  V30 2054 H 182.33 -1.39834 0.343876 0
M  V30 2055 H 184.283 -3.9396 -1.49578 0
M  V30 2056 H 183.007 -2.73213 -1.78948 0
M  V30 2057 H 181.666 -3.66374 0.128771 0
M  V30 2058 H 181.314 -4.52735 -2.1918 0
M  V30 2059 H 181.014 -5.79438 -0.975966 0
M  V30 2060 H 182.538 -5.80012 -1.90838 0
M  V30 2061 H 183.952 -5.72158 0.361702 0
M  V30 2062 H 182.349 -5.89286 1.13413 0
M  V30 2063 H 183.419 -4.56796 1.62683 0
M  V30 2064 N 184.763 -0.387143 -1.52771 0
M  V30 2065 C 186.012 0.19697 -2.00736 0
M  V30 2066 C 186.325 1.48082 -1.27793 0
M  V30 2067 O 187.531 2.14485 -1.66458 0
M  V30 2068 C 185.987 0.401568 -3.57653 0
M  V30 2069 C 185.595 -0.868907 -4.39493 0
M  V30 2070 C 187.339 0.942164 -4.13912 0
M  V30 2071 C 185.246 -0.632705 -5.88006 0
M  V30 2072 H 184.176 0.0773827 -0.750019 0
M  V30 2073 H 186.827 -0.50921 -1.76293 0
M  V30 2074 H 185.209 1.16954 -3.78335 0
M  V30 2075 H 186.383 -1.64133 -4.30577 0
M  V30 2076 H 184.698 -1.33429 -3.94443 0
M  V30 2077 H 187.295 1.13455 -5.22525 0
M  V30 2078 H 187.638 1.9106 -3.69867 0
M  V30 2079 H 188.171 0.233814 -3.97112 0
M  V30 2080 H 184.91 -1.57208 -6.36369 0
M  V30 2081 H 184.43 0.100825 -5.99715 0
M  V30 2082 H 186.109 -0.26642 -6.46451 0
M  V30 2083 N 186.241 1.57166 -0.116904 0
M  V30 2084 C 187.466 1.999 0.55271 0
M  V30 2085 C 187.891 0.996039 1.59564 0
M  V30 2086 O 187.249 -0.032556 1.81271 0
M  V30 2087 C 187.297 3.4152 1.15742 0
M  V30 2088 O 186.401 3.44106 2.27299 0
M  V30 2089 H 185.742 0.649447 0.138258 0
M  V30 2090 H 188.272 2.03573 -0.204759 0
M  V30 2091 H 188.282 3.79684 1.49346 0
M  V30 2092 H 186.957 4.14034 0.393493 0
M  V30 2093 H 185.534 3.17759 1.9515 0
M  V30 2094 N 187.719 -0.156864 1.56817 0
M  V30 2095 C 188.965 -0.872416 1.83076 0
M  V30 2096 C 189.298 -1.81261 0.697001 0
M  V30 2097 O 188.573 -1.92171 -0.30008 0
M  V30 2098 C 188.856 -1.65551 3.19789 0
M  V30 2099 C 188.709 -0.737467 4.43713 0
M  V30 2100 C 190.028 -2.62012 3.53606 0
M  V30 2101 H 187.147 -0.315715 0.665953 0
M  V30 2102 H 189.789 -0.138004 1.89498 0
M  V30 2103 H 187.939 -2.28159 3.14445 0
M  V30 2104 H 189.611 -0.123143 4.61136 0
M  V30 2105 H 187.854 -0.0464067 4.33775 0
M  V30 2106 H 188.525 -1.32122 5.35955 0
M  V30 2107 H 191.001 -2.09525 3.59497 0
M  V30 2108 H 189.877 -3.13861 4.50314 0
M  V30 2109 H 190.138 -3.42902 2.79053 0
M  V30 2110 N 189.197 -1.51736 -0.425897 0
M  V30 2111 C 190.127 -1.76827 -1.52494 0
M  V30 2112 C 191.108 -0.618524 -1.58456 0
M  V30 2113 O 192.293 -0.862416 -1.74 0
M  V30 2114 C 189.423 -1.90374 -2.90474 0
M  V30 2115 C 188.377 -3.0588 -2.99369 0
M  V30 2116 C 187.703 -3.04625 -4.3944 0
M  V30 2117 C 189.003 -4.45644 -2.72394 0
M  V30 2118 H 190.697 -2.68855 -1.31748 0
M  V30 2119 H 188.243 -1.29372 -0.632362 0
M  V30 2120 H 190.196 -2.0651 -3.6733 0
M  V30 2121 H 188.92 -0.95004 -3.12477 0
M  V30 2122 H 187.579 -2.89467 -2.24954 0
M  V30 2123 H 187.227 -2.0701 -4.58428 0
M  V30 2124 H 186.927 -3.82195 -4.46319 0
M  V30 2125 H 188.451 -3.22869 -5.18255 0
M  V30 2126 H 189.865 -4.62348 -3.38979 0
M  V30 2127 H 188.262 -5.25006 -2.9067 0
M  V30 2128 H 189.332 -4.54893 -1.67929 0
M  V30 2129 N 190.675 0.682077 -1.42076 0
M  V30 2130 C 191.924 1.43786 -1.41451 0
M  V30 2131 C 192.237 1.95574 -0.0317074 0
M  V30 2132 O 193.443 2.71326 0.0971462 0
M  V30 2133 C 191.899 2.60071 -2.48779 0
M  V30 2134 C 191.507 2.15013 -3.93031 0
M  V30 2135 C 193.251 3.37626 -2.57311 0
M  V30 2136 C 191.158 3.28336 -4.91883 0
M  V30 2137 H 190.088 0.540143 -0.526082 0
M  V30 2138 H 192.739 0.739157 -1.67955 0
M  V30 2139 H 191.121 3.32275 -2.15429 0
M  V30 2140 H 192.295 1.5001 -4.35699 0
M  V30 2141 H 190.61 1.50416 -3.88284 0
M  V30 2142 H 193.207 4.22012 -3.28345 0
M  V30 2143 H 193.55 3.83727 -1.61429 0
M  V30 2144 H 194.083 2.72488 -2.89819 0
M  V30 2145 H 190.822 2.87234 -5.89217 0
M  V30 2146 H 190.342 3.92145 -4.53853 0
M  V30 2147 H 192.021 3.93913 -5.13265 0
M  V30 2148 N 192.153 1.28127 0.917671 0
M  V30 2149 C 193.43 1.05761 1.64542 0
M  V30 2150 C 193.81 -0.404344 2.07191 0
M  V30 2151 O 193.158 -1.38963 1.81388 0
M  V30 2152 C 193.368 2.02857 2.83989 0
M  V30 2153 C 194.716 2.32786 3.551 0
M  V30 2154 O 195.74 2.0091 2.94132 0
M  V30 2155 O 194.599 2.87169 4.64969 0
M  V30 2156 H 191.693 0.403916 0.721652 0
M  V30 2157 H 194.239 1.39431 0.967322 0
M  V30 2158 H 193.011 3.01407 2.49538 0
M  V30 2159 H 192.634 1.69809 3.59514 0
M  V30 2160 N 193.631 -1.12557 1.10312 0
M  V30 2161 C 194.871 -1.8568 0.854543 0
M  V30 2162 C 195.235 -1.82091 -0.608843 0
M  V30 2163 O 196.436 -2.50544 -0.973717 0
M  V30 2164 C 194.707 -3.2942 1.38626 0
M  V30 2165 S 196.266 -4.19931 1.27293 0
M  V30 2166 H 193.084 -0.640427 0.308827 0
M  V30 2167 H 195.686 -1.35599 1.40831 0
M  V30 2168 H 194.39 -3.2959 2.44537 0
M  V30 2169 H 193.921 -3.84566 0.82902 0
M  V30 2170 H 195.936 -4.95668 0.229776 0
M  V30 2171 N 195.109 -0.891671 -1.2995 0
M  V30 2172 C 196.355 -0.514261 -1.96171 0
M  V30 2173 C 196.688 0.935506 -1.70182 0
M  V30 2174 O 195.963 1.66204 -1.01028 0
M  V30 2175 C 196.246 -0.797719 -3.51153 0
M  V30 2176 C 196.099 -2.2986 -3.86632 0
M  V30 2177 C 197.418 -0.278749 -4.39216 0
M  V30 2178 H 194.537 -0.188314 -0.712535 0
M  V30 2179 H 197.179 -1.11689 -1.53706 0
M  V30 2180 H 195.329 -0.284826 -3.87455 0
M  V30 2181 H 197.001 -2.88042 -3.60319 0
M  V30 2182 H 195.244 -2.76257 -3.34462 0
M  V30 2183 H 195.915 -2.44753 -4.94773 0
M  V30 2184 H 198.391 -0.717825 -4.09862 0
M  V30 2185 H 197.267 -0.506353 -5.46559 0
M  V30 2186 H 197.528 0.820266 -4.34424 0
M  V30 2187 N 196.587 1.43421 -0.653314 0
M  V30 2188 C 197.834 2.01812 -0.166745 0
M  V30 2189 C 198.162 1.51535 1.21931 0
M  V30 2190 O 197.417 0.698975 1.82792 0
M  V30 2191 C 197.716 3.57176 -0.126623 0
M  V30 2192 C 197.382 4.26798 -1.45444 0
M  V30 2193 C 196.044 4.45534 -1.81805 0
M  V30 2194 C 198.396 4.66225 -2.32989 0
M  V30 2195 C 195.724 5.00961 -3.05377 0
M  V30 2196 C 198.076 5.23021 -3.55853 0
M  V30 2197 C 196.74 5.39973 -3.9241 0
M  V30 2198 H 196.01 0.738484 -0.0610162 0
M  V30 2199 H 198.657 1.71896 -0.84404 0
M  V30 2200 H 196.962 3.86634 0.634123 0
M  V30 2201 H 198.659 4.00112 0.266723 0
M  V30 2202 H 195.249 4.12561 -1.16153 0
M  V30 2203 H 199.433 4.51443 -2.06187 0
M  V30 2204 H 194.689 5.12271 -3.3375 0
M  V30 2205 H 198.863 5.52518 -4.23907 0
M  V30 2206 H 196.49 5.82687 -4.88242 0
M  V30 2207 N 198.065 0.39524 1.52563 0
M  V30 2208 C 198.998 -0.4813 2.23067 0
M  V30 2209 C 199.976 -1.05927 1.23362 0
M  V30 2210 O 201.16 -1.10979 1.52368 0
M  V30 2211 C 198.287 -1.66676 2.9485 0
M  V30 2212 C 197.333 -1.21348 4.08873 0
M  V30 2213 S 198.166 -0.190102 5.35162 0
M  V30 2214 C 199.322 -1.38121 6.1047 0
M  V30 2215 H 199.555 0.117381 2.97068 0
M  V30 2216 H 197.088 0.179458 1.53354 0
M  V30 2217 H 199.046 -2.3466 3.36816 0
M  V30 2218 H 197.707 -2.23676 2.20518 0
M  V30 2219 H 196.9 -2.09877 4.58222 0
M  V30 2220 H 196.502 -0.612486 3.68951 0
M  V30 2221 H 198.794 -2.30726 6.37002 0
M  V30 2222 H 199.737 -0.928521 7.01986 0
M  V30 2223 H 200.145 -1.60071 5.41329 0
M  V30 2224 N 199.544 -1.57102 0.125237 0
M  V30 2225 C 200.769 -2.0019 -0.542101 0
M  V30 2226 C 201.194 -1.00449 -1.59034 0
M  V30 2227 O 200.552 0.0229423 -1.81285 0
M  V30 2228 C 200.6 -3.42129 -1.13929 0
M  V30 2229 O 199.704 -3.45307 -2.2547 0
M  V30 2230 H 199.045 -0.650171 -0.134812 0
M  V30 2231 H 201.575 -2.03461 0.215553 0
M  V30 2232 H 201.585 -3.80471 -1.4733 0
M  V30 2233 H 200.26 -4.14237 -0.371531 0
M  V30 2234 H 198.837 -3.1879 -1.93462 0
M  V30 2235 N 201.022 0.148545 -1.56898 0
M  V30 2236 C 201.952 1.18524 -2.01182 0
M  V30 2237 C 202.933 1.4489 -0.891123 0
M  V30 2238 O 204.118 1.55836 -1.15882 0
M  V30 2239 C 201.248 2.51879 -2.39112 0
M  V30 2240 C 200.202 2.40038 -3.54353 0
M  V30 2241 C 199.528 3.78089 -3.78091 0
M  V30 2242 C 200.828 1.88577 -4.87069 0
M  V30 2243 H 202.522 0.817029 -2.88036 0
M  V30 2244 H 200.068 0.391575 -1.38574 0
M  V30 2245 H 202.021 3.24627 -2.68692 0
M  V30 2246 H 200.745 2.90532 -1.49193 0
M  V30 2247 H 199.404 1.69742 -3.24936 0
M  V30 2248 H 199.052 4.14175 -2.85426 0
M  V30 2249 H 198.752 3.71028 -4.55645 0
M  V30 2250 H 200.276 4.52387 -4.10095 0
M  V30 2251 H 201.69 2.51117 -5.15377 0
M  V30 2252 H 200.087 1.9241 -5.68417 0
M  V30 2253 H 201.157 0.84136 -4.77545 0
M  V30 2254 N 202.5 1.5196 0.417844 0
M  V30 2255 C 203.728 1.69426 1.18753 0
M  V30 2256 C 204.143 0.399955 1.84515 0
M  V30 2257 O 203.5 -0.623288 1.71527 0
M  V30 2258 C 203.551 2.82375 2.25714 0
M  V30 2259 O 203.272 4.06793 1.62638 0
M  V30 2260 C 204.773 3.11277 3.15628 0
M  V30 2261 H 201.993 0.568031 0.357186 0
M  V30 2262 H 204.537 1.98475 0.49273 0
M  V30 2263 H 202.692 2.5587 2.90877 0
M  V30 2264 H 203.106 4.69667 2.3348 0
M  V30 2265 H 204.58 3.93843 3.86771 0
M  V30 2266 H 205.057 2.24473 3.77503 0
M  V30 2267 H 205.663 3.39515 2.56144 0
M  V30 2268 N 203.978 -0.674533 1.42435 0
M  V30 2269 C 204.926 -1.80934 1.46169 0
M  V30 2270 C 205.92 -1.66006 0.3374 0
M  V30 2271 O 207.126 -1.72611 0.510425 0
M  V30 2272 H 203.501 -0.596594 0.457798 0
M  V30 2273 H 205.472 -1.74903 2.41767 0
M  V30 2274 C 204.221 -3.19088 1.38123 0
M  V30 2275 H 203.544 -3.31203 2.23931 0
M  V30 2276 H 204.984 -3.9851 1.44797 0
M  V30 2277 C 203.443 -3.36763 0.0960517 0
M  V30 2278 O 203.973 -3.92581 -0.851073 0
M  V30 2279 N 202.179 -2.90597 0.0131186 0
M  V30 2280 H 201.726 -2.45359 0.784639 0
M  V30 2281 H 201.684 -3.028 -0.846133 0
M  V30 2282 N 205.456 -1.28612 -0.910864 0
M  V30 2283 C 206.386 -1.15326 -2.03032 0
M  V30 2284 C 207.367 -0.0502924 -1.70026 0
M  V30 2285 O 208.552 -0.227797 -1.92859 0
M  V30 2286 C 205.682 -0.817343 -3.37545 0
M  V30 2287 C 204.636 -1.8754 -3.84724 0
M  V30 2288 C 203.962 -1.39305 -5.16235 0
M  V30 2289 C 205.262 -3.28244 -4.06267 0
M  V30 2290 H 206.956 -2.08975 -2.14406 0
M  V30 2291 H 204.502 -1.00612 -1.03021 0
M  V30 2292 H 206.455 -0.711151 -4.15356 0
M  V30 2293 H 205.179 0.154846 -3.26233 0
M  V30 2294 H 203.838 -1.97079 -3.09121 0
M  V30 2295 H 203.486 -0.409846 -5.01328 0
M  V30 2296 H 203.186 -2.10057 -5.48771 0
M  V30 2297 H 204.71 -1.30014 -5.96598 0
M  V30 2298 H 206.124 -3.21611 -4.74594 0
M  V30 2299 H 204.521 -3.96855 -4.5014 0
M  V30 2300 H 205.591 -3.72048 -3.10979 0
M  V30 2301 N 206.934 1.1197 -1.10907 0
M  V30 2302 C 208.345 1.65114 -0.871446 0
M  V30 2303 C 208.696 1.86885 0.597353 0
M  V30 2304 O 207.821 1.59896 1.45816 0
M  V30 2305 C 208.416 2.99944 -1.5754 0
M  V30 2306 C 206.975 3.50018 -1.38435 0
M  V30 2307 C 206.122 2.24941 -1.62164 0
M  V30 2308 H 209.073 0.956851 -1.2661 0
M  V30 2309 H 209.094 3.66651 -1.01721 0
M  V30 2310 H 208.606 2.84067 -2.64438 0
M  V30 2311 H 206.707 3.71071 -0.337214 0
M  V30 2312 H 206.82 4.29165 -2.12965 0
M  V30 2313 H 205.184 2.3229 -1.04467 0
M  V30 2314 H 205.967 2.11612 -2.70324 0
M  V30 2315 N 208.412 0.89855 1.29475 0
M  V30 2316 C 209.359 0.373819 2.27753 0
M  V30 2317 C 210.329 -0.543444 1.56958 0
M  V30 2318 O 211.514 -0.468934 1.84948 0
M  V30 2319 C 208.654 -0.393648 3.42848 0
M  V30 2320 C 207.767 0.554379 4.28428 0
M  V30 2321 C 206.902 -0.230026 5.30702 0
M  V30 2322 C 205.941 0.712599 6.07938 0
M  V30 2323 N 205.078 -0.0373283 7.0209 0
M  V30 2324 H 209.918 1.21699 2.72017 0
M  V30 2325 H 207.455 0.611456 1.33789 0
M  V30 2326 H 209.413 -0.85466 4.08352 0
M  V30 2327 H 208.043 -1.20128 2.99615 0
M  V30 2328 H 207.095 1.13391 3.63107 0
M  V30 2329 H 208.407 1.27597 4.82204 0
M  V30 2330 H 207.561 -0.752288 6.02018 0
M  V30 2331 H 206.3 -0.984758 4.77654 0
M  V30 2332 H 205.305 1.24637 5.35486 0
M  V30 2333 H 206.53 1.46664 6.63074 0
M  V30 2334 H 204.476 -0.774348 6.51414 0
M  V30 2335 H 204.393 0.624374 7.53417 0
M  V30 2336 H 205.661 -0.539891 7.77628 0
M  V30 2337 N 209.89 -1.43072 0.660911 0
M  V30 2338 C 211.136 -2.02545 0.186337 0
M  V30 2339 C 211.491 -1.51253 -1.18913 0
M  V30 2340 O 210.784 -0.699167 -1.78388 0
M  V30 2341 C 210.978 -3.57103 0.145563 0
M  V30 2342 C 210.807 -4.23393 1.51554 0
M  V30 2343 C 209.577 -4.59144 2.10984 0
M  V30 2344 C 211.775 -4.51897 2.45548 0
M  V30 2345 N 209.757 -5.10545 3.40907 0
M  V30 2346 C 211.128 -5.04698 3.6011 0
M  V30 2347 C 213.183 -4.33872 2.44253 0
M  V30 2348 C 211.886 -5.41371 4.73613 0
M  V30 2349 C 213.912 -4.71612 3.56842 0
M  V30 2350 C 213.274 -5.24553 4.70131 0
M  V30 2351 H 209.373 -0.773823 0.112792 0
M  V30 2352 H 211.957 -1.74137 0.870885 0
M  V30 2353 H 210.128 -3.85059 -0.508353 0
M  V30 2354 H 211.86 -4.03264 -0.340598 0
M  V30 2355 H 208.615 -4.4444 1.63615 0
M  V30 2356 H 209.039 -5.40689 4.07411 0
M  V30 2357 H 213.681 -3.92208 1.579 0
M  V30 2358 H 211.399 -5.81975 5.60652 0
M  V30 2359 H 214.985 -4.59354 3.57051 0
M  V30 2360 H 213.865 -5.53213 5.5581 0
M  V30 2361 N 211.368 -0.403325 -1.52352 0
M  V30 2362 C 212.784 -0.0539281 -1.59509 0
M  V30 2363 C 212.984 1.43307 -1.41652 0
M  V30 2364 O 212.04 2.19924 -1.24056 0
M  V30 2365 C 213.353 -0.543654 -2.95745 0
M  V30 2366 C 214.901 -0.501125 -3.08962 0
M  V30 2367 C 215.376 -0.967267 -4.47669 0
M  V30 2368 N 216.867 -0.923849 -4.53893 0
M  V30 2369 C 217.602 -1.25578 -5.5948 0
M  V30 2370 N 217.098 -1.65889 -6.72646 0
M  V30 2371 N 218.891 -1.17613 -5.49658 0
M  V30 2372 H 211.042 -1.37123 -1.62206 0
M  V30 2373 H 213.305 -0.56294 -0.76276 0
M  V30 2374 H 213.011 -1.58275 -3.14073 0
M  V30 2375 H 212.885 0.0498042 -3.77167 0
M  V30 2376 H 215.272 0.528909 -2.90321 0
M  V30 2377 H 215.353 -1.13056 -2.2946 0
M  V30 2378 H 214.997 -1.9956 -4.67053 0
M  V30 2379 H 214.927 -0.314698 -5.25659 0
M  V30 2380 H 217.418 -0.627403 -3.72655 0
M  V30 2381 H 217.731 -1.89543 -7.49195 0
M  V30 2382 H 216.076 -1.69787 -6.73942 0
M  V30 2383 H 219.267 -0.860115 -4.6013 0
M  V30 2384 H 219.44 -1.43812 -6.3184 0
M  V30 2385 N 212.846 1.57033 -0.133567 0
M  V30 2386 C 214.257 1.82593 0.389464 0
M  V30 2387 C 214.608 1.05156 1.6564 0
M  V30 2388 O 213.733 0.292644 2.14412 0
M  V30 2389 C 214.328 3.31204 0.713377 0
M  V30 2390 C 212.887 3.57393 1.18098 0
M  V30 2391 C 212.034 2.76598 0.197126 0
M  V30 2392 H 214.985 1.54598 -0.358481 0
M  V30 2393 H 215.006 3.46627 1.56939 0
M  V30 2394 H 214.518 3.87537 -0.2089 0
M  V30 2395 H 212.619 3.06433 2.11966 0
M  V30 2396 H 212.732 4.65915 1.11624 0
M  V30 2397 H 211.096 2.45257 0.687088 0
M  V30 2398 H 211.879 3.35697 -0.718504 0
M  V30 2399 N 214.325 -0.140222 1.56975 0
M  V30 2400 C 215.571 -0.852949 1.83991 0
M  V30 2401 C 215.904 -1.80512 0.716187 0
M  V30 2402 O 215.179 -1.92479 -0.279681 0
M  V30 2403 C 215.462 -1.6215 3.21527 0
M  V30 2404 C 215.315 -0.690363 4.4447 0
M  V30 2405 C 216.634 -2.58247 3.56366 0
M  V30 2406 H 213.753 -0.308634 0.669264 0
M  V30 2407 H 216.395 -0.117898 1.89634 0
M  V30 2408 H 214.545 -2.24812 3.16847 0
M  V30 2409 H 216.217 -0.0742264 4.6124 0
M  V30 2410 H 214.46 -0.000396433 4.338 0
M  V30 2411 H 215.131 -1.2643 5.37326 0
M  V30 2412 H 217.607 -2.05701 3.61699 0
M  V30 2413 H 216.483 -3.09067 4.53617 0
M  V30 2414 H 216.744 -3.39923 2.82674 0
M  V30 2415 N 215.803 -1.52179 -0.40978 0
M  V30 2416 C 216.733 -1.78435 -1.5061 0
M  V30 2417 C 217.714 -0.635295 -1.57791 0
M  V30 2418 O 218.899 -0.880823 -1.73076 0
M  V30 2419 C 216.029 -1.93444 -2.88439 0
M  V30 2420 C 214.983 -3.09038 -2.96108 0
M  V30 2421 C 214.309 -3.09268 -4.36185 0
M  V30 2422 C 215.609 -4.48508 -2.67652 0
M  V30 2423 H 217.303 -2.70237 -1.28889 0
M  V30 2424 H 214.849 -1.30036 -0.618605 0
M  V30 2425 H 216.802 -2.10394 -3.65119 0
M  V30 2426 H 215.526 -0.983129 -3.11452 0
M  V30 2427 H 214.185 -2.91837 -2.21872 0
M  V30 2428 H 213.833 -2.11861 -4.56206 0
M  V30 2429 H 213.533 -3.86907 -4.42241 0
M  V30 2430 H 215.057 -3.28348 -5.14801 0
M  V30 2431 H 216.471 -4.65918 -3.34056 0
M  V30 2432 H 214.868 -5.28059 -2.85085 0
M  V30 2433 H 215.938 -4.56649 -1.63095 0
M  V30 2434 N 217.281 0.66697 -1.42791 0
M  V30 2435 C 218.191 1.80962 -1.49299 0
M  V30 2436 C 219.207 1.69775 -0.381108 0
M  V30 2437 O 220.383 1.91188 -0.633188 0
M  V30 2438 C 217.448 3.17156 -1.40045 0
M  V30 2439 C 216.509 3.40242 -2.6179 0
M  V30 2440 C 215.742 4.69939 -2.52969 0
M  V30 2441 O 215.965 5.48372 -1.56985 0
M  V30 2442 O 214.899 4.94441 -3.43237 0
M  V30 2443 H 218.725 1.78427 -2.45759 0
M  V30 2444 H 216.31 0.823713 -1.24641 0
M  V30 2445 H 218.192 3.98413 -1.37276 0
M  V30 2446 H 216.867 3.20312 -0.467138 0
M  V30 2447 H 215.774 2.58802 -2.70134 0
M  V30 2448 H 217.107 3.41923 -3.54047 0
M  V30 2449 N 218.759 1.29093 0.90403 0
M  V30 2450 C 219.707 1.13727 2.02901 0
M  V30 2451 C 220.701 0.0539853 1.69314 0
M  V30 2452 O 221.907 0.213469 1.7873 0
M  V30 2453 H 218.282 0.35117 0.664969 0
M  V30 2454 H 220.253 2.08982 2.13001 0
M  V30 2455 C 219.002 0.826066 3.37745 0
M  V30 2456 H 218.325 1.65164 3.64089 0
M  V30 2457 H 219.765 0.758559 4.17159 0
M  V30 2458 C 218.224 -0.470541 3.33598 0
M  V30 2459 O 218.754 -1.49792 3.72727 0
M  V30 2460 N 216.96 -0.474812 2.86695 0
M  V30 2461 H 216.507 0.361692 2.55048 0
M  V30 2462 H 216.465 -1.34236 2.84303 0
M  V30 2463 N 220.237 -1.11381 1.11499 0
M  V30 2464 C 221.465 -1.86934 0.88675 0
M  V30 2465 C 221.88 -1.80195 -0.563476 0
M  V30 2466 O 221.237 -1.18367 -1.38908 0
M  V30 2467 C 221.288 -3.35722 1.34064 0
M  V30 2468 O 221.009 -3.4232 2.73401 0
M  V30 2469 C 222.51 -4.2818 1.14791 0
M  V30 2470 H 219.73 -0.591117 0.317523 0
M  V30 2471 H 222.274 -1.40865 1.48248 0
M  V30 2472 H 220.429 -3.79294 0.788355 0
M  V30 2473 H 220.843 -4.34971 2.93087 0
M  V30 2474 H 222.317 -5.30817 1.5145 0
M  V30 2475 H 222.794 -4.39113 0.0875279 0
M  V30 2476 H 223.4 -3.90402 1.68721 0
M  V30 2477 N 221.715 -0.905404 -1.28997 0
M  V30 2478 C 222.645 -0.404212 -2.29975 0
M  V30 2479 C 223.626 0.523784 -1.61835 0
M  V30 2480 O 224.811 0.433298 -1.89304 0
M  V30 2481 C 221.941 0.364042 -3.45387 0
M  V30 2482 C 220.895 -0.474048 -4.25367 0
M  V30 2483 C 220.221 0.422045 -5.33032 0
M  V30 2484 C 221.521 -1.72696 -4.92923 0
M  V30 2485 H 223.215 -1.24807 -2.72146 0
M  V30 2486 H 220.761 -0.601585 -1.30832 0
M  V30 2487 H 222.714 0.725447 -4.15109 0
M  V30 2488 H 221.438 1.24174 -3.02074 0
M  V30 2489 H 220.097 -0.81786 -3.57361 0
M  V30 2490 H 219.745 1.29804 -4.85963 0
M  V30 2491 H 219.445 -0.135057 -5.87445 0
M  V30 2492 H 220.969 0.779517 -6.05604 0
M  V30 2493 H 222.383 -1.43495 -5.55051 0
M  V30 2494 H 220.78 -2.22582 -5.57295 0
M  V30 2495 H 221.85 -2.45964 -4.17887 0
M  V30 2496 N 223.193 1.4272 -0.668489 0
M  V30 2497 C 224.123 2.335 -0.000100175 0
M  V30 2498 C 225.104 1.50328 0.795964 0
M  V30 2499 O 226.289 1.78949 0.754385 0
M  V30 2500 C 223.419 3.33874 0.956302 0
M  V30 2501 C 222.373 4.27152 0.269278 0
M  V30 2502 C 221.699 5.17684 1.33818 0
M  V30 2503 C 222.999 5.15373 -0.847805 0
M  V30 2504 H 224.693 2.89639 -0.758244 0
M  V30 2505 H 222.239 1.39269 -0.366079 0
M  V30 2506 H 224.192 3.9629 1.43292 0
M  V30 2507 H 222.916 2.76025 1.74579 0
M  V30 2508 H 221.575 3.66123 -0.187042 0
M  V30 2509 H 221.223 4.56165 2.1195 0
M  V30 2510 H 220.923 5.80918 0.883659 0
M  V30 2511 H 222.447 5.82974 1.81586 0
M  V30 2512 H 223.861 5.7151 -0.452681 0
M  V30 2513 H 222.258 5.87407 -1.22773 0
M  V30 2514 H 223.328 4.5415 -1.69929 0
M  V30 2515 N 224.671 0.411399 1.52136 0
M  V30 2516 C 225.919 -0.163322 2.01439 0
M  V30 2517 C 226.24 -1.45453 1.29879 0
M  V30 2518 O 225.51 -1.91225 0.4254 0
M  V30 2519 H 224.09 -0.0633447 0.744309 0
M  V30 2520 H 226.752 0.548161 1.87033 0
M  V30 2521 H 225.848 -0.357817 3.10042 0
M  V30 2522 N 226.149 -1.5696 0.141893 0
M  V30 2523 C 227.398 -1.95135 -0.510427 0
M  V30 2524 C 227.711 -1.02896 -1.66348 0
M  V30 2525 O 228.917 -1.30629 -2.38009 0
M  V30 2526 C 227.373 -3.46876 -0.959427 0
M  V30 2527 C 226.981 -4.47691 0.166419 0
M  V30 2528 C 228.725 -3.93927 -1.58183 0
M  V30 2529 C 226.632 -5.90636 -0.300565 0
M  V30 2530 H 225.562 -0.728494 -0.194454 0
M  V30 2531 H 228.213 -1.8211 0.22542 0
M  V30 2532 H 226.595 -3.55215 -1.75038 0
M  V30 2533 H 227.769 -4.51043 0.94325 0
M  V30 2534 H 226.084 -4.10527 0.696905 0
M  V30 2535 H 228.681 -4.98158 -1.94275 0
M  V30 2536 H 229.024 -3.3519 -2.46888 0
M  V30 2537 H 229.557 -3.88484 -0.855863 0
M  V30 2538 H 226.296 -6.5318 0.550989 0
M  V30 2539 H 225.816 -5.90655 -1.04338 0
M  V30 2540 H 227.495 -6.42588 -0.754265 0
M  V30 2541 N 227.627 0.131896 -1.57047 0
M  V30 2542 C 228.857 0.855219 -1.88068 0
M  V30 2543 C 229.265 1.74557 -0.729817 0
M  V30 2544 O 228.608 1.81083 0.308962 0
M  V30 2545 C 228.67 1.75119 -3.13964 0
M  V30 2546 C 228.334 1.03646 -4.45091 0
M  V30 2547 C 229.331 0.383276 -5.18485 0
M  V30 2548 C 227.016 1.02148 -4.91804 0
M  V30 2549 C 229.01 -0.275347 -6.36805 0
M  V30 2550 C 226.697 0.359047 -6.10044 0
M  V30 2551 C 227.695 -0.288222 -6.82392 0
M  V30 2552 O 227.383 -0.94011 -7.98384 0
M  V30 2553 H 227.115 0.251864 -0.627328 0
M  V30 2554 H 229.669 0.124782 -2.05021 0
M  V30 2555 H 227.899 2.52295 -2.9306 0
M  V30 2556 H 229.588 2.3478 -3.31109 0
M  V30 2557 H 230.354 0.386562 -4.83457 0
M  V30 2558 H 226.233 1.5147 -4.35405 0
M  V30 2559 H 229.777 -0.781148 -6.93213 0
M  V30 2560 H 225.674 0.35348 -6.44531 0
M  V30 2561 H 226.442 -0.84329 -8.14144 0
M  V30 2562 N 229.106 1.52395 0.401703 0
M  V30 2563 C 230.334 1.70676 1.16949 0
M  V30 2564 C 230.749 0.419503 1.8408 0
M  V30 2565 O 230.106 -0.605061 1.72178 0
M  V30 2566 C 230.157 2.84753 2.22706 0
M  V30 2567 O 229.878 4.08495 1.58314 0
M  V30 2568 C 231.379 3.14608 3.12309 0
M  V30 2569 H 228.599 0.571787 0.351142 0
M  V30 2570 H 231.143 1.98987 0.471652 0
M  V30 2571 H 229.298 2.58941 2.88147 0
M  V30 2572 H 229.712 4.72117 2.28485 0
M  V30 2573 H 231.186 3.97923 3.82572 0
M  V30 2574 H 231.663 2.28464 3.75101 0
M  V30 2575 H 232.269 3.42212 2.52529 0
M  V30 2576 N 230.584 -0.659388 1.43143 0
M  V30 2577 C 231.831 -1.41935 1.44433 0
M  V30 2578 C 232.159 -1.94387 0.0663522 0
M  V30 2579 O 231.414 -1.72314 -0.927706 0
M  V30 2580 C 231.713 -2.62206 2.42864 0
M  V30 2581 C 231.379 -2.28208 3.88886 0
M  V30 2582 C 230.041 -2.18647 4.28657 0
M  V30 2583 C 232.393 -2.00887 4.8093 0
M  V30 2584 C 229.721 -1.79914 5.58433 0
M  V30 2585 C 232.073 -1.63653 6.11065 0
M  V30 2586 C 230.737 -1.52614 6.49819 0
M  V30 2587 H 230.007 -0.519376 0.528517 0
M  V30 2588 H 232.654 -0.750453 1.76183 0
M  V30 2589 H 230.959 -3.34199 2.04495 0
M  V30 2590 H 232.656 -3.2041 2.41119 0
M  V30 2591 H 229.246 -2.36557 3.57406 0
M  V30 2592 H 233.43 -2.07198 4.5098 0
M  V30 2593 H 228.686 -1.69948 5.87305 0
M  V30 2594 H 232.86 -1.41543 6.81864 0
M  V30 2595 H 230.487 -1.22371 7.50286 0
M  V30 2596 N 232.062 -1.29571 -0.897171 0
M  V30 2597 C 232.972 -1.16808 -2.03453 0
M  V30 2598 C 233.988 -0.0907471 -1.73763 0
M  V30 2599 O 235.164 -0.303312 -1.99103 0
M  V30 2600 C 232.229 -0.848264 -3.36163 0
M  V30 2601 C 231.29 -2.0097 -3.79354 0
M  V30 2602 C 230.523 -1.70505 -5.05731 0
M  V30 2603 O 230.746 -0.62718 -5.66941 0
M  V30 2604 O 229.68 -2.5538 -5.45036 0
M  V30 2605 H 233.506 -2.12325 -2.17144 0
M  V30 2606 H 231.091 -1.09047 -1.02123 0
M  V30 2607 H 232.973 -0.684581 -4.15802 0
M  V30 2608 H 231.648 0.0771071 -3.23608 0
M  V30 2609 H 230.555 -2.22863 -3.00471 0
M  V30 2610 H 231.888 -2.91636 -3.96496 0
M  V30 2611 N 233.54 1.10788 -1.12088 0
M  V30 2612 C 234.789 1.82036 -0.868659 0
M  V30 2613 C 235.102 1.85929 0.607426 0
M  V30 2614 O 236.308 2.53346 0.97613 0
M  V30 2615 C 234.764 3.26951 -1.50435 0
M  V30 2616 C 234.372 3.31367 -3.01496 0
M  V30 2617 C 236.116 4.03053 -1.33225 0
M  V30 2618 C 234.023 4.7072 -3.58017 0
M  V30 2619 H 232.953 0.682108 -0.321318 0
M  V30 2620 H 235.604 1.24618 -1.34694 0
M  V30 2621 H 233.986 3.84343 -0.953735 0
M  V30 2622 H 235.16 2.83819 -3.6302 0
M  V30 2623 H 233.475 2.6875 -3.18061 0
M  V30 2624 H 236.072 5.05981 -1.72878 0
M  V30 2625 H 236.415 4.15387 -0.275529 0
M  V30 2626 H 236.948 3.52066 -1.85188 0
M  V30 2627 H 233.687 4.63585 -4.63432 0
M  V30 2628 H 233.207 5.1865 -3.01268 0
M  V30 2629 H 234.886 5.39685 -3.56859 0
M  V30 2630 N 235.018 0.912232 1.28515 0
M  V30 2631 C 235.948 0.416403 2.29757 0
M  V30 2632 C 236.929 -0.515194 1.6211 0
M  V30 2633 O 238.114 -0.423253 1.89532 0
M  V30 2634 C 235.244 -0.34572 3.45575 0
M  V30 2635 C 234.198 0.496599 4.25109 0
M  V30 2636 C 233.524 -0.393771 5.33248 0
M  V30 2637 C 234.824 1.75307 4.92001 0
M  V30 2638 H 236.518 1.26249 2.7148 0
M  V30 2639 H 234.064 0.608515 1.30511 0
M  V30 2640 H 236.017 -0.703422 4.15488 0
M  V30 2641 H 234.741 -1.2257 3.02728 0
M  V30 2642 H 233.4 0.8368 3.56922 0
M  V30 2643 H 233.048 -1.27225 4.86644 0
M  V30 2644 H 232.748 0.166209 5.87365 0
M  V30 2645 H 234.272 -0.747389 6.06009 0
M  V30 2646 H 235.686 1.46437 5.54283 0
M  V30 2647 H 234.083 2.25534 5.56106 0
M  V30 2648 H 235.153 2.48176 4.16577 0
M  V30 2649 N 236.496 -1.42363 0.676048 0
M  V30 2650 C 237.742 -2.0182 0.199125 0
M  V30 2651 C 238.075 -1.53339 -1.19168 0
M  V30 2652 O 237.35 -0.736124 -1.80032 0
M  V30 2653 C 237.633 -3.59331 0.235144 0
M  V30 2654 C 237.486 -4.17989 1.66149 0
M  V30 2655 C 238.805 -4.3813 -0.41595 0
M  V30 2656 H 235.924 -0.733293 0.0738311 0
M  V30 2657 H 238.566 -1.69368 0.86107 0
M  V30 2658 H 236.716 -3.87109 -0.328487 0
M  V30 2659 H 238.388 -4.0116 2.27747 0
M  V30 2660 H 236.631 -3.7377 2.20178 0
M  V30 2661 H 237.302 -5.27126 1.63837 0
M  V30 2662 H 239.778 -4.16051 0.0638529 0
M  V30 2663 H 238.654 -5.47717 -0.360115 0
M  V30 2664 H 238.915 -4.16101 -1.49373 0
M  V30 2665 N 237.974 -0.419461 -1.51915 0
M  V30 2666 C 238.921 0.400927 -2.27291 0
M  V30 2667 C 239.891 1.03224 -1.30131 0
M  V30 2668 O 241.076 1.05455 -1.59009 0
M  V30 2669 C 238.216 1.50603 -3.10504 0
M  V30 2670 C 237.329 0.89462 -4.22635 0
M  V30 2671 C 236.464 1.97328 -4.93189 0
M  V30 2672 C 235.503 1.33935 -5.97267 0
M  V30 2673 N 234.64 2.3586 -6.61298 0
M  V30 2674 H 239.48 -0.248251 -2.96964 0
M  V30 2675 H 237.017 -0.134266 -1.46486 0
M  V30 2676 H 238.975 2.15783 -3.57062 0
M  V30 2677 H 237.605 2.12509 -2.42981 0
M  V30 2678 H 236.657 0.131583 -3.80172 0
M  V30 2679 H 237.969 0.391641 -4.9726 0
M  V30 2680 H 237.123 2.70211 -5.43204 0
M  V30 2681 H 235.862 2.50994 -4.18155 0
M  V30 2682 H 234.867 0.595896 -5.46561 0
M  V30 2683 H 236.092 0.810252 -6.74249 0
M  V30 2684 H 234.038 2.88639 -5.89087 0
M  V30 2685 H 233.955 1.90403 -7.3163 0
M  V30 2686 H 235.223 3.08282 -7.15949 0
M  V30 2687 N 239.452 1.56882 -0.150215 0
M  V30 2688 C 240.382 2.19935 0.784284 0
M  V30 2689 C 241.363 1.14854 1.25469 0
M  V30 2690 O 242.548 1.43209 1.31168 0
M  V30 2691 C 239.678 2.82349 2.02229 0
M  V30 2692 C 238.632 3.93285 1.68853 0
M  V30 2693 C 237.958 4.42649 2.99944 0
M  V30 2694 C 239.258 5.13904 0.932714 0
M  V30 2695 H 240.952 2.9828 0.258781 0
M  V30 2696 H 238.498 1.43473 0.123029 0
M  V30 2697 H 240.451 3.25126 2.68088 0
M  V30 2698 H 239.175 2.0134 2.57157 0
M  V30 2699 H 237.834 3.5113 1.05371 0
M  V30 2700 H 237.482 3.58458 3.52869 0
M  V30 2701 H 237.182 5.17476 2.78374 0
M  V30 2702 H 238.706 4.88099 3.66868 0
M  V30 2703 H 240.12 5.53506 1.49345 0
M  V30 2704 H 238.517 5.94515 0.81684 0
M  V30 2705 H 239.587 4.84842 -0.0749568 0
M  V30 2706 N 240.93 -0.123565 1.57115 0
M  V30 2707 C 242.177 -0.832153 1.84612 0
M  V30 2708 C 242.505 -1.80093 0.734627 0
M  V30 2709 O 241.76 -1.93766 -0.27442 0
M  V30 2710 C 242.059 -1.62016 3.18568 0
M  V30 2711 C 241.725 -0.796084 4.43817 0
M  V30 2712 C 240.387 -0.568816 4.77826 0
M  V30 2713 C 242.739 -0.221364 5.2073 0
M  V30 2714 C 240.067 0.243499 5.86194 0
M  V30 2715 C 242.419 0.578117 6.29953 0
M  V30 2716 C 241.083 0.815744 6.62497 0
M  V30 2717 H 240.353 -0.304507 0.675542 0
M  V30 2718 H 243 -0.0947248 1.91266 0
M  V30 2719 H 241.305 -2.42837 3.0747 0
M  V30 2720 H 243.002 -2.17231 3.37064 0
M  V30 2721 H 239.592 -0.983307 4.17168 0
M  V30 2722 H 243.776 -0.384173 4.94811 0
M  V30 2723 H 239.032 0.436871 6.09837 0
M  V30 2724 H 243.206 1.03046 6.88734 0
M  V30 2725 H 240.833 1.44701 7.46301 0
M  V30 2726 N 242.408 -1.52605 -0.393616 0
M  V30 2727 C 243.371 -1.76415 -1.46323 0
M  V30 2728 C 244.371 -0.634126 -1.47768 0
M  V30 2729 O 245.561 -0.902142 -1.4902 0
M  V30 2730 C 242.693 -1.8607 -2.85641 0
M  V30 2731 H 243.886 -2.71916 -1.26498 0
M  V30 2732 H 241.439 -1.43257 -0.625073 0
M  V30 2733 H 242.174 -0.925378 -3.10817 0
M  V30 2734 H 241.959 -2.68235 -2.85993 0
M  V30 2735 H 243.449 -2.06179 -3.63153 0
M  V30 2736 N 243.887 0.651787 -1.4349 0
M  V30 2737 C 245.303 0.96762 -1.26922 0
M  V30 2738 C 245.503 2.00602 -0.189982 0
M  V30 2739 O 244.559 2.48793 0.431107 0
M  V30 2740 C 245.872 1.45052 -2.63401 0
M  V30 2741 C 247.42 1.5671 -2.70945 0
M  V30 2742 C 247.895 2.0839 -4.07845 0
M  V30 2743 N 249.386 2.1569 -4.09917 0
M  V30 2744 C 250.121 2.56804 -5.12679 0
M  V30 2745 N 249.617 2.97203 -6.25813 0
M  V30 2746 N 251.41 2.56756 -5.00033 0
M  V30 2747 H 243.561 -0.0353158 -2.12371 0
M  V30 2748 H 245.824 0.0467858 -0.946845 0
M  V30 2749 H 245.53 0.761926 -3.43348 0
M  V30 2750 H 245.404 2.42529 -2.88894 0
M  V30 2751 H 247.791 2.2467 -1.9133 0
M  V30 2752 H 247.872 0.57662 -2.49216 0
M  V30 2753 H 247.516 1.41031 -4.87927 0
M  V30 2754 H 247.446 3.08271 -4.26938 0
M  V30 2755 H 249.937 1.87237 -3.28254 0
M  V30 2756 H 250.25 3.27328 -7.00055 0
M  V30 2757 H 248.595 2.95004 -6.29283 0
M  V30 2758 H 251.786 2.24572 -4.10713 0
M  V30 2759 H 251.959 2.88475 -5.80247 0
M  V30 2760 N 245.365 1.30045 0.890287 0
M  V30 2761 C 246.613 1.18327 1.63839 0
M  V30 2762 C 246.934 -0.263455 1.93212 0
M  V30 2763 O 246.204 -1.17856 1.56482 0
M  V30 2764 H 244.784 0.434933 0.607324 0
M  V30 2765 H 247.446 1.631 1.06698 0
M  V30 2766 H 246.542 1.74024 2.59079 0
M  V30 2767 N 246.843 -1.10192 1.12674 0
M  V30 2768 C 248.089 -1.82475 0.884915 0
M  V30 2769 C 248.422 -1.85093 -0.58773 0
M  V30 2770 O 247.697 -1.3134 -1.43457 0
M  V30 2771 C 247.98 -3.29018 1.46353 0
M  V30 2772 C 247.833 -3.34718 3.00473 0
M  V30 2773 C 249.152 -4.25473 1.12519 0
M  V30 2774 H 246.271 -0.662492 0.322915 0
M  V30 2775 H 248.913 -1.2913 1.39375 0
M  V30 2776 H 247.063 -3.74576 1.03077 0
M  V30 2777 H 248.735 -2.97622 3.52447 0
M  V30 2778 H 246.978 -2.74541 3.35872 0
M  V30 2779 H 247.649 -4.37918 3.36053 0
M  V30 2780 H 250.125 -3.88161 1.499 0
M  V30 2781 H 249.001 -5.26365 1.55663 0
M  V30 2782 H 249.262 -4.42084 0.0377407 0
M  V30 2783 N 248.321 -0.919034 -1.28029 0
M  V30 2784 C 249.567 -0.565221 -1.95389 0
M  V30 2785 C 249.922 0.882325 -1.70976 0
M  V30 2786 O 249.215 1.61988 -1.02325 0
M  V30 2787 C 249.409 -0.816855 -3.4794 0
M  V30 2788 C 249.238 -2.28731 -3.87185 0
M  V30 2789 C 248.008 -2.93841 -4.11079 0
M  V30 2790 C 250.206 -3.26415 -3.97439 0
M  V30 2791 N 248.188 -4.31129 -4.37037 0
M  V30 2792 C 249.559 -4.48884 -4.27672 0
M  V30 2793 C 251.614 -3.21742 -3.79982 0
M  V30 2794 C 250.317 -5.67268 -4.42266 0
M  V30 2795 C 252.343 -4.39431 -3.95796 0
M  V30 2796 C 251.705 -5.60675 -4.26407 0
M  V30 2797 H 247.804 -0.256797 -0.738633 0
M  V30 2798 H 250.388 -1.18386 -1.54573 0
M  V30 2799 H 248.559 -0.227445 -3.87733 0
M  V30 2800 H 250.291 -0.426542 -4.02446 0
M  V30 2801 H 247.046 -2.44547 -4.05578 0
M  V30 2802 H 247.47 -5.02127 -4.5409 0
M  V30 2803 H 252.112 -2.29079 -3.55363 0
M  V30 2804 H 249.83 -6.60406 -4.65714 0
M  V30 2805 H 253.416 -4.37323 -3.83719 0
M  V30 2806 H 252.296 -6.50223 -4.38383 0
M  V30 2807 N 249.799 1.42003 -0.683588 0
M  V30 2808 C 250.762 2.29191 -0.0198243 0
M  V30 2809 C 251.762 1.43773 0.72013 0
M  V30 2810 O 252.952 1.65061 0.556815 0
M  V30 2811 C 250.084 3.26435 0.982487 0
M  V30 2812 H 251.277 2.8938 -0.787345 0
M  V30 2813 H 248.83 1.49789 -0.446418 0
M  V30 2814 H 249.565 2.71203 1.77819 0
M  V30 2815 H 249.35 3.89449 0.455182 0
M  V30 2816 H 250.84 3.918 1.44508 0
M  V30 2817 N 251.277 0.427512 1.51691 0
M  V30 2818 C 252.525 -0.141948 2.01601 0
M  V30 2819 C 252.846 -1.44067 1.31414 0
M  V30 2820 O 252.116 -1.90763 0.445658 0
M  V30 2821 H 250.696 -0.0554468 0.744939 0
M  V30 2822 H 253.358 0.567968 1.86441 0
M  V30 2823 H 252.454 -0.324913 3.10404 0
M  V30 2824 N 252.755 -1.56801 0.158532 0
M  V30 2825 C 253.98 -2.01295 -0.499516 0
M  V30 2826 C 254.405 -1.03799 -1.56867 0
M  V30 2827 O 253.763 -0.0155162 -1.81293 0
M  V30 2828 C 253.811 -3.44469 -1.06647 0
M  V30 2829 O 252.915 -3.50012 -2.18095 0
M  V30 2830 H 252.256 -0.652884 -0.12099 0
M  V30 2831 H 254.786 -2.02958 0.258661 0
M  V30 2832 H 254.796 -3.8351 -1.39227 0
M  V30 2833 H 253.471 -4.14932 -0.283581 0
M  V30 2834 H 252.048 -3.22822 -1.86656 0
M  V30 2835 N 254.233 0.115231 -1.57178 0
M  V30 2836 C 255.48 0.822351 -1.8505 0
M  V30 2837 C 255.808 1.79701 -0.744168 0
M  V30 2838 O 255.063 1.93909 0.26414 0
M  V30 2839 C 255.362 1.60324 -3.19423 0
M  V30 2840 C 255.028 0.772536 -4.44233 0
M  V30 2841 C 253.69 0.543468 -4.78121 0
M  V30 2842 C 256.042 0.193746 -5.2084 0
M  V30 2843 C 253.37 -0.274583 -5.86057 0
M  V30 2844 C 255.722 -0.611517 -6.29637 0
M  V30 2845 C 254.386 -0.850867 -6.62055 0
M  V30 2846 H 253.656 0.30092 -0.677147 0
M  V30 2847 H 256.303 0.0845802 -1.91313 0
M  V30 2848 H 254.608 2.41203 -3.08753 0
M  V30 2849 H 256.305 2.1544 -3.38211 0
M  V30 2850 H 252.895 0.96117 -4.17683 0
M  V30 2851 H 257.079 0.357926 -4.95008 0
M  V30 2852 H 252.335 -0.469206 -6.09597 0
M  V30 2853 H 256.509 -1.06697 -6.88178 0
M  V30 2854 H 254.136 -1.48657 -7.45523 0
M  V30 2855 N 255.711 1.52812 0.385517 0
M  V30 2856 C 256.936 1.72207 1.15583 0
M  V30 2857 C 257.361 0.441034 1.82857 0
M  V30 2858 O 256.719 -0.603465 1.70962 0
M  V30 2859 C 256.767 2.87476 2.17692 0
M  V30 2860 O 255.871 2.54693 3.24354 0
M  V30 2861 H 255.212 0.572526 0.336319 0
M  V30 2862 H 257.742 1.99618 0.448744 0
M  V30 2863 H 257.752 3.13072 2.6163 0
M  V30 2864 H 256.427 3.80408 1.68115 0
M  V30 2865 H 255.004 2.3985 2.85529 0
M  V30 2866 N 257.189 -0.644168 1.43834 0
M  V30 2867 C 258.436 -1.40395 1.4593 0
M  V30 2868 C 258.764 -1.94305 0.0869658 0
M  V30 2869 O 258.019 -1.73288 -0.909378 0
M  V30 2870 C 258.318 -2.59615 2.45631 0
M  V30 2871 C 257.984 -2.2407 3.91284 0
M  V30 2872 C 256.646 -2.14089 4.30952 0
M  V30 2873 C 258.998 -1.95775 4.83034 0
M  V30 2874 C 256.326 -1.73981 5.6031 0
M  V30 2875 C 258.678 -1.57163 6.12766 0
M  V30 2876 C 257.342 -1.45713 6.51402 0
M  V30 2877 H 256.612 -0.513741 0.533995 0
M  V30 2878 H 259.259 -0.731724 1.76969 0
M  V30 2879 H 257.564 -3.32011 2.08028 0
M  V30 2880 H 259.261 -3.17834 2.44504 0
M  V30 2881 H 255.851 -2.32753 3.59895 0
M  V30 2882 H 260.035 -2.02403 4.53152 0
M  V30 2883 H 255.291 -1.63709 5.89075 0
M  V30 2884 H 259.465 -1.34303 6.83327 0
M  V30 2885 H 257.092 -1.14406 7.51542 0
M  V30 2886 N 258.668 -1.30515 -0.883378 0
M  V30 2887 C 259.598 -1.19607 -2.00541 0
M  V30 2888 C 260.579 -0.086346 -1.69881 0
M  V30 2889 O 261.764 -0.268654 -1.92333 0
M  V30 2890 C 258.894 -0.888758 -3.35736 0
M  V30 2891 C 257.848 -1.95659 -3.8066 0
M  V30 2892 C 257.174 -1.50224 -5.13164 0
M  V30 2893 C 258.474 -3.36788 -3.99213 0
M  V30 2894 H 260.168 -2.13476 -2.09925 0
M  V30 2895 H 257.714 -1.02775 -1.00863 0
M  V30 2896 H 259.667 -0.799094 -4.13754 0
M  V30 2897 H 258.391 0.0856125 -3.26488 0
M  V30 2898 H 257.05 -2.03591 -3.04871 0
M  V30 2899 H 256.698 -0.516092 -5.00345 0
M  V30 2900 H 256.398 -2.2165 -5.44192 0
M  V30 2901 H 257.922 -1.42639 -5.93706 0
M  V30 2902 H 259.336 -3.31605 -4.67665 0
M  V30 2903 H 257.733 -4.06314 -4.41621 0
M  V30 2904 H 258.803 -3.78561 -3.03017 0
M  V30 2905 N 260.146 1.09593 -1.13257 0
M  V30 2906 C 261.394 1.81375 -0.891492 0
M  V30 2907 C 261.715 1.86049 0.584009 0
M  V30 2908 O 260.985 1.34481 1.42449 0
M  V30 2909 H 259.565 0.671708 -0.326828 0
M  V30 2910 H 262.227 1.3256 -1.42877 0
M  V30 2911 H 261.323 2.84612 -1.28071 0
M  V30 2912 N 261.624 0.925811 1.2754 0
M  V30 2913 C 262.901 0.483726 1.89524 0
M  V30 2914 C 263.281 -1.03809 1.83812 0
M  V30 2915 O 262.629 -1.89143 1.28207 0
M  V30 2916 C 262.839 1.02769 3.33526 0
M  V30 2917 C 264.187 1.08703 4.10449 0
M  V30 2918 O 265.211 0.977175 3.42534 0
M  V30 2919 O 264.07 1.25599 5.31871 0
M  V30 2920 H 261.164 0.15529 0.812289 0
M  V30 2921 H 263.71 1.01738 1.35822 0
M  V30 2922 H 262.482 2.07155 3.31967 0
M  V30 2923 H 262.105 0.475567 3.94746 0
M  V30 2924 N 263.102 -1.41638 0.69111 0
M  V30 2925 C 264.513 -1.84346 0.295517 0
M  V30 2926 C 264.864 -1.57833 -1.16547 0
M  V30 2927 O 263.989 -1.04648 -1.89414 0
M  V30 2928 C 264.584 -3.34636 0.529575 0
M  V30 2929 C 263.143 -3.7593 0.187944 0
M  V30 2930 C 262.29 -2.65082 0.814052 0
M  V30 2931 H 265.241 -1.31253 0.892092 0
M  V30 2932 H 265.262 -3.79903 -0.213148 0
M  V30 2933 H 264.774 -3.53901 1.59297 0
M  V30 2934 H 262.875 -3.62268 -0.871367 0
M  V30 2935 H 262.988 -4.74808 0.63985 0
M  V30 2936 H 261.352 -2.53528 0.244017 0
M  V30 2937 H 262.135 -2.87167 1.88123 0
M  V30 2938 N 264.58 -0.43555 -1.51462 0
M  V30 2939 C 265.826 0.123979 -2.03022 0
M  V30 2940 C 266.181 1.4054 -1.31401 0
M  V30 2941 O 265.474 1.86948 -0.419634 0
M  V30 2942 C 265.668 0.39942 -3.55161 0
M  V30 2943 C 265.497 -0.853754 -4.41521 0
M  V30 2944 C 264.267 -1.38675 -4.85898 0
M  V30 2945 C 266.465 -1.73939 -4.83994 0
M  V30 2946 N 264.447 -2.59265 -5.56466 0
M  V30 2947 C 265.818 -2.79135 -5.5361 0
M  V30 2948 C 267.873 -1.75402 -4.65981 0
M  V30 2949 C 266.576 -3.85737 -6.07124 0
M  V30 2950 C 268.602 -2.80938 -5.20411 0
M  V30 2951 C 267.964 -3.84854 -5.89972 0
M  V30 2952 H 264.063 0.00624887 -0.781975 0
M  V30 2953 H 266.647 -0.59582 -1.85359 0
M  V30 2954 H 264.818 1.08825 -3.72843 0
M  V30 2955 H 266.55 0.95015 -3.93388 0
M  V30 2956 H 263.305 -0.94094 -4.64159 0
M  V30 2957 H 263.729 -3.2041 -5.96378 0
M  V30 2958 H 268.371 -0.963926 -4.11665 0
M  V30 2959 H 266.089 -4.65586 -6.60496 0
M  V30 2960 H 269.675 -2.8301 -5.08327 0
M  V30 2961 H 268.555 -4.65176 -6.31333 0
M  V30 2962 N 266.058 1.56714 -0.166846 0
M  V30 2963 C 267.006 2.19056 0.782123 0
M  V30 2964 C 268 1.15328 1.24079 0
M  V30 2965 O 269.206 1.33537 1.20697 0
M  V30 2966 H 265.581 0.70167 0.270486 0
M  V30 2967 H 267.552 2.97494 0.232322 0
M  V30 2968 C 266.301 2.84206 2.00306 0
M  V30 2969 H 265.624 3.63748 1.65914 0
M  V30 2970 H 267.064 3.31302 2.64604 0
M  V30 2971 C 265.523 1.83744 2.82382 0
M  V30 2972 O 266.053 1.32014 3.79388 0
M  V30 2973 N 264.259 1.52601 2.47308 0
M  V30 2974 H 263.806 1.9486 1.68485 0
M  V30 2975 H 263.764 0.856351 3.02513 0
M  V30 2976 N 267.536 -0.106894 1.57237 0
M  V30 2977 C 268.782 -0.808678 1.86633 0
M  V30 2978 C 269.137 -1.76917 0.756178 0
M  V30 2979 O 268.43 -1.90055 -0.242834 0
M  V30 2980 C 268.624 -1.58628 3.20268 0
M  V30 2981 C 268.453 -0.702592 4.44178 0
M  V30 2982 C 267.223 -0.352808 5.04067 0
M  V30 2983 C 269.421 -0.0148031 5.14298 0
M  V30 2984 N 267.403 0.540279 6.11518 0
M  V30 2985 C 268.774 0.736809 6.15606 0
M  V30 2986 C 270.829 0.0603524 4.97863 0
M  V30 2987 C 269.532 1.55654 7.02257 0
M  V30 2988 C 271.558 0.866942 5.85011 0
M  V30 2989 C 270.92 1.60671 6.85831 0
M  V30 2990 H 267.019 -0.27246 0.733001 0
M  V30 2991 H 269.603 -0.0717858 1.94568 0
M  V30 2992 H 267.774 -2.29413 3.13408 0
M  V30 2993 H 269.506 -2.23434 3.3743 0
M  V30 2994 H 266.261 -0.697802 4.68431 0
M  V30 2995 H 266.685 0.979029 6.69884 0
M  V30 2996 H 271.327 -0.497236 4.19866 0
M  V30 2997 H 269.045 2.12524 7.79653 0
M  V30 2998 H 272.631 0.927612 5.74358 0
M  V30 2999 H 271.511 2.2208 7.52097 0
M  V30 3000 N 269.014 -1.53014 -0.377408 0
M  V30 3001 C 269.944 -1.81589 -1.46791 0
M  V30 3002 C 270.925 -0.668622 -1.56408 0
M  V30 3003 O 272.11 -0.917337 -1.71168 0
M  V30 3004 C 269.24 -1.99519 -2.8427 0
M  V30 3005 C 268.194 -3.15249 -2.89486 0
M  V30 3006 C 267.52 -3.18451 -4.29527 0
M  V30 3007 C 268.82 -4.54084 -2.58079 0
M  V30 3008 H 270.514 -2.7291 -1.23127 0
M  V30 3009 H 268.06 -1.31319 -0.590883 0
M  V30 3010 H 270.013 -2.18092 -3.60575 0
M  V30 3011 H 268.737 -1.04897 -3.09296 0
M  V30 3012 H 267.396 -2.96477 -2.15631 0
M  V30 3013 H 267.044 -2.2149 -4.5161 0
M  V30 3014 H 266.744 -3.962 -4.33934 0
M  V30 3015 H 268.268 -3.39193 -5.07721 0
M  V30 3016 H 269.682 -4.72899 -3.24098 0
M  V30 3017 H 268.079 -5.33987 -2.7382 0
M  V30 3018 H 269.149 -4.60006 -1.53372 0
M  V30 3019 N 270.492 0.636531 -1.44174 0
M  V30 3020 C 271.769 1.39463 -1.37148 0
M  V30 3021 C 272.149 2.11082 -0.027507 0
M  V30 3022 O 271.497 2.05954 0.989716 0
M  V30 3023 C 271.707 2.36552 -2.56601 0
M  V30 3024 C 273.055 3.00048 -3.00427 0
M  V30 3025 O 274.079 2.46878 -2.56767 0
M  V30 3026 O 272.938 3.96488 -3.76111 0
M  V30 3027 H 270.032 0.623903 -0.542839 0
M  V30 3028 H 272.578 0.662039 -1.56253 0
M  V30 3029 H 271.35 1.82692 -3.46034 0
M  V30 3030 H 270.973 3.17236 -2.39681 0
M  V30 3031 N 271.97 1.30982 0.876444 0
M  V30 3032 C 273.217 1.20296 1.62896 0
M  V30 3033 C 273.545 -0.240395 1.93009 0
M  V30 3034 O 272.8 -1.18733 1.55567 0
M  V30 3035 C 273.099 1.98572 2.9716 0
M  V30 3036 C 272.765 3.48125 2.86566 0
M  V30 3037 C 271.427 3.88905 2.83383 0
M  V30 3038 C 273.779 4.43322 2.74071 0
M  V30 3039 C 271.107 5.2316 2.65556 0
M  V30 3040 C 273.459 5.77695 2.57781 0
M  V30 3041 C 272.123 6.17704 2.52979 0
M  V30 3042 H 271.393 0.440193 0.59608 0
M  V30 3043 H 274.04 1.62177 1.01837 0
M  V30 3044 H 272.345 1.49352 3.62217 0
M  V30 3045 H 274.042 1.8769 3.54364 0
M  V30 3046 H 270.632 3.15723 2.89856 0
M  V30 3047 H 274.816 4.12752 2.75589 0
M  V30 3048 H 270.072 5.53241 2.60259 0
M  V30 3049 H 274.246 6.51091 2.47089 0
M  V30 3050 H 271.873 7.21678 2.38924 0
M  V30 3051 N 273.449 -1.08991 1.13837 0
M  V30 3052 C 274.674 -1.85551 0.926585 0
M  V30 3053 C 275.099 -1.80782 -0.519566 0
M  V30 3054 O 274.457 -1.18855 -1.36906 0
M  V30 3055 C 274.505 -3.31266 1.42462 0
M  V30 3056 O 273.609 -4.07822 0.612789 0
M  V30 3057 H 272.95 -0.575192 0.331738 0
M  V30 3058 H 275.48 -1.37604 1.51414 0
M  V30 3059 H 275.49 -3.82112 1.43019 0
M  V30 3060 H 274.165 -3.34052 2.47754 0
M  V30 3061 H 272.742 -3.66731 0.675463 0
M  V30 3062 N 274.927 -0.932562 -1.27047 0
M  V30 3063 C 276.173 -0.576412 -1.94436 0
M  V30 3064 C 276.506 0.880891 -1.73072 0
M  V30 3065 O 275.781 1.62905 -1.06264 0
M  V30 3066 C 276.064 -0.909031 -3.48437 0
M  V30 3067 C 275.917 -2.42044 -3.79123 0
M  V30 3068 C 277.236 -0.418341 -4.38107 0
M  V30 3069 H 274.355 -0.210888 -0.706184 0
M  V30 3070 H 276.997 -1.16522 -1.50075 0
M  V30 3071 H 275.147 -0.407947 -3.86352 0
M  V30 3072 H 276.819 -2.99359 -3.50973 0
M  V30 3073 H 275.062 -2.86758 -3.25503 0
M  V30 3074 H 275.733 -2.6037 -4.86736 0
M  V30 3075 H 278.209 -0.847856 -4.0737 0
M  V30 3076 H 277.085 -0.679981 -5.44672 0
M  V30 3077 H 277.346 0.681642 -4.36814 0
M  V30 3078 N 276.405 1.4127 -0.698611 0
M  V30 3079 C 277.633 2.05503 -0.239992 0
M  V30 3080 C 278.048 1.52584 1.11191 0
M  V30 3081 O 277.405 0.675323 1.69545 0
M  V30 3082 C 277.456 3.60987 -0.192429 0
M  V30 3083 O 277.177 4.1195 -1.49094 0
M  V30 3084 C 278.678 4.42371 0.28681 0
M  V30 3085 H 275.898 0.661748 -0.111045 0
M  V30 3086 H 278.442 1.80987 -0.95205 0
M  V30 3087 H 276.597 3.84533 0.470472 0
M  V30 3088 H 277.011 5.06018 -1.38007 0
M  V30 3089 H 278.485 5.51344 0.26896 0
M  V30 3090 H 278.962 4.18699 1.32619 0
M  V30 3091 H 279.568 4.23897 -0.345201 0
M  V30 3092 N 277.883 0.443576 1.51229 0
M  V30 3093 C 279.129 -0.120975 2.02439 0
M  V30 3094 C 279.462 -1.41815 1.32674 0
M  V30 3095 O 278.737 -1.89373 0.443622 0
M  V30 3096 C 279.02 -0.333291 3.58554 0
M  V30 3097 C 278.873 0.982968 4.38928 0
M  V30 3098 C 280.192 -1.10028 4.26124 0
M  V30 3099 H 277.311 -0.0424923 0.735774 0
M  V30 3100 H 279.953 0.583794 1.80809 0
M  V30 3101 H 278.103 -0.933614 3.77115 0
M  V30 3102 H 279.775 1.61775 4.32003 0
M  V30 3103 H 278.018 1.58611 4.03763 0
M  V30 3104 H 278.689 0.788379 5.46341 0
M  V30 3105 H 281.165 -0.591711 4.11871 0
M  V30 3106 H 280.041 -1.21761 5.35225 0
M  V30 3107 H 280.302 -2.12996 3.87408 0
M  V30 3108 N 279.361 -1.56624 0.175154 0
M  V30 3109 C 280.608 -1.96999 -0.468811 0
M  V30 3110 C 280.936 -1.06129 -1.62994 0
M  V30 3111 O 280.191 -0.0961771 -1.95464 0
M  V30 3112 C 280.49 -3.43419 -0.989864 0
M  V30 3113 C 280.156 -4.50866 0.0557687 0
M  V30 3114 C 278.818 -4.79975 0.343134 0
M  V30 3115 C 281.17 -5.15551 0.765308 0
M  V30 3116 C 278.498 -5.71066 1.34536 0
M  V30 3117 C 280.85 -6.07724 1.75654 0
M  V30 3118 C 279.514 -6.35199 2.05132 0
M  V30 3119 H 278.784 -0.720869 -0.17155 0
M  V30 3120 H 281.431 -1.89616 0.267924 0
M  V30 3121 H 279.736 -3.47772 -1.80449 0
M  V30 3122 H 281.433 -3.72002 -1.49719 0
M  V30 3123 H 278.023 -4.28229 -0.178381 0
M  V30 3124 H 282.207 -4.9317 0.556513 0
M  V30 3125 H 277.463 -5.90635 1.57988 0
M  V30 3126 H 281.637 -6.56912 2.31169 0
M  V30 3127 H 279.264 -7.05584 2.8294 0
M  V30 3128 N 280.839 0.0985539 -1.57292 0
M  V30 3129 C 281.749 1.13824 -2.05137 0
M  V30 3130 C 282.765 1.44076 -0.975604 0
M  V30 3131 O 283.941 1.54786 -1.28853 0
M  V30 3132 C 281.006 2.43969 -2.46333 0
M  V30 3133 C 280.067 2.2093 -3.68087 0
M  V30 3134 C 279.3 3.44869 -4.0731 0
M  V30 3135 O 279.523 4.52972 -3.46659 0
M  V30 3136 O 278.457 3.34661 -5.00285 0
M  V30 3137 H 282.283 0.761881 -2.93988 0
M  V30 3138 H 279.868 0.310818 -1.46131 0
M  V30 3139 H 281.75 3.20609 -2.73473 0
M  V30 3140 H 280.425 2.81038 -1.60621 0
M  V30 3141 H 279.332 1.42081 -3.46069 0
M  V30 3142 H 280.665 1.88755 -4.54568 0
M  V30 3143 N 282.317 1.53212 0.369288 0
M  V30 3144 C 283.563 1.69466 1.11397 0
M  V30 3145 C 283.896 0.443257 1.89074 0
M  V30 3146 O 283.171 -0.559386 1.86282 0
M  V30 3147 C 283.454 2.9422 2.07621 0
M  V30 3148 C 283.307 4.29508 1.33577 0
M  V30 3149 C 284.626 3.14565 3.07794 0
M  V30 3150 H 281.745 0.616667 0.403597 0
M  V30 3151 H 284.387 1.85845 0.395179 0
M  V30 3152 H 282.537 2.80387 2.68916 0
M  V30 3153 H 284.209 4.55147 0.750955 0
M  V30 3154 H 282.452 4.29088 0.637618 0
M  V30 3155 H 283.123 5.12926 2.03989 0
M  V30 3156 H 285.599 3.2756 2.56601 0
M  V30 3157 H 284.475 4.03297 3.72348 0
M  V30 3158 H 284.736 2.29675 3.77759 0
M  V30 3159 N 283.795 -0.628877 1.44509 0
M  V30 3160 C 285.044 -1.38437 1.4669 0
M  V30 3161 C 285.357 -1.95322 0.104272 0
M  V30 3162 O 286.563 -2.715 0.00362163 0
M  V30 3163 C 285.019 -2.50659 2.5826 0
M  V30 3164 C 284.627 -2.00277 4.0074 0
M  V30 3165 C 286.371 -3.27844 2.69664 0
M  V30 3166 C 284.278 -3.09854 5.0373 0
M  V30 3167 H 283.208 -0.520245 0.545766 0
M  V30 3168 H 285.859 -0.676313 1.70582 0
M  V30 3169 H 284.241 -3.2405 2.27612 0
M  V30 3170 H 285.415 -1.33736 4.40966 0
M  V30 3171 H 283.73 -1.35901 3.93599 0
M  V30 3172 H 286.327 -4.09534 3.43781 0
M  V30 3173 H 286.67 -3.77471 1.75559 0
M  V30 3174 H 287.203 -2.61543 2.99733 0
M  V30 3175 H 283.942 -2.65168 5.99472 0
M  V30 3176 H 283.462 -3.7503 4.68095 0
M  V30 3177 H 285.141 -3.74592 5.27532 0
M  V30 3178 N 285.273 -1.31445 -0.869486 0
M  V30 3179 C 286.522 -1.20517 -1.61736 0
M  V30 3180 C 286.835 0.235341 -1.94179 0
M  V30 3181 O 288.041 0.466312 -2.67465 0
M  V30 3182 C 286.497 -2.10982 -2.91573 0
M  V30 3183 C 286.105 -3.60032 -2.66611 0
M  V30 3184 C 287.849 -2.08856 -3.69567 0
M  V30 3185 C 285.756 -4.42503 -3.92358 0
M  V30 3186 H 284.686 -0.447493 -0.606849 0
M  V30 3187 H 287.337 -1.56303 -0.96133 0
M  V30 3188 H 285.719 -1.68095 -3.58553 0
M  V30 3189 H 286.893 -4.11167 -2.08035 0
M  V30 3190 H 285.208 -3.64139 -2.0197 0
M  V30 3191 H 287.805 -2.67716 -4.62852 0
M  V30 3192 H 288.148 -1.07582 -4.02159 0
M  V30 3193 H 288.681 -2.49945 -3.09471 0
M  V30 3194 H 285.42 -5.44533 -3.64916 0
M  V30 3195 H 284.94 -3.96125 -4.50383 0
M  V30 3196 H 286.619 -4.54741 -4.60238 0
M  V30 3197 N 286.751 1.08385 -1.14413 0
M  V30 3198 C 288.167 1.32844 -0.884563 0
M  V30 3199 C 288.367 1.95841 0.474181 0
M  V30 3200 O 287.423 2.21158 1.21842 0
M  V30 3201 C 288.736 2.22978 -2.01745 0
M  V30 3202 C 290.284 2.36458 -2.05077 0
M  V30 3203 C 290.759 3.29934 -3.1766 0
M  V30 3204 N 292.25 3.37511 -3.17239 0
M  V30 3205 C 292.985 4.09871 -4.0099 0
M  V30 3206 N 292.481 4.84936 -4.94781 0
M  V30 3207 N 294.274 4.05704 -3.89051 0
M  V30 3208 H 286.425 0.658756 -2.01926 0
M  V30 3209 H 288.688 0.352821 -0.879899 0
M  V30 3210 H 288.394 1.83934 -2.99769 0
M  V30 3211 H 288.268 3.23441 -1.94077 0
M  V30 3212 H 290.655 2.7476 -1.0766 0
M  V30 3213 H 290.736 1.35736 -2.16816 0
M  V30 3214 H 290.38 2.92352 -4.15322 0
M  V30 3215 H 290.31 4.30584 -3.03158 0
M  V30 3216 H 292.801 2.83996 -2.49308 0
M  V30 3217 H 293.114 5.37612 -5.55151 0
M  V30 3218 H 291.459 4.83988 -4.98779 0
M  V30 3219 H 294.65 3.46167 -3.15097 0
M  V30 3220 H 294.823 4.61834 -4.54547 0
M  V30 3221 N 288.23 0.939286 1.26551 0
M  V30 3222 C 289.46 0.601663 1.97645 0
M  V30 3223 C 289.868 -0.827206 1.70159 0
M  V30 3224 O 289.211 -1.56291 0.965338 0
M  V30 3225 C 289.273 0.761725 3.51337 0
M  V30 3226 C 288.937 2.16487 4.0247 0
M  V30 3227 C 289.934 3.14016 4.14355 0
M  V30 3228 C 287.619 2.48494 4.36527 0
M  V30 3229 C 289.613 4.41654 4.59587 0
M  V30 3230 C 287.3 3.76364 4.81449 0
M  V30 3231 C 288.298 4.72758 4.92939 0
M  V30 3232 O 287.986 5.98352 5.36871 0
M  V30 3233 H 287.718 0.225758 0.637189 0
M  V30 3234 H 290.272 1.26178 1.62075 0
M  V30 3235 H 288.502 0.0444808 3.86674 0
M  V30 3236 H 290.191 0.427442 4.03643 0
M  V30 3237 H 290.957 2.90613 3.8829 0
M  V30 3238 H 286.836 1.74202 4.26819 0
M  V30 3239 H 290.38 5.16896 4.68471 0
M  V30 3240 H 286.277 3.99582 5.06956 0
M  V30 3241 H 287.045 6.01507 5.55096 0
M  V30 3242 N 289.708 -1.40897 0.706093 0
M  V30 3243 C 290.933 -2.05895 0.249435 0
M  V30 3244 C 291.358 -1.52823 -1.09666 0
M  V30 3245 O 290.716 -0.659589 -1.68876 0
M  V30 3246 C 290.764 -3.59872 0.22904 0
M  V30 3247 O 289.868 -4.04708 -0.792784 0
M  V30 3248 H 289.209 -0.653206 0.119241 0
M  V30 3249 H 291.739 -1.80471 0.96391 0
M  V30 3250 H 291.749 -4.07951 0.0634791 0
M  V30 3251 H 290.424 -3.97866 1.21141 0
M  V30 3252 H 289.001 -3.68111 -0.59572 0
M  V30 3253 N 291.186 -0.45159 -1.50991 0
M  V30 3254 C 292.597 0.00818571 -1.86698 0
M  V30 3255 C 292.948 1.40661 -1.3678 0
M  V30 3256 O 292.073 2.0391 -0.724546 0
M  V30 3257 C 292.668 0.0216303 -3.38793 0
M  V30 3258 C 291.227 0.425865 -3.73983 0
M  V30 3259 C 290.374 -0.372163 -2.74791 0
M  V30 3260 H 293.325 -0.666785 -1.44013 0
M  V30 3261 H 293.346 0.828078 -3.7138 0
M  V30 3262 H 292.858 -0.996288 -3.75094 0
M  V30 3263 H 290.959 1.44886 -3.43277 0
M  V30 3264 H 291.072 0.140761 -4.78893 0
M  V30 3265 H 289.436 0.171498 -2.54122 0
M  V30 3266 H 290.219 -1.38922 -3.13935 0
M  V30 3267 N 292.664 1.56529 -0.183458 0
M  V30 3268 C 293.594 2.21549 0.737456 0
M  V30 3269 C 294.575 1.17489 1.23005 0
M  V30 3270 O 295.76 1.45959 1.281 0
M  V30 3271 C 292.89 2.86575 1.96194 0
M  V30 3272 C 291.844 3.96778 1.60473 0
M  V30 3273 C 291.17 4.48911 2.90487 0
M  V30 3274 C 292.47 5.15767 0.823497 0
M  V30 3275 H 294.164 2.98761 0.195453 0
M  V30 3276 H 291.71 1.43702 0.0925686 0
M  V30 3277 H 293.663 3.30739 2.61131 0
M  V30 3278 H 292.387 2.06749 2.52828 0
M  V30 3279 H 291.046 3.53286 0.978997 0
M  V30 3280 H 290.694 3.65862 3.45186 0
M  V30 3281 H 290.394 5.23265 2.67335 0
M  V30 3282 H 291.918 4.95771 3.56432 0
M  V30 3283 H 293.332 5.56549 1.37571 0
M  V30 3284 H 291.729 5.96114 0.690551 0
M  V30 3285 H 292.799 4.84574 -0.177782 0
M  V30 3286 N 294.142 -0.090211 1.57342 0
M  V30 3287 C 295.419 -0.824761 1.77361 0
M  V30 3288 C 295.799 -1.96698 0.76637 0
M  V30 3289 O 295.147 -2.27586 -0.204179 0
M  V30 3290 C 295.357 -1.31481 3.23286 0
M  V30 3291 C 296.705 -1.75563 3.86604 0
M  V30 3292 O 297.729 -1.41093 3.27065 0
M  V30 3293 O 296.588 -2.39317 4.91314 0
M  V30 3294 H 293.682 -0.393776 0.727234 0
M  V30 3295 H 296.228 -0.0717138 1.69548 0
M  V30 3296 H 295 -0.496671 3.88135 0
M  V30 3297 H 294.623 -2.12973 3.35751 0
M  V30 3298 N 295.62 -1.53406 -0.361157 0
M  V30 3299 C 296.867 -1.69802 -1.10333 0
M  V30 3300 C 297.195 -0.452087 -1.89173 0
M  V30 3301 O 296.45 0.566017 -1.87336 0
M  V30 3302 C 296.749 -2.90211 -2.08596 0
M  V30 3303 C 296.415 -4.26539 -1.46203 0
M  V30 3304 C 295.077 -4.6361 -1.28915 0
M  V30 3305 C 297.429 -5.113 -1.01101 0
M  V30 3306 C 294.757 -5.83075 -0.651157 0
M  V30 3307 C 297.109 -6.31415 -0.387007 0
M  V30 3308 C 295.773 -6.67195 -0.201657 0
M  V30 3309 H 295.043 -0.621351 -0.403737 0
M  V30 3310 H 297.69 -1.87598 -0.384609 0
M  V30 3311 H 295.995 -2.66946 -2.86788 0
M  V30 3312 H 297.692 -3.00091 -2.65982 0
M  V30 3313 H 294.282 -3.97352 -1.60653 0
M  V30 3314 H 298.466 -4.83206 -1.13249 0
M  V30 3315 H 293.722 -6.09385 -0.496006 0
M  V30 3316 H 297.896 -6.96394 -0.0293563 0
M  V30 3317 H 295.523 -7.59628 0.294766 0
M  V30 3318 N 297.098 0.621204 -1.44841 0
M  V30 3319 C 298.347 1.37658 -1.47422 0
M  V30 3320 C 298.66 1.95264 -0.114629 0
M  V30 3321 O 299.866 2.71494 -0.0180199 0
M  V30 3322 C 298.322 2.49285 -2.59586 0
M  V30 3323 C 297.93 1.98149 -4.01797 0
M  V30 3324 C 299.674 3.26409 -2.71399 0
M  V30 3325 C 297.581 3.07178 -5.05367 0
M  V30 3326 H 296.511 0.517344 -0.548517 0
M  V30 3327 H 299.162 0.667257 -1.70938 0
M  V30 3328 H 297.544 3.22839 -2.29328 0
M  V30 3329 H 298.718 1.31395 -4.41669 0
M  V30 3330 H 297.033 1.33812 -3.94314 0
M  V30 3331 H 299.63 4.07706 -3.45948 0
M  V30 3332 H 299.973 3.76535 -1.77559 0
M  V30 3333 H 300.506 2.5995 -3.01116 0
M  V30 3334 H 297.245 2.61985 -6.00869 0
M  V30 3335 H 296.765 3.72542 -4.70077 0
M  V30 3336 H 298.444 3.71789 -5.29511 0
M  V30 3337 N 298.576 1.31904 0.862503 0
M  V30 3338 C 299.987 1.19803 1.43193 0
M  V30 3339 C 300.338 -0.192567 1.95253 0
M  V30 3340 O 299.463 -1.09081 1.86896 0
M  V30 3341 C 300.058 2.16883 2.60283 0
M  V30 3342 C 298.617 2.08692 3.13248 0
M  V30 3343 C 297.764 2.05691 1.85975 0
M  V30 3344 H 300.715 1.43846 0.670365 0
M  V30 3345 H 300.736 1.76278 3.37204 0
M  V30 3346 H 300.248 3.18083 2.22363 0
M  V30 3347 H 298.349 1.10713 3.55771 0
M  V30 3348 H 298.462 2.9815 3.75025 0
M  V30 3349 H 296.826 1.50814 2.05249 0
M  V30 3350 H 297.609 3.08659 1.50282 0
M  V30 3351 N 300.054 -1.07777 1.14986 0
M  V30 3352 C 301.282 -1.84018 0.945773 0
M  V30 3353 C 301.697 -1.81897 -0.505863 0
M  V30 3354 O 301.054 -1.22726 -1.35072 0
M  V30 3355 C 301.105 -3.31287 1.44677 0
M  V30 3356 O 300.826 -3.33449 2.84154 0
M  V30 3357 C 302.327 -4.24311 1.28355 0
M  V30 3358 H 299.547 -0.580716 0.336169 0
M  V30 3359 H 302.091 -1.36077 1.52654 0
M  V30 3360 H 300.246 -3.76594 0.908625 0
M  V30 3361 H 300.66 -4.25427 3.06777 0
M  V30 3362 H 302.134 -5.2573 1.68261 0
M  V30 3363 H 302.611 -4.38612 0.227184 0
M  V30 3364 H 303.217 -3.84836 1.81056 0
M  V30 3365 N 301.532 -0.945985 -1.26051 0
M  V30 3366 C 302.462 -0.477172 -2.28572 0
M  V30 3367 C 303.443 0.472032 -1.63419 0
M  V30 3368 O 304.628 0.372853 -1.90587 0
M  V30 3369 C 301.758 0.253975 -3.4637 0
M  V30 3370 C 300.712 -0.609135 -4.23643 0
M  V30 3371 C 300.038 0.252252 -5.34105 0
M  V30 3372 C 301.338 -1.8829 -4.8718 0
M  V30 3373 H 303.032 -1.33402 -2.68038 0
M  V30 3374 H 300.578 -0.642904 -1.28852 0
M  V30 3375 H 302.531 0.593016 -4.17207 0
M  V30 3376 H 301.255 1.145 -3.05871 0
M  V30 3377 H 299.914 -0.931138 -3.54578 0
M  V30 3378 H 299.562 1.14278 -4.89846 0
M  V30 3379 H 299.262 -0.32188 -5.86718 0
M  V30 3380 H 300.786 0.586454 -6.07777 0
M  V30 3381 H 302.2 -1.61081 -5.50205 0
M  V30 3382 H 300.597 -2.40199 -5.49931 0
M  V30 3383 H 301.667 -2.59134 -4.09851 0
M  V30 3384 N 303.011 1.40521 -0.713556 0
M  V30 3385 C 303.943 2.29191 -0.0203126 0
M  V30 3386 C 304.956 1.45723 0.725864 0
M  V30 3387 O 306.145 1.69033 0.573581 0
M  V30 3388 C 303.245 3.2395 0.995486 0
M  V30 3389 C 302.418 4.36262 0.315256 0
M  V30 3390 C 301.477 5.11474 1.23616 0
M  V30 3391 O 300.503 5.64606 0.721719 0
M  V30 3392 N 301.705 5.20638 2.56743 0
M  V30 3393 H 304.47 2.89327 -0.781652 0
M  V30 3394 H 302.031 1.51869 -0.561022 0
M  V30 3395 H 304.023 3.71137 1.61368 0
M  V30 3396 H 302.593 2.64995 1.6582 0
M  V30 3397 H 301.813 3.91228 -0.483106 0
M  V30 3398 H 303.101 5.08558 -0.157004 0
M  V30 3399 H 302.499 4.7895 3.01037 0
M  V30 3400 H 301.056 5.71339 3.13712 0
M  V30 3401 N 304.489 0.459591 1.5075 0
M  V30 3402 C 305.717 -0.0973749 2.06671 0
M  V30 3403 C 306.132 -1.34524 1.32472 0
M  V30 3404 O 305.489 -1.7827 0.390634 0
M  V30 3405 C 305.54 -0.39714 3.59312 0
M  V30 3406 O 305.261 0.801214 4.30711 0
M  V30 3407 C 306.762 -1.00234 4.31819 0
M  V30 3408 H 303.982 0.00195854 0.670997 0
M  V30 3409 H 306.526 0.645072 1.94059 0
M  V30 3410 H 304.681 -1.08951 3.71764 0
M  V30 3411 H 305.095 0.538857 5.21725 0
M  V30 3412 H 306.569 -1.16193 5.39632 0
M  V30 3413 H 307.046 -1.98939 3.91561 0
M  V30 3414 H 307.652 -0.348699 4.23868 0
M  V30 3415 N 305.967 -1.56429 0.191757 0
M  V30 3416 C 306.93 -2.17707 -0.716688 0
M  V30 3417 C 307.93 -1.13061 -1.14341 0
M  V30 3418 O 309.12 -1.38464 -1.05704 0
M  V30 3419 C 306.252 -2.77644 -1.97804 0
M  V30 3420 H 307.445 -2.99342 -0.1829 0
M  V30 3421 H 304.998 -1.56193 -0.0578566 0
M  V30 3422 H 305.733 -1.99799 -2.55443 0
M  V30 3423 H 305.518 -3.54246 -1.68083 0
M  V30 3424 H 307.008 -3.24708 -2.62592 0
M  V30 3425 N 307.445 0.0818655 -1.57387 0
M  V30 3426 C 308.861 0.436412 -1.53517 0
M  V30 3427 C 309.061 1.79758 -0.910459 0
M  V30 3428 O 308.117 2.47324 -0.508636 0
M  V30 3429 C 309.43 0.386734 -2.98203 0
M  V30 3430 C 310.978 0.467644 -3.09487 0
M  V30 3431 C 311.453 0.447978 -4.55804 0
M  V30 3432 N 312.944 0.508348 -4.60402 0
M  V30 3433 C 313.679 0.515184 -5.71081 0
M  V30 3434 N 313.175 0.477435 -6.91153 0
M  V30 3435 N 314.968 0.560988 -5.59294 0
M  V30 3436 H 307.119 -0.809546 -1.96367 0
M  V30 3437 H 309.382 -0.302733 -0.898363 0
M  V30 3438 H 309.088 -0.546539 -3.47427 0
M  V30 3439 H 308.962 1.20075 -3.57578 0
M  V30 3440 H 311.349 1.39134 -2.60242 0
M  V30 3441 H 311.43 -0.374753 -2.5304 0
M  V30 3442 H 311.074 -0.471826 -5.05704 0
M  V30 3443 H 311.004 1.30777 -5.10103 0
M  V30 3444 H 313.495 0.54218 -3.7399 0
M  V30 3445 H 313.808 0.486299 -7.71268 0
M  V30 3446 H 312.153 0.444278 -6.93579 0
M  V30 3447 H 315.344 0.5881 -4.64391 0
M  V30 3448 H 315.517 0.562846 -6.45551 0
M  V30 3449 N 308.923 1.53595 0.353017 0
M  V30 3450 C 310.151 1.74311 1.1146 0
M  V30 3451 C 310.566 0.477854 1.82653 0
M  V30 3452 O 309.923 -0.549977 1.74016 0
M  V30 3453 C 309.974 2.91694 2.13534 0
M  V30 3454 O 309.695 4.13325 1.45238 0
M  V30 3455 C 311.196 3.24384 3.02142 0
M  V30 3456 H 308.416 0.582669 0.332773 0
M  V30 3457 H 310.96 2.00386 0.408107 0
M  V30 3458 H 309.115 2.67977 2.79763 0
M  V30 3459 H 309.529 4.79148 2.13349 0
M  V30 3460 H 311.003 4.09893 3.69718 0
M  V30 3461 H 311.48 2.40282 3.67643 0
M  V30 3462 H 312.086 3.50073 2.41514 0
M  V30 3463 N 310.401 -0.613514 1.45168 0
M  V30 3464 C 311.331 -1.7354 1.56225 0
M  V30 3465 C 312.312 -1.64981 0.41414 0
M  V30 3466 O 313.497 -1.83472 0.636526 0
M  V30 3467 C 310.627 -3.12128 1.52295 0
M  V30 3468 C 309.581 -3.35491 2.65762 0
M  V30 3469 C 308.907 -4.74291 2.46885 0
M  V30 3470 C 310.207 -3.26325 4.0781 0
M  V30 3471 H 311.901 -1.64543 2.50132 0
M  V30 3472 H 309.447 -0.790185 1.20383 0
M  V30 3473 H 311.4 -3.90404 1.58628 0
M  V30 3474 H 310.124 -3.2195 0.549139 0
M  V30 3475 H 308.783 -2.59603 2.58847 0
M  V30 3476 H 308.431 -4.80839 1.47657 0
M  V30 3477 H 308.131 -4.9088 3.22972 0
M  V30 3478 H 309.655 -5.54775 2.55063 0
M  V30 3479 H 311.069 -3.94483 4.16 0
M  V30 3480 H 309.466 -3.54445 4.8424 0
M  V30 3481 H 310.536 -2.23855 4.30136 0
M  V30 3482 N 311.879 -1.3236 -0.855495 0
M  V30 3483 C 313.295 -1.11332 -1.14356 0
M  V30 3484 C 313.495 0.106751 -2.01217 0
M  V30 3485 O 312.551 0.791891 -2.39761 0
M  V30 3486 C 313.864 -2.39237 -1.82171 0
M  V30 3487 C 315.412 -2.44986 -1.9481 0
M  V30 3488 C 315.887 -3.7281 -2.66039 0
M  V30 3489 N 317.378 -3.73787 -2.73565 0
M  V30 3490 C 318.113 -4.69394 -3.29327 0
M  V30 3491 N 317.609 -5.75367 -3.85907 0
M  V30 3492 N 319.402 -4.56893 -3.27423 0
M  V30 3493 H 311.553 -2.10586 -0.277027 0
M  V30 3494 H 313.816 -0.929701 -0.185364 0
M  V30 3495 H 313.522 -3.28431 -1.25802 0
M  V30 3496 H 313.396 -2.50134 -2.82335 0
M  V30 3497 H 315.783 -1.56252 -2.50338 0
M  V30 3498 H 315.864 -2.38043 -0.936448 0
M  V30 3499 H 315.508 -4.61918 -2.11174 0
M  V30 3500 H 315.438 -3.77024 -3.67642 0
M  V30 3501 H 317.929 -2.97189 -2.33424 0
M  V30 3502 H 318.242 -6.44378 -4.26611 0
M  V30 3503 H 316.587 -5.79123 -3.84242 0
M  V30 3504 H 319.778 -3.73269 -2.82467 0
M  V30 3505 H 319.951 -5.31577 -3.7058 0
M  V30 3506 N 313.357 1.07166 -1.15556 0
M  V30 3507 C 314.606 1.79181 -0.926132 0
M  V30 3508 C 314.919 1.87768 0.547967 0
M  V30 3509 O 316.125 2.56323 0.895036 0
M  V30 3510 C 314.581 3.22 -1.60761 0
M  V30 3511 C 314.189 3.21607 -3.11886 0
M  V30 3512 C 315.933 3.9861 -1.4598 0
M  V30 3513 C 313.84 4.59092 -3.72812 0
M  V30 3514 H 312.77 0.67154 -0.342856 0
M  V30 3515 H 315.421 1.2027 -1.3859 0
M  V30 3516 H 313.803 3.81115 -1.07553 0
M  V30 3517 H 314.977 2.72127 -3.71865 0
M  V30 3518 H 313.292 2.58495 -3.2645 0
M  V30 3519 H 315.889 5.00225 -1.88888 0
M  V30 3520 H 316.232 4.143 -0.407541 0
M  V30 3521 H 316.765 3.45996 -1.96295 0
M  V30 3522 H 313.504 4.48606 -4.77946 0
M  V30 3523 H 313.024 5.08803 -3.17616 0
M  V30 3524 H 314.703 5.28059 -3.73848 0
M  V30 3525 N 314.835 0.952656 1.25548 0
M  V30 3526 C 315.765 0.489287 2.28316 0
M  V30 3527 C 316.746 -0.463359 1.63667 0
M  V30 3528 O 317.931 -0.36274 1.90782 0
M  V30 3529 C 315.061 -0.235603 3.465 0
M  V30 3530 C 314.015 0.631593 4.23314 0
M  V30 3531 C 313.341 -0.223923 5.34231 0
M  V30 3532 C 314.641 1.90871 4.86174 0
M  V30 3533 H 316.335 1.34822 2.67326 0
M  V30 3534 H 313.881 0.649728 1.28509 0
M  V30 3535 H 315.834 -0.570882 4.17515 0
M  V30 3536 H 314.558 -1.12877 3.06474 0
M  V30 3537 H 313.217 0.949929 3.54079 0
M  V30 3538 H 312.865 -1.11678 4.90446 0
M  V30 3539 H 312.565 0.35299 5.86539 0
M  V30 3540 H 314.089 -0.554214 6.0808 0
M  V30 3541 H 315.503 1.63997 5.49343 0
M  V30 3542 H 313.9 2.43112 5.4865 0
M  V30 3543 H 314.97 2.61304 4.08471 0
M  V30 3544 N 316.313 -1.40141 0.720998 0
M  V30 3545 C 317.26 -2.30688 0.071919 0
M  V30 3546 C 318.23 -1.48476 -0.744584 0
M  V30 3547 O 319.415 -1.77201 -0.707423 0
M  V30 3548 C 316.555 -3.34724 -0.839855 0
M  V30 3549 C 315.668 -4.31998 -0.0122438 0
M  V30 3550 C 314.803 -5.23102 -0.923995 0
M  V30 3551 C 313.842 -6.12033 -0.0907969 0
M  V30 3552 N 312.979 -6.95537 -0.957718 0
M  V30 3553 H 317.819 -2.85628 0.849755 0
M  V30 3554 H 315.356 -1.40653 0.430726 0
M  V30 3555 H 317.314 -3.93618 -1.38279 0
M  V30 3556 H 315.944 -2.81274 -1.58381 0
M  V30 3557 H 314.996 -3.74841 0.64794 0
M  V30 3558 H 316.308 -4.94772 0.632595 0
M  V30 3559 H 315.462 -5.86953 -1.53527 0
M  V30 3560 H 314.201 -4.60615 -1.60264 0
M  V30 3561 H 313.206 -5.47207 0.533377 0
M  V30 3562 H 314.431 -6.76581 0.584428 0
M  V30 3563 H 312.377 -6.35633 -1.62192 0
M  V30 3564 H 312.294 -7.55099 -0.36904 0
M  V30 3565 H 313.562 -7.63832 -1.555 0
M  V30 3566 N 317.792 -0.46758 -1.50504 0
M  V30 3567 C 319.041 0.0902868 -2.01498 0
M  V30 3568 C 319.354 1.411 -1.35463 0
M  V30 3569 O 320.56 2.0536 -1.77594 0
M  V30 3570 C 319.016 0.21142 -3.59278 0
M  V30 3571 C 318.624 -1.10065 -4.34269 0
M  V30 3572 C 320.368 0.721433 -4.18325 0
M  V30 3573 C 318.275 -0.943505 -5.83825 0
M  V30 3574 H 317.205 0.037517 -0.753066 0
M  V30 3575 H 319.856 -0.601943 -1.73346 0
M  V30 3576 H 318.238 0.967352 -3.84003 0
M  V30 3577 H 319.412 -1.86726 -4.21272 0
M  V30 3578 H 317.727 -1.5415 -3.86816 0
M  V30 3579 H 320.324 0.85598 -5.27804 0
M  V30 3580 H 320.667 1.71186 -3.79475 0
M  V30 3581 H 321.2 0.0229843 -3.97793 0
M  V30 3582 H 317.939 -1.90719 -6.27141 0
M  V30 3583 H 317.459 -0.217213 -5.99407 0
M  V30 3584 H 319.138 -0.608715 -6.4413 0
M  V30 3585 N 319.27 1.56325 -0.20005 0
M  V30 3586 C 320.519 1.96895 0.437652 0
M  V30 3587 C 320.832 1.08999 1.62415 0
M  V30 3588 O 322.038 1.39372 2.32997 0
M  V30 3589 C 320.494 3.50198 0.830025 0
M  V30 3590 C 320.102 4.46765 -0.332461 0
M  V30 3591 C 321.846 3.99526 1.43453 0
M  V30 3592 C 319.753 5.91344 0.0811468 0
M  V30 3593 H 318.683 0.735209 0.167282 0
M  V30 3594 H 321.334 1.81148 -0.292853 0
M  V30 3595 H 319.716 3.61467 1.61734 0
M  V30 3596 H 320.89 4.47231 -1.11 0
M  V30 3597 H 319.205 4.07657 -0.848789 0
M  V30 3598 H 321.802 5.05025 1.75652 0
M  V30 3599 H 322.145 3.44122 2.34277 0
M  V30 3600 H 322.678 3.91393 0.71109 0
M  V30 3601 H 319.417 6.50685 -0.793033 0
M  V30 3602 H 318.937 5.94121 0.823445 0
M  V30 3603 H 320.616 6.44945 0.515252 0
M  V30 3604 N 320.748 -0.0735177 1.57428 0
M  V30 3605 C 322.159 -0.625551 1.75908 0
M  V30 3606 C 322.51 -1.78 0.825261 0
M  V30 3607 O 321.635 -2.16398 0.00893964 0
M  V30 3608 C 322.23 -1.14155 3.18989 0
M  V30 3609 C 320.789 -1.63946 3.38819 0
M  V30 3610 C 319.936 -0.558151 2.71625 0
M  V30 3611 H 322.887 0.152647 1.57964 0
M  V30 3612 H 322.908 -2.0104 3.23053 0
M  V30 3613 H 322.42 -0.301116 3.8693 0
M  V30 3614 H 320.521 -2.50321 2.7599 0
M  V30 3615 H 320.634 -1.71759 4.47253 0
M  V30 3616 H 318.998 -1.00278 2.34129 0
M  V30 3617 H 319.781 0.272071 3.4222 0
M  V30 3618 N 322.226 -1.5378 -0.344866 0
M  V30 3619 C 323.156 -1.84662 -1.42906 0
M  V30 3620 C 324.137 -0.701648 -1.54955 0
M  V30 3621 O 325.322 -0.953438 -1.69184 0
M  V30 3622 C 322.452 -2.05503 -2.79974 0
M  V30 3623 C 321.406 -3.21318 -2.82734 0
M  V30 3624 C 320.732 -3.2749 -4.22675 0
M  V30 3625 C 322.032 -4.59456 -2.48389 0
M  V30 3626 H 323.726 -2.75461 -1.17311 0
M  V30 3627 H 321.272 -1.32542 -0.562896 0
M  V30 3628 H 323.225 -2.25691 -3.55867 0
M  V30 3629 H 321.949 -1.11434 -3.07002 0
M  V30 3630 H 320.608 -3.00984 -2.09294 0
M  V30 3631 H 320.256 -2.31019 -4.4681 0
M  V30 3632 H 319.956 -4.05316 -4.25433 0
M  V30 3633 H 321.48 -3.49887 -5.00412 0
M  V30 3634 H 322.894 -4.79667 -3.13995 0
M  V30 3635 H 321.291 -5.39675 -2.62432 0
M  V30 3636 H 322.361 -4.63155 -1.4358 0
M  V30 3637 N 323.704 0.605807 -1.45491 0
M  V30 3638 C 324.652 1.73754 -1.54636 0
M  V30 3639 C 325.646 1.64207 -0.416219 0
M  V30 3640 O 326.852 1.69979 -0.592199 0
M  V30 3641 H 323.227 0.574073 -0.485741 0
M  V30 3642 H 325.198 1.63169 -2.49837 0
M  V30 3643 C 323.947 3.12135 -1.53189 0
M  V30 3644 H 323.27 3.20141 -2.39478 0
M  V30 3645 H 324.71 3.91147 -1.63645 0
M  V30 3646 C 323.169 3.35921 -0.256616 0
M  V30 3647 O 323.699 3.96194 0.662798 0
M  V30 3648 N 321.905 2.90204 -0.151751 0
M  V30 3649 H 321.452 2.41336 -0.90081 0
M  V30 3650 H 321.41 3.06492 0.700699 0
M  V30 3651 N 325.182 1.32811 0.848464 0
M  V30 3652 C 326.114 1.18095 1.96433 0
M  V30 3653 C 327.127 0.114354 1.62398 0
M  V30 3654 O 328.316 0.363892 1.74751 0
M  V30 3655 C 325.416 0.786798 3.2964 0
M  V30 3656 C 324.589 1.943 3.91875 0
M  V30 3657 C 323.648 1.53138 5.03423 0
M  V30 3658 O 322.674 2.24432 5.23086 0
M  V30 3659 N 323.876 0.430915 5.78898 0
M  V30 3660 H 326.641 2.14218 2.09597 0
M  V30 3661 H 324.202 1.2543 1.02367 0
M  V30 3662 H 326.194 0.493715 4.01677 0
M  V30 3663 H 324.764 -0.0834541 3.12489 0
M  V30 3664 H 323.984 2.40224 3.12547 0
M  V30 3665 H 325.272 2.71689 4.30189 0
M  V30 3666 H 324.67 -0.162333 5.65467 0
M  V30 3667 H 323.227 0.197466 6.51501 0
M  V30 3668 N 326.66 -1.06551 1.16123 0
M  V30 3669 C 327.908 -1.78947 0.939267 0
M  V30 3670 C 328.229 -1.87532 -0.534476 0
M  V30 3671 O 327.499 -1.38211 -1.38833 0
M  V30 3672 H 326.079 -0.662807 0.344523 0
M  V30 3673 H 328.741 -1.28725 1.46342 0
M  V30 3674 H 327.837 -2.81117 1.35572 0
M  V30 3675 N 328.138 -0.959301 -1.25041 0
M  V30 3676 C 329.068 -0.501388 -2.28053 0
M  V30 3677 C 330.049 0.454673 -1.63911 0
M  V30 3678 O 331.234 0.352618 -1.90972 0
M  V30 3679 C 328.364 0.217224 -3.4662 0
M  V30 3680 C 327.318 -0.654034 -4.22973 0
M  V30 3681 C 326.644 0.195589 -5.34342 0
M  V30 3682 C 327.944 -1.93447 -4.85155 0
M  V30 3683 H 329.638 -1.36238 -2.66608 0
M  V30 3684 H 327.184 -0.656534 -1.28163 0
M  V30 3685 H 329.137 0.548732 -4.17812 0
M  V30 3686 H 327.861 1.1125 -3.07068 0
M  V30 3687 H 326.52 -0.968693 -3.5357 0
M  V30 3688 H 326.168 1.09076 -4.91031 0
M  V30 3689 H 325.868 -0.384091 -5.86343 0
M  V30 3690 H 327.392 0.521958 -6.08365 0
M  V30 3691 H 328.806 -1.66908 -5.48466 0
M  V30 3692 H 327.203 -2.46018 -5.47353 0
M  V30 3693 H 328.273 -2.63466 -4.07079 0
M  V30 3694 N 329.616 1.39756 -0.72842 0
M  V30 3695 C 330.563 2.30647 -0.0841519 0
M  V30 3696 C 331.533 1.48869 0.7367 0
M  V30 3697 O 332.718 1.77574 0.698015 0
M  V30 3698 C 329.858 3.35165 0.822091 0
M  V30 3699 C 328.971 4.31999 -0.0106663 0
M  V30 3700 C 328.106 5.23585 0.896241 0
M  V30 3701 C 327.145 6.12072 0.0583381 0
M  V30 3702 N 326.282 6.96035 0.920818 0
M  V30 3703 H 331.122 2.85173 -0.864891 0
M  V30 3704 H 328.659 1.40422 -0.438179 0
M  V30 3705 H 330.617 3.94345 1.36189 0
M  V30 3706 H 329.247 2.8211 1.56888 0
M  V30 3707 H 328.299 3.74492 -0.66781 0
M  V30 3708 H 329.611 4.9443 -0.658825 0
M  V30 3709 H 328.765 5.87759 1.50412 0
M  V30 3710 H 327.504 4.61459 1.57819 0
M  V30 3711 H 326.509 5.46916 -0.562389 0
M  V30 3712 H 327.734 6.76261 -0.6203 0
M  V30 3713 H 325.68 6.36485 1.58818 0
M  V30 3714 H 325.597 7.55284 0.32899 0
M  V30 3715 H 326.865 7.64646 1.51447 0
M  V30 3716 N 331.094 0.475555 1.50254 0
M  V30 3717 C 332.319 -0.0777042 2.07254 0
M  V30 3718 C 332.744 -1.3235 1.3366 0
M  V30 3719 O 332.102 -1.77152 0.385597 0
M  V30 3720 C 332.15 -0.340169 3.58992 0
M  V30 3721 O 331.254 -1.41982 3.87188 0
M  V30 3722 H 330.595 0.0149556 0.663832 0
M  V30 3723 H 333.125 0.667878 1.93392 0
M  V30 3724 H 333.135 -0.579332 4.03866 0
M  V30 3725 H 331.81 0.570167 4.11973 0
M  V30 3726 H 330.387 -1.16762 3.54148 0
M  V30 3727 N 332.573 -1.56217 0.208337 0
M  V30 3728 C 333.503 -2.22694 -0.702116 0
M  V30 3729 C 334.484 -1.19432 -1.2112 0
M  V30 3730 O 335.669 -1.47978 -1.25762 0
M  V30 3731 C 332.799 -2.8966 -1.9161 0
M  V30 3732 C 331.753 -3.9928 -1.5414 0
M  V30 3733 C 331.079 -4.53476 -2.83308 0
M  V30 3734 C 332.379 -5.17012 -0.741339 0
M  V30 3735 H 334.073 -2.99034 -0.147898 0
M  V30 3736 H 331.619 -1.43831 -0.0696951 0
M  V30 3737 H 333.572 -3.34852 -2.55836 0
M  V30 3738 H 332.296 -2.10746 -2.49507 0
M  V30 3739 H 330.955 -3.54799 -0.922668 0
M  V30 3740 H 330.603 -3.71308 -3.39322 0
M  V30 3741 H 330.303 -5.27451 -2.58976 0
M  V30 3742 H 331.827 -5.01378 -3.485 0
M  V30 3743 H 333.241 -5.58667 -1.28699 0
M  V30 3744 H 331.638 -5.97137 -0.595627 0
M  V30 3745 H 332.708 -4.8423 0.254851 0
M  V30 3746 N 334.051 0.0651679 -1.57465 0
M  V30 3747 C 335.297 0.764193 -1.87851 0
M  V30 3748 C 335.63 1.76889 -0.801495 0
M  V30 3749 O 334.905 1.93594 0.187528 0
M  V30 3750 C 335.188 1.46625 -3.28897 0
M  V30 3751 C 335.041 0.477515 -4.47258 0
M  V30 3752 C 336.36 2.4095 -3.68281 0
M  V30 3753 H 333.479 0.276351 -0.683227 0
M  V30 3754 H 336.121 0.0272868 -1.8998 0
M  V30 3755 H 334.271 2.09438 -3.27212 0
M  V30 3756 H 335.943 -0.145922 -4.61069 0
M  V30 3757 H 334.186 -0.206576 -4.33308 0
M  V30 3758 H 334.857 1.0065 -5.42746 0
M  V30 3759 H 337.333 1.88209 -3.71102 0
M  V30 3760 H 336.209 2.87072 -4.67847 0
M  V30 3761 H 336.47 3.26049 -2.98571 0
M  V30 3762 N 335.529 1.53961 0.336706 0
M  V30 3763 C 336.777 1.71197 1.07405 0
M  V30 3764 C 337.098 0.481475 1.88962 0
M  V30 3765 O 336.368 -0.504585 1.8929 0
M  V30 3766 H 334.948 0.631185 0.399517 0
M  V30 3767 H 337.61 1.91232 0.376323 0
M  V30 3768 H 336.706 2.58587 1.74755 0
M  V30 3769 N 337.007 -0.598083 1.45811 0
M  V30 3770 C 338.253 -1.35882 1.50545 0
M  V30 3771 C 338.586 -1.93616 0.150445 0
M  V30 3772 O 337.861 -1.75604 -0.83628 0
M  V30 3773 C 338.144 -2.49966 2.59208 0
M  V30 3774 C 337.997 -1.97367 4.04186 0
M  V30 3775 C 339.316 -3.52068 2.64076 0
M  V30 3776 H 336.435 -0.492717 0.548087 0
M  V30 3777 H 339.077 -0.673319 1.77669 0
M  V30 3778 H 337.227 -3.08443 2.3621 0
M  V30 3779 H 338.899 -1.43466 4.38423 0
M  V30 3780 H 337.142 -1.283 4.14393 0
M  V30 3781 H 337.813 -2.79649 4.75921 0
M  V30 3782 H 340.289 -3.03448 2.84708 0
M  V30 3783 H 339.165 -4.2937 3.41954 0
M  V30 3784 H 339.426 -4.08304 1.69531 0
M  V30 3785 N 338.485 -1.33259 -0.841409 0
M  V30 3786 C 339.415 -1.25926 -1.96634 0
M  V30 3787 C 340.396 -0.140349 -1.6952 0
M  V30 3788 O 341.581 -0.329707 -1.91381 0
M  V30 3789 C 338.711 -0.99512 -3.32738 0
M  V30 3790 C 337.665 -2.0767 -3.74242 0
M  V30 3791 C 336.991 -1.66474 -5.08125 0
M  V30 3792 C 338.291 -3.49318 -3.88297 0
M  V30 3793 H 339.985 -2.20046 -2.03027 0
M  V30 3794 H 337.531 -1.05931 -0.975425 0
M  V30 3795 H 339.484 -0.930323 -4.11002 0
M  V30 3796 H 338.208 -0.0183004 -3.26595 0
M  V30 3797 H 336.867 -2.13187 -2.98239 0
M  V30 3798 H 336.515 -0.675012 -4.9845 0
M  V30 3799 H 336.215 -2.3885 -5.36865 0
M  V30 3800 H 337.739 -1.61455 -5.88867 0
M  V30 3801 H 339.153 -3.46316 -4.56879 0
M  V30 3802 H 337.55 -4.20158 -4.28471 0
M  V30 3803 H 338.62 -3.8801 -2.9082 0
M  V30 3804 N 339.963 1.05934 -1.16686 0
M  V30 3805 C 341.212 1.78188 -0.945085 0
M  V30 3806 C 341.525 1.88338 0.528021 0
M  V30 3807 O 342.731 2.57258 0.867799 0
M  V30 3808 C 341.187 3.20277 -1.64167 0
M  V30 3809 C 340.795 3.18281 -3.15279 0
M  V30 3810 C 342.539 3.97039 -1.502 0
M  V30 3811 C 340.446 4.55112 -3.7766 0
M  V30 3812 H 339.376 0.667866 -0.349959 0
M  V30 3813 H 342.027 1.18794 -1.39858 0
M  V30 3814 H 340.409 3.79952 -1.11589 0
M  V30 3815 H 341.583 2.68167 -3.74731 0
M  V30 3816 H 339.898 2.55018 -3.29173 0
M  V30 3817 H 342.495 4.98194 -1.94183 0
M  V30 3818 H 342.838 4.13845 -0.451461 0
M  V30 3819 H 343.371 3.43894 -1.99954 0
M  V30 3820 H 340.11 4.43512 -4.82677 0
M  V30 3821 H 339.63 5.05406 -3.22994 0
M  V30 3822 H 341.309 5.24064 -3.79428 0
M  V30 3823 N 341.441 0.965919 1.2453 0
M  V30 3824 C 342.391 0.465731 2.23193 0
M  V30 3825 C 343.375 -0.451277 1.54442 0
M  V30 3826 O 344.567 -0.282489 1.74731 0
M  V30 3827 C 341.696 -0.244511 3.42428 0
M  V30 3828 C 340.782 0.691222 4.18429 0
M  V30 3829 N 341.173 1.82771 4.71623 0
M  V30 3830 C 339.471 0.501649 4.4317 0
M  V30 3831 C 340.172 2.41285 5.29298 0
M  V30 3832 N 339.148 1.69819 5.16394 0
M  V30 3833 H 342.95 1.33291 2.61937 0
M  V30 3834 H 340.464 0.824789 1.39896 0
M  V30 3835 H 342.461 -0.620056 4.12263 0
M  V30 3836 H 341.121 -1.10815 3.05205 0
M  V30 3837 H 342.132 2.20929 4.68413 0
M  V30 3838 H 338.809 -0.318177 4.16286 0
M  V30 3839 H 340.199 3.37181 5.8117 0
M  V30 3840 N 342.919 -1.39368 0.735821 0
M  V30 3841 C 344.159 -2.02349 0.288813 0
M  V30 3842 C 344.523 -1.57127 -1.10341 0
M  V30 3843 O 345.724 -2.12312 -1.64854 0
M  V30 3844 C 343.995 -3.55288 0.387986 0
M  V30 3845 S 345.554 -4.38795 0.0209408 0
M  V30 3846 H 342.372 -0.701944 0.113115 0
M  V30 3847 H 344.974 -1.70164 0.962518 0
M  V30 3848 H 343.678 -3.85691 1.40252 0
M  V30 3849 H 343.209 -3.92227 -0.303512 0
M  V30 3850 H 345.224 -4.81595 -1.19503 0
M  V30 3851 N 344.397 -0.483516 -1.5 0
M  V30 3852 C 345.327 0.293829 -2.31644 0
M  V30 3853 C 346.308 0.978864 -1.39112 0
M  V30 3854 O 347.493 0.973644 -1.68029 0
M  V30 3855 C 344.623 1.36897 -3.19181 0
M  V30 3856 C 343.577 0.804833 -4.20365 0
M  V30 3857 C 342.903 1.9792 -4.96721 0
M  V30 3858 C 344.203 -0.192313 -5.21946 0
M  V30 3859 H 345.897 -0.387616 -2.9688 0
M  V30 3860 H 343.443 -0.187856 -1.42769 0
M  V30 3861 H 345.396 1.92037 -3.751 0
M  V30 3862 H 344.12 2.07936 -2.51853 0
M  V30 3863 H 342.779 0.275319 -3.65565 0
M  V30 3864 H 342.427 2.67686 -4.25856 0
M  V30 3865 H 342.127 1.60789 -5.65173 0
M  V30 3866 H 343.651 2.53526 -5.55479 0
M  V30 3867 H 345.065 0.270333 -5.72662 0
M  V30 3868 H 343.462 -0.478543 -5.98189 0
M  V30 3869 H 344.532 -1.11409 -4.71928 0
M  V30 3870 N 345.875 1.56104 -0.216619 0
M  V30 3871 C 346.822 2.2007 0.695531 0
M  V30 3872 C 347.792 1.15471 1.19397 0
M  V30 3873 O 348.977 1.43807 1.25396 0
M  V30 3874 C 346.117 2.88073 1.90021 0
M  V30 3875 C 345.23 4.07253 1.44113 0
M  V30 3876 C 344.365 4.63052 2.603 0
M  V30 3877 C 343.404 5.74545 2.11103 0
M  V30 3878 N 342.541 6.24656 3.20545 0
M  V30 3879 H 347.381 2.97655 0.143327 0
M  V30 3880 H 344.918 1.46982 0.0589934 0
M  V30 3881 H 346.876 3.25681 2.60745 0
M  V30 3882 H 345.506 2.13015 2.42538 0
M  V30 3883 H 344.558 3.75164 0.628999 0
M  V30 3884 H 345.87 4.8783 1.04036 0
M  V30 3885 H 345.024 5.03078 3.39113 0
M  V30 3886 H 343.763 3.81628 3.03663 0
M  V30 3887 H 342.768 5.34027 1.3075 0
M  V30 3888 H 343.993 6.57801 1.68746 0
M  V30 3889 H 341.939 5.46148 3.63399 0
M  V30 3890 H 341.856 7.00343 2.84704 0
M  V30 3891 H 343.124 6.69338 3.99508 0
M  V30 3892 N 347.353 -0.0568162 1.57498 0
M  V30 3893 C 348.285 -1.09292 2.01464 0
M  V30 3894 C 349.298 -1.34112 0.922913 0
M  V30 3895 O 350.487 -1.32089 1.20062 0
M  V30 3896 C 347.587 -2.44068 2.35125 0
M  V30 3897 C 346.76 -2.38995 3.66333 0
M  V30 3898 C 345.819 -3.55997 3.87495 0
M  V30 3899 O 344.845 -3.36746 4.58901 0
M  V30 3900 N 346.047 -4.76888 3.30996 0
M  V30 3901 H 348.812 -0.718386 2.90963 0
M  V30 3902 H 346.373 -0.245235 1.60032 0
M  V30 3903 H 348.365 -3.21011 2.46443 0
M  V30 3904 H 346.935 -2.73468 1.5144 0
M  V30 3905 H 346.155 -1.47336 3.65631 0
M  V30 3906 H 347.443 -2.3272 4.52458 0
M  V30 3907 H 346.841 -4.95431 2.73065 0
M  V30 3908 H 345.398 -5.51291 3.47738 0
M  V30 3909 N 348.832 -1.54138 -0.328536 0
M  V30 3910 C 349.762 -1.86167 -1.40939 0
M  V30 3911 C 350.743 -0.718044 -1.54202 0
M  V30 3912 O 351.928 -0.971328 -1.68163 0
M  V30 3913 C 349.058 -2.08461 -2.77779 0
M  V30 3914 C 348.012 -3.24299 -2.7931 0
M  V30 3915 C 347.338 -3.31955 -4.19178 0
M  V30 3916 C 348.638 -4.62065 -2.43502 0
M  V30 3917 H 350.332 -2.76689 -1.14383 0
M  V30 3918 H 347.878 -1.33132 -0.548806 0
M  V30 3919 H 349.831 -2.29453 -3.53454 0
M  V30 3920 H 348.555 -1.14684 -3.05802 0
M  V30 3921 H 347.214 -3.03187 -2.0609 0
M  V30 3922 H 346.862 -2.35745 -4.44335 0
M  V30 3923 H 346.562 -4.09805 -4.2111 0
M  V30 3924 H 348.086 -3.55175 -4.96672 0
M  V30 3925 H 349.5 -4.8297 -3.08889 0
M  V30 3926 H 347.897 -5.42429 -2.56693 0
M  V30 3927 H 348.967 -4.64652 -1.38659 0
M  V30 3928 N 350.31 0.590341 -1.46126 0
M  V30 3929 C 351.559 1.34499 -1.50309 0
M  V30 3930 C 351.872 1.94977 -0.156021 0
M  V30 3931 O 353.078 2.71395 -0.0756037 0
M  V30 3932 C 351.534 2.43723 -2.64815 0
M  V30 3933 C 351.142 1.89582 -4.0591 0
M  V30 3934 C 352.886 3.20579 -2.78262 0
M  V30 3935 C 350.793 2.9639 -5.11769 0
M  V30 3936 H 349.723 0.505593 -0.559368 0
M  V30 3937 H 352.374 0.630848 -1.72315 0
M  V30 3938 H 350.756 3.17902 -2.36124 0
M  V30 3939 H 351.93 1.21997 -4.44357 0
M  V30 3940 H 350.245 1.25418 -3.97063 0
M  V30 3941 H 352.842 4.00276 -3.54519 0
M  V30 3942 H 353.185 3.72684 -1.85505 0
M  V30 3943 H 353.718 2.53505 -3.06562 0
M  V30 3944 H 350.457 2.49181 -6.06291 0
M  V30 3945 H 349.977 3.62487 -4.77873 0
M  V30 3946 H 351.656 3.60474 -5.37278 0
M  V30 3947 N 351.788 1.33704 0.83433 0
M  V30 3948 C 353.036 1.25169 1.58673 0
M  V30 3949 C 353.357 -0.18127 1.94156 0
M  V30 3950 O 352.627 -1.11113 1.6134 0
M  V30 3951 H 351.207 0.4603 0.58833 0
M  V30 3952 H 353.869 1.67478 0.996847 0
M  V30 3953 H 352.965 1.84856 2.51465 0
M  V30 3954 N 353.266 -1.05314 1.17247 0
M  V30 3955 C 354.512 -1.78557 0.961513 0
M  V30 3956 C 354.845 -1.87419 -0.508697 0
M  V30 3957 O 354.12 -1.37307 -1.37757 0
M  V30 3958 C 354.403 -3.22514 1.60176 0
M  V30 3959 C 354.256 -3.21673 3.14399 0
M  V30 3960 C 355.575 -4.20318 1.30463 0
M  V30 3961 H 352.694 -0.6482 0.350723 0
M  V30 3962 H 355.336 -1.23102 1.44727 0
M  V30 3963 H 353.486 -3.69867 1.18871 0
M  V30 3964 H 355.158 -2.82405 3.64753 0
M  V30 3965 H 353.401 -2.60048 3.47214 0
M  V30 3966 H 354.072 -4.23271 3.54324 0
M  V30 3967 H 356.548 -3.81454 1.66229 0
M  V30 3968 H 355.424 -5.19289 1.77848 0
M  V30 3969 H 355.685 -4.41526 0.22521 0
M  V30 3970 N 354.744 -0.972509 -1.24016 0
M  V30 3971 C 355.993 -0.632603 -1.91523 0
M  V30 3972 C 356.306 0.836641 -1.76804 0
M  V30 3973 O 357.512 1.28728 -2.39043 0
M  V30 3974 C 355.968 -1.08082 -3.43287 0
M  V30 3975 C 355.576 -2.57386 -3.66683 0
M  V30 3976 C 357.32 -0.814288 -4.16617 0
M  V30 3977 C 355.227 -2.95915 -5.12043 0
M  V30 3978 H 354.157 -0.232898 -0.717129 0
M  V30 3979 H 356.808 -1.17936 -1.40582 0
M  V30 3980 H 355.19 -0.462339 -3.93292 0
M  V30 3981 H 356.364 -3.24405 -3.27258 0
M  V30 3982 H 354.679 -2.81701 -3.06649 0
M  V30 3983 H 357.276 -1.0781 -5.23718 0
M  V30 3984 H 357.619 0.24955 -4.15551 0
M  V30 3985 H 358.152 -1.39397 -3.72577 0
M  V30 3986 H 354.891 -4.0139 -5.18234 0
M  V30 3987 H 354.411 -2.33584 -5.52448 0
M  V30 3988 H 356.09 -2.86086 -5.80314 0
M  V30 3989 N 356.222 1.38976 -0.743202 0
M  V30 3990 C 357.471 1.99581 -0.291592 0
M  V30 3991 C 357.784 1.59656 1.13001 0
M  V30 3992 O 358.99 2.13157 1.68156 0
M  V30 3993 C 357.446 3.56813 -0.470391 0
M  V30 3994 C 357.054 4.05695 -1.90041 0
M  V30 3995 C 358.798 4.24423 -0.0809709 0
M  V30 3996 C 356.705 5.5553 -2.02832 0
M  V30 3997 H 355.635 0.746615 -0.105272 0
M  V30 3998 H 358.286 1.58872 -0.918258 0
M  V30 3999 H 356.668 3.95359 0.225299 0
M  V30 4000 H 357.842 3.78464 -2.62872 0
M  V30 4001 H 356.157 3.50775 -2.24379 0
M  V30 4002 H 358.754 5.34474 -0.155445 0
M  V30 4003 H 359.097 4.04962 0.96497 0
M  V30 4004 H 359.63 3.9108 -0.728124 0
M  V30 4005 H 356.369 5.79881 -3.05643 0
M  V30 4006 H 355.889 5.84537 -1.34448 0
M  V30 4007 H 357.568 6.21069 -1.81335 0
M  V30 4008 N 357.7 0.491464 1.49741 0
M  V30 4009 C 358.63 -0.28154 2.31796 0
M  V30 4010 C 359.611 -0.971473 1.3963 0
M  V30 4011 O 360.796 -0.964719 1.68543 0
M  V30 4012 C 357.926 -1.35203 3.19902 0
M  V30 4013 C 356.88 -0.782529 4.20786 0
M  V30 4014 C 356.206 -1.95283 4.97764 0
M  V30 4015 C 357.506 0.21999 5.21837 0
M  V30 4016 H 359.2 0.403355 2.96671 0
M  V30 4017 H 356.746 0.195425 1.42668 0
M  V30 4018 H 358.699 -1.90045 3.76113 0
M  V30 4019 H 357.423 -2.06598 2.52953 0
M  V30 4020 H 356.082 -0.255928 3.65706 0
M  V30 4021 H 355.73 -2.65423 4.2727 0
M  V30 4022 H 355.43 -1.57789 5.66018 0
M  V30 4023 H 356.954 -2.50577 5.56816 0
M  V30 4024 H 358.368 -0.23996 5.72798 0
M  V30 4025 H 356.765 0.51026 5.97927 0
M  V30 4026 H 357.835 1.13911 4.7133 0
M  V30 4027 N 359.178 -1.55987 0.224894 0
M  V30 4028 C 360.406 -2.02784 -0.410665 0
M  V30 4029 C 360.821 -1.10464 -1.53112 0
M  V30 4030 O 360.178 -0.114871 -1.82138 0
M  V30 4031 C 360.229 -3.49087 -0.939165 0
M  V30 4032 O 359.95 -4.37887 0.136614 0
M  V30 4033 C 361.451 -4.11543 -1.64763 0
M  V30 4034 H 358.671 -0.663484 -0.100148 0
M  V30 4035 H 361.215 -2.01614 0.342326 0
M  V30 4036 H 359.37 -3.50861 -1.64242 0
M  V30 4037 H 359.784 -5.23849 -0.261155 0
M  V30 4038 H 361.258 -5.15673 -1.96939 0
M  V30 4039 H 361.735 -3.56736 -2.56195 0
M  V30 4040 H 362.341 -4.13629 -0.989503 0
M  V30 4041 N 360.656 0.0484629 -1.57525 0
M  V30 4042 C 361.586 1.0549 -2.08313 0
M  V30 4043 C 362.567 1.38929 -0.981463 0
M  V30 4044 O 363.752 1.48151 -1.25558 0
M  V30 4045 C 360.882 2.36162 -2.54646 0
M  V30 4046 C 359.836 2.17016 -3.68901 0
M  V30 4047 C 359.162 3.53278 -4.01371 0
M  V30 4048 C 360.462 1.57219 -4.98076 0
M  V30 4049 H 362.156 0.632195 -2.92649 0
M  V30 4050 H 359.702 0.302654 -1.40784 0
M  V30 4051 H 361.655 3.06882 -2.88793 0
M  V30 4052 H 360.379 2.80456 -1.67368 0
M  V30 4053 H 359.038 1.48733 -3.35073 0
M  V30 4054 H 358.686 3.95185 -3.11188 0
M  V30 4055 H 358.386 3.41299 -4.78318 0
M  V30 4056 H 359.91 4.25391 -4.38035 0
M  V30 4057 H 361.324 2.17832 -5.30304 0
M  V30 4058 H 359.721 1.55871 -5.79503 0
M  V30 4059 H 360.791 0.535956 -4.81929 0
M  V30 4060 N 362.134 1.5431 0.320358 0
M  V30 4061 C 363.381 1.72668 1.05792 0
M  V30 4062 C 363.709 0.502084 1.87908 0
M  V30 4063 O 362.964 -0.516149 1.88771 0
M  V30 4064 C 363.263 2.95639 2.00828 0
M  V30 4065 C 362.929 4.30265 1.34843 0
M  V30 4066 C 361.591 4.66865 1.16578 0
M  V30 4067 C 363.943 5.13801 0.875095 0
M  V30 4068 C 361.271 5.84597 0.496336 0
M  V30 4069 C 363.623 6.32219 0.219463 0
M  V30 4070 C 362.287 6.67495 0.0246915 0
M  V30 4071 H 361.557 0.631837 0.387121 0
M  V30 4072 H 364.204 1.88552 0.334735 0
M  V30 4073 H 362.509 2.74456 2.79609 0
M  V30 4074 H 364.206 3.07038 2.57932 0
M  V30 4075 H 360.796 4.01472 1.50061 0
M  V30 4076 H 364.98 4.86039 1.00398 0
M  V30 4077 H 360.236 6.10486 0.334264 0
M  V30 4078 H 364.41 6.96227 -0.155291 0
M  V30 4079 H 362.037 7.5858 -0.496065 0
M  V30 4080 N 363.613 -0.582584 1.46437 0
M  V30 4081 C 364.86 -1.34079 1.51753 0
M  V30 4082 C 365.188 -1.93762 0.169299 0
M  V30 4083 O 364.443 -1.76989 -0.835062 0
M  V30 4084 C 364.742 -2.48964 2.56421 0
M  V30 4085 C 364.408 -2.07273 4.00436 0
M  V30 4086 C 363.07 -1.95618 4.39644 0
M  V30 4087 C 365.422 -1.75111 4.90903 0
M  V30 4088 C 362.75 -1.5006 5.67185 0
M  V30 4089 C 365.102 -1.31032 6.18881 0
M  V30 4090 C 363.766 -1.17954 6.56996 0
M  V30 4091 H 363.036 -0.49063 0.555304 0
M  V30 4092 H 365.683 -0.656007 1.79913 0
M  V30 4093 H 363.988 -3.22889 2.21923 0
M  V30 4094 H 365.685 -3.07178 2.57765 0
M  V30 4095 H 362.275 -2.17279 3.69443 0
M  V30 4096 H 366.459 -1.83001 4.61329 0
M  V30 4097 H 361.715 -1.38577 5.95488 0
M  V30 4098 H 365.889 -1.052 6.88408 0
M  V30 4099 H 363.516 -0.824279 7.55718 0
M  V30 4100 N 365.091 -1.34144 -0.827227 0
M  V30 4101 C 366.021 -1.28005 -1.95287 0
M  V30 4102 C 367.002 -0.158321 -1.69362 0
M  V30 4103 O 368.187 -0.349987 -1.9102 0
M  V30 4104 C 365.317 -1.03036 -3.31664 0
M  V30 4105 C 364.271 -2.11628 -3.72019 0
M  V30 4106 C 363.597 -1.71854 -5.0633 0
M  V30 4107 C 364.897 -3.53417 -3.8457 0
M  V30 4108 H 366.591 -2.22187 -2.00682 0
M  V30 4109 H 364.137 -1.0696 -0.964135 0
M  V30 4110 H 366.09 -0.973863 -4.09993 0
M  V30 4111 H 364.814 -0.0529391 -3.26557 0
M  V30 4112 H 363.473 -2.16339 -2.95961 0
M  V30 4113 H 363.121 -0.727841 -4.97706 0
M  V30 4114 H 362.821 -2.44531 -5.34302 0
M  V30 4115 H 364.345 -1.67692 -5.87122 0
M  V30 4116 H 365.759 -3.51142 -4.5318 0
M  V30 4117 H 364.156 -4.24679 -4.2399 0
M  V30 4118 H 365.226 -3.91072 -2.86689 0
M  V30 4119 N 366.569 1.04691 -1.17803 0
M  V30 4120 C 367.794 1.81984 -0.994813 0
M  V30 4121 C 368.219 1.82586 0.452112 0
M  V30 4122 O 367.577 1.23854 1.324 0
M  V30 4123 C 367.625 3.2575 -1.54659 0
M  V30 4124 O 366.729 4.05267 -0.763728 0
M  V30 4125 H 366.07 0.562483 -0.352857 0
M  V30 4126 H 368.6 1.3189 -1.56417 0
M  V30 4127 H 368.61 3.76541 -1.57102 0
M  V30 4128 H 367.285 3.24627 -2.59981 0
M  V30 4129 H 365.862 3.63972 -0.811108 0
M  V30 4130 N 368.047 0.979072 1.23499 0
M  V30 4131 C 369.296 0.642751 1.91185 0
M  V30 4132 C 369.609 -0.827253 1.77245 0
M  V30 4133 O 370.815 -1.27458 2.39722 0
M  V30 4134 C 369.271 1.09901 3.42709 0
M  V30 4135 C 368.879 2.59327 3.65313 0
M  V30 4136 C 370.623 0.836371 4.16179 0
M  V30 4137 C 368.53 2.98627 5.10467 0
M  V30 4138 H 367.46 0.236698 0.715884 0
M  V30 4139 H 370.111 1.1868 1.39955 0
M  V30 4140 H 368.493 0.48319 3.93041 0
M  V30 4141 H 369.667 3.26136 3.25533 0
M  V30 4142 H 367.982 2.83323 3.05151 0
M  V30 4143 H 370.579 1.10586 5.23139 0
M  V30 4144 H 370.922 -0.227509 4.15678 0
M  V30 4145 H 371.455 1.41371 3.71832 0
M  V30 4146 H 368.194 4.04133 5.16098 0
M  V30 4147 H 367.714 2.3651 5.51201 0
M  V30 4148 H 369.393 2.89159 5.78788 0
M  V30 4149 N 369.525 -1.3858 0.750561 0
M  V30 4150 C 370.772 -2.00184 0.305373 0
M  V30 4151 C 371.1 -1.59575 -1.11203 0
M  V30 4152 O 370.355 -0.823236 -1.77542 0
M  V30 4153 C 370.654 -3.55455 0.372373 0
M  V30 4154 C 370.32 -4.15765 1.745 0
M  V30 4155 C 368.982 -4.31951 2.12065 0
M  V30 4156 C 371.334 -4.49067 2.64553 0
M  V30 4157 C 368.662 -4.78734 3.39162 0
M  V30 4158 C 371.014 -4.97265 3.91038 0
M  V30 4159 C 369.678 -5.11658 4.28676 0
M  V30 4160 H 368.948 -0.732526 0.111744 0
M  V30 4161 H 371.595 -1.65673 0.960451 0
M  V30 4162 H 369.9 -3.90084 -0.366272 0
M  V30 4163 H 371.597 -4.00999 0.00953918 0
M  V30 4164 H 368.187 -4.03579 1.44297 0
M  V30 4165 H 372.371 -4.36166 2.36796 0
M  V30 4166 H 367.627 -4.88062 3.68246 0
M  V30 4167 H 371.801 -5.22003 4.60962 0
M  V30 4168 H 369.428 -5.47668 5.27222 0
M  V30 4169 N 371.003 -0.499398 -1.49478 0
M  V30 4170 C 372.228 0.044722 -2.07352 0
M  V30 4171 C 372.653 1.30207 -1.35749 0
M  V30 4172 O 372.011 1.76516 -0.413732 0
M  V30 4173 C 372.059 0.283013 -3.59488 0
M  V30 4174 O 371.163 1.35804 -3.89398 0
M  V30 4175 H 370.504 -0.0255147 -0.66351 0
M  V30 4176 H 373.034 -0.698561 -1.92305 0
M  V30 4177 H 373.044 0.515007 -4.04737 0
M  V30 4178 H 371.719 -0.635636 -4.11014 0
M  V30 4179 H 370.296 1.11113 -3.55961 0
M  V30 4180 N 372.481 1.55866 -0.233164 0
M  V30 4181 C 373.411 2.23783 0.666599 0
M  V30 4182 C 374.392 1.21343 1.19205 0
M  V30 4183 O 375.577 1.4996 1.23392 0
M  V30 4184 C 372.707 2.92671 1.86978 0
M  V30 4185 C 371.661 4.01682 1.47768 0
M  V30 4186 C 370.987 4.57926 2.76058 0
M  V30 4187 C 372.287 5.18126 0.658993 0
M  V30 4188 H 373.981 2.99232 0.100306 0
M  V30 4189 H 371.527 1.43924 0.046804 0
M  V30 4190 H 373.48 3.3888 2.50476 0
M  V30 4191 H 372.204 2.14688 2.46123 0
M  V30 4192 H 370.863 3.56222 0.866106 0
M  V30 4193 H 370.511 3.76659 3.33372 0
M  V30 4194 H 370.211 5.31505 2.50552 0
M  V30 4195 H 371.735 5.06859 3.40479 0
M  V30 4196 H 373.149 5.60644 1.19795 0
M  V30 4197 H 371.546 5.98009 0.500552 0
M  V30 4198 H 372.616 4.83763 -0.331856 0
M  V30 4199 N 373.959 -0.0401083 1.57549 0
M  V30 4200 C 375.208 -0.732108 1.87944 0
M  V30 4201 C 375.521 -1.77107 0.830206 0
M  V30 4202 O 376.727 -2.51488 1.02302 0
M  V30 4203 C 375.183 -1.35315 3.33494 0
M  V30 4204 C 374.791 -0.351105 4.46622 0
M  V30 4205 C 376.535 -2.02566 3.73051 0
M  V30 4206 C 374.442 -0.979859 5.83226 0
M  V30 4207 H 373.372 -0.277188 0.701201 0
M  V30 4208 H 376.023 0.0138501 1.83495 0
M  V30 4209 H 374.405 -2.14844 3.32653 0
M  V30 4210 H 375.579 0.416674 4.58912 0
M  V30 4211 H 373.894 0.218708 4.15825 0
M  V30 4212 H 376.491 -2.50441 4.72423 0
M  V30 4213 H 376.834 -2.83904 3.04474 0
M  V30 4214 H 377.367 -1.29827 3.76018 0
M  V30 4215 H 374.106 -0.206135 6.55176 0
M  V30 4216 H 373.626 -1.71774 5.74677 0
M  V30 4217 H 375.305 -1.49046 6.29599 0
M  V30 4218 N 375.437 -1.54477 -0.31217 0
M  V30 4219 C 376.685 -1.72884 -1.04668 0
M  V30 4220 C 377.006 -0.511477 -1.88173 0
M  V30 4221 O 376.276 0.474407 -1.90069 0
M  V30 4222 H 374.856 -0.637461 -0.389425 0
M  V30 4223 H 377.518 -1.91807 -0.345852 0
M  V30 4224 H 376.614 -2.61334 -1.70619 0
M  V30 4225 N 376.915 0.57481 -1.46744 0
M  V30 4226 C 377.848 1.69827 -1.52427 0
M  V30 4227 C 378.826 1.58151 -0.377744 0
M  V30 4228 O 380.01 1.79257 -0.58303 0
M  V30 4229 C 377.137 3.07943 -1.41027 0
M  V30 4230 C 376.183 3.38116 -2.59961 0
M  V30 4231 S 377.016 3.29313 -4.22272 0
M  V30 4232 C 378.172 4.69953 -4.13394 0
M  V30 4233 H 378.405 1.64748 -2.47478 0
M  V30 4234 H 375.938 0.754203 -1.34726 0
M  V30 4235 H 377.896 3.87619 -1.35137 0
M  V30 4236 H 376.557 3.10504 -0.473909 0
M  V30 4237 H 375.75 4.38762 -2.47999 0
M  V30 4238 H 375.352 2.66024 -2.62882 0
M  V30 4239 H 377.644 5.60517 -3.80562 0
M  V30 4240 H 378.587 4.86972 -5.14066 0
M  V30 4241 H 378.995 4.47174 -3.44522 0
M  V30 4242 N 378.394 1.34581 0.820102 0
M  V30 4243 C 379.642 1.26845 1.57336 0
M  V30 4244 C 379.963 -0.160667 1.94337 0
M  V30 4245 O 379.233 -1.09396 1.6251 0
M  V30 4246 H 377.813 0.466514 0.583415 0
M  V30 4247 H 380.475 1.68526 0.979027 0
M  V30 4248 H 379.571 1.87513 2.4949 0
M  V30 4249 N 379.872 -1.04064 1.18357 0
M  V30 4250 C 380.802 -2.14001 0.934113 0
M  V30 4251 C 381.783 -1.69616 -0.128186 0
M  V30 4252 O 382.968 -1.94185 0.0244093 0
M  V30 4253 C 380.098 -3.44253 0.459066 0
M  V30 4254 C 379.052 -4.02261 1.46185 0
M  V30 4255 C 378.378 -5.27992 0.844322 0
M  V30 4256 C 379.678 -4.38432 2.83856 0
M  V30 4257 H 381.372 -2.35127 1.85352 0
M  V30 4258 H 378.918 -1.12998 0.892604 0
M  V30 4259 H 380.871 -4.20522 0.271907 0
M  V30 4260 H 379.595 -3.22813 -0.495912 0
M  V30 4261 H 378.254 -3.28074 1.63595 0
M  V30 4262 H 377.902 -5.02862 -0.117845 0
M  V30 4263 H 377.602 -5.67765 1.51384 0
M  V30 4264 H 379.126 -6.06938 0.667693 0
M  V30 4265 H 380.54 -5.05688 2.70098 0
M  V30 4266 H 378.937 -4.89254 3.47491 0
M  V30 4267 H 380.007 -3.4826 3.37406 0
M  V30 4268 N 381.35 -0.985608 -1.22978 0
M  V30 4269 C 382.597 -0.657386 -1.91532 0
M  V30 4270 C 382.925 0.809707 -1.76845 0
M  V30 4271 O 382.18 1.60021 -1.12658 0
M  V30 4272 C 382.479 -1.00014 -3.43121 0
M  V30 4273 C 382.145 -2.4583 -3.77993 0
M  V30 4274 C 380.807 -2.85679 -3.87222 0
M  V30 4275 C 383.159 -3.40378 -3.94705 0
M  V30 4276 C 380.487 -4.19081 -4.10595 0
M  V30 4277 C 382.839 -4.73429 -4.1958 0
M  V30 4278 C 381.503 -5.1303 -4.27032 0
M  V30 4279 H 380.773 -0.240555 -0.700867 0
M  V30 4280 H 383.42 -1.24044 -1.45895 0
M  V30 4281 H 381.725 -0.335072 -3.90365 0
M  V30 4282 H 383.422 -0.724322 -3.94404 0
M  V30 4283 H 380.012 -2.13939 -3.71387 0
M  V30 4284 H 384.196 -3.10766 -3.8696 0
M  V30 4285 H 379.452 -4.49362 -4.14589 0
M  V30 4286 H 383.626 -5.46644 -4.31455 0
M  V30 4287 H 381.253 -6.16418 -4.44896 0
M  V30 4288 N 382.828 1.3818 -0.7579 0
M  V30 4289 C 383.761 2.28055 -0.0814093 0
M  V30 4290 C 384.739 1.45603 0.723779 0
M  V30 4291 O 385.923 1.74961 0.701491 0
M  V30 4292 C 383.05 3.2676 0.891394 0
M  V30 4293 C 382.096 4.26153 0.171909 0
M  V30 4294 S 382.929 5.23434 -1.13035 0
M  V30 4295 C 384.085 6.25694 -0.160727 0
M  V30 4296 H 384.318 2.85082 -0.84353 0
M  V30 4297 H 381.851 1.44246 -0.550671 0
M  V30 4298 H 383.809 3.8414 1.44731 0
M  V30 4299 H 382.47 2.68706 1.62652 0
M  V30 4300 H 381.663 4.95738 0.908843 0
M  V30 4301 H 381.265 3.72691 -0.312606 0
M  V30 4302 H 383.557 6.74161 0.671773 0
M  V30 4303 H 384.5 7.03285 -0.824353 0
M  V30 4304 H 384.908 5.64064 0.221892 0
M  V30 4305 N 384.306 0.507319 1.49211 0
M  V30 4306 C 385.554 -0.0348839 2.0207 0
M  V30 4307 C 385.875 -1.36898 1.38866 0
M  V30 4308 O 385.145 -1.88133 0.546151 0
M  V30 4309 H 383.725 -0.0158812 0.746831 0
M  V30 4310 H 386.387 0.665998 1.83168 0
M  V30 4311 H 385.483 -0.159917 3.1169 0
M  V30 4312 N 385.784 -1.5574 0.241426 0
M  V30 4313 C 386.732 -2.22538 -0.676718 0
M  V30 4314 C 387.726 -1.21117 -1.18436 0
M  V30 4315 O 388.932 -1.39144 -1.14188 0
M  V30 4316 H 385.307 -0.713776 -0.236701 0
M  V30 4317 H 387.278 -2.98264 -0.0901187 0
M  V30 4318 C 386.027 -2.93439 -1.86518 0
M  V30 4319 H 385.35 -3.7125 -1.4837 0
M  V30 4320 H 386.79 -3.43549 -2.48495 0
M  V30 4321 C 385.249 -1.97008 -2.73294 0
M  V30 4322 O 385.779 -1.49965 -3.72657 0
M  V30 4323 N 383.985 -1.64227 -2.39745 0
M  V30 4324 H 383.532 -2.02677 -1.58996 0
M  V30 4325 H 383.49 -0.999708 -2.98083 0
M  V30 4326 N 387.262 0.0317525 -1.57568 0
M  V30 4327 C 388.192 1.03274 -2.0942 0
M  V30 4328 C 389.173 1.3788 -0.996143 0
M  V30 4329 O 390.358 1.46811 -1.27122 0
M  V30 4330 C 387.488 2.33448 -2.57137 0
M  V30 4331 C 386.442 2.13091 -3.71182 0
M  V30 4332 C 385.768 3.49001 -4.05095 0
M  V30 4333 C 387.068 1.51928 -4.99715 0
M  V30 4334 H 388.762 0.60112 -2.93303 0
M  V30 4335 H 386.308 0.287705 -1.41097 0
M  V30 4336 H 388.261 3.03802 -2.92032 0
M  V30 4337 H 386.985 2.78665 -1.70333 0
M  V30 4338 H 385.644 1.45171 -3.36632 0
M  V30 4339 H 385.292 3.91862 -3.15362 0
M  V30 4340 H 384.992 3.36207 -4.81911 0
M  V30 4341 H 386.516 4.20721 -4.42522 0
M  V30 4342 H 387.93 2.12196 -5.32584 0
M  V30 4343 H 386.327 1.49716 -5.81124 0
M  V30 4344 H 387.397 0.484811 -4.8247 0
M  V30 4345 N 388.74 1.54641 0.303973 0
M  V30 4346 C 389.687 1.85386 1.37479 0
M  V30 4347 C 390.657 0.702528 1.50512 0
M  V30 4348 O 391.842 0.950867 1.65418 0
M  V30 4349 C 388.982 2.10413 2.73533 0
M  V30 4350 C 388.095 3.38049 2.68974 0
M  V30 4351 C 387.23 3.52934 3.97002 0
M  V30 4352 C 386.269 4.74373 3.86829 0
M  V30 4353 N 385.406 4.8608 5.06627 0
M  V30 4354 H 390.246 2.76732 1.1056 0
M  V30 4355 H 387.783 1.37034 0.534805 0
M  V30 4356 H 389.741 2.22919 3.52652 0
M  V30 4357 H 388.371 1.22338 2.98719 0
M  V30 4358 H 387.423 3.3418 1.81736 0
M  V30 4359 H 388.735 4.27288 2.57346 0
M  V30 4360 H 387.889 3.65088 4.84557 0
M  V30 4361 H 386.628 2.61824 4.1146 0
M  V30 4362 H 385.633 4.62255 2.97658 0
M  V30 4363 H 386.858 5.66888 3.73918 0
M  V30 4364 H 384.804 3.97891 5.21554 0
M  V30 4365 H 384.721 5.69315 4.9741 0
M  V30 4366 H 385.989 5.02587 5.95841 0
M  V30 4367 N 390.218 -0.567019 1.47046 0
M  V30 4368 C 391.168 -1.67018 1.55207 0
M  V30 4369 C 392.152 -1.55543 0.411714 0
M  V30 4370 O 393.344 -1.64192 0.661064 0
M  V30 4371 C 390.473 -3.05801 1.56014 0
M  V30 4372 C 389.559 -3.22515 2.75399 0
M  V30 4373 N 389.95 -3.09329 4.00186 0
M  V30 4374 C 388.248 -3.53493 2.71954 0
M  V30 4375 C 388.949 -3.2847 4.80086 0
M  V30 4376 N 387.925 -3.54352 4.12233 0
M  V30 4377 H 391.727 -1.55377 2.4947 0
M  V30 4378 H 389.241 -0.771503 1.42904 0
M  V30 4379 H 391.238 -3.84996 1.59949 0
M  V30 4380 H 389.898 -3.18561 0.628396 0
M  V30 4381 H 390.909 -2.86863 4.31196 0
M  V30 4382 H 387.586 -3.7284 1.87873 0
M  V30 4383 H 388.976 -3.23326 5.88991 0
M  V30 4384 N 391.696 -1.35014 -0.812953 0
M  V30 4385 C 392.643 -1.27412 -1.92444 0
M  V30 4386 C 393.613 -0.14733 -1.65445 0
M  V30 4387 O 394.798 -0.329974 -1.87925 0
M  V30 4388 C 391.938 -1.04558 -3.28879 0
M  V30 4389 C 391.051 -2.26101 -3.68106 0
M  V30 4390 C 390.186 -1.96449 -4.9354 0
M  V30 4391 C 389.225 -3.14081 -5.25376 0
M  V30 4392 N 388.362 -2.84246 -6.41988 0
M  V30 4393 H 393.202 -2.22463 -1.98278 0
M  V30 4394 H 390.739 -1.10593 -0.969933 0
M  V30 4395 H 392.697 -0.893413 -4.07522 0
M  V30 4396 H 391.327 -0.131719 -3.22531 0
M  V30 4397 H 390.379 -2.52204 -2.84775 0
M  V30 4398 H 391.691 -3.13959 -3.87597 0
M  V30 4399 H 390.845 -1.78026 -5.79993 0
M  V30 4400 H 389.584 -1.05867 -4.76071 0
M  V30 4401 H 388.589 -3.33089 -4.37415 0
M  V30 4402 H 389.814 -4.05455 -5.44778 0
M  V30 4403 H 387.76 -1.96252 -6.25956 0
M  V30 4404 H 387.677 -3.65637 -6.61699 0
M  V30 4405 H 388.945 -2.6935 -7.31485 0
M  V30 4406 N 393.175 1.03435 -1.18907 0
M  V30 4407 C 394.415 1.78302 -0.999391 0
M  V30 4408 C 394.779 1.86353 0.462219 0
M  V30 4409 O 395.98 2.57489 0.771543 0
M  V30 4410 C 394.251 3.17362 -1.64365 0
M  V30 4411 S 395.81 4.08488 -1.6026 0
M  V30 4412 H 392.628 0.613861 -0.358742 0
M  V30 4413 H 395.23 1.23979 -1.51161 0
M  V30 4414 H 393.934 3.09116 -2.69955 0
M  V30 4415 H 393.465 3.76762 -1.13199 0
M  V30 4416 H 395.48 4.92274 -0.622932 0
M  V30 4417 N 394.653 0.992116 1.22453 0
M  V30 4418 C 395.9 0.667534 1.91181 0
M  V30 4419 C 396.228 -0.800317 1.77271 0
M  V30 4420 O 395.483 -1.59421 1.13505 0
M  V30 4421 C 395.782 1.01832 3.42586 0
M  V30 4422 C 395.448 2.47831 3.76684 0
M  V30 4423 C 394.11 2.87729 3.85701 0
M  V30 4424 C 396.462 3.42466 3.92895 0
M  V30 4425 C 393.79 4.21252 4.08367 0
M  V30 4426 C 396.142 4.75648 4.17064 0
M  V30 4427 C 394.806 5.15288 4.24305 0
M  V30 4428 H 394.076 0.244268 0.699581 0
M  V30 4429 H 396.723 1.24816 1.45235 0
M  V30 4430 H 395.028 0.355769 3.90181 0
M  V30 4431 H 396.725 0.745228 3.94014 0
M  V30 4432 H 393.315 2.15905 3.70247 0
M  V30 4433 H 397.499 3.12814 3.85307 0
M  V30 4434 H 392.755 4.51554 4.122 0
M  V30 4435 H 396.929 5.48924 4.2855 0
M  V30 4436 H 394.556 6.18769 4.41621 0
M  V30 4437 N 396.131 -1.37776 0.765217 0
M  V30 4438 C 397.547 -1.53297 0.444108 0
M  V30 4439 C 397.747 -1.72515 -1.04119 0
M  V30 4440 O 396.803 -1.74278 -1.82711 0
M  V30 4441 C 398.116 -2.73328 1.25349 0
M  V30 4442 C 399.664 -2.87185 1.24473 0
M  V30 4443 C 400.139 -4.10191 2.03733 0
M  V30 4444 N 401.63 -4.17291 2.01053 0
M  V30 4445 C 402.365 -5.11488 2.59166 0
M  V30 4446 N 401.861 -6.11285 3.26041 0
M  V30 4447 N 403.654 -5.03924 2.49032 0
M  V30 4448 H 395.805 -1.23552 1.72768 0
M  V30 4449 H 398.068 -0.601103 0.733062 0
M  V30 4450 H 397.774 -2.6557 2.30577 0
M  V30 4451 H 397.648 -3.66834 0.87823 0
M  V30 4452 H 400.035 -2.94418 0.20047 0
M  V30 4453 H 400.116 -1.94657 1.65959 0
M  V30 4454 H 399.76 -4.0372 3.08176 0
M  V30 4455 H 399.69 -5.01821 1.59633 0
M  V30 4456 H 402.181 -3.45825 1.5236 0
M  V30 4457 H 402.494 -6.79678 3.67774 0
M  V30 4458 H 400.839 -6.11583 3.30138 0
M  V30 4459 H 404.03 -4.24902 1.96407 0
M  V30 4460 H 404.203 -5.77152 2.94617 0
M  V30 4461 N 397.609 -0.515225 -1.4894 0
M  V30 4462 C 398.855 0.016187 -2.03394 0
M  V30 4463 C 399.21 1.33377 -1.38666 0
M  V30 4464 O 398.503 1.84461 -0.518141 0
M  V30 4465 C 398.697 0.210595 -3.56779 0
M  V30 4466 C 398.526 -1.08659 -4.36375 0
M  V30 4467 C 397.296 -1.64237 -4.77864 0
M  V30 4468 C 399.494 -1.9935 -4.74093 0
M  V30 4469 N 397.476 -2.88398 -5.41941 0
M  V30 4470 C 398.847 -3.08088 -5.38035 0
M  V30 4471 C 400.902 -1.99856 -4.56029 0
M  V30 4472 C 399.605 -4.17377 -5.85823 0
M  V30 4473 C 401.631 -3.08129 -5.04787 0
M  V30 4474 C 400.993 -4.15586 -5.68742 0
M  V30 4475 H 397.092 -0.0352107 -0.781207 0
M  V30 4476 H 399.676 -0.693237 -1.8194 0
M  V30 4477 H 397.847 0.889088 -3.78087 0
M  V30 4478 H 399.579 0.740287 -3.97872 0
M  V30 4479 H 396.334 -1.18566 -4.58518 0
M  V30 4480 H 396.758 -3.51572 -5.78555 0
M  V30 4481 H 401.4 -1.18079 -4.05977 0
M  V30 4482 H 399.118 -4.99943 -6.34888 0
M  V30 4483 H 402.704 -3.09557 -4.92611 0
M  V30 4484 H 401.584 -4.97987 -6.05787 0
M  V30 4485 N 399.087 1.5561 -0.249682 0
M  V30 4486 C 400.498 1.84979 0.252949 0
M  V30 4487 C 400.849 1.17153 1.57384 0
M  V30 4488 O 399.974 0.450884 2.11651 0
M  V30 4489 C 400.569 3.35584 0.465732 0
M  V30 4490 C 399.128 3.65169 0.912624 0
M  V30 4491 C 398.275 2.77299 -0.00859085 0
M  V30 4492 H 401.226 1.51513 -0.47217 0
M  V30 4493 H 401.247 3.57313 1.30795 0
M  V30 4494 H 400.759 3.8492 -0.49579 0
M  V30 4495 H 398.86 3.21312 1.88652 0
M  V30 4496 H 398.973 4.72912 0.767559 0
M  V30 4497 H 397.337 2.49678 0.50327 0
M  V30 4498 H 398.12 3.29442 -0.965537 0
M  V30 4499 N 400.565 -0.0233959 1.57583 0
M  V30 4500 C 401.497 -1.04994 2.03737 0
M  V30 4501 C 402.51 -1.32125 0.951152 0
M  V30 4502 O 403.699 -1.29512 1.22837 0
M  V30 4503 C 400.799 -2.39026 2.40249 0
M  V30 4504 C 399.972 -2.31171 3.7132 0
M  V30 4505 C 399.031 -3.47698 3.94959 0
M  V30 4506 O 398.057 -3.26937 4.65941 0
M  V30 4507 N 399.259 -4.6976 3.41037 0
M  V30 4508 H 402.024 -0.656507 2.92421 0
M  V30 4509 H 399.585 -0.211235 1.60516 0
M  V30 4510 H 401.577 -3.15712 2.53196 0
M  V30 4511 H 400.147 -2.70194 1.57207 0
M  V30 4512 H 399.367 -1.39547 3.68674 0
M  V30 4513 H 400.655 -2.23071 4.57293 0
M  V30 4514 H 400.053 -4.89528 2.83512 0
M  V30 4515 H 398.61 -5.43791 3.59353 0
M  V30 4516 N 402.043 -1.548 -0.295768 0
M  V30 4517 C 402.953 -1.89177 -1.38742 0
M  V30 4518 C 403.969 -0.786481 -1.55211 0
M  V30 4519 O 405.145 -1.08344 -1.69775 0
M  V30 4520 C 402.21 -2.13663 -2.73036 0
M  V30 4521 C 401.271 -3.37349 -2.65508 0
M  V30 4522 C 400.504 -3.60658 -3.93398 0
M  V30 4523 O 400.727 -2.86882 -4.93006 0
M  V30 4524 O 399.661 -4.54179 -3.94975 0
M  V30 4525 H 403.487 -2.82059 -1.12589 0
M  V30 4526 H 401.072 -1.41056 -0.492295 0
M  V30 4527 H 402.954 -2.3094 -3.52484 0
M  V30 4528 H 401.629 -1.23967 -2.99022 0
M  V30 4529 H 400.536 -3.25431 -1.84514 0
M  V30 4530 H 401.869 -4.27192 -2.44474 0
M  V30 4531 N 403.521 0.559213 -1.47345 0
M  V30 4532 C 404.469 1.68747 -1.60085 0
M  V30 4533 C 405.463 1.628 -0.46825 0
M  V30 4534 O 406.669 1.68009 -0.645977 0
M  V30 4535 H 403.044 0.558329 -0.503759 0
M  V30 4536 H 405.015 1.55138 -2.54902 0
M  V30 4537 C 403.764 3.07103 -1.63042 0
M  V30 4538 H 403.087 3.12361 -2.49541 0
M  V30 4539 H 404.527 3.85743 -1.76006 0
M  V30 4540 C 402.986 3.34935 -0.363357 0
M  V30 4541 O 403.516 3.98102 0.536416 0
M  V30 4542 N 401.722 2.89574 -0.244 0
M  V30 4543 H 401.269 2.38348 -0.977133 0
M  V30 4544 H 401.227 3.08566 0.602836 0
M  V30 4545 N 404.999 1.35443 0.805782 0
M  V30 4546 C 405.909 1.30546 1.94923 0
M  V30 4547 C 406.925 0.210233 1.72725 0
M  V30 4548 O 408.101 0.43975 1.9654 0
M  V30 4549 C 405.166 1.07782 3.29521 0
M  V30 4550 C 404.227 2.26625 3.64609 0
M  V30 4551 C 403.46 2.04938 4.92784 0
M  V30 4552 O 403.683 1.01624 5.61274 0
M  V30 4553 O 402.617 2.9232 5.26149 0
M  V30 4554 H 406.443 2.26779 2.02002 0
M  V30 4555 H 404.028 1.15823 0.943682 0
M  V30 4556 H 405.91 0.969392 4.10098 0
M  V30 4557 H 404.585 0.146003 3.23371 0
M  V30 4558 H 403.492 2.43033 2.84404 0
M  V30 4559 H 404.825 3.18257 3.75464 0
M  V30 4560 N 406.477 -1.02803 1.19454 0
M  V30 4561 C 407.425 -2.13213 0.929673 0
M  V30 4562 C 408.419 -1.69011 -0.114806 0
M  V30 4563 O 409.625 -1.79967 0.0345147 0
M  V30 4564 H 406 -0.69662 0.28324 0
M  V30 4565 H 407.971 -2.32744 1.86743 0
M  V30 4566 C 406.72 -3.4429 0.485797 0
M  V30 4567 H 406.043 -3.7872 1.28105 0
M  V30 4568 H 407.483 -4.22638 0.339582 0
M  V30 4569 C 405.942 -3.27258 -0.800244 0
M  V30 4570 O 406.472 -3.55967 -1.86146 0
M  V30 4571 N 404.678 -2.80545 -0.75781 0
M  V30 4572 H 404.225 -2.57382 0.106039 0
M  V30 4573 H 404.183 -2.6953 -1.61867 0
M  V30 4574 N 407.956 -0.998596 -1.21925 0
M  V30 4575 C 408.866 -0.562736 -2.27751 0
M  V30 4576 C 409.882 0.391203 -1.69545 0
M  V30 4577 O 411.058 0.256625 -1.99758 0
M  V30 4578 C 408.123 0.11012 -3.46525 0
M  V30 4579 C 407.184 -0.887495 -4.20026 0
M  V30 4580 C 406.417 -0.246654 -5.3313 0
M  V30 4581 O 406.64 0.958088 -5.62296 0
M  V30 4582 O 405.574 -0.954374 -5.94286 0
M  V30 4583 H 409.4 -1.44329 -2.67213 0
M  V30 4584 H 406.985 -0.767135 -1.28201 0
M  V30 4585 H 408.867 0.486756 -4.18579 0
M  V30 4586 H 407.542 0.965154 -3.08976 0
M  V30 4587 H 406.449 -1.31517 -3.5022 0
M  V30 4588 H 407.782 -1.71191 -4.6147 0
M  V30 4589 N 409.434 1.37368 -0.772513 0
M  V30 4590 C 410.662 2.03942 -0.348588 0
M  V30 4591 C 411.077 1.58264 1.02947 0
M  V30 4592 O 410.434 0.764246 1.65727 0
M  V30 4593 C 410.485 3.5946 -0.38351 0
M  V30 4594 O 410.206 4.03468 -1.70721 0
M  V30 4595 C 411.707 4.4327 0.0519152 0
M  V30 4596 H 408.927 0.654931 -0.145966 0
M  V30 4597 H 411.471 1.75686 -1.04665 0
M  V30 4598 H 409.626 3.86486 0.265978 0
M  V30 4599 H 410.04 4.97991 -1.64636 0
M  V30 4600 H 411.514 5.51995 -0.0236733 0
M  V30 4601 H 411.991 4.2514 1.10238 0
M  V30 4602 H 412.597 4.21471 -0.569415 0
M  V30 4603 N 410.912 0.523116 1.48665 0
M  V30 4604 C 411.842 -0.23231 2.32342 0
M  V30 4605 C 412.823 -0.941637 1.41659 0
M  V30 4606 O 414.008 -0.928751 1.70552 0
M  V30 4607 C 411.138 -1.28387 3.22698 0
M  V30 4608 C 410.092 -0.693098 4.22351 0
M  V30 4609 C 409.418 -1.8468 5.01794 0
M  V30 4610 C 410.718 0.33063 5.21252 0
M  V30 4611 H 412.412 0.466192 2.95748 0
M  V30 4612 H 409.958 0.225643 1.42221 0
M  V30 4613 H 411.911 -1.82024 3.80059 0
M  V30 4614 H 410.635 -2.01186 2.57278 0
M  V30 4615 H 409.294 -0.178299 3.66166 0
M  V30 4616 H 408.942 -2.56301 4.32804 0
M  V30 4617 H 408.642 -1.45747 5.69238 0
M  V30 4618 H 410.166 -2.38709 5.62006 0
M  V30 4619 H 411.58 -0.118407 5.73178 0
M  V30 4620 H 409.977 0.636974 5.9671 0
M  V30 4621 H 411.047 1.23883 4.68808 0
M  V30 4622 N 412.39 -1.55475 0.257931 0
M  V30 4623 C 413.34 -2.18506 -0.651094 0
M  V30 4624 C 414.324 -1.14431 -1.13112 0
M  V30 4625 O 415.516 -1.40305 -1.07905 0
M  V30 4626 C 412.645 -2.89653 -1.84272 0
M  V30 4627 C 411.731 -4.00996 -1.38068 0
M  V30 4628 N 412.122 -5.01816 -0.633609 0
M  V30 4629 C 410.42 -4.13753 -1.66506 0
M  V30 4630 C 411.121 -5.80371 -0.392922 0
M  V30 4631 N 410.097 -5.3505 -0.960359 0
M  V30 4632 H 413.899 -2.93811 -0.0722883 0
M  V30 4633 H 411.413 -1.62286 0.0607256 0
M  V30 4634 H 413.41 -3.33245 -2.50506 0
M  V30 4635 H 412.07 -2.15854 -2.42564 0
M  V30 4636 H 413.081 -5.17128 -0.282626 0
M  V30 4637 H 409.758 -3.51133 -2.25858 0
M  V30 4638 H 411.148 -6.7159 0.204235 0
M  V30 4639 N 413.868 0.0150385 -1.57593 0
M  V30 4640 C 414.816 1.02958 -2.08572 0
M  V30 4641 C 415.81 1.36554 -1.00246 0
M  V30 4642 O 417.016 1.35295 -1.18724 0
M  V30 4643 H 413.391 0.349619 -0.665786 0
M  V30 4644 H 415.362 0.573932 -2.92829 0
M  V30 4645 C 414.111 2.31752 -2.59203 0
M  V30 4646 H 413.434 2.06765 -3.42182 0
M  V30 4647 H 414.874 3.01053 -2.98568 0
M  V30 4648 C 413.333 3.01692 -1.49945 0
M  V30 4649 O 413.863 3.92083 -0.873704 0
M  V30 4650 N 412.069 2.6326 -1.23056 0
M  V30 4651 H 411.616 1.89838 -1.74125 0
M  V30 4652 H 411.574 3.10372 -0.501685 0
M  V30 4653 N 415.346 1.54954 0.287554 0
M  V30 4654 C 416.762 1.46469 0.633964 0
M  V30 4655 C 416.962 0.666865 1.90145 0
M  V30 4656 O 416.018 0.179906 2.51858 0
M  V30 4657 C 417.331 2.90556 0.774454 0
M  V30 4658 C 418.879 3.00681 0.869462 0
M  V30 4659 C 419.354 4.45993 1.04184 0
M  V30 4660 N 420.845 4.4976 1.10772 0
M  V30 4661 C 421.58 5.59393 1.25964 0
M  V30 4662 N 421.076 6.78923 1.37968 0
M  V30 4663 N 422.869 5.47107 1.28959 0
M  V30 4664 H 415.02 2.05288 -0.545041 0
M  V30 4665 H 417.283 0.930305 -0.182308 0
M  V30 4666 H 416.989 3.51594 -0.086207 0
M  V30 4667 H 416.863 3.38743 1.6593 0
M  V30 4668 H 419.25 2.39749 1.7206 0
M  V30 4669 H 419.331 2.55769 -0.0396831 0
M  V30 4670 H 418.975 5.07524 0.195422 0
M  V30 4671 H 418.905 4.88548 1.96542 0
M  V30 4672 H 421.396 3.63651 1.02794 0
M  V30 4673 H 421.709 7.58231 1.49353 0
M  V30 4674 H 420.054 6.81763 1.34999 0
M  V30 4675 H 423.245 4.52668 1.19202 0
M  V30 4676 H 423.418 6.32595 1.40455 0
M  V30 4677 N 416.824 -0.551391 1.4764 0
M  V30 4678 C 418.052 -1.33357 1.58189 0
M  V30 4679 C 418.467 -1.87342 0.234199 0
M  V30 4680 O 417.824 -1.65301 -0.77343 0
M  V30 4681 C 417.875 -2.49942 2.61173 0
M  V30 4682 O 417.596 -1.98187 3.90709 0
M  V30 4683 C 419.097 -3.42072 2.8196 0
M  V30 4684 H 416.317 -0.40631 0.533998 0
M  V30 4685 H 418.861 -0.667367 1.93304 0
M  V30 4686 H 417.016 -3.12489 2.28975 0
M  V30 4687 H 417.43 -2.74342 4.47031 0
M  V30 4688 H 418.904 -4.20278 3.57869 0
M  V30 4689 H 419.381 -3.95978 1.89995 0
M  V30 4690 H 419.987 -2.85336 3.15378 0
M  V30 4691 N 418.302 -1.35869 -0.798587 0
M  V30 4692 C 419.55 -1.29332 -1.55298 0
M  V30 4693 C 419.871 0.129729 -1.94568 0
M  V30 4694 O 419.141 1.06796 -1.6423 0
M  V30 4695 H 417.721 -0.475737 -0.57592 0
M  V30 4696 H 420.383 -1.70062 -0.952093 0
M  V30 4697 H 419.479 -1.91458 -2.46476 0
M  V30 4698 N 419.78 1.02168 -1.19998 0
M  V30 4699 C 420.728 2.12717 -0.940967 0
M  V30 4700 C 421.722 1.69069 0.105841 0
M  V30 4701 O 422.928 1.79946 -0.0440583 0
M  V30 4702 H 419.303 0.695108 -0.28693 0
M  V30 4703 H 421.274 2.3175 -1.87975 0
M  V30 4704 C 420.023 3.44027 -0.504049 0
M  V30 4705 H 419.346 3.78036 -1.30112 0
M  V30 4706 H 420.786 4.22452 -0.361991 0
M  V30 4707 C 419.245 3.27678 0.782878 0
M  V30 4708 O 419.775 3.56949 1.84256 0
M  V30 4709 N 417.981 2.80943 0.742921 0
M  V30 4710 H 417.528 2.57322 -0.119687 0
M  V30 4711 H 417.486 2.70385 1.60435 0
M  V30 4712 N 421.258 1.00505 1.21394 0
M  V30 4713 C 422.669 0.721082 1.72213 0
M  V30 4714 C 423.02 -0.761263 1.80829 0
M  V30 4715 O 422.145 -1.59464 1.46288 0
M  V30 4716 C 422.74 1.30228 3.12772 0
M  V30 4717 C 421.299 1.06743 3.60947 0
M  V30 4718 C 420.446 1.41507 2.38477 0
M  V30 4719 H 423.397 1.17594 1.06571 0
M  V30 4720 H 423.418 0.686955 3.74247 0
M  V30 4721 H 422.93 2.38115 3.06468 0
M  V30 4722 H 421.031 0.00572162 3.726 0
M  V30 4723 H 421.144 1.73936 4.46411 0
M  V30 4724 H 419.508 0.833852 2.40664 0
M  V30 4725 H 420.291 2.50424 2.34824 0
M  V30 4726 N 422.737 -1.36956 0.779787 0
M  V30 4727 C 423.967 -2.03459 0.358877 0
M  V30 4728 C 424.375 -1.58939 -1.02641 0
M  V30 4729 O 423.718 -0.769777 -1.66794 0
M  V30 4730 C 423.78 -3.5796 0.332393 0
M  V30 4731 C 423.444 -4.25644 1.66362 0
M  V30 4732 C 424.441 -4.49205 2.61746 0
M  V30 4733 C 422.126 -4.63313 1.94027 0
M  V30 4734 C 424.12 -5.09503 3.82996 0
M  V30 4735 C 421.807 -5.2333 3.15546 0
M  V30 4736 C 422.805 -5.46363 4.0985 0
M  V30 4737 O 422.493 -6.05122 5.29228 0
M  V30 4738 H 422.225 -0.659767 0.147254 0
M  V30 4739 H 424.779 -1.76111 1.05708 0
M  V30 4740 H 423.009 -3.84388 -0.422237 0
M  V30 4741 H 424.698 -4.05852 -0.0625389 0
M  V30 4742 H 425.464 -4.20508 2.41657 0
M  V30 4743 H 421.343 -4.44715 1.21448 0
M  V30 4744 H 424.887 -5.27397 4.56617 0
M  V30 4745 H 420.784 -5.51451 3.35517 0
M  V30 4746 H 421.552 -6.23595 5.30161 0
M  V30 4747 N 424.215 -0.530993 -1.48385 0
M  V30 4748 C 425.445 -0.00133928 -2.066 0
M  V30 4749 C 425.853 1.28599 -1.38777 0
M  V30 4750 O 425.196 1.77599 -0.469495 0
M  V30 4751 C 425.258 0.292137 -3.58311 0
M  V30 4752 C 424.922 -0.901864 -4.48013 0
M  V30 4753 C 425.919 -1.80053 -4.87726 0
M  V30 4754 C 423.604 -1.10915 -4.89901 0
M  V30 4755 C 425.598 -2.89038 -5.68098 0
M  V30 4756 C 423.285 -2.20213 -5.70043 0
M  V30 4757 C 424.283 -3.09107 -6.0905 0
M  V30 4758 O 423.971 -4.16514 -6.87583 0
M  V30 4759 H 423.703 -0.0308475 -0.675296 0
M  V30 4760 H 426.257 -0.736335 -1.91748 0
M  V30 4761 H 424.487 1.08112 -3.7128 0
M  V30 4762 H 426.176 0.763994 -3.98645 0
M  V30 4763 H 426.942 -1.65234 -4.55986 0
M  V30 4764 H 422.821 -0.426498 -4.59023 0
M  V30 4765 H 426.365 -3.58451 -5.98464 0
M  V30 4766 H 422.262 -2.35016 -6.01197 0
M  V30 4767 H 423.03 -4.14237 -7.05939 0
M  V30 4768 N 425.693 1.55336 -0.266172 0
M  V30 4769 C 426.942 1.98574 0.353749 0
M  V30 4770 C 427.255 1.15789 1.57646 0
M  V30 4771 O 428.461 1.49129 2.26876 0
M  V30 4772 C 426.917 3.53403 0.680747 0
M  V30 4773 C 426.525 4.44953 -0.52165 0
M  V30 4774 C 428.269 4.05251 1.26379 0
M  V30 4775 C 426.176 5.91156 -0.169736 0
M  V30 4776 H 425.106 0.741643 0.135949 0
M  V30 4777 H 427.757 1.79743 -0.369421 0
M  V30 4778 H 426.139 3.68001 1.46257 0
M  V30 4779 H 427.313 4.42121 -1.29869 0
M  V30 4780 H 425.628 4.03691 -1.02093 0
M  V30 4781 H 428.225 5.12021 1.54074 0
M  V30 4782 H 428.568 3.53749 2.19471 0
M  V30 4783 H 429.101 3.94057 0.544447 0
M  V30 4784 H 425.84 6.46736 -1.0683 0
M  V30 4785 H 425.36 5.97079 0.570717 0
M  V30 4786 H 427.039 6.4655 0.241245 0
M  V30 4787 N 427.171 -0.0066808 1.57599 0
M  V30 4788 C 428.587 -0.36267 1.55425 0
M  V30 4789 C 428.787 -1.75209 0.995187 0
M  V30 4790 O 427.843 -2.44616 0.626058 0
M  V30 4791 C 429.156 -0.244017 2.99708 0
M  V30 4792 C 430.704 -0.319451 3.11366 0
M  V30 4793 C 431.179 -0.229998 4.57422 0
M  V30 4794 N 432.67 -0.288105 4.62303 0
M  V30 4795 C 433.405 -0.242127 5.72889 0
M  V30 4796 N 432.901 -0.147133 6.92644 0
M  V30 4797 N 434.694 -0.293502 5.61333 0
M  V30 4798 H 426.845 0.902314 1.92281 0
M  V30 4799 H 429.108 0.34525 0.882896 0
M  V30 4800 H 428.814 0.711678 3.44424 0
M  V30 4801 H 428.688 -1.02877 3.629 0
M  V30 4802 H 431.075 -1.26559 2.66584 0
M  V30 4803 H 431.156 0.495055 2.50964 0
M  V30 4804 H 430.8 0.712566 5.02877 0
M  V30 4805 H 430.73 -1.0629 5.15761 0
M  V30 4806 H 433.221 -0.363126 3.76151 0
M  V30 4807 H 433.534 -0.117763 7.7271 0
M  V30 4808 H 431.879 -0.112857 6.94908 0
M  V30 4809 H 435.07 -0.365864 4.66668 0
M  V30 4810 H 435.243 -0.254204 6.47501 0
M  V30 4811 N 428.649 -1.55105 -0.279332 0
M  V30 4812 C 429.559 -1.90638 -1.36727 0
M  V30 4813 C 430.575 -0.802899 -1.54368 0
M  V30 4814 O 431.751 -1.10138 -1.68616 0
M  V30 4815 C 428.816 -2.16547 -2.70755 0
M  V30 4816 C 427.877 -3.40146 -2.61915 0
M  V30 4817 C 427.11 -3.6481 -3.8955 0
M  V30 4818 O 427.333 -2.92095 -4.89935 0
M  V30 4819 O 426.267 -4.58343 -3.90135 0
M  V30 4820 H 430.093 -2.83237 -1.09591 0
M  V30 4821 H 427.678 -1.4157 -0.477306 0
M  V30 4822 H 429.56 -2.34665 -3.50014 0
M  V30 4823 H 428.235 -1.27131 -2.9769 0
M  V30 4824 H 427.142 -3.2737 -1.81052 0
M  V30 4825 H 428.475 -4.29761 -2.3993 0
M  V30 4826 N 430.127 0.543554 -1.4793 0
M  V30 4827 C 431.355 1.32516 -1.58894 0
M  V30 4828 C 431.77 1.87215 -0.244131 0
M  V30 4829 O 431.127 1.65709 0.764652 0
M  V30 4830 C 431.178 2.48554 -2.62494 0
M  V30 4831 O 430.899 1.96112 -3.91755 0
M  V30 4832 C 432.4 3.40572 -2.8377 0
M  V30 4833 H 429.62 0.403472 -0.536145 0
M  V30 4834 H 432.164 0.657106 -1.93655 0
M  V30 4835 H 430.319 3.1127 -2.30629 0
M  V30 4836 H 430.733 2.71967 -4.4848 0
M  V30 4837 H 432.207 4.18375 -3.60093 0
M  V30 4838 H 432.684 3.94965 -1.92092 0
M  V30 4839 H 433.29 2.8366 -3.16887 0
M  V30 4840 N 431.605 1.3629 0.791371 0
M  V30 4841 C 432.515 1.32606 1.93527 0
M  V30 4842 C 433.531 0.228541 1.72493 0
M  V30 4843 O 434.707 0.460571 1.96063 0
M  V30 4844 C 431.772 1.11271 3.28359 0
M  V30 4845 C 430.833 2.3048 3.62185 0
M  V30 4846 C 430.066 2.10154 4.90583 0
M  V30 4847 O 430.289 1.07572 5.60165 0
M  V30 4848 O 429.223 2.97884 5.23019 0
M  V30 4849 H 433.049 2.28909 1.99585 0
M  V30 4850 H 430.634 1.16818 0.931344 0
M  V30 4851 H 432.516 1.01283 4.09047 0
M  V30 4852 H 431.191 0.180292 3.23198 0
M  V30 4853 H 430.098 2.46036 2.81811 0
M  V30 4854 H 431.431 3.22221 3.72068 0
M  V30 4855 N 433.083 -1.0153 1.20538 0
M  V30 4856 C 434.031 -2.12215 0.952235 0
M  V30 4857 C 435.025 -1.69123 -0.0968735 0
M  V30 4858 O 436.231 -1.7992 0.0536006 0
M  V30 4859 H 432.606 -0.693576 0.290613 0
M  V30 4860 H 434.577 -2.3075 1.89201 0
M  V30 4861 C 433.326 -3.43755 0.522287 0
M  V30 4862 H 432.649 -3.7734 1.32115 0
M  V30 4863 H 434.089 -4.22254 0.384389 0
M  V30 4864 C 432.548 -3.28088 -0.765489 0
M  V30 4865 O 433.078 -3.57921 -1.8236 0
M  V30 4866 N 431.284 -2.81333 -0.728011 0
M  V30 4867 H 430.831 -2.57255 0.133332 0
M  V30 4868 H 430.789 -2.71232 -1.58999 0
M  V30 4869 N 434.561 -1.01147 -1.20859 0
M  V30 4870 C 435.808 -0.697865 -1.90095 0
M  V30 4871 C 436.136 0.772014 -1.78522 0
M  V30 4872 O 435.391 1.57595 -1.16027 0
M  V30 4873 C 435.69 -1.0727 -3.40922 0
M  V30 4874 C 435.356 -2.53792 -3.72693 0
M  V30 4875 C 434.018 -2.93829 -3.81075 0
M  V30 4876 C 436.37 -3.48674 -3.87397 0
M  V30 4877 C 433.698 -4.27696 -4.01613 0
M  V30 4878 C 436.05 -4.82223 -4.09444 0
M  V30 4879 C 434.714 -5.21973 -4.16054 0
M  V30 4880 H 433.984 -0.255367 -0.695607 0
M  V30 4881 H 436.631 -1.27111 -1.43231 0
M  V30 4882 H 434.936 -0.417799 -3.89566 0
M  V30 4883 H 436.633 -0.807818 -3.92779 0
M  V30 4884 H 433.223 -2.21768 -3.66765 0
M  V30 4885 H 437.407 -3.18904 -3.80281 0
M  V30 4886 H 432.663 -4.58055 -4.04964 0
M  V30 4887 H 436.837 -5.55672 -4.19763 0
M  V30 4888 H 434.464 -6.25717 -4.31721 0
M  V30 4889 N 436.039 1.36541 -0.78704 0
M  V30 4890 C 437.269 2.03266 -0.369662 0
M  V30 4891 C 437.677 1.59481 1.01796 0
M  V30 4892 O 437.02 0.778612 1.66383 0
M  V30 4893 C 437.082 3.57779 -0.351371 0
M  V30 4894 C 436.746 4.24756 -1.68617 0
M  V30 4895 C 437.743 4.47811 -2.64124 0
M  V30 4896 C 435.428 4.62277 -1.96481 0
M  V30 4897 C 437.422 5.07464 -3.85693 0
M  V30 4898 C 435.109 5.21649 -3.18317 0
M  V30 4899 C 436.107 5.44182 -4.12741 0
M  V30 4900 O 435.795 6.02307 -5.32429 0
M  V30 4901 H 435.527 0.658977 -0.150751 0
M  V30 4902 H 438.081 1.75548 -1.0664 0
M  V30 4903 H 436.311 3.84606 0.401847 0
M  V30 4904 H 438 4.05879 0.0410147 0
M  V30 4905 H 438.766 4.19221 -2.43883 0
M  V30 4906 H 434.645 4.44065 -1.23805 0
M  V30 4907 H 438.189 5.24968 -4.59407 0
M  V30 4908 H 434.086 5.49664 -3.38437 0
M  V30 4909 H 434.854 6.20775 -5.33461 0
M  V30 4910 N 437.518 0.538854 1.48102 0
M  V30 4911 C 438.748 0.0122958 2.06596 0
M  V30 4912 C 439.156 -1.27861 1.39457 0
M  V30 4913 O 438.499 -1.77348 0.478907 0
M  V30 4914 C 438.561 -0.273131 3.58461 0
M  V30 4915 C 438.225 0.92561 4.47528 0
M  V30 4916 C 439.222 1.82637 4.86765 0
M  V30 4917 C 436.907 1.13511 4.89306 0
M  V30 4918 C 438.901 2.92047 5.66558 0
M  V30 4919 C 436.588 2.23233 5.68868 0
M  V30 4920 C 437.586 3.12333 6.07402 0
M  V30 4921 O 437.274 4.20155 6.85365 0
M  V30 4922 H 437.006 0.0344283 0.675123 0
M  V30 4923 H 439.56 0.746494 1.91355 0
M  V30 4924 H 437.79 -1.06141 3.71848 0
M  V30 4925 H 439.479 -0.742842 3.99045 0
M  V30 4926 H 440.245 1.67649 4.55103 0
M  V30 4927 H 436.124 0.450835 4.5879 0
M  V30 4928 H 439.668 3.6162 5.96554 0
M  V30 4929 H 435.565 2.38201 5.99942 0
M  V30 4930 H 436.333 4.17975 7.03732 0
M  V30 4931 N 438.996 -1.55193 0.274407 0
M  V30 4932 C 439.926 -2.25471 -0.607032 0
M  V30 4933 C 440.907 -1.24461 -1.15946 0
M  V30 4934 O 442.092 -1.53179 -1.19373 0
M  V30 4935 C 439.222 -2.97526 -1.79153 0
M  V30 4936 C 438.176 -4.05459 -1.37067 0
M  V30 4937 C 437.502 -4.65084 -2.6382 0
M  V30 4938 C 438.802 -5.19691 -0.521389 0
M  V30 4939 H 440.496 -2.99393 -0.0209343 0
M  V30 4940 H 438.042 -1.43997 -0.00862866 0
M  V30 4941 H 439.995 -3.45402 -2.41404 0
M  V30 4942 H 438.719 -2.21138 -2.40344 0
M  V30 4943 H 437.378 -3.58393 -0.771355 0
M  V30 4944 H 437.026 -3.85365 -3.23268 0
M  V30 4945 H 436.726 -5.37961 -2.36372 0
M  V30 4946 H 438.25 -5.15708 -3.26921 0
M  V30 4947 H 439.664 -5.63623 -1.04889 0
M  V30 4948 H 438.061 -5.99126 -0.341825 0
M  V30 4949 H 439.131 -4.82713 0.46 0
M  V30 4950 N 440.474 -0.00167713 -1.576 0
M  V30 4951 C 441.384 1.00548 -2.1196 0
M  V30 4952 C 442.4 1.3758 -1.06526 0
M  V30 4953 O 443.576 1.46278 -1.38436 0
M  V30 4954 C 440.641 2.27809 -2.6135 0
M  V30 4955 C 439.702 1.97074 -3.81393 0
M  V30 4956 C 438.935 3.18267 -4.28417 0
M  V30 4957 O 439.158 4.30009 -3.74765 0
M  V30 4958 O 438.092 3.02167 -5.20556 0
M  V30 4959 H 441.918 0.573373 -2.98238 0
M  V30 4960 H 439.503 0.217255 -1.47812 0
M  V30 4961 H 441.385 3.02568 -2.93309 0
M  V30 4962 H 440.06 2.70254 -1.78169 0
M  V30 4963 H 438.967 1.19785 -3.54404 0
M  V30 4964 H 440.3 1.59464 -4.65652 0
M  V30 4965 N 441.952 1.55251 0.271103 0
M  V30 4966 C 443.2 1.75599 1.00047 0
M  V30 4967 C 443.521 0.561188 1.8675 0
M  V30 4968 O 442.791 -0.423846 1.9126 0
M  V30 4969 H 441.371 0.647562 0.372387 0
M  V30 4970 H 444.033 1.92656 0.294876 0
M  V30 4971 H 443.129 2.65766 1.6363 0
M  V30 4972 N 443.43 -0.535701 1.48216 0
M  V30 4973 C 444.34 -1.66785 1.64985 0
M  V30 4974 C 445.356 -1.65654 0.532414 0
M  V30 4975 O 446.532 -1.8471 0.80275 0
M  V30 4976 C 443.597 -3.0326 1.68031 0
M  V30 4977 C 442.658 -3.1529 2.9136 0
M  V30 4978 C 441.891 -4.45255 2.94252 0
M  V30 4979 O 442.114 -5.32011 2.05719 0
M  V30 4980 O 441.048 -4.6153 3.86359 0
M  V30 4981 H 444.874 -1.55576 2.60825 0
M  V30 4982 H 442.459 -0.70815 1.31551 0
M  V30 4983 H 444.341 -3.84436 1.72589 0
M  V30 4984 H 443.016 -3.14805 0.753628 0
M  V30 4985 H 441.923 -2.3343 2.92337 0
M  V30 4986 H 443.256 -3.08658 3.83394 0
M  V30 4987 N 444.908 -1.36708 -0.784132 0
M  V30 4988 C 446.324 -1.17237 -1.08294 0
M  V30 4989 C 446.524 -5.93947e-05 -2.015 0
M  V30 4990 O 445.58 0.663686 -2.43622 0
M  V30 4991 C 446.893 -2.48557 -1.69233 0
M  V30 4992 C 448.441 -2.54968 -1.8155 0
M  V30 4993 C 448.916 -3.86388 -2.45904 0
M  V30 4994 N 450.407 -3.87762 -2.53367 0
M  V30 4995 C 451.142 -4.86191 -3.03983 0
M  V30 4996 N 450.638 -5.95015 -3.54866 0
M  V30 4997 N 452.431 -4.73606 -3.02743 0
M  V30 4998 H 444.582 -2.11758 -0.16501 0
M  V30 4999 H 446.845 -0.93822 -0.135822 0
M  V30 5000 H 446.551 -3.34638 -1.08215 0
M  V30 5001 H 446.425 -2.64748 -2.68679 0
M  V30 5002 H 448.812 -1.69302 -2.41704 0
M  V30 5003 H 448.893 -2.42672 -0.80895 0
M  V30 5004 H 448.537 -4.72462 -1.86392 0
M  V30 5005 H 448.467 -3.95982 -3.4714 0
M  V30 5006 H 450.958 -3.09145 -2.17343 0
M  V30 5007 H 451.271 -6.66086 -3.91854 0
M  V30 5008 H 449.616 -5.98676 -3.53003 0
M  V30 5009 H 452.807 -3.87717 -2.62284 0
M  V30 5010 H 452.98 -5.50473 -3.41881 0
M  V30 5011 N 446.386 1.0089 -1.21074 0
M  V30 5012 C 447.616 1.77933 -1.04993 0
M  V30 5013 C 448.024 1.84847 0.403495 0
M  V30 5014 O 447.367 1.30606 1.29181 0
M  V30 5015 C 447.429 3.23541 -1.56722 0
M  V30 5016 C 447.093 3.40214 -3.05129 0
M  V30 5017 C 448.09 3.2881 -4.02716 0
M  V30 5018 C 445.775 3.65781 -3.44252 0
M  V30 5019 C 447.769 3.42732 -5.37414 0
M  V30 5020 C 445.456 3.79346 -4.79103 0
M  V30 5021 C 446.454 3.67827 -5.75493 0
M  V30 5022 O 446.142 3.80965 -7.07899 0
M  V30 5023 H 445.874 0.566157 -0.369381 0
M  V30 5024 H 448.428 1.27826 -1.60779 0
M  V30 5025 H 446.658 3.74766 -0.953285 0
M  V30 5026 H 448.347 3.82245 -1.36543 0
M  V30 5027 H 449.113 3.08986 -3.73835 0
M  V30 5028 H 444.992 3.73831 -2.69762 0
M  V30 5029 H 448.536 3.33658 -6.12632 0
M  V30 5030 H 444.433 3.98672 -5.07672 0
M  V30 5031 H 445.201 3.97937 -7.15254 0
M  V30 5032 N 447.864 1.01787 1.20321 0
M  V30 5033 C 448.827 0.593972 2.2137 0
M  V30 5034 C 449.827 -0.336553 1.57239 0
M  V30 5035 O 451.017 -0.125069 1.7375 0
M  V30 5036 C 448.149 -0.132433 3.40643 0
M  V30 5037 H 449.342 1.48791 2.60387 0
M  V30 5038 H 446.895 0.807803 1.33807 0
M  V30 5039 H 447.63 -1.04123 3.0713 0
M  V30 5040 H 447.415 0.53605 3.88418 0
M  V30 5041 H 448.905 -0.416314 4.1552 0
M  V30 5042 N 449.342 -1.36122 0.79427 0
M  V30 5043 C 450.272 -2.32551 0.210328 0
M  V30 5044 C 451.253 -1.56884 -0.657386 0
M  V30 5045 O 452.438 -1.85014 -0.590207 0
M  V30 5046 C 449.568 -3.41128 -0.651819 0
M  V30 5047 C 448.522 -4.27842 0.116395 0
M  V30 5048 C 447.848 -5.2763 -0.86666 0
M  V30 5049 C 449.148 -5.05647 1.30837 0
M  V30 5050 H 450.842 -2.81636 1.01594 0
M  V30 5051 H 448.388 -1.35407 0.489981 0
M  V30 5052 H 450.341 -4.07581 -1.07031 0
M  V30 5053 H 449.065 -2.90622 -1.49019 0
M  V30 5054 H 447.724 -3.62952 0.515915 0
M  V30 5055 H 447.372 -4.73395 -1.70019 0
M  V30 5056 H 447.072 -5.86514 -0.35705 0
M  V30 5057 H 448.596 -5.96955 -1.28361 0
M  V30 5058 H 450.01 -5.65113 0.965393 0
M  V30 5059 H 448.407 -5.73967 1.75161 0
M  V30 5060 H 449.477 -4.37006 2.10128 0
M  V30 5061 N 450.82 -0.546701 -1.47814 0
M  V30 5062 C 451.75 0.195317 -2.32682 0
M  V30 5063 C 452.731 0.918981 -1.43139 0
M  V30 5064 O 453.916 0.901501 -1.72008 0
M  V30 5065 C 451.046 1.23237 -3.247 0
M  V30 5066 C 450 0.625818 -4.234 0
M  V30 5067 C 449.326 1.76674 -5.04669 0
M  V30 5068 C 450.626 -0.413515 -5.2066 0
M  V30 5069 H 452.32 -0.513184 -2.94969 0
M  V30 5070 H 449.866 -0.248241 -1.41844 0
M  V30 5071 H 451.819 1.75955 -3.82907 0
M  V30 5072 H 450.543 1.97067 -2.60446 0
M  V30 5073 H 449.202 0.120023 -3.66403 0
M  V30 5074 H 448.85 2.49383 -4.36826 0
M  V30 5075 H 448.55 1.36673 -5.71484 0
M  V30 5076 H 450.074 2.29738 -5.65732 0
M  V30 5077 H 451.488 0.0272042 -5.73294 0
M  V30 5078 H 449.885 -0.731825 -5.95621 0
M  V30 5079 H 450.955 -1.31325 -4.66778 0
M  V30 5080 N 452.299 1.55045 -0.282633 0
M  V30 5081 C 453.539 2.01668 0.333088 0
M  V30 5082 C 453.903 1.1667 1.52486 0
M  V30 5083 O 455.104 1.52907 2.21072 0
M  V30 5084 C 453.375 3.50509 0.698442 0
M  V30 5085 S 454.934 4.19112 1.29963 0
M  V30 5086 H 451.752 0.703468 0.103219 0
M  V30 5087 H 454.354 1.91233 -0.406222 0
M  V30 5088 H 453.058 4.10015 -0.177693 0
M  V30 5089 H 452.589 3.64943 1.46902 0
M  V30 5090 H 454.604 4.23362 2.58803 0
M  V30 5091 N 453.777 0.010035 1.57597 0
M  V30 5092 C 455.025 -0.671371 1.90623 0
M  V30 5093 C 455.346 -1.73753 0.885151 0
M  V30 5094 O 454.616 -1.95752 -0.0760611 0
M  V30 5095 H 453.196 -0.250968 0.703579 0
M  V30 5096 H 455.858 0.0533325 1.94827 0
M  V30 5097 H 454.954 -1.13626 2.90681 0
M  V30 5098 N 455.255 -1.55392 -0.262866 0
M  V30 5099 C 456.203 -1.8977 -1.345 0
M  V30 5100 C 457.197 -0.775063 -1.50629 0
M  V30 5101 O 458.403 -0.959519 -1.52293 0
M  V30 5102 H 454.778 -0.602467 -0.450041 0
M  V30 5103 H 456.749 -2.80147 -1.02762 0
M  V30 5104 C 455.498 -2.19501 -2.69657 0
M  V30 5105 H 454.821 -3.05378 -2.5804 0
M  V30 5106 H 456.261 -2.47469 -3.44289 0
M  V30 5107 C 454.72 -1.00597 -3.21531 0
M  V30 5108 O 455.25 -0.245768 -4.00947 0
M  V30 5109 N 453.456 -0.800911 -2.79345 0
M  V30 5110 H 453.003 -1.42079 -2.14875 0
M  V30 5111 H 452.961 -0.00697996 -3.14399 0
M  V30 5112 N 456.733 0.527833 -1.48498 0
M  V30 5113 C 458.149 0.856571 -1.34666 0
M  V30 5114 C 458.349 1.98271 -0.35931 0
M  V30 5115 O 457.405 2.51551 0.218703 0
M  V30 5116 C 458.718 1.22207 -2.74747 0
M  V30 5117 C 460.266 1.33183 -2.83251 0
M  V30 5118 C 460.741 1.73075 -4.24039 0
M  V30 5119 N 462.232 1.80174 -4.26722 0
M  V30 5120 C 462.967 2.1243 -5.32598 0
M  V30 5121 N 462.463 2.43096 -6.4875 0
M  V30 5122 N 464.256 2.13454 -5.19994 0
M  V30 5123 H 456.407 -0.215174 -2.11307 0
M  V30 5124 H 458.67 -0.0336281 -0.947403 0
M  V30 5125 H 458.376 0.468195 -3.4857 0
M  V30 5126 H 458.25 2.17173 -3.08409 0
M  V30 5127 H 460.637 2.07647 -2.09683 0
M  V30 5128 H 460.718 0.363333 -2.53206 0
M  V30 5129 H 460.362 0.991712 -4.98124 0
M  V30 5130 H 460.292 2.70979 -4.51529 0
M  V30 5131 H 462.783 1.58744 -3.42942 0
M  V30 5132 H 463.096 2.6682 -7.25277 0
M  V30 5133 H 461.441 2.40611 -6.52021 0
M  V30 5134 H 464.632 1.88956 -4.28268 0
M  V30 5135 H 464.805 2.38261 -6.02608 0
M  V30 5136 N 458.211 1.37122 0.776871 0
M  V30 5137 C 459.439 1.3523 1.5659 0
M  V30 5138 C 459.854 -0.0635518 1.88693 0
M  V30 5139 O 459.211 -1.02394 1.51069 0
M  V30 5140 C 459.262 2.18583 2.8793 0
M  V30 5141 O 458.983 3.5465 2.57206 0
M  V30 5142 C 460.484 2.24612 3.82183 0
M  V30 5143 H 457.704 0.4634 0.485285 0
M  V30 5144 H 460.248 1.80392 0.963266 0
M  V30 5145 H 458.403 1.76943 3.4463 0
M  V30 5146 H 458.817 3.98286 3.41275 0
M  V30 5147 H 460.291 2.87267 4.71361 0
M  V30 5148 H 460.768 1.25309 4.20944 0
M  V30 5149 H 461.374 2.66543 3.31414 0
M  V30 5150 N 459.689 -1.00246 1.21608 0
M  V30 5151 C 460.966 -1.71336 0.943568 0
M  V30 5152 C 461.346 -2.03972 -0.543943 0
M  V30 5153 O 460.694 -1.71545 -1.50946 0
M  V30 5154 C 460.904 -2.97094 1.83128 0
M  V30 5155 C 462.252 -3.70071 2.08165 0
M  V30 5156 O 463.276 -3.07081 1.80498 0
M  V30 5157 O 462.135 -4.83376 2.54971 0
M  V30 5158 H 459.229 -0.747386 0.354039 0
M  V30 5159 H 461.775 -1.05967 1.32549 0
M  V30 5160 H 460.547 -2.69407 2.83788 0
M  V30 5161 H 460.17 -3.70204 1.45034 0
M  V30 5162 N 461.167 -1.02423 -1.1978 0
M  V30 5163 C 462.13 -0.605703 -2.21052 0
M  V30 5164 C 463.13 0.328209 -1.57415 0
M  V30 5165 O 464.32 0.115853 -1.73814 0
M  V30 5166 C 461.452 0.114366 -3.40708 0
M  V30 5167 H 462.645 -1.5017 -2.59594 0
M  V30 5168 H 460.198 -0.814888 -1.33376 0
M  V30 5169 H 460.933 1.02492 -3.07678 0
M  V30 5170 H 460.718 -0.556641 -3.88129 0
M  V30 5171 H 462.208 0.394272 -4.15735 0
M  V30 5172 N 462.645 1.35699 -0.801477 0
M  V30 5173 C 463.893 1.9852 -0.37871 0
M  V30 5174 C 464.214 1.63907 1.05638 0
M  V30 5175 O 463.484 0.919013 1.73006 0
M  V30 5176 H 462.064 0.734322 -0.137042 0
M  V30 5177 H 464.726 1.65697 -1.02619 0
M  V30 5178 H 463.822 3.08382 -0.480284 0
M  V30 5179 N 464.123 0.554532 1.47522 0
M  V30 5180 C 465.055 -0.232106 2.28022 0
M  V30 5181 C 466.068 -0.881865 1.36847 0
M  V30 5182 O 467.257 -0.756168 1.61692 0
M  V30 5183 C 464.357 -1.34604 3.11022 0
M  V30 5184 C 463.53 -0.793582 4.30141 0
M  V30 5185 C 462.589 -1.79168 4.94758 0
M  V30 5186 O 461.615 -1.33886 5.5323 0
M  V30 5187 N 462.817 -3.12495 4.89211 0
M  V30 5188 H 465.582 0.458407 2.96173 0
M  V30 5189 H 463.143 0.390433 1.57122 0
M  V30 5190 H 465.135 -2.01243 3.51118 0
M  V30 5191 H 463.705 -1.93983 2.45131 0
M  V30 5192 H 462.925 0.0495025 3.94169 0
M  V30 5193 H 464.213 -0.403776 5.07195 0
M  V30 5194 H 463.611 -3.51931 4.42901 0
M  V30 5195 H 462.168 -3.74698 5.33333 0
M  V30 5196 N 465.601 -1.54893 0.290851 0
M  V30 5197 C 466.841 -2.01842 -0.322388 0
M  V30 5198 C 467.205 -1.17477 -1.51865 0
M  V30 5199 O 468.406 -1.54077 -2.20258 0
M  V30 5200 C 466.677 -3.50874 -0.679844 0
M  V30 5201 S 468.236 -4.19796 -1.27739 0
M  V30 5202 H 465.054 -0.704005 -0.0994866 0
M  V30 5203 H 467.656 -1.91015 0.416358 0
M  V30 5204 H 466.36 -4.09915 0.199435 0
M  V30 5205 H 465.891 -3.65717 -1.44964 0
M  V30 5206 H 467.906 -4.24729 -2.56554 0
M  V30 5207 N 467.08 -0.0183926 -1.57589 0
M  V30 5208 C 468.491 0.521927 -1.79256 0
M  V30 5209 C 468.842 1.72885 -0.927636 0
M  V30 5210 O 467.967 2.15978 -0.135091 0
M  V30 5211 C 468.562 0.953632 -3.25102 0
M  V30 5212 C 467.121 1.43913 -3.47801 0
M  V30 5213 C 466.268 0.398837 -2.74417 0
M  V30 5214 H 469.219 -0.244485 -1.56805 0
M  V30 5215 H 469.24 1.81863 -3.34224 0
M  V30 5216 H 468.752 0.0750123 -3.88028 0
M  V30 5217 H 466.853 2.33804 -2.90115 0
M  V30 5218 H 466.966 1.45391 -4.56507 0
M  V30 5219 H 465.33 0.864572 -2.39577 0
M  V30 5220 H 466.113 -0.471132 -3.40052 0
M  V30 5221 N 468.558 1.5553 0.254621 0
M  V30 5222 C 469.468 1.92789 1.33677 0
M  V30 5223 C 470.484 0.827356 1.53071 0
M  V30 5224 O 471.66 1.12807 1.66843 0
M  V30 5225 C 468.725 2.20827 2.67275 0
M  V30 5226 C 467.786 3.4427 2.5647 0
M  V30 5227 C 467.019 3.70961 3.83697 0
M  V30 5228 O 467.242 2.99852 4.85227 0
M  V30 5229 O 466.176 4.64491 3.82794 0
M  V30 5230 H 470.002 2.84945 1.05071 0
M  V30 5231 H 467.587 1.42312 0.454723 0
M  V30 5232 H 469.469 2.40204 3.46237 0
M  V30 5233 H 468.144 1.31851 2.9563 0
M  V30 5234 H 467.051 3.30209 1.75821 0
M  V30 5235 H 468.384 4.33524 2.33062 0
M  V30 5236 N 470.036 -0.519951 1.48776 0
M  V30 5237 C 471.284 -1.2727 1.56993 0
M  V30 5238 C 471.605 -1.9339 0.25004 0
M  V30 5239 O 470.875 -1.81822 -0.729216 0
M  V30 5240 H 469.455 -0.472732 0.578389 0
M  V30 5241 H 472.117 -0.604234 1.85297 0
M  V30 5242 H 471.213 -2.04669 2.3562 0
M  V30 5243 N 471.514 -1.37532 -0.769588 0
M  V30 5244 C 472.744 -1.35861 -1.55645 0
M  V30 5245 C 473.152 0.0574398 -1.89113 0
M  V30 5246 O 472.495 1.03021 -1.52093 0
M  V30 5247 C 472.557 -2.13431 -2.89288 0
M  V30 5248 C 472.221 -3.62378 -2.78444 0
M  V30 5249 C 473.218 -4.56215 -2.49326 0
M  V30 5250 C 470.903 -4.05529 -2.96398 0
M  V30 5251 C 472.897 -5.91181 -2.38294 0
M  V30 5252 C 470.584 -5.40579 -2.84987 0
M  V30 5253 C 471.582 -6.33218 -2.55975 0
M  V30 5254 O 471.27 -7.65787 -2.44594 0
M  V30 5255 H 471.002 -0.467001 -0.48876 0
M  V30 5256 H 473.556 -1.81505 -0.961515 0
M  V30 5257 H 471.786 -1.62481 -3.50909 0
M  V30 5258 H 473.475 -2.04368 -3.50697 0
M  V30 5259 H 474.241 -4.24187 -2.35139 0
M  V30 5260 H 470.12 -3.33781 -3.1798 0
M  V30 5261 H 473.664 -6.63457 -2.15571 0
M  V30 5262 H 469.561 -5.72209 -2.98743 0
M  V30 5263 H 470.329 -7.76132 -2.59927 0
M  V30 5264 N 472.992 0.995999 -1.22138 0
M  V30 5265 C 474.238 1.73767 -1.04561 0
M  V30 5266 C 474.571 1.89633 0.418698 0
M  V30 5267 O 473.846 1.43723 1.3105 0
M  V30 5268 C 474.129 3.14505 -1.75382 0
M  V30 5269 C 473.982 3.06306 -3.29388 0
M  V30 5270 C 475.301 4.13615 -1.50369 0
M  V30 5271 H 472.42 0.630728 -0.38125 0
M  V30 5272 H 475.062 1.16057 -1.50435 0
M  V30 5273 H 473.212 3.63775 -1.36383 0
M  V30 5274 H 474.884 2.64681 -3.77812 0
M  V30 5275 H 473.127 2.43186 -3.59226 0
M  V30 5276 H 473.798 4.05884 -3.74116 0
M  V30 5277 H 476.274 3.73089 -1.84239 0
M  V30 5278 H 475.15 5.10212 -2.02421 0
M  V30 5279 H 475.411 4.39949 -0.435611 0
M  V30 5280 N 474.47 1.03057 1.19235 0
M  V30 5281 C 475.71 0.736757 1.9066 0
M  V30 5282 C 476.074 -0.721521 1.77927 0
M  V30 5283 O 477.275 -1.12849 2.43964 0
M  V30 5284 C 475.546 1.17755 3.37444 0
M  V30 5285 S 477.105 1.00783 4.27069 0
M  V30 5286 H 473.923 0.268174 0.658486 0
M  V30 5287 H 476.525 1.32076 1.4414 0
M  V30 5288 H 475.229 2.23448 3.44237 0
M  V30 5289 H 474.76 0.586912 3.88997 0
M  V30 5290 H 476.775 -0.0806356 4.96134 0
M  V30 5291 N 475.948 -1.35272 0.808662 0
M  V30 5292 C 477.194 -1.99003 0.390581 0
M  V30 5293 C 477.527 -1.63999 -1.0401 0
M  V30 5294 O 476.802 -0.904368 -1.72196 0
M  V30 5295 C 477.085 -3.55454 0.576566 0
M  V30 5296 C 476.938 -4.00249 2.05233 0
M  V30 5297 C 478.257 -4.401 0.00354277 0
M  V30 5298 H 475.376 -0.722917 0.143388 0
M  V30 5299 H 478.018 -1.6039 1.01858 0
M  V30 5300 H 476.168 -3.88477 0.0419766 0
M  V30 5301 H 477.84 -3.77626 2.64946 0
M  V30 5302 H 476.083 -3.51082 2.54801 0
M  V30 5303 H 476.754 -5.0911 2.13333 0
M  V30 5304 H 479.23 -4.13548 0.460117 0
M  V30 5305 H 478.106 -5.48656 0.163575 0
M  V30 5306 H 478.367 -4.28444 -1.09032 0
M  V30 5307 N 477.426 -0.562348 -1.47226 0
M  V30 5308 C 478.373 0.182461 -2.30078 0
M  V30 5309 C 479.343 0.903503 -1.39377 0
M  V30 5310 O 480.528 0.898188 -1.68337 0
M  V30 5311 C 477.668 1.20322 -3.23445 0
M  V30 5312 C 476.781 0.487717 -4.29238 0
M  V30 5313 C 475.916 1.49422 -5.09752 0
M  V30 5314 C 474.955 0.763976 -6.07314 0
M  V30 5315 N 474.092 1.71755 -6.80768 0
M  V30 5316 H 478.932 -0.530169 -2.93246 0
M  V30 5317 H 476.469 -0.273276 -1.44539 0
M  V30 5318 H 478.427 1.80768 -3.76004 0
M  V30 5319 H 477.057 1.88382 -2.6213 0
M  V30 5320 H 476.109 -0.231374 -3.79696 0
M  V30 5321 H 477.421 -0.0841003 -4.98729 0
M  V30 5322 H 476.575 2.17206 -5.66486 0
M  V30 5323 H 475.314 2.09995 -4.40174 0
M  V30 5324 H 474.319 0.0722344 -5.49753 0
M  V30 5325 H 475.544 0.16391 -6.78902 0
M  V30 5326 H 473.49 2.31177 -6.13916 0
M  V30 5327 H 473.407 1.19802 -7.46447 0
M  V30 5328 H 474.675 2.38638 -7.42073 0
M  V30 5329 N 478.904 1.54736 -0.299062 0
M  V30 5330 C 479.867 2.22127 0.565012 0
M  V30 5331 C 480.867 1.20669 1.06281 0
M  V30 5332 O 482.057 1.45417 0.959145 0
M  V30 5333 C 479.189 2.90611 1.78208 0
M  V30 5334 H 480.382 2.99891 -0.0237448 0
M  V30 5335 H 477.935 1.5622 -0.0498788 0
M  V30 5336 H 478.67 2.16921 2.41072 0
M  V30 5337 H 478.455 3.64984 1.43281 0
M  V30 5338 H 479.945 3.42026 2.396 0
M  V30 5339 N 480.382 0.0267497 1.57577 0
M  V30 5340 C 481.63 -0.651116 1.91324 0
M  V30 5341 C 481.951 -1.72804 0.90353 0
M  V30 5342 O 481.221 -1.95822 -0.0552946 0
M  V30 5343 H 479.801 -0.243491 0.706202 0
M  V30 5344 H 482.463 0.0739935 1.94759 0
M  V30 5345 H 481.559 -1.10536 2.9187 0
M  V30 5346 N 481.861 -1.55662 -0.24637 0
M  V30 5347 C 483.11 -1.7672 -0.972254 0
M  V30 5348 C 483.423 -0.59078 -1.86465 0
M  V30 5349 O 484.629 -0.684391 -2.62732 0
M  V30 5350 C 483.085 -3.12869 -1.7788 0
M  V30 5351 C 482.693 -4.38161 -0.933768 0
M  V30 5352 C 484.437 -3.43265 -2.49738 0
M  V30 5353 C 482.344 -5.6534 -1.73623 0
M  V30 5354 H 481.274 -0.658795 -0.366749 0
M  V30 5355 H 483.925 -1.82092 -0.226902 0
M  V30 5356 H 482.307 -3.01606 -2.56612 0
M  V30 5357 H 483.481 -4.60413 -0.188736 0
M  V30 5358 H 481.796 -4.15102 -0.328488 0
M  V30 5359 H 484.393 -4.35501 -3.10231 0
M  V30 5360 H 484.736 -2.64614 -3.2138 0
M  V30 5361 H 485.269 -3.55746 -1.78016 0
M  V30 5362 H 482.008 -6.46814 -1.06354 0
M  V30 5363 H 481.528 -5.47188 -2.45653 0
M  V30 5364 H 483.207 -6.04616 -2.30323 0
M  V30 5365 N 483.339 0.512053 -1.4905 0
M  V30 5366 C 484.287 1.63568 -1.65373 0
M  V30 5367 C 485.281 1.61228 -0.519806 0
M  V30 5368 O 486.487 1.65869 -0.699101 0
M  V30 5369 H 482.862 0.542019 -0.521267 0
M  V30 5370 H 484.833 1.4695 -2.59708 0
M  V30 5371 C 483.582 3.01761 -1.7273 0
M  V30 5372 H 482.905 3.04263 -2.59353 0
M  V30 5373 H 484.345 3.79948 -1.8819 0
M  V30 5374 C 482.804 3.33609 -0.46973 0
M  V30 5375 O 483.334 3.99607 0.409492 0
M  V30 5376 N 481.54 2.88651 -0.336003 0
M  V30 5377 H 481.087 2.35119 -1.05247 0
M  V30 5378 H 481.045 3.10328 0.504363 0
M  V30 5379 N 484.817 1.37938 0.762283 0
M  V30 5380 C 486.228 1.30094 1.33912 0
M  V30 5381 C 486.579 -0.0472026 1.96143 0
M  V30 5382 O 485.704 -0.94917 1.94473 0
M  V30 5383 C 486.299 2.35592 2.43478 0
M  V30 5384 C 484.858 2.31353 2.96905 0
M  V30 5385 C 484.005 2.18919 1.70205 0
M  V30 5386 H 486.956 1.48423 0.561816 0
M  V30 5387 H 486.977 2.00806 3.23199 0
M  V30 5388 H 486.489 3.33701 1.98155 0
M  V30 5389 H 484.59 1.36799 3.46579 0
M  V30 5390 H 484.703 3.25147 3.51875 0
M  V30 5391 H 483.067 1.65624 1.93496 0
M  V30 5392 H 483.85 3.18956 1.26973 0
M  V30 5393 N 486.295 -0.989507 1.22664 0
M  V30 5394 C 487.572 -1.70326 0.961688 0
M  V30 5395 C 487.952 -2.04537 -0.522279 0
M  V30 5396 O 487.3 -1.73136 -1.49118 0
M  V30 5397 C 487.51 -2.95135 1.86269 0
M  V30 5398 C 488.858 -3.67842 2.12078 0
M  V30 5399 O 489.882 -3.0515 1.83745 0
M  V30 5400 O 488.741 -4.80644 2.60083 0
M  V30 5401 H 485.835 -0.743589 0.361946 0
M  V30 5402 H 488.381 -1.04555 1.33665 0
M  V30 5403 H 487.153 -2.66382 2.8663 0
M  V30 5404 H 486.776 -3.68645 1.48952 0
M  V30 5405 N 487.773 -1.03688 -1.18687 0
M  V30 5406 C 488.705 -0.582696 -2.21669 0
M  V30 5407 C 489.718 0.345656 -1.59088 0
M  V30 5408 O 490.907 0.140776 -1.77944 0
M  V30 5409 C 488.007 0.169204 -3.38477 0
M  V30 5410 C 487.18 -0.766079 -4.30639 0
M  V30 5411 C 486.239 -0.0581541 -5.26168 0
M  V30 5412 O 485.265 -0.687346 -5.65035 0
M  V30 5413 N 486.467 1.20981 -5.67753 0
M  V30 5414 H 489.232 -1.46843 -2.61261 0
M  V30 5415 H 486.793 -0.916896 -1.33434 0
M  V30 5416 H 488.785 0.652543 -3.99405 0
M  V30 5417 H 487.355 0.956435 -2.97609 0
M  V30 5418 H 486.575 -1.42935 -3.67373 0
M  V30 5419 H 487.863 -1.40146 -4.89118 0
M  V30 5420 H 487.261 1.74159 -5.38224 0
M  V30 5421 H 485.818 1.6375 -6.30896 0
M  V30 5422 N 489.251 1.34841 -0.815825 0
M  V30 5423 C 490.499 1.98107 -0.399744 0
M  V30 5424 C 490.82 1.65019 1.03894 0
M  V30 5425 O 490.09 0.937311 1.72021 0
M  V30 5426 H 488.67 0.732827 -0.144823 0
M  V30 5427 H 491.332 1.64599 -1.0437 0
M  V30 5428 H 490.428 3.07856 -0.512965 0
M  V30 5429 N 490.729 0.570148 1.46925 0
M  V30 5430 C 491.976 0.0509529 2.02436 0
M  V30 5431 C 492.304 -1.30405 1.44308 0
M  V30 5432 O 491.559 -1.86493 0.593198 0
M  V30 5433 C 491.858 -0.0780336 3.57315 0
M  V30 5434 C 491.524 1.20775 4.34424 0
M  V30 5435 C 490.186 1.56004 4.5521 0
M  V30 5436 C 492.538 2.0592 4.78797 0
M  V30 5437 C 489.866 2.76201 5.17619 0
M  V30 5438 C 492.218 3.25332 5.42533 0
M  V30 5439 C 490.882 3.60859 5.61549 0
M  V30 5440 H 490.152 0.018645 0.740765 0
M  V30 5441 H 492.799 0.744262 1.76445 0
M  V30 5442 H 491.104 -0.854394 3.82371 0
M  V30 5443 H 492.801 -0.495312 3.97929 0
M  V30 5444 H 489.391 0.923469 4.18533 0
M  V30 5445 H 493.575 1.80008 4.62505 0
M  V30 5446 H 488.831 3.0388 5.30535 0
M  V30 5447 H 493.005 3.91586 5.75876 0
M  V30 5448 H 490.632 4.54088 6.09678 0
M  V30 5449 N 492.207 -1.54576 0.307264 0
M  V30 5450 C 493.435 -2.04675 -0.302597 0
M  V30 5451 C 493.85 -1.18425 -1.47041 0
M  V30 5452 O 493.207 -0.211257 -1.81273 0
M  V30 5453 C 493.258 -3.53575 -0.752801 0
M  V30 5454 O 492.979 -4.36547 0.368536 0
M  V30 5455 C 494.48 -4.19699 -1.42717 0
M  V30 5456 H 491.7 -0.66786 -0.0648374 0
M  V30 5457 H 494.244 -1.99516 0.448716 0
M  V30 5458 H 492.399 -3.59074 -1.45412 0
M  V30 5459 H 492.813 -5.24497 0.0168937 0
M  V30 5460 H 494.287 -5.25388 -1.69327 0
M  V30 5461 H 494.764 -3.69815 -2.36925 0
M  V30 5462 H 495.37 -4.18293 -0.768856 0
M  V30 5463 N 493.685 -0.035106 -1.57561 0
M  V30 5464 C 494.633 0.962707 -2.11742 0
M  V30 5465 C 495.627 1.33296 -1.0454 0
M  V30 5466 O 496.833 1.31449 -1.22968 0
M  V30 5467 H 493.208 0.32826 -0.676572 0
M  V30 5468 H 495.179 0.48048 -2.94506 0
M  V30 5469 C 493.928 2.23388 -2.66445 0
M  V30 5470 H 493.251 1.95774 -3.48587 0
M  V30 5471 H 494.691 2.91402 -3.07995 0
M  V30 5472 C 493.15 2.96769 -1.59467 0
M  V30 5473 O 493.68 3.89105 -0.998 0
M  V30 5474 N 491.886 2.59212 -1.31369 0
M  V30 5475 H 491.433 1.84202 -1.80076 0
M  V30 5476 H 491.391 3.08618 -0.600173 0
M  V30 5477 N 495.163 1.55791 0.238111 0
M  V30 5478 C 496.41 1.78033 0.964907 0
M  V30 5479 C 496.738 0.600984 1.84982 0
M  V30 5480 O 495.993 -0.41536 1.91241 0
M  V30 5481 C 496.292 3.05869 1.84875 0
M  V30 5482 C 495.958 4.36808 1.11846 0
M  V30 5483 C 494.62 4.72388 0.916662 0
M  V30 5484 C 496.972 5.17717 0.60151 0
M  V30 5485 C 494.3 5.86406 0.185756 0
M  V30 5486 C 496.652 6.32494 -0.115972 0
M  V30 5487 C 495.316 6.66688 -0.329168 0
M  V30 5488 H 494.586 0.651469 0.353085 0
M  V30 5489 H 497.233 1.90061 0.234318 0
M  V30 5490 H 495.538 2.88891 2.64668 0
M  V30 5491 H 497.235 3.20278 2.41294 0
M  V30 5492 H 493.825 4.08862 1.28569 0
M  V30 5493 H 498.009 4.90678 0.744932 0
M  V30 5494 H 493.265 6.11399 0.0101886 0
M  V30 5495 H 497.439 6.94425 -0.524127 0
M  V30 5496 H 495.066 7.54884 -0.897474 0
M  V30 5497 N 496.642 -0.504142 1.49319 0
M  V30 5498 C 497.919 -1.26548 1.49147 0
M  V30 5499 C 498.299 -2.09977 0.21744 0
M  V30 5500 O 497.647 -2.14028 -0.800269 0
M  V30 5501 C 497.857 -2.12489 2.76857 0
M  V30 5502 C 499.205 -2.7178 3.26222 0
M  V30 5503 O 500.229 -2.22758 2.77952 0
M  V30 5504 O 499.088 -3.61015 4.10281 0
M  V30 5505 H 496.182 -0.572495 0.596806 0
M  V30 5506 H 498.728 -0.51867 1.61579 0
M  V30 5507 H 497.5 -1.50796 3.61077 0
M  V30 5508 H 497.123 -2.94368 2.6727 0
M  V30 5509 N 498.12 -1.38341 -0.754957 0
M  V30 5510 C 499.345 -1.37882 -1.5493 0
M  V30 5511 C 499.77 0.0296385 -1.88077 0
M  V30 5512 O 499.128 1.01133 -1.50472 0
M  V30 5513 C 499.176 -2.23996 -2.82592 0
M  V30 5514 O 498.28 -1.65612 -3.77686 0
M  V30 5515 H 497.621 -0.470384 -0.468652 0
M  V30 5516 H 500.151 -1.82084 -0.933082 0
M  V30 5517 H 500.161 -2.37806 -3.3153 0
M  V30 5518 H 498.836 -3.26365 -2.57796 0
M  V30 5519 H 497.413 -1.60936 -3.36384 0
M  V30 5520 N 499.598 0.982988 -1.23187 0
M  V30 5521 C 500.845 1.72392 -1.06241 0
M  V30 5522 C 501.173 1.9032 0.40108 0
M  V30 5523 O 500.428 1.45084 1.31336 0
M  V30 5524 C 500.727 3.12736 -1.73006 0
M  V30 5525 C 500.393 3.14695 -3.22921 0
M  V30 5526 C 499.055 3.14937 -3.63824 0
M  V30 5527 C 501.407 3.10211 -4.1883 0
M  V30 5528 C 498.735 3.08408 -4.99101 0
M  V30 5529 C 501.087 3.05224 -5.54095 0
M  V30 5530 C 499.751 3.03787 -5.94365 0
M  V30 5531 H 499.021 0.630829 -0.388762 0
M  V30 5532 H 501.668 1.15053 -1.53085 0
M  V30 5533 H 499.973 3.73446 -1.18514 0
M  V30 5534 H 501.67 3.68828 -1.57374 0
M  V30 5535 H 498.26 3.15262 -2.90358 0
M  V30 5536 H 502.444 3.09166 -3.8824 0
M  V30 5537 H 497.7 3.05646 -5.29519 0
M  V30 5538 H 501.874 3.00712 -6.28128 0
M  V30 5539 H 499.501 2.98483 -6.99151 0
M  V30 5540 N 501.076 1.04316 1.18135 0
M  V30 5541 C 502.324 0.746542 1.87806 0
M  V30 5542 C 502.645 -0.728082 1.80898 0
M  V30 5543 O 501.915 -1.52554 1.22899 0
M  V30 5544 H 500.495 0.273157 0.695265 0
M  V30 5545 H 503.157 1.32044 1.43354 0
M  V30 5546 H 502.253 1.05362 2.93778 0
M  V30 5547 N 502.554 -1.34406 0.822964 0
M  V30 5548 C 503.8 -1.98999 0.420847 0
M  V30 5549 C 504.155 -1.64067 -1.00498 0
M  V30 5550 O 503.448 -0.902071 -1.69036 0
M  V30 5551 C 503.642 -3.52981 0.560268 0
M  V30 5552 C 503.471 -4.02873 1.99809 0
M  V30 5553 C 502.241 -4.31463 2.62998 0
M  V30 5554 C 504.439 -4.20241 2.96483 0
M  V30 5555 N 502.421 -4.6739 3.9802 0
M  V30 5556 C 503.792 -4.59348 4.16413 0
M  V30 5557 C 505.847 -4.02489 2.93098 0
M  V30 5558 C 504.55 -4.82559 5.33413 0
M  V30 5559 C 506.576 -4.26866 4.09315 0
M  V30 5560 C 505.938 -4.6626 5.27997 0
M  V30 5561 H 502.037 -0.755432 0.202104 0
M  V30 5562 H 504.621 -1.62815 1.06767 0
M  V30 5563 H 502.792 -3.88359 -0.0566596 0
M  V30 5564 H 504.524 -4.04487 0.131146 0
M  V30 5565 H 501.279 -4.22373 2.14238 0
M  V30 5566 H 501.703 -4.89588 4.67582 0
M  V30 5567 H 506.345 -3.71161 2.02483 0
M  V30 5568 H 504.063 -5.12754 6.24587 0
M  V30 5569 H 507.649 -4.14667 4.08096 0
M  V30 5570 H 506.529 -4.84752 6.16429 0
M  V30 5571 N 504.032 -0.577932 -1.46621 0
M  V30 5572 C 504.995 0.147805 -2.28723 0
M  V30 5573 C 505.995 0.823325 -1.38123 0
M  V30 5574 O 507.185 0.676011 -1.60548 0
M  V30 5575 C 504.317 1.21853 -3.18378 0
M  V30 5576 H 505.51 -0.573654 -2.94362 0
M  V30 5577 H 503.063 -0.335703 -1.52652 0
M  V30 5578 H 503.798 1.97173 -2.57475 0
M  V30 5579 H 503.583 0.738714 -3.85078 0
M  V30 5580 H 505.073 1.72768 -3.80186 0
M  V30 5581 N 505.51 1.54411 -0.315457 0
M  V30 5582 C 506.44 2.27002 0.547039 0
M  V30 5583 C 507.421 1.27492 1.12605 0
M  V30 5584 O 508.606 1.5629 1.15269 0
M  V30 5585 C 505.736 3.02171 1.71201 0
M  V30 5586 C 504.69 4.0895 1.26268 0
M  V30 5587 C 504.016 4.71915 2.51396 0
M  V30 5588 C 505.316 5.20891 0.383419 0
M  V30 5589 H 507.01 2.99343 -0.0584517 0
M  V30 5590 H 504.556 1.4397 -0.0295527 0
M  V30 5591 H 506.509 3.51681 2.32161 0
M  V30 5592 H 505.233 2.27433 2.34397 0
M  V30 5593 H 503.892 3.60312 0.676062 0
M  V30 5594 H 503.54 3.93801 3.12937 0
M  V30 5595 H 503.24 5.44039 2.22026 0
M  V30 5596 H 504.764 5.24195 3.13133 0
M  V30 5597 H 506.178 5.66206 0.899082 0
M  V30 5598 H 504.575 5.99821 0.182857 0
M  V30 5599 H 505.645 4.81324 -0.587821 0
M  V30 5600 N 506.988 0.0434614 1.5754 0
M  V30 5601 C 508.235 -0.632035 1.92384 0
M  V30 5602 C 508.563 -1.71304 0.921157 0
M  V30 5603 O 507.818 -1.95583 -0.067744 0
M  V30 5604 C 508.117 -1.2738 3.3393 0
M  V30 5605 C 507.783 -0.321757 4.49751 0
M  V30 5606 C 506.445 -0.0597611 4.81163 0
M  V30 5607 C 508.797 0.331158 5.20147 0
M  V30 5608 C 506.125 0.862715 5.80322 0
M  V30 5609 C 508.477 1.24178 6.20292 0
M  V30 5610 C 507.141 1.51252 6.50138 0
M  V30 5611 H 506.411 -0.231278 0.703983 0
M  V30 5612 H 509.058 0.108294 1.91194 0
M  V30 5613 H 507.363 -2.08921 3.3145 0
M  V30 5614 H 509.06 -1.80326 3.58167 0
M  V30 5615 H 505.65 -0.53614 4.25233 0
M  V30 5616 H 509.834 0.141826 4.96097 0
M  V30 5617 H 505.09 1.08003 6.01785 0
M  V30 5618 H 509.264 1.75381 6.73954 0
M  V30 5619 H 506.891 2.22897 7.26788 0
M  V30 5620 N 508.466 -1.55915 -0.229846 0
M  V30 5621 C 509.429 -1.90914 -1.26824 0
M  V30 5622 C 510.429 -0.786999 -1.40225 0
M  V30 5623 O 511.619 -1.05484 -1.38632 0
M  V30 5624 C 508.751 -2.15264 -2.64337 0
M  V30 5625 H 509.944 -2.8378 -0.969998 0
M  V30 5626 H 507.497 -1.49069 -0.4699 0
M  V30 5627 H 508.232 -1.24923 -2.99274 0
M  V30 5628 H 508.017 -2.97005 -2.55989 0
M  V30 5629 H 509.507 -2.43467 -3.39284 0
M  V30 5630 N 509.944 0.496216 -1.49584 0
M  V30 5631 C 510.874 1.60576 -1.69521 0
M  V30 5632 C 511.855 1.61169 -0.543933 0
M  V30 5633 O 513.04 1.77834 -0.78031 0
M  V30 5634 C 510.17 2.99038 -1.76616 0
M  V30 5635 C 509.124 3.13312 -2.91581 0
M  V30 5636 C 508.45 4.53172 -2.83794 0
M  V30 5637 C 509.75 2.92886 -4.32452 0
M  V30 5638 H 511.444 1.44146 -2.62416 0
M  V30 5639 H 508.99 0.692024 -1.26282 0
M  V30 5640 H 510.943 3.76564 -1.8915 0
M  V30 5641 H 509.667 3.16568 -0.80324 0
M  V30 5642 H 508.326 2.38213 -2.78658 0
M  V30 5643 H 507.974 4.67585 -1.854 0
M  V30 5644 H 507.674 4.63662 -3.60958 0
M  V30 5645 H 509.198 5.32752 -2.98342 0
M  V30 5646 H 510.612 3.60178 -4.46032 0
M  V30 5647 H 509.009 3.14844 -5.10875 0
M  V30 5648 H 510.079 1.88966 -4.46565 0
M  V30 5649 N 511.423 1.38739 0.74761 0
M  V30 5650 C 512.67 1.35274 1.50689 0
M  V30 5651 C 512.998 -0.0553359 1.94421 0
M  V30 5652 O 512.253 -1.03365 1.66175 0
M  V30 5653 C 512.552 2.25992 2.7688 0
M  V30 5654 C 512.218 3.73854 2.5208 0
M  V30 5655 C 510.88 4.14145 2.45025 0
M  V30 5656 C 513.232 4.67427 2.30568 0
M  V30 5657 C 510.56 5.4609 2.14483 0
M  V30 5658 C 512.912 5.99635 2.01545 0
M  V30 5659 C 511.576 6.39004 1.92951 0
M  V30 5660 H 510.846 0.495003 0.55141 0
M  V30 5661 H 513.493 1.71145 0.859158 0
M  V30 5662 H 511.798 1.83196 3.46333 0
M  V30 5663 H 513.495 2.20611 3.34861 0
M  V30 5664 H 510.085 3.41913 2.58444 0
M  V30 5665 H 514.269 4.3714 2.34994 0
M  V30 5666 H 509.525 5.75528 2.06342 0
M  V30 5667 H 513.699 6.71678 1.83906 0
M  V30 5668 H 511.326 7.41165 1.6905 0
M  V30 5669 N 512.901 -0.976442 1.23707 0
M  V30 5670 C 514.317 -1.24341 1.00058 0
M  V30 5671 C 514.517 -1.99315 -0.295932 0
M  V30 5672 O 513.573 -2.3123 -1.01435 0
M  V30 5673 C 514.886 -2.03909 2.21001 0
M  V30 5674 C 516.434 -2.17034 2.25534 0
M  V30 5675 C 516.909 -2.99994 3.46075 0
M  V30 5676 N 518.4 -3.07578 3.46338 0
M  V30 5677 C 519.135 -3.72104 4.36264 0
M  V30 5678 N 518.631 -4.3842 5.36432 0
M  V30 5679 N 520.424 -3.69029 4.23998 0
M  V30 5680 H 512.575 -0.47428 2.07037 0
M  V30 5681 H 514.838 -0.272167 0.908091 0
M  V30 5682 H 514.544 -1.56198 3.15111 0
M  V30 5683 H 514.418 -3.04654 2.22409 0
M  V30 5684 H 516.805 -2.63951 1.31961 0
M  V30 5685 H 516.886 -1.15664 2.28156 0
M  V30 5686 H 516.53 -2.53772 4.39957 0
M  V30 5687 H 516.46 -4.01541 3.40694 0
M  V30 5688 H 518.951 -2.60397 2.73865 0
M  V30 5689 H 519.264 -4.85447 6.013 0
M  V30 5690 H 517.609 -4.37116 5.40328 0
M  V30 5691 H 520.8 -3.16392 3.44984 0
M  V30 5692 H 520.973 -4.19034 4.94282 0
M  V30 5693 N 514.379 -1.04941 -1.1758 0
M  V30 5694 C 515.309 -0.669172 -2.23706 0
M  V30 5695 C 516.29 0.331835 -1.66832 0
M  V30 5696 O 517.475 0.209988 -1.93061 0
M  V30 5697 C 514.605 -0.0404889 -3.47276 0
M  V30 5698 C 513.559 -0.965983 -4.16957 0
M  V30 5699 C 512.885 -0.201312 -5.34321 0
M  V30 5700 C 514.185 -2.28902 -4.69469 0
M  V30 5701 H 515.879 -1.55639 -2.55767 0
M  V30 5702 H 513.425 -0.749793 -1.22939 0
M  V30 5703 H 515.378 0.237298 -4.20731 0
M  V30 5704 H 514.102 0.881658 -3.14475 0
M  V30 5705 H 512.761 -1.22829 -3.45411 0
M  V30 5706 H 512.409 0.723519 -4.97769 0
M  V30 5707 H 512.109 -0.817968 -5.81879 0
M  V30 5708 H 513.633 0.0692499 -6.10561 0
M  V30 5709 H 515.047 -2.07132 -5.34574 0
M  V30 5710 H 513.444 -2.85942 -5.27596 0
M  V30 5711 H 514.514 -2.92937 -3.86414 0
M  V30 5712 N 515.857 1.33968 -0.830081 0
M  V30 5713 C 516.79 2.27303 -0.202182 0
M  V30 5714 C 517.768 1.49235 0.645581 0
M  V30 5715 O 518.952 1.78433 0.607762 0
M  V30 5716 C 516.079 3.31025 0.716932 0
M  V30 5717 C 515.125 4.26466 -0.0542271 0
M  V30 5718 S 515.958 5.16707 -1.40622 0
M  V30 5719 C 517.114 6.23962 -0.492167 0
M  V30 5720 H 517.347 2.8021 -0.99346 0
M  V30 5721 H 514.88 1.41124 -0.626359 0
M  V30 5722 H 516.838 3.91271 1.24165 0
M  V30 5723 H 515.499 2.76951 1.4818 0
M  V30 5724 H 514.692 4.99858 0.644785 0
M  V30 5725 H 514.294 3.7051 -0.509722 0
M  V30 5726 H 516.586 6.76774 0.31347 0
M  V30 5727 H 517.529 6.97927 -1.19599 0
M  V30 5728 H 517.937 5.64447 -0.0774176 0
M  V30 5729 N 517.335 0.585699 1.46312 0
M  V30 5730 C 518.298 -0.135673 2.28798 0
M  V30 5731 C 519.298 -0.815988 1.38558 0
M  V30 5732 O 520.488 -0.667487 1.60904 0
M  V30 5733 C 517.62 -1.20163 3.1902 0
M  V30 5734 H 518.813 0.589257 2.94054 0
M  V30 5735 H 516.366 0.343794 1.52472 0
M  V30 5736 H 517.101 -1.95804 2.58517 0
M  V30 5737 H 516.886 -0.718282 3.85465 0
M  V30 5738 H 518.376 -1.70749 3.81096 0
M  V30 5739 N 518.813 -1.54241 0.323641 0
M  V30 5740 C 519.745 -2.21836 -0.576311 0
M  V30 5741 C 520.758 -1.21837 -1.07979 0
M  V30 5742 O 521.947 -1.48306 -0.99336 0
M  V30 5743 C 519.047 -2.86923 -1.80356 0
M  V30 5744 C 518.22 -4.1306 -1.43875 0
M  V30 5745 C 517.279 -4.6174 -2.52353 0
M  V30 5746 O 516.305 -5.26421 -2.16494 0
M  V30 5747 N 517.507 -4.35974 -3.83284 0
M  V30 5748 H 520.272 -2.997 0.00247987 0
M  V30 5749 H 517.833 -1.61233 0.146848 0
M  V30 5750 H 519.825 -3.16414 -2.52318 0
M  V30 5751 H 518.395 -2.12765 -2.29019 0
M  V30 5752 H 517.615 -3.90334 -0.550752 0
M  V30 5753 H 518.903 -4.95148 -1.17071 0
M  V30 5754 H 518.301 -3.84203 -4.15216 0
M  V30 5755 H 516.858 -4.70119 -4.51477 0
M  V30 5756 N 520.291 -0.0518155 -1.57515 0
M  V30 5757 C 521.568 0.661727 -1.84067 0
M  V30 5758 C 521.948 1.88999 -0.940351 0
M  V30 5759 O 521.296 2.285 -0.00155404 0
M  V30 5760 C 521.506 1.01841 -3.3381 0
M  V30 5761 C 522.854 1.40043 -4.00841 0
M  V30 5762 O 523.878 1.11073 -3.38439 0
M  V30 5763 O 522.737 1.94111 -5.10865 0
M  V30 5764 H 519.831 0.326702 -0.759733 0
M  V30 5765 H 522.377 -0.0812277 -1.69505 0
M  V30 5766 H 521.149 0.145202 -3.91031 0
M  V30 5767 H 520.772 1.81879 -3.53562 0
M  V30 5768 N 521.769 1.56035 0.221574 0
M  V30 5769 C 522.999 1.82864 0.961468 0
M  V30 5770 C 523.407 0.628703 1.78449 0
M  V30 5771 O 522.75 -0.412109 1.79018 0
M  V30 5772 C 522.812 3.03425 1.92804 0
M  V30 5773 C 522.476 4.38429 1.28954 0
M  V30 5774 C 523.473 5.15441 0.679431 0
M  V30 5775 C 521.158 4.85151 1.30131 0
M  V30 5776 C 523.152 6.37337 0.0896148 0
M  V30 5777 C 520.839 6.06989 0.707651 0
M  V30 5778 C 521.837 6.82923 0.102855 0
M  V30 5779 O 521.525 8.02456 -0.48157 0
M  V30 5780 H 521.257 0.611883 0.28736 0
M  V30 5781 H 523.811 2.0397 0.241932 0
M  V30 5782 H 522.041 2.78138 2.68656 0
M  V30 5783 H 523.73 3.17127 2.53348 0
M  V30 5784 H 524.496 4.80452 0.662661 0
M  V30 5785 H 520.375 4.26021 1.76145 0
M  V30 5786 H 523.919 6.96547 -0.383069 0
M  V30 5787 H 519.816 6.41451 0.721834 0
M  V30 5788 H 520.584 8.17636 -0.375887 0
M  V30 5789 N 523.247 -0.488276 1.49845 0
M  V30 5790 C 524.658 -1.06955 1.53028 0
M  V30 5791 C 525.009 -1.9351 0.323797 0
M  V30 5792 O 524.134 -2.08891 -0.565116 0
M  V30 5793 C 524.729 -1.94643 2.77307 0
M  V30 5794 C 523.288 -2.4791 2.83227 0
M  V30 5795 C 522.435 -1.25833 2.47106 0
M  V30 5796 H 525.386 -0.271626 1.56358 0
M  V30 5797 H 525.407 -2.79496 2.5819 0
M  V30 5798 H 524.919 -1.31621 3.65099 0
M  V30 5799 H 523.02 -3.14535 1.99745 0
M  V30 5800 H 523.133 -2.84193 3.85709 0
M  V30 5801 H 521.497 -1.58764 1.99163 0
M  V30 5802 H 522.28 -0.644993 3.37186 0
M  V30 5803 N 524.725 -1.39134 -0.740242 0
M  V30 5804 C 525.635 -1.39697 -1.88473 0
M  V30 5805 C 526.651 -0.292403 -1.71526 0
M  V30 5806 O 527.827 -0.533021 -1.94219 0
M  V30 5807 C 524.892 -1.23382 -3.24003 0
M  V30 5808 C 523.953 -2.43763 -3.53381 0
M  V30 5809 C 523.186 -2.28216 -4.82445 0
M  V30 5810 O 523.409 -1.28288 -5.55786 0
M  V30 5811 O 522.343 -3.1709 -5.11603 0
M  V30 5812 H 526.169 -2.36159 -1.90952 0
M  V30 5813 H 523.754 -1.20194 -0.887346 0
M  V30 5814 H 525.636 -1.16395 -4.05006 0
M  V30 5815 H 524.311 -0.300121 -3.22306 0
M  V30 5816 H 523.218 -2.56325 -2.72485 0
M  V30 5817 H 524.551 -3.35808 -3.59852 0
M  V30 5818 N 526.204 0.969867 -1.24223 0
M  V30 5819 C 527.45 1.7151 -1.08223 0
M  V30 5820 C 527.783 1.90478 0.37838 0
M  V30 5821 O 527.058 1.4647 1.27971 0
M  V30 5822 C 527.341 3.10714 -1.82013 0
M  V30 5823 C 527.194 2.9925 -3.35811 0
M  V30 5824 C 528.513 4.10332 -1.59108 0
M  V30 5825 H 525.632 0.622499 -0.394543 0
M  V30 5826 H 528.274 1.1284 -1.52863 0
M  V30 5827 H 526.424 3.608 -1.44068 0
M  V30 5828 H 528.096 2.56608 -3.83341 0
M  V30 5829 H 526.339 2.35512 -3.64303 0
M  V30 5830 H 527.01 3.97857 -3.82641 0
M  V30 5831 H 529.486 3.69097 -1.92111 0
M  V30 5832 H 528.362 5.05804 -2.13198 0
M  V30 5833 H 528.623 4.38926 -0.528832 0
M  V30 5834 N 527.682 1.05563 1.17022 0
M  V30 5835 C 528.612 0.681026 2.23348 0
M  V30 5836 C 529.593 -0.322983 1.67005 0
M  V30 5837 O 530.778 -0.199746 1.9317 0
M  V30 5838 C 527.908 0.0589053 3.4725 0
M  V30 5839 C 526.862 0.988082 4.16438 0
M  V30 5840 C 526.188 0.229646 5.34207 0
M  V30 5841 C 527.488 2.31388 4.68249 0
M  V30 5842 H 529.182 1.56993 2.54938 0
M  V30 5843 H 526.728 0.756302 1.2254 0
M  V30 5844 H 528.681 -0.214982 4.20851 0
M  V30 5845 H 527.405 -0.864968 3.14938 0
M  V30 5846 H 526.064 1.24659 3.44754 0
M  V30 5847 H 525.712 -0.697111 4.98146 0
M  V30 5848 H 525.412 0.848815 5.81437 0
M  V30 5849 H 526.936 -0.0368694 6.10589 0
M  V30 5850 H 528.35 2.09964 5.33468 0
M  V30 5851 H 526.747 2.88736 5.26072 0
M  V30 5852 H 527.817 2.94982 3.84855 0
M  V30 5853 N 529.16 -1.33526 0.837174 0
M  V30 5854 C 530.39 -2.01754 0.444848 0
M  V30 5855 C 530.798 -1.63149 -0.958072 0
M  V30 5856 O 530.141 -0.839827 -1.63379 0
M  V30 5857 C 530.203 -3.56228 0.483917 0
M  V30 5858 C 529.867 -4.18205 1.84265 0
M  V30 5859 C 530.864 -4.37699 2.80563 0
M  V30 5860 C 528.549 -4.54667 2.13503 0
M  V30 5861 C 530.543 -4.928 4.04261 0
M  V30 5862 C 528.23 -5.09475 3.37458 0
M  V30 5863 C 529.228 -5.28488 4.32654 0
M  V30 5864 O 528.916 -5.82132 5.54417 0
M  V30 5865 H 528.648 -0.652928 0.175104 0
M  V30 5866 H 531.202 -1.71469 1.13082 0
M  V30 5867 H 529.432 -3.85833 -0.258826 0
M  V30 5868 H 531.121 -4.05752 0.109653 0
M  V30 5869 H 531.887 -4.0988 2.59274 0
M  V30 5870 H 527.766 -4.39164 1.40201 0
M  V30 5871 H 531.31 -5.07555 4.78574 0
M  V30 5872 H 527.207 -5.36725 3.58604 0
M  V30 5873 H 527.975 -6.00548 5.56133 0
M  V30 5874 N 530.638 -0.59345 -1.46 0
M  V30 5875 C 531.588 0.154751 -2.27474 0
M  V30 5876 C 532.572 0.851849 -1.365 0
M  V30 5877 O 533.764 0.744171 -1.60596 0
M  V30 5878 C 530.893 1.16079 -3.2308 0
M  V30 5879 C 529.979 0.465256 -4.2154 0
M  V30 5880 N 530.37 -0.485197 -5.03467 0
M  V30 5881 C 528.668 0.714634 -4.40237 0
M  V30 5882 C 529.369 -0.892709 -5.74809 0
M  V30 5883 N 528.345 -0.239511 -5.43072 0
M  V30 5884 H 532.147 -0.57546 -2.88211 0
M  V30 5885 H 529.661 -0.416046 -1.5698 0
M  V30 5886 H 531.658 1.71108 -3.80168 0
M  V30 5887 H 530.318 1.89171 -2.63903 0
M  V30 5888 H 531.329 -0.861258 -5.10689 0
M  V30 5889 H 528.006 1.43131 -3.92199 0
M  V30 5890 H 529.396 -1.67581 -6.50666 0
M  V30 5891 N 532.116 1.54067 -0.331816 0
M  V30 5892 C 533.048 2.22139 0.564538 0
M  V30 5893 C 534.061 1.22408 1.07332 0
M  V30 5894 O 535.25 1.4883 0.985481 0
M  V30 5895 C 532.35 2.87876 1.78831 0
M  V30 5896 C 531.523 4.13817 1.41682 0
M  V30 5897 C 530.582 4.63072 2.49901 0
M  V30 5898 O 529.608 5.27562 2.13699 0
M  V30 5899 N 530.81 4.38001 3.80967 0
M  V30 5900 H 533.575 2.99694 -0.0183736 0
M  V30 5901 H 531.136 1.61153 -0.155396 0
M  V30 5902 H 533.128 3.17747 2.50637 0
M  V30 5903 H 531.698 2.13977 2.27887 0
M  V30 5904 H 530.918 3.9062 0.530044 0
M  V30 5905 H 532.206 4.95762 1.14443 0
M  V30 5906 H 531.604 3.864 4.13173 0
M  V30 5907 H 530.161 4.72507 4.48977 0
M  V30 5908 N 533.594 0.0601682 1.57485 0
M  V30 5909 C 534.843 -0.611101 1.9222 0
M  V30 5910 C 535.156 -1.71469 0.941159 0
M  V30 5911 O 536.362 -2.44473 1.18089 0
M  V30 5912 C 534.818 -1.13832 3.41424 0
M  V30 5913 C 534.426 -0.0663596 4.47951 0
M  V30 5914 C 536.17 -1.78432 3.85178 0
M  V30 5915 C 534.077 -0.606965 5.88277 0
M  V30 5916 H 533.007 -0.232033 0.71741 0
M  V30 5917 H 535.658 0.130518 1.83035 0
M  V30 5918 H 534.04 -1.93254 3.45643 0
M  V30 5919 H 535.214 0.707682 4.55333 0
M  V30 5920 H 533.529 0.482715 4.13593 0
M  V30 5921 H 536.126 -2.1989 4.87394 0
M  V30 5922 H 536.469 -2.63966 3.21913 0
M  V30 5923 H 537.002 -1.05651 3.83514 0
M  V30 5924 H 533.741 0.21095 6.5516 0
M  V30 5925 H 533.261 -1.34879 5.84438 0
M  V30 5926 H 534.94 -1.08704 6.37803 0
M  V30 5927 N 535.072 -1.5615 -0.213296 0
M  V30 5928 C 536.002 -1.96109 -1.26742 0
M  V30 5929 C 536.983 -0.830448 -1.48451 0
M  V30 5930 O 538.168 -1.09339 -1.60495 0
M  V30 5931 C 535.298 -2.28492 -2.61551 0
M  V30 5932 C 534.252 -3.44124 -2.54485 0
M  V30 5933 C 533.578 -3.62134 -3.93399 0
M  V30 5934 C 534.878 -4.78855 -2.08556 0
M  V30 5935 H 536.572 -2.84412 -0.935434 0
M  V30 5936 H 534.118 -1.36836 -0.44854 0
M  V30 5937 H 536.071 -2.55039 -3.3546 0
M  V30 5938 H 534.795 -1.37052 -2.96453 0
M  V30 5939 H 533.454 -3.17639 -1.83033 0
M  V30 5940 H 533.102 -2.68055 -4.25623 0
M  V30 5941 H 532.802 -4.39913 -3.89551 0
M  V30 5942 H 534.326 -3.91038 -4.68958 0
M  V30 5943 H 535.74 -5.04552 -2.72213 0
M  V30 5944 H 534.137 -5.59975 -2.1575 0
M  V30 5945 H 535.207 -4.73657 -1.03811 0
M  V30 5946 N 536.55 0.480323 -1.50102 0
M  V30 5947 C 537.78 1.25475 -1.64133 0
M  V30 5948 C 538.188 1.8647 -0.320272 0
M  V30 5949 O 537.531 1.69561 0.70673 0
M  V30 5950 C 537.593 2.40996 -2.6676 0
M  V30 5951 C 537.257 2.00711 -4.10565 0
M  V30 5952 C 538.254 1.53492 -4.96725 0
M  V30 5953 C 535.939 2.09714 -4.56427 0
M  V30 5954 C 537.933 1.15806 -6.26792 0
M  V30 5955 C 535.62 1.7164 -5.86501 0
M  V30 5956 C 536.618 1.24763 -6.71508 0
M  V30 5957 O 536.306 0.872122 -7.99155 0
M  V30 5958 H 536.038 0.385983 -0.554971 0
M  V30 5959 H 538.592 0.580848 -1.97016 0
M  V30 5960 H 536.822 3.11528 -2.291 0
M  V30 5961 H 538.511 3.02981 -2.70106 0
M  V30 5962 H 539.277 1.45966 -4.62514 0
M  V30 5963 H 535.156 2.4515 -3.90413 0
M  V30 5964 H 538.7 0.791465 -6.93096 0
M  V30 5965 H 534.597 1.78822 -6.20236 0
M  V30 5966 H 535.365 1.00178 -8.12346 0
M  V30 5967 N 538.028 1.39524 0.732853 0
M  V30 5968 C 538.991 1.38189 1.82857 0
M  V30 5969 C 539.991 0.278624 1.58368 0
M  V30 5970 O 541.181 0.536639 1.65728 0
M  V30 5971 C 538.313 1.15661 3.2068 0
M  V30 5972 H 539.506 2.35692 1.85444 0
M  V30 5973 H 537.059 1.2512 0.936728 0
M  V30 5974 H 537.794 0.188482 3.23752 0
M  V30 5975 H 537.579 1.95559 3.39852 0
M  V30 5976 H 539.069 1.17472 4.00737 0
M  V30 5977 N 539.506 -0.963266 1.24736 0
M  V30 5978 C 540.731 -1.74699 1.11781 0
M  V30 5979 C 541.156 -1.85267 -0.325258 0
M  V30 5980 O 540.514 -1.32681 -1.23553 0
M  V30 5981 C 540.562 -3.14322 1.76731 0
M  V30 5982 O 539.666 -3.99043 1.04109 0
M  V30 5983 H 539.007 -0.53684 0.390767 0
M  V30 5984 H 541.537 -1.20801 1.65131 0
M  V30 5985 H 541.547 -3.64824 1.82668 0
M  V30 5986 H 540.222 -3.05946 2.81726 0
M  V30 5987 H 538.799 -3.5752 1.05991 0
M  V30 5988 N 540.985 -1.06182 -1.16461 0
M  V30 5989 C 542.233 -0.776326 -1.86595 0
M  V30 5990 C 542.554 0.69921 -1.82033 0
M  V30 5991 O 541.824 1.50579 -1.2531 0
M  V30 5992 H 540.404 -0.284184 -0.690832 0
M  V30 5993 H 543.066 -1.34308 -1.41235 0
M  V30 5994 H 542.162 -1.10022 -2.92064 0
M  V30 5995 N 542.463 1.3308 -0.844243 0
M  V30 5996 C 543.41 2.29104 -0.279323 0
M  V30 5997 C 544.38 1.54577 0.607882 0
M  V30 5998 O 545.565 1.8285 0.545009 0
M  V30 5999 C 542.705 3.40927 0.53508 0
M  V30 6000 C 541.818 4.30354 -0.376749 0
M  V30 6001 C 540.953 5.29297 0.449276 0
M  V30 6002 C 539.992 6.10365 -0.460606 0
M  V30 6003 N 539.129 7.01335 0.327612 0
M  V30 6004 H 543.969 2.76817 -1.10346 0
M  V30 6005 H 541.506 1.36203 -0.555611 0
M  V30 6006 H 543.464 4.04469 1.02278 0
M  V30 6007 H 542.094 2.94391 1.32414 0
M  V30 6008 H 541.146 3.67485 -0.982791 0
M  V30 6009 H 542.458 4.87067 -1.07549 0
M  V30 6010 H 541.612 5.98392 1.00058 0
M  V30 6011 H 540.351 4.73174 1.18143 0
M  V30 6012 H 539.356 5.40182 -1.02388 0
M  V30 6013 H 540.581 6.68571 -1.1912 0
M  V30 6014 H 538.527 6.47655 1.04305 0
M  V30 6015 H 538.444 7.55355 -0.3123 0
M  V30 6016 H 539.712 7.74731 0.86098 0
M  V30 6017 N 543.941 0.601185 1.45683 0
M  V30 6018 C 545.187 0.0940202 2.02582 0
M  V30 6019 C 545.52 -1.26972 1.46941 0
M  V30 6020 O 544.795 -1.83613 0.641612 0
M  V30 6021 C 545.078 0.0481715 3.60068 0
M  V30 6022 C 544.931 1.44212 4.26055 0
M  V30 6023 C 546.25 -0.642975 4.35378 0
M  V30 6024 H 543.369 0.0356404 0.736138 0
M  V30 6025 H 546.011 0.771929 1.73612 0
M  V30 6026 H 544.161 -0.529128 3.8488 0
M  V30 6027 H 545.833 2.06601 4.12449 0
M  V30 6028 H 544.076 2.00465 3.84703 0
M  V30 6029 H 544.747 1.36234 5.34925 0
M  V30 6030 H 547.223 -0.152351 4.15821 0
M  V30 6031 H 546.099 -0.644141 5.45107 0
M  V30 6032 H 546.36 -1.70785 4.0778 0
M  V30 6033 N 545.419 -1.53889 0.339982 0
M  V30 6034 C 546.649 -2.04973 -0.258738 0
M  V30 6035 C 547.057 -1.21485 -1.45045 0
M  V30 6036 O 546.4 -0.2422 -1.82096 0
M  V30 6037 C 546.462 -3.51783 -0.740853 0
M  V30 6038 C 546.126 -4.55802 0.330734 0
M  V30 6039 C 547.123 -5.06512 1.17226 0
M  V30 6040 C 544.808 -4.99966 0.483637 0
M  V30 6041 C 546.802 -5.99963 2.15227 0
M  V30 6042 C 544.489 -5.93229 1.46704 0
M  V30 6043 C 545.487 -6.43115 2.29981 0
M  V30 6044 O 545.175 -7.34545 3.26649 0
M  V30 6045 H 544.907 -0.673807 -0.0544037 0
M  V30 6046 H 547.461 -1.99492 0.489107 0
M  V30 6047 H 545.691 -3.54717 -1.53988 0
M  V30 6048 H 547.38 -3.85857 -1.25973 0
M  V30 6049 H 548.146 -4.73158 1.0652 0
M  V30 6050 H 544.025 -4.6074 -0.15471 0
M  V30 6051 H 547.569 -6.38825 2.80265 0
M  V30 6052 H 543.466 -6.25998 1.57468 0
M  V30 6053 H 544.234 -7.52468 3.22078 0
M  V30 6054 N 546.897 -0.0685191 -1.57451 0
M  V30 6055 C 547.83 0.935736 -2.08133 0
M  V30 6056 C 548.808 1.29317 -0.985698 0
M  V30 6057 O 549.992 1.40304 -1.25886 0
M  V30 6058 C 547.119 2.2448 -2.53627 0
M  V30 6059 C 546.165 2.03917 -3.74593 0
M  V30 6060 S 546.998 1.30154 -5.19442 0
M  V30 6061 C 548.154 2.62346 -5.68265 0
M  V30 6062 H 548.387 0.504473 -2.92989 0
M  V30 6063 H 545.92 0.144169 -1.53725 0
M  V30 6064 H 547.878 2.99718 -2.80499 0
M  V30 6065 H 546.539 2.64731 -1.69045 0
M  V30 6066 H 545.732 3.00788 -4.04404 0
M  V30 6067 H 545.334 1.36815 -3.48077 0
M  V30 6068 H 547.626 3.58448 -5.7491 0
M  V30 6069 H 548.569 2.3715 -6.67207 0
M  V30 6070 H 548.977 2.69401 -4.96068 0
M  V30 6071 N 548.375 1.56261 0.205012 0
M  V30 6072 C 549.624 1.79236 0.925058 0
M  V30 6073 C 549.937 0.640011 1.84833 0
M  V30 6074 O 551.143 0.753809 2.60826 0
M  V30 6075 C 549.599 3.17475 1.69522 0
M  V30 6076 C 549.207 4.40482 0.817269 0
M  V30 6077 C 550.951 3.49766 2.4055 0
M  V30 6078 C 548.858 5.69744 1.58573 0
M  V30 6079 H 547.788 0.668287 0.349153 0
M  V30 6080 H 550.439 1.82629 0.178544 0
M  V30 6081 H 548.821 3.08304 2.48526 0
M  V30 6082 H 549.995 4.60752 0.0665988 0
M  V30 6083 H 548.31 4.15827 0.218316 0
M  V30 6084 H 550.907 4.43573 2.98575 0
M  V30 6085 H 551.25 2.73041 3.14252 0
M  V30 6086 H 551.783 3.60341 1.68522 0
M  V30 6087 H 548.522 6.49407 0.891679 0
M  V30 6088 H 548.042 5.53509 2.31059 0
M  V30 6089 H 549.721 6.1051 2.14212 0
M  V30 6090 N 549.853 -0.472356 1.50355 0
M  V30 6091 C 551.1 -1.22453 1.61281 0
M  V30 6092 C 551.428 -1.91972 0.31256 0
M  V30 6093 O 550.683 -1.82696 -0.701475 0
M  V30 6094 C 550.982 -2.29257 2.74182 0
M  V30 6095 C 550.648 -1.76999 4.14708 0
M  V30 6096 C 549.31 -1.62467 4.52944 0
M  V30 6097 C 551.662 -1.38215 5.0254 0
M  V30 6098 C 548.99 -1.07574 5.76754 0
M  V30 6099 C 551.342 -0.847638 6.26895 0
M  V30 6100 C 550.006 -0.688946 6.63935 0
M  V30 6101 H 549.276 -0.448087 0.590168 0
M  V30 6102 H 551.923 -0.520744 1.84284 0
M  V30 6103 H 550.228 -3.05538 2.45263 0
M  V30 6104 H 551.925 -2.87212 2.7984 0
M  V30 6105 H 548.515 -1.89276 3.84542 0
M  V30 6106 H 552.699 -1.48276 4.73633 0
M  V30 6107 H 547.955 -0.940237 6.04127 0
M  V30 6108 H 552.129 -0.538455 6.94315 0
M  V30 6109 H 549.756 -0.261435 7.5975 0
M  V30 6110 N 551.331 -1.39911 -0.725443 0
M  V30 6111 C 552.578 -1.37654 -1.48518 0
M  V30 6112 C 552.906 0.0243982 -1.94485 0
M  V30 6113 O 552.161 1.00708 -1.67799 0
M  V30 6114 C 552.46 -2.30368 -2.7325 0
M  V30 6115 C 552.126 -3.77817 -2.461 0
M  V30 6116 C 550.788 -4.17991 -2.38405 0
M  V30 6117 C 553.14 -4.71036 -2.23103 0
M  V30 6118 C 550.468 -5.49433 -2.05768 0
M  V30 6119 C 552.82 -6.02766 -1.9198 0
M  V30 6120 C 551.484 -6.41993 -1.82761 0
M  V30 6121 H 550.754 -0.503713 -0.543465 0
M  V30 6122 H 553.401 -1.7249 -0.831822 0
M  V30 6123 H 551.706 -1.88683 -3.43375 0
M  V30 6124 H 553.403 -2.2591 -3.31309 0
M  V30 6125 H 549.993 -3.45982 -2.52972 0
M  V30 6126 H 554.177 -4.40823 -2.2801 0
M  V30 6127 H 549.433 -5.78738 -1.9716 0
M  V30 6128 H 553.607 -6.74519 -1.73197 0
M  V30 6129 H 551.234 -7.43761 -1.57237 0
M  V30 6130 N 552.809 0.956637 -1.25245 0
M  V30 6131 C 554.055 1.70352 -1.10036 0
M  V30 6132 C 554.388 1.90869 0.358156 0
M  V30 6133 O 553.663 1.47819 1.26411 0
M  V30 6134 C 553.946 3.08766 -1.85298 0
M  V30 6135 C 553.799 2.95672 -3.38966 0
M  V30 6136 C 555.118 4.08622 -1.63451 0
M  V30 6137 H 552.237 0.618279 -0.401123 0
M  V30 6138 H 554.879 1.11212 -1.54051 0
M  V30 6139 H 553.029 3.59252 -1.47887 0
M  V30 6140 H 554.701 2.52527 -3.86041 0
M  V30 6141 H 552.944 2.31634 -3.6678 0
M  V30 6142 H 553.615 3.93776 -3.86839 0
M  V30 6143 H 556.091 3.67038 -1.96015 0
M  V30 6144 H 554.967 5.03514 -2.18551 0
M  V30 6145 H 555.228 4.3834 -0.575357 0
M  V30 6146 N 554.287 1.06798 1.15896 0
M  V30 6147 C 555.533 0.788934 1.86825 0
M  V30 6148 C 555.866 -0.683084 1.8179 0
M  V30 6149 O 555.141 -1.50086 1.23711 0
M  V30 6150 C 555.424 1.29065 3.36176 0
M  V30 6151 C 555.277 2.8268 3.49874 0
M  V30 6152 C 556.596 0.902655 4.30744 0
M  V30 6153 H 553.715 0.288066 0.678371 0
M  V30 6154 H 556.357 1.32479 1.36195 0
M  V30 6155 H 554.507 0.834806 3.79425 0
M  V30 6156 H 556.179 3.36511 3.15528 0
M  V30 6157 H 554.422 3.21157 2.91617 0
M  V30 6158 H 555.093 3.12852 4.54783 0
M  V30 6159 H 557.569 1.29535 3.95424 0
M  V30 6160 H 556.445 1.28111 5.3374 0
M  V30 6161 H 556.706 -0.191951 4.41683 0
M  V30 6162 N 555.766 -1.3263 0.851289 0
M  V30 6163 C 557.012 -1.9766 0.453694 0
M  V30 6164 C 557.345 -1.67225 -0.987396 0
M  V30 6165 O 556.62 -0.958693 -1.69232 0
M  V30 6166 C 556.903 -3.5344 0.68936 0
M  V30 6167 C 556.756 -3.93517 2.17862 0
M  V30 6168 C 558.075 -4.39866 0.143555 0
M  V30 6169 H 555.194 -0.717989 0.166314 0
M  V30 6170 H 557.836 -1.57068 1.06909 0
M  V30 6171 H 555.986 -3.88147 0.165546 0
M  V30 6172 H 557.658 -3.69006 2.76826 0
M  V30 6173 H 555.901 -3.42798 2.65841 0
M  V30 6174 H 556.572 -5.02065 2.29422 0
M  V30 6175 H 559.048 -4.11875 0.591451 0
M  V30 6176 H 557.924 -5.47858 0.338043 0
M  V30 6177 H 558.185 -4.31696 -0.953466 0
M  V30 6178 N 557.244 -0.608902 -1.45362 0
M  V30 6179 C 558.469 -0.10921 -2.07112 0
M  V30 6180 C 558.894 1.19779 -1.45033 0
M  V30 6181 O 558.252 1.72961 -0.543527 0
M  V30 6182 C 558.3 0.0155745 -3.60597 0
M  V30 6183 O 557.404 1.06546 -3.98399 0
M  V30 6184 H 556.745 -0.0746619 -0.659789 0
M  V30 6185 H 559.275 -0.839283 -1.86594 0
M  V30 6186 H 559.285 0.213364 -4.07442 0
M  V30 6187 H 557.96 -0.938765 -4.05167 0
M  V30 6188 H 556.537 0.844024 -3.63223 0
M  V30 6189 N 558.722 1.53707 -0.348139 0
M  V30 6190 C 559.969 2.00988 0.246966 0
M  V30 6191 C 560.297 1.23586 1.50189 0
M  V30 6192 O 559.552 0.312817 1.93184 0
M  V30 6193 C 559.851 3.52292 0.602061 0
M  V30 6194 C 559.517 4.47453 -0.556509 0
M  V30 6195 C 558.179 4.73188 -0.874446 0
M  V30 6196 C 560.531 5.03851 -1.33354 0
M  V30 6197 C 557.859 5.52577 -1.9717 0
M  V30 6198 C 560.211 5.84437 -2.42108 0
M  V30 6199 C 558.875 6.08465 -2.74456 0
M  V30 6200 H 558.145 0.735469 0.0903712 0
M  V30 6201 H 560.792 1.85464 -0.477001 0
M  V30 6202 H 559.097 3.65672 1.40681 0
M  V30 6203 H 560.794 3.86337 1.07447 0
M  V30 6204 H 557.384 4.27558 -0.298652 0
M  V30 6205 H 561.568 4.8393 -1.10117 0
M  V30 6206 H 556.824 5.69418 -2.22651 0
M  V30 6207 H 560.998 6.27151 -3.02745 0
M  V30 6208 H 558.625 6.69768 -3.59604 0
M  V30 6209 N 560.2 0.0768682 1.57412 0
M  V30 6210 C 561.13 -0.886026 2.16037 0
M  V30 6211 C 562.111 -1.30691 1.08876 0
M  V30 6212 O 563.296 -1.37705 1.36934 0
M  V30 6213 C 560.426 -2.1518 2.72608 0
M  V30 6214 C 559.38 -1.87015 3.8498 0
M  V30 6215 C 558.706 -3.20266 4.28175 0
M  V30 6216 C 560.006 -1.17143 5.08994 0
M  V30 6217 H 561.7 -0.397642 2.96748 0
M  V30 6218 H 559.246 -0.189823 1.42743 0
M  V30 6219 H 561.199 -2.82962 3.12266 0
M  V30 6220 H 559.923 -2.66269 1.89125 0
M  V30 6221 H 558.582 -1.21636 3.45833 0
M  V30 6222 H 558.23 -3.69207 3.41607 0
M  V30 6223 H 557.93 -3.0221 5.03927 0
M  V30 6224 H 559.454 -3.89237 4.70454 0
M  V30 6225 H 560.868 -1.75003 5.45937 0
M  V30 6226 H 559.265 -1.09328 5.90057 0
M  V30 6227 H 560.335 -0.151295 4.84664 0
M  V30 6228 N 561.678 -1.56367 -0.196722 0
M  V30 6229 C 562.925 -1.80529 -0.917366 0
M  V30 6230 C 563.253 -0.649817 -1.83324 0
M  V30 6231 O 562.508 0.36451 -1.92275 0
M  V30 6232 C 562.807 -3.10663 -1.767 0
M  V30 6233 C 562.473 -4.3962 -1.00225 0
M  V30 6234 C 561.135 -4.74653 -0.791095 0
M  V30 6235 C 563.487 -5.1913 -0.464035 0
M  V30 6236 C 560.815 -5.86692 -0.0302155 0
M  V30 6237 C 563.167 -6.31964 0.283625 0
M  V30 6238 C 561.831 -6.65581 0.505813 0
M  V30 6239 H 561.101 -0.660602 -0.335688 0
M  V30 6240 H 563.748 -1.90615 -0.183844 0
M  V30 6241 H 562.053 -2.95807 -2.56915 0
M  V30 6242 H 563.75 -3.26563 -2.32718 0
M  V30 6243 H 560.34 -4.12127 -1.17684 0
M  V30 6244 H 564.524 -4.9248 -0.614575 0
M  V30 6245 H 559.78 -6.11211 0.151917 0
M  V30 6246 H 563.954 -6.92791 0.708057 0
M  V30 6247 H 561.581 -7.52239 1.0973 0
M  V30 6248 N 563.156 0.464375 -1.50603 0
M  V30 6249 C 564.381 1.24372 -1.65971 0
M  V30 6250 C 564.806 1.84901 -0.345453 0
M  V30 6251 O 564.164 1.67596 0.691457 0
M  V30 6252 C 564.212 2.32331 -2.7578 0
M  V30 6253 O 563.316 3.37146 -2.375 0
M  V30 6254 H 562.657 0.365604 -0.554283 0
M  V30 6255 H 565.187 0.55183 -1.97018 0
M  V30 6256 H 565.197 2.77539 -2.99059 0
M  V30 6257 H 563.872 1.87648 -3.71162 0
M  V30 6258 H 562.449 2.97602 -2.24694 0
M  V30 6259 N 564.634 1.40294 0.718013 0
M  V30 6260 C 565.881 1.3844 1.47786 0
M  V30 6261 C 566.209 -0.0140838 1.94495 0
M  V30 6262 O 565.464 -0.998165 1.68331 0
M  V30 6263 C 565.763 2.31814 2.72024 0
M  V30 6264 C 565.429 3.79117 2.44093 0
M  V30 6265 C 564.091 4.19249 2.36185 0
M  V30 6266 C 566.443 4.72212 2.20602 0
M  V30 6267 C 563.771 5.50516 2.02851 0
M  V30 6268 C 566.123 6.03775 1.88781 0
M  V30 6269 C 564.787 6.42953 1.79354 0
M  V30 6270 H 564.057 0.506588 0.540786 0
M  V30 6271 H 566.704 1.72929 0.822663 0
M  V30 6272 H 565.009 1.90501 3.42369 0
M  V30 6273 H 566.706 2.27664 3.30106 0
M  V30 6274 H 563.296 3.47318 2.51133 0
M  V30 6275 H 567.48 4.42026 2.25669 0
M  V30 6276 H 562.736 5.79776 1.94088 0
M  V30 6277 H 566.91 6.75428 1.69617 0
M  V30 6278 H 564.537 7.44584 1.53291 0
M  V30 6279 N 566.112 -0.949982 1.2575 0
M  V30 6280 C 567.342 -1.72721 1.13363 0
M  V30 6281 C 567.75 -1.86562 -0.314842 0
M  V30 6282 O 567.093 -1.36621 -1.22803 0
M  V30 6283 C 567.155 -3.15695 1.7198 0
M  V30 6284 C 566.819 -3.25268 3.21014 0
M  V30 6285 C 567.816 -3.09222 4.17945 0
M  V30 6286 C 565.501 -3.4894 3.61312 0
M  V30 6287 C 567.495 -3.16701 5.53154 0
M  V30 6288 C 565.182 -3.56055 4.96657 0
M  V30 6289 C 566.18 -3.3995 5.92387 0
M  V30 6290 O 565.868 -3.46757 7.25269 0
M  V30 6291 H 565.6 -0.547888 0.395973 0
M  V30 6292 H 568.154 -1.20009 1.66694 0
M  V30 6293 H 566.384 -3.69791 1.13101 0
M  V30 6294 H 568.073 -3.75295 1.54624 0
M  V30 6295 H 568.839 -2.90798 3.88151 0
M  V30 6296 H 564.718 -3.60534 2.87291 0
M  V30 6297 H 568.262 -3.04048 6.27854 0
M  V30 6298 H 564.159 -3.73997 5.26115 0
M  V30 6299 H 564.927 -3.63358 7.33426 0
M  V30 6300 N 567.59 -1.07411 -1.15328 0
M  V30 6301 C 568.523 -0.63913 -2.19067 0
M  V30 6302 C 569.501 0.343929 -1.58921 0
M  V30 6303 O 570.685 0.250207 -1.86832 0
M  V30 6304 C 567.812 0.0613977 -3.38644 0
M  V30 6305 C 566.858 -0.880201 -4.17318 0
M  V30 6306 S 567.691 -2.38152 -4.79629 0
M  V30 6307 C 568.847 -1.69281 -6.02573 0
M  V30 6308 H 569.08 -1.51799 -2.55626 0
M  V30 6309 H 566.613 -0.888138 -1.26299 0
M  V30 6310 H 568.571 0.459323 -4.07922 0
M  V30 6311 H 567.232 0.916605 -3.00428 0
M  V30 6312 H 566.425 -0.336781 -5.02874 0
M  V30 6313 H 566.027 -1.21854 -3.53592 0
M  V30 6314 H 568.319 -1.00488 -6.70006 0
M  V30 6315 H 569.262 -2.52671 -6.61485 0
M  V30 6316 H 569.67 -1.17053 -5.52231 0
M  V30 6317 N 569.068 1.32177 -0.85831 0
M  V30 6318 C 570.031 2.27086 -0.310588 0
M  V30 6319 C 571.031 1.51751 0.531806 0
M  V30 6320 O 572.221 1.70794 0.34279 0
M  V30 6321 C 569.353 3.36266 0.560179 0
M  V30 6322 H 570.546 2.77045 -1.1483 0
M  V30 6323 H 568.099 1.42911 -0.632942 0
M  V30 6324 H 568.834 2.9158 1.41956 0
M  V30 6325 H 568.619 3.92077 -0.0428473 0
M  V30 6326 H 570.109 4.06974 0.936056 0
M  V30 6327 N 570.547 0.616602 1.45037 0
M  V30 6328 C 571.772 0.120192 2.07051 0
M  V30 6329 C 572.197 -1.19008 1.45666 0
M  V30 6330 O 571.555 -1.7267 0.552692 0
M  V30 6331 C 571.603 0.00354901 3.606 0
M  V30 6332 O 570.707 -1.04431 3.98958 0
M  V30 6333 H 570.048 0.0781599 0.659384 0
M  V30 6334 H 572.578 0.849167 1.86146 0
M  V30 6335 H 572.588 -0.191754 4.07549 0
M  V30 6336 H 571.263 0.960239 4.04663 0
M  V30 6337 H 569.84 -0.824749 3.63665 0
M  V30 6338 N 572.025 -1.5352 0.356285 0
M  V30 6339 C 572.955 -2.28372 -0.486661 0
M  V30 6340 C 573.936 -1.30432 -1.09185 0
M  V30 6341 O 575.121 -1.59291 -1.11085 0
M  V30 6342 C 572.251 -3.06604 -1.63129 0
M  V30 6343 C 571.205 -4.12154 -1.15381 0
M  V30 6344 C 570.531 -4.78415 -2.38796 0
M  V30 6345 C 571.831 -5.21724 -0.245179 0
M  V30 6346 H 573.525 -2.99083 0.137797 0
M  V30 6347 H 571.071 -1.43841 0.0677134 0
M  V30 6348 H 573.024 -3.57712 -2.22755 0
M  V30 6349 H 571.748 -2.33568 -2.28284 0
M  V30 6350 H 570.407 -3.61978 -0.580294 0
M  V30 6351 H 570.055 -4.01959 -3.02387 0
M  V30 6352 H 569.755 -5.49734 -2.07524 0
M  V30 6353 H 571.279 -5.32313 -2.99125 0
M  V30 6354 H 572.693 -5.68391 -0.748646 0
M  V30 6355 H 571.09 -6.00095 -0.0237608 0
M  V30 6356 H 572.16 -4.79596 0.715229 0
M  V30 6357 N 573.503 -0.0852151 -1.57369 0
M  V30 6358 C 574.75 0.580806 -1.93992 0
M  V30 6359 C 575.078 1.68801 -0.966252 0
M  V30 6360 O 574.333 1.95694 0.0158649 0
M  V30 6361 C 574.632 1.18482 -3.3719 0
M  V30 6362 C 574.298 0.2024 -4.50446 0
M  V30 6363 C 572.96 -0.0678318 -4.81152 0
M  V30 6364 C 575.312 -0.46895 -5.19086 0
M  V30 6365 C 572.64 -1.01627 -5.77831 0
M  V30 6366 C 574.992 -1.4058 -6.16782 0
M  V30 6367 C 573.656 -1.68436 -6.45899 0
M  V30 6368 H 572.926 0.212532 -0.709867 0
M  V30 6369 H 575.573 -0.158947 -1.90839 0
M  V30 6370 H 573.878 2.0006 -3.36873 0
M  V30 6371 H 575.575 1.70767 -3.62822 0
M  V30 6372 H 572.165 0.423208 -4.26505 0
M  V30 6373 H 576.349 -0.273307 -4.95547 0
M  V30 6374 H 571.605 -1.2392 -5.9871 0
M  V30 6375 H 575.779 -1.93188 -6.69068 0
M  V30 6376 H 573.406 -2.42088 -7.20623 0
M  V30 6377 N 574.981 1.5647 0.188427 0
M  V30 6378 C 575.911 1.98101 1.23606 0
M  V30 6379 C 576.892 0.853961 1.47111 0
M  V30 6380 O 578.077 1.11879 1.58735 0
M  V30 6381 C 575.207 2.32624 2.57882 0
M  V30 6382 C 574.161 3.48129 2.48978 0
M  V30 6383 C 573.487 3.68347 3.87588 0
M  V30 6384 C 574.787 4.82112 2.00911 0
M  V30 6385 H 576.481 2.85864 0.890068 0
M  V30 6386 H 574.027 1.37532 0.426714 0
M  V30 6387 H 575.98 2.60343 3.3136 0
M  V30 6388 H 574.704 1.41751 2.94235 0
M  V30 6389 H 573.363 3.20511 1.77956 0
M  V30 6390 H 573.011 2.74793 4.21305 0
M  V30 6391 H 572.711 4.46055 3.82503 0
M  V30 6392 H 574.235 3.98449 4.62678 0
M  V30 6393 H 575.649 5.08819 2.64151 0
M  V30 6394 H 574.046 5.63337 2.06814 0
M  V30 6395 H 575.116 4.75249 0.96262 0
M  V30 6396 N 576.459 -0.456382 1.50847 0
M  V30 6397 C 577.707 -1.20497 1.62249 0
M  V30 6398 C 578.028 -1.92156 0.331839 0
M  V30 6399 O 577.298 -1.84751 -0.651443 0
M  V30 6400 H 575.878 -0.447775 0.597918 0
M  V30 6401 H 578.54 -0.525099 1.87693 0
M  V30 6402 H 577.636 -1.94492 2.44089 0
M  V30 6403 N 577.937 -1.40673 -0.710563 0
M  V30 6404 C 579.186 -1.38525 -1.46607 0
M  V30 6405 C 579.499 0.0077024 -1.95598 0
M  V30 6406 O 580.705 0.151792 -2.71075 0
M  V30 6407 C 579.161 -2.43489 -2.6503 0
M  V30 6408 C 578.769 -3.88619 -2.22888 0
M  V30 6409 C 580.513 -2.50456 -3.42742 0
M  V30 6410 C 578.42 -4.85168 -3.3818 0
M  V30 6411 H 577.35 -0.515092 -0.550632 0
M  V30 6412 H 580.001 -1.66431 -0.772846 0
M  V30 6413 H 578.383 -2.0869 -3.36548 0
M  V30 6414 H 579.557 -4.32588 -1.58758 0
M  V30 6415 H 577.872 -3.85174 -1.58208 0
M  V30 6416 H 580.469 -3.19776 -4.28541 0
M  V30 6417 H 580.812 -1.53665 -3.86902 0
M  V30 6418 H 581.345 -2.84271 -2.78271 0
M  V30 6419 H 578.084 -5.8331 -2.99047 0
M  V30 6420 H 577.604 -4.4586 -4.01209 0
M  V30 6421 H 579.283 -5.05225 -4.04174 0
M  V30 6422 N 579.415 0.9433 -1.26252 0
M  V30 6423 C 580.345 2.05902 -1.10122 0
M  V30 6424 C 581.326 1.70099 -0.00700552 0
M  V30 6425 O 582.511 1.93377 -0.178641 0
M  V30 6426 C 579.641 3.39516 -0.731175 0
M  V30 6427 C 578.595 3.89372 -1.77688 0
M  V30 6428 C 577.921 5.19613 -1.26122 0
M  V30 6429 C 579.221 4.14489 -3.17799 0
M  V30 6430 H 580.915 2.19655 -2.03451 0
M  V30 6431 H 578.461 1.05548 -0.979576 0
M  V30 6432 H 580.414 4.17031 -0.605215 0
M  V30 6433 H 579.138 3.25733 0.23782 0
M  V30 6434 H 577.797 3.14036 -1.89148 0
M  V30 6435 H 577.445 5.02208 -0.282128 0
M  V30 6436 H 577.145 5.53939 -1.96023 0
M  V30 6437 H 578.669 5.99713 -1.14789 0
M  V30 6438 H 580.083 4.82625 -3.09428 0
M  V30 6439 H 578.48 4.60094 -3.85271 0
M  V30 6440 H 579.55 3.20347 -3.64014 0
M  V30 6441 N 580.893 1.08022 1.14757 0
M  V30 6442 C 581.856 0.71048 2.1791 0
M  V30 6443 C 582.856 -0.252731 1.58801 0
M  V30 6444 O 584.046 -0.0327915 1.74169 0
M  V30 6445 C 581.178 0.0483203 3.40866 0
M  V30 6446 H 582.371 1.62384 2.52134 0
M  V30 6447 H 579.924 0.877595 1.29337 0
M  V30 6448 H 580.659 -0.876959 3.12218 0
M  V30 6449 H 580.444 0.741189 3.85031 0
M  V30 6450 H 581.934 -0.195471 4.17142 0
M  V30 6451 N 582.371 -1.3172 0.865308 0
M  V30 6452 C 583.304 -2.26687 0.262376 0
M  V30 6453 C 584.282 -1.50894 -0.605787 0
M  V30 6454 O 585.466 -1.79982 -0.56024 0
M  V30 6455 C 582.593 -3.3281 -0.628915 0
M  V30 6456 C 581.639 -4.26172 0.167278 0
M  V30 6457 S 582.472 -5.12797 1.54272 0
M  V30 6458 C 583.628 -6.22438 0.657427 0
M  V30 6459 H 583.861 -2.77478 1.0674 0
M  V30 6460 H 581.394 -1.39414 0.663555 0
M  V30 6461 H 583.352 -3.94426 -1.13747 0
M  V30 6462 H 582.013 -2.80782 -1.40785 0
M  V30 6463 H 581.206 -5.01392 -0.51203 0
M  V30 6464 H 580.808 -3.69029 0.607777 0
M  V30 6465 H 583.1 -6.77368 -0.133925 0
M  V30 6466 H 584.043 -6.9451 1.38061 0
M  V30 6467 H 584.451 -5.64043 0.227044 0
M  V30 6468 N 583.85 -0.624285 -1.44708 0
M  V30 6469 C 584.812 0.0749638 -2.29077 0
M  V30 6470 C 585.812 0.778965 -1.40673 0
M  V30 6471 O 587.003 0.624591 -1.62618 0
M  V30 6472 C 584.135 1.11663 -3.22094 0
M  V30 6473 H 585.327 -0.667013 -2.92388 0
M  V30 6474 H 582.88 -0.384098 -1.51507 0
M  V30 6475 H 583.615 1.88881 -2.63618 0
M  V30 6476 H 583.401 0.61583 -3.87234 0
M  V30 6477 H 584.891 1.60585 -3.8549 0
M  V30 6478 N 585.328 1.53329 -0.364422 0
M  V30 6479 C 586.558 2.05359 0.226096 0
M  V30 6480 C 586.966 1.23777 1.43094 0
M  V30 6481 O 586.309 0.271139 1.81688 0
M  V30 6482 C 586.371 3.52918 0.684794 0
M  V30 6483 C 586.035 4.55218 -0.403206 0
M  V30 6484 C 587.032 5.04583 -1.2527 0
M  V30 6485 C 584.717 4.99134 -0.563117 0
M  V30 6486 C 586.711 5.96463 -2.24745 0
M  V30 6487 C 584.398 5.9082 -1.56124 0
M  V30 6488 C 585.396 6.39375 -2.40184 0
M  V30 6489 O 585.084 7.29255 -3.38293 0
M  V30 6490 H 584.816 0.674588 0.0436772 0
M  V30 6491 H 587.37 1.98688 -0.520782 0
M  V30 6492 H 585.6 3.57122 1.48326 0
M  V30 6493 H 587.289 3.87812 1.19818 0
M  V30 6494 H 588.055 4.71403 -1.14034 0
M  V30 6495 H 583.934 4.60928 0.0813909 0
M  V30 6496 H 587.478 6.34285 -2.90393 0
M  V30 6497 H 583.375 6.23414 -1.67407 0
M  V30 6498 H 584.143 7.47249 -3.34009 0
M  V30 6499 N 586.806 0.0935595 1.57322 0
M  V30 6500 C 587.716 -0.880192 2.17462 0
M  V30 6501 C 588.732 -1.31135 1.14366 0
M  V30 6502 O 589.908 -1.37958 1.46729 0
M  V30 6503 C 586.973 -2.12184 2.74188 0
M  V30 6504 C 586.034 -1.74503 3.92234 0
M  V30 6505 C 585.267 -2.92748 4.46245 0
M  V30 6506 O 585.49 -4.07427 3.99198 0
M  V30 6507 O 584.424 -2.71303 5.37288 0
M  V30 6508 H 588.25 -0.398516 3.01074 0
M  V30 6509 H 585.835 -0.130707 1.48827 0
M  V30 6510 H 587.717 -2.84953 3.10451 0
M  V30 6511 H 586.392 -2.59407 1.93623 0
M  V30 6512 H 585.299 -0.989186 3.60785 0
M  V30 6513 H 586.632 -1.32044 4.74157 0
M  V30 6514 N 588.284 -1.56567 -0.180126 0
M  V30 6515 C 589.194 -1.98947 -1.24327 0
M  V30 6516 C 590.21 -0.899446 -1.4895 0
M  V30 6517 O 591.386 -1.20639 -1.61271 0
M  V30 6518 C 588.451 -2.33328 -2.56435 0
M  V30 6519 C 587.512 -3.56114 -2.39752 0
M  V30 6520 C 586.745 -3.88845 -3.65561 0
M  V30 6521 O 586.968 -3.22662 -4.70368 0
M  V30 6522 O 585.902 -4.82226 -3.60197 0
M  V30 6523 H 589.728 -2.89634 -0.913565 0
M  V30 6524 H 587.313 -1.44319 -0.386306 0
M  V30 6525 H 589.195 -2.5645 -3.34382 0
M  V30 6526 H 587.87 -1.45806 -2.89002 0
M  V30 6527 H 586.777 -3.38221 -1.59866 0
M  V30 6528 H 588.11 -4.4415 -2.12113 0
M  V30 6529 N 589.762 0.448376 -1.51087 0
M  V30 6530 C 590.672 1.56882 -1.74428 0
M  V30 6531 C 591.688 1.62268 -0.62809 0
M  V30 6532 O 592.864 1.79716 -0.909075 0
M  V30 6533 C 589.929 2.92947 -1.85426 0
M  V30 6534 C 588.99 2.97766 -3.09247 0
M  V30 6535 C 588.223 4.27341 -3.19711 0
M  V30 6536 O 588.446 5.19112 -2.36387 0
M  V30 6537 O 587.38 4.38219 -4.12611 0
M  V30 6538 H 591.206 1.40104 -2.69452 0
M  V30 6539 H 588.791 0.630247 -1.35456 0
M  V30 6540 H 590.673 3.73719 -1.94709 0
M  V30 6541 H 589.348 3.09876 -0.935887 0
M  V30 6542 H 588.255 2.15989 -3.0545 0
M  V30 6543 H 589.588 2.8578 -4.00738 0
M  V30 6544 N 591.24 1.41047 0.703093 0
M  V30 6545 C 592.187 1.42302 1.81711 0
M  V30 6546 C 593.157 0.278336 1.63751 0
M  V30 6547 O 594.342 0.478266 1.84709 0
M  V30 6548 C 591.482 1.30362 3.19531 0
M  V30 6549 C 590.595 2.54638 3.48975 0
M  V30 6550 C 589.73 2.35047 4.76368 0
M  V30 6551 C 588.769 3.54837 4.98756 0
M  V30 6552 N 587.906 3.34363 6.1737 0
M  V30 6553 H 592.746 2.37516 1.79973 0
M  V30 6554 H 590.283 1.1795 0.878983 0
M  V30 6555 H 592.241 1.21443 3.99134 0
M  V30 6556 H 590.871 0.387602 3.20464 0
M  V30 6557 H 589.923 2.74037 2.63833 0
M  V30 6558 H 591.235 3.43766 3.61423 0
M  V30 6559 H 590.389 2.23552 5.64012 0
M  V30 6560 H 589.128 1.43363 4.66153 0
M  V30 6561 H 588.133 3.66795 4.09563 0
M  V30 6562 H 589.358 4.47464 5.10835 0
M  V30 6563 H 587.304 2.45373 6.08382 0
M  V30 6564 H 587.221 4.17063 6.30551 0
M  V30 6565 H 588.489 3.26626 7.07768 0
M  V30 6566 N 592.718 -0.936591 1.26751 0
M  V30 6567 C 593.65 -2.03991 1.045 0
M  V30 6568 C 594.663 -1.628 0.00394261 0
M  V30 6569 O 595.852 -1.76817 0.244526 0
M  V30 6570 C 592.952 -3.34218 0.561403 0
M  V30 6571 C 592.125 -4.04151 1.67274 0
M  V30 6572 C 591.184 -5.12651 1.1864 0
M  V30 6573 O 590.21 -5.37104 1.88437 0
M  V30 6574 N 591.412 -5.80488 0.037278 0
M  V30 6575 H 594.177 -2.23644 1.99508 0
M  V30 6576 H 591.738 -1.10638 1.18198 0
M  V30 6577 H 593.73 -4.04101 0.220136 0
M  V30 6578 H 592.3 -3.11203 -0.295211 0
M  V30 6579 H 591.52 -3.28121 2.18472 0
M  V30 6580 H 592.808 -4.47626 2.41885 0
M  V30 6581 H 592.206 -5.63064 -0.545494 0
M  V30 6582 H 590.763 -6.5134 -0.244877 0
M  V30 6583 N 594.196 -1.08629 -1.14182 0
M  V30 6584 C 595.612 -0.814363 -1.3726 0
M  V30 6585 C 595.812 0.575271 -1.93114 0
M  V30 6586 O 594.868 1.33165 -2.1453 0
M  V30 6587 C 596.181 -1.8989 -2.33157 0
M  V30 6588 C 597.729 -1.92518 -2.46791 0
M  V30 6589 C 598.204 -3.00092 -3.45989 0
M  V30 6590 N 599.695 -2.99279 -3.53534 0
M  V30 6591 C 600.43 -3.79158 -4.30147 0
M  V30 6592 N 599.926 -4.68923 -5.09983 0
M  V30 6593 N 601.719 -3.67451 -4.25366 0
M  V30 6594 H 593.87 -1.98232 -0.762758 0
M  V30 6595 H 596.133 -0.860383 -0.398051 0
M  V30 6596 H 595.839 -2.89809 -1.99257 0
M  V30 6597 H 595.713 -1.77013 -3.33086 0
M  V30 6598 H 598.1 -0.932425 -2.79982 0
M  V30 6599 H 598.181 -2.09473 -1.46816 0
M  V30 6600 H 597.825 -3.99575 -3.13532 0
M  V30 6601 H 597.755 -2.80382 -4.45751 0
M  V30 6602 H 600.246 -2.3422 -2.96563 0
M  V30 6603 H 600.559 -5.26475 -5.65724 0
M  V30 6604 H 598.904 -4.72964 -5.09244 0
M  V30 6605 H 602.095 -2.9669 -3.62067 0
M  V30 6606 H 602.268 -4.29944 -4.84822 0
M  V30 6607 N 595.674 1.31259 -0.872281 0
M  V30 6608 C 596.92 1.96913 -0.485083 0
M  V30 6609 C 597.253 1.68774 0.960667 0
M  V30 6610 O 596.528 0.985495 1.67685 0
M  V30 6611 C 596.811 3.52299 -0.745502 0
M  V30 6612 C 596.664 3.90002 -2.24095 0
M  V30 6613 C 597.983 4.39582 -0.213516 0
M  V30 6614 H 595.102 0.715252 -0.177716 0
M  V30 6615 H 597.744 1.55347 -1.09395 0
M  V30 6616 H 595.894 3.87835 -0.227276 0
M  V30 6617 H 597.566 3.64555 -2.82661 0
M  V30 6618 H 595.809 3.38526 -2.71261 0
M  V30 6619 H 596.48 4.98352 -2.37381 0
M  V30 6620 H 598.956 4.10882 -0.656902 0
M  V30 6621 H 597.832 5.47251 -0.42516 0
M  V30 6622 H 598.093 4.33158 0.884666 0
M  V30 6623 N 597.152 0.631951 1.44375 0
M  V30 6624 C 598.4 0.136497 2.01639 0
M  V30 6625 C 598.721 -1.24637 1.49969 0
M  V30 6626 O 597.991 -1.82827 0.70363 0
M  V30 6627 H 596.571 0.0474703 0.74549 0
M  V30 6628 H 599.233 0.818837 1.76865 0
M  V30 6629 H 598.329 0.104817 3.11924 0
M  V30 6630 N 598.631 -1.53133 0.372548 0
M  V30 6631 C 599.541 -2.29671 -0.478379 0
M  V30 6632 C 600.557 -1.35913 -1.08644 0
M  V30 6633 O 601.733 -1.68975 -1.09588 0
M  V30 6634 C 598.798 -3.07625 -1.599 0
M  V30 6635 C 597.859 -4.17061 -1.01776 0
M  V30 6636 C 597.092 -4.91289 -2.08497 0
M  V30 6637 O 597.315 -4.65442 -3.29727 0
M  V30 6638 O 596.249 -5.7705 -1.71164 0
M  V30 6639 H 600.075 -3.03355 0.144649 0
M  V30 6640 H 597.66 -1.48773 0.136729 0
M  V30 6641 H 599.542 -3.56281 -2.25038 0
M  V30 6642 H 598.217 -2.3677 -2.2073 0
M  V30 6643 H 597.124 -3.72641 -0.330098 0
M  V30 6644 H 598.457 -4.90102 -0.453915 0
M  V30 6645 N 600.109 -0.101901 -1.5727 0
M  V30 6646 C 601.358 0.559922 -1.93772 0
M  V30 6647 C 601.671 1.68913 -0.98629 0
M  V30 6648 O 602.877 2.41256 -1.24529 0
M  V30 6649 C 601.333 1.04739 -3.44322 0
M  V30 6650 C 600.941 -0.05243 -4.47969 0
M  V30 6651 C 602.685 1.68157 -3.89774 0
M  V30 6652 C 600.592 0.450781 -5.8968 0
M  V30 6653 H 599.522 0.212931 -0.723309 0
M  V30 6654 H 602.173 -0.179001 -1.82625 0
M  V30 6655 H 600.555 1.84021 -3.50645 0
M  V30 6656 H 601.729 -0.828157 -4.53297 0
M  V30 6657 H 600.044 -0.592202 -4.12167 0
M  V30 6658 H 602.641 2.0689 -4.93052 0
M  V30 6659 H 602.984 2.55338 -3.28798 0
M  V30 6660 H 603.517 0.954453 -3.8618 0
M  V30 6661 H 600.256 -0.38458 -6.54371 0
M  V30 6662 H 599.776 1.19336 -5.87809 0
M  V30 6663 H 601.455 0.917555 -6.40461 0
M  V30 6664 N 601.587 1.56661 0.17182 0
M  V30 6665 C 602.812 1.86459 0.908165 0
M  V30 6666 C 603.237 0.688181 1.75059 0
M  V30 6667 O 602.595 -0.362753 1.77634 0
M  V30 6668 C 602.643 3.14669 1.76112 0
M  V30 6669 O 601.747 2.96858 2.86268 0
M  V30 6670 H 601.088 0.613318 0.254434 0
M  V30 6671 H 603.618 2.03892 0.170113 0
M  V30 6672 H 603.628 3.46061 2.16115 0
M  V30 6673 H 602.303 3.99905 1.14233 0
M  V30 6674 H 600.88 2.76819 2.49852 0
M  V30 6675 N 603.065 -0.440357 1.51323 0
M  V30 6676 C 604.012 -1.53429 1.72419 0
M  V30 6677 C 604.982 -1.56165 0.565826 0
M  V30 6678 O 606.167 -1.73222 0.799917 0
M  V30 6679 C 603.307 -2.91169 1.85242 0
M  V30 6680 C 602.42 -2.97985 3.12777 0
M  V30 6681 C 601.555 -4.26829 3.16212 0
M  V30 6682 C 600.594 -4.27501 4.38074 0
M  V30 6683 N 599.731 -5.47866 4.39076 0
M  V30 6684 H 604.571 -1.34743 2.65797 0
M  V30 6685 H 602.108 -0.654608 1.31732 0
M  V30 6686 H 604.066 -3.71087 1.90658 0
M  V30 6687 H 602.696 -3.0842 0.952744 0
M  V30 6688 H 601.748 -2.10749 3.16685 0
M  V30 6689 H 603.06 -2.94342 4.02696 0
M  V30 6690 H 602.214 -5.15118 3.20527 0
M  V30 6691 H 600.953 -4.33124 2.24176 0
M  V30 6692 H 599.958 -3.37606 4.33938 0
M  V30 6693 H 601.183 -4.22873 5.31371 0
M  V30 6694 H 599.129 -5.54887 3.49909 0
M  V30 6695 H 599.046 -5.46091 5.22801 0
M  V30 6696 H 600.314 -6.38195 4.4758 0
M  V30 6697 N 604.543 -1.41418 -0.695603 0
M  V30 6698 C 605.49 -1.43264 -1.80954 0
M  V30 6699 C 606.46 -0.287016 -1.63601 0
M  V30 6700 O 607.645 -0.488054 -1.84452 0
M  V30 6701 C 604.785 -1.32054 -3.18835 0
M  V30 6702 C 603.898 -2.56485 -3.4762 0
M  V30 6703 C 603.033 -2.3757 -4.75115 0
M  V30 6704 C 602.072 -3.57477 -4.96867 0
M  V30 6705 N 601.209 -3.37632 -6.15588 0
M  V30 6706 H 606.049 -2.38467 -1.78711 0
M  V30 6707 H 603.586 -1.18415 -0.872715 0
M  V30 6708 H 605.544 -1.23558 -3.98484 0
M  V30 6709 H 604.174 -0.404592 -3.20254 0
M  V30 6710 H 603.226 -2.75432 -2.62376 0
M  V30 6711 H 604.538 -3.45678 -3.59594 0
M  V30 6712 H 603.692 -2.2654 -5.62818 0
M  V30 6713 H 602.431 -1.45834 -4.65386 0
M  V30 6714 H 601.436 -3.68961 -4.07612 0
M  V30 6715 H 602.661 -4.50167 -5.08455 0
M  V30 6716 H 600.607 -2.48596 -6.07072 0
M  V30 6717 H 600.524 -4.20401 -6.2833 0
M  V30 6718 H 601.792 -3.30375 -7.06026 0
M  V30 6719 N 606.021 0.929856 -1.27246 0
M  V30 6720 C 607.27 1.67182 -1.12842 0
M  V30 6721 C 607.583 1.9287 0.325666 0
M  V30 6722 O 608.789 2.64999 0.590572 0
M  V30 6723 C 607.245 3.01097 -1.97151 0
M  V30 6724 C 606.853 2.83115 -3.47203 0
M  V30 6725 C 608.597 3.78907 -1.91389 0
M  V30 6726 C 606.504 4.12573 -4.23719 0
M  V30 6727 H 605.434 0.627064 -0.418697 0
M  V30 6728 H 608.085 1.0332 -1.51649 0
M  V30 6729 H 606.467 3.66004 -1.51186 0
M  V30 6730 H 607.641 2.26989 -4.01015 0
M  V30 6731 H 605.956 2.18736 -3.54321 0
M  V30 6732 H 608.553 4.74837 -2.45834 0
M  V30 6733 H 608.896 4.0674 -0.887047 0
M  V30 6734 H 609.429 3.20794 -2.35237 0
M  V30 6735 H 606.168 3.8992 -5.26918 0
M  V30 6736 H 605.688 4.68371 -3.74685 0
M  V30 6737 H 607.367 4.8095 -4.32777 0
M  V30 6738 N 607.499 1.09233 1.13605 0
M  V30 6739 C 608.409 0.741939 2.22559 0
M  V30 6740 C 609.425 -0.255236 1.72118 0
M  V30 6741 O 610.601 -0.0970747 2.01166 0
M  V30 6742 C 607.666 0.165595 3.46304 0
M  V30 6743 C 606.727 1.21846 4.11645 0
M  V30 6744 C 605.96 0.669526 5.29484 0
M  V30 6745 O 606.183 -0.508228 5.68131 0
M  V30 6746 O 605.117 1.42361 5.84822 0
M  V30 6747 H 608.943 1.65107 2.54899 0
M  V30 6748 H 606.528 0.866584 1.21699 0
M  V30 6749 H 608.41 -0.152592 4.21124 0
M  V30 6750 H 607.085 -0.716573 3.15669 0
M  V30 6751 H 605.992 1.58931 3.38662 0
M  V30 6752 H 607.325 2.07321 4.46407 0
M  V30 6753 N 608.977 -1.30795 0.87923 0
M  V30 6754 C 610.388 -1.78535 0.546093 0
M  V30 6755 C 610.739 -1.72354 -0.937467 0
M  V30 6756 O 609.864 -1.2969 -1.73233 0
M  V30 6757 C 610.459 -3.24181 0.9845 0
M  V30 6758 C 609.018 -3.69779 0.702871 0
M  V30 6759 C 608.165 -2.51377 1.17068 0
M  V30 6760 H 611.116 -1.17746 1.06403 0
M  V30 6761 H 611.137 -3.79227 0.311045 0
M  V30 6762 H 610.649 -3.28647 2.06429 0
M  V30 6763 H 608.75 -3.70806 -0.365166 0
M  V30 6764 H 608.863 -4.61507 1.28639 0
M  V30 6765 H 607.227 -2.47768 0.590172 0
M  V30 6766 H 608.01 -2.58584 2.25808 0
M  V30 6767 N 610.455 -0.639598 -1.44038 0
M  V30 6768 C 611.402 0.0602458 -2.30721 0
M  V30 6769 C 612.372 0.828352 -1.43971 0
M  V30 6770 O 613.557 0.807693 -1.72861 0
M  V30 6771 C 610.697 1.03008 -3.29368 0
M  V30 6772 C 609.81 0.259502 -4.3122 0
M  V30 6773 C 608.945 1.22191 -5.16955 0
M  V30 6774 C 607.984 0.440978 -6.10509 0
M  V30 6775 N 607.121 1.35428 -6.88915 0
M  V30 6776 H 611.961 -0.684867 -2.90023 0
M  V30 6777 H 609.498 -0.349509 -1.42888 0
M  V30 6778 H 611.456 1.60583 -3.85057 0
M  V30 6779 H 610.086 1.74222 -2.71747 0
M  V30 6780 H 609.138 -0.432317 -3.77935 0
M  V30 6781 H 610.45 -0.348347 -4.97582 0
M  V30 6782 H 609.604 1.86873 -5.77203 0
M  V30 6783 H 608.343 1.86367 -4.50687 0
M  V30 6784 H 607.348 -0.219279 -5.49363 0
M  V30 6785 H 608.573 -0.196192 -6.78817 0
M  V30 6786 H 606.519 1.9831 -6.25307 0
M  V30 6787 H 606.436 0.800657 -7.51748 0
M  V30 6788 H 607.704 1.98967 -7.53679 0
M  V30 6789 N 611.933 1.52934 -0.380664 0
M  V30 6790 C 613.18 2.01467 0.204278 0
M  V30 6791 C 613.508 1.26744 1.47533 0
M  V30 6792 O 612.763 0.353723 1.92477 0
M  V30 6793 C 613.062 3.5349 0.527199 0
M  V30 6794 C 612.728 4.46171 -0.651295 0
M  V30 6795 C 611.39 4.71227 -0.974619 0
M  V30 6796 C 613.742 5.00909 -1.44012 0
M  V30 6797 C 611.07 5.4827 -2.08847 0
M  V30 6798 C 613.422 5.7917 -2.5445 0
M  V30 6799 C 612.086 6.02507 -2.87301 0
M  V30 6800 H 611.356 0.73722 0.0747504 0
M  V30 6801 H 614.003 1.84411 -0.516234 0
M  V30 6802 H 612.308 3.68574 1.32892 0
M  V30 6803 H 614.005 3.88529 0.992283 0
M  V30 6804 H 610.595 4.26829 -0.389276 0
M  V30 6805 H 614.779 4.81485 -1.20357 0
M  V30 6806 H 610.035 5.64567 -2.34679 0
M  V30 6807 H 614.209 6.20588 -3.1598 0
M  V30 6808 H 611.836 6.61989 -3.7373 0
M  V30 6809 N 613.412 0.11024 1.57214 0
M  V30 6810 C 614.344 -0.873497 2.11902 0
M  V30 6811 C 615.357 -1.23588 1.05971 0
M  V30 6812 O 616.546 -1.18636 1.33371 0
M  V30 6813 C 613.646 -2.17805 2.59643 0
M  V30 6814 C 612.819 -1.98869 3.89576 0
M  V30 6815 C 611.878 -3.12974 4.23006 0
M  V30 6816 O 610.904 -2.86272 4.91973 0
M  V30 6817 N 612.106 -4.39167 3.79622 0
M  V30 6818 H 614.871 -0.406317 2.96933 0
M  V30 6819 H 612.432 -0.074437 1.61729 0
M  V30 6820 H 614.424 -2.93117 2.79042 0
M  V30 6821 H 612.994 -2.55899 1.7954 0
M  V30 6822 H 612.214 -1.078 3.79174 0
M  V30 6823 H 613.502 -1.83512 4.74553 0
M  V30 6824 H 612.9 -4.63739 3.2398 0
M  V30 6825 H 611.457 -5.11379 4.04147 0
M  V30 6826 N 614.89 -1.56749 -0.16351 0
M  V30 6827 C 615.822 -1.93587 -1.22705 0
M  V30 6828 C 616.835 -0.829824 -1.40063 0
M  V30 6829 O 618.024 -1.10826 -1.39928 0
M  V30 6830 C 615.124 -2.1803 -2.59454 0
M  V30 6831 C 614.297 -3.4928 -2.63292 0
M  V30 6832 C 613.356 -3.62457 -3.8146 0
M  V30 6833 O 612.382 -4.35004 -3.67096 0
M  V30 6834 N 613.584 -2.97888 -4.9824 0
M  V30 6835 H 616.349 -2.8542 -0.914081 0
M  V30 6836 H 613.91 -1.58 -0.353214 0
M  V30 6837 H 615.902 -2.24102 -3.36987 0
M  V30 6838 H 614.472 -1.32543 -2.8311 0
M  V30 6839 H 613.692 -3.54795 -1.71796 0
M  V30 6840 H 614.98 -4.35632 -2.62873 0
M  V30 6841 H 614.378 -2.38833 -5.12811 0
M  V30 6842 H 612.935 -3.09545 -5.73607 0
M  V30 6843 N 616.368 0.432326 -1.51554 0
M  V30 6844 C 617.596 1.20364 -1.68286 0
M  V30 6845 C 618.011 1.84888 -0.38233 0
M  V30 6846 O 617.368 1.70924 0.639627 0
M  V30 6847 C 617.419 2.28398 -2.80208 0
M  V30 6848 O 617.14 1.66512 -4.05223 0
M  V30 6849 C 618.641 3.18584 -3.08251 0
M  V30 6850 H 615.861 0.36259 -0.564596 0
M  V30 6851 H 618.405 0.511647 -1.97996 0
M  V30 6852 H 616.56 2.93305 -2.53083 0
M  V30 6853 H 616.974 2.37951 -4.67418 0
M  V30 6854 H 618.448 3.90511 -3.90135 0
M  V30 6855 H 618.925 3.79628 -2.2086 0
M  V30 6856 H 619.531 2.59372 -3.37055 0
M  V30 6857 N 617.846 1.41785 0.688094 0
M  V30 6858 C 619.094 1.41264 1.4453 0
M  V30 6859 C 619.415 0.0252946 1.94984 0
M  V30 6860 O 618.685 -0.934081 1.72197 0
M  V30 6861 H 617.265 0.519998 0.536294 0
M  V30 6862 H 619.927 1.7709 0.813941 0
M  V30 6863 H 619.023 2.10439 2.30482 0
M  V30 6864 N 619.324 -0.923095 1.27737 0
M  V30 6865 C 620.271 -2.02432 1.1086 0
M  V30 6866 C 621.241 -1.66098 0.00835195 0
M  V30 6867 O 622.426 -1.90027 0.171542 0
M  V30 6868 C 619.566 -3.36476 0.766671 0
M  V30 6869 C 618.679 -3.85737 1.94501 0
M  V30 6870 C 617.814 -5.08249 1.54455 0
M  V30 6871 C 616.853 -5.49818 2.6901 0
M  V30 6872 N 615.99 -6.63524 2.29521 0
M  V30 6873 H 620.83 -2.16201 2.05089 0
M  V30 6874 H 618.367 -1.05909 1.02087 0
M  V30 6875 H 620.325 -4.13569 0.549223 0
M  V30 6876 H 618.955 -3.22502 -0.13867 0
M  V30 6877 H 618.007 -3.04883 2.27487 0
M  V30 6878 H 619.319 -4.12513 2.80419 0
M  V30 6879 H 618.473 -5.92857 1.28862 0
M  V30 6880 H 617.212 -4.83261 0.656534 0
M  V30 6881 H 616.217 -4.63757 2.95313 0
M  V30 6882 H 617.442 -5.76799 3.5844 0
M  V30 6883 H 615.388 -6.40185 1.43177 0
M  V30 6884 H 615.305 -6.89978 3.08977 0
M  V30 6885 H 616.573 -7.51461 2.07187 0
M  V30 6886 N 620.802 -1.09834 -1.13024 0
M  V30 6887 C 621.712 -0.753731 -2.22162 0
M  V30 6888 C 622.728 0.246105 -1.72251 0
M  V30 6889 O 623.904 0.0864051 -2.01215 0
M  V30 6890 C 620.969 -0.183958 -3.46212 0
M  V30 6891 C 620.03 -1.24028 -4.10993 0
M  V30 6892 C 619.263 -0.697597 -5.29121 0
M  V30 6893 O 619.486 0.478092 -5.68393 0
M  V30 6894 O 618.42 -1.4546 -5.84059 0
M  V30 6895 H 622.246 -1.66456 -2.5402 0
M  V30 6896 H 619.831 -0.873026 -1.21238 0
M  V30 6897 H 621.713 0.130257 -4.21199 0
M  V30 6898 H 620.388 0.699823 -3.16045 0
M  V30 6899 H 619.295 -1.60725 -3.37814 0
M  V30 6900 H 620.628 -2.09685 -4.45301 0
M  V30 6901 N 622.28 1.30327 -0.886154 0
M  V30 6902 C 623.21 2.30549 -0.370028 0
M  V30 6903 C 624.191 1.61039 0.547751 0
M  V30 6904 O 625.376 1.8864 0.461353 0
M  V30 6905 C 622.506 3.44808 0.415275 0
M  V30 6906 C 621.46 4.26024 -0.41085 0
M  V30 6907 C 620.786 5.32347 0.501128 0
M  V30 6908 C 622.086 4.95433 -1.65359 0
M  V30 6909 H 623.78 2.73969 -1.20754 0
M  V30 6910 H 621.326 1.3171 -0.582097 0
M  V30 6911 H 623.279 4.13986 0.78699 0
M  V30 6912 H 622.003 3.00197 1.28644 0
M  V30 6913 H 620.662 3.58535 -0.764719 0
M  V30 6914 H 620.31 4.83982 1.37004 0
M  V30 6915 H 620.01 5.87581 -0.0478356 0
M  V30 6916 H 621.534 6.0438 0.869333 0
M  V30 6917 H 622.948 5.5712 -1.35239 0
M  V30 6918 H 621.345 5.60537 -2.14284 0
M  V30 6919 H 622.415 4.21493 -2.39733 0
M  V30 6920 N 623.758 0.647228 1.43697 0
M  V30 6921 C 624.69 -0.0866232 2.29036 0
M  V30 6922 C 625.703 -0.793051 1.42178 0
M  V30 6923 O 626.892 -0.651807 1.66174 0
M  V30 6924 C 623.992 -1.14552 3.18953 0
M  V30 6925 C 623.165 -0.518422 4.34317 0
M  V30 6926 C 622.224 -1.4734 5.05151 0
M  V30 6927 O 621.25 -0.984312 5.60625 0
M  V30 6928 N 622.452 -2.8075 5.08094 0
M  V30 6929 H 625.217 0.645834 2.92659 0
M  V30 6930 H 622.778 0.489567 1.54321 0
M  V30 6931 H 624.77 -1.78505 3.63205 0
M  V30 6932 H 623.34 -1.78001 2.56971 0
M  V30 6933 H 622.56 0.300079 3.93056 0
M  V30 6934 H 623.848 -0.080401 5.08736 0
M  V30 6935 H 623.246 -3.23052 4.64386 0
M  V30 6936 H 621.803 -3.40022 5.56083 0
M  V30 6937 N 625.236 -1.5273 0.388769 0
M  V30 6938 C 626.146 -2.30165 -0.453993 0
M  V30 6939 C 627.162 -1.37058 -1.07197 0
M  V30 6940 O 628.338 -1.70127 -1.0779 0
M  V30 6941 C 625.403 -3.09303 -1.56628 0
M  V30 6942 C 624.464 -4.18117 -0.973467 0
M  V30 6943 C 623.697 -4.93472 -2.03275 0
M  V30 6944 O 623.92 -4.68913 -3.24772 0
M  V30 6945 O 622.854 -5.78833 -1.65034 0
M  V30 6946 H 626.68 -3.03185 0.176816 0
M  V30 6947 H 624.265 -1.4862 0.152501 0
M  V30 6948 H 626.147 -3.58648 -2.21246 0
M  V30 6949 H 624.822 -2.39098 -2.18206 0
M  V30 6950 H 623.729 -3.7297 -0.290556 0
M  V30 6951 H 625.062 -4.90556 -0.401908 0
M  V30 6952 N 626.714 -0.118576 -1.57153 0
M  V30 6953 C 627.962 0.538461 -1.94795 0
M  V30 6954 C 628.283 1.67243 -1.00274 0
M  V30 6955 O 627.553 1.95811 -0.0589692 0
M  V30 6956 H 626.133 0.201904 -0.719197 0
M  V30 6957 H 628.795 -0.187418 -1.93997 0
M  V30 6958 H 627.891 0.933315 -2.97818 0
M  V30 6959 N 628.193 1.56834 0.155195 0
M  V30 6960 C 629.141 1.98584 1.21107 0
M  V30 6961 C 630.135 0.876987 1.44932 0
M  V30 6962 O 631.341 1.06215 1.45322 0
M  V30 6963 H 627.716 0.632039 0.407469 0
M  V30 6964 H 629.687 2.86561 0.832195 0
M  V30 6965 C 628.436 2.37555 2.53895 0
M  V30 6966 H 627.759 3.22428 2.3639 0
M  V30 6967 H 629.199 2.70598 3.26424 0
M  V30 6968 C 627.658 1.22507 3.13837 0
M  V30 6969 O 628.188 0.521388 3.98302 0
M  V30 6970 N 626.394 0.991444 2.73164 0
M  V30 6971 H 625.941 1.56544 2.04577 0
M  V30 6972 H 625.899 0.223546 3.13604 0
M  V30 6973 N 629.671 -0.424282 1.51781 0
M  V30 6974 C 630.581 -1.54087 1.76902 0
M  V30 6975 C 631.597 -1.61249 0.653826 0
M  V30 6976 O 632.773 -1.78247 0.937552 0
M  V30 6977 C 629.838 -2.8996 1.90063 0
M  V30 6978 C 628.899 -2.92809 3.13945 0
M  V30 6979 C 628.132 -4.22201 3.26469 0
M  V30 6980 O 628.355 -5.15286 2.44616 0
M  V30 6981 O 627.289 -4.31599 4.1953 0
M  V30 6982 H 631.115 -1.358 2.71647 0
M  V30 6983 H 628.7 -0.608618 1.36441 0
M  V30 6984 H 630.582 -3.70575 2.0063 0
M  V30 6985 H 629.257 -3.08347 0.985067 0
M  V30 6986 H 628.164 -2.11102 3.08847 0
M  V30 6987 H 629.497 -2.79369 4.05233 0
M  V30 6988 N 631.149 -1.42148 -0.680565 0
M  V30 6989 C 632.377 -1.45696 -1.46902 0
M  V30 6990 C 632.792 -0.0665858 -1.88683 0
M  V30 6991 O 632.149 0.917436 -1.57764 0
M  V30 6992 C 632.2 -2.37898 -2.72188 0
M  V30 6993 O 631.921 -3.71526 -2.32163 0
M  V30 6994 C 633.422 -2.50407 -3.65802 0
M  V30 6995 H 630.642 -0.495729 -0.45221 0
M  V30 6996 H 633.186 -1.866 -0.836709 0
M  V30 6997 H 631.341 -2.00263 -3.31622 0
M  V30 6998 H 631.755 -4.20849 -3.13027 0
M  V30 6999 H 633.229 -3.19056 -4.50452 0
M  V30 7000 H 633.706 -1.5401 -4.11312 0
M  V30 7001 H 634.312 -2.8874 -3.12265 0
M  V30 7002 N 632.627 0.916307 -1.28225 0
M  V30 7003 C 633.904 1.64429 -1.05936 0
M  V30 7004 C 634.284 2.07234 0.402139 0
M  V30 7005 O 633.632 1.81535 1.3877 0
M  V30 7006 C 633.842 2.83773 -2.03159 0
M  V30 7007 C 635.19 3.54852 -2.33164 0
M  V30 7008 O 636.214 2.93918 -2.01223 0
M  V30 7009 O 635.073 4.64663 -2.87664 0
M  V30 7010 H 632.167 0.721221 -0.404683 0
M  V30 7011 H 634.713 0.965838 -1.39534 0
M  V30 7012 H 633.485 2.49217 -3.01673 0
M  V30 7013 H 633.108 3.59333 -1.70192 0
M  V30 7014 N 634.105 1.10431 1.1244 0
M  V30 7015 C 635.015 0.765502 2.21759 0
M  V30 7016 C 636.031 -0.236966 1.72379 0
M  V30 7017 O 637.207 -0.0757329 2.01258 0
M  V30 7018 C 634.272 0.202316 3.46109 0
M  V30 7019 C 633.333 1.26205 4.1033 0
M  V30 7020 C 632.566 0.725648 5.28744 0
M  V30 7021 O 632.789 -0.447942 5.68638 0
M  V30 7022 O 631.723 1.48555 5.83279 0
M  V30 7023 H 635.549 1.67801 2.53133 0
M  V30 7024 H 633.134 0.879443 1.20773 0
M  V30 7025 H 635.016 -0.107918 4.21262 0
M  V30 7026 H 633.691 -0.683052 3.16411 0
M  V30 7027 H 632.598 1.62514 3.36957 0
M  V30 7028 H 633.931 2.12044 4.44183 0
M  V30 7029 N 635.583 -1.29855 0.893053 0
M  V30 7030 C 636.546 -2.26183 0.370687 0
M  V30 7031 C 637.546 -1.53108 -0.491385 0
M  V30 7032 O 638.736 -1.71643 -0.297386 0
M  V30 7033 C 635.868 -3.37633 -0.470827 0
M  V30 7034 H 637.061 -2.73903 1.22135 0
M  V30 7035 H 634.614 -1.41183 0.67061 0
M  V30 7036 H 635.349 -2.95241 -1.34175 0
M  V30 7037 H 635.134 -3.91825 0.146784 0
M  V30 7038 H 636.624 -4.09313 -0.827825 0
M  V30 7039 N 637.061 -0.65484 -1.43351 0
M  V30 7040 C 638.008 0.0357713 -2.30772 0
M  V30 7041 C 638.978 0.813035 -1.44841 0
M  V30 7042 O 640.163 0.789314 -1.73708 0
M  V30 7043 C 637.303 0.995084 -3.30442 0
M  V30 7044 C 636.416 0.21375 -4.31471 0
M  V30 7045 C 635.551 1.16701 -5.18222 0
M  V30 7046 C 634.59 0.376201 -6.10943 0
M  V30 7047 N 633.727 1.28113 -6.90313 0
M  V30 7048 H 638.567 -0.71559 -2.89281 0
M  V30 7049 H 636.104 -0.364645 -1.42509 0
M  V30 7050 H 638.062 1.5649 -3.86739 0
M  V30 7051 H 636.692 1.7133 -2.7358 0
M  V30 7052 H 635.744 -0.472377 -3.77456 0
M  V30 7053 H 637.056 -0.401103 -4.97185 0
M  V30 7054 H 636.21 1.8074 -5.79153 0
M  V30 7055 H 634.949 1.81577 -4.52638 0
M  V30 7056 H 633.954 -0.277534 -5.49099 0
M  V30 7057 H 635.179 -0.268178 -6.7857 0
M  V30 7058 H 633.125 1.91666 -6.27376 0
M  V30 7059 H 633.042 0.720879 -7.52555 0
M  V30 7060 H 634.31 1.90962 -7.55747 0
M  V30 7061 N 638.539 1.52521 -0.396863 0
M  V30 7062 C 639.767 2.06091 0.18275 0
M  V30 7063 C 640.182 1.26796 1.39886 0
M  V30 7064 O 639.539 0.316585 1.79733 0
M  V30 7065 C 639.59 3.57362 0.545377 0
M  V30 7066 O 639.311 4.33656 -0.622428 0
M  V30 7067 C 640.812 4.27305 1.18004 0
M  V30 7068 H 638.032 0.670504 0.025789 0
M  V30 7069 H 640.576 1.96561 -0.564276 0
M  V30 7070 H 638.731 3.66941 1.2423 0
M  V30 7071 H 639.145 5.23507 -0.322662 0
M  V30 7072 H 640.619 5.34366 1.38408 0
M  V30 7073 H 641.096 3.83 2.1496 0
M  V30 7074 H 641.702 4.22064 0.523671 0
M  V30 7075 N 640.017 0.126909 1.57088 0
M  V30 7076 C 641.266 -0.529024 1.94639 0
M  V30 7077 C 641.579 -1.67323 1.01304 0
M  V30 7078 O 642.785 -2.39245 1.28352 0
M  V30 7079 C 641.241 -0.992483 3.45945 0
M  V30 7080 C 640.849 0.123691 4.47829 0
M  V30 7081 C 642.593 -1.61934 3.924 0
M  V30 7082 C 640.5 -0.356911 5.90322 0
M  V30 7083 H 639.43 -0.201397 0.726605 0
M  V30 7084 H 642.081 0.208032 1.82317 0
M  V30 7085 H 640.463 -1.7842 3.53528 0
M  V30 7086 H 641.637 0.900168 4.51922 0
M  V30 7087 H 639.952 0.657699 4.11173 0
M  V30 7088 H 642.549 -1.9902 4.96281 0
M  V30 7089 H 642.892 -2.50075 3.32819 0
M  V30 7090 H 643.425 -0.892894 3.8765 0
M  V30 7091 H 640.164 0.488636 6.53676 0
M  V30 7092 H 639.684 -1.0997 5.89633 0
M  V30 7093 H 641.363 -0.815547 6.41839 0
M  V30 7094 N 641.495 -1.56914 -0.146875 0
M  V30 7095 C 642.427 -1.94878 -1.20645 0
M  V30 7096 C 643.44 -0.844633 -1.39175 0
M  V30 7097 O 644.629 -1.12304 -1.38744 0
M  V30 7098 C 641.729 -2.20769 -2.57127 0
M  V30 7099 C 640.902 -3.52053 -2.59572 0
M  V30 7100 C 639.961 -3.66482 -3.77594 0
M  V30 7101 O 638.987 -4.38873 -3.62462 0
M  V30 7102 N 640.189 -3.03156 -4.95052 0
M  V30 7103 H 642.954 -2.86374 -0.883757 0
M  V30 7104 H 640.515 -1.58366 -0.336436 0
M  V30 7105 H 642.507 -2.27664 -3.34591 0
M  V30 7106 H 641.077 -1.35538 -2.81688 0
M  V30 7107 H 640.297 -3.56598 -1.68023 0
M  V30 7108 H 641.585 -4.38396 -2.58238 0
M  V30 7109 H 640.983 -2.44258 -5.10249 0
M  V30 7110 H 639.54 -3.15611 -5.70292 0
M  V30 7111 N 642.974 0.416227 -1.52004 0
M  V30 7112 C 644.223 1.16088 -1.64944 0
M  V30 7113 C 644.536 1.91835 -0.381928 0
M  V30 7114 O 645.742 2.6867 -0.391013 0
M  V30 7115 C 644.198 2.1124 -2.91386 0
M  V30 7116 C 643.806 1.41042 -4.25219 0
M  V30 7117 C 645.55 2.86008 -3.13688 0
M  V30 7118 C 643.457 2.34801 -5.42791 0
M  V30 7119 H 642.387 0.437041 -0.61442 0
M  V30 7120 H 645.038 0.425971 -1.78487 0
M  V30 7121 H 643.42 2.88254 -2.71525 0
M  V30 7122 H 644.594 0.694416 -4.55538 0
M  V30 7123 H 642.909 0.78344 -4.08964 0
M  V30 7124 H 645.506 3.56286 -3.98703 0
M  V30 7125 H 645.849 3.48556 -2.27628 0
M  V30 7126 H 646.382 2.16095 -3.33988 0
M  V30 7127 H 643.121 1.7691 -6.31176 0
M  V30 7128 H 642.641 3.04395 -5.16821 0
M  V30 7129 H 644.32 2.9548 -5.75587 0
M  V30 7130 N 644.452 1.42507 0.673017 0
M  V30 7131 C 645.362 1.4853 1.81593 0
M  V30 7132 C 646.378 0.373907 1.69935 0
M  V30 7133 O 647.554 0.625078 1.91454 0
M  V30 7134 C 644.619 1.387 3.17747 0
M  V30 7135 C 643.68 2.60346 3.41348 0
M  V30 7136 C 642.913 2.50975 4.71007 0
M  V30 7137 O 643.136 1.54659 5.49033 0
M  V30 7138 O 642.07 3.41138 4.95892 0
M  V30 7139 H 645.896 2.45001 1.79467 0
M  V30 7140 H 643.481 1.2429 0.82899 0
M  V30 7141 H 645.363 1.35586 3.98992 0
M  V30 7142 H 644.038 0.453555 3.20507 0
M  V30 7143 H 642.945 2.69034 2.59945 0
M  V30 7144 H 644.278 3.52595 3.43421 0
M  V30 7145 N 645.93 -0.909495 1.28709 0
M  V30 7146 C 646.863 -2.01388 1.07323 0
M  V30 7147 C 647.841 -1.62596 -0.0119757 0
M  V30 7148 O 649.025 -1.88003 0.136796 0
M  V30 7149 C 646.152 -3.32755 0.631797 0
M  V30 7150 C 645.198 -3.90532 1.71428 0
M  V30 7151 S 646.031 -4.20853 3.31124 0
M  V30 7152 C 647.187 -5.55276 2.88825 0
M  V30 7153 H 647.42 -2.19219 2.00824 0
M  V30 7154 H 644.953 -1.05489 1.12745 0
M  V30 7155 H 646.911 -4.08702 0.38381 0
M  V30 7156 H 645.572 -3.12818 -0.283451 0
M  V30 7157 H 644.765 -4.85385 1.35712 0
M  V30 7158 H 644.367 -3.21237 1.91528 0
M  V30 7159 H 646.659 -6.35341 2.3526 0
M  V30 7160 H 647.602 -5.95907 3.82492 0
M  V30 7161 H 648.01 -5.16666 2.27412 0
M  V30 7162 N 647.408 -1.11026 -1.11852 0
M  V30 7163 C 648.355 -0.764662 -2.17765 0
M  V30 7164 C 649.325 0.261854 -1.64023 0
M  V30 7165 O 650.51 0.139748 -1.90288 0
M  V30 7166 C 647.65 -0.209317 -3.44465 0
M  V30 7167 C 646.763 -1.29187 -4.12231 0
M  V30 7168 C 645.898 -0.697523 -5.266 0
M  V30 7169 C 644.937 -1.76023 -5.86244 0
M  V30 7170 N 644.074 -1.18569 -6.92016 0
M  V30 7171 H 648.914 -1.67202 -2.46673 0
M  V30 7172 H 646.451 -0.835065 -1.21099 0
M  V30 7173 H 648.409 0.130599 -4.16996 0
M  V30 7174 H 647.039 0.661251 -3.15955 0
M  V30 7175 H 646.091 -1.74881 -3.37818 0
M  V30 7176 H 647.403 -2.09607 -4.52622 0
M  V30 7177 H 646.557 -0.307412 -6.05921 0
M  V30 7178 H 645.296 0.138044 -4.87505 0
M  V30 7179 H 644.301 -2.1597 -5.05606 0
M  V30 7180 H 645.526 -2.59875 -6.27409 0
M  V30 7181 H 643.472 -0.371695 -6.54946 0
M  V30 7182 H 643.389 -1.92666 -7.31038 0
M  V30 7183 H 644.657 -0.82233 -7.7515 0
M  V30 7184 N 648.886 1.2938 -0.899927 0
M  V30 7185 C 649.833 2.27713 -0.376243 0
M  V30 7186 C 650.803 1.57016 0.541774 0
M  V30 7187 O 651.988 1.84997 0.466966 0
M  V30 7188 C 649.128 3.42889 0.39 0
M  V30 7189 C 648.241 4.28369 -0.558938 0
M  V30 7190 C 647.376 5.30726 0.224379 0
M  V30 7191 C 646.415 6.07862 -0.719068 0
M  V30 7192 N 645.552 7.02094 0.0298569 0
M  V30 7193 H 650.392 2.71888 -1.21988 0
M  V30 7194 H 647.929 1.33724 -0.612879 0
M  V30 7195 H 649.887 4.08443 0.850314 0
M  V30 7196 H 648.517 2.99743 1.19809 0
M  V30 7197 H 647.569 3.62986 -1.13777 0
M  V30 7198 H 648.881 4.82068 -1.2811 0
M  V30 7199 H 648.035 6.02098 0.745881 0
M  V30 7200 H 646.774 4.77759 0.979674 0
M  V30 7201 H 645.779 5.35353 -1.25207 0
M  V30 7202 H 647.004 6.62917 -1.4737 0
M  V30 7203 H 644.95 6.51496 0.767415 0
M  V30 7204 H 644.867 7.5335 -0.632391 0
M  V30 7205 H 646.135 7.77685 0.531615 0
M  V30 7206 N 650.364 0.662433 1.43002 0
M  V30 7207 C 651.78 0.330835 1.56133 0
M  V30 7208 C 651.98 -1.16454 1.64441 0
M  V30 7209 O 651.036 -1.94964 1.60453 0
M  V30 7210 C 652.349 1.05029 2.81761 0
M  V30 7211 C 653.897 1.03142 2.95518 0
M  V30 7212 C 654.372 1.73196 4.2399 0
M  V30 7213 N 655.863 1.70004 4.30875 0
M  V30 7214 C 656.598 2.21074 5.29069 0
M  V30 7215 N 656.094 2.80473 6.33488 0
M  V30 7216 N 657.887 2.1152 5.20784 0
M  V30 7217 H 650.038 1.63272 1.35853 0
M  V30 7218 H 652.301 0.687149 0.653092 0
M  V30 7219 H 652.007 2.10542 2.81718 0
M  V30 7220 H 651.881 0.607664 3.72273 0
M  V30 7221 H 654.268 -0.0153339 2.95096 0
M  V30 7222 H 654.349 1.51282 2.0627 0
M  V30 7223 H 653.993 2.77833 4.25172 0
M  V30 7224 H 653.923 1.22515 5.1215 0
M  V30 7225 H 656.414 1.26667 3.56039 0
M  V30 7226 H 656.727 3.17094 7.04749 0
M  V30 7227 H 655.072 2.84538 6.34085 0
M  V30 7228 H 658.263 1.64814 4.38126 0
M  V30 7229 H 658.436 2.51629 5.97149 0
M  V30 7230 N 651.842 -1.52309 0.404946 0
M  V30 7231 C 653.067 -2.06666 -0.1743 0
M  V30 7232 C 653.492 -1.27341 -1.38441 0
M  V30 7233 O 652.85 -0.302539 -1.78758 0
M  V30 7234 C 652.898 -3.57014 -0.507262 0
M  V30 7235 O 652.002 -3.80144 -1.59889 0
M  V30 7236 H 651.343 -0.663807 -0.0160273 0
M  V30 7237 H 653.873 -1.96297 0.576937 0
M  V30 7238 H 653.883 -4.00724 -0.767098 0
M  V30 7239 H 652.558 -4.14184 0.377368 0
M  V30 7240 H 651.135 -3.48316 -1.33155 0
M  V30 7241 N 653.32 -0.135238 -1.57019 0
M  V30 7242 C 654.731 0.387521 -1.82634 0
M  V30 7243 C 655.082 1.65528 -1.05332 0
M  V30 7244 O 654.207 2.14381 -0.294926 0
M  V30 7245 C 654.802 0.709852 -3.3128 0
M  V30 7246 C 653.361 1.17718 -3.57518 0
M  V30 7247 C 652.508 0.194183 -2.76619 0
M  V30 7248 H 655.459 -0.360126 -1.5456 0
M  V30 7249 H 655.48 1.5657 -3.46794 0
M  V30 7250 H 654.992 -0.213024 -3.87515 0
M  V30 7251 H 653.093 2.1164 -3.06658 0
M  V30 7252 H 653.206 1.11128 -4.66034 0
M  V30 7253 H 651.57 0.684478 -2.4533 0
M  V30 7254 H 652.353 -0.722076 -3.3562 0
M  V30 7255 N 654.798 1.5699 0.138552 0
M  V30 7256 C 656.047 1.82998 0.848205 0
M  V30 7257 C 656.36 0.717829 1.81952 0
M  V30 7258 O 657.566 0.863756 2.57394 0
M  V30 7259 C 656.022 3.24379 1.55904 0
M  V30 7260 C 655.63 4.43552 0.62971 0
M  V30 7261 C 657.374 3.59654 2.25498 0
M  V30 7262 C 655.281 5.75957 1.34266 0
M  V30 7263 H 654.211 0.682495 0.320495 0
M  V30 7264 H 656.862 1.83222 0.100924 0
M  V30 7265 H 655.244 3.18567 2.35226 0
M  V30 7266 H 656.418 4.6062 -0.128882 0
M  V30 7267 H 654.733 4.16379 0.0417526 0
M  V30 7268 H 657.33 4.55837 2.79493 0
M  V30 7269 H 657.673 2.86124 3.02388 0
M  V30 7270 H 658.206 3.67164 1.53087 0
M  V30 7271 H 654.945 6.52604 0.615441 0
M  V30 7272 H 654.465 5.62811 2.07375 0
M  V30 7273 H 656.144 6.19046 1.88126 0
M  V30 7274 N 656.276 -0.40816 1.52223 0
M  V30 7275 C 657.501 -1.18127 1.70472 0
M  V30 7276 C 657.926 -1.83491 0.41384 0
M  V30 7277 O 657.284 -1.70047 -0.628778 0
M  V30 7278 C 657.332 -2.21935 2.84213 0
M  V30 7279 O 656.436 -3.28099 2.4985 0
M  V30 7280 H 655.777 -0.344781 0.56747 0
M  V30 7281 H 658.307 -0.478328 1.9893 0
M  V30 7282 H 658.317 -2.66248 3.09153 0
M  V30 7283 H 656.992 -1.73744 3.7787 0
M  V30 7284 H 655.569 -2.89058 2.35584 0
M  V30 7285 N 657.755 -1.42862 -0.66545 0
M  V30 7286 C 658.983 -1.47246 -1.45349 0
M  V30 7287 C 659.398 -0.0865944 -1.88601 0
M  V30 7288 O 658.755 0.900652 -1.58728 0
M  V30 7289 C 658.806 -2.40772 -2.6965 0
M  V30 7290 O 658.527 -3.73968 -2.2821 0
M  V30 7291 C 660.028 -2.54272 -3.63126 0
M  V30 7292 H 657.248 -0.500497 -0.446927 0
M  V30 7293 H 659.792 -1.87477 -0.816871 0
M  V30 7294 H 657.947 -2.0377 -3.29479 0
M  V30 7295 H 658.361 -4.24146 -3.08546 0
M  V30 7296 H 659.835 -3.23815 -4.47043 0
M  V30 7297 H 660.312 -1.58364 -4.09656 0
M  V30 7298 H 660.918 -2.92036 -3.09185 0
M  V30 7299 N 659.233 0.902656 -1.29189 0
M  V30 7300 C 660.51 1.63296 -1.07674 0
M  V30 7301 C 660.89 2.07649 0.380137 0
M  V30 7302 O 660.238 1.82997 1.36837 0
M  V30 7303 C 660.448 2.81603 -2.06158 0
M  V30 7304 C 661.796 3.52359 -2.36914 0
M  V30 7305 O 662.82 2.91767 -2.04329 0
M  V30 7306 O 661.679 4.61586 -2.92576 0
M  V30 7307 H 658.773 0.716889 -0.41231 0
M  V30 7308 H 661.319 0.950984 -1.4055 0
M  V30 7309 H 660.091 2.46004 -3.04299 0
M  V30 7310 H 659.714 3.57508 -1.73993 0
M  V30 7311 N 660.711 1.11618 1.11262 0
M  V30 7312 C 661.939 0.888739 1.8684 0
M  V30 7313 C 662.354 -0.561558 1.80255 0
M  V30 7314 O 661.711 -1.38782 1.18515 0
M  V30 7315 C 661.762 1.34422 3.35579 0
M  V30 7316 O 661.483 2.73766 3.42029 0
M  V30 7317 C 662.984 1.15246 4.28058 0
M  V30 7318 H 660.204 0.318152 0.590779 0
M  V30 7319 H 662.748 1.48398 1.40707 0
M  V30 7320 H 660.903 0.79239 3.7921 0
M  V30 7321 H 661.317 2.9355 4.34659 0
M  V30 7322 H 662.791 1.52015 5.30656 0
M  V30 7323 H 663.268 0.0922007 4.39103 0
M  V30 7324 H 663.874 1.69136 3.90222 0
M  V30 7325 N 662.189 -1.289 0.906776 0
M  V30 7326 C 663.414 -1.99939 0.551303 0
M  V30 7327 C 663.839 -1.67366 -0.858496 0
M  V30 7328 O 663.197 -0.902176 -1.57259 0
M  V30 7329 C 663.245 -3.52523 0.758937 0
M  V30 7330 O 662.349 -4.11983 -0.185308 0
M  V30 7331 H 661.69 -0.628376 0.214568 0
M  V30 7332 H 664.22 -1.64225 1.2203 0
M  V30 7333 H 664.23 -4.02522 0.666329 0
M  V30 7334 H 662.905 -3.75566 1.78671 0
M  V30 7335 H 661.482 -3.72873 -0.0445577 0
M  V30 7336 N 663.667 -0.670007 -1.42649 0
M  V30 7337 C 664.597 -0.00258501 -2.335 0
M  V30 7338 C 665.578 0.794364 -1.50412 0
M  V30 7339 O 666.763 0.75248 -1.79029 0
M  V30 7340 C 663.893 0.952748 -3.33976 0
M  V30 7341 C 662.847 0.264733 -4.2718 0
M  V30 7342 C 662.173 1.33267 -5.17826 0
M  V30 7343 C 663.473 -0.853289 -5.15283 0
M  V30 7344 H 665.167 -0.761326 -2.89559 0
M  V30 7345 H 662.713 -0.367561 -1.3923 0
M  V30 7346 H 664.666 1.4287 -3.96442 0
M  V30 7347 H 663.39 1.74285 -2.7621 0
M  V30 7348 H 662.049 -0.190938 -3.66102 0
M  V30 7349 H 661.697 2.11464 -4.5639 0
M  V30 7350 H 661.397 0.877476 -5.81011 0
M  V30 7351 H 662.921 1.80965 -5.83167 0
M  V30 7352 H 664.335 -0.458763 -5.71462 0
M  V30 7353 H 662.732 -1.23398 -5.87276 0
M  V30 7354 H 663.802 -1.70412 -4.53969 0
M  V30 7355 N 665.145 1.52092 -0.413018 0
M  V30 7356 C 666.422 1.94356 0.22024 0
M  V30 7357 C 666.802 1.35017 1.62277 0
M  V30 7358 O 666.15 0.527511 2.22328 0
M  V30 7359 C 666.36 3.48289 0.222638 0
M  V30 7360 C 667.708 4.22313 0.440098 0
M  V30 7361 O 668.732 3.54919 0.301826 0
M  V30 7362 O 667.591 5.41829 0.712984 0
M  V30 7363 H 664.685 0.814536 0.14304 0
M  V30 7364 H 667.231 1.63083 -0.469242 0
M  V30 7365 H 666.003 3.83872 -0.758836 0
M  V30 7366 H 665.626 3.85934 0.956057 0
M  V30 7367 N 666.623 0.143563 1.56945 0
M  V30 7368 C 667.869 -0.50916 1.96304 0
M  V30 7369 C 668.202 -1.64741 1.0283 0
M  V30 7370 O 667.477 -1.94374 0.0700361 0
M  V30 7371 C 667.76 -1.0186 3.45393 0
M  V30 7372 C 667.613 0.117923 4.49645 0
M  V30 7373 C 668.932 -1.90151 3.96901 0
M  V30 7374 H 666.051 -0.183608 0.713763 0
M  V30 7375 H 668.693 0.224095 1.88674 0
M  V30 7376 H 666.843 -1.64345 3.52027 0
M  V30 7377 H 668.515 0.754145 4.55094 0
M  V30 7378 H 666.758 0.777568 4.26774 0
M  V30 7379 H 667.429 -0.280187 5.51288 0
M  V30 7380 H 669.905 -1.375 3.92725 0
M  V30 7381 H 668.781 -2.22707 5.0169 0
M  V30 7382 H 669.042 -2.83718 3.39052 0
M  V30 7383 N 668.101 -1.57061 -0.130224 0
M  V30 7384 C 669.031 -2.02552 -1.16168 0
M  V30 7385 C 670.012 -0.907971 -1.4384 0
M  V30 7386 O 671.197 -1.17693 -1.54473 0
M  V30 7387 C 668.327 -2.42035 -2.49071 0
M  V30 7388 C 667.281 -3.5713 -2.35886 0
M  V30 7389 C 666.607 -3.82478 -3.7365 0
M  V30 7390 C 667.907 -4.89236 -1.8288 0
M  V30 7391 H 669.601 -2.8897 -0.783359 0
M  V30 7392 H 667.147 -1.39021 -0.375376 0
M  V30 7393 H 669.1 -2.72462 -3.21469 0
M  V30 7394 H 667.824 -1.52573 -2.88771 0
M  V30 7395 H 666.483 -3.26895 -1.65938 0
M  V30 7396 H 666.131 -2.9024 -4.10816 0
M  V30 7397 H 665.831 -4.59944 -3.65685 0
M  V30 7398 H 667.355 -4.15347 -4.47571 0
M  V30 7399 H 668.769 -5.18272 -2.45085 0
M  V30 7400 H 667.166 -5.70624 -1.85763 0
M  V30 7401 H 668.236 -4.78494 -0.785571 0
M  V30 7402 N 669.579 0.400081 -1.52437 0
M  V30 7403 C 670.489 1.51253 -1.79331 0
M  V30 7404 C 671.505 1.60188 -0.679396 0
M  V30 7405 O 672.681 1.76733 -0.965791 0
M  V30 7406 C 669.746 2.869 -1.94652 0
M  V30 7407 C 668.807 2.87777 -3.18564 0
M  V30 7408 C 668.04 4.16954 -3.33145 0
M  V30 7409 O 668.263 5.11329 -2.52783 0
M  V30 7410 O 667.197 4.2487 -4.26343 0
M  V30 7411 H 671.023 1.31461 -2.73773 0
M  V30 7412 H 668.608 0.586834 -1.37392 0
M  V30 7413 H 670.49 3.67336 -2.065 0
M  V30 7414 H 669.165 3.06741 -1.034 0
M  V30 7415 H 668.072 2.06162 -3.12167 0
M  V30 7416 H 669.405 2.72886 -4.09627 0
M  V30 7417 N 671.057 1.43213 0.657864 0
M  V30 7418 C 672.334 1.35063 1.41483 0
M  V30 7419 C 672.714 -0.0038314 2.111 0
M  V30 7420 O 672.062 -1.02018 2.04462 0
M  V30 7421 C 672.272 2.53061 2.40335 0
M  V30 7422 C 673.62 2.9594 3.04474 0
M  V30 7423 O 674.644 2.53074 2.50663 0
M  V30 7424 O 673.503 3.70184 4.02027 0
M  V30 7425 H 670.597 0.533517 0.631893 0
M  V30 7426 H 673.143 1.55253 0.685162 0
M  V30 7427 H 671.915 3.43283 1.87809 0
M  V30 7428 H 671.538 2.34945 3.20759 0
M  V30 7429 N 672.536 -0.895792 1.29666 0
M  V30 7430 C 673.499 -1.98189 1.15124 0
M  V30 7431 C 674.499 -1.60572 0.0855717 0
M  V30 7432 O 675.689 -1.70991 0.332826 0
M  V30 7433 C 672.821 -3.32289 0.761372 0
M  V30 7434 H 674.014 -2.12518 2.11603 0
M  V30 7435 H 671.567 -1.0808 1.12908 0
M  V30 7436 H 672.302 -3.23662 -0.203393 0
M  V30 7437 H 672.087 -3.60958 1.53139 0
M  V30 7438 H 673.577 -4.1198 0.682792 0
M  V30 7439 N 674.014 -1.12206 -1.10668 0
M  V30 7440 C 675.242 -0.898635 -1.86366 0
M  V30 7441 C 675.657 0.551991 -1.80551 0
M  V30 7442 O 675.014 1.38152 -1.19249 0
M  V30 7443 C 675.065 -1.36199 -3.34861 0
M  V30 7444 O 674.786 -2.75576 -3.40573 0
M  V30 7445 C 676.287 -1.17515 -4.2744 0
M  V30 7446 H 673.507 -0.321281 -0.589084 0
M  V30 7447 H 676.051 -1.49142 -1.39918 0
M  V30 7448 H 674.206 -0.81249 -3.78784 0
M  V30 7449 H 674.62 -2.95851 -4.33096 0
M  V30 7450 H 676.094 -1.54827 -5.29842 0
M  V30 7451 H 676.571 -0.115486 -4.39048 0
M  V30 7452 H 677.177 -1.71203 -3.89319 0
M  V30 7453 N 675.492 1.28418 -0.913599 0
M  V30 7454 C 676.422 2.29713 -0.418847 0
M  V30 7455 C 677.403 1.62165 0.513469 0
M  V30 7456 O 678.588 1.89576 0.421235 0
M  V30 7457 C 675.718 3.45612 0.342042 0
M  V30 7458 C 674.672 4.25056 -0.501123 0
M  V30 7459 C 673.998 5.3329 0.388097 0
M  V30 7460 C 675.298 4.91814 -1.75831 0
M  V30 7461 H 676.992 2.71346 -1.26538 0
M  V30 7462 H 674.538 1.30446 -0.609903 0
M  V30 7463 H 676.491 4.15562 0.699 0
M  V30 7464 H 675.215 3.02858 1.22248 0
M  V30 7465 H 673.874 3.56833 -0.840598 0
M  V30 7466 H 673.522 4.8678 1.26707 0
M  V30 7467 H 673.222 5.87347 -0.172459 0
M  V30 7468 H 674.746 6.06088 0.74094 0
M  V30 7469 H 676.16 5.54126 -1.47026 0
M  V30 7470 H 674.557 5.55866 -2.26126 0
M  V30 7471 H 675.627 4.16313 -2.4862 0
M  V30 7472 N 676.97 0.677563 1.42291 0
M  V30 7473 C 678.386 0.347376 1.55774 0
M  V30 7474 C 678.586 -1.14703 1.65667 0
M  V30 7475 O 677.642 -1.93252 1.62512 0
M  V30 7476 C 678.955 1.08011 2.80631 0
M  V30 7477 C 680.503 1.06271 2.94407 0
M  V30 7478 C 680.978 1.77683 4.22129 0
M  V30 7479 N 682.469 1.74564 4.29047 0
M  V30 7480 C 683.204 2.26673 5.26694 0
M  V30 7481 N 682.7 2.87176 6.30477 0
M  V30 7482 N 684.493 2.17032 5.18511 0
M  V30 7483 H 676.644 1.64703 1.34114 0
M  V30 7484 H 678.907 0.694038 0.645768 0
M  V30 7485 H 678.613 2.13518 2.79469 0
M  V30 7486 H 678.487 0.647115 3.71608 0
M  V30 7487 H 680.874 0.0159658 2.95096 0
M  V30 7488 H 680.955 1.53461 2.04654 0
M  V30 7489 H 680.599 2.82327 4.22201 0
M  V30 7490 H 680.529 1.2794 5.10822 0
M  V30 7491 H 683.02 1.30436 3.54676 0
M  V30 7492 H 683.333 3.24551 7.01346 0
M  V30 7493 H 681.678 2.91247 6.31031 0
M  V30 7494 H 684.869 1.69451 4.36353 0
M  V30 7495 H 685.042 2.57948 5.94446 0
M  V30 7496 N 678.448 -1.51871 0.421078 0
M  V30 7497 C 679.398 -2.24171 -0.416111 0
M  V30 7498 C 680.382 -1.25763 -1.00362 0
M  V30 7499 O 681.574 -1.5094 -0.924452 0
M  V30 7500 C 678.703 -3.07533 -1.52571 0
M  V30 7501 C 677.789 -4.1336 -0.948399 0
M  V30 7502 N 678.18 -5.05704 -0.0987933 0
M  V30 7503 C 676.478 -4.29055 -1.21768 0
M  V30 7504 C 677.179 -5.8127 0.223705 0
M  V30 7505 N 676.155 -5.4221 -0.388524 0
M  V30 7506 H 679.957 -2.92925 0.239166 0
M  V30 7507 H 677.471 -1.60732 0.232191 0
M  V30 7508 H 679.468 -3.57893 -2.13819 0
M  V30 7509 H 678.128 -2.4032 -2.18349 0
M  V30 7510 H 679.139 -5.17214 0.266428 0
M  V30 7511 H 675.816 -3.73071 -1.87416 0
M  V30 7512 H 677.206 -6.65653 0.914076 0
M  V30 7513 N 679.926 -0.151884 -1.56866 0
M  V30 7514 C 680.873 0.785936 -2.17006 0
M  V30 7515 C 681.843 1.2407 -1.10435 0
M  V30 7516 O 683.028 1.31235 -1.38499 0
M  V30 7517 C 680.168 2.01771 -2.79969 0
M  V30 7518 C 679.281 1.6083 -4.00946 0
M  V30 7519 C 678.416 2.79224 -4.51893 0
M  V30 7520 C 677.455 2.3468 -5.65324 0
M  V30 7521 N 676.592 3.461 -6.10867 0
M  V30 7522 H 681.432 0.266286 -2.96808 0
M  V30 7523 H 678.969 0.11972 -1.46612 0
M  V30 7524 H 680.927 2.73989 -3.14621 0
M  V30 7525 H 679.557 2.51139 -2.02803 0
M  V30 7526 H 678.609 0.783592 -3.72242 0
M  V30 7527 H 679.921 1.24119 -4.83111 0
M  V30 7528 H 679.075 3.59625 -4.88625 0
M  V30 7529 H 677.814 3.19183 -3.68746 0
M  V30 7530 H 676.819 1.52721 -5.28163 0
M  V30 7531 H 678.044 1.95801 -6.5026 0
M  V30 7532 H 675.99 3.85671 -5.30654 0
M  V30 7533 H 675.907 3.1342 -6.87971 0
M  V30 7534 H 677.175 4.26844 -6.52246 0
M  V30 7535 N 681.404 1.57128 0.121893 0
M  V30 7536 C 682.314 2.03425 1.16857 0
M  V30 7537 C 683.33 0.954108 1.45509 0
M  V30 7538 O 684.506 1.26541 1.56682 0
M  V30 7539 C 681.571 2.42685 2.47599 0
M  V30 7540 C 680.632 3.64767 2.2637 0
M  V30 7541 C 679.865 4.02145 3.50878 0
M  V30 7542 O 680.088 3.39897 4.58068 0
M  V30 7543 O 679.022 4.95262 3.42051 0
M  V30 7544 H 682.848 2.92825 0.80544 0
M  V30 7545 H 680.433 1.45654 0.332477 0
M  V30 7546 H 682.315 2.68684 3.24634 0
M  V30 7547 H 680.99 1.56432 2.83392 0
M  V30 7548 H 679.897 3.43922 1.47203 0
M  V30 7549 H 681.23 4.51716 1.95482 0
M  V30 7550 N 682.882 -0.391992 1.52647 0
M  V30 7551 C 683.792 -1.503 1.80131 0
M  V30 7552 C 684.808 -1.59825 0.687882 0
M  V30 7553 O 685.984 -1.76218 0.975149 0
M  V30 7554 C 683.049 -2.85863 1.96171 0
M  V30 7555 C 682.11 -2.86084 3.20085 0
M  V30 7556 C 681.343 -4.15181 3.35351 0
M  V30 7557 O 681.566 -5.09981 2.55491 0
M  V30 7558 O 680.5 -4.22603 4.28591 0
M  V30 7559 H 684.326 -1.30007 2.74466 0
M  V30 7560 H 681.911 -0.579539 1.37701 0
M  V30 7561 H 683.793 -3.66236 2.08445 0
M  V30 7562 H 682.468 -3.06189 1.05025 0
M  V30 7563 H 681.375 -2.04504 3.13256 0
M  V30 7564 H 682.708 -2.7071 4.11068 0
M  V30 7565 N 684.36 -1.4356 -0.65026 0
M  V30 7566 C 685.29 -1.51758 -1.77459 0
M  V30 7567 C 686.271 -0.372019 -1.65982 0
M  V30 7568 O 687.456 -0.589627 -1.85033 0
M  V30 7569 C 684.586 -1.44302 -3.15902 0
M  V30 7570 C 683.54 -2.57138 -3.42146 0
M  V30 7571 C 682.866 -2.34735 -4.8042 0
M  V30 7572 C 684.166 -3.99373 -3.36598 0
M  V30 7573 H 685.86 -2.45863 -1.70855 0
M  V30 7574 H 683.406 -1.18333 -0.820566 0
M  V30 7575 H 685.359 -1.48641 -3.94314 0
M  V30 7576 H 684.083 -0.467026 -3.23244 0
M  V30 7577 H 682.742 -2.52157 -2.66106 0
M  V30 7578 H 682.39 -1.35372 -4.84441 0
M  V30 7579 H 682.09 -3.10375 -4.9894 0
M  V30 7580 H 683.614 -2.40862 -5.61086 0
M  V30 7581 H 685.028 -4.05826 -4.04942 0
M  V30 7582 H 683.425 -4.75063 -3.66654 0
M  V30 7583 H 684.495 -4.243 -2.34729 0
M  V30 7584 N 685.838 0.888903 -1.30139 0
M  V30 7585 C 686.748 2.02705 -1.18101 0
M  V30 7586 C 687.764 1.73702 -0.101809 0
M  V30 7587 O 688.94 1.98906 -0.315984 0
M  V30 7588 C 686.005 3.35616 -0.869651 0
M  V30 7589 C 685.066 3.78067 -2.03381 0
M  V30 7590 C 684.299 5.04635 -1.73721 0
M  V30 7591 O 684.522 5.66531 -0.663267 0
M  V30 7592 O 683.456 5.43399 -2.58845 0
M  V30 7593 H 687.282 2.15788 -2.13704 0
M  V30 7594 H 684.867 1.01426 -1.09695 0
M  V30 7595 H 686.749 4.15358 -0.711043 0
M  V30 7596 H 685.424 3.23651 0.0565002 0
M  V30 7597 H 684.331 2.99046 -2.24772 0
M  V30 7598 H 685.664 3.94631 -2.94155 0
M  V30 7599 N 687.317 1.12792 1.10072 0
M  V30 7600 C 688.264 0.79921 2.16521 0
M  V30 7601 C 689.234 -0.235726 1.64419 0
M  V30 7602 O 690.419 -0.109457 1.90486 0
M  V30 7603 C 687.559 0.264091 3.44088 0
M  V30 7604 C 686.672 1.35729 4.10124 0
M  V30 7605 C 685.807 0.781212 5.25424 0
M  V30 7606 C 684.846 1.85327 5.8337 0
M  V30 7607 N 683.983 1.29564 6.90042 0
M  V30 7608 H 688.823 1.71105 2.43981 0
M  V30 7609 H 686.36 0.854225 1.19756 0
M  V30 7610 H 688.318 -0.0642423 4.17151 0
M  V30 7611 H 686.948 -0.610901 3.16967 0
M  V30 7612 H 686 1.80234 3.34993 0
M  V30 7613 H 687.312 2.16782 4.4923 0
M  V30 7614 H 686.466 0.403769 6.05355 0
M  V30 7615 H 685.205 -0.0604686 4.87663 0
M  V30 7616 H 684.21 2.23986 5.02106 0
M  V30 7617 H 685.435 2.69824 6.23195 0
M  V30 7618 H 683.381 0.475844 6.54272 0
M  V30 7619 H 683.298 2.04271 7.2788 0
M  V30 7620 H 684.566 0.945545 7.73744 0
M  V30 7621 N 688.795 -1.27931 0.920396 0
M  V30 7622 C 690.02 -1.99343 0.572478 0
M  V30 7623 C 690.445 -1.68267 -0.840696 0
M  V30 7624 O 689.803 -0.918805 -1.56294 0
M  V30 7625 C 689.851 -3.51698 0.796284 0
M  V30 7626 O 688.955 -4.12157 -0.141602 0
M  V30 7627 H 688.296 -0.626065 0.221221 0
M  V30 7628 H 690.826 -1.62921 1.23765 0
M  V30 7629 H 690.836 -4.01793 0.708984 0
M  V30 7630 H 689.511 -3.73649 1.82644 0
M  V30 7631 H 688.088 -3.729 -0.005007 0
M  V30 7632 N 690.273 -0.685099 -1.4193 0
M  V30 7633 C 691.22 -0.0131869 -2.30796 0
M  V30 7634 C 692.19 0.782129 -1.46533 0
M  V30 7635 O 693.375 0.75229 -1.75343 0
M  V30 7636 C 690.515 0.924768 -3.32479 0
M  V30 7637 C 689.628 0.122181 -4.31827 0
M  V30 7638 C 688.763 1.05682 -5.20581 0
M  V30 7639 C 687.802 0.246526 -6.11603 0
M  V30 7640 N 686.939 1.13442 -6.92875 0
M  V30 7641 H 691.779 -0.776789 -2.87698 0
M  V30 7642 H 689.316 -0.394791 -1.41703 0
M  V30 7643 H 691.274 1.48251 -3.89971 0
M  V30 7644 H 689.904 1.65488 -2.77152 0
M  V30 7645 H 688.956 -0.552335 -3.76369 0
M  V30 7646 H 690.268 -0.506473 -4.96222 0
M  V30 7647 H 689.422 1.68415 -5.82856 0
M  V30 7648 H 688.161 1.71935 -4.56388 0
M  V30 7649 H 687.166 -0.393944 -5.48387 0
M  V30 7650 H 688.391 -0.412053 -6.77849 0
M  V30 7651 H 686.337 1.78316 -6.313 0
M  V30 7652 H 686.254 0.561089 -7.53915 0
M  V30 7653 H 687.522 1.74889 -7.59628 0
M  V30 7654 N 691.751 1.51645 -0.429126 0
M  V30 7655 C 692.698 2.27542 0.386446 0
M  V30 7656 C 693.668 1.30786 1.02393 0
M  V30 7657 O 694.853 1.59678 1.0444 0
M  V30 7658 C 691.993 3.11457 1.48623 0
M  V30 7659 C 691.106 4.23196 0.867691 0
M  V30 7660 C 690.241 4.94435 1.94183 0
M  V30 7661 C 689.28 5.98108 1.30129 0
M  V30 7662 N 688.417 6.62786 2.31644 0
M  V30 7663 H 693.257 2.968 -0.267155 0
M  V30 7664 H 690.794 1.46397 -0.143591 0
M  V30 7665 H 692.752 3.58429 2.13506 0
M  V30 7666 H 691.382 2.44329 2.10957 0
M  V30 7667 H 690.434 3.80248 0.107373 0
M  V30 7668 H 691.746 4.97499 0.35997 0
M  V30 7669 H 690.9 5.44914 2.66747 0
M  V30 7670 H 689.639 4.19744 2.48326 0
M  V30 7671 H 688.644 5.4693 0.561082 0
M  V30 7672 H 689.869 6.74751 0.767303 0
M  V30 7673 H 687.815 5.90913 2.84883 0
M  V30 7674 H 687.732 7.32828 1.85741 0
M  V30 7675 H 689 7.17897 3.03717 0
M  V30 7676 N 693.229 0.160201 1.56784 0
M  V30 7677 C 694.478 -0.487619 1.95717 0
M  V30 7678 C 694.791 -1.65136 1.0483 0
M  V30 7679 O 695.997 -2.36468 1.33398 0
M  V30 7680 C 694.453 -0.91888 3.47972 0
M  V30 7681 C 694.061 0.218655 4.47466 0
M  V30 7682 C 695.805 -1.53575 3.95746 0
M  V30 7683 C 693.712 -0.231614 5.90946 0
M  V30 7684 H 692.642 -0.185939 0.730714 0
M  V30 7685 H 695.293 0.246657 1.81835 0
M  V30 7686 H 693.675 -1.70881 3.57234 0
M  V30 7687 H 694.849 0.995825 4.49911 0
M  V30 7688 H 693.164 0.744767 4.09685 0
M  V30 7689 H 695.761 -1.88448 5.00391 0
M  V30 7690 H 696.104 -2.42959 3.38048 0
M  V30 7691 H 696.637 -0.810467 3.89456 0
M  V30 7692 H 693.376 0.62718 6.52493 0
M  V30 7693 H 692.896 -0.974379 5.91833 0
M  V30 7694 H 694.575 -0.67922 6.43425 0
M  V30 7695 N 694.707 -1.5719 -0.113559 0
M  V30 7696 C 695.947 -1.86958 -0.82621 0
M  V30 7697 C 696.311 -0.748884 -1.76793 0
M  V30 7698 O 697.512 -0.92847 -2.52256 0
M  V30 7699 C 695.783 -3.21957 -1.55173 0
M  V30 7700 S 697.342 -3.73371 -2.3052 0
M  V30 7701 H 694.16 -0.655394 -0.275643 0
M  V30 7702 H 696.762 -1.95318 -0.0842684 0
M  V30 7703 H 695.466 -4.01459 -0.851977 0
M  V30 7704 H 694.997 -3.16688 -2.33393 0
M  V30 7705 H 697.012 -3.45308 -3.56338 0
M  V30 7706 N 696.185 0.383891 -1.52853 0
M  V30 7707 C 697.596 0.961591 -1.60032 0
M  V30 7708 C 697.947 1.90819 -0.456333 0
M  V30 7709 O 697.072 2.12288 0.419873 0
M  V30 7710 C 697.667 1.75078 -2.90057 0
M  V30 7711 C 696.226 2.2781 -2.99632 0
M  V30 7712 C 695.373 1.08512 -2.55187 0
M  V30 7713 H 698.324 0.163269 -1.57858 0
M  V30 7714 H 698.345 2.61046 -2.7683 0
M  V30 7715 H 697.857 1.06157 -3.73299 0
M  V30 7716 H 695.958 3.00028 -2.20939 0
M  V30 7717 H 696.071 2.56947 -4.0437 0
M  V30 7718 H 694.435 1.44667 -2.09627 0
M  V30 7719 H 695.218 0.41118 -3.40829 0
M  V30 7720 N 697.663 1.43903 0.642637 0
M  V30 7721 C 698.593 1.52697 1.76652 0
M  V30 7722 C 699.574 0.380816 1.65782 0
M  V30 7723 O 700.759 0.599432 1.84717 0
M  V30 7724 C 697.889 1.45975 3.15133 0
M  V30 7725 C 696.843 2.58949 3.40778 0
M  V30 7726 C 696.169 2.37279 4.79169 0
M  V30 7727 C 697.469 4.01153 3.34475 0
M  V30 7728 H 699.163 2.46766 1.69549 0
M  V30 7729 H 696.709 1.18767 0.814279 0
M  V30 7730 H 698.662 1.5073 3.93521 0
M  V30 7731 H 697.386 0.484162 3.22991 0
M  V30 7732 H 696.045 2.53564 2.64765 0
M  V30 7733 H 695.693 1.37939 4.83717 0
M  V30 7734 H 695.393 3.13016 4.97287 0
M  V30 7735 H 696.917 2.43834 5.59801 0
M  V30 7736 H 698.331 4.07968 4.02784 0
M  V30 7737 H 696.728 4.77001 3.64129 0
M  V30 7738 H 697.798 4.25539 2.32475 0
M  V30 7739 N 699.141 -0.881989 1.30609 0
M  V30 7740 C 700.371 -1.66469 1.22359 0
M  V30 7741 C 700.779 -1.87969 -0.215507 0
M  V30 7742 O 700.122 -1.42938 -1.15388 0
M  V30 7743 C 700.184 -3.06135 1.88472 0
M  V30 7744 C 699.848 -3.07795 3.37804 0
M  V30 7745 C 700.845 -2.86633 4.33749 0
M  V30 7746 C 698.53 -3.29297 3.793 0
M  V30 7747 C 700.524 -2.86934 5.69164 0
M  V30 7748 C 698.211 -3.29228 5.14832 0
M  V30 7749 C 699.209 -3.08071 6.09574 0
M  V30 7750 O 698.897 -3.07824 7.4263 0
M  V30 7751 H 698.629 -0.526129 0.424458 0
M  V30 7752 H 701.183 -1.11004 1.72821 0
M  V30 7753 H 699.413 -3.63276 1.32543 0
M  V30 7754 H 701.102 -3.66571 1.74301 0
M  V30 7755 H 701.868 -2.69814 4.0302 0
M  V30 7756 H 697.747 -3.44799 3.05998 0
M  V30 7757 H 701.291 -2.70339 6.43088 0
M  V30 7758 H 697.188 -3.45583 5.452 0
M  V30 7759 H 697.956 -3.2397 7.51656 0
M  V30 7760 N 700.619 -1.13374 -1.09472 0
M  V30 7761 C 701.865 -0.906459 -1.82085 0
M  V30 7762 C 702.22 0.5614 -1.84027 0
M  V30 7763 O 701.513 1.41012 -1.29716 0
M  V30 7764 C 701.707 -1.42759 -3.2765 0
M  V30 7765 C 701.536 -2.94459 -3.39888 0
M  V30 7766 C 700.306 -3.62798 -3.51718 0
M  V30 7767 C 702.504 -3.92398 -3.32457 0
M  V30 7768 N 700.486 -5.02516 -3.52635 0
M  V30 7769 C 701.857 -5.18304 -3.40237 0
M  V30 7770 C 703.912 -3.84671 -3.16122 0
M  V30 7771 C 702.615 -6.37386 -3.33364 0
M  V30 7772 C 704.641 -5.03287 -3.10574 0
M  V30 7773 C 704.003 -6.28055 -3.18945 0
M  V30 7774 H 700.102 -0.385097 -0.680606 0
M  V30 7775 H 702.686 -1.44187 -1.30836 0
M  V30 7776 H 700.857 -0.919102 -3.77369 0
M  V30 7777 H 702.589 -1.14136 -3.88272 0
M  V30 7778 H 699.344 -3.13317 -3.55147 0
M  V30 7779 H 699.768 -5.75421 -3.56679 0
M  V30 7780 H 704.41 -2.89094 -3.0852 0
M  V30 7781 H 702.128 -7.33219 -3.3973 0
M  V30 7782 H 705.714 -4.99047 -2.9907 0
M  V30 7783 H 704.594 -7.18299 -3.14668 0
M  V30 7784 N 702.098 1.27442 -0.927168 0
M  V30 7785 C 703.328 1.9821 -0.582775 0
M  V30 7786 C 703.736 1.69361 0.843406 0
M  V30 7787 O 703.079 0.950381 1.57205 0
M  V30 7788 C 703.141 3.52048 -0.728165 0
M  V30 7789 C 702.805 4.04518 -2.12637 0
M  V30 7790 C 703.802 4.17332 -3.10048 0
M  V30 7791 C 701.487 4.38879 -2.44317 0
M  V30 7792 C 703.481 4.6378 -4.37249 0
M  V30 7793 C 701.168 4.85018 -3.71753 0
M  V30 7794 C 702.166 4.97428 -4.68033 0
M  V30 7795 O 701.854 5.42556 -5.93202 0
M  V30 7796 H 701.586 0.639314 -0.219667 0
M  V30 7797 H 704.14 1.63272 -1.24626 0
M  V30 7798 H 702.37 3.86699 -0.00758143 0
M  V30 7799 H 704.059 4.04033 -0.388906 0
M  V30 7800 H 704.825 3.91046 -2.86894 0
M  V30 7801 H 700.704 4.28462 -1.70121 0
M  V30 7802 H 704.248 4.73382 -5.12402 0
M  V30 7803 H 700.145 5.10746 -3.94726 0
M  V30 7804 H 700.913 5.60811 -5.96182 0
M  V30 7805 N 703.576 0.692616 1.41565 0
M  V30 7806 C 704.523 0.0254264 2.30786 0
M  V30 7807 C 705.493 -0.774347 1.46946 0
M  V30 7808 O 706.678 -0.742981 1.7574 0
M  V30 7809 C 703.818 -0.907123 3.32964 0
M  V30 7810 C 702.931 -0.0992784 4.31886 0
M  V30 7811 C 702.066 -1.0292 5.21134 0
M  V30 7812 C 701.105 -0.214088 6.11725 0
M  V30 7813 N 700.242 -1.09766 6.93467 0
M  V30 7814 H 705.082 0.792036 2.87282 0
M  V30 7815 H 702.619 0.4023 1.41492 0
M  V30 7816 H 704.577 -1.46181 3.90752 0
M  V30 7817 H 703.207 -1.64016 2.78026 0
M  V30 7818 H 702.259 0.572287 3.76071 0
M  V30 7819 H 703.571 0.532782 4.95946 0
M  V30 7820 H 702.725 -1.65321 5.83741 0
M  V30 7821 H 701.464 -1.69512 4.57293 0
M  V30 7822 H 700.469 0.42302 5.4817 0
M  V30 7823 H 701.694 0.447995 6.77621 0
M  V30 7824 H 699.64 -1.74965 6.32237 0
M  V30 7825 H 699.557 -0.521099 7.54202 0
M  V30 7826 H 700.825 -1.70858 7.60544 0
M  V30 7827 N 705.054 -1.51416 0.437162 0
M  V30 7828 C 706.301 -2.02086 -0.129364 0
M  V30 7829 C 706.629 -1.32133 -1.42728 0
M  V30 7830 O 705.884 -0.424916 -1.91031 0
M  V30 7831 C 706.183 -3.55203 -0.39564 0
M  V30 7832 C 705.849 -4.43447 0.81644 0
M  V30 7833 C 704.511 -4.67285 1.14884 0
M  V30 7834 C 706.863 -4.95219 1.62503 0
M  V30 7835 C 704.191 -5.40141 2.29052 0
M  V30 7836 C 706.543 -5.69327 2.7577 0
M  V30 7837 C 705.207 -5.91429 3.09464 0
M  V30 7838 H 704.477 -0.739486 -0.0473375 0
M  V30 7839 H 707.124 -1.82368 0.584321 0
M  V30 7840 H 705.429 -3.73252 -1.19121 0
M  V30 7841 H 707.126 -3.91944 -0.847399 0
M  V30 7842 H 703.716 -4.2509 0.547422 0
M  V30 7843 H 707.9 -4.76686 1.38144 0
M  V30 7844 H 703.156 -5.55468 2.55471 0
M  V30 7845 H 707.33 -6.08433 3.38795 0
M  V30 7846 H 704.957 -6.47662 3.98042 0
M  V30 7847 N 706.532 -0.168513 -1.56696 0
M  V30 7848 C 707.495 0.748928 -2.16619 0
M  V30 7849 C 708.495 1.16007 -1.11351 0
M  V30 7850 O 709.685 1.07748 -1.3688 0
M  V30 7851 C 706.817 2.01904 -2.74677 0
M  V30 7852 H 708.01 0.227317 -2.99037 0
M  V30 7853 H 705.563 0.0810372 -1.5609 0
M  V30 7854 H 706.298 2.58381 -1.95985 0
M  V30 7855 H 706.083 1.73323 -3.51712 0
M  V30 7856 H 707.573 2.67383 -3.20774 0
M  V30 7857 N 708.01 1.57248 0.105221 0
M  V30 7858 C 708.957 2.01338 1.12835 0
M  V30 7859 C 709.927 0.887897 1.40377 0
M  V30 7860 O 711.112 1.15315 1.5201 0
M  V30 7861 C 708.252 2.43432 2.44611 0
M  V30 7862 C 707.365 3.69457 2.23888 0
M  V30 7863 C 706.5 4.00473 3.48991 0
M  V30 7864 C 705.539 5.19638 3.23485 0
M  V30 7865 N 704.676 5.46457 4.40828 0
M  V30 7866 H 709.516 2.88527 0.745386 0
M  V30 7867 H 707.053 1.42714 0.356535 0
M  V30 7868 H 709.011 2.65879 3.21503 0
M  V30 7869 H 707.641 1.59266 2.80774 0
M  V30 7870 H 706.693 3.54545 1.37847 0
M  V30 7871 H 708.005 4.56497 2.01026 0
M  V30 7872 H 707.159 4.23642 4.34295 0
M  V30 7873 H 705.898 3.11935 3.74897 0
M  V30 7874 H 704.903 4.96299 2.36574 0
M  V30 7875 H 706.128 6.09766 2.98935 0
M  V30 7876 H 704.074 4.60876 4.66829 0
M  V30 7877 H 703.991 6.27849 4.2112 0
M  V30 7878 H 705.259 5.74155 5.27225 0
M  V30 7879 N 709.488 -0.375779 1.53054 0
M  V30 7880 C 710.716 -1.14036 1.72637 0
M  V30 7881 C 711.131 -1.83342 0.450687 0
M  V30 7882 O 710.488 -1.7318 -0.575749 0
M  V30 7883 C 710.539 -2.17841 2.88492 0
M  V30 7884 O 710.26 -1.51358 4.11123 0
M  V30 7885 C 711.761 -3.06924 3.19863 0
M  V30 7886 H 708.981 -0.341386 0.577665 0
M  V30 7887 H 711.525 -0.437809 1.99759 0
M  V30 7888 H 709.68 -2.8371 2.63794 0
M  V30 7889 H 710.094 -2.20439 4.75928 0
M  V30 7890 H 711.568 -3.75763 4.04359 0
M  V30 7891 H 712.045 -3.71169 2.34798 0
M  V30 7892 H 712.651 -2.46684 3.46449 0
M  V30 7893 N 710.966 -1.44241 -0.634997 0
M  V30 7894 C 712.213 -1.46821 -1.39463 0
M  V30 7895 C 712.541 -0.0993362 -1.94246 0
M  V30 7896 O 711.796 0.898325 -1.73864 0
M  V30 7897 C 712.095 -2.47279 -2.58046 0
M  V30 7898 C 711.761 -3.92703 -2.21574 0
M  V30 7899 C 710.423 -4.32306 -2.1134 0
M  V30 7900 C 712.775 -4.84271 -1.92695 0
M  V30 7901 C 710.103 -5.61407 -1.70409 0
M  V30 7902 C 712.455 -6.13755 -1.53258 0
M  V30 7903 C 711.119 -6.52316 -1.41562 0
M  V30 7904 H 710.389 -0.537256 -0.51033 0
M  V30 7905 H 713.036 -1.77431 -0.720441 0
M  V30 7906 H 711.341 -2.10138 -3.3068 0
M  V30 7907 H 713.038 -2.46523 -3.16271 0
M  V30 7908 H 709.628 -3.61369 -2.30456 0
M  V30 7909 H 713.812 -4.54432 -1.99513 0
M  V30 7910 H 709.068 -5.90105 -1.59955 0
M  V30 7911 H 713.242 -6.84168 -1.29949 0
M  V30 7912 H 710.869 -7.52255 -1.09619 0
M  V30 7913 N 712.444 0.87505 -1.31075 0
M  V30 7914 C 713.374 1.99775 -1.20881 0
M  V30 7915 C 714.355 1.69822 -0.0971612 0
M  V30 7916 O 715.54 1.92158 -0.280895 0
M  V30 7917 C 712.67 3.35163 -0.910118 0
M  V30 7918 C 711.624 3.79406 -1.98078 0
M  V30 7919 C 710.95 5.12197 -1.53488 0
M  V30 7920 C 712.25 3.97061 -3.39323 0
M  V30 7921 H 713.944 2.08562 -2.14808 0
M  V30 7922 H 711.49 1.00207 -1.03415 0
M  V30 7923 H 713.443 4.13237 -0.825423 0
M  V30 7924 H 712.167 3.26536 0.064822 0
M  V30 7925 H 710.826 3.03568 -2.05528 0
M  V30 7926 H 710.474 5.00007 -0.547941 0
M  V30 7927 H 710.174 5.4277 -2.2511 0
M  V30 7928 H 711.698 5.92785 -1.46417 0
M  V30 7929 H 713.112 4.65545 -3.34576 0
M  V30 7930 H 711.509 4.39025 -4.09118 0
M  V30 7931 H 712.579 3.00601 -3.80483 0
M  V30 7932 N 713.922 1.13953 1.08869 0
M  V30 7933 C 715.171 0.899431 1.80536 0
M  V30 7934 C 715.484 -0.575781 1.86933 0
M  V30 7935 O 716.69 -0.932988 2.54966 0
M  V30 7936 C 715.146 1.55963 3.24351 0
M  V30 7937 C 714.754 3.07077 3.26202 0
M  V30 7938 C 716.498 1.40046 4.00733 0
M  V30 7939 C 714.405 3.65955 4.64576 0
M  V30 7940 H 713.335 0.332849 0.676556 0
M  V30 7941 H 715.986 1.3679 1.22314 0
M  V30 7942 H 714.368 1.01883 3.82669 0
M  V30 7943 H 715.542 3.67785 2.77617 0
M  V30 7944 H 713.857 3.22576 2.63312 0
M  V30 7945 H 716.454 1.81441 5.02974 0
M  V30 7946 H 716.797 0.345993 4.1486 0
M  V30 7947 H 717.33 1.91137 3.48872 0
M  V30 7948 H 714.069 4.71234 4.55652 0
M  V30 7949 H 713.589 3.10027 5.13462 0
M  V30 7950 H 715.268 3.65968 5.33551 0
M  V30 7951 N 715.4 -1.26948 0.933913 0
M  V30 7952 C 716.646 -1.94716 0.587985 0
M  V30 7953 C 717.001 -1.71994 -0.862312 0
M  V30 7954 O 716.294 -1.04208 -1.60783 0
M  V30 7955 C 716.488 -3.46963 0.857406 0
M  V30 7956 C 716.317 -3.84489 2.33234 0
M  V30 7957 C 715.087 -4.07621 2.98618 0
M  V30 7958 C 717.285 -3.93602 3.31031 0
M  V30 7959 N 715.267 -4.31976 4.362 0
M  V30 7960 C 716.638 -4.22404 4.53845 0
M  V30 7961 C 718.693 -3.76201 3.26155 0
M  V30 7962 C 717.396 -4.35615 5.72391 0
M  V30 7963 C 719.422 -3.90641 4.4402 0
M  V30 7964 C 718.784 -4.19835 5.65613 0
M  V30 7965 H 714.883 -0.735586 0.2654 0
M  V30 7966 H 717.467 -1.53181 1.20182 0
M  V30 7967 H 715.638 -3.87442 0.27268 0
M  V30 7968 H 717.37 -4.01921 0.47348 0
M  V30 7969 H 714.125 -4.02696 2.49264 0
M  V30 7970 H 714.549 -4.48199 5.07392 0
M  V30 7971 H 719.191 -3.52665 2.3321 0
M  V30 7972 H 716.909 -4.57975 6.65796 0
M  V30 7973 H 720.495 -3.78589 4.41771 0
M  V30 7974 H 719.375 -4.30765 6.55295 0
M  V30 7975 N 716.879 -0.700114 -1.41195 0
M  V30 7976 C 717.827 -0.0263301 -2.32585 0
M  V30 7977 C 718.821 0.763683 -1.51209 0
M  V30 7978 O 720.027 0.668793 -1.67114 0
M  V30 7979 H 716.402 0.0102869 -0.75193 0
M  V30 7980 H 718.373 -0.814087 -2.8708 0
M  V30 7981 C 717.122 0.892793 -3.36042 0
M  V30 7982 H 716.445 0.294306 -3.98715 0
M  V30 7983 H 717.885 1.33247 -4.02518 0
M  V30 7984 C 716.344 2.01109 -2.7029 0
M  V30 7985 O 716.874 3.10035 -2.55423 0
M  V30 7986 N 715.08 1.79015 -2.28915 0
M  V30 7987 H 714.627 0.904275 -2.41207 0
M  V30 7988 H 714.585 2.54022 -1.85257 0
M  V30 7989 N 718.357 1.51182 -0.445186 0
M  V30 7990 C 719.597 2.04061 0.117717 0
M  V30 7991 C 719.961 1.32158 1.39278 0
M  V30 7992 O 721.162 1.75452 2.03642 0
M  V30 7993 C 719.433 3.55933 0.323445 0
M  V30 7994 S 720.992 4.30516 0.848627 0
M  V30 7995 H 717.81 0.710442 0.028165 0
M  V30 7996 H 720.412 1.85858 -0.606391 0
M  V30 7997 H 719.116 4.0583 -0.610764 0
M  V30 7998 H 718.647 3.78444 1.07441 0
M  V30 7999 H 720.662 4.48382 2.12528 0
M  V30 8000 N 719.835 0.176821 1.56605 0
M  V30 8001 C 721.06 -0.47599 2.01864 0
M  V30 8002 C 721.485 -1.55645 1.05623 0
M  V30 8003 O 720.843 -1.81263 0.0366729 0
M  V30 8004 C 720.891 -1.02619 3.4569 0
M  V30 8005 O 719.995 -2.13996 3.52533 0
M  V30 8006 H 719.336 -0.113363 0.654251 0
M  V30 8007 H 721.866 0.28233 2.02643 0
M  V30 8008 H 721.876 -1.34742 3.85109 0
M  V30 8009 H 720.551 -0.235138 4.15235 0
M  V30 8010 H 719.128 -1.82876 3.24978 0
M  V30 8011 N 721.313 -1.57302 -0.09688 0
M  V30 8012 C 722.724 -1.7496 -0.651595 0
M  V30 8013 C 723.075 -0.798746 -1.79205 0
M  V30 8014 O 722.2 0.0231858 -2.16388 0
M  V30 8015 C 722.795 -3.17259 -1.18878 0
M  V30 8016 C 721.354 -3.36348 -1.68958 0
M  V30 8017 C 720.501 -2.70766 -0.598413 0
M  V30 8018 H 723.452 -1.58173 0.12918 0
M  V30 8019 H 723.473 -3.20033 -2.05814 0
M  V30 8020 H 722.985 -3.8644 -0.358523 0
M  V30 8021 H 721.086 -2.72243 -2.5439 0
M  V30 8022 H 721.199 -4.44654 -1.7838 0
M  V30 8023 H 719.563 -2.32615 -1.03743 0
M  V30 8024 H 720.346 -3.42586 0.221238 0
M  V30 8025 N 722.791 0.367657 -1.53252 0
M  V30 8026 C 724.031 1.11923 -1.71034 0
M  V30 8027 C 724.395 1.86618 -0.45143 0
M  V30 8028 O 725.596 2.63996 -0.505915 0
M  V30 8029 C 723.867 2.05461 -2.92439 0
M  V30 8030 S 725.426 2.88167 -3.30916 0
M  V30 8031 H 722.244 0.378549 -0.601848 0
M  V30 8032 H 724.846 0.400757 -1.91348 0
M  V30 8033 H 723.55 1.49346 -3.82262 0
M  V30 8034 H 723.081 2.81784 -2.7452 0
M  V30 8035 H 725.096 4.07746 -2.82767 0
M  V30 8036 N 724.269 1.44576 0.627338 0
M  V30 8037 C 725.515 1.4877 1.38705 0
M  V30 8038 C 725.87 0.119976 1.92026 0
M  V30 8039 O 725.163 -0.865341 1.70946 0
M  V30 8040 C 725.357 2.48644 2.56731 0
M  V30 8041 C 725.186 3.94994 2.14965 0
M  V30 8042 C 723.956 4.63139 2.02065 0
M  V30 8043 C 726.154 4.841 1.73643 0
M  V30 8044 N 724.136 5.94296 1.53902 0
M  V30 8045 C 725.507 6.0473 1.36753 0
M  V30 8046 C 727.562 4.71131 1.61058 0
M  V30 8047 C 726.265 7.13831 0.885353 0
M  V30 8048 C 728.291 5.8026 1.14244 0
M  V30 8049 C 727.653 7.00034 0.783067 0
M  V30 8050 H 723.752 0.599415 0.50222 0
M  V30 8051 H 726.336 1.80926 0.719285 0
M  V30 8052 H 724.507 2.18472 3.2113 0
M  V30 8053 H 726.239 2.4311 3.23542 0
M  V30 8054 H 722.994 4.18007 2.22637 0
M  V30 8055 H 723.418 6.63985 1.32108 0
M  V30 8056 H 728.06 3.78964 1.87473 0
M  V30 8057 H 725.778 8.05804 0.608716 0
M  V30 8058 H 729.364 5.72254 1.0496 0
M  V30 8059 H 728.244 7.8304 0.426381 0
M  V30 8060 N 725.747 -0.868086 1.31537 0
M  V30 8061 C 726.677 -1.99131 1.21939 0
M  V30 8062 C 727.658 -1.69768 0.106166 0
M  V30 8063 O 728.843 -1.92006 0.291081 0
M  V30 8064 C 725.973 -3.34676 0.927879 0
M  V30 8065 C 724.927 -3.7835 2.00088 0
M  V30 8066 C 724.253 -5.11375 1.56203 0
M  V30 8067 C 725.553 -3.95256 3.41424 0
M  V30 8068 H 727.247 -2.07419 2.15911 0
M  V30 8069 H 724.793 -0.996569 1.03945 0
M  V30 8070 H 726.746 -4.12793 0.847327 0
M  V30 8071 H 725.47 -3.26565 -0.0475042 0
M  V30 8072 H 724.129 -3.02474 2.07135 0
M  V30 8073 H 723.777 -4.99709 0.57445 0
M  V30 8074 H 723.477 -5.41568 2.27985 0
M  V30 8075 H 725.001 -5.92001 1.49558 0
M  V30 8076 H 726.415 -4.63764 3.3704 0
M  V30 8077 H 724.812 -4.36849 4.1144 0
M  V30 8078 H 725.882 -2.98579 3.82072 0
M  V30 8079 N 727.225 -1.14528 -1.08264 0
M  V30 8080 C 728.172 -0.833556 -2.15222 0
M  V30 8081 C 729.142 0.209539 -1.64773 0
M  V30 8082 O 730.327 0.0791388 -1.90636 0
M  V30 8083 C 727.467 -0.318799 -3.43624 0
M  V30 8084 C 726.58 -1.42237 -4.07913 0
M  V30 8085 C 725.715 -0.864704 -5.24115 0
M  V30 8086 C 724.754 -1.94585 -5.80347 0
M  V30 8087 N 723.891 -1.40525 -6.87893 0
M  V30 8088 H 728.731 -1.74965 -2.41228 0
M  V30 8089 H 726.268 -0.873169 -1.18381 0
M  V30 8090 H 728.226 -0.00213088 -4.172 0
M  V30 8091 H 726.856 0.560397 -3.17898 0
M  V30 8092 H 725.908 -1.8554 -3.32083 0
M  V30 8093 H 727.22 -2.23901 -4.45724 0
M  V30 8094 H 726.374 -0.500025 -6.04636 0
M  V30 8095 H 725.113 -0.0171219 -4.87697 0
M  V30 8096 H 724.118 -2.31946 -4.98479 0
M  V30 8097 H 725.343 -2.79704 -6.18823 0
M  V30 8098 H 723.289 -0.579873 -6.53432 0
M  V30 8099 H 723.206 -2.15825 -7.24538 0
M  V30 8100 H 724.474 -1.06852 -7.72142 0
M  V30 8101 N 728.703 1.26451 -0.940633 0
M  V30 8102 C 729.633 2.28773 -0.467479 0
M  V30 8103 C 730.614 1.63218 0.478955 0
M  V30 8104 O 731.799 1.90427 0.380929 0
M  V30 8105 C 728.929 3.46259 0.268656 0
M  V30 8106 C 727.883 4.23898 -0.591171 0
M  V30 8107 C 727.209 5.33993 0.274891 0
M  V30 8108 C 728.509 4.87974 -1.86223 0
M  V30 8109 H 730.203 2.68601 -1.32265 0
M  V30 8110 H 727.749 1.29123 -0.637436 0
M  V30 8111 H 729.702 4.16951 0.610696 0
M  V30 8112 H 728.426 3.05383 1.15796 0
M  V30 8113 H 727.085 3.54969 -0.916098 0
M  V30 8114 H 726.733 4.89358 1.16353 0
M  V30 8115 H 726.433 5.86849 -0.297006 0
M  V30 8116 H 727.957 6.07523 0.612213 0
M  V30 8117 H 729.371 5.50883 -1.58747 0
M  V30 8118 H 727.768 5.50945 -2.37866 0
M  V30 8119 H 728.838 4.10945 -2.57394 0
M  V30 8120 N 730.181 0.707592 1.40822 0
M  V30 8121 C 731.128 0.0499029 2.30746 0
M  V30 8122 C 732.098 -0.758718 1.47759 0
M  V30 8123 O 733.283 -0.724299 1.76518 0
M  V30 8124 C 730.423 -0.871756 3.33908 0
M  V30 8125 C 729.536 -0.0534655 4.31967 0
M  V30 8126 C 728.671 -0.973869 5.22197 0
M  V30 8127 C 727.71 -0.149194 6.11918 0
M  V30 8128 N 726.847 -1.02404 6.94592 0
M  V30 8129 H 731.687 0.822461 2.86426 0
M  V30 8130 H 729.224 0.417285 1.41057 0
M  V30 8131 H 731.182 -1.42028 3.9228 0
M  V30 8132 H 729.812 -1.61058 2.7975 0
M  V30 8133 H 728.864 0.612142 3.75442 0
M  V30 8134 H 730.176 0.585354 4.95353 0
M  V30 8135 H 729.33 -1.59121 5.85462 0
M  V30 8136 H 728.069 -1.64652 4.59065 0
M  V30 8137 H 727.074 0.481137 5.47691 0
M  V30 8138 H 728.299 0.519841 6.77107 0
M  V30 8139 H 726.245 -1.6825 6.34057 0
M  V30 8140 H 726.162 -0.441076 7.54712 0
M  V30 8141 H 727.43 -1.62782 7.62314 0
M  V30 8142 N 731.66 -1.50943 0.453197 0
M  V30 8143 C 732.57 -2.31884 -0.355963 0
M  V30 8144 C 733.586 -1.41481 -1.01287 0
M  V30 8145 O 734.762 -1.74546 -1.00477 0
M  V30 8146 C 731.827 -3.15668 -1.43369 0
M  V30 8147 C 730.888 -4.2187 -0.795253 0
M  V30 8148 C 730.121 -5.0165 -1.82162 0
M  V30 8149 O 730.344 -4.82266 -3.04592 0
M  V30 8150 O 729.278 -5.85311 -1.40336 0
M  V30 8151 H 733.104 -3.02162 0.305248 0
M  V30 8152 H 730.689 -1.47839 0.215398 0
M  V30 8153 H 732.571 -3.67709 -2.05836 0
M  V30 8154 H 731.246 -2.48137 -2.07869 0
M  V30 8155 H 730.153 -3.73867 -0.132106 0
M  V30 8156 H 731.486 -4.9182 -0.193484 0
M  V30 8157 N 733.138 -0.185124 -1.56509 0
M  V30 8158 C 734.385 0.456258 -1.97293 0
M  V30 8159 C 734.713 1.62314 -1.07165 0
M  V30 8160 O 733.968 1.95398 -0.108621 0
M  V30 8161 C 734.267 0.967977 -3.44042 0
M  V30 8162 C 733.933 -0.084476 -4.50821 0
M  V30 8163 C 732.595 -0.373689 -4.79747 0
M  V30 8164 C 734.947 -0.79812 -5.15053 0
M  V30 8165 C 732.275 -1.3817 -5.70198 0
M  V30 8166 C 734.627 -1.79521 -6.06593 0
M  V30 8167 C 733.291 -2.09172 -6.3388 0
M  V30 8168 H 732.561 0.166957 -0.721946 0
M  V30 8169 H 735.208 -0.279992 -1.89442 0
M  V30 8170 H 733.513 1.78231 -3.48914 0
M  V30 8171 H 735.21 1.47347 -3.72948 0
M  V30 8172 H 731.8 0.15111 -4.28334 0
M  V30 8173 H 735.984 -0.587903 -4.92806 0
M  V30 8174 H 731.24 -1.61745 -5.89617 0
M  V30 8175 H 735.414 -2.35347 -6.55427 0
M  V30 8176 H 733.041 -2.87427 -7.03768 0
M  V30 8177 N 734.616 1.57351 0.0885366 0
M  V30 8178 C 735.862 1.86696 0.791996 0
M  V30 8179 C 736.195 0.775148 1.78059 0
M  V30 8180 O 735.47 -0.216247 1.93294 0
M  V30 8181 C 735.753 3.26684 1.51491 0
M  V30 8182 C 735.606 4.465 0.543858 0
M  V30 8183 C 736.925 3.64664 2.46391 0
M  V30 8184 H 734.044 0.679049 0.286463 0
M  V30 8185 H 736.686 1.89919 0.0554866 0
M  V30 8186 H 734.836 3.24067 2.14273 0
M  V30 8187 H 736.508 4.61235 -0.0774597 0
M  V30 8188 H 734.751 4.33567 -0.142228 0
M  V30 8189 H 735.422 5.41192 1.08696 0
M  V30 8190 H 737.898 3.68267 1.93698 0
M  V30 8191 H 736.774 4.63534 2.93986 0
M  V30 8192 H 737.035 2.93698 3.30445 0
M  V30 8193 N 736.094 -0.359525 1.53444 0
M  V30 8194 C 737.044 -1.441 1.7669 0
M  V30 8195 C 738.028 -1.48408 0.621599 0
M  V30 8196 O 739.22 -1.53547 0.880468 0
M  V30 8197 C 736.349 -2.81455 1.96566 0
M  V30 8198 C 735.435 -2.81601 3.17115 0
M  V30 8199 N 735.826 -2.51388 4.38905 0
M  V30 8200 C 734.124 -3.12758 3.1796 0
M  V30 8201 C 734.825 -2.59365 5.20677 0
M  V30 8202 N 733.801 -2.94328 4.57025 0
M  V30 8203 H 737.603 -1.19613 2.68458 0
M  V30 8204 H 735.117 -0.567761 1.52152 0
M  V30 8205 H 737.114 -3.59357 2.11348 0
M  V30 8206 H 735.774 -3.06901 1.06029 0
M  V30 8207 H 736.785 -2.24873 4.66533 0
M  V30 8208 H 733.462 -3.43479 2.37336 0
M  V30 8209 H 734.852 -2.39301 6.27841 0
M  V30 8210 N 737.572 -1.44907 -0.619662 0
M  V30 8211 C 738.988 -1.29046 -0.939107 0
M  V30 8212 C 739.188 -0.23462 -2.00129 0
M  V30 8213 O 738.244 0.37558 -2.49691 0
M  V30 8214 C 739.557 -2.66567 -1.39149 0
M  V30 8215 C 741.105 -2.74368 -1.50635 0
M  V30 8216 C 741.58 -4.12386 -1.99253 0
M  V30 8217 N 743.071 -4.1462 -2.06506 0
M  V30 8218 C 743.806 -5.18272 -2.4532 0
M  V30 8219 N 743.302 -6.32278 -2.83189 0
M  V30 8220 N 745.095 -5.05628 -2.45554 0
M  V30 8221 H 737.246 -2.12239 0.0826135 0
M  V30 8222 H 739.509 -0.947652 -0.0256829 0
M  V30 8223 H 739.215 -3.4496 -0.685254 0
M  V30 8224 H 739.089 -2.94224 -2.36034 0
M  V30 8225 H 741.476 -1.96287 -2.20353 0
M  V30 8226 H 741.557 -2.50439 -0.520963 0
M  V30 8227 H 741.201 -4.90947 -1.30127 0
M  V30 8228 H 741.131 -4.33699 -2.98684 0
M  V30 8229 H 743.622 -3.32343 -1.79878 0
M  V30 8230 H 743.935 -7.07172 -3.11652 0
M  V30 8231 H 742.28 -6.35699 -2.80913 0
M  V30 8232 H 745.471 -4.15613 -2.15367 0
M  V30 8233 H 745.644 -5.86529 -2.75478 0
M  V30 8234 N 739.05 0.861098 -1.31996 0
M  V30 8235 C 740.299 1.60965 -1.21545 0
M  V30 8236 C 740.612 1.94325 0.222972 0
M  V30 8237 O 741.818 2.67757 0.449272 0
M  V30 8238 C 740.274 2.90223 -2.12834 0
M  V30 8239 C 739.882 2.64313 -3.61722 0
M  V30 8240 C 741.626 3.68229 -2.11205 0
M  V30 8241 C 739.533 3.89532 -4.44993 0
M  V30 8242 H 738.463 0.603988 -0.451348 0
M  V30 8243 H 741.114 0.951358 -1.56912 0
M  V30 8244 H 739.496 3.57475 -1.70375 0
M  V30 8245 H 740.67 2.05413 -4.12483 0
M  V30 8246 H 738.985 1.99647 -3.65418 0
M  V30 8247 H 741.582 4.61138 -2.70658 0
M  V30 8248 H 741.925 4.01466 -1.1014 0
M  V30 8249 H 742.458 3.07873 -2.51911 0
M  V30 8250 H 739.197 3.61441 -5.46846 0
M  V30 8251 H 738.717 4.47851 -3.98985 0
M  V30 8252 H 740.396 4.57334 -4.57663 0
M  V30 8253 N 740.528 1.15101 1.07655 0
M  V30 8254 C 741.777 0.918528 1.79572 0
M  V30 8255 C 742.09 -0.555922 1.87534 0
M  V30 8256 O 743.296 -0.905893 2.55941 0
M  V30 8257 C 741.752 1.59394 3.22679 0
M  V30 8258 C 741.36 3.1052 3.22927 0
M  V30 8259 C 743.104 1.44289 3.99225 0
M  V30 8260 C 741.011 3.70862 4.60668 0
M  V30 8261 H 739.941 0.340006 0.672987 0
M  V30 8262 H 742.592 1.38079 1.20857 0
M  V30 8263 H 740.974 1.05936 3.81567 0
M  V30 8264 H 742.148 3.70708 2.737 0
M  V30 8265 H 740.463 3.25351 2.59876 0
M  V30 8266 H 743.06 1.86766 5.01022 0
M  V30 8267 H 743.403 0.389975 4.14469 0
M  V30 8268 H 743.936 1.94826 3.46825 0
M  V30 8269 H 740.675 4.7604 4.50628 0
M  V30 8270 H 740.195 3.15456 5.10145 0
M  V30 8271 H 741.874 3.71607 5.29639 0
M  V30 8272 N 742.006 -1.2595 0.947325 0
M  V30 8273 C 742.939 -2.24559 0.406009 0
M  V30 8274 C 743.917 -1.54441 -0.508598 0
M  V30 8275 O 745.101 -1.83181 -0.444644 0
M  V30 8276 C 742.228 -3.36136 -0.415987 0
M  V30 8277 C 741.274 -4.24245 0.437969 0
M  V30 8278 S 742.107 -5.01948 1.86572 0
M  V30 8279 C 743.263 -6.16997 1.05194 0
M  V30 8280 H 743.496 -2.70128 1.24171 0
M  V30 8281 H 741.029 -1.34912 0.750874 0
M  V30 8282 H 742.987 -4.00861 -0.88433 0
M  V30 8283 H 741.648 -2.89167 -1.22643 0
M  V30 8284 H 740.841 -5.03634 -0.192127 0
M  V30 8285 H 740.443 -3.64416 0.841235 0
M  V30 8286 H 742.735 -6.76848 0.297126 0
M  V30 8287 H 743.678 -6.84324 1.8195 0
M  V30 8288 H 744.086 -5.61458 0.585294 0
M  V30 8289 N 743.484 -0.715051 -1.40445 0
M  V30 8290 C 744.447 -0.0708726 -2.2909 0
M  V30 8291 C 745.447 0.687926 -1.45342 0
M  V30 8292 O 746.637 0.519908 -1.66261 0
M  V30 8293 C 743.769 0.909528 -3.28543 0
M  V30 8294 H 744.962 -0.851611 -2.87555 0
M  V30 8295 H 742.515 -0.479674 -1.48758 0
M  V30 8296 H 743.25 1.71734 -2.75096 0
M  V30 8297 H 743.035 0.368318 -3.90366 0
M  V30 8298 H 744.525 1.35744 -3.94922 0
M  V30 8299 N 744.962 1.50701 -0.461195 0
M  V30 8300 C 746.373 1.867 -0.00370227 0
M  V30 8301 C 746.724 1.37673 1.39787 0
M  V30 8302 O 745.849 0.737515 2.03445 0
M  V30 8303 C 746.444 3.388 5.75786e-05 0
M  V30 8304 C 745.003 3.74247 0.402044 0
M  V30 8305 C 744.15 2.74549 -0.389652 0
M  V30 8306 H 747.101 1.43585 -0.675942 0
M  V30 8307 H 747.122 3.719 0.804414 0
M  V30 8308 H 746.634 3.74452 -1.02015 0
M  V30 8309 H 744.735 3.44192 1.42697 0
M  V30 8310 H 744.848 4.78973 0.110265 0
M  V30 8311 H 743.212 2.54226 0.155314 0
M  V30 8312 H 743.995 3.13044 -1.40919 0
M  V30 8313 N 746.441 0.193421 1.56409 0
M  V30 8314 C 747.688 -0.445789 1.97532 0
M  V30 8315 C 748.016 -1.61744 1.08024 0
M  V30 8316 O 747.271 -1.95338 0.118982 0
M  V30 8317 C 747.57 -0.949718 3.44551 0
M  V30 8318 C 747.236 0.108383 4.5077 0
M  V30 8319 C 745.898 0.399126 4.79542 0
M  V30 8320 C 748.25 0.825423 5.14622 0
M  V30 8321 C 745.578 1.41192 5.69457 0
M  V30 8322 C 747.93 1.82735 6.05632 0
M  V30 8323 C 746.594 2.12531 6.32761 0
M  V30 8324 H 745.864 -0.163126 0.722822 0
M  V30 8325 H 748.511 0.290035 1.89291 0
M  V30 8326 H 746.816 -1.76378 3.49854 0
M  V30 8327 H 748.513 -1.45367 3.73724 0
M  V30 8328 H 745.103 -0.128392 4.28408 0
M  V30 8329 H 749.287 0.61403 4.92487 0
M  V30 8330 H 744.543 1.6487 5.88751 0
M  V30 8331 H 748.717 2.3882 6.5417 0
M  V30 8332 H 746.344 2.91155 7.02234 0
M  V30 8333 N 747.919 -1.57396 -0.0801906 0
M  V30 8334 C 749.147 -1.91055 -0.794075 0
M  V30 8335 C 749.562 -0.788583 -1.71542 0
M  V30 8336 O 748.919 0.238587 -1.80934 0
M  V30 8337 C 748.97 -3.24418 -1.59484 0
M  V30 8338 O 748.691 -4.323 -0.710532 0
M  V30 8339 C 750.192 -3.72037 -2.41046 0
M  V30 8340 H 747.412 -0.63171 -0.226238 0
M  V30 8341 H 749.956 -2.04431 -0.0529685 0
M  V30 8342 H 748.111 -3.12595 -2.2883 0
M  V30 8343 H 748.525 -5.08976 -1.26663 0
M  V30 8344 H 749.999 -4.68006 -2.92702 0
M  V30 8345 H 750.476 -3.00624 -3.2019 0
M  V30 8346 H 751.082 -3.86777 -1.76871 0
M  V30 8347 N 749.397 0.351382 -1.53633 0
M  V30 8348 C 750.674 1.10903 -1.6112 0
M  V30 8349 C 751.054 2.06725 -0.427556 0
M  V30 8350 O 750.402 2.20992 0.580916 0
M  V30 8351 C 750.612 1.83561 -2.96827 0
M  V30 8352 C 751.96 2.37587 -3.51906 0
M  V30 8353 O 752.984 1.93669 -2.9895 0
M  V30 8354 O 751.843 3.17913 -4.44515 0
M  V30 8355 H 748.937 0.509558 -0.651368 0
M  V30 8356 H 751.483 0.353504 -1.65977 0
M  V30 8357 H 750.255 1.1371 -3.74414 0
M  V30 8358 H 749.878 2.6599 -2.95525 0
M  V30 8359 N 750.875 1.45233 0.611969 0
M  V30 8360 C 751.805 1.5641 1.73373 0
M  V30 8361 C 752.786 0.415896 1.64937 0
M  V30 8362 O 753.971 0.638478 1.83404 0
M  V30 8363 C 751.101 1.52627 3.11965 0
M  V30 8364 C 750.055 2.66119 3.35208 0
M  V30 8365 C 749.381 2.4739 4.74028 0
M  V30 8366 C 750.681 4.08157 3.25891 0
M  V30 8367 H 752.375 2.50307 1.64277 0
M  V30 8368 H 749.921 1.20467 0.788904 0
M  V30 8369 H 751.874 1.59043 3.90235 0
M  V30 8370 H 750.598 0.552564 3.21892 0
M  V30 8371 H 749.257 2.59123 2.59327 0
M  V30 8372 H 748.905 1.48168 4.80682 0
M  V30 8373 H 748.605 3.23494 4.90536 0
M  V30 8374 H 750.129 2.55653 5.54503 0
M  V30 8375 H 751.543 4.1642 3.9404 0
M  V30 8376 H 749.94 4.84617 3.5393 0
M  V30 8377 H 751.01 4.30374 2.23397 0
M  V30 8378 N 752.353 -0.854086 1.3245 0
M  V30 8379 C 753.6 -1.60831 1.23043 0
M  V30 8380 C 753.928 -1.93389 -0.2076 0
M  V30 8381 O 753.183 -1.5756 -1.16075 0
M  V30 8382 C 753.482 -2.93746 2.03587 0
M  V30 8383 C 753.148 -2.80615 3.52939 0
M  V30 8384 C 751.81 -2.76742 3.93659 0
M  V30 8385 C 754.162 -2.66507 4.4791 0
M  V30 8386 C 751.49 -2.56638 5.27592 0
M  V30 8387 C 753.842 -2.47939 5.81987 0
M  V30 8388 C 752.506 -2.42458 6.21909 0
M  V30 8389 H 751.776 -0.588523 0.450247 0
M  V30 8390 H 754.423 -0.990699 1.63882 0
M  V30 8391 H 752.728 -3.5963 1.55478 0
M  V30 8392 H 754.425 -3.51127 1.93677 0
M  V30 8393 H 751.015 -2.84456 3.20598 0
M  V30 8394 H 755.199 -2.68544 4.1737 0
M  V30 8395 H 750.455 -2.50831 5.57579 0
M  V30 8396 H 754.629 -2.36002 6.55192 0
M  V30 8397 H 752.256 -2.2664 7.2563 0
M  V30 8398 N 753.831 -1.1567 -1.07043 0
M  V30 8399 C 754.761 -0.879348 -2.16309 0
M  V30 8400 C 755.742 0.171311 -1.69235 0
M  V30 8401 O 756.927 0.0250175 -1.94184 0
M  V30 8402 C 754.057 -0.371307 -3.45309 0
M  V30 8403 C 753.011 -1.359 -4.05851 0
M  V30 8404 C 752.337 -0.709678 -5.29969 0
M  V30 8405 C 753.637 -2.72606 -4.45514 0
M  V30 8406 H 755.331 -1.79308 -2.39768 0
M  V30 8407 H 752.877 -0.863558 -1.15233 0
M  V30 8408 H 754.83 -0.164798 -4.21078 0
M  V30 8409 H 753.554 0.577906 -3.21446 0
M  V30 8410 H 752.213 -1.55193 -3.32131 0
M  V30 8411 H 751.861 0.245782 -5.02399 0
M  V30 8412 H 751.561 -1.36886 -5.71433 0
M  V30 8413 H 753.085 -0.513015 -6.08441 0
M  V30 8414 H 754.499 -2.57141 -5.12398 0
M  V30 8415 H 752.896 -3.34927 -4.97939 0
M  V30 8416 H 753.966 -3.28434 -3.56734 0
M  V30 8417 N 755.309 1.25446 -0.953992 0
M  V30 8418 C 756.558 1.92441 -0.604101 0
M  V30 8419 C 756.871 1.75543 0.862796 0
M  V30 8420 O 758.077 2.37106 1.32262 0
M  V30 8421 C 756.533 3.44854 -1.02974 0
M  V30 8422 C 756.141 3.70464 -2.51914 0
M  V30 8423 C 757.885 4.1778 -0.752352 0
M  V30 8424 C 755.792 5.1638 -2.88281 0
M  V30 8425 H 754.722 0.720508 -0.222227 0
M  V30 8426 H 757.373 1.42318 -1.15836 0
M  V30 8427 H 755.755 3.93935 -0.403904 0
M  V30 8428 H 756.929 3.32038 -3.19511 0
M  V30 8429 H 755.244 3.10797 -2.77117 0
M  V30 8430 H 757.841 5.25261 -1.00024 0
M  V30 8431 H 758.184 4.15135 0.311212 0
M  V30 8432 H 758.717 3.74605 -1.33851 0
M  V30 8433 H 755.456 5.24135 -3.93653 0
M  V30 8434 H 754.976 5.55855 -2.25357 0
M  V30 8435 H 756.655 5.84497 -2.77439 0
M  V30 8436 N 756.787 0.722489 1.40064 0
M  V30 8437 C 758.036 0.261932 1.99992 0
M  V30 8438 C 758.349 -1.15358 1.57961 0
M  V30 8439 O 759.555 -1.71301 2.10637 0
M  V30 8440 C 758.011 0.41737 3.57472 0
M  V30 8441 C 757.619 1.83997 4.08472 0
M  V30 8442 C 759.363 0.0179561 4.24496 0
M  V30 8443 C 757.27 1.94563 5.5848 0
M  V30 8444 H 756.2 0.0941768 0.748095 0
M  V30 8445 H 758.851 0.894572 1.60218 0
M  V30 8446 H 757.233 -0.283965 3.94981 0
M  V30 8447 H 758.407 2.57224 3.82325 0
M  V30 8448 H 756.722 2.19147 3.54067 0
M  V30 8449 H 759.319 0.076085 5.34646 0
M  V30 8450 H 759.662 -1.02498 4.03485 0
M  V30 8451 H 760.195 0.669988 3.92117 0
M  V30 8452 H 756.934 2.97001 5.84355 0
M  V30 8453 H 756.454 1.25756 5.86469 0
M  V30 8454 H 758.133 1.72095 6.23692 0
M  V30 8455 N 758.265 -1.50454 0.469181 0
M  V30 8456 C 759.505 -2.04222 -0.0852381 0
M  V30 8457 C 759.869 -1.34357 -1.37158 0
M  V30 8458 O 761.07 -1.78669 -2.00825 0
M  V30 8459 C 759.341 -3.56403 -0.266778 0
M  V30 8460 S 760.9 -4.31811 -0.780028 0
M  V30 8461 H 757.718 -0.7108 -0.0168589 0
M  V30 8462 H 760.32 -1.8487 0.635883 0
M  V30 8463 H 759.024 -4.04807 0.67525 0
M  V30 8464 H 758.555 -3.80106 -1.01407 0
M  V30 8465 H 760.57 -4.51706 -2.05368 0
M  V30 8466 N 759.743 -0.201713 -1.56304 0
M  V30 8467 C 760.992 0.435557 -1.96941 0
M  V30 8468 C 761.305 1.62299 -1.09172 0
M  V30 8469 O 762.511 2.32849 -1.3962 0
M  V30 8470 C 760.967 0.826298 -3.50286 0
M  V30 8471 C 760.575 -0.337216 -4.46729 0
M  V30 8472 C 762.319 1.43028 -3.99679 0
M  V30 8473 C 760.226 0.0748539 -5.91353 0
M  V30 8474 H 759.156 0.1665 -0.735387 0
M  V30 8475 H 761.807 -0.294781 -1.81117 0
M  V30 8476 H 760.189 1.61349 -3.61639 0
M  V30 8477 H 761.363 -1.11476 -4.47113 0
M  V30 8478 H 759.678 -0.853126 -4.07567 0
M  V30 8479 H 762.275 1.75115 -5.05212 0
M  V30 8480 H 762.618 2.33911 -3.44371 0
M  V30 8481 H 763.151 0.706924 -3.91468 0
M  V30 8482 H 759.89 -0.799957 -6.506 0
M  V30 8483 H 759.41 0.817122 -5.94208 0
M  V30 8484 H 761.089 0.508389 -6.45 0
M  V30 8485 N 761.222 1.57436 0.0718424 0
M  V30 8486 C 762.471 1.86431 0.769826 0
M  V30 8487 C 762.784 0.794355 1.78744 0
M  V30 8488 O 763.99 0.972148 2.53499 0
M  V30 8489 C 762.446 3.307 1.42006 0
M  V30 8490 C 762.054 4.45824 0.441017 0
M  V30 8491 C 763.798 3.68894 2.10041 0
M  V30 8492 C 761.705 5.81134 1.09717 0
M  V30 8493 H 760.635 0.695474 0.291259 0
M  V30 8494 H 763.286 1.83485 0.0231224 0
M  V30 8495 H 761.668 3.28257 2.21502 0
M  V30 8496 H 762.842 4.59659 -0.32413 0
M  V30 8497 H 761.157 4.16181 -0.134886 0
M  V30 8498 H 763.754 4.67281 2.59908 0
M  V30 8499 H 764.097 2.98692 2.89981 0
M  V30 8500 H 764.63 3.73326 1.37376 0
M  V30 8501 H 761.369 6.54628 0.338095 0
M  V30 8502 H 760.889 5.711 1.83317 0
M  V30 8503 H 762.568 6.26468 1.617 0
M  V30 8504 N 762.7 -0.34323 1.53817 0
M  V30 8505 C 763.63 -1.42709 1.84814 0
M  V30 8506 C 764.611 -1.5488 0.703297 0
M  V30 8507 O 765.796 -1.69082 0.955237 0
M  V30 8508 C 762.926 -2.79756 2.05801 0
M  V30 8509 C 761.88 -2.82392 3.21619 0
M  V30 8510 C 761.206 -4.22326 3.2794 0
M  V30 8511 C 762.506 -2.479 4.59721 0
M  V30 8512 H 764.2 -1.17018 2.75585 0
M  V30 8513 H 761.746 -0.561485 1.32602 0
M  V30 8514 H 763.699 -3.55627 2.26069 0
M  V30 8515 H 762.423 -3.06883 1.11761 0
M  V30 8516 H 761.082 -2.08974 3.01207 0
M  V30 8517 H 760.73 -4.46564 2.31494 0
M  V30 8518 H 760.43 -4.25001 4.05768 0
M  V30 8519 H 761.954 -5.00039 3.50419 0
M  V30 8520 H 763.368 -3.13484 4.80001 0
M  V30 8521 H 761.765 -2.61857 5.39954 0
M  V30 8522 H 762.835 -1.43087 4.63308 0
M  V30 8523 N 764.178 -1.45556 -0.604258 0
M  V30 8524 C 765.126 -1.5482 -1.7359 0
M  V30 8525 C 766.12 -0.417966 -1.64163 0
M  V30 8526 O 767.326 -0.594007 -1.69916 0
M  V30 8527 H 763.701 -0.486352 -0.573556 0
M  V30 8528 H 765.672 -2.5001 -1.62903 0
M  V30 8529 C 764.421 -1.53521 -3.11972 0
M  V30 8530 H 763.744 -2.39818 -3.19886 0
M  V30 8531 H 765.184 -1.64061 -3.90973 0
M  V30 8532 C 763.643 -0.260191 -3.35894 0
M  V30 8533 O 764.173 0.658582 -3.96265 0
M  V30 8534 N 762.379 -0.154839 -2.90187 0
M  V30 8535 H 761.926 -0.903378 -2.4124 0
M  V30 8536 H 761.884 0.697437 -3.06567 0
M  V30 8537 N 765.656 0.84705 -1.32902 0
M  V30 8538 C 766.902 1.60414 -1.24078 0
M  V30 8539 C 767.235 1.93217 0.195105 0
M  V30 8540 O 766.51 1.58001 1.13428 0
M  V30 8541 C 766.793 2.91951 -2.108 0
M  V30 8542 C 766.646 2.6588 -3.62805 0
M  V30 8543 C 767.965 3.93299 -1.97494 0
M  V30 8544 H 765.084 0.58206 -0.452079 0
M  V30 8545 H 767.726 0.977562 -1.62922 0
M  V30 8546 H 765.876 3.45425 -1.77802 0
M  V30 8547 H 767.548 2.18902 -4.06054 0
M  V30 8548 H 765.791 1.99716 -3.85092 0
M  V30 8549 H 766.462 3.59574 -4.1882 0
M  V30 8550 H 768.938 3.49105 -2.26417 0
M  V30 8551 H 767.814 4.8318 -2.60438 0
M  V30 8552 H 768.075 4.31887 -0.944782 0
M  V30 8553 N 767.134 1.16236 1.06428 0
M  V30 8554 C 768.374 0.95369 1.80787 0
M  V30 8555 C 768.738 -0.509495 1.85117 0
M  V30 8556 O 769.939 -0.836822 2.55442 0
M  V30 8557 C 768.21 1.56235 3.21443 0
M  V30 8558 S 769.769 1.49812 4.12434 0
M  V30 8559 H 766.587 0.343004 0.622792 0
M  V30 8560 H 769.189 1.47957 1.27785 0
M  V30 8561 H 767.893 2.62 3.15886 0
M  V30 8562 H 767.424 1.03574 3.79521 0
M  V30 8563 H 769.439 0.49745 4.937 0
M  V30 8564 N 768.612 -1.24939 0.960631 0
M  V30 8565 C 769.859 -1.92818 0.618663 0
M  V30 8566 C 770.187 -1.75177 -0.845173 0
M  V30 8567 O 769.442 -1.09412 -1.62258 0
M  V30 8568 C 769.741 -3.45066 0.930809 0
M  V30 8569 C 769.407 -3.82869 2.38164 0
M  V30 8570 C 768.069 -3.92899 2.7782 0
M  V30 8571 C 770.421 -4.01483 3.32356 0
M  V30 8572 C 767.749 -4.18955 4.10723 0
M  V30 8573 C 770.101 -4.29033 4.6488 0
M  V30 8574 C 768.765 -4.37282 5.04322 0
M  V30 8575 H 768.035 -0.705571 0.226385 0
M  V30 8576 H 770.682 -1.48365 1.21079 0
M  V30 8577 H 768.987 -3.9096 0.256355 0
M  V30 8578 H 770.684 -3.95783 0.644712 0
M  V30 8579 H 767.274 -3.75622 2.06413 0
M  V30 8580 H 771.458 -3.93143 3.02907 0
M  V30 8581 H 766.714 -4.23558 4.40918 0
M  V30 8582 H 770.888 -4.42381 5.3784 0
M  V30 8583 H 768.515 -4.57225 6.0733 0
M  V30 8584 N 770.09 -0.729906 -1.39679 0
M  V30 8585 C 771.02 -0.101618 -2.33279 0
M  V30 8586 C 772.001 0.729854 -1.53646 0
M  V30 8587 O 773.186 0.67587 -1.82059 0
M  V30 8588 C 770.316 0.81024 -3.37716 0
M  V30 8589 C 769.27 0.0833126 -4.27919 0
M  V30 8590 C 768.596 1.11185 -5.23012 0
M  V30 8591 C 769.896 -1.07107 -5.112 0
M  V30 8592 H 771.59 -0.883452 -2.86069 0
M  V30 8593 H 769.136 -0.426283 -1.37546 0
M  V30 8594 H 771.089 1.25927 -4.02145 0
M  V30 8595 H 769.813 1.62413 -2.83354 0
M  V30 8596 H 768.472 -0.346043 -3.64963 0
M  V30 8597 H 768.12 1.91917 -4.64948 0
M  V30 8598 H 767.82 0.63026 -5.8421 0
M  V30 8599 H 769.344 1.56068 -5.90318 0
M  V30 8600 H 770.758 -0.700726 -5.69002 0
M  V30 8601 H 769.155 -1.48196 -5.81514 0
M  V30 8602 H 770.225 -1.89513 -4.46332 0
M  V30 8603 N 771.568 1.50203 -0.477153 0
M  V30 8604 C 772.796 2.0677 0.0732489 0
M  V30 8605 C 773.211 1.34033 1.32968 0
M  V30 8606 O 772.568 0.411412 1.77802 0
M  V30 8607 C 772.619 3.59751 0.35518 0
M  V30 8608 O 772.34 4.29747 -0.851425 0
M  V30 8609 C 773.841 4.3296 0.951877 0
M  V30 8610 H 771.061 0.670929 -0.00978923 0
M  V30 8611 H 773.605 1.93293 -0.667676 0
M  V30 8612 H 771.76 3.7301 1.04605 0
M  V30 8613 H 772.174 5.2106 -0.599708 0
M  V30 8614 H 773.648 5.40952 1.09888 0
M  V30 8615 H 774.125 3.93856 1.94356 0
M  V30 8616 H 774.731 4.24246 0.299208 0
M  V30 8617 N 773.046 0.209999 1.56195 0
M  V30 8618 C 773.976 -0.699746 2.22769 0
M  V30 8619 C 774.957 -1.20993 1.1956 0
M  V30 8620 O 776.142 -1.25605 1.48112 0
M  V30 8621 C 773.272 -1.91302 2.89863 0
M  V30 8622 C 772.226 -1.53715 3.99444 0
M  V30 8623 C 771.552 -2.82826 4.53777 0
M  V30 8624 C 772.852 -0.735836 5.17091 0
M  V30 8625 H 774.546 -0.144716 2.9905 0
M  V30 8626 H 772.092 -0.0681645 1.43839 0
M  V30 8627 H 774.045 -2.5548 3.35124 0
M  V30 8628 H 772.769 -2.49283 2.11011 0
M  V30 8629 H 771.428 -0.918892 3.54897 0
M  V30 8630 H 771.076 -3.38927 3.71669 0
M  V30 8631 H 770.776 -2.58415 5.27727 0
M  V30 8632 H 772.3 -3.47966 5.01749 0
M  V30 8633 H 773.714 -1.28105 5.58804 0
M  V30 8634 H 772.111 -0.589272 5.972 0
M  V30 8635 H 773.181 0.260004 4.84202 0
M  V30 8636 N 774.524 -1.57472 -0.0634922 0
M  V30 8637 C 775.434 -2.07621 -1.09227 0
M  V30 8638 C 776.45 -1.00746 -1.41867 0
M  V30 8639 O 777.626 -1.32269 -1.51878 0
M  V30 8640 C 774.691 -2.51707 -2.38421 0
M  V30 8641 C 773.752 -3.72917 -2.12676 0
M  V30 8642 C 772.985 -4.14891 -3.3571 0
M  V30 8643 O 773.208 -3.56663 -4.45137 0
M  V30 8644 O 772.142 -5.07616 -3.23434 0
M  V30 8645 H 775.968 -2.95612 -0.696205 0
M  V30 8646 H 773.553 -1.46787 -0.27819 0
M  V30 8647 H 775.435 -2.80547 -3.14438 0
M  V30 8648 H 774.11 -1.66842 -2.77391 0
M  V30 8649 H 773.017 -3.49148 -1.34337 0
M  V30 8650 H 774.35 -4.5866 -1.78583 0
M  V30 8651 N 776.003 0.335068 -1.53997 0
M  V30 8652 C 776.953 1.4127 -1.7896 0
M  V30 8653 C 777.937 1.474 -0.64513 0
M  V30 8654 O 779.129 1.52127 -0.904785 0
M  V30 8655 C 776.258 2.78292 -2.01018 0
M  V30 8656 C 775.344 2.7652 -3.21555 0
M  V30 8657 N 775.735 2.44374 -4.42849 0
M  V30 8658 C 774.033 3.0766 -3.22895 0
M  V30 8659 C 774.734 2.51049 -5.24737 0
M  V30 8660 N 773.71 2.8702 -4.6165 0
M  V30 8661 H 777.512 1.15327 -2.70327 0
M  V30 8662 H 775.026 0.543483 -1.53036 0
M  V30 8663 H 777.023 3.55949 -2.17039 0
M  V30 8664 H 775.683 3.05175 -1.10898 0
M  V30 8665 H 776.694 2.17422 -4.70051 0
M  V30 8666 H 773.371 3.3966 -2.42771 0
M  V30 8667 H 774.761 2.29283 -6.31569 0
M  V30 8668 N 777.481 1.45874 0.596531 0
M  V30 8669 C 778.711 1.5379 1.37958 0
M  V30 8670 C 779.119 0.173086 1.88407 0
M  V30 8671 O 778.462 -0.837498 1.63498 0
M  V30 8672 C 778.524 2.47044 2.61169 0
M  V30 8673 C 778.188 3.93565 2.32283 0
M  V30 8674 C 779.185 4.83162 1.91965 0
M  V30 8675 C 776.87 4.38579 2.44854 0
M  V30 8676 C 778.864 6.15782 1.64593 0
M  V30 8677 C 776.551 5.71238 2.17095 0
M  V30 8678 C 777.549 6.59659 1.77028 0
M  V30 8679 O 777.237 7.89857 1.49601 0
M  V30 8680 H 776.969 0.523 0.428307 0
M  V30 8681 H 779.523 1.91855 0.733529 0
M  V30 8682 H 777.753 2.0397 3.28532 0
M  V30 8683 H 779.442 2.4552 3.23226 0
M  V30 8684 H 780.208 4.49646 1.8178 0
M  V30 8685 H 776.087 3.6999 2.75006 0
M  V30 8686 H 779.631 6.84757 1.33245 0
M  V30 8687 H 775.528 6.04306 2.26901 0
M  V30 8688 H 776.296 8.01991 1.63561 0
M  V30 8689 N 778.959 -0.83999 1.33349 0
M  V30 8690 C 780.37 -1.41139 1.22216 0
M  V30 8691 C 780.721 -1.95551 -0.159398 0
M  V30 8692 O 779.846 -1.88721 -1.05893 0
M  V30 8693 C 780.441 -2.56564 2.21269 0
M  V30 8694 C 779 -3.09661 2.13979 0
M  V30 8695 C 778.147 -1.82457 2.08818 0
M  V30 8696 H 781.098 -0.645853 1.44964 0
M  V30 8697 H 781.119 -3.34163 1.81976 0
M  V30 8698 H 780.631 -2.16932 3.21811 0
M  V30 8699 H 778.732 -3.53841 1.16736 0
M  V30 8700 H 778.845 -3.6991 3.04472 0
M  V30 8701 H 777.209 -2.0266 1.54276 0
M  V30 8702 H 777.992 -1.45022 3.11165 0
M  V30 8703 N 780.437 -1.16799 -1.0581 0
M  V30 8704 C 781.37 -0.822491 -2.12862 0
M  V30 8705 C 782.348 0.208006 -1.61264 0
M  V30 8706 O 783.532 0.0909652 -1.8828 0
M  V30 8707 C 780.659 -0.225826 -3.37946 0
M  V30 8708 C 779.705 -1.23071 -4.08357 0
M  V30 8709 S 780.538 -2.77944 -4.5772 0
M  V30 8710 C 781.694 -2.19741 -5.86059 0
M  V30 8711 H 781.927 -1.72917 -2.41841 0
M  V30 8712 H 779.46 -0.991982 -1.18318 0
M  V30 8713 H 781.418 0.111955 -4.10347 0
M  V30 8714 H 780.079 0.658692 -3.07116 0
M  V30 8715 H 779.272 -0.761758 -4.9821 0
M  V30 8716 H 778.874 -1.51383 -3.41993 0
M  V30 8717 H 781.166 -1.5691 -6.59079 0
M  V30 8718 H 782.109 -3.07823 -6.37692 0
M  V30 8719 H 782.517 -1.63433 -5.40324 0
M  V30 8720 N 781.915 1.24427 -0.967243 0
M  V30 8721 C 783.14 1.9708 -0.646069 0
M  V30 8722 C 783.565 1.71272 0.777665 0
M  V30 8723 O 782.923 0.976179 1.52776 0
M  V30 8724 C 782.971 3.48501 -0.926266 0
M  V30 8725 O 782.075 4.12398 -0.0114653 0
M  V30 8726 H 781.416 0.617423 -0.244304 0
M  V30 8727 H 783.946 1.58215 -1.29727 0
M  V30 8728 H 783.956 3.98885 -0.857619 0
M  V30 8729 H 782.631 3.66613 -1.96386 0
M  V30 8730 H 781.208 3.72661 -0.133396 0
M  V30 8731 N 783.393 0.737304 1.3929 0
M  V30 8732 C 784.34 0.0988364 2.30588 0
M  V30 8733 C 785.31 -0.727206 1.49335 0
M  V30 8734 O 786.495 -0.686694 1.78014 0
M  V30 8735 C 783.635 -0.800734 3.35682 0
M  V30 8736 C 782.748 0.0381731 4.31983 0
M  V30 8737 C 781.883 -0.862884 5.24145 0
M  V30 8738 C 780.922 -0.0193639 6.12097 0
M  V30 8739 N 780.059 -0.87648 6.96608 0
M  V30 8740 H 784.899 0.883031 2.84617 0
M  V30 8741 H 782.436 0.447111 1.4014 0
M  V30 8742 H 784.394 -1.33676 3.95205 0
M  V30 8743 H 783.024 -1.55088 2.83103 0
M  V30 8744 H 782.076 0.691641 3.74059 0
M  V30 8745 H 783.388 0.690294 4.94 0
M  V30 8746 H 782.542 -1.46667 5.88705 0
M  V30 8747 H 781.281 -1.54878 4.62454 0
M  V30 8748 H 780.286 0.597202 5.46547 0
M  V30 8749 H 781.511 0.663348 6.75852 0
M  V30 8750 H 779.457 -1.54762 6.37483 0
M  V30 8751 H 779.374 -0.280892 7.55478 0
M  V30 8752 H 780.642 -1.46575 7.65595 0
M  V30 8753 N 784.871 -1.49948 0.485112 0
M  V30 8754 C 785.803 -2.26691 -0.338222 0
M  V30 8755 C 786.816 -1.32584 -0.944742 0
M  V30 8756 O 788.005 -1.57989 -0.830772 0
M  V30 8757 C 785.105 -3.04405 -1.48966 0
M  V30 8758 C 784.278 -4.25971 -0.993371 0
M  V30 8759 C 783.337 -4.85861 -2.02052 0
M  V30 8760 O 782.363 -5.46382 -1.59547 0
M  V30 8761 N 783.565 -4.74101 -3.34975 0
M  V30 8762 H 786.33 -2.97989 0.319748 0
M  V30 8763 H 783.891 -1.58772 0.316714 0
M  V30 8764 H 785.883 -3.41348 -2.17403 0
M  V30 8765 H 784.453 -2.35815 -2.05207 0
M  V30 8766 H 783.673 -3.93971 -0.134424 0
M  V30 8767 H 784.961 -5.0476 -0.639934 0
M  V30 8768 H 784.359 -4.26002 -3.72208 0
M  V30 8769 H 782.916 -5.15274 -3.9917 0
M  V30 8770 N 786.349 -0.21828 -1.56081 0
M  V30 8771 C 787.577 0.419258 -2.02608 0
M  V30 8772 C 787.992 1.53578 -1.09814 0
M  V30 8773 O 787.349 1.82185 -0.107149 0
M  V30 8774 C 787.4 0.953955 -3.48686 0
M  V30 8775 O 787.121 -0.11805 -4.37941 0
M  V30 8776 C 788.622 1.66506 -4.10841 0
M  V30 8777 H 785.842 0.10296 -0.663054 0
M  V30 8778 H 788.386 -0.333776 -2.01758 0
M  V30 8779 H 786.541 1.65727 -3.50162 0
M  V30 8780 H 786.955 0.283359 -5.23734 0
M  V30 8781 H 788.429 1.99123 -5.14834 0
M  V30 8782 H 788.906 2.57705 -3.55647 0
M  V30 8783 H 789.512 1.00703 -4.13206 0
M  V30 8784 N 787.827 1.57504 0.0551401 0
M  V30 8785 C 788.775 2.05884 1.08233 0
M  V30 8786 C 789.769 0.967383 1.39061 0
M  V30 8787 O 790.975 1.15242 1.38273 0
M  V30 8788 H 787.35 0.656673 0.366449 0
M  V30 8789 H 789.321 2.91273 0.648269 0
M  V30 8790 C 788.07 2.53221 2.38273 0
M  V30 8791 H 787.393 3.36809 2.15406 0
M  V30 8792 H 788.833 2.9081 3.08554 0
M  V30 8793 C 787.292 1.42218 3.05411 0
M  V30 8794 O 787.822 0.773638 3.9418 0
M  V30 8795 N 786.028 1.16316 2.66306 0
M  V30 8796 H 785.575 1.69237 1.94207 0
M  V30 8797 H 785.533 0.422534 3.11548 0
M  V30 8798 N 789.305 -0.326896 1.54172 0
M  V30 8799 C 790.533 -1.08486 1.76177 0
M  V30 8800 C 790.948 -1.81815 0.508788 0
M  V30 8801 O 790.305 -1.74924 -0.520362 0
M  V30 8802 C 790.356 -2.08552 2.95276 0
M  V30 8803 O 790.077 -1.38202 4.15731 0
M  V30 8804 C 791.578 -2.96593 3.29466 0
M  V30 8805 H 788.798 -0.322835 0.588233 0
M  V30 8806 H 791.342 -0.374036 2.0105 0
M  V30 8807 H 789.497 -2.75174 2.72687 0
M  V30 8808 H 789.911 -2.05186 4.827 0
M  V30 8809 H 791.385 -3.62708 4.16109 0
M  V30 8810 H 791.862 -3.63511 2.46487 0
M  V30 8811 H 792.468 -2.35537 3.54122 0
M  V30 8812 N 790.784 -1.46188 -0.588786 0
M  V30 8813 C 791.714 -1.59148 -1.70863 0
M  V30 8814 C 792.695 -0.442083 -1.64255 0
M  V30 8815 O 793.88 -0.667575 -1.82365 0
M  V30 8816 C 791.01 -1.5757 -3.09498 0
M  V30 8817 C 789.964 -2.71418 -3.30932 0
M  V30 8818 C 789.29 -2.549 -4.70032 0
M  V30 8819 C 790.59 -4.1329 -3.19356 0
M  V30 8820 H 792.284 -2.52889 -1.60274 0
M  V30 8821 H 789.83 -1.21707 -0.769638 0
M  V30 8822 H 791.783 -1.65231 -3.87655 0
M  V30 8823 H 790.507 -0.603705 -3.20972 0
M  V30 8824 H 789.166 -2.63216 -2.55172 0
M  V30 8825 H 788.814 -1.55797 -4.78264 0
M  V30 8826 H 788.514 -3.31257 -4.85327 0
M  V30 8827 H 790.038 -2.64443 -5.50366 0
M  V30 8828 H 791.452 -4.22636 -3.87365 0
M  V30 8829 H 789.849 -4.90187 -3.46175 0
M  V30 8830 H 790.919 -4.33874 -2.16522 0
M  V30 8831 N 792.262 0.832906 -1.33792 0
M  V30 8832 C 793.192 1.95828 -1.27176 0
M  V30 8833 C 794.173 1.69427 -0.15114 0
M  V30 8834 O 795.358 1.91167 -0.341886 0
M  V30 8835 C 792.488 3.32098 -1.01629 0
M  V30 8836 C 791.442 3.72912 -2.10049 0
M  V30 8837 C 790.768 5.07054 -1.69706 0
M  V30 8838 C 792.068 3.86064 -3.51783 0
M  V30 8839 H 793.762 2.01622 -2.21334 0
M  V30 8840 H 791.308 0.96866 -1.0655 0
M  V30 8841 H 793.261 4.10402 -0.956474 0
M  V30 8842 H 791.985 3.26577 -0.0390956 0
M  V30 8843 H 790.644 2.96876 -2.15082 0
M  V30 8844 H 790.292 4.9801 -0.706737 0
M  V30 8845 H 789.992 5.35333 -2.42264 0
M  V30 8846 H 791.516 5.87827 -1.65202 0
M  V30 8847 H 792.93 4.54665 -3.49218 0
M  V30 8848 H 791.327 4.25787 -4.22878 0
M  V30 8849 H 792.397 2.88344 -3.89854 0
M  V30 8850 N 793.74 1.17359 1.05189 0
M  V30 8851 C 794.688 0.886527 2.15043 0
M  V30 8852 C 795.682 -0.148834 1.68745 0
M  V30 8853 O 796.888 -0.00175123 1.8 0
M  V30 8854 H 793.263 0.269147 0.702185 0
M  V30 8855 H 795.234 1.82016 2.36459 0
M  V30 8856 C 793.983 0.416333 3.45198 0
M  V30 8857 H 793.306 1.20449 3.81225 0
M  V30 8858 H 794.746 0.254362 4.23236 0
M  V30 8859 C 793.205 -0.866016 3.25579 0
M  V30 8860 O 793.735 -1.9328 3.52144 0
M  V30 8861 N 791.941 -0.814179 2.78961 0
M  V30 8862 H 791.488 0.0541618 2.57543 0
M  V30 8863 H 791.446 -1.67264 2.66214 0
M  V30 8864 N 795.218 -1.23913 0.973828 0
M  V30 8865 C 796.467 -1.91455 0.63464 0
M  V30 8866 C 796.78 -1.76893 -0.834759 0
M  V30 8867 O 797.986 -2.3918 -1.28473 0
M  V30 8868 C 796.442 -3.43172 1.08447 0
M  V30 8869 C 796.05 -3.66409 2.57776 0
M  V30 8870 C 797.794 -4.1653 0.818721 0
M  V30 8871 C 795.701 -5.11728 2.9646 0
M  V30 8872 H 794.631 -0.716881 0.233661 0
M  V30 8873 H 797.282 -1.40457 1.18085 0
M  V30 8874 H 795.664 -3.93242 0.466524 0
M  V30 8875 H 796.838 -3.26913 3.24753 0
M  V30 8876 H 795.153 -3.06349 2.82027 0
M  V30 8877 H 797.75 -5.23603 1.08367 0
M  V30 8878 H 798.093 -4.15578 -0.245128 0
M  V30 8879 H 798.626 -3.72428 1.39793 0
M  V30 8880 H 795.365 -5.17806 4.01941 0
M  V30 8881 H 794.885 -5.52199 2.34172 0
M  V30 8882 H 796.564 -5.80009 2.86703 0
M  V30 8883 N 796.696 -0.74468 -1.38897 0
M  V30 8884 C 797.944 -0.296298 -1.99916 0
M  V30 8885 C 798.265 1.12325 -1.59399 0
M  V30 8886 O 797.535 1.76658 -0.846689 0
M  V30 8887 H 796.115 -0.106561 -0.73936 0
M  V30 8888 H 798.777 -0.956793 -1.69798 0
M  V30 8889 H 797.873 -0.352356 -3.10105 0
M  V30 8890 N 798.174 1.49689 -0.493057 0
M  V30 8891 C 799.122 2.30613 0.303383 0
M  V30 8892 C 800.116 1.38867 0.970165 0
M  V30 8893 O 801.322 1.55956 0.898761 0
M  V30 8894 H 797.697 0.742891 0.116691 0
M  V30 8895 H 799.668 2.95717 -0.39924 0
M  V30 8896 C 798.417 3.20008 1.35978 0
M  V30 8897 H 797.74 3.90526 0.856103 0
M  V30 8898 H 799.18 3.79586 1.88919 0
M  V30 8899 C 797.639 2.39079 2.37367 0
M  V30 8900 O 798.169 2.08933 3.43089 0
M  V30 8901 N 796.375 2.0125 2.09635 0
M  V30 8902 H 795.922 2.25966 1.23682 0
M  V30 8903 H 795.88 1.47408 2.77702 0
M  V30 8904 N 799.652 0.226554 1.55963 0
M  V30 8905 C 800.582 -0.676079 2.23498 0
M  V30 8906 C 801.563 -1.19718 1.20837 0
M  V30 8907 O 802.748 -1.24027 1.49436 0
M  V30 8908 C 799.878 -1.88217 2.91876 0
M  V30 8909 C 798.832 -1.4947 4.01052 0
M  V30 8910 C 798.158 -2.77997 4.56751 0
M  V30 8911 C 799.458 -0.680951 5.17842 0
M  V30 8912 H 801.152 -0.112989 2.99187 0
M  V30 8913 H 798.698 -0.0529046 1.43903 0
M  V30 8914 H 800.651 -2.51911 3.37815 0
M  V30 8915 H 799.375 -2.47031 2.13643 0
M  V30 8916 H 798.034 -0.881199 3.55852 0
M  V30 8917 H 797.682 -3.34966 3.75243 0
M  V30 8918 H 797.382 -2.52803 5.30438 0
M  V30 8919 H 798.906 -3.42625 5.05411 0
M  V30 8920 H 800.32 -1.22171 5.60131 0
M  V30 8921 H 798.717 -0.525898 5.97791 0
M  V30 8922 H 799.787 0.311346 4.83899 0
M  V30 8923 N 801.13 -1.57531 -0.0467866 0
M  V30 8924 C 802.376 -1.8873 -0.742218 0
M  V30 8925 C 802.709 -0.822084 -1.75941 0
M  V30 8926 O 801.984 0.164922 -1.938 0
M  V30 8927 C 802.267 -3.30586 -1.42776 0
M  V30 8928 C 802.12 -4.47785 -0.425285 0
M  V30 8929 C 803.439 -3.71068 -2.36636 0
M  V30 8930 H 800.558 -0.686406 -0.268359 0
M  V30 8931 H 803.2 -1.89999 -0.00511341 0
M  V30 8932 H 801.35 -3.29634 -2.05605 0
M  V30 8933 H 803.022 -4.60867 0.199721 0
M  V30 8934 H 801.265 -4.33037 0.25713 0
M  V30 8935 H 801.936 -5.43884 -0.943086 0
M  V30 8936 H 804.412 -3.73273 -1.83866 0
M  V30 8937 H 803.288 -4.71165 -2.81593 0
M  V30 8938 H 803.549 -3.02355 -3.22542 0
M  V30 8939 N 802.608 0.318715 -1.54344 0
M  V30 8940 C 803.855 1.05608 -1.72781 0
M  V30 8941 C 804.183 1.87854 -0.504083 0
M  V30 8942 O 803.438 1.88826 0.51414 0
M  V30 8943 C 803.737 2.00514 -2.95853 0
M  V30 8944 C 803.403 1.34385 -4.30409 0
M  V30 8945 C 802.065 1.16081 -4.66989 0
M  V30 8946 C 804.417 0.869627 -5.13894 0
M  V30 8947 C 801.745 0.490114 -5.84649 0
M  V30 8948 C 804.097 0.212735 -6.32242 0
M  V30 8949 C 802.761 0.0175882 -6.67498 0
M  V30 8950 H 802.031 0.386449 -0.632249 0
M  V30 8951 H 804.678 0.332729 -1.88587 0
M  V30 8952 H 802.983 2.79317 -2.74753 0
M  V30 8953 H 804.68 2.57605 -3.07312 0
M  V30 8954 H 801.27 1.49634 -4.01631 0
M  V30 8955 H 805.454 0.998809 -4.86146 0
M  V30 8956 H 800.71 0.327767 -6.10521 0
M  V30 8957 H 804.884 -0.162699 -6.9621 0
M  V30 8958 H 802.511 -0.504137 -7.58527 0
M  V30 8959 N 804.086 1.46499 0.581025 0
M  V30 8960 C 805.335 1.51162 1.3354 0
M  V30 8961 C 805.648 0.168433 1.94873 0
M  V30 8962 O 806.854 0.092883 2.71341 0
M  V30 8963 C 805.31 2.66362 2.42032 0
M  V30 8964 C 804.918 4.07109 1.86994 0
M  V30 8965 C 806.662 2.80297 3.188 0
M  V30 8966 C 804.569 5.13645 2.93125 0
M  V30 8967 H 803.499 0.562576 0.502021 0
M  V30 8968 H 806.15 1.72713 0.619863 0
M  V30 8969 H 804.532 2.38143 3.16392 0
M  V30 8970 H 805.706 4.45125 1.19166 0
M  V30 8971 H 804.021 3.97854 1.22887 0
M  V30 8972 H 806.618 3.5706 3.9801 0
M  V30 8973 H 806.961 1.87875 3.71495 0
M  V30 8974 H 807.494 3.0817 2.51547 0
M  V30 8975 H 804.233 6.07866 2.45315 0
M  V30 8976 H 803.753 4.80172 3.59437 0
M  V30 8977 H 805.432 5.39562 3.57046 0
M  V30 8978 N 805.565 -0.825799 1.34232 0
M  V30 8979 C 806.813 -1.57873 1.26177 0
M  V30 8980 C 807.134 -1.94267 -0.168904 0
M  V30 8981 O 806.404 -1.62045 -1.10084 0
M  V30 8982 H 804.984 -0.585388 0.464037 0
M  V30 8983 H 807.646 -0.986163 1.6811 0
M  V30 8984 H 806.742 -2.50283 1.86453 0
M  V30 8985 N 807.043 -1.17915 -1.04565 0
M  V30 8986 C 808.292 -0.965816 -1.77073 0
M  V30 8987 C 808.605 0.506005 -1.88942 0
M  V30 8988 O 809.811 0.837717 -2.58253 0
M  V30 8989 C 808.267 -1.67894 -3.18339 0
M  V30 8990 C 807.875 -3.18972 -3.1458 0
M  V30 8991 C 809.619 -1.54823 -3.9526 0
M  V30 8992 C 807.526 -3.82946 -4.50674 0
M  V30 8993 H 806.456 -0.357729 -0.663736 0
M  V30 8994 H 809.107 -1.41235 -1.17153 0
M  V30 8995 H 807.489 -1.16016 -3.78624 0
M  V30 8996 H 808.663 -3.77835 -2.63776 0
M  V30 8997 H 806.978 -3.32127 -2.51159 0
M  V30 8998 H 809.575 -1.99984 -4.95894 0
M  V30 8999 H 809.918 -0.499727 -4.1329 0
M  V30 9000 H 810.451 -2.03953 -3.41538 0
M  V30 9001 H 807.19 -4.8782 -4.37849 0
M  V30 9002 H 806.71 -3.2887 -5.01602 0
M  V30 9003 H 808.389 -3.85518 -5.196 0
M  V30 9004 N 808.521 1.23394 -0.980386 0
M  V30 9005 C 809.768 1.91809 -0.649261 0
M  V30 9006 C 810.096 1.765 0.817197 0
M  V30 9007 O 809.351 1.11979 1.60497 0
M  V30 9008 C 809.65 3.43542 -0.985588 0
M  V30 9009 C 809.316 3.79031 -2.44225 0
M  V30 9010 C 807.978 3.88429 -2.84035 0
M  V30 9011 C 810.33 3.96145 -3.38702 0
M  V30 9012 C 807.658 4.12368 -4.17336 0
M  V30 9013 C 810.01 4.21583 -4.71646 0
M  V30 9014 C 808.674 4.29203 -5.11215 0
M  V30 9015 H 807.944 0.70188 -0.237581 0
M  V30 9016 H 810.591 1.4642 -1.23424 0
M  V30 9017 H 808.896 3.90503 -0.318521 0
M  V30 9018 H 810.593 3.94708 -0.707596 0
M  V30 9019 H 807.183 3.7229 -2.12362 0
M  V30 9020 H 811.367 3.88274 -3.09123 0
M  V30 9021 H 806.623 4.1649 -4.47601 0
M  V30 9022 H 810.797 4.33769 -5.4481 0
M  V30 9023 H 808.424 4.47505 -6.14527 0
M  V30 9024 N 809.999 0.752036 1.385 0
M  V30 9025 C 811.227 0.318274 2.04437 0
M  V30 9026 C 811.642 -1.05285 1.56718 0
M  V30 9027 O 810.999 -1.66844 0.73956 0
M  V30 9028 C 811.05 0.330106 3.5999 0
M  V30 9029 O 810.771 1.64712 4.05957 0
M  V30 9030 C 812.272 -0.117713 4.43144 0
M  V30 9031 H 809.492 0.136228 0.657026 0
M  V30 9032 H 812.036 1.02045 1.7722 0
M  V30 9033 H 810.191 -0.323323 3.86048 0
M  V30 9034 H 810.605 1.57225 5.0038 0
M  V30 9035 H 812.079 -0.0582735 5.51969 0
M  V30 9036 H 812.556 -1.16538 4.23457 0
M  V30 9037 H 813.162 0.506784 4.2227 0
M  V30 9038 N 811.477 -1.49425 0.500989 0
M  V30 9039 C 812.44 -2.27646 -0.266416 0
M  V30 9040 C 813.44 -1.3366 -0.893961 0
M  V30 9041 O 814.63 -1.5682 -0.758495 0
M  V30 9042 C 811.762 -3.11618 -1.38227 0
M  V30 9043 H 812.955 -2.96945 0.419973 0
M  V30 9044 H 810.508 -1.5419 0.255954 0
M  V30 9045 H 811.243 -2.46885 -2.10281 0
M  V30 9046 H 811.028 -3.80721 -0.937746 0
M  V30 9047 H 812.518 -3.70698 -1.92283 0
M  V30 9048 N 812.955 -0.234822 -1.55841 0
M  V30 9049 C 813.865 0.680828 -2.24504 0
M  V30 9050 C 814.881 1.20306 -1.25708 0
M  V30 9051 O 816.057 1.24188 -1.58554 0
M  V30 9052 C 813.122 1.86636 -2.92178 0
M  V30 9053 C 812.183 1.3848 -4.06352 0
M  V30 9054 C 811.416 2.51382 -4.70789 0
M  V30 9055 O 811.639 3.69831 -4.34259 0
M  V30 9056 O 810.573 2.21828 -5.59532 0
M  V30 9057 H 814.399 0.12583 -3.03439 0
M  V30 9058 H 811.984 -0.00381817 -1.494 0
M  V30 9059 H 813.866 2.55845 -3.34845 0
M  V30 9060 H 812.541 2.40921 -2.16192 0
M  V30 9061 H 811.448 0.660341 -3.68226 0
M  V30 9062 H 812.781 0.888177 -4.8412 0
M  V30 9063 N 814.433 1.57553 0.0384317 0
M  V30 9064 C 815.366 2.01307 1.07475 0
M  V30 9065 C 816.344 0.895717 1.35704 0
M  V30 9066 O 817.528 1.16079 1.48519 0
M  V30 9067 C 814.655 2.37817 2.41165 0
M  V30 9068 C 813.701 3.599 2.28855 0
M  V30 9069 S 814.534 5.09418 1.65086 0
M  V30 9070 C 815.69 5.49162 3.00286 0
M  V30 9071 H 815.923 2.88892 0.702034 0
M  V30 9072 H 813.456 1.52394 0.248103 0
M  V30 9073 H 815.414 2.59524 3.18053 0
M  V30 9074 H 814.075 1.507 2.75587 0
M  V30 9075 H 813.268 3.83071 3.27525 0
M  V30 9076 H 812.87 3.37996 1.60109 0
M  V30 9077 H 815.162 5.49274 3.96617 0
M  V30 9078 H 816.105 6.49586 2.81858 0
M  V30 9079 H 816.513 4.76653 3.02427 0
M  V30 9080 N 815.911 -0.310526 1.54511 0
M  V30 9081 C 817.16 -1.0445 1.72549 0
M  V30 9082 C 817.473 -1.88748 0.513172 0
M  V30 9083 O 818.679 -2.65338 0.575165 0
M  V30 9084 C 817.135 -1.90665 3.05246 0
M  V30 9085 C 816.743 -1.11415 4.33925 0
M  V30 9086 C 818.487 -2.63719 3.32645 0
M  V30 9087 C 816.394 -1.96852 5.57677 0
M  V30 9088 H 815.324 -0.393676 0.643067 0
M  V30 9089 H 817.975 -0.302003 1.80998 0
M  V30 9090 H 816.357 -2.68864 2.90737 0
M  V30 9091 H 817.531 -0.378956 4.59239 0
M  V30 9092 H 815.846 -0.499853 4.13389 0
M  V30 9093 H 818.443 -3.27974 4.223 0
M  V30 9094 H 818.786 -3.32047 2.51098 0
M  V30 9095 H 819.319 -1.92574 3.48081 0
M  V30 9096 H 816.058 -1.33009 6.41864 0
M  V30 9097 H 815.578 -2.68069 5.36562 0
M  V30 9098 H 817.257 -2.55127 5.94575 0
M  V30 9099 N 817.389 -1.46805 -0.573248 0
M  V30 9100 C 818.636 -1.52604 -1.3311 0
M  V30 9101 C 818.964 -0.181633 -1.9365 0
M  V30 9102 O 818.219 0.823775 -1.77517 0
M  V30 9103 C 818.518 -2.58001 -2.47326 0
M  V30 9104 C 818.184 -4.01747 -2.04719 0
M  V30 9105 C 816.846 -4.40881 -1.92814 0
M  V30 9106 C 819.198 -4.92008 -1.71982 0
M  V30 9107 C 816.526 -5.68129 -1.46445 0
M  V30 9108 C 818.878 -6.19703 -1.27089 0
M  V30 9109 C 817.542 -6.57733 -1.13768 0
M  V30 9110 H 816.812 -0.558417 -0.487084 0
M  V30 9111 H 819.459 -1.80327 -0.644538 0
M  V30 9112 H 817.764 -2.23974 -3.2147 0
M  V30 9113 H 819.461 -2.59715 -3.05531 0
M  V30 9114 H 816.051 -3.70819 -2.14922 0
M  V30 9115 H 820.235 -4.62485 -1.8006 0
M  V30 9116 H 815.491 -5.96359 -1.34783 0
M  V30 9117 H 819.665 -6.89064 -1.00814 0
M  V30 9118 H 817.292 -7.56228 -0.776142 0
M  V30 9119 N 818.867 0.818669 -1.34668 0
M  V30 9120 C 819.814 1.92983 -1.26595 0
M  V30 9121 C 820.784 1.65506 -0.140315 0
M  V30 9122 O 821.969 1.88063 -0.322005 0
M  V30 9123 C 819.109 3.2932 -1.03163 0
M  V30 9124 C 818.222 3.69061 -2.24539 0
M  V30 9125 C 817.357 4.94368 -1.94355 0
M  V30 9126 C 816.396 5.26702 -3.11851 0
M  V30 9127 N 815.533 6.43187 -2.81522 0
M  V30 9128 H 820.373 1.99219 -2.2162 0
M  V30 9129 H 817.91 0.974612 -1.1018 0
M  V30 9130 H 819.868 4.07897 -0.87613 0
M  V30 9131 H 818.498 3.22584 -0.118045 0
M  V30 9132 H 817.55 2.85842 -2.50995 0
M  V30 9133 H 818.862 3.88924 -3.12313 0
M  V30 9134 H 818.016 5.80742 -1.75566 0
M  V30 9135 H 816.755 4.76515 -1.03848 0
M  V30 9136 H 815.76 4.38823 -3.31231 0
M  V30 9137 H 816.985 5.46492 -4.03142 0
M  V30 9138 H 814.931 6.26783 -1.93596 0
M  V30 9139 H 814.848 6.63243 -3.62829 0
M  V30 9140 H 816.116 7.32621 -2.66247 0
M  V30 9141 N 820.346 1.18468 1.03938 0
M  V30 9142 C 821.595 0.975193 1.76558 0
M  V30 9143 C 821.908 -0.495978 1.89207 0
M  V30 9144 O 823.114 -0.824009 2.58694 0
M  V30 9145 C 821.57 1.69579 3.17444 0
M  V30 9146 C 821.178 3.20636 3.12884 0
M  V30 9147 C 822.922 1.56917 3.94433 0
M  V30 9148 C 820.829 3.8533 4.48636 0
M  V30 9149 H 819.759 0.361244 0.66183 0
M  V30 9150 H 822.41 1.41854 1.16403 0
M  V30 9151 H 820.792 1.18022 3.78004 0
M  V30 9152 H 821.966 3.79228 2.61768 0
M  V30 9153 H 820.281 3.33454 2.49394 0
M  V30 9154 H 822.878 2.02611 4.94826 0
M  V30 9155 H 823.221 0.521638 4.13019 0
M  V30 9156 H 823.754 2.05762 3.40451 0
M  V30 9157 H 820.493 4.90136 4.35255 0
M  V30 9158 H 820.013 3.31526 4.99851 0
M  V30 9159 H 821.692 3.88269 5.17549 0
M  V30 9160 N 821.824 -1.22873 0.986916 0
M  V30 9161 C 823.073 -1.90772 0.654911 0
M  V30 9162 C 823.386 -1.77768 -0.81595 0
M  V30 9163 O 824.592 -2.40529 -1.25929 0
M  V30 9164 C 823.048 -3.42003 1.12081 0
M  V30 9165 C 822.656 -3.63655 2.61647 0
M  V30 9166 C 824.4 -4.15638 0.862854 0
M  V30 9167 C 822.307 -5.08555 3.01871 0
M  V30 9168 H 821.237 -0.714362 0.241252 0
M  V30 9169 H 823.888 -1.39196 1.19568 0
M  V30 9170 H 822.27 -3.92725 0.508207 0
M  V30 9171 H 823.444 -3.2345 3.28202 0
M  V30 9172 H 821.759 -3.03341 2.8526 0
M  V30 9173 H 824.356 -5.22425 1.13915 0
M  V30 9174 H 824.699 -4.15814 -0.201036 0
M  V30 9175 H 825.232 -3.70924 1.43736 0
M  V30 9176 H 821.971 -5.13514 4.07411 0
M  V30 9177 H 821.491 -5.49684 2.40015 0
M  V30 9178 H 823.17 -5.76936 2.92839 0
M  V30 9179 N 823.302 -0.75937 -1.38099 0
M  V30 9180 C 824.265 -0.14372 -2.28749 0
M  V30 9181 C 825.265 0.641338 -1.47457 0
M  V30 9182 O 826.455 0.466751 -1.67831 0
M  V30 9183 C 823.587 0.804545 -3.3127 0
M  V30 9184 H 824.78 -0.942663 -2.847 0
M  V30 9185 H 822.333 -0.526757 -1.47156 0
M  V30 9186 H 823.068 1.62895 -2.80421 0
M  V30 9187 H 822.853 0.243939 -3.9134 0
M  V30 9188 H 824.343 1.23111 -3.99041 0
M  V30 9189 N 824.78 1.49157 -0.508906 0
M  V30 9190 C 825.713 2.26056 0.312103 0
M  V30 9191 C 826.691 1.30982 0.963456 0
M  V30 9192 O 827.875 1.60286 0.992002 0
M  V30 9193 C 825.002 3.06555 1.4402 0
M  V30 9194 C 824.048 4.16844 0.902414 0
M  V30 9195 S 824.881 5.35076 -0.213087 0
M  V30 9196 C 826.037 6.19132 0.917985 0
M  V30 9197 H 826.27 2.95343 -0.340559 0
M  V30 9198 H 823.803 1.51569 -0.294331 0
M  V30 9199 H 825.761 3.53517 2.08653 0
M  V30 9200 H 824.422 2.36722 2.0645 0
M  V30 9201 H 823.615 4.72714 1.74806 0
M  V30 9202 H 823.217 3.72513 0.333156 0
M  V30 9203 H 825.509 6.52556 1.82145 0
M  V30 9204 H 826.452 7.06982 0.397724 0
M  V30 9205 H 826.86 5.51839 1.18889 0
M  V30 9206 N 826.258 0.243083 1.55714 0
M  V30 9207 C 827.208 -0.671915 2.17875 0
M  V30 9208 C 828.192 -1.14199 1.13347 0
M  V30 9209 O 829.384 -1.09239 1.39269 0
M  V30 9210 C 826.513 -1.87027 2.87881 0
M  V30 9211 C 825.599 -1.41888 3.99661 0
M  V30 9212 N 825.99 -0.681465 5.01188 0
M  V30 9213 C 824.288 -1.70447 4.12145 0
M  V30 9214 C 824.989 -0.448285 5.7997 0
M  V30 9215 N 823.965 -1.01137 5.34109 0
M  V30 9216 H 827.767 -0.100321 2.93729 0
M  V30 9217 H 825.281 0.0452371 1.62337 0
M  V30 9218 H 827.278 -2.53674 3.3084 0
M  V30 9219 H 825.938 -2.44613 2.13529 0
M  V30 9220 H 826.949 -0.331959 5.16835 0
M  V30 9221 H 823.626 -2.29198 3.48962 0
M  V30 9222 H 825.016 0.140141 6.71754 0
M  V30 9223 N 827.736 -1.57571 -0.0300757 0
M  V30 9224 C 829.147 -1.77567 -0.576802 0
M  V30 9225 C 829.498 -0.874034 -1.75656 0
M  V30 9226 O 828.623 -0.0686124 -2.16291 0
M  V30 9227 C 829.218 -3.22016 -1.05315 0
M  V30 9228 C 827.777 -3.43212 -1.5454 0
M  V30 9229 C 826.924 -2.73061 -0.483033 0
M  V30 9230 H 829.875 -1.57483 0.196151 0
M  V30 9231 H 829.896 -3.28474 -1.92055 0
M  V30 9232 H 829.408 -3.87613 -0.194298 0
M  V30 9233 H 827.509 -2.82788 -2.42615 0
M  V30 9234 H 827.622 -4.5182 -1.5936 0
M  V30 9235 H 825.986 -2.36805 -0.937835 0
M  V30 9236 H 826.769 -3.4134 0.366341 0
M  V30 9237 N 829.214 0.302327 -1.54673 0
M  V30 9238 C 830.444 1.05516 -1.77623 0
M  V30 9239 C 830.852 1.81474 -0.535159 0
M  V30 9240 O 830.195 1.76635 0.504543 0
M  V30 9241 C 830.257 2.08305 -2.93001 0
M  V30 9242 C 829.921 1.51554 -4.31139 0
M  V30 9243 C 830.918 0.946261 -5.11216 0
M  V30 9244 C 828.603 1.55157 -4.77736 0
M  V30 9245 C 830.597 0.420559 -6.36011 0
M  V30 9246 C 828.284 1.022 -6.02494 0
M  V30 9247 C 829.282 0.457461 -6.81466 0
M  V30 9248 O 828.97 -0.064083 -8.03874 0
M  V30 9249 H 828.702 0.318756 -0.59613 0
M  V30 9250 H 831.256 0.347558 -2.02438 0
M  V30 9251 H 829.486 2.82742 -2.63807 0
M  V30 9252 H 831.175 2.69479 -3.03539 0
M  V30 9253 H 831.941 0.911338 -4.76361 0
M  V30 9254 H 827.82 1.98037 -4.16296 0
M  V30 9255 H 831.364 -0.0207298 -6.97597 0
M  V30 9256 H 827.261 1.05406 -6.36836 0
M  V30 9257 H 828.029 0.0493422 -8.18485 0
M  V30 9258 N 830.692 1.47107 0.565454 0
M  V30 9259 C 831.94 1.53005 1.32038 0
M  V30 9260 C 832.261 0.190453 1.94068 0
M  V30 9261 O 831.531 -0.784783 1.79494 0
M  V30 9262 H 830.111 0.563578 0.490294 0
M  V30 9263 H 832.773 1.83351 0.660928 0
M  V30 9264 H 831.869 2.29215 2.11818 0
M  V30 9265 N 832.17 -0.811516 1.35101 0
M  V30 9266 C 833.4 -1.59749 1.31011 0
M  V30 9267 C 833.808 -1.88847 -0.115566 0
M  V30 9268 O 833.151 -1.48854 -1.07649 0
M  V30 9269 C 833.213 -2.95714 2.04435 0
M  V30 9270 C 832.877 -2.89456 3.53645 0
M  V30 9271 C 833.874 -2.63237 4.48333 0
M  V30 9272 C 831.559 -3.08728 3.96222 0
M  V30 9273 C 833.553 -2.56361 5.83573 0
M  V30 9274 C 831.24 -3.01475 5.3156 0
M  V30 9275 C 832.238 -2.75326 6.25048 0
M  V30 9276 O 831.926 -2.68026 7.57903 0
M  V30 9277 H 831.658 -0.502889 0.45175 0
M  V30 9278 H 834.212 -1.01687 1.78462 0
M  V30 9279 H 832.442 -3.55739 1.51613 0
M  V30 9280 H 834.131 -3.56816 1.93487 0
M  V30 9281 H 834.897 -2.48072 4.16756 0
M  V30 9282 H 830.776 -3.28094 3.23845 0
M  V30 9283 H 834.32 -2.35871 6.56514 0
M  V30 9284 H 830.217 -3.16197 5.62752 0
M  V30 9285 H 830.985 -2.8367 7.67772 0
M  V30 9286 N 833.648 -1.19017 -1.03309 0
M  V30 9287 C 834.895 -0.990214 -1.76638 0
M  V30 9288 C 835.223 0.479435 -1.88498 0
M  V30 9289 O 834.478 1.37223 -1.39529 0
M  V30 9290 C 834.777 -1.59927 -3.19622 0
M  V30 9291 C 834.443 -3.09632 -3.27779 0
M  V30 9292 C 833.105 -3.50491 -3.29712 0
M  V30 9293 C 835.457 -4.05644 -3.27264 0
M  V30 9294 C 832.785 -4.85921 -3.28782 0
M  V30 9295 C 835.137 -5.41 -3.27875 0
M  V30 9296 C 833.801 -5.81295 -3.28104 0
M  V30 9297 H 833.071 -0.362345 -0.646364 0
M  V30 9298 H 835.718 -1.48197 -1.21284 0
M  V30 9299 H 834.023 -1.0297 -3.78027 0
M  V30 9300 H 835.72 -1.41989 -3.7502 0
M  V30 9301 H 832.31 -2.77073 -3.26999 0
M  V30 9302 H 836.494 -3.75124 -3.24955 0
M  V30 9303 H 831.75 -5.16427 -3.27281 0
M  V30 9304 H 835.924 -6.15157 -3.26428 0
M  V30 9305 H 833.551 -6.86211 -3.27138 0
M  V30 9306 N 835.127 1.22348 -0.993418 0
M  V30 9307 C 836.059 2.23626 -0.502404 0
M  V30 9308 C 837.072 1.57739 0.402784 0
M  V30 9309 O 838.261 1.77321 0.204835 0
M  V30 9310 C 835.361 3.37647 0.291118 0
M  V30 9311 C 834.534 4.33121 -0.610332 0
M  V30 9312 C 833.593 5.26035 0.131572 0
M  V30 9313 O 832.619 5.67145 -0.483199 0
M  V30 9314 N 833.821 5.63023 1.41371 0
M  V30 9315 H 836.586 2.66385 -1.37329 0
M  V30 9316 H 834.147 1.36653 -0.868196 0
M  V30 9317 H 836.139 3.96792 0.796107 0
M  V30 9318 H 834.709 2.93967 1.0631 0
M  V30 9319 H 833.929 3.72287 -1.29598 0
M  V30 9320 H 835.217 4.93853 -1.22422 0
M  V30 9321 H 834.615 5.31596 1.93449 0
M  V30 9322 H 833.172 6.24582 1.86388 0
M  V30 9323 N 836.605 0.766683 1.37694 0
M  V30 9324 C 837.851 0.329201 2.0011 0
M  V30 9325 C 838.184 -1.09004 1.60723 0
M  V30 9326 O 837.459 -1.74895 0.850989 0
M  V30 9327 C 837.742 0.466989 3.57059 0
M  V30 9328 C 837.595 1.92828 4.06371 0
M  V30 9329 C 838.914 -0.131792 4.39903 0
M  V30 9330 H 836.033 0.12109 0.726984 0
M  V30 9331 H 838.675 0.968779 1.63446 0
M  V30 9332 H 836.825 -0.0775023 3.88423 0
M  V30 9333 H 838.497 2.53208 3.85595 0
M  V30 9334 H 836.74 2.43884 3.58752 0
M  V30 9335 H 837.411 1.97577 5.15429 0
M  V30 9336 H 839.887 0.332731 4.14768 0
M  V30 9337 H 838.763 -0.005217 5.489 0
M  V30 9338 H 839.024 -1.22156 4.24889 0
M  V30 9339 N 838.083 -1.48885 0.516809 0
M  V30 9340 C 839.331 -2.02088 -0.0220166 0
M  V30 9341 C 839.652 -1.39735 -1.36011 0
M  V30 9342 O 838.922 -0.558119 -1.87781 0
M  V30 9343 H 837.502 -0.746917 -0.0111255 0
M  V30 9344 H 840.164 -1.8274 0.677647 0
M  V30 9345 H 839.26 -3.11786 -0.140067 0
M  V30 9346 N 839.561 -0.251338 -1.55583 0
M  V30 9347 C 840.807 0.365823 -2.00083 0
M  V30 9348 C 841.162 1.55242 -1.13656 0
M  V30 9349 O 840.455 1.90624 -0.193108 0
M  V30 9350 C 840.649 0.821186 -3.47838 0
M  V30 9351 C 840.478 -0.319746 -4.48562 0
M  V30 9352 C 839.248 -0.795866 -4.98993 0
M  V30 9353 C 841.446 -1.14825 -5.01318 0
M  V30 9354 N 839.428 -1.90875 -5.83472 0
M  V30 9355 C 840.799 -2.10943 -5.83012 0
M  V30 9356 C 842.854 -1.18431 -4.8361 0
M  V30 9357 C 841.557 -3.10383 -6.48888 0
M  V30 9358 C 843.583 -2.16703 -5.50267 0
M  V30 9359 C 842.945 -3.11557 -6.31753 0
M  V30 9360 H 839.044 0.0996971 -0.775619 0
M  V30 9361 H 841.628 -0.36993 -1.91153 0
M  V30 9362 H 839.799 1.52622 -3.57157 0
M  V30 9363 H 841.531 1.41367 -3.79206 0
M  V30 9364 H 838.286 -0.379242 -4.72079 0
M  V30 9365 H 838.71 -2.46808 -6.30408 0
M  V30 9366 H 843.352 -0.464824 -4.20237 0
M  V30 9367 H 841.07 -3.83277 -7.11424 0
M  V30 9368 H 844.656 -2.20204 -5.38518 0
M  V30 9369 H 843.536 -3.86357 -6.82421 0
M  V30 9370 N 841.039 1.57585 0.0217189 0
M  V30 9371 C 841.987 2.08134 1.03842 0
M  V30 9372 C 842.981 0.996662 1.36978 0
M  V30 9373 O 844.187 1.18149 1.35797 0
M  V30 9374 H 840.562 0.664298 0.352438 0
M  V30 9375 H 842.533 2.92583 0.58634 0
M  V30 9376 C 841.282 2.58218 2.32849 0
M  V30 9377 H 840.605 3.41302 2.08214 0
M  V30 9378 H 842.045 2.97289 3.02316 0
M  V30 9379 C 840.504 1.48664 3.02325 0
M  V30 9380 O 841.034 0.857075 3.9245 0
M  V30 9381 N 839.24 1.21938 2.63779 0
M  V30 9382 H 838.787 1.73319 1.90574 0
M  V30 9383 H 838.745 0.488523 3.10581 0
M  V30 9384 N 842.517 -0.29412 1.54831 0
M  V30 9385 C 843.766 -1.02614 1.73647 0
M  V30 9386 C 844.079 -1.88193 0.533162 0
M  V30 9387 O 845.285 -2.64713 0.603275 0
M  V30 9388 C 843.741 -1.87417 3.07251 0
M  V30 9389 C 843.349 -1.06806 4.35082 0
M  V30 9390 C 845.093 -2.60176 3.35423 0
M  V30 9391 C 843 -1.90926 5.59733 0
M  V30 9392 H 841.93 -0.386834 0.647206 0
M  V30 9393 H 844.581 -0.282789 1.81308 0
M  V30 9394 H 842.963 -2.65765 2.93572 0
M  V30 9395 H 844.137 -0.330226 4.59615 0
M  V30 9396 H 842.452 -0.455979 4.13896 0
M  V30 9397 H 845.049 -3.23476 4.25755 0
M  V30 9398 H 845.392 -3.29365 2.54606 0
M  V30 9399 H 845.925 -1.88871 3.50103 0
M  V30 9400 H 842.664 -1.26194 6.43238 0
M  V30 9401 H 842.184 -2.62363 5.39375 0
M  V30 9402 H 843.863 -2.48807 5.97247 0
M  V30 9403 N 843.995 -1.47404 -0.557645 0
M  V30 9404 C 845.242 -1.54007 -1.31484 0
M  V30 9405 C 845.57 -0.202162 -1.93447 0
M  V30 9406 O 844.825 0.804901 -1.78381 0
M  V30 9407 C 845.124 -2.6061 -2.44575 0
M  V30 9408 C 844.79 -4.03896 -2.00446 0
M  V30 9409 C 843.452 -4.42901 -1.88127 0
M  V30 9410 C 845.804 -4.93804 -1.66754 0
M  V30 9411 C 843.132 -5.6965 -1.40411 0
M  V30 9412 C 845.484 -6.21016 -1.20509 0
M  V30 9413 C 844.148 -6.58903 -1.06786 0
M  V30 9414 H 843.418 -0.563552 -0.481134 0
M  V30 9415 H 846.065 -1.81001 -0.625375 0
M  V30 9416 H 844.37 -2.27371 -3.19076 0
M  V30 9417 H 846.067 -2.62941 -3.02759 0
M  V30 9418 H 842.657 -3.73077 -2.10977 0
M  V30 9419 H 846.841 -4.64369 -1.75144 0
M  V30 9420 H 842.097 -5.97755 -1.2845 0
M  V30 9421 H 846.271 -6.90095 -0.935001 0
M  V30 9422 H 843.898 -7.57008 -0.695891 0
M  V30 9423 N 845.473 0.80434 -1.35529 0
M  V30 9424 C 846.75 1.5486 -1.1949 0
M  V30 9425 C 847.13 2.09897 0.22506 0
M  V30 9426 O 846.478 1.92643 1.22886 0
M  V30 9427 C 846.688 2.65535 -2.26478 0
M  V30 9428 C 848.036 3.33814 -2.62399 0
M  V30 9429 O 849.06 2.75807 -2.25409 0
M  V30 9430 O 847.919 4.38612 -3.26009 0
M  V30 9431 H 845.013 0.68433 -0.464351 0
M  V30 9432 H 847.559 0.844107 -1.47217 0
M  V30 9433 H 846.331 2.22754 -3.21709 0
M  V30 9434 H 845.954 3.43617 -2.00033 0
M  V30 9435 N 846.951 1.19563 1.02676 0
M  V30 9436 C 848.176 1.02556 1.80269 0
M  V30 9437 C 848.601 -0.421056 1.83327 0
M  V30 9438 O 847.959 -1.30279 1.26084 0
M  V30 9439 C 848.007 1.60165 3.23078 0
M  V30 9440 O 847.111 0.832404 4.03912 0
M  V30 9441 H 846.452 0.362354 0.556413 0
M  V30 9442 H 848.982 1.58633 1.29216 0
M  V30 9443 H 848.992 1.6347 3.7382 0
M  V30 9444 H 847.667 2.65454 3.20167 0
M  V30 9445 H 846.244 0.872768 3.62543 0
M  V30 9446 N 848.429 -1.21819 0.999893 0
M  V30 9447 C 849.362 -2.22635 0.500887 0
M  V30 9448 C 850.34 -1.56459 -0.442636 0
M  V30 9449 O 851.524 -1.84902 -0.366551 0
M  V30 9450 C 848.651 -3.37598 -0.273046 0
M  V30 9451 C 847.697 -4.22006 0.617511 0
M  V30 9452 S 848.53 -4.93583 2.07693 0
M  V30 9453 C 849.686 -6.1198 1.31269 0
M  V30 9454 H 849.919 -2.64618 1.35516 0
M  V30 9455 H 847.452 -1.31606 0.807419 0
M  V30 9456 H 849.41 -4.04251 -0.713515 0
M  V30 9457 H 848.071 -2.94108 -1.10268 0
M  V30 9458 H 847.264 -5.03995 0.0216543 0
M  V30 9459 H 846.866 -3.6052 0.99504 0
M  V30 9460 H 849.158 -6.74979 0.583933 0
M  V30 9461 H 850.101 -6.75991 2.10811 0
M  V30 9462 H 850.509 -5.5847 0.822901 0
M  V30 9463 N 849.908 -0.773975 -1.37286 0
M  V30 9464 C 851.157 -0.335977 -1.98882 0
M  V30 9465 C 851.47 1.09416 -1.62134 0
M  V30 9466 O 852.676 1.63366 -2.1685 0
M  V30 9467 C 851.132 -0.549756 -3.55676 0
M  V30 9468 C 850.74 -1.9903 -4.01361 0
M  V30 9469 C 852.484 -0.175493 -4.24137 0
M  V30 9470 C 850.391 -2.15156 -5.50874 0
M  V30 9471 H 849.321 -0.121877 -0.744085 0
M  V30 9472 H 851.972 -0.953419 -1.56787 0
M  V30 9473 H 850.354 0.137175 -3.95762 0
M  V30 9474 H 851.528 -2.71237 -3.72515 0
M  V30 9475 H 849.843 -2.32137 -3.4569 0
M  V30 9476 H 852.44 -0.274463 -5.33995 0
M  V30 9477 H 852.783 0.874524 -4.07011 0
M  V30 9478 H 853.316 -0.815058 -3.89361 0
M  V30 9479 H 850.055 -3.18485 -5.72929 0
M  V30 9480 H 849.575 -1.47435 -5.81397 0
M  V30 9481 H 851.254 -1.95124 -6.16876 0
M  V30 9482 N 851.386 1.48609 -0.524698 0
M  V30 9483 C 852.632 2.02797 0.0113382 0
M  V30 9484 C 852.965 1.40147 1.34433 0
M  V30 9485 O 852.24 0.545368 1.86698 0
M  V30 9486 C 852.523 3.59832 0.138931 0
M  V30 9487 C 852.376 4.32971 -1.21886 0
M  V30 9488 C 853.695 4.3145 0.868265 0
M  V30 9489 H 850.814 0.736995 0.00264645 0
M  V30 9490 H 853.456 1.77388 -0.680704 0
M  V30 9491 H 851.606 3.81612 0.72834 0
M  V30 9492 H 853.278 4.22624 -1.84897 0
M  V30 9493 H 851.521 3.94597 -1.80211 0
M  V30 9494 H 852.192 5.41279 -1.08263 0
M  V30 9495 H 854.668 4.14468 0.368145 0
M  V30 9496 H 853.544 5.41025 0.926428 0
M  V30 9497 H 853.805 3.98358 1.91737 0
M  V30 9498 N 852.864 0.259585 1.55447 0
M  V30 9499 C 854.111 -0.361607 1.99245 0
M  V30 9500 C 854.439 -1.57017 1.14787 0
M  V30 9501 O 853.694 -1.94658 0.201724 0
M  V30 9502 C 853.993 -0.802727 3.48269 0
M  V30 9503 C 853.659 0.299472 4.49904 0
M  V30 9504 C 852.321 0.602157 4.77418 0
M  V30 9505 C 854.673 1.04295 5.10658 0
M  V30 9506 C 852.001 1.65217 5.62957 0
M  V30 9507 C 854.353 2.08257 5.97337 0
M  V30 9508 C 853.017 2.39177 6.23178 0
M  V30 9509 H 852.287 -0.132322 0.72909 0
M  V30 9510 H 854.934 0.370059 1.8789 0
M  V30 9511 H 853.239 -1.61381 3.5702 0
M  V30 9512 H 854.936 -1.29385 3.79553 0
M  V30 9513 H 851.526 0.0534256 4.28567 0
M  V30 9514 H 855.71 0.822358 4.89439 0
M  V30 9515 H 850.966 1.89692 5.81229 0
M  V30 9516 H 855.14 2.6635 6.43452 0
M  V30 9517 H 852.767 3.20677 6.89253 0
M  V30 9518 N 854.342 -1.57594 -0.0133615 0
M  V30 9519 C 855.292 -2.04048 -1.01726 0
M  V30 9520 C 856.276 -0.932682 -1.3111 0
M  V30 9521 O 857.468 -1.19652 -1.30432 0
M  V30 9522 C 854.597 -2.53637 -2.31351 0
M  V30 9523 C 853.683 -3.71269 -2.04989 0
M  V30 9524 N 854.074 -4.83436 -1.48739 0
M  V30 9525 C 852.372 -3.78943 -2.35198 0
M  V30 9526 C 853.073 -5.64961 -1.38542 0
M  V30 9527 N 852.049 -5.10554 -1.86643 0
M  V30 9528 H 855.851 -2.88188 -0.576623 0
M  V30 9529 H 853.365 -1.60912 -0.219344 0
M  V30 9530 H 855.362 -2.85186 -3.04096 0
M  V30 9531 H 854.022 -1.7091 -2.76079 0
M  V30 9532 H 855.033 -5.04558 -1.16798 0
M  V30 9533 H 851.71 -3.07047 -2.82893 0
M  V30 9534 H 853.1 -6.65092 -0.954075 0
M  V30 9535 N 855.82 0.285905 -1.54985 0
M  V30 9536 C 857.068 1.01718 -1.74636 0
M  V30 9537 C 857.389 1.87277 -0.543342 0
M  V30 9538 O 856.659 1.90847 0.442078 0
M  V30 9539 H 855.239 0.378549 -0.643979 0
M  V30 9540 H 857.901 0.313247 -1.92366 0
M  V30 9541 H 856.997 1.66159 -2.64192 0
M  V30 9542 N 857.298 1.47698 0.54982 0
M  V30 9543 C 858.228 1.63622 1.66583 0
M  V30 9544 C 859.209 0.485477 1.63025 0
M  V30 9545 O 860.394 0.715692 1.80531 0
M  V30 9546 C 857.524 1.65721 3.05211 0
M  V30 9547 C 856.478 2.80097 3.2362 0
M  V30 9548 C 855.804 2.67272 4.63109 0
M  V30 9549 C 857.104 4.21612 3.08286 0
M  V30 9550 H 858.798 2.57049 1.53512 0
M  V30 9551 H 856.344 1.23705 0.737099 0
M  V30 9552 H 858.297 1.75451 3.83138 0
M  V30 9553 H 857.021 0.688593 3.19258 0
M  V30 9554 H 855.68 2.69889 2.48104 0
M  V30 9555 H 855.328 1.68422 4.73965 0
M  V30 9556 H 855.028 3.44008 4.76374 0
M  V30 9557 H 856.552 2.78942 5.43161 0
M  V30 9558 H 857.966 4.32758 3.76024 0
M  V30 9559 H 856.363 4.99193 3.33057 0
M  V30 9560 H 857.433 4.39462 2.04942 0
M  V30 9561 N 858.776 -0.797141 1.35954 0
M  V30 9562 C 860.025 -1.54983 1.29086 0
M  V30 9563 C 860.338 -1.95167 -0.130003 0
M  V30 9564 O 861.544 -2.69596 -0.32101 0
M  V30 9565 C 860 -2.79738 2.26439 0
M  V30 9566 C 859.608 -2.46753 3.73921 0
M  V30 9567 C 861.352 -3.57733 2.28533 0
M  V30 9568 C 859.259 -3.67858 4.63071 0
M  V30 9569 H 858.189 -0.581766 0.479651 0
M  V30 9570 H 860.84 -0.87541 1.61273 0
M  V30 9571 H 859.222 -3.48939 1.87236 0
M  V30 9572 H 860.396 -1.85499 4.21814 0
M  V30 9573 H 858.711 -1.81985 3.74527 0
M  V30 9574 H 861.308 -4.47699 2.92351 0
M  V30 9575 H 861.651 -3.95754 1.29169 0
M  V30 9576 H 862.184 -2.95504 2.66313 0
M  V30 9577 H 858.923 -3.34939 5.63468 0
M  V30 9578 H 858.443 -4.28305 4.19898 0
M  V30 9579 H 860.122 -4.34977 4.78961 0
M  V30 9580 N 860.254 -1.20106 -1.0204 0
M  V30 9581 C 861.164 -0.962051 -2.13967 0
M  V30 9582 C 862.18 0.0808053 -1.73812 0
M  V30 9583 O 863.356 -0.105774 -2.01122 0
M  V30 9584 C 860.421 -0.513108 -3.42882 0
M  V30 9585 C 859.482 -1.62636 -3.97301 0
M  V30 9586 C 858.715 -1.19875 -5.20063 0
M  V30 9587 O 858.938 -0.0658423 -5.70362 0
M  V30 9588 O 857.872 -2.00467 -5.67536 0
M  V30 9589 H 861.698 -1.8991 -2.36998 0
M  V30 9590 H 859.283 -0.984608 -1.12365 0
M  V30 9591 H 861.165 -0.271797 -4.20523 0
M  V30 9592 H 859.84 0.395402 -3.21276 0
M  V30 9593 H 858.747 -1.92192 -3.20957 0
M  V30 9594 H 860.08 -2.51174 -4.23288 0
M  V30 9595 N 861.732 1.21287 -1.00634 0
M  V30 9596 C 862.662 2.25973 -0.588089 0
M  V30 9597 C 863.643 1.65527 0.391764 0
M  V30 9598 O 864.828 1.92179 0.279452 0
M  V30 9599 C 861.958 3.47197 0.0847336 0
M  V30 9600 C 860.912 4.20168 -0.815039 0
M  V30 9601 C 860.238 5.34699 -0.00855393 0
M  V30 9602 C 861.538 4.77416 -2.11828 0
M  V30 9603 H 863.232 2.61212 -1.46317 0
M  V30 9604 H 860.778 1.25563 -0.704985 0
M  V30 9605 H 862.731 4.19602 0.388821 0
M  V30 9606 H 861.455 3.11092 0.994456 0
M  V30 9607 H 860.114 3.49614 -1.10297 0
M  V30 9608 H 859.762 4.94837 0.902499 0
M  V30 9609 H 859.462 5.84449 -0.607664 0
M  V30 9610 H 860.986 6.09914 0.289317 0
M  V30 9611 H 862.4 5.41694 -1.87725 0
M  V30 9612 H 860.797 5.37561 -2.66736 0
M  V30 9613 H 861.867 3.96724 -2.78816 0
M  V30 9614 N 863.21 0.781244 1.36873 0
M  V30 9615 C 864.45 0.355185 2.0129 0
M  V30 9616 C 864.814 -1.05115 1.6067 0
M  V30 9617 O 866.015 -1.57785 2.17618 0
M  V30 9618 C 864.286 0.504587 3.5382 0
M  V30 9619 S 865.845 0.165196 4.38489 0
M  V30 9620 H 862.663 0.136133 0.697846 0
M  V30 9621 H 865.265 1.01794 1.66908 0
M  V30 9622 H 863.969 1.52857 3.80871 0
M  V30 9623 H 863.5 -0.174392 3.93013 0
M  V30 9624 H 865.515 -1.03605 4.85263 0
M  V30 9625 N 864.689 -1.48329 0.532571 0
M  V30 9626 C 865.619 -2.32485 -0.217511 0
M  V30 9627 C 866.6 -1.42255 -0.932598 0
M  V30 9628 O 867.785 -1.7114 -0.917873 0
M  V30 9629 C 864.915 -3.23509 -1.26329 0
M  V30 9630 C 863.869 -4.22784 -0.666191 0
M  V30 9631 C 863.195 -5.0296 -1.81482 0
M  V30 9632 C 864.495 -5.21031 0.363813 0
M  V30 9633 H 866.189 -2.95445 0.485014 0
M  V30 9634 H 863.735 -1.42075 0.234694 0
M  V30 9635 H 865.688 -3.81211 -1.79601 0
M  V30 9636 H 864.412 -2.58554 -1.99543 0
M  V30 9637 H 863.071 -3.66272 -0.15498 0
M  V30 9638 H 862.719 -4.34427 -2.5354 0
M  V30 9639 H 862.419 -5.70154 -1.4212 0
M  V30 9640 H 863.943 -5.63514 -2.35126 0
M  V30 9641 H 865.357 -5.73241 -0.0819079 0
M  V30 9642 H 863.754 -5.96292 0.674956 0
M  V30 9643 H 864.824 -4.6801 1.26865 0
M  V30 9644 N 866.167 -0.267825 -1.55308 0
M  V30 9645 C 867.13 0.60965 -2.20943 0
M  V30 9646 C 868.13 1.0869 -1.18504 0
M  V30 9647 O 869.32 0.988248 -1.43455 0
M  V30 9648 C 866.452 1.84027 -2.86961 0
M  V30 9649 H 867.645 0.0366806 -2.99878 0
M  V30 9650 H 865.198 -0.0183941 -1.56289 0
M  V30 9651 H 865.933 2.45394 -2.1202 0
M  V30 9652 H 865.718 1.50605 -3.62023 0
M  V30 9653 H 867.208 2.46442 -3.37129 0
M  V30 9654 N 867.645 1.57599 0.00500368 0
M  V30 9655 C 868.593 2.09223 1.01628 0
M  V30 9656 C 869.587 1.01113 1.35913 0
M  V30 9657 O 870.793 1.19583 1.34536 0
M  V30 9658 H 867.168 0.667999 0.345372 0
M  V30 9659 H 869.139 2.93188 0.555274 0
M  V30 9660 C 867.888 2.60674 2.30097 0
M  V30 9661 H 867.211 3.43491 2.04582 0
M  V30 9662 H 868.651 3.00479 2.99146 0
M  V30 9663 C 867.11 1.51862 3.00731 0
M  V30 9664 O 867.64 0.898651 3.91519 0
M  V30 9665 N 865.846 1.24729 2.62471 0
M  V30 9666 H 865.393 1.7533 1.88725 0
M  V30 9667 H 865.351 0.521437 3.10046 0
M  V30 9668 N 869.123 -0.277682 1.55134 0
M  V30 9669 C 870.369 -1.0114 1.7578 0
M  V30 9670 C 870.702 -1.86109 0.554719 0
M  V30 9671 O 869.977 -1.89275 -0.447813 0
M  V30 9672 C 870.26 -1.89789 3.06027 0
M  V30 9673 C 870.113 -1.07844 4.3668 0
M  V30 9674 C 871.432 -2.88577 3.32282 0
M  V30 9675 H 868.551 -0.366277 0.639539 0
M  V30 9676 H 871.193 -0.284155 1.87863 0
M  V30 9677 H 869.343 -2.51796 2.95856 0
M  V30 9678 H 871.015 -0.479432 4.58802 0
M  V30 9679 H 869.258 -0.381764 4.32117 0
M  V30 9680 H 869.929 -1.73179 5.24131 0
M  V30 9681 H 872.405 -2.36702 3.42215 0
M  V30 9682 H 871.281 -3.47749 4.2469 0
M  V30 9683 H 871.542 -3.63458 2.51696 0
M  V30 9684 N 870.601 -1.47988 -0.541979 0
M  V30 9685 C 871.564 -1.61148 -1.62984 0
M  V30 9686 C 872.564 -0.48553 -1.53295 0
M  V30 9687 O 873.754 -0.751012 -1.5718 0
M  V30 9688 C 870.886 -1.57038 -3.02576 0
M  V30 9689 H 872.079 -2.58138 -1.52659 0
M  V30 9690 H 869.632 -1.36405 -0.763106 0
M  V30 9691 H 870.367 -0.614807 -3.18419 0
M  V30 9692 H 870.152 -2.38769 -3.11018 0
M  V30 9693 H 871.642 -1.69416 -3.81691 0
M  V30 9694 N 872.079 0.78992 -1.36375 0
M  V30 9695 C 873.327 1.54472 -1.30319 0
M  V30 9696 C 873.648 1.94647 0.117338 0
M  V30 9697 O 872.918 1.64906 1.05748 0
M  V30 9698 H 871.498 0.572879 -0.479394 0
M  V30 9699 H 874.16 0.941245 -1.70665 0
M  V30 9700 H 873.256 2.45252 -1.93024 0
M  V30 9701 N 873.557 1.20646 1.01402 0
M  V30 9702 C 874.49 0.900926 2.09663 0
M  V30 9703 C 875.468 -0.14801 1.61925 0
M  V30 9704 O 876.652 -0.0210235 1.88488 0
M  V30 9705 C 873.779 0.351097 3.36875 0
M  V30 9706 C 872.825 1.38142 4.03508 0
M  V30 9707 S 873.658 2.94741 4.47089 0
M  V30 9708 C 874.814 2.41341 5.77499 0
M  V30 9709 H 875.047 1.81773 2.35257 0
M  V30 9710 H 872.58 1.03521 1.14555 0
M  V30 9711 H 874.538 0.0404201 4.1048 0
M  V30 9712 H 873.199 -0.544255 3.09349 0
M  V30 9713 H 872.392 0.94614 4.9504 0
M  V30 9714 H 871.994 1.63971 3.36139 0
M  V30 9715 H 874.286 1.81263 6.52802 0
M  V30 9716 H 875.229 3.31278 6.25828 0
M  V30 9717 H 875.637 1.83374 5.33886 0
M  V30 9718 N 875.035 -1.20752 1.01276 0
M  V30 9719 C 875.998 -2.2162 0.584583 0
M  V30 9720 C 876.998 -1.57094 -0.343215 0
M  V30 9721 O 878.188 -1.73696 -0.132433 0
M  V30 9722 C 875.32 -3.40583 -0.146872 0
M  V30 9723 H 876.513 -2.61015 1.47686 0
M  V30 9724 H 874.066 -1.34148 0.802123 0
M  V30 9725 H 874.801 -3.06686 -1.05424 0
M  V30 9726 H 874.586 -3.88642 0.51958 0
M  V30 9727 H 876.076 -4.15339 -0.433924 0
M  V30 9728 N 876.513 -0.788492 -1.36457 0
M  V30 9729 C 877.443 -0.200468 -2.32638 0
M  V30 9730 C 878.424 0.664031 -1.56603 0
M  V30 9731 O 879.609 0.598045 -1.84762 0
M  V30 9732 C 876.739 0.666274 -3.40849 0
M  V30 9733 C 875.693 -0.0982574 -4.27887 0
M  V30 9734 C 875.019 0.889018 -5.27258 0
M  V30 9735 C 876.319 -1.28692 -5.06197 0
M  V30 9736 H 878.013 -1.00399 -2.82065 0
M  V30 9737 H 875.559 -0.484237 -1.35614 0
M  V30 9738 H 877.512 1.08757 -4.07124 0
M  V30 9739 H 876.236 1.50249 -2.89987 0
M  V30 9740 H 874.895 -0.500525 -3.63167 0
M  V30 9741 H 874.543 1.72024 -4.7267 0
M  V30 9742 H 874.243 0.381909 -5.86358 0
M  V30 9743 H 875.767 1.30891 -5.96406 0
M  V30 9744 H 877.181 -0.941429 -5.65517 0
M  V30 9745 H 875.578 -1.72726 -5.74705 0
M  V30 9746 H 876.648 -2.08273 -4.37893 0
M  V30 9747 N 877.991 1.48044 -0.54043 0
M  V30 9748 C 878.921 2.32597 0.205178 0
M  V30 9749 C 879.902 1.42748 0.925041 0
M  V30 9750 O 881.087 1.71624 0.908784 0
M  V30 9751 C 878.217 3.24175 1.24612 0
M  V30 9752 C 877.171 4.23131 0.64376 0
M  V30 9753 C 876.497 5.03915 1.78812 0
M  V30 9754 C 877.797 5.20831 -0.39144 0
M  V30 9755 H 879.491 2.95184 -0.500676 0
M  V30 9756 H 877.037 1.41948 -0.242225 0
M  V30 9757 H 878.99 3.82158 1.77576 0
M  V30 9758 H 877.714 2.59608 1.98169 0
M  V30 9759 H 876.373 3.66349 0.135554 0
M  V30 9760 H 876.021 4.35765 2.51232 0
M  V30 9761 H 875.721 5.709 1.39094 0
M  V30 9762 H 877.245 5.64753 2.32134 0
M  V30 9763 H 878.659 5.73277 0.0515064 0
M  V30 9764 H 877.056 5.95926 -0.706569 0
M  V30 9765 H 878.126 4.6733 -1.29345 0
M  V30 9766 N 879.47 0.276058 1.55163 0
M  V30 9767 C 880.886 -0.0780579 1.59409 0
M  V30 9768 C 881.086 -1.54521 1.29327 0
M  V30 9769 O 880.142 -2.29422 1.05459 0
M  V30 9770 C 881.455 0.297422 2.99225 0
M  V30 9771 C 883.003 0.244117 3.12047 0
M  V30 9772 C 883.478 0.594051 4.54131 0
M  V30 9773 N 884.969 0.54564 4.59975 0
M  V30 9774 C 885.704 0.789192 5.67943 0
M  V30 9775 N 885.2 1.09741 6.84053 0
M  V30 9776 N 886.993 0.717926 5.57496 0
M  V30 9777 H 879.144 1.23251 1.72982 0
M  V30 9778 H 881.407 0.497988 0.806667 0
M  V30 9779 H 881.113 1.31782 3.26077 0
M  V30 9780 H 880.987 -0.361286 3.75466 0
M  V30 9781 H 883.374 -0.766992 2.84958 0
M  V30 9782 H 883.455 0.937097 2.38017 0
M  V30 9783 H 883.099 1.60285 4.81945 0
M  V30 9784 H 883.029 -0.120728 5.26462 0
M  V30 9785 H 885.52 0.317334 3.76565 0
M  V30 9786 H 885.833 1.26989 7.62295 0
M  V30 9787 H 884.178 1.13519 6.85666 0
M  V30 9788 H 887.369 0.47697 4.65664 0
M  V30 9789 H 887.542 0.911118 6.41563 0
M  V30 9790 N 880.948 -1.576 0.00335426 0
M  V30 9791 C 881.878 -2.11668 -0.985839 0
M  V30 9792 C 882.859 -1.02661 -1.35627 0
M  V30 9793 O 884.044 -1.30361 -1.43943 0
M  V30 9794 C 881.174 -2.62273 -2.27662 0
M  V30 9795 C 880.128 -3.75837 -2.0477 0
M  V30 9796 C 879.454 -4.12769 -3.39891 0
M  V30 9797 C 880.754 -5.02975 -1.40759 0
M  V30 9798 H 882.448 -2.9457 -0.535637 0
M  V30 9799 H 879.994 -1.41702 -0.256204 0
M  V30 9800 H 881.947 -2.98727 -2.97221 0
M  V30 9801 H 880.671 -1.76498 -2.74802 0
M  V30 9802 H 879.33 -3.39782 -1.37636 0
M  V30 9803 H 878.978 -3.24013 -3.8474 0
M  V30 9804 H 878.678 -4.89281 -3.25389 0
M  V30 9805 H 880.202 -4.51784 -4.1076 0
M  V30 9806 H 881.616 -5.37179 -2.00279 0
M  V30 9807 H 880.013 -5.84315 -1.36734 0
M  V30 9808 H 881.083 -4.83431 -0.377218 0
M  V30 9809 N 882.426 0.269451 -1.5528 0
M  V30 9810 C 883.673 1.00058 -1.76053 0
M  V30 9811 C 884.001 1.86156 -0.563592 0
M  V30 9812 O 883.256 1.90366 0.453806 0
M  V30 9813 C 883.555 1.91 -3.02082 0
M  V30 9814 C 883.221 1.20623 -4.34466 0
M  V30 9815 C 881.883 1.01165 -4.70446 0
M  V30 9816 C 884.235 0.705695 -5.164 0
M  V30 9817 C 881.563 0.303865 -5.85913 0
M  V30 9818 C 883.915 0.0114838 -6.32599 0
M  V30 9819 C 882.579 -0.19478 -6.67216 0
M  V30 9820 H 881.849 0.366138 -0.644223 0
M  V30 9821 H 884.496 0.272563 -1.8955 0
M  V30 9822 H 882.801 2.70435 -2.835 0
M  V30 9823 H 884.498 2.47698 -3.15352 0
M  V30 9824 H 881.088 1.36781 -4.06188 0
M  V30 9825 H 885.272 0.84364 -4.89077 0
M  V30 9826 H 880.528 0.133368 -6.11255 0
M  V30 9827 H 884.702 -0.384111 -6.9534 0
M  V30 9828 H 882.329 -0.745201 -7.56539 0
M  V30 9829 N 883.904 1.48273 0.534124 0
M  V30 9830 C 885.32 1.34302 0.862272 0
M  V30 9831 C 885.52 0.350902 1.98421 0
M  V30 9832 O 884.576 -0.229364 2.51456 0
M  V30 9833 C 885.889 2.74227 1.23371 0
M  V30 9834 C 887.437 2.82684 1.34383 0
M  V30 9835 C 887.912 4.23301 1.74871 0
M  V30 9836 N 889.403 4.25954 1.81981 0
M  V30 9837 C 890.138 5.31693 2.14686 0
M  V30 9838 N 889.634 6.47714 2.45844 0
M  V30 9839 N 891.427 5.19084 2.15657 0
M  V30 9840 H 883.578 2.11397 -0.206215 0
M  V30 9841 H 885.841 0.947537 -0.0296116 0
M  V30 9842 H 885.547 3.48368 0.482967 0
M  V30 9843 H 885.421 3.07485 2.18478 0
M  V30 9844 H 887.808 2.08801 2.08534 0
M  V30 9845 H 887.889 2.5305 0.374063 0
M  V30 9846 H 887.533 4.97699 1.01282 0
M  V30 9847 H 887.463 4.50376 2.7289 0
M  V30 9848 H 889.954 3.42266 1.60196 0
M  V30 9849 H 890.267 7.2414 2.69892 0
M  V30 9850 H 888.612 6.50995 2.43372 0
M  V30 9851 H 891.803 4.27463 1.9077 0
M  V30 9852 H 891.976 6.01592 2.40813 0
M  V30 9853 N 885.382 -0.782676 1.36792 0
M  V30 9854 C 886.315 -1.90241 1.2603 0
M  V30 9855 C 887.293 -1.61969 0.143055 0
M  V30 9856 O 888.477 -1.85843 0.315366 0
M  V30 9857 C 885.604 -3.25218 0.946082 0
M  V30 9858 C 884.65 -3.72414 2.0787 0
M  V30 9859 S 885.483 -3.87376 3.69729 0
M  V30 9860 C 886.639 -5.25219 3.40435 0
M  V30 9861 H 886.872 -1.99079 2.20805 0
M  V30 9862 H 884.405 -0.942625 1.22286 0
M  V30 9863 H 886.363 -4.03183 0.771612 0
M  V30 9864 H 885.024 -3.14096 0.0159991 0
M  V30 9865 H 884.217 -4.7024 1.81358 0
M  V30 9866 H 883.819 -3.01519 2.21274 0
M  V30 9867 H 886.111 -6.10025 2.94746 0
M  V30 9868 H 887.054 -5.56738 4.37549 0
M  V30 9869 H 887.462 -4.92638 2.75622 0
M  V30 9870 N 886.86 -1.21182 -1.00761 0
M  V30 9871 C 887.79 -0.992773 -2.11344 0
M  V30 9872 C 888.771 0.0813618 -1.69905 0
M  V30 9873 O 889.956 -0.0779503 -1.94043 0
M  V30 9874 C 887.086 -0.553826 -3.42856 0
M  V30 9875 C 886.04 -1.57223 -3.98077 0
M  V30 9876 C 885.366 -0.989605 -5.25463 0
M  V30 9877 C 886.666 -2.95839 -4.30438 0
M  V30 9878 H 888.36 -1.91766 -2.29927 0
M  V30 9879 H 885.906 -0.923426 -1.10494 0
M  V30 9880 H 887.859 -0.387771 -4.19612 0
M  V30 9881 H 886.583 0.406702 -3.24058 0
M  V30 9882 H 885.242 -1.7258 -3.23437 0
M  V30 9883 H 884.89 -0.0208743 -5.02996 0
M  V30 9884 H 884.59 -1.66984 -5.63374 0
M  V30 9885 H 886.114 -0.834815 -6.04866 0
M  V30 9886 H 887.528 -2.8394 -4.98047 0
M  V30 9887 H 885.925 -3.60851 -4.79486 0
M  V30 9888 H 886.995 -3.46882 -3.38823 0
M  V30 9889 N 888.338 1.20213 -1.01915 0
M  V30 9890 C 889.754 1.41696 -0.734459 0
M  V30 9891 C 889.954 1.89504 0.684867 0
M  V30 9892 O 889.01 2.06556 1.45227 0
M  V30 9893 C 890.323 2.43644 -1.76233 0
M  V30 9894 C 891.871 2.57406 -1.78076 0
M  V30 9895 C 892.346 3.626 -2.79796 0
M  V30 9896 N 893.837 3.70086 -2.78551 0
M  V30 9897 C 894.572 4.51145 -3.53915 0
M  V30 9898 N 894.068 5.35988 -4.38963 0
M  V30 9899 N 895.861 4.45702 -3.425 0
M  V30 9900 H 888.012 0.874976 -1.93541 0
M  V30 9901 H 890.275 0.446647 -0.836188 0
M  V30 9902 H 889.981 2.15519 -2.77929 0
M  V30 9903 H 889.855 3.42672 -1.57657 0
M  V30 9904 H 892.242 2.8486 -0.770634 0
M  V30 9905 H 892.323 1.58565 -2.00725 0
M  V30 9906 H 891.967 3.35889 -3.80973 0
M  V30 9907 H 891.897 4.61069 -2.54407 0
M  V30 9908 H 894.388 3.09484 -2.1686 0
M  V30 9909 H 894.701 5.94932 -4.9323 0
M  V30 9910 H 893.046 5.35482 -4.4304 0
M  V30 9911 H 896.237 3.78456 -2.75478 0
M  V30 9912 H 896.41 5.08637 -4.01487 0
M  V30 9913 N 889.816 0.795718 1.36037 0
M  V30 9914 C 891.065 0.367575 1.98322 0
M  V30 9915 C 891.378 -1.06823 1.63854 0
M  V30 9916 O 892.584 -1.59895 2.19421 0
M  V30 9917 C 891.04 0.606272 3.54757 0
M  V30 9918 C 890.648 2.0539 3.98144 0
M  V30 9919 C 892.392 0.242947 4.23804 0
M  V30 9920 C 890.299 2.23893 5.47381 0
M  V30 9921 H 889.229 0.133699 0.742052 0
M  V30 9922 H 891.88 0.978242 1.5525 0
M  V30 9923 H 890.262 -0.0741957 3.9593 0
M  V30 9924 H 891.436 2.77129 3.68152 0
M  V30 9925 H 889.751 2.37607 3.41953 0
M  V30 9926 H 892.348 0.359382 5.33491 0
M  V30 9927 H 892.691 -0.809661 4.08351 0
M  V30 9928 H 893.224 0.876899 3.88015 0
M  V30 9929 H 889.963 3.27559 5.6779 0
M  V30 9930 H 889.483 1.56666 5.78978 0
M  V30 9931 H 891.162 2.04914 6.13693 0
M  V30 9932 N 891.294 -1.47756 0.548274 0
M  V30 9933 C 892.541 -2.02489 0.0208955 0
M  V30 9934 C 892.869 -1.42356 -1.32533 0
M  V30 9935 O 892.124 -0.565448 -1.87353 0
M  V30 9936 C 892.423 -3.5716 -0.131069 0
M  V30 9937 C 892.089 -4.36169 1.14313 0
M  V30 9938 C 890.751 -4.57476 1.4923 0
M  V30 9939 C 893.103 -4.81801 1.9879 0
M  V30 9940 C 890.431 -5.21662 2.68487 0
M  V30 9941 C 892.783 -5.47303 3.17242 0
M  V30 9942 C 891.447 -5.66844 3.52483 0
M  V30 9943 H 890.717 -0.740961 0.00764621 0
M  V30 9944 H 893.364 -1.77531 0.717987 0
M  V30 9945 H 891.669 -3.8106 -0.911063 0
M  V30 9946 H 893.366 -3.9715 -0.55433 0
M  V30 9947 H 889.956 -4.19858 0.861235 0
M  V30 9948 H 894.14 -4.65126 1.73123 0
M  V30 9949 H 889.396 -5.34987 2.95971 0
M  V30 9950 H 893.57 -5.81626 3.82994 0
M  V30 9951 H 891.197 -6.16352 4.44988 0
M  V30 9952 N 892.772 -0.284283 -1.55015 0
M  V30 9953 C 893.719 0.599194 -2.22886 0
M  V30 9954 C 894.689 1.14264 -1.20553 0
M  V30 9955 O 895.874 1.19025 -1.49123 0
M  V30 9956 C 893.014 1.77317 -2.96062 0
M  V30 9957 C 892.127 1.26271 -4.13134 0
M  V30 9958 C 891.262 2.39922 -4.73931 0
M  V30 9959 C 890.301 1.85925 -5.8318 0
M  V30 9960 N 889.438 2.93084 -6.38002 0
M  V30 9961 H 894.278 0.0137816 -2.97997 0
M  V30 9962 H 891.815 -0.00496503 -1.47099 0
M  V30 9963 H 893.773 2.46339 -3.36709 0
M  V30 9964 H 892.403 2.33047 -2.23358 0
M  V30 9965 H 891.455 0.465296 -3.77544 0
M  V30 9966 H 892.767 0.827284 -4.91892 0
M  V30 9967 H 891.921 3.1692 -5.17346 0
M  V30 9968 H 890.66 2.86784 -3.9447 0
M  V30 9969 H 889.665 1.07409 -5.39206 0
M  V30 9970 H 890.89 1.39987 -6.64515 0
M  V30 9971 H 888.836 3.3931 -5.61431 0
M  V30 9972 H 888.753 2.53986 -7.12058 0
M  V30 9973 H 890.021 3.7003 -6.86075 0
M  V30 9974 N 894.251 1.57596 -0.0117121 0
M  V30 9975 C 895.181 2.12188 0.9746 0
M  V30 9976 C 896.162 1.03379 1.35081 0
M  V30 9977 O 897.347 1.31123 1.4325 0
M  V30 9978 C 894.477 2.63477 2.26268 0
M  V30 9979 C 893.431 3.76917 2.02774 0
M  V30 9980 C 892.757 4.14566 3.37697 0
M  V30 9981 C 894.057 5.03715 1.38089 0
M  V30 9982 H 895.751 2.9485 0.520007 0
M  V30 9983 H 893.297 1.41836 0.248685 0
M  V30 9984 H 895.25 3.00299 2.95633 0
M  V30 9985 H 893.974 1.77953 2.73862 0
M  V30 9986 H 892.633 3.40507 1.35832 0
M  V30 9987 H 892.281 3.26048 3.83016 0
M  V30 9988 H 891.981 4.91 3.22789 0
M  V30 9989 H 893.505 4.53956 4.08358 0
M  V30 9990 H 894.919 5.38233 1.97428 0
M  V30 9991 H 893.316 5.85032 1.33634 0
M  V30 9992 H 894.386 4.83624 0.351575 0
M  V30 9993 N 895.729 -0.261212 1.5542 0
M  V30 9994 C 896.977 -0.989272 1.76232 0
M  V30 9995 C 897.298 -1.86389 0.573067 0
M  V30 9996 O 896.568 -1.91526 -0.41166 0
M  V30 9997 H 895.148 -0.368256 0.64992 0
M  V30 9998 H 897.81 -0.282603 1.9284 0
M  V30 9999 H 896.906 -1.61935 2.66802 0
M  V30 10000 N 897.207 -1.48554 -0.526253 0
M  V30 10001 C 898.154 -1.63354 -1.63046 0
M  V30 10002 C 899.124 -0.475509 -1.59148 0
M  V30 10003 O 900.309 -0.699453 -1.77517 0
M  V30 10004 C 897.449 -1.68271 -3.01295 0
M  V30 10005 C 896.562 -2.95207 -3.15399 0
M  V30 10006 C 895.697 -2.91262 -4.4423 0
M  V30 10007 C 894.736 -4.12886 -4.51876 0
M  V30 10008 N 893.873 -4.06996 -5.721 0
M  V30 10009 H 898.713 -2.57649 -1.49737 0
M  V30 10010 H 896.25 -1.27769 -0.728938 0
M  V30 10011 H 898.208 -1.69104 -3.81392 0
M  V30 10012 H 896.838 -0.774641 -3.13367 0
M  V30 10013 H 895.89 -3.04102 -2.2853 0
M  V30 10014 H 897.202 -3.85187 -3.1691 0
M  V30 10015 H 896.356 -2.90516 -5.32621 0
M  V30 10016 H 895.095 -1.99016 -4.45246 0
M  V30 10017 H 894.1 -4.13902 -3.61891 0
M  V30 10018 H 895.325 -5.06294 -4.52596 0
M  V30 10019 H 893.271 -3.17573 -5.74006 0
M  V30 10020 H 893.188 -4.90685 -5.75121 0
M  V30 10021 H 894.456 -4.10315 -6.62768 0
M  V30 10022 N 898.685 0.775411 -1.37205 0
M  V30 10023 C 899.915 1.56219 -1.352 0
M  V30 10024 C 900.323 1.89087 0.065456 0
M  V30 10025 O 899.666 1.51655 1.03665 0
M  V30 10026 C 899.728 2.9019 -2.12203 0
M  V30 10027 C 899.392 2.79978 -3.61195 0
M  V30 10028 C 900.389 2.51258 -4.55154 0
M  V30 10029 C 898.074 2.98115 -4.04268 0
M  V30 10030 C 900.068 2.40798 -5.90165 0
M  V30 10031 C 897.755 2.87276 -5.39366 0
M  V30 10032 C 898.753 2.58657 -6.32128 0
M  V30 10033 O 898.441 2.47838 -7.64743 0
M  V30 10034 H 898.173 0.490735 -0.464925 0
M  V30 10035 H 900.727 0.969201 -1.81096 0
M  V30 10036 H 898.957 3.51594 -1.60992 0
M  V30 10037 H 900.646 3.51561 -2.02879 0
M  V30 10038 H 901.412 2.36935 -4.23186 0
M  V30 10039 H 897.291 3.19392 -3.3243 0
M  V30 10040 H 900.835 2.18381 -6.62537 0
M  V30 10041 H 896.732 3.01166 -5.70937 0
M  V30 10042 H 897.5 2.63215 -7.75023 0
M  V30 10043 N 900.163 1.21714 1.00117 0
M  V30 10044 C 901.409 1.04829 1.74306 0
M  V30 10045 C 901.764 -0.413387 1.87907 0
M  V30 10046 O 901.057 -1.30258 1.40512 0
M  V30 10047 C 901.251 1.68345 3.15269 0
M  V30 10048 C 901.08 3.20537 3.15414 0
M  V30 10049 C 899.85 3.896 3.21776 0
M  V30 10050 C 902.048 4.17576 3.00224 0
M  V30 10051 N 900.03 5.28949 3.11587 0
M  V30 10052 C 901.401 5.43701 2.97974 0
M  V30 10053 C 903.456 4.08575 2.84554 0
M  V30 10054 C 902.159 6.61861 2.8166 0
M  V30 10055 C 904.185 5.26375 2.69598 0
M  V30 10056 C 903.547 6.51414 2.68028 0
M  V30 10057 H 899.646 0.437964 0.647852 0
M  V30 10058 H 902.23 1.54128 1.18965 0
M  V30 10059 H 900.401 1.21607 3.68872 0
M  V30 10060 H 902.133 1.44629 3.77974 0
M  V30 10061 H 898.888 3.40548 3.29126 0
M  V30 10062 H 899.312 6.01945 3.09825 0
M  V30 10063 H 903.954 3.12696 2.84571 0
M  V30 10064 H 901.672 7.57896 2.8039 0
M  V30 10065 H 905.258 5.21235 2.58468 0
M  V30 10066 H 904.138 7.41033 2.56593 0
M  V30 10067 N 901.641 -1.19671 1.02551 0
M  V30 10068 C 903.052 -1.70964 0.750208 0
M  V30 10069 C 903.403 -1.82095 -0.730461 0
M  V30 10070 O 902.528 -1.48974 -1.56958 0
M  V30 10071 C 903.123 -3.10516 1.35518 0
M  V30 10072 C 901.682 -3.59083 1.12854 0
M  V30 10073 C 900.829 -2.36041 1.45534 0
M  V30 10074 H 903.78 -1.04559 1.19386 0
M  V30 10075 H 903.801 -3.73028 0.750378 0
M  V30 10076 H 903.313 -3.02383 2.43282 0
M  V30 10077 H 901.414 -3.72536 0.0689627 0
M  V30 10078 H 901.527 -4.43395 1.81488 0
M  V30 10079 H 899.891 -2.39214 0.87458 0
M  V30 10080 H 900.674 -2.3054 2.54374 0
M  V30 10081 N 903.119 -0.802921 -1.35613 0
M  V30 10082 C 904.347 -0.39393 -2.03115 0
M  V30 10083 C 904.762 0.993961 -1.60517 0
M  V30 10084 O 904.119 1.63984 -0.800973 0
M  V30 10085 C 904.17 -0.463486 -3.58516 0
M  V30 10086 O 903.891 -1.79666 -3.99565 0
M  V30 10087 C 905.392 -0.0468377 -4.43275 0
M  V30 10088 H 902.612 -0.160519 -0.651517 0
M  V30 10089 H 905.156 -1.08552 -1.73311 0
M  V30 10090 H 903.311 0.179821 -3.86982 0
M  V30 10091 H 903.725 -1.75688 -4.942 0
M  V30 10092 H 905.199 -0.146626 -5.51805 0
M  V30 10093 H 905.676 1.00741 -4.2749 0
M  V30 10094 H 906.282 -0.663158 -4.20098 0
M  V30 10095 N 904.597 1.47463 -0.556102 0
M  V30 10096 C 905.844 2.02475 -0.0316337 0
M  V30 10097 C 906.172 1.43057 1.31777 0
M  V30 10098 O 905.427 0.575376 1.87051 0
M  V30 10099 C 905.726 3.57224 0.112126 0
M  V30 10100 C 905.392 4.35557 -1.16624 0
M  V30 10101 C 904.054 4.56678 -1.51654 0
M  V30 10102 C 906.406 4.8074 -2.01342 0
M  V30 10103 C 903.734 5.20231 -2.7125 0
M  V30 10104 C 906.086 5.45613 -3.2014 0
M  V30 10105 C 904.75 5.64967 -3.55484 0
M  V30 10106 H 904.02 0.74091 -0.0115756 0
M  V30 10107 H 906.667 1.77148 -0.727392 0
M  V30 10108 H 904.972 3.81538 0.890842 0
M  V30 10109 H 906.669 3.97438 0.533261 0
M  V30 10110 H 903.259 4.19395 -0.883489 0
M  V30 10111 H 907.443 4.64201 -1.75587 0
M  V30 10112 H 902.699 5.3341 -2.98804 0
M  V30 10113 H 906.873 5.79587 -3.86073 0
M  V30 10114 H 904.5 6.13984 -4.4825 0
M  V30 10115 N 906.075 0.2925 1.54862 0
M  V30 10116 C 907.007 -0.620889 2.2063 0
M  V30 10117 C 908.02 -1.10412 1.19637 0
M  V30 10118 O 909.209 -1.02304 1.46274 0
M  V30 10119 C 906.309 -1.861 2.83232 0
M  V30 10120 C 905.482 -1.52168 4.10078 0
M  V30 10121 C 904.541 -2.61605 4.56562 0
M  V30 10122 O 903.567 -2.27056 5.21952 0
M  V30 10123 N 904.769 -3.9199 4.28163 0
M  V30 10124 H 907.534 -0.0579028 2.99644 0
M  V30 10125 H 905.095 0.114333 1.61496 0
M  V30 10126 H 907.087 -2.58642 3.11266 0
M  V30 10127 H 905.657 -2.33259 2.08108 0
M  V30 10128 H 904.877 -0.629283 3.89145 0
M  V30 10129 H 906.165 -1.27023 4.92689 0
M  V30 10130 H 905.563 -4.22872 3.7576 0
M  V30 10131 H 904.12 -4.60857 4.60928 0
M  V30 10132 N 907.553 -1.57587 0.0200696 0
M  V30 10133 C 908.802 -1.90602 -0.659822 0
M  V30 10134 C 909.115 -0.897216 -1.73808 0
M  V30 10135 O 910.321 -1.11829 -2.47399 0
M  V30 10136 C 908.777 -3.38416 -1.22484 0
M  V30 10137 C 908.385 -4.47637 -0.180339 0
M  V30 10138 C 910.129 -3.80513 -1.88176 0
M  V30 10139 C 908.036 -5.86542 -0.756482 0
M  V30 10140 H 906.966 -0.711272 -0.250216 0
M  V30 10141 H 909.617 -1.83308 0.0838942 0
M  V30 10142 H 907.999 -3.40613 -2.01987 0
M  V30 10143 H 909.173 -4.56987 0.591573 0
M  V30 10144 H 907.488 -4.14687 0.377302 0
M  V30 10145 H 910.085 -4.8164 -2.32222 0
M  V30 10146 H 910.428 -3.15091 -2.72073 0
M  V30 10147 H 910.961 -3.80701 -1.15377 0
M  V30 10148 H 907.7 -6.55485 0.0441468 0
M  V30 10149 H 907.22 -5.80816 -1.49709 0
M  V30 10150 H 908.899 -6.3483 -1.249 0
M  V30 10151 N 909.032 0.252966 -1.55557 0
M  V30 10152 C 909.962 1.31691 -1.9282 0
M  V30 10153 C 910.943 1.50516 -0.7924 0
M  V30 10154 O 912.128 1.63225 -1.05219 0
M  V30 10155 C 909.258 2.67281 -2.21762 0
M  V30 10156 C 908.212 2.6316 -3.37536 0
M  V30 10157 C 907.538 4.02488 -3.52005 0
M  V30 10158 C 908.838 2.20675 -4.73392 0
M  V30 10159 H 910.532 1.00751 -2.81939 0
M  V30 10160 H 908.078 0.483219 -1.3565 0
M  V30 10161 H 910.031 3.41842 -2.46419 0
M  V30 10162 H 908.755 2.99845 -1.29463 0
M  V30 10163 H 907.414 1.91057 -3.12878 0
M  V30 10164 H 907.062 4.32307 -2.57137 0
M  V30 10165 H 906.762 4.00621 -4.29857 0
M  V30 10166 H 908.286 4.78758 -3.78977 0
M  V30 10167 H 909.7 2.84965 -4.97461 0
M  V30 10168 H 908.097 2.29931 -5.54303 0
M  V30 10169 H 909.167 1.15831 -4.70862 0
M  V30 10170 N 910.51 1.48831 0.518367 0
M  V30 10171 C 911.443 1.588 1.63884 0
M  V30 10172 C 912.421 0.437847 1.56594 0
M  V30 10173 O 913.605 0.651042 1.769 0
M  V30 10174 C 910.732 1.52681 3.02335 0
M  V30 10175 C 909.778 2.7268 3.27945 0
M  V30 10176 S 910.611 4.34536 3.12951 0
M  V30 10177 C 911.767 4.31034 4.53828 0
M  V30 10178 H 912 2.53587 1.5518 0
M  V30 10179 H 909.533 1.37507 0.702218 0
M  V30 10180 H 911.491 1.49837 3.82177 0
M  V30 10181 H 910.152 0.592107 3.08469 0
M  V30 10182 H 909.345 2.64569 4.28974 0
M  V30 10183 H 908.947 2.72847 2.55794 0
M  V30 10184 H 911.239 4.01683 5.45579 0
M  V30 10185 H 912.182 5.32282 4.66991 0
M  V30 10186 H 912.59 3.61343 4.33695 0
M  V30 10187 N 911.988 -0.768124 1.37614 0
M  V30 10188 C 913.234 -1.52823 1.34226 0
M  V30 10189 C 913.589 -1.92266 -0.0717482 0
M  V30 10190 O 912.882 -1.61484 -1.03119 0
M  V30 10191 C 913.076 -2.80204 2.21856 0
M  V30 10192 C 912.905 -2.53213 3.71636 0
M  V30 10193 C 911.675 -2.47159 4.40727 0
M  V30 10194 C 913.873 -2.20965 4.64413 0
M  V30 10195 N 911.855 -2.12289 5.76026 0
M  V30 10196 C 913.226 -1.96264 5.88116 0
M  V30 10197 C 915.281 -2.07151 4.52761 0
M  V30 10198 C 913.984 -1.59145 7.01474 0
M  V30 10199 C 916.01 -1.71432 5.66008 0
M  V30 10200 C 915.372 -1.47594 6.88764 0
M  V30 10201 H 911.471 -0.559388 0.546451 0
M  V30 10202 H 914.055 -0.895795 1.72869 0
M  V30 10203 H 912.226 -3.4128 1.85424 0
M  V30 10204 H 913.958 -3.46133 2.097 0
M  V30 10205 H 910.713 -2.63137 3.93772 0
M  V30 10206 H 911.137 -1.97541 6.47539 0
M  V30 10207 H 915.779 -2.24262 3.58422 0
M  V30 10208 H 913.497 -1.40773 7.95744 0
M  V30 10209 H 917.083 -1.61397 5.58965 0
M  V30 10210 H 915.963 -1.20365 7.74908 0
M  V30 10211 N 913.466 -1.22244 -0.994698 0
M  V30 10212 C 914.691 -1.07299 -1.77487 0
M  V30 10213 C 915.116 0.372302 -1.84379 0
M  V30 10214 O 914.474 1.2689 -1.29494 0
M  V30 10215 C 914.522 -1.68675 -3.18718 0
M  V30 10216 O 913.626 -0.939202 -4.01563 0
M  V30 10217 H 912.967 -0.376979 -0.546611 0
M  V30 10218 H 915.497 -1.62003 -1.24965 0
M  V30 10219 H 915.507 -1.73324 -3.69354 0
M  V30 10220 H 914.182 -2.73849 -3.13017 0
M  V30 10221 H 912.759 -0.968583 -3.60101 0
M  V30 10222 N 914.944 1.19125 -1.03184 0
M  V30 10223 C 915.874 2.24675 -0.635889 0
M  V30 10224 C 916.855 1.66321 0.356565 0
M  V30 10225 O 918.04 1.92728 0.238625 0
M  V30 10226 C 915.17 3.47298 0.011069 0
M  V30 10227 C 914.124 4.18345 -0.903979 0
M  V30 10228 C 913.45 5.34561 -0.12197 0
M  V30 10229 C 914.75 4.72816 -2.21907 0
M  V30 10230 H 916.444 2.5805 -1.51825 0
M  V30 10231 H 913.99 1.24039 -0.73146 0
M  V30 10232 H 915.943 4.20333 0.299729 0
M  V30 10233 H 914.667 3.13131 0.928245 0
M  V30 10234 H 913.326 3.47196 -1.17688 0
M  V30 10235 H 912.974 4.9664 0.797334 0
M  V30 10236 H 912.674 5.83029 -0.731498 0
M  V30 10237 H 914.198 6.10391 0.159881 0
M  V30 10238 H 915.612 5.3759 -1.99173 0
M  V30 10239 H 914.009 5.31782 -2.78078 0
M  V30 10240 H 915.079 3.9072 -2.87168 0
M  V30 10241 N 916.422 0.810101 1.35185 0
M  V30 10242 C 917.647 0.40364 2.03434 0
M  V30 10243 C 918.072 -0.97857 1.60641 0
M  V30 10244 O 917.43 -1.63435 0.784779 0
M  V30 10245 C 917.478 0.499154 3.57129 0
M  V30 10246 O 916.582 -0.486039 4.09526 0
M  V30 10247 H 915.923 0.168049 0.642383 0
M  V30 10248 H 918.453 1.09696 1.72708 0
M  V30 10249 H 918.463 0.370236 4.06317 0
M  V30 10250 H 917.138 1.50733 3.87624 0
M  V30 10251 H 915.715 -0.31707 3.7155 0
M  V30 10252 N 917.9 -1.47166 0.563914 0
M  V30 10253 C 918.848 -2.31798 -0.193009 0
M  V30 10254 C 919.842 -1.43338 -0.902805 0
M  V30 10255 O 921.048 -1.60067 -0.823328 0
M  V30 10256 H 917.423 -0.747613 -0.0811139 0
M  V30 10257 H 919.394 -2.93476 0.539876 0
M  V30 10258 C 918.143 -3.26131 -1.20555 0
M  V30 10259 H 917.466 -3.94166 -0.668803 0
M  V30 10260 H 918.906 -3.88167 -1.70593 0
M  V30 10261 C 917.365 -2.50132 -2.25689 0
M  V30 10262 O 917.895 -2.25064 -3.3273 0
M  V30 10263 N 916.101 -2.11022 -1.99795 0
M  V30 10264 H 915.648 -2.3161 -1.1276 0
M  V30 10265 H 915.606 -1.60489 -2.70353 0
M  V30 10266 N 919.378 -0.300708 -1.54705 0
M  V30 10267 C 920.603 0.314073 -2.05008 0
M  V30 10268 C 921.028 1.46759 -1.17657 0
M  V30 10269 O 920.386 1.80398 -0.180598 0
M  V30 10270 C 920.434 0.748243 -3.52752 0
M  V30 10271 O 919.538 1.85305 -3.68424 0
M  V30 10272 H 918.879 0.0610139 -0.661191 0
M  V30 10273 H 921.409 -0.442467 -1.99758 0
M  V30 10274 H 921.419 1.03713 -3.94598 0
M  V30 10275 H 920.094 -0.095573 -4.1579 0
M  V30 10276 H 918.671 1.56473 -3.38483 0
M  V30 10277 N 920.856 1.57574 -0.0284266 0
M  V30 10278 C 922.102 1.92884 0.645544 0
M  V30 10279 C 922.457 0.905203 1.69776 0
M  V30 10280 O 921.75 -0.0788509 1.91438 0
M  V30 10281 C 921.944 3.32699 1.3056 0
M  V30 10282 C 921.773 4.48568 0.318848 0
M  V30 10283 C 920.543 5.05235 -0.0810373 0
M  V30 10284 C 922.741 5.12528 -0.426575 0
M  V30 10285 N 920.723 6.04626 -1.06303 0
M  V30 10286 C 922.094 6.07013 -1.26235 0
M  V30 10287 C 924.149 4.95509 -0.48735 0
M  V30 10288 C 922.852 6.8631 -2.15341 0
M  V30 10289 C 924.878 5.75414 -1.36575 0
M  V30 10290 C 924.24 6.69514 -2.1893 0
M  V30 10291 H 920.339 0.753677 0.208555 0
M  V30 10292 H 922.923 1.94466 -0.095439 0
M  V30 10293 H 921.094 3.31938 2.01673 0
M  V30 10294 H 922.826 3.55359 1.93655 0
M  V30 10295 H 919.581 4.72691 0.293264 0
M  V30 10296 H 920.005 6.59012 -1.55025 0
M  V30 10297 H 924.647 4.22584 0.135112 0
M  V30 10298 H 922.365 7.58541 -2.78642 0
M  V30 10299 H 925.951 5.64279 -1.41705 0
M  V30 10300 H 924.831 7.30266 -2.85799 0
M  V30 10301 N 922.334 -0.244713 1.55689 0
M  V30 10302 C 923.58 -0.973886 1.77886 0
M  V30 10303 C 923.913 -1.8489 0.594071 0
M  V30 10304 O 923.188 -1.90182 -0.407564 0
M  V30 10305 C 923.471 -1.83255 3.09983 0
M  V30 10306 C 923.324 -0.985571 4.3887 0
M  V30 10307 C 924.643 -2.81464 3.38329 0
M  V30 10308 H 921.762 -0.352629 0.647165 0
M  V30 10309 H 924.404 -0.244243 1.88424 0
M  V30 10310 H 922.554 -2.45464 3.01131 0
M  V30 10311 H 924.226 -0.382005 4.59716 0
M  V30 10312 H 922.469 -0.29002 4.32829 0
M  V30 10313 H 923.14 -1.62022 5.27686 0
M  V30 10314 H 925.616 -2.2939 3.47159 0
M  V30 10315 H 924.492 -3.38663 4.31971 0
M  V30 10316 H 924.753 -3.58037 2.59349 0
M  V30 10317 N 923.813 -1.49104 -0.510467 0
M  V30 10318 C 924.776 -1.64569 -1.59529 0
M  V30 10319 C 925.776 -0.517937 -1.5223 0
M  V30 10320 O 926.966 -0.784183 -1.55551 0
M  V30 10321 C 924.098 -1.6342 -2.99177 0
M  V30 10322 H 925.291 -2.61318 -1.4715 0
M  V30 10323 H 922.844 -1.37993 -0.734001 0
M  V30 10324 H 923.579 -0.68221 -3.17043 0
M  V30 10325 H 923.364 -2.45312 -3.05883 0
M  V30 10326 H 924.854 -1.77474 -3.78011 0
M  V30 10327 N 925.291 0.760815 -1.38019 0
M  V30 10328 C 926.221 1.88811 -1.37377 0
M  V30 10329 C 927.202 1.68388 -0.240737 0
M  V30 10330 O 928.387 1.89086 -0.442739 0
M  V30 10331 C 925.517 3.26244 -1.1909 0
M  V30 10332 C 924.471 3.61254 -2.29521 0
M  V30 10333 C 923.797 4.97346 -1.96345 0
M  V30 10334 C 925.097 3.66874 -3.71753 0
M  V30 10335 H 926.791 1.89606 -2.31711 0
M  V30 10336 H 924.337 0.910818 -1.11535 0
M  V30 10337 H 926.29 4.04755 -1.17267 0
M  V30 10338 H 925.014 3.2591 -0.212152 0
M  V30 10339 H 923.673 2.85057 -2.30517 0
M  V30 10340 H 923.321 4.93564 -0.969728 0
M  V30 10341 H 923.021 5.21739 -2.703 0
M  V30 10342 H 924.545 5.78244 -1.96129 0
M  V30 10343 H 925.959 4.35514 -3.72828 0
M  V30 10344 H 924.356 4.02772 -4.44853 0
M  V30 10345 H 925.426 2.67273 -4.0459 0
M  V30 10346 N 926.769 1.22769 0.988202 0
M  V30 10347 C 927.716 1.00195 2.07917 0
M  V30 10348 C 928.686 -0.0779391 1.65917 0
M  V30 10349 O 929.871 0.0726005 1.90662 0
M  V30 10350 C 927.011 0.590853 3.40004 0
M  V30 10351 C 926.124 1.74202 3.9532 0
M  V30 10352 C 925.259 1.27846 5.15586 0
M  V30 10353 C 924.298 2.40087 5.63049 0
M  V30 10354 N 923.435 1.94744 6.74551 0
M  V30 10355 H 928.275 1.93581 2.26562 0
M  V30 10356 H 925.812 0.96448 1.11068 0
M  V30 10357 H 927.77 0.333653 4.15864 0
M  V30 10358 H 926.4 -0.306007 3.21346 0
M  V30 10359 H 925.452 2.11342 3.16289 0
M  V30 10360 H 926.764 2.58612 4.26522 0
M  V30 10361 H 925.918 0.978919 5.9875 0
M  V30 10362 H 924.657 0.404617 4.86019 0
M  V30 10363 H 923.662 2.70824 4.78471 0
M  V30 10364 H 924.887 3.27995 5.9464 0
M  V30 10365 H 922.833 1.09729 6.46758 0
M  V30 10366 H 922.75 2.72718 7.05096 0
M  V30 10367 H 924.018 1.67873 7.61209 0
M  V30 10368 N 928.247 -1.18576 1.03814 0
M  V30 10369 C 929.524 -1.8433 0.654358 0
M  V30 10370 C 929.904 -1.92504 -0.866338 0
M  V30 10371 O 929.252 -1.44904 -1.76678 0
M  V30 10372 C 929.462 -3.22778 1.32723 0
M  V30 10373 C 930.81 -3.98841 1.45641 0
M  V30 10374 O 931.834 -3.32209 1.28514 0
M  V30 10375 O 930.693 -5.18219 1.73526 0
M  V30 10376 H 927.787 -0.794766 0.228638 0
M  V30 10377 H 930.333 -1.25989 1.13687 0
M  V30 10378 H 929.105 -3.11717 2.36534 0
M  V30 10379 H 928.728 -3.88772 0.833176 0
M  V30 10380 N 929.725 -0.817259 -1.34754 0
M  V30 10381 C 930.655 -0.249769 -2.3216 0
M  V30 10382 C 931.636 0.630663 -1.57977 0
M  V30 10383 O 932.821 0.558719 -1.85989 0
M  V30 10384 C 929.951 0.593825 -3.42186 0
M  V30 10385 C 928.905 -0.188997 -4.27583 0
M  V30 10386 C 928.231 0.776979 -5.29025 0
M  V30 10387 C 929.531 -1.39401 -5.03354 0
M  V30 10388 H 931.225 -1.06359 -2.79872 0
M  V30 10389 H 928.771 -0.512894 -1.34556 0
M  V30 10390 H 930.724 1.00097 -4.09339 0
M  V30 10391 H 929.448 1.44064 -2.93109 0
M  V30 10392 H 928.107 -0.577445 -3.62024 0
M  V30 10393 H 927.755 1.61959 -4.76212 0
M  V30 10394 H 927.455 0.257448 -5.87036 0
M  V30 10395 H 928.979 1.18211 -5.99048 0
M  V30 10396 H 930.393 -1.06117 -5.63393 0
M  V30 10397 H 928.79 -1.84878 -5.70912 0
M  V30 10398 H 929.86 -2.17515 -4.33377 0
M  V30 10399 N 931.203 1.46865 -0.571711 0
M  V30 10400 C 932.449 2.0273 -0.0531858 0
M  V30 10401 C 932.782 1.44353 1.29907 0
M  V30 10402 O 932.057 0.604488 1.84868 0
M  V30 10403 C 932.34 3.60092 0.0243831 0
M  V30 10404 C 932.193 4.28874 -1.35599 0
M  V30 10405 C 933.512 4.33994 0.730563 0
M  V30 10406 H 930.631 0.736706 -0.0208018 0
M  V30 10407 H 933.273 1.75132 -0.736794 0
M  V30 10408 H 931.423 3.83736 0.606565 0
M  V30 10409 H 933.095 4.16527 -1.98249 0
M  V30 10410 H 931.338 3.88664 -1.92674 0
M  V30 10411 H 932.009 5.37561 -1.25429 0
M  V30 10412 H 934.485 4.1543 0.236098 0
M  V30 10413 H 933.361 5.43699 0.753836 0
M  V30 10414 H 933.622 4.04257 1.78967 0
M  V30 10415 N 932.681 0.308908 1.54543 0
M  V30 10416 C 933.611 -0.556657 2.26768 0
M  V30 10417 C 934.592 -1.13145 1.27013 0
M  V30 10418 O 935.777 -1.15931 1.558 0
M  V30 10419 C 932.907 -1.72481 3.01443 0
M  V30 10420 C 931.861 -1.28001 4.08411 0
M  V30 10421 C 931.187 -2.53395 4.70845 0
M  V30 10422 C 932.487 -0.405497 5.20724 0
M  V30 10423 H 934.181 0.0457618 2.99365 0
M  V30 10424 H 931.727 0.0234495 1.43981 0
M  V30 10425 H 933.68 -2.3365 3.50693 0
M  V30 10426 H 932.404 -2.35359 2.26437 0
M  V30 10427 H 931.063 -0.69133 3.60022 0
M  V30 10428 H 930.711 -3.14604 3.92471 0
M  V30 10429 H 930.411 -2.2433 5.43093 0
M  V30 10430 H 931.935 -3.15352 5.22863 0
M  V30 10431 H 933.349 -0.923076 5.6582 0
M  V30 10432 H 931.746 -0.208282 5.99738 0
M  V30 10433 H 932.816 0.567412 4.81569 0
M  V30 10434 N 934.159 -1.57557 0.0367827 0
M  V30 10435 C 935.089 -2.13712 -0.940719 0
M  V30 10436 C 936.07 -1.05515 -1.33419 0
M  V30 10437 O 937.255 -1.33385 -1.41146 0
M  V30 10438 C 934.385 -2.67043 -2.22048 0
M  V30 10439 C 933.339 -3.80096 -1.96752 0
M  V30 10440 C 932.665 -4.19886 -3.31059 0
M  V30 10441 C 933.965 -5.05848 -1.30058 0
M  V30 10442 H 935.659 -2.9564 -0.473033 0
M  V30 10443 H 933.205 -1.42214 -0.226089 0
M  V30 10444 H 935.158 -3.04964 -2.90818 0
M  V30 10445 H 933.882 -1.82287 -2.70996 0
M  V30 10446 H 932.541 -3.42625 -1.30398 0
M  V30 10447 H 932.189 -3.32101 -3.77781 0
M  V30 10448 H 931.889 -4.96073 -3.14937 0
M  V30 10449 H 933.413 -4.60395 -4.01084 0
M  V30 10450 H 934.827 -5.41306 -1.8884 0
M  V30 10451 H 933.224 -5.87084 -1.24309 0
M  V30 10452 H 934.294 -4.84122 -0.274591 0
M  V30 10453 N 935.637 0.236453 -1.55816 0
M  V30 10454 C 936.567 1.29639 -1.94206 0
M  V30 10455 C 937.548 1.49667 -0.808319 0
M  V30 10456 O 938.733 1.621 -1.06945 0
M  V30 10457 C 935.863 2.64914 -2.24584 0
M  V30 10458 C 934.817 2.59565 -3.40308 0
M  V30 10459 C 934.143 3.98732 -3.56254 0
M  V30 10460 C 935.443 2.15642 -4.75706 0
M  V30 10461 H 937.137 0.977552 -2.82992 0
M  V30 10462 H 934.683 0.468804 -1.36155 0
M  V30 10463 H 936.636 3.39209 -2.50031 0
M  V30 10464 H 935.36 2.98455 -1.32636 0
M  V30 10465 H 934.019 1.87728 -3.14887 0
M  V30 10466 H 933.667 4.29556 -2.61707 0
M  V30 10467 H 933.367 3.96039 -4.34082 0
M  V30 10468 H 934.891 4.74711 -3.84033 0
M  V30 10469 H 936.305 2.79673 -5.00456 0
M  V30 10470 H 934.702 2.24039 -5.56711 0
M  V30 10471 H 935.772 1.10831 -4.72064 0
M  V30 10472 N 937.115 1.49373 0.502552 0
M  V30 10473 C 938.362 1.58781 1.25678 0
M  V30 10474 C 938.69 0.273819 1.92563 0
M  V30 10475 O 937.945 -0.738141 1.81246 0
M  V30 10476 C 938.244 2.69508 2.34735 0
M  V30 10477 C 937.91 4.11057 1.85318 0
M  V30 10478 C 936.572 4.49578 1.7156 0
M  V30 10479 C 938.924 4.99653 1.48312 0
M  V30 10480 C 936.252 5.74469 1.19172 0
M  V30 10481 C 938.604 6.2506 0.97377 0
M  V30 10482 C 937.268 6.62412 0.822573 0
M  V30 10483 H 936.538 0.581021 0.459887 0
M  V30 10484 H 939.185 1.83197 0.557767 0
M  V30 10485 H 937.49 2.39057 3.10418 0
M  V30 10486 H 939.187 2.73997 2.92791 0
M  V30 10487 H 935.777 3.80651 1.96985 0
M  V30 10488 H 939.961 4.70549 1.57789 0
M  V30 10489 H 935.217 6.0211 1.06176 0
M  V30 10490 H 939.391 6.93089 0.678233 0
M  V30 10491 H 937.018 7.59069 0.414453 0
M  V30 10492 N 938.594 -0.753485 1.38421 0
M  V30 10493 C 939.822 -1.54272 1.37868 0
M  V30 10494 C 940.237 -1.88774 -0.0315155 0
M  V30 10495 O 939.594 -1.52785 -0.998148 0
M  V30 10496 C 939.645 -2.84179 2.23438 0
M  V30 10497 O 939.366 -2.51149 3.58965 0
M  V30 10498 C 940.867 -3.78316 2.31067 0
M  V30 10499 H 938.087 -0.47735 0.47157 0
M  V30 10500 H 940.631 -0.932509 1.82001 0
M  V30 10501 H 938.786 -3.41577 1.82767 0
M  V30 10502 H 939.2 -3.34466 4.04021 0
M  V30 10503 H 940.674 -4.66418 2.95226 0
M  V30 10504 H 941.151 -4.18757 1.32436 0
M  V30 10505 H 941.757 -3.26842 2.72129 0
M  V30 10506 N 940.072 -1.23292 -0.981677 0
M  V30 10507 C 941.319 -1.06424 -1.72279 0
M  V30 10508 C 941.647 0.399055 -1.90362 0
M  V30 10509 O 940.902 1.31181 -1.45224 0
M  V30 10510 C 941.201 -1.73339 -3.12551 0
M  V30 10511 C 940.867 -3.23256 -3.14351 0
M  V30 10512 C 939.529 -3.64159 -3.14549 0
M  V30 10513 C 941.881 -4.1916 -3.09765 0
M  V30 10514 C 939.209 -4.99428 -3.07877 0
M  V30 10515 C 941.561 -5.54419 -3.04635 0
M  V30 10516 C 940.225 -5.94688 -3.03154 0
M  V30 10517 H 939.495 -0.389434 -0.630415 0
M  V30 10518 H 942.142 -1.53208 -1.1489 0
M  V30 10519 H 940.447 -1.18911 -3.73319 0
M  V30 10520 H 942.144 -1.57767 -3.68661 0
M  V30 10521 H 938.734 -2.90693 -3.14953 0
M  V30 10522 H 942.918 -3.88569 -3.08753 0
M  V30 10523 H 938.174 -5.29844 -3.05083 0
M  V30 10524 H 942.348 -6.28448 -3.00043 0
M  V30 10525 H 939.975 -6.99468 -2.97739 0
M  V30 10526 N 941.55 1.18024 -1.04442 0
M  V30 10527 C 942.799 1.8743 -0.745185 0
M  V30 10528 C 943.112 1.81459 0.730206 0
M  V30 10529 O 944.318 2.46263 1.1431 0
M  V30 10530 C 942.774 3.36266 -1.28271 0
M  V30 10531 C 942.382 3.50757 -2.787 0
M  V30 10532 C 944.126 4.11048 -1.06018 0
M  V30 10533 C 942.033 4.93573 -3.25791 0
M  V30 10534 H 940.963 0.702038 -0.27506 0
M  V30 10535 H 943.614 1.33333 -1.26073 0
M  V30 10536 H 941.996 3.89853 -0.695002 0
M  V30 10537 H 943.17 3.07423 -3.43261 0
M  V30 10538 H 941.485 2.89385 -2.99408 0
M  V30 10539 H 944.082 5.16395 -1.38711 0
M  V30 10540 H 944.425 4.163 0.00241716 0
M  V30 10541 H 944.958 3.63644 -1.61269 0
M  V30 10542 H 941.697 4.93491 -4.31447 0
M  V30 10543 H 941.217 5.37607 -2.65968 0
M  V30 10544 H 942.896 5.62307 -3.20031 0
M  V30 10545 N 943.028 0.824394 1.34319 0
M  V30 10546 C 944.275 0.413167 1.9824 0
M  V30 10547 C 944.603 -1.02412 1.65354 0
M  V30 10548 O 943.858 -1.72831 0.91803 0
M  V30 10549 C 944.157 0.564024 3.52921 0
M  V30 10550 C 943.823 1.96725 4.05722 0
M  V30 10551 C 942.485 2.35111 4.19853 0
M  V30 10552 C 944.837 2.88447 4.34106 0
M  V30 10553 C 942.165 3.64551 4.59695 0
M  V30 10554 C 944.517 4.17353 4.75394 0
M  V30 10555 C 943.181 4.55714 4.8773 0
M  V30 10556 H 942.451 0.151188 0.725412 0
M  V30 10557 H 945.098 1.04863 1.60238 0
M  V30 10558 H 943.403 -0.154816 3.91494 0
M  V30 10559 H 945.1 0.226347 4.00361 0
M  V30 10560 H 941.69 1.65908 3.95187 0
M  V30 10561 H 945.874 2.60034 4.22725 0
M  V30 10562 H 941.13 3.94097 4.67437 0
M  V30 10563 H 945.304 4.88512 4.96315 0
M  V30 10564 H 942.931 5.56064 5.1836 0
M  V30 10565 N 944.506 -1.46559 0.579492 0
M  V30 10566 C 945.753 -2.02399 0.0638418 0
M  V30 10567 C 946.081 -1.45135 -1.29484 0
M  V30 10568 O 945.336 -0.605061 -1.86112 0
M  V30 10569 C 945.635 -3.57357 -0.0552803 0
M  V30 10570 C 945.301 -4.33646 1.23539 0
M  V30 10571 C 943.963 -4.54207 1.589 0
M  V30 10572 C 946.315 -4.77476 2.08965 0
M  V30 10573 C 943.643 -5.1585 2.79492 0
M  V30 10574 C 945.995 -5.4045 3.2878 0
M  V30 10575 C 944.659 -5.5924 3.64427 0
M  V30 10576 H 943.929 -0.740632 0.0233614 0
M  V30 10577 H 946.576 -1.75968 0.755482 0
M  V30 10578 H 944.881 -3.82907 -0.83003 0
M  V30 10579 H 946.578 -3.98237 -0.469964 0
M  V30 10580 H 943.168 -4.17937 0.9501 0
M  V30 10581 H 947.352 -4.61349 1.8295 0
M  V30 10582 H 942.608 -5.28589 3.07252 0
M  V30 10583 H 946.782 -5.73371 3.95245 0
M  V30 10584 H 944.409 -6.06775 4.57961 0
M  V30 10585 N 945.984 -0.3171 -1.54377 0
M  V30 10586 C 947.209 0.292311 -2.0533 0
M  V30 10587 C 947.634 1.45503 -1.19207 0
M  V30 10588 O 946.992 1.80197 -0.199721 0
M  V30 10589 C 947.04 0.710787 -3.53525 0
M  V30 10590 O 946.144 1.81387 -3.70368 0
M  V30 10591 H 945.485 0.0539976 -0.661801 0
M  V30 10592 H 948.015 -0.463629 -1.99278 0
M  V30 10593 H 948.025 0.995216 -3.95676 0
M  V30 10594 H 946.7 -0.139668 -4.15665 0
M  V30 10595 H 945.277 1.52875 -3.40123 0
M  V30 10596 N 947.462 1.57535 -0.0451378 0
M  V30 10597 C 948.425 2.1008 0.916461 0
M  V30 10598 C 949.425 1.01913 1.2438 0
M  V30 10599 O 950.615 1.2801 1.18148 0
M  V30 10600 C 947.747 2.58001 2.22818 0
M  V30 10601 H 948.94 2.96334 0.461076 0
M  V30 10602 H 946.493 1.54974 0.203169 0
M  V30 10603 H 947.228 1.75123 2.72951 0
M  V30 10604 H 947.013 3.3704 2.00366 0
M  V30 10605 H 948.503 2.98822 2.9171 0
M  V30 10606 N 948.94 -0.228186 1.55939 0
M  V30 10607 C 949.903 -1.26621 1.91049 0
M  V30 10608 C 950.903 -1.40141 0.788491 0
M  V30 10609 O 952.093 -1.3852 1.05631 0
M  V30 10610 C 949.225 -2.64108 2.15545 0
M  V30 10611 H 950.418 -0.966978 2.83883 0
M  V30 10612 H 947.971 -0.468313 1.49119 0
M  V30 10613 H 948.706 -2.99141 1.25241 0
M  V30 10614 H 948.491 -2.55673 2.97277 0
M  V30 10615 H 949.981 -3.39025 2.43827 0
M  V30 10616 N 950.418 -1.49637 -0.494624 0
M  V30 10617 C 951.665 -1.59445 -1.24834 0
M  V30 10618 C 951.993 -0.284028 -1.92415 0
M  V30 10619 O 951.248 0.728519 -1.81634 0
M  V30 10620 C 951.547 -2.70749 -2.33302 0
M  V30 10621 C 951.213 -4.12034 -1.83135 0
M  V30 10622 C 949.875 -4.50482 -1.69173 0
M  V30 10623 C 952.227 -5.00432 -1.4566 0
M  V30 10624 C 949.555 -5.75093 -1.16124 0
M  V30 10625 C 951.907 -6.25568 -0.940608 0
M  V30 10626 C 950.571 -6.62839 -0.787432 0
M  V30 10627 H 949.841 -0.583451 -0.456799 0
M  V30 10628 H 952.488 -1.8349 -0.548044 0
M  V30 10629 H 950.793 -2.407 -3.09145 0
M  V30 10630 H 952.49 -2.75546 -2.91334 0
M  V30 10631 H 949.08 -3.8169 -1.94964 0
M  V30 10632 H 953.264 -4.71379 -1.55291 0
M  V30 10633 H 948.52 -6.02665 -1.02982 0
M  V30 10634 H 952.694 -6.93439 -0.641467 0
M  V30 10635 H 950.321 -7.59279 -0.374191 0
M  V30 10636 N 951.896 0.746133 -1.38819 0
M  V30 10637 C 953.144 1.50247 -1.35167 0
M  V30 10638 C 953.465 1.94921 0.0553531 0
M  V30 10639 O 952.735 1.68187 1.00449 0
M  V30 10640 H 951.315 0.557337 -0.497377 0
M  V30 10641 H 953.977 0.886472 -1.73573 0
M  V30 10642 H 953.073 2.38986 -2.00728 0
M  V30 10643 N 953.375 1.23811 0.975125 0
M  V30 10644 C 954.308 0.967173 2.06691 0
M  V30 10645 C 955.286 -0.09642 1.62314 0
M  V30 10646 O 956.47 0.0389532 1.8846 0
M  V30 10647 C 953.597 0.458094 3.35588 0
M  V30 10648 C 952.643 1.5091 3.98909 0
M  V30 10649 S 953.476 3.08815 4.37485 0
M  V30 10650 C 954.632 2.59591 5.69529 0
M  V30 10651 H 954.865 1.89166 2.29355 0
M  V30 10652 H 952.398 1.07113 1.11203 0
M  V30 10653 H 954.356 0.170991 4.10144 0
M  V30 10654 H 953.017 -0.445562 3.10924 0
M  V30 10655 H 952.21 1.10315 4.91779 0
M  V30 10656 H 951.812 1.74582 3.30752 0
M  V30 10657 H 954.104 2.0194 6.46704 0
M  V30 10658 H 955.047 3.51021 6.14971 0
M  V30 10659 H 955.455 2.00267 5.27782 0
M  V30 10660 N 954.853 -1.17469 1.05066 0
M  V30 10661 C 955.8 -2.21443 0.650512 0
M  V30 10662 C 956.77 -1.62441 -0.346702 0
M  V30 10663 O 957.955 -1.89305 -0.238404 0
M  V30 10664 C 955.095 -3.45087 0.0301014 0
M  V30 10665 C 954.208 -4.18385 1.07599 0
M  V30 10666 C 953.343 -5.29513 0.423038 0
M  V30 10667 C 952.382 -5.94596 1.45333 0
M  V30 10668 N 951.519 -6.97241 0.824623 0
M  V30 10669 H 956.359 -2.55025 1.54163 0
M  V30 10670 H 953.896 -1.25274 0.771032 0
M  V30 10671 H 955.854 -4.15754 -0.347032 0
M  V30 10672 H 954.484 -3.12093 -0.824481 0
M  V30 10673 H 953.536 -3.46446 1.57097 0
M  V30 10674 H 954.848 -4.62899 1.85813 0
M  V30 10675 H 954.002 -6.067 -0.00774975 0
M  V30 10676 H 952.741 -4.86129 -0.391092 0
M  V30 10677 H 951.746 -5.16142 1.89415 0
M  V30 10678 H 952.971 -6.40061 2.26934 0
M  V30 10679 H 950.917 -6.55993 0.0309804 0
M  V30 10680 H 950.834 -7.40059 1.54432 0
M  V30 10681 H 952.102 -7.78375 0.418567 0
M  V30 10682 N 956.331 -0.831506 -1.3388 0
M  V30 10683 C 957.261 -0.274378 -2.31882 0
M  V30 10684 C 958.242 0.613872 -1.58637 0
M  V30 10685 O 959.427 0.538961 -1.86571 0
M  V30 10686 C 956.557 0.557498 -3.42796 0
M  V30 10687 C 955.511 -0.234337 -4.27358 0
M  V30 10688 C 954.837 0.720825 -5.29819 0
M  V30 10689 C 956.137 -1.44732 -5.01847 0
M  V30 10690 H 957.831 -1.09322 -2.78728 0
M  V30 10691 H 955.377 -0.527136 -1.34005 0
M  V30 10692 H 957.33 0.957501 -4.10378 0
M  V30 10693 H 956.054 1.40947 -2.94621 0
M  V30 10694 H 954.713 -0.61581 -3.61391 0
M  V30 10695 H 954.361 1.569 -4.77903 0
M  V30 10696 H 954.061 0.195171 -5.87276 0
M  V30 10697 H 955.585 1.1185 -6.00268 0
M  V30 10698 H 956.999 -1.12087 -5.62236 0
M  V30 10699 H 955.396 -1.90923 -5.68919 0
M  V30 10700 H 956.466 -2.22099 -4.31045 0
M  V30 10701 N 957.809 1.4625 -0.587256 0
M  V30 10702 C 959.056 2.02363 -0.0745746 0
M  V30 10703 C 959.384 1.4582 1.28712 0
M  V30 10704 O 958.639 0.614922 1.85788 0
M  V30 10705 C 958.938 3.57382 0.036328 0
M  V30 10706 C 958.604 4.32985 -1.25837 0
M  V30 10707 C 957.266 4.53358 -1.61306 0
M  V30 10708 C 959.618 4.76361 -2.11494 0
M  V30 10709 C 956.946 5.14361 -2.82223 0
M  V30 10710 C 959.298 5.38699 -3.31641 0
M  V30 10711 C 957.962 5.57299 -3.67388 0
M  V30 10712 H 957.232 0.740497 -0.0272888 0
M  V30 10713 H 959.879 1.75565 -0.764804 0
M  V30 10714 H 958.184 3.83342 0.809712 0
M  V30 10715 H 959.881 3.9848 0.448838 0
M  V30 10716 H 956.471 4.17427 -0.972251 0
M  V30 10717 H 960.655 4.60372 -1.85394 0
M  V30 10718 H 955.911 5.26952 -3.10051 0
M  V30 10719 H 960.085 5.71267 -3.9828 0
M  V30 10720 H 957.712 6.04338 -4.61173 0
M  V30 10721 N 959.287 0.325282 1.54207 0
M  V30 10722 C 960.535 -0.276229 2.00203 0
M  V30 10723 C 960.856 -1.52519 1.21503 0
M  V30 10724 O 960.126 -1.93313 0.317302 0
M  V30 10725 H 958.706 -0.105059 0.739575 0
M  V30 10726 H 961.368 0.442225 1.89817 0
M  V30 10727 H 960.464 -0.531427 3.07542 0
M  V30 10728 N 960.765 -1.57509 0.0534917 0
M  V30 10729 C 961.712 -2.11667 -0.920101 0
M  V30 10730 C 962.682 -1.0246 -1.30733 0
M  V30 10731 O 963.867 -1.30021 -1.39639 0
M  V30 10732 C 961.007 -2.66803 -2.18883 0
M  V30 10733 C 960.12 -3.90104 -1.85588 0
M  V30 10734 C 959.255 -4.33547 -3.06937 0
M  V30 10735 C 958.294 -5.49542 -2.69573 0
M  V30 10736 N 957.431 -5.88029 -3.83623 0
M  V30 10737 H 962.271 -2.94562 -0.451371 0
M  V30 10738 H 959.808 -1.45576 -0.211168 0
M  V30 10739 H 961.766 -2.96871 -2.93127 0
M  V30 10740 H 960.396 -1.86702 -2.63329 0
M  V30 10741 H 959.448 -3.66613 -1.01484 0
M  V30 10742 H 960.76 -4.74404 -1.54087 0
M  V30 10743 H 959.914 -4.6518 -3.89477 0
M  V30 10744 H 958.653 -3.48064 -3.41618 0
M  V30 10745 H 957.658 -5.17579 -1.8545 0
M  V30 10746 H 958.883 -6.36743 -2.36082 0
M  V30 10747 H 956.829 -5.05498 -4.181 0
M  V30 10748 H 956.746 -6.67025 -3.55828 0
M  V30 10749 H 958.014 -6.24277 -4.66796 0
M  V30 10750 N 962.243 0.219913 -1.56058 0
M  V30 10751 C 963.191 1.29215 -1.93407 0
M  V30 10752 C 964.185 1.48434 -0.816307 0
M  V30 10753 O 965.391 1.49589 -1.00115 0
M  V30 10754 H 961.766 0.433256 -0.614649 0
M  V30 10755 H 963.737 0.949977 -2.82875 0
M  V30 10756 C 962.486 2.63501 -2.26854 0
M  V30 10757 H 961.809 2.4952 -3.12377 0
M  V30 10758 H 963.249 3.37334 -2.56869 0
M  V30 10759 C 961.708 3.18634 -1.09425 0
M  V30 10760 O 962.238 4.00117 -0.356243 0
M  V30 10761 N 960.444 2.7703 -0.877642 0
M  V30 10762 H 959.991 2.10875 -1.47951 0
M  V30 10763 H 959.949 3.1426 -0.0936792 0
M  V30 10764 N 963.721 1.49897 0.486681 0
M  V30 10765 C 964.951 1.63599 1.2617 0
M  V30 10766 C 965.359 0.312365 1.86604 0
M  V30 10767 O 964.702 -0.713911 1.6926 0
M  V30 10768 C 964.764 2.65736 2.42125 0
M  V30 10769 C 964.428 4.09711 2.0245 0
M  V30 10770 C 965.425 4.9607 1.55596 0
M  V30 10771 C 963.11 4.55534 2.11647 0
M  V30 10772 C 965.104 6.26295 1.18462 0
M  V30 10773 C 962.791 5.85768 1.74124 0
M  V30 10774 C 963.789 6.70973 1.27608 0
M  V30 10775 O 963.477 7.98778 0.905991 0
M  V30 10776 H 963.209 0.55333 0.388332 0
M  V30 10777 H 965.763 1.96768 0.589195 0
M  V30 10778 H 963.993 2.27778 3.12497 0
M  V30 10779 H 965.682 2.68819 3.04123 0
M  V30 10780 H 966.448 4.61891 1.47925 0
M  V30 10781 H 962.327 3.8937 2.46803 0
M  V30 10782 H 965.871 6.92754 0.820839 0
M  V30 10783 H 961.768 6.19473 1.8145 0
M  V30 10784 H 962.536 8.11914 1.03621 0
M  V30 10785 N 965.199 -0.738761 1.39212 0
M  V30 10786 C 966.109 -1.88324 1.39897 0
M  V30 10787 C 967.125 -1.71494 0.294229 0
M  V30 10788 O 968.301 -1.94162 0.535087 0
M  V30 10789 C 965.366 -3.23871 1.23726 0
M  V30 10790 C 964.427 -3.53121 2.44139 0
M  V30 10791 C 963.66 -4.82202 2.2873 0
M  V30 10792 O 963.883 -5.55649 1.28879 0
M  V30 10793 O 962.817 -5.11265 3.17634 0
M  V30 10794 H 966.643 -1.90701 2.36362 0
M  V30 10795 H 964.228 -0.886067 1.20288 0
M  V30 10796 H 966.11 -4.04882 1.16826 0
M  V30 10797 H 964.785 -3.22274 0.303551 0
M  V30 10798 H 963.692 -2.72212 2.56615 0
M  V30 10799 H 965.025 -3.59495 3.36191 0
M  V30 10800 N 966.677 -1.24326 -0.968545 0
M  V30 10801 C 967.587 -1.05194 -2.09694 0
M  V30 10802 C 968.603 0.00701291 -1.73999 0
M  V30 10803 O 969.779 -0.190981 -2.00492 0
M  V30 10804 C 966.844 -0.658075 -3.40397 0
M  V30 10805 C 965.905 -1.79341 -3.90045 0
M  V30 10806 C 965.138 -1.41824 -5.14511 0
M  V30 10807 O 965.361 -0.307693 -5.69569 0
M  V30 10808 O 964.295 -2.24358 -5.58522 0
M  V30 10809 H 968.121 -1.99791 -2.2873 0
M  V30 10810 H 965.706 -1.03138 -1.08088 0
M  V30 10811 H 967.588 -0.449911 -4.18991 0
M  V30 10812 H 966.263 0.258782 -3.22664 0
M  V30 10813 H 965.17 -2.05632 -3.12516 0
M  V30 10814 H 966.503 -2.68901 -4.12254 0
M  V30 10815 N 968.156 1.1691 -1.05688 0
M  V30 10816 C 969.403 1.87292 -0.76993 0
M  V30 10817 C 969.731 1.81339 0.703295 0
M  V30 10818 O 968.986 1.21959 1.5305 0
M  V30 10819 C 969.285 3.36578 -1.20207 0
M  V30 10820 C 968.951 3.62732 -2.67836 0
M  V30 10821 C 967.613 3.69579 -3.08163 0
M  V30 10822 C 969.965 3.73803 -3.63209 0
M  V30 10823 C 967.293 3.84992 -4.42717 0
M  V30 10824 C 969.645 3.90735 -4.97503 0
M  V30 10825 C 968.309 3.95823 -5.37476 0
M  V30 10826 H 967.579 0.68535 -0.281737 0
M  V30 10827 H 970.226 1.38274 -1.32486 0
M  V30 10828 H 968.531 3.87687 -0.566222 0
M  V30 10829 H 970.228 3.89409 -0.957183 0
M  V30 10830 H 966.818 3.58031 -2.35609 0
M  V30 10831 H 971.002 3.67829 -3.3319 0
M  V30 10832 H 966.258 3.87181 -4.73182 0
M  V30 10833 H 970.432 3.98243 -5.71293 0
M  V30 10834 H 968.059 4.07518 -6.41742 0
M  V30 10835 N 969.634 0.838594 1.33437 0
M  V30 10836 C 970.88 0.434813 1.98084 0
M  V30 10837 C 971.213 -1.00331 1.66275 0
M  V30 10838 O 970.488 -1.70139 0.942501 0
M  V30 10839 C 970.771 0.655602 3.54082 0
M  V30 10840 C 970.624 2.14097 3.95578 0
M  V30 10841 C 971.943 0.101576 4.39983 0
M  V30 10842 H 969.062 0.159456 0.719544 0
M  V30 10843 H 971.704 1.05406 1.58081 0
M  V30 10844 H 969.854 0.128501 3.88287 0
M  V30 10845 H 971.526 2.73292 3.71631 0
M  V30 10846 H 969.769 2.62558 3.4532 0
M  V30 10847 H 970.44 2.24621 5.04231 0
M  V30 10848 H 972.916 0.552122 4.12421 0
M  V30 10849 H 971.792 0.28575 5.48156 0
M  V30 10850 H 972.053 -0.994616 4.30767 0
M  V30 10851 N 971.112 -1.45937 0.595003 0
M  V30 10852 C 972.352 -2.0421 0.0881479 0
M  V30 10853 C 972.716 -1.45498 -1.25277 0
M  V30 10854 O 973.917 -1.95047 -1.8496 0
M  V30 10855 C 972.188 -3.57382 0.0362346 0
M  V30 10856 S 973.747 -4.36869 -0.41126 0
M  V30 10857 H 970.565 -0.709672 0.0434424 0
M  V30 10858 H 973.167 -1.78815 0.790273 0
M  V30 10859 H 971.871 -3.97628 1.0159 0
M  V30 10860 H 971.402 -3.87332 -0.688278 0
M  V30 10861 H 973.417 -4.67486 -1.66347 0
M  V30 10862 N 972.59 -0.333456 -1.54032 0
M  V30 10863 C 973.54 0.543745 -2.21421 0
M  V30 10864 C 974.524 1.07396 -1.19812 0
M  V30 10865 O 975.716 1.00934 -1.45401 0
M  V30 10866 C 972.845 1.69925 -2.98296 0
M  V30 10867 C 971.931 1.18345 -4.07253 0
M  V30 10868 N 972.322 0.388098 -5.04309 0
M  V30 10869 C 970.62 1.46128 -4.21382 0
M  V30 10870 C 971.321 0.109383 -5.81597 0
M  V30 10871 N 970.297 0.69825 -5.39097 0
M  V30 10872 H 974.099 -0.0711018 -2.93814 0
M  V30 10873 H 971.613 -0.139807 -1.61797 0
M  V30 10874 H 973.61 2.33954 -3.45067 0
M  V30 10875 H 972.27 2.31747 -2.27428 0
M  V30 10876 H 973.281 0.0300645 -5.17891 0
M  V30 10877 H 969.958 2.08463 -3.61731 0
M  V30 10878 H 971.348 -0.531554 -6.69794 0
M  V30 10879 N 974.068 1.57479 -0.061844 0
M  V30 10880 C 975.317 1.92285 0.609055 0
M  V30 10881 C 975.63 0.942983 1.71369 0
M  V30 10882 O 976.836 1.18349 2.44348 0
M  V30 10883 C 975.292 3.41545 1.13468 0
M  V30 10884 C 974.9 4.47958 0.0615926 0
M  V30 10885 C 976.644 3.85368 1.78022 0
M  V30 10886 C 974.551 5.88341 0.600705 0
M  V30 10887 H 973.481 0.717656 0.23127 0
M  V30 10888 H 976.132 1.83021 -0.132466 0
M  V30 10889 H 974.514 3.45848 1.92886 0
M  V30 10890 H 975.688 4.55258 -0.712527 0
M  V30 10891 H 974.003 4.13541 -0.487116 0
M  V30 10892 H 976.6 4.87627 2.19371 0
M  V30 10893 H 976.943 3.22193 2.63623 0
M  V30 10894 H 977.476 3.83626 1.05242 0
M  V30 10895 H 974.215 6.55138 -0.217922 0
M  V30 10896 H 973.735 5.84581 1.34257 0
M  V30 10897 H 975.414 6.37918 1.08025 0
M  V30 10898 N 975.546 -0.211634 1.56173 0
M  V30 10899 C 976.823 -0.959467 1.70451 0
M  V30 10900 C 977.203 -2.02036 0.611942 0
M  V30 10901 O 976.551 -2.25325 -0.37959 0
M  V30 10902 C 976.761 -1.56092 3.12148 0
M  V30 10903 C 978.109 -2.04939 3.71867 0
M  V30 10904 O 979.133 -1.65966 3.15172 0
M  V30 10905 O 977.992 -2.766 4.71333 0
M  V30 10906 H 975.086 -0.448844 0.6946 0
M  V30 10907 H 977.632 -0.202633 1.68486 0
M  V30 10908 H 976.404 -0.79538 3.83131 0
M  V30 10909 H 976.027 -2.38303 3.18273 0
M  V30 10910 N 977.024 -1.50153 -0.478725 0
M  V30 10911 C 977.971 -1.68458 -1.57767 0
M  V30 10912 C 978.941 -0.5259 -1.57555 0
M  V30 10913 O 980.126 -0.755574 -1.75202 0
M  V30 10914 C 977.266 -1.77772 -2.95789 0
M  V30 10915 C 976.379 -3.05092 -3.05848 0
M  V30 10916 C 975.514 -3.05247 -4.34739 0
M  V30 10917 C 974.553 -4.27053 -4.38512 0
M  V30 10918 N 973.69 -4.24991 -5.58862 0
M  V30 10919 H 978.53 -2.62282 -1.41464 0
M  V30 10920 H 976.067 -1.30023 -0.687921 0
M  V30 10921 H 978.025 -1.81152 -3.75819 0
M  V30 10922 H 976.655 -0.873944 -3.10744 0
M  V30 10923 H 975.707 -3.11219 -2.1874 0
M  V30 10924 H 977.019 -3.95075 -3.04495 0
M  V30 10925 H 976.173 -3.07314 -5.23109 0
M  V30 10926 H 974.912 -2.13081 -4.38689 0
M  V30 10927 H 973.917 -4.25206 -3.4854 0
M  V30 10928 H 975.142 -5.20437 -4.36259 0
M  V30 10929 H 973.088 -3.35674 -5.63612 0
M  V30 10930 H 973.005 -5.08734 -5.59219 0
M  V30 10931 H 974.273 -4.31193 -6.49379 0
M  V30 10932 N 978.502 0.731368 -1.39602 0
M  V30 10933 C 979.779 1.48308 -1.27531 0
M  V30 10934 C 980.159 2.10795 0.113482 0
M  V30 10935 O 979.507 1.98886 1.12501 0
M  V30 10936 C 979.717 2.53156 -2.40235 0
M  V30 10937 C 981.065 3.19436 -2.79725 0
M  V30 10938 O 982.089 2.6347 -2.39712 0
M  V30 10939 O 980.948 4.20714 -3.48801 0
M  V30 10940 H 978.042 0.658753 -0.499973 0
M  V30 10941 H 980.588 0.764884 -1.51485 0
M  V30 10942 H 979.36 2.05387 -3.33064 0
M  V30 10943 H 978.983 3.3253 -2.17966 0
M  V30 10944 N 979.98 1.24838 0.961938 0
M  V30 10945 C 981.22 1.10348 1.72054 0
M  V30 10946 C 981.584 -0.350775 1.88769 0
M  V30 10947 O 982.785 -0.617323 2.61615 0
M  V30 10948 C 981.056 1.82916 3.07045 0
M  V30 10949 S 982.615 1.84227 3.98253 0
M  V30 10950 H 979.433 0.394552 0.591481 0
M  V30 10951 H 982.035 1.58254 1.14786 0
M  V30 10952 H 980.739 2.87829 2.92545 0
M  V30 10953 H 980.27 1.35366 3.69377 0
M  V30 10954 H 982.285 0.914073 4.87708 0
M  V30 10955 N 981.458 -1.16348 1.06306 0
M  V30 10956 C 982.39 -2.20316 0.631929 0
M  V30 10957 C 983.403 -1.59819 -0.310133 0
M  V30 10958 O 984.592 -1.78213 -0.101103 0
M  V30 10959 C 981.692 -3.3877 -0.0937645 0
M  V30 10960 C 980.865 -4.28826 0.861816 0
M  V30 10961 C 979.924 -5.25908 0.175346 0
M  V30 10962 O 978.95 -5.63363 0.813039 0
M  V30 10963 N 980.152 -5.70307 -1.08305 0
M  V30 10964 H 982.917 -2.57925 1.52626 0
M  V30 10965 H 980.478 -1.31358 0.946392 0
M  V30 10966 H 982.47 -4.00759 -0.563412 0
M  V30 10967 H 981.04 -2.99666 -0.889904 0
M  V30 10968 H 980.26 -3.64098 1.51083 0
M  V30 10969 H 981.548 -4.85875 1.51007 0
M  V30 10970 H 980.946 -5.4197 -1.62127 0
M  V30 10971 H 979.503 -6.34387 -1.49656 0
M  V30 10972 N 982.937 -0.845659 -1.3299 0
M  V30 10973 C 983.867 -0.298957 -2.31578 0
M  V30 10974 C 984.848 0.597012 -1.59279 0
M  V30 10975 O 986.033 0.519142 -1.87132 0
M  V30 10976 C 983.163 0.521109 -3.43368 0
M  V30 10977 C 982.117 -0.279651 -4.27085 0
M  V30 10978 C 981.443 0.664591 -5.30554 0
M  V30 10979 C 982.743 -1.50046 -5.00283 0
M  V30 10980 H 984.437 -1.12272 -2.77552 0
M  V30 10981 H 981.983 -0.54132 -1.33438 0
M  V30 10982 H 983.936 0.913921 -4.1137 0
M  V30 10983 H 982.66 1.37815 -2.96099 0
M  V30 10984 H 981.319 -0.654106 -3.60717 0
M  V30 10985 H 980.967 1.51822 -4.79541 0
M  V30 10986 H 980.667 0.132871 -5.8745 0
M  V30 10987 H 982.191 1.05477 -6.01421 0
M  V30 10988 H 983.605 -1.18044 -5.61016 0
M  V30 10989 H 982.002 -1.96946 -5.66862 0
M  V30 10990 H 983.072 -2.26659 -4.28665 0
M  V30 10991 N 984.415 1.45619 -0.602734 0
M  V30 10992 C 985.826 1.85814 -0.181636 0
M  V30 10993 C 986.177 1.5037 1.26029 0
M  V30 10994 O 985.302 0.928068 1.95489 0
M  V30 10995 C 985.897 3.37258 -0.322866 0
M  V30 10996 C 984.456 3.76375 0.043504 0
M  V30 10997 C 983.603 2.69585 -0.649561 0
M  V30 10998 H 986.554 1.36489 -0.809721 0
M  V30 10999 H 986.575 3.77874 0.446279 0
M  V30 11000 H 986.087 3.63024 -1.37241 0
M  V30 11001 H 984.188 3.56226 1.09241 0
M  V30 11002 H 984.301 4.77843 -0.346765 0
M  V30 11003 H 982.665 2.54549 -0.087706 0
M  V30 11004 H 983.448 2.98188 -1.70115 0
M  V30 11005 N 985.893 0.34162 1.53853 0
M  V30 11006 C 987.309 -0.0103769 1.59597 0
M  V30 11007 C 987.509 -1.48897 1.35764 0
M  V30 11008 O 986.565 -2.24743 1.15095 0
M  V30 11009 C 987.878 0.424067 2.97695 0
M  V30 11010 C 989.426 0.376247 3.1073 0
M  V30 11011 C 989.901 0.786129 4.51203 0
M  V30 11012 N 991.392 0.74024 4.57247 0
M  V30 11013 C 992.127 1.02937 5.64085 0
M  V30 11014 N 991.623 1.38655 6.78783 0
M  V30 11015 N 993.416 0.953734 5.5395 0
M  V30 11016 H 985.567 1.30477 1.67599 0
M  V30 11017 H 987.83 0.531753 0.78482 0
M  V30 11018 H 987.536 1.45493 3.20195 0
M  V30 11019 H 987.41 -0.201713 3.7666 0
M  V30 11020 H 989.797 -0.645441 2.87955 0
M  V30 11021 H 989.878 1.0372 2.33828 0
M  V30 11022 H 989.522 1.80582 4.74713 0
M  V30 11023 H 989.452 0.102671 5.265 0
M  V30 11024 H 991.943 0.476763 3.7488 0
M  V30 11025 H 992.256 1.59206 7.56223 0
M  V30 11026 H 990.601 1.42498 6.80235 0
M  V30 11027 H 993.792 0.674044 4.63222 0
M  V30 11028 H 993.965 1.18241 6.37121 0
M  V30 11029 N 987.371 -1.57444 0.0701946 0
M  V30 11030 C 988.617 -1.94528 -0.594177 0
M  V30 11031 C 988.972 -0.949898 -1.67316 0
M  V30 11032 O 988.265 0.0280668 -1.91579 0
M  V30 11033 C 988.459 -3.36044 -1.21694 0
M  V30 11034 C 988.288 -4.49256 -0.199806 0
M  V30 11035 C 987.058 -5.04843 0.214963 0
M  V30 11036 C 989.256 -5.11217 0.562312 0
M  V30 11037 N 987.238 -6.01595 1.22297 0
M  V30 11038 C 988.609 -6.03453 1.42284 0
M  V30 11039 C 990.664 -4.94043 0.618555 0
M  V30 11040 C 989.367 -6.80359 2.33461 0
M  V30 11041 C 991.393 -5.71591 1.51783 0
M  V30 11042 C 990.755 -6.63474 2.36604 0
M  V30 11043 H 986.854 -0.758941 -0.1885 0
M  V30 11044 H 989.438 -1.94145 0.146965 0
M  V30 11045 H 987.609 -3.37168 -1.92801 0
M  V30 11046 H 989.341 -3.60368 -1.84165 0
M  V30 11047 H 986.096 -4.73303 -0.167835 0
M  V30 11048 H 986.52 -6.5467 1.72443 0
M  V30 11049 H 991.162 -4.22794 -0.0230235 0
M  V30 11050 H 988.88 -7.50886 2.98656 0
M  V30 11051 H 992.466 -5.60324 1.56616 0
M  V30 11052 H 991.346 -7.22432 3.0506 0
M  V30 11053 N 988.849 0.203349 -1.56283 0
M  V30 11054 C 989.799 1.25595 -1.90289 0
M  V30 11055 C 990.783 1.41403 -0.767732 0
M  V30 11056 O 991.975 1.43912 -1.03046 0
M  V30 11057 C 989.104 2.60255 -2.23881 0
M  V30 11058 C 988.19 2.48274 -3.43833 0
M  V30 11059 N 988.581 2.05963 -4.61966 0
M  V30 11060 C 986.879 2.79188 -3.47808 0
M  V30 11061 C 987.58 2.05674 -5.44126 0
M  V30 11062 N 986.556 2.46862 -4.84314 0
M  V30 11063 H 990.358 0.920016 -2.79129 0
M  V30 11064 H 987.872 0.411829 -1.57091 0
M  V30 11065 H 989.869 3.36274 -2.46425 0
M  V30 11066 H 988.529 2.94678 -1.36363 0
M  V30 11067 H 989.54 1.76803 -4.86787 0
M  V30 11068 H 986.217 3.17863 -2.70684 0
M  V30 11069 H 987.607 1.74932 -6.48728 0
M  V30 11070 N 990.327 1.50405 0.470755 0
M  V30 11071 C 991.26 1.63933 1.58749 0
M  V30 11072 C 992.238 0.487444 1.55122 0
M  V30 11073 O 993.422 0.706992 1.74739 0
M  V30 11074 C 990.549 1.62222 2.97324 0
M  V30 11075 C 989.595 2.82975 3.19104 0
M  V30 11076 S 990.428 4.44272 2.98969 0
M  V30 11077 C 991.584 4.45254 4.39886 0
M  V30 11078 H 991.817 2.58396 1.47034 0
M  V30 11079 H 989.35 1.39672 0.658115 0
M  V30 11080 H 991.308 1.6192 3.77217 0
M  V30 11081 H 989.969 0.689944 3.06429 0
M  V30 11082 H 989.162 2.78083 4.2034 0
M  V30 11083 H 988.764 2.80846 2.46984 0
M  V30 11084 H 991.056 4.18837 5.32524 0
M  V30 11085 H 991.999 5.4687 4.49821 0
M  V30 11086 H 992.407 3.74958 4.2198 0
M  V30 11087 N 991.805 -0.723954 1.39988 0
M  V30 11088 C 992.755 -1.82943 1.36073 0
M  V30 11089 C 993.739 -1.59105 0.239682 0
M  V30 11090 O 994.931 -1.7042 0.478116 0
M  V30 11091 C 992.06 -3.20988 1.21745 0
M  V30 11092 C 991.146 -3.50618 2.38596 0
M  V30 11093 N 991.537 -3.51115 3.64077 0
M  V30 11094 C 989.835 -3.81035 2.31794 0
M  V30 11095 C 990.536 -3.78852 4.41413 0
M  V30 11096 N 989.512 -3.97182 3.71143 0
M  V30 11097 H 993.314 -1.81649 2.31043 0
M  V30 11098 H 990.828 -0.922703 1.33641 0
M  V30 11099 H 992.825 -4.00139 1.17022 0
M  V30 11100 H 991.485 -3.23513 0.277344 0
M  V30 11101 H 992.496 -3.32163 3.97351 0
M  V30 11102 H 989.173 -3.911 1.46105 0
M  V30 11103 H 990.563 -3.85612 5.5023 0
M  V30 11104 N 993.283 -1.25346 -0.955304 0
M  V30 11105 C 994.56 -1.00829 -1.67609 0
M  V30 11106 C 994.94 0.465675 -2.059 0
M  V30 11107 O 994.288 1.44287 -1.77182 0
M  V30 11108 C 994.498 -1.94337 -2.89886 0
M  V30 11109 C 995.846 -2.22142 -3.61854 0
M  V30 11110 O 996.87 -1.9209 -2.99967 0
M  V30 11111 O 995.729 -2.73239 -4.73289 0
M  V30 11112 H 992.823 -0.382314 -0.733325 0
M  V30 11113 H 995.369 -1.36498 -1.00829 0
M  V30 11114 H 994.141 -2.93867 -2.58376 0
M  V30 11115 H 993.764 -1.59062 -3.64397 0
M  V30 11116 N 994.761 1.15782 -1.06922 0
M  V30 11117 C 996.008 1.86465 -0.789752 0
M  V30 11118 C 996.336 1.82075 0.684022 0
M  V30 11119 O 995.591 1.23576 1.51748 0
M  V30 11120 C 995.89 3.35284 -1.2377 0
M  V30 11121 C 995.556 3.59871 -2.71668 0
M  V30 11122 C 994.218 3.6629 -3.12066 0
M  V30 11123 C 996.57 3.69929 -3.67154 0
M  V30 11124 C 993.898 3.80275 -4.46775 0
M  V30 11125 C 996.25 3.85436 -5.01619 0
M  V30 11126 C 994.914 3.901 -5.41644 0
M  V30 11127 H 994.184 0.682324 -0.288991 0
M  V30 11128 H 996.831 1.36861 -1.33945 0
M  V30 11129 H 995.136 3.87065 -0.607309 0
M  V30 11130 H 996.833 3.88371 -0.998431 0
M  V30 11131 H 993.423 3.55512 -2.39393 0
M  V30 11132 H 997.607 3.64274 -3.37073 0
M  V30 11133 H 992.863 3.8214 -4.77262 0
M  V30 11134 H 997.037 3.92161 -5.75485 0
M  V30 11135 H 994.664 4.00688 -6.46029 0
M  V30 11136 N 996.239 0.8527 1.3254 0
M  V30 11137 C 997.486 0.455123 1.97319 0
M  V30 11138 C 997.814 -0.988814 1.67489 0
M  V30 11139 O 997.069 -1.70845 0.954483 0
M  V30 11140 C 997.368 0.638757 3.51646 0
M  V30 11141 C 997.034 2.05287 4.01458 0
M  V30 11142 C 995.696 2.43963 4.14771 0
M  V30 11143 C 998.048 2.9759 4.27889 0
M  V30 11144 C 995.376 3.7422 4.51859 0
M  V30 11145 C 997.728 4.27343 4.66434 0
M  V30 11146 C 996.392 4.65957 4.77954 0
M  V30 11147 H 995.662 0.166541 0.722042 0
M  V30 11148 H 998.309 1.08238 1.57977 0
M  V30 11149 H 996.614 -0.0717394 3.91734 0
M  V30 11150 H 998.311 0.311219 3.9979 0
M  V30 11151 H 994.901 1.74253 3.91579 0
M  V30 11152 H 999.085 2.68942 4.17114 0
M  V30 11153 H 994.341 4.03923 4.58973 0
M  V30 11154 H 998.515 4.9893 4.85841 0
M  V30 11155 H 996.142 5.66934 5.06449 0
M  V30 11156 N 997.718 -1.45297 0.610449 0
M  V30 11157 C 998.668 -2.27639 -0.128194 0
M  V30 11158 C 999.652 -1.37485 -0.835861 0
M  V30 11159 O 1000.84 -1.61454 -0.725378 0
M  V30 11160 C 997.973 -3.24413 -1.123 0
M  V30 11161 C 997.059 -4.22055 -0.416029 0
M  V30 11162 N 997.45 -5.02867 0.543921 0
M  V30 11163 C 995.748 -4.41041 -0.663208 0
M  V30 11164 C 996.449 -5.73728 0.959731 0
M  V30 11165 N 995.425 -5.42756 0.302873 0
M  V30 11166 H 999.227 -2.8752 0.609056 0
M  V30 11167 H 996.741 -1.56484 0.434338 0
M  V30 11168 H 998.738 -3.82139 -1.6666 0
M  V30 11169 H 997.398 -2.66092 -1.86078 0
M  V30 11170 H 998.409 -5.09649 0.920799 0
M  V30 11171 H 995.086 -3.93842 -1.38544 0
M  V30 11172 H 996.476 -6.48666 1.75163 0
M  V30 11173 N 999.196 -0.349774 -1.5367 0
M  V30 11174 C 1000.42 0.248692 -2.05904 0
M  V30 11175 C 1000.85 1.42942 -1.22267 0
M  V30 11176 O 1000.2 1.79732 -0.237899 0
M  V30 11177 C 1000.25 0.635639 -3.54953 0
M  V30 11178 O 999.356 1.7349 -3.74132 0
M  V30 11179 H 998.697 0.0399477 -0.662797 0
M  V30 11180 H 1001.23 -0.505795 -1.9825 0
M  V30 11181 H 1001.24 0.911064 -3.97698 0
M  V30 11182 H 999.912 -0.227805 -4.15276 0
M  V30 11183 H 998.489 1.45626 -3.43289 0
M  V30 11184 N 1000.67 1.57404 -0.0785433 0
M  V30 11185 C 1001.92 1.93744 0.589024 0
M  V30 11186 C 1002.25 0.959087 1.69209 0
M  V30 11187 O 1001.5 -0.0241604 1.95685 0
M  V30 11188 C 1001.8 3.36684 1.1991 0
M  V30 11189 C 1001.47 4.50356 0.221493 0
M  V30 11190 C 1000.13 4.81177 -0.0474347 0
M  V30 11191 C 1002.48 5.1928 -0.446941 0
M  V30 11192 C 999.811 5.78257 -0.99177 0
M  V30 11193 C 1002.16 6.17372 -1.37964 0
M  V30 11194 C 1000.83 6.46607 -1.65697 0
M  V30 11195 H 1000.1 0.70896 0.215539 0
M  V30 11196 H 1002.74 1.90905 -0.150856 0
M  V30 11197 H 1001.05 3.36022 2.01486 0
M  V30 11198 H 1002.75 3.62095 1.72303 0
M  V30 11199 H 999.336 4.26322 0.441284 0
M  V30 11200 H 1003.52 4.95658 -0.252298 0
M  V30 11201 H 998.776 5.9923 -1.21381 0
M  V30 11202 H 1002.95 6.6988 -1.9035 0
M  V30 11203 H 1000.58 7.21643 -2.39031 0
M  V30 11204 N 1002.15 -0.195058 1.56388 0
M  V30 11205 C 1003.08 -1.24444 1.97575 0
M  V30 11206 C 1004.06 -1.47471 0.847717 0
M  V30 11207 O 1005.25 -1.59208 1.11205 0
M  V30 11208 C 1002.38 -2.58866 2.31529 0
M  V30 11209 C 1001.33 -2.50451 3.47071 0
M  V30 11210 C 1000.66 -3.89146 3.667 0
M  V30 11211 C 1001.96 -2.02953 4.81256 0
M  V30 11212 H 1003.65 -0.902178 2.85484 0
M  V30 11213 H 1001.2 -0.43254 1.3735 0
M  V30 11214 H 1003.15 -3.3246 2.58936 0
M  V30 11215 H 1001.87 -2.94833 1.40502 0
M  V30 11216 H 1000.53 -1.79313 3.19754 0
M  V30 11217 H 1000.18 -4.22466 2.73004 0
M  V30 11218 H 999.882 -3.84391 4.44429 0
M  V30 11219 H 1001.41 -4.64363 3.96484 0
M  V30 11220 H 1002.82 -2.66306 5.07695 0
M  V30 11221 H 1001.22 -2.092 5.62455 0
M  V30 11222 H 1002.29 -0.982757 4.74837 0
M  V30 11223 N 1003.63 -1.50653 -0.462772 0
M  V30 11224 C 1004.58 -1.70661 -1.58043 0
M  V30 11225 C 1005.57 -0.572533 -1.59432 0
M  V30 11226 O 1006.78 -0.753257 -1.63481 0
M  V30 11227 H 1003.15 -0.538805 -0.524588 0
M  V30 11228 H 1005.12 -2.64399 -1.38332 0
M  V30 11229 C 1003.87 -1.82558 -2.95919 0
M  V30 11230 H 1003.2 -2.69216 -2.95572 0
M  V30 11231 H 1004.64 -2.0058 -3.73556 0
M  V30 11232 C 1003.09 -0.57916 -3.31885 0
M  V30 11233 O 1003.62 0.277888 -4.00738 0
M  V30 11234 N 1001.83 -0.430723 -2.8739 0
M  V30 11235 H 1001.38 -1.1292 -2.31531 0
M  V30 11236 H 1001.34 0.402061 -3.11819 0
M  V30 11237 N 1005.11 0.71652 -1.4037 0
M  V30 11238 C 1006.35 1.47857 -1.38803 0
M  V30 11239 C 1006.69 1.94197 0.0100536 0
M  V30 11240 O 1005.96 1.68093 0.978521 0
M  V30 11241 C 1006.25 2.7053 -2.37667 0
M  V30 11242 C 1006.1 2.3009 -3.86496 0
M  V30 11243 C 1007.42 3.72684 -2.34082 0
M  V30 11244 H 1004.54 0.53632 -0.505499 0
M  V30 11245 H 1007.18 0.817824 -1.71498 0
M  V30 11246 H 1005.33 3.26906 -2.09916 0
M  V30 11247 H 1007 1.79202 -4.2507 0
M  V30 11248 H 1005.24 1.62102 -4.02375 0
M  V30 11249 H 1005.91 3.18018 -4.51186 0
M  V30 11250 H 1008.39 3.25935 -2.58661 0
M  V30 11251 H 1007.27 4.56157 -3.05306 0
M  V30 11252 H 1007.53 4.20916 -1.35213 0
M  V30 11253 N 1006.59 1.25851 0.948643 0
M  V30 11254 C 1007.83 1.10954 1.69397 0
M  V30 11255 C 1008.16 -0.348443 1.91353 0
M  V30 11256 O 1007.42 -1.27285 1.48651 0
M  V30 11257 C 1007.72 1.81565 3.07846 0
M  V30 11258 C 1007.38 3.31477 3.0567 0
M  V30 11259 C 1006.04 3.72371 3.04784 0
M  V30 11260 C 1008.4 4.27225 2.98543 0
M  V30 11261 C 1005.72 5.07416 2.94527 0
M  V30 11262 C 1008.08 5.62301 2.89828 0
M  V30 11263 C 1006.74 6.02516 2.87281 0
M  V30 11264 H 1006.01 0.406011 0.619868 0
M  V30 11265 H 1008.66 1.562 1.10787 0
M  V30 11266 H 1006.96 1.28767 3.70035 0
M  V30 11267 H 1008.66 1.67486 3.64348 0
M  V30 11268 H 1005.25 2.98941 3.07135 0
M  V30 11269 H 1009.43 3.96618 2.98342 0
M  V30 11270 H 1004.69 5.37746 2.90928 0
M  V30 11271 H 1008.86 6.36182 2.83276 0
M  V30 11272 H 1006.49 7.07116 2.79089 0
M  V30 11273 N 1008.06 -1.15214 1.07534 0
M  V30 11274 C 1009.48 -1.38031 0.801228 0
M  V30 11275 C 1009.68 -1.92556 -0.593672 0
M  V30 11276 O 1008.74 -2.1325 -1.35206 0
M  V30 11277 C 1010.05 -2.34958 1.87657 0
M  V30 11278 C 1011.6 -2.48617 1.90154 0
M  V30 11279 C 1012.07 -3.48837 2.96777 0
M  V30 11280 N 1013.56 -3.56374 2.95892 0
M  V30 11281 C 1014.3 -4.33746 3.75036 0
M  V30 11282 N 1013.79 -5.14435 4.64036 0
M  V30 11283 N 1015.59 -4.28853 3.63375 0
M  V30 11284 H 1007.74 -0.781639 1.97495 0
M  V30 11285 H 1010 -0.406243 0.856546 0
M  V30 11286 H 1009.71 -2.02013 2.87895 0
M  V30 11287 H 1009.58 -3.3476 1.73827 0
M  V30 11288 H 1011.97 -2.80859 0.905666 0
M  V30 11289 H 1012.05 -1.48808 2.08062 0
M  V30 11290 H 1011.69 -3.1733 3.96565 0
M  V30 11291 H 1011.62 -4.48406 2.76116 0
M  V30 11292 H 1014.11 -2.98784 2.31379 0
M  V30 11293 H 1014.43 -5.70722 5.21053 0
M  V30 11294 H 1012.77 -5.13734 4.68084 0
M  V30 11295 H 1015.96 -3.64882 2.93221 0
M  V30 11296 H 1016.14 -4.88903 4.25298 0
M  V30 11297 N 1009.54 -0.859717 -1.32086 0
M  V30 11298 C 1010.79 -0.461779 -1.96343 0
M  V30 11299 C 1011.1 0.988837 -1.68764 0
M  V30 11300 O 1012.31 1.49244 -2.268 0
M  V30 11301 C 1010.77 -0.77484 -3.5146 0
M  V30 11302 C 1010.37 -2.24153 -3.87891 0
M  V30 11303 C 1012.12 -0.444873 -4.22162 0
M  V30 11304 C 1010.03 -2.49754 -5.36075 0
M  V30 11305 H 1008.96 -0.168951 -0.734828 0
M  V30 11306 H 1011.61 -1.0512 -1.50406 0
M  V30 11307 H 1009.99 -0.114792 -3.95834 0
M  V30 11308 H 1011.16 -2.94378 -3.54511 0
M  V30 11309 H 1009.48 -2.53651 -3.30227 0
M  V30 11310 H 1012.07 -0.613508 -5.31169 0
M  V30 11311 H 1012.42 0.61391 -4.11749 0
M  V30 11312 H 1012.95 -1.06103 -3.83389 0
M  V30 11313 H 1009.69 -3.54276 -5.51515 0
M  V30 11314 H 1009.21 -1.84112 -5.70844 0
M  V30 11315 H 1010.89 -2.3396 -6.03218 0
M  V30 11316 N 1011.02 1.44971 -0.618145 0
M  V30 11317 C 1011.95 2.33357 0.0815955 0
M  V30 11318 C 1012.93 1.47451 0.848072 0
M  V30 11319 O 1014.12 1.762 0.816532 0
M  V30 11320 C 1011.25 3.30324 1.07253 0
M  V30 11321 C 1010.2 4.25948 0.418563 0
M  V30 11322 C 1009.53 5.12685 1.51849 0
M  V30 11323 C 1010.83 5.18024 -0.66697 0
M  V30 11324 H 1012.52 2.92115 -0.656442 0
M  V30 11325 H 1010.07 1.40465 -0.317129 0
M  V30 11326 H 1012.02 3.91033 1.57069 0
M  V30 11327 H 1010.74 2.69748 1.8413 0
M  V30 11328 H 1009.4 3.66553 -0.0588308 0
M  V30 11329 H 1009.05 4.4847 2.2778 0
M  V30 11330 H 1008.75 5.7747 1.08637 0
M  V30 11331 H 1010.27 5.76264 2.01871 0
M  V30 11332 H 1011.69 5.72744 -0.252448 0
M  V30 11333 H 1010.09 5.91343 -1.02146 0
M  V30 11334 H 1011.16 4.59817 -1.53936 0
M  V30 11335 N 1012.5 0.357919 1.53482 0
M  V30 11336 C 1013.74 -0.23433 2.03052 0
M  V30 11337 C 1014.1 -1.46614 1.23969 0
M  V30 11338 O 1015.3 -2.13351 1.63508 0
M  V30 11339 C 1013.57 -0.526653 3.53498 0
M  V30 11340 S 1015.13 -1.09366 4.24952 0
M  V30 11341 H 1011.95 -0.0687848 0.707665 0
M  V30 11342 H 1014.55 0.499011 1.89024 0
M  V30 11343 H 1013.26 0.377463 4.0866 0
M  V30 11344 H 1012.79 -1.28927 3.71674 0
M  V30 11345 H 1014.8 -2.37845 4.35481 0
M  V30 11346 N 1013.98 -1.5736 0.0868897 0
M  V30 11347 C 1015.22 -1.9367 -0.577598 0
M  V30 11348 C 1015.55 -0.968844 -1.69229 0
M  V30 11349 O 1014.82 -0.0195061 -1.9589 0
M  V30 11350 H 1013.4 -0.714983 -0.216353 0
M  V30 11351 H 1016.06 -1.94335 0.148294 0
M  V30 11352 H 1015.15 -2.95877 -0.993128 0
M  V30 11353 N 1015.45 0.186762 -1.56489 0
M  V30 11354 C 1016.36 1.25169 -1.98419 0
M  V30 11355 C 1017.38 1.49329 -0.893124 0
M  V30 11356 O 1018.56 1.61781 -1.19954 0
M  V30 11357 C 1015.62 2.57422 -2.32239 0
M  V30 11358 C 1014.68 2.4126 -3.55095 0
M  V30 11359 C 1013.92 3.67206 -3.87292 0
M  V30 11360 O 1014.14 4.71731 -3.20665 0
M  V30 11361 O 1013.07 3.62238 -4.80695 0
M  V30 11362 H 1016.9 0.925834 -2.89244 0
M  V30 11363 H 1014.48 0.392421 -1.44154 0
M  V30 11364 H 1016.37 3.35466 -2.5503 0
M  V30 11365 H 1015.04 2.89618 -1.44579 0
M  V30 11366 H 1013.95 1.61299 -3.37541 0
M  V30 11367 H 1015.28 2.13994 -4.43247 0
M  V30 11368 N 1016.93 1.50896 0.454776 0
M  V30 11369 C 1018.18 1.63905 1.20444 0
M  V30 11370 C 1018.53 0.342692 1.89323 0
M  V30 11371 O 1017.83 -0.660465 1.79857 0
M  V30 11372 C 1018.02 2.76839 2.26042 0
M  V30 11373 C 1017.85 4.17332 1.67524 0
M  V30 11374 C 1016.62 4.83512 1.46779 0
M  V30 11375 C 1018.82 5.01022 1.1611 0
M  V30 11376 N 1016.8 6.08171 0.83675 0
M  V30 11377 C 1018.17 6.16538 0.654283 0
M  V30 11378 C 1020.23 4.86677 1.05119 0
M  V30 11379 C 1018.93 7.19284 0.0483821 0
M  V30 11380 C 1020.95 5.89614 0.459211 0
M  V30 11381 C 1020.32 7.0439 -0.0371476 0
M  V30 11382 H 1016.42 0.653802 0.42903 0
M  V30 11383 H 1019 1.88069 0.503783 0
M  V30 11384 H 1017.17 2.54369 2.93515 0
M  V30 11385 H 1018.9 2.7912 2.93043 0
M  V30 11386 H 1015.66 4.41082 1.72464 0
M  V30 11387 H 1016.08 6.7485 0.539176 0
M  V30 11388 H 1020.72 3.98211 1.42085 0
M  V30 11389 H 1018.44 8.07412 -0.333438 0
M  V30 11390 H 1022.03 5.80582 0.376315 0
M  V30 11391 H 1020.91 7.8268 -0.488035 0
M  V30 11392 N 1018.41 -0.709066 1.40748 0
M  V30 11393 C 1019.66 -1.47119 1.39585 0
M  V30 11394 C 1019.99 -1.942 0.000245323 0
M  V30 11395 O 1019.26 -1.68609 -0.969593 0
M  V30 11396 C 1019.55 -2.69266 2.39099 0
M  V30 11397 C 1019.4 -2.28037 3.8771 0
M  V30 11398 C 1020.72 -3.71438 2.36055 0
M  V30 11399 H 1017.84 -0.533632 0.508336 0
M  V30 11400 H 1020.48 -0.808718 1.7193 0
M  V30 11401 H 1018.63 -3.25788 2.11647 0
M  V30 11402 H 1020.3 -1.76946 4.26014 0
M  V30 11403 H 1018.55 -1.59966 4.03229 0
M  V30 11404 H 1019.22 -3.15621 4.52866 0
M  V30 11405 H 1021.69 -3.24559 2.60385 0
M  V30 11406 H 1020.57 -4.54532 3.07721 0
M  V30 11407 H 1020.83 -4.20193 1.37443 0
M  V30 11408 N 1019.89 -1.26353 -0.941956 0
M  V30 11409 C 1020.8 -1.09618 -2.07415 0
M  V30 11410 C 1021.82 -0.0298963 -1.73974 0
M  V30 11411 O 1022.99 -0.233466 -2.00042 0
M  V30 11412 C 1020.06 -0.73013 -3.38925 0
M  V30 11413 C 1019.12 -1.87574 -3.86153 0
M  V30 11414 C 1018.35 -1.52706 -5.11387 0
M  V30 11415 O 1018.57 -0.428438 -5.68789 0
M  V30 11416 O 1017.51 -2.36154 -5.53638 0
M  V30 11417 H 1021.33 -2.04598 -2.2444 0
M  V30 11418 H 1018.92 -1.05407 -1.05876 0
M  V30 11419 H 1020.8 -0.538684 -4.17943 0
M  V30 11420 H 1019.48 0.190282 -3.2314 0
M  V30 11421 H 1018.38 -2.12214 -3.08084 0
M  V30 11422 H 1019.72 -2.77585 -4.06457 0
M  V30 11423 N 1021.37 1.14642 -1.08144 0
M  V30 11424 C 1022.6 1.89484 -0.830864 0
M  V30 11425 C 1023.01 1.78443 0.616722 0
M  V30 11426 O 1022.37 1.14191 1.42361 0
M  V30 11427 C 1022.42 3.39554 -1.24039 0
M  V30 11428 O 1022.14 3.50286 -2.63119 0
M  V30 11429 C 1023.64 4.31399 -1.02029 0
M  V30 11430 H 1020.86 0.600283 -0.299835 0
M  V30 11431 H 1023.4 1.45204 -1.44001 0
M  V30 11432 H 1021.56 3.81467 -0.675407 0
M  V30 11433 H 1021.97 4.43481 -2.80045 0
M  V30 11434 H 1023.45 5.35079 -1.35625 0
M  V30 11435 H 1023.92 4.39179 0.0428697 0
M  V30 11436 H 1024.53 3.95238 -1.57057 0
M  V30 11437 N 1022.85 0.866709 1.31628 0
M  V30 11438 C 1023.78 0.335762 2.31073 0
M  V30 11439 C 1024.76 -0.571597 1.60209 0
M  V30 11440 O 1025.94 -0.489306 1.87935 0
M  V30 11441 C 1023.07 -0.466416 3.44154 0
M  V30 11442 C 1022.03 0.347561 4.26586 0
M  V30 11443 C 1021.35 -0.5801 5.31544 0
M  V30 11444 C 1022.65 1.57986 4.97833 0
M  V30 11445 H 1024.35 1.16673 2.75731 0
M  V30 11446 H 1021.89 0.56248 1.3256 0
M  V30 11447 H 1023.84 -0.84836 4.12772 0
M  V30 11448 H 1022.57 -1.33086 2.98254 0
M  V30 11449 H 1021.23 0.71141 3.59631 0
M  V30 11450 H 1020.88 -1.44174 4.81895 0
M  V30 11451 H 1020.58 -0.0393965 5.87587 0
M  V30 11452 H 1022.1 -0.958958 6.03023 0
M  V30 11453 H 1023.51 1.26954 5.59067 0
M  V30 11454 H 1021.91 2.05939 5.63657 0
M  V30 11455 H 1022.98 2.3345 4.25005 0
M  V30 11456 N 1024.32 -1.44642 0.625825 0
M  V30 11457 C 1025.57 -2.02939 0.13689 0
M  V30 11458 C 1025.92 -1.48308 -1.22566 0
M  V30 11459 O 1025.22 -0.655458 -1.8004 0
M  V30 11460 C 1025.41 -3.57352 0.0584381 0
M  V30 11461 C 1025.24 -4.26963 1.41184 0
M  V30 11462 C 1024.01 -4.64153 1.99725 0
M  V30 11463 C 1026.21 -4.5775 2.34455 0
M  V30 11464 N 1024.19 -5.18706 3.28356 0
M  V30 11465 C 1025.56 -5.1333 3.47696 0
M  V30 11466 C 1027.62 -4.39699 2.336 0
M  V30 11467 C 1026.32 -5.5276 4.60271 0
M  V30 11468 C 1028.35 -4.80173 3.45235 0
M  V30 11469 C 1027.71 -5.35862 4.572 0
M  V30 11470 H 1023.81 -0.776343 0.0938879 0
M  V30 11471 H 1026.39 -1.76209 0.828162 0
M  V30 11472 H 1024.56 -3.83705 -0.6021 0
M  V30 11473 H 1026.29 -4.02314 -0.438835 0
M  V30 11474 H 1023.05 -4.48298 1.52728 0
M  V30 11475 H 1023.47 -5.50464 3.94105 0
M  V30 11476 H 1028.11 -3.95942 1.48289 0
M  V30 11477 H 1025.83 -5.95473 5.46294 0
M  V30 11478 H 1029.42 -4.67924 3.45743 0
M  V30 11479 H 1028.3 -5.66602 5.42154 0
M  V30 11480 N 1025.8 -0.366053 -1.5329 0
M  V30 11481 C 1027.08 0.279902 -1.93587 0
M  V30 11482 C 1027.46 1.66352 -1.29963 0
M  V30 11483 O 1026.81 2.23845 -0.458895 0
M  V30 11484 C 1027.02 0.329634 -3.4744 0
M  V30 11485 C 1028.36 0.569754 -4.2076 0
M  V30 11486 O 1029.39 0.410823 -3.53823 0
M  V30 11487 O 1028.25 0.879262 -5.3938 0
M  V30 11488 H 1025.34 0.16802 -0.809752 0
M  V30 11489 H 1027.89 -0.418871 -1.64449 0
M  V30 11490 H 1026.66 -0.640434 -3.86023 0
M  V30 11491 H 1026.28 1.07428 -3.82812 0
M  V30 11492 N 1027.28 1.57312 -0.0952337 0
M  V30 11493 C 1028.52 1.96239 0.571813 0
M  V30 11494 C 1028.88 0.97602 1.65342 0
M  V30 11495 O 1030.08 1.25379 2.37768 0
M  V30 11496 C 1028.36 3.39644 1.1125 0
M  V30 11497 S 1029.91 4.00568 1.7914 0
M  V30 11498 H 1026.73 0.686081 0.186585 0
M  V30 11499 H 1029.33 1.94718 -0.174669 0
M  V30 11500 H 1028.04 4.09199 0.313796 0
M  V30 11501 H 1027.57 3.44762 1.89481 0
M  V30 11502 H 1029.58 3.89383 3.07563 0
M  V30 11503 N 1028.76 -0.17846 1.56586 0
M  V30 11504 C 1029.69 -1.2496 1.90946 0
M  V30 11505 C 1030.67 -1.43136 0.771424 0
M  V30 11506 O 1031.85 -1.58258 1.02405 0
M  V30 11507 C 1028.98 -2.61368 2.15417 0
M  V30 11508 C 1028.03 -2.59969 3.3811 0
M  V30 11509 S 1028.86 -2.09756 4.9271 0
M  V30 11510 C 1030.01 -3.47956 5.20267 0
M  V30 11511 H 1030.25 -0.956287 2.815 0
M  V30 11512 H 1027.78 -0.382709 1.49582 0
M  V30 11513 H 1029.74 -3.39882 2.30197 0
M  V30 11514 H 1028.4 -2.87903 1.25582 0
M  V30 11515 H 1027.59 -3.60309 3.52411 0
M  V30 11516 H 1027.19 -1.89547 3.2241 0
M  V30 11517 H 1029.49 -4.43914 5.11807 0
M  V30 11518 H 1030.43 -3.38536 6.21932 0
M  V30 11519 H 1030.84 -3.43637 4.47855 0
M  V30 11520 N 1030.24 -1.51135 -0.446768 0
M  V30 11521 C 1031.15 -1.74595 -1.56696 0
M  V30 11522 C 1032.16 -0.629816 -1.62201 0
M  V30 11523 O 1033.34 -0.910987 -1.79619 0
M  V30 11524 C 1030.4 -1.85738 -2.9275 0
M  V30 11525 C 1029.46 -3.09564 -2.97437 0
M  V30 11526 C 1028.7 -3.20165 -4.27001 0
M  V30 11527 O 1028.92 -2.36939 -5.1886 0
M  V30 11528 O 1027.85 -4.13077 -4.3778 0
M  V30 11529 H 1031.68 -2.69601 -1.39817 0
M  V30 11530 H 1029.26 -1.35523 -0.628805 0
M  V30 11531 H 1031.15 -1.95107 -3.73512 0
M  V30 11532 H 1029.82 -0.939184 -3.09776 0
M  V30 11533 H 1028.73 -3.05679 -2.15664 0
M  V30 11534 H 1030.06 -4.01041 -2.85353 0
M  V30 11535 N 1031.71 0.701592 -1.41122 0
M  V30 11536 C 1032.96 1.46376 -1.40363 0
M  V30 11537 C 1033.29 1.94197 -0.0105442 0
M  V30 11538 O 1032.57 1.69121 0.960637 0
M  V30 11539 C 1032.85 2.67994 -2.40523 0
M  V30 11540 C 1032.7 2.25977 -3.88914 0
M  V30 11541 C 1034.02 3.70181 -2.38022 0
M  V30 11542 H 1031.14 0.530929 -0.511159 0
M  V30 11543 H 1033.78 0.799588 -1.72356 0
M  V30 11544 H 1031.93 3.24661 -2.13372 0
M  V30 11545 H 1033.61 1.74684 -4.26946 0
M  V30 11546 H 1031.85 1.57826 -4.04071 0
M  V30 11547 H 1032.52 3.13215 -4.54533 0
M  V30 11548 H 1035 3.23174 -2.62103 0
M  V30 11549 H 1033.87 4.52894 -3.10127 0
M  V30 11550 H 1034.13 4.19458 -1.3967 0
M  V30 11551 N 1033.19 1.2685 0.935242 0
M  V30 11552 C 1034.15 1.08975 2.01636 0
M  V30 11553 C 1035.15 0.0361543 1.60759 0
M  V30 11554 O 1036.34 0.280087 1.71934 0
M  V30 11555 C 1033.48 0.658831 3.34473 0
M  V30 11556 H 1034.67 2.04968 2.18925 0
M  V30 11557 H 1032.22 1.09531 1.11501 0
M  V30 11558 H 1032.96 -0.302824 3.22883 0
M  V30 11559 H 1032.74 1.41967 3.65497 0
M  V30 11560 H 1034.23 0.555783 4.13885 0
M  V30 11561 N 1034.67 -1.14067 1.0875 0
M  V30 11562 C 1035.92 -1.84819 0.817698 0
M  V30 11563 C 1036.24 -1.83545 -0.658488 0
M  V30 11564 O 1035.51 -1.28633 -1.47751 0
M  V30 11565 H 1034.09 -0.68433 0.299502 0
M  V30 11566 H 1036.75 -1.38208 1.37421 0
M  V30 11567 H 1035.85 -2.89541 1.16501 0
M  V30 11568 N 1036.15 -0.873678 -1.31166 0
M  V30 11569 C 1037.08 -0.289389 -2.27366 0
M  V30 11570 C 1038.09 0.549667 -1.5324 0
M  V30 11571 O 1039.28 0.371056 -1.74601 0
M  V30 11572 C 1036.38 0.60807 -3.334 0
M  V30 11573 C 1035.56 -0.199379 -4.36945 0
M  V30 11574 C 1034.61 0.626798 -5.22454 0
M  V30 11575 O 1033.64 0.0535121 -5.69175 0
M  V30 11576 N 1034.84 1.93809 -5.47191 0
M  V30 11577 H 1037.61 -1.1161 -2.78143 0
M  V30 11578 H 1035.17 -0.735529 -1.44228 0
M  V30 11579 H 1037.16 1.16656 -3.87522 0
M  V30 11580 H 1035.73 1.33545 -2.82638 0
M  V30 11581 H 1034.95 -0.939316 -3.82845 0
M  V30 11582 H 1036.24 -0.75329 -5.03193 0
M  V30 11583 H 1035.64 2.42693 -5.10995 0
M  V30 11584 H 1034.19 2.44428 -6.04234 0
M  V30 11585 N 1037.63 1.44308 -0.633487 0
M  V30 11586 C 1038.85 2.06897 -0.144347 0
M  V30 11587 C 1039.28 1.47045 1.173 0
M  V30 11588 O 1038.63 0.572806 1.72013 0
M  V30 11589 C 1038.68 3.60571 -0.0456324 0
M  V30 11590 O 1037.79 4.0015 0.997682 0
M  V30 11591 H 1037.13 0.658427 -0.0858499 0
M  V30 11592 H 1039.66 1.85142 -0.870833 0
M  V30 11593 H 1039.67 4.07745 0.144178 0
M  V30 11594 H 1038.34 4.03515 -1.0074 0
M  V30 11595 H 1036.92 3.64603 0.782252 0
M  V30 11596 N 1039.1 0.374177 1.53094 0
M  V30 11597 C 1040.35 -0.205669 2.02358 0
M  V30 11598 C 1040.71 -1.4572 1.25633 0
M  V30 11599 O 1040 -1.88487 0.343977 0
M  V30 11600 C 1040.19 -0.542179 3.53264 0
M  V30 11601 C 1040.02 0.675186 4.44602 0
M  V30 11602 C 1038.79 1.18987 4.91091 0
M  V30 11603 C 1040.99 1.54299 4.90608 0
M  V30 11604 N 1038.97 2.36637 5.66459 0
M  V30 11605 C 1040.34 2.56605 5.64406 0
M  V30 11606 C 1042.4 1.56486 4.7267 0
M  V30 11607 C 1041.1 3.60965 6.22171 0
M  V30 11608 C 1043.13 2.59745 5.31307 0
M  V30 11609 C 1042.49 3.60774 6.04997 0
M  V30 11610 H 1038.59 -0.0377471 0.781088 0
M  V30 11611 H 1041.17 0.520661 1.87609 0
M  V30 11612 H 1039.34 -1.23758 3.68156 0
M  V30 11613 H 1041.07 -1.10786 3.89241 0
M  V30 11614 H 1037.83 0.753181 4.67573 0
M  V30 11615 H 1038.25 2.96123 6.08802 0
M  V30 11616 H 1042.9 0.797296 4.15214 0
M  V30 11617 H 1040.61 4.38599 6.78717 0
M  V30 11618 H 1044.2 2.62301 5.19316 0
M  V30 11619 H 1043.08 4.39363 6.49561 0
M  V30 11620 N 1040.58 -1.57259 0.103575 0
M  V30 11621 C 1041.82 -1.96539 -0.561398 0
M  V30 11622 C 1042.19 -0.984775 -1.64822 0
M  V30 11623 O 1043.39 -1.26638 -2.371 0
M  V30 11624 C 1041.66 -3.40229 -1.09447 0
M  V30 11625 S 1043.22 -4.01512 -1.77013 0
M  V30 11626 H 1040.04 -0.687061 -0.182944 0
M  V30 11627 H 1042.64 -1.94623 0.184993 0
M  V30 11628 H 1041.34 -4.09359 -0.292091 0
M  V30 11629 H 1040.87 -3.45762 -1.8765 0
M  V30 11630 H 1042.89 -3.91009 -3.05494 0
M  V30 11631 N 1042.06 0.170153 -1.56679 0
M  V30 11632 C 1043.31 0.884902 -1.81252 0
M  V30 11633 C 1043.62 1.83361 -0.681024 0
M  V30 11634 O 1044.83 2.59082 -0.811722 0
M  V30 11635 C 1043.28 1.62408 -3.21172 0
M  V30 11636 C 1042.89 0.718947 -4.42194 0
M  V30 11637 C 1044.64 2.32699 -3.55037 0
M  V30 11638 C 1042.54 1.45843 -5.73135 0
M  V30 11639 H 1041.47 0.33418 -0.675899 0
M  V30 11640 H 1044.12 0.137818 -1.82982 0
M  V30 11641 H 1042.51 2.41596 -3.13763 0
M  V30 11642 H 1043.68 -0.0360521 -4.60786 0
M  V30 11643 H 1042 0.125634 -4.1621 0
M  V30 11644 H 1044.59 2.88621 -4.50114 0
M  V30 11645 H 1044.94 3.08092 -2.79974 0
M  V30 11646 H 1045.47 1.60453 -3.64005 0
M  V30 11647 H 1042.21 0.746799 -6.51232 0
M  V30 11648 H 1041.73 2.18672 -5.58518 0
M  V30 11649 H 1043.41 2.0056 -6.1513 0
M  V30 11650 N 1043.54 1.5137 0.438746 0
M  V30 11651 C 1044.95 1.56462 1.01866 0
M  V30 11652 C 1045.3 0.387244 1.9234 0
M  V30 11653 O 1044.43 -0.496131 2.10636 0
M  V30 11654 C 1045.02 2.83557 1.85421 0
M  V30 11655 C 1043.58 2.91224 2.38464 0
M  V30 11656 C 1042.73 2.51109 1.17641 0
M  V30 11657 H 1045.68 1.57167 0.220072 0
M  V30 11658 H 1045.7 2.6724 2.70857 0
M  V30 11659 H 1045.21 3.69229 1.19546 0
M  V30 11660 H 1043.31 2.09979 3.07798 0
M  V30 11661 H 1043.42 3.94844 2.71358 0
M  V30 11662 H 1041.79 2.04276 1.5213 0
M  V30 11663 H 1042.57 3.39125 0.533785 0
M  V30 11664 N 1045.02 -0.694098 1.41492 0
M  V30 11665 C 1046.26 -1.45415 1.40929 0
M  V30 11666 C 1046.59 -1.94491 0.0189301 0
M  V30 11667 O 1045.85 -1.7 -0.96945 0
M  V30 11668 C 1046.15 -2.6805 2.36398 0
M  V30 11669 C 1045.81 -2.37623 3.83205 0
M  V30 11670 C 1044.47 -2.29035 4.23198 0
M  V30 11671 C 1046.83 -2.12555 4.75888 0
M  V30 11672 C 1044.15 -1.93478 5.5388 0
M  V30 11673 C 1046.51 -1.78506 6.06892 0
M  V30 11674 C 1045.17 -1.68415 6.45905 0
M  V30 11675 H 1044.44 -0.53211 0.515694 0
M  V30 11676 H 1047.09 -0.793193 1.74301 0
M  V30 11677 H 1045.39 -3.39086 1.96285 0
M  V30 11678 H 1047.09 -3.26194 2.33234 0
M  V30 11679 H 1043.68 -2.45202 3.51531 0
M  V30 11680 H 1047.86 -2.18133 4.45793 0
M  V30 11681 H 1043.12 -1.84219 5.82986 0
M  V30 11682 H 1047.29 -1.58128 6.7821 0
M  V30 11683 H 1044.92 -1.40631 7.47079 0
M  V30 11684 N 1046.49 -1.27344 -0.928501 0
M  V30 11685 C 1047.72 -1.16278 -1.70772 0
M  V30 11686 C 1048.13 0.283131 -1.8707 0
M  V30 11687 O 1047.48 1.20466 -1.38685 0
M  V30 11688 C 1047.54 -1.77313 -3.1273 0
M  V30 11689 C 1047.2 -3.26488 -3.19773 0
M  V30 11690 C 1048.2 -4.23133 -3.02083 0
M  V30 11691 C 1045.88 -3.67182 -3.42757 0
M  V30 11692 C 1047.88 -5.5845 -3.07267 0
M  V30 11693 C 1045.56 -5.02629 -3.47574 0
M  V30 11694 C 1046.56 -5.98072 -3.29847 0
M  V30 11695 O 1046.25 -7.3105 -3.34397 0
M  V30 11696 H 1045.98 -0.405215 -0.541089 0
M  V30 11697 H 1048.54 -1.68707 -1.17163 0
M  V30 11698 H 1046.77 -1.19361 -3.67818 0
M  V30 11699 H 1048.46 -1.60972 -3.72616 0
M  V30 11700 H 1049.22 -3.93031 -2.84168 0
M  V30 11701 H 1045.1 -2.93369 -3.55606 0
M  V30 11702 H 1048.64 -6.32924 -2.93348 0
M  V30 11703 H 1044.54 -5.32387 -3.65013 0
M  V30 11704 H 1045.31 -7.39488 -3.50857 0
M  V30 11705 N 1047.97 1.13488 -1.09353 0
M  V30 11706 C 1048.9 2.20988 -0.75409 0
M  V30 11707 C 1049.88 1.67977 0.267901 0
M  V30 11708 O 1051.07 1.93722 0.136128 0
M  V30 11709 C 1048.2 3.46869 -0.173042 0
M  V30 11710 C 1047.15 4.12965 -1.12446 0
M  V30 11711 C 1046.48 5.33163 -0.405157 0
M  V30 11712 C 1047.78 4.60388 -2.46658 0
M  V30 11713 H 1049.47 2.49639 -1.6529 0
M  V30 11714 H 1047.02 1.19987 -0.796182 0
M  V30 11715 H 1048.97 4.21331 0.0764988 0
M  V30 11716 H 1047.7 3.17611 0.760956 0
M  V30 11717 H 1046.35 3.40469 -1.35927 0
M  V30 11718 H 1046 5.00169 0.532955 0
M  V30 11719 H 1045.7 5.78332 -1.03952 0
M  V30 11720 H 1047.23 6.1038 -0.163899 0
M  V30 11721 H 1048.64 5.26276 -2.27389 0
M  V30 11722 H 1047.04 5.16294 -3.05876 0
M  V30 11723 H 1048.11 3.74949 -3.07476 0
M  V30 11724 N 1049.45 0.880621 1.30701 0
M  V30 11725 C 1050.38 0.288813 2.26365 0
M  V30 11726 C 1051.36 -0.588135 1.51591 0
M  V30 11727 O 1052.55 -0.539197 1.80624 0
M  V30 11728 C 1049.67 -0.590032 3.33521 0
M  V30 11729 C 1048.72 0.217003 4.25948 0
M  V30 11730 S 1049.55 1.60246 5.10961 0
M  V30 11731 C 1050.71 0.730023 6.21628 0
M  V30 11732 H 1050.94 1.09971 2.76213 0
M  V30 11733 H 1048.47 0.67978 1.3863 0
M  V30 11734 H 1050.43 -1.09136 3.95727 0
M  V30 11735 H 1049.09 -1.37498 2.82406 0
M  V30 11736 H 1048.29 -0.453481 5.01956 0
M  V30 11737 H 1047.89 0.650803 3.68294 0
M  V30 11738 H 1050.18 -0.0548644 6.77478 0
M  V30 11739 H 1051.12 1.46157 6.92852 0
M  V30 11740 H 1051.53 0.292854 5.6374 0
M  V30 11741 N 1050.93 -1.4397 0.641131 0
M  V30 11742 C 1052.18 -2.02246 0.14985 0
M  V30 11743 C 1052.51 -1.50387 -1.22871 0
M  V30 11744 O 1051.78 -0.692003 -1.81773 0
M  V30 11745 C 1052.07 -3.59798 0.147449 0
M  V30 11746 C 1051.92 -4.21916 1.55907 0
M  V30 11747 C 1053.24 -4.36985 -0.522667 0
M  V30 11748 H 1050.36 -0.734875 0.0559274 0
M  V30 11749 H 1053 -1.71418 0.819513 0
M  V30 11750 H 1051.15 -3.86193 -0.422789 0
M  V30 11751 H 1052.82 -4.06594 2.17896 0
M  V30 11752 H 1051.06 -3.79028 2.10998 0
M  V30 11753 H 1051.74 -5.30964 1.50934 0
M  V30 11754 H 1054.21 -4.16083 -0.0376226 0
M  V30 11755 H 1053.09 -5.46676 -0.493572 0
M  V30 11756 H 1053.35 -4.12335 -1.59475 0
M  V30 11757 N 1052.41 -0.382291 -1.52893 0
M  V30 11758 C 1053.66 0.203342 -2.00672 0
M  V30 11759 C 1053.97 1.48487 -1.27322 0
M  V30 11760 O 1055.18 2.15013 -1.65776 0
M  V30 11761 C 1053.63 0.412922 -3.57523 0
M  V30 11762 C 1053.24 -0.854949 -4.39767 0
M  V30 11763 C 1054.98 0.955301 -4.13611 0
M  V30 11764 C 1052.89 -0.614033 -5.88204 0
M  V30 11765 H 1051.82 0.0797635 -0.749769 0
M  V30 11766 H 1054.47 -0.50361 -1.76454 0
M  V30 11767 H 1052.85 1.18155 -3.77962 0
M  V30 11768 H 1054.03 -1.62765 -4.31096 0
M  V30 11769 H 1052.34 -1.32176 -3.94865 0
M  V30 11770 H 1054.94 1.15114 -5.22162 0
M  V30 11771 H 1055.28 1.92233 -3.69259 0
M  V30 11772 H 1055.82 0.24642 -3.97036 0
M  V30 11773 H 1052.55 -1.55187 -6.36865 0
M  V30 11774 H 1052.07 0.119865 -5.9968 0
M  V30 11775 H 1053.75 -0.245895 -6.46533 0
M  V30 11776 N 1053.89 1.57202 -0.111913 0
M  V30 11777 C 1054.82 2.17957 0.837683 0
M  V30 11778 C 1055.8 1.1176 1.28233 0
M  V30 11779 O 1056.98 1.39967 1.34621 0
M  V30 11780 C 1054.11 2.77333 2.09054 0
M  V30 11781 C 1053.07 3.8905 1.78393 0
M  V30 11782 C 1052.39 4.35203 3.10649 0
M  V30 11783 C 1053.69 5.11477 1.05775 0
M  V30 11784 H 1055.39 2.9756 0.331441 0
M  V30 11785 H 1052.93 1.43131 0.157979 0
M  V30 11786 H 1054.88 3.18492 2.75936 0
M  V30 11787 H 1053.61 1.95009 2.6199 0
M  V30 11788 H 1052.27 3.48456 1.13903 0
M  V30 11789 H 1051.92 3.49747 3.61506 0
M  V30 11790 H 1051.62 5.10534 2.9091 0
M  V30 11791 H 1053.14 4.79007 3.78661 0
M  V30 11792 H 1054.55 5.497 1.62798 0
M  V30 11793 H 1052.95 5.92346 0.961573 0
M  V30 11794 H 1054.02 4.84881 0.043297 0
M  V30 11795 N 1055.36 -0.161842 1.56767 0
M  V30 11796 C 1056.61 -0.875278 1.81719 0
M  V30 11797 C 1056.93 -1.82998 0.690739 0
M  V30 11798 O 1058.13 -2.58648 0.82545 0
M  V30 11799 C 1056.59 -1.60703 3.22029 0
M  V30 11800 C 1056.2 -0.695486 4.42569 0
M  V30 11801 C 1057.94 -2.30813 3.56266 0
M  V30 11802 C 1055.85 -1.42801 5.73901 0
M  V30 11803 H 1054.78 -0.330591 0.677662 0
M  V30 11804 H 1057.43 -0.128112 1.83052 0
M  V30 11805 H 1055.81 -2.39929 3.1504 0
M  V30 11806 H 1056.98 0.0604882 4.6076 0
M  V30 11807 H 1055.3 -0.10356 4.16271 0
M  V30 11808 H 1057.9 -2.86229 4.51638 0
M  V30 11809 H 1058.24 -3.06603 2.81604 0
M  V30 11810 H 1058.77 -1.5852 3.64851 0
M  V30 11811 H 1055.51 -0.712253 6.51619 0
M  V30 11812 H 1055.03 -2.15707 5.5967 0
M  V30 11813 H 1056.71 -1.97295 6.16185 0
M  V30 11814 N 1056.84 -1.516 -0.430713 0
M  V30 11815 C 1058.09 -1.64271 -1.17726 0
M  V30 11816 C 1058.41 -0.364406 -1.91565 0
M  V30 11817 O 1057.68 0.619991 -1.8583 0
M  V30 11818 H 1056.26 -0.605432 -0.437562 0
M  V30 11819 H 1058.92 -1.88557 -0.493166 0
M  V30 11820 H 1058.02 -2.47355 -1.90321 0
M  V30 11821 N 1058.32 0.686584 -1.41858 0
M  V30 11822 C 1059.27 1.82167 -1.4463 0
M  V30 11823 C 1060.26 1.66286 -0.323313 0
M  V30 11824 O 1061.47 1.73038 -0.495773 0
M  V30 11825 H 1057.84 0.600454 -0.452724 0
M  V30 11826 H 1059.81 1.76947 -2.40276 0
M  V30 11827 C 1058.56 3.20248 -1.35412 0
M  V30 11828 H 1057.89 3.33089 -2.21115 0
M  V30 11829 H 1059.33 3.99723 -1.41413 0
M  V30 11830 C 1057.78 3.36832 -0.0674972 0
M  V30 11831 O 1058.31 3.91845 0.884325 0
M  V30 11832 N 1056.52 2.90598 0.011519 0
M  V30 11833 H 1056.07 2.46016 -0.76381 0
M  V30 11834 H 1056.03 3.02072 0.871774 0
M  V30 11835 N 1059.8 1.27835 0.921735 0
M  V30 11836 C 1060.73 1.136 2.04003 0
M  V30 11837 C 1061.71 0.0358756 1.70062 0
M  V30 11838 O 1062.89 0.211438 1.93046 0
M  V30 11839 C 1060.02 0.788697 3.38226 0
M  V30 11840 C 1058.98 1.84272 3.863 0
M  V30 11841 C 1058.3 1.34923 5.17397 0
M  V30 11842 C 1059.6 3.24788 4.09035 0
M  V30 11843 H 1061.3 2.07149 2.1617 0
M  V30 11844 H 1058.84 0.997349 1.0387 0
M  V30 11845 H 1060.8 0.675911 4.15944 0
M  V30 11846 H 1059.52 -0.182499 3.2609 0
M  V30 11847 H 1058.18 1.94451 3.1078 0
M  V30 11848 H 1057.83 0.367328 5.01657 0
M  V30 11849 H 1057.53 2.05397 5.50532 0
M  V30 11850 H 1059.05 1.24951 5.97678 0
M  V30 11851 H 1060.47 3.17575 4.77304 0
M  V30 11852 H 1058.86 3.93025 4.53488 0
M  V30 11853 H 1059.93 3.69398 3.14122 0
M  V30 11854 N 1061.28 -1.12907 1.09954 0
M  V30 11855 C 1062.21 -2.20585 0.765799 0
M  V30 11856 C 1063.19 -1.68117 -0.258989 0
M  V30 11857 O 1064.37 -1.93792 -0.125853 0
M  V30 11858 C 1061.5 -3.46772 0.191435 0
M  V30 11859 C 1060.46 -4.12363 1.14635 0
M  V30 11860 C 1059.78 -5.3294 0.433426 0
M  V30 11861 C 1061.08 -4.59073 2.49096 0
M  V30 11862 H 1062.78 -2.48759 1.66612 0
M  V30 11863 H 1060.32 -1.19563 0.802534 0
M  V30 11864 H 1062.27 -4.21365 -0.0541535 0
M  V30 11865 H 1061 -3.18011 -0.744101 0
M  V30 11866 H 1059.66 -3.39744 1.37731 0
M  V30 11867 H 1059.31 -5.00444 -0.506422 0
M  V30 11868 H 1059.01 -5.77772 1.07018 0
M  V30 11869 H 1060.53 -6.10284 0.196267 0
M  V30 11870 H 1061.94 -5.25063 2.30177 0
M  V30 11871 H 1060.34 -5.14665 3.0861 0
M  V30 11872 H 1061.41 -3.73313 3.0946 0
M  V30 11873 N 1062.75 -0.88754 -1.30232 0
M  V30 11874 C 1064 -0.508031 -1.96334 0
M  V30 11875 C 1064.33 0.940905 -1.69884 0
M  V30 11876 O 1063.61 1.66523 -1.005 0
M  V30 11877 C 1063.89 -0.786566 -3.51405 0
M  V30 11878 C 1063.74 -2.28632 -3.8736 0
M  V30 11879 C 1065.06 -0.264803 -4.39303 0
M  V30 11880 H 1062.18 -0.186051 -0.71313 0
M  V30 11881 H 1064.82 -1.112 -1.5406 0
M  V30 11882 H 1062.97 -0.272523 -3.87543 0
M  V30 11883 H 1064.65 -2.86896 -3.61231 0
M  V30 11884 H 1062.89 -2.75194 -3.35337 0
M  V30 11885 H 1063.56 -2.43181 -4.95547 0
M  V30 11886 H 1066.04 -0.704809 -4.10087 0
M  V30 11887 H 1064.91 -0.488998 -5.46717 0
M  V30 11888 H 1065.17 0.834055 -4.34161 0
M  V30 11889 N 1064.23 1.43628 -0.648757 0
M  V30 11890 C 1065.16 2.33478 0.0320785 0
M  V30 11891 C 1066.14 1.49217 0.816605 0
M  V30 11892 O 1067.33 1.77892 0.778974 0
M  V30 11893 C 1064.46 3.32525 1.00222 0
M  V30 11894 C 1063.41 4.2674 0.328119 0
M  V30 11895 C 1062.74 5.15791 1.4094 0
M  V30 11896 C 1064.04 5.16493 -0.776701 0
M  V30 11897 H 1065.73 2.90657 -0.718257 0
M  V30 11898 H 1063.28 1.3976 -0.346852 0
M  V30 11899 H 1065.23 3.94277 1.4874 0
M  V30 11900 H 1063.96 2.73593 1.78366 0
M  V30 11901 H 1062.61 3.66346 -0.136569 0
M  V30 11902 H 1062.26 4.53201 2.18216 0
M  V30 11903 H 1061.96 5.79645 0.963631 0
M  V30 11904 H 1063.49 5.80416 1.89603 0
M  V30 11905 H 1064.9 5.7208 -0.373878 0
M  V30 11906 H 1063.3 5.89043 -1.14667 0
M  V30 11907 H 1064.37 4.56448 -1.63654 0
M  V30 11908 N 1065.71 0.390394 1.52688 0
M  V30 11909 C 1066.94 -0.191207 2.05713 0
M  V30 11910 C 1067.35 -1.40973 1.26188 0
M  V30 11911 O 1066.69 -1.81202 0.301938 0
M  V30 11912 C 1066.75 -0.624794 3.54029 0
M  V30 11913 C 1066.42 0.480413 4.54468 0
M  V30 11914 C 1067.41 1.33816 5.02384 0
M  V30 11915 C 1065.1 0.647754 4.98106 0
M  V30 11916 C 1067.09 2.34836 5.92563 0
M  V30 11917 C 1064.78 1.66129 5.88085 0
M  V30 11918 C 1065.78 2.51001 6.35206 0
M  V30 11919 O 1065.47 3.50622 7.23408 0
M  V30 11920 H 1065.2 -0.032221 0.675232 0
M  V30 11921 H 1067.75 0.554431 1.97776 0
M  V30 11922 H 1065.98 -1.42243 3.59589 0
M  V30 11923 H 1067.67 -1.13219 3.8979 0
M  V30 11924 H 1068.44 1.22019 4.694 0
M  V30 11925 H 1064.32 -0.00314511 4.61 0
M  V30 11926 H 1067.86 3.01117 6.29265 0
M  V30 11927 H 1063.76 1.77964 6.20483 0
M  V30 11928 H 1064.53 3.46644 7.41472 0
M  V30 11929 N 1067.19 -1.57141 0.120249 0
M  V30 11930 C 1068.12 -2.18398 -0.826112 0
M  V30 11931 C 1069.1 -1.12439 -1.27638 0
M  V30 11932 O 1070.28 -1.40679 -1.33877 0
M  V30 11933 C 1067.41 -2.78438 -2.0758 0
M  V30 11934 C 1066.37 -3.89991 -1.76327 0
M  V30 11935 C 1065.69 -4.36844 -3.08336 0
M  V30 11936 C 1066.99 -5.12031 -1.03062 0
M  V30 11937 H 1068.69 -2.97731 -0.315656 0
M  V30 11938 H 1066.23 -1.43213 -0.150387 0
M  V30 11939 H 1068.19 -3.19951 -2.74243 0
M  V30 11940 H 1066.91 -1.96396 -2.60953 0
M  V30 11941 H 1065.57 -3.49055 -1.12053 0
M  V30 11942 H 1065.22 -3.51659 -3.59646 0
M  V30 11943 H 1064.92 -5.1207 -2.88199 0
M  V30 11944 H 1066.44 -4.81009 -3.76116 0
M  V30 11945 H 1067.86 -5.50555 -1.59881 0
M  V30 11946 H 1066.25 -5.92848 -0.930146 0
M  V30 11947 H 1067.32 -4.84897 -0.017582 0
M  V30 11948 N 1068.67 0.153526 -1.5685 0
M  V30 11949 C 1069.91 0.867232 -1.8299 0
M  V30 11950 C 1070.24 1.81462 -0.700125 0
M  V30 11951 O 1069.5 1.93207 0.311348 0
M  V30 11952 C 1069.8 1.68066 -3.15418 0
M  V30 11953 C 1069.46 0.880635 -4.42217 0
M  V30 11954 C 1068.12 0.659899 -4.76654 0
M  V30 11955 C 1070.48 0.320698 -5.20212 0
M  V30 11956 C 1067.8 -0.131588 -5.86552 0
M  V30 11957 C 1070.16 -0.457794 -6.30941 0
M  V30 11958 C 1068.82 -0.689168 -6.63933 0
M  V30 11959 H 1068.09 0.317343 -0.669608 0
M  V30 11960 H 1070.74 0.131208 -1.9105 0
M  V30 11961 H 1069.04 2.4866 -3.02779 0
M  V30 11962 H 1070.74 2.23623 -3.32857 0
M  V30 11963 H 1067.33 1.06274 -4.15215 0
M  V30 11964 H 1071.51 0.47853 -4.93988 0
M  V30 11965 H 1066.77 -0.320413 -6.1056 0
M  V30 11966 H 1070.94 -0.898839 -6.90575 0
M  V30 11967 H 1068.57 -1.30433 -7.48927 0
M  V30 11968 N 1070.14 1.51827 0.422667 0
M  V30 11969 C 1071.07 1.77152 1.52117 0
M  V30 11970 C 1072.06 0.621895 1.58324 0
M  V30 11971 O 1073.24 0.866118 1.73816 0
M  V30 11972 C 1070.37 1.90991 2.90068 0
M  V30 11973 C 1069.32 3.06516 2.98717 0
M  V30 11974 C 1068.65 3.05559 4.38791 0
M  V30 11975 C 1069.95 4.46223 2.71445 0
M  V30 11976 H 1071.64 2.69135 1.31175 0
M  V30 11977 H 1069.19 1.29507 0.629607 0
M  V30 11978 H 1071.14 2.07291 3.6689 0
M  V30 11979 H 1069.87 0.956688 3.12274 0
M  V30 11980 H 1068.53 2.89945 2.24338 0
M  V30 11981 H 1068.17 2.07985 4.57986 0
M  V30 11982 H 1067.87 3.83144 4.45505 0
M  V30 11983 H 1069.4 3.23971 5.17566 0
M  V30 11984 H 1070.81 4.63069 3.37994 0
M  V30 11985 H 1069.21 5.25623 2.89552 0
M  V30 11986 H 1070.28 4.5525 1.6696 0
M  V30 11987 N 1071.62 -0.679052 1.4222 0
M  V30 11988 C 1072.59 -1.77448 1.45069 0
M  V30 11989 C 1073.59 -1.57189 0.338882 0
M  V30 11990 O 1074.78 -1.63559 0.599519 0
M  V30 11991 C 1071.91 -3.1603 1.27819 0
M  V30 11992 H 1073.1 -1.7631 2.426 0
M  V30 11993 H 1070.65 -0.888277 1.28605 0
M  V30 11994 H 1071.39 -3.22796 0.311946 0
M  V30 11995 H 1071.17 -3.32138 2.08391 0
M  V30 11996 H 1072.66 -3.9596 1.32686 0
M  V30 11997 N 1073.1 -1.28322 -0.914942 0
M  V30 11998 C 1074.03 -1.14681 -2.03398 0
M  V30 11999 C 1075.01 -0.0448939 -1.70041 0
M  V30 12000 O 1076.2 -0.221672 -1.92931 0
M  V30 12001 C 1073.33 -0.806623 -3.37803 0
M  V30 12002 C 1072.28 -1.86318 -3.85318 0
M  V30 12003 C 1071.61 -1.37665 -5.16674 0
M  V30 12004 C 1072.91 -3.26953 -4.07307 0
M  V30 12005 H 1074.6 -2.08293 -2.15068 0
M  V30 12006 H 1072.15 -1.00284 -1.03339 0
M  V30 12007 H 1074.1 -0.69796 -4.1558 0
M  V30 12008 H 1072.82 0.165203 -3.26182 0
M  V30 12009 H 1071.48 -1.96096 -3.09745 0
M  V30 12010 H 1071.13 -0.393927 -5.01455 0
M  V30 12011 H 1070.83 -2.08313 -5.49435 0
M  V30 12012 H 1072.35 -1.28119 -5.97007 0
M  V30 12013 H 1073.77 -3.20102 -4.75613 0
M  V30 12014 H 1072.17 -3.95424 -4.51398 0
M  V30 12015 H 1073.24 -3.71059 -3.12159 0
M  V30 12016 N 1074.58 1.12322 -1.10551 0
M  V30 12017 C 1075.82 1.8413 -0.849932 0
M  V30 12018 C 1076.16 1.83938 0.622946 0
M  V30 12019 O 1075.43 1.28579 1.45937 0
M  V30 12020 C 1075.72 3.31751 -1.40048 0
M  V30 12021 C 1075.57 3.40391 -2.9403 0
M  V30 12022 C 1076.89 4.27543 -1.04379 0
M  V30 12023 H 1074.01 0.668533 -0.310213 0
M  V30 12024 H 1076.65 1.31766 -1.36886 0
M  V30 12025 H 1074.8 3.76475 -0.959102 0
M  V30 12026 H 1076.47 3.04294 -3.46703 0
M  V30 12027 H 1074.71 2.809 -3.30571 0
M  V30 12028 H 1075.38 4.44252 -3.27635 0
M  V30 12029 H 1077.86 3.90951 -1.42466 0
M  V30 12030 H 1076.74 5.2924 -1.4559 0
M  V30 12031 H 1077 4.42075 0.0466316 0
M  V30 12032 N 1076.06 0.894434 1.2976 0
M  V30 12033 C 1077.28 0.5322 2.00455 0
M  V30 12034 C 1077.71 -0.874427 1.66539 0
M  V30 12035 O 1077.06 -1.58113 0.887129 0
M  V30 12036 C 1077.11 0.725264 3.53231 0
M  V30 12037 O 1076.22 -0.224612 4.11788 0
M  V30 12038 H 1075.56 0.208562 0.630395 0
M  V30 12039 H 1078.09 1.20458 1.65382 0
M  V30 12040 H 1078.1 0.627889 4.0314 0
M  V30 12041 H 1076.77 1.75079 3.77253 0
M  V30 12042 H 1075.35 -0.0801361 3.72814 0
M  V30 12043 N 1077.53 -1.43282 0.656365 0
M  V30 12044 C 1078.76 -2.06641 0.177245 0
M  V30 12045 C 1079.18 -1.48893 -1.14946 0
M  V30 12046 O 1078.54 -0.600099 -1.7108 0
M  V30 12047 C 1078.59 -3.60453 0.10299 0
M  V30 12048 O 1077.69 -4.01687 -0.933895 0
M  V30 12049 H 1077.04 -0.656978 0.096314 0
M  V30 12050 H 1079.57 -1.83733 0.900178 0
M  V30 12051 H 1079.58 -4.07923 -0.079291 0
M  V30 12052 H 1078.25 -4.01861 1.07147 0
M  V30 12053 H 1076.83 -3.65801 -0.724148 0
M  V30 12054 N 1079.01 -0.398486 -1.52479 0
M  V30 12055 C 1080.26 0.180752 -2.01692 0
M  V30 12056 C 1080.59 1.46044 -1.28457 0
M  V30 12057 O 1079.84 1.92051 -0.376162 0
M  V30 12058 C 1080.14 0.485909 -3.54081 0
M  V30 12059 C 1079.81 -0.703321 -4.45381 0
M  V30 12060 C 1078.47 -1.02955 -4.70057 0
M  V30 12061 C 1080.82 -1.49848 -4.99194 0
M  V30 12062 C 1078.15 -2.15231 -5.45795 0
M  V30 12063 C 1080.5 -2.61192 -5.76161 0
M  V30 12064 C 1079.17 -2.94313 -5.99113 0
M  V30 12065 H 1078.44 0.0661417 -0.738042 0
M  V30 12066 H 1081.08 -0.53772 -1.83796 0
M  V30 12067 H 1079.39 1.28582 -3.701 0
M  V30 12068 H 1081.09 0.946872 -3.89661 0
M  V30 12069 H 1077.68 -0.439062 -4.26345 0
M  V30 12070 H 1081.86 -1.25968 -4.80048 0
M  V30 12071 H 1077.12 -2.41252 -5.61789 0
M  V30 12072 H 1081.29 -3.23201 -6.16858 0
M  V30 12073 H 1078.92 -3.81431 -6.57583 0
M  V30 12074 N 1080.49 1.57075 -0.12858 0
M  V30 12075 C 1081.72 2.00305 0.537839 0
M  V30 12076 C 1082.14 1.00787 1.58819 0
M  V30 12077 O 1081.5 -0.0190839 1.8129 0
M  V30 12078 C 1081.55 3.42371 1.13201 0
M  V30 12079 O 1080.65 3.45786 2.24735 0
M  V30 12080 H 1079.99 0.650456 0.133428 0
M  V30 12081 H 1082.52 2.03415 -0.219882 0
M  V30 12082 H 1082.53 3.80783 1.4652 0
M  V30 12083 H 1081.21 4.14315 0.362713 0
M  V30 12084 H 1079.78 3.19201 1.92783 0
M  V30 12085 N 1081.97 -0.145205 1.5693 0
M  V30 12086 C 1083.19 -0.876386 1.87974 0
M  V30 12087 C 1083.62 -1.73866 0.717795 0
M  V30 12088 O 1082.98 -1.78224 -0.332551 0
M  V30 12089 C 1083.03 -1.70746 3.17613 0
M  V30 12090 O 1082.13 -2.81188 3.01674 0
M  V30 12091 H 1081.47 -0.243987 0.617549 0
M  V30 12092 H 1084 -0.135482 2.04151 0
M  V30 12093 H 1084.01 -2.1021 3.49679 0
M  V30 12094 H 1082.69 -1.07429 4.01786 0
M  V30 12095 H 1081.26 -2.45117 2.81019 0
M  V30 12096 N 1083.45 -1.52049 -0.414609 0
M  V30 12097 C 1084.69 -1.67511 -1.17129 0
M  V30 12098 C 1085.05 -0.39383 -1.87917 0
M  V30 12099 O 1086.25 -0.424496 -2.65427 0
M  V30 12100 C 1084.52 -2.85982 -2.14357 0
M  V30 12101 S 1086.08 -3.21898 -2.98206 0
M  V30 12102 H 1082.9 -0.589923 -0.396877 0
M  V30 12103 H 1085.5 -1.90025 -0.459409 0
M  V30 12104 H 1084.21 -3.77488 -1.6103 0
M  V30 12105 H 1083.74 -2.65725 -2.90092 0
M  V30 12106 H 1085.75 -2.70095 -4.16249 0
M  V30 12107 N 1084.93 0.6715 -1.42579 0
M  V30 12108 C 1085.87 1.78496 -1.46314 0
M  V30 12109 C 1086.84 1.63091 -0.314743 0
M  V30 12110 O 1088.03 1.83597 -0.519292 0
M  V30 12111 C 1085.17 3.16548 -1.37447 0
M  V30 12112 C 1084.28 3.43216 -2.62348 0
M  V30 12113 C 1083.42 4.71014 -2.456 0
M  V30 12114 C 1082.45 4.90728 -3.65859 0
M  V30 12115 N 1081.59 6.09769 -3.48032 0
M  V30 12116 H 1086.43 1.74638 -2.41466 0
M  V30 12117 H 1083.97 0.852491 -1.19879 0
M  V30 12118 H 1085.93 3.96329 -1.30303 0
M  V30 12119 H 1084.56 3.19522 -0.458891 0
M  V30 12120 H 1083.61 2.57664 -2.79846 0
M  V30 12121 H 1084.92 3.53675 -3.51732 0
M  V30 12122 H 1084.07 5.58892 -2.3606 0
M  V30 12123 H 1082.81 4.62843 -1.53712 0
M  V30 12124 H 1081.82 4.01291 -3.75827 0
M  V30 12125 H 1083.04 5.00741 -4.58732 0
M  V30 12126 H 1080.99 6.02765 -2.58864 0
M  V30 12127 H 1080.91 6.21104 -4.31005 0
M  V30 12128 H 1082.17 7.00317 -3.42311 0
M  V30 12129 N 1086.4 1.28806 0.908124 0
M  V30 12130 C 1087.68 1.06981 1.63751 0
M  V30 12131 C 1088.06 -0.388936 2.07486 0
M  V30 12132 O 1087.41 -1.37611 1.82415 0
M  V30 12133 C 1087.62 2.04962 2.82474 0
M  V30 12134 C 1088.97 2.35418 3.5336 0
M  V30 12135 O 1089.99 2.03091 2.92631 0
M  V30 12136 O 1088.85 2.90617 4.62822 0
M  V30 12137 H 1085.94 0.409267 0.71863 0
M  V30 12138 H 1088.49 1.40146 0.956934 0
M  V30 12139 H 1087.26 3.03254 2.47291 0
M  V30 12140 H 1086.88 1.72476 3.58242 0
M  V30 12141 N 1087.88 -1.11734 1.11145 0
M  V30 12142 C 1089.13 -1.83677 0.859684 0
M  V30 12143 C 1089.46 -1.84265 -0.613182 0
M  V30 12144 O 1088.74 -1.29351 -1.45254 0
M  V30 12145 C 1089.02 -3.31003 1.41805 0
M  V30 12146 C 1088.87 -3.38827 2.95831 0
M  V30 12147 C 1090.19 -4.26984 1.06645 0
M  V30 12148 H 1087.31 -0.666879 0.313754 0
M  V30 12149 H 1089.95 -1.31038 1.37583 0
M  V30 12150 H 1088.1 -3.75961 0.979054 0
M  V30 12151 H 1089.77 -3.02451 3.48312 0
M  V30 12152 H 1088.02 -2.79143 3.32056 0
M  V30 12153 H 1088.69 -4.42508 3.29986 0
M  V30 12154 H 1091.16 -3.9019 1.44537 0
M  V30 12155 H 1090.04 -5.2846 1.48394 0
M  V30 12156 H 1090.3 -4.42094 -0.0231866 0
M  V30 12157 N 1089.36 -0.901303 -1.29284 0
M  V30 12158 C 1090.59 -0.543511 -1.99634 0
M  V30 12159 C 1091 0.872154 -1.67448 0
M  V30 12160 O 1090.36 1.57591 -0.920406 0
M  V30 12161 C 1090.41 -0.728148 -3.54091 0
M  V30 12162 O 1090.13 -2.08809 -3.85137 0
M  V30 12163 C 1091.63 -0.375519 -4.41707 0
M  V30 12164 H 1088.85 -0.208405 -0.637815 0
M  V30 12165 H 1091.4 -1.21109 -1.64781 0
M  V30 12166 H 1089.55 -0.107728 -3.8725 0
M  V30 12167 H 1089.97 -2.11863 -4.79807 0
M  V30 12168 H 1091.44 -0.555538 -5.49197 0
M  V30 12169 H 1091.92 0.687532 -4.33785 0
M  V30 12170 H 1092.52 -0.972949 -4.14021 0
M  V30 12171 N 1090.84 1.42931 -0.663954 0
M  V30 12172 C 1091.8 2.29197 0.0117626 0
M  V30 12173 C 1092.8 1.42767 0.739875 0
M  V30 12174 O 1093.99 1.64278 0.579509 0
M  V30 12175 C 1091.12 3.2505 1.02738 0
M  V30 12176 H 1092.32 2.90438 -0.747391 0
M  V30 12177 H 1089.87 1.5039 -0.425733 0
M  V30 12178 H 1090.6 2.68726 1.8154 0
M  V30 12179 H 1090.39 3.88785 0.508809 0
M  V30 12180 H 1091.88 3.89771 1.49893 0
M  V30 12181 N 1092.32 0.406567 1.52266 0
M  V30 12182 C 1093.23 -0.4271 2.30679 0
M  V30 12183 C 1094.24 -1.0559 1.383 0
M  V30 12184 O 1095.42 -1.05797 1.71374 0
M  V30 12185 C 1092.48 -1.53008 3.1111 0
M  V30 12186 C 1091.54 -0.924604 4.19225 0
M  V30 12187 C 1090.78 -1.97502 4.95811 0
M  V30 12188 O 1091 -3.19277 4.72671 0
M  V30 12189 O 1089.93 -1.58268 5.80719 0
M  V30 12190 H 1093.76 0.212187 3.02958 0
M  V30 12191 H 1091.34 0.169835 1.48432 0
M  V30 12192 H 1093.23 -2.17046 3.61205 0
M  V30 12193 H 1091.9 -2.15401 2.41628 0
M  V30 12194 H 1090.81 -0.247009 3.73284 0
M  V30 12195 H 1092.14 -0.34463 4.90992 0
M  V30 12196 N 1093.79 -1.57004 0.136909 0
M  V30 12197 C 1094.7 -2.19807 -0.819887 0
M  V30 12198 C 1095.72 -1.17939 -1.27932 0
M  V30 12199 O 1096.9 -1.50478 -1.3386 0
M  V30 12200 C 1093.96 -2.79935 -2.04542 0
M  V30 12201 C 1093.02 -3.96897 -1.6362 0
M  V30 12202 C 1092.26 -4.54148 -2.80331 0
M  V30 12203 O 1092.48 -4.10282 -3.96264 0
M  V30 12204 O 1091.41 -5.44565 -2.56384 0
M  V30 12205 H 1095.24 -3.02058 -0.315337 0
M  V30 12206 H 1092.82 -1.49131 -0.0896151 0
M  V30 12207 H 1094.71 -3.18191 -2.76283 0
M  V30 12208 H 1093.38 -2.00703 -2.53969 0
M  V30 12209 H 1092.29 -3.63376 -0.889316 0
M  V30 12210 H 1093.62 -4.77618 -1.18918 0
M  V30 12211 N 1095.27 0.136881 -1.57004 0
M  V30 12212 C 1096.22 1.18782 -1.99984 0
M  V30 12213 C 1097.21 1.43899 -0.893841 0
M  V30 12214 O 1098.42 1.44072 -1.07904 0
M  V30 12215 H 1094.8 0.400065 -0.636751 0
M  V30 12216 H 1096.77 0.798696 -2.87512 0
M  V30 12217 C 1095.52 2.51105 -2.40502 0
M  V30 12218 H 1094.84 2.32611 -3.25165 0
M  V30 12219 H 1096.28 3.23244 -2.74389 0
M  V30 12220 C 1094.74 3.12386 -1.26161 0
M  V30 12221 O 1095.27 3.97666 -0.567836 0
M  V30 12222 N 1093.47 2.71989 -1.02326 0
M  V30 12223 H 1093.02 2.02736 -1.58921 0
M  V30 12224 H 1092.98 3.13322 -0.26013 0
M  V30 12225 N 1096.75 1.52266 0.40654 0
M  V30 12226 C 1097.7 1.76409 1.516 0
M  V30 12227 C 1098.69 0.631311 1.57197 0
M  V30 12228 O 1099.9 0.813413 1.60573 0
M  V30 12229 H 1096.27 0.557904 0.50423 0
M  V30 12230 H 1098.24 2.69351 1.28424 0
M  V30 12231 C 1096.99 1.93415 2.88939 0
M  V30 12232 H 1096.32 2.8 2.85377 0
M  V30 12233 H 1097.76 2.14306 3.65854 0
M  V30 12234 C 1096.22 0.701938 3.29506 0
M  V30 12235 O 1096.75 -0.128965 4.01493 0
M  V30 12236 N 1094.95 0.537089 2.85594 0
M  V30 12237 H 1094.5 1.21435 2.27181 0
M  V30 12238 H 1094.46 -0.286055 3.13096 0
M  V30 12239 N 1098.23 -0.663929 1.42933 0
M  V30 12240 C 1099.14 -1.80643 1.49683 0
M  V30 12241 C 1100.15 -1.69694 0.38472 0
M  V30 12242 O 1101.33 -1.91052 0.637256 0
M  V30 12243 C 1098.4 -3.16858 1.4072 0
M  V30 12244 C 1097.46 -3.39684 2.62514 0
M  V30 12245 C 1096.69 -4.69399 2.53969 0
M  V30 12246 O 1096.91 -5.48037 1.58152 0
M  V30 12247 O 1095.85 -4.93709 3.44289 0
M  V30 12248 H 1099.67 -1.77903 2.46138 0
M  V30 12249 H 1097.26 -0.821059 1.24816 0
M  V30 12250 H 1099.14 -3.9812 1.38124 0
M  V30 12251 H 1097.81 -3.20211 0.473954 0
M  V30 12252 H 1096.72 -2.58227 2.70684 0
M  V30 12253 H 1098.05 -3.41169 3.54774 0
M  V30 12254 N 1099.71 -1.29285 -0.901281 0
M  V30 12255 C 1100.67 -1.14283 -1.98676 0
M  V30 12256 C 1101.67 -0.0787641 -1.60607 0
M  V30 12257 O 1102.86 -0.325574 -1.71131 0
M  V30 12258 C 1099.99 -0.747279 -3.32609 0
M  V30 12259 H 1101.18 -2.10701 -2.13413 0
M  V30 12260 H 1098.74 -1.12449 -1.08558 0
M  V30 12261 H 1099.47 0.217111 -3.23572 0
M  V30 12262 H 1099.26 -1.51608 -3.61604 0
M  V30 12263 H 1100.75 -0.665322 -4.12266 0
M  V30 12264 N 1101.18 1.11143 -1.11736 0
M  V30 12265 C 1102.13 2.17274 -0.778513 0
M  V30 12266 C 1103.1 1.64186 0.251405 0
M  V30 12267 O 1104.29 1.90373 0.127629 0
M  V30 12268 C 1101.43 3.44324 -0.231246 0
M  V30 12269 C 1100.54 4.114 -1.31809 0
M  V30 12270 C 1099.67 5.26146 -0.73104 0
M  V30 12271 C 1098.71 5.85112 -1.79752 0
M  V30 12272 N 1097.85 6.91247 -1.22973 0
M  V30 12273 H 1102.69 2.45603 -1.68769 0
M  V30 12274 H 1100.23 1.20565 -0.842759 0
M  V30 12275 H 1102.19 4.1707 0.104045 0
M  V30 12276 H 1100.82 3.16369 0.641119 0
M  V30 12277 H 1099.87 3.36697 -1.77029 0
M  V30 12278 H 1101.18 4.51278 -2.12485 0
M  V30 12279 H 1100.33 6.05713 -0.345987 0
M  V30 12280 H 1099.07 4.87583 0.107 0
M  V30 12281 H 1098.08 5.0422 -2.19185 0
M  V30 12282 H 1099.3 6.25741 -2.63865 0
M  V30 12283 H 1097.25 6.54696 -0.41339 0
M  V30 12284 H 1097.17 7.29796 -1.97316 0
M  V30 12285 H 1098.43 7.74611 -0.87167 0
M  V30 12286 N 1102.66 0.908147 1.28804 0
M  V30 12287 C 1103.61 0.382315 2.29437 0
M  V30 12288 C 1104.6 -0.523033 1.61123 0
M  V30 12289 O 1105.81 -0.404898 1.75387 0
M  V30 12290 H 1102.19 0.105022 0.74463 0
M  V30 12291 H 1104.16 1.24425 2.71221 0
M  V30 12292 C 1102.91 -0.367475 3.45753 0
M  V30 12293 H 1102.23 0.319957 3.98518 0
M  V30 12294 H 1103.67 -0.700131 4.1818 0
M  V30 12295 C 1102.13 -1.57329 2.97908 0
M  V30 12296 O 1102.66 -2.67248 2.99902 0
M  V30 12297 N 1100.86 -1.41835 2.53636 0
M  V30 12298 H 1100.41 -0.524099 2.52212 0
M  V30 12299 H 1100.37 -2.22645 2.21984 0
M  V30 12300 N 1104.14 -1.42577 0.671525 0
M  V30 12301 C 1105.07 -2.33499 0.00506984 0
M  V30 12302 C 1106.05 -1.50497 -0.792763 0
M  V30 12303 O 1107.24 -1.79109 -0.750574 0
M  V30 12304 C 1104.37 -3.34077 -0.949194 0
M  V30 12305 C 1103.32 -4.27208 -0.260187 0
M  V30 12306 C 1102.65 -5.17968 -1.32716 0
M  V30 12307 C 1103.95 -5.15192 0.858772 0
M  V30 12308 H 1105.64 -2.89477 0.764407 0
M  V30 12309 H 1103.19 -1.39191 0.369043 0
M  V30 12310 H 1105.14 -3.96594 -1.42448 0
M  V30 12311 H 1103.86 -2.76396 -1.73991 0
M  V30 12312 H 1102.52 -3.66082 0.194834 0
M  V30 12313 H 1102.17 -4.56615 -2.10979 0
M  V30 12314 H 1101.87 -5.81104 -0.871293 0
M  V30 12315 H 1103.39 -5.83359 -1.80345 0
M  V30 12316 H 1104.81 -5.71412 0.464844 0
M  V30 12317 H 1103.21 -5.87144 1.24023 0
M  V30 12318 H 1104.28 -4.53787 1.70895 0
M  V30 12319 N 1105.62 -0.414636 -1.52048 0
M  V30 12320 C 1106.55 0.443601 -2.24866 0
M  V30 12321 C 1107.56 1.00556 -1.28032 0
M  V30 12322 O 1108.75 0.903566 -1.53941 0
M  V30 12323 C 1105.85 1.63004 -2.97124 0
M  V30 12324 C 1105.03 1.191 -4.20873 0
M  V30 12325 C 1104.08 2.24497 -4.75907 0
M  V30 12326 O 1103.11 1.84861 -5.38345 0
M  V30 12327 N 1104.31 3.56727 -4.57959 0
M  V30 12328 H 1107.08 -0.180393 -2.99157 0
M  V30 12329 H 1104.64 -0.242305 -1.60077 0
M  V30 12330 H 1106.63 2.33089 -3.30835 0
M  V30 12331 H 1105.2 2.15984 -2.25986 0
M  V30 12332 H 1104.42 0.318059 -3.92915 0
M  V30 12333 H 1105.71 0.874699 -5.01225 0
M  V30 12334 H 1105.11 3.91675 -4.08175 0
M  V30 12335 H 1103.66 4.22772 -4.96092 0
M  V30 12336 N 1107.1 1.56929 -0.145233 0
M  V30 12337 C 1108.03 2.19685 0.791263 0
M  V30 12338 C 1109.01 1.14455 1.25833 0
M  V30 12339 O 1110.19 1.42791 1.31622 0
M  V30 12340 C 1107.32 2.81705 2.03124 0
M  V30 12341 C 1106.28 3.92746 1.70101 0
M  V30 12342 C 1105.6 4.41694 3.01347 0
M  V30 12343 C 1106.9 5.13606 0.949025 0
M  V30 12344 H 1108.6 2.98196 0.26825 0
M  V30 12345 H 1106.14 1.43434 0.127584 0
M  V30 12346 H 1108.1 3.24273 2.69119 0
M  V30 12347 H 1106.82 2.00523 2.57795 0
M  V30 12348 H 1105.48 3.50794 1.06486 0
M  V30 12349 H 1105.13 3.57336 3.54006 0
M  V30 12350 H 1104.83 5.1659 2.80016 0
M  V30 12351 H 1106.35 4.86931 3.68416 0
M  V30 12352 H 1107.76 5.53029 1.51102 0
M  V30 12353 H 1106.16 5.94252 0.835711 0
M  V30 12354 H 1107.23 4.84863 -0.0595631 0
M  V30 12355 N 1108.58 -0.128553 1.57075 0
M  V30 12356 C 1109.54 -1.14215 1.98715 0
M  V30 12357 C 1110.54 -1.34843 0.876019 0
M  V30 12358 O 1111.73 -1.31522 1.14227 0
M  V30 12359 C 1108.86 -2.49865 2.31905 0
M  V30 12360 H 1110.05 -0.784481 2.89458 0
M  V30 12361 H 1107.61 -0.372531 1.51796 0
M  V30 12362 H 1108.34 -2.9057 1.44012 0
M  V30 12363 H 1108.13 -2.3625 3.12935 0
M  V30 12364 H 1109.62 -3.22832 2.64895 0
M  V30 12365 N 1110.05 -1.5248 -0.398459 0
M  V30 12366 C 1111.3 -1.67309 -1.1461 0
M  V30 12367 C 1111.63 -0.407095 -1.89885 0
M  V30 12368 O 1110.91 0.594834 -1.85181 0
M  V30 12369 C 1111.19 -2.90204 -2.13198 0
M  V30 12370 C 1111.04 -4.26881 -1.4175 0
M  V30 12371 C 1112.36 -3.08634 -3.13741 0
M  V30 12372 H 1109.48 -0.608853 -0.415292 0
M  V30 12373 H 1112.12 -1.85057 -0.430573 0
M  V30 12374 H 1110.27 -2.75204 -2.74218 0
M  V30 12375 H 1111.95 -4.53631 -0.837676 0
M  V30 12376 H 1110.19 -4.27793 -0.719387 0
M  V30 12377 H 1110.86 -5.08939 -2.1374 0
M  V30 12378 H 1113.34 -3.22603 -2.62805 0
M  V30 12379 H 1112.21 -3.96117 -3.79977 0
M  V30 12380 H 1112.47 -2.22425 -3.82073 0
M  V30 12381 N 1111.53 0.65634 -1.43283 0
M  V30 12382 C 1112.49 1.75117 -1.47874 0
M  V30 12383 C 1113.49 1.56629 -0.363846 0
M  V30 12384 O 1114.68 1.62584 -0.625464 0
M  V30 12385 C 1111.82 3.13957 -1.32831 0
M  V30 12386 H 1113.01 1.72429 -2.45374 0
M  V30 12387 H 1110.56 0.867704 -1.30002 0
M  V30 12388 H 1111.3 3.22259 -0.36326 0
M  V30 12389 H 1111.08 3.28781 -2.13649 0
M  V30 12390 H 1112.57 3.93799 -1.38969 0
M  V30 12391 N 1113.01 1.29761 0.894412 0
M  V30 12392 C 1114.43 1.07888 1.17611 0
M  V30 12393 C 1114.63 -0.16644 2.00811 0
M  V30 12394 O 1113.68 -0.86272 2.37304 0
M  V30 12395 C 1114.99 2.33723 1.89193 0
M  V30 12396 C 1116.54 2.39095 2.01997 0
M  V30 12397 C 1117.02 3.64747 2.7699 0
M  V30 12398 N 1118.51 3.65501 2.84541 0
M  V30 12399 C 1119.24 4.59411 3.43117 0
M  V30 12400 N 1118.74 5.63657 4.02818 0
M  V30 12401 N 1120.53 4.46971 3.40842 0
M  V30 12402 H 1112.68 2.0967 0.339421 0
M  V30 12403 H 1114.95 0.923788 0.212882 0
M  V30 12404 H 1114.65 3.24551 1.35496 0
M  V30 12405 H 1114.53 2.41642 2.89636 0
M  V30 12406 H 1116.91 1.48751 2.54867 0
M  V30 12407 H 1116.99 2.35158 1.0067 0
M  V30 12408 H 1116.64 4.55445 2.24794 0
M  V30 12409 H 1116.57 3.65944 3.78672 0
M  V30 12410 H 1119.06 2.90129 2.42144 0
M  V30 12411 H 1119.37 6.31429 4.45552 0
M  V30 12412 H 1117.72 5.67461 4.01265 0
M  V30 12413 H 1120.91 3.64719 2.93424 0
M  V30 12414 H 1121.08 5.20341 3.86198 0
M  V30 12415 N 1114.49 -1.10549 1.12324 0
M  V30 12416 C 1115.74 -1.81851 0.872531 0
M  V30 12417 C 1116.05 -1.86058 -0.603468 0
M  V30 12418 O 1117.26 -2.53553 -0.970736 0
M  V30 12419 C 1115.71 -3.26631 1.51131 0
M  V30 12420 C 1115.32 -3.30725 3.02201 0
M  V30 12421 C 1117.06 -4.02768 1.34082 0
M  V30 12422 C 1114.97 -4.69957 3.59018 0
M  V30 12423 H 1113.9 -0.681422 0.322769 0
M  V30 12424 H 1116.55 -1.24332 1.34959 0
M  V30 12425 H 1114.93 -3.8414 0.961913 0
M  V30 12426 H 1116.11 -2.83046 3.63623 0
M  V30 12427 H 1114.42 -2.68072 3.18632 0
M  V30 12428 H 1117.02 -5.05612 1.73955 0
M  V30 12429 H 1117.36 -4.15328 0.284369 0
M  V30 12430 H 1117.9 -3.51671 1.85937 0
M  V30 12431 H 1114.63 -4.62597 4.64418 0
M  V30 12432 H 1114.15 -5.18008 3.02371 0
M  V30 12433 H 1115.83 -5.38925 3.58007 0
M  V30 12434 N 1115.97 -0.914965 -1.28321 0
M  V30 12435 C 1116.91 -0.402792 -2.27258 0
M  V30 12436 C 1117.88 0.523412 -1.57638 0
M  V30 12437 O 1119.07 0.445344 -1.8553 0
M  V30 12438 C 1116.21 0.349956 -3.43321 0
M  V30 12439 C 1115.32 -0.608892 -4.27687 0
M  V30 12440 C 1114.46 0.162425 -5.30952 0
M  V30 12441 C 1113.49 -0.789959 -6.06981 0
M  V30 12442 N 1112.63 -0.0520826 -7.02081 0
M  V30 12443 H 1117.47 -1.25153 -2.70446 0
M  V30 12444 H 1115.01 -0.628444 -1.33 0
M  V30 12445 H 1116.97 0.802589 -4.09407 0
M  V30 12446 H 1115.6 1.16303 -3.01121 0
M  V30 12447 H 1114.65 -1.18005 -3.61634 0
M  V30 12448 H 1115.96 -1.33727 -4.8054 0
M  V30 12449 H 1115.11 0.675563 -6.02927 0
M  V30 12450 H 1113.85 0.923851 -4.7887 0
M  V30 12451 H 1112.86 -1.31446 -5.33856 0
M  V30 12452 H 1114.08 -1.55096 -6.61152 0
M  V30 12453 H 1112.03 0.691331 -6.52347 0
M  V30 12454 H 1111.95 -0.720267 -7.52561 0
M  V30 12455 H 1113.21 0.44082 -7.78253 0
M  V30 12456 N 1117.44 1.42219 -0.679077 0
M  V30 12457 C 1118.39 2.308 -0.00340316 0
M  V30 12458 C 1119.36 1.462 0.788334 0
M  V30 12459 O 1120.55 1.75023 0.759716 0
M  V30 12460 C 1117.69 3.32084 0.938854 0
M  V30 12461 C 1116.8 4.31772 0.140485 0
M  V30 12462 C 1115.93 5.20128 1.07888 0
M  V30 12463 C 1114.97 6.11493 0.27245 0
M  V30 12464 N 1114.11 6.92388 1.16378 0
M  V30 12465 H 1118.95 2.88024 -0.764587 0
M  V30 12466 H 1116.49 1.41869 -0.38878 0
M  V30 12467 H 1118.44 3.89339 1.49903 0
M  V30 12468 H 1117.07 2.76448 1.66662 0
M  V30 12469 H 1116.13 3.76599 -0.536376 0
M  V30 12470 H 1117.44 4.96432 -0.485433 0
M  V30 12471 H 1116.59 5.82137 1.70884 0
M  V30 12472 H 1115.33 4.55655 1.73868 0
M  V30 12473 H 1114.34 5.48549 -0.370693 0
M  V30 12474 H 1115.56 6.78017 -0.383315 0
M  V30 12475 H 1113.51 6.30538 1.8099 0
M  V30 12476 H 1113.42 7.5367 0.593043 0
M  V30 12477 H 1114.69 7.58879 1.78107 0
M  V30 12478 N 1118.92 0.422693 1.51826 0
M  V30 12479 C 1120.17 -0.148348 2.01555 0
M  V30 12480 C 1120.49 -1.44483 1.30956 0
M  V30 12481 O 1119.76 -1.90904 0.439599 0
M  V30 12482 H 1118.34 -0.0578116 0.74476 0
M  V30 12483 H 1121 0.562046 1.8662 0
M  V30 12484 H 1120.1 -0.334766 3.10299 0
M  V30 12485 N 1120.4 -1.5685 0.153553 0
M  V30 12486 C 1121.65 -1.95509 -0.495911 0
M  V30 12487 C 1121.96 -1.04129 -1.65579 0
M  V30 12488 O 1123.17 -1.32394 -2.37032 0
M  V30 12489 C 1121.62 -3.47579 -0.933622 0
M  V30 12490 C 1121.23 -4.47555 0.199684 0
M  V30 12491 C 1122.98 -3.95092 -1.55251 0
M  V30 12492 C 1120.88 -5.90843 -0.256663 0
M  V30 12493 H 1119.81 -0.729919 -0.189035 0
M  V30 12494 H 1122.46 -1.81938 0.238947 0
M  V30 12495 H 1120.85 -3.56506 -1.72394 0
M  V30 12496 H 1122.02 -4.50329 0.976744 0
M  V30 12497 H 1120.33 -4.09997 0.727394 0
M  V30 12498 H 1122.93 -4.99588 -1.90567 0
M  V30 12499 H 1123.27 -3.37015 -2.4439 0
M  V30 12500 H 1123.81 -3.89109 -0.826969 0
M  V30 12501 H 1120.55 -6.52753 0.599515 0
M  V30 12502 H 1120.07 -5.91414 -0.999458 0
M  V30 12503 H 1121.75 -6.43131 -0.70649 0
M  V30 12504 N 1121.88 0.120221 -1.57141 0
M  V30 12505 C 1122.83 1.16654 -2.01233 0
M  V30 12506 C 1123.82 1.42943 -0.909053 0
M  V30 12507 O 1125.03 1.4292 -1.09426 0
M  V30 12508 H 1121.4 0.393289 -0.640958 0
M  V30 12509 H 1123.37 0.768156 -2.88343 0
M  V30 12510 C 1122.12 2.4854 -2.43152 0
M  V30 12511 H 1121.44 2.29149 -3.27614 0
M  V30 12512 H 1122.88 3.20315 -2.77802 0
M  V30 12513 C 1121.34 3.1103 -1.29468 0
M  V30 12514 O 1121.87 3.97042 -0.609982 0
M  V30 12515 N 1120.08 2.70888 -1.05205 0
M  V30 12516 H 1119.63 2.01039 -1.61062 0
M  V30 12517 H 1119.58 3.13028 -0.293347 0
M  V30 12518 N 1123.36 1.52689 0.390367 0
M  V30 12519 C 1124.59 1.71292 1.1551 0
M  V30 12520 C 1124.99 0.430405 1.84239 0
M  V30 12521 O 1124.34 -0.604823 1.73458 0
M  V30 12522 C 1124.4 2.80597 2.24735 0
M  V30 12523 C 1124.06 4.21757 1.75984 0
M  V30 12524 C 1125.06 5.04961 1.23733 0
M  V30 12525 C 1122.75 4.68071 1.82248 0
M  V30 12526 C 1124.74 6.32561 0.783926 0
M  V30 12527 C 1122.43 5.95656 1.36519 0
M  V30 12528 C 1123.42 6.7773 0.846786 0
M  V30 12529 O 1123.11 8.02923 0.396164 0
M  V30 12530 H 1122.84 0.576906 0.352356 0
M  V30 12531 H 1125.4 2.00117 0.462865 0
M  V30 12532 H 1123.63 2.4719 2.97378 0
M  V30 12533 H 1125.32 2.87616 2.86412 0
M  V30 12534 H 1126.08 4.70363 1.18251 0
M  V30 12535 H 1121.96 4.04278 2.21541 0
M  V30 12536 H 1125.51 6.96572 0.378612 0
M  V30 12537 H 1121.4 6.29758 1.41686 0
M  V30 12538 H 1122.17 8.16861 0.517766 0
M  V30 12539 N 1124.83 -0.648732 1.43629 0
M  V30 12540 C 1126.08 -1.41066 1.45699 0
M  V30 12541 C 1126.41 -1.94024 0.082612 0
M  V30 12542 O 1125.69 -1.7257 -0.897207 0
M  V30 12543 C 1125.97 -2.58882 2.50304 0
M  V30 12544 C 1125.82 -2.11387 3.97033 0
M  V30 12545 C 1127.14 -3.61092 2.51597 0
M  V30 12546 H 1124.26 -0.511591 0.530512 0
M  V30 12547 H 1126.9 -0.735069 1.75205 0
M  V30 12548 H 1125.05 -3.16518 2.25274 0
M  V30 12549 H 1126.73 -1.58718 4.33136 0
M  V30 12550 H 1124.97 -1.4272 4.0965 0
M  V30 12551 H 1125.64 -2.96129 4.65845 0
M  V30 12552 H 1128.12 -3.13223 2.73917 0
M  V30 12553 H 1126.99 -4.41071 3.26722 0
M  V30 12554 H 1127.25 -4.13985 1.55141 0
M  V30 12555 N 1126.31 -1.30234 -0.887518 0
M  V30 12556 C 1127.24 -1.18969 -2.00919 0
M  V30 12557 C 1128.22 -0.080952 -1.69907 0
M  V30 12558 O 1129.41 -0.262546 -1.92417 0
M  V30 12559 C 1126.54 -0.878094 -3.36016 0
M  V30 12560 C 1125.49 -1.94449 -3.81279 0
M  V30 12561 C 1124.82 -1.48594 -5.13638 0
M  V30 12562 C 1126.12 -3.35519 -4.00281 0
M  V30 12563 H 1127.81 -2.12808 -2.10602 0
M  V30 12564 H 1125.36 -1.02454 -1.01189 0
M  V30 12565 H 1127.31 -0.785954 -4.14006 0
M  V30 12566 H 1126.04 0.0959779 -3.26459 0
M  V30 12567 H 1124.69 -2.02622 -3.05516 0
M  V30 12568 H 1124.34 -0.500204 -5.00507 0
M  V30 12569 H 1124.04 -2.19921 -5.44893 0
M  V30 12570 H 1125.57 -1.40754 -5.94156 0
M  V30 12571 H 1126.98 -3.30119 -4.68716 0
M  V30 12572 H 1125.38 -4.0491 -4.42909 0
M  V30 12573 H 1126.45 -3.77597 -3.04218 0
M  V30 12574 N 1127.79 1.09952 -1.12909 0
M  V30 12575 C 1128.72 2.18477 -0.824014 0
M  V30 12576 C 1129.7 1.68744 0.214324 0
M  V30 12577 O 1130.89 1.94057 0.0744281 0
M  V30 12578 C 1128.02 3.46143 -0.283308 0
M  V30 12579 C 1126.97 4.09178 -1.25528 0
M  V30 12580 C 1126.3 5.31604 -0.574574 0
M  V30 12581 C 1127.6 4.52308 -2.6118 0
M  V30 12582 H 1129.29 2.44254 -1.73148 0
M  V30 12583 H 1126.84 1.17394 -0.833952 0
M  V30 12584 H 1128.79 4.21361 -0.057583 0
M  V30 12585 H 1127.51 3.19872 0.659525 0
M  V30 12586 H 1126.17 3.35973 -1.4669 0
M  V30 12587 H 1125.82 5.01611 0.37356 0
M  V30 12588 H 1125.52 5.74732 -1.22299 0
M  V30 12589 H 1127.04 6.0955 -0.358004 0
M  V30 12590 H 1128.46 5.18776 -2.44017 0
M  V30 12591 H 1126.86 5.06302 -3.22147 0
M  V30 12592 H 1127.93 3.64977 -3.19249 0
M  V30 12593 N 1129.27 0.921757 1.27833 0
M  V30 12594 C 1130.22 0.414838 2.27041 0
M  V30 12595 C 1131.19 -0.515045 1.57913 0
M  V30 12596 O 1132.37 -0.435499 1.85763 0
M  V30 12597 C 1129.51 -0.331744 3.43502 0
M  V30 12598 C 1128.62 0.631565 4.27358 0
M  V30 12599 C 1127.76 -0.134265 5.3103 0
M  V30 12600 C 1126.8 0.822138 6.06554 0
M  V30 12601 N 1125.93 0.0893149 7.02043 0
M  V30 12602 H 1130.77 1.26585 2.69778 0
M  V30 12603 H 1128.31 0.635488 1.32665 0
M  V30 12604 H 1130.27 -0.780866 4.09827 0
M  V30 12605 H 1128.9 -1.14704 3.01733 0
M  V30 12606 H 1127.95 1.19922 3.61003 0
M  V30 12607 H 1129.26 1.36274 4.79824 0
M  V30 12608 H 1128.42 -0.643579 6.03277 0
M  V30 12609 H 1127.16 -0.898443 4.79353 0
M  V30 12610 H 1126.16 1.34275 5.33151 0
M  V30 12611 H 1127.39 1.586 6.6032 0
M  V30 12612 H 1125.33 -0.656725 6.52704 0
M  V30 12613 H 1125.25 0.760167 7.52169 0
M  V30 12614 H 1126.52 -0.399541 7.78475 0
M  V30 12615 N 1130.75 -1.41857 0.686609 0
M  V30 12616 C 1132 -2.00594 0.21095 0
M  V30 12617 C 1132.31 -1.54974 -1.19341 0
M  V30 12618 O 1133.51 -2.0621 -1.76607 0
M  V30 12619 C 1131.97 -3.58418 0.326261 0
M  V30 12620 C 1131.58 -4.13022 1.73542 0
M  V30 12621 C 1133.32 -4.24404 -0.0900816 0
M  V30 12622 C 1131.23 -5.6325 1.80287 0
M  V30 12623 H 1130.16 -0.75025 0.0751077 0
M  V30 12624 H 1132.81 -1.62442 0.853508 0
M  V30 12625 H 1131.19 -3.9413 -0.384394 0
M  V30 12626 H 1132.37 -3.88747 2.47411 0
M  V30 12627 H 1130.68 -3.5953 2.10065 0
M  V30 12628 H 1133.28 -5.34666 -0.060004 0
M  V30 12629 H 1133.62 -4.00745 -1.12733 0
M  V30 12630 H 1134.15 -3.93695 0.569979 0
M  V30 12631 H 1130.89 -5.91724 2.82034 0
M  V30 12632 H 1130.41 -5.89479 1.1079 0
M  V30 12633 H 1132.09 -6.2787 1.56167 0
M  V30 12634 N 1132.22 -0.430739 -1.51599 0
M  V30 12635 C 1133.15 0.374695 -2.30474 0
M  V30 12636 C 1134.14 1.02694 -1.35602 0
M  V30 12637 O 1135.32 1.03184 -1.6452 0
M  V30 12638 C 1132.45 1.47981 -3.14196 0
M  V30 12639 C 1131.4 0.951415 -4.17291 0
M  V30 12640 C 1130.73 2.15177 -4.89492 0
M  V30 12641 C 1132.03 -0.00957951 -5.22299 0
M  V30 12642 H 1133.72 -0.283508 -2.98055 0
M  V30 12643 H 1131.27 -0.13779 -1.43339 0
M  V30 12644 H 1133.22 2.05043 -3.68151 0
M  V30 12645 H 1131.95 2.16621 -2.44424 0
M  V30 12646 H 1130.61 0.403052 -3.64378 0
M  V30 12647 H 1130.25 2.82421 -4.1623 0
M  V30 12648 H 1129.95 1.80464 -5.59202 0
M  V30 12649 H 1131.48 2.72806 -5.46269 0
M  V30 12650 H 1132.89 0.470527 -5.71366 0
M  V30 12651 H 1131.29 -0.268959 -5.99497 0
M  V30 12652 H 1132.36 -0.948297 -4.75537 0
M  V30 12653 N 1133.7 1.56767 -0.161869 0
M  V30 12654 C 1134.94 1.98487 0.488067 0
M  V30 12655 C 1135.31 1.04527 1.61053 0
M  V30 12656 O 1136.51 1.35351 2.32236 0
M  V30 12657 C 1134.78 3.44057 0.967446 0
M  V30 12658 S 1136.34 4.07805 1.61989 0
M  V30 12659 H 1133.16 0.693377 0.157318 0
M  V30 12660 H 1135.76 1.93802 -0.257099 0
M  V30 12661 H 1134.46 4.10161 0.139959 0
M  V30 12662 H 1133.99 3.52488 1.74688 0
M  V30 12663 H 1136.01 4.02078 2.90772 0
M  V30 12664 N 1135.18 -0.111886 1.57202 0
M  V30 12665 C 1136.13 -1.13688 2.00858 0
M  V30 12666 C 1137.1 -1.40752 0.881939 0
M  V30 12667 O 1138.28 -1.52498 1.14669 0
M  V30 12668 C 1135.42 -2.45641 2.42393 0
M  V30 12669 C 1134.54 -2.25452 3.68504 0
M  V30 12670 C 1133.67 -3.50686 3.9899 0
M  V30 12671 C 1132.71 -3.25685 5.18262 0
M  V30 12672 N 1131.85 -4.4314 5.44583 0
M  V30 12673 H 1136.69 -0.757611 2.88209 0
M  V30 12674 H 1134.22 -0.362582 1.42561 0
M  V30 12675 H 1136.18 -3.22627 2.64514 0
M  V30 12676 H 1134.81 -2.81447 1.58074 0
M  V30 12677 H 1133.86 -1.39349 3.53958 0
M  V30 12678 H 1135.18 -2.0296 4.55641 0
M  V30 12679 H 1134.33 -4.36087 4.21797 0
M  V30 12680 H 1133.07 -3.76216 3.10343 0
M  V30 12681 H 1132.07 -2.38675 4.95292 0
M  V30 12682 H 1133.3 -3.01518 6.08493 0
M  V30 12683 H 1131.24 -4.68778 4.58893 0
M  V30 12684 H 1131.16 -4.23778 6.26058 0
M  V30 12685 H 1132.43 -5.29654 5.71915 0
M  V30 12686 N 1136.66 -1.52894 -0.382264 0
M  V30 12687 C 1137.89 -1.72152 -1.14766 0
M  V30 12688 C 1138.3 -0.442911 -1.83531 0
M  V30 12689 O 1137.66 0.583085 -1.72935 0
M  V30 12690 C 1137.71 -2.87566 -2.19062 0
M  V30 12691 O 1137.43 -4.10478 -1.53099 0
M  V30 12692 C 1138.93 -3.18559 -3.08277 0
M  V30 12693 H 1136.15 -0.576212 -0.343832 0
M  V30 12694 H 1138.7 -1.99571 -0.446273 0
M  V30 12695 H 1136.85 -2.62589 -2.84826 0
M  V30 12696 H 1137.26 -4.74989 -2.22454 0
M  V30 12697 H 1138.74 -4.02763 -3.77473 0
M  V30 12698 H 1139.22 -2.33222 -3.72161 0
M  V30 12699 H 1139.82 -3.454 -2.48151 0
M  V30 12700 N 1138.14 0.641106 -1.43971 0
M  V30 12701 C 1139.07 1.76645 -1.46046 0
M  V30 12702 C 1140.08 1.58881 -0.355049 0
M  V30 12703 O 1141.27 1.67379 -0.620207 0
M  V30 12704 C 1138.37 3.14237 -1.26918 0
M  V30 12705 C 1137.54 3.5855 -2.50521 0
M  V30 12706 C 1136.6 4.74986 -2.26438 0
M  V30 12707 O 1135.63 4.83807 -2.99866 0
M  V30 12708 N 1136.83 5.66016 -1.28866 0
M  V30 12709 H 1139.6 1.75339 -2.43056 0
M  V30 12710 H 1137.16 0.82535 -1.39282 0
M  V30 12711 H 1139.15 3.89837 -1.0867 0
M  V30 12712 H 1137.72 3.10244 -0.383082 0
M  V30 12713 H 1136.94 2.73265 -2.84112 0
M  V30 12714 H 1138.23 3.84906 -3.32754 0
M  V30 12715 H 1137.63 5.61574 -0.682018 0
M  V30 12716 H 1136.18 6.41286 -1.16599 0
M  V30 12717 N 1139.62 1.30703 0.880598 0
M  V30 12718 C 1140.56 1.17369 2.00817 0
M  V30 12719 C 1141.56 0.0845159 1.69189 0
M  V30 12720 O 1142.76 0.245673 1.78316 0
M  V30 12721 H 1139.14 0.363107 0.658527 0
M  V30 12722 H 1141.11 2.12789 2.09197 0
M  V30 12723 C 1139.86 0.886851 3.362 0
M  V30 12724 H 1139.18 1.71704 3.61051 0
M  V30 12725 H 1140.62 0.83368 4.15723 0
M  V30 12726 C 1139.08 -0.410293 3.34392 0
M  V30 12727 O 1139.61 -1.43044 3.75368 0
M  V30 12728 N 1137.82 -0.423023 2.87505 0
M  V30 12729 H 1137.36 0.407637 2.54354 0
M  V30 12730 H 1137.32 -1.29086 2.86678 0
M  V30 12731 N 1141.09 -1.09351 1.1349 0
M  V30 12732 C 1142.34 -1.81812 0.898452 0
M  V30 12733 C 1142.67 -1.85525 -0.573959 0
M  V30 12734 O 1141.95 -1.32403 -1.42477 0
M  V30 12735 C 1142.23 -3.27921 1.48794 0
M  V30 12736 C 1142.08 -3.32476 3.02952 0
M  V30 12737 C 1143.4 -4.24625 1.15678 0
M  V30 12738 H 1140.52 -0.660074 0.327829 0
M  V30 12739 H 1143.16 -1.28091 1.40331 0
M  V30 12740 H 1141.31 -3.738 1.05858 0
M  V30 12741 H 1142.99 -2.94994 3.54649 0
M  V30 12742 H 1141.23 -2.72037 3.37903 0
M  V30 12743 H 1141.9 -4.35409 3.39298 0
M  V30 12744 H 1144.38 -3.87036 1.52781 0
M  V30 12745 H 1143.25 -5.25194 1.59571 0
M  V30 12746 H 1143.51 -4.42044 0.0705933 0
M  V30 12747 N 1142.57 -0.928524 -1.27343 0
M  V30 12748 C 1143.98 -0.613856 -1.7632 0
M  V30 12749 C 1144.33 0.870983 -1.75808 0
M  V30 12750 O 1143.46 1.68155 -1.36209 0
M  V30 12751 C 1144.05 -1.10755 -3.20186 0
M  V30 12752 C 1142.61 -0.843532 -3.66826 0
M  V30 12753 C 1141.76 -1.26579 -2.46724 0
M  V30 12754 H 1144.71 -1.10821 -1.13598 0
M  V30 12755 H 1144.73 -0.455598 -3.77763 0
M  V30 12756 H 1144.24 -2.18825 -3.20526 0
M  V30 12757 H 1142.34 0.223334 -3.7193 0
M  V30 12758 H 1142.46 -1.46165 -4.56259 0
M  V30 12759 H 1140.82 -0.684334 -2.45334 0
M  V30 12760 H 1141.6 -2.35516 -2.49774 0
M  V30 12761 N 1144.05 1.41491 -0.694123 0
M  V30 12762 C 1145 2.30783 -0.0278824 0
M  V30 12763 C 1145.97 1.47028 0.772783 0
M  V30 12764 O 1147.15 1.75819 0.74111 0
M  V30 12765 C 1144.29 3.33061 0.903579 0
M  V30 12766 C 1143.4 4.31896 0.0946823 0
M  V30 12767 C 1142.54 5.21243 1.02365 0
M  V30 12768 C 1141.58 6.11748 0.207578 0
M  V30 12769 N 1140.72 6.93583 1.09028 0
M  V30 12770 H 1145.56 2.87197 -0.795092 0
M  V30 12771 H 1143.09 1.41449 -0.403806 0
M  V30 12772 H 1145.05 3.90907 1.45765 0
M  V30 12773 H 1143.68 2.782 1.6372 0
M  V30 12774 H 1142.73 3.76009 -0.576289 0
M  V30 12775 H 1144.04 4.95889 -0.538059 0
M  V30 12776 H 1143.2 5.83917 1.647 0
M  V30 12777 H 1141.94 4.57473 1.69025 0
M  V30 12778 H 1140.94 5.48125 -0.428854 0
M  V30 12779 H 1142.17 6.77573 -0.455206 0
M  V30 12780 H 1140.11 6.32422 1.74292 0
M  V30 12781 H 1140.03 7.54257 0.513073 0
M  V30 12782 H 1141.3 7.60726 1.70048 0
M  V30 12783 N 1145.53 0.438773 1.51369 0
M  V30 12784 C 1146.8 -0.18722 1.94702 0
M  V30 12785 C 1147.18 -1.59962 1.37752 0
M  V30 12786 O 1146.53 -2.214 0.565171 0
M  V30 12787 C 1146.74 -0.163491 3.48617 0
M  V30 12788 C 1148.09 -0.368355 4.22999 0
M  V30 12789 O 1149.11 -0.241541 3.5538 0
M  V30 12790 O 1147.97 -0.620916 5.42961 0
M  V30 12791 H 1145.07 -0.129194 0.816846 0
M  V30 12792 H 1147.61 0.496855 1.62263 0
M  V30 12793 H 1146.39 0.823882 3.82528 0
M  V30 12794 H 1146.01 -0.890414 3.87501 0
M  V30 12795 N 1147.01 -1.56678 0.170181 0
M  V30 12796 C 1148.23 -2.01223 -0.481362 0
M  V30 12797 C 1148.65 -1.05039 -1.56883 0
M  V30 12798 O 1148.01 -0.0510751 -1.82429 0
M  V30 12799 C 1148.06 -3.45588 -1.06073 0
M  V30 12800 O 1147.78 -4.38097 -0.0166754 0
M  V30 12801 C 1149.28 -4.05527 -1.79061 0
M  V30 12802 H 1146.5 -0.659574 -0.1233 0
M  V30 12803 H 1149.04 -2.02689 0.271576 0
M  V30 12804 H 1147.2 -3.449 -1.76417 0
M  V30 12805 H 1147.61 -5.22615 -0.444276 0
M  V30 12806 H 1149.09 -5.08467 -2.1486 0
M  V30 12807 H 1149.56 -3.47554 -2.68519 0
M  V30 12808 H 1150.17 -4.09914 -1.13361 0
M  V30 12809 N 1148.48 0.103547 -1.57259 0
M  V30 12810 C 1149.42 1.15707 -1.9669 0
M  V30 12811 C 1150.39 1.39292 -0.838837 0
M  V30 12812 O 1151.58 1.53192 -1.09839 0
M  V30 12813 C 1148.71 2.50793 -2.27642 0
M  V30 12814 C 1147.75 2.43541 -3.50129 0
M  V30 12815 S 1148.58 1.86009 -5.02156 0
M  V30 12816 C 1149.74 3.22737 -5.36276 0
M  V30 12817 H 1149.97 0.820891 -2.85742 0
M  V30 12818 H 1147.51 0.310906 -1.51237 0
M  V30 12819 H 1149.46 3.28512 -2.46151 0
M  V30 12820 H 1148.13 2.81583 -1.39176 0
M  V30 12821 H 1147.32 3.43085 -3.692 0
M  V30 12822 H 1146.92 1.73948 -3.31086 0
M  V30 12823 H 1149.21 4.1899 -5.32404 0
M  V30 12824 H 1150.16 3.08477 -6.37375 0
M  V30 12825 H 1150.56 3.21878 -4.6374 0
M  V30 12826 N 1149.96 1.53094 0.37415 0
M  V30 12827 C 1151.24 1.59456 1.13283 0
M  V30 12828 C 1151.62 0.396821 2.07337 0
M  V30 12829 O 1150.97 -0.613659 2.20106 0
M  V30 12830 C 1151.18 2.94069 1.87948 0
M  V30 12831 C 1152.52 3.4834 2.42785 0
M  V30 12832 O 1153.55 2.96042 1.98085 0
M  V30 12833 O 1152.41 4.39747 3.24477 0
M  V30 12834 H 1149.5 0.643731 0.519171 0
M  V30 12835 H 1152.05 1.65434 0.378105 0
M  V30 12836 H 1150.82 3.72685 1.19255 0
M  V30 12837 H 1150.44 2.91544 2.70348 0
M  V30 12838 N 1151.44 -0.633461 1.44309 0
M  V30 12839 C 1152.39 -1.73919 1.47432 0
M  V30 12840 C 1153.37 -1.57258 0.340381 0
M  V30 12841 O 1154.57 -1.67035 0.585529 0
M  V30 12842 C 1151.69 -3.12595 1.41912 0
M  V30 12843 C 1150.78 -3.34734 2.60411 0
M  V30 12844 N 1151.17 -3.2725 3.85669 0
M  V30 12845 C 1149.47 -3.65522 2.55557 0
M  V30 12846 C 1150.17 -3.50013 4.64613 0
M  V30 12847 N 1149.15 -3.72775 3.95651 0
M  V30 12848 H 1152.95 -1.66588 2.42128 0
M  V30 12849 H 1150.46 -0.835844 1.39239 0
M  V30 12850 H 1152.46 -3.91887 1.42233 0
M  V30 12851 H 1151.12 -3.21095 0.482525 0
M  V30 12852 H 1152.13 -3.06221 4.17671 0
M  V30 12853 H 1148.81 -3.81017 1.70682 0
M  V30 12854 H 1150.2 -3.49839 5.73639 0
M  V30 12855 N 1152.92 -1.31168 -0.873655 0
M  V30 12856 C 1154.16 -1.20821 -1.62881 0
M  V30 12857 C 1154.5 0.233994 -1.92785 0
M  V30 12858 O 1153.77 1.16588 -1.55684 0
M  V30 12859 C 1154.06 -2.04875 -2.96139 0
M  V30 12860 C 1153.91 -3.57375 -2.73136 0
M  V30 12861 C 1155.23 -1.8953 -3.97198 0
M  V30 12862 H 1152.35 -0.44026 -0.59105 0
M  V30 12863 H 1154.99 -1.6092 -1.01019 0
M  V30 12864 H 1153.14 -1.70806 -3.48938 0
M  V30 12865 H 1154.81 -4.01561 -2.27038 0
M  V30 12866 H 1153.05 -3.8099 -2.07434 0
M  V30 12867 H 1153.72 -4.1149 -3.6794 0
M  V30 12868 H 1156.2 -2.19337 -3.53596 0
M  V30 12869 H 1155.08 -2.5065 -4.8833 0
M  V30 12870 H 1155.34 -0.857576 -4.33703 0
M  V30 12871 N 1154.4 1.08748 -1.14068 0
M  V30 12872 C 1155.34 2.17667 -0.819981 0
M  V30 12873 C 1156.34 1.68207 0.200654 0
M  V30 12874 O 1157.54 1.79909 0.0571014 0
M  V30 12875 H 1153.92 0.710129 -0.247427 0
M  V30 12876 H 1155.89 2.41944 -1.74659 0
M  V30 12877 C 1154.64 3.46315 -0.309985 0
M  V30 12878 H 1153.96 3.84748 -1.08669 0
M  V30 12879 H 1155.4 4.23818 -0.124094 0
M  V30 12880 C 1153.86 3.22762 0.965724 0
M  V30 12881 O 1154.39 3.46034 2.04018 0
M  V30 12882 N 1152.6 2.76326 0.899576 0
M  V30 12883 H 1152.14 2.57588 0.0250598 0
M  V30 12884 H 1152.1 2.60945 1.75371 0
M  V30 12885 N 1155.87 0.935264 1.26849 0
M  V30 12886 C 1156.78 0.446122 2.30319 0
M  V30 12887 C 1157.8 -0.476965 1.67335 0
M  V30 12888 O 1158.98 -0.357934 1.98194 0
M  V30 12889 C 1156.04 -0.286297 3.45516 0
M  V30 12890 C 1155.1 0.672626 4.23998 0
M  V30 12891 C 1154.34 -0.0249345 5.33694 0
M  V30 12892 O 1154.56 -1.24296 5.56693 0
M  V30 12893 O 1153.49 0.650752 5.98372 0
M  V30 12894 H 1157.32 1.30546 2.74211 0
M  V30 12895 H 1154.9 0.70091 1.31938 0
M  V30 12896 H 1156.79 -0.699109 4.1556 0
M  V30 12897 H 1155.46 -1.12112 3.03665 0
M  V30 12898 H 1154.37 1.13527 3.56458 0
M  V30 12899 H 1155.7 1.47489 4.69583 0
M  V30 12900 N 1157.35 -1.41121 0.701616 0
M  V30 12901 C 1158.6 -2.01428 0.235495 0
M  V30 12902 C 1158.93 -1.55463 -1.16382 0
M  V30 12903 O 1158.21 -0.768477 -1.78675 0
M  V30 12904 C 1158.49 -3.58849 0.299919 0
M  V30 12905 C 1158.34 -4.14924 1.73661 0
M  V30 12906 C 1159.66 -4.38809 -0.336856 0
M  V30 12907 H 1156.78 -0.731842 0.0870456 0
M  V30 12908 H 1159.42 -1.67787 0.891479 0
M  V30 12909 H 1157.57 -3.87638 -0.258611 0
M  V30 12910 H 1159.24 -3.96987 2.34945 0
M  V30 12911 H 1157.49 -3.69738 2.26884 0
M  V30 12912 H 1158.16 -5.24085 1.73318 0
M  V30 12913 H 1160.63 -4.15868 0.138886 0
M  V30 12914 H 1159.51 -5.48278 -0.261264 0
M  V30 12915 H 1159.77 -4.18728 -1.41843 0
M  V30 12916 N 1158.83 -0.446794 -1.51134 0
M  V30 12917 C 1160.06 0.114727 -2.06281 0
M  V30 12918 C 1160.47 1.36192 -1.31333 0
M  V30 12919 O 1159.81 1.79956 -0.368982 0
M  V30 12920 C 1159.87 0.492968 -3.56104 0
M  V30 12921 C 1159.54 -0.648755 -4.52372 0
M  V30 12922 C 1160.53 -1.52369 -4.97071 0
M  V30 12923 C 1158.22 -0.832177 -4.95359 0
M  V30 12924 C 1160.21 -2.56667 -5.83439 0
M  V30 12925 C 1157.9 -1.87841 -5.81514 0
M  V30 12926 C 1158.9 -2.74404 -6.25453 0
M  V30 12927 O 1158.59 -3.7723 -7.09896 0
M  V30 12928 H 1158.32 0.007138 -0.675962 0
M  V30 12929 H 1160.87 -0.627452 -1.95582 0
M  V30 12930 H 1159.1 1.28799 -3.6462 0
M  V30 12931 H 1160.79 0.986739 -3.93724 0
M  V30 12932 H 1161.56 -1.39356 -4.64548 0
M  V30 12933 H 1157.44 -0.167954 -4.60694 0
M  V30 12934 H 1160.98 -3.24264 -6.17656 0
M  V30 12935 H 1156.88 -2.00871 -6.1345 0
M  V30 12936 H 1157.65 -3.73924 -7.28095 0
M  V30 12937 N 1160.31 1.56586 -0.178487 0
M  V30 12938 C 1161.55 1.9739 0.465306 0
M  V30 12939 C 1161.89 1.06474 1.6241 0
M  V30 12940 O 1161.16 0.113316 1.9417 0
M  V30 12941 C 1161.45 3.47577 0.941408 0
M  V30 12942 C 1161.3 4.49271 -0.218054 0
M  V30 12943 C 1162.62 4.01038 1.81263 0
M  V30 12944 H 1159.74 0.717676 0.167663 0
M  V30 12945 H 1162.38 1.88128 -0.266067 0
M  V30 12946 H 1160.53 3.556 1.56463 0
M  V30 12947 H 1162.2 4.53301 -0.855332 0
M  V30 12948 H 1160.44 4.24936 -0.872441 0
M  V30 12949 H 1161.11 5.51776 0.157315 0
M  V30 12950 H 1163.59 3.9569 1.28718 0
M  V30 12951 H 1162.47 5.06526 2.11476 0
M  V30 12952 H 1162.73 3.45288 2.76096 0
M  V30 12953 N 1161.79 -0.095206 1.57312 0
M  V30 12954 C 1162.73 -1.11551 2.02052 0
M  V30 12955 C 1163.7 -1.39808 0.896818 0
M  V30 12956 O 1164.89 -1.51273 1.1628 0
M  V30 12957 C 1162.03 -2.43056 2.44985 0
M  V30 12958 C 1161.14 -2.21531 3.70875 0
M  V30 12959 C 1160.28 -3.46434 4.02687 0
M  V30 12960 C 1159.32 -3.2017 5.21687 0
M  V30 12961 N 1158.45 -4.37339 5.49253 0
M  V30 12962 H 1163.29 -0.727 2.88996 0
M  V30 12963 H 1160.83 -0.347441 1.42938 0
M  V30 12964 H 1162.79 -3.19803 2.67921 0
M  V30 12965 H 1161.42 -2.79754 1.61051 0
M  V30 12966 H 1160.47 -1.35587 3.55416 0
M  V30 12967 H 1161.78 -1.98116 4.57768 0
M  V30 12968 H 1160.94 -4.31589 4.26399 0
M  V30 12969 H 1159.67 -3.72904 3.14315 0
M  V30 12970 H 1158.68 -2.33409 4.97796 0
M  V30 12971 H 1159.9 -2.95047 6.11657 0
M  V30 12972 H 1157.85 -4.63885 4.6384 0
M  V30 12973 H 1157.77 -4.17114 6.30517 0
M  V30 12974 H 1159.04 -5.23559 5.775 0
M  V30 12975 N 1163.26 -1.53291 -0.366026 0
M  V30 12976 C 1164.17 -1.82656 -1.47221 0
M  V30 12977 C 1165.19 -0.71491 -1.58635 0
M  V30 12978 O 1166.37 -1.00492 -1.74538 0
M  V30 12979 C 1163.43 -2.00995 -2.82492 0
M  V30 12980 C 1162.49 -3.24895 -2.8061 0
M  V30 12981 C 1161.73 -3.4235 -4.09429 0
M  V30 12982 O 1161.95 -2.6411 -5.05571 0
M  V30 12983 O 1160.88 -4.35702 -4.15268 0
M  V30 12984 H 1164.71 -2.76634 -1.2533 0
M  V30 12985 H 1162.29 -1.38665 -0.556084 0
M  V30 12986 H 1164.18 -2.14632 -3.62645 0
M  V30 12987 H 1162.85 -1.10207 -3.04362 0
M  V30 12988 H 1161.76 -3.16682 -1.99157 0
M  V30 12989 H 1163.09 -4.15604 -2.63694 0
M  V30 12990 N 1164.74 0.6258 -1.44643 0
M  V30 12991 C 1166.02 1.38439 -1.38181 0
M  V30 12992 C 1166.4 2.11056 -0.0431928 0
M  V30 12993 O 1165.75 2.06683 0.974383 0
M  V30 12994 C 1165.96 2.34639 -2.58352 0
M  V30 12995 C 1167.31 2.97807 -3.02649 0
M  V30 12996 O 1168.33 2.44963 -2.58595 0
M  V30 12997 O 1167.19 3.93682 -3.79048 0
M  V30 12998 H 1164.28 0.619852 -0.54746 0
M  V30 12999 H 1166.83 0.650409 -1.56741 0
M  V30 13000 H 1165.6 1.80116 -3.47382 0
M  V30 13001 H 1165.22 3.15446 -2.42032 0
M  V30 13002 N 1166.22 1.31629 0.866686 0
M  V30 13003 C 1167.47 1.20861 1.61479 0
M  V30 13004 C 1167.78 -0.231208 1.94229 0
M  V30 13005 O 1168.99 -0.460618 2.67564 0
M  V30 13006 C 1167.44 2.11602 2.91123 0
M  V30 13007 C 1167.05 3.60598 2.65844 0
M  V30 13008 C 1168.8 2.09642 3.69121 0
M  V30 13009 C 1166.7 4.43337 3.91415 0
M  V30 13010 H 1165.63 0.448783 0.605896 0
M  V30 13011 H 1168.28 1.56507 0.958001 0
M  V30 13012 H 1166.67 1.68858 3.58194 0
M  V30 13013 H 1167.84 4.11609 2.07159 0
M  V30 13014 H 1166.16 3.64568 2.01194 0
M  V30 13015 H 1168.75 2.68701 4.62281 0
M  V30 13016 H 1169.1 1.08438 4.01929 0
M  V30 13017 H 1169.63 2.50603 3.08938 0
M  V30 13018 H 1166.37 5.45309 3.63756 0
M  V30 13019 H 1165.89 3.97083 4.49539 0
M  V30 13020 H 1167.57 4.5572 4.5927 0
M  V30 13021 N 1167.7 -1.08142 1.14644 0
M  V30 13022 C 1168.92 -1.84857 0.940349 0
M  V30 13023 C 1169.35 -1.81163 -0.506117 0
M  V30 13024 O 1168.71 -1.19869 -1.36019 0
M  V30 13025 C 1168.76 -3.30198 1.4492 0
M  V30 13026 O 1167.86 -4.07355 0.64308 0
M  V30 13027 H 1167.2 -0.572711 0.336003 0
M  V30 13028 H 1169.73 -1.36475 1.52432 0
M  V30 13029 H 1169.74 -3.81039 1.45854 0
M  V30 13030 H 1168.42 -3.32202 2.50229 0
M  V30 13031 H 1166.99 -3.66219 0.702698 0
M  V30 13032 N 1169.18 -0.941978 -1.26351 0
M  V30 13033 C 1170.45 -0.507822 -1.88893 0
M  V30 13034 C 1170.83 1.0146 -1.85119 0
M  V30 13035 O 1170.18 1.87495 -1.30606 0
M  V30 13036 C 1170.39 -1.07007 -3.3219 0
M  V30 13037 C 1171.74 -1.13922 -4.09032 0
M  V30 13038 O 1172.76 -1.02072 -3.41262 0
M  V30 13039 O 1171.62 -1.32362 -5.30229 0
M  V30 13040 H 1168.72 -0.165621 -0.810246 0
M  V30 13041 H 1171.26 -1.03459 -1.34515 0
M  V30 13042 H 1170.04 -2.11366 -3.29302 0
M  V30 13043 H 1169.66 -0.525797 -3.94108 0
M  V30 13044 N 1170.66 1.40747 -0.709091 0
M  V30 13045 C 1171.61 2.27982 -0.0289269 0
M  V30 13046 C 1172.59 1.42917 0.739164 0
M  V30 13047 O 1173.78 1.66067 0.612433 0
M  V30 13048 C 1170.91 3.31378 0.896856 0
M  V30 13049 C 1170 4.23918 0.124296 0
M  V30 13050 N 1170.39 4.97925 -0.889043 0
M  V30 13051 C 1168.69 4.44562 0.357808 0
M  V30 13052 C 1169.39 5.65754 -1.35268 0
M  V30 13053 N 1168.36 5.3938 -0.676047 0
M  V30 13054 H 1172.16 2.82641 -0.805676 0
M  V30 13055 H 1169.68 1.5312 -0.541105 0
M  V30 13056 H 1171.68 3.92712 1.39939 0
M  V30 13057 H 1170.34 2.78279 1.67305 0
M  V30 13058 H 1171.35 5.02095 -1.2697 0
M  V30 13059 H 1168.02 4.02451 1.11084 0
M  V30 13060 H 1169.41 6.35058 -2.19432 0
M  V30 13061 N 1172.13 0.454803 1.50895 0
M  V30 13062 C 1173.36 -0.103936 2.06639 0
M  V30 13063 C 1173.78 -1.34943 1.32044 0
M  V30 13064 O 1173.13 -1.78393 0.384972 0
M  V30 13065 C 1173.18 -0.408546 3.59184 0
M  V30 13066 O 1172.91 0.787535 4.30963 0
M  V30 13067 C 1174.41 -1.01605 4.31499 0
M  V30 13068 H 1171.63 -0.000171839 0.671 0
M  V30 13069 H 1174.17 0.638907 1.94263 0
M  V30 13070 H 1172.33 -1.1013 3.71416 0
M  V30 13071 H 1172.74 0.52229 5.21893 0
M  V30 13072 H 1174.21 -1.17906 5.39261 0
M  V30 13073 H 1174.69 -2.00182 3.90927 0
M  V30 13074 H 1175.3 -0.362155 4.23755 0
M  V30 13075 N 1173.61 -1.56489 0.186789 0
M  V30 13076 C 1174.54 -2.21705 -0.732739 0
M  V30 13077 C 1175.52 -1.17751 -1.22755 0
M  V30 13078 O 1176.71 -1.46231 -1.27789 0
M  V30 13079 C 1173.84 -2.86992 -1.95584 0
M  V30 13080 C 1172.79 -3.97118 -1.59628 0
M  V30 13081 C 1172.12 -4.49529 -2.89531 0
M  V30 13082 C 1173.42 -5.15941 -0.812518 0
M  V30 13083 H 1175.11 -2.98802 -0.189094 0
M  V30 13084 H 1172.66 -1.43722 -0.0895099 0
M  V30 13085 H 1174.61 -3.31295 -2.60426 0
M  V30 13086 H 1173.33 -2.07287 -2.52388 0
M  V30 13087 H 1171.99 -3.53494 -0.971475 0
M  V30 13088 H 1171.64 -3.66596 -3.44407 0
M  V30 13089 H 1171.34 -5.23832 -2.66221 0
M  V30 13090 H 1172.87 -4.96528 -3.55376 0
M  V30 13091 H 1174.28 -5.56841 -1.36386 0
M  V30 13092 H 1172.68 -5.96259 -0.677862 0
M  V30 13093 H 1173.75 -4.84535 0.188095 0
M  V30 13094 N 1175.09 0.086862 -1.5736 0
M  V30 13095 C 1176.31 0.806017 -1.91097 0
M  V30 13096 C 1176.74 1.71082 -0.78183 0
M  V30 13097 O 1176.1 1.79335 0.266175 0
M  V30 13098 C 1176.15 1.5884 -3.23732 0
M  V30 13099 O 1175.25 2.69798 -3.11902 0
M  V30 13100 H 1174.59 0.220899 -0.626179 0
M  V30 13101 H 1177.12 0.059619 -2.04513 0
M  V30 13102 H 1177.13 1.97088 -3.5724 0
M  V30 13103 H 1175.81 0.924426 -4.05496 0
M  V30 13104 H 1174.38 2.34519 -2.89923 0
M  V30 13105 N 1176.57 1.53483 0.357892 0
M  V30 13106 C 1177.48 1.83434 1.4625 0
M  V30 13107 C 1178.49 0.723313 1.58254 0
M  V30 13108 O 1179.67 1.01416 1.74002 0
M  V30 13109 C 1176.73 2.0249 2.81423 0
M  V30 13110 C 1175.8 3.26378 2.78883 0
M  V30 13111 C 1175.03 3.44516 4.07608 0
M  V30 13112 O 1175.25 2.66787 5.04163 0
M  V30 13113 O 1174.19 4.37898 4.12952 0
M  V30 13114 H 1178.01 2.77294 1.23861 0
M  V30 13115 H 1175.6 1.38958 0.548722 0
M  V30 13116 H 1177.48 2.16552 3.61501 0
M  V30 13117 H 1176.15 1.11819 3.03773 0
M  V30 13118 H 1175.06 3.17733 1.97475 0
M  V30 13119 H 1176.39 4.16996 2.61486 0
M  V30 13120 N 1178.05 -0.61812 1.44973 0
M  V30 13121 C 1178.98 -1.74035 1.55673 0
M  V30 13122 C 1179.96 -1.65112 0.4089 0
M  V30 13123 O 1181.14 -1.83673 0.630698 0
M  V30 13124 C 1178.27 -3.1261 1.51303 0
M  V30 13125 C 1177.23 -3.36334 2.64696 0
M  V30 13126 C 1176.55 -4.75072 2.45378 0
M  V30 13127 C 1177.85 -3.27618 4.06772 0
M  V30 13128 H 1179.55 -1.65336 2.49608 0
M  V30 13129 H 1177.09 -0.794003 1.20132 0
M  V30 13130 H 1179.04 -3.90906 1.57388 0
M  V30 13131 H 1177.77 -3.22123 0.538914 0
M  V30 13132 H 1176.43 -2.60423 2.58022 0
M  V30 13133 H 1176.08 -4.81306 1.46129 0
M  V30 13134 H 1175.78 -4.91903 3.21412 0
M  V30 13135 H 1177.3 -5.55582 2.53301 0
M  V30 13136 H 1178.71 -3.95802 4.14746 0
M  V30 13137 H 1177.11 -3.55981 4.83113 0
M  V30 13138 H 1178.18 -2.25219 4.29423 0
M  V30 13139 N 1179.52 -1.32087 -0.859693 0
M  V30 13140 C 1180.75 -1.25486 -1.6513 0
M  V30 13141 C 1181.17 0.175015 -1.87284 0
M  V30 13142 O 1180.53 1.12468 -1.42199 0
M  V30 13143 C 1180.58 -2.01469 -2.9907 0
M  V30 13144 O 1179.68 -1.35904 -3.89363 0
M  V30 13145 H 1179.02 -0.432728 -0.503629 0
M  V30 13146 H 1181.55 -1.74322 -1.07112 0
M  V30 13147 H 1181.56 -2.11452 -3.4893 0
M  V30 13148 H 1180.24 -3.05448 -2.82266 0
M  V30 13149 H 1178.82 -1.34437 -3.47823 0
M  V30 13150 N 1181 1.07532 -1.15215 0
M  V30 13151 C 1181.95 2.16785 -0.843022 0
M  V30 13152 C 1182.94 1.68411 0.182802 0
M  V30 13153 O 1184.15 1.7996 0.0380164 0
M  V30 13154 H 1180.52 0.707465 -0.254945 0
M  V30 13155 H 1182.5 2.40078 -1.77215 0
M  V30 13156 C 1181.24 3.45967 -0.346699 0
M  V30 13157 H 1180.57 3.83574 -1.12744 0
M  V30 13158 H 1182.01 4.23663 -0.169039 0
M  V30 13159 C 1180.47 3.23768 0.931437 0
M  V30 13160 O 1181 3.48179 2.00336 0
M  V30 13161 N 1179.2 2.77264 0.870217 0
M  V30 13162 H 1178.75 2.576 -0.00226223 0
M  V30 13163 H 1178.71 2.6279 1.72594 0
M  V30 13164 N 1182.48 0.948665 1.2585 0
M  V30 13165 C 1183.71 0.617229 1.97479 0
M  V30 13166 C 1184.12 -0.809406 1.7057 0
M  V30 13167 O 1183.48 -1.54066 0.97826 0
M  V30 13168 C 1183.53 0.859065 3.51144 0
M  V30 13169 O 1183.25 2.2296 3.77121 0
M  V30 13170 C 1184.75 0.539197 4.40009 0
M  V30 13171 H 1181.97 0.231933 0.629641 0
M  V30 13172 H 1184.52 1.27141 1.60173 0
M  V30 13173 H 1182.67 0.25138 3.86584 0
M  V30 13174 H 1183.09 2.29524 4.71613 0
M  V30 13175 H 1184.56 0.758986 5.46757 0
M  V30 13176 H 1185.04 -0.526062 4.36038 0
M  V30 13177 H 1185.64 1.12594 4.10125 0
M  V30 13178 N 1183.96 -1.40369 0.716545 0
M  V30 13179 C 1184.89 -2.29186 0.0251905 0
M  V30 13180 C 1185.9 -1.45877 -0.722761 0
M  V30 13181 O 1187.09 -1.69155 -0.569982 0
M  V30 13182 C 1184.19 -3.24161 -0.988589 0
M  V30 13183 C 1183.37 -4.36329 -0.30597 0
M  V30 13184 C 1182.42 -5.11736 -1.22527 0
M  V30 13185 O 1181.45 -5.64758 -0.7097 0
M  V30 13186 N 1182.65 -5.21183 -2.55634 0
M  V30 13187 H 1185.42 -2.8916 0.787808 0
M  V30 13188 H 1182.98 -1.51749 0.564253 0
M  V30 13189 H 1184.97 -3.71479 -1.60578 0
M  V30 13190 H 1183.54 -2.65347 -1.65256 0
M  V30 13191 H 1182.76 -3.91125 0.491432 0
M  V30 13192 H 1184.05 -5.08523 0.167827 0
M  V30 13193 H 1183.45 -4.7959 -3.00017 0
M  V30 13194 H 1182 -5.72005 -3.12495 0
M  V30 13195 N 1185.44 -0.462799 -1.50652 0
M  V30 13196 C 1186.71 0.156221 -1.94975 0
M  V30 13197 C 1187.09 1.5775 -1.40279 0
M  V30 13198 O 1186.44 2.20473 -0.600323 0
M  V30 13199 C 1186.65 0.108008 -3.48833 0
M  V30 13200 C 1188 0.301013 -4.23532 0
M  V30 13201 O 1189.02 0.184973 -3.55719 0
M  V30 13202 O 1187.88 0.534457 -5.4388 0
M  V30 13203 H 1184.98 0.116182 -0.818798 0
M  V30 13204 H 1187.52 -0.522607 -1.61453 0
M  V30 13205 H 1186.29 -0.884634 -3.81169 0
M  V30 13206 H 1185.92 0.828653 -3.88869 0
M  V30 13207 N 1186.91 1.56388 -0.195085 0
M  V30 13208 C 1188.16 1.9758 0.443686 0
M  V30 13209 C 1188.49 1.08196 1.61629 0
M  V30 13210 O 1187.74 0.121061 1.95325 0
M  V30 13211 C 1188.04 3.44651 0.946051 0
M  V30 13212 C 1187.71 4.50758 -0.11318 0
M  V30 13213 C 1186.37 4.79499 -0.404229 0
M  V30 13214 C 1188.72 5.14534 -0.830899 0
M  V30 13215 C 1186.05 5.69307 -1.41797 0
M  V30 13216 C 1188.4 6.05438 -1.83379 0
M  V30 13217 C 1187.07 6.32535 -2.13204 0
M  V30 13218 H 1186.34 0.722995 0.162356 0
M  V30 13219 H 1188.98 1.8926 -0.292049 0
M  V30 13220 H 1187.29 3.50042 1.76006 0
M  V30 13221 H 1188.99 3.73878 1.44969 0
M  V30 13222 H 1185.58 4.28421 0.123833 0
M  V30 13223 H 1189.76 4.92421 -0.61927 0
M  V30 13224 H 1185.02 5.88575 -1.65496 0
M  V30 13225 H 1189.19 6.53915 -2.39516 0
M  V30 13226 H 1186.82 7.01924 -2.91902 0
M  V30 13227 N 1188.39 -0.0785156 1.57404 0
M  V30 13228 C 1189.32 -1.09446 2.06262 0
M  V30 13229 C 1190.3 -1.40777 0.954772 0
M  V30 13230 O 1191.49 -1.5052 1.22708 0
M  V30 13231 C 1188.62 -2.40979 2.50093 0
M  V30 13232 C 1187.57 -2.24017 3.64692 0
M  V30 13233 C 1186.9 -3.60873 3.94556 0
M  V30 13234 C 1188.2 -1.66696 4.94985 0
M  V30 13235 H 1189.89 -0.687928 2.9139 0
M  V30 13236 H 1187.44 -0.329466 1.4018 0
M  V30 13237 H 1189.39 -3.12337 2.82884 0
M  V30 13238 H 1188.12 -2.83599 1.61985 0
M  V30 13239 H 1186.77 -1.55101 3.32174 0
M  V30 13240 H 1186.42 -4.01051 3.0359 0
M  V30 13241 H 1186.12 -3.50365 4.71718 0
M  V30 13242 H 1187.65 -4.33673 4.29837 0
M  V30 13243 H 1189.06 -2.27913 5.2605 0
M  V30 13244 H 1187.46 -1.66902 5.76423 0
M  V30 13245 H 1188.53 -0.627827 4.80818 0
M  V30 13246 N 1189.87 -1.5367 -0.349747 0
M  V30 13247 C 1190.82 -1.81223 -1.42922 0
M  V30 13248 C 1191.79 -0.657536 -1.52531 0
M  V30 13249 O 1192.97 -0.90134 -1.68168 0
M  V30 13250 C 1190.11 -2.022 -2.79659 0
M  V30 13251 C 1189.23 -3.29915 -2.78891 0
M  V30 13252 C 1188.36 -3.40993 -4.07305 0
M  V30 13253 C 1187.4 -4.6268 -4.00741 0
M  V30 13254 N 1186.54 -4.70826 -5.20833 0
M  V30 13255 H 1191.38 -2.73328 -1.18727 0
M  V30 13256 H 1188.91 -1.35386 -0.57525 0
M  V30 13257 H 1190.87 -2.12351 -3.59114 0
M  V30 13258 H 1189.5 -1.13416 -3.0222 0
M  V30 13259 H 1188.55 -3.28637 -1.91577 0
M  V30 13260 H 1189.87 -4.19459 -2.69917 0
M  V30 13261 H 1189.02 -3.50542 -4.95182 0
M  V30 13262 H 1187.76 -2.49493 -4.19052 0
M  V30 13263 H 1186.76 -4.53215 -3.11249 0
M  V30 13264 H 1187.99 -5.55538 -3.90582 0
M  V30 13265 H 1185.93 -3.82233 -5.33136 0
M  V30 13266 H 1185.85 -5.54297 -5.14092 0
M  V30 13267 H 1187.12 -4.84677 -6.10499 0
M  V30 13268 N 1191.35 0.610423 -1.45298 0
M  V30 13269 C 1192.63 1.36966 -1.39641 0
M  V30 13270 C 1193.01 2.10998 -0.0655757 0
M  V30 13271 O 1192.35 2.07705 0.952407 0
M  V30 13272 C 1192.56 2.31885 -2.60826 0
M  V30 13273 C 1193.91 2.9458 -3.05791 0
M  V30 13274 O 1194.94 2.42207 -2.61179 0
M  V30 13275 O 1193.79 3.89639 -3.83202 0
M  V30 13276 H 1190.89 0.61401 -0.554004 0
M  V30 13277 H 1193.43 0.633748 -1.57422 0
M  V30 13278 H 1192.21 1.76421 -3.49272 0
M  V30 13279 H 1191.83 3.12861 -2.45364 0
M  V30 13280 N 1192.83 1.32541 0.852676 0
M  V30 13281 C 1193.77 1.21643 1.96142 0
M  V30 13282 C 1194.74 0.0981496 1.6581 0
M  V30 13283 O 1195.93 0.27404 1.88822 0
M  V30 13284 C 1193.07 0.947483 3.31838 0
M  V30 13285 C 1192.18 2.15074 3.74656 0
M  V30 13286 C 1191.32 1.81711 4.99154 0
M  V30 13287 C 1190.36 2.98346 5.34468 0
M  V30 13288 N 1189.49 2.65062 6.50143 0
M  V30 13289 H 1194.33 2.16479 2.04795 0
M  V30 13290 H 1191.87 1.07664 1.00234 0
M  V30 13291 H 1193.83 0.772038 4.09994 0
M  V30 13292 H 1192.46 0.0359112 3.2278 0
M  V30 13293 H 1191.51 2.43639 2.92137 0
M  V30 13294 H 1192.82 3.02314 3.96747 0
M  V30 13295 H 1191.98 1.60729 5.85022 0
M  V30 13296 H 1190.71 0.916875 4.79004 0
M  V30 13297 H 1189.72 3.19956 4.47111 0
M  V30 13298 H 1190.94 3.89104 5.56574 0
M  V30 13299 H 1188.89 1.77582 6.31507 0
M  V30 13300 H 1188.81 3.45832 6.72262 0
M  V30 13301 H 1190.08 2.47516 7.39159 0
M  V30 13302 N 1194.3 -1.0692 1.15784 0
M  V30 13303 C 1195.21 -2.17762 0.872753 0
M  V30 13304 C 1196.23 -1.73329 -0.152608 0
M  V30 13305 O 1197.41 -2.01387 0.022519 0
M  V30 13306 C 1194.47 -3.4471 0.370887 0
M  V30 13307 C 1193.53 -4.03686 1.46069 0
M  V30 13308 C 1192.77 -5.24575 0.982675 0
M  V30 13309 O 1192.99 -5.70146 -0.17006 0
M  V30 13310 O 1191.92 -5.7534 1.76828 0
M  V30 13311 H 1195.75 -2.44648 1.79948 0
M  V30 13312 H 1193.33 -1.1634 0.937303 0
M  V30 13313 H 1195.22 -4.21287 0.0976779 0
M  V30 13314 H 1193.89 -3.19366 -0.527912 0
M  V30 13315 H 1192.8 -3.28629 1.78756 0
M  V30 13316 H 1194.13 -4.33312 2.33456 0
M  V30 13317 N 1195.78 -0.955326 -1.25345 0
M  V30 13318 C 1196.73 -0.474888 -2.25862 0
M  V30 13319 C 1197.7 0.472996 -1.59223 0
M  V30 13320 O 1198.88 0.386094 -1.86853 0
M  V30 13321 C 1196.02 0.240554 -3.44261 0
M  V30 13322 C 1195.14 -0.74465 -4.25534 0
M  V30 13323 C 1194.27 -0.00657513 -5.312 0
M  V30 13324 C 1193.31 -0.982666 -6.04161 0
M  V30 13325 N 1192.45 -0.275418 -7.0156 0
M  V30 13326 H 1197.29 -1.33693 -2.66327 0
M  V30 13327 H 1194.83 -0.670439 -1.30933 0
M  V30 13328 H 1196.78 0.671933 -4.11753 0
M  V30 13329 H 1195.41 1.06664 -3.04668 0
M  V30 13330 H 1194.47 -1.29451 -3.57696 0
M  V30 13331 H 1195.78 -1.48948 -4.76042 0
M  V30 13332 H 1194.93 0.483404 -6.04771 0
M  V30 13333 H 1193.67 0.771035 -4.81567 0
M  V30 13334 H 1192.68 -1.48364 -5.29404 0
M  V30 13335 H 1193.9 -1.76052 -6.55883 0
M  V30 13336 H 1191.85 0.483441 -6.54216 0
M  V30 13337 H 1191.76 -0.959324 -7.49889 0
M  V30 13338 H 1193.03 0.193002 -7.79261 0
M  V30 13339 N 1197.26 1.39987 -0.723979 0
M  V30 13340 C 1198.49 2.0556 -0.275634 0
M  V30 13341 C 1198.91 1.54207 1.07711 0
M  V30 13342 O 1198.27 0.681041 1.68022 0
M  V30 13343 C 1198.32 3.59551 -0.27485 0
M  V30 13344 O 1197.42 4.05685 0.741182 0
M  V30 13345 H 1196.76 0.651634 -0.12755 0
M  V30 13346 H 1199.29 1.79229 -0.986814 0
M  V30 13347 H 1199.3 4.07837 -0.115425 0
M  V30 13348 H 1197.98 3.96291 -1.26198 0
M  V30 13349 H 1196.55 3.6884 0.548795 0
M  V30 13350 N 1198.74 0.470782 1.50404 0
M  V30 13351 C 1199.96 -0.084284 2.07229 0
M  V30 13352 C 1200.39 -1.32774 1.33239 0
M  V30 13353 O 1199.75 -1.77274 0.379971 0
M  V30 13354 C 1199.8 -0.351565 3.58882 0
M  V30 13355 O 1198.9 -1.43211 3.86736 0
M  V30 13356 H 1198.24 0.0128479 0.663876 0
M  V30 13357 H 1200.77 0.661735 1.93603 0
M  V30 13358 H 1200.78 -0.592151 4.0368 0
M  V30 13359 H 1199.46 0.557084 4.12152 0
M  V30 13360 H 1198.03 -1.17886 3.53776 0
M  V30 13361 N 1200.22 -1.56282 0.203376 0
M  V30 13362 C 1201.47 -1.97421 -0.432346 0
M  V30 13363 C 1201.79 -1.0917 -1.61576 0
M  V30 13364 O 1201.06 -0.164759 -1.95206 0
M  V30 13365 H 1199.64 -0.729062 -0.162721 0
M  V30 13366 H 1202.3 -1.927 0.292039 0
M  V30 13367 H 1201.39 -3.02429 -0.770918 0
M  V30 13368 N 1201.7 0.070167 -1.57444 0
M  V30 13369 C 1202.92 0.781894 -1.91557 0
M  V30 13370 C 1203.34 1.71037 -0.799489 0
M  V30 13371 O 1202.7 1.81082 0.227062 0
M  V30 13372 C 1202.75 1.57415 -3.25427 0
M  V30 13373 O 1202.47 0.682991 -4.32743 0
M  V30 13374 C 1203.97 2.38673 -3.73564 0
M  V30 13375 H 1201.19 0.222211 -0.633138 0
M  V30 13376 H 1203.73 0.0399504 -2.04461 0
M  V30 13377 H 1201.89 2.26835 -3.14045 0
M  V30 13378 H 1202.3 1.2342 -5.09772 0
M  V30 13379 H 1203.78 2.89716 -4.6986 0
M  V30 13380 H 1204.25 3.18269 -3.02657 0
M  V30 13381 H 1204.86 1.74405 -3.87896 0
M  V30 13382 N 1203.17 1.53854 0.341593 0
M  V30 13383 C 1204.08 1.84975 1.44297 0
M  V30 13384 C 1205.1 0.740057 1.57477 0
M  V30 13385 O 1206.28 1.03256 1.72917 0
M  V30 13386 C 1203.34 2.05464 2.79259 0
M  V30 13387 C 1202.4 3.29318 2.75405 0
M  V30 13388 C 1201.63 3.4882 4.03931 0
M  V30 13389 O 1201.86 2.7212 5.01305 0
M  V30 13390 O 1200.79 4.42253 4.08284 0
M  V30 13391 H 1204.62 2.78592 1.20913 0
M  V30 13392 H 1202.2 1.39532 0.533953 0
M  V30 13393 H 1204.08 2.20374 3.59184 0
M  V30 13394 H 1202.76 1.15035 3.0257 0
M  V30 13395 H 1201.67 3.1981 1.94094 0
M  V30 13396 H 1203 4.19746 2.57049 0
M  V30 13397 N 1204.65 -0.602709 1.4562 0
M  V30 13398 C 1205.6 -1.71312 1.54664 0
M  V30 13399 C 1206.57 -1.61403 0.392197 0
M  V30 13400 O 1207.75 -1.80911 0.606297 0
M  V30 13401 C 1204.89 -3.09629 1.52393 0
M  V30 13402 C 1204.01 -3.30308 2.78425 0
M  V30 13403 C 1203.14 -4.5876 2.67793 0
M  V30 13404 C 1202.18 -4.72713 3.88855 0
M  V30 13405 N 1201.32 -5.92469 3.76729 0
M  V30 13406 H 1206.16 -1.62918 2.49523 0
M  V30 13407 H 1203.69 -0.794324 1.2381 0
M  V30 13408 H 1205.65 -3.89661 1.49064 0
M  V30 13409 H 1204.28 -3.16968 0.610816 0
M  V30 13410 H 1203.33 -2.44018 2.9182 0
M  V30 13411 H 1204.65 -3.36491 3.68205 0
M  V30 13412 H 1203.8 -5.46993 2.62457 0
M  V30 13413 H 1202.54 -4.54983 1.75619 0
M  V30 13414 H 1201.54 -3.82903 3.94545 0
M  V30 13415 H 1202.77 -4.78284 4.82101 0
M  V30 13416 H 1200.72 -5.89728 2.87328 0
M  V30 13417 H 1200.63 -5.99833 4.60148 0
M  V30 13418 H 1201.9 -6.83187 3.75334 0
M  V30 13419 N 1206.13 -1.32992 -0.845635 0
M  V30 13420 C 1207.08 -1.22652 -1.97634 0
M  V30 13421 C 1208.07 -0.129344 -1.68905 0
M  V30 13422 O 1209.28 -0.292863 -1.77602 0
M  V30 13423 H 1205.65 -0.380439 -0.648668 0
M  V30 13424 H 1207.62 -2.18261 -2.03481 0
M  V30 13425 C 1206.37 -0.975677 -3.3373 0
M  V30 13426 H 1205.7 -1.81217 -3.56371 0
M  V30 13427 H 1207.14 -0.943608 -4.13367 0
M  V30 13428 C 1205.59 0.321491 -3.35363 0
M  V30 13429 O 1206.12 1.33042 -3.79029 0
M  V30 13430 N 1204.33 0.346648 -2.88525 0
M  V30 13431 H 1203.88 -0.474931 -2.53184 0
M  V30 13432 H 1203.84 1.2144 -2.9 0
M  V30 13433 N 1207.61 1.06304 -1.1635 0
M  V30 13434 C 1208.57 2.11947 -0.872419 0
M  V30 13435 C 1209.57 1.60253 0.132534 0
M  V30 13436 O 1210.76 1.73922 -0.0983441 0
M  V30 13437 C 1207.89 3.39536 -0.304646 0
M  V30 13438 H 1209.09 2.39201 -1.80894 0
M  V30 13439 H 1206.64 1.22367 -0.972419 0
M  V30 13440 H 1207.37 3.17931 0.639565 0
M  V30 13441 H 1207.16 3.78363 -1.02878 0
M  V30 13442 H 1208.65 4.17431 -0.118936 0
M  V30 13443 N 1209.09 0.96196 1.24836 0
M  V30 13444 C 1210.31 0.63814 1.96813 0
M  V30 13445 C 1210.73 -0.79127 1.71419 0
M  V30 13446 O 1210.09 -1.5302 0.994546 0
M  V30 13447 C 1210.14 0.89626 3.50213 0
M  V30 13448 O 1209.86 2.26947 3.74735 0
M  V30 13449 C 1211.36 0.585836 4.39412 0
M  V30 13450 H 1208.58 0.238598 0.627146 0
M  V30 13451 H 1211.12 1.28833 1.58815 0
M  V30 13452 H 1209.28 0.292368 3.86295 0
M  V30 13453 H 1209.69 2.34514 4.69152 0
M  V30 13454 H 1211.17 0.816935 5.45921 0
M  V30 13455 H 1211.64 -0.479784 4.36572 0
M  V30 13456 H 1212.25 1.16938 4.08908 0
M  V30 13457 N 1210.56 -1.39601 0.731392 0
M  V30 13458 C 1211.47 -2.34425 0.090527 0
M  V30 13459 C 1212.49 -1.58131 -0.725992 0
M  V30 13460 O 1213.67 -1.90441 -0.655294 0
M  V30 13461 C 1210.73 -3.37138 -0.808624 0
M  V30 13462 C 1209.79 -4.29295 0.0197365 0
M  V30 13463 C 1209.02 -5.27102 -0.836593 0
M  V30 13464 O 1209.25 -5.31302 -2.07543 0
M  V30 13465 O 1208.18 -6.01307 -0.267172 0
M  V30 13466 H 1212.01 -2.9088 0.873084 0
M  V30 13467 H 1209.59 -1.41066 0.492024 0
M  V30 13468 H 1211.47 -4.00087 -1.32319 0
M  V30 13469 H 1210.15 -2.83074 -1.57006 0
M  V30 13470 H 1209.06 -3.69581 0.579744 0
M  V30 13471 H 1210.39 -4.86555 0.743308 0
M  V30 13472 N 1212.04 -0.478751 -1.50152 0
M  V30 13473 C 1212.99 0.325375 -2.30313 0
M  V30 13474 C 1213.98 0.983372 -1.37935 0
M  V30 13475 O 1215.19 0.913601 -1.55091 0
M  V30 13476 H 1211.57 0.123775 -0.741744 0
M  V30 13477 H 1213.54 -0.371004 -2.96085 0
M  V30 13478 C 1212.29 1.39026 -3.18696 0
M  V30 13479 H 1211.61 0.893329 -3.89692 0
M  V30 13480 H 1213.05 1.92533 -3.77766 0
M  V30 13481 C 1211.51 2.39637 -2.36803 0
M  V30 13482 O 1212.04 3.45067 -2.05649 0
M  V30 13483 N 1210.24 2.11546 -1.9924 0
M  V30 13484 H 1209.79 1.25832 -2.24775 0
M  V30 13485 H 1209.75 2.79096 -1.44751 0
M  V30 13486 N 1213.52 1.56172 -0.211661 0
M  V30 13487 C 1214.43 2.23468 0.714081 0
M  V30 13488 C 1215.45 1.23908 1.22159 0
M  V30 13489 O 1216.62 1.56693 1.26528 0
M  V30 13490 C 1213.69 2.89375 1.90953 0
M  V30 13491 C 1212.75 4.04251 1.44497 0
M  V30 13492 C 1211.98 4.67006 2.58343 0
M  V30 13493 O 1212.2 4.28721 3.76237 0
M  V30 13494 O 1211.14 5.56177 2.3011 0
M  V30 13495 H 1214.96 3.03219 0.170862 0
M  V30 13496 H 1212.55 1.49389 0.0183607 0
M  V30 13497 H 1214.43 3.3101 2.60787 0
M  V30 13498 H 1213.11 2.12591 2.44104 0
M  V30 13499 H 1212.01 3.67205 0.714932 0
M  V30 13500 H 1213.35 4.82748 0.959947 0
M  V30 13501 N 1215 -0.0618163 1.57479 0
M  V30 13502 C 1216.22 -0.775513 1.92355 0
M  V30 13503 C 1216.65 -1.69816 0.808949 0
M  V30 13504 O 1216.01 -1.79736 -0.23761 0
M  V30 13505 C 1216.05 -1.5367 3.26218 0
M  V30 13506 O 1215.16 -2.64802 3.16155 0
M  V30 13507 H 1214.5 -0.210909 0.629614 0
M  V30 13508 H 1217.03 -0.0270752 2.04582 0
M  V30 13509 H 1217.04 -1.91379 3.6033 0
M  V30 13510 H 1215.71 -0.859798 4.06916 0
M  V30 13511 H 1214.29 -2.29876 2.93618 0
M  V30 13512 N 1216.48 -1.54033 -0.333429 0
M  V30 13513 C 1217.41 -1.79056 -1.43079 0
M  V30 13514 C 1218.42 -0.672176 -1.48276 0
M  V30 13515 O 1219.61 -0.949103 -1.51176 0
M  V30 13516 C 1216.71 -1.88443 -2.81678 0
M  V30 13517 C 1215.88 -3.18493 -2.99802 0
M  V30 13518 C 1214.94 -3.18708 -4.18702 0
M  V30 13519 O 1213.97 -3.92389 -4.12334 0
M  V30 13520 N 1215.17 -2.41792 -5.27747 0
M  V30 13521 H 1217.94 -2.73753 -1.21981 0
M  V30 13522 H 1215.5 -1.53207 -0.523365 0
M  V30 13523 H 1217.49 -1.86027 -3.59411 0
M  V30 13524 H 1216.06 -1.00887 -2.95872 0
M  V30 13525 H 1215.28 -3.33951 -2.09453 0
M  V30 13526 H 1216.57 -4.04376 -3.088 0
M  V30 13527 H 1215.96 -1.81501 -5.35793 0
M  V30 13528 H 1214.52 -2.45163 -6.03936 0
M  V30 13529 N 1217.95 0.594978 -1.45938 0
M  V30 13530 C 1219.18 1.38482 -1.54394 0
M  V30 13531 C 1219.6 1.87222 -0.181563 0
M  V30 13532 O 1218.96 1.60869 0.836119 0
M  V30 13533 C 1219.01 2.55676 -2.54287 0
M  V30 13534 O 1218.11 3.5672 -2.06941 0
M  V30 13535 H 1217.46 0.412918 -0.519995 0
M  V30 13536 H 1219.99 0.722899 -1.91404 0
M  V30 13537 H 1220 3.02756 -2.73501 0
M  V30 13538 H 1218.67 2.19552 -3.53228 0
M  V30 13539 H 1217.25 3.16204 -1.97661 0
M  V30 13540 N 1219.43 1.33438 0.838571 0
M  V30 13541 C 1220.36 1.26344 1.96365 0
M  V30 13542 C 1221.34 0.143956 1.6949 0
M  V30 13543 O 1222.53 0.333779 1.9131 0
M  V30 13544 C 1219.66 1.0022 3.32526 0
M  V30 13545 C 1218.61 2.08466 3.73799 0
M  V30 13546 C 1217.94 1.67555 5.07769 0
M  V30 13547 C 1219.24 3.50144 3.87552 0
M  V30 13548 H 1220.93 2.20478 2.02558 0
M  V30 13549 H 1218.48 1.06139 0.973168 0
M  V30 13550 H 1220.43 0.939068 4.10803 0
M  V30 13551 H 1219.16 0.0252514 3.2659 0
M  V30 13552 H 1217.81 2.13822 2.97785 0
M  V30 13553 H 1217.46 0.685619 4.98305 0
M  V30 13554 H 1217.16 2.39993 5.36356 0
M  V30 13555 H 1218.69 1.62708 5.88522 0
M  V30 13556 H 1220.1 3.47287 4.56141 0
M  V30 13557 H 1218.5 4.21069 4.27575 0
M  V30 13558 H 1219.57 3.88628 2.89994 0
M  V30 13559 N 1220.91 -1.05686 1.16912 0
M  V30 13560 C 1222.16 -1.77987 0.948875 0
M  V30 13561 C 1222.47 -1.8845 -0.524011 0
M  V30 13562 O 1223.68 -2.57442 -0.862322 0
M  V30 13563 C 1222.13 -3.19927 1.64848 0
M  V30 13564 C 1221.74 -3.1761 3.15956 0
M  V30 13565 C 1223.49 -3.96719 1.51044 0
M  V30 13566 C 1221.39 -4.54307 3.78628 0
M  V30 13567 H 1220.32 -0.667119 0.35138 0
M  V30 13568 H 1222.97 -1.18496 1.40111 0
M  V30 13569 H 1221.36 -3.79714 1.12397 0
M  V30 13570 H 1222.53 -2.67369 3.75301 0
M  V30 13571 H 1220.85 -2.54317 3.29715 0
M  V30 13572 H 1223.44 -4.97779 1.95243 0
M  V30 13573 H 1223.79 -4.13748 0.460268 0
M  V30 13574 H 1224.32 -3.43468 2.00685 0
M  V30 13575 H 1221.06 -4.42484 4.8362 0
M  V30 13576 H 1220.58 -5.04717 3.24069 0
M  V30 13577 H 1222.26 -5.23255 3.80543 0
M  V30 13578 N 1222.39 -0.968567 -1.24324 0
M  V30 13579 C 1223.8 -0.66964 -1.74278 0
M  V30 13580 C 1224.15 0.81461 -1.7849 0
M  V30 13581 O 1223.28 1.63736 -1.4149 0
M  V30 13582 C 1223.87 -1.20885 -3.165 0
M  V30 13583 C 1222.43 -0.959808 -3.63957 0
M  V30 13584 C 1221.58 -1.34365 -2.42573 0
M  V30 13585 H 1224.53 -1.14379 -1.10015 0
M  V30 13586 H 1224.55 -0.57555 -3.76122 0
M  V30 13587 H 1224.06 -2.28912 -3.13402 0
M  V30 13588 H 1222.16 0.104894 -3.72452 0
M  V30 13589 H 1222.27 -1.60606 -4.51378 0
M  V30 13590 H 1220.64 -0.762039 -2.43033 0
M  V30 13591 H 1221.42 -2.43343 -2.42155 0
M  V30 13592 N 1223.87 1.39211 -0.738786 0
M  V30 13593 C 1225.09 2.05256 -0.297421 0
M  V30 13594 C 1225.52 1.55341 1.06069 0
M  V30 13595 O 1224.87 0.698823 1.67291 0
M  V30 13596 C 1224.92 3.59239 -0.312969 0
M  V30 13597 O 1224.03 4.06448 0.698112 0
M  V30 13598 H 1223.37 0.650245 -0.134454 0
M  V30 13599 H 1225.9 1.78173 -1.00577 0
M  V30 13600 H 1225.91 4.07691 -0.158675 0
M  V30 13601 H 1224.58 3.94931 -1.30394 0
M  V30 13602 H 1223.16 3.69401 0.509643 0
M  V30 13603 N 1225.34 0.486708 1.49896 0
M  V30 13604 C 1226.76 0.0353906 1.86666 0
M  V30 13605 C 1227.11 -1.3743 1.40026 0
M  V30 13606 O 1226.23 -2.02163 0.77194 0
M  V30 13607 C 1226.83 0.0574475 3.38751 0
M  V30 13608 C 1225.39 -0.338464 3.74875 0
M  V30 13609 C 1224.53 0.436196 2.73848 0
M  V30 13610 H 1227.48 0.700215 1.42417 0
M  V30 13611 H 1227.5 -0.741175 3.73212 0
M  V30 13612 H 1227.02 1.08356 3.72667 0
M  V30 13613 H 1225.12 -1.36835 3.46565 0
M  V30 13614 H 1225.23 -0.0289519 4.79091 0
M  V30 13615 H 1223.59 -0.112141 2.54453 0
M  V30 13616 H 1224.38 1.46212 3.10608 0
M  V30 13617 N 1226.82 -1.56058 0.219941 0
M  V30 13618 C 1228.05 -2.031 -0.42014 0
M  V30 13619 C 1228.47 -1.09875 -1.52673 0
M  V30 13620 O 1227.83 -0.0866458 -1.81093 0
M  V30 13621 C 1227.88 -3.48389 -0.93047 0
M  V30 13622 O 1226.98 -3.583 -2.04192 0
M  V30 13623 H 1226.32 -0.657129 -0.0952772 0
M  V30 13624 H 1228.85 -2.01787 0.338105 0
M  V30 13625 H 1228.86 -3.88678 -1.2407 0
M  V30 13626 H 1227.54 -4.15725 -0.120539 0
M  V30 13627 H 1226.12 -3.29898 -1.73845 0
M  V30 13628 N 1228.3 0.053464 -1.57509 0
M  V30 13629 C 1229.55 0.750212 -1.88414 0
M  V30 13630 C 1229.88 1.76288 -0.814619 0
M  V30 13631 O 1229.16 1.93728 0.173136 0
M  V30 13632 C 1229.44 1.44176 -3.29978 0
M  V30 13633 C 1229.29 0.444263 -4.47601 0
M  V30 13634 C 1230.61 2.38207 -3.70061 0
M  V30 13635 H 1227.73 0.271266 -0.685262 0
M  V30 13636 H 1230.37 0.0131676 -1.89995 0
M  V30 13637 H 1228.52 2.07001 -3.2876 0
M  V30 13638 H 1230.19 -0.180182 -4.60948 0
M  V30 13639 H 1228.44 -0.238771 -4.33142 0
M  V30 13640 H 1229.11 0.966134 -5.43479 0
M  V30 13641 H 1231.58 1.85446 -3.7249 0
M  V30 13642 H 1230.46 2.83588 -4.69967 0
M  V30 13643 H 1230.72 3.23821 -3.00985 0
M  V30 13644 N 1229.78 1.54207 0.325255 0
M  V30 13645 C 1231 1.7661 1.08736 0
M  V30 13646 C 1231.43 0.512449 1.80985 0
M  V30 13647 O 1230.79 -0.535913 1.73198 0
M  V30 13648 C 1230.84 2.95797 2.06243 0
M  V30 13649 O 1229.94 2.67225 3.14109 0
M  V30 13650 H 1229.28 0.585282 0.313593 0
M  V30 13651 H 1231.81 2.01225 0.370066 0
M  V30 13652 H 1231.82 3.23097 2.49143 0
M  V30 13653 H 1230.5 3.86712 1.53058 0
M  V30 13654 H 1229.07 2.50869 2.75897 0
M  V30 13655 N 1231.26 -0.58723 1.46251 0
M  V30 13656 C 1232.17 -1.72455 1.59048 0
M  V30 13657 C 1233.18 -1.67416 0.47413 0
M  V30 13658 O 1234.36 -1.87406 0.737633 0
M  V30 13659 C 1231.42 -3.08953 1.57318 0
M  V30 13660 C 1230.49 -3.25291 2.80151 0
M  V30 13661 C 1229.72 -4.55277 2.78493 0
M  V30 13662 O 1229.94 -5.38883 1.8698 0
M  V30 13663 O 1228.88 -4.74765 3.69975 0
M  V30 13664 H 1232.7 -1.64606 2.55223 0
M  V30 13665 H 1230.29 -0.753742 1.28993 0
M  V30 13666 H 1232.17 -3.90239 1.59033 0
M  V30 13667 H 1230.84 -3.17249 0.643025 0
M  V30 13668 H 1229.75 -2.43515 2.83991 0
M  V30 13669 H 1231.08 -3.21883 3.7236 0
M  V30 13670 N 1232.74 -1.33881 -0.831482 0
M  V30 13671 C 1233.96 -1.28812 -1.61911 0
M  V30 13672 C 1234.38 0.139519 -1.88284 0
M  V30 13673 O 1233.74 1.08397 -1.46821 0
M  V30 13674 C 1233.79 -2.06806 -2.96502 0
M  V30 13675 O 1233.51 -3.44 -2.71285 0
M  V30 13676 C 1235.01 -2.09033 -3.90922 0
M  V30 13677 H 1232.23 -0.443473 -0.50356 0
M  V30 13678 H 1234.77 -1.76365 -1.03516 0
M  V30 13679 H 1232.93 -1.62915 -3.51479 0
M  V30 13680 H 1233.34 -3.84213 -3.57044 0
M  V30 13681 H 1234.82 -2.68044 -4.82552 0
M  V30 13682 H 1235.29 -1.08249 -4.25651 0
M  V30 13683 H 1235.9 -2.52975 -3.41883 0
M  V30 13684 N 1234.21 1.05064 -1.1747 0
M  V30 13685 C 1235.46 1.78352 -0.965311 0
M  V30 13686 C 1235.79 1.87527 0.504707 0
M  V30 13687 O 1235.07 1.376 1.37465 0
M  V30 13688 C 1235.35 3.22173 -1.60862 0
M  V30 13689 C 1235.2 3.21003 -3.15083 0
M  V30 13690 C 1236.52 4.2004 -1.31358 0
M  V30 13691 H 1233.64 0.647452 -0.352101 0
M  V30 13692 H 1236.28 1.22794 -1.44988 0
M  V30 13693 H 1234.43 3.69613 -1.19658 0
M  V30 13694 H 1236.11 2.81629 -3.65353 0
M  V30 13695 H 1234.35 2.59309 -3.47766 0
M  V30 13696 H 1235.02 4.22516 -3.55224 0
M  V30 13697 H 1237.5 3.81099 -1.6704 0
M  V30 13698 H 1236.37 5.1891 -1.78953 0
M  V30 13699 H 1236.63 4.41477 -0.234606 0
M  V30 13700 N 1235.69 0.975146 1.23809 0
M  V30 13701 C 1237.1 0.678873 1.7392 0
M  V30 13702 C 1237.45 -0.805133 1.78919 0
M  V30 13703 O 1236.58 -1.62984 1.42356 0
M  V30 13704 C 1237.17 1.22562 3.15854 0
M  V30 13705 C 1235.73 0.979096 3.63443 0
M  V30 13706 C 1234.88 1.35649 2.41857 0
M  V30 13707 H 1237.83 1.14961 1.09406 0
M  V30 13708 H 1237.85 0.595489 3.75811 0
M  V30 13709 H 1237.36 2.30571 3.12184 0
M  V30 13710 H 1235.46 -0.0851407 3.72503 0
M  V30 13711 H 1235.58 1.62998 4.5052 0
M  V30 13712 H 1233.94 0.774916 2.42626 0
M  V30 13713 H 1234.72 2.44624 2.40861 0
M  V30 13714 N 1237.17 -1.38817 0.746158 0
M  V30 13715 C 1238.42 -1.99519 0.295839 0
M  V30 13716 C 1238.73 -1.59897 -1.12661 0
M  V30 13717 O 1239.94 -2.13514 -1.67702 0
M  V30 13718 C 1238.39 -3.56712 0.477984 0
M  V30 13719 C 1238 -4.0529 1.90904 0
M  V30 13720 C 1239.75 -4.24405 0.0900039 0
M  V30 13721 C 1237.65 -5.55097 2.04014 0
M  V30 13722 H 1236.58 -0.746389 0.106861 0
M  V30 13723 H 1239.23 -1.58676 0.921637 0
M  V30 13724 H 1237.62 -3.95406 -0.216884 0
M  V30 13725 H 1238.79 -3.77904 2.63677 0
M  V30 13726 H 1237.1 -3.50297 2.25125 0
M  V30 13727 H 1239.7 -5.3444 0.16682 0
M  V30 13728 H 1240.04 -4.05166 -0.956349 0
M  V30 13729 H 1240.58 -3.90924 0.736446 0
M  V30 13730 H 1237.32 -5.7923 3.06877 0
M  V30 13731 H 1236.84 -5.8425 1.35692 0
M  V30 13732 H 1238.52 -6.20682 1.82656 0
M  V30 13733 N 1238.65 -0.49465 -1.49636 0
M  V30 13734 C 1239.61 0.276064 -2.27531 0
M  V30 13735 C 1240.61 0.899619 -1.3328 0
M  V30 13736 O 1241.8 0.765136 -1.56497 0
M  V30 13737 C 1238.93 1.39547 -3.1103 0
M  V30 13738 H 1240.13 -0.407381 -2.9712 0
M  V30 13739 H 1237.68 -0.249416 -1.54297 0
M  V30 13740 H 1238.41 2.11326 -2.45992 0
M  V30 13741 H 1238.2 0.953877 -3.8032 0
M  V30 13742 H 1239.69 1.93853 -3.69879 0
M  V30 13743 N 1240.13 1.55939 -0.228214 0
M  V30 13744 C 1241.35 2.0332 0.409364 0
M  V30 13745 C 1241.78 1.10683 1.52088 0
M  V30 13746 O 1241.13 0.0962484 1.81044 0
M  V30 13747 C 1241.18 3.48877 0.911981 0
M  V30 13748 O 1240.29 3.59378 2.02289 0
M  V30 13749 H 1239.63 0.657625 0.0917909 0
M  V30 13750 H 1242.16 2.01605 -0.348802 0
M  V30 13751 H 1242.17 3.89331 1.22007 0
M  V30 13752 H 1240.84 4.15783 0.0984902 0
M  V30 13753 H 1239.42 3.30815 1.72093 0
M  V30 13754 N 1241.6 -0.0451101 1.57535 0
M  V30 13755 C 1242.85 -0.737654 1.88157 0
M  V30 13756 C 1243.17 -1.76743 0.823817 0
M  V30 13757 O 1242.44 -1.95366 -0.144503 0
M  V30 13758 H 1241.02 -0.275431 0.694368 0
M  V30 13759 H 1243.69 -0.0148651 1.94894 0
M  V30 13760 H 1242.78 -1.23726 2.86528 0
M  V30 13761 N 1243.08 -1.54377 -0.317073 0
M  V30 13762 C 1243.99 -1.87247 -1.41335 0
M  V30 13763 C 1245.01 -0.765017 -1.5628 0
M  V30 13764 O 1246.18 -1.05994 -1.71252 0
M  V30 13765 C 1243.25 -2.0988 -2.75955 0
M  V30 13766 C 1242.31 -3.33658 -2.70131 0
M  V30 13767 C 1241.54 -3.55202 -3.9833 0
M  V30 13768 O 1241.77 -2.80061 -4.96913 0
M  V30 13769 O 1240.7 -4.48693 -4.01196 0
M  V30 13770 H 1244.53 -2.80481 -1.16465 0
M  V30 13771 H 1242.11 -1.40364 -0.511687 0
M  V30 13772 H 1243.99 -2.2606 -3.55633 0
M  V30 13773 H 1242.67 -1.19834 -3.00702 0
M  V30 13774 H 1241.58 -3.22857 -1.88981 0
M  V30 13775 H 1242.91 -4.23782 -2.50338 0
M  V30 13776 N 1244.56 0.579466 -1.4656 0
M  V30 13777 C 1245.79 1.36837 -1.55854 0
M  V30 13778 C 1246.21 1.87019 -0.20141 0
M  V30 13779 O 1245.57 1.61746 0.81901 0
M  V30 13780 C 1245.62 2.52965 -2.56985 0
M  V30 13781 O 1244.72 3.54505 -2.10713 0
M  V30 13782 H 1244.06 0.407379 -0.524345 0
M  V30 13783 H 1246.59 0.702558 -1.9216 0
M  V30 13784 H 1246.6 2.99838 -2.76697 0
M  V30 13785 H 1245.28 2.15793 -3.55536 0
M  V30 13786 H 1243.85 3.14089 -2.01003 0
M  V30 13787 N 1246.04 1.3432 0.824371 0
M  V30 13788 C 1247.32 1.17178 1.56616 0
M  V30 13789 C 1247.7 -0.256195 2.0954 0
M  V30 13790 O 1247.04 -1.25732 1.90798 0
M  V30 13791 C 1247.25 2.22511 2.68867 0
M  V30 13792 C 1248.6 2.57414 3.37673 0
M  V30 13793 O 1249.63 2.2129 2.79122 0
M  V30 13794 O 1248.48 3.19462 4.43403 0
M  V30 13795 H 1245.58 0.454141 0.691147 0
M  V30 13796 H 1248.12 1.45948 0.865869 0
M  V30 13797 H 1246.9 3.18366 2.27505 0
M  V30 13798 H 1246.52 1.9491 3.46548 0
M  V30 13799 N 1247.52 -1.0444 1.18026 0
M  V30 13800 C 1248.77 -1.7697 0.9677 0
M  V30 13801 C 1249.08 -1.88995 -0.503994 0
M  V30 13802 O 1250.28 -2.58342 -0.834968 0
M  V30 13803 C 1248.74 -3.1816 1.68232 0
M  V30 13804 C 1248.35 -3.14241 3.19307 0
M  V30 13805 C 1250.09 -3.95095 1.55244 0
M  V30 13806 C 1248 -4.50266 3.83425 0
M  V30 13807 H 1246.93 -0.663355 0.358436 0
M  V30 13808 H 1249.58 -1.17003 1.4136 0
M  V30 13809 H 1247.96 -3.78501 1.16418 0
M  V30 13810 H 1249.14 -2.63373 3.78115 0
M  V30 13811 H 1247.45 -2.50805 3.32394 0
M  V30 13812 H 1250.05 -4.95681 2.00511 0
M  V30 13813 H 1250.39 -4.13236 0.504125 0
M  V30 13814 H 1250.92 -3.4132 2.04317 0
M  V30 13815 H 1247.66 -4.37329 4.88286 0
M  V30 13816 H 1247.18 -5.01251 3.29404 0
M  V30 13817 H 1248.86 -5.1919 3.86071 0
M  V30 13818 N 1248.99 -0.981699 -1.2329 0
M  V30 13819 C 1249.9 -0.531296 -2.28505 0
M  V30 13820 C 1250.92 0.414531 -1.6899 0
M  V30 13821 O 1252.1 0.284129 -1.99386 0
M  V30 13822 C 1249.16 0.157864 -3.4634 0
M  V30 13823 C 1248.22 -0.829527 -4.21209 0
M  V30 13824 C 1247.46 -0.17316 -5.33419 0
M  V30 13825 O 1247.68 1.03549 -5.60922 0
M  V30 13826 O 1246.61 -0.872385 -5.95544 0
M  V30 13827 H 1250.44 -1.40633 -2.69177 0
M  V30 13828 H 1248.02 -0.749395 -1.29246 0
M  V30 13829 H 1249.91 0.544394 -4.17869 0
M  V30 13830 H 1248.58 1.00764 -3.07617 0
M  V30 13831 H 1247.49 -1.26678 -3.51999 0
M  V30 13832 H 1248.82 -1.64815 -4.63785 0
M  V30 13833 N 1250.47 1.3842 -0.753509 0
M  V30 13834 C 1251.42 2.32315 -0.115107 0
M  V30 13835 C 1252.41 1.54015 0.705398 0
M  V30 13836 O 1253.62 1.69546 0.604505 0
M  V30 13837 H 1250 0.751774 -0.0184276 0
M  V30 13838 H 1251.97 2.83763 -0.923094 0
M  V30 13839 C 1250.72 3.39206 0.763849 0
M  V30 13840 H 1250.04 3.99548 0.14187 0
M  V30 13841 H 1251.48 4.07312 1.17783 0
M  V30 13842 C 1249.94 2.77771 1.90643 0
M  V30 13843 O 1250.47 2.67073 3.00058 0
M  V30 13844 N 1248.67 2.35582 1.70145 0
M  V30 13845 H 1248.22 2.44483 0.811528 0
M  V30 13846 H 1248.18 1.9482 2.46764 0
M  V30 13847 N 1251.95 0.502579 1.49372 0
M  V30 13848 C 1252.88 -0.264307 2.31999 0
M  V30 13849 C 1253.86 -0.96107 1.40348 0
M  V30 13850 O 1255.05 -0.952167 1.69255 0
M  V30 13851 C 1252.18 -1.32822 3.20898 0
M  V30 13852 C 1251.13 -0.751236 4.21355 0
M  V30 13853 C 1250.46 -1.91578 4.99201 0
M  V30 13854 C 1251.76 0.258764 5.21659 0
M  V30 13855 H 1253.45 0.425391 2.96363 0
M  V30 13856 H 1251 0.206022 1.42519 0
M  V30 13857 H 1252.95 -1.87245 3.77515 0
M  V30 13858 H 1251.67 -2.04712 2.54481 0
M  V30 13859 H 1250.33 -0.228743 3.65886 0
M  V30 13860 H 1249.98 -2.62241 4.2923 0
M  V30 13861 H 1249.68 -1.53578 5.67175 0
M  V30 13862 H 1251.2 -2.46432 5.58663 0
M  V30 13863 H 1252.62 -0.197385 5.7296 0
M  V30 13864 H 1251.02 0.554681 5.97531 0
M  V30 13865 H 1252.09 1.1741 4.70471 0
M  V30 13866 N 1253.43 -1.55816 0.23648 0
M  V30 13867 C 1254.71 -1.90565 -0.440933 0
M  V30 13868 C 1255.09 -1.15585 -1.76645 0
M  V30 13869 O 1254.43 -0.269949 -2.269 0
M  V30 13870 C 1254.64 -3.43462 -0.61925 0
M  V30 13871 C 1255.99 -4.14516 -0.91989 0
M  V30 13872 O 1257.02 -3.49144 -0.705496 0
M  V30 13873 O 1255.87 -5.3013 -1.32759 0
M  V30 13874 H 1252.97 -0.79285 -0.235199 0
M  V30 13875 H 1255.51 -1.67378 0.279774 0
M  V30 13876 H 1254.29 -3.90029 0.315124 0
M  V30 13877 H 1253.91 -3.72478 -1.39089 0
M  V30 13878 N 1254.91 0.036755 -1.57557 0
M  V30 13879 C 1255.85 1.05823 -2.07133 0
M  V30 13880 C 1256.85 1.37923 -0.983546 0
M  V30 13881 O 1258.05 1.36918 -1.16848 0
M  V30 13882 H 1254.43 0.358761 -0.660905 0
M  V30 13883 H 1256.4 0.614232 -2.9201 0
M  V30 13884 C 1255.15 2.35302 -2.55985 0
M  V30 13885 H 1254.47 2.11461 -3.393 0
M  V30 13886 H 1255.91 3.05139 -2.94391 0
M  V30 13887 C 1254.37 3.0373 -1.45773 0
M  V30 13888 O 1254.9 3.9325 -0.819587 0
M  V30 13889 N 1253.11 2.64931 -1.19416 0
M  V30 13890 H 1252.65 1.92219 -1.71492 0
M  V30 13891 H 1252.61 3.11033 -0.458865 0
M  V30 13892 N 1256.39 1.54543 0.308881 0
M  V30 13893 C 1257.33 1.84949 1.38067 0
M  V30 13894 C 1258.3 0.697746 1.50734 0
M  V30 13895 O 1259.49 0.94561 1.65719 0
M  V30 13896 C 1256.63 2.09544 2.74199 0
M  V30 13897 C 1255.74 3.37193 2.70046 0
M  V30 13898 C 1254.88 3.51672 3.98121 0
M  V30 13899 C 1253.91 4.73143 3.88333 0
M  V30 13900 N 1253.05 4.84469 5.08167 0
M  V30 13901 H 1257.89 2.76379 1.11438 0
M  V30 13902 H 1255.43 1.36863 0.539153 0
M  V30 13903 H 1257.39 2.21798 3.53358 0
M  V30 13904 H 1256.02 1.21389 2.99106 0
M  V30 13905 H 1255.07 3.33601 1.82796 0
M  V30 13906 H 1256.38 4.26468 2.58701 0
M  V30 13907 H 1255.53 3.63548 4.85714 0
M  V30 13908 H 1254.27 2.60516 4.1229 0
M  V30 13909 H 1253.28 4.61308 2.99124 0
M  V30 13910 H 1254.5 5.65698 3.75716 0
M  V30 13911 H 1252.45 3.96234 5.22814 0
M  V30 13912 H 1252.37 5.67733 4.99215 0
M  V30 13913 H 1253.63 5.00693 5.97434 0
M  V30 13914 N 1257.86 -0.571685 1.46866 0
M  V30 13915 C 1258.77 -1.70758 1.60869 0
M  V30 13916 C 1259.79 -1.66903 0.49186 0
M  V30 13917 O 1260.97 -1.86613 0.757468 0
M  V30 13918 C 1258.03 -3.07267 1.60586 0
M  V30 13919 C 1257.09 -3.22301 2.83585 0
M  V30 13920 C 1256.32 -4.52298 2.83306 0
M  V30 13921 O 1256.55 -5.36869 1.92685 0
M  V30 13922 O 1255.48 -4.70814 3.7499 0
M  V30 13923 H 1259.31 -1.6189 2.56954 0
M  V30 13924 H 1256.89 -0.740018 1.29785 0
M  V30 13925 H 1258.77 -3.8853 1.63163 0
M  V30 13926 H 1257.45 -3.16549 0.676637 0
M  V30 13927 H 1256.36 -2.4049 2.86558 0
M  V30 13928 H 1257.69 -3.17916 3.75753 0
M  V30 13929 N 1259.34 -1.34755 -0.817236 0
M  V30 13930 C 1260.59 -1.26771 -1.56882 0
M  V30 13931 C 1260.9 0.158962 -1.94953 0
M  V30 13932 O 1262.11 0.360996 -2.69089 0
M  V30 13933 C 1260.57 -2.22261 -2.83069 0
M  V30 13934 C 1260.17 -3.70216 -2.52277 0
M  V30 13935 C 1261.92 -2.23197 -3.61086 0
M  V30 13936 C 1259.82 -4.57559 -3.74691 0
M  V30 13937 H 1258.75 -0.470961 -0.588822 0
M  V30 13938 H 1261.41 -1.59955 -0.899254 0
M  V30 13939 H 1259.79 -1.82036 -3.5168 0
M  V30 13940 H 1260.96 -4.19014 -1.9174 0
M  V30 13941 H 1259.28 -3.71784 -1.87525 0
M  V30 13942 H 1261.87 -2.85673 -4.5199 0
M  V30 13943 H 1262.22 -1.2328 -3.97628 0
M  V30 13944 H 1262.75 -2.61897 -2.99424 0
M  V30 13945 H 1259.49 -5.58434 -3.43267 0
M  V30 13946 H 1259.01 -4.13494 -4.34491 0
M  V30 13947 H 1260.69 -4.72451 -4.42039 0
M  V30 13948 N 1260.82 1.03812 -1.18578 0
M  V30 13949 C 1261.75 2.11928 -0.872871 0
M  V30 13950 C 1262.76 1.62275 0.130592 0
M  V30 13951 O 1263.95 1.78233 -0.0975869 0
M  V30 13952 C 1261.05 3.37714 -0.283321 0
M  V30 13953 C 1260.23 4.16591 -1.33307 0
M  V30 13954 C 1259.29 5.20701 -0.758746 0
M  V30 13955 O 1258.31 5.50837 -1.43412 0
M  V30 13956 N 1259.51 5.78811 0.442505 0
M  V30 13957 H 1262.28 2.39364 -1.80346 0
M  V30 13958 H 1259.84 1.20027 -1.08652 0
M  V30 13959 H 1261.83 4.04538 0.114524 0
M  V30 13960 H 1260.4 3.07699 0.551347 0
M  V30 13961 H 1259.62 3.45051 -1.90613 0
M  V30 13962 H 1260.91 4.66082 -2.04071 0
M  V30 13963 H 1260.31 5.56631 1.00889 0
M  V30 13964 H 1258.86 6.47089 0.78224 0
M  V30 13965 N 1262.3 0.988223 1.22768 0
M  V30 13966 C 1263.52 0.679426 1.95955 0
M  V30 13967 C 1263.95 -0.748483 1.72567 0
M  V30 13968 O 1263.31 -1.51097 1.00197 0
M  V30 13969 C 1263.35 0.985284 3.46878 0
M  V30 13970 O 1262.46 0.0814607 4.1232 0
M  V30 13971 H 1261.8 0.254749 0.613188 0
M  V30 13972 H 1264.33 1.32393 1.55991 0
M  V30 13973 H 1264.34 0.925198 3.97371 0
M  V30 13974 H 1263.01 2.02581 3.63227 0
M  V30 13975 H 1261.59 0.196629 3.72381 0
M  V30 13976 N 1263.78 -1.38018 0.760839 0
M  V30 13977 C 1264.72 -2.30387 0.13796 0
M  V30 13978 C 1265.69 -1.50548 -0.701754 0
M  V30 13979 O 1266.88 -1.79154 -0.656381 0
M  V30 13980 C 1264.02 -3.36993 -0.743642 0
M  V30 13981 C 1263.13 -4.31856 0.111489 0
M  V30 13982 C 1262.27 -5.25534 -0.773796 0
M  V30 13983 C 1261.3 -6.12042 0.0845311 0
M  V30 13984 N 1260.44 -6.97995 -0.758118 0
M  V30 13985 H 1265.28 -2.83077 0.931212 0
M  V30 13986 H 1262.82 -1.39361 0.470833 0
M  V30 13987 H 1264.78 -3.97417 -1.26948 0
M  V30 13988 H 1263.41 -2.85695 -1.50261 0
M  V30 13989 H 1262.46 -3.72832 0.755031 0
M  V30 13990 H 1263.77 -4.92758 0.774042 0
M  V30 13991 H 1262.92 -5.9111 -1.36653 0
M  V30 13992 H 1261.66 -4.65017 -1.47006 0
M  V30 13993 H 1260.67 -5.45455 0.689883 0
M  V30 13994 H 1261.89 -6.74629 0.777966 0
M  V30 13995 H 1259.84 -6.40018 -1.4392 0
M  V30 13996 H 1259.76 -7.55846 -0.152623 0
M  V30 13997 H 1261.02 -7.67973 -1.33559 0
M  V30 13998 N 1265.25 -0.510493 -1.49103 0
M  V30 13999 C 1266.48 0.0293113 -2.07379 0
M  V30 14000 C 1266.9 1.29195 -1.36713 0
M  V30 14001 O 1266.26 1.76204 -0.426838 0
M  V30 14002 C 1266.31 0.25629 -3.59688 0
M  V30 14003 O 1265.41 1.32907 -3.90397 0
M  V30 14004 H 1264.75 -0.0304449 -0.663302 0
M  V30 14005 H 1267.28 -0.712832 -1.91781 0
M  V30 14006 H 1267.29 0.484915 -4.05108 0
M  V30 14007 H 1265.97 -0.666163 -4.1053 0
M  V30 14008 H 1264.55 1.08464 -3.56777 0
M  V30 14009 N 1266.73 1.55688 -0.24474 0
M  V30 14010 C 1267.98 1.98498 0.379852 0
M  V30 14011 C 1268.3 1.13416 1.58625 0
M  V30 14012 O 1267.57 0.216456 1.947 0
M  V30 14013 H 1266.15 0.73312 0.143334 0
M  V30 14014 H 1268.81 1.91858 -0.343027 0
M  V30 14015 H 1267.91 3.04367 0.690463 0
M  V30 14016 N 1268.21 -0.0283989 1.57574 0
M  V30 14017 C 1269.49 -0.754527 1.80461 0
M  V30 14018 C 1269.87 -1.93539 0.842966 0
M  V30 14019 O 1269.21 -2.28212 -0.114714 0
M  V30 14020 C 1269.42 -1.18694 3.28196 0
M  V30 14021 C 1270.77 -1.60257 3.93196 0
M  V30 14022 O 1271.8 -1.2815 3.32349 0
M  V30 14023 O 1270.66 -2.19853 5.00327 0
M  V30 14024 H 1267.75 -0.364936 0.742126 0
M  V30 14025 H 1270.3 -0.00512589 1.69699 0
M  V30 14026 H 1269.07 -0.34398 3.89785 0
M  V30 14027 H 1268.69 -1.99633 3.43849 0
M  V30 14028 N 1269.69 -1.54705 -0.300681 0
M  V30 14029 C 1270.94 -1.73658 -1.0338 0
M  V30 14030 C 1271.26 -0.525447 -1.87787 0
M  V30 14031 O 1270.53 0.460269 -1.90416 0
M  V30 14032 H 1269.11 -0.640338 -0.384677 0
M  V30 14033 H 1271.77 -1.92059 -0.331588 0
M  V30 14034 H 1270.86 -2.62595 -1.68672 0
M  V30 14035 N 1271.17 0.563888 -1.47167 0
M  V30 14036 C 1272.41 1.31875 -1.53145 0
M  V30 14037 C 1272.74 1.94047 -0.192518 0
M  V30 14038 O 1272.01 1.79577 0.782872 0
M  V30 14039 H 1270.59 0.489694 -0.5641 0
M  V30 14040 H 1273.25 0.658976 -1.83422 0
M  V30 14041 H 1272.34 2.11574 -2.2944 0
M  V30 14042 N 1272.64 1.35187 0.810078 0
M  V30 14043 C 1273.87 1.31528 1.60359 0
M  V30 14044 C 1274.29 -0.105385 1.87805 0
M  V30 14045 O 1273.65 -1.07113 1.46276 0
M  V30 14046 C 1273.7 2.12429 2.91386 0
M  V30 14047 O 1272.8 1.50262 3.84051 0
M  V30 14048 H 1272.15 0.451122 0.487222 0
M  V30 14049 H 1274.68 1.78178 1.00568 0
M  V30 14050 H 1274.69 2.24257 3.40841 0
M  V30 14051 H 1273.36 3.15714 2.70735 0
M  V30 14052 H 1271.94 1.47253 3.42594 0
M  V30 14053 N 1274.12 -1.03182 1.19127 0
M  V30 14054 C 1275.07 -2.11394 0.926339 0
M  V30 14055 C 1276.04 -1.65528 -0.137703 0
M  V30 14056 O 1277.22 -1.908 0.00381804 0
M  V30 14057 C 1274.36 -3.41913 0.467894 0
M  V30 14058 C 1273.48 -4.01343 1.59837 0
M  V30 14059 C 1272.61 -5.1986 1.09175 0
M  V30 14060 C 1271.65 -5.71339 2.19632 0
M  V30 14061 N 1270.79 -6.81133 1.703 0
M  V30 14062 H 1275.63 -2.33393 1.85288 0
M  V30 14063 H 1273.17 -1.14473 0.923811 0
M  V30 14064 H 1275.12 -4.16796 0.183513 0
M  V30 14065 H 1273.75 -3.20034 -0.421656 0
M  V30 14066 H 1272.81 -3.23702 1.99803 0
M  V30 14067 H 1274.12 -4.35568 2.43068 0
M  V30 14068 H 1273.27 -6.0189 0.762427 0
M  V30 14069 H 1272.01 -4.87161 0.22914 0
M  V30 14070 H 1271.02 -4.87923 2.53399 0
M  V30 14071 H 1272.24 -6.06078 3.06344 0
M  V30 14072 H 1270.19 -6.50293 0.863415 0
M  V30 14073 H 1270.1 -7.1447 2.47122 0
M  V30 14074 H 1271.37 -7.66766 1.40321 0
M  V30 14075 N 1275.6 -0.99472 -1.22242 0
M  V30 14076 C 1276.51 -0.555502 -2.27928 0
M  V30 14077 C 1277.53 0.396584 -1.6942 0
M  V30 14078 O 1278.7 0.262965 -1.99676 0
M  V30 14079 C 1275.77 0.121121 -3.46488 0
M  V30 14080 C 1274.83 -0.874155 -4.20306 0
M  V30 14081 C 1274.06 -0.229726 -5.33205 0
M  V30 14082 O 1274.28 0.975935 -5.61989 0
M  V30 14083 O 1273.22 -0.935501 -5.94586 0
M  V30 14084 H 1277.04 -1.4348 -2.6767 0
M  V30 14085 H 1274.63 -0.763061 -1.28444 0
M  V30 14086 H 1276.51 0.500043 -4.18423 0
M  V30 14087 H 1275.19 0.974959 -3.08668 0
M  V30 14088 H 1274.09 -1.30404 -3.50636 0
M  V30 14089 H 1275.43 -1.69725 -4.62011 0
M  V30 14090 N 1277.08 1.37613 -0.768148 0
M  V30 14091 C 1278.03 2.30311 -0.150176 0
M  V30 14092 C 1279 1.50918 0.69376 0
M  V30 14093 O 1280.18 1.795 0.64687 0
M  V30 14094 C 1277.32 3.37382 0.72576 0
M  V30 14095 C 1276.43 4.31791 -0.13439 0
M  V30 14096 C 1275.57 5.25937 0.745915 0
M  V30 14097 C 1274.61 6.11988 -0.116988 0
M  V30 14098 N 1273.74 6.98387 0.721091 0
M  V30 14099 H 1278.58 2.82579 -0.946212 0
M  V30 14100 H 1276.12 1.3911 -0.478217 0
M  V30 14101 H 1278.08 3.98084 1.24839 0
M  V30 14102 H 1276.71 2.86488 1.48743 0
M  V30 14103 H 1275.76 3.72426 -0.774793 0
M  V30 14104 H 1277.07 4.9234 -0.800163 0
M  V30 14105 H 1276.23 5.91826 1.33516 0
M  V30 14106 H 1274.97 4.6579 1.44538 0
M  V30 14107 H 1273.97 5.45081 -0.7188 0
M  V30 14108 H 1275.2 6.74207 -0.813732 0
M  V30 14109 H 1273.14 6.40772 1.40524 0
M  V30 14110 H 1273.06 7.55916 0.112536 0
M  V30 14111 H 1274.33 7.6867 1.29485 0
M  V30 14112 N 1278.56 0.518393 1.4883 0
M  V30 14113 C 1279.81 -0.0218436 2.01688 0
M  V30 14114 C 1280.12 -1.36421 1.40174 0
M  V30 14115 O 1281.32 -1.99214 1.84461 0
M  V30 14116 C 1279.78 -0.0893538 3.59789 0
M  V30 14117 C 1279.39 1.24741 4.30283 0
M  V30 14118 C 1281.13 -0.579032 4.20532 0
M  V30 14119 C 1279.04 1.14112 5.80286 0
M  V30 14120 H 1277.97 -0.0119353 0.753906 0
M  V30 14121 H 1280.62 0.660432 1.71203 0
M  V30 14122 H 1279 -0.836458 3.87065 0
M  V30 14123 H 1280.18 2.00917 4.14691 0
M  V30 14124 H 1278.49 1.67191 3.81361 0
M  V30 14125 H 1281.09 -0.676343 5.30405 0
M  V30 14126 H 1281.43 -1.58207 3.85067 0
M  V30 14127 H 1281.96 0.112046 3.97642 0
M  V30 14128 H 1278.7 2.11895 6.20307 0
M  V30 14129 H 1278.22 0.420535 5.98324 0
M  V30 14130 H 1279.9 0.826992 6.41693 0
M  V30 14131 N 1280.03 -1.55556 0.252993 0
M  V30 14132 C 1280.98 -2.21634 -0.643979 0
M  V30 14133 C 1281.95 -1.18226 -1.1667 0
M  V30 14134 O 1283.14 -1.46694 -1.22006 0
M  V30 14135 C 1280.28 -2.92429 -1.83246 0
M  V30 14136 C 1279.39 -4.10506 -1.34569 0
M  V30 14137 C 1278.52 -4.69001 -2.49421 0
M  V30 14138 C 1277.56 -5.79315 -1.97636 0
M  V30 14139 N 1276.7 -6.31967 -3.05878 0
M  V30 14140 H 1281.54 -2.97909 -0.0738178 0
M  V30 14141 H 1279.08 -1.47079 -0.0246728 0
M  V30 14142 H 1281.04 -3.31678 -2.53072 0
M  V30 14143 H 1279.67 -2.18617 -2.375 0
M  V30 14144 H 1278.72 -3.76529 -0.541268 0
M  V30 14145 H 1280.03 -4.90125 -0.92622 0
M  V30 14146 H 1279.18 -5.10855 -3.27279 0
M  V30 14147 H 1277.92 -3.88612 -2.94673 0
M  V30 14148 H 1276.93 -5.36933 -1.18251 0
M  V30 14149 H 1278.15 -6.6156 -1.53347 0
M  V30 14150 H 1276.1 -5.5448 -3.50553 0
M  V30 14151 H 1276.02 -7.06797 -2.68281 0
M  V30 14152 H 1277.28 -6.7848 -3.83777 0
M  V30 14153 N 1281.51 0.0200419 -1.57587 0
M  V30 14154 C 1282.44 1.0456 -2.0396 0
M  V30 14155 C 1283.46 1.31922 -0.953962 0
M  V30 14156 O 1284.65 1.2925 -1.23112 0
M  V30 14157 C 1281.75 2.38514 -2.40758 0
M  V30 14158 C 1280.92 2.3038 -3.71812 0
M  V30 14159 C 1279.98 3.46856 -3.95698 0
M  V30 14160 O 1279 3.25944 -4.66636 0
M  V30 14161 N 1280.21 4.69033 -3.42036 0
M  V30 14162 H 1282.97 0.650282 -2.9256 0
M  V30 14163 H 1280.53 0.207818 -1.60561 0
M  V30 14164 H 1282.52 3.15172 -2.53868 0
M  V30 14165 H 1281.09 2.69859 -1.57781 0
M  V30 14166 H 1280.31 1.38762 -3.6897 0
M  V30 14167 H 1281.6 2.22097 -4.57767 0
M  V30 14168 H 1281 4.88923 -2.84553 0
M  V30 14169 H 1279.56 5.43025 -3.6051 0
M  V30 14170 N 1282.99 1.54862 0.292472 0
M  V30 14171 C 1284.22 1.78877 1.04966 0
M  V30 14172 C 1284.64 0.550724 1.79857 0
M  V30 14173 O 1284 -0.499054 1.74296 0
M  V30 14174 C 1284.05 3.00106 1.99922 0
M  V30 14175 O 1283.15 2.73827 3.0837 0
M  V30 14176 H 1282.49 0.591802 0.301108 0
M  V30 14177 H 1285.02 2.01965 0.3273 0
M  V30 14178 H 1285.03 3.28309 2.42233 0
M  V30 14179 H 1283.71 3.89872 1.44821 0
M  V30 14180 H 1282.28 2.56665 2.70513 0
M  V30 14181 N 1284.47 -0.556076 1.47464 0
M  V30 14182 C 1285.69 -1.3434 1.58011 0
M  V30 14183 C 1286.12 -1.86674 0.231138 0
M  V30 14184 O 1285.48 -1.63029 -0.793174 0
M  V30 14185 C 1285.52 -2.48844 2.60977 0
M  V30 14186 O 1284.63 -3.51108 2.16326 0
M  V30 14187 H 1283.97 -0.398986 0.53076 0
M  V30 14188 H 1286.5 -0.671898 1.93253 0
M  V30 14189 H 1286.51 -2.95398 2.81432 0
M  V30 14190 H 1285.18 -2.10109 3.58925 0
M  V30 14191 H 1283.76 -3.10852 2.05975 0
M  V30 14192 N 1285.95 -1.35615 -0.802897 0
M  V30 14193 C 1287.17 -1.32377 -1.59659 0
M  V30 14194 C 1287.6 0.0954235 -1.87858 0
M  V30 14195 O 1286.96 1.06336 -1.46842 0
M  V30 14196 C 1287 -2.13972 -2.90256 0
M  V30 14197 O 1286.11 -1.52296 -3.83249 0
M  V30 14198 H 1285.45 -0.453699 -0.484823 0
M  V30 14199 H 1287.98 -1.78708 -0.996217 0
M  V30 14200 H 1287.99 -2.26061 -3.39647 0
M  V30 14201 H 1286.66 -3.17145 -2.69057 0
M  V30 14202 H 1285.24 -1.49068 -3.41809 0
M  V30 14203 N 1287.43 1.02549 -1.19673 0
M  V30 14204 C 1288.65 1.8016 -1.02748 0
M  V30 14205 C 1289.08 1.83372 0.419105 0
M  V30 14206 O 1288.43 1.26222 1.30144 0
M  V30 14207 C 1288.48 3.22907 -1.60509 0
M  V30 14208 O 1287.59 4.03823 -0.836702 0
M  V30 14209 H 1286.93 0.556027 -0.362946 0
M  V30 14210 H 1289.46 1.29047 -1.5877 0
M  V30 14211 H 1289.47 3.73646 -1.63868 0
M  V30 14212 H 1288.14 3.19885 -2.65794 0
M  V30 14213 H 1286.72 3.6245 -0.876626 0
M  V30 14214 N 1288.9 1.00119 1.21713 0
M  V30 14215 C 1289.81 0.567582 2.27631 0
M  V30 14216 C 1290.83 -0.387593 1.69628 0
M  V30 14217 O 1292.01 -0.252372 1.99813 0
M  V30 14218 C 1289.07 -0.102745 3.46548 0
M  V30 14219 C 1288.13 0.896433 4.19836 0
M  V30 14220 C 1287.36 0.258 5.33076 0
M  V30 14221 O 1287.59 -0.946118 5.62499 0
M  V30 14222 O 1286.52 0.967021 5.94081 0
M  V30 14223 H 1290.35 1.44898 2.66905 0
M  V30 14224 H 1287.93 0.769862 1.28037 0
M  V30 14225 H 1289.81 -0.477846 4.18682 0
M  V30 14226 H 1288.49 -0.958576 3.09181 0
M  V30 14227 H 1287.4 1.32262 3.49939 0
M  V30 14228 H 1288.73 1.72173 4.61104 0
M  V30 14229 N 1290.38 -1.37203 0.775435 0
M  V30 14230 C 1291.62 -2.01439 0.346649 0
M  V30 14231 C 1291.99 -1.60223 -1.05795 0
M  V30 14232 O 1293.19 -2.16947 -1.58706 0
M  V30 14233 C 1291.46 -3.54031 0.489584 0
M  V30 14234 S 1293.02 -4.38555 0.146606 0
M  V30 14235 H 1289.83 -0.698417 0.133173 0
M  V30 14236 H 1292.44 -1.67338 1.01086 0
M  V30 14237 H 1291.14 -3.81516 1.51241 0
M  V30 14238 H 1290.67 -3.92936 -0.19105 0
M  V30 14239 H 1292.69 -4.8482 -1.05661 0
M  V30 14240 N 1291.86 -0.526279 -1.48553 0
M  V30 14241 C 1293.08 0.00731432 -2.07399 0
M  V30 14242 C 1293.51 1.27737 -1.38075 0
M  V30 14243 O 1292.87 1.75741 -0.445503 0
M  V30 14244 C 1292.92 0.218126 -3.5994 0
M  V30 14245 O 1292.02 1.28759 -3.91784 0
M  V30 14246 H 1291.36 -0.0374784 -0.662941 0
M  V30 14247 H 1293.89 -0.733133 -1.91014 0
M  V30 14248 H 1293.9 0.44192 -4.056 0
M  V30 14249 H 1292.58 -0.709668 -4.09801 0
M  V30 14250 H 1291.15 1.04674 -3.57907 0
M  V30 14251 N 1293.34 1.5542 -0.261239 0
M  V30 14252 C 1294.57 2.03687 0.363225 0
M  V30 14253 C 1294.98 1.14007 1.50492 0
M  V30 14254 O 1294.34 0.157349 1.8182 0
M  V30 14255 C 1294.39 3.51184 0.857435 0
M  V30 14256 O 1294.11 4.37449 -0.238776 0
M  V30 14257 C 1295.61 4.15277 1.55113 0
M  V30 14258 H 1292.83 0.665641 0.0846356 0
M  V30 14259 H 1295.37 2.00761 -0.389288 0
M  V30 14260 H 1293.53 3.54599 1.56008 0
M  V30 14261 H 1293.94 5.24316 0.138821 0
M  V30 14262 H 1295.42 5.20129 1.8485 0
M  V30 14263 H 1295.89 3.62619 2.47799 0
M  V30 14264 H 1296.5 4.15826 0.892695 0
M  V30 14265 N 1294.82 -0.0116844 1.57596 0
M  V30 14266 C 1296.06 -0.699994 1.90336 0
M  V30 14267 C 1296.39 -1.74067 0.861072 0
M  V30 14268 O 1295.67 -1.94119 -0.121712 0
M  V30 14269 C 1295.95 -1.35377 3.33684 0
M  V30 14270 C 1295.81 -0.325434 4.48621 0
M  V30 14271 C 1297.12 -2.28312 3.76247 0
M  V30 14272 H 1294.24 -0.253002 0.692213 0
M  V30 14273 H 1296.89 0.037211 1.89964 0
M  V30 14274 H 1295.04 -1.98212 3.34132 0
M  V30 14275 H 1296.71 0.302331 4.60308 0
M  V30 14276 H 1294.95 0.353527 4.32357 0
M  V30 14277 H 1295.62 -0.8217 5.4585 0
M  V30 14278 H 1298.1 -1.75505 3.77276 0
M  V30 14279 H 1296.97 -2.71028 4.77321 0
M  V30 14280 H 1297.23 -3.15727 3.09465 0
M  V30 14281 N 1296.29 -1.55015 -0.284256 0
M  V30 14282 C 1297.57 -1.6579 -1.03794 0
M  V30 14283 C 1297.95 -0.517029 -2.04671 0
M  V30 14284 O 1297.3 0.484287 -2.23309 0
M  V30 14285 C 1297.51 -3.04527 -1.70483 0
M  V30 14286 C 1298.86 -3.61903 -2.22062 0
M  V30 14287 O 1299.88 -3.07087 -1.80488 0
M  V30 14288 O 1298.74 -4.57917 -2.98286 0
M  V30 14289 H 1295.83 -0.672906 -0.480757 0
M  V30 14290 H 1298.38 -1.67357 -0.281009 0
M  V30 14291 H 1297.15 -3.79004 -0.973238 0
M  V30 14292 H 1296.77 -3.0681 -2.5289 0
M  V30 14293 N 1297.77 0.548248 -1.47757 0
M  V30 14294 C 1299.02 1.30139 -1.54099 0
M  V30 14295 C 1299.33 1.9445 -0.2118 0
M  V30 14296 O 1300.54 2.71067 -0.153302 0
M  V30 14297 C 1299 2.36039 -2.71687 0
M  V30 14298 C 1298.6 1.77879 -4.11173 0
M  V30 14299 C 1300.35 3.12478 -2.87329 0
M  V30 14300 C 1298.25 2.81611 -5.20047 0
M  V30 14301 H 1297.18 0.489364 -0.573619 0
M  V30 14302 H 1299.84 0.581237 -1.74051 0
M  V30 14303 H 1298.22 3.11008 -2.45132 0
M  V30 14304 H 1299.39 1.09221 -4.47669 0
M  V30 14305 H 1297.71 1.13994 -4.00493 0
M  V30 14306 H 1300.3 3.89958 -3.65837 0
M  V30 14307 H 1300.65 3.67218 -1.96103 0
M  V30 14308 H 1301.18 2.4462 -3.13697 0
M  V30 14309 H 1297.92 2.31714 -6.13179 0
M  V30 14310 H 1297.44 3.48652 -4.88059 0
M  V30 14311 H 1299.12 3.44938 -5.47382 0
M  V30 14312 N 1299.25 1.36039 0.795694 0
M  V30 14313 C 1300.21 1.29709 1.88966 0
M  V30 14314 C 1301.21 0.206142 1.59473 0
M  V30 14315 O 1302.4 0.460534 1.68002 0
M  V30 14316 C 1299.53 1.00922 3.25619 0
M  V30 14317 H 1300.73 2.26993 1.95995 0
M  V30 14318 H 1298.28 1.2072 0.992791 0
M  V30 14319 H 1299.02 0.0407027 3.24274 0
M  V30 14320 H 1298.8 1.79863 3.48413 0
M  V30 14321 H 1300.29 0.990826 4.05675 0
M  V30 14322 N 1300.73 -1.01913 1.20215 0
M  V30 14323 C 1301.98 -1.74878 1.00502 0
M  V30 14324 C 1302.29 -1.90022 -0.463792 0
M  V30 14325 O 1303.5 -2.60055 -0.779982 0
M  V30 14326 C 1301.95 -3.1452 1.74943 0
M  V30 14327 C 1301.56 -3.07397 3.259 0
M  V30 14328 C 1303.3 -3.91713 1.63589 0
M  V30 14329 C 1301.21 -4.42032 3.92889 0
M  V30 14330 H 1300.14 -0.655603 0.372426 0
M  V30 14331 H 1302.79 -1.13978 1.4381 0
M  V30 14332 H 1301.17 -3.75946 1.24421 0
M  V30 14333 H 1302.35 -2.55294 3.83617 0
M  V30 14334 H 1300.66 -2.43698 3.37639 0
M  V30 14335 H 1303.26 -4.91316 2.1098 0
M  V30 14336 H 1303.6 -4.12074 0.591665 0
M  V30 14337 H 1304.14 -3.3691 2.11511 0
M  V30 14338 H 1300.88 -4.26874 4.97453 0
M  V30 14339 H 1300.4 -4.94151 3.39962 0
M  V30 14340 H 1302.07 -5.10884 3.96997 0
M  V30 14341 N 1302.21 -1.00763 -1.2118 0
M  V30 14342 C 1303.43 -0.710515 -1.9485 0
M  V30 14343 C 1303.86 0.720934 -1.73736 0
M  V30 14344 O 1303.21 1.49484 -1.02588 0
M  V30 14345 C 1303.26 -1.04035 -3.45267 0
M  V30 14346 O 1302.37 -0.147047 -4.12138 0
M  V30 14347 H 1301.71 -0.264472 -0.609057 0
M  V30 14348 H 1304.24 -1.34858 -1.53865 0
M  V30 14349 H 1304.25 -0.9883 -3.95849 0
M  V30 14350 H 1302.92 -2.08334 -3.59958 0
M  V30 14351 H 1301.5 -0.255847 -3.72021 0
M  V30 14352 N 1303.68 1.3679 -0.7827 0
M  V30 14353 C 1304.59 2.33928 -0.17747 0
M  V30 14354 C 1305.61 1.60716 0.666802 0
M  V30 14355 O 1306.79 1.92742 0.584162 0
M  V30 14356 C 1303.85 3.39907 0.68294 0
M  V30 14357 C 1302.91 4.28926 -0.179053 0
M  V30 14358 C 1302.15 5.29844 0.640386 0
M  V30 14359 O 1302.37 5.38639 1.87681 0
M  V30 14360 O 1301.3 6.01884 0.0438164 0
M  V30 14361 H 1305.13 2.87439 -0.980441 0
M  V30 14362 H 1302.71 1.39142 -0.54404 0
M  V30 14363 H 1304.6 4.04722 1.17379 0
M  V30 14364 H 1303.27 2.88706 1.46391 0
M  V30 14365 H 1302.18 3.67174 -0.716512 0
M  V30 14366 H 1303.51 4.83461 -0.923377 0
M  V30 14367 N 1305.16 0.53415 1.48272 0
M  V30 14368 C 1306.07 -0.230062 2.33469 0
M  V30 14369 C 1307.09 -0.934889 1.46751 0
M  V30 14370 O 1308.26 -0.908921 1.79724 0
M  V30 14371 C 1305.33 -1.2609 3.22958 0
M  V30 14372 C 1304.39 -0.565983 4.25553 0
M  V30 14373 C 1303.62 -1.54771 5.10766 0
M  V30 14374 O 1303.85 -2.7807 4.9803 0
M  V30 14375 O 1302.78 -1.08482 5.92043 0
M  V30 14376 H 1306.61 0.468182 3.0007 0
M  V30 14377 H 1304.19 0.29502 1.46458 0
M  V30 14378 H 1306.07 -1.85652 3.783 0
M  V30 14379 H 1304.75 -1.94148 2.59014 0
M  V30 14380 H 1303.66 0.0702391 3.74034 0
M  V30 14381 H 1304.99 0.0727277 4.92146 0
M  V30 14382 N 1306.64 -1.55279 0.269478 0
M  V30 14383 C 1307.55 -2.25965 -0.63065 0
M  V30 14384 C 1308.57 -1.28357 -1.17476 0
M  V30 14385 O 1309.74 -1.61281 -1.20625 0
M  V30 14386 C 1306.81 -2.96263 -1.80081 0
M  V30 14387 C 1305.87 -4.09336 -1.29394 0
M  V30 14388 C 1305.1 -4.76272 -2.40833 0
M  V30 14389 O 1305.32 -4.42389 -3.60066 0
M  V30 14390 O 1304.26 -5.64334 -2.09309 0
M  V30 14391 H 1308.08 -3.03644 -0.0582069 0
M  V30 14392 H 1305.67 -1.49354 0.0370966 0
M  V30 14393 H 1307.55 -3.40461 -2.48322 0
M  V30 14394 H 1306.23 -2.21505 -2.36045 0
M  V30 14395 H 1305.13 -3.69605 -0.578154 0
M  V30 14396 H 1306.47 -4.85978 -0.780117 0
M  V30 14397 N 1308.12 0.00332656 -1.576 0
M  V30 14398 C 1309.03 1.01221 -2.1164 0
M  V30 14399 C 1310.04 1.37918 -1.06088 0
M  V30 14400 O 1311.22 1.46717 -1.37971 0
M  V30 14401 C 1308.29 2.28638 -2.60626 0
M  V30 14402 C 1307.35 1.98284 -3.80765 0
M  V30 14403 C 1306.58 3.19626 -4.27405 0
M  V30 14404 O 1306.8 4.31196 -3.73398 0
M  V30 14405 O 1305.74 3.03819 -5.19594 0
M  V30 14406 H 1309.56 0.582839 -2.98055 0
M  V30 14407 H 1307.15 0.221947 -1.47742 0
M  V30 14408 H 1309.03 3.03498 -2.92347 0
M  V30 14409 H 1307.7 2.70819 -1.7731 0
M  V30 14410 H 1306.61 1.2091 -3.54022 0
M  V30 14411 H 1307.94 1.60942 -4.65144 0
M  V30 14412 N 1309.6 1.55164 0.276031 0
M  V30 14413 C 1310.53 1.82758 1.36656 0
M  V30 14414 C 1311.51 0.680405 1.4768 0
M  V30 14415 O 1312.69 0.923078 1.64352 0
M  V30 14416 C 1309.82 1.98651 2.74328 0
M  V30 14417 C 1308.86 3.21192 2.80603 0
M  V30 14418 S 1309.7 4.78628 2.40156 0
M  V30 14419 C 1310.85 4.9749 3.79809 0
M  V30 14420 H 1311.09 2.74969 1.13045 0
M  V30 14421 H 1308.62 1.46896 0.4755 0
M  V30 14422 H 1310.58 2.08492 3.53612 0
M  V30 14423 H 1309.24 1.07333 2.95192 0
M  V30 14424 H 1308.43 3.29189 3.81642 0
M  V30 14425 H 1308.03 3.09926 2.09337 0
M  V30 14426 H 1310.33 4.83045 4.75051 0
M  V30 14427 H 1311.27 5.99544 3.76765 0
M  V30 14428 H 1311.68 4.25489 3.70971 0
M  V30 14429 N 1311.07 -0.540404 1.48045 0
M  V30 14430 C 1312.32 -1.29678 1.55531 0
M  V30 14431 C 1312.65 -1.93197 0.224725 0
M  V30 14432 O 1311.9 -1.79308 -0.784028 0
M  V30 14433 C 1312.2 -2.41517 2.63447 0
M  V30 14434 C 1311.87 -1.95719 4.06208 0
M  V30 14435 C 1310.53 -1.82946 4.45067 0
M  V30 14436 C 1312.88 -1.6098 4.95717 0
M  V30 14437 C 1310.21 -1.33753 5.7125 0
M  V30 14438 C 1312.56 -1.13253 6.2238 0
M  V30 14439 C 1311.23 -0.990886 6.60104 0
M  V30 14440 H 1310.5 -0.474525 0.569129 0
M  V30 14441 H 1313.14 -0.604209 1.81718 0
M  V30 14442 H 1311.45 -3.16401 2.3108 0
M  V30 14443 H 1313.15 -2.9967 2.66457 0
M  V30 14444 H 1309.74 -2.06609 3.75514 0
M  V30 14445 H 1313.92 -1.69713 4.66381 0
M  V30 14446 H 1309.18 -1.21465 5.99213 0
M  V30 14447 H 1313.35 -0.854401 6.91139 0
M  V30 14448 H 1310.98 -0.607497 7.57769 0
M  V30 14449 N 1312.55 -1.36459 -0.788468 0
M  V30 14450 C 1313.78 -1.33703 -1.57502 0
M  V30 14451 C 1314.19 0.0834961 -1.89016 0
M  V30 14452 O 1313.53 1.05107 -1.50659 0
M  V30 14453 C 1313.6 -2.09424 -2.92201 0
M  V30 14454 C 1313.26 -3.58507 -2.83411 0
M  V30 14455 C 1314.26 -4.52736 -2.5559 0
M  V30 14456 C 1311.94 -4.01405 -3.01959 0
M  V30 14457 C 1313.94 -5.87841 -2.46419 0
M  V30 14458 C 1311.62 -5.366 -2.92409 0
M  V30 14459 C 1312.62 -6.29631 -2.64677 0
M  V30 14460 O 1312.31 -7.62343 -2.55124 0
M  V30 14461 H 1312.04 -0.460221 -0.495149 0
M  V30 14462 H 1314.59 -1.80163 -0.986437 0
M  V30 14463 H 1312.82 -1.5763 -3.53114 0
M  V30 14464 H 1314.51 -1.99515 -3.53481 0
M  V30 14465 H 1315.28 -4.20906 -2.40962 0
M  V30 14466 H 1311.16 -3.29367 -3.2255 0
M  V30 14467 H 1314.7 -6.60423 -2.24694 0
M  V30 14468 H 1310.6 -5.68038 -3.066 0
M  V30 14469 H 1311.37 -7.72476 -2.70598 0
M  V30 14470 N 1314.03 1.01274 -1.20754 0
M  V30 14471 C 1315.28 1.74586 -1.01804 0
M  V30 14472 C 1315.6 1.89727 0.450419 0
M  V30 14473 O 1314.87 1.44257 1.32539 0
M  V30 14474 H 1313.45 0.646804 -0.373702 0
M  V30 14475 H 1316.11 1.22079 -1.5193 0
M  V30 14476 H 1315.21 2.748 -1.47958 0
M  V30 14477 N 1315.51 1.01404 1.20644 0
M  V30 14478 C 1316.76 0.700523 1.89571 0
M  V30 14479 C 1317.08 -0.771978 1.79068 0
M  V30 14480 O 1316.35 -1.55506 1.19142 0
M  V30 14481 H 1314.93 0.256122 0.70172 0
M  V30 14482 H 1317.59 1.28509 1.46531 0
M  V30 14483 H 1316.69 0.981665 2.9626 0
M  V30 14484 N 1316.99 -1.36373 0.789944 0
M  V30 14485 C 1317.9 -2.3383 0.189873 0
M  V30 14486 C 1318.91 -1.61068 -0.65827 0
M  V30 14487 O 1320.09 -1.93049 -0.573932 0
M  V30 14488 C 1317.15 -3.40264 -0.664905 0
M  V30 14489 C 1316.22 -4.28825 0.201798 0
M  V30 14490 C 1315.45 -5.30176 -0.612278 0
M  V30 14491 O 1315.67 -5.39627 -1.84821 0
M  V30 14492 O 1314.61 -6.01899 -0.0118964 0
M  V30 14493 H 1318.43 -2.86915 0.995671 0
M  V30 14494 H 1316.02 -1.38852 0.551412 0
M  V30 14495 H 1317.9 -4.05339 -1.15231 0
M  V30 14496 H 1316.57 -2.89478 -1.44858 0
M  V30 14497 H 1315.48 -3.66789 0.735974 0
M  V30 14498 H 1316.81 -4.82965 0.949003 0
M  V30 14499 N 1318.47 -0.542005 -1.47987 0
M  V30 14500 C 1319.88 -0.200691 -1.58333 0
M  V30 14501 C 1320.08 1.29643 -1.54256 0
M  V30 14502 O 1319.14 2.07556 -1.43794 0
M  V30 14503 C 1320.45 -0.813878 -2.89476 0
M  V30 14504 C 1322 -0.783711 -3.0303 0
M  V30 14505 C 1322.47 -1.37569 -4.36851 0
M  V30 14506 N 1323.96 -1.33819 -4.43449 0
M  V30 14507 C 1324.7 -1.76602 -5.45527 0
M  V30 14508 N 1324.2 -2.27169 -6.54497 0
M  V30 14509 N 1325.99 -1.67765 -5.3648 0
M  V30 14510 H 1318.14 -1.51488 -1.4888 0
M  V30 14511 H 1320.4 -0.630835 -0.707638 0
M  V30 14512 H 1320.11 -1.86544 -2.98151 0
M  V30 14513 H 1319.98 -0.297978 -3.76021 0
M  V30 14514 H 1322.37 0.259118 -2.9396 0
M  V30 14515 H 1322.45 -1.33721 -2.18065 0
M  V30 14516 H 1322.09 -2.41751 -4.46675 0
M  V30 14517 H 1322.02 -0.797769 -5.20522 0
M  V30 14518 H 1324.52 -0.968147 -3.65288 0
M  V30 14519 H 1324.83 -2.57777 -7.2854 0
M  V30 14520 H 1323.17 -2.31171 -6.55427 0
M  V30 14521 H 1326.36 -1.28048 -4.50246 0
M  V30 14522 H 1326.54 -2.01426 -6.15899 0
M  V30 14523 N 1319.94 1.55134 -0.277709 0
M  V30 14524 C 1321.17 2.04519 0.344472 0
M  V30 14525 C 1321.59 1.15466 1.4849 0
M  V30 14526 O 1320.95 0.153798 1.80646 0
M  V30 14527 C 1321 3.51602 0.800527 0
M  V30 14528 O 1320.1 3.65632 1.90754 0
M  V30 14529 H 1319.44 0.660212 0.0708226 0
M  V30 14530 H 1321.97 2.00393 -0.412764 0
M  V30 14531 H 1321.98 3.93015 1.09559 0
M  V30 14532 H 1320.66 4.15886 -0.033838 0
M  V30 14533 H 1319.24 3.36122 1.61481 0
M  V30 14534 N 1321.42 0.00503138 1.57599 0
M  V30 14535 C 1322.37 -0.984754 2.08737 0
M  V30 14536 C 1323.34 -1.33822 0.983915 0
M  V30 14537 O 1324.52 -1.43572 1.25665 0
M  V30 14538 C 1321.66 -2.26984 2.59946 0
M  V30 14539 C 1320.78 -1.97496 3.84212 0
M  V30 14540 C 1319.91 -3.20123 4.23904 0
M  V30 14541 C 1318.95 -2.86344 5.40993 0
M  V30 14542 N 1318.09 -4.01524 5.75954 0
M  V30 14543 H 1322.93 -0.541737 2.93034 0
M  V30 14544 H 1320.46 -0.255834 1.44858 0
M  V30 14545 H 1322.42 -3.02117 2.87717 0
M  V30 14546 H 1321.05 -2.68946 1.78516 0
M  V30 14547 H 1320.1 -1.12709 3.63319 0
M  V30 14548 H 1321.42 -1.68602 4.69441 0
M  V30 14549 H 1320.57 -4.03598 4.52983 0
M  V30 14550 H 1319.31 -3.5216 3.37394 0
M  V30 14551 H 1318.31 -2.01278 5.11632 0
M  V30 14552 H 1319.54 -2.5555 6.29183 0
M  V30 14553 H 1317.49 -4.33447 4.92402 0
M  V30 14554 H 1317.4 -3.76171 6.55768 0
M  V30 14555 H 1318.67 -4.85772 6.09628 0
M  V30 14556 N 1322.9 -1.55308 -0.267798 0
M  V30 14557 C 1323.85 -1.84933 -1.33356 0
M  V30 14558 C 1324.83 -0.708605 -1.44456 0
M  V30 14559 O 1326.03 -0.970069 -1.4805 0
M  V30 14560 C 1323.15 -2.12927 -2.69289 0
M  V30 14561 C 1322.24 -3.33273 -2.62279 0
M  V30 14562 N 1322.63 -4.53055 -2.24889 0
M  V30 14563 C 1320.93 -3.35966 -2.93331 0
M  V30 14564 C 1321.63 -5.35156 -2.27998 0
M  V30 14565 N 1320.61 -4.73692 -2.66677 0
M  V30 14566 H 1324.41 -2.75086 -1.03465 0
M  V30 14567 H 1321.92 -1.55254 -0.476435 0
M  V30 14568 H 1323.92 -2.32309 -3.46177 0
M  V30 14569 H 1322.58 -1.24061 -3.00065 0
M  V30 14570 H 1323.59 -4.79059 -1.9678 0
M  V30 14571 H 1320.27 -2.57308 -3.28784 0
M  V30 14572 H 1321.66 -6.4094 -2.01608 0
M  V30 14573 N 1324.38 0.532545 -1.4833 0
M  V30 14574 C 1325.31 1.64662 -1.65555 0
M  V30 14575 C 1326.29 1.62447 -0.50447 0
M  V30 14576 O 1327.47 1.79684 -0.736712 0
M  V30 14577 C 1324.6 3.03256 -1.69272 0
M  V30 14578 C 1323.56 3.20329 -2.83854 0
M  V30 14579 C 1322.88 4.59958 -2.72659 0
M  V30 14580 C 1324.18 3.03345 -4.25181 0
M  V30 14581 H 1325.88 1.50502 -2.58823 0
M  V30 14582 H 1323.42 0.722612 -1.24556 0
M  V30 14583 H 1325.38 3.81064 -1.79911 0
M  V30 14584 H 1324.1 3.18433 -0.725805 0
M  V30 14585 H 1322.76 2.44937 -2.72766 0
M  V30 14586 H 1322.41 4.71967 -1.73942 0
M  V30 14587 H 1322.11 4.72327 -3.49544 0
M  V30 14588 H 1323.63 5.39869 -2.85262 0
M  V30 14589 H 1325.05 3.70948 -4.37116 0
M  V30 14590 H 1323.44 3.27208 -5.03045 0
M  V30 14591 H 1324.51 1.998 -4.41824 0
M  V30 14592 N 1325.86 1.36875 0.78122 0
M  V30 14593 C 1326.8 1.31869 1.89418 0
M  V30 14594 C 1327.77 0.185904 1.65056 0
M  V30 14595 O 1328.96 0.373745 1.87104 0
M  V30 14596 C 1326.1 1.12205 3.2635 0
M  V30 14597 C 1325.21 2.34631 3.62729 0
M  V30 14598 C 1324.35 2.07914 4.8882 0
M  V30 14599 C 1323.38 3.26257 5.17902 0
M  V30 14600 N 1322.52 2.99152 6.35179 0
M  V30 14601 H 1327.36 2.2703 1.93032 0
M  V30 14602 H 1324.9 1.12826 0.943857 0
M  V30 14603 H 1326.86 0.988282 4.05326 0
M  V30 14604 H 1325.49 0.206959 3.22136 0
M  V30 14605 H 1324.54 2.58782 2.78812 0
M  V30 14606 H 1325.85 3.22919 3.80164 0
M  V30 14607 H 1325 1.91514 5.7568 0
M  V30 14608 H 1323.74 1.1695 4.7347 0
M  V30 14609 H 1322.75 3.43207 4.29522 0
M  V30 14610 H 1323.97 4.1806 5.35166 0
M  V30 14611 H 1321.92 2.10807 6.21205 0
M  V30 14612 H 1321.84 3.80981 6.52985 0
M  V30 14613 H 1323.1 2.86349 7.25 0
M  V30 14614 N 1327.33 -1.00632 1.21289 0
M  V30 14615 C 1328.28 -2.11502 0.96798 0
M  V30 14616 C 1329.28 -1.6919 -0.0843024 0
M  V30 14617 O 1330.48 -1.79875 0.06697 0
M  V30 14618 H 1326.86 -0.691398 0.295759 0
M  V30 14619 H 1328.83 -2.29337 1.90911 0
M  V30 14620 C 1327.58 -3.43357 0.547818 0
M  V30 14621 H 1326.9 -3.76348 1.34915 0
M  V30 14622 H 1328.34 -4.21957 0.415759 0
M  V30 14623 C 1326.8 -3.28648 -0.741086 0
M  V30 14624 O 1327.33 -3.59267 -1.79695 0
M  V30 14625 N 1325.53 -2.81866 -0.707084 0
M  V30 14626 H 1325.08 -2.57149 0.152447 0
M  V30 14627 H 1325.04 -2.72406 -1.56979 0
M  V30 14628 N 1328.81 -1.02043 -1.20104 0
M  V30 14629 C 1330.06 -0.710566 -1.89197 0
M  V30 14630 C 1330.38 0.762471 -1.79475 0
M  V30 14631 O 1329.65 1.54871 -1.19965 0
M  V30 14632 H 1328.23 -0.259839 -0.700352 0
M  V30 14633 H 1330.89 -1.29285 -1.45848 0
M  V30 14634 H 1329.99 -0.997363 -2.95735 0
M  V30 14635 N 1330.29 1.35952 -0.797165 0
M  V30 14636 C 1331.53 2.00862 -0.378652 0
M  V30 14637 C 1331.89 1.61886 1.03233 0
M  V30 14638 O 1333.1 2.19444 1.55234 0
M  V30 14639 C 1331.37 3.53207 -0.545845 0
M  V30 14640 S 1332.93 4.38266 -0.216358 0
M  V30 14641 H 1329.74 0.69621 -0.144268 0
M  V30 14642 H 1332.35 1.65708 -1.03735 0
M  V30 14643 H 1331.05 3.79062 -1.57291 0
M  V30 14644 H 1330.58 3.9319 0.128514 0
M  V30 14645 H 1332.6 4.86439 0.979344 0
M  V30 14646 N 1331.77 0.549846 1.47697 0
M  V30 14647 C 1333.18 0.209085 1.58225 0
M  V30 14648 C 1333.38 -1.28823 1.54941 0
M  V30 14649 O 1332.44 -2.0679 1.44893 0
M  V30 14650 C 1333.75 0.829219 2.89041 0
M  V30 14651 C 1335.3 0.79977 3.0261 0
M  V30 14652 C 1335.78 1.39884 4.36115 0
M  V30 14653 N 1337.27 1.36169 4.42733 0
M  V30 14654 C 1338 1.79492 5.44583 0
M  V30 14655 N 1337.5 2.30637 6.53283 0
M  V30 14656 N 1339.29 1.70608 5.35583 0
M  V30 14657 H 1331.44 1.52275 1.48074 0
M  V30 14658 H 1333.71 0.634579 0.704283 0
M  V30 14659 H 1333.41 1.88122 2.97158 0
M  V30 14660 H 1333.29 0.317916 3.75858 0
M  V30 14661 H 1335.67 -0.243525 2.94093 0
M  V30 14662 H 1335.75 1.34875 2.17353 0
M  V30 14663 H 1335.4 2.44116 4.45387 0
M  V30 14664 H 1335.33 0.825362 5.20092 0
M  V30 14665 H 1337.82 0.987505 3.64769 0
M  V30 14666 H 1338.13 2.61637 7.27163 0
M  V30 14667 H 1336.48 2.34643 6.54192 0
M  V30 14668 H 1339.67 1.30434 4.4956 0
M  V30 14669 H 1339.84 2.0469 6.14822 0
M  V30 14670 N 1333.25 -1.54984 0.285932 0
M  V30 14671 C 1334.66 -1.59455 -0.0679061 0
M  V30 14672 C 1334.86 -1.30308 -1.53695 0
M  V30 14673 O 1333.92 -1.06918 -2.28746 0
M  V30 14674 C 1335.23 -2.9903 0.316469 0
M  V30 14675 C 1336.78 -3.11885 0.263982 0
M  V30 14676 C 1337.25 -4.53744 0.622956 0
M  V30 14677 N 1338.75 -4.59618 0.574917 0
M  V30 14678 C 1339.48 -5.67429 0.825339 0
M  V30 14679 N 1338.98 -6.83341 1.14094 0
M  V30 14680 N 1340.77 -5.57028 0.75341 0
M  V30 14681 H 1332.92 -1.72194 1.2435 0
M  V30 14682 H 1335.18 -0.80348 0.503114 0
M  V30 14683 H 1334.89 -3.25232 1.33855 0
M  V30 14684 H 1334.76 -3.75688 -0.337371 0
M  V30 14685 H 1337.15 -2.85441 -0.748832 0
M  V30 14686 H 1337.23 -2.37416 0.952233 0
M  V30 14687 H 1336.88 -4.80915 1.63351 0
M  V30 14688 H 1336.81 -5.26528 -0.0872039 0
M  V30 14689 H 1339.3 -3.76356 0.341305 0
M  V30 14690 H 1339.61 -7.61471 1.3184 0
M  V30 14691 H 1337.95 -6.8493 1.17883 0
M  V30 14692 H 1341.15 -4.6535 0.506611 0
M  V30 14693 H 1341.32 -6.4097 0.95195 0
M  V30 14694 N 1334.72 -0.0133892 -1.57594 0
M  V30 14695 C 1335.97 0.667313 -1.90765 0
M  V30 14696 C 1336.29 1.73564 -0.888847 0
M  V30 14697 O 1335.56 1.95768 0.0718946 0
M  V30 14698 H 1334.14 0.24947 -0.704112 0
M  V30 14699 H 1336.81 -0.0574789 -1.94815 0
M  V30 14700 H 1335.9 1.13007 -2.90922 0
M  V30 14701 N 1336.2 1.55448 0.259558 0
M  V30 14702 C 1337.43 1.81063 1.01148 0
M  V30 14703 C 1337.85 0.58875 1.78649 0
M  V30 14704 O 1337.21 -0.461971 1.75315 0
M  V30 14705 C 1337.26 3.04279 1.93512 0
M  V30 14706 O 1336.36 2.80307 3.02493 0
M  V30 14707 H 1335.7 0.598056 0.288487 0
M  V30 14708 H 1338.23 2.02614 0.284387 0
M  V30 14709 H 1338.24 3.33373 2.35215 0
M  V30 14710 H 1336.92 3.92856 1.36518 0
M  V30 14711 H 1335.5 2.62345 2.65008 0
M  V30 14712 N 1337.68 -0.524672 1.4861 0
M  V30 14713 C 1338.91 -1.30958 1.60825 0
M  V30 14714 C 1339.33 -1.86142 0.270682 0
M  V30 14715 O 1338.69 -1.64675 -0.758415 0
M  V30 14716 C 1338.74 -2.43252 2.66197 0
M  V30 14717 O 1337.84 -3.4644 2.23725 0
M  V30 14718 H 1337.18 -0.387638 0.539104 0
M  V30 14719 H 1339.71 -0.630755 1.94635 0
M  V30 14720 H 1339.72 -2.89362 2.87635 0
M  V30 14721 H 1338.4 -2.02449 3.63301 0
M  V30 14722 H 1336.97 -3.06413 2.12522 0
M  V30 14723 N 1339.16 -1.37287 -0.77395 0
M  V30 14724 C 1340.09 -1.35569 -1.90114 0
M  V30 14725 C 1341.07 -0.224658 -1.6861 0
M  V30 14726 O 1342.25 -0.424676 -1.895 0
M  V30 14727 C 1339.38 -1.15971 -3.27365 0
M  V30 14728 C 1338.34 -2.26063 -3.63427 0
M  V30 14729 C 1337.66 -1.9159 -4.99197 0
M  V30 14730 C 1338.96 -3.68236 -3.70405 0
M  V30 14731 H 1340.66 -2.29891 -1.91808 0
M  V30 14732 H 1338.2 -1.10661 -0.92142 0
M  V30 14733 H 1340.16 -1.134 -4.05855 0
M  V30 14734 H 1338.88 -0.181043 -3.26098 0
M  V30 14735 H 1337.54 -2.27786 -2.87244 0
M  V30 14736 H 1337.19 -0.922586 -4.94467 0
M  V30 14737 H 1336.89 -2.65309 -5.24294 0
M  V30 14738 H 1338.41 -1.90602 -5.80089 0
M  V30 14739 H 1339.83 -3.68655 -4.39052 0
M  V30 14740 H 1338.22 -4.4099 -4.06999 0
M  V30 14741 H 1339.29 -4.02021 -2.71122 0
M  V30 14742 N 1340.64 0.999871 -1.21821 0
M  V30 14743 C 1341.88 1.73497 -1.0365 0
M  V30 14744 C 1342.21 1.90194 0.430271 0
M  V30 14745 O 1341.48 1.45655 1.31002 0
M  V30 14746 H 1340.06 0.642804 -0.380541 0
M  V30 14747 H 1342.72 1.20461 -1.53216 0
M  V30 14748 H 1341.81 2.73215 -1.50864 0
M  V30 14749 N 1342.11 1.02678 1.19562 0
M  V30 14750 C 1343.05 0.563882 2.22155 0
M  V30 14751 C 1344.06 -0.359132 1.58789 0
M  V30 14752 O 1345.25 -0.155857 1.77818 0
M  V30 14753 C 1342.35 -0.197894 3.38322 0
M  V30 14754 C 1341.52 0.729542 4.31273 0
M  V30 14755 C 1340.58 0.013543 5.26198 0
M  V30 14756 O 1339.61 0.639417 5.65597 0
M  V30 14757 N 1340.81 -1.25791 5.66707 0
M  V30 14758 H 1343.57 1.44623 2.62496 0
M  V30 14759 H 1341.13 0.90555 1.34207 0
M  V30 14760 H 1343.13 -0.686381 3.98837 0
M  V30 14761 H 1341.7 -0.981632 2.96787 0
M  V30 14762 H 1340.92 1.39816 3.68572 0
M  V30 14763 H 1342.2 1.35994 4.90289 0
M  V30 14764 H 1341.6 -1.78716 5.36728 0
M  V30 14765 H 1340.16 -1.69093 6.29485 0
M  V30 14766 N 1343.59 -1.35528 0.804364 0
M  V30 14767 C 1344.84 -1.98084 0.380196 0
M  V30 14768 C 1345.15 -1.64531 -1.05778 0
M  V30 14769 O 1346.36 -2.20435 -1.58495 0
M  V30 14770 C 1344.82 -3.54364 0.628848 0
M  V30 14771 C 1344.42 -3.96828 2.07921 0
M  V30 14772 C 1346.17 -4.23641 0.269927 0
M  V30 14773 C 1344.08 -5.45944 2.27374 0
M  V30 14774 H 1343.01 -0.741185 0.138422 0
M  V30 14775 H 1345.66 -1.54624 0.988107 0
M  V30 14776 H 1344.04 -3.9597 -0.0489837 0
M  V30 14777 H 1345.21 -3.6638 2.79467 0
M  V30 14778 H 1343.53 -3.40433 2.39779 0
M  V30 14779 H 1346.12 -5.33251 0.393344 0
M  V30 14780 H 1346.47 -4.08858 -0.783644 0
M  V30 14781 H 1347 -3.87448 0.901588 0
M  V30 14782 H 1343.74 -5.65693 3.31168 0
M  V30 14783 H 1343.26 -5.77969 1.6035 0
M  V30 14784 H 1344.94 -6.12376 2.08817 0
M  V30 14785 N 1345.07 -0.557671 -1.47404 0
M  V30 14786 C 1346.3 -0.0366797 -2.07368 0
M  V30 14787 C 1346.72 1.2478 -1.40754 0
M  V30 14788 O 1346.08 1.74757 -0.48268 0
M  V30 14789 C 1346.13 0.141728 -3.60321 0
M  V30 14790 O 1345.23 1.20419 -3.94427 0
M  V30 14791 H 1344.57 -0.0515319 -0.661997 0
M  V30 14792 H 1347.1 -0.773485 -1.89416 0
M  V30 14793 H 1347.11 0.355787 -4.06446 0
M  V30 14794 H 1345.79 -0.796433 -4.08203 0
M  V30 14795 H 1344.36 0.970589 -3.60047 0
M  V30 14796 N 1346.55 1.54831 -0.294147 0
M  V30 14797 C 1347.8 1.99606 0.316509 0
M  V30 14798 C 1348.12 1.18405 1.54936 0
M  V30 14799 O 1347.39 0.278289 1.93913 0
M  V30 14800 H 1345.97 0.737309 0.119938 0
M  V30 14801 H 1348.63 1.90669 -0.403891 0
M  V30 14802 H 1347.73 3.06409 0.593282 0
M  V30 14803 N 1348.03 0.0217466 1.57585 0
M  V30 14804 C 1348.99 -0.947546 2.08696 0
M  V30 14805 C 1349.99 -1.25879 1.00055 0
M  V30 14806 O 1351.18 -1.20035 1.26242 0
M  V30 14807 C 1348.31 -2.26624 2.54665 0
M  V30 14808 H 1349.51 -0.505016 2.95617 0
M  V30 14809 H 1347.06 -0.226152 1.54655 0
M  V30 14810 H 1347.79 -2.75521 1.71052 0
M  V30 14811 H 1347.58 -2.05347 3.34028 0
M  V30 14812 H 1349.07 -2.96114 2.94459 0
M  V30 14813 N 1349.51 -1.55583 -0.251311 0
M  V30 14814 C 1350.73 -1.81597 -1.00186 0
M  V30 14815 C 1351.16 -0.598216 -1.78334 0
M  V30 14816 O 1350.51 0.452667 -1.75558 0
M  V30 14817 C 1350.56 -3.05301 -1.91895 0
M  V30 14818 O 1349.67 -2.81907 -3.01002 0
M  V30 14819 H 1349.01 -0.599578 -0.285311 0
M  V30 14820 H 1351.54 -2.02762 -0.273638 0
M  V30 14821 H 1351.55 -3.34616 -2.33444 0
M  V30 14822 H 1350.22 -3.93574 -1.34433 0
M  V30 14823 H 1348.8 -2.63747 -2.63613 0
M  V30 14824 N 1350.98 0.516783 -1.48886 0
M  V30 14825 C 1351.93 1.62003 -1.64389 0
M  V30 14826 C 1352.9 1.58842 -0.485633 0
M  V30 14827 O 1354.09 1.77068 -0.710742 0
M  V30 14828 C 1351.23 3.00218 -1.70186 0
M  V30 14829 C 1350.34 3.13513 -2.97209 0
M  V30 14830 C 1349.47 4.42366 -2.94084 0
M  V30 14831 C 1348.51 4.49238 -4.15754 0
M  V30 14832 N 1347.65 5.69497 -4.10631 0
M  V30 14833 H 1352.49 1.48093 -2.58597 0
M  V30 14834 H 1350.03 0.720788 -1.2823 0
M  V30 14835 H 1351.98 3.80307 -1.71529 0
M  V30 14836 H 1350.61 3.12868 -0.794578 0
M  V30 14837 H 1349.67 2.26589 -3.05551 0
M  V30 14838 H 1350.98 3.14451 -3.87197 0
M  V30 14839 H 1350.13 5.3076 -2.93902 0
M  V30 14840 H 1348.87 4.43969 -2.01847 0
M  V30 14841 H 1347.88 3.59248 -4.16198 0
M  V30 14842 H 1349.1 4.49363 -5.09166 0
M  V30 14843 H 1347.05 5.71973 -3.21222 0
M  V30 14844 H 1346.96 5.71985 -4.94337 0
M  V30 14845 H 1348.23 6.60142 -4.14527 0
M  V30 14846 N 1352.46 1.37696 0.766659 0
M  V30 14847 C 1353.41 1.33871 1.88009 0
M  V30 14848 C 1354.38 0.2034 1.6485 0
M  V30 14849 O 1355.56 0.393569 1.86697 0
M  V30 14850 C 1352.7 1.1566 3.25141 0
M  V30 14851 C 1351.82 2.38465 3.6022 0
M  V30 14852 C 1350.95 2.13087 4.86587 0
M  V30 14853 C 1349.99 3.31732 5.14413 0
M  V30 14854 N 1349.13 3.05872 6.3197 0
M  V30 14855 H 1353.97 2.29065 1.90613 0
M  V30 14856 H 1351.5 1.13821 0.931837 0
M  V30 14857 H 1353.46 1.03122 4.04255 0
M  V30 14858 H 1352.09 0.241115 3.21898 0
M  V30 14859 H 1351.14 2.61725 2.76051 0
M  V30 14860 H 1352.46 3.26933 3.76718 0
M  V30 14861 H 1351.61 1.97609 5.73616 0
M  V30 14862 H 1350.35 1.21965 4.72203 0
M  V30 14863 H 1349.35 3.47743 4.25858 0
M  V30 14864 H 1350.58 4.23712 5.30702 0
M  V30 14865 H 1348.53 2.17384 6.18935 0
M  V30 14866 H 1348.44 3.87885 6.48908 0
M  V30 14867 H 1349.71 2.94023 7.21922 0
M  V30 14868 N 1353.94 -0.993397 1.22349 0
M  V30 14869 C 1355.19 -1.72945 1.04568 0
M  V30 14870 C 1355.51 -1.90419 -0.420178 0
M  V30 14871 O 1354.78 -1.46348 -1.30227 0
M  V30 14872 H 1353.36 -0.640777 0.383945 0
M  V30 14873 H 1356.02 -1.19647 1.53853 0
M  V30 14874 H 1355.12 -2.72411 1.52311 0
M  V30 14875 N 1355.42 -1.03311 -1.19015 0
M  V30 14876 C 1356.36 -0.617567 -2.22384 0
M  V30 14877 C 1357.33 0.370779 -1.61909 0
M  V30 14878 O 1358.52 0.266481 -1.8893 0
M  V30 14879 C 1355.66 0.0211303 -3.45094 0
M  V30 14880 C 1354.77 -1.01377 -4.19937 0
M  V30 14881 C 1353.91 -0.344385 -5.30082 0
M  V30 14882 C 1352.95 -1.3649 -5.96688 0
M  V30 14883 N 1352.08 -0.721026 -6.98388 0
M  V30 14884 H 1356.92 -1.5036 -2.57286 0
M  V30 14885 H 1354.46 -0.75235 -1.26405 0
M  V30 14886 H 1356.42 0.408713 -4.15193 0
M  V30 14887 H 1355.05 0.870721 -3.10835 0
M  V30 14888 H 1354.1 -1.51937 -3.4874 0
M  V30 14889 H 1355.41 -1.78921 -4.65606 0
M  V30 14890 H 1354.57 0.097814 -6.06621 0
M  V30 14891 H 1353.31 0.463216 -4.85495 0
M  V30 14892 H 1352.31 -1.81732 -5.18897 0
M  V30 14893 H 1353.54 -2.17407 -6.43359 0
M  V30 14894 H 1351.48 0.0664057 -6.55966 0
M  V30 14895 H 1351.4 -1.43428 -7.4227 0
M  V30 14896 H 1352.67 -0.30297 -7.78911 0
M  V30 14897 N 1356.9 1.35099 -0.81154 0
M  V30 14898 C 1358.14 1.9788 -0.390695 0
M  V30 14899 C 1358.46 1.6509 1.04903 0
M  V30 14900 O 1359.66 2.21273 1.57324 0
M  V30 14901 C 1358.12 3.54025 -0.647632 0
M  V30 14902 C 1357.73 3.9572 -2.10023 0
M  V30 14903 C 1359.47 4.23492 -0.29239 0
M  V30 14904 C 1357.38 5.44731 -2.30266 0
M  V30 14905 H 1356.31 0.740441 -0.14235 0
M  V30 14906 H 1358.96 1.54098 -0.996294 0
M  V30 14907 H 1357.34 3.9599 0.0279838 0
M  V30 14908 H 1358.52 3.64893 -2.81407 0
M  V30 14909 H 1356.83 3.39157 -2.41581 0
M  V30 14910 H 1359.43 5.33035 -0.421618 0
M  V30 14911 H 1359.77 4.09268 0.76195 0
M  V30 14912 H 1360.3 3.86965 -0.922122 0
M  V30 14913 H 1357.04 5.63928 -3.34163 0
M  V30 14914 H 1356.56 5.7711 -1.63413 0
M  V30 14915 H 1358.24 6.1126 -2.12062 0
M  V30 14916 N 1358.37 0.56548 1.47106 0
M  V30 14917 C 1359.62 0.052857 2.03331 0
M  V30 14918 C 1359.97 -1.28594 1.43113 0
M  V30 14919 O 1359.27 -1.82596 0.580451 0
M  V30 14920 C 1359.46 -0.0893776 3.57288 0
M  V30 14921 C 1359.29 1.23408 4.32436 0
M  V30 14922 C 1358.06 1.80362 4.72015 0
M  V30 14923 C 1360.26 2.15326 4.67054 0
M  V30 14924 N 1358.24 3.06626 5.3184 0
M  V30 14925 C 1359.61 3.26172 5.27268 0
M  V30 14926 C 1361.67 2.15219 4.48983 0
M  V30 14927 C 1360.37 4.37021 5.71319 0
M  V30 14928 C 1362.4 3.25085 4.94038 0
M  V30 14929 C 1361.76 4.34651 5.54309 0
M  V30 14930 H 1357.86 0.0617057 0.779562 0
M  V30 14931 H 1360.44 0.754591 1.79483 0
M  V30 14932 H 1358.61 -0.760248 3.80887 0
M  V30 14933 H 1360.34 -0.604818 4.00155 0
M  V30 14934 H 1357.1 1.3406 4.5423 0
M  V30 14935 H 1357.52 3.71006 5.66289 0
M  V30 14936 H 1362.16 1.3179 4.01735 0
M  V30 14937 H 1359.88 5.21204 6.17553 0
M  V30 14938 H 1363.47 3.26099 4.8182 0
M  V30 14939 H 1362.35 5.18261 5.88536 0
M  V30 14940 N 1359.85 -1.54672 0.302354 0
M  V30 14941 C 1360.78 -2.21021 -0.606828 0
M  V30 14942 C 1361.8 -1.20337 -1.09648 0
M  V30 14943 O 1362.99 -1.46923 -1.0137 0
M  V30 14944 C 1360.09 -2.84411 -1.84293 0
M  V30 14945 C 1359.26 -4.11038 -1.49554 0
M  V30 14946 C 1358.32 -4.58219 -2.58693 0
M  V30 14947 O 1357.34 -5.23387 -2.23728 0
M  V30 14948 N 1358.55 -4.30651 -3.89256 0
M  V30 14949 H 1361.31 -2.99675 -0.0388221 0
M  V30 14950 H 1358.87 -1.6142 0.124614 0
M  V30 14951 H 1360.86 -3.12906 -2.56655 0
M  V30 14952 H 1359.43 -2.09589 -2.31929 0
M  V30 14953 H 1358.65 -3.89538 -0.604492 0
M  V30 14954 H 1359.94 -4.93488 -1.23884 0
M  V30 14955 H 1359.34 -3.78445 -4.20471 0
M  V30 14956 H 1357.9 -4.63853 -4.57913 0
M  V30 14957 N 1361.33 -0.0301034 -1.57571 0
M  V30 14958 C 1362.28 0.969425 -2.11435 0
M  V30 14959 C 1363.27 1.33627 -1.04116 0
M  V30 14960 O 1364.48 1.31839 -1.2255 0
M  V30 14961 H 1360.85 0.330407 -0.675526 0
M  V30 14962 H 1362.82 0.489828 -2.94352 0
M  V30 14963 C 1361.57 2.24233 -2.65734 0
M  V30 14964 H 1360.9 1.9688 -3.47963 0
M  V30 14965 H 1362.34 2.92378 -3.07068 0
M  V30 14966 C 1360.8 2.97274 -1.58524 0
M  V30 14967 O 1361.33 3.8942 -0.985641 0
M  V30 14968 N 1359.53 2.59627 -1.30545 0
M  V30 14969 H 1359.08 1.84773 -1.79491 0
M  V30 14970 H 1359.04 3.08807 -0.590372 0
M  V30 14971 N 1362.81 1.55714 0.243056 0
M  V30 14972 C 1364.06 1.76927 0.96849 0
M  V30 14973 C 1364.37 0.594748 1.86339 0
M  V30 14974 O 1365.58 0.689981 2.62586 0
M  V30 14975 C 1364.03 3.13246 1.77214 0
M  V30 14976 C 1363.64 4.38358 0.92444 0
M  V30 14977 C 1365.38 3.43796 2.49007 0
M  V30 14978 C 1363.29 5.65708 1.7242 0
M  V30 14979 H 1362.22 0.659574 0.365346 0
M  V30 14980 H 1364.87 1.8214 0.223026 0
M  V30 14981 H 1363.25 3.02151 2.5597 0
M  V30 14982 H 1364.43 4.60452 0.178936 0
M  V30 14983 H 1362.74 4.15171 0.319653 0
M  V30 14984 H 1365.34 4.3616 3.09303 0
M  V30 14985 H 1365.68 2.65297 3.20817 0
M  V30 14986 H 1366.22 3.56124 1.77259 0
M  V30 14987 H 1362.96 6.47039 1.04978 0
M  V30 14988 H 1362.48 5.4771 2.44488 0
M  V30 14989 H 1364.15 6.05105 2.29036 0
M  V30 14990 N 1364.29 -0.50888 1.49158 0
M  V30 14991 C 1365.7 -0.839353 1.35746 0
M  V30 14992 C 1365.9 -1.97797 0.38453 0
M  V30 14993 O 1364.96 -2.51809 -0.186651 0
M  V30 14994 C 1366.27 -1.18698 2.76281 0
M  V30 14995 C 1367.82 -1.29565 2.84924 0
M  V30 14996 C 1368.29 -1.67661 4.26209 0
M  V30 14997 N 1369.79 -1.74725 4.28982 0
M  V30 14998 C 1370.52 -2.05631 5.3526 0
M  V30 14999 N 1370.02 -2.34814 6.51793 0
M  V30 15000 N 1371.81 -2.06815 5.2267 0
M  V30 15001 H 1363.96 0.242065 2.11016 0
M  V30 15002 H 1366.22 0.0456901 0.946898 0
M  V30 15003 H 1365.93 -0.423769 3.49138 0
M  V30 15004 H 1365.8 -2.13227 3.11149 0
M  V30 15005 H 1368.19 -2.0496 2.1231 0
M  V30 15006 H 1368.27 -0.331059 2.53649 0
M  V30 15007 H 1367.92 -0.928198 4.99346 0
M  V30 15008 H 1367.85 -2.65207 4.54943 0
M  V30 15009 H 1370.34 -1.54364 3.44935 0
M  V30 15010 H 1370.65 -2.57562 7.28616 0
M  V30 15011 H 1368.99 -2.32288 6.55032 0
M  V30 15012 H 1372.19 -1.83487 4.30639 0
M  V30 15013 H 1372.36 -2.30568 6.05593 0
M  V30 15014 N 1365.76 -1.381 -0.759346 0
M  V30 15015 C 1366.71 -1.34866 -1.87296 0
M  V30 15016 C 1367.68 -0.212139 -1.6474 0
M  V30 15017 O 1368.87 -0.403464 -1.86485 0
M  V30 15018 C 1366.01 -1.17383 -3.24523 0
M  V30 15019 C 1365.12 -2.40372 -3.5895 0
M  V30 15020 C 1364.25 -2.15665 -4.8545 0
M  V30 15021 C 1363.29 -3.34455 -5.12646 0
M  V30 15022 N 1362.43 -3.0922 -6.30339 0
M  V30 15023 H 1367.27 -2.30072 -1.89396 0
M  V30 15024 H 1364.81 -1.14314 -0.925788 0
M  V30 15025 H 1366.77 -1.05264 -4.03702 0
M  V30 15026 H 1365.4 -0.258182 -3.21766 0
M  V30 15027 H 1364.45 -2.63185 -2.74659 0
M  V30 15028 H 1365.76 -3.28926 -3.74978 0
M  V30 15029 H 1364.91 -2.00649 -5.7256 0
M  V30 15030 H 1363.65 -1.24467 -4.7155 0
M  V30 15031 H 1362.66 -3.49997 -4.24007 0
M  V30 15032 H 1363.88 -4.26521 -5.28448 0
M  V30 15033 H 1361.83 -2.20664 -6.17773 0
M  V30 15034 H 1361.75 -3.91321 -6.46841 0
M  V30 15035 H 1363.01 -2.97847 -7.20352 0
M  V30 15036 N 1367.24 0.986894 -1.22875 0
M  V30 15037 C 1368.47 1.76266 -1.08342 0
M  V30 15038 C 1368.89 1.85226 0.365602 0
M  V30 15039 O 1368.24 1.32675 1.25314 0
M  V30 15040 C 1368.29 3.19282 -1.69533 0
M  V30 15041 O 1368.01 3.10796 -3.08768 0
M  V30 15042 C 1369.52 4.13281 -1.60355 0
M  V30 15043 H 1366.74 0.553374 -0.379497 0
M  V30 15044 H 1369.28 1.24033 -1.62592 0
M  V30 15045 H 1367.43 3.68563 -1.19332 0
M  V30 15046 H 1367.85 4.0078 -3.38343 0
M  V30 15047 H 1369.32 5.11359 -2.07884 0
M  V30 15048 H 1369.8 4.356 -0.561182 0
M  V30 15049 H 1370.41 3.699 -2.09891 0
M  V30 15050 N 1368.72 1.0394 1.18466 0
M  V30 15051 C 1369.96 0.750905 1.90107 0
M  V30 15052 C 1370.32 -0.708278 1.78458 0
M  V30 15053 O 1371.53 -1.11033 2.44796 0
M  V30 15054 C 1369.8 1.20259 3.3656 0
M  V30 15055 S 1371.36 1.03954 4.26308 0
M  V30 15056 H 1368.17 0.273061 0.656475 0
M  V30 15057 H 1370.78 1.33143 1.43154 0
M  V30 15058 H 1369.48 2.26 3.42567 0
M  V30 15059 H 1369.01 0.615804 3.8855 0
M  V30 15060 H 1371.03 -0.0437629 4.96181 0
M  V30 15061 N 1370.2 -1.34667 0.818693 0
M  V30 15062 C 1371.44 -2.00234 0.41056 0
M  V30 15063 C 1371.8 -1.63507 -1.00644 0
M  V30 15064 O 1373 -2.21886 -1.51723 0
M  V30 15065 C 1371.27 -3.52294 0.601968 0
M  V30 15066 S 1372.83 -4.37867 0.286055 0
M  V30 15067 H 1369.65 -0.693826 0.155325 0
M  V30 15068 H 1372.25 -1.64037 1.06359 0
M  V30 15069 H 1370.96 -3.76511 1.63302 0
M  V30 15070 H 1370.49 -3.93345 -0.0659441 0
M  V30 15071 H 1372.5 -4.87936 -0.901832 0
M  V30 15072 N 1371.68 -0.573274 -1.46804 0
M  V30 15073 C 1372.62 0.165358 -2.30207 0
M  V30 15074 C 1373.59 0.89312 -1.40045 0
M  V30 15075 O 1374.78 0.885653 -1.68999 0
M  V30 15076 C 1371.92 1.17915 -3.2433 0
M  V30 15077 C 1371.03 0.455805 -4.29589 0
M  V30 15078 C 1370.17 1.45629 -5.10848 0
M  V30 15079 C 1369.21 0.718822 -6.07865 0
M  V30 15080 N 1368.34 1.66691 -6.82025 0
M  V30 15081 H 1373.18 -0.551947 -2.92844 0
M  V30 15082 H 1370.72 -0.28401 -1.44332 0
M  V30 15083 H 1372.68 1.77969 -3.77337 0
M  V30 15084 H 1371.31 1.86429 -2.63523 0
M  V30 15085 H 1370.36 -0.259584 -3.79513 0
M  V30 15086 H 1371.67 -0.121161 -4.98653 0
M  V30 15087 H 1370.83 2.1299 -5.68084 0
M  V30 15088 H 1369.56 2.06718 -4.41723 0
M  V30 15089 H 1368.57 0.0313773 -5.49791 0
M  V30 15090 H 1369.79 0.113452 -6.79005 0
M  V30 15091 H 1367.74 2.26608 -6.15617 0
M  V30 15092 H 1367.66 1.14251 -7.47317 0
M  V30 15093 H 1368.93 2.33117 -7.43826 0
M  V30 15094 N 1373.15 1.5451 -0.310553 0
M  V30 15095 C 1374.4 1.99505 0.296731 0
M  V30 15096 C 1374.72 1.20257 1.54265 0
M  V30 15097 O 1375.92 1.55566 2.22512 0
M  V30 15098 C 1374.38 3.55208 0.579251 0
M  V30 15099 C 1373.99 4.43276 -0.648874 0
M  V30 15100 C 1375.73 4.08705 1.1472 0
M  V30 15101 C 1373.64 5.90428 -0.338978 0
M  V30 15102 H 1372.57 0.745232 0.114652 0
M  V30 15103 H 1375.22 1.78611 -0.420749 0
M  V30 15104 H 1373.6 3.72039 1.35658 0
M  V30 15105 H 1374.77 4.3822 -1.42478 0
M  V30 15106 H 1373.09 4.00601 -1.13613 0
M  V30 15107 H 1375.69 5.16223 1.39346 0
M  V30 15108 H 1376.03 3.59889 2.09249 0
M  V30 15109 H 1376.56 3.95454 0.431363 0
M  V30 15110 H 1373.3 6.43411 -1.25309 0
M  V30 15111 H 1372.82 5.98468 0.399475 0
M  V30 15112 H 1374.5 6.46976 0.0559696 0
M  V30 15113 N 1374.63 0.0384594 1.57553 0
M  V30 15114 C 1375.88 -0.639085 1.92467 0
M  V30 15115 C 1376.21 -1.71239 0.916014 0
M  V30 15116 O 1375.49 -1.94408 -0.0598928 0
M  V30 15117 C 1375.77 -1.24693 3.37822 0
M  V30 15118 C 1375.62 -0.182544 4.49429 0
M  V30 15119 C 1376.94 -2.16226 3.8332 0
M  V30 15120 H 1374.06 -0.230852 0.699912 0
M  V30 15121 H 1376.7 0.0976276 1.89749 0
M  V30 15122 H 1374.85 -1.87481 3.40269 0
M  V30 15123 H 1376.53 0.448622 4.59113 0
M  V30 15124 H 1374.77 0.4909 4.31013 0
M  V30 15125 H 1375.44 -0.647626 5.48188 0
M  V30 15126 H 1377.92 -1.63413 3.82669 0
M  V30 15127 H 1376.79 -2.55705 4.85702 0
M  V30 15128 H 1377.05 -3.05722 3.19353 0
M  V30 15129 N 1376.11 -1.55841 -0.234795 0
M  V30 15130 C 1377.02 -1.94476 -1.31211 0
M  V30 15131 C 1378.04 -0.846782 -1.52005 0
M  V30 15132 O 1379.21 -1.14922 -1.65393 0
M  V30 15133 C 1376.28 -2.24213 -2.64442 0
M  V30 15134 C 1375.34 -3.47508 -2.52065 0
M  V30 15135 C 1374.57 -3.75817 -3.78942 0
M  V30 15136 O 1374.8 -3.06007 -4.81369 0
M  V30 15137 O 1373.73 -4.69328 -3.76848 0
M  V30 15138 H 1377.56 -2.8626 -1.01434 0
M  V30 15139 H 1375.14 -1.42879 -0.436563 0
M  V30 15140 H 1377.02 -2.44594 -3.4315 0
M  V30 15141 H 1375.7 -1.35605 -2.93927 0
M  V30 15142 H 1374.6 -3.32421 -1.71602 0
M  V30 15143 H 1375.94 -4.36457 -2.27523 0
M  V30 15144 N 1377.59 0.500963 -1.49426 0
M  V30 15145 C 1378.54 1.62335 -1.66584 0
M  V30 15146 C 1379.53 1.60837 -0.531773 0
M  V30 15147 O 1380.74 1.65345 -0.711408 0
M  V30 15148 H 1377.11 0.538131 -0.52528 0
M  V30 15149 H 1379.08 1.45016 -2.60793 0
M  V30 15150 C 1377.83 3.00469 -1.74968 0
M  V30 15151 H 1377.16 3.02328 -2.61607 0
M  V30 15152 H 1378.6 3.78539 -1.91008 0
M  V30 15153 C 1377.05 3.33251 -0.49451 0
M  V30 15154 O 1377.58 3.99901 0.379783 0
M  V30 15155 N 1375.79 2.88393 -0.357445 0
M  V30 15156 H 1375.34 2.3433 -1.06991 0
M  V30 15157 H 1375.3 3.10694 0.481287 0
M  V30 15158 N 1379.07 1.38501 0.752011 0
M  V30 15159 C 1380.02 1.35975 1.88716 0
M  V30 15160 C 1381.01 0.245392 1.67613 0
M  V30 15161 O 1382.22 0.414514 1.75162 0
M  V30 15162 H 1378.59 0.424221 0.620919 0
M  V30 15163 H 1380.56 2.3176 1.87962 0
M  V30 15164 C 1379.31 1.20326 3.26216 0
M  V30 15165 H 1378.63 2.05336 3.43041 0
M  V30 15166 H 1380.07 1.22613 4.05884 0
M  V30 15167 C 1378.53 -0.0897029 3.36781 0
M  V30 15168 O 1379.06 -1.06615 3.87293 0
M  V30 15169 N 1377.27 -0.147065 2.90228 0
M  V30 15170 H 1376.82 0.648216 2.49311 0
M  V30 15171 H 1376.77 -1.01174 2.97676 0
M  V30 15172 N 1380.55 -0.980364 1.23396 0
M  V30 15173 C 1381.79 -1.72501 1.07772 0
M  V30 15174 C 1382.15 -1.88581 -0.381434 0
M  V30 15175 O 1381.44 -1.42702 -1.27854 0
M  V30 15176 C 1381.63 -3.12367 1.73671 0
M  V30 15177 C 1381.46 -3.09928 3.25844 0
M  V30 15178 C 1380.23 -3.15117 3.95006 0
M  V30 15179 C 1382.43 -2.93093 4.22612 0
M  V30 15180 N 1380.41 -3.02564 5.34161 0
M  V30 15181 C 1381.78 -2.88703 5.48681 0
M  V30 15182 C 1383.84 -2.77578 4.13346 0
M  V30 15183 C 1382.54 -2.70386 6.66546 0
M  V30 15184 C 1384.57 -2.60625 5.30875 0
M  V30 15185 C 1383.93 -2.56933 6.55869 0
M  V30 15186 H 1380.03 -0.640325 0.448897 0
M  V30 15187 H 1382.61 -1.16332 1.56125 0
M  V30 15188 H 1380.78 -3.66754 1.27851 0
M  V30 15189 H 1382.52 -3.75465 1.51023 0
M  V30 15190 H 1379.27 -3.23298 3.46086 0
M  V30 15191 H 1379.69 -2.99563 6.07117 0
M  V30 15192 H 1384.34 -2.79223 3.17481 0
M  V30 15193 H 1382.05 -2.67486 7.62546 0
M  V30 15194 H 1385.64 -2.49584 5.25547 0
M  V30 15195 H 1384.52 -2.43979 7.45281 0
M  V30 15196 N 1382.02 -1.04567 -1.17913 0
M  V30 15197 C 1383.27 -0.752023 -1.88018 0
M  V30 15198 C 1383.6 0.720567 -1.8066 0
M  V30 15199 O 1382.85 1.54207 -1.20493 0
M  V30 15200 C 1383.15 -1.1699 -3.3771 0
M  V30 15201 C 1382.82 -2.64363 -3.65271 0
M  V30 15202 C 1381.48 -3.04622 -3.72503 0
M  V30 15203 C 1383.83 -3.59626 -3.77251 0
M  V30 15204 C 1381.16 -4.39023 -3.89199 0
M  V30 15205 C 1383.51 -4.93752 -3.95465 0
M  V30 15206 C 1382.18 -5.33675 -4.00933 0
M  V30 15207 H 1381.45 -0.275185 -0.688008 0
M  V30 15208 H 1384.09 -1.31161 -1.39532 0
M  V30 15209 H 1382.4 -0.529202 -3.8821 0
M  V30 15210 H 1384.1 -0.919981 -3.90304 0
M  V30 15211 H 1380.69 -2.32182 -3.60263 0
M  V30 15212 H 1384.87 -3.29665 -3.70992 0
M  V30 15213 H 1380.13 -4.69466 -3.91679 0
M  V30 15214 H 1384.3 -5.67467 -4.03676 0
M  V30 15215 H 1381.93 -6.37825 -4.13623 0
M  V30 15216 N 1383.5 1.34231 -0.825823 0
M  V30 15217 C 1384.45 2.29467 -0.247724 0
M  V30 15218 C 1385.42 1.53724 0.629127 0
M  V30 15219 O 1386.6 1.82082 0.570156 0
M  V30 15220 C 1383.74 3.40157 0.582012 0
M  V30 15221 C 1382.86 4.30832 -0.317406 0
M  V30 15222 C 1381.99 5.28627 0.522176 0
M  V30 15223 C 1381.03 6.10941 -0.376448 0
M  V30 15224 N 1380.17 7.00817 0.424232 0
M  V30 15225 H 1385.01 2.78311 -1.06521 0
M  V30 15226 H 1382.54 1.36956 -0.536788 0
M  V30 15227 H 1384.5 4.03021 1.07843 0
M  V30 15228 H 1383.13 2.92539 1.36459 0
M  V30 15229 H 1382.18 3.68805 -0.932054 0
M  V30 15230 H 1383.5 4.88503 -1.00826 0
M  V30 15231 H 1382.65 5.96957 1.08295 0
M  V30 15232 H 1381.39 4.71501 1.24652 0
M  V30 15233 H 1380.39 5.41542 -0.94934 0
M  V30 15234 H 1381.62 6.70149 -1.09895 0
M  V30 15235 H 1379.57 6.46156 1.1322 0
M  V30 15236 H 1379.48 7.55713 -0.208175 0
M  V30 15237 H 1380.75 7.7347 0.967664 0
M  V30 15238 N 1384.98 0.581051 1.46498 0
M  V30 15239 C 1386.22 0.0686577 2.04285 0
M  V30 15240 C 1386.58 -1.2666 1.44296 0
M  V30 15241 O 1387.78 -1.86813 1.93273 0
M  V30 15242 C 1386.06 0.0021308 3.574 0
M  V30 15243 S 1387.61 -0.452928 4.36456 0
M  V30 15244 H 1384.43 0.0366686 0.710054 0
M  V30 15245 H 1387.03 0.773174 1.79561 0
M  V30 15246 H 1385.74 0.977908 3.98579 0
M  V30 15247 H 1385.27 -0.725207 3.86658 0
M  V30 15248 H 1387.28 -1.708 4.65877 0
M  V30 15249 N 1386.46 -1.54343 0.318742 0
M  V30 15250 C 1387.7 -2.0048 -0.285276 0
M  V30 15251 C 1388.03 -1.20698 -1.5252 0
M  V30 15252 O 1387.29 -0.275893 -1.93746 0
M  V30 15253 C 1387.59 -3.51079 -0.669181 0
M  V30 15254 C 1387.25 -4.48433 0.471017 0
M  V30 15255 C 1385.91 -4.74771 0.783985 0
M  V30 15256 C 1388.27 -5.06304 1.23715 0
M  V30 15257 C 1385.59 -5.56239 1.86589 0
M  V30 15258 C 1387.95 -5.88951 2.30911 0
M  V30 15259 C 1386.61 -6.13592 2.62794 0
M  V30 15260 H 1385.88 -0.73361 -0.10439 0
M  V30 15261 H 1388.53 -1.86341 0.441521 0
M  V30 15262 H 1386.83 -3.62921 -1.47633 0
M  V30 15263 H 1388.53 -3.84216 -1.148 0
M  V30 15264 H 1385.12 -4.2805 0.217004 0
M  V30 15265 H 1389.3 -4.85943 1.00862 0
M  V30 15266 H 1384.56 -5.73563 2.11744 0
M  V30 15267 H 1388.73 -6.32814 2.90722 0
M  V30 15268 H 1386.36 -6.76508 3.46757 0
M  V30 15269 N 1387.94 -0.0468143 -1.5753 0
M  V30 15270 C 1389.18 0.627375 -1.91695 0
M  V30 15271 C 1389.5 1.72261 -0.926588 0
M  V30 15272 O 1390.7 2.45466 -1.16012 0
M  V30 15273 C 1389.16 1.16722 -3.40447 0
M  V30 15274 C 1388.77 0.104335 -4.47878 0
M  V30 15275 C 1390.51 1.81691 -3.83652 0
M  V30 15276 C 1388.42 0.656818 -5.87741 0
M  V30 15277 H 1387.35 0.238107 -0.715417 0
M  V30 15278 H 1390 -0.114995 -1.83139 0
M  V30 15279 H 1388.38 1.96177 -3.43992 0
M  V30 15280 H 1389.56 -0.669053 -4.55917 0
M  V30 15281 H 1387.87 -0.447633 -4.13987 0
M  V30 15282 H 1390.47 2.24014 -4.85512 0
M  V30 15283 H 1390.81 2.66686 -3.19663 0
M  V30 15284 H 1391.34 1.08898 -3.82604 0
M  V30 15285 H 1388.08 -0.155397 -6.55316 0
M  V30 15286 H 1387.6 1.39829 -5.83273 0
M  V30 15287 H 1389.28 1.14107 -6.36858 0
M  V30 15288 N 1389.41 1.55964 0.226527 0
M  V30 15289 C 1390.66 1.78392 0.94977 0
M  V30 15290 C 1390.98 0.614444 1.85066 0
M  V30 15291 O 1390.25 -0.368894 1.92395 0
M  V30 15292 H 1388.83 0.657962 0.353688 0
M  V30 15293 H 1391.5 1.93422 0.239577 0
M  V30 15294 H 1390.59 2.70343 1.55952 0
M  V30 15295 N 1390.89 -0.493031 1.4969 0
M  V30 15296 C 1391.82 -1.60215 1.69863 0
M  V30 15297 C 1392.8 -1.61053 0.547362 0
M  V30 15298 O 1393.99 -1.77667 0.784093 0
M  V30 15299 C 1391.12 -2.98662 1.77252 0
M  V30 15300 C 1390.07 -3.1269 2.92248 0
M  V30 15301 C 1389.4 -4.52567 2.84758 0
M  V30 15302 C 1390.7 -2.91965 4.33074 0
M  V30 15303 H 1392.39 -1.43587 2.62723 0
M  V30 15304 H 1389.94 -0.689334 1.26429 0
M  V30 15305 H 1391.89 -3.7616 1.89951 0
M  V30 15306 H 1390.62 -3.16397 0.809976 0
M  V30 15307 H 1389.27 -2.37619 2.79164 0
M  V30 15308 H 1388.92 -4.6719 1.86394 0
M  V30 15309 H 1388.62 -4.62893 3.61944 0
M  V30 15310 H 1390.15 -5.32116 2.99475 0
M  V30 15311 H 1391.56 -3.59228 4.46798 0
M  V30 15312 H 1389.96 -3.13756 5.11544 0
M  V30 15313 H 1391.03 -1.88015 4.46966 0
M  V30 15314 N 1392.37 -1.38898 -0.744656 0
M  V30 15315 C 1393.62 -1.35795 -1.50623 0
M  V30 15316 C 1393.95 0.0491775 -1.94138 0
M  V30 15317 O 1393.22 1.01219 -1.66087 0
M  V30 15318 C 1393.51 -2.32168 -2.75263 0
M  V30 15319 C 1393.36 -3.81781 -2.3783 0
M  V30 15320 C 1394.68 -2.26526 -3.77325 0
M  V30 15321 H 1391.8 -0.494591 -0.546396 0
M  V30 15322 H 1394.44 -1.69816 -0.852211 0
M  V30 15323 H 1392.59 -2.03287 -3.31069 0
M  V30 15324 H 1394.26 -4.21373 -1.8773 0
M  V30 15325 H 1392.51 -3.99027 -1.70176 0
M  V30 15326 H 1393.18 -4.44687 -3.27044 0
M  V30 15327 H 1395.65 -2.52041 -3.31081 0
M  V30 15328 H 1394.53 -2.96053 -4.62216 0
M  V30 15329 H 1394.79 -1.26705 -4.23554 0
M  V30 15330 N 1393.85 0.973806 -1.23914 0
M  V30 15331 C 1395.08 1.75107 -1.10206 0
M  V30 15332 C 1395.49 1.85604 0.345935 0
M  V30 15333 O 1394.85 1.33996 1.239 0
M  V30 15334 C 1394.9 3.17466 -1.72909 0
M  V30 15335 O 1394.62 3.07504 -3.12047 0
M  V30 15336 C 1396.12 4.11557 -1.6473 0
M  V30 15337 H 1393.34 0.549318 -0.385345 0
M  V30 15338 H 1395.89 1.22301 -1.63898 0
M  V30 15339 H 1394.04 3.67277 -1.23234 0
M  V30 15340 H 1394.45 3.97169 -3.42575 0
M  V30 15341 H 1395.93 5.09126 -2.13295 0
M  V30 15342 H 1396.41 4.3498 -0.607352 0
M  V30 15343 H 1397.01 3.67653 -2.13802 0
M  V30 15344 N 1395.33 1.05191 1.17357 0
M  V30 15345 C 1396.26 0.673931 2.23563 0
M  V30 15346 C 1397.24 -0.328284 1.66902 0
M  V30 15347 O 1398.42 -0.205878 1.93106 0
M  V30 15348 C 1395.55 0.0478801 3.47267 0
M  V30 15349 C 1394.51 0.974855 4.1675 0
M  V30 15350 C 1393.83 0.212684 5.34277 0
M  V30 15351 C 1395.13 2.299 4.68981 0
M  V30 15352 H 1396.83 1.56183 2.55436 0
M  V30 15353 H 1394.37 0.752408 1.2278 0
M  V30 15354 H 1396.33 -0.228343 4.20781 0
M  V30 15355 H 1395.05 -0.874963 3.14662 0
M  V30 15356 H 1393.71 1.23564 3.45148 0
M  V30 15357 H 1393.36 -0.712924 4.97922 0
M  V30 15358 H 1393.06 0.830351 5.81703 0
M  V30 15359 H 1394.58 -0.056255 6.10574 0
M  V30 15360 H 1395.99 2.08269 5.34132 0
M  V30 15361 H 1394.39 2.87064 5.26986 0
M  V30 15362 H 1395.46 2.93759 3.8579 0
M  V30 15363 N 1396.8 -1.33791 0.83293 0
M  V30 15364 C 1397.73 -2.31853 0.276846 0
M  V30 15365 C 1398.72 -1.58702 -0.612184 0
M  V30 15366 O 1399.9 -1.86629 -0.536975 0
M  V30 15367 C 1397.03 -3.42855 -0.55385 0
M  V30 15368 C 1395.98 -4.27333 0.238884 0
M  V30 15369 C 1395.31 -5.29895 -0.715187 0
M  V30 15370 C 1396.61 -5.01692 1.45265 0
M  V30 15371 H 1398.3 -2.78611 1.09618 0
M  V30 15372 H 1395.85 -1.33949 0.528562 0
M  V30 15373 H 1397.8 -4.10479 -0.953133 0
M  V30 15374 H 1396.53 -2.94771 -1.40634 0
M  V30 15375 H 1395.19 -3.61325 0.619656 0
M  V30 15376 H 1394.83 -4.7807 -1.56391 0
M  V30 15377 H 1394.53 -5.87296 -0.188921 0
M  V30 15378 H 1396.06 -6.00387 -1.11211 0
M  V30 15379 H 1397.47 -5.62117 1.12685 0
M  V30 15380 H 1395.87 -5.68715 1.91528 0
M  V30 15381 H 1396.94 -4.30809 2.22558 0
M  V30 15382 N 1398.28 -0.588812 -1.46187 0
M  V30 15383 C 1399.51 -0.0806571 -2.07243 0
M  V30 15384 C 1399.93 1.21766 -1.43369 0
M  V30 15385 O 1399.29 1.73694 -0.51964 0
M  V30 15386 C 1399.34 0.065267 -3.60541 0
M  V30 15387 O 1398.44 1.12026 -3.96893 0
M  V30 15388 H 1397.78 -0.0655622 -0.660755 0
M  V30 15389 H 1400.31 -0.813489 -1.87733 0
M  V30 15390 H 1400.32 0.269494 -4.07109 0
M  V30 15391 H 1399 -0.88284 -4.06422 0
M  V30 15392 H 1397.58 0.894 -3.62025 0
M  V30 15393 N 1399.76 1.54172 -0.326923 0
M  V30 15394 C 1400.99 2.05044 0.276508 0
M  V30 15395 C 1401.4 1.20288 1.45521 0
M  V30 15396 O 1400.76 0.234324 1.80989 0
M  V30 15397 C 1400.81 3.54505 0.707714 0
M  V30 15398 O 1400.53 4.36042 -0.424098 0
M  V30 15399 C 1402.03 4.21482 1.3736 0
M  V30 15400 H 1399.25 0.668632 0.0563273 0
M  V30 15401 H 1401.8 1.98929 -0.474087 0
M  V30 15402 H 1399.95 3.60896 1.40828 0
M  V30 15403 H 1400.37 5.24433 -0.0836846 0
M  V30 15404 H 1401.84 5.27501 1.62623 0
M  V30 15405 H 1402.32 3.72802 2.32196 0
M  V30 15406 H 1402.92 4.19238 0.715526 0
M  V30 15407 N 1401.24 0.0551678 1.57503 0
M  V30 15408 C 1402.49 -0.6165 1.92467 0
M  V30 15409 C 1402.81 -1.71147 0.934552 0
M  V30 15410 O 1402.08 -1.9589 -0.0199649 0
M  V30 15411 H 1400.66 -0.230714 0.710479 0
M  V30 15412 H 1403.32 0.109111 1.94594 0
M  V30 15413 H 1402.42 -1.05254 2.93816 0
M  V30 15414 N 1402.72 -1.56081 -0.218252 0
M  V30 15415 C 1403.94 -1.83334 -0.958964 0
M  V30 15416 C 1404.36 -0.63472 -1.77811 0
M  V30 15417 O 1403.72 0.396729 -1.78136 0
M  V30 15418 C 1403.77 -3.09141 -1.87387 0
M  V30 15419 O 1403.49 -4.24379 -1.08783 0
M  V30 15420 C 1404.99 -3.49405 -2.7282 0
M  V30 15421 H 1402.21 -0.609375 -0.280898 0
M  V30 15422 H 1404.75 -2.03174 -0.232486 0
M  V30 15423 H 1402.91 -2.91267 -2.55426 0
M  V30 15424 H 1403.32 -4.9587 -1.70919 0
M  V30 15425 H 1404.8 -4.40461 -3.32713 0
M  V30 15426 H 1405.27 -2.71311 -3.45379 0
M  V30 15427 H 1405.88 -3.6973 -2.1019 0
M  V30 15428 N 1404.2 0.485086 -1.49949 0
M  V30 15429 C 1405.13 1.59312 -1.7071 0
M  V30 15430 C 1406.11 1.6076 -0.555896 0
M  V30 15431 O 1407.29 1.77249 -0.793504 0
M  V30 15432 C 1404.42 2.97718 -1.78834 0
M  V30 15433 C 1403.38 3.11136 -2.93902 0
M  V30 15434 C 1402.7 4.51051 -2.87154 0
M  V30 15435 C 1404 2.89665 -4.34617 0
M  V30 15436 H 1405.7 1.42192 -2.6348 0
M  V30 15437 H 1403.24 0.68262 -1.26792 0
M  V30 15438 H 1405.19 3.75148 -1.91943 0
M  V30 15439 H 1403.92 3.15963 -0.826744 0
M  V30 15440 H 1402.58 2.36135 -2.80421 0
M  V30 15441 H 1402.23 4.66195 -1.88869 0
M  V30 15442 H 1401.93 4.60967 -3.64394 0
M  V30 15443 H 1403.45 5.3052 -3.02293 0
M  V30 15444 H 1404.86 3.56853 -4.48697 0
M  V30 15445 H 1403.26 3.11039 -5.13201 0
M  V30 15446 H 1404.33 1.85642 -4.47956 0
M  V30 15447 N 1405.67 1.39291 0.737279 0
M  V30 15448 C 1406.64 1.37607 1.83294 0
M  V30 15449 C 1407.64 0.273594 1.58455 0
M  V30 15450 O 1408.83 0.531375 1.65898 0
M  V30 15451 C 1405.96 1.14642 3.21045 0
M  V30 15452 H 1407.15 2.35102 1.86191 0
M  V30 15453 H 1404.7 1.24822 0.940696 0
M  V30 15454 H 1405.44 0.178202 3.2381 0
M  V30 15455 H 1405.22 1.94479 3.40471 0
M  V30 15456 H 1406.71 1.162 4.01108 0
M  V30 15457 N 1407.15 -0.967221 1.24429 0
M  V30 15458 C 1408.4 -1.71026 1.08427 0
M  V30 15459 C 1408.73 -1.90815 -0.376812 0
M  V30 15460 O 1407.98 -1.46745 -1.29477 0
M  V30 15461 C 1408.28 -3.10507 1.76975 0
M  V30 15462 C 1407.95 -3.10557 3.26902 0
M  V30 15463 C 1406.61 -3.10278 3.67806 0
M  V30 15464 C 1408.96 -3.04852 4.22746 0
M  V30 15465 C 1406.29 -3.02027 5.02988 0
M  V30 15466 C 1408.64 -2.98143 5.57937 0
M  V30 15467 C 1407.3 -2.96193 5.98185 0
M  V30 15468 H 1406.57 -0.625827 0.396764 0
M  V30 15469 H 1409.22 -1.13094 1.54538 0
M  V30 15470 H 1407.53 -3.71906 1.2326 0
M  V30 15471 H 1409.22 -3.66794 1.62058 0
M  V30 15472 H 1405.81 -3.11539 2.94349 0
M  V30 15473 H 1410 -3.04197 3.92145 0
M  V30 15474 H 1405.25 -2.98878 5.33368 0
M  V30 15475 H 1409.43 -2.92688 6.31907 0
M  V30 15476 H 1407.05 -2.89555 7.02895 0
M  V30 15477 N 1408.63 -1.05812 -1.16797 0
M  V30 15478 C 1409.54 -0.675541 -2.24663 0
M  V30 15479 C 1410.56 0.30622 -1.71284 0
M  V30 15480 O 1411.73 0.156752 -2.00789 0
M  V30 15481 C 1408.8 -0.0627149 -3.46643 0
M  V30 15482 C 1407.86 -1.09572 -4.15081 0
M  V30 15483 C 1407.09 -0.512044 -5.31238 0
M  V30 15484 O 1407.31 0.676665 -5.66372 0
M  V30 15485 O 1406.25 -1.24936 -5.88791 0
M  V30 15486 H 1410.07 -1.57467 -2.59688 0
M  V30 15487 H 1407.66 -0.830073 -1.24218 0
M  V30 15488 H 1409.54 0.277543 -4.20485 0
M  V30 15489 H 1408.22 0.80997 -3.13403 0
M  V30 15490 H 1407.12 -1.48807 -3.4323 0
M  V30 15491 H 1408.46 -1.93977 -4.52365 0
M  V30 15492 N 1410.11 1.33347 -0.840014 0
M  V30 15493 C 1411.38 1.92293 -0.358158 0
M  V30 15494 C 1411.76 1.76594 1.15662 0
M  V30 15495 O 1411.11 1.15503 1.97158 0
M  V30 15496 C 1411.32 3.39558 -0.806329 0
M  V30 15497 C 1412.67 4.16705 -0.81501 0
M  V30 15498 O 1413.69 3.48214 -0.75001 0
M  V30 15499 O 1412.55 5.38974 -0.903818 0
M  V30 15500 H 1409.65 0.820737 -0.101585 0
M  V30 15501 H 1412.19 1.42213 -0.925942 0
M  V30 15502 H 1410.97 3.44861 -1.84897 0
M  V30 15503 H 1410.59 3.97017 -0.215181 0
M  V30 15504 N 1411.59 0.596556 1.45873 0
M  V30 15505 C 1412.83 0.0850976 2.0152 0
M  V30 15506 C 1413.15 -1.28799 1.47208 0
M  V30 15507 O 1414.35 -1.89156 1.94762 0
M  V30 15508 C 1412.81 0.101488 3.59757 0
M  V30 15509 C 1412.42 1.47374 4.23066 0
M  V30 15510 C 1414.16 -0.355303 4.2301 0
M  V30 15511 C 1412.07 1.44711 5.73422 0
M  V30 15512 H 1411 0.0280444 0.753478 0
M  V30 15513 H 1413.65 0.750255 1.67462 0
M  V30 15514 H 1412.03 -0.630108 3.90955 0
M  V30 15515 H 1413.21 2.22617 4.03458 0
M  V30 15516 H 1411.52 1.87171 3.71962 0
M  V30 15517 H 1414.12 -0.394236 5.33245 0
M  V30 15518 H 1414.46 -1.37573 3.92911 0
M  V30 15519 H 1414.99 0.32267 3.96489 0
M  V30 15520 H 1411.73 2.44479 6.08203 0
M  V30 15521 H 1411.25 0.737102 5.95254 0
M  V30 15522 H 1412.93 1.16598 6.36407 0
M  V30 15523 N 1413.06 -1.53996 0.335095 0
M  V30 15524 C 1414.29 -2.0489 -0.265245 0
M  V30 15525 C 1414.7 -1.21024 -1.4543 0
M  V30 15526 O 1414.04 -0.236417 -1.82172 0
M  V30 15527 C 1414.11 -3.51546 -0.752018 0
M  V30 15528 C 1413.77 -4.55904 0.316261 0
M  V30 15529 C 1414.77 -5.06881 1.15617 0
M  V30 15530 C 1412.45 -5.00117 0.467762 0
M  V30 15531 C 1414.45 -6.00644 2.13321 0
M  V30 15532 C 1412.13 -5.93692 1.4482 0
M  V30 15533 C 1413.13 -6.43842 2.27938 0
M  V30 15534 O 1412.82 -7.35578 3.24315 0
M  V30 15535 H 1412.55 -0.673631 -0.0565427 0
M  V30 15536 H 1415.11 -1.99646 0.482771 0
M  V30 15537 H 1413.34 -3.54227 -1.55114 0
M  V30 15538 H 1415.02 -3.85455 -1.27197 0
M  V30 15539 H 1415.79 -4.73494 1.05017 0
M  V30 15540 H 1411.67 -4.60689 -0.169338 0
M  V30 15541 H 1415.21 -6.39711 2.78236 0
M  V30 15542 H 1411.11 -6.26495 1.5548 0
M  V30 15543 H 1411.88 -7.53487 3.19688 0
M  V30 15544 N 1414.54 -0.0635198 -1.57472 0
M  V30 15545 C 1415.47 0.942339 -2.07835 0
M  V30 15546 C 1416.45 1.29629 -0.981587 0
M  V30 15547 O 1417.64 1.40702 -1.25439 0
M  V30 15548 C 1414.76 2.25284 -2.52913 0
M  V30 15549 C 1413.81 2.05105 -3.73944 0
M  V30 15550 S 1414.64 1.31802 -5.19026 0
M  V30 15551 C 1415.8 2.64149 -5.67429 0
M  V30 15552 H 1416.03 0.513772 -2.92827 0
M  V30 15553 H 1413.56 0.149049 -1.53679 0
M  V30 15554 H 1415.52 3.00607 -2.79546 0
M  V30 15555 H 1414.18 2.65266 -1.68204 0
M  V30 15556 H 1413.38 3.02071 -4.03447 0
M  V30 15557 H 1412.98 1.3792 -3.47641 0
M  V30 15558 H 1415.27 3.60272 -5.73769 0
M  V30 15559 H 1416.21 2.39267 -6.66451 0
M  V30 15560 H 1416.62 2.70975 -4.9521 0
M  V30 15561 N 1416.02 1.56195 0.209972 0
M  V30 15562 C 1417.3 1.70553 0.957653 0
M  V30 15563 C 1417.68 0.614091 2.01971 0
M  V30 15564 O 1417.02 -0.377192 2.25365 0
M  V30 15565 C 1417.23 3.12314 1.55759 0
M  V30 15566 C 1418.58 3.72085 2.04543 0
M  V30 15567 O 1419.61 3.15349 1.65631 0
M  V30 15568 O 1418.47 4.71627 2.76099 0
M  V30 15569 H 1415.56 0.695077 0.448104 0
M  V30 15570 H 1418.11 1.68507 0.20084 0
M  V30 15571 H 1416.88 3.83215 0.791302 0
M  V30 15572 H 1416.5 3.18526 2.37964 0
M  V30 15573 N 1417.5 -0.477127 1.50204 0
M  V30 15574 C 1418.43 -1.59319 1.64773 0
M  V30 15575 C 1419.44 -1.53951 0.529427 0
M  V30 15576 O 1420.63 -1.59449 0.802388 0
M  V30 15577 C 1417.73 -2.98185 1.61055 0
M  V30 15578 C 1416.9 -3.28486 2.88817 0
M  V30 15579 C 1415.96 -4.46878 2.77825 0
M  V30 15580 O 1414.99 -4.47483 3.51778 0
M  V30 15581 N 1416.19 -5.48187 1.90974 0
M  V30 15582 H 1418.96 -1.4724 2.61037 0
M  V30 15583 H 1416.52 -0.66544 1.47592 0
M  V30 15584 H 1418.51 -3.75345 1.51323 0
M  V30 15585 H 1417.08 -3.04064 0.725509 0
M  V30 15586 H 1416.3 -2.39997 3.12722 0
M  V30 15587 H 1417.59 -3.4554 3.7347 0
M  V30 15588 H 1416.99 -5.50515 1.30192 0
M  V30 15589 H 1415.54 -6.24355 1.87148 0
M  V30 15590 N 1418.98 -1.3968 -0.729882 0
M  V30 15591 C 1420.39 -1.21396 -1.0361 0
M  V30 15592 C 1420.59 -0.0791302 -2.01345 0
M  V30 15593 O 1419.65 0.567575 -2.46038 0
M  V30 15594 C 1420.96 -2.55006 -1.59349 0
M  V30 15595 C 1422.51 -2.61896 -1.71405 0
M  V30 15596 C 1422.98 -3.9574 -2.30552 0
M  V30 15597 N 1424.48 -3.97406 -2.37955 0
M  V30 15598 C 1425.21 -4.97745 -2.8467 0
M  V30 15599 N 1424.71 -6.08482 -3.31243 0
M  V30 15600 N 1426.5 -4.85121 -2.83925 0
M  V30 15601 H 1418.65 -2.12242 -0.081787 0
M  V30 15602 H 1420.91 -0.942827 -0.0989005 0
M  V30 15603 H 1420.62 -3.38626 -0.950005 0
M  V30 15604 H 1420.49 -2.75087 -2.58083 0
M  V30 15605 H 1422.88 -1.78656 -2.34874 0
M  V30 15606 H 1422.96 -2.45659 -0.7131 0
M  V30 15607 H 1422.61 -4.79412 -1.67709 0
M  V30 15608 H 1422.54 -4.09299 -3.31334 0
M  V30 15609 H 1425.03 -3.17435 -2.05044 0
M  V30 15610 H 1425.34 -6.8095 -3.65414 0
M  V30 15611 H 1423.68 -6.12068 -3.29239 0
M  V30 15612 H 1426.88 -3.97711 -2.46867 0
M  V30 15613 H 1427.05 -5.63465 -3.20017 0
M  V30 15614 N 1420.45 0.960609 -1.2494 0
M  V30 15615 C 1421.4 2.05634 -1.04801 0
M  V30 15616 C 1422.37 1.66049 0.0409611 0
M  V30 15617 O 1423.56 1.90453 -0.115053 0
M  V30 15618 C 1420.7 3.38604 -0.666444 0
M  V30 15619 C 1419.81 3.91341 -1.82964 0
M  V30 15620 C 1418.94 5.1261 -1.39299 0
M  V30 15621 C 1417.98 5.57562 -2.52569 0
M  V30 15622 N 1417.12 6.70046 -2.09722 0
M  V30 15623 H 1421.96 2.22194 -1.9858 0
M  V30 15624 H 1419.5 1.08892 -0.988981 0
M  V30 15625 H 1421.46 4.15017 -0.426205 0
M  V30 15626 H 1420.09 3.21948 0.23435 0
M  V30 15627 H 1419.14 3.11502 -2.18335 0
M  V30 15628 H 1420.45 4.20656 -2.68049 0
M  V30 15629 H 1419.6 5.96421 -1.11205 0
M  V30 15630 H 1418.34 4.84997 -0.512779 0
M  V30 15631 H 1417.35 4.72319 -2.81415 0
M  V30 15632 H 1418.57 5.87186 -3.41159 0
M  V30 15633 H 1416.52 6.44153 -1.24109 0
M  V30 15634 H 1416.44 6.98846 -2.88357 0
M  V30 15635 H 1417.7 7.57281 -1.84787 0
M  V30 15636 N 1421.93 1.0643 1.16234 0
M  V30 15637 C 1423.16 0.802644 1.90697 0
M  V30 15638 C 1423.58 -0.643145 1.77508 0
M  V30 15639 O 1422.93 -1.4404 1.12065 0
M  V30 15640 C 1422.98 1.18984 3.41358 0
M  V30 15641 O 1422.7 2.5789 3.54153 0
M  V30 15642 C 1424.21 0.956132 4.32866 0
M  V30 15643 H 1421.43 0.290891 0.604668 0
M  V30 15644 H 1423.97 1.41829 1.47325 0
M  V30 15645 H 1422.12 0.618703 3.82428 0
M  V30 15646 H 1422.54 2.73431 4.47589 0
M  V30 15647 H 1424.01 1.27667 5.37034 0
M  V30 15648 H 1424.49 -0.108062 4.39067 0
M  V30 15649 H 1425.1 1.51172 3.97526 0
M  V30 15650 N 1423.41 -1.329 0.847073 0
M  V30 15651 C 1424.66 -1.96774 0.443022 0
M  V30 15652 C 1424.97 -1.67813 -1.0049 0
M  V30 15653 O 1426.18 -2.25366 -1.51402 0
M  V30 15654 C 1424.63 -3.52184 0.741268 0
M  V30 15655 C 1424.24 -3.90013 2.20441 0
M  V30 15656 C 1425.99 -4.22568 0.404569 0
M  V30 15657 C 1423.89 -5.38434 2.44627 0
M  V30 15658 H 1422.82 -0.736406 0.161932 0
M  V30 15659 H 1425.47 -1.51402 1.0368 0
M  V30 15660 H 1423.86 -3.95925 0.0770158 0
M  V30 15661 H 1425.03 -3.57304 2.90982 0
M  V30 15662 H 1423.35 -3.32633 2.50489 0
M  V30 15663 H 1425.94 -5.3173 0.562795 0
M  V30 15664 H 1426.29 -4.11144 -0.653172 0
M  V30 15665 H 1426.82 -3.84384 1.0244 0
M  V30 15666 H 1423.56 -5.5487 3.48997 0
M  V30 15667 H 1423.08 -5.72575 1.78656 0
M  V30 15668 H 1424.76 -6.05423 2.28194 0
M  V30 15669 N 1424.89 -0.604284 -1.45555 0
M  V30 15670 C 1425.84 0.116491 -2.30506 0
M  V30 15671 C 1426.81 0.863214 -1.41908 0
M  V30 15672 O 1427.99 0.849606 -1.7084 0
M  V30 15673 C 1425.13 1.11009 -3.26758 0
M  V30 15674 C 1424.24 0.36458 -4.30459 0
M  V30 15675 C 1423.38 1.34761 -5.13822 0
M  V30 15676 C 1422.42 0.589724 -6.09253 0
M  V30 15677 N 1421.55 1.52187 -6.85408 0
M  V30 15678 H 1426.39 -0.61394 -2.91607 0
M  V30 15679 H 1423.93 -0.314561 -1.43697 0
M  V30 15680 H 1425.89 1.69925 -3.81027 0
M  V30 15681 H 1424.52 1.80797 -2.67418 0
M  V30 15682 H 1423.57 -0.340026 -3.78877 0
M  V30 15683 H 1424.88 -0.226906 -4.98284 0
M  V30 15684 H 1424.04 2.00893 -5.72474 0
M  V30 15685 H 1422.78 1.97302 -4.46008 0
M  V30 15686 H 1421.78 -0.0852486 -5.49734 0
M  V30 15687 H 1423.01 -0.0306001 -6.79093 0
M  V30 15688 H 1420.95 2.13499 -6.20286 0
M  V30 15689 H 1420.87 0.983737 -7.49572 0
M  V30 15690 H 1422.14 2.17287 -7.48603 0
M  V30 15691 N 1426.37 1.53816 -0.343257 0
M  V30 15692 C 1427.62 2.0009 0.254346 0
M  V30 15693 C 1427.93 1.23502 1.51679 0
M  V30 15694 O 1429.13 1.60251 2.19162 0
M  V30 15695 C 1427.59 3.56357 0.503775 0
M  V30 15696 C 1427.2 4.418 -0.742754 0
M  V30 15697 C 1428.94 4.11046 1.06025 0
M  V30 15698 C 1426.85 5.89576 -0.46414 0
M  V30 15699 H 1425.78 0.747496 0.0988189 0
M  V30 15700 H 1428.43 1.77679 -0.45854 0
M  V30 15701 H 1426.81 3.74833 1.27736 0
M  V30 15702 H 1427.99 4.35099 -1.51742 0
M  V30 15703 H 1426.3 3.98101 -1.22085 0
M  V30 15704 H 1428.9 5.19063 1.28365 0
M  V30 15705 H 1429.24 3.64247 2.01568 0
M  V30 15706 H 1429.77 3.9628 0.347384 0
M  V30 15707 H 1426.51 6.40608 -1.38928 0
M  V30 15708 H 1426.03 5.99181 0.272441 0
M  V30 15709 H 1427.71 6.46949 -0.0812761 0
M  V30 15710 N 1427.84 0.0718701 1.57436 0
M  V30 15711 C 1428.77 -0.89288 2.15754 0
M  V30 15712 C 1429.76 -1.31036 1.0846 0
M  V30 15713 O 1430.94 -1.38139 1.36496 0
M  V30 15714 C 1428.07 -2.16044 2.71923 0
M  V30 15715 C 1427.02 -1.88236 3.84384 0
M  V30 15716 C 1426.35 -3.21624 4.27156 0
M  V30 15717 C 1427.65 -1.18758 5.0862 0
M  V30 15718 H 1429.34 -0.407061 2.9662 0
M  V30 15719 H 1426.89 -0.194354 1.42682 0
M  V30 15720 H 1428.84 -2.83952 3.11366 0
M  V30 15721 H 1427.57 -2.66868 1.88279 0
M  V30 15722 H 1426.23 -1.22734 3.45445 0
M  V30 15723 H 1425.87 -3.70289 3.40433 0
M  V30 15724 H 1425.57 -3.03809 5.02965 0
M  V30 15725 H 1427.1 -3.90729 4.69215 0
M  V30 15726 H 1428.51 -1.76735 5.45378 0
M  V30 15727 H 1426.91 -1.11201 5.89707 0
M  V30 15728 H 1427.98 -0.166682 4.84613 0
M  V30 15729 N 1429.32 -1.56304 -0.201686 0
M  V30 15730 C 1430.25 -1.97046 -1.25281 0
M  V30 15731 C 1431.23 -0.841458 -1.47829 0
M  V30 15732 O 1432.42 -1.10529 -1.59678 0
M  V30 15733 C 1429.55 -2.30429 -2.59845 0
M  V30 15734 C 1428.5 -3.46006 -2.5192 0
M  V30 15735 C 1427.83 -3.65047 -3.90697 0
M  V30 15736 C 1429.13 -4.80391 -2.04992 0
M  V30 15737 H 1430.82 -2.85099 -0.914272 0
M  V30 15738 H 1428.37 -1.37166 -0.438359 0
M  V30 15739 H 1430.32 -2.57525 -3.33555 0
M  V30 15740 H 1429.05 -1.39251 -2.95426 0
M  V30 15741 H 1427.7 -3.18991 -1.80667 0
M  V30 15742 H 1427.35 -2.71211 -4.2362 0
M  V30 15743 H 1427.05 -4.42796 -3.86271 0
M  V30 15744 H 1428.58 -3.94512 -4.66039 0
M  V30 15745 H 1429.99 -5.06561 -2.68456 0
M  V30 15746 H 1428.39 -5.61563 -2.11582 0
M  V30 15747 H 1429.46 -4.74416 -1.00288 0
M  V30 15748 N 1430.8 0.469154 -1.50455 0
M  V30 15749 C 1431.71 1.59271 -1.7225 0
M  V30 15750 C 1432.73 1.63119 -0.605668 0
M  V30 15751 O 1433.9 1.80952 -0.884222 0
M  V30 15752 C 1430.97 2.95475 -1.81372 0
M  V30 15753 C 1430.03 3.02 -3.05114 0
M  V30 15754 C 1429.26 4.31707 -3.13791 0
M  V30 15755 O 1429.48 5.2232 -2.29211 0
M  V30 15756 O 1428.42 4.43864 -4.06532 0
M  V30 15757 H 1432.24 1.43804 -2.67496 0
M  V30 15758 H 1429.83 0.648855 -1.34574 0
M  V30 15759 H 1431.71 3.76367 -1.89541 0
M  V30 15760 H 1430.39 3.11136 -0.893094 0
M  V30 15761 H 1429.29 2.20178 -3.02444 0
M  V30 15762 H 1430.63 2.91275 -3.96761 0
M  V30 15763 N 1432.28 1.40065 0.722464 0
M  V30 15764 C 1433.51 1.41066 1.50944 0
M  V30 15765 C 1433.92 0.00678083 1.89199 0
M  V30 15766 O 1433.26 -0.977992 1.55502 0
M  V30 15767 C 1433.32 2.23127 2.81877 0
M  V30 15768 C 1432.99 3.7162 2.65984 0
M  V30 15769 C 1433.98 4.64415 2.33698 0
M  V30 15770 C 1431.67 4.15355 2.82463 0
M  V30 15771 C 1433.66 5.98928 2.18091 0
M  V30 15772 C 1431.35 5.49941 2.66474 0
M  V30 15773 C 1432.35 6.41542 2.34335 0
M  V30 15774 O 1432.03 7.73647 2.18461 0
M  V30 15775 H 1431.77 0.483321 0.472628 0
M  V30 15776 H 1434.32 1.84664 0.899356 0
M  V30 15777 H 1432.55 1.74298 3.45192 0
M  V30 15778 H 1434.24 2.16153 3.43559 0
M  V30 15779 H 1435.01 4.31924 2.20606 0
M  V30 15780 H 1430.88 3.44381 3.06468 0
M  V30 15781 H 1434.43 6.70391 1.92928 0
M  V30 15782 H 1430.33 5.82019 2.79149 0
M  V30 15783 H 1431.09 7.84507 2.33434 0
M  V30 15784 N 1433.76 -0.95397 1.25448 0
M  V30 15785 C 1434.72 -2.03231 1.0597 0
M  V30 15786 C 1435.72 -1.60795 0.0122855 0
M  V30 15787 O 1436.91 -1.7233 0.254533 0
M  V30 15788 C 1434.04 -3.35414 0.609105 0
M  V30 15789 H 1435.24 -2.21943 2.01696 0
M  V30 15790 H 1432.79 -1.13115 1.07864 0
M  V30 15791 H 1433.52 -3.22398 -0.350723 0
M  V30 15792 H 1433.31 -3.67564 1.36526 0
M  V30 15793 H 1434.8 -4.14664 0.49428 0
M  V30 15794 N 1435.24 -1.07045 -1.15668 0
M  V30 15795 C 1436.51 -0.704942 -1.82455 0
M  V30 15796 C 1436.89 0.812921 -1.9482 0
M  V30 15797 O 1436.24 1.72615 -1.49721 0
M  V30 15798 C 1436.45 -1.41574 -3.18995 0
M  V30 15799 C 1437.8 -1.56584 -3.94673 0
M  V30 15800 O 1438.82 -1.37626 -3.28538 0
M  V30 15801 O 1437.68 -1.87751 -5.13237 0
M  V30 15802 H 1434.78 -0.250469 -0.788159 0
M  V30 15803 H 1437.32 -1.17118 -1.22806 0
M  V30 15804 H 1436.09 -2.4504 -3.05075 0
M  V30 15805 H 1435.72 -0.940071 -3.86327 0
M  V30 15806 N 1436.71 1.32449 -0.85411 0
M  V30 15807 C 1437.65 2.26901 -0.243148 0
M  V30 15808 C 1438.62 1.50375 0.618558 0
M  V30 15809 O 1439.81 1.79501 0.575479 0
M  V30 15810 C 1436.94 3.32265 0.657108 0
M  V30 15811 C 1435.98 4.26298 -0.131141 0
M  V30 15812 S 1436.81 5.14086 -1.49919 0
M  V30 15813 C 1437.97 6.22973 -0.604632 0
M  V30 15814 H 1438.2 2.78373 -1.04384 0
M  V30 15815 H 1435.74 1.39972 -0.651712 0
M  V30 15816 H 1437.69 3.93447 1.17087 0
M  V30 15817 H 1436.36 2.79578 1.4316 0
M  V30 15818 H 1435.55 5.0094 0.55452 0
M  V30 15819 H 1435.15 3.69531 -0.576469 0
M  V30 15820 H 1437.44 6.7723 0.191348 0
M  V30 15821 H 1438.39 6.95656 -1.32168 0
M  V30 15822 H 1438.79 5.64215 -0.179215 0
M  V30 15823 N 1438.19 0.611994 1.45232 0
M  V30 15824 C 1439.44 0.106467 2.01419 0
M  V30 15825 C 1439.75 -1.2723 1.48566 0
M  V30 15826 O 1440.96 -1.8708 1.96757 0
M  V30 15827 C 1439.42 0.139639 3.59629 0
M  V30 15828 C 1439.02 1.51853 4.21479 0
M  V30 15829 C 1440.77 -0.310417 4.23364 0
M  V30 15830 C 1438.67 1.50785 5.71855 0
M  V30 15831 H 1437.6 0.0360345 0.753138 0
M  V30 15832 H 1440.26 0.767974 1.66657 0
M  V30 15833 H 1438.64 -0.588606 3.91601 0
M  V30 15834 H 1439.81 2.26884 4.01074 0
M  V30 15835 H 1438.13 1.91105 3.69956 0
M  V30 15836 H 1440.72 -0.337656 5.33633 0
M  V30 15837 H 1441.07 -1.33398 3.94348 0
M  V30 15838 H 1441.6 0.364704 3.96125 0
M  V30 15839 H 1438.34 2.50916 6.05575 0
M  V30 15840 H 1437.86 0.800195 5.94438 0
M  V30 15841 H 1439.54 1.23341 6.35135 0
M  V30 15842 N 1439.67 -1.53632 0.351409 0
M  V30 15843 C 1440.92 -2.0104 -0.242687 0
M  V30 15844 C 1441.24 -1.23906 -1.49925 0
M  V30 15845 O 1440.5 -0.316927 -1.93117 0
M  V30 15846 C 1440.8 -3.5242 -0.594561 0
M  V30 15847 C 1440.46 -4.47333 0.566031 0
M  V30 15848 C 1439.13 -4.73001 0.884515 0
M  V30 15849 C 1441.48 -5.03566 1.34426 0
M  V30 15850 C 1438.81 -5.52156 1.98346 0
M  V30 15851 C 1441.16 -5.8392 2.43351 0
M  V30 15852 C 1439.82 -6.0788 2.7575 0
M  V30 15853 H 1439.09 -0.735659 -0.0888056 0
M  V30 15854 H 1441.74 -1.85362 0.480948 0
M  V30 15855 H 1440.04 -3.65971 -1.39902 0
M  V30 15856 H 1441.74 -3.86565 -1.06625 0
M  V30 15857 H 1438.33 -4.27494 0.307751 0
M  V30 15858 H 1442.52 -4.83694 1.11146 0
M  V30 15859 H 1437.77 -5.68942 2.23863 0
M  V30 15860 H 1441.95 -6.26505 3.04079 0
M  V30 15861 H 1439.57 -6.69001 3.61029 0
M  V30 15862 N 1441.15 -0.0802183 -1.57396 0
M  V30 15863 C 1442.38 0.595754 -1.98137 0
M  V30 15864 C 1442.79 1.62638 -0.958871 0
M  V30 15865 O 1442.15 1.82422 0.0534316 0
M  V30 15866 C 1442.2 1.2568 -3.38949 0
M  V30 15867 O 1441.92 0.267417 -4.37283 0
M  V30 15868 C 1443.42 2.0198 -3.94612 0
M  V30 15869 H 1440.64 0.160853 -0.651435 0
M  V30 15870 H 1443.18 -0.155111 -2.03911 0
M  V30 15871 H 1441.34 1.9587 -3.34236 0
M  V30 15872 H 1441.75 0.742695 -5.19215 0
M  V30 15873 H 1443.23 2.43613 -4.95335 0
M  V30 15874 H 1443.7 2.87973 -3.31614 0
M  V30 15875 H 1444.31 1.36639 -4.02753 0
M  V30 15876 N 1442.63 1.56409 0.193394 0
M  V30 15877 C 1443.86 1.84569 0.928328 0
M  V30 15878 C 1444.26 0.660788 1.77286 0
M  V30 15879 O 1443.61 -0.379752 1.79732 0
M  V30 15880 C 1443.67 3.06854 1.87299 0
M  V30 15881 C 1443.33 4.40684 1.21025 0
M  V30 15882 C 1444.33 5.16583 0.58635 0
M  V30 15883 C 1442.01 4.87419 1.21359 0
M  V30 15884 C 1444.01 6.37395 -0.0253573 0
M  V30 15885 C 1441.7 6.08167 0.598052 0
M  V30 15886 C 1442.69 6.82997 -0.0203414 0
M  V30 15887 O 1442.38 8.01457 -0.626232 0
M  V30 15888 H 1442.11 0.616966 0.276277 0
M  V30 15889 H 1444.67 2.04373 0.205102 0
M  V30 15890 H 1442.9 2.82938 2.63596 0
M  V30 15891 H 1444.59 3.21645 2.47587 0
M  V30 15892 H 1445.35 4.81569 0.575894 0
M  V30 15893 H 1441.23 4.29129 1.68432 0
M  V30 15894 H 1444.78 6.95743 -0.508644 0
M  V30 15895 H 1440.67 6.42649 0.606017 0
M  V30 15896 H 1441.44 8.16825 -0.523305 0
M  V30 15897 N 1444.1 -0.461169 1.50702 0
M  V30 15898 C 1445.35 -1.20934 1.61425 0
M  V30 15899 C 1445.67 -1.92884 0.32481 0
M  V30 15900 O 1446.87 -2.69712 0.311081 0
M  V30 15901 C 1445.33 -2.19797 2.84987 0
M  V30 15902 C 1444.94 -1.53604 4.20844 0
M  V30 15903 C 1446.68 -2.95194 3.05059 0
M  V30 15904 C 1444.59 -2.50811 5.35582 0
M  V30 15905 H 1443.52 -0.455088 0.601174 0
M  V30 15906 H 1446.17 -0.478771 1.77144 0
M  V30 15907 H 1444.55 -2.96187 2.62848 0
M  V30 15908 H 1445.72 -0.829345 4.53275 0
M  V30 15909 H 1444.04 -0.904504 4.06457 0
M  V30 15910 H 1446.64 -3.67965 3.87951 0
M  V30 15911 H 1446.98 -3.5516 2.1718 0
M  V30 15912 H 1447.51 -2.25915 3.27425 0
M  V30 15913 H 1444.25 -1.9557 6.25646 0
M  V30 15914 H 1443.77 -3.19604 5.07556 0
M  V30 15915 H 1445.45 -3.12437 5.66561 0
M  V30 15916 N 1445.58 -1.40446 -0.715026 0
M  V30 15917 C 1446.83 -1.38754 -1.47491 0
M  V30 15918 C 1447.16 0.0099443 -1.94497 0
M  V30 15919 O 1446.41 0.99458 -1.68543 0
M  V30 15920 C 1446.71 -2.32392 -2.7153 0
M  V30 15921 C 1446.38 -3.79635 -2.43286 0
M  V30 15922 C 1445.04 -4.19751 -2.35293 0
M  V30 15923 C 1447.39 -4.72681 -2.19596 0
M  V30 15924 C 1444.72 -5.50947 -2.01679 0
M  V30 15925 C 1447.07 -6.04176 -1.87495 0
M  V30 15926 C 1445.73 -6.43333 -1.77985 0
M  V30 15927 H 1445 -0.507738 -0.539706 0
M  V30 15928 H 1447.65 -1.73104 -0.81898 0
M  V30 15929 H 1445.96 -1.91229 -3.41963 0
M  V30 15930 H 1447.65 -2.28366 -3.29621 0
M  V30 15931 H 1444.24 -3.47852 -2.50393 0
M  V30 15932 H 1448.43 -4.42506 -2.24727 0
M  V30 15933 H 1443.68 -5.80187 -1.92854 0
M  V30 15934 H 1447.86 -6.75788 -1.68179 0
M  V30 15935 H 1445.48 -7.44909 -1.51706 0
M  V30 15936 N 1447.06 0.947303 -1.25952 0
M  V30 15937 C 1448.31 1.68721 -1.10527 0
M  V30 15938 C 1448.62 1.92403 0.352215 0
M  V30 15939 O 1449.83 2.6416 0.627036 0
M  V30 15940 C 1448.28 3.03785 -1.92983 0
M  V30 15941 C 1447.89 2.87873 -3.43268 0
M  V30 15942 C 1449.64 3.81509 -1.86149 0
M  V30 15943 C 1447.54 4.18373 -4.17993 0
M  V30 15944 H 1446.47 0.632774 -0.410016 0
M  V30 15945 H 1449.12 1.054 -1.5021 0
M  V30 15946 H 1447.51 3.68052 -1.46128 0
M  V30 15947 H 1448.68 2.32493 -3.97848 0
M  V30 15948 H 1446.99 2.23598 -3.51273 0
M  V30 15949 H 1449.59 4.78179 -2.39267 0
M  V30 15950 H 1449.93 4.07923 -0.83091 0
M  V30 15951 H 1450.47 3.24005 -2.30794 0
M  V30 15952 H 1447.21 3.97145 -5.21494 0
M  V30 15953 H 1446.73 4.7349 -3.68194 0
M  V30 15954 H 1448.41 4.86869 -4.26108 0
M  V30 15955 N 1448.54 1.07657 1.15099 0
M  V30 15956 C 1449.47 0.721201 2.22083 0
M  V30 15957 C 1450.45 -0.292808 1.67561 0
M  V30 15958 O 1451.63 -0.164872 1.93499 0
M  V30 15959 C 1448.76 0.12153 3.47087 0
M  V30 15960 C 1447.72 1.06303 4.14588 0
M  V30 15961 C 1447.04 0.325964 5.33706 0
M  V30 15962 C 1448.34 2.39796 4.63999 0
M  V30 15963 H 1450.04 1.61566 2.52065 0
M  V30 15964 H 1447.58 0.778282 1.21156 0
M  V30 15965 H 1449.54 -0.139037 4.21171 0
M  V30 15966 H 1448.26 -0.808022 3.16447 0
M  V30 15967 H 1446.92 1.30858 3.4245 0
M  V30 15968 H 1446.57 -0.607147 4.99322 0
M  V30 15969 H 1446.27 0.953552 5.79811 0
M  V30 15970 H 1447.79 0.0732695 6.10556 0
M  V30 15971 H 1449.21 2.19552 5.29594 0
M  V30 15972 H 1447.6 2.98178 5.20778 0
M  V30 15973 H 1448.67 3.01876 3.79472 0
M  V30 15974 N 1450.02 -1.31994 0.861122 0
M  V30 15975 C 1450.93 -2.32495 0.313555 0
M  V30 15976 C 1451.94 -1.64331 -0.571966 0
M  V30 15977 O 1453.12 -1.9582 -0.470794 0
M  V30 15978 C 1450.18 -3.43311 -0.483603 0
M  V30 15979 C 1449.24 -4.27153 0.428825 0
M  V30 15980 C 1448.48 -5.32676 -0.330383 0
M  V30 15981 O 1448.7 -5.48665 -1.55957 0
M  V30 15982 O 1447.63 -6.01116 0.307174 0
M  V30 15983 H 1451.46 -2.81234 1.14636 0
M  V30 15984 H 1449.05 -1.35734 0.624239 0
M  V30 15985 H 1450.93 -4.10877 -0.935831 0
M  V30 15986 H 1449.6 -2.9675 -1.2931 0
M  V30 15987 H 1448.51 -3.62372 0.929366 0
M  V30 15988 H 1449.84 -4.77255 1.20368 0
M  V30 15989 N 1451.49 -0.619688 -1.44906 0
M  V30 15990 C 1452.43 0.141137 -2.27763 0
M  V30 15991 C 1453.41 0.862176 -1.3786 0
M  V30 15992 O 1454.59 0.868593 -1.67295 0
M  V30 15993 C 1451.72 1.20547 -3.16522 0
M  V30 15994 C 1450.76 0.586228 -4.22452 0
M  V30 15995 S 1451.6 -0.615067 -5.31956 0
M  V30 15996 C 1452.75 0.449556 -6.24283 0
M  V30 15997 H 1452.98 -0.561806 -2.91944 0
M  V30 15998 H 1450.52 -0.407535 -1.48925 0
M  V30 15999 H 1452.48 1.81463 -3.68214 0
M  V30 16000 H 1451.14 1.88054 -2.51584 0
M  V30 16001 H 1450.33 1.38744 -4.84527 0
M  V30 16002 H 1449.93 0.0519375 -3.73964 0
M  V30 16003 H 1452.22 1.32531 -6.64411 0
M  V30 16004 H 1453.17 -0.135328 -7.07971 0
M  V30 16005 H 1453.57 0.770319 -5.59219 0
M  V30 16006 N 1452.97 1.53444 -0.359552 0
M  V30 16007 C 1453.9 2.28475 0.4818 0
M  V30 16008 C 1454.88 1.30664 1.08908 0
M  V30 16009 O 1456.07 1.59527 1.10746 0
M  V30 16010 C 1453.2 3.06951 1.62477 0
M  V30 16011 C 1452.15 4.12399 1.14504 0
M  V30 16012 C 1451.48 4.78922 2.37777 0
M  V30 16013 C 1452.78 5.21775 0.234075 0
M  V30 16014 H 1454.47 2.99053 -0.144162 0
M  V30 16015 H 1452.02 1.43826 -0.0707746 0
M  V30 16016 H 1453.97 3.58186 2.21993 0
M  V30 16017 H 1452.7 2.34053 2.27787 0
M  V30 16018 H 1451.35 3.62101 0.572589 0
M  V30 16019 H 1451 4.02602 3.0153 0
M  V30 16020 H 1450.7 5.50175 2.06353 0
M  V30 16021 H 1452.23 5.32948 2.97991 0
M  V30 16022 H 1453.64 5.68549 0.736548 0
M  V30 16023 H 1452.04 6.00099 0.0109887 0
M  V30 16024 H 1453.11 4.79443 -0.725435 0
M  V30 16025 N 1454.45 0.0885642 1.57351 0
M  V30 16026 C 1455.38 -0.869946 2.16689 0
M  V30 16027 C 1456.36 -1.29878 1.09844 0
M  V30 16028 O 1457.55 -1.36684 1.37954 0
M  V30 16029 C 1454.68 -2.13148 2.74199 0
M  V30 16030 C 1453.63 -1.84149 3.86359 0
M  V30 16031 C 1452.96 -3.17075 4.30543 0
M  V30 16032 C 1454.26 -1.13357 5.09851 0
M  V30 16033 H 1455.95 -0.375578 2.97035 0
M  V30 16034 H 1453.5 -0.17921 1.42881 0
M  V30 16035 H 1455.45 -2.80634 3.14361 0
M  V30 16036 H 1454.17 -2.64856 1.91098 0
M  V30 16037 H 1452.83 -1.19063 3.46727 0
M  V30 16038 H 1452.48 -3.66658 3.44342 0
M  V30 16039 H 1452.18 -2.98457 5.06159 0
M  V30 16040 H 1453.7 -3.85731 4.73333 0
M  V30 16041 H 1455.12 -1.70941 5.47222 0
M  V30 16042 H 1453.52 -1.0494 5.90853 0
M  V30 16043 H 1454.59 -0.115273 4.84763 0
M  V30 16044 N 1455.93 -1.56509 -0.185096 0
M  V30 16045 C 1456.88 -1.95336 -1.22934 0
M  V30 16046 C 1457.85 -0.81532 -1.44713 0
M  V30 16047 O 1459.03 -1.07431 -1.57681 0
M  V30 16048 C 1456.17 -2.30671 -2.56681 0
M  V30 16049 C 1455.28 -3.57586 -2.42397 0
M  V30 16050 C 1454.42 -3.82197 -3.68916 0
M  V30 16051 C 1453.46 -5.02505 -3.49507 0
M  V30 16052 N 1452.59 -5.23319 -4.68062 0
M  V30 16053 H 1457.43 -2.84361 -0.89123 0
M  V30 16054 H 1454.97 -1.40715 -0.428689 0
M  V30 16055 H 1456.93 -2.49176 -3.34615 0
M  V30 16056 H 1455.56 -1.44773 -2.88514 0
M  V30 16057 H 1454.61 -3.47072 -1.55709 0
M  V30 16058 H 1455.92 -4.45677 -2.23994 0
M  V30 16059 H 1455.08 -4.00996 -4.55288 0
M  V30 16060 H 1453.82 -2.92455 -3.90284 0
M  V30 16061 H 1452.82 -4.83619 -2.6152 0
M  V30 16062 H 1454.05 -5.93765 -3.29574 0
M  V30 16063 H 1451.99 -4.36526 -4.89674 0
M  V30 16064 H 1451.91 -6.05608 -4.52521 0
M  V30 16065 H 1453.18 -5.46585 -5.55757 0
M  V30 16066 N 1457.41 0.45317 -1.50944 0
M  V30 16067 C 1458.65 1.20269 -1.64033 0
M  V30 16068 C 1459.01 1.89287 -0.344707 0
M  V30 16069 O 1458.3 1.79927 0.65855 0
M  V30 16070 C 1458.49 2.25747 -2.7708 0
M  V30 16071 C 1458.32 1.67079 -4.1751 0
M  V30 16072 C 1457.09 1.46264 -4.83668 0
M  V30 16073 C 1459.29 1.15577 -5.01145 0
M  V30 16074 N 1457.27 0.830278 -6.08259 0
M  V30 16075 C 1458.64 0.647721 -6.16607 0
M  V30 16076 C 1460.7 1.04601 -4.86788 0
M  V30 16077 C 1459.4 0.0407277 -7.19288 0
M  V30 16078 C 1461.43 0.452936 -5.89663 0
M  V30 16079 C 1460.79 -0.0446434 -7.04386 0
M  V30 16080 H 1456.89 0.428334 -0.654259 0
M  V30 16081 H 1459.47 0.501782 -1.88123 0
M  V30 16082 H 1457.64 2.93244 -2.54681 0
M  V30 16083 H 1459.38 2.92745 -2.79432 0
M  V30 16084 H 1456.13 1.71995 -4.41265 0
M  V30 16085 H 1456.56 0.531994 -6.74907 0
M  V30 16086 H 1461.2 1.41661 -3.98362 0
M  V30 16087 H 1458.92 -0.34203 -8.07376 0
M  V30 16088 H 1462.5 0.370136 -5.80621 0
M  V30 16089 H 1461.38 -0.496363 -7.82628 0
M  V30 16090 N 1458.88 1.40823 0.707568 0
M  V30 16091 C 1459.82 1.36132 1.83149 0
M  V30 16092 C 1460.8 0.230423 1.60959 0
M  V30 16093 O 1461.98 0.415391 1.83866 0
M  V30 16094 C 1459.11 1.12055 3.19627 0
M  V30 16095 C 1458.15 2.27703 3.6063 0
M  V30 16096 S 1458.99 3.90134 3.66818 0
M  V30 16097 C 1460.14 3.68336 5.06043 0
M  V30 16098 H 1460.37 2.31246 1.86849 0
M  V30 16099 H 1457.91 1.27204 0.875126 0
M  V30 16100 H 1459.87 0.988486 3.98421 0
M  V30 16101 H 1458.53 0.185809 3.1355 0
M  V30 16102 H 1457.72 2.06519 4.59746 0
M  V30 16103 H 1457.32 2.37254 2.89114 0
M  V30 16104 H 1459.61 3.27299 5.93196 0
M  V30 16105 H 1460.56 4.67012 5.32265 0
M  V30 16106 H 1460.96 3.01856 4.77015 0
M  V30 16107 N 1460.36 -0.94061 1.26453 0
M  V30 16108 C 1461.33 -2.02096 1.0812 0
M  V30 16109 C 1462.33 -1.60773 0.0293393 0
M  V30 16110 O 1463.52 -1.72051 0.272796 0
M  V30 16111 C 1460.65 -3.34749 0.644646 0
M  V30 16112 H 1461.84 -2.19792 2.04038 0
M  V30 16113 H 1459.39 -1.11965 1.09058 0
M  V30 16114 H 1460.13 -3.22752 -0.316509 0
M  V30 16115 H 1459.91 -3.66095 1.40416 0
M  V30 16116 H 1461.4 -4.14117 0.538233 0
M  V30 16117 N 1461.84 -1.08266 -1.14527 0
M  V30 16118 C 1463.07 -0.831673 -1.89121 0
M  V30 16119 C 1463.48 0.619702 -1.78763 0
M  V30 16120 O 1462.82 1.43748 -1.14377 0
M  V30 16121 C 1462.88 -1.17276 -3.39833 0
M  V30 16122 C 1462.55 -2.62662 -3.73975 0
M  V30 16123 C 1463.54 -3.60913 -3.74216 0
M  V30 16124 C 1461.23 -2.9848 -4.03999 0
M  V30 16125 C 1463.22 -4.93012 -4.04002 0
M  V30 16126 C 1460.91 -4.30773 -4.33448 0
M  V30 16127 C 1461.91 -5.27849 -4.33433 0
M  V30 16128 O 1461.6 -6.57765 -4.6217 0
M  V30 16129 H 1461.33 -0.299687 -0.60594 0
M  V30 16130 H 1463.88 -1.44498 -1.45978 0
M  V30 16131 H 1462.11 -0.502458 -3.83422 0
M  V30 16132 H 1463.8 -0.902831 -3.95732 0
M  V30 16133 H 1464.57 -3.34585 -3.5111 0
M  V30 16134 H 1460.45 -2.23561 -4.03164 0
M  V30 16135 H 1463.99 -5.68776 -4.03906 0
M  V30 16136 H 1459.89 -4.5685 -4.56024 0
M  V30 16137 H 1460.66 -6.63057 -4.79893 0
M  V30 16138 N 1463.32 1.31536 -0.86811 0
M  V30 16139 C 1464.57 1.96386 -0.477176 0
M  V30 16140 C 1464.89 1.68968 0.973381 0
M  V30 16141 O 1464.16 1.00409 1.68211 0
M  V30 16142 H 1462.74 0.726579 -0.173468 0
M  V30 16143 H 1465.4 1.60377 -1.10749 0
M  V30 16144 H 1464.5 3.05606 -0.633376 0
M  V30 16145 N 1464.8 0.627364 1.44575 0
M  V30 16146 C 1466.04 0.130352 2.0208 0
M  V30 16147 C 1466.37 -1.24642 1.49314 0
M  V30 16148 O 1465.63 -1.84022 0.665923 0
M  V30 16149 C 1465.93 0.0622409 3.57346 0
M  V30 16150 C 1465.59 1.37729 4.2935 0
M  V30 16151 C 1464.25 1.73747 4.48737 0
M  V30 16152 C 1466.61 2.2455 4.70347 0
M  V30 16153 C 1463.93 2.96301 5.06382 0
M  V30 16154 C 1466.29 3.46371 5.29349 0
M  V30 16155 C 1464.95 3.82616 5.46956 0
M  V30 16156 H 1464.22 0.0476991 0.739463 0
M  V30 16157 H 1466.87 0.812928 1.73389 0
M  V30 16158 H 1465.17 -0.70369 3.85429 0
M  V30 16159 H 1466.87 -0.338778 3.99566 0
M  V30 16160 H 1463.46 1.08699 4.14587 0
M  V30 16161 H 1467.64 1.98019 4.55085 0
M  V30 16162 H 1462.9 3.24465 5.18201 0
M  V30 16163 H 1467.07 4.13882 5.60067 0
M  V30 16164 H 1464.7 4.77663 5.9139 0
M  V30 16165 N 1466.28 -1.53251 0.367684 0
M  V30 16166 C 1467.22 -2.258 -0.477802 0
M  V30 16167 C 1468.19 -1.26554 -1.07579 0
M  V30 16168 O 1469.38 -1.5534 -1.10788 0
M  V30 16169 C 1466.52 -3.05216 -1.6105 0
M  V30 16170 C 1465.63 -4.19357 -1.03748 0
M  V30 16171 C 1464.77 -4.86211 -2.13945 0
M  V30 16172 C 1463.8 -5.9238 -1.5412 0
M  V30 16173 N 1462.94 -6.52916 -2.58158 0
M  V30 16174 H 1467.78 -2.97635 0.147367 0
M  V30 16175 H 1465.32 -1.46857 0.084495 0
M  V30 16176 H 1467.28 -3.49536 -2.27772 0
M  V30 16177 H 1465.91 -2.35632 -2.20629 0
M  V30 16178 H 1464.96 -3.79507 -0.260476 0
M  V30 16179 H 1466.27 -4.95645 -0.560105 0
M  V30 16180 H 1465.42 -5.33725 -2.88483 0
M  V30 16181 H 1464.16 -4.09399 -2.65035 0
M  V30 16182 H 1463.17 -5.44225 -0.780968 0
M  V30 16183 H 1464.39 -6.71112 -1.03852 0
M  V30 16184 H 1462.34 -5.78956 -3.08457 0
M  V30 16185 H 1462.26 -7.2475 -2.15113 0
M  V30 16186 H 1463.52 -7.05079 -3.32392 0
M  V30 16187 N 1467.75 -0.0969077 -1.57302 0
M  V30 16188 C 1468.72 0.846895 -2.1298 0
M  V30 16189 C 1469.72 1.20962 -1.05947 0
M  V30 16190 O 1470.91 1.13876 -1.31826 0
M  V30 16191 C 1468.04 2.14215 -2.65188 0
M  V30 16192 H 1469.23 0.363398 -2.9769 0
M  V30 16193 H 1466.78 0.152107 -1.55558 0
M  V30 16194 H 1467.52 2.67046 -1.84002 0
M  V30 16195 H 1467.3 1.89176 -3.43445 0
M  V30 16196 H 1468.79 2.81728 -3.08252 0
M  V30 16197 N 1469.23 1.56605 0.176793 0
M  V30 16198 C 1470.46 1.85543 0.9087 0
M  V30 16199 C 1470.87 0.679554 1.76575 0
M  V30 16200 O 1470.21 -0.360668 1.80125 0
M  V30 16201 C 1470.27 3.08823 1.84034 0
M  V30 16202 C 1469.94 4.41942 1.16344 0
M  V30 16203 C 1470.94 5.17176 0.531526 0
M  V30 16204 C 1468.62 4.88679 1.16183 0
M  V30 16205 C 1470.61 6.37332 -0.0929601 0
M  V30 16206 C 1468.3 6.08767 0.533514 0
M  V30 16207 C 1469.3 6.82937 -0.0927812 0
M  V30 16208 O 1468.99 8.00748 -0.711202 0
M  V30 16209 H 1468.72 0.619862 0.269717 0
M  V30 16210 H 1471.27 2.04579 0.183414 0
M  V30 16211 H 1469.5 2.85718 2.6058 0
M  V30 16212 H 1471.19 3.24253 2.44161 0
M  V30 16213 H 1471.96 4.82152 0.524784 0
M  V30 16214 H 1467.84 4.30891 1.63871 0
M  V30 16215 H 1471.38 6.95165 -0.582409 0
M  V30 16216 H 1467.28 6.43256 0.537821 0
M  V30 16217 H 1468.05 8.16224 -0.609911 0
M  V30 16218 N 1470.71 -0.445159 1.51182 0
M  V30 16219 C 1471.96 -1.19524 1.63463 0
M  V30 16220 C 1472.28 -1.91377 0.347136 0
M  V30 16221 O 1471.54 -1.83932 -0.668408 0
M  V30 16222 C 1471.84 -2.24274 2.78273 0
M  V30 16223 C 1471.5 -1.6949 4.17833 0
M  V30 16224 C 1470.17 -1.54271 4.558 0
M  V30 16225 C 1472.52 -1.29128 5.04951 0
M  V30 16226 C 1469.85 -0.971532 5.786 0
M  V30 16227 C 1472.2 -0.734426 6.28322 0
M  V30 16228 C 1470.86 -0.569079 6.6507 0
M  V30 16229 H 1470.13 -0.437369 0.598155 0
M  V30 16230 H 1472.78 -0.48742 1.85193 0
M  V30 16231 H 1471.08 -3.01065 2.50734 0
M  V30 16232 H 1472.78 -2.82117 2.84975 0
M  V30 16233 H 1469.37 -1.82309 3.87894 0
M  V30 16234 H 1473.56 -1.39709 4.7623 0
M  V30 16235 H 1468.81 -0.831117 6.05725 0
M  V30 16236 H 1472.99 -0.413133 6.95173 0
M  V30 16237 H 1470.61 -0.124355 7.60098 0
M  V30 16238 N 1472.19 -1.41197 -0.700089 0
M  V30 16239 C 1473.41 -1.43856 -1.494 0
M  V30 16240 C 1473.84 -0.0441877 -1.88048 0
M  V30 16241 O 1473.2 0.951503 -1.54325 0
M  V30 16242 C 1473.24 -2.34913 -2.73584 0
M  V30 16243 O 1472.35 -1.80305 -3.70896 0
M  V30 16244 H 1471.69 -0.488412 -0.449833 0
M  V30 16245 H 1474.22 -1.85606 -0.860911 0
M  V30 16246 H 1474.23 -2.50633 -3.21943 0
M  V30 16247 H 1472.9 -3.36229 -2.44791 0
M  V30 16248 H 1471.48 -1.74012 -3.29809 0
M  V30 16249 N 1473.67 0.933891 -1.2695 0
M  V30 16250 C 1474.61 2.05498 -1.08964 0
M  V30 16251 C 1475.61 1.69394 -0.0144837 0
M  V30 16252 O 1476.81 1.79179 -0.171729 0
M  V30 16253 H 1473.19 0.672978 -0.335566 0
M  V30 16254 H 1475.16 2.17817 -2.03957 0
M  V30 16255 C 1473.91 3.39579 -0.747074 0
M  V30 16256 H 1473.23 3.67842 -1.56628 0
M  V30 16257 H 1474.67 4.18815 -0.661064 0
M  V30 16258 C 1473.13 3.3241 0.548214 0
M  V30 16259 O 1473.66 3.69132 1.58443 0
M  V30 16260 N 1471.87 2.85509 0.541545 0
M  V30 16261 H 1471.41 2.55822 -0.302112 0
M  V30 16262 H 1471.37 2.81095 1.4083 0
M  V30 16263 N 1475.14 1.08871 1.13951 0
M  V30 16264 C 1476.39 0.819665 1.84732 0
M  V30 16265 C 1476.71 -0.656535 1.83615 0
M  V30 16266 O 1475.98 -1.47614 1.28791 0
M  V30 16267 H 1474.56 0.30023 0.684011 0
M  V30 16268 H 1477.22 1.37568 1.38062 0
M  V30 16269 H 1476.32 1.16809 2.89417 0
M  V30 16270 N 1476.62 -1.31073 0.875073 0
M  V30 16271 C 1477.87 -1.97194 0.498612 0
M  V30 16272 C 1478.22 -1.67884 -0.939819 0
M  V30 16273 O 1477.52 -0.967708 -1.65366 0
M  V30 16274 C 1477.71 -3.50511 0.698351 0
M  V30 16275 C 1477.54 -3.94722 2.15465 0
M  V30 16276 C 1476.31 -4.2081 2.79726 0
M  V30 16277 C 1478.51 -4.08283 3.12745 0
M  V30 16278 N 1476.49 -4.51411 4.16055 0
M  V30 16279 C 1477.86 -4.42653 4.34117 0
M  V30 16280 C 1479.91 -3.90678 3.08667 0
M  V30 16281 C 1478.62 -4.61255 5.51939 0
M  V30 16282 C 1480.64 -4.10476 4.25751 0
M  V30 16283 C 1480.01 -4.45182 5.45887 0
M  V30 16284 H 1476.1 -0.74692 0.231592 0
M  V30 16285 H 1478.69 -1.585 1.13074 0
M  V30 16286 H 1476.86 -3.88282 0.0957804 0
M  V30 16287 H 1478.59 -4.03661 0.289771 0
M  V30 16288 H 1475.35 -4.13641 2.30648 0
M  V30 16289 H 1475.77 -4.70862 4.86434 0
M  V30 16290 H 1480.41 -3.6293 2.16892 0
M  V30 16291 H 1478.13 -4.8785 6.44227 0
M  V30 16292 H 1481.72 -3.98334 4.24054 0
M  V30 16293 H 1480.6 -4.60189 6.34977 0
M  V30 16294 N 1478.1 -0.635022 -1.4424 0
M  V30 16295 C 1479.33 -0.148045 -2.06069 0
M  V30 16296 C 1479.74 1.1842 -1.47558 0
M  V30 16297 O 1479.08 1.73817 -0.594425 0
M  V30 16298 C 1479.14 0.0369593 -3.59481 0
M  V30 16299 C 1478.81 -1.21773 -4.40478 0
M  V30 16300 C 1479.8 -2.14233 -4.73709 0
M  V30 16301 C 1477.49 -1.45423 -4.80788 0
M  V30 16302 C 1479.48 -3.2865 -5.46139 0
M  V30 16303 C 1477.17 -2.60136 -5.52967 0
M  V30 16304 C 1478.17 -3.51576 -5.85562 0
M  V30 16305 O 1477.86 -4.64289 -6.5627 0
M  V30 16306 H 1477.59 -0.0787231 -0.671401 0
M  V30 16307 H 1480.14 -0.870639 -1.86035 0
M  V30 16308 H 1478.37 0.814739 -3.7802 0
M  V30 16309 H 1480.06 0.478984 -4.03064 0
M  V30 16310 H 1480.83 -1.97196 -4.43101 0
M  V30 16311 H 1476.71 -0.751378 -4.54835 0
M  V30 16312 H 1480.25 -4.00043 -5.71499 0
M  V30 16313 H 1476.15 -2.77114 -5.82991 0
M  V30 16314 H 1476.92 -4.6332 -6.74742 0
M  V30 16315 N 1479.58 1.53054 -0.375806 0
M  V30 16316 C 1480.99 1.5958 -0.0251765 0
M  V30 16317 C 1481.19 1.39047 1.45836 0
M  V30 16318 O 1480.25 1.20073 2.22123 0
M  V30 16319 C 1481.56 2.96676 -0.490274 0
M  V30 16320 C 1483.11 3.09815 -0.44537 0
M  V30 16321 C 1483.59 4.4934 -0.886442 0
M  V30 16322 N 1485.08 4.55484 -0.84191 0
M  V30 16323 C 1485.81 5.61652 -1.15476 0
M  V30 16324 N 1485.31 6.75526 -1.53741 0
M  V30 16325 N 1487.1 5.51688 -1.07689 0
M  V30 16326 H 1479.25 1.64651 -1.34178 0
M  V30 16327 H 1481.52 0.77278 -0.549104 0
M  V30 16328 H 1481.22 3.16874 -1.52589 0
M  V30 16329 H 1481.1 3.77016 0.11776 0
M  V30 16330 H 1483.48 2.89321 0.581138 0
M  V30 16331 H 1483.56 2.3146 -1.08903 0
M  V30 16332 H 1483.21 4.70573 -1.91111 0
M  V30 16333 H 1483.14 5.26141 -0.219925 0
M  V30 16334 H 1485.63 3.73725 -0.56015 0
M  V30 16335 H 1485.94 7.52489 -1.76012 0
M  V30 16336 H 1484.29 6.76892 -1.57616 0
M  V30 16337 H 1487.48 4.61605 -0.777062 0
M  V30 16338 H 1487.65 6.34329 -1.32403 0
M  V30 16339 N 1481.06 0.105248 1.57248 0
M  V30 16340 C 1481.99 -0.846915 2.176 0
M  V30 16341 C 1482.97 -1.28706 1.11216 0
M  V30 16342 O 1484.15 -1.35213 1.39396 0
M  V30 16343 C 1481.28 -2.10228 2.76445 0
M  V30 16344 C 1480.24 -1.80041 3.8829 0
M  V30 16345 C 1479.56 -3.12491 4.33882 0
M  V30 16346 C 1480.86 -1.07943 5.11024 0
M  V30 16347 H 1482.56 -0.344052 2.97417 0
M  V30 16348 H 1480.1 -0.164045 1.43063 0
M  V30 16349 H 1482.06 -2.77284 3.17319 0
M  V30 16350 H 1480.78 -2.62815 1.93897 0
M  V30 16351 H 1479.44 -1.15379 3.4797 0
M  V30 16352 H 1479.09 -3.62985 3.48211 0
M  V30 16353 H 1478.79 -2.93072 5.09296 0
M  V30 16354 H 1480.31 -3.80688 4.77398 0
M  V30 16355 H 1481.72 -1.65127 5.49004 0
M  V30 16356 H 1480.12 -0.986674 5.91933 0
M  V30 16357 H 1481.19 -0.0638511 4.84858 0
M  V30 16358 N 1482.53 -1.56697 -0.168486 0
M  V30 16359 C 1483.81 -1.73032 -0.912097 0
M  V30 16360 C 1484.19 -0.667424 -2.00271 0
M  V30 16361 O 1483.54 0.317307 -2.26286 0
M  V30 16362 C 1483.75 -3.16334 -1.47424 0
M  V30 16363 C 1485.1 -3.77378 -1.94606 0
M  V30 16364 O 1486.12 -3.19629 -1.57212 0
M  V30 16365 O 1484.98 -4.78781 -2.63497 0
M  V30 16366 H 1482.07 -0.706713 -0.429518 0
M  V30 16367 H 1484.62 -1.68981 -0.156093 0
M  V30 16368 H 1483.39 -3.85179 -0.689421 0
M  V30 16369 H 1483.02 -3.24723 -2.29435 0
M  V30 16370 N 1484.01 0.437135 -1.51416 0
M  V30 16371 C 1485.26 1.18655 -1.64095 0
M  V30 16372 C 1485.59 1.9119 -0.35728 0
M  V30 16373 O 1484.84 1.84283 0.658644 0
M  V30 16374 C 1485.14 2.22795 -2.79458 0
M  V30 16375 C 1484.81 1.67271 -4.18726 0
M  V30 16376 C 1483.47 1.51852 -4.56612 0
M  V30 16377 C 1485.82 1.26448 -5.05629 0
M  V30 16378 C 1483.15 0.940834 -5.79107 0
M  V30 16379 C 1485.5 0.701095 -6.28703 0
M  V30 16380 C 1484.17 0.533801 -6.65362 0
M  V30 16381 H 1483.44 0.434191 -0.600466 0
M  V30 16382 H 1486.08 0.477592 -1.85449 0
M  V30 16383 H 1484.39 2.99731 -2.52327 0
M  V30 16384 H 1486.08 2.80602 -2.86467 0
M  V30 16385 H 1482.67 1.80249 -3.88855 0
M  V30 16386 H 1486.86 1.37182 -4.76964 0
M  V30 16387 H 1482.11 0.798982 -6.06157 0
M  V30 16388 H 1486.29 0.37626 -6.95383 0
M  V30 16389 H 1483.92 0.0840431 -7.60154 0
M  V30 16390 N 1485.49 1.41566 0.692592 0
M  V30 16391 C 1486.74 1.41292 1.4548 0
M  V30 16392 C 1487.07 0.0229093 1.94186 0
M  V30 16393 O 1486.34 -0.949849 1.6973 0
M  V30 16394 C 1486.63 2.42225 2.66457 0
M  V30 16395 C 1486.48 3.90345 2.23496 0
M  V30 16396 C 1487.8 2.40374 3.68658 0
M  V30 16397 H 1484.92 0.51453 0.527663 0
M  V30 16398 H 1487.56 1.72862 0.788598 0
M  V30 16399 H 1485.71 2.15435 3.23296 0
M  V30 16400 H 1487.38 4.2805 1.71962 0
M  V30 16401 H 1485.63 4.05068 1.55249 0
M  V30 16402 H 1486.3 4.56518 3.10314 0
M  V30 16403 H 1488.77 2.64156 3.21498 0
M  V30 16404 H 1487.65 3.13004 4.5091 0
M  V30 16405 H 1487.91 1.42338 4.1856 0
M  V30 16406 N 1486.97 -0.927146 1.27443 0
M  V30 16407 C 1488.21 -1.67738 1.13982 0
M  V30 16408 C 1488.55 -1.91653 -0.313511 0
M  V30 16409 O 1487.82 -1.50729 -1.22926 0
M  V30 16410 C 1488.11 -3.04357 1.92454 0
M  V30 16411 C 1487.96 -2.8768 3.45775 0
M  V30 16412 C 1489.28 -4.04696 1.72944 0
M  V30 16413 H 1486.4 -0.608749 0.415444 0
M  V30 16414 H 1489.04 -1.07587 1.56605 0
M  V30 16415 H 1487.19 -3.55702 1.56232 0
M  V30 16416 H 1488.86 -2.43449 3.9183 0
M  V30 16417 H 1487.1 -2.23011 3.72087 0
M  V30 16418 H 1487.77 -3.8464 3.95924 0
M  V30 16419 H 1490.25 -3.62364 2.04528 0
M  V30 16420 H 1489.13 -4.98276 2.30243 0
M  V30 16421 H 1489.39 -4.36878 0.677505 0
M  V30 16422 N 1488.45 -1.09474 -1.13372 0
M  V30 16423 C 1489.69 -0.832323 -1.84933 0
M  V30 16424 C 1490.03 0.640469 -1.83335 0
M  V30 16425 O 1489.3 1.47158 -1.2718 0
M  V30 16426 C 1489.58 -1.36876 -3.33072 0
M  V30 16427 C 1489.44 -2.90769 -3.43181 0
M  V30 16428 C 1490.76 -1.00294 -4.2852 0
M  V30 16429 H 1487.87 -0.30382 -0.671463 0
M  V30 16430 H 1490.52 -1.35622 -1.33066 0
M  V30 16431 H 1488.67 -0.923134 -3.77373 0
M  V30 16432 H 1490.34 -3.43784 -3.07588 0
M  V30 16433 H 1488.58 -3.27876 -2.84042 0
M  V30 16434 H 1489.25 -3.23381 -4.47358 0
M  V30 16435 H 1491.73 -1.38729 -3.92293 0
M  V30 16436 H 1490.6 -1.40533 -5.30605 0
M  V30 16437 H 1490.87 0.0888133 -4.42011 0
M  V30 16438 N 1489.92 1.30607 -0.882012 0
M  V30 16439 C 1491.17 1.95531 -0.495038 0
M  V30 16440 C 1491.49 1.70418 0.96005 0
M  V30 16441 O 1492.69 2.29301 1.45373 0
M  V30 16442 C 1491.15 3.50094 -0.834382 0
M  V30 16443 C 1490.76 3.84031 -2.30704 0
M  V30 16444 C 1492.5 4.21347 -0.516463 0
M  V30 16445 C 1490.41 5.31759 -2.58817 0
M  V30 16446 H 1489.34 0.731854 -0.181399 0
M  V30 16447 H 1491.99 1.486 -1.07658 0
M  V30 16448 H 1490.37 3.95582 -0.181961 0
M  V30 16449 H 1491.54 3.49463 -3.00353 0
M  V30 16450 H 1489.86 3.25874 -2.5922 0
M  V30 16451 H 1492.46 5.30051 -0.703576 0
M  V30 16452 H 1492.8 4.12731 0.543935 0
M  V30 16453 H 1493.33 3.81533 -1.12595 0
M  V30 16454 H 1490.07 5.45422 -3.63586 0
M  V30 16455 H 1489.59 5.67637 -1.93774 0
M  V30 16456 H 1491.27 5.9916 -2.44165 0
M  V30 16457 N 1491.4 0.642663 1.43901 0
M  V30 16458 C 1492.65 0.152003 2.0223 0
M  V30 16459 C 1492.98 -1.22711 1.50518 0
M  V30 16460 O 1492.26 -1.817 0.693937 0
M  V30 16461 C 1492.54 0.151278 3.59782 0
M  V30 16462 C 1492.39 1.56356 4.2175 0
M  V30 16463 C 1493.71 -0.518016 4.37041 0
M  V30 16464 H 1490.83 0.0567094 0.734815 0
M  V30 16465 H 1493.47 0.821337 1.7133 0
M  V30 16466 H 1491.62 -0.418679 3.86237 0
M  V30 16467 H 1493.29 2.18329 4.06362 0
M  V30 16468 H 1491.54 2.11401 3.78803 0
M  V30 16469 H 1492.21 1.51499 5.30803 0
M  V30 16470 H 1494.68 -0.0331947 4.16087 0
M  V30 16471 H 1493.56 -0.487754 5.46729 0
M  V30 16472 H 1493.82 -1.59036 4.12504 0
M  V30 16473 N 1492.88 -1.52852 0.383918 0
M  V30 16474 C 1494.13 -2.0151 -0.199989 0
M  V30 16475 C 1494.46 -1.27058 -1.47263 0
M  V30 16476 O 1493.71 -0.357819 -1.92401 0
M  V30 16477 C 1494.01 -3.53602 -0.519674 0
M  V30 16478 C 1493.68 -4.46032 0.660789 0
M  V30 16479 C 1492.34 -4.71018 0.984646 0
M  V30 16480 C 1494.69 -5.00602 1.45077 0
M  V30 16481 C 1492.02 -5.47824 2.10013 0
M  V30 16482 C 1494.37 -5.78627 2.55682 0
M  V30 16483 C 1493.03 -6.01894 2.88582 0
M  V30 16484 H 1492.3 -0.737377 -0.0731812 0
M  V30 16485 H 1494.95 -1.843 0.520157 0
M  V30 16486 H 1493.26 -3.68856 -1.32108 0
M  V30 16487 H 1494.95 -3.88739 -0.984011 0
M  V30 16488 H 1491.54 -4.26745 0.398359 0
M  V30 16489 H 1495.73 -4.81228 1.21381 0
M  V30 16490 H 1490.98 -5.64066 2.3588 0
M  V30 16491 H 1495.16 -6.19914 3.173 0
M  V30 16492 H 1492.78 -6.61192 3.75138 0
M  V30 16493 N 1494.36 -0.113586 -1.5719 0
M  V30 16494 C 1495.6 0.548872 -1.96893 0
M  V30 16495 C 1495.96 1.64191 -0.99525 0
M  V30 16496 O 1497.16 2.36289 -1.28145 0
M  V30 16497 C 1495.44 1.07279 -3.40919 0
M  V30 16498 S 1496.99 1.74453 -4.02631 0
M  V30 16499 H 1493.81 0.178565 -0.688212 0
M  V30 16500 H 1496.41 -0.197382 -1.94501 0
M  V30 16501 H 1495.12 0.266019 -4.09537 0
M  V30 16502 H 1494.65 1.85444 -3.46949 0
M  V30 16503 H 1496.66 3.02998 -3.92946 0
M  V30 16504 N 1495.84 1.56784 0.160173 0
M  V30 16505 C 1496.77 2.00298 1.20012 0
M  V30 16506 C 1497.75 0.880356 1.45546 0
M  V30 16507 O 1498.93 1.14724 1.56691 0
M  V30 16508 C 1496.06 2.37238 2.53645 0
M  V30 16509 C 1495.02 3.52563 2.42658 0
M  V30 16510 C 1494.34 3.75278 3.80881 0
M  V30 16511 C 1495.64 4.85657 1.92183 0
M  V30 16512 H 1497.34 2.87423 0.838362 0
M  V30 16513 H 1494.88 1.3828 0.401838 0
M  V30 16514 H 1496.84 2.66278 3.2661 0
M  V30 16515 H 1495.56 1.47035 2.9163 0
M  V30 16516 H 1494.22 3.23669 1.72146 0
M  V30 16517 H 1493.87 2.82347 4.1628 0
M  V30 16518 H 1493.57 4.52882 3.74396 0
M  V30 16519 H 1495.09 4.0673 4.55415 0
M  V30 16520 H 1496.51 5.13501 2.54931 0
M  V30 16521 H 1494.9 5.66975 1.96619 0
M  V30 16522 H 1495.97 4.76908 0.876742 0
M  V30 16523 N 1497.32 -0.429099 1.51646 0
M  V30 16524 C 1498.54 -1.20465 1.68828 0
M  V30 16525 C 1498.97 -1.84044 0.388514 0
M  V30 16526 O 1498.32 -1.69165 -0.652152 0
M  V30 16527 C 1498.37 -2.25831 2.81128 0
M  V30 16528 O 1497.48 -3.31511 2.45305 0
M  V30 16529 H 1496.82 -0.352568 0.562665 0
M  V30 16530 H 1499.35 -0.505698 1.98252 0
M  V30 16531 H 1499.36 -2.70484 3.05455 0
M  V30 16532 H 1498.03 -1.78934 3.7544 0
M  V30 16533 H 1496.61 -2.92277 2.31579 0
M  V30 16534 N 1498.79 -1.41931 -0.685074 0
M  V30 16535 C 1499.72 -1.47385 -1.81107 0
M  V30 16536 C 1500.7 -0.331433 -1.6684 0
M  V30 16537 O 1501.89 -0.544331 -1.86415 0
M  V30 16538 C 1499.02 -1.36555 -3.19327 0
M  V30 16539 C 1497.97 -2.48718 -3.48315 0
M  V30 16540 C 1497.3 -2.2295 -4.86002 0
M  V30 16541 C 1498.6 -3.91047 -3.46237 0
M  V30 16542 H 1500.29 -2.41624 -1.768 0
M  V30 16543 H 1497.84 -1.16297 -0.849178 0
M  V30 16544 H 1499.79 -1.38981 -3.97822 0
M  V30 16545 H 1498.52 -0.388063 -3.24286 0
M  V30 16546 H 1497.18 -2.45592 -2.72176 0
M  V30 16547 H 1496.82 -1.23518 -4.87598 0
M  V30 16548 H 1496.52 -2.98116 -5.0636 0
M  V30 16549 H 1498.05 -2.27108 -5.66793 0
M  V30 16550 H 1499.46 -3.95831 -4.14718 0
M  V30 16551 H 1497.86 -4.65981 -3.7813 0
M  V30 16552 H 1498.93 -4.1845 -2.45006 0
M  V30 16553 N 1500.27 0.920374 -1.27933 0
M  V30 16554 C 1501.52 1.66338 -1.14081 0
M  V30 16555 C 1501.83 1.93107 0.311324 0
M  V30 16556 O 1503.04 2.65431 0.570862 0
M  V30 16557 C 1501.5 2.99624 -1.99383 0
M  V30 16558 C 1501.1 2.80527 -3.49297 0
M  V30 16559 C 1502.85 3.77474 -1.94199 0
M  V30 16560 C 1500.75 4.09413 -4.26773 0
M  V30 16561 H 1499.68 0.623935 -0.423346 0
M  V30 16562 H 1502.34 1.0219 -1.52412 0
M  V30 16563 H 1500.72 3.6487 -1.53902 0
M  V30 16564 H 1501.89 2.24002 -4.02691 0
M  V30 16565 H 1500.21 2.16097 -3.55937 0
M  V30 16566 H 1502.8 4.72997 -2.49356 0
M  V30 16567 H 1503.15 4.06069 -0.917249 0
M  V30 16568 H 1503.68 3.19036 -2.37614 0
M  V30 16569 H 1500.42 3.85994 -5.29801 0
M  V30 16570 H 1499.94 4.65574 -3.78155 0
M  V30 16571 H 1501.62 4.77721 -4.36339 0
M  V30 16572 N 1501.75 1.10074 1.1279 0
M  V30 16573 C 1503 0.839212 1.83852 0
M  V30 16574 C 1503.32 -0.637023 1.84301 0
M  V30 16575 O 1502.59 -1.46239 1.30349 0
M  V30 16576 H 1501.17 0.307468 0.680788 0
M  V30 16577 H 1503.83 1.39025 1.36595 0
M  V30 16578 H 1502.93 1.19872 2.88162 0
M  V30 16579 N 1503.23 -1.30138 0.888926 0
M  V30 16580 C 1504.17 -2.28023 0.356923 0
M  V30 16581 C 1505.14 -1.56551 -0.555066 0
M  V30 16582 O 1506.33 -1.84595 -0.482633 0
M  V30 16583 C 1503.47 -3.42546 -0.419056 0
M  V30 16584 C 1502.58 -4.28827 0.5226 0
M  V30 16585 C 1501.72 -5.30517 -0.269366 0
M  V30 16586 C 1500.76 -6.08449 0.667507 0
M  V30 16587 N 1499.89 -7.02043 -0.08938 0
M  V30 16588 H 1504.73 -2.72912 1.19678 0
M  V30 16589 H 1502.27 -1.34239 0.60152 0
M  V30 16590 H 1504.23 -4.07707 -0.884911 0
M  V30 16591 H 1502.86 -2.98716 -1.22346 0
M  V30 16592 H 1501.91 -3.63938 1.10695 0
M  V30 16593 H 1503.22 -4.83136 1.24018 0
M  V30 16594 H 1502.38 -6.01444 -0.796901 0
M  V30 16595 H 1501.12 -4.76911 -1.02014 0
M  V30 16596 H 1500.12 -5.36396 1.20664 0
M  V30 16597 H 1501.35 -6.64143 1.41744 0
M  V30 16598 H 1499.29 -6.50822 -0.822622 0
M  V30 16599 H 1499.21 -7.53859 0.568499 0
M  V30 16600 H 1500.48 -7.77206 -0.597529 0
M  V30 16601 N 1504.71 -0.650285 -1.43559 0
M  V30 16602 C 1505.93 -0.170139 -2.06199 0
M  V30 16603 C 1506.35 1.16304 -1.48724 0
M  V30 16604 O 1505.71 1.71739 -0.617418 0
M  V30 16605 C 1505.76 -0.0698577 -3.61432 0
M  V30 16606 O 1505.48 -1.35033 -4.16771 0
M  V30 16607 C 1506.98 0.436714 -4.41144 0
M  V30 16608 H 1504.2 -0.0885316 -0.665134 0
M  V30 16609 H 1506.74 -0.890104 -1.84112 0
M  V30 16610 H 1504.9 0.60065 -3.82715 0
M  V30 16611 H 1505.31 -1.20762 -5.10409 0
M  V30 16612 H 1506.79 0.455843 -5.50115 0
M  V30 16613 H 1507.26 1.46747 -4.13959 0
M  V30 16614 H 1507.87 -0.201201 -4.24824 0
M  V30 16615 N 1506.18 1.52647 -0.392018 0
M  V30 16616 C 1507.6 1.59544 -0.0421007 0
M  V30 16617 C 1507.8 1.40586 1.44353 0
M  V30 16618 O 1506.86 1.22422 2.20837 0
M  V30 16619 C 1508.17 2.9614 -0.521713 0
M  V30 16620 C 1509.72 3.09325 -0.478205 0
M  V30 16621 C 1510.19 4.48374 -0.93405 0
M  V30 16622 N 1511.68 4.54566 -0.890173 0
M  V30 16623 C 1512.42 5.60395 -1.21427 0
M  V30 16624 N 1511.91 6.73858 -1.60897 0
M  V30 16625 N 1513.71 5.50515 -1.13534 0
M  V30 16626 H 1505.86 1.63219 -1.35917 0
M  V30 16627 H 1508.12 0.766913 -0.557269 0
M  V30 16628 H 1507.83 3.15238 -1.55942 0
M  V30 16629 H 1507.7 3.7712 0.0777658 0
M  V30 16630 H 1510.09 2.89921 0.550418 0
M  V30 16631 H 1510.17 2.30292 -1.11352 0
M  V30 16632 H 1509.81 4.68519 -1.96092 0
M  V30 16633 H 1509.74 5.25878 -0.275717 0
M  V30 16634 H 1512.23 3.7311 -0.599758 0
M  V30 16635 H 1512.55 7.5058 -1.83983 0
M  V30 16636 H 1510.89 6.75182 -1.64786 0
M  V30 16637 H 1514.08 4.60755 -0.825977 0
M  V30 16638 H 1514.26 6.32889 -1.39124 0
M  V30 16639 N 1507.66 0.121921 1.57128 0
M  V30 16640 C 1508.57 -0.840825 2.19014 0
M  V30 16641 C 1509.59 -1.29051 1.16712 0
M  V30 16642 O 1510.76 -1.35289 1.49194 0
M  V30 16643 C 1507.83 -2.07204 2.7797 0
M  V30 16644 C 1506.89 -1.67399 3.95318 0
M  V30 16645 C 1506.12 -2.84652 4.51452 0
M  V30 16646 O 1506.35 -4.00161 4.06482 0
M  V30 16647 O 1505.28 -2.61568 5.42094 0
M  V30 16648 H 1509.11 -0.344146 3.01744 0
M  V30 16649 H 1506.69 -0.103841 1.49039 0
M  V30 16650 H 1508.57 -2.79307 3.1554 0
M  V30 16651 H 1507.25 -2.55872 1.9827 0
M  V30 16652 H 1506.16 -0.92395 3.62511 0
M  V30 16653 H 1507.49 -1.2347 4.76462 0
M  V30 16654 N 1509.14 -1.56867 -0.151857 0
M  V30 16655 C 1510.05 -2.01157 -1.20718 0
M  V30 16656 C 1511.07 -0.926166 -1.47303 0
M  V30 16657 O 1512.24 -1.23528 -1.59069 0
M  V30 16658 C 1509.31 -2.37915 -2.52185 0
M  V30 16659 C 1508.37 -3.60381 -2.3329 0
M  V30 16660 C 1507.6 -3.95376 -3.58488 0
M  V30 16661 O 1507.82 -3.31093 -4.64471 0
M  V30 16662 O 1506.76 -4.88645 -3.5144 0
M  V30 16663 H 1510.58 -2.91234 -0.861175 0
M  V30 16664 H 1508.17 -1.44993 -0.360213 0
M  V30 16665 H 1510.05 -2.6244 -3.29702 0
M  V30 16666 H 1508.73 -1.50995 -2.86325 0
M  V30 16667 H 1507.63 -3.4105 -1.5374 0
M  V30 16668 H 1508.97 -4.47903 -2.04067 0
M  V30 16669 N 1510.62 0.421051 -1.51871 0
M  V30 16670 C 1511.55 1.51928 -1.77313 0
M  V30 16671 C 1512.53 1.58258 -0.623579 0
M  V30 16672 O 1513.71 1.73724 -0.867967 0
M  V30 16673 C 1510.84 2.89865 -1.913 0
M  V30 16674 C 1509.8 2.98391 -3.06834 0
M  V30 16675 C 1509.12 4.38466 -3.06026 0
M  V30 16676 C 1510.42 2.7097 -4.46511 0
M  V30 16677 H 1512.12 1.30889 -2.69274 0
M  V30 16678 H 1509.66 0.628229 -1.29573 0
M  V30 16679 H 1511.62 3.66669 -2.07682 0
M  V30 16680 H 1510.34 3.12172 -0.960011 0
M  V30 16681 H 1509 2.24029 -2.90184 0
M  V30 16682 H 1508.65 4.57764 -2.08472 0
M  V30 16683 H 1508.35 4.45097 -3.83618 0
M  V30 16684 H 1509.87 5.17221 -3.24522 0
M  V30 16685 H 1511.29 3.37501 -4.63428 0
M  V30 16686 H 1509.68 2.88992 -5.25931 0
M  V30 16687 H 1510.75 1.66476 -4.55427 0
M  V30 16688 N 1512.1 1.42293 0.677538 0
M  V30 16689 C 1513.04 1.45556 1.79114 0
M  V30 16690 C 1514.01 0.307826 1.63223 0
M  V30 16691 O 1515.2 0.511504 1.83816 0
M  V30 16692 C 1512.34 1.36104 3.17127 0
M  V30 16693 C 1511.45 2.60891 3.44325 0
M  V30 16694 C 1510.59 2.43601 4.72051 0
M  V30 16695 C 1509.63 3.63775 4.92274 0
M  V30 16696 N 1508.76 3.45444 6.11239 0
M  V30 16697 H 1513.6 2.40723 1.7566 0
M  V30 16698 H 1511.14 1.19517 0.857565 0
M  V30 16699 H 1513.1 1.28622 3.96878 0
M  V30 16700 H 1511.73 0.445342 3.19713 0
M  V30 16701 H 1510.78 2.78751 2.58848 0
M  V30 16702 H 1512.09 3.50229 3.55163 0
M  V30 16703 H 1511.25 2.33689 5.59888 0
M  V30 16704 H 1509.98 1.51748 4.63491 0
M  V30 16705 H 1508.99 3.74122 4.0288 0
M  V30 16706 H 1510.21 4.56605 5.02681 0
M  V30 16707 H 1508.16 2.56306 6.03857 0
M  V30 16708 H 1508.08 4.28368 6.22926 0
M  V30 16709 H 1509.35 3.39339 7.01762 0
M  V30 16710 N 1513.57 -0.913576 1.28419 0
M  V30 16711 C 1514.99 -1.47782 1.14094 0
M  V30 16712 C 1515.34 -1.94347 -0.269004 0
M  V30 16713 O 1514.46 -1.82474 -1.16328 0
M  V30 16714 C 1515.06 -2.6859 2.06507 0
M  V30 16715 C 1513.62 -3.21193 1.96245 0
M  V30 16716 C 1512.76 -1.939 1.98238 0
M  V30 16717 H 1515.71 -0.726271 1.41106 0
M  V30 16718 H 1515.73 -3.43858 1.62916 0
M  V30 16719 H 1515.25 -2.34668 3.09116 0
M  V30 16720 H 1513.35 -3.5984 0.966737 0
M  V30 16721 H 1513.46 -3.8643 2.83211 0
M  V30 16722 H 1511.82 -2.11006 1.42648 0
M  V30 16723 H 1512.61 -1.62273 3.02527 0
M  V30 16724 N 1515.05 -1.1067 -1.12204 0
M  V30 16725 C 1515.98 -0.779829 -2.20093 0
M  V30 16726 C 1516.96 0.248279 -1.68278 0
M  V30 16727 O 1518.15 0.113511 -1.93868 0
M  V30 16728 C 1515.28 -0.213511 -3.46643 0
M  V30 16729 C 1514.23 -1.17258 -4.11624 0
M  V30 16730 C 1513.56 -0.467352 -5.32654 0
M  V30 16731 C 1514.86 -2.52014 -4.57478 0
M  V30 16732 H 1516.55 -1.68192 -2.47693 0
M  V30 16733 H 1514.1 -0.810131 -1.1905 0
M  V30 16734 H 1516.05 0.0273225 -4.21391 0
M  V30 16735 H 1514.78 0.723837 -3.18478 0
M  V30 16736 H 1513.43 -1.39891 -3.3886 0
M  V30 16737 H 1513.08 0.474547 -5.00756 0
M  V30 16738 H 1512.78 -1.10694 -5.77079 0
M  V30 16739 H 1514.31 -0.235122 -6.10147 0
M  V30 16740 H 1515.72 -2.33516 -5.23587 0
M  V30 16741 H 1514.12 -3.1188 -5.1269 0
M  V30 16742 H 1515.19 -3.11831 -3.71335 0
M  V30 16743 N 1516.53 1.29665 -0.895815 0
M  V30 16744 C 1517.78 1.94995 -0.515749 0
M  V30 16745 C 1518.09 1.71427 0.94192 0
M  V30 16746 O 1519.3 2.3083 1.42933 0
M  V30 16747 C 1517.75 3.4919 -0.871468 0
M  V30 16748 C 1517.36 3.81562 -2.34764 0
M  V30 16749 C 1519.11 4.20775 -0.561123 0
M  V30 16750 C 1517.01 5.28984 -2.64442 0
M  V30 16751 H 1515.94 0.729889 -0.189151 0
M  V30 16752 H 1518.59 1.4745 -1.09228 0
M  V30 16753 H 1516.98 3.95366 -0.223908 0
M  V30 16754 H 1518.15 3.46258 -3.04043 0
M  V30 16755 H 1516.47 3.23107 -2.62661 0
M  V30 16756 H 1519.06 5.29275 -0.759755 0
M  V30 16757 H 1519.41 4.13285 0.500129 0
M  V30 16758 H 1519.94 3.80317 -1.16635 0
M  V30 16759 H 1516.68 5.41535 -3.69351 0
M  V30 16760 H 1516.2 5.6555 -1.99784 0
M  V30 16761 H 1517.88 5.96536 -2.50506 0
M  V30 16762 N 1518.01 0.657889 1.43212 0
M  V30 16763 C 1519.23 0.179444 2.06622 0
M  V30 16764 C 1519.66 -1.14787 1.49015 0
M  V30 16765 O 1519.02 -1.71016 0.60192 0
M  V30 16766 C 1519.06 0.106826 3.60442 0
M  V30 16767 O 1518.17 -0.92962 4.01786 0
M  V30 16768 H 1517.51 0.0970131 0.656875 0
M  V30 16769 H 1520.04 0.902132 1.83638 0
M  V30 16770 H 1520.05 -0.07495 4.07931 0
M  V30 16771 H 1518.72 1.07574 4.01747 0
M  V30 16772 H 1517.3 -0.720255 3.65878 0
M  V30 16773 N 1519.49 -1.52437 0.400108 0
M  V30 16774 C 1520.42 -2.23219 -0.474176 0
M  V30 16775 C 1521.4 -1.23699 -1.05533 0
M  V30 16776 O 1522.58 -1.52721 -1.10492 0
M  V30 16777 C 1519.71 -2.95381 -1.65734 0
M  V30 16778 C 1518.75 -4.09258 -1.20042 0
M  V30 16779 S 1519.59 -5.3522 -0.173016 0
M  V30 16780 C 1520.74 -6.10908 -1.36171 0
M  V30 16781 H 1520.98 -2.97029 0.126865 0
M  V30 16782 H 1518.51 -1.53295 0.184353 0
M  V30 16783 H 1520.47 -3.37564 -2.33583 0
M  V30 16784 H 1519.13 -2.21231 -2.2297 0
M  V30 16785 H 1518.32 -4.5889 -2.08413 0
M  V30 16786 H 1517.92 -3.69144 -0.600704 0
M  V30 16787 H 1520.22 -6.37735 -2.28691 0
M  V30 16788 H 1521.16 -7.02279 -0.906106 0
M  V30 16789 H 1521.57 -5.41838 -1.58342 0
M  V30 16790 N 1520.96 -0.130252 -1.57061 0
M  V30 16791 C 1521.91 0.815767 -2.15902 0
M  V30 16792 C 1522.88 1.2558 -1.08715 0
M  V30 16793 O 1524.07 1.33132 -1.36677 0
M  V30 16794 C 1521.21 2.0561 -2.77162 0
M  V30 16795 C 1520.32 1.6634 -3.98692 0
M  V30 16796 C 1519.45 2.85425 -4.48002 0
M  V30 16797 C 1518.49 2.42449 -5.62036 0
M  V30 16798 N 1517.63 3.54486 -6.0604 0
M  V30 16799 H 1522.47 0.307164 -2.96413 0
M  V30 16800 H 1520.01 0.139913 -1.46433 0
M  V30 16801 H 1521.97 2.78298 -3.10815 0
M  V30 16802 H 1520.6 2.5391 -1.99323 0
M  V30 16803 H 1519.65 0.834817 -3.71127 0
M  V30 16804 H 1520.96 1.30765 -4.81354 0
M  V30 16805 H 1520.11 3.66325 -4.83623 0
M  V30 16806 H 1518.85 3.24235 -3.64312 0
M  V30 16807 H 1517.86 1.59985 -5.26008 0
M  V30 16808 H 1519.08 2.04744 -6.475 0
M  V30 16809 H 1517.03 3.92948 -5.25289 0
M  V30 16810 H 1516.95 3.22871 -6.83586 0
M  V30 16811 H 1518.21 4.35792 -6.46302 0
M  V30 16812 N 1522.44 1.56945 0.143535 0
M  V30 16813 C 1523.69 1.83538 0.855563 0
M  V30 16814 C 1524.02 0.711666 1.81013 0
M  V30 16815 O 1523.27 -0.299039 1.93402 0
M  V30 16816 C 1523.57 3.16482 1.66054 0
M  V30 16817 C 1523.24 4.42768 0.85246 0
M  V30 16818 C 1521.9 4.77064 0.629535 0
M  V30 16819 C 1524.25 5.20406 0.287567 0
M  V30 16820 C 1521.58 5.86457 -0.168934 0
M  V30 16821 C 1523.93 6.30637 -0.49796 0
M  V30 16822 C 1522.6 6.6348 -0.731429 0
M  V30 16823 H 1521.87 0.671615 0.313073 0
M  V30 16824 H 1524.51 1.9113 0.11904 0
M  V30 16825 H 1522.82 3.04357 2.46727 0
M  V30 16826 H 1524.52 3.34274 2.215 0
M  V30 16827 H 1521.11 4.15884 1.03628 0
M  V30 16828 H 1525.29 4.94282 0.447066 0
M  V30 16829 H 1520.55 6.10343 -0.359283 0
M  V30 16830 H 1524.72 6.89989 -0.942792 0
M  V30 16831 H 1522.35 7.48081 -1.35199 0
M  V30 16832 N 1523.92 -0.412991 1.52093 0
M  V30 16833 C 1524.85 -1.50986 1.78117 0
M  V30 16834 C 1525.83 -1.57925 0.631963 0
M  V30 16835 O 1527.02 -1.73261 0.877168 0
M  V30 16836 C 1524.15 -2.88846 1.92835 0
M  V30 16837 C 1523.1 -2.96759 3.08412 0
M  V30 16838 C 1522.43 -4.36837 3.08347 0
M  V30 16839 C 1523.73 -2.68599 4.47942 0
M  V30 16840 H 1525.42 -1.29459 2.69964 0
M  V30 16841 H 1522.97 -0.621348 1.29905 0
M  V30 16842 H 1524.92 -3.65563 2.09623 0
M  V30 16843 H 1523.64 -3.11658 0.976553 0
M  V30 16844 H 1522.3 -2.22487 2.91368 0
M  V30 16845 H 1521.95 -4.56652 2.10897 0
M  V30 16846 H 1521.65 -4.43056 3.85973 0
M  V30 16847 H 1523.18 -5.15493 3.2726 0
M  V30 16848 H 1524.59 -3.35039 4.65212 0
M  V30 16849 H 1522.99 -2.86199 5.27456 0
M  V30 16850 H 1524.06 -1.64058 4.56304 0
M  V30 16851 N 1525.4 -1.4265 -0.669982 0
M  V30 16852 C 1526.82 -1.25682 -0.983682 0
M  V30 16853 C 1527.02 -0.164456 -2.00828 0
M  V30 16854 O 1526.07 0.462711 -2.48224 0
M  V30 16855 C 1527.38 -2.61536 -1.4839 0
M  V30 16856 C 1528.93 -2.6893 -1.60143 0
M  V30 16857 C 1529.41 -4.05162 -2.1356 0
M  V30 16858 N 1530.9 -4.07141 -2.20886 0
M  V30 16859 C 1531.63 -5.09371 -2.63303 0
M  V30 16860 N 1531.13 -6.21983 -3.05137 0
M  V30 16861 N 1532.92 -4.96727 -2.63094 0
M  V30 16862 H 1525.07 -2.12398 0.0083059 0
M  V30 16863 H 1527.34 -0.946173 -0.058823 0
M  V30 16864 H 1527.04 -3.42351 -0.805527 0
M  V30 16865 H 1526.92 -2.85786 -2.46183 0
M  V30 16866 H 1529.3 -1.88457 -2.27085 0
M  V30 16867 H 1529.38 -2.48463 -0.608266 0
M  V30 16868 H 1529.03 -4.86094 -1.47224 0
M  V30 16869 H 1528.96 -4.22984 -3.13676 0
M  V30 16870 H 1531.45 -3.25846 -1.91396 0
M  V30 16871 H 1531.76 -6.95835 -3.36204 0
M  V30 16872 H 1530.11 -6.25481 -3.02983 0
M  V30 16873 H 1533.3 -4.07824 -2.29777 0
M  V30 16874 H 1533.47 -5.76531 -2.95831 0
M  V30 16875 N 1526.88 0.906753 -1.28902 0
M  V30 16876 C 1528.29 1.47175 -1.14876 0
M  V30 16877 C 1528.64 1.94487 0.258693 0
M  V30 16878 O 1527.76 1.83088 1.15359 0
M  V30 16879 C 1528.36 2.67491 -2.07928 0
M  V30 16880 C 1526.92 3.20148 -1.97946 0
M  V30 16881 C 1526.07 1.92846 -1.99263 0
M  V30 16882 H 1529.02 0.718777 -1.4149 0
M  V30 16883 H 1529.04 3.42989 -1.64738 0
M  V30 16884 H 1528.55 2.33025 -3.10356 0
M  V30 16885 H 1526.65 3.59322 -0.985806 0
M  V30 16886 H 1526.76 3.84923 -2.85256 0
M  V30 16887 H 1525.13 2.10247 -1.43765 0
M  V30 16888 H 1525.91 1.60666 -3.03383 0
M  V30 16889 N 1528.36 1.11264 1.11616 0
M  V30 16890 C 1529.29 0.79149 2.19676 0
M  V30 16891 C 1530.27 -0.239351 1.68408 0
M  V30 16892 O 1531.45 -0.103228 1.93925 0
M  V30 16893 C 1528.58 0.231891 3.46525 0
M  V30 16894 C 1527.54 1.19439 4.10997 0
M  V30 16895 C 1526.86 0.495593 5.32398 0
M  V30 16896 C 1528.16 2.54437 4.56135 0
M  V30 16897 H 1529.86 1.69503 2.46797 0
M  V30 16898 H 1527.4 0.816433 1.18619 0
M  V30 16899 H 1529.35 -0.00497468 4.214 0
M  V30 16900 H 1528.08 -0.706938 3.18857 0
M  V30 16901 H 1526.74 1.41686 3.38113 0
M  V30 16902 H 1526.39 -0.447984 5.01001 0
M  V30 16903 H 1526.09 1.13753 5.76484 0
M  V30 16904 H 1527.61 0.267476 6.10014 0
M  V30 16905 H 1529.02 2.36289 5.22341 0
M  V30 16906 H 1527.42 3.14595 5.11028 0
M  V30 16907 H 1528.49 3.13795 3.69676 0
M  V30 16908 N 1529.83 -1.29188 0.902679 0
M  V30 16909 C 1531.25 -1.47924 0.599209 0
M  V30 16910 C 1531.45 -1.82297 -0.858494 0
M  V30 16911 O 1530.51 -1.92123 -1.63845 0
M  V30 16912 C 1531.82 -2.59008 1.52759 0
M  V30 16913 C 1533.37 -2.72882 1.53312 0
M  V30 16914 C 1533.84 -3.87097 2.44785 0
M  V30 16915 N 1535.33 -3.94435 2.42849 0
M  V30 16916 C 1536.07 -4.82165 3.1033 0
M  V30 16917 N 1535.56 -5.74565 3.87101 0
M  V30 16918 N 1537.36 -4.75681 2.99473 0
M  V30 16919 H 1529.51 -1.05154 1.84544 0
M  V30 16920 H 1531.77 -0.522632 0.790924 0
M  V30 16921 H 1531.48 -2.40483 2.56634 0
M  V30 16922 H 1531.35 -3.55873 1.25036 0
M  V30 16923 H 1533.74 -2.90802 0.501804 0
M  V30 16924 H 1533.82 -1.76582 1.85074 0
M  V30 16925 H 1533.46 -3.69932 3.48012 0
M  V30 16926 H 1533.39 -4.82772 2.10331 0
M  V30 16927 H 1535.88 -3.28347 1.87074 0
M  V30 16928 H 1536.2 -6.3831 4.35638 0
M  V30 16929 H 1534.54 -5.74441 3.91207 0
M  V30 16930 H 1537.73 -4.02483 2.39009 0
M  V30 16931 H 1537.91 -5.4384 3.52337 0
M  V30 16932 N 1531.31 -0.665475 -1.42861 0
M  V30 16933 C 1532.56 -0.184156 -2.01962 0
M  V30 16934 C 1532.89 1.20301 -1.52451 0
M  V30 16935 O 1532.17 1.80573 -0.722756 0
M  V30 16936 C 1532.45 -0.208497 -3.59496 0
M  V30 16937 C 1532.3 -1.63045 -4.19209 0
M  V30 16938 C 1533.62 0.448421 -4.3781 0
M  V30 16939 H 1530.74 -0.0683924 -0.73382 0
M  V30 16940 H 1533.38 -0.84849 -1.70002 0
M  V30 16941 H 1531.53 0.357179 -3.86855 0
M  V30 16942 H 1533.2 -2.24766 -4.02837 0
M  V30 16943 H 1531.45 -2.17401 -3.75392 0
M  V30 16944 H 1532.12 -1.59924 -5.28326 0
M  V30 16945 H 1534.59 -0.0330053 -4.16087 0
M  V30 16946 H 1533.47 0.400713 -5.47435 0
M  V30 16947 H 1533.73 1.52454 -4.14982 0
M  V30 16948 N 1532.79 1.52222 -0.408187 0
M  V30 16949 C 1533.72 2.29892 0.408868 0
M  V30 16950 C 1534.7 1.34063 1.04695 0
M  V30 16951 O 1535.89 1.6297 1.05615 0
M  V30 16952 C 1533.02 3.11964 1.52629 0
M  V30 16953 C 1531.97 4.15833 1.01326 0
M  V30 16954 C 1531.3 4.86244 2.2242 0
M  V30 16955 C 1532.6 5.22256 0.0679573 0
M  V30 16956 H 1534.29 2.98443 -0.23923 0
M  V30 16957 H 1531.84 1.43528 -0.116496 0
M  V30 16958 H 1533.79 3.65067 2.10486 0
M  V30 16959 H 1532.51 2.41181 2.20225 0
M  V30 16960 H 1531.17 3.63739 0.4571 0
M  V30 16961 H 1530.82 4.11991 2.88569 0
M  V30 16962 H 1530.52 5.56461 1.88746 0
M  V30 16963 H 1532.04 5.42159 2.80885 0
M  V30 16964 H 1533.46 5.70604 0.555295 0
M  V30 16965 H 1531.85 5.9983 -0.179934 0
M  V30 16966 H 1532.92 4.76892 -0.877599 0
M  V30 16967 N 1534.27 0.138579 1.5699 0
M  V30 16968 C 1535.49 -0.525074 2.00643 0
M  V30 16969 C 1535.92 -1.58174 1.01796 0
M  V30 16970 O 1535.28 -1.81298 -0.00754003 0
M  V30 16971 C 1535.32 -1.11019 3.43085 0
M  V30 16972 O 1534.43 -2.22529 3.4721 0
M  V30 16973 H 1533.77 -0.129283 0.651292 0
M  V30 16974 H 1536.3 0.23283 2.03271 0
M  V30 16975 H 1536.31 -1.44093 3.81708 0
M  V30 16976 H 1534.98 -0.336325 4.14538 0
M  V30 16977 H 1533.56 -1.90747 3.20422 0
M  V30 16978 N 1535.75 -1.57019 -0.13521 0
M  V30 16979 C 1536.68 -1.95769 -1.19193 0
M  V30 16980 C 1537.69 -0.854953 -1.38544 0
M  V30 16981 O 1538.88 -1.13332 -1.37906 0
M  V30 16982 C 1535.98 -2.22674 -2.55479 0
M  V30 16983 C 1535.15 -3.53972 -2.56949 0
M  V30 16984 C 1534.21 -3.69278 -3.7486 0
M  V30 16985 O 1533.24 -4.41555 -3.59191 0
M  V30 16986 N 1534.44 -3.06826 -4.92786 0
M  V30 16987 H 1537.2 -2.87022 -0.862451 0
M  V30 16988 H 1534.77 -1.58611 -0.324658 0
M  V30 16989 H 1536.76 -2.30144 -3.3289 0
M  V30 16990 H 1535.33 -1.37628 -2.80673 0
M  V30 16991 H 1534.55 -3.57836 -1.65368 0
M  V30 16992 H 1535.84 -4.40303 -2.54973 0
M  V30 16993 H 1535.23 -2.48043 -5.0842 0
M  V30 16994 H 1533.79 -3.19841 -5.67931 0
M  V30 16995 N 1537.22 0.404919 -1.52309 0
M  V30 16996 C 1538.47 1.15148 -1.66575 0
M  V30 16997 C 1538.8 1.9039 -0.397754 0
M  V30 16998 O 1538.05 1.85639 0.619407 0
M  V30 16999 C 1538.35 2.16817 -2.84121 0
M  V30 17000 C 1538.02 1.58352 -4.22179 0
M  V30 17001 C 1536.68 1.42132 -4.5973 0
M  V30 17002 C 1539.03 1.15695 -5.08197 0
M  V30 17003 C 1536.36 0.817785 -5.80973 0
M  V30 17004 C 1538.71 0.56758 -6.30049 0
M  V30 17005 C 1537.38 0.392547 -6.66345 0
M  V30 17006 H 1536.65 0.421357 -0.60954 0
M  V30 17007 H 1539.29 0.438148 -1.8642 0
M  V30 17008 H 1537.6 2.94311 -2.58628 0
M  V30 17009 H 1539.3 2.74463 -2.92355 0
M  V30 17010 H 1535.89 1.71961 -3.92591 0
M  V30 17011 H 1540.07 1.27034 -4.79767 0
M  V30 17012 H 1535.33 0.670228 -6.07715 0
M  V30 17013 H 1539.5 0.228674 -6.96024 0
M  V30 17014 H 1537.13 -0.0772156 -7.60161 0
M  V30 17015 N 1538.7 1.43003 0.662408 0
M  V30 17016 C 1539.61 1.49876 1.80484 0
M  V30 17017 C 1540.63 0.386526 1.69653 0
M  V30 17018 O 1541.8 0.639289 1.90984 0
M  V30 17019 C 1538.87 1.41057 3.16708 0
M  V30 17020 C 1537.93 2.62875 3.39404 0
M  V30 17021 C 1537.16 2.54468 4.69129 0
M  V30 17022 O 1537.39 1.58735 5.47868 0
M  V30 17023 O 1536.32 3.44814 4.93343 0
M  V30 17024 H 1540.15 2.46327 1.77641 0
M  V30 17025 H 1537.73 1.24903 0.81973 0
M  V30 17026 H 1539.61 1.38547 3.97973 0
M  V30 17027 H 1538.29 0.477361 3.20161 0
M  V30 17028 H 1537.2 2.70958 2.57939 0
M  V30 17029 H 1538.53 3.55137 3.40791 0
M  V30 17030 N 1540.18 -0.899904 1.29381 0
M  V30 17031 C 1541.6 -1.18067 1.07388 0
M  V30 17032 C 1541.8 -2.00739 -0.174951 0
M  V30 17033 O 1540.85 -2.36937 -0.872771 0
M  V30 17034 C 1542.17 -1.90182 2.32919 0
M  V30 17035 C 1543.71 -2.03009 2.38236 0
M  V30 17036 C 1544.19 -2.78533 3.6357 0
M  V30 17037 N 1545.68 -2.86088 3.64291 0
M  V30 17038 C 1546.41 -3.45062 4.57952 0
M  V30 17039 N 1545.91 -4.05204 5.61945 0
M  V30 17040 N 1547.7 -3.42734 4.45522 0
M  V30 17041 H 1539.85 -0.348306 2.09525 0
M  V30 17042 H 1542.12 -0.216796 0.922878 0
M  V30 17043 H 1541.82 -1.36871 3.23974 0
M  V30 17044 H 1541.7 -2.90658 2.40412 0
M  V30 17045 H 1544.08 -2.55495 1.47669 0
M  V30 17046 H 1544.17 -1.01666 2.34729 0
M  V30 17047 H 1543.81 -2.26723 4.54488 0
M  V30 17048 H 1543.74 -3.8022 3.64335 0
M  V30 17049 H 1546.23 -2.43372 2.891 0
M  V30 17050 H 1546.54 -4.48225 6.29535 0
M  V30 17051 H 1544.89 -4.03667 5.65755 0
M  V30 17052 H 1548.08 -2.94967 3.63472 0
M  V30 17053 H 1548.25 -3.884 5.187 0
M  V30 17054 N 1541.66 -1.11854 -1.11024 0
M  V30 17055 C 1542.59 -0.724602 -2.1639 0
M  V30 17056 C 1543.57 0.281302 -1.60148 0
M  V30 17057 O 1544.75 0.176699 -1.8767 0
M  V30 17058 C 1541.88 -0.0715375 -3.38624 0
M  V30 17059 C 1540.93 -1.04328 -4.13543 0
M  V30 17060 S 1541.76 -2.5679 -4.69914 0
M  V30 17061 C 1542.92 -1.92797 -5.95466 0
M  V30 17062 H 1543.15 -1.61713 -2.49472 0
M  V30 17063 H 1540.68 -0.937015 -1.22717 0
M  V30 17064 H 1542.64 0.298896 -4.0941 0
M  V30 17065 H 1541.3 0.798007 -3.03794 0
M  V30 17066 H 1540.49 -0.533855 -5.01165 0
M  V30 17067 H 1540.1 -1.35636 -3.48538 0
M  V30 17068 H 1542.39 -1.26703 -6.65547 0
M  V30 17069 H 1543.33 -2.78434 -6.51061 0
M  V30 17070 H 1543.74 -1.38633 -5.47212 0
M  V30 17071 N 1543.14 1.28707 -0.909517 0
M  V30 17072 C 1544.08 2.27427 -0.393155 0
M  V30 17073 C 1545.05 1.57414 0.53009 0
M  V30 17074 O 1546.24 1.85339 0.453205 0
M  V30 17075 C 1543.38 3.4317 0.364507 0
M  V30 17076 C 1542.49 4.27942 -0.590757 0
M  V30 17077 C 1541.63 5.30878 0.184931 0
M  V30 17078 C 1540.67 6.07311 -0.764222 0
M  V30 17079 N 1539.8 7.02096 -0.0223203 0
M  V30 17080 H 1544.64 2.70974 -1.24005 0
M  V30 17081 H 1542.18 1.33265 -0.6228 0
M  V30 17082 H 1544.14 4.09063 0.819937 0
M  V30 17083 H 1542.77 3.00625 1.17578 0
M  V30 17084 H 1541.82 3.62131 -1.16471 0
M  V30 17085 H 1543.13 4.81102 -1.31689 0
M  V30 17086 H 1542.29 6.02635 0.701116 0
M  V30 17087 H 1541.02 4.78474 0.944143 0
M  V30 17088 H 1540.03 5.34408 -1.29182 0
M  V30 17089 H 1541.25 6.61804 -1.52292 0
M  V30 17090 H 1539.2 6.52048 0.718978 0
M  V30 17091 H 1539.12 7.5286 -0.688359 0
M  V30 17092 H 1540.39 7.78059 0.473807 0
M  V30 17093 N 1544.61 0.673042 1.42506 0
M  V30 17094 C 1545.86 0.194864 2.01862 0
M  V30 17095 C 1546.19 -1.19491 1.53087 0
M  V30 17096 O 1545.47 -1.80187 0.732322 0
M  V30 17097 C 1545.75 0.227559 3.5938 0
M  V30 17098 C 1545.6 1.65266 4.18338 0
M  V30 17099 C 1546.92 -0.425197 4.38041 0
M  V30 17100 H 1544.04 0.0722831 0.733447 0
M  V30 17101 H 1546.68 0.857493 1.6955 0
M  V30 17102 H 1544.83 -0.336658 3.87039 0
M  V30 17103 H 1546.51 2.26899 4.0164 0
M  V30 17104 H 1544.75 2.19388 3.74234 0
M  V30 17105 H 1545.42 1.62724 5.2747 0
M  V30 17106 H 1547.9 0.0550709 4.16064 0
M  V30 17107 H 1546.77 -0.371675 5.4764 0
M  V30 17108 H 1547.03 -1.50251 4.15785 0
M  V30 17109 N 1546.09 -1.52004 0.416254 0
M  V30 17110 C 1547.34 -2.02188 -0.157434 0
M  V30 17111 C 1547.67 -1.30097 -1.44182 0
M  V30 17112 O 1546.95 -0.409426 -1.90142 0
M  V30 17113 C 1547.23 -3.57896 -0.397847 0
M  V30 17114 C 1547.08 -4.40628 0.903715 0
M  V30 17115 C 1548.4 -4.24072 -1.17689 0
M  V30 17116 H 1545.52 -0.734889 -0.0557437 0
M  V30 17117 H 1548.16 -1.81831 0.551118 0
M  V30 17118 H 1546.31 -3.75372 -1.00142 0
M  V30 17119 H 1547.98 -4.34848 1.53964 0
M  V30 17120 H 1546.23 -4.06556 1.5131 0
M  V30 17121 H 1546.9 -5.47673 0.689802 0
M  V30 17122 H 1549.37 -4.10738 -0.665832 0
M  V30 17123 H 1548.25 -5.32944 -1.31386 0
M  V30 17124 H 1548.51 -3.83507 -2.19942 0
M  V30 17125 N 1547.57 -0.146903 -1.56914 0
M  V30 17126 C 1548.82 0.504981 -1.96412 0
M  V30 17127 C 1549.15 1.64522 -1.0318 0
M  V30 17128 O 1548.42 1.94359 -0.0741728 0
M  V30 17129 C 1548.71 1.01125 -3.45609 0
M  V30 17130 C 1548.56 -0.127493 -4.49619 0
M  V30 17131 C 1549.88 1.89306 -3.97305 0
M  V30 17132 H 1547 0.182088 -0.714152 0
M  V30 17133 H 1549.64 -0.22811 -1.88626 0
M  V30 17134 H 1547.79 1.63595 -3.52376 0
M  V30 17135 H 1549.46 -0.763829 -4.54932 0
M  V30 17136 H 1547.71 -0.786649 -4.26608 0
M  V30 17137 H 1548.38 0.268453 -5.51347 0
M  V30 17138 H 1550.85 1.36664 -3.93017 0
M  V30 17139 H 1549.73 2.21638 -5.02163 0
M  V30 17140 H 1549.99 2.82996 -3.39655 0
M  V30 17141 N 1549.05 1.57088 0.126881 0
M  V30 17142 C 1550.46 1.52205 0.480175 0
M  V30 17143 C 1550.66 0.858634 1.8229 0
M  V30 17144 O 1549.72 0.437636 2.48679 0
M  V30 17145 C 1551.03 2.96974 0.471931 0
M  V30 17146 C 1552.58 3.08021 0.556037 0
M  V30 17147 C 1553.06 4.54335 0.57826 0
M  V30 17148 N 1554.55 4.58758 0.639922 0
M  V30 17149 C 1555.28 5.69372 0.678434 0
M  V30 17150 N 1554.78 6.89503 0.67507 0
M  V30 17151 N 1556.57 5.57459 0.720845 0
M  V30 17152 H 1548.72 1.98604 -0.753008 0
M  V30 17153 H 1550.99 0.90666 -0.276895 0
M  V30 17154 H 1550.69 3.48849 -0.44687 0
M  V30 17155 H 1550.57 3.53994 1.3026 0
M  V30 17156 H 1552.95 2.56153 1.46526 0
M  V30 17157 H 1553.03 2.54009 -0.302171 0
M  V30 17158 H 1552.68 5.06847 -0.326884 0
M  V30 17159 H 1552.61 5.06151 1.45324 0
M  V30 17160 H 1555.1 3.72285 0.649005 0
M  V30 17161 H 1555.41 7.6956 0.706862 0
M  V30 17162 H 1553.76 6.92023 0.64262 0
M  V30 17163 H 1556.95 4.62517 0.720783 0
M  V30 17164 H 1557.12 6.43675 0.747392 0
M  V30 17165 N 1550.53 -0.396836 1.52522 0
M  V30 17166 C 1551.49 -1.46695 1.76106 0
M  V30 17167 C 1552.49 -1.47902 0.631005 0
M  V30 17168 O 1553.68 -1.4921 0.898995 0
M  V30 17169 C 1550.81 -2.86033 1.85467 0
M  V30 17170 H 1552 -1.27071 2.71649 0
M  V30 17171 H 1549.56 -0.628096 1.43125 0
M  V30 17172 H 1550.29 -3.11012 0.918816 0
M  V30 17173 H 1550.08 -2.86559 2.67631 0
M  V30 17174 H 1551.57 -3.63587 2.05412 0
M  V30 17175 N 1552.01 -1.43353 -0.654814 0
M  V30 17176 C 1552.94 -1.51194 -1.7794 0
M  V30 17177 C 1553.92 -0.366747 -1.66099 0
M  V30 17178 O 1555.1 -0.58375 -1.85219 0
M  V30 17179 C 1552.23 -1.43298 -3.16359 0
M  V30 17180 C 1551.19 -2.5605 -3.42961 0
M  V30 17181 C 1550.51 -2.33208 -4.81163 0
M  V30 17182 C 1551.81 -3.98303 -3.37864 0
M  V30 17183 H 1553.51 -2.4532 -1.71635 0
M  V30 17184 H 1551.05 -1.18072 -0.824319 0
M  V30 17185 H 1553 -1.47388 -3.94784 0
M  V30 17186 H 1551.73 -0.456761 -3.2339 0
M  V30 17187 H 1550.39 -2.5131 -2.66906 0
M  V30 17188 H 1550.04 -1.33833 -4.84869 0
M  V30 17189 H 1549.74 -3.08789 -4.99923 0
M  V30 17190 H 1551.26 -2.39079 -5.61848 0
M  V30 17191 H 1552.67 -4.04538 -4.06229 0
M  V30 17192 H 1551.07 -4.73897 -3.6816 0
M  V30 17193 H 1552.14 -4.23552 -2.36075 0
M  V30 17194 N 1553.48 0.89303 -1.29857 0
M  V30 17195 C 1554.73 1.63881 -1.17583 0
M  V30 17196 C 1555.05 1.93723 0.270293 0
M  V30 17197 O 1556.25 2.66582 0.514432 0
M  V30 17198 C 1554.71 2.95327 -2.05694 0
M  V30 17199 C 1554.32 2.73055 -3.55169 0
M  V30 17200 C 1556.06 3.7327 -2.02162 0
M  V30 17201 C 1553.97 4.00268 -4.35361 0
M  V30 17202 H 1552.9 0.614815 -0.436485 0
M  V30 17203 H 1555.55 0.989339 -1.54546 0
M  V30 17204 H 1553.93 3.61523 -1.61607 0
M  V30 17205 H 1555.1 2.1541 -4.07351 0
M  V30 17206 H 1553.42 2.08498 -3.6044 0
M  V30 17207 H 1556.02 4.67601 -2.59333 0
M  V30 17208 H 1556.36 4.04032 -1.00318 0
M  V30 17209 H 1556.89 3.13925 -2.44328 0
M  V30 17210 H 1553.63 3.74669 -5.37869 0
M  V30 17211 H 1553.15 4.57448 -3.87945 0
M  V30 17212 H 1554.83 4.68358 -4.46374 0
M  V30 17213 N 1554.96 1.12442 1.10429 0
M  V30 17214 C 1555.91 0.792332 2.16773 0
M  V30 17215 C 1556.88 -0.240945 1.64343 0
M  V30 17216 O 1558.06 -0.115504 1.9045 0
M  V30 17217 C 1555.2 0.253166 3.4417 0
M  V30 17218 C 1554.32 1.34426 4.10553 0
M  V30 17219 C 1553.45 0.764527 5.2567 0
M  V30 17220 C 1552.49 1.83474 5.83955 0
M  V30 17221 N 1551.63 1.27372 6.9045 0
M  V30 17222 H 1556.47 1.7033 2.44524 0
M  V30 17223 H 1554 0.850418 1.20026 0
M  V30 17224 H 1555.96 -0.0774862 4.17128 0
M  V30 17225 H 1554.59 -0.620962 3.16771 0
M  V30 17226 H 1553.64 1.79169 3.35563 0
M  V30 17227 H 1554.96 2.15354 4.49916 0
M  V30 17228 H 1554.11 0.384548 6.0548 0
M  V30 17229 H 1552.85 -0.0759512 4.87641 0
M  V30 17230 H 1551.85 2.22391 5.02814 0
M  V30 17231 H 1553.08 2.67844 6.24048 0
M  V30 17232 H 1551.03 0.455069 6.5442 0
M  V30 17233 H 1550.94 2.01959 7.28525 0
M  V30 17234 H 1552.21 0.920975 7.7404 0
M  V30 17235 N 1556.44 -1.28223 0.91633 0
M  V30 17236 C 1557.67 -1.98986 0.566772 0
M  V30 17237 C 1558.08 -1.68455 -0.852553 0
M  V30 17238 O 1557.44 -0.938734 -1.56506 0
M  V30 17239 C 1557.49 -3.53217 0.769423 0
M  V30 17240 O 1557.21 -3.82674 2.1329 0
M  V30 17241 C 1558.71 -4.41238 0.427043 0
M  V30 17242 H 1555.93 -0.63534 0.215834 0
M  V30 17243 H 1558.48 -1.63357 1.23024 0
M  V30 17244 H 1556.63 -3.87098 0.152915 0
M  V30 17245 H 1557.05 -4.77302 2.17448 0
M  V30 17246 H 1558.52 -5.48512 0.619594 0
M  V30 17247 H 1559 -4.34558 -0.63686 0
M  V30 17248 H 1559.6 -4.12858 1.0212 0
M  V30 17249 N 1557.92 -0.68059 -1.42147 0
M  V30 17250 C 1559.15 -0.213839 -2.05792 0
M  V30 17251 C 1559.56 1.13123 -1.51158 0
M  V30 17252 O 1558.92 1.7039 -0.653708 0
M  V30 17253 C 1558.97 -0.146507 -3.61203 0
M  V30 17254 O 1558.69 -1.43843 -4.13813 0
M  V30 17255 C 1560.19 0.343043 -4.41971 0
M  V30 17256 H 1557.41 -0.10262 -0.663106 0
M  V30 17257 H 1559.95 -0.928957 -1.82183 0
M  V30 17258 H 1558.11 0.519335 -3.83903 0
M  V30 17259 H 1558.52 -1.31561 -5.07732 0
M  V30 17260 H 1560 0.339053 -5.50958 0
M  V30 17261 H 1560.47 1.37933 -4.16979 0
M  V30 17262 H 1561.08 -0.291267 -4.24301 0
M  V30 17263 N 1559.4 1.51781 -0.424309 0
M  V30 17264 C 1560.33 2.30313 0.384462 0
M  V30 17265 C 1561.31 1.35166 1.03268 0
M  V30 17266 O 1562.49 1.64081 1.0388 0
M  V30 17267 C 1559.62 3.13566 1.49311 0
M  V30 17268 C 1558.58 4.16884 0.969096 0
M  V30 17269 C 1557.9 4.88576 2.17251 0
M  V30 17270 C 1559.2 5.22298 0.0125613 0
M  V30 17271 H 1560.9 2.98172 -0.270871 0
M  V30 17272 H 1558.44 1.43396 -0.131712 0
M  V30 17273 H 1560.39 3.67279 2.06602 0
M  V30 17274 H 1559.12 2.43504 2.17655 0
M  V30 17275 H 1557.78 3.64203 0.418494 0
M  V30 17276 H 1557.43 4.15029 2.84183 0
M  V30 17277 H 1557.13 5.58432 1.82833 0
M  V30 17278 H 1558.65 5.45107 2.75119 0
M  V30 17279 H 1560.06 5.71161 0.494744 0
M  V30 17280 H 1558.46 5.99606 -0.243544 0
M  V30 17281 H 1559.53 4.75935 -0.92813 0
M  V30 17282 N 1560.87 0.155222 1.56834 0
M  V30 17283 C 1562.28 -0.364232 1.83113 0
M  V30 17284 C 1562.64 -1.64173 1.07432 0
M  V30 17285 O 1561.76 -2.13988 0.322202 0
M  V30 17286 C 1562.36 -0.667608 3.32157 0
M  V30 17287 C 1560.91 -1.13156 3.58989 0
M  V30 17288 C 1560.06 -0.158941 2.76844 0
M  V30 17289 H 1563.01 0.379779 1.54089 0
M  V30 17290 H 1563.03 -1.52141 3.4876 0
M  V30 17291 H 1562.55 0.262355 3.87212 0
M  V30 17292 H 1560.65 -2.07717 3.09329 0
M  V30 17293 H 1560.76 -1.05184 4.67411 0
M  V30 17294 H 1559.12 -0.653181 2.46182 0
M  V30 17295 H 1559.91 0.764757 3.34674 0
M  V30 17296 N 1562.35 -1.57153 -0.118549 0
M  V30 17297 C 1563.58 -1.89062 -0.840429 0
M  V30 17298 C 1563.99 -0.746516 -1.73414 0
M  V30 17299 O 1563.35 0.282638 -1.80298 0
M  V30 17300 C 1563.4 -3.20433 -1.67347 0
M  V30 17301 O 1563.12 -4.30439 -0.815739 0
M  V30 17302 C 1564.62 -3.66048 -2.50047 0
M  V30 17303 H 1561.84 -0.626005 -0.241575 0
M  V30 17304 H 1564.39 -2.04241 -0.102804 0
M  V30 17305 H 1562.54 -3.06922 -2.36385 0
M  V30 17306 H 1562.96 -5.05736 -1.39037 0
M  V30 17307 H 1564.43 -4.60729 -3.04028 0
M  V30 17308 H 1564.91 -2.92727 -3.27426 0
M  V30 17309 H 1565.51 -3.82349 -1.86251 0
M  V30 17310 N 1563.83 0.388742 -1.5273 0
M  V30 17311 C 1564.76 1.48133 -1.80496 0
M  V30 17312 C 1565.74 1.56899 -0.657008 0
M  V30 17313 O 1566.93 1.71844 -0.904621 0
M  V30 17314 C 1564.06 2.85742 -1.97405 0
M  V30 17315 C 1563.01 2.91815 -3.13094 0
M  V30 17316 C 1562.34 4.31876 -3.15258 0
M  V30 17317 C 1563.64 2.61438 -4.52159 0
M  V30 17318 H 1565.33 1.25147 -2.7199 0
M  V30 17319 H 1562.88 0.600603 -1.30877 0
M  V30 17320 H 1564.83 3.62182 -2.15412 0
M  V30 17321 H 1563.55 3.10065 -1.02601 0
M  V30 17322 H 1562.21 2.17824 -2.9487 0
M  V30 17323 H 1561.86 4.53239 -2.18135 0
M  V30 17324 H 1561.56 4.3686 -3.92972 0
M  V30 17325 H 1563.08 5.10221 -3.3542 0
M  V30 17326 H 1564.5 3.27596 -4.70483 0
M  V30 17327 H 1562.89 2.77771 -5.31943 0
M  V30 17328 H 1563.96 1.56778 -4.58856 0
M  V30 17329 N 1565.31 1.43698 0.647203 0
M  V30 17330 C 1566.26 1.49599 1.78109 0
M  V30 17331 C 1567.25 0.369047 1.65331 0
M  V30 17332 O 1568.46 0.543303 1.71605 0
M  V30 17333 H 1564.83 0.46911 0.587741 0
M  V30 17334 H 1566.8 2.45064 1.70253 0
M  V30 17335 C 1565.55 1.44192 3.16392 0
M  V30 17336 H 1564.87 2.30216 3.26865 0
M  V30 17337 H 1566.31 1.52382 3.95671 0
M  V30 17338 C 1564.77 0.16036 3.36518 0
M  V30 17339 O 1565.3 -0.77593 3.94135 0
M  V30 17340 N 1563.51 0.0686236 2.90519 0
M  V30 17341 H 1563.06 0.831363 2.43816 0
M  V30 17342 H 1563.01 -0.78814 3.04361 0
M  V30 17343 N 1566.79 -0.886131 1.30328 0
M  V30 17344 C 1568.03 -1.64026 1.19261 0
M  V30 17345 C 1568.37 -1.92553 -0.252379 0
M  V30 17346 O 1567.64 -1.54564 -1.18069 0
M  V30 17347 C 1567.92 -2.9808 2.0204 0
M  V30 17348 C 1567.78 -2.76534 3.54752 0
M  V30 17349 C 1569.1 -3.98989 1.85731 0
M  V30 17350 H 1566.21 -0.595224 0.4346 0
M  V30 17351 H 1568.86 -1.0255 1.59949 0
M  V30 17352 H 1567.01 -3.50552 1.67469 0
M  V30 17353 H 1568.68 -2.3086 3.99376 0
M  V30 17354 H 1566.92 -2.1106 3.78993 0
M  V30 17355 H 1567.59 -3.71849 4.07961 0
M  V30 17356 H 1570.07 -3.55673 2.15953 0
M  V30 17357 H 1568.94 -4.90699 2.45979 0
M  V30 17358 H 1569.21 -4.34501 0.816152 0
M  V30 17359 N 1568.26 -1.13026 -1.09832 0
M  V30 17360 C 1569.51 -0.889419 -1.81922 0
M  V30 17361 C 1569.84 0.584572 -1.85507 0
M  V30 17362 O 1569.09 1.44844 -1.316 0
M  V30 17363 C 1569.39 -1.41718 -3.28102 0
M  V30 17364 C 1569.06 -2.90729 -3.44655 0
M  V30 17365 C 1567.72 -3.31415 -3.48881 0
M  V30 17366 C 1570.07 -3.86619 -3.49536 0
M  V30 17367 C 1567.4 -4.66683 -3.55561 0
M  V30 17368 C 1569.75 -5.21726 -3.5775 0
M  V30 17369 C 1568.42 -5.61945 -3.60242 0
M  V30 17370 H 1567.69 -0.325461 -0.6657 0
M  V30 17371 H 1570.33 -1.4115 -1.29418 0
M  V30 17372 H 1568.64 -0.815709 -3.83215 0
M  V30 17373 H 1570.34 -1.20696 -3.82405 0
M  V30 17374 H 1566.93 -2.58266 -3.42048 0
M  V30 17375 H 1571.11 -3.56276 -3.45516 0
M  V30 17376 H 1566.37 -4.97226 -3.55776 0
M  V30 17377 H 1570.54 -5.95847 -3.60471 0
M  V30 17378 H 1568.17 -6.66749 -3.65171 0
M  V30 17379 N 1569.74 1.27735 -0.923117 0
M  V30 17380 C 1570.67 2.29395 -0.435907 0
M  V30 17381 C 1571.65 1.62542 0.501403 0
M  V30 17382 O 1572.84 1.89884 0.407135 0
M  V30 17383 C 1569.97 3.45856 0.316348 0
M  V30 17384 C 1568.92 4.24672 -0.532697 0
M  V30 17385 C 1568.25 5.33563 0.348454 0
M  V30 17386 C 1569.55 4.90494 -1.79481 0
M  V30 17387 H 1571.24 2.70398 -1.28551 0
M  V30 17388 H 1568.79 1.29989 -0.619581 0
M  V30 17389 H 1570.74 4.1607 0.668098 0
M  V30 17390 H 1569.47 3.03758 1.19994 0
M  V30 17391 H 1568.12 3.56198 -0.867093 0
M  V30 17392 H 1567.77 4.87708 1.23086 0
M  V30 17393 H 1567.47 5.87202 -0.216104 0
M  V30 17394 H 1569 6.06622 0.695878 0
M  V30 17395 H 1570.41 5.53019 -1.5114 0
M  V30 17396 H 1568.81 5.5417 -2.30251 0
M  V30 17397 H 1569.88 4.14454 -2.51707 0
M  V30 17398 N 1571.22 0.688118 1.41784 0
M  V30 17399 C 1572.47 0.216263 2.01644 0
M  V30 17400 C 1572.8 -1.17861 1.54345 0
M  V30 17401 O 1572.07 -1.794 0.751392 0
M  V30 17402 C 1572.36 0.265663 3.59119 0
M  V30 17403 C 1572.21 1.69694 4.16562 0
M  V30 17404 C 1573.53 -0.378713 4.38468 0
M  V30 17405 H 1570.65 0.0800582 0.732639 0
M  V30 17406 H 1573.29 0.875428 1.68631 0
M  V30 17407 H 1571.44 -0.295588 3.87374 0
M  V30 17408 H 1573.11 2.31146 3.9921 0
M  V30 17409 H 1571.36 2.23345 3.71886 0
M  V30 17410 H 1572.03 1.68309 5.25715 0
M  V30 17411 H 1574.5 0.0991969 4.15982 0
M  V30 17412 H 1573.38 -0.31357 5.48004 0
M  V30 17413 H 1573.64 -1.45832 4.17355 0
M  V30 17414 N 1572.7 -1.51554 0.432352 0
M  V30 17415 C 1573.94 -2.03954 -0.135014 0
M  V30 17416 C 1574.3 -1.30972 -1.40393 0
M  V30 17417 O 1575.5 -1.73719 -2.05122 0
M  V30 17418 C 1573.77 -3.55646 -0.35361 0
M  V30 17419 S 1575.33 -4.29781 -0.885096 0
M  V30 17420 H 1572.15 -0.710178 -0.0341871 0
M  V30 17421 H 1574.75 -1.86365 0.590612 0
M  V30 17422 H 1573.46 -4.06333 0.576335 0
M  V30 17423 H 1572.99 -3.7752 -1.10646 0
M  V30 17424 H 1575 -4.46564 -2.16322 0
M  V30 17425 N 1574.18 -0.163538 -1.56749 0
M  V30 17426 C 1575.11 0.765571 -2.20593 0
M  V30 17427 C 1576.09 1.24489 -1.15916 0
M  V30 17428 O 1577.27 1.29946 -1.44318 0
M  V30 17429 C 1574.4 1.99823 -2.84057 0
M  V30 17430 C 1573.36 1.65506 -3.94705 0
M  V30 17431 C 1572.68 2.96172 -4.45181 0
M  V30 17432 C 1573.98 0.88902 -5.14678 0
M  V30 17433 H 1575.68 0.233431 -2.98489 0
M  V30 17434 H 1573.22 0.110836 -1.43573 0
M  V30 17435 H 1575.18 2.65316 -3.27392 0
M  V30 17436 H 1573.9 2.55437 -2.03517 0
M  V30 17437 H 1572.56 1.02384 -3.52013 0
M  V30 17438 H 1572.21 3.49811 -3.61443 0
M  V30 17439 H 1571.91 2.73968 -5.19823 0
M  V30 17440 H 1573.43 3.62708 -4.91198 0
M  V30 17441 H 1574.84 1.44637 -5.54755 0
M  V30 17442 H 1573.24 0.766302 -5.95187 0
M  V30 17443 H 1574.31 -0.116145 -4.84761 0
M  V30 17444 N 1575.65 1.57214 0.110213 0
M  V30 17445 C 1576.59 1.96198 1.1654 0
M  V30 17446 C 1577.57 0.832925 1.39646 0
M  V30 17447 O 1578.75 1.09188 1.53656 0
M  V30 17448 C 1575.88 2.26576 2.51756 0
M  V30 17449 C 1574.92 3.49093 2.45023 0
M  V30 17450 S 1575.76 5.01363 1.88136 0
M  V30 17451 C 1576.91 5.34903 3.25007 0
M  V30 17452 H 1577.14 2.85392 0.832996 0
M  V30 17453 H 1574.68 1.51104 0.317314 0
M  V30 17454 H 1576.64 2.44756 3.29552 0
M  V30 17455 H 1575.3 1.37981 2.8217 0
M  V30 17456 H 1574.49 3.67743 3.44647 0
M  V30 17457 H 1574.09 3.30346 1.7535 0
M  V30 17458 H 1576.38 5.30623 4.21243 0
M  V30 17459 H 1577.33 6.36062 3.11176 0
M  V30 17460 H 1577.73 4.62371 3.23841 0
M  V30 17461 N 1577.13 -0.380637 1.52934 0
M  V30 17462 C 1578.38 -1.12207 1.67608 0
M  V30 17463 C 1578.69 -1.90891 0.426597 0
M  V30 17464 O 1579.9 -2.67684 0.453612 0
M  V30 17465 C 1578.36 -2.04381 2.96237 0
M  V30 17466 C 1577.96 -1.3108 4.28395 0
M  V30 17467 C 1579.71 -2.78608 3.20277 0
M  V30 17468 C 1577.62 -2.22069 5.48124 0
M  V30 17469 H 1576.55 -0.422582 0.624452 0
M  V30 17470 H 1579.2 -0.384198 1.79433 0
M  V30 17471 H 1577.58 -2.81838 2.78179 0
M  V30 17472 H 1578.75 -0.587907 4.57034 0
M  V30 17473 H 1577.07 -0.687778 4.10681 0
M  V30 17474 H 1579.66 -3.46883 4.0691 0
M  V30 17475 H 1580.01 -3.43149 2.35701 0
M  V30 17476 H 1580.54 -2.08241 3.3894 0
M  V30 17477 H 1577.28 -1.62131 6.35133 0
M  V30 17478 H 1576.8 -2.9225 5.23784 0
M  V30 17479 H 1578.48 -2.81966 5.82327 0
M  V30 17480 N 1578.61 -1.44039 -0.639573 0
M  V30 17481 C 1579.86 -1.47589 -1.39961 0
M  V30 17482 C 1580.21 -0.103692 -1.9212 0
M  V30 17483 O 1579.5 0.879803 -1.70206 0
M  V30 17484 C 1579.7 -2.46459 -2.5883 0
M  V30 17485 C 1579.53 -3.93157 -2.18306 0
M  V30 17486 C 1578.3 -4.61409 -2.05984 0
M  V30 17487 C 1580.5 -4.8261 -1.77741 0
M  V30 17488 N 1578.48 -5.9297 -1.58935 0
M  V30 17489 C 1579.85 -6.03549 -1.41875 0
M  V30 17490 C 1581.9 -4.69749 -1.65046 0
M  V30 17491 C 1580.61 -7.13054 -0.94584 0
M  V30 17492 C 1582.63 -5.79271 -1.1916 0
M  V30 17493 C 1581.99 -6.99345 -0.842389 0
M  V30 17494 H 1578.09 -0.595136 -0.507284 0
M  V30 17495 H 1580.68 -1.8031 -0.734598 0
M  V30 17496 H 1578.85 -2.15742 -3.22971 0
M  V30 17497 H 1580.58 -2.40359 -3.25592 0
M  V30 17498 H 1577.34 -4.16104 -2.26173 0
M  V30 17499 H 1577.76 -6.62841 -1.37733 0
M  V30 17500 H 1582.4 -3.77361 -1.90679 0
M  V30 17501 H 1580.12 -8.05259 -0.677011 0
M  V30 17502 H 1583.71 -5.71344 -1.09808 0
M  V30 17503 H 1582.59 -7.8265 -0.492752 0
M  V30 17504 N 1580.09 0.879207 -1.30796 0
M  V30 17505 C 1581.02 2.00158 -1.20246 0
M  V30 17506 C 1582 1.69852 -0.091769 0
M  V30 17507 O 1583.18 1.92246 -0.274792 0
M  V30 17508 C 1580.31 3.3545 -0.899472 0
M  V30 17509 C 1579.27 3.80033 -1.96873 0
M  V30 17510 C 1578.59 5.12681 -1.51861 0
M  V30 17511 C 1579.89 3.98136 -3.38061 0
M  V30 17512 H 1581.59 2.09242 -2.14145 0
M  V30 17513 H 1579.13 1.00535 -1.03096 0
M  V30 17514 H 1581.09 4.13497 -0.812299 0
M  V30 17515 H 1579.81 3.26513 0.075189 0
M  V30 17516 H 1578.47 3.04219 -2.04564 0
M  V30 17517 H 1578.12 5.00178 -0.532063 0
M  V30 17518 H 1577.82 5.43482 -2.23386 0
M  V30 17519 H 1579.34 5.93247 -1.44534 0
M  V30 17520 H 1580.76 4.66604 -3.33096 0
M  V30 17521 H 1579.15 4.40321 -4.07722 0
M  V30 17522 H 1580.22 3.01807 -3.79526 0
M  V30 17523 N 1581.57 1.13606 1.09231 0
M  V30 17524 C 1582.82 0.893694 1.8082 0
M  V30 17525 C 1583.13 -0.581713 1.8675 0
M  V30 17526 O 1584.34 -0.941079 2.54668 0
M  V30 17527 C 1582.79 1.54932 3.24845 0
M  V30 17528 C 1582.4 3.0604 3.27175 0
M  V30 17529 C 1584.14 1.38773 4.01176 0
M  V30 17530 C 1582.05 3.64478 4.65735 0
M  V30 17531 H 1580.98 0.330699 0.677609 0
M  V30 17532 H 1583.63 1.36401 1.22748 0
M  V30 17533 H 1582.01 1.00668 3.82991 0
M  V30 17534 H 1583.19 3.66901 2.78783 0
M  V30 17535 H 1581.5 3.21739 2.64335 0
M  V30 17536 H 1584.1 1.79843 5.03548 0
M  V30 17537 H 1584.44 0.33282 4.14967 0
M  V30 17538 H 1584.98 1.90028 3.49477 0
M  V30 17539 H 1581.71 4.69785 4.57146 0
M  V30 17540 H 1581.23 3.08396 5.14444 0
M  V30 17541 H 1582.91 3.64272 5.3471 0
M  V30 17542 N 1583.05 -1.27244 0.929878 0
M  V30 17543 C 1584.29 -1.94269 0.57146 0
M  V30 17544 C 1584.62 -1.73064 -0.887639 0
M  V30 17545 O 1583.88 -1.05422 -1.64878 0
M  V30 17546 C 1584.17 -3.47233 0.846386 0
M  V30 17547 C 1583.84 -3.88563 2.28757 0
M  V30 17548 C 1582.5 -3.99557 2.68156 0
M  V30 17549 C 1584.85 -4.09468 3.22467 0
M  V30 17550 C 1582.18 -4.28846 4.00385 0
M  V30 17551 C 1584.53 -4.40242 4.54279 0
M  V30 17552 C 1583.2 -4.4945 4.93509 0
M  V30 17553 H 1582.47 -0.710882 0.209112 0
M  V30 17554 H 1585.12 -1.51273 1.17425 0
M  V30 17555 H 1583.42 -3.91469 0.160941 0
M  V30 17556 H 1585.12 -3.97238 0.548006 0
M  V30 17557 H 1581.71 -3.80544 1.97192 0
M  V30 17558 H 1585.89 -4.00412 2.9323 0
M  V30 17559 H 1581.15 -4.34184 4.30458 0
M  V30 17560 H 1585.32 -4.55365 5.26892 0
M  V30 17561 H 1582.95 -4.71899 5.95999 0
M  V30 17562 N 1584.52 -0.695628 -1.41417 0
M  V30 17563 C 1585.75 -0.234163 -2.06074 0
M  V30 17564 C 1586.17 1.10796 -1.52006 0
M  V30 17565 O 1585.53 1.6936 -0.64705 0
M  V30 17566 C 1585.58 -0.202353 -3.60032 0
M  V30 17567 O 1584.68 0.822767 -4.04109 0
M  V30 17568 H 1584.02 -0.114395 -0.654072 0
M  V30 17569 H 1586.55 -0.950503 -1.81181 0
M  V30 17570 H 1586.56 -0.0332321 -4.07986 0
M  V30 17571 H 1585.24 -1.18188 -3.98754 0
M  V30 17572 H 1583.82 0.622995 -3.67659 0
M  V30 17573 N 1586 1.51322 -0.440383 0
M  V30 17574 C 1587.25 2.01302 0.126581 0
M  V30 17575 C 1587.56 1.32898 1.43518 0
M  V30 17576 O 1588.77 1.73864 2.08527 0
M  V30 17577 C 1587.23 3.58839 0.276126 0
M  V30 17578 C 1586.83 4.36182 -1.02222 0
M  V30 17579 C 1588.58 4.16957 0.796697 0
M  V30 17580 C 1586.48 5.85431 -0.838148 0
M  V30 17581 H 1585.41 0.752268 0.0510809 0
M  V30 17582 H 1588.07 1.74403 -0.570609 0
M  V30 17583 H 1586.45 3.82198 1.03639 0
M  V30 17584 H 1587.62 4.24568 -1.79105 0
M  V30 17585 H 1585.94 3.89531 -1.47155 0
M  V30 17586 H 1588.53 5.26176 0.95095 0
M  V30 17587 H 1588.88 3.76329 1.77996 0
M  V30 17588 H 1589.41 3.97687 0.0946613 0
M  V30 17589 H 1586.15 6.30476 -1.79387 0
M  V30 17590 H 1585.67 5.99701 -0.109167 0
M  V30 17591 H 1587.35 6.45122 -0.492547 0
M  V30 17592 N 1587.48 0.171848 1.5666 0
M  V30 17593 C 1588.41 -0.796928 2.13832 0
M  V30 17594 C 1589.39 -1.22559 1.06855 0
M  V30 17595 O 1590.57 -1.31727 1.34834 0
M  V30 17596 C 1587.7 -2.07326 2.67831 0
M  V30 17597 C 1586.75 -1.78858 3.87185 0
M  V30 17598 S 1587.58 -0.957345 5.26873 0
M  V30 17599 C 1588.74 -2.24433 5.84278 0
M  V30 17600 H 1588.97 -0.310829 2.95671 0
M  V30 17601 H 1586.5 -0.0428284 1.54341 0
M  V30 17602 H 1588.46 -2.80635 2.9959 0
M  V30 17603 H 1587.12 -2.53049 1.86078 0
M  V30 17604 H 1586.31 -2.7356 4.23297 0
M  V30 17605 H 1585.92 -1.13644 3.56316 0
M  V30 17606 H 1588.21 -3.1989 5.97224 0
M  V30 17607 H 1589.15 -1.92788 6.8135 0
M  V30 17608 H 1589.56 -2.36217 5.127 0
M  V30 17609 N 1588.96 -1.5727 -0.101874 0
M  V30 17610 C 1590.21 -1.85375 -0.805007 0
M  V30 17611 C 1590.53 -0.759564 -1.79599 0
M  V30 17612 O 1589.8 0.21484 -1.94718 0
M  V30 17613 H 1588.38 -0.683987 -0.300284 0
M  V30 17614 H 1591.04 -1.94714 -0.0851166 0
M  V30 17615 H 1590.13 -2.81881 -1.33976 0
M  V30 17616 N 1590.44 0.372521 -1.53134 0
M  V30 17617 C 1591.68 1.11754 -1.6923 0
M  V30 17618 C 1592.01 1.89167 -0.439265 0
M  V30 17619 O 1591.29 1.86164 0.563317 0
M  V30 17620 C 1591.57 2.08242 -2.93781 0
M  V30 17621 C 1591.43 1.34484 -4.29225 0
M  V30 17622 C 1592.74 3.08457 -3.13914 0
M  V30 17623 H 1589.86 0.404898 -0.615814 0
M  V30 17624 H 1592.51 0.399101 -1.85761 0
M  V30 17625 H 1590.66 2.69507 -2.79818 0
M  V30 17626 H 1592.33 0.76056 -4.54987 0
M  V30 17627 H 1590.57 0.646673 -4.28953 0
M  V30 17628 H 1591.24 2.05071 -5.12494 0
M  V30 17629 H 1593.72 2.57292 -3.27017 0
M  V30 17630 H 1592.59 3.73198 -4.0251 0
M  V30 17631 H 1592.85 3.78243 -2.28878 0
M  V30 17632 N 1591.91 1.44376 0.631925 0
M  V30 17633 C 1593.19 1.37592 1.39024 0
M  V30 17634 C 1593.57 0.0342456 2.11072 0
M  V30 17635 O 1592.92 -0.983136 2.06268 0
M  V30 17636 C 1593.13 2.57355 2.35732 0
M  V30 17637 C 1594.48 3.01384 2.99087 0
M  V30 17638 O 1595.5 2.57554 2.46057 0
M  V30 17639 O 1594.36 3.77375 3.95285 0
M  V30 17640 H 1591.45 0.544828 0.622167 0
M  V30 17641 H 1594 1.56464 0.657048 0
M  V30 17642 H 1592.77 3.46615 1.81587 0
M  V30 17643 H 1592.39 2.40693 3.16469 0
M  V30 17644 N 1593.39 -0.872258 1.31261 0
M  V30 17645 C 1594.32 -1.99517 1.21306 0
M  V30 17646 C 1595.3 -1.69801 0.100775 0
M  V30 17647 O 1596.49 -1.92098 0.284984 0
M  V30 17648 C 1593.62 -3.34968 0.917249 0
M  V30 17649 C 1592.57 -3.78984 1.98885 0
M  V30 17650 C 1591.9 -5.11869 1.54578 0
M  V30 17651 C 1593.2 -3.96338 3.40167 0
M  V30 17652 H 1594.89 -2.08104 2.15251 0
M  V30 17653 H 1592.44 -0.999865 1.03628 0
M  V30 17654 H 1594.39 -4.1306 0.834217 0
M  V30 17655 H 1593.11 -3.26549 -0.0578721 0
M  V30 17656 H 1591.77 -3.0313 2.06174 0
M  V30 17657 H 1591.42 -4.99889 0.558581 0
M  V30 17658 H 1591.12 -5.4229 2.26265 0
M  V30 17659 H 1592.65 -5.92472 1.47678 0
M  V30 17660 H 1594.06 -4.64831 3.35566 0
M  V30 17661 H 1592.46 -4.38153 4.10051 0
M  V30 17662 H 1593.53 -2.9979 3.81122 0
M  V30 17663 N 1594.87 -1.14184 -1.08627 0
M  V30 17664 C 1596.12 -0.908664 -1.80968 0
M  V30 17665 C 1596.44 0.564864 -1.86117 0
M  V30 17666 O 1595.7 1.4344 -1.33129 0
M  V30 17667 C 1596 -1.4519 -3.2658 0
M  V30 17668 C 1595.66 -2.94368 -3.41552 0
M  V30 17669 C 1594.33 -3.35096 -3.45346 0
M  V30 17670 C 1596.68 -3.90304 -3.45416 0
M  V30 17671 C 1594.01 -4.70428 -3.50591 0
M  V30 17672 C 1596.36 -5.25491 -3.52196 0
M  V30 17673 C 1595.02 -5.65734 -3.54262 0
M  V30 17674 H 1594.29 -0.332504 -0.66221 0
M  V30 17675 H 1596.94 -1.42514 -1.27914 0
M  V30 17676 H 1595.24 -0.856308 -3.82328 0
M  V30 17677 H 1596.94 -1.24746 -3.81103 0
M  V30 17678 H 1593.53 -2.61879 -3.3929 0
M  V30 17679 H 1597.72 -3.59921 -3.41718 0
M  V30 17680 H 1592.97 -5.00971 -3.50482 0
M  V30 17681 H 1597.15 -5.99637 -3.54131 0
M  V30 17682 H 1594.77 -6.70585 -3.58079 0
M  V30 17683 N 1596.35 1.26749 -0.936613 0
M  V30 17684 C 1597.31 2.24794 -0.447243 0
M  V30 17685 C 1598.31 1.54688 0.439135 0
M  V30 17686 O 1599.5 1.72553 0.238957 0
M  V30 17687 C 1596.63 3.39036 0.355958 0
M  V30 17688 H 1597.83 2.696 -1.31361 0
M  V30 17689 H 1595.38 1.38825 -0.718143 0
M  V30 17690 H 1596.11 2.99625 1.24077 0
M  V30 17691 H 1595.9 3.91101 -0.279691 0
M  V30 17692 H 1597.39 4.11887 0.688421 0
M  V30 17693 N 1597.83 0.703118 1.41046 0
M  V30 17694 C 1599.07 0.236818 2.00708 0
M  V30 17695 C 1599.4 -1.17008 1.55994 0
M  V30 17696 O 1598.67 -1.79094 0.793871 0
M  V30 17697 H 1597.25 0.0845643 0.742198 0
M  V30 17698 H 1599.91 0.905964 1.72564 0
M  V30 17699 H 1599 0.260141 3.11014 0
M  V30 17700 N 1599.3 -1.51086 0.448402 0
M  V30 17701 C 1600.72 -1.59278 0.101286 0
M  V30 17702 C 1600.92 -1.45847 -1.39036 0
M  V30 17703 O 1599.98 -1.30534 -2.16142 0
M  V30 17704 C 1601.29 -2.93999 0.631264 0
M  V30 17705 C 1602.84 -3.07337 0.59268 0
M  V30 17706 C 1603.31 -4.44599 1.09982 0
M  V30 17707 N 1604.8 -4.50949 1.05827 0
M  V30 17708 C 1605.54 -5.55503 1.42142 0
M  V30 17709 N 1605.03 -6.67422 1.85796 0
M  V30 17710 N 1606.83 -5.45922 1.33888 0
M  V30 17711 H 1598.98 -1.58062 1.41881 0
M  V30 17712 H 1601.24 -0.745702 0.585349 0
M  V30 17713 H 1600.95 -3.09233 1.67534 0
M  V30 17714 H 1600.82 -3.77149 0.0622533 0
M  V30 17715 H 1603.21 -2.91764 -0.442437 0
M  V30 17716 H 1603.29 -2.26 1.19823 0
M  V30 17717 H 1602.93 -4.60919 2.13345 0
M  V30 17718 H 1602.86 -5.24492 0.470703 0
M  V30 17719 H 1605.35 -3.70627 0.737822 0
M  V30 17720 H 1605.67 -7.43234 2.11714 0
M  V30 17721 H 1604.01 -6.68601 1.89731 0
M  V30 17722 H 1607.2 -4.57372 0.996415 0
M  V30 17723 H 1607.38 -6.2729 1.62517 0
M  V30 17724 N 1600.78 -0.180154 -1.56567 0
M  V30 17725 C 1602.03 0.46252 -1.97147 0
M  V30 17726 C 1602.36 1.62654 -1.06649 0
M  V30 17727 O 1601.61 1.95432 -0.102417 0
M  V30 17728 C 1601.91 0.978895 -3.43733 0
M  V30 17729 C 1601.58 -0.0701623 -4.50845 0
M  V30 17730 C 1600.24 -0.358456 -4.79863 0
M  V30 17731 C 1602.59 -0.781763 -5.15304 0
M  V30 17732 C 1599.92 -1.36359 -5.70634 0
M  V30 17733 C 1602.27 -1.77594 -6.0716 0
M  V30 17734 C 1600.94 -2.07159 -6.3454 0
M  V30 17735 H 1600.21 0.169248 -0.721413 0
M  V30 17736 H 1602.85 -0.273976 -1.8953 0
M  V30 17737 H 1601.16 1.79338 -3.48346 0
M  V30 17738 H 1602.85 1.4853 -3.72478 0
M  V30 17739 H 1599.44 0.164708 -4.28283 0
M  V30 17740 H 1603.63 -0.572254 -4.9299 0
M  V30 17741 H 1598.88 -1.59872 -5.90128 0
M  V30 17742 H 1603.06 -2.33265 -6.56171 0
M  V30 17743 H 1600.69 -2.85191 -7.04677 0
M  V30 17744 N 1602.26 1.57322 0.0935319 0
M  V30 17745 C 1603.49 1.90099 0.80907 0
M  V30 17746 C 1603.9 0.772198 1.72724 0
M  V30 17747 O 1603.24 -0.26468 1.81783 0
M  V30 17748 C 1603.3 3.18144 1.67405 0
M  V30 17749 C 1602.97 4.47488 0.927539 0
M  V30 17750 C 1603.96 5.19266 0.256635 0
M  V30 17751 C 1601.65 4.9415 0.901156 0
M  V30 17752 C 1603.64 6.35943 -0.430665 0
M  V30 17753 C 1601.33 6.10739 0.21007 0
M  V30 17754 C 1602.33 6.81485 -0.454661 0
M  V30 17755 O 1602.02 7.95852 -1.13466 0
M  V30 17756 H 1601.75 0.633287 0.236481 0
M  V30 17757 H 1604.3 2.05264 0.0747132 0
M  V30 17758 H 1602.53 2.99129 2.45068 0
M  V30 17759 H 1604.22 3.3674 2.2663 0
M  V30 17760 H 1604.99 4.84256 0.268468 0
M  V30 17761 H 1600.87 4.38972 1.408 0
M  V30 17762 H 1604.41 6.911 -0.950082 0
M  V30 17763 H 1600.31 6.45202 0.196089 0
M  V30 17764 H 1601.08 8.11844 -1.04172 0
M  V30 17765 N 1603.74 -0.364395 1.53329 0
M  V30 17766 C 1604.65 -1.47027 1.82812 0
M  V30 17767 C 1605.66 -1.58559 0.716598 0
M  V30 17768 O 1606.84 -1.7443 1.00678 0
M  V30 17769 C 1603.91 -2.82278 2.01295 0
M  V30 17770 C 1602.97 -2.80264 3.25193 0
M  V30 17771 C 1602.2 -4.09065 3.42785 0
M  V30 17772 O 1602.42 -5.0529 2.64648 0
M  V30 17773 O 1601.36 -4.14804 4.36144 0
M  V30 17774 H 1605.18 -1.25035 2.76767 0
M  V30 17775 H 1602.77 -0.554608 1.38724 0
M  V30 17776 H 1604.65 -3.62416 2.15017 0
M  V30 17777 H 1603.32 -3.04244 1.10531 0
M  V30 17778 H 1602.23 -1.9882 3.16893 0
M  V30 17779 H 1603.56 -2.63252 4.15884 0
M  V30 17780 N 1605.22 -1.44709 -0.62426 0
M  V30 17781 C 1606.46 -1.4938 -1.39517 0
M  V30 17782 C 1606.82 -0.125721 -1.91588 0
M  V30 17783 O 1608.02 -0.0471087 -2.68759 0
M  V30 17784 C 1606.29 -2.53005 -2.52435 0
M  V30 17785 S 1607.85 -2.76776 -3.40501 0
M  V30 17786 H 1604.67 -0.528266 -0.475874 0
M  V30 17787 H 1607.27 -1.81679 -0.722007 0
M  V30 17788 H 1605.98 -3.51099 -2.12502 0
M  V30 17789 H 1605.51 -2.22301 -3.2457 0
M  V30 17790 H 1607.52 -2.08891 -4.50088 0
M  V30 17791 N 1606.69 0.865285 -1.31722 0
M  V30 17792 C 1607.94 1.6135 -1.21033 0
M  V30 17793 C 1608.26 1.94253 0.229141 0
M  V30 17794 O 1609.46 2.67613 0.457771 0
M  V30 17795 C 1607.92 2.90898 -2.11912 0
M  V30 17796 C 1607.53 2.6546 -3.60881 0
M  V30 17797 C 1609.27 3.68898 -2.10035 0
M  V30 17798 C 1607.18 3.90943 -4.43754 0
M  V30 17799 H 1606.11 0.605418 -0.449428 0
M  V30 17800 H 1608.76 0.956335 -1.56609 0
M  V30 17801 H 1607.14 3.58014 -1.69239 0
M  V30 17802 H 1608.31 2.06721 -4.11829 0
M  V30 17803 H 1606.63 2.00806 -3.64782 0
M  V30 17804 H 1609.23 4.61995 -2.69193 0
M  V30 17805 H 1609.57 4.01813 -1.08865 0
M  V30 17806 H 1610.1 3.08671 -2.50932 0
M  V30 17807 H 1606.84 3.63176 -5.45696 0
M  V30 17808 H 1606.36 4.49116 -3.97561 0
M  V30 17809 H 1608.04 4.58784 -4.56208 0
M  V30 17810 N 1608.17 1.14759 1.0802 0
M  V30 17811 C 1609.45 0.828957 1.77166 0
M  V30 17812 C 1609.83 -0.676783 1.99957 0
M  V30 17813 O 1609.18 -1.61891 1.61256 0
M  V30 17814 C 1609.39 1.63213 3.08484 0
M  V30 17815 C 1610.74 1.834 3.82948 0
M  V30 17816 O 1611.76 1.59932 3.18277 0
M  V30 17817 O 1610.62 2.22661 4.99083 0
M  V30 17818 H 1607.71 0.304168 0.769032 0
M  V30 17819 H 1610.26 1.253 1.14446 0
M  V30 17820 H 1609.03 2.65474 2.8747 0
M  V30 17821 H 1608.65 1.20397 3.78933 0
M  V30 17822 N 1609.65 -1.26251 0.943322 0
M  V30 17823 C 1611.06 -1.75591 0.634391 0
M  V30 17824 C 1611.41 -1.76812 -0.850406 0
M  V30 17825 O 1610.54 -1.38162 -1.66554 0
M  V30 17826 C 1611.13 -3.18871 1.14484 0
M  V30 17827 C 1609.69 -3.65817 0.886285 0
M  V30 17828 C 1608.84 -2.4523 1.2945 0
M  V30 17829 H 1611.79 -1.12297 1.12139 0
M  V30 17830 H 1611.81 -3.77205 0.499654 0
M  V30 17831 H 1611.32 -3.17951 2.22551 0
M  V30 17832 H 1609.42 -3.72165 -0.179913 0
M  V30 17833 H 1609.54 -4.54523 1.5148 0
M  V30 17834 H 1607.9 -2.44519 0.712919 0
M  V30 17835 H 1608.68 -2.47009 2.38415 0
M  V30 17836 N 1611.13 -0.710588 -1.40671 0
M  V30 17837 C 1612.36 -0.257442 -2.05292 0
M  V30 17838 C 1612.77 1.09891 -1.53523 0
M  V30 17839 O 1612.13 1.68966 -0.689703 0
M  V30 17840 C 1612.18 -0.223091 -3.60811 0
M  V30 17841 O 1611.9 -1.52588 -4.10668 0
M  V30 17842 C 1613.4 0.249217 -4.42599 0
M  V30 17843 H 1610.62 -0.116663 -0.66078 0
M  V30 17844 H 1613.17 -0.967391 -1.80172 0
M  V30 17845 H 1611.32 0.437787 -3.84918 0
M  V30 17846 H 1611.74 -1.42301 -5.04827 0
M  V30 17847 H 1613.21 0.22211 -5.51553 0
M  V30 17848 H 1613.69 1.29057 -4.19811 0
M  V30 17849 H 1614.29 -0.381202 -4.23588 0
M  V30 17850 N 1612.61 1.50847 -0.456408 0
M  V30 17851 C 1613.83 2.07139 0.104054 0
M  V30 17852 C 1614.26 1.31966 1.34039 0
M  V30 17853 O 1613.62 0.363038 1.77628 0
M  V30 17854 C 1613.66 3.5853 0.385794 0
M  V30 17855 O 1612.77 3.85351 1.46895 0
M  V30 17856 H 1612.11 0.663968 -0.00651246 0
M  V30 17857 H 1614.64 1.94226 -0.64323 0
M  V30 17858 H 1614.65 4.03097 0.630644 0
M  V30 17859 H 1613.32 4.12665 -0.51773 0
M  V30 17860 H 1611.9 3.52635 1.21256 0
M  V30 17861 N 1614.09 0.188454 1.56469 0
M  V30 17862 C 1615.33 -0.451165 1.97 0
M  V30 17863 C 1615.65 -1.6261 1.07624 0
M  V30 17864 O 1614.92 -1.95354 0.146125 0
M  V30 17865 H 1613.5 -0.16967 0.727476 0
M  V30 17866 H 1616.17 0.273638 1.9297 0
M  V30 17867 H 1615.26 -0.799741 3.0168 0
M  V30 17868 N 1615.56 -1.5737 -0.0851874 0
M  V30 17869 C 1616.47 -2.06097 -1.12078 0
M  V30 17870 C 1617.49 -0.987809 -1.43242 0
M  V30 17871 O 1618.67 -1.30163 -1.53686 0
M  V30 17872 C 1615.73 -2.48397 -2.41867 0
M  V30 17873 C 1614.79 -3.69951 -2.17795 0
M  V30 17874 C 1614.02 -4.10225 -3.41396 0
M  V30 17875 O 1614.25 -3.50495 -4.5001 0
M  V30 17876 O 1613.18 -5.03111 -3.30399 0
M  V30 17877 H 1617.01 -2.94625 -0.736877 0
M  V30 17878 H 1614.59 -1.4639 -0.298392 0
M  V30 17879 H 1616.47 -2.76187 -3.18274 0
M  V30 17880 H 1615.15 -1.63003 -2.79664 0
M  V30 17881 H 1614.06 -3.47263 -1.39136 0
M  V30 17882 H 1615.39 -4.56156 -1.84886 0
M  V30 17883 N 1617.04 0.356258 -1.53521 0
M  V30 17884 C 1618.46 0.698546 -1.43501 0
M  V30 17885 C 1618.66 1.92926 -0.581547 0
M  V30 17886 O 1617.71 2.5241 -0.0675947 0
M  V30 17887 C 1619.03 0.903047 -2.8682 0
M  V30 17888 C 1620.57 1.00247 -2.96512 0
M  V30 17889 C 1621.05 1.23938 -4.40912 0
M  V30 17890 N 1622.54 1.30687 -4.44382 0
M  V30 17891 C 1623.28 1.50745 -5.5323 0
M  V30 17892 N 1622.77 1.68058 -6.72107 0
M  V30 17893 N 1624.56 1.5319 -5.40823 0
M  V30 17894 H 1616.72 -0.453102 -2.07511 0
M  V30 17895 H 1618.98 -0.140708 -0.937499 0
M  V30 17896 H 1618.68 0.070416 -3.5163 0
M  V30 17897 H 1618.56 1.80847 -3.3102 0
M  V30 17898 H 1620.95 1.82564 -2.3185 0
M  V30 17899 H 1621.03 0.0742303 -2.55692 0
M  V30 17900 H 1620.67 0.421189 -5.06151 0
M  V30 17901 H 1620.6 2.18098 -4.79313 0
M  V30 17902 H 1623.09 1.18883 -3.58713 0
M  V30 17903 H 1623.4 1.82963 -7.50829 0
M  V30 17904 H 1621.75 1.65219 -6.75076 0
M  V30 17905 H 1624.94 1.39237 -4.46912 0
M  V30 17906 H 1625.11 1.6848 -6.25714 0
M  V30 17907 N 1618.52 1.45038 0.616577 0
M  V30 17908 C 1619.77 1.48585 1.37582 0
M  V30 17909 C 1620.09 0.124065 1.94104 0
M  V30 17910 O 1619.35 -0.876112 1.74994 0
M  V30 17911 C 1619.65 2.50545 2.54876 0
M  V30 17912 C 1619.31 3.95493 2.16555 0
M  V30 17913 C 1617.98 4.34963 2.05818 0
M  V30 17914 C 1620.33 4.86685 1.86512 0
M  V30 17915 C 1617.66 5.63531 1.63246 0
M  V30 17916 C 1620.01 6.15657 1.4543 0
M  V30 17917 C 1618.67 6.54066 1.33244 0
M  V30 17918 H 1617.94 0.543711 0.503447 0
M  V30 17919 H 1620.59 1.78334 0.697787 0
M  V30 17920 H 1618.89 2.14332 3.27977 0
M  V30 17921 H 1620.59 2.50531 3.13106 0
M  V30 17922 H 1617.18 3.64275 2.25836 0
M  V30 17923 H 1621.37 4.56936 1.9371 0
M  V30 17924 H 1616.62 5.92094 1.52427 0
M  V30 17925 H 1620.8 6.85768 1.21226 0
M  V30 17926 H 1618.42 7.5359 1.0003 0
M  V30 17927 N 1620 -0.858287 1.32179 0
M  V30 17928 C 1621.41 -1.4281 1.20259 0
M  V30 17929 C 1621.76 -1.95313 -0.186332 0
M  V30 17930 O 1620.88 -1.87244 -1.08484 0
M  V30 17931 C 1621.48 -2.59589 2.17713 0
M  V30 17932 C 1620.04 -3.1258 2.09691 0
M  V30 17933 C 1619.19 -1.85317 2.06283 0
M  V30 17934 H 1622.14 -0.665769 1.4406 0
M  V30 17935 H 1622.16 -3.36639 1.77354 0
M  V30 17936 H 1621.67 -2.21346 3.18791 0
M  V30 17937 H 1619.77 -3.55416 1.11849 0
M  V30 17938 H 1619.88 -3.74071 2.99346 0
M  V30 17939 H 1618.25 -2.04766 1.51469 0
M  V30 17940 H 1619.03 -1.49296 3.09137 0
M  V30 17941 N 1621.48 -1.1533 -1.07409 0
M  V30 17942 C 1622.7 -0.952101 -1.84255 0
M  V30 17943 C 1623.13 0.494571 -1.81482 0
M  V30 17944 O 1622.48 1.35253 -1.20733 0
M  V30 17945 C 1622.53 -1.47019 -3.29268 0
M  V30 17946 O 1621.64 -0.669005 -4.06937 0
M  V30 17947 H 1620.98 -0.339643 -0.57056 0
M  V30 17948 H 1623.51 -1.53298 -1.35502 0
M  V30 17949 H 1623.52 -1.48278 -3.80102 0
M  V30 17950 H 1622.19 -2.5234 -3.30602 0
M  V30 17951 H 1620.77 -0.726003 -3.65764 0
M  V30 17952 N 1622.95 1.25748 -0.950004 0
M  V30 17953 C 1624.18 1.97952 -0.618848 0
M  V30 17954 C 1624.6 1.70184 0.801194 0
M  V30 17955 O 1623.96 0.955032 1.54107 0
M  V30 17956 C 1624.01 3.49744 -0.878151 0
M  V30 17957 O 1623.11 4.12375 0.0453685 0
M  V30 17958 H 1622.45 0.620731 -0.235773 0
M  V30 17959 H 1624.98 1.59988 -1.27534 0
M  V30 17960 H 1624.99 4.00029 -0.802567 0
M  V30 17961 H 1623.67 3.69285 -1.91315 0
M  V30 17962 H 1622.25 3.7281 -0.0820265 0
M  V30 17963 N 1624.43 0.718038 1.40292 0
M  V30 17964 C 1625.34 0.0681535 2.34501 0
M  V30 17965 C 1626.36 -0.741048 1.57431 0
M  V30 17966 O 1627.53 -0.673437 1.89807 0
M  V30 17967 C 1624.6 -0.840758 3.36351 0
M  V30 17968 C 1623.66 -0.0212287 4.29295 0
M  V30 17969 C 1622.89 -0.886852 5.2628 0
M  V30 17970 O 1623.12 -2.12603 5.29298 0
M  V30 17971 O 1622.05 -0.324537 6.01024 0
M  V30 17972 H 1625.88 0.845288 2.91699 0
M  V30 17973 H 1623.46 0.478541 1.41529 0
M  V30 17974 H 1625.34 -1.36131 3.98806 0
M  V30 17975 H 1624.02 -1.597 2.81563 0
M  V30 17976 H 1622.92 0.544451 3.70117 0
M  V30 17977 H 1624.26 0.696846 4.87242 0
M  V30 17978 N 1625.91 -1.50602 0.464402 0
M  V30 17979 C 1627.16 -2.02587 -0.0930295 0
M  V30 17980 C 1627.49 -1.34618 -1.3997 0
M  V30 17981 O 1626.76 -0.469711 -1.88743 0
M  V30 17982 C 1627.05 -3.5898 -0.283783 0
M  V30 17983 C 1626.9 -4.3753 1.04344 0
M  V30 17984 C 1628.22 -4.27602 -1.04138 0
M  V30 17985 H 1625.34 -0.73629 -0.0323356 0
M  V30 17986 H 1627.98 -1.79986 0.608687 0
M  V30 17987 H 1626.13 -3.78368 -0.881488 0
M  V30 17988 H 1627.8 -4.29729 1.67721 0
M  V30 17989 H 1626.05 -4.01536 1.64168 0
M  V30 17990 H 1626.72 -5.45201 0.863691 0
M  V30 17991 H 1629.19 -4.12649 -0.534822 0
M  V30 17992 H 1628.07 -5.36854 -1.14364 0
M  V30 17993 H 1628.33 -3.9031 -2.0763 0
M  V30 17994 N 1627.39 -0.19675 -1.56367 0
M  V30 17995 C 1628.32 0.762808 -2.15073 0
M  V30 17996 C 1629.3 1.20843 -1.08792 0
M  V30 17997 O 1630.48 1.29565 -1.36913 0
M  V30 17998 C 1627.61 2.03039 -2.71096 0
M  V30 17999 C 1626.66 1.72675 -3.89981 0
M  V30 18000 S 1627.49 0.873403 -5.28329 0
M  V30 18001 C 1628.65 2.15109 -5.87775 0
M  V30 18002 H 1628.88 0.263751 -2.96128 0
M  V30 18003 H 1626.41 0.0182687 -1.54389 0
M  V30 18004 H 1628.37 2.75834 -3.04017 0
M  V30 18005 H 1627.03 2.50057 -1.9008 0
M  V30 18006 H 1626.22 2.66792 -4.27596 0
M  V30 18007 H 1625.83 1.07961 -3.58079 0
M  V30 18008 H 1628.12 3.10348 -6.02238 0
M  V30 18009 H 1629.06 1.81924 -6.84331 0
M  V30 18010 H 1629.47 2.28031 -5.16394 0
M  V30 18011 N 1628.87 1.57413 0.0768405 0
M  V30 18012 C 1629.81 2.04373 1.1106 0
M  V30 18013 C 1630.81 0.948127 1.40381 0
M  V30 18014 O 1632.01 1.13325 1.39848 0
M  V30 18015 H 1628.39 0.65156 0.375464 0
M  V30 18016 H 1630.36 2.90352 0.688348 0
M  V30 18017 C 1629.11 2.49914 2.41741 0
M  V30 18018 H 1628.43 3.33808 2.20027 0
M  V30 18019 H 1629.87 2.8653 3.12532 0
M  V30 18020 C 1628.33 1.37996 3.07341 0
M  V30 18021 O 1628.86 0.719242 3.95209 0
M  V30 18022 N 1627.07 1.12635 2.67884 0
M  V30 18023 H 1626.61 1.66545 1.96521 0
M  V30 18024 H 1626.57 0.37956 3.121 0
M  V30 18025 N 1630.34 -0.348112 1.53707 0
M  V30 18026 C 1631.29 -1.42729 1.81375 0
M  V30 18027 C 1632.26 -1.52461 0.659159 0
M  V30 18028 O 1633.45 -1.68072 0.903129 0
M  V30 18029 C 1630.59 -2.79443 2.02498 0
M  V30 18030 C 1629.7 -2.7854 3.30211 0
M  V30 18031 C 1628.83 -4.06942 3.41426 0
M  V30 18032 C 1627.87 -4.00248 4.63106 0
M  V30 18033 N 1627.01 -5.20332 4.7138 0
M  V30 18034 H 1631.85 -1.18436 2.73454 0
M  V30 18035 H 1629.39 -0.573809 1.35447 0
M  V30 18036 H 1631.35 -3.58888 2.12733 0
M  V30 18037 H 1629.98 -3.02099 1.13737 0
M  V30 18038 H 1629.03 -1.91227 3.28841 0
M  V30 18039 H 1630.34 -2.69471 4.19746 0
M  V30 18040 H 1629.49 -4.94808 3.51069 0
M  V30 18041 H 1628.23 -4.18786 2.49939 0
M  V30 18042 H 1627.24 -3.10767 4.53546 0
M  V30 18043 H 1628.46 -3.89991 5.55953 0
M  V30 18044 H 1626.41 -5.32729 3.828 0
M  V30 18045 H 1626.33 -5.13502 5.54844 0
M  V30 18046 H 1627.59 -6.09982 4.85326 0
M  V30 18047 N 1631.82 -1.45363 -0.608876 0
M  V30 18048 C 1633.05 -1.53066 -1.39949 0
M  V30 18049 C 1633.47 -0.16369 -1.87386 0
M  V30 18050 O 1632.83 0.851432 -1.60064 0
M  V30 18051 C 1632.88 -2.51836 -2.58091 0
M  V30 18052 O 1631.98 -2.03528 -3.58678 0
M  V30 18053 H 1631.32 -0.516031 -0.417861 0
M  V30 18054 H 1633.85 -1.90705 -0.74113 0
M  V30 18055 H 1633.86 -2.706 -3.05352 0
M  V30 18056 H 1632.54 -3.51117 -2.22912 0
M  V30 18057 H 1631.12 -1.94634 -3.18075 0
M  V30 18058 N 1633.3 0.851265 -1.32632 0
M  V30 18059 C 1634.72 1.14 -1.11696 0
M  V30 18060 C 1634.92 2.0125 0.100327 0
M  V30 18061 O 1633.97 2.40013 0.784233 0
M  V30 18062 C 1635.29 1.81406 -2.39817 0
M  V30 18063 C 1636.83 1.94027 -2.45607 0
M  V30 18064 C 1637.31 2.64848 -3.73657 0
M  V30 18065 N 1638.8 2.7237 -3.74658 0
M  V30 18066 C 1639.53 3.27827 -4.70443 0
M  V30 18067 N 1639.03 3.84068 -5.76596 0
M  V30 18068 N 1640.82 3.25962 -4.57936 0
M  V30 18069 H 1632.97 0.270302 -2.10673 0
M  V30 18070 H 1635.24 0.182395 -0.930288 0
M  V30 18071 H 1634.94 1.24753 -3.28831 0
M  V30 18072 H 1634.82 2.81535 -2.51034 0
M  V30 18073 H 1637.2 2.49838 -1.5705 0
M  V30 18074 H 1637.29 0.928844 -2.3834 0
M  V30 18075 H 1636.93 2.09699 -4.62589 0
M  V30 18076 H 1636.86 3.66436 -3.78196 0
M  V30 18077 H 1639.35 2.32474 -2.97933 0
M  V30 18078 H 1639.66 4.24551 -6.45737 0
M  V30 18079 H 1638.01 3.82391 -5.80347 0
M  V30 18080 H 1641.2 2.81274 -3.74169 0
M  V30 18081 H 1641.37 3.68881 -5.32758 0
M  V30 18082 N 1634.78 1.15898 1.06796 0
M  V30 18083 C 1636.02 0.947946 1.81089 0
M  V30 18084 C 1636.38 -0.51537 1.84954 0
M  V30 18085 O 1637.58 -0.844928 2.55175 0
M  V30 18086 C 1635.85 1.55214 3.21937 0
M  V30 18087 S 1637.41 1.48502 4.12907 0
M  V30 18088 H 1634.23 0.341025 0.623877 0
M  V30 18089 H 1636.83 1.4755 1.28254 0
M  V30 18090 H 1635.54 2.60996 3.16716 0
M  V30 18091 H 1635.07 1.02369 3.79848 0
M  V30 18092 H 1637.08 0.481773 4.93856 0
M  V30 18093 N 1636.26 -1.25243 0.956659 0
M  V30 18094 C 1637.17 -2.29529 0.48515 0
M  V30 18095 C 1638.18 -1.68121 -0.448494 0
M  V30 18096 O 1639.36 -1.98773 -0.324243 0
M  V30 18097 C 1636.42 -3.45952 -0.227611 0
M  V30 18098 C 1635.48 -4.22795 0.744495 0
M  V30 18099 C 1634.72 -5.3366 0.0656539 0
M  V30 18100 O 1634.94 -5.58722 -1.14829 0
M  V30 18101 O 1633.87 -5.97181 0.75222 0
M  V30 18102 H 1637.7 -2.71955 1.35181 0
M  V30 18103 H 1635.29 -1.30729 0.723203 0
M  V30 18104 H 1637.17 -4.16687 -0.628474 0
M  V30 18105 H 1635.84 -3.05524 -1.06942 0
M  V30 18106 H 1634.75 -3.5448 1.1956 0
M  V30 18107 H 1636.08 -4.67012 1.55438 0
M  V30 18108 N 1637.73 -0.725468 -1.3991 0
M  V30 18109 C 1638.96 -0.277821 -2.05531 0
M  V30 18110 C 1639.38 1.07547 -1.54322 0
M  V30 18111 O 1638.74 1.6795 -0.682828 0
M  V30 18112 C 1638.79 -0.278676 -3.59522 0
M  V30 18113 O 1637.89 0.736864 -4.05764 0
M  V30 18114 H 1637.24 -0.128243 -0.651498 0
M  V30 18115 H 1639.77 -0.988721 -1.79124 0
M  V30 18116 H 1639.78 -0.119765 -4.07824 0
M  V30 18117 H 1638.45 -1.2662 -3.96157 0
M  V30 18118 H 1637.03 0.544869 -3.68898 0
M  V30 18119 N 1639.21 1.50354 -0.472382 0
M  V30 18120 C 1640.14 2.3142 0.310995 0
M  V30 18121 C 1641.12 1.38383 0.989151 0
M  V30 18122 O 1642.31 1.67303 0.986074 0
M  V30 18123 C 1639.44 3.18157 1.3926 0
M  V30 18124 C 1638.39 4.19756 0.835977 0
M  V30 18125 C 1637.72 4.9524 2.01597 0
M  V30 18126 C 1639.02 5.22074 -0.15361 0
M  V30 18127 H 1640.71 2.97159 -0.365595 0
M  V30 18128 H 1638.26 1.42905 -0.177266 0
M  V30 18129 H 1640.21 3.73666 1.94813 0
M  V30 18130 H 1638.94 2.50305 2.09798 0
M  V30 18131 H 1637.59 3.65351 0.302414 0
M  V30 18132 H 1637.24 4.2386 2.70836 0
M  V30 18133 H 1636.94 5.63966 1.64974 0
M  V30 18134 H 1638.47 5.53584 2.57637 0
M  V30 18135 H 1639.88 5.72446 0.312783 0
M  V30 18136 H 1638.28 5.98527 -0.43418 0
M  V30 18137 H 1639.35 4.72741 -1.07908 0
M  V30 18138 N 1640.69 0.205039 1.56261 0
M  V30 18139 C 1641.62 -0.706815 2.22545 0
M  V30 18140 C 1642.6 -1.21372 1.19176 0
M  V30 18141 O 1643.79 -1.26074 1.47712 0
M  V30 18142 C 1640.92 -1.92221 2.89255 0
M  V30 18143 C 1639.87 -1.54982 3.98954 0
M  V30 18144 C 1639.2 -2.84265 4.52877 0
M  V30 18145 C 1640.5 -0.75225 5.16854 0
M  V30 18146 H 1642.19 -0.15421 2.99003 0
M  V30 18147 H 1639.74 -0.0727309 1.43816 0
M  V30 18148 H 1641.69 -2.56542 3.34311 0
M  V30 18149 H 1640.41 -2.49952 2.10218 0
M  V30 18150 H 1639.07 -0.930155 3.54604 0
M  V30 18151 H 1638.72 -3.40105 3.70591 0
M  V30 18152 H 1638.42 -2.60089 5.26904 0
M  V30 18153 H 1639.95 -3.49557 5.00642 0
M  V30 18154 H 1641.36 -1.29878 5.58395 0
M  V30 18155 H 1639.76 -0.60823 5.9701 0
M  V30 18156 H 1640.83 0.24463 4.84283 0
M  V30 18157 N 1642.17 -1.57451 -0.0684915 0
M  V30 18158 C 1643.42 -1.87411 -0.76702 0
M  V30 18159 C 1643.74 -0.797219 -1.77411 0
M  V30 18160 O 1643 0.206424 -1.94608 0
M  V30 18161 C 1643.3 -3.24044 -1.50765 0
M  V30 18162 C 1642.96 -4.46331 -0.640238 0
M  V30 18163 C 1641.63 -4.79525 -0.401205 0
M  V30 18164 C 1643.98 -5.21185 -0.0389475 0
M  V30 18165 C 1641.31 -5.84983 0.448547 0
M  V30 18166 C 1643.66 -6.27543 0.798278 0
M  V30 18167 C 1642.32 -6.59235 1.04715 0
M  V30 18168 H 1641.59 -0.685787 -0.280673 0
M  V30 18169 H 1644.24 -1.9148 -0.0277143 0
M  V30 18170 H 1642.54 -3.15782 -2.31925 0
M  V30 18171 H 1644.24 -3.44461 -2.05299 0
M  V30 18172 H 1640.83 -4.20354 -0.836675 0
M  V30 18173 H 1645.02 -4.95852 -0.210729 0
M  V30 18174 H 1640.27 -6.07934 0.650077 0
M  V30 18175 H 1644.45 -6.84705 1.27092 0
M  V30 18176 H 1642.07 -7.40779 1.70737 0
M  V30 18177 N 1643.65 0.339955 -1.5389 0
M  V30 18178 C 1644.6 1.43787 -1.82833 0
M  V30 18179 C 1645.59 1.54303 -0.699058 0
M  V30 18180 O 1646.8 1.56884 -0.882455 0
M  V30 18181 H 1643.17 0.479497 -0.579298 0
M  V30 18182 H 1645.14 1.16592 -2.7468 0
M  V30 18183 C 1643.89 2.80257 -2.05794 0
M  V30 18184 H 1643.21 2.72933 -2.92143 0
M  V30 18185 H 1644.65 3.56191 -2.30009 0
M  V30 18186 C 1643.11 3.26143 -0.844532 0
M  V30 18187 O 1643.64 4.01674 -0.0457121 0
M  V30 18188 N 1641.85 2.82988 -0.660748 0
M  V30 18189 H 1641.4 2.21687 -1.31198 0
M  V30 18190 H 1641.35 3.14044 0.149661 0
M  V30 18191 N 1645.13 1.45684 0.601159 0
M  V30 18192 C 1646.04 1.57396 1.73965 0
M  V30 18193 C 1647.05 0.458133 1.6786 0
M  V30 18194 O 1648.23 0.719717 1.88101 0
M  V30 18195 C 1645.29 1.54363 3.1044 0
M  V30 18196 C 1644.35 2.77034 3.27949 0
M  V30 18197 C 1643.59 2.74136 4.57914 0
M  V30 18198 O 1643.81 1.81829 5.40643 0
M  V30 18199 O 1642.74 3.65428 4.78274 0
M  V30 18200 H 1646.57 2.5364 1.67034 0
M  V30 18201 H 1644.15 1.28267 0.766017 0
M  V30 18202 H 1646.04 1.55302 3.91739 0
M  V30 18203 H 1644.71 0.612723 3.17848 0
M  V30 18204 H 1643.62 2.81655 2.46214 0
M  V30 18205 H 1644.95 3.69272 3.25422 0
M  V30 18206 N 1646.6 -0.84422 1.33082 0
M  V30 18207 C 1647.83 -1.63654 1.27405 0
M  V30 18208 C 1648.25 -1.87476 -0.153146 0
M  V30 18209 O 1647.61 -1.43502 -1.10801 0
M  V30 18210 C 1647.66 -2.96698 2.04945 0
M  V30 18211 O 1646.76 -3.87751 1.40439 0
M  V30 18212 H 1646.1 -0.498545 0.438576 0
M  V30 18213 H 1648.63 -1.0507 1.7556 0
M  V30 18214 H 1648.64 -3.46438 2.1551 0
M  V30 18215 H 1647.32 -2.78682 3.08722 0
M  V30 18216 H 1645.9 -3.46231 1.38487 0
M  V30 18217 N 1648.08 -1.16463 -1.0618 0
M  V30 18218 C 1649.01 -0.815728 -2.13122 0
M  V30 18219 C 1649.99 0.213124 -1.61197 0
M  V30 18220 O 1651.18 0.0969425 -1.88251 0
M  V30 18221 C 1648.3 -0.215095 -3.38016 0
M  V30 18222 C 1647.35 -1.21774 -4.08746 0
M  V30 18223 S 1648.18 -2.7649 -4.586 0
M  V30 18224 C 1649.34 -2.17879 -5.86753 0
M  V30 18225 H 1649.57 -1.72148 -2.42389 0
M  V30 18226 H 1647.1 -0.98822 -1.18632 0
M  V30 18227 H 1649.06 0.124982 -4.1031 0
M  V30 18228 H 1647.72 0.66844 -3.06905 0
M  V30 18229 H 1646.92 -0.745936 -4.98449 0
M  V30 18230 H 1646.52 -1.50296 -3.42472 0
M  V30 18231 H 1648.81 -1.54817 -6.59574 0
M  V30 18232 H 1649.75 -3.05797 -6.38666 0
M  V30 18233 H 1650.16 -1.61717 -5.4084 0
M  V30 18234 N 1649.56 1.24734 -0.963288 0
M  V30 18235 C 1650.49 2.27892 -0.508667 0
M  V30 18236 C 1651.47 1.64055 0.449438 0
M  V30 18237 O 1652.66 1.91083 0.346519 0
M  V30 18238 C 1649.79 3.46688 0.206157 0
M  V30 18239 C 1648.74 4.22762 -0.667534 0
M  V30 18240 C 1648.07 5.34402 0.178529 0
M  V30 18241 C 1649.37 4.84535 -1.94995 0
M  V30 18242 H 1651.06 2.66171 -1.37088 0
M  V30 18243 H 1648.61 1.27952 -0.660622 0
M  V30 18244 H 1650.56 4.17985 0.535391 0
M  V30 18245 H 1649.28 3.07422 1.10269 0
M  V30 18246 H 1647.94 3.53259 -0.979976 0
M  V30 18247 H 1647.59 4.91377 1.07508 0
M  V30 18248 H 1647.29 5.86218 -0.402808 0
M  V30 18249 H 1648.81 6.08529 0.502533 0
M  V30 18250 H 1650.23 5.4793 -1.68658 0
M  V30 18251 H 1648.62 5.46564 -2.47765 0
M  V30 18252 H 1649.69 4.06236 -2.64765 0
M  V30 18253 N 1651.04 0.732878 1.39523 0
M  V30 18254 C 1652.28 0.28919 2.01334 0
M  V30 18255 C 1652.64 -1.1106 1.5711 0
M  V30 18256 O 1651.93 -1.74598 0.78906 0
M  V30 18257 C 1652.13 0.32714 3.559 0
M  V30 18258 C 1651.95 1.72908 4.1513 0
M  V30 18259 C 1650.72 2.34081 4.4781 0
M  V30 18260 C 1652.92 2.68231 4.38813 0
M  V30 18261 N 1650.9 3.66452 4.92531 0
M  V30 18262 C 1652.28 3.85333 4.85715 0
M  V30 18263 C 1654.33 2.6602 4.20877 0
M  V30 18264 C 1653.03 5.00555 5.16563 0
M  V30 18265 C 1655.06 3.80385 4.52837 0
M  V30 18266 C 1654.42 4.96221 4.99944 0
M  V30 18267 H 1650.52 0.152033 0.767079 0
M  V30 18268 H 1653.1 0.958392 1.69478 0
M  V30 18269 H 1651.28 -0.311699 3.87147 0
M  V30 18270 H 1653.01 -0.134896 4.04475 0
M  V30 18271 H 1649.76 1.86025 4.35536 0
M  V30 18272 H 1650.19 4.34404 5.19251 0
M  V30 18273 H 1654.83 1.77659 3.83663 0
M  V30 18274 H 1652.55 5.89548 5.52683 0
M  V30 18275 H 1656.13 3.79969 4.40584 0
M  V30 18276 H 1655.01 5.83248 5.24205 0
M  V30 18277 N 1652.52 -1.50101 0.480349 0
M  V30 18278 C 1653.43 -2.32488 -0.31408 0
M  V30 18279 C 1654.44 -1.43285 -0.987186 0
M  V30 18280 O 1655.62 -1.7633 -0.973123 0
M  V30 18281 C 1652.68 -3.18203 -1.37651 0
M  V30 18282 C 1651.74 -4.23236 -0.71903 0
M  V30 18283 C 1650.98 -5.04854 -1.73084 0
M  V30 18284 O 1651.2 -4.87681 -2.95843 0
M  V30 18285 O 1650.13 -5.87748 -1.29755 0
M  V30 18286 H 1653.96 -3.01562 0.3597 0
M  V30 18287 H 1651.54 -1.47427 0.242029 0
M  V30 18288 H 1653.43 -3.71362 -1.9917 0
M  V30 18289 H 1652.1 -2.51846 -2.0336 0
M  V30 18290 H 1651.01 -3.74044 -0.0646492 0
M  V30 18291 H 1652.34 -4.92089 -0.104743 0
M  V30 18292 N 1653.99 -0.213323 -1.5615 0
M  V30 18293 C 1654.94 0.716708 -2.21283 0
M  V30 18294 C 1655.94 1.20599 -1.18963 0
M  V30 18295 O 1657.14 1.16677 -1.37064 0
M  V30 18296 H 1653.52 0.249524 -0.709395 0
M  V30 18297 H 1655.49 0.14385 -2.98053 0
M  V30 18298 C 1654.24 1.91775 -2.9003 0
M  V30 18299 H 1653.56 1.55036 -3.68516 0
M  V30 18300 H 1655 2.54646 -3.39016 0
M  V30 18301 C 1653.46 2.768 -1.92051 0
M  V30 18302 O 1653.99 3.75299 -1.43225 0
M  V30 18303 N 1652.19 2.42666 -1.5988 0
M  V30 18304 H 1651.74 1.62622 -1.99779 0
M  V30 18305 H 1651.7 2.99836 -0.945833 0
M  V30 18306 N 1655.47 1.57485 0.0601405 0
M  V30 18307 C 1656.44 2.03493 1.05467 0
M  V30 18308 C 1657.44 0.933816 1.30907 0
M  V30 18309 O 1658.63 1.19837 1.26431 0
M  V30 18310 C 1655.76 2.42549 2.39547 0
M  V30 18311 H 1656.95 2.92595 0.657893 0
M  V30 18312 H 1654.5 1.53272 0.306183 0
M  V30 18313 H 1655.24 1.56509 2.84034 0
M  V30 18314 H 1655.02 3.22911 2.22421 0
M  V30 18315 H 1656.51 2.7868 3.1101 0
M  V30 18316 N 1656.95 -0.331789 1.54068 0
M  V30 18317 C 1657.9 -1.40798 1.82879 0
M  V30 18318 C 1658.87 -1.51753 0.675292 0
M  V30 18319 O 1660.05 -1.67105 0.920905 0
M  V30 18320 C 1657.19 -2.7728 2.0545 0
M  V30 18321 C 1656.31 -2.75022 3.33147 0
M  V30 18322 C 1655.44 -4.03297 3.45723 0
M  V30 18323 C 1654.48 -3.95314 4.67326 0
M  V30 18324 N 1653.62 -5.15303 4.76872 0
M  V30 18325 H 1658.46 -1.15529 2.74695 0
M  V30 18326 H 1655.99 -0.559411 1.36048 0
M  V30 18327 H 1657.95 -3.56611 2.16528 0
M  V30 18328 H 1656.58 -3.00875 1.16935 0
M  V30 18329 H 1655.63 -1.87729 3.30851 0
M  V30 18330 H 1656.95 -2.65003 4.22581 0
M  V30 18331 H 1656.1 -4.91057 3.56297 0
M  V30 18332 H 1654.84 -4.16112 2.54367 0
M  V30 18333 H 1653.84 -3.05939 4.56817 0
M  V30 18334 H 1655.07 -3.84072 5.60058 0
M  V30 18335 H 1653.01 -5.28639 3.88429 0
M  V30 18336 H 1652.93 -5.07588 5.60259 0
M  V30 18337 H 1654.2 -6.04801 4.91769 0
M  V30 18338 N 1658.43 -1.46001 -0.593424 0
M  V30 18339 C 1659.36 -1.50255 -1.71752 0
M  V30 18340 C 1660.34 -0.357601 -1.58619 0
M  V30 18341 O 1661.52 -0.560187 -1.79984 0
M  V30 18342 C 1658.65 -1.37099 -3.09712 0
M  V30 18343 C 1657.7 -2.5564 -3.41395 0
M  V30 18344 S 1658.53 -4.1805 -3.34656 0
M  V30 18345 C 1659.69 -4.07384 -4.75173 0
M  V30 18346 H 1659.92 -2.45363 -1.67882 0
M  V30 18347 H 1657.45 -1.33756 -0.771275 0
M  V30 18348 H 1659.41 -1.30197 -3.89306 0
M  V30 18349 H 1658.07 -0.434384 -3.11082 0
M  V30 18350 H 1657.26 -2.42399 -4.41881 0
M  V30 18351 H 1656.87 -2.59478 -2.69346 0
M  V30 18352 H 1659.16 -3.73403 -5.65311 0
M  V30 18353 H 1660.1 -5.07831 -4.9347 0
M  V30 18354 H 1660.51 -3.38808 -4.51519 0
M  V30 18355 N 1659.91 0.83715 -1.33527 0
M  V30 18356 C 1660.85 1.96849 -1.23908 0
M  V30 18357 C 1661.85 1.6882 -0.140096 0
M  V30 18358 O 1663.05 1.77411 -0.304166 0
M  V30 18359 H 1659.43 0.646232 -0.384562 0
M  V30 18360 H 1661.4 2.02087 -2.19552 0
M  V30 18361 C 1660.15 3.33102 -0.996907 0
M  V30 18362 H 1659.47 3.5521 -1.83482 0
M  V30 18363 H 1660.91 4.12757 -0.96991 0
M  V30 18364 C 1659.37 3.3556 0.30013 0
M  V30 18365 O 1659.9 3.79868 1.30626 0
M  V30 18366 N 1658.11 2.8874 0.328269 0
M  V30 18367 H 1657.65 2.52877 -0.491043 0
M  V30 18368 H 1657.61 2.90767 1.19591 0
M  V30 18369 N 1661.38 1.17024 1.05561 0
M  V30 18370 C 1662.63 0.956325 1.78496 0
M  V30 18371 C 1662.96 -0.51532 1.87549 0
M  V30 18372 O 1662.21 -1.3986 1.36885 0
M  V30 18373 C 1662.51 1.53798 3.22616 0
M  V30 18374 C 1662.18 3.03321 3.33628 0
M  V30 18375 C 1660.84 3.44135 3.3634 0
M  V30 18376 C 1663.19 3.99325 3.34946 0
M  V30 18377 C 1660.52 4.79558 3.37995 0
M  V30 18378 C 1662.87 5.34644 3.3814 0
M  V30 18379 C 1661.54 5.74928 3.39138 0
M  V30 18380 H 1660.81 0.349944 0.653162 0
M  V30 18381 H 1663.45 1.45856 1.2409 0
M  V30 18382 H 1661.76 0.957374 3.79923 0
M  V30 18383 H 1663.46 1.34806 3.77662 0
M  V30 18384 H 1660.05 2.70782 3.32227 0
M  V30 18385 H 1664.23 3.68854 3.32055 0
M  V30 18386 H 1659.49 5.10088 3.37076 0
M  V30 18387 H 1663.66 6.08815 3.38108 0
M  V30 18388 H 1661.29 6.79843 3.40173 0
M  V30 18389 N 1662.86 -1.24221 0.969889 0
M  V30 18390 C 1664.14 -1.87715 0.549772 0
M  V30 18391 C 1664.52 -1.87333 -0.973114 0
M  V30 18392 O 1663.87 -1.3475 -1.84539 0
M  V30 18393 C 1664.08 -3.29724 1.14381 0
M  V30 18394 C 1665.43 -4.06393 1.23005 0
M  V30 18395 O 1666.45 -3.38904 1.09648 0
M  V30 18396 O 1665.31 -5.27149 1.4414 0
M  V30 18397 H 1662.4 -0.806356 0.183629 0
M  V30 18398 H 1664.95 -1.32177 1.0643 0
M  V30 18399 H 1663.72 -3.24513 2.18649 0
M  V30 18400 H 1663.34 -3.92839 0.613456 0
M  V30 18401 N 1664.34 -0.740267 -1.39132 0
M  V30 18402 C 1665.29 -0.0929334 -2.32414 0
M  V30 18403 C 1666.28 0.720062 -1.53334 0
M  V30 18404 O 1667.49 0.620656 -1.68961 0
M  V30 18405 H 1663.86 -0.0112531 -0.751916 0
M  V30 18406 H 1665.83 -0.895975 -2.84631 0
M  V30 18407 C 1664.58 0.796182 -3.38462 0
M  V30 18408 H 1663.91 0.17999 -3.99395 0
M  V30 18409 H 1665.35 1.21664 -4.0617 0
M  V30 18410 C 1663.81 1.93285 -2.75939 0
M  V30 18411 O 1664.34 3.02593 -2.64198 0
M  V30 18412 N 1662.54 1.72386 -2.33948 0
M  V30 18413 H 1662.09 0.834821 -2.43698 0
M  V30 18414 H 1662.05 2.48612 -1.92456 0
M  V30 18415 N 1665.82 1.49844 -0.488302 0
M  V30 18416 C 1667.06 2.02709 0.060788 0
M  V30 18417 C 1667.4 1.36828 1.37811 0
M  V30 18418 O 1666.67 0.499679 1.87972 0
M  V30 18419 C 1666.96 3.59386 0.226637 0
M  V30 18420 C 1666.81 4.35814 -1.11292 0
M  V30 18421 C 1668.13 4.29204 0.973218 0
M  V30 18422 H 1665.25 0.736712 0.0206177 0
M  V30 18423 H 1667.89 1.78995 -0.637245 0
M  V30 18424 H 1666.04 3.79722 0.821182 0
M  V30 18425 H 1667.71 4.27007 -1.74536 0
M  V30 18426 H 1665.95 3.98874 -1.70535 0
M  V30 18427 H 1666.62 5.43758 -0.950319 0
M  V30 18428 H 1669.1 4.13447 0.469106 0
M  V30 18429 H 1667.98 5.38605 1.05809 0
M  V30 18430 H 1668.24 3.93564 2.01394 0
M  V30 18431 N 1667.3 0.221601 1.56034 0
M  V30 18432 C 1668.54 -0.409277 1.97912 0
M  V30 18433 C 1668.87 -1.60291 1.11049 0
M  V30 18434 O 1668.14 -1.95 0.187529 0
M  V30 18435 H 1666.72 -0.154201 0.730911 0
M  V30 18436 H 1669.38 0.314508 1.92346 0
M  V30 18437 H 1668.47 -0.73557 3.03308 0
M  V30 18438 N 1668.77 -1.57515 -0.0517878 0
M  V30 18439 C 1669.72 -2.06114 -1.07795 0
M  V30 18440 C 1670.72 -0.97034 -1.38855 0
M  V30 18441 O 1671.92 -1.15536 -1.38027 0
M  V30 18442 H 1668.3 -0.657451 -0.365051 0
M  V30 18443 H 1670.27 -2.9141 -0.642068 0
M  V30 18444 C 1669.02 -2.53728 -2.37734 0
M  V30 18445 H 1668.34 -3.37266 -2.14689 0
M  V30 18446 H 1669.78 -2.91466 -3.07934 0
M  V30 18447 C 1668.24 -1.42868 -3.05107 0
M  V30 18448 O 1668.77 -0.782025 -3.94014 0
M  V30 18449 N 1666.98 -1.16882 -2.66058 0
M  V30 18450 H 1666.52 -1.6965 -1.93847 0
M  V30 18451 H 1666.48 -0.429164 -3.11457 0
M  V30 18452 N 1670.25 0.323614 -1.54242 0
M  V30 18453 C 1671.5 1.05947 -1.72104 0
M  V30 18454 C 1671.82 1.88547 -0.497512 0
M  V30 18455 O 1671.09 1.89712 0.488485 0
M  V30 18456 H 1669.67 0.394141 -0.634557 0
M  V30 18457 H 1672.33 0.360063 -1.91545 0
M  V30 18458 H 1671.43 1.72552 -2.60062 0
M  V30 18459 N 1671.73 1.46313 0.585673 0
M  V30 18460 C 1672.98 1.5147 1.34399 0
M  V30 18461 C 1673.31 0.165209 1.93797 0
M  V30 18462 O 1672.56 -0.838796 1.76813 0
M  V30 18463 C 1672.86 2.55895 2.49504 0
M  V30 18464 C 1672.53 3.99997 2.08118 0
M  V30 18465 C 1671.19 4.3923 1.96545 0
M  V30 18466 C 1673.54 4.90532 1.76147 0
M  V30 18467 C 1670.87 5.66867 1.51256 0
M  V30 18468 C 1673.22 6.18603 1.32338 0
M  V30 18469 C 1671.88 6.56745 1.1934 0
M  V30 18470 H 1671.15 0.554268 0.491801 0
M  V30 18471 H 1673.8 1.79774 0.659803 0
M  V30 18472 H 1672.11 2.21241 3.23357 0
M  V30 18473 H 1673.8 2.57116 3.07722 0
M  V30 18474 H 1670.39 3.68983 2.18058 0
M  V30 18475 H 1674.58 4.60942 1.83974 0
M  V30 18476 H 1669.83 5.95194 1.39834 0
M  V30 18477 H 1674.01 6.88185 1.06653 0
M  V30 18478 H 1671.63 7.55542 0.840228 0
M  V30 18479 N 1673.21 -0.830057 1.33969 0
M  V30 18480 C 1674.14 -1.95557 1.27592 0
M  V30 18481 C 1675.12 -1.69395 0.154745 0
M  V30 18482 O 1676.31 -1.91094 0.345954 0
M  V30 18483 C 1673.44 -3.31881 1.02335 0
M  V30 18484 C 1672.39 -3.72464 2.10842 0
M  V30 18485 C 1671.72 -5.06692 1.70785 0
M  V30 18486 C 1673.02 -3.85315 3.52604 0
M  V30 18487 H 1674.71 -2.0115 2.21763 0
M  V30 18488 H 1672.26 -0.96639 1.06756 0
M  V30 18489 H 1674.21 -4.10197 0.965206 0
M  V30 18490 H 1672.93 -3.26568 0.0460462 0
M  V30 18491 H 1671.59 -2.96417 2.15714 0
M  V30 18492 H 1671.24 -4.97859 0.717334 0
M  V30 18493 H 1670.94 -5.34817 2.43403 0
M  V30 18494 H 1672.46 -5.87474 1.66452 0
M  V30 18495 H 1673.88 -4.5392 3.50185 0
M  V30 18496 H 1672.27 -4.24886 4.23783 0
M  V30 18497 H 1673.34 -2.87514 3.90466 0
M  V30 18498 N 1674.69 -1.17582 -1.04939 0
M  V30 18499 C 1675.91 -0.99097 -1.82194 0
M  V30 18500 C 1676.34 0.455965 -1.8249 0
M  V30 18501 O 1675.7 1.32661 -1.23575 0
M  V30 18502 C 1675.74 -1.53971 -3.26076 0
M  V30 18503 O 1674.85 -0.755172 -4.05427 0
M  V30 18504 H 1674.19 -0.351669 -0.563227 0
M  V30 18505 H 1676.72 -1.56138 -1.3222 0
M  V30 18506 H 1676.73 -1.56307 -3.76872 0
M  V30 18507 H 1675.4 -2.59295 -3.25175 0
M  V30 18508 H 1673.98 -0.803423 -3.64142 0
M  V30 18509 N 1676.17 1.23705 -0.976463 0
M  V30 18510 C 1677.1 2.2734 -0.532809 0
M  V30 18511 C 1678.08 1.64523 0.432012 0
M  V30 18512 O 1679.26 1.9144 0.326233 0
M  V30 18513 C 1676.39 3.46887 0.169374 0
M  V30 18514 C 1675.35 4.22031 -0.712336 0
M  V30 18515 C 1674.67 5.34561 0.121838 0
M  V30 18516 C 1675.97 4.8244 -2.00123 0
M  V30 18517 H 1677.67 2.64702 -1.39904 0
M  V30 18518 H 1675.21 1.27244 -0.674156 0
M  V30 18519 H 1677.16 4.18529 0.491028 0
M  V30 18520 H 1675.89 3.08574 1.07002 0
M  V30 18521 H 1674.55 3.522 -1.01739 0
M  V30 18522 H 1674.2 4.92489 1.0229 0
M  V30 18523 H 1673.9 5.85758 -0.464962 0
M  V30 18524 H 1675.42 6.09027 0.437963 0
M  V30 18525 H 1676.83 5.46111 -1.7446 0
M  V30 18526 H 1675.23 5.43906 -2.53548 0
M  V30 18527 H 1676.3 4.03405 -2.69059 0
M  V30 18528 N 1677.64 0.747635 1.38738 0
M  V30 18529 C 1678.57 0.131317 2.3313 0
M  V30 18530 C 1679.55 -0.710229 1.54563 0
M  V30 18531 O 1680.74 -0.652631 1.82905 0
M  V30 18532 C 1677.87 -0.767168 3.38721 0
M  V30 18533 C 1676.82 -0.0288124 4.2799 0
M  V30 18534 C 1676.15 -1.04515 5.24386 0
M  V30 18535 C 1677.45 1.13608 5.09795 0
M  V30 18536 H 1679.14 0.91981 2.84921 0
M  V30 18537 H 1676.69 0.443764 1.36992 0
M  V30 18538 H 1678.64 -1.20796 4.03716 0
M  V30 18539 H 1677.37 -1.58792 2.85399 0
M  V30 18540 H 1676.03 0.392491 3.64493 0
M  V30 18541 H 1675.67 -1.8598 4.67355 0
M  V30 18542 H 1675.37 -0.555813 5.84965 0
M  V30 18543 H 1676.9 -1.48538 5.92257 0
M  V30 18544 H 1678.31 0.773129 5.68063 0
M  V30 18545 H 1676.71 1.55589 5.79579 0
M  V30 18546 H 1677.78 1.95182 4.43883 0
M  V30 18547 N 1679.12 -1.49583 0.496242 0
M  V30 18548 C 1680.05 -2.26936 -0.321366 0
M  V30 18549 C 1681.07 -1.33282 -0.934863 0
M  V30 18550 O 1682.26 -1.58602 -0.819008 0
M  V30 18551 C 1679.36 -3.05503 -1.467 0
M  V30 18552 C 1678.53 -4.26697 -0.961687 0
M  V30 18553 C 1677.59 -4.8735 -1.98436 0
M  V30 18554 O 1676.61 -5.47553 -1.55482 0
M  V30 18555 N 1677.82 -4.76577 -3.31443 0
M  V30 18556 H 1680.58 -2.97744 0.341884 0
M  V30 18557 H 1678.14 -1.58532 0.328504 0
M  V30 18558 H 1680.13 -3.42954 -2.1486 0
M  V30 18559 H 1678.7 -2.37334 -2.03449 0
M  V30 18560 H 1677.92 -3.9406 -0.105143 0
M  V30 18561 H 1679.21 -5.05221 -0.602405 0
M  V30 18562 H 1678.61 -4.28756 -3.69032 0
M  V30 18563 H 1677.17 -5.18226 -3.95329 0
M  V30 18564 N 1680.6 -0.229873 -1.55915 0
M  V30 18565 C 1681.85 0.400157 -1.98813 0
M  V30 18566 C 1682.18 1.58821 -1.11756 0
M  V30 18567 O 1681.45 1.93692 -0.177094 0
M  V30 18568 C 1681.74 0.826623 -3.50484 0
M  V30 18569 C 1681.59 -0.365647 -4.48311 0
M  V30 18570 C 1682.91 1.6798 -4.06781 0
M  V30 18571 H 1680.03 0.143977 -0.7228 0
M  V30 18572 H 1682.67 -0.327775 -1.87151 0
M  V30 18573 H 1680.82 1.44687 -3.60552 0
M  V30 18574 H 1682.49 -1.00391 -4.50244 0
M  V30 18575 H 1680.73 -1.01168 -4.21838 0
M  V30 18576 H 1681.41 -0.0241816 -5.51995 0
M  V30 18577 H 1683.88 1.15639 -3.99708 0
M  V30 18578 H 1682.76 1.94708 -5.13206 0
M  V30 18579 H 1683.02 2.64594 -3.54179 0
M  V30 18580 N 1682.08 1.5754 0.0434337 0
M  V30 18581 C 1683.04 2.046 1.03303 0
M  V30 18582 C 1684.04 0.947648 1.29909 0
M  V30 18583 O 1685.23 1.21171 1.25153 0
M  V30 18584 C 1682.36 2.45077 2.36961 0
M  V30 18585 H 1683.56 2.93276 0.626822 0
M  V30 18586 H 1681.11 1.53588 0.289909 0
M  V30 18587 H 1681.84 1.59513 2.82358 0
M  V30 18588 H 1681.63 3.25252 2.18983 0
M  V30 18589 H 1683.12 2.81963 3.08037 0
M  V30 18590 N 1683.56 -0.31543 1.54411 0
M  V30 18591 C 1684.78 -1.07173 1.76979 0
M  V30 18592 C 1685.2 -1.81432 0.522285 0
M  V30 18593 O 1684.56 -1.75306 -0.507348 0
M  V30 18594 C 1684.61 -2.06352 2.96818 0
M  V30 18595 O 1684.33 -1.35108 4.16746 0
M  V30 18596 C 1685.83 -2.94136 3.31661 0
M  V30 18597 H 1683.05 -0.318455 0.590616 0
M  V30 18598 H 1685.59 -0.359085 2.01323 0
M  V30 18599 H 1683.75 -2.7314 2.74724 0
M  V30 18600 H 1684.16 -2.01593 4.84211 0
M  V30 18601 H 1685.64 -3.59606 4.18793 0
M  V30 18602 H 1686.11 -3.6167 2.49182 0
M  V30 18603 H 1686.72 -2.32899 3.55863 0
M  V30 18604 N 1685.03 -1.46622 -0.577906 0
M  V30 18605 C 1686.28 -1.52181 -1.33594 0
M  V30 18606 C 1686.61 -0.175484 -1.93707 0
M  V30 18607 O 1685.86 0.829407 -1.77255 0
M  V30 18608 C 1686.16 -2.57215 -2.48144 0
M  V30 18609 C 1685.83 -4.01095 -2.05993 0
M  V30 18610 C 1684.49 -4.40267 -1.94213 0
M  V30 18611 C 1686.84 -4.91459 -1.73543 0
M  V30 18612 C 1684.17 -5.67661 -1.48248 0
M  V30 18613 C 1686.52 -6.19296 -1.29055 0
M  V30 18614 C 1685.19 -6.57369 -1.15856 0
M  V30 18615 H 1684.46 -0.556868 -0.488855 0
M  V30 18616 H 1687.1 -1.80122 -0.65026 0
M  V30 18617 H 1685.41 -2.22952 -3.22179 0
M  V30 18618 H 1687.11 -2.58744 -3.06354 0
M  V30 18619 H 1683.7 -3.70134 -2.16098 0
M  V30 18620 H 1687.88 -4.61911 -1.81527 0
M  V30 18621 H 1683.14 -5.95928 -1.36676 0
M  V30 18622 H 1687.31 -6.88741 -1.03001 0
M  V30 18623 H 1684.94 -7.55977 -0.800148 0
M  V30 18624 N 1686.51 0.822941 -1.34408 0
M  V30 18625 C 1687.46 1.95524 -1.25988 0
M  V30 18626 C 1688.45 1.68662 -0.157994 0
M  V30 18627 O 1689.66 1.77079 -0.322966 0
M  V30 18628 H 1686.04 0.642117 -0.391394 0
M  V30 18629 H 1688.01 1.99747 -2.21683 0
M  V30 18630 C 1686.76 3.32026 -1.03218 0
M  V30 18631 H 1686.08 3.53244 -1.87239 0
M  V30 18632 H 1687.52 4.11706 -1.01363 0
M  V30 18633 C 1685.98 3.3586 0.264523 0
M  V30 18634 O 1686.51 3.81232 1.26589 0
M  V30 18635 N 1684.71 2.89072 0.297626 0
M  V30 18636 H 1684.26 2.52341 -0.517836 0
M  V30 18637 H 1684.22 2.92019 1.165 0
M  V30 18638 N 1687.99 1.18137 1.04314 0
M  V30 18639 C 1689.24 0.973277 1.77121 0
M  V30 18640 C 1689.56 -0.498558 1.88519 0
M  V30 18641 O 1688.83 -1.36168 1.40837 0
M  V30 18642 H 1687.41 0.35712 0.656105 0
M  V30 18643 H 1690.07 1.48774 1.25906 0
M  V30 18644 H 1689.17 1.40917 2.78476 0
M  V30 18645 N 1689.47 -1.23186 0.98301 0
M  V30 18646 C 1690.71 -1.92259 0.663941 0
M  V30 18647 C 1691.07 -1.75245 -0.794155 0
M  V30 18648 O 1690.36 -1.10437 -1.5657 0
M  V30 18649 C 1690.56 -3.43331 0.992898 0
M  V30 18650 C 1690.39 -3.75041 2.48142 0
M  V30 18651 C 1689.16 -3.95589 3.14384 0
M  V30 18652 C 1691.35 -3.80309 3.46222 0
M  V30 18653 N 1689.34 -4.14526 4.52815 0
M  V30 18654 C 1690.71 -4.04269 4.70071 0
M  V30 18655 C 1692.76 -3.63113 3.40666 0
M  V30 18656 C 1691.46 -4.12819 5.89044 0
M  V30 18657 C 1693.49 -3.72916 4.59007 0
M  V30 18658 C 1692.85 -3.97316 5.81652 0
M  V30 18659 H 1688.95 -0.724605 0.29406 0
M  V30 18660 H 1691.54 -1.48347 1.261 0
M  V30 18661 H 1689.71 -3.86073 0.424507 0
M  V30 18662 H 1691.44 -3.99753 0.630833 0
M  V30 18663 H 1688.19 -3.92605 2.64874 0
M  V30 18664 H 1688.62 -4.27943 5.24589 0
M  V30 18665 H 1693.26 -3.43242 2.4687 0
M  V30 18666 H 1690.98 -4.31496 6.83255 0
M  V30 18667 H 1694.56 -3.60962 4.56287 0
M  V30 18668 H 1693.44 -4.04719 6.71694 0
M  V30 18669 N 1690.95 -0.754982 -1.38339 0
M  V30 18670 C 1692.2 -0.308537 -1.99326 0
M  V30 18671 C 1692.51 1.1164 -1.60611 0
M  V30 18672 O 1693.71 1.66339 -2.14578 0
M  V30 18673 C 1692.17 -0.500688 -3.564 0
M  V30 18674 C 1691.78 -1.9348 -4.04066 0
M  V30 18675 C 1693.52 -0.117026 -4.24339 0
M  V30 18676 C 1691.43 -2.07544 -5.53786 0
M  V30 18677 H 1690.36 -0.111611 -0.745694 0
M  V30 18678 H 1693.01 -0.931722 -1.58086 0
M  V30 18679 H 1691.39 0.191702 -3.95536 0
M  V30 18680 H 1692.57 -2.66077 -3.76217 0
M  V30 18681 H 1690.88 -2.27351 -3.48856 0
M  V30 18682 H 1693.48 -0.200847 -5.34323 0
M  V30 18683 H 1693.82 0.930531 -4.05767 0
M  V30 18684 H 1694.35 -0.761323 -3.90447 0
M  V30 18685 H 1691.09 -3.10559 -5.77264 0
M  V30 18686 H 1690.61 -1.39409 -5.83374 0
M  V30 18687 H 1692.29 -1.86605 -6.19506 0
M  V30 18688 N 1692.42 1.49318 -0.504168 0
M  V30 18689 C 1693.65 2.06869 0.0359415 0
M  V30 18690 C 1694.07 1.3641 1.30529 0
M  V30 18691 O 1693.42 0.443416 1.77031 0
M  V30 18692 C 1693.48 3.60333 0.290233 0
M  V30 18693 O 1693.2 4.28141 -0.928801 0
M  V30 18694 C 1694.7 4.34606 0.873628 0
M  V30 18695 H 1691.92 0.670643 -0.0218893 0
M  V30 18696 H 1694.46 1.92058 -0.702432 0
M  V30 18697 H 1692.62 3.74836 0.978594 0
M  V30 18698 H 1693.03 5.19894 -0.693595 0
M  V30 18699 H 1694.5 5.42846 1.00112 0
M  V30 18700 H 1694.98 3.97297 1.87221 0
M  V30 18701 H 1695.59 4.24717 0.222638 0
M  V30 18702 N 1693.9 0.238138 1.5579 0
M  V30 18703 C 1695.15 -0.389474 1.97904 0
M  V30 18704 C 1695.46 -1.59707 1.1293 0
M  V30 18705 O 1696.67 -2.29526 1.45017 0
M  V30 18706 C 1695.13 -0.744319 3.52119 0
M  V30 18707 C 1694.73 0.441387 4.4582 0
M  V30 18708 C 1696.48 -1.33661 4.02908 0
M  V30 18709 C 1694.39 0.063184 5.91366 0
M  V30 18710 H 1693.32 -0.149291 0.739072 0
M  V30 18711 H 1695.97 0.336972 1.80379 0
M  V30 18712 H 1694.35 -1.52865 3.65306 0
M  V30 18713 H 1695.52 1.21881 4.44389 0
M  V30 18714 H 1693.84 0.948017 4.05465 0
M  V30 18715 H 1696.43 -1.63276 5.09161 0
M  V30 18716 H 1696.78 -2.2581 3.49737 0
M  V30 18717 H 1697.31 -0.615366 3.93012 0
M  V30 18718 H 1694.05 0.951584 6.48556 0
M  V30 18719 H 1693.57 -0.678216 5.95953 0
M  V30 18720 H 1695.25 -0.357712 6.4601 0
M  V30 18721 N 1695.38 -1.57561 -0.0350783 0
M  V30 18722 C 1696.31 -2.01535 -1.07046 0
M  V30 18723 C 1697.29 -0.898604 -1.35513 0
M  V30 18724 O 1698.48 -1.16395 -1.48271 0
M  V30 18725 C 1695.6 -2.3833 -2.40659 0
M  V30 18726 C 1694.65 -3.60386 -2.28088 0
M  V30 18727 S 1695.48 -5.09768 -1.64001 0
M  V30 18728 C 1696.64 -5.498 -2.99116 0
M  V30 18729 H 1696.87 -2.89041 -0.695884 0
M  V30 18730 H 1694.4 -1.52446 -0.244859 0
M  V30 18731 H 1696.36 -2.602 -3.175 0
M  V30 18732 H 1695.02 -1.51286 -2.75266 0
M  V30 18733 H 1694.22 -3.83767 -3.26709 0
M  V30 18734 H 1693.82 -3.38336 -1.59389 0
M  V30 18735 H 1696.11 -5.50117 -3.95447 0
M  V30 18736 H 1697.05 -6.50184 -2.80475 0
M  V30 18737 H 1697.46 -4.77296 -3.01412 0
M  V30 18738 N 1696.86 0.307236 -1.54576 0
M  V30 18739 C 1697.81 1.39877 -1.85842 0
M  V30 18740 C 1698.8 1.52786 -0.73163 0
M  V30 18741 O 1700.01 1.54977 -0.915534 0
M  V30 18742 H 1696.38 0.467101 -0.589339 0
M  V30 18743 H 1698.35 1.10739 -2.77091 0
M  V30 18744 C 1697.1 2.75829 -2.11692 0
M  V30 18745 H 1696.42 2.66675 -2.97867 0
M  V30 18746 H 1697.86 3.51232 -2.37513 0
M  V30 18747 C 1696.32 3.24278 -0.913522 0
M  V30 18748 O 1696.85 4.01487 -0.130903 0
M  V30 18749 N 1695.06 2.81523 -0.720625 0
M  V30 18750 H 1694.61 2.18854 -1.3587 0
M  V30 18751 H 1694.56 3.1429 0.083014 0
M  V30 18752 N 1698.34 1.46926 0.570122 0
M  V30 18753 C 1699.56 1.56722 1.35841 0
M  V30 18754 C 1699.99 0.213314 1.86887 0
M  V30 18755 O 1699.34 -0.808694 1.62265 0
M  V30 18756 C 1699.39 2.5859 2.51323 0
M  V30 18757 O 1698.5 2.12966 3.53156 0
M  V30 18758 H 1697.84 0.526929 0.404032 0
M  V30 18759 H 1700.37 1.92603 0.690308 0
M  V30 18760 H 1700.38 2.78601 2.9807 0
M  V30 18761 H 1699.05 3.56903 2.13525 0
M  V30 18762 H 1697.63 2.02999 3.12803 0
M  V30 18763 N 1699.82 -0.815801 1.34842 0
M  V30 18764 C 1700.78 -1.90871 1.2689 0
M  V30 18765 C 1701.78 -1.59762 0.182445 0
M  V30 18766 O 1702.97 -1.68667 0.435543 0
M  V30 18767 C 1700.1 -3.27081 0.960774 0
M  V30 18768 H 1701.29 -1.99343 2.24059 0
M  V30 18769 H 1698.85 -1.0106 1.19233 0
M  V30 18770 H 1699.58 -3.24299 -0.00744059 0
M  V30 18771 H 1699.37 -3.51045 1.74671 0
M  V30 18772 H 1700.86 -4.07101 0.930494 0
M  V30 18773 N 1701.29 -1.18689 -1.03686 0
M  V30 18774 C 1702.54 -0.978948 -1.7635 0
M  V30 18775 C 1702.86 0.49195 -1.89312 0
M  V30 18776 O 1704.06 0.818501 -2.58868 0
M  V30 18777 C 1702.52 -1.70255 -3.17083 0
M  V30 18778 C 1702.13 -3.21301 -3.12201 0
M  V30 18779 C 1703.87 -1.57756 -3.94098 0
M  V30 18780 C 1701.78 -3.86284 -4.47815 0
M  V30 18781 H 1700.71 -0.362652 -0.661059 0
M  V30 18782 H 1703.36 -1.42102 -1.161 0
M  V30 18783 H 1701.74 -1.18826 -3.77752 0
M  V30 18784 H 1702.91 -3.79785 -2.6096 0
M  V30 18785 H 1701.23 -3.33984 -2.48684 0
M  V30 18786 H 1703.83 -2.03664 -4.94394 0
M  V30 18787 H 1704.17 -0.530427 -4.12907 0
M  V30 18788 H 1704.7 -2.06486 -3.40012 0
M  V30 18789 H 1701.44 -4.91061 -4.34211 0
M  V30 18790 H 1700.96 -3.32589 -4.99144 0
M  V30 18791 H 1702.64 -3.89369 -5.16721 0
M  V30 18792 N 1702.77 1.22662 -0.989529 0
M  V30 18793 C 1704.05 1.86816 -0.579566 0
M  V30 18794 C 1704.43 1.88858 0.943188 0
M  V30 18795 O 1703.78 1.37668 1.82372 0
M  V30 18796 C 1703.99 3.27863 -1.19612 0
M  V30 18797 C 1705.33 4.04384 -1.29454 0
M  V30 18798 O 1706.36 3.37116 -1.15026 0
M  V30 18799 O 1705.22 5.24789 -1.52508 0
M  V30 18800 H 1702.31 0.803332 -0.196434 0
M  V30 18801 H 1704.86 1.30467 -1.08519 0
M  V30 18802 H 1703.63 3.20993 -2.23784 0
M  V30 18803 H 1703.25 3.91813 -0.675875 0
M  V30 18804 N 1704.25 0.762308 1.37937 0
M  V30 18805 C 1705.47 0.332217 2.04722 0
M  V30 18806 C 1705.9 -1.03417 1.57119 0
M  V30 18807 O 1705.26 -1.6608 0.727117 0
M  V30 18808 C 1705.31 0.373899 3.58656 0
M  V30 18809 O 1704.41 -0.629024 4.07575 0
M  V30 18810 H 1703.75 0.145471 0.647869 0
M  V30 18811 H 1706.28 1.03586 1.7644 0
M  V30 18812 H 1706.29 0.22785 4.07363 0
M  V30 18813 H 1704.97 1.37079 3.92661 0
M  V30 18814 H 1703.54 -0.446871 3.70213 0
M  V30 18815 N 1705.73 -1.49049 0.51208 0
M  V30 18816 C 1706.97 -2.0278 -0.0285311 0
M  V30 18817 C 1707.31 -1.39003 -1.35617 0
M  V30 18818 O 1706.58 -0.52952 -1.87153 0
M  V30 18819 C 1706.86 -3.59701 -0.169433 0
M  V30 18820 C 1706.72 -4.33989 1.18211 0
M  V30 18821 C 1708.04 -4.30698 -0.904812 0
M  V30 18822 H 1705.16 -0.736946 -0.00889467 0
M  V30 18823 H 1707.8 -1.77959 0.66564 0
M  V30 18824 H 1705.95 -3.8098 -0.760667 0
M  V30 18825 H 1707.62 -4.24176 1.81307 0
M  V30 18826 H 1705.86 -3.9611 1.76859 0
M  V30 18827 H 1706.53 -5.42177 1.03671 0
M  V30 18828 H 1709.01 -4.14141 -0.40327 0
M  V30 18829 H 1707.89 -5.40221 -0.972264 0
M  V30 18830 H 1708.15 -3.96718 -1.95108 0
M  V30 18831 N 1707.21 -0.246397 -1.55662 0
M  V30 18832 C 1708.17 0.640041 -2.20082 0
M  V30 18833 C 1709.17 1.10313 -1.16994 0
M  V30 18834 O 1710.36 1.00792 -1.42079 0
M  V30 18835 C 1707.49 1.87964 -2.84398 0
M  V30 18836 H 1708.68 0.0780034 -2.99799 0
M  V30 18837 H 1706.24 0.00314588 -1.563 0
M  V30 18838 H 1706.97 2.48292 -2.08618 0
M  V30 18839 H 1706.76 1.5558 -3.59913 0
M  V30 18840 H 1708.25 2.51065 -3.33701 0
M  V30 18841 N 1708.68 1.57577 0.026722 0
M  V30 18842 C 1709.93 1.8966 0.718124 0
M  V30 18843 C 1710.26 0.844423 1.7488 0
M  V30 18844 O 1709.54 -0.14023 1.93994 0
M  V30 18845 C 1709.82 3.32377 1.38555 0
M  V30 18846 C 1709.67 4.4829 0.368227 0
M  V30 18847 C 1710.99 3.74051 2.31891 0
M  V30 18848 H 1708.11 0.689767 0.259596 0
M  V30 18849 H 1710.75 1.8999 -0.0190825 0
M  V30 18850 H 1708.9 3.32226 2.01391 0
M  V30 18851 H 1710.58 4.60576 -0.258394 0
M  V30 18852 H 1708.82 4.32675 -0.312255 0
M  V30 18853 H 1709.49 5.45041 0.873749 0
M  V30 18854 H 1711.97 3.75584 1.79097 0
M  V30 18855 H 1710.84 4.74713 2.7557 0
M  V30 18856 H 1711.1 3.06438 3.18666 0
M  V30 18857 N 1710.16 -0.299034 1.54737 0
M  V30 18858 C 1711.11 -1.38889 1.86581 0
M  V30 18859 C 1712.1 -1.52396 0.739723 0
M  V30 18860 O 1713.31 -1.5449 0.92374 0
M  V30 18861 H 1709.68 -0.463969 0.591808 0
M  V30 18862 H 1711.66 -1.09268 2.77674 0
M  V30 18863 C 1710.4 -2.74702 2.13152 0
M  V30 18864 H 1709.73 -2.65092 2.99277 0
M  V30 18865 H 1711.17 -3.49967 2.39372 0
M  V30 18866 C 1709.63 -3.23789 0.930706 0
M  V30 18867 O 1710.16 -4.01412 0.152193 0
M  V30 18868 N 1708.36 -2.81137 0.735545 0
M  V30 18869 H 1707.91 -2.1813 1.37029 0
M  V30 18870 H 1707.87 -3.1433 -0.0663452 0
M  V30 18871 N 1711.64 -1.47227 -0.562322 0
M  V30 18872 C 1712.89 -1.52851 -1.31604 0
M  V30 18873 C 1713.2 -0.193236 -1.94643 0
M  V30 18874 O 1714.41 -0.127429 -2.71201 0
M  V30 18875 C 1712.86 -2.69422 -2.3862 0
M  V30 18876 C 1712.47 -4.09457 -1.81794 0
M  V30 18877 C 1714.22 -2.84334 -3.15205 0
M  V30 18878 C 1712.12 -5.17337 -2.8656 0
M  V30 18879 H 1711.05 -0.568923 -0.494816 0
M  V30 18880 H 1713.7 -1.73489 -0.597819 0
M  V30 18881 H 1712.09 -2.42153 -3.13333 0
M  V30 18882 H 1713.26 -4.46606 -1.13487 0
M  V30 18883 H 1711.57 -3.99387 -1.17811 0
M  V30 18884 H 1714.17 -3.621 -3.93431 0
M  V30 18885 H 1714.51 -1.9259 -3.69073 0
M  V30 18886 H 1715.05 -3.11348 -2.47603 0
M  V30 18887 H 1711.79 -6.1094 -2.37554 0
M  V30 18888 H 1711.31 -4.8471 -3.53293 0
M  V30 18889 H 1712.99 -5.44065 -3.50146 0
M  V30 18890 N 1713.12 0.808639 -1.35273 0
M  V30 18891 C 1714.05 1.92839 -1.23878 0
M  V30 18892 C 1715.06 1.61987 -0.162543 0
M  V30 18893 O 1716.25 1.73593 -0.41564 0
M  V30 18894 C 1713.35 3.27158 -0.884369 0
M  V30 18895 C 1712.52 3.85931 -2.05855 0
M  V30 18896 C 1711.58 4.98652 -1.68025 0
M  V30 18897 O 1710.61 5.16188 -2.39871 0
M  V30 18898 N 1711.81 5.77363 -0.602684 0
M  V30 18899 H 1714.58 2.03141 -2.20349 0
M  V30 18900 H 1712.14 0.985956 -1.28415 0
M  V30 18901 H 1714.13 4.00033 -0.612814 0
M  V30 18902 H 1712.7 3.12599 -0.00940584 0
M  V30 18903 H 1711.92 3.05274 -2.49402 0
M  V30 18904 H 1713.21 4.21929 -2.84347 0
M  V30 18905 H 1712.61 5.657 -0.00570741 0
M  V30 18906 H 1711.16 6.50627 -0.390903 0
M  V30 18907 N 1714.6 1.19237 1.03055 0
M  V30 18908 C 1716.01 0.996569 1.57878 0
M  V30 18909 C 1716.36 -0.450987 1.90946 0
M  V30 18910 O 1715.48 -1.33009 1.70697 0
M  V30 18911 C 1716.08 1.80272 2.86858 0
M  V30 18912 C 1714.64 1.65097 3.3826 0
M  V30 18913 C 1713.78 1.79079 2.11721 0
M  V30 18914 H 1716.74 1.33633 0.856037 0
M  V30 18915 H 1716.76 1.29781 3.57683 0
M  V30 18916 H 1716.27 2.85621 2.62759 0
M  V30 18917 H 1714.37 0.623267 3.6735 0
M  V30 18918 H 1714.48 2.45527 4.11404 0
M  V30 18919 H 1712.85 1.22124 2.23512 0
M  V30 18920 H 1713.63 2.85885 1.90065 0
M  V30 18921 N 1716.07 -1.22136 0.99602 0
M  V30 18922 C 1717.02 -2.2199 0.520059 0
M  V30 18923 C 1718.01 -1.55497 -0.413454 0
M  V30 18924 O 1719.2 -1.75369 -0.239765 0
M  V30 18925 C 1716.33 -3.42923 -0.160875 0
M  V30 18926 C 1715.42 -4.16618 0.793126 0
M  V30 18927 N 1715.81 -4.67022 1.94226 0
M  V30 18928 C 1714.1 -4.41814 0.609648 0
M  V30 18929 C 1714.81 -5.23252 2.5413 0
M  V30 18930 N 1713.78 -5.12096 1.8237 0
M  V30 18931 H 1717.58 -2.58606 1.39643 0
M  V30 18932 H 1715.1 -1.37842 0.858682 0
M  V30 18933 H 1717.09 -4.13654 -0.519266 0
M  V30 18934 H 1715.75 -3.07818 -1.03334 0
M  V30 18935 H 1716.77 -4.62882 2.32294 0
M  V30 18936 H 1713.44 -4.16938 -0.216495 0
M  V30 18937 H 1714.83 -5.72769 3.51263 0
M  V30 18938 N 1717.55 -0.769612 -1.37531 0
M  V30 18939 C 1718.8 -0.332966 -1.99744 0
M  V30 18940 C 1719.13 1.0899 -1.61094 0
M  V30 18941 O 1718.38 1.7639 -0.847656 0
M  V30 18942 C 1718.68 -0.421385 -3.54907 0
M  V30 18943 C 1718.35 -1.8022 -4.13318 0
M  V30 18944 C 1717.01 -2.18005 -4.28984 0
M  V30 18945 C 1719.36 -2.70724 -4.45374 0
M  V30 18946 C 1716.69 -3.45736 -4.74008 0
M  V30 18947 C 1719.04 -3.97862 -4.91822 0
M  V30 18948 C 1717.71 -4.35695 -5.05694 0
M  V30 18949 H 1716.98 -0.121841 -0.730914 0
M  V30 18950 H 1719.62 -0.98322 -1.64332 0
M  V30 18951 H 1717.93 0.312411 -3.90552 0
M  V30 18952 H 1719.62 -0.0648705 -4.00948 0
M  V30 18953 H 1716.21 -1.49852 -4.0155 0
M  V30 18954 H 1720.4 -2.42792 -4.32857 0
M  V30 18955 H 1715.65 -3.74946 -4.82935 0
M  V30 18956 H 1719.83 -4.68121 -5.15593 0
M  V30 18957 H 1717.46 -5.34729 -5.40341 0
M  V30 18958 N 1719.03 1.48775 -0.519977 0
M  V30 18959 C 1719.94 2.33239 0.252329 0
M  V30 18960 C 1720.96 1.45852 0.948849 0
M  V30 18961 O 1722.13 1.78848 0.92603 0
M  V30 18962 C 1719.2 3.2174 1.29166 0
M  V30 18963 C 1718.26 4.24993 0.606564 0
M  V30 18964 C 1717.49 5.09266 1.59638 0
M  V30 18965 O 1717.71 4.95353 2.82809 0
M  V30 18966 O 1716.65 5.90981 1.14127 0
M  V30 18967 H 1720.47 3.00503 -0.439527 0
M  V30 18968 H 1718.06 1.46733 -0.281032 0
M  V30 18969 H 1719.94 3.76512 1.89254 0
M  V30 18970 H 1718.62 2.5715 1.96611 0
M  V30 18971 H 1717.52 3.74084 -0.0345447 0
M  V30 18972 H 1718.86 4.92193 -0.0257627 0
M  V30 18973 N 1720.51 0.254649 1.55529 0
M  V30 18974 C 1721.75 -0.368477 1.99424 0
M  V30 18975 C 1722.09 -1.57023 1.14269 0
M  V30 18976 O 1721.36 -1.93386 0.207886 0
M  V30 18977 C 1721.65 -0.77076 3.51755 0
M  V30 18978 C 1721.5 0.436923 4.47673 0
M  V30 18979 C 1722.82 -1.61487 4.09402 0
M  V30 18980 H 1719.94 -0.132459 0.724999 0
M  V30 18981 H 1722.58 0.357508 1.86606 0
M  V30 18982 H 1720.73 -1.38932 3.62809 0
M  V30 18983 H 1722.4 1.07541 4.4859 0
M  V30 18984 H 1720.64 1.07866 4.20175 0
M  V30 18985 H 1721.31 0.111996 5.51886 0
M  V30 18986 H 1723.79 -1.09265 4.01498 0
M  V30 18987 H 1722.67 -1.86519 5.16238 0
M  V30 18988 H 1722.93 -2.58926 3.58343 0
M  V30 18989 N 1721.99 -1.57589 -0.0183649 0
M  V30 18990 C 1722.93 -2.08354 -1.03398 0
M  V30 18991 C 1723.93 -0.999575 -1.36766 0
M  V30 18992 O 1725.13 -1.18438 -1.35545 0
M  V30 18993 H 1721.51 -0.665046 -0.351023 0
M  V30 18994 H 1723.48 -2.92707 -0.580111 0
M  V30 18995 C 1722.23 -2.58713 -2.32299 0
M  V30 18996 H 1721.55 -3.41744 -2.07487 0
M  V30 18997 H 1722.99 -2.97932 -3.01683 0
M  V30 18998 C 1721.45 -1.49307 -3.02008 0
M  V30 18999 O 1721.98 -0.865426 -3.92267 0
M  V30 19000 N 1720.19 -1.225 -2.63519 0
M  V30 19001 H 1719.73 -1.73724 -1.90205 0
M  V30 19002 H 1719.69 -0.495132 -3.10477 0
M  V30 19003 N 1723.46 0.290824 -1.54893 0
M  V30 19004 C 1724.71 1.02244 -1.73865 0
M  V30 19005 C 1725.03 1.88079 -0.537166 0
M  V30 19006 O 1726.23 2.64584 -0.608908 0
M  V30 19007 C 1724.69 1.86762 -3.07649 0
M  V30 19008 C 1724.3 1.0588 -4.35308 0
M  V30 19009 C 1726.04 2.59461 -3.35976 0
M  V30 19010 C 1723.95 1.89734 -5.60138 0
M  V30 19011 H 1722.88 0.385455 -0.648028 0
M  V30 19012 H 1725.53 0.27893 -1.81368 0
M  V30 19013 H 1723.91 2.6514 -2.94137 0
M  V30 19014 H 1725.08 0.320443 -4.59684 0
M  V30 19015 H 1723.4 0.447169 -4.13992 0
M  V30 19016 H 1726 3.22569 -4.26442 0
M  V30 19017 H 1726.34 3.28823 -2.55306 0
M  V30 19018 H 1726.87 1.88126 -3.50505 0
M  V30 19019 H 1723.61 1.24825 -6.43505 0
M  V30 19020 H 1723.13 2.61215 -5.39932 0
M  V30 19021 H 1724.81 2.47535 -5.97775 0
M  V30 19022 N 1724.94 1.47523 0.554506 0
M  V30 19023 C 1726.17 1.57678 1.33496 0
M  V30 19024 C 1726.58 0.226976 1.87834 0
M  V30 19025 O 1725.92 -0.790327 1.6583 0
M  V30 19026 C 1725.99 2.54423 2.53987 0
M  V30 19027 C 1725.65 4.00056 2.20916 0
M  V30 19028 C 1726.65 4.88462 1.78048 0
M  V30 19029 C 1724.33 4.45412 2.32192 0
M  V30 19030 C 1726.33 6.20244 1.46889 0
M  V30 19031 C 1724.01 5.77221 2.00646 0
M  V30 19032 C 1725.01 6.64459 1.58062 0
M  V30 19033 O 1724.7 7.93818 1.26917 0
M  V30 19034 H 1724.43 0.535053 0.413152 0
M  V30 19035 H 1726.98 1.93878 0.678279 0
M  V30 19036 H 1725.21 2.13296 3.22555 0
M  V30 19037 H 1726.9 2.54676 3.16061 0
M  V30 19038 H 1727.67 4.54667 1.68827 0
M  V30 19039 H 1723.55 3.77715 2.64296 0
M  V30 19040 H 1727.09 6.88292 1.13578 0
M  V30 19041 H 1722.99 6.10557 2.095 0
M  V30 19042 H 1723.76 8.06347 1.40525 0
M  V30 19043 N 1726.42 -0.801453 1.357 0
M  V30 19044 C 1727.35 -1.9196 1.23396 0
M  V30 19045 C 1728.33 -1.62151 0.12072 0
M  V30 19046 O 1729.52 -1.8626 0.289725 0
M  V30 19047 C 1726.64 -3.26491 0.901174 0
M  V30 19048 C 1725.69 -3.75243 2.02718 0
M  V30 19049 S 1726.52 -3.92435 3.64356 0
M  V30 19050 C 1727.68 -5.2986 3.33165 0
M  V30 19051 H 1727.91 -2.02103 2.1804 0
M  V30 19052 H 1725.44 -0.959388 1.20976 0
M  V30 19053 H 1727.4 -4.04208 0.715976 0
M  V30 19054 H 1726.06 -3.14088 -0.0272881 0
M  V30 19055 H 1725.26 -4.72694 1.7486 0
M  V30 19056 H 1724.86 -3.0454 2.17098 0
M  V30 19057 H 1727.15 -6.14029 2.86312 0
M  V30 19058 H 1728.09 -5.62715 4.29835 0
M  V30 19059 H 1728.5 -4.9639 2.68807 0
M  V30 19060 N 1727.9 -1.19782 -1.02421 0
M  V30 19061 C 1729.13 -1.02721 -1.79254 0
M  V30 19062 C 1729.54 0.426969 -1.84319 0
M  V30 19063 O 1728.88 1.30832 -1.28953 0
M  V30 19064 C 1728.94 -1.52594 -3.25508 0
M  V30 19065 C 1728.61 -3.00778 -3.44066 0
M  V30 19066 C 1729.6 -3.98502 -3.33905 0
M  V30 19067 C 1727.29 -3.39572 -3.7013 0
M  V30 19068 C 1729.28 -5.33012 -3.49539 0
M  V30 19069 C 1726.97 -4.7424 -3.85408 0
M  V30 19070 C 1727.97 -5.70769 -3.75116 0
M  V30 19071 O 1727.65 -7.02997 -3.89937 0
M  V30 19072 H 1727.39 -0.362151 -0.570808 0
M  V30 19073 H 1729.94 -1.5914 -1.2986 0
M  V30 19074 H 1728.17 -0.90555 -3.75948 0
M  V30 19075 H 1729.86 -1.31671 -3.8395 0
M  V30 19076 H 1730.63 -3.69875 -3.13715 0
M  V30 19077 H 1726.5 -2.64986 -3.77231 0
M  V30 19078 H 1730.05 -6.0834 -3.41421 0
M  V30 19079 H 1725.95 -5.02561 -4.05096 0
M  V30 19080 H 1726.71 -7.10136 -4.07 0
M  V30 19081 N 1729.38 1.21606 -1.00248 0
M  V30 19082 C 1730.62 1.92326 -0.692091 0
M  V30 19083 C 1730.98 1.76196 0.76282 0
M  V30 19084 O 1732.18 2.41266 1.18508 0
M  V30 19085 C 1730.45 3.40099 -1.09853 0
M  V30 19086 S 1732.01 4.29304 -0.907961 0
M  V30 19087 H 1728.83 0.664561 -0.252744 0
M  V30 19088 H 1731.43 1.47181 -1.28678 0
M  V30 19089 H 1730.14 3.49355 -2.15359 0
M  V30 19090 H 1729.67 3.9026 -0.496031 0
M  V30 19091 H 1731.68 4.95811 0.196321 0
M  V30 19092 N 1730.86 0.776895 1.37121 0
M  V30 19093 C 1732.09 0.354582 2.03534 0
M  V30 19094 C 1732.49 -1.02976 1.58722 0
M  V30 19095 O 1731.84 -1.66956 0.766255 0
M  V30 19096 C 1731.9 0.324836 3.58029 0
M  V30 19097 C 1731.56 1.65463 4.25994 0
M  V30 19098 C 1732.56 2.60797 4.49756 0
M  V30 19099 C 1730.24 1.93049 4.63721 0
M  V30 19100 C 1732.24 3.8192 5.1031 0
M  V30 19101 C 1729.93 3.14441 5.23995 0
M  V30 19102 C 1730.92 4.08695 5.47227 0
M  V30 19103 O 1730.61 5.27949 6.06238 0
M  V30 19104 H 1730.34 0.145861 0.660076 0
M  V30 19105 H 1732.9 1.05336 1.76334 0
M  V30 19106 H 1731.13 -0.43035 3.84298 0
M  V30 19107 H 1732.82 -0.0711053 4.05838 0
M  V30 19108 H 1733.58 2.40768 4.21017 0
M  V30 19109 H 1729.46 1.20509 4.4497 0
M  V30 19110 H 1733.01 4.55502 5.28359 0
M  V30 19111 H 1728.9 3.34352 5.52158 0
M  V30 19112 H 1729.67 5.28844 6.24713 0
M  V30 19113 N 1732.33 -1.48497 0.527859 0
M  V30 19114 C 1733.58 -2.02499 -0.00701157 0
M  V30 19115 C 1733.91 -1.40516 -1.34483 0
M  V30 19116 O 1733.16 -0.539575 -1.88115 0
M  V30 19117 C 1733.46 -3.56945 -0.180276 0
M  V30 19118 C 1733.13 -4.37703 1.08291 0
M  V30 19119 C 1731.79 -4.59489 1.42911 0
M  V30 19120 C 1734.14 -4.84495 1.92131 0
M  V30 19121 C 1731.47 -5.25313 2.61272 0
M  V30 19122 C 1733.82 -5.51623 3.09669 0
M  V30 19123 C 1732.49 -5.71648 3.44637 0
M  V30 19124 H 1731.76 -0.740996 -0.00256572 0
M  V30 19125 H 1734.4 -1.78503 0.693453 0
M  V30 19126 H 1732.71 -3.79768 -0.963491 0
M  V30 19127 H 1734.41 -3.96348 -0.609009 0
M  V30 19128 H 1731 -4.21005 0.803293 0
M  V30 19129 H 1735.18 -4.67468 1.66696 0
M  V30 19130 H 1730.44 -5.39015 2.8857 0
M  V30 19131 H 1734.61 -5.86849 3.74942 0
M  V30 19132 H 1732.24 -6.22426 4.36451 0
M  V30 19133 N 1733.81 -0.262893 -1.55392 0
M  V30 19134 C 1735.06 0.357939 -1.98499 0
M  V30 19135 C 1735.37 1.5789 -1.15456 0
M  V30 19136 O 1736.58 2.2719 -1.4865 0
M  V30 19137 C 1735.04 0.688205 -3.53259 0
M  V30 19138 C 1734.64 -0.512257 -4.45062 0
M  V30 19139 C 1736.39 1.27234 -4.04984 0
M  V30 19140 C 1734.29 -0.157257 -5.91191 0
M  V30 19141 H 1733.22 0.137514 -0.741354 0
M  V30 19142 H 1735.88 -0.365626 -1.79821 0
M  V30 19143 H 1734.26 1.47034 -3.67692 0
M  V30 19144 H 1735.43 -1.28935 -4.42394 0
M  V30 19145 H 1733.75 -1.0124 -4.03905 0
M  V30 19146 H 1736.34 1.55155 -5.11694 0
M  V30 19147 H 1736.69 2.20217 -3.53285 0
M  V30 19148 H 1737.22 0.552763 -3.93941 0
M  V30 19149 H 1733.96 -1.05464 -6.4696 0
M  V30 19150 H 1733.48 0.583319 -5.96957 0
M  V30 19151 H 1735.16 0.254892 -6.46498 0
M  V30 19152 N 1735.29 1.57597 0.0100073 0
M  V30 19153 C 1736.24 2.089 1.02292 0
M  V30 19154 C 1737.23 1.00681 1.36234 0
M  V30 19155 O 1738.44 1.19155 1.34915 0
M  V30 19156 H 1734.81 0.666899 0.347491 0
M  V30 19157 H 1736.78 2.9301 0.56458 0
M  V30 19158 C 1735.53 2.59942 2.30923 0
M  V30 19159 H 1734.86 3.4284 2.05672 0
M  V30 19160 H 1736.3 2.99528 3.00098 0
M  V30 19161 C 1734.75 1.50907 3.01212 0
M  V30 19162 O 1735.28 0.886216 3.91802 0
M  V30 19163 N 1733.49 1.23895 2.62866 0
M  V30 19164 H 1733.04 1.7473 1.89281 0
M  V30 19165 H 1733 0.511591 3.1021 0
M  V30 19166 N 1736.77 -0.282606 1.55045 0
M  V30 19167 C 1738.01 -1.01547 1.75198 0
M  V30 19168 C 1738.34 -1.86627 0.54779 0
M  V30 19169 O 1737.6 -1.89974 -0.46993 0
M  V30 19170 C 1737.9 -1.93554 3.00452 0
M  V30 19171 C 1737.56 -1.24303 4.33428 0
M  V30 19172 C 1736.22 -1.0515 4.69571 0
M  V30 19173 C 1738.58 -0.749451 5.15784 0
M  V30 19174 C 1735.9 -0.353528 5.85634 0
M  V30 19175 C 1738.26 -0.0651157 6.32566 0
M  V30 19176 C 1736.92 0.138206 6.67357 0
M  V30 19177 H 1736.19 -0.371587 0.641096 0
M  V30 19178 H 1738.84 -0.288623 1.89312 0
M  V30 19179 H 1737.14 -2.72828 2.81197 0
M  V30 19180 H 1738.84 -2.50363 3.1324 0
M  V30 19181 H 1735.43 -1.4022 4.05014 0
M  V30 19182 H 1739.61 -0.885074 4.88344 0
M  V30 19183 H 1734.87 -0.185186 6.11119 0
M  V30 19184 H 1739.04 0.325146 6.95641 0
M  V30 19185 H 1736.67 0.681034 7.57143 0
M  V30 19186 N 1738.25 -1.47815 -0.546675 0
M  V30 19187 C 1739.49 -1.54238 -1.29975 0
M  V30 19188 C 1739.81 -0.213869 -1.94427 0
M  V30 19189 O 1741.01 -0.156187 -2.7105 0
M  V30 19190 C 1739.47 -2.71938 -2.35749 0
M  V30 19191 C 1739.08 -4.11362 -1.77441 0
M  V30 19192 C 1740.82 -2.87661 -3.12172 0
M  V30 19193 C 1738.73 -5.20347 -2.81057 0
M  V30 19194 H 1737.66 -0.574139 -0.488754 0
M  V30 19195 H 1740.31 -1.74113 -0.579384 0
M  V30 19196 H 1738.69 -2.45463 -3.10747 0
M  V30 19197 H 1739.87 -4.47785 -1.08744 0
M  V30 19198 H 1738.18 -4.00614 -1.13568 0
M  V30 19199 H 1740.78 -3.66252 -3.89568 0
M  V30 19200 H 1741.12 -1.96494 -3.67009 0
M  V30 19201 H 1741.65 -3.13957 -2.44286 0
M  V30 19202 H 1738.39 -6.13426 -2.31061 0
M  V30 19203 H 1737.91 -4.8843 -3.48132 0
M  V30 19204 H 1739.59 -5.47748 -3.44355 0
M  V30 19205 N 1739.72 0.794246 -1.36123 0
M  V30 19206 C 1740.97 1.54708 -1.29416 0
M  V30 19207 C 1741.29 1.95195 0.125849 0
M  V30 19208 O 1742.49 2.69663 0.315271 0
M  V30 19209 C 1740.95 2.79256 -2.27034 0
M  V30 19210 C 1740.56 2.45957 -3.74445 0
M  V30 19211 C 1742.3 3.57246 -2.29294 0
M  V30 19212 C 1740.21 3.66871 -4.63853 0
M  V30 19213 H 1739.14 0.580743 -0.480888 0
M  V30 19214 H 1741.79 0.871975 -1.61458 0
M  V30 19215 H 1740.17 3.4854 -1.87979 0
M  V30 19216 H 1741.34 1.846 -4.22208 0
M  V30 19217 H 1739.66 1.81187 -3.74913 0
M  V30 19218 H 1742.26 4.47076 -2.93304 0
M  V30 19219 H 1742.6 3.95478 -1.30011 0
M  V30 19220 H 1743.13 2.94936 -2.66941 0
M  V30 19221 H 1739.87 3.33739 -5.6418 0
M  V30 19222 H 1739.39 4.27411 -4.20809 0
M  V30 19223 H 1741.07 4.33957 -4.79886 0
M  V30 19224 N 1741.2 1.20323 1.01785 0
M  V30 19225 C 1742.45 1.01263 1.75363 0
M  V30 19226 C 1742.78 -0.455392 1.89094 0
M  V30 19227 O 1742.03 -1.35435 1.41266 0
M  V30 19228 C 1742.33 1.63984 3.1756 0
M  V30 19229 C 1742 3.13781 3.23809 0
M  V30 19230 C 1740.66 3.54661 3.25222 0
M  V30 19231 C 1743.01 4.09779 3.22072 0
M  V30 19232 C 1740.34 4.90068 3.22568 0
M  V30 19233 C 1742.69 5.45131 3.20959 0
M  V30 19234 C 1741.35 5.85426 3.20675 0
M  V30 19235 H 1740.62 0.370547 0.641698 0
M  V30 19236 H 1743.27 1.4973 1.19387 0
M  V30 19237 H 1741.58 1.07776 3.76685 0
M  V30 19238 H 1743.27 1.46753 3.73182 0
M  V30 19239 H 1739.86 2.81215 3.23444 0
M  V30 19240 H 1744.05 3.79231 3.20152 0
M  V30 19241 H 1739.3 5.20553 3.20678 0
M  V30 19242 H 1743.48 6.19264 3.18568 0
M  V30 19243 H 1741.1 6.90321 3.18373 0
M  V30 19244 N 1742.68 -1.21073 1.00892 0
M  V30 19245 C 1743.93 -1.89866 0.69248 0
M  V30 19246 C 1744.25 -1.7874 -0.779562 0
M  V30 19247 O 1743.52 -1.18482 -1.56009 0
M  V30 19248 H 1742.1 -0.702799 0.253145 0
M  V30 19249 H 1744.76 -1.47075 1.27887 0
M  V30 19250 H 1743.86 -2.96673 0.969098 0
M  V30 19251 N 1744.16 -0.784156 -1.36707 0
M  V30 19252 C 1745.4 -0.354658 -1.99675 0
M  V30 19253 C 1745.74 1.06948 -1.62098 0
M  V30 19254 O 1745.01 1.73798 -0.873192 0
M  V30 19255 C 1745.3 -0.512421 -3.56435 0
M  V30 19256 C 1745.15 -1.97987 -4.03883 0
M  V30 19257 C 1746.47 0.075762 -4.40035 0
M  V30 19258 H 1743.59 -0.130338 -0.725383 0
M  V30 19259 H 1746.23 -0.989515 -1.62199 0
M  V30 19260 H 1744.38 0.0280323 -3.8849 0
M  V30 19261 H 1746.05 -2.58098 -3.82339 0
M  V30 19262 H 1744.29 -2.48433 -3.55617 0
M  V30 19263 H 1744.96 -2.04125 -5.12871 0
M  V30 19264 H 1747.44 -0.385522 -4.1431 0
M  V30 19265 H 1746.32 -0.0646832 -5.48862 0
M  V30 19266 H 1746.58 1.16735 -4.2641 0
M  V30 19267 N 1745.64 1.48215 -0.535727 0
M  V30 19268 C 1746.88 2.025 -0.00372753 0
M  V30 19269 C 1747.21 1.41227 1.33735 0
M  V30 19270 O 1746.47 0.549544 1.87826 0
M  V30 19271 C 1746.77 3.57036 0.161344 0
M  V30 19272 C 1746.43 4.37122 -1.10611 0
M  V30 19273 C 1745.09 4.58724 -1.45346 0
M  V30 19274 C 1747.45 4.83469 -1.94698 0
M  V30 19275 C 1744.77 5.2392 -2.64055 0
M  V30 19276 C 1747.13 5.49973 -3.1259 0
M  V30 19277 C 1745.79 5.69812 -3.47664 0
M  V30 19278 H 1745.06 0.740999 -0.001364 0
M  V30 19279 H 1747.71 1.78133 -0.70291 0
M  V30 19280 H 1746.01 3.80274 0.943337 0
M  V30 19281 H 1747.71 3.96666 0.587981 0
M  V30 19282 H 1744.3 4.20573 -0.825608 0
M  V30 19283 H 1748.48 4.66577 -1.69173 0
M  V30 19284 H 1743.74 5.37477 -2.91424 0
M  V30 19285 H 1747.91 5.84852 -3.78049 0
M  V30 19286 H 1745.54 6.20103 -4.39746 0
M  V30 19287 N 1747.11 0.27113 1.5525 0
M  V30 19288 C 1748.04 -0.61179 2.25343 0
M  V30 19289 C 1749.03 -1.16208 1.24216 0
M  V30 19290 O 1750.21 -1.19696 1.52927 0
M  V30 19291 C 1747.34 -1.7978 2.97147 0
M  V30 19292 C 1746.29 -1.37922 4.05169 0
M  V30 19293 C 1745.62 -2.64801 4.64526 0
M  V30 19294 C 1746.92 -0.532357 5.1958 0
M  V30 19295 H 1748.61 -0.0272538 2.99388 0
M  V30 19296 H 1746.16 -0.0116681 1.43995 0
M  V30 19297 H 1748.11 -2.42132 3.44891 0
M  V30 19298 H 1746.84 -2.40811 2.20631 0
M  V30 19299 H 1745.5 -0.778918 3.5823 0
M  V30 19300 H 1745.14 -3.24081 3.84682 0
M  V30 19301 H 1744.84 -2.37507 5.37461 0
M  V30 19302 H 1746.37 -3.28009 5.15017 0
M  V30 19303 H 1747.78 -1.06078 5.63401 0
M  V30 19304 H 1746.18 -0.35447 5.99052 0
M  V30 19305 H 1747.25 0.44981 4.82809 0
M  V30 19306 N 1748.59 -1.576 -0.00164943 0
M  V30 19307 C 1750 -1.78578 -0.544681 0
M  V30 19308 C 1750.35 -0.905575 -1.74051 0
M  V30 19309 O 1749.48 -0.107614 -2.16132 0
M  V30 19310 C 1750.07 -3.23863 -0.994898 0
M  V30 19311 C 1748.63 -3.45943 -1.48325 0
M  V30 19312 C 1747.78 -2.73887 -0.433702 0
M  V30 19313 H 1750.73 -1.57104 0.224524 0
M  V30 19314 H 1750.75 -3.31885 -1.86099 0
M  V30 19315 H 1750.26 -3.87901 -0.124352 0
M  V30 19316 H 1748.37 -2.87118 -2.37474 0
M  V30 19317 H 1748.48 -4.54621 -1.51185 0
M  V30 19318 H 1746.84 -2.38458 -0.894969 0
M  V30 19319 H 1747.63 -3.40623 0.42785 0
M  V30 19320 N 1750.07 0.274379 -1.55193 0
M  V30 19321 C 1751 1.34336 -1.90987 0
M  V30 19322 C 1751.98 1.51594 -0.771582 0
M  V30 19323 O 1753.17 1.6466 -1.0296 0
M  V30 19324 C 1750.3 2.70312 -2.18057 0
M  V30 19325 C 1749.25 2.67787 -3.33878 0
M  V30 19326 C 1748.58 4.07301 -3.46425 0
M  V30 19327 C 1749.88 2.27178 -4.70306 0
M  V30 19328 H 1751.57 1.04627 -2.80524 0
M  V30 19329 H 1749.12 0.501867 -1.34971 0
M  V30 19330 H 1751.07 3.45205 -2.41685 0
M  V30 19331 H 1749.79 3.01601 -1.25318 0
M  V30 19332 H 1748.45 1.95351 -3.10216 0
M  V30 19333 H 1748.1 4.3581 -2.51155 0
M  V30 19334 H 1747.8 4.06507 -4.24295 0
M  V30 19335 H 1749.32 4.83935 -3.72343 0
M  V30 19336 H 1750.74 2.91794 -4.93487 0
M  V30 19337 H 1749.14 2.37548 -5.51082 0
M  V30 19338 H 1750.21 1.22309 -4.69221 0
M  V30 19339 N 1751.55 1.48103 0.538828 0
M  V30 19340 C 1752.77 1.59568 1.32487 0
M  V30 19341 C 1753.2 0.252908 1.86392 0
M  V30 19342 O 1752.56 -0.774094 1.63944 0
M  V30 19343 C 1752.6 2.63863 2.45782 0
M  V30 19344 O 1751.71 2.20409 3.48559 0
M  V30 19345 H 1751.05 0.53538 0.392765 0
M  V30 19346 H 1753.58 1.94024 0.649299 0
M  V30 19347 H 1753.59 2.8486 2.92093 0
M  V30 19348 H 1752.26 3.61352 2.05906 0
M  V30 19349 H 1750.84 2.09588 3.08427 0
M  V30 19350 N 1753.03 -0.787016 1.36542 0
M  V30 19351 C 1753.96 -1.9064 1.25425 0
M  V30 19352 C 1754.94 -1.62014 0.137912 0
M  V30 19353 O 1756.12 -1.85942 0.309465 0
M  V30 19354 C 1753.25 -3.25517 0.935752 0
M  V30 19355 C 1752.29 -3.73072 2.06687 0
M  V30 19356 S 1753.13 -3.88548 3.68498 0
M  V30 19357 C 1754.28 -5.26297 3.38766 0
M  V30 19358 H 1754.52 -1.99779 2.20172 0
M  V30 19359 H 1752.05 -0.946503 1.21986 0
M  V30 19360 H 1754.01 -4.03426 0.758807 0
M  V30 19361 H 1752.67 -3.14099 0.00602668 0
M  V30 19362 H 1751.86 -4.70813 1.79864 0
M  V30 19363 H 1751.46 -3.0222 2.20316 0
M  V30 19364 H 1753.76 -6.10958 2.92808 0
M  V30 19365 H 1754.7 -5.58124 4.35779 0
M  V30 19366 H 1755.11 -4.93511 2.74057 0
M  V30 19367 N 1754.5 -1.20861 -1.01145 0
M  V30 19368 C 1755.43 -0.986058 -2.11658 0
M  V30 19369 C 1756.42 0.0867558 -1.69879 0
M  V30 19370 O 1757.6 -0.0717892 -1.94067 0
M  V30 19371 C 1754.73 -0.542938 -3.4303 0
M  V30 19372 C 1753.68 -1.55958 -3.98574 0
M  V30 19373 C 1753.01 -0.972917 -5.25774 0
M  V30 19374 C 1754.31 -2.94471 -4.31375 0
M  V30 19375 H 1756 -1.91035 -2.30534 0
M  V30 19376 H 1753.55 -0.919914 -1.10786 0
M  V30 19377 H 1755.5 -0.374446 -4.19733 0
M  V30 19378 H 1754.23 0.416988 -3.23927 0
M  V30 19379 H 1752.89 -1.71552 -3.23984 0
M  V30 19380 H 1752.53 -0.00490446 -5.03 0
M  V30 19381 H 1752.23 -1.65194 -5.63901 0
M  V30 19382 H 1753.76 -0.815607 -6.05128 0
M  V30 19383 H 1755.17 -2.82358 -4.98946 0
M  V30 19384 H 1753.57 -3.59327 -4.80629 0
M  V30 19385 H 1754.64 -3.45804 -3.39923 0
M  V30 19386 N 1755.98 1.20536 -1.01532 0
M  V30 19387 C 1757.23 1.89191 -0.699258 0
M  V30 19388 C 1757.54 1.79624 0.774238 0
M  V30 19389 O 1758.75 2.43402 1.20281 0
M  V30 19390 C 1757.21 3.39294 -1.20033 0
M  V30 19391 C 1756.81 3.57449 -2.70064 0
M  V30 19392 C 1758.56 4.13511 -0.959626 0
M  V30 19393 C 1756.47 5.01371 -3.13658 0
M  V30 19394 H 1755.4 0.708537 -0.257859 0
M  V30 19395 H 1758.05 1.36368 -1.22785 0
M  V30 19396 H 1756.43 3.91432 -0.599728 0
M  V30 19397 H 1757.6 3.15702 -3.35662 0
M  V30 19398 H 1755.92 2.966 -2.92262 0
M  V30 19399 H 1758.51 5.19624 -1.26077 0
M  V30 19400 H 1758.86 4.1617 0.103934 0
M  V30 19401 H 1759.39 3.67469 -1.52354 0
M  V30 19402 H 1756.13 5.03866 -4.19285 0
M  V30 19403 H 1755.65 5.43933 -2.52779 0
M  V30 19404 H 1757.33 5.69944 -3.06224 0
M  V30 19405 N 1757.46 0.791395 1.36289 0
M  V30 19406 C 1758.69 0.376696 2.03442 0
M  V30 19407 C 1759.1 -1.00753 1.59669 0
M  V30 19408 O 1758.46 -1.64657 0.787042 0
M  V30 19409 C 1758.51 0.433074 3.58897 0
M  V30 19410 O 1758.23 1.76272 4.01073 0
M  V30 19411 C 1759.73 0.00925475 4.43299 0
M  V30 19412 H 1756.95 0.154989 0.652855 0
M  V30 19413 H 1759.5 1.07079 1.74225 0
M  V30 19414 H 1757.65 -0.212623 3.86816 0
M  V30 19415 H 1758.07 1.71492 4.95672 0
M  V30 19416 H 1759.54 0.0998386 5.5191 0
M  V30 19417 H 1760.02 -1.04362 4.26621 0
M  V30 19418 H 1760.62 0.627518 4.20645 0
M  V30 19419 N 1758.94 -1.47929 0.54358 0
M  V30 19420 C 1760.19 -2.02795 0.014488 0
M  V30 19421 C 1760.52 -1.41848 -1.32638 0
M  V30 19422 O 1759.79 -0.569099 -1.85988 0
M  V30 19423 C 1760.08 -3.5998 -0.093097 0
M  V30 19424 C 1759.93 -4.31384 1.2739 0
M  V30 19425 C 1761.25 -4.32521 -0.813251 0
M  V30 19426 H 1758.37 -0.736969 0.00673905 0
M  V30 19427 H 1761.01 -1.76507 0.703238 0
M  V30 19428 H 1759.16 -3.82508 -0.679685 0
M  V30 19429 H 1760.83 -4.20235 1.90264 0
M  V30 19430 H 1759.07 -3.9227 1.85221 0
M  V30 19431 H 1759.75 -5.39856 1.15148 0
M  V30 19432 H 1762.22 -4.14903 -0.315334 0
M  V30 19433 H 1761.1 -5.42161 -0.857456 0
M  V30 19434 H 1761.36 -4.00768 -1.86649 0
M  V30 19435 N 1760.42 -0.27936 -1.55104 0
M  V30 19436 C 1761.67 0.336866 -1.98867 0
M  V30 19437 C 1761.98 1.56656 -1.17124 0
M  V30 19438 O 1763.19 2.25601 -1.51051 0
M  V30 19439 C 1761.64 0.650699 -3.53969 0
M  V30 19440 C 1761.25 -0.559433 -4.44493 0
M  V30 19441 C 1762.99 1.22931 -4.0631 0
M  V30 19442 C 1760.9 -0.219952 -5.90991 0
M  V30 19443 H 1759.83 0.129643 -0.742771 0
M  V30 19444 H 1762.48 -0.384678 -1.79423 0
M  V30 19445 H 1760.86 1.43126 -3.6923 0
M  V30 19446 H 1762.04 -1.3362 -4.41001 0
M  V30 19447 H 1760.35 -1.05519 -4.02809 0
M  V30 19448 H 1762.95 1.49719 -5.13311 0
M  V30 19449 H 1763.29 2.16458 -3.55601 0
M  V30 19450 H 1763.83 0.51095 -3.94505 0
M  V30 19451 H 1760.56 -1.1232 -6.45805 0
M  V30 19452 H 1760.08 0.519971 -5.97542 0
M  V30 19453 H 1761.76 0.186308 -6.46732 0
M  V30 19454 N 1761.9 1.57599 -0.0067085 0
M  V30 19455 C 1763.14 1.90036 0.675957 0
M  V30 19456 C 1763.46 0.882449 1.74563 0
M  V30 19457 O 1764.66 1.09728 2.48339 0
M  V30 19458 C 1763.12 3.37366 1.25349 0
M  V30 19459 C 1762.73 4.47468 0.218284 0
M  V30 19460 C 1764.47 3.78904 1.91396 0
M  V30 19461 C 1762.38 5.85879 0.806182 0
M  V30 19462 H 1761.31 0.709125 0.256237 0
M  V30 19463 H 1763.96 1.83373 -0.0683502 0
M  V30 19464 H 1762.34 3.38888 2.04868 0
M  V30 19465 H 1763.52 4.57472 -0.552808 0
M  V30 19466 H 1761.83 4.14992 -0.342131 0
M  V30 19467 H 1764.43 4.79654 2.36297 0
M  V30 19468 H 1764.77 3.12773 2.74734 0
M  V30 19469 H 1765.3 3.79709 1.186 0
M  V30 19470 H 1762.04 6.55499 0.0114275 0
M  V30 19471 H 1761.56 5.79526 1.54628 0
M  V30 19472 H 1763.24 6.33748 1.30278 0
M  V30 19473 N 1763.37 -0.266145 1.55336 0
M  V30 19474 C 1764.65 -1.01852 1.6699 0
M  V30 19475 C 1765.03 -2.04053 0.54088 0
M  V30 19476 O 1764.38 -2.23859 -0.458193 0
M  V30 19477 C 1764.59 -1.66917 3.06496 0
M  V30 19478 C 1765.94 -2.17824 3.64469 0
M  V30 19479 O 1766.96 -1.76892 3.09173 0
M  V30 19480 O 1765.82 -2.92922 4.61367 0
M  V30 19481 H 1762.91 -0.472871 0.67847 0
M  V30 19482 H 1765.46 -0.261458 1.67674 0
M  V30 19483 H 1764.23 -0.928941 3.80114 0
M  V30 19484 H 1763.85 -2.49292 3.0974 0
M  V30 19485 N 1764.85 -1.48386 -0.530967 0
M  V30 19486 C 1765.8 -1.63279 -1.65658 0
M  V30 19487 C 1766.79 -0.499261 -1.61876 0
M  V30 19488 O 1768 -0.677951 -1.66745 0
M  V30 19489 H 1764.37 -0.514332 -0.548605 0
M  V30 19490 H 1766.35 -2.57818 -1.50241 0
M  V30 19491 C 1765.09 -1.68878 -3.03933 0
M  V30 19492 H 1764.42 -2.55462 -3.07537 0
M  V30 19493 H 1765.86 -1.83343 -3.82311 0
M  V30 19494 C 1764.32 -0.427267 -3.3418 0
M  V30 19495 O 1764.85 0.460276 -3.99054 0
M  V30 19496 N 1763.05 -0.299268 -2.89055 0
M  V30 19497 H 1762.6 -1.02248 -2.36438 0
M  V30 19498 H 1762.56 0.543787 -3.09662 0
M  V30 19499 N 1766.33 0.779763 -1.36958 0
M  V30 19500 C 1767.58 1.53803 -1.31723 0
M  V30 19501 C 1767.9 1.94239 0.100663 0
M  V30 19502 O 1767.16 1.6372 1.07212 0
M  V30 19503 C 1767.46 2.82075 -2.19473 0
M  V30 19504 C 1767.12 2.6073 -3.67873 0
M  V30 19505 C 1765.79 2.54617 -4.08318 0
M  V30 19506 C 1768.14 2.41407 -4.61922 0
M  V30 19507 C 1765.47 2.2716 -5.40939 0
M  V30 19508 C 1767.82 2.15475 -5.94772 0
M  V30 19509 C 1766.48 2.07801 -6.3433 0
M  V30 19510 H 1765.75 0.562804 -0.482009 0
M  V30 19511 H 1768.4 0.898839 -1.69095 0
M  V30 19512 H 1766.7 3.50511 -1.75069 0
M  V30 19513 H 1768.4 3.39915 -2.12741 0
M  V30 19514 H 1764.99 2.66347 -3.35793 0
M  V30 19515 H 1769.18 2.45125 -4.31541 0
M  V30 19516 H 1764.43 2.19708 -5.7056 0
M  V30 19517 H 1768.61 1.9952 -6.67207 0
M  V30 19518 H 1766.23 1.86289 -7.37021 0
M  V30 19519 N 1767.81 1.21396 1.00503 0
M  V30 19520 C 1768.76 0.97023 2.11398 0
M  V30 19521 C 1769.75 -0.0825019 1.69199 0
M  V30 19522 O 1770.96 0.0688841 1.79868 0
M  V30 19523 H 1767.33 0.296494 0.691083 0
M  V30 19524 H 1769.3 1.91155 2.29134 0
M  V30 19525 C 1768.05 0.551472 3.43299 0
M  V30 19526 H 1767.37 1.35316 3.76204 0
M  V30 19527 H 1768.81 0.420249 4.21912 0
M  V30 19528 C 1767.27 -0.737588 3.28727 0
M  V30 19529 O 1767.8 -1.79313 3.59458 0
M  V30 19530 N 1766.01 -0.704084 2.81942 0
M  V30 19531 H 1765.56 0.155183 2.57132 0
M  V30 19532 H 1765.51 -1.56689 2.72573 0
M  V30 19533 N 1769.29 -1.19996 1.0217 0
M  V30 19534 C 1770.23 -2.22963 0.596318 0
M  V30 19535 C 1771.2 -1.61548 -0.386212 0
M  V30 19536 O 1772.39 -1.88667 -0.284497 0
M  V30 19537 C 1769.53 -3.45058 -0.054059 0
M  V30 19538 C 1768.64 -4.20885 0.973648 0
M  V30 19539 C 1767.78 -5.30387 0.293788 0
M  V30 19540 C 1766.81 -5.97964 1.3079 0
M  V30 19541 N 1765.95 -6.99044 0.654351 0
M  V30 19542 H 1770.79 -2.58709 1.47898 0
M  V30 19543 H 1768.33 -1.27117 0.740254 0
M  V30 19544 H 1770.29 -4.14784 -0.448313 0
M  V30 19545 H 1768.92 -3.0999 -0.900342 0
M  V30 19546 H 1767.97 -3.50174 1.48602 0
M  V30 19547 H 1769.28 -4.67292 1.7447 0
M  V30 19548 H 1768.43 -6.065 -0.155695 0
M  V30 19549 H 1767.17 -4.85031 -0.509521 0
M  V30 19550 H 1766.18 -5.20607 1.76772 0
M  V30 19551 H 1767.4 -6.45404 2.11258 0
M  V30 19552 H 1765.35 -6.55873 -0.128996 0
M  V30 19553 H 1765.27 -7.43605 1.36339 0
M  V30 19554 H 1766.53 -7.79165 0.228631 0
M  V30 19555 N 1770.76 -0.798611 -1.35867 0
M  V30 19556 C 1771.71 -0.176275 -2.27318 0
M  V30 19557 C 1772.7 0.64521 -1.47397 0
M  V30 19558 O 1773.89 0.503776 -1.69679 0
M  V30 19559 C 1771.02 0.680716 -3.36483 0
M  V30 19560 C 1770.1 -0.150062 -4.23834 0
M  V30 19561 N 1770.5 -1.20913 -4.91135 0
M  V30 19562 C 1768.79 0.0696135 -4.45946 0
M  V30 19563 C 1769.49 -1.71566 -5.55824 0
M  V30 19564 N 1768.47 -1.02339 -5.3388 0
M  V30 19565 H 1772.27 -0.986741 -2.7684 0
M  V30 19566 H 1769.79 -0.638977 -1.49301 0
M  V30 19567 H 1771.78 1.14254 -4.00938 0
M  V30 19568 H 1770.44 1.48962 -2.88514 0
M  V30 19569 H 1771.45 -1.59169 -4.92834 0
M  V30 19570 H 1768.13 0.848295 -4.08791 0
M  V30 19571 H 1769.52 -2.60035 -6.19541 0
M  V30 19572 N 1772.24 1.47639 -0.551417 0
M  V30 19573 C 1773.19 2.29936 0.199514 0
M  V30 19574 C 1774.16 1.38704 0.913811 0
M  V30 19575 O 1775.34 1.67666 0.910643 0
M  V30 19576 C 1772.48 3.22544 1.22717 0
M  V30 19577 C 1771.6 4.28865 0.519527 0
M  V30 19578 C 1770.73 5.0863 1.53197 0
M  V30 19579 C 1769.77 6.06731 0.808981 0
M  V30 19580 N 1768.91 6.79476 1.76798 0
M  V30 19581 H 1773.75 2.93631 -0.508414 0
M  V30 19582 H 1771.28 1.44738 -0.262553 0
M  V30 19583 H 1773.24 3.74653 1.83551 0
M  V30 19584 H 1771.87 2.60726 1.9032 0
M  V30 19585 H 1770.92 3.79857 -0.203217 0
M  V30 19586 H 1772.24 4.98778 -0.0471224 0
M  V30 19587 H 1771.39 5.6486 2.214 0
M  V30 19588 H 1770.13 4.38605 2.13253 0
M  V30 19589 H 1769.13 5.49684 0.112991 0
M  V30 19590 H 1770.36 6.78762 0.214239 0
M  V30 19591 H 1768.31 6.12185 2.35722 0
M  V30 19592 H 1768.22 7.45539 1.25333 0
M  V30 19593 H 1769.49 7.40283 2.44133 0
M  V30 19594 N 1773.72 0.287581 1.54954 0
M  V30 19595 C 1774.97 -0.326315 1.99043 0
M  V30 19596 C 1775.28 -1.56033 1.17954 0
M  V30 19597 O 1776.49 -2.24797 1.52246 0
M  V30 19598 C 1774.94 -0.631918 3.54309 0
M  V30 19599 C 1774.55 0.582998 4.4419 0
M  V30 19600 C 1776.3 -1.20775 4.06957 0
M  V30 19601 C 1774.2 0.251291 5.90866 0
M  V30 19602 H 1773.13 -0.125703 0.743448 0
M  V30 19603 H 1775.78 0.394188 1.79216 0
M  V30 19604 H 1774.17 -1.41166 3.69984 0
M  V30 19605 H 1775.34 1.35957 4.40287 0
M  V30 19606 H 1773.66 1.07653 4.02243 0
M  V30 19607 H 1776.25 -1.46995 5.14098 0
M  V30 19608 H 1776.6 -2.14569 3.56743 0
M  V30 19609 H 1777.13 -0.490021 3.9477 0
M  V30 19610 H 1773.87 1.15744 6.452 0
M  V30 19611 H 1773.39 -0.488274 5.97809 0
M  V30 19612 H 1775.07 -0.152008 6.46821 0
M  V30 19613 N 1775.2 -1.57593 0.0150662 0
M  V30 19614 C 1776.15 -2.0936 -0.971443 0
M  V30 19615 C 1777.12 -0.992416 -1.33193 0
M  V30 19616 O 1778.3 -1.26577 -1.42769 0
M  V30 19617 C 1775.44 -2.61386 -2.25324 0
M  V30 19618 C 1774.55 -3.85462 -1.95046 0
M  V30 19619 C 1773.69 -4.25934 -3.17418 0
M  V30 19620 C 1772.73 -5.42805 -2.82894 0
M  V30 19621 N 1771.86 -5.78499 -3.97848 0
M  V30 19622 H 1776.7 -2.93373 -0.523068 0
M  V30 19623 H 1774.24 -1.45018 -0.246605 0
M  V30 19624 H 1776.2 -2.89635 -3.00279 0
M  V30 19625 H 1774.83 -1.80225 -2.67804 0
M  V30 19626 H 1773.88 -3.64029 -1.10394 0
M  V30 19627 H 1775.19 -4.70505 -1.6561 0
M  V30 19628 H 1774.35 -4.55544 -4.00705 0
M  V30 19629 H 1773.09 -3.3963 -3.50004 0
M  V30 19630 H 1772.09 -5.12903 -1.98016 0
M  V30 19631 H 1773.32 -6.30797 -2.51539 0
M  V30 19632 H 1771.26 -4.95152 -4.30303 0
M  V30 19633 H 1771.18 -6.5815 -3.71988 0
M  V30 19634 H 1772.45 -6.12708 -4.8188 0
M  V30 19635 N 1776.68 0.257904 -1.55475 0
M  V30 19636 C 1777.61 1.32303 -1.92401 0
M  V30 19637 C 1778.59 1.50767 -0.787617 0
M  V30 19638 O 1779.77 1.63559 -1.047 0
M  V30 19639 C 1776.9 2.67984 -2.20912 0
M  V30 19640 C 1775.86 2.64231 -3.36699 0
M  V30 19641 C 1775.18 4.03604 -3.50725 0
M  V30 19642 C 1776.48 2.22177 -4.72689 0
M  V30 19643 H 1778.18 1.01646 -2.81618 0
M  V30 19644 H 1775.72 0.487523 -1.35496 0
M  V30 19645 H 1777.68 3.42622 -2.45332 0
M  V30 19646 H 1776.4 3.00254 -1.2851 0
M  V30 19647 H 1775.06 1.92049 -3.1227 0
M  V30 19648 H 1774.71 4.33122 -2.55763 0
M  V30 19649 H 1774.41 4.01983 -4.28583 0
M  V30 19650 H 1775.93 4.79959 -3.77455 0
M  V30 19651 H 1777.34 2.86543 -4.96554 0
M  V30 19652 H 1775.74 2.3169 -5.5357 0
M  V30 19653 H 1776.81 1.17326 -4.70492 0
M  V30 19654 N 1778.15 1.48666 0.52309 0
M  V30 19655 C 1779.4 1.56724 1.27601 0
M  V30 19656 C 1779.72 0.245958 1.93443 0
M  V30 19657 O 1778.99 -0.733053 1.81668 0
M  V30 19658 H 1777.57 0.57739 0.473952 0
M  V30 19659 H 1780.24 1.85169 0.608144 0
M  V30 19660 H 1779.33 2.35188 2.05166 0
M  V30 19661 N 1779.63 -0.772489 1.37369 0
M  V30 19662 C 1780.88 -1.528 1.32275 0
M  V30 19663 C 1781.2 -1.9478 -0.092541 0
M  V30 19664 O 1780.47 -1.6624 -1.0364 0
M  V30 19665 H 1779.05 -0.566727 0.486651 0
M  V30 19666 H 1781.71 -0.919435 1.7185 0
M  V30 19667 H 1780.81 -2.42774 1.96131 0
M  V30 19668 N 1781.11 -1.21927 -0.998575 0
M  V30 19669 C 1782.34 -1.06735 -1.77827 0
M  V30 19670 C 1782.76 0.378154 -1.8426 0
M  V30 19671 O 1782.12 1.27301 -1.2909 0
M  V30 19672 C 1782.17 -1.67662 -3.19252 0
M  V30 19673 O 1781.27 -0.926448 -4.01859 0
M  V30 19674 H 1780.61 -0.375241 -0.547805 0
M  V30 19675 H 1783.14 -1.61605 -1.25478 0
M  V30 19676 H 1783.15 -1.72151 -3.69903 0
M  V30 19677 H 1781.83 -2.72854 -3.13885 0
M  V30 19678 H 1780.4 -0.957145 -3.60407 0
M  V30 19679 N 1782.59 1.19452 -1.02805 0
M  V30 19680 C 1783.54 2.24684 -0.60165 0
M  V30 19681 C 1784.53 1.65414 0.365319 0
M  V30 19682 O 1785.74 1.78473 0.233988 0
M  V30 19683 H 1782.11 0.731043 -0.176296 0
M  V30 19684 H 1784.08 2.57967 -1.49985 0
M  V30 19685 C 1782.83 3.47685 0.0325515 0
M  V30 19686 H 1782.15 3.93579 -0.702532 0
M  V30 19687 H 1783.59 4.2298 0.29386 0
M  V30 19688 C 1782.05 3.11684 1.27887 0
M  V30 19689 O 1782.58 3.24262 2.37101 0
M  V30 19690 N 1780.79 2.66124 1.16731 0
M  V30 19691 H 1780.34 2.56089 0.278595 0
M  V30 19692 H 1780.29 2.42407 2.00215 0
M  V30 19693 N 1784.07 0.805805 1.35442 0
M  V30 19694 C 1785.32 0.382303 1.98044 0
M  V30 19695 C 1785.63 -1.05602 1.64644 0
M  V30 19696 O 1786.83 -1.5826 2.20604 0
M  V30 19697 C 1785.29 0.632619 3.54296 0
M  V30 19698 C 1784.9 2.08344 3.96607 0
M  V30 19699 C 1786.64 0.274435 4.23612 0
M  V30 19700 C 1784.55 2.27954 5.45702 0
M  V30 19701 H 1783.48 0.13921 0.741037 0
M  V30 19702 H 1786.13 0.989752 1.54519 0
M  V30 19703 H 1784.51 -0.0447699 3.95975 0
M  V30 19704 H 1785.69 2.79857 3.66083 0
M  V30 19705 H 1784 2.40142 3.40178 0
M  V30 19706 H 1786.6 0.399019 5.33209 0
M  V30 19707 H 1786.94 -0.779292 4.08941 0
M  V30 19708 H 1787.47 0.90571 3.87352 0
M  V30 19709 H 1784.21 3.3177 5.6534 0
M  V30 19710 H 1783.73 1.60965 5.77798 0
M  V30 19711 H 1785.41 2.09469 6.12153 0
M  V30 19712 N 1785.54 -1.47344 0.559239 0
M  V30 19713 C 1786.79 -2.02468 0.035943 0
M  V30 19714 C 1787.12 -1.43337 -1.31472 0
M  V30 19715 O 1786.37 -0.579355 -1.86928 0
M  V30 19716 C 1786.67 -3.57247 -0.104523 0
M  V30 19717 C 1786.34 -4.35307 1.17551 0
M  V30 19718 C 1785 -4.56354 1.52625 0
M  V30 19719 C 1787.35 -4.8031 2.02365 0
M  V30 19720 C 1784.68 -5.19653 2.72356 0
M  V30 19721 C 1787.03 -5.4493 3.213 0
M  V30 19722 C 1785.7 -5.64209 3.56685 0
M  V30 19723 H 1784.97 -0.740883 0.0131525 0
M  V30 19724 H 1787.61 -1.76992 0.73116 0
M  V30 19725 H 1785.92 -3.81727 -0.88272 0
M  V30 19726 H 1787.62 -3.97551 -0.5248 0
M  V30 19727 H 1784.21 -4.19206 0.892413 0
M  V30 19728 H 1788.39 -4.63827 1.76575 0
M  V30 19729 H 1783.65 -5.32773 2.99938 0
M  V30 19730 H 1787.82 -5.78764 3.87305 0
M  V30 19731 H 1785.45 -6.13028 4.49556 0
M  V30 19732 N 1787.02 -0.295795 -1.54799 0
M  V30 19733 C 1788.27 0.315754 -1.99213 0
M  V30 19734 C 1788.58 1.55405 -1.18779 0
M  V30 19735 O 1789.79 2.23986 -1.53436 0
M  V30 19736 C 1788.25 0.613119 -3.54639 0
M  V30 19737 C 1787.85 -0.606546 -4.43875 0
M  V30 19738 C 1789.6 1.18615 -4.07591 0
M  V30 19739 C 1787.51 -0.282622 -5.90724 0
M  V30 19740 H 1786.44 0.121758 -0.744104 0
M  V30 19741 H 1789.09 -0.403686 -1.79005 0
M  V30 19742 H 1787.47 1.39202 -3.70728 0
M  V30 19743 H 1788.64 -1.3829 -4.39559 0
M  V30 19744 H 1786.96 -1.09785 -4.01667 0
M  V30 19745 H 1789.55 1.44266 -5.1487 0
M  V30 19746 H 1789.9 2.12674 -3.57876 0
M  V30 19747 H 1790.43 0.469078 -3.95025 0
M  V30 19748 H 1787.17 -1.19164 -6.44578 0
M  V30 19749 H 1786.69 0.456564 -5.9806 0
M  V30 19750 H 1788.37 0.117703 -6.46893 0
M  V30 19751 N 1788.5 1.57583 -0.0234236 0
M  V30 19752 C 1789.73 1.95861 0.666797 0
M  V30 19753 C 1790.14 0.899616 1.65989 0
M  V30 19754 O 1789.5 -0.119162 1.82111 0
M  V30 19755 C 1789.55 3.34198 1.37818 0
M  V30 19756 O 1789.27 4.36035 0.424887 0
M  V30 19757 C 1790.77 3.87074 2.16075 0
M  V30 19758 H 1787.99 0.645213 0.184233 0
M  V30 19759 H 1790.54 2.04338 -0.0814987 0
M  V30 19760 H 1788.69 3.26958 2.07792 0
M  V30 19761 H 1789.11 5.162 0.929394 0
M  V30 19762 H 1790.58 4.8623 2.61312 0
M  V30 19763 H 1791.06 3.21017 2.99741 0
M  V30 19764 H 1791.66 3.97565 1.5107 0
M  V30 19765 N 1789.98 -0.249655 1.5561 0
M  V30 19766 C 1791.23 -0.979529 1.77576 0
M  V30 19767 C 1791.56 -1.85078 0.588198 0
M  V30 19768 O 1790.83 -1.90052 -0.4136 0
M  V30 19769 C 1791.12 -1.84238 3.094 0
M  V30 19770 C 1790.97 -0.9995 4.38554 0
M  V30 19771 C 1792.29 -2.82536 3.37433 0
M  V30 19772 H 1789.41 -0.354681 0.646042 0
M  V30 19773 H 1792.05 -0.250224 1.88345 0
M  V30 19774 H 1790.2 -2.46419 3.0035 0
M  V30 19775 H 1791.87 -0.396599 4.59592 0
M  V30 19776 H 1790.11 -0.30376 4.32735 0
M  V30 19777 H 1790.79 -1.63697 5.27169 0
M  V30 19778 H 1793.26 -2.30491 3.46429 0
M  V30 19779 H 1792.14 -3.40033 4.30893 0
M  V30 19780 H 1792.4 -3.58859 2.58211 0
M  V30 19781 N 1791.46 -1.48941 -0.515198 0
M  V30 19782 C 1792.4 -1.64561 -1.61828 0
M  V30 19783 C 1793.37 -0.487323 -1.5879 0
M  V30 19784 O 1794.56 -0.712626 -1.76992 0
M  V30 19785 C 1791.7 -1.70506 -3.00036 0
M  V30 19786 C 1790.81 -2.97543 -3.13197 0
M  V30 19787 C 1789.95 -2.94555 -4.42053 0
M  V30 19788 C 1788.99 -4.16232 -4.48795 0
M  V30 19789 N 1788.12 -4.11236 -5.6906 0
M  V30 19790 H 1792.96 -2.58754 -1.47818 0
M  V30 19791 H 1790.5 -1.28307 -0.719423 0
M  V30 19792 H 1792.46 -1.71934 -3.80125 0
M  V30 19793 H 1791.09 -0.797907 -3.12783 0
M  V30 19794 H 1790.14 -3.05792 -2.26264 0
M  V30 19795 H 1791.45 -3.87532 -3.14039 0
M  V30 19796 H 1790.61 -2.94466 -5.30447 0
M  V30 19797 H 1789.35 -2.0232 -4.43754 0
M  V30 19798 H 1788.35 -4.1658 -3.58805 0
M  V30 19799 H 1789.58 -5.09644 -4.48821 0
M  V30 19800 H 1787.52 -3.2183 -5.7163 0
M  V30 19801 H 1787.44 -4.94945 -5.71459 0
M  V30 19802 H 1788.71 -4.15229 -6.59701 0
M  V30 19803 N 1792.94 0.765193 -1.37777 0
M  V30 19804 C 1793.87 1.888 -1.29951 0
M  V30 19805 C 1794.88 1.61387 -0.213996 0
M  V30 19806 O 1796.07 1.72183 -0.470657 0
M  V30 19807 C 1793.17 3.24178 -0.988004 0
M  V30 19808 C 1792.34 3.79186 -2.18029 0
M  V30 19809 C 1791.4 4.93054 -1.83804 0
M  V30 19810 O 1790.43 5.08296 -2.56172 0
M  V30 19811 N 1791.63 5.75153 -0.786062 0
M  V30 19812 H 1794.39 1.96028 -2.267 0
M  V30 19813 H 1791.96 0.944602 -1.31487 0
M  V30 19814 H 1793.95 3.97881 -0.739771 0
M  V30 19815 H 1792.52 3.1241 -0.108852 0
M  V30 19816 H 1791.74 2.97185 -2.58988 0
M  V30 19817 H 1793.03 4.12669 -2.97627 0
M  V30 19818 H 1792.42 5.65395 -0.185678 0
M  V30 19819 H 1790.98 6.49054 -0.597697 0
M  V30 19820 N 1794.41 1.22455 0.992094 0
M  V30 19821 C 1795.83 0.984682 1.25603 0
M  V30 19822 C 1796.03 -0.321255 1.98923 0
M  V30 19823 O 1795.09 -1.04367 2.29921 0
M  V30 19824 C 1796.4 2.1839 2.06703 0
M  V30 19825 C 1797.95 2.22755 2.19884 0
M  V30 19826 C 1798.42 3.42232 3.04371 0
M  V30 19827 N 1799.91 3.42398 3.11958 0
M  V30 19828 C 1800.65 4.31497 3.77622 0
M  V30 19829 N 1800.14 5.30814 4.45206 0
M  V30 19830 N 1801.94 4.1927 3.74391 0
M  V30 19831 H 1794.09 2.06417 0.50057 0
M  V30 19832 H 1796.35 0.904556 0.283693 0
M  V30 19833 H 1796.06 3.13099 1.60192 0
M  V30 19834 H 1795.93 2.18517 3.07458 0
M  V30 19835 H 1798.32 1.28593 2.65608 0
M  V30 19836 H 1798.4 2.26667 1.18557 0
M  V30 19837 H 1798.04 4.36694 2.59346 0
M  V30 19838 H 1797.97 3.3556 4.05841 0
M  V30 19839 H 1800.46 2.70531 2.63858 0
M  V30 19840 H 1800.78 5.95078 4.93054 0
M  V30 19841 H 1799.12 5.34726 4.43952 0
M  V30 19842 H 1802.31 3.40932 3.20753 0
M  V30 19843 H 1802.49 4.88913 4.25286 0
M  V30 19844 N 1795.89 -1.18905 1.03437 0
M  V30 19845 C 1796.84 -2.22318 0.619933 0
M  V30 19846 C 1797.81 -1.61948 -0.369056 0
M  V30 19847 O 1798.99 -1.88958 -0.26447 0
M  V30 19848 C 1796.13 -3.45096 -0.0174579 0
M  V30 19849 C 1795.25 -4.19829 1.01823 0
M  V30 19850 C 1794.38 -5.30046 0.350026 0
M  V30 19851 C 1793.42 -5.96543 1.37125 0
M  V30 19852 N 1792.56 -6.98311 0.728458 0
M  V30 19853 H 1797.4 -2.57125 1.50634 0
M  V30 19854 H 1794.93 -1.26324 0.753695 0
M  V30 19855 H 1796.89 -4.15236 -0.404294 0
M  V30 19856 H 1795.52 -3.10927 -0.867412 0
M  V30 19857 H 1794.57 -3.48578 1.52308 0
M  V30 19858 H 1795.89 -4.65415 1.79416 0
M  V30 19859 H 1795.04 -6.06631 -0.0913585 0
M  V30 19860 H 1793.78 -4.85544 -0.458049 0
M  V30 19861 H 1792.78 -5.18703 1.82284 0
M  V30 19862 H 1794.01 -6.43127 2.18091 0
M  V30 19863 H 1791.96 -6.55973 -0.0594251 0
M  V30 19864 H 1791.87 -7.42117 1.44218 0
M  V30 19865 H 1793.14 -7.78878 0.311259 0
M  V30 19866 N 1797.37 -0.812977 -1.35013 0
M  V30 19867 C 1798.3 -0.185443 -2.28449 0
M  V30 19868 C 1799.31 0.618951 -1.50575 0
M  V30 19869 O 1800.5 0.450262 -1.72728 0
M  V30 19870 C 1797.6 0.759419 -3.30282 0
M  V30 19871 C 1796.78 1.09356e-05 -4.374 0
M  V30 19872 C 1795.84 0.864309 -5.19053 0
M  V30 19873 O 1794.86 0.312916 -5.68339 0
M  V30 19874 N 1796.06 2.18551 -5.37788 0
M  V30 19875 H 1798.83 -0.988144 -2.82941 0
M  V30 19876 H 1796.39 -0.669018 -1.47431 0
M  V30 19877 H 1798.38 1.342 -3.81802 0
M  V30 19878 H 1796.95 1.4629 -2.76257 0
M  V30 19879 H 1796.17 -0.763818 -3.86729 0
M  V30 19880 H 1797.46 -0.523125 -5.06104 0
M  V30 19881 H 1796.86 2.65735 -4.99401 0
M  V30 19882 H 1795.41 2.71718 -5.92463 0
M  V30 19883 N 1798.85 1.47045 -0.567045 0
M  V30 19884 C 1800.08 2.06535 -0.0517558 0
M  V30 19885 C 1800.49 1.41873 1.25174 0
M  V30 19886 O 1799.83 0.512695 1.764 0
M  V30 19887 C 1799.89 3.58917 0.204611 0
M  V30 19888 C 1799.55 4.45678 -1.01092 0
M  V30 19889 C 1800.55 4.83187 -1.91902 0
M  V30 19890 C 1798.24 4.87049 -1.22837 0
M  V30 19891 C 1800.23 5.60876 -3.02815 0
M  V30 19892 C 1797.92 5.645 -2.34058 0
M  V30 19893 C 1798.92 6.01325 -3.23878 0
M  V30 19894 O 1798.6 6.77214 -4.3317 0
M  V30 19895 H 1798.34 0.674342 -0.0473177 0
M  V30 19896 H 1800.89 1.89894 -0.782909 0
M  V30 19897 H 1799.12 3.73808 0.990192 0
M  V30 19898 H 1800.81 4.00391 0.666485 0
M  V30 19899 H 1801.57 4.51818 -1.76312 0
M  V30 19900 H 1797.45 4.57845 -0.538387 0
M  V30 19901 H 1801 5.89538 -3.72948 0
M  V30 19902 H 1796.89 5.95283 -2.49617 0
M  V30 19903 H 1797.66 6.9562 -4.31341 0
M  V30 19904 N 1800.33 0.304 1.5464 0
M  V30 19905 C 1801.74 -0.0492924 1.59524 0
M  V30 19906 C 1801.94 -1.52164 1.32093 0
M  V30 19907 O 1801 -2.27483 1.0958 0
M  V30 19908 C 1802.31 0.351346 2.9864 0
M  V30 19909 C 1803.86 0.300362 3.11555 0
M  V30 19910 C 1804.33 0.675867 4.52986 0
M  V30 19911 N 1805.82 0.628517 4.58916 0
M  V30 19912 C 1806.56 0.891504 5.66427 0
M  V30 19913 N 1806.06 1.22061 6.81962 0
M  V30 19914 N 1807.85 0.818366 5.56111 0
M  V30 19915 H 1800 1.26351 1.70731 0
M  V30 19916 H 1802.26 0.512457 0.797554 0
M  V30 19917 H 1801.97 1.37642 3.23647 0
M  V30 19918 H 1801.84 -0.293504 3.76056 0
M  V30 19919 H 1804.23 -0.715468 2.86295 0
M  V30 19920 H 1804.31 0.979876 2.36288 0
M  V30 19921 H 1803.95 1.68952 4.78976 0
M  V30 19922 H 1803.88 -0.0257498 5.26594 0
M  V30 19923 H 1806.38 0.385204 3.75932 0
M  V30 19924 H 1806.69 1.40718 7.5988 0
M  V30 19925 H 1805.03 1.25868 6.83507 0
M  V30 19926 H 1808.22 0.560885 4.64728 0
M  V30 19927 H 1808.4 1.02669 6.39815 0
M  V30 19928 N 1801.8 -1.57568 0.0317802 0
M  V30 19929 C 1803.22 -1.56264 -0.324633 0
M  V30 19930 C 1803.42 -1.03765 -1.72728 0
M  V30 19931 O 1802.48 -0.685566 -2.43015 0
M  V30 19932 C 1803.79 -3.00214 -0.170806 0
M  V30 19933 C 1805.34 -3.12052 -0.243373 0
M  V30 19934 C 1805.81 -4.57847 -0.118304 0
M  V30 19935 N 1807.3 -4.62869 -0.175203 0
M  V30 19936 C 1808.04 -5.73309 -0.102252 0
M  V30 19937 N 1807.53 -6.92797 0.0219373 0
M  V30 19938 N 1809.33 -5.61882 -0.156432 0
M  V30 19939 H 1801.48 -1.90022 0.948968 0
M  V30 19940 H 1803.74 -0.874208 0.366693 0
M  V30 19941 H 1803.45 -3.42585 0.795517 0
M  V30 19942 H 1803.32 -3.65302 -0.939907 0
M  V30 19943 H 1805.71 -2.69593 -1.20016 0
M  V30 19944 H 1805.79 -2.49681 0.55615 0
M  V30 19945 H 1805.43 -5.00988 0.835072 0
M  V30 19946 H 1805.36 -5.18202 -0.936726 0
M  V30 19947 H 1807.85 -3.76925 -0.271225 0
M  V30 19948 H 1808.17 -7.72768 0.0708376 0
M  V30 19949 H 1806.51 -6.94977 0.0567564 0
M  V30 19950 H 1809.7 -4.67422 -0.251873 0
M  V30 19951 H 1809.88 -6.47929 -0.0961177 0
M  V30 19952 N 1803.28 0.241399 -1.5574 0
M  V30 19953 C 1804.21 1.30255 -1.93793 0
M  V30 19954 C 1805.19 1.49923 -0.803563 0
M  V30 19955 O 1806.38 1.62439 -1.06429 0
M  V30 19956 C 1803.51 2.65625 -2.23742 0
M  V30 19957 C 1802.46 2.60645 -3.39483 0
M  V30 19958 C 1801.79 3.99861 -3.54986 0
M  V30 19959 C 1803.09 2.17151 -4.75019 0
M  V30 19960 H 1804.78 0.986532 -2.8268 0
M  V30 19961 H 1802.33 0.473125 -1.36006 0
M  V30 19962 H 1804.28 3.40001 -2.48953 0
M  V30 19963 H 1803.01 2.98874 -1.31688 0
M  V30 19964 H 1801.66 1.88727 -3.14289 0
M  V30 19965 H 1801.31 4.30385 -2.60342 0
M  V30 19966 H 1801.01 3.97415 -4.32822 0
M  V30 19967 H 1802.54 4.75928 -3.82524 0
M  V30 19968 H 1803.95 2.8126 -4.99565 0
M  V30 19969 H 1802.35 2.25805 -5.55996 0
M  V30 19970 H 1803.42 1.12329 -4.7171 0
M  V30 19971 N 1804.76 1.49212 0.507292 0
M  V30 19972 C 1805.71 1.65417 1.60953 0
M  V30 19973 C 1806.68 0.495737 1.5853 0
M  V30 19974 O 1807.86 0.722002 1.76612 0
M  V30 19975 C 1805 1.72095 2.99128 0
M  V30 19976 C 1804.12 2.99199 3.11615 0
M  V30 19977 C 1803.25 2.96895 4.40485 0
M  V30 19978 C 1802.29 4.18607 4.46581 0
M  V30 19979 N 1801.43 4.14248 5.66871 0
M  V30 19980 H 1806.27 2.59535 1.46444 0
M  V30 19981 H 1803.8 1.28687 0.712609 0
M  V30 19982 H 1805.76 1.73947 3.79207 0
M  V30 19983 H 1804.39 0.814484 3.12356 0
M  V30 19984 H 1803.44 3.06988 2.24639 0
M  V30 19985 H 1804.76 3.89192 3.11979 0
M  V30 19986 H 1803.91 2.97275 5.28878 0
M  V30 19987 H 1802.65 2.0467 4.42675 0
M  V30 19988 H 1801.65 4.18477 3.56591 0
M  V30 19989 H 1802.88 5.12017 4.46112 0
M  V30 19990 H 1800.82 3.24857 5.69916 0
M  V30 19991 H 1800.74 4.97969 5.68826 0
M  V30 19992 H 1802.01 4.18722 6.57489 0
M  V30 19993 N 1806.24 -0.757876 1.38181 0
M  V30 19994 C 1807.19 -1.87152 1.35065 0
M  V30 19995 C 1808.16 -1.64717 0.213892 0
M  V30 19996 O 1809.34 -1.86442 0.405448 0
M  V30 19997 C 1806.48 -3.24398 1.17728 0
M  V30 19998 C 1805.59 -3.58694 2.40754 0
M  V30 19999 C 1804.73 -4.85221 2.16181 0
M  V30 20000 C 1803.77 -5.1229 3.35001 0
M  V30 20001 N 1802.9 -6.3001 3.0989 0
M  V30 20002 H 1807.74 -1.89151 2.30274 0
M  V30 20003 H 1805.28 -0.924571 1.14412 0
M  V30 20004 H 1807.24 -4.0359 1.05694 0
M  V30 20005 H 1805.87 -3.21738 0.261606 0
M  V30 20006 H 1804.92 -2.74379 2.63477 0
M  V30 20007 H 1806.23 -3.74628 3.29325 0
M  V30 20008 H 1805.39 -5.72346 2.01258 0
M  V30 20009 H 1804.13 -4.71417 1.24969 0
M  V30 20010 H 1803.13 -4.23635 3.50448 0
M  V30 20011 H 1804.36 -5.27993 4.27083 0
M  V30 20012 H 1802.3 -6.17538 2.21321 0
M  V30 20013 H 1802.22 -6.46425 3.92009 0
M  V30 20014 H 1803.49 -7.20035 2.98613 0
M  V30 20015 N 1807.72 -1.22979 -0.985586 0
M  V30 20016 C 1808.65 -1.03073 -2.09519 0
M  V30 20017 C 1809.63 0.0507025 -1.70024 0
M  V30 20018 O 1810.81 -0.112938 -1.93871 0
M  V30 20019 C 1807.94 -0.615578 -3.41801 0
M  V30 20020 C 1806.9 -1.64377 -3.95176 0
M  V30 20021 C 1806.22 -1.08422 -5.23592 0
M  V30 20022 C 1807.52 -3.03555 -4.25032 0
M  V30 20023 H 1809.22 -1.95882 -2.2643 0
M  V30 20024 H 1806.76 -0.943206 -1.0881 0
M  V30 20025 H 1808.72 -0.463394 -4.18844 0
M  V30 20026 H 1807.44 0.348185 -3.24739 0
M  V30 20027 H 1806.1 -1.78386 -3.20272 0
M  V30 20028 H 1805.75 -0.111597 -5.02876 0
M  V30 20029 H 1805.45 -1.77118 -5.6027 0
M  V30 20030 H 1806.97 -0.94378 -6.03262 0
M  V30 20031 H 1808.38 -2.92878 -4.92844 0
M  V30 20032 H 1806.78 -3.69441 -4.72899 0
M  V30 20033 H 1807.85 -3.52937 -3.32511 0
M  V30 20034 N 1809.19 1.18355 -1.04066 0
M  V30 20035 C 1810.13 2.20807 -0.576164 0
M  V30 20036 C 1811.11 1.57871 0.389277 0
M  V30 20037 O 1812.29 1.86039 0.303581 0
M  V30 20038 C 1809.42 3.3833 0.158303 0
M  V30 20039 C 1808.46 4.19667 -0.760391 0
M  V30 20040 S 1809.3 4.86249 -2.24326 0
M  V30 20041 C 1810.45 6.07172 -1.51964 0
M  V30 20042 H 1810.68 2.59866 -1.4442 0
M  V30 20043 H 1808.22 1.2879 -0.851623 0
M  V30 20044 H 1810.18 4.0644 0.575896 0
M  V30 20045 H 1808.84 2.97682 1.00222 0
M  V30 20046 H 1808.03 5.03631 -0.192705 0
M  V30 20047 H 1807.63 3.56935 -1.11683 0
M  V30 20048 H 1809.92 6.72608 -0.812694 0
M  V30 20049 H 1810.87 6.68447 -2.33633 0
M  V30 20050 H 1811.27 5.55355 -1.01198 0
M  V30 20051 N 1810.67 0.820125 1.3458 0
M  V30 20052 C 1811.9 0.419155 2.02303 0
M  V30 20053 C 1812.31 -0.978742 1.61918 0
M  V30 20054 O 1811.65 -1.64433 0.818983 0
M  V30 20055 C 1811.72 0.438576 3.56815 0
M  V30 20056 C 1811.38 1.78932 4.20514 0
M  V30 20057 C 1812.38 2.74974 4.41232 0
M  V30 20058 C 1810.06 2.07704 4.57345 0
M  V30 20059 C 1812.06 3.97961 4.97901 0
M  V30 20060 C 1809.74 3.30952 5.13726 0
M  V30 20061 C 1810.74 4.25898 5.33947 0
M  V30 20062 O 1810.43 5.46969 5.89135 0
M  V30 20063 H 1810.16 0.166787 0.655102 0
M  V30 20064 H 1812.71 1.10892 1.72893 0
M  V30 20065 H 1810.94 -0.307871 3.85472 0
M  V30 20066 H 1812.63 0.0580448 4.05858 0
M  V30 20067 H 1813.4 2.54041 4.13144 0
M  V30 20068 H 1809.28 1.34605 4.40911 0
M  V30 20069 H 1812.82 4.72081 5.136 0
M  V30 20070 H 1808.72 3.5175 5.41242 0
M  V30 20071 H 1809.49 5.48451 6.07572 0
M  V30 20072 N 1812.15 -1.46743 0.574835 0
M  V30 20073 C 1813.06 -2.34015 -0.16559 0
M  V30 20074 C 1814.08 -1.49273 -0.894064 0
M  V30 20075 O 1815.25 -1.82162 -0.859013 0
M  V30 20076 C 1812.32 -3.26313 -1.17136 0
M  V30 20077 C 1811.38 -4.26952 -0.448413 0
M  V30 20078 C 1810.61 -5.1484 -1.40627 0
M  V30 20079 O 1810.83 -5.05508 -2.6423 0
M  V30 20080 O 1809.77 -5.9481 -0.921143 0
M  V30 20081 H 1813.59 -2.98664 0.550754 0
M  V30 20082 H 1811.18 -1.45589 0.335297 0
M  V30 20083 H 1813.06 -3.83276 -1.75149 0
M  V30 20084 H 1811.74 -2.64269 -1.86931 0
M  V30 20085 H 1810.64 -3.73698 0.17336 0
M  V30 20086 H 1811.98 -4.91759 0.208419 0
M  V30 20087 N 1813.63 -0.312197 -1.54477 0
M  V30 20088 C 1814.91 0.347462 -1.92489 0
M  V30 20089 C 1815.29 1.70797 -1.24063 0
M  V30 20090 O 1814.63 2.25313 -0.380296 0
M  V30 20091 C 1814.84 0.450992 -3.46074 0
M  V30 20092 C 1816.19 0.716618 -4.18509 0
M  V30 20093 O 1817.22 0.534364 -3.52169 0
M  V30 20094 O 1816.07 1.06744 -5.35974 0
M  V30 20095 H 1813.17 0.196248 -0.803378 0
M  V30 20096 H 1815.71 -0.361078 -1.65814 0
M  V30 20097 H 1814.49 -0.504982 -3.88028 0
M  V30 20098 H 1814.11 1.20756 -3.78819 0
M  V30 20099 N 1815.11 1.57549 -0.040136 0
M  V30 20100 C 1816.33 1.96967 0.649517 0
M  V30 20101 C 1816.76 0.917056 1.64231 0
M  V30 20102 O 1816.11 -0.120899 1.80896 0
M  V30 20103 C 1816.16 3.35471 1.32256 0
M  V30 20104 O 1815.27 3.32615 2.43806 0
M  V30 20105 H 1814.61 0.641933 0.169758 0
M  V30 20106 H 1817.14 2.04329 -0.105261 0
M  V30 20107 H 1817.15 3.71951 1.6768 0
M  V30 20108 H 1815.82 4.11623 0.594895 0
M  V30 20109 H 1814.4 3.07867 2.10411 0
M  V30 20110 N 1816.58 -0.233136 1.55866 0
M  V30 20111 C 1817.52 -1.31202 1.87932 0
M  V30 20112 C 1818.53 -1.43619 0.766642 0
M  V30 20113 O 1819.72 -1.44723 1.04487 0
M  V30 20114 C 1816.82 -2.68904 2.06262 0
M  V30 20115 C 1815.99 -2.78581 3.37211 0
M  V30 20116 C 1815.05 -3.97219 3.45114 0
M  V30 20117 O 1814.08 -3.861 4.18229 0
M  V30 20118 N 1815.28 -5.11009 2.7541 0
M  V30 20119 H 1818.04 -1.04025 2.81067 0
M  V30 20120 H 1815.6 -0.423209 1.56271 0
M  V30 20121 H 1817.6 -3.46631 2.08876 0
M  V30 20122 H 1816.17 -2.8873 1.19807 0
M  V30 20123 H 1815.39 -1.87422 3.46795 0
M  V30 20124 H 1816.67 -2.82008 4.23496 0
M  V30 20125 H 1816.07 -5.22936 2.15764 0
M  V30 20126 H 1814.63 -5.8682 2.837 0
M  V30 20127 N 1818.06 -1.49479 -0.499372 0
M  V30 20128 C 1819.48 -1.36278 -0.830692 0
M  V30 20129 C 1819.68 -0.397116 -1.97548 0
M  V30 20130 O 1818.74 0.170614 -2.51923 0
M  V30 20131 C 1820.05 -2.77031 -1.16937 0
M  V30 20132 C 1821.6 -2.85744 -1.27748 0
M  V30 20133 C 1822.07 -4.27267 -1.64944 0
M  V30 20134 N 1823.56 -4.30086 -1.7199 0
M  V30 20135 C 1824.3 -5.36559 -2.02218 0
M  V30 20136 N 1823.79 -6.53275 -2.30659 0
M  V30 20137 N 1825.59 -5.23976 -2.03483 0
M  V30 20138 H 1817.74 -2.10858 0.255497 0
M  V30 20139 H 1820 -0.946588 0.0517184 0
M  V30 20140 H 1819.71 -3.494 -0.401529 0
M  V30 20141 H 1819.58 -3.12501 -2.11242 0
M  V30 20142 H 1821.97 -2.13611 -2.03604 0
M  V30 20143 H 1822.05 -2.53854 -0.314901 0
M  V30 20144 H 1821.69 -4.99927 -0.896384 0
M  V30 20145 H 1821.62 -4.56622 -2.62305 0
M  V30 20146 H 1824.11 -3.45911 -1.52164 0
M  V30 20147 H 1824.43 -7.30241 -2.52918 0
M  V30 20148 H 1822.77 -6.56498 -2.28112 0
M  V30 20149 H 1825.96 -4.31799 -1.80741 0
M  V30 20150 H 1826.14 -6.07049 -2.26707 0
M  V30 20151 N 1819.54 0.750537 -1.38581 0
M  V30 20152 C 1820.95 1.32802 -1.31227 0
M  V30 20153 C 1821.3 1.96176 0.0305372 0
M  V30 20154 O 1820.43 1.95272 0.932614 0
M  V30 20155 C 1821.02 2.41468 -2.37652 0
M  V30 20156 C 1819.58 2.94929 -2.33867 0
M  V30 20157 C 1818.73 1.68339 -2.20357 0
M  V30 20158 H 1821.68 0.549187 -1.48895 0
M  V30 20159 H 1821.7 3.21481 -2.03544 0
M  V30 20160 H 1821.21 1.95313 -3.35372 0
M  V30 20161 H 1819.31 3.45404 -1.39738 0
M  V30 20162 H 1819.43 3.491 -3.28125 0
M  V30 20163 H 1817.79 1.92082 -1.67262 0
M  V30 20164 H 1818.57 1.24258 -3.20023 0
M  V30 20165 N 1821.02 1.235 0.979051 0
M  V30 20166 C 1822.27 1.06949 1.72307 0
M  V30 20167 C 1822.6 -0.392491 1.90192 0
M  V30 20168 O 1821.87 -1.29054 1.45518 0
M  V30 20169 C 1822.16 1.79705 3.12055 0
M  V30 20170 C 1822.01 3.33583 3.01732 0
M  V30 20171 C 1823.33 1.56062 4.11501 0
M  V30 20172 H 1820.45 0.389917 0.625407 0
M  V30 20173 H 1823.09 1.52022 1.1397 0
M  V30 20174 H 1821.24 1.4139 3.61858 0
M  V30 20175 H 1822.91 3.81428 2.59443 0
M  V30 20176 H 1821.15 3.62547 2.38206 0
M  V30 20177 H 1821.83 3.79681 4.00683 0
M  V30 20178 H 1824.3 1.8937 3.70511 0
M  V30 20179 H 1823.18 2.09442 5.07371 0
M  V30 20180 H 1823.44 0.496276 4.39306 0
M  V30 20181 N 1822.5 -1.17802 1.04693 0
M  V30 20182 C 1823.91 -1.69583 0.780923 0
M  V30 20183 C 1824.26 -1.83383 -0.697497 0
M  V30 20184 O 1823.38 -1.51781 -1.54245 0
M  V30 20185 C 1823.98 -3.08021 1.41097 0
M  V30 20186 C 1822.54 -3.56989 1.19313 0
M  V30 20187 C 1821.69 -2.33377 1.49768 0
M  V30 20188 H 1824.64 -1.02389 1.21253 0
M  V30 20189 H 1824.66 -3.71613 0.817539 0
M  V30 20190 H 1824.17 -2.97945 2.48697 0
M  V30 20191 H 1822.27 -3.72351 0.136146 0
M  V30 20192 H 1822.38 -4.40049 1.89456 0
M  V30 20193 H 1820.75 -2.37597 0.917585 0
M  V30 20194 H 1821.53 -2.25914 2.58491 0
M  V30 20195 N 1823.98 -0.827251 -1.34143 0
M  V30 20196 C 1825.39 -0.513554 -1.51112 0
M  V30 20197 C 1825.59 0.961434 -1.77084 0
M  V30 20198 O 1824.65 1.74573 -1.82429 0
M  V30 20199 C 1825.96 -1.37683 -2.67327 0
M  V30 20200 C 1827.51 -1.3744 -2.8121 0
M  V30 20201 C 1827.98 -2.22226 -4.00474 0
M  V30 20202 N 1829.47 -2.19873 -4.07689 0
M  V30 20203 C 1830.21 -2.82222 -4.99138 0
M  V30 20204 N 1829.71 -3.53578 -5.95781 0
M  V30 20205 N 1831.5 -2.71753 -4.92043 0
M  V30 20206 H 1823.65 -1.78222 -1.15545 0
M  V30 20207 H 1825.91 -0.759711 -0.567047 0
M  V30 20208 H 1825.62 -2.42448 -2.54778 0
M  V30 20209 H 1825.49 -1.0446 -3.62447 0
M  V30 20210 H 1827.88 -0.334525 -2.93198 0
M  V30 20211 H 1827.96 -1.74663 -1.86886 0
M  V30 20212 H 1827.6 -3.26266 -3.89246 0
M  V30 20213 H 1827.53 -1.82352 -4.9402 0
M  V30 20214 H 1830.03 -1.67972 -3.38517 0
M  V30 20215 H 1830.34 -3.98387 -6.62199 0
M  V30 20216 H 1828.68 -3.57685 -5.95892 0
M  V30 20217 H 1831.87 -2.15579 -4.15504 0
M  V30 20218 H 1832.05 -3.2063 -5.63117 0
M  V30 20219 N 1825.45 1.46436 -0.582609 0
M  V30 20220 C 1826.86 1.86047 -0.156012 0
M  V30 20221 C 1827.22 1.48619 1.28089 0
M  V30 20222 O 1826.34 0.90104 1.96749 0
M  V30 20223 C 1826.94 3.37671 -0.276358 0
M  V30 20224 C 1825.49 3.76279 0.0953682 0
M  V30 20225 C 1824.64 2.70454 -0.612348 0
M  V30 20226 H 1827.59 1.37592 -0.790834 0
M  V30 20227 H 1827.61 3.77223 0.498312 0
M  V30 20228 H 1827.13 3.64881 -1.32225 0
M  V30 20229 H 1825.23 3.54687 1.1414 0
M  V30 20230 H 1825.34 4.78276 -0.280881 0
M  V30 20231 H 1823.7 2.54646 -0.0526182 0
M  V30 20232 H 1824.49 3.00504 -1.65989 0
M  V30 20233 N 1826.93 0.320385 1.54309 0
M  V30 20234 C 1827.86 -0.539789 2.27175 0
M  V30 20235 C 1828.84 -1.12198 1.2785 0
M  V30 20236 O 1830.03 -1.1477 1.56657 0
M  V30 20237 C 1827.16 -1.70236 3.02716 0
M  V30 20238 C 1826.11 -1.24962 4.09351 0
M  V30 20239 C 1825.44 -2.49888 4.72715 0
M  V30 20240 C 1826.74 -0.366788 5.21011 0
M  V30 20241 H 1828.43 0.0680079 2.99323 0
M  V30 20242 H 1825.98 0.0341488 1.4396 0
M  V30 20243 H 1827.93 -2.31037 3.5242 0
M  V30 20244 H 1826.65 -2.33669 2.2818 0
M  V30 20245 H 1825.31 -0.664556 3.60526 0
M  V30 20246 H 1824.96 -3.11679 3.94798 0
M  V30 20247 H 1824.66 -2.20288 5.44745 0
M  V30 20248 H 1826.19 -3.11458 5.25192 0
M  V30 20249 H 1827.6 -0.881001 5.6649 0
M  V30 20250 H 1826 -0.163707 5.99877 0
M  V30 20251 H 1827.07 0.603185 4.81134 0
M  V30 20252 N 1828.41 -1.57525 0.0484906 0
M  V30 20253 C 1829.36 -2.12552 -0.944684 0
M  V30 20254 C 1830.35 -1.05668 -1.32403 0
M  V30 20255 O 1831.56 -1.2408 -1.304 0
M  V30 20256 H 1827.93 -0.679336 -0.3225 0
M  V30 20257 H 1829.9 -2.94904 -0.455442 0
M  V30 20258 C 1828.65 -2.68333 -2.21117 0
M  V30 20259 H 1827.98 -3.50237 -1.92806 0
M  V30 20260 H 1829.42 -3.10459 -2.88775 0
M  V30 20261 C 1827.87 -1.61982 -2.95404 0
M  V30 20262 O 1828.4 -1.03102 -3.88243 0
M  V30 20263 N 1826.61 -1.33566 -2.58086 0
M  V30 20264 H 1826.16 -1.81635 -1.82665 0
M  V30 20265 H 1826.12 -0.626371 -3.08097 0
M  V30 20266 N 1829.89 0.224867 -1.55988 0
M  V30 20267 C 1830.83 1.27865 -1.92144 0
M  V30 20268 C 1831.8 1.46741 -0.778228 0
M  V30 20269 O 1832.99 1.60364 -1.03383 0
M  V30 20270 C 1830.13 2.62468 -2.24063 0
M  V30 20271 C 1829.24 2.51419 -3.51301 0
M  V30 20272 C 1828.38 3.78523 -3.72684 0
M  V30 20273 C 1827.42 3.62182 -4.93448 0
M  V30 20274 N 1826.55 4.81228 -5.11237 0
M  V30 20275 H 1831.39 0.96331 -2.82001 0
M  V30 20276 H 1828.93 0.464362 -1.39578 0
M  V30 20277 H 1830.89 3.40848 -2.4058 0
M  V30 20278 H 1829.52 2.92105 -1.37384 0
M  V30 20279 H 1828.57 1.64491 -3.42997 0
M  V30 20280 H 1829.88 2.35263 -4.39833 0
M  V30 20281 H 1829.04 4.65346 -3.89279 0
M  V30 20282 H 1827.78 3.976 -2.82428 0
M  V30 20283 H 1826.78 2.73743 -4.76807 0
M  V30 20284 H 1828.01 3.44579 -5.85186 0
M  V30 20285 H 1825.95 5.00625 -4.23923 0
M  V30 20286 H 1825.87 4.67787 -5.93895 0
M  V30 20287 H 1827.14 5.69487 -5.32264 0
M  V30 20288 N 1831.37 1.49742 0.491438 0
M  V30 20289 C 1832.3 1.70033 1.60034 0
M  V30 20290 C 1833.28 0.549076 1.60994 0
M  V30 20291 O 1834.46 0.785983 1.77584 0
M  V30 20292 C 1831.59 1.7757 2.98473 0
M  V30 20293 C 1830.55 2.9258 3.12379 0
M  V30 20294 C 1829.87 2.85239 4.52264 0
M  V30 20295 C 1831.17 4.33385 2.91504 0
M  V30 20296 H 1832.87 2.62875 1.43307 0
M  V30 20297 H 1830.41 1.26502 0.687989 0
M  V30 20298 H 1832.36 1.90351 3.75958 0
M  V30 20299 H 1831.09 0.813343 3.1631 0
M  V30 20300 H 1829.75 2.79417 2.37322 0
M  V30 20301 H 1829.4 1.86892 4.66991 0
M  V30 20302 H 1829.1 3.62437 4.62508 0
M  V30 20303 H 1830.62 3.00041 5.31797 0
M  V30 20304 H 1832.03 4.4718 3.58752 0
M  V30 20305 H 1830.43 5.11878 3.13211 0
M  V30 20306 H 1831.5 4.47166 1.87539 0
M  V30 20307 N 1832.84 -0.743177 1.38977 0
M  V30 20308 C 1833.78 -1.86709 1.32938 0
M  V30 20309 C 1834.79 -1.61027 0.239644 0
M  V30 20310 O 1835.98 -1.71413 0.497991 0
M  V30 20311 C 1833.08 -3.22566 1.03945 0
M  V30 20312 C 1832.25 -3.75669 2.24034 0
M  V30 20313 C 1831.31 -4.90068 1.91625 0
M  V30 20314 O 1830.34 -5.04156 2.64226 0
M  V30 20315 N 1831.54 -5.7383 0.877465 0
M  V30 20316 H 1834.3 -1.92397 2.2979 0
M  V30 20317 H 1831.86 -0.923564 1.32973 0
M  V30 20318 H 1833.86 -3.96654 0.802977 0
M  V30 20319 H 1832.43 -3.12198 0.15854 0
M  V30 20320 H 1831.65 -2.93027 2.63683 0
M  V30 20321 H 1832.93 -4.07882 3.04154 0
M  V30 20322 H 1832.33 -5.65028 0.275604 0
M  V30 20323 H 1830.89 -6.48021 0.700881 0
M  V30 20324 N 1834.32 -1.24018 -0.972487 0
M  V30 20325 C 1835.57 -1.07489 -1.71145 0
M  V30 20326 C 1835.89 0.387798 -1.91105 0
M  V30 20327 O 1835.16 1.27725 -1.48537 0
M  V30 20328 H 1833.74 -0.394765 -0.634168 0
M  V30 20329 H 1836.4 -1.55861 -1.17018 0
M  V30 20330 H 1835.5 -1.56913 -2.69786 0
M  V30 20331 N 1835.8 1.17245 -1.05316 0
M  V30 20332 C 1837.05 1.87536 -0.76398 0
M  V30 20333 C 1837.38 1.81115 0.709049 0
M  V30 20334 O 1836.63 1.21473 1.53437 0
M  V30 20335 C 1836.93 3.36958 -1.19138 0
M  V30 20336 C 1836.6 3.63581 -2.66683 0
M  V30 20337 C 1835.26 3.70556 -3.06988 0
M  V30 20338 C 1837.61 3.74954 -3.62021 0
M  V30 20339 C 1834.94 3.86396 -4.41492 0
M  V30 20340 C 1837.29 3.92313 -4.9626 0
M  V30 20341 C 1835.95 3.97527 -5.36217 0
M  V30 20342 H 1835.22 0.686241 -0.27956 0
M  V30 20343 H 1837.87 1.38694 -1.32047 0
M  V30 20344 H 1836.18 3.87865 -0.55391 0
M  V30 20345 H 1837.87 3.8971 -0.944815 0
M  V30 20346 H 1834.46 3.58778 -2.34471 0
M  V30 20347 H 1838.65 3.68885 -3.3202 0
M  V30 20348 H 1833.9 3.88681 -4.7195 0
M  V30 20349 H 1838.08 4.00055 -5.70026 0
M  V30 20350 H 1835.7 4.09553 -6.40445 0
M  V30 20351 N 1837.28 0.834353 1.33702 0
M  V30 20352 C 1838.53 0.424225 1.97188 0
M  V30 20353 C 1838.84 -1.02086 1.66846 0
M  V30 20354 O 1840.05 -1.53545 2.23911 0
M  V30 20355 C 1838.5 0.707628 3.52875 0
M  V30 20356 C 1838.11 2.16709 3.92098 0
M  V30 20357 C 1839.85 0.364228 4.22935 0
M  V30 20358 C 1837.76 2.39478 5.40744 0
M  V30 20359 H 1836.69 0.154897 0.737918 0
M  V30 20360 H 1839.34 1.02231 1.52385 0
M  V30 20361 H 1837.72 0.0392323 3.95981 0
M  V30 20362 H 1838.9 2.87559 3.60064 0
M  V30 20363 H 1837.21 2.47303 3.35008 0
M  V30 20364 H 1839.81 0.512031 5.32243 0
M  V30 20365 H 1840.15 -0.692375 4.10502 0
M  V30 20366 H 1840.69 0.98767 3.85344 0
M  V30 20367 H 1837.43 3.43687 5.58175 0
M  V30 20368 H 1836.95 1.73184 5.74254 0
M  V30 20369 H 1838.62 2.22406 6.07573 0
M  V30 20370 N 1838.76 -1.46125 0.590367 0
M  V30 20371 C 1840 -2.02346 0.0788814 0
M  V30 20372 C 1840.33 -1.46093 -1.28402 0
M  V30 20373 O 1839.59 -0.618875 -1.85657 0
M  V30 20374 C 1839.89 -3.57388 -0.0287217 0
M  V30 20375 C 1839.55 -4.32716 1.26758 0
M  V30 20376 C 1838.21 -4.53014 1.62271 0
M  V30 20377 C 1840.57 -4.7591 2.12507 0
M  V30 20378 C 1837.89 -5.13759 2.83318 0
M  V30 20379 C 1840.25 -5.37992 3.32787 0
M  V30 20380 C 1838.91 -5.56516 3.68573 0
M  V30 20381 H 1838.18 -0.740438 0.0288647 0
M  V30 20382 H 1840.83 -1.75402 0.768538 0
M  V30 20383 H 1839.13 -3.83513 -0.801551 0
M  V30 20384 H 1840.83 -3.98575 -0.440356 0
M  V30 20385 H 1837.42 -4.17219 0.981133 0
M  V30 20386 H 1841.6 -4.59977 1.86373 0
M  V30 20387 H 1836.86 -5.26291 3.11172 0
M  V30 20388 H 1841.03 -5.70418 3.99495 0
M  V30 20389 H 1838.66 -6.03355 4.62458 0
M  V30 20390 N 1840.23 -0.328564 -1.54137 0
M  V30 20391 C 1841.51 0.327026 -1.92847 0
M  V30 20392 C 1841.89 1.69472 -1.25867 0
M  V30 20393 O 1841.24 2.24897 -0.404172 0
M  V30 20394 C 1841.45 0.414261 -3.46533 0
M  V30 20395 C 1842.8 0.672189 -4.19245 0
M  V30 20396 O 1843.82 0.496982 -3.52716 0
M  V30 20397 O 1842.68 1.01053 -5.37076 0
M  V30 20398 H 1839.77 0.187716 -0.805414 0
M  V30 20399 H 1842.32 -0.378645 -1.65422 0
M  V30 20400 H 1841.09 -0.54611 -3.8747 0
M  V30 20401 H 1840.72 1.16731 -3.80078 0
M  V30 20402 N 1841.71 1.57497 -0.0568439 0
M  V30 20403 C 1842.96 1.932 0.61658 0
M  V30 20404 C 1843.29 0.935936 1.70158 0
M  V30 20405 O 1842.57 -0.0372005 1.94464 0
M  V30 20406 C 1842.85 3.39254 1.20742 0
M  V30 20407 C 1842.7 4.49612 0.130081 0
M  V30 20408 C 1844.02 3.85817 2.11738 0
M  V30 20409 H 1841.14 0.702558 0.222668 0
M  V30 20410 H 1843.78 1.89622 -0.119765 0
M  V30 20411 H 1841.93 3.42434 1.83497 0
M  V30 20412 H 1843.6 4.58559 -0.502172 0
M  V30 20413 H 1841.85 4.30411 -0.541167 0
M  V30 20414 H 1842.52 5.48906 0.583606 0
M  V30 20415 H 1844.99 3.8455 1.58936 0
M  V30 20416 H 1843.87 4.88653 2.50019 0
M  V30 20417 H 1844.13 3.22899 3.01974 0
M  V30 20418 N 1843.19 -0.216591 1.56105 0
M  V30 20419 C 1844.44 -0.941642 1.79613 0
M  V30 20420 C 1844.77 -1.83789 0.627323 0
M  V30 20421 O 1844.04 -1.90886 -0.373195 0
M  V30 20422 C 1844.33 -1.77634 3.13238 0
M  V30 20423 C 1844.18 -0.906251 4.40576 0
M  V30 20424 C 1845.5 -2.75315 3.4335 0
M  V30 20425 H 1842.62 -0.340898 0.65342 0
M  V30 20426 H 1845.26 -0.210217 1.88833 0
M  V30 20427 H 1843.41 -2.39993 3.05509 0
M  V30 20428 H 1845.08 -0.299023 4.6033 0
M  V30 20429 H 1843.33 -0.211902 4.33282 0
M  V30 20430 H 1844 -1.52478 5.30523 0
M  V30 20431 H 1846.47 -2.23091 3.5124 0
M  V30 20432 H 1845.35 -3.30816 4.38009 0
M  V30 20433 H 1845.61 -3.53301 2.65765 0
M  V30 20434 N 1844.67 -1.5 -0.48349 0
M  V30 20435 C 1845.9 -1.64105 -1.26004 0
M  V30 20436 C 1846.31 -0.319389 -1.86079 0
M  V30 20437 O 1845.67 0.697243 -1.68656 0
M  V30 20438 C 1845.72 -2.72299 -2.37772 0
M  V30 20439 O 1845.44 -3.99341 -1.80163 0
M  V30 20440 C 1846.94 -2.97266 -3.28858 0
M  V30 20441 H 1844.16 -0.551971 -0.381535 0
M  V30 20442 H 1846.71 -1.96146 -0.57852 0
M  V30 20443 H 1844.86 -2.42987 -3.01722 0
M  V30 20444 H 1845.27 -4.59077 -2.5367 0
M  V30 20445 H 1846.75 -3.76662 -4.03521 0
M  V30 20446 H 1847.23 -2.07855 -3.86902 0
M  V30 20447 H 1847.83 -3.28062 -2.70657 0
M  V30 20448 N 1846.15 0.735796 -1.39369 0
M  V30 20449 C 1847.37 1.53013 -1.40007 0
M  V30 20450 C 1847.8 1.881 0.00368376 0
M  V30 20451 O 1847.15 1.51853 0.990469 0
M  V30 20452 C 1847.2 2.79474 -2.27874 0
M  V30 20453 O 1846.31 3.75364 -1.70808 0
M  V30 20454 H 1845.65 0.462117 -0.476806 0
M  V30 20455 H 1848.18 0.907868 -1.83355 0
M  V30 20456 H 1848.19 3.28217 -2.42358 0
M  V30 20457 H 1846.86 2.53268 -3.29891 0
M  V30 20458 H 1845.44 3.34131 -1.65562 0
M  V30 20459 N 1847.63 1.24532 0.965897 0
M  V30 20460 C 1848.56 0.997143 2.06373 0
M  V30 20461 C 1849.57 -0.0340261 1.62764 0
M  V30 20462 O 1850.76 0.203223 1.77339 0
M  V30 20463 C 1847.86 0.483305 3.35436 0
M  V30 20464 C 1847.03 1.57803 4.07942 0
M  V30 20465 C 1846.09 1.06652 5.15278 0
M  V30 20466 O 1845.12 1.75859 5.41352 0
M  V30 20467 N 1846.32 -0.0981119 5.80417 0
M  V30 20468 H 1849.08 1.94238 2.28236 0
M  V30 20469 H 1846.65 1.15586 1.13365 0
M  V30 20470 H 1848.64 0.125833 4.04504 0
M  V30 20471 H 1847.21 -0.367709 3.1043 0
M  V30 20472 H 1846.43 2.1076 3.33127 0
M  V30 20473 H 1847.72 2.3138 4.53146 0
M  V30 20474 H 1847.11 -0.676662 5.61638 0
M  V30 20475 H 1845.67 -0.396714 6.50592 0
M  V30 20476 N 1849.1 -1.16685 1.05936 0
M  V30 20477 C 1850.07 -2.19155 0.671098 0
M  V30 20478 C 1851.07 -1.5832 -0.281305 0
M  V30 20479 O 1852.26 -1.74082 -0.0641708 0
M  V30 20480 C 1849.39 -3.40897 -0.0131101 0
M  V30 20481 H 1850.58 -2.55019 1.57815 0
M  V30 20482 H 1848.13 -1.30897 0.854147 0
M  V30 20483 H 1848.87 -3.10587 -0.933077 0
M  V30 20484 H 1848.65 -3.86304 0.671687 0
M  V30 20485 H 1850.14 -4.16722 -0.270606 0
M  V30 20486 N 1850.58 -0.841432 -1.33258 0
M  V30 20487 C 1851.83 -0.438378 -1.97698 0
M  V30 20488 C 1852.16 1.00298 -1.66645 0
M  V30 20489 O 1851.41 1.71648 -0.939965 0
M  V30 20490 C 1851.71 -0.608921 -3.52175 0
M  V30 20491 C 1851.38 -2.01876 -4.03184 0
M  V30 20492 C 1850.04 -2.40438 -4.16825 0
M  V30 20493 C 1852.39 -2.93952 -4.30397 0
M  V30 20494 C 1849.72 -3.70376 -4.55015 0
M  V30 20495 C 1852.07 -4.23373 -4.7004 0
M  V30 20496 C 1850.73 -4.61888 -4.81888 0
M  V30 20497 H 1850 -0.160414 -0.723428 0
M  V30 20498 H 1852.65 -1.06895 -1.58889 0
M  V30 20499 H 1850.96 0.104948 -3.91659 0
M  V30 20500 H 1852.65 -0.277313 -4.0004 0
M  V30 20501 H 1849.24 -1.70927 -3.93042 0
M  V30 20502 H 1853.43 -2.65396 -4.19379 0
M  V30 20503 H 1848.68 -4.00018 -4.62381 0
M  V30 20504 H 1852.86 -4.94793 -4.90054 0
M  V30 20505 H 1850.48 -5.6262 -5.11237 0
M  V30 20506 N 1852.06 1.4581 -0.598108 0
M  V30 20507 C 1853.01 2.32185 0.138857 0
M  V30 20508 C 1854 1.45406 0.869105 0
M  V30 20509 O 1855.21 1.61945 0.785746 0
M  V30 20510 H 1851.58 0.749302 0.0636431 0
M  V30 20511 H 1853.55 2.92136 -0.608224 0
M  V30 20512 C 1852.3 3.28856 1.12911 0
M  V30 20513 H 1851.63 3.9562 0.576625 0
M  V30 20514 H 1853.07 3.92043 1.61487 0
M  V30 20515 C 1851.52 2.55331 2.1979 0
M  V30 20516 O 1852.05 2.32768 3.27386 0
M  V30 20517 N 1850.26 2.15628 1.94815 0
M  V30 20518 H 1849.81 2.34178 1.07323 0
M  V30 20519 H 1849.77 1.66755 2.66533 0
M  V30 20520 N 1853.54 0.336733 1.53961 0
M  V30 20521 C 1854.78 -0.262248 2.01097 0
M  V30 20522 C 1855.12 -1.50745 1.22431 0
M  V30 20523 O 1854.39 -1.92012 0.310103 0
M  V30 20524 C 1854.67 -0.583219 3.55346 0
M  V30 20525 C 1854.53 0.67361 4.44727 0
M  V30 20526 C 1855.85 -1.39558 4.17386 0
M  V30 20527 H 1852.97 -0.0938423 0.731001 0
M  V30 20528 H 1855.61 0.455921 1.84449 0
M  V30 20529 H 1853.76 -1.19505 3.69663 0
M  V30 20530 H 1855.43 1.31168 4.42258 0
M  V30 20531 H 1853.67 1.29987 4.13867 0
M  V30 20532 H 1854.34 0.404382 5.50517 0
M  V30 20533 H 1856.82 -0.878292 4.06725 0
M  V30 20534 H 1855.7 -1.58892 5.25399 0
M  V30 20535 H 1855.96 -2.39567 3.71564 0
M  V30 20536 N 1855.02 -1.57465 0.0651956 0
M  V30 20537 C 1856.26 -1.92414 -0.604961 0
M  V30 20538 C 1856.58 -0.946628 -1.71167 0
M  V30 20539 O 1857.78 -1.18869 -2.44095 0
M  V30 20540 C 1856.24 -3.41786 -1.12741 0
M  V30 20541 C 1855.85 -4.4797 -0.0520584 0
M  V30 20542 C 1857.59 -3.85746 -1.77201 0
M  V30 20543 C 1855.5 -5.88468 -0.588181 0
M  V30 20544 H 1854.43 -0.718147 -0.229742 0
M  V30 20545 H 1857.08 -1.82993 0.136361 0
M  V30 20546 H 1855.46 -3.46258 -1.92149 0
M  V30 20547 H 1856.64 -4.55105 0.722215 0
M  V30 20548 H 1854.95 -4.13436 0.495917 0
M  V30 20549 H 1857.55 -4.88093 -2.18332 0
M  V30 20550 H 1857.89 -3.22754 -2.62937 0
M  V30 20551 H 1858.42 -3.83849 -1.04426 0
M  V30 20552 H 1855.16 -6.5509 0.231865 0
M  V30 20553 H 1854.68 -5.84866 -1.33012 0
M  V30 20554 H 1856.36 -6.38147 -1.06667 0
M  V30 20555 N 1856.49 0.20831 -1.56217 0
M  V30 20556 C 1857.74 0.932104 -1.8011 0
M  V30 20557 C 1858.07 1.83453 -0.637061 0
M  V30 20558 O 1857.35 1.91081 0.363066 0
M  V30 20559 C 1857.63 1.7597 -3.14176 0
M  V30 20560 C 1857.48 0.882874 -4.4105 0
M  V30 20561 C 1858.8 2.7349 -3.44806 0
M  V30 20562 H 1855.92 0.337428 -0.655218 0
M  V30 20563 H 1858.56 0.2002 -1.88942 0
M  V30 20564 H 1856.71 2.38369 -3.06778 0
M  V30 20565 H 1858.39 0.274607 -4.60482 0
M  V30 20566 H 1856.63 0.188921 -4.33388 0
M  V30 20567 H 1857.3 1.49662 -5.31324 0
M  V30 20568 H 1859.78 2.21225 -3.52418 0
M  V30 20569 H 1858.65 3.28489 -4.39757 0
M  V30 20570 H 1858.91 3.51887 -2.67635 0
M  V30 20571 N 1857.97 1.50255 0.475528 0
M  V30 20572 C 1858.9 1.63428 1.59268 0
M  V30 20573 C 1859.88 0.482517 1.55276 0
M  V30 20574 O 1861.07 0.70144 1.74963 0
M  V30 20575 C 1858.19 1.61277 2.97838 0
M  V30 20576 C 1857.24 2.81961 3.20001 0
M  V30 20577 S 1858.07 4.43321 3.00378 0
M  V30 20578 C 1859.23 4.43855 4.41297 0
M  V30 20579 H 1859.46 2.57928 1.47853 0
M  V30 20580 H 1856.99 1.39462 0.662547 0
M  V30 20581 H 1858.95 1.60721 3.77729 0
M  V30 20582 H 1857.61 0.680212 3.06646 0
M  V30 20583 H 1856.81 2.76747 4.21221 0
M  V30 20584 H 1856.41 2.80061 2.47875 0
M  V30 20585 H 1858.7 4.17145 5.33851 0
M  V30 20586 H 1859.64 5.45439 4.51555 0
M  V30 20587 H 1860.05 3.73616 4.23168 0
M  V30 20588 N 1859.45 -0.728395 1.39758 0
M  V30 20589 C 1860.7 -1.49028 1.37544 0
M  V30 20590 C 1861.03 -1.94182 -0.0265175 0
M  V30 20591 O 1860.3 -1.67257 -0.992737 0
M  V30 20592 C 1860.59 -2.72535 2.35365 0
M  V30 20593 C 1860.44 -2.33358 3.84531 0
M  V30 20594 C 1861.76 -3.74656 2.30914 0
M  V30 20595 H 1858.88 -0.540587 0.500934 0
M  V30 20596 H 1861.52 -0.832335 1.70799 0
M  V30 20597 H 1859.67 -3.28674 2.07137 0
M  V30 20598 H 1861.34 -1.828 4.23535 0
M  V30 20599 H 1859.58 -1.65508 4.00986 0
M  V30 20600 H 1860.26 -3.21832 4.48473 0
M  V30 20601 H 1862.73 -3.28117 2.55888 0
M  V30 20602 H 1861.61 -4.58729 3.01428 0
M  V30 20603 H 1861.87 -4.22047 1.31639 0
M  V30 20604 N 1860.93 -1.25042 -0.959279 0
M  V30 20605 C 1861.86 -1.07494 -2.07285 0
M  V30 20606 C 1862.84 0.0146264 -1.70094 0
M  V30 20607 O 1864.02 -0.154035 -1.93588 0
M  V30 20608 C 1861.15 -0.68794 -3.40418 0
M  V30 20609 C 1860.11 -1.72722 -3.91601 0
M  V30 20610 C 1859.43 -1.19504 -5.21175 0
M  V30 20611 C 1860.73 -3.12502 -4.18497 0
M  V30 20612 H 1862.43 -2.00641 -2.22224 0
M  V30 20613 H 1859.97 -0.966074 -1.06785 0
M  V30 20614 H 1861.93 -0.552133 -4.17767 0
M  V30 20615 H 1860.65 0.279224 -3.25404 0
M  V30 20616 H 1859.31 -1.85139 -3.16416 0
M  V30 20617 H 1858.96 -0.218239 -5.02526 0
M  V30 20618 H 1858.66 -1.88962 -5.56387 0
M  V30 20619 H 1860.18 -1.07153 -6.01124 0
M  V30 20620 H 1861.6 -3.03266 -4.86521 0
M  V30 20621 H 1859.99 -3.79389 -4.64956 0
M  V30 20622 H 1861.06 -3.5991 -3.2495 0
M  V30 20623 N 1862.41 1.16121 -1.06553 0
M  V30 20624 C 1863.66 1.86055 -0.778871 0
M  V30 20625 C 1863.97 1.82747 0.697357 0
M  V30 20626 O 1865.17 2.48285 1.09849 0
M  V30 20627 C 1863.63 3.33897 -1.34315 0
M  V30 20628 C 1863.24 3.45673 -2.84981 0
M  V30 20629 C 1864.98 4.09069 -1.13415 0
M  V30 20630 C 1862.89 4.87616 -3.34641 0
M  V30 20631 H 1861.82 0.696963 -0.287678 0
M  V30 20632 H 1864.47 1.31038 -1.28458 0
M  V30 20633 H 1862.85 3.88536 -0.765208 0
M  V30 20634 H 1864.03 3.01181 -3.4875 0
M  V30 20635 H 1862.34 2.83938 -3.04579 0
M  V30 20636 H 1864.94 5.13809 -1.48002 0
M  V30 20637 H 1865.28 4.16237 -0.0726719 0
M  V30 20638 H 1865.81 3.60676 -1.67802 0
M  V30 20639 H 1862.55 4.85629 -4.40278 0
M  V30 20640 H 1862.07 5.32722 -2.75622 0
M  V30 20641 H 1863.75 5.56443 -3.30122 0
M  V30 20642 N 1863.88 0.848487 1.3281 0
M  V30 20643 C 1865.12 0.455061 1.9927 0
M  V30 20644 C 1865.49 -0.969773 1.65709 0
M  V30 20645 O 1866.69 -1.46743 2.25211 0
M  V30 20646 C 1864.96 0.680294 3.50866 0
M  V30 20647 S 1866.52 0.383521 4.37121 0
M  V30 20648 H 1863.34 0.170742 0.690194 0
M  V30 20649 H 1865.94 1.09986 1.61627 0
M  V30 20650 H 1864.64 1.71648 3.7278 0
M  V30 20651 H 1864.17 0.0216913 3.93394 0
M  V30 20652 H 1866.19 -0.792918 4.89824 0
M  V30 20653 N 1865.36 -1.4549 0.605832 0
M  V30 20654 C 1866.61 -2.02251 0.100338 0
M  V30 20655 C 1866.94 -1.47447 -1.26845 0
M  V30 20656 O 1866.19 -0.638532 -1.8499 0
M  V30 20657 C 1866.49 -3.57399 0.00918576 0
M  V30 20658 C 1866.16 -4.31347 1.31341 0
M  V30 20659 C 1864.82 -4.51267 1.67067 0
M  V30 20660 C 1867.17 -4.73629 2.17543 0
M  V30 20661 C 1864.5 -5.10725 2.88751 0
M  V30 20662 C 1866.85 -5.34432 3.38474 0
M  V30 20663 C 1865.52 -5.52576 3.74455 0
M  V30 20664 H 1864.79 -0.74009 0.0367165 0
M  V30 20665 H 1867.43 -1.74577 0.787099 0
M  V30 20666 H 1865.74 -3.84342 -0.760829 0
M  V30 20667 H 1867.43 -3.99019 -0.398057 0
M  V30 20668 H 1864.02 -4.16155 1.02533 0
M  V30 20669 H 1868.21 -4.57974 1.91241 0
M  V30 20670 H 1863.46 -5.22961 3.16736 0
M  V30 20671 H 1867.64 -5.66149 4.05522 0
M  V30 20672 H 1865.27 -5.98416 4.68831 0
M  V30 20673 N 1866.84 -0.344893 -1.5378 0
M  V30 20674 C 1867.77 0.545646 -2.2261 0
M  V30 20675 C 1868.79 1.06288 -1.23315 0
M  V30 20676 O 1869.97 0.972802 -1.49662 0
M  V30 20677 C 1867.07 1.76379 -2.89385 0
M  V30 20678 C 1866.25 1.38162 -4.15006 0
M  V30 20679 C 1865.31 2.45958 -4.65179 0
M  V30 20680 O 1864.33 2.0921 -5.29358 0
M  V30 20681 N 1865.53 3.77232 -4.41221 0
M  V30 20682 H 1868.3 -0.043834 -2.99668 0
M  V30 20683 H 1865.86 -0.169081 -1.61015 0
M  V30 20684 H 1867.85 2.47928 -3.19865 0
M  V30 20685 H 1866.42 2.26061 -2.15905 0
M  V30 20686 H 1865.64 0.496839 -3.91056 0
M  V30 20687 H 1866.93 1.10227 -4.96717 0
M  V30 20688 H 1866.33 4.09875 -3.89896 0
M  V30 20689 H 1864.89 4.44947 -4.76304 0
M  V30 20690 N 1868.32 1.57428 -0.0735454 0
M  V30 20691 C 1869.28 2.11699 0.878419 0
M  V30 20692 C 1870.28 1.0414 1.22521 0
M  V30 20693 O 1871.47 1.30121 1.1582 0
M  V30 20694 C 1868.6 2.61979 2.18129 0
M  V30 20695 H 1869.8 2.97118 0.40755 0
M  V30 20696 H 1867.35 1.55315 0.175183 0
M  V30 20697 H 1868.08 1.80018 2.69748 0
M  V30 20698 H 1867.87 3.40599 1.94254 0
M  V30 20699 H 1869.36 3.04035 2.86273 0
M  V30 20700 N 1869.8 -0.200022 1.56326 0
M  V30 20701 C 1871.05 -0.919331 1.7953 0
M  V30 20702 C 1871.36 -1.84628 0.645908 0
M  V30 20703 O 1872.56 -2.60584 0.762132 0
M  V30 20704 C 1871.02 -1.68508 3.18014 0
M  V30 20705 C 1870.63 -0.803202 4.40741 0
M  V30 20706 C 1872.37 -2.39432 3.50532 0
M  V30 20707 C 1870.28 -1.56753 5.70248 0
M  V30 20708 H 1869.21 -0.347018 0.669399 0
M  V30 20709 H 1871.86 -0.172713 1.82685 0
M  V30 20710 H 1870.24 -2.4754 3.09095 0
M  V30 20711 H 1871.42 -0.0518889 4.60771 0
M  V30 20712 H 1869.73 -0.205039 4.15895 0
M  V30 20713 H 1872.33 -2.97158 4.44524 0
M  V30 20714 H 1872.67 -3.13378 2.74043 0
M  V30 20715 H 1873.2 -1.6737 3.60877 0
M  V30 20716 H 1869.94 -0.870942 6.49688 0
M  V30 20717 H 1869.46 -2.29291 5.54243 0
M  V30 20718 H 1871.14 -2.12262 6.11191 0
M  V30 20719 N 1871.27 -1.50505 -0.467553 0
M  V30 20720 C 1872.24 -1.69071 -1.54751 0
M  V30 20721 C 1873.24 -0.561325 -1.50684 0
M  V30 20722 O 1874.43 -0.828412 -1.53242 0
M  V30 20723 C 1871.56 -1.71922 -2.94373 0
M  V30 20724 H 1872.75 -2.65425 -1.39605 0
M  V30 20725 H 1870.31 -1.40039 -0.694177 0
M  V30 20726 H 1871.04 -0.772734 -3.14959 0
M  V30 20727 H 1870.83 -2.53972 -2.98732 0
M  V30 20728 H 1872.32 -1.88228 -3.72773 0
M  V30 20729 N 1872.75 0.720973 -1.40142 0
M  V30 20730 C 1873.69 1.84439 -1.34378 0
M  V30 20731 C 1874.66 1.61172 -0.215054 0
M  V30 20732 O 1875.85 1.84254 -0.397828 0
M  V30 20733 C 1872.97 3.20682 -1.08999 0
M  V30 20734 C 1872.02 3.62786 -2.24251 0
M  V30 20735 S 1872.85 3.70524 -3.86616 0
M  V30 20736 C 1874.01 5.09534 -3.63491 0
M  V30 20737 H 1874.24 1.89047 -2.29453 0
M  V30 20738 H 1871.78 0.887224 -1.26363 0
M  V30 20739 H 1873.73 3.99346 -0.950423 0
M  V30 20740 H 1872.39 3.13713 -0.155881 0
M  V30 20741 H 1871.59 4.61695 -2.02122 0
M  V30 20742 H 1871.19 2.91364 -2.34484 0
M  V30 20743 H 1873.48 5.96292 -3.21624 0
M  V30 20744 H 1874.42 5.36697 -4.61911 0
M  V30 20745 H 1874.83 4.79873 -2.97291 0
M  V30 20746 N 1874.23 1.25549 0.952634 0
M  V30 20747 C 1875.16 1.0043 2.04912 0
M  V30 20748 C 1876.14 -0.0671275 1.62461 0
M  V30 20749 O 1877.33 0.0729397 1.88359 0
M  V30 20750 C 1874.45 0.51855 3.34707 0
M  V30 20751 C 1873.5 1.58081 3.96122 0
M  V30 20752 S 1874.33 3.16656 4.31844 0
M  V30 20753 C 1875.49 2.69821 5.64754 0
M  V30 20754 H 1875.72 1.93272 2.25905 0
M  V30 20755 H 1873.25 1.09102 1.09253 0
M  V30 20756 H 1875.21 0.244941 4.09769 0
M  V30 20757 H 1873.87 -0.389408 3.11677 0
M  V30 20758 H 1873.07 1.19168 4.89709 0
M  V30 20759 H 1872.67 1.8052 3.27549 0
M  V30 20760 H 1874.96 2.13572 6.42957 0
M  V30 20761 H 1875.9 3.62056 6.0854 0
M  V30 20762 H 1876.31 2.09754 5.24084 0
M  V30 20763 N 1875.71 -1.15554 1.07168 0
M  V30 20764 C 1876.96 -1.85639 0.788727 0
M  V30 20765 C 1877.27 -1.83114 -0.687656 0
M  V30 20766 O 1878.48 -2.48864 -1.08531 0
M  V30 20767 C 1876.93 -3.3318 1.36084 0
M  V30 20768 C 1876.54 -3.44157 2.8681 0
M  V30 20769 C 1878.28 -4.08462 1.15582 0
M  V30 20770 C 1876.19 -4.85835 3.37222 0
M  V30 20771 H 1875.12 -0.695427 0.29137 0
M  V30 20772 H 1877.77 -1.30354 1.29151 0
M  V30 20773 H 1876.15 -3.88125 0.785802 0
M  V30 20774 H 1877.33 -2.99328 3.50342 0
M  V30 20775 H 1875.64 -2.82318 3.06081 0
M  V30 20776 H 1878.24 -5.13017 1.50725 0
M  V30 20777 H 1878.58 -4.16192 0.0947449 0
M  V30 20778 H 1879.12 -3.59781 1.69712 0
M  V30 20779 H 1875.86 -4.83287 4.42847 0
M  V30 20780 H 1875.38 -5.31253 2.78443 0
M  V30 20781 H 1877.05 -5.54684 3.33068 0
M  V30 20782 N 1877.19 -0.855519 -1.32358 0
M  V30 20783 C 1878.46 -0.380575 -1.91862 0
M  V30 20784 C 1878.84 1.13593 -1.77932 0
M  V30 20785 O 1878.19 1.95797 -1.17796 0
M  V30 20786 C 1878.4 -0.845902 -3.38593 0
M  V30 20787 C 1879.75 -0.863586 -4.15725 0
M  V30 20788 O 1880.77 -0.790597 -3.47315 0
M  V30 20789 O 1879.63 -0.966658 -5.37883 0
M  V30 20790 H 1876.73 -0.111156 -0.819496 0
M  V30 20791 H 1879.27 -0.942476 -1.41122 0
M  V30 20792 H 1878.05 -1.88909 -3.42679 0
M  V30 20793 H 1877.67 -0.2615 -3.96739 0
M  V30 20794 N 1878.67 1.45167 -0.61354 0
M  V30 20795 C 1879.89 2.06565 -0.117608 0
M  V30 20796 C 1880.31 1.45716 1.20051 0
M  V30 20797 O 1879.67 0.573512 1.73254 0
M  V30 20798 C 1879.72 3.61493 0.0221474 0
M  V30 20799 O 1879.44 4.20072 -1.24383 0
M  V30 20800 C 1880.94 4.39889 0.548841 0
M  V30 20801 H 1878.16 0.667172 -0.0715756 0
M  V30 20802 H 1880.7 1.86318 -0.84296 0
M  V30 20803 H 1878.86 3.81063 0.697854 0
M  V30 20804 H 1879.27 5.13317 -1.07733 0
M  V30 20805 H 1880.75 5.48776 0.595696 0
M  V30 20806 H 1881.22 4.1009 1.57234 0
M  V30 20807 H 1881.83 4.25198 -0.0930203 0
M  V30 20808 N 1880.14 0.353044 1.53595 0
M  V30 20809 C 1881.42 -0.296304 1.93343 0
M  V30 20810 C 1881.8 -1.67448 1.28548 0
M  V30 20811 O 1881.15 -2.24226 0.4399 0
M  V30 20812 C 1881.36 -0.359079 3.47148 0
M  V30 20813 C 1882.71 -0.605406 4.20262 0
M  V30 20814 O 1883.73 -0.440805 3.53462 0
M  V30 20815 O 1882.59 -0.92496 5.38616 0
M  V30 20816 H 1879.68 -0.174879 0.808298 0
M  V30 20817 H 1882.23 0.404914 1.64798 0
M  V30 20818 H 1881 0.607684 3.86553 0
M  V30 20819 H 1880.62 -1.1067 3.81887 0
M  V30 20820 N 1881.62 -1.57387 0.0818932 0
M  V30 20821 C 1882.87 -1.94156 -0.585765 0
M  V30 20822 C 1883.2 -0.962889 -1.68648 0
M  V30 20823 O 1882.48 0.00625819 -1.94499 0
M  V30 20824 C 1882.76 -3.41132 -1.15329 0
M  V30 20825 C 1882.61 -4.49762 -0.0585349 0
M  V30 20826 C 1883.93 -3.89137 -2.05573 0
M  V30 20827 H 1881.05 -0.706012 -0.211463 0
M  V30 20828 H 1883.69 -1.89408 0.149918 0
M  V30 20829 H 1881.84 -3.4531 -1.78026 0
M  V30 20830 H 1883.51 -4.57702 0.575061 0
M  V30 20831 H 1881.76 -4.29496 0.609574 0
M  V30 20832 H 1882.43 -5.49765 -0.496206 0
M  V30 20833 H 1884.9 -3.87029 -1.52798 0
M  V30 20834 H 1883.78 -4.92569 -2.42213 0
M  V30 20835 H 1884.04 -3.27663 -2.96799 0
M  V30 20836 N 1883.1 0.191729 -1.56429 0
M  V30 20837 C 1884.03 1.26174 -1.91345 0
M  V30 20838 C 1885.04 1.41536 -0.804451 0
M  V30 20839 O 1886.23 1.41902 -1.08287 0
M  V30 20840 C 1883.33 2.63341 -2.13319 0
M  V30 20841 C 1882.51 2.69543 -3.44479 0
M  V30 20842 C 1881.57 3.87929 -3.55524 0
M  V30 20843 O 1880.59 3.74875 -4.28319 0
M  V30 20844 N 1881.79 5.03527 -2.88861 0
M  V30 20845 H 1884.56 0.965364 -2.83727 0
M  V30 20846 H 1882.12 0.381628 -1.57338 0
M  V30 20847 H 1884.11 3.40971 -2.17993 0
M  V30 20848 H 1882.68 2.85452 -1.2742 0
M  V30 20849 H 1881.9 1.78161 -3.51642 0
M  V30 20850 H 1883.19 2.7068 -4.30824 0
M  V30 20851 H 1882.59 5.17032 -2.29553 0
M  V30 20852 H 1881.14 5.79092 -2.99159 0
M  V30 20853 N 1884.58 1.50751 0.459565 0
M  V30 20854 C 1885.8 1.66367 1.23842 0
M  V30 20855 C 1886.23 0.351355 1.84789 0
M  V30 20856 O 1885.59 -0.686103 1.67816 0
M  V30 20857 C 1885.63 2.76521 2.31449 0
M  V30 20858 O 1884.74 2.38576 3.36386 0
M  V30 20859 H 1884.08 0.555447 0.363833 0
M  V30 20860 H 1886.61 1.97193 0.545538 0
M  V30 20861 H 1886.62 2.99943 2.76583 0
M  V30 20862 H 1885.29 3.71759 1.86462 0
M  V30 20863 H 1883.87 2.25643 2.96883 0
M  V30 20864 N 1886.06 -0.713531 1.40522 0
M  V30 20865 C 1886.99 -1.8404 1.43707 0
M  V30 20866 C 1887.97 -1.67474 0.297751 0
M  V30 20867 O 1889.15 -1.87474 0.506662 0
M  V30 20868 C 1886.28 -3.22014 1.30094 0
M  V30 20869 C 1885.24 -3.53255 2.4165 0
M  V30 20870 C 1884.56 -4.90395 2.13113 0
M  V30 20871 C 1885.86 -3.54045 3.83991 0
M  V30 20872 H 1887.56 -1.81632 2.38013 0
M  V30 20873 H 1885.1 -0.872437 1.14562 0
M  V30 20874 H 1887.05 -4.00541 1.30938 0
M  V30 20875 H 1885.78 -3.25002 0.322648 0
M  V30 20876 H 1884.44 -2.77069 2.40059 0
M  V30 20877 H 1884.09 -4.89988 1.13669 0
M  V30 20878 H 1883.79 -5.12264 2.87853 0
M  V30 20879 H 1885.31 -5.71254 2.15642 0
M  V30 20880 H 1886.72 -4.22609 3.87395 0
M  V30 20881 H 1885.12 -3.87441 4.58268 0
M  V30 20882 H 1886.19 -2.53387 4.13428 0
M  V30 20883 N 1887.53 -1.26053 -0.945962 0
M  V30 20884 C 1888.47 -1.02985 -2.0476 0
M  V30 20885 C 1889.48 0.00812739 -1.62798 0
M  V30 20886 O 1890.67 -0.231411 -1.76994 0
M  V30 20887 C 1887.77 -0.536609 -3.34625 0
M  V30 20888 C 1886.94 -1.64273 -4.0538 0
M  V30 20889 C 1886 -1.14836 -5.13516 0
M  V30 20890 O 1885.03 -1.84449 -5.38486 0
M  V30 20891 N 1886.23 0.00576017 -5.805 0
M  V30 20892 H 1888.99 -1.97845 -2.25117 0
M  V30 20893 H 1886.55 -1.17375 -1.11512 0
M  V30 20894 H 1888.55 -0.19017 -4.04253 0
M  V30 20895 H 1887.12 0.318275 -3.10976 0
M  V30 20896 H 1886.34 -2.16034 -3.29732 0
M  V30 20897 H 1887.62 -2.3856 -4.49407 0
M  V30 20898 H 1887.02 0.587225 -5.62644 0
M  V30 20899 H 1885.58 0.293161 -6.5114 0
M  V30 20900 N 1889.01 1.14984 -1.07779 0
M  V30 20901 C 1889.94 2.18862 -0.64612 0
M  V30 20902 C 1890.92 1.5903 0.338854 0
M  V30 20903 O 1892.11 1.86911 0.244241 0
M  V30 20904 C 1889.23 3.38662 0.0505862 0
M  V30 20905 C 1888.28 4.17035 -0.893519 0
M  V30 20906 S 1889.11 4.78866 -2.39682 0
M  V30 20907 C 1890.27 6.0203 -1.71204 0
M  V30 20908 H 1890.5 2.5514 -1.52614 0
M  V30 20909 H 1888.03 1.26015 -0.892165 0
M  V30 20910 H 1889.99 4.08067 0.446298 0
M  V30 20911 H 1888.65 3.00719 0.907009 0
M  V30 20912 H 1887.85 5.02763 -0.352834 0
M  V30 20913 H 1887.45 3.53202 -1.22982 0
M  V30 20914 H 1889.74 6.69682 -1.02627 0
M  V30 20915 H 1890.68 6.60675 -2.54781 0
M  V30 20916 H 1891.09 5.51854 -1.18815 0
M  V30 20917 N 1890.49 0.862526 1.31902 0
M  V30 20918 C 1891.71 0.483159 2.01694 0
M  V30 20919 C 1892.14 -0.914778 1.64358 0
M  V30 20920 O 1891.5 -1.60229 0.848308 0
M  V30 20921 C 1891.55 0.638911 3.54895 0
M  V30 20922 O 1890.65 -0.324962 4.11118 0
M  V30 20923 H 1889.99 0.193128 0.635293 0
M  V30 20924 H 1892.52 1.16389 1.6827 0
M  V30 20925 H 1892.53 0.529394 4.04551 0
M  V30 20926 H 1891.21 1.65828 3.81411 0
M  V30 20927 H 1889.78 -0.171025 3.72508 0
M  V30 20928 N 1891.97 -1.4484 0.62123 0
M  V30 20929 C 1893.22 -2.01347 0.11929 0
M  V30 20930 C 1893.53 -1.49373 -1.26282 0
M  V30 20931 O 1894.74 -1.97945 -1.85823 0
M  V30 20932 C 1893.19 -3.59533 0.162536 0
M  V30 20933 C 1892.8 -4.20504 1.54534 0
M  V30 20934 C 1894.54 -4.23553 -0.283454 0
M  V30 20935 C 1892.45 -5.70883 1.54423 0
M  V30 20936 H 1891.38 -0.752894 0.0408293 0
M  V30 20937 H 1894.03 -1.66164 0.778571 0
M  V30 20938 H 1892.41 -3.91968 -0.563659 0
M  V30 20939 H 1893.59 -3.99621 2.29433 0
M  V30 20940 H 1891.9 -3.68732 1.93457 0
M  V30 20941 H 1894.5 -5.33837 -0.303671 0
M  V30 20942 H 1894.84 -3.9519 -1.30884 0
M  V30 20943 H 1895.38 -3.95884 0.38992 0
M  V30 20944 H 1892.12 -6.03965 2.54767 0
M  V30 20945 H 1891.64 -5.93917 0.838029 0
M  V30 20946 H 1893.31 -6.34336 1.27383 0
M  V30 20947 N 1893.45 -0.361184 -1.53405 0
M  V30 20948 C 1894.41 0.475026 -2.24223 0
M  V30 20949 C 1895.41 1.01331 -1.24855 0
M  V30 20950 O 1896.6 0.899756 -1.49164 0
M  V30 20951 C 1893.73 1.6635 -2.97557 0
M  V30 20952 H 1894.92 -0.144595 -2.99551 0
M  V30 20953 H 1892.48 -0.112802 -1.55892 0
M  V30 20954 H 1893.21 2.32133 -2.26461 0
M  V30 20955 H 1893 1.28454 -3.70462 0
M  V30 20956 H 1894.49 2.2562 -3.51405 0
M  V30 20957 N 1894.92 1.57341 -0.0902386 0
M  V30 20958 C 1895.85 2.16782 0.86764 0
M  V30 20959 C 1896.84 1.09982 1.29761 0
M  V30 20960 O 1898.02 1.38099 1.36537 0
M  V30 20961 C 1895.15 2.74426 2.12856 0
M  V30 20962 C 1894.1 3.86555 1.83738 0
M  V30 20963 C 1893.43 4.3088 3.16617 0
M  V30 20964 C 1894.73 5.09971 1.12814 0
M  V30 20965 H 1896.42 2.97075 0.372417 0
M  V30 20966 H 1893.97 1.42899 0.177689 0
M  V30 20967 H 1895.92 3.14659 2.80299 0
M  V30 20968 H 1894.65 1.9138 2.64653 0
M  V30 20969 H 1893.31 3.46853 1.18694 0
M  V30 20970 H 1892.95 3.44732 3.66291 0
M  V30 20971 H 1892.65 5.06477 2.97918 0
M  V30 20972 H 1894.18 4.73743 3.85227 0
M  V30 20973 H 1895.59 5.47404 1.70358 0
M  V30 20974 H 1893.99 5.90965 1.04311 0
M  V30 20975 H 1895.06 4.84775 0.110114 0
M  V30 20976 N 1896.4 -0.183431 1.56529 0
M  V30 20977 C 1897.63 -0.916557 1.85156 0
M  V30 20978 C 1898.04 -1.76861 0.672063 0
M  V30 20979 O 1897.38 -1.7997 -0.3683 0
M  V30 20980 C 1897.45 -1.85342 3.0804 0
M  V30 20981 C 1897.11 -1.18216 4.41445 0
M  V30 20982 C 1898.11 -0.553445 5.16946 0
M  V30 20983 C 1895.79 -1.18253 4.88182 0
M  V30 20984 C 1897.79 0.0659422 6.37366 0
M  V30 20985 C 1895.47 -0.559316 6.08535 0
M  V30 20986 C 1896.47 0.0638301 6.8297 0
M  V30 20987 O 1896.16 0.677251 8.01042 0
M  V30 20988 H 1895.89 -0.272343 0.618713 0
M  V30 20989 H 1898.44 -0.192085 2.045 0
M  V30 20990 H 1896.67 -2.61789 2.84611 0
M  V30 20991 H 1898.36 -2.45533 3.23215 0
M  V30 20992 H 1899.13 -0.545219 4.81926 0
M  V30 20993 H 1895.01 -1.65696 4.30193 0
M  V30 20994 H 1898.55 0.552935 6.95405 0
M  V30 20995 H 1894.45 -0.565084 6.43022 0
M  V30 20996 H 1895.22 0.575305 8.16476 0
M  V30 20997 N 1897.88 -1.50992 -0.451564 0
M  V30 20998 C 1899.13 -1.64161 -1.20095 0
M  V30 20999 C 1899.48 -0.346721 -1.8925 0
M  V30 21000 O 1898.77 0.656635 -1.79997 0
M  V30 21001 C 1898.97 -2.7732 -2.25452 0
M  V30 21002 C 1898.8 -4.17688 -1.66635 0
M  V30 21003 C 1897.57 -4.83824 -1.45749 0
M  V30 21004 C 1899.77 -5.01268 -1.15043 0
M  V30 21005 N 1897.75 -6.08347 -0.823804 0
M  V30 21006 C 1899.12 -6.16676 -0.641159 0
M  V30 21007 C 1901.17 -4.86899 -1.04083 0
M  V30 21008 C 1899.88 -7.19292 -0.0330732 0
M  V30 21009 C 1901.9 -5.89711 -0.446661 0
M  V30 21010 C 1901.26 -7.04381 0.0521393 0
M  V30 21011 H 1897.36 -0.654714 -0.427637 0
M  V30 21012 H 1899.95 -1.88176 -0.499779 0
M  V30 21013 H 1898.12 -2.54993 -2.92973 0
M  V30 21014 H 1899.85 -2.79743 -2.92448 0
M  V30 21015 H 1896.61 -4.41448 -1.71525 0
M  V30 21016 H 1897.03 -6.74963 -0.524811 0
M  V30 21017 H 1901.67 -3.98512 -1.41237 0
M  V30 21018 H 1899.39 -8.07339 0.350622 0
M  V30 21019 H 1902.98 -5.8066 -0.363957 0
M  V30 21020 H 1901.86 -7.82574 0.504692 0
M  V30 21021 N 1899.36 0.706069 -1.40899 0
M  V30 21022 C 1900.61 1.46164 -1.38993 0
M  V30 21023 C 1900.92 1.956 0.00145788 0
M  V30 21024 O 1902.13 2.71122 0.143137 0
M  V30 21025 C 1900.58 2.64252 -2.44334 0
M  V30 21026 C 1900.19 2.21646 -3.89329 0
M  V30 21027 C 1901.93 3.41941 -2.51549 0
M  V30 21028 C 1899.84 3.36629 -4.86245 0
M  V30 21029 H 1898.77 0.548985 -0.516847 0
M  V30 21030 H 1901.42 0.767528 -1.66677 0
M  V30 21031 H 1899.8 3.3588 -2.09764 0
M  V30 21032 H 1900.98 1.57376 -4.33093 0
M  V30 21033 H 1899.29 1.56978 -3.85677 0
M  V30 21034 H 1901.89 4.27518 -3.21142 0
M  V30 21035 H 1902.23 3.86409 -1.54899 0
M  V30 21036 H 1902.77 2.77363 -2.85158 0
M  V30 21037 H 1899.51 2.97183 -5.84262 0
M  V30 21038 H 1899.03 3.99784 -4.47139 0
M  V30 21039 H 1900.7 4.02559 -5.06513 0
M  V30 21040 N 1900.84 1.26553 0.939264 0
M  V30 21041 C 1901.78 1.08092 2.05958 0
M  V30 21042 C 1902.78 0.00730279 1.69398 0
M  V30 21043 O 1903.98 0.164131 1.7925 0
M  V30 21044 H 1900.36 0.33271 0.674394 0
M  V30 21045 H 1902.33 2.03032 2.18679 0
M  V30 21046 C 1901.08 0.732672 3.39893 0
M  V30 21047 H 1900.4 1.55067 3.68503 0
M  V30 21048 H 1901.84 0.643305 4.19091 0
M  V30 21049 C 1900.3 -0.5623 3.32174 0
M  V30 21050 O 1900.83 -1.60007 3.68457 0
M  V30 21051 N 1899.04 -0.553643 2.85277 0
M  V30 21052 H 1898.58 0.291265 2.55948 0
M  V30 21053 H 1898.54 -1.4202 2.80495 0
M  V30 21054 N 1902.31 -1.14411 1.08387 0
M  V30 21055 C 1903.54 -1.89848 0.835015 0
M  V30 21056 C 1903.96 -1.78034 -0.607091 0
M  V30 21057 O 1903.32 -1.12039 -1.42538 0
M  V30 21058 C 1903.37 -3.37818 1.26141 0
M  V30 21059 O 1902.47 -4.10325 0.41322 0
M  V30 21060 H 1901.82 -0.590682 0.303299 0
M  V30 21061 H 1904.35 -1.44823 1.44525 0
M  V30 21062 H 1904.36 -3.88631 1.24218 0
M  V30 21063 H 1903.03 -3.45735 2.31172 0
M  V30 21064 H 1901.61 -3.69589 0.495854 0
M  V30 21065 N 1903.79 -0.869509 -1.31443 0
M  V30 21066 C 1905.04 -0.476357 -1.95994 0
M  V30 21067 C 1905.35 0.976268 -1.69494 0
M  V30 21068 O 1906.56 1.47555 -2.27903 0
M  V30 21069 C 1905.02 -0.800938 -3.50875 0
M  V30 21070 C 1904.62 -2.27029 -3.86215 0
M  V30 21071 C 1906.37 -0.476234 -4.2182 0
M  V30 21072 C 1904.28 -2.53731 -5.34205 0
M  V30 21073 H 1903.21 -0.174407 -0.733552 0
M  V30 21074 H 1905.86 -1.06235 -1.49621 0
M  V30 21075 H 1904.24 -0.144206 -3.95737 0
M  V30 21076 H 1905.41 -2.97005 -3.52313 0
M  V30 21077 H 1903.73 -2.56098 -3.28333 0
M  V30 21078 H 1906.32 -0.652965 -5.30698 0
M  V30 21079 H 1906.67 0.583294 -4.12193 0
M  V30 21080 H 1907.2 -1.08949 -3.8259 0
M  V30 21081 H 1903.94 -3.58365 -5.48867 0
M  V30 21082 H 1903.46 -1.88349 -5.6946 0
M  V30 21083 H 1905.14 -2.38437 -6.01462 0
M  V30 21084 N 1905.27 1.44508 -0.628902 0
M  V30 21085 C 1906.52 2.02066 -0.132502 0
M  V30 21086 C 1906.85 1.49446 1.24483 0
M  V30 21087 O 1906.1 0.667881 1.83951 0
M  V30 21088 C 1906.4 3.57339 -0.0660437 0
M  V30 21089 C 1906.07 4.29203 -1.38186 0
M  V30 21090 C 1904.73 4.48552 -1.74225 0
M  V30 21091 C 1907.08 4.70108 -2.25051 0
M  V30 21092 C 1904.41 5.06066 -2.96839 0
M  V30 21093 C 1906.76 5.2898 -3.46934 0
M  V30 21094 C 1905.42 5.46549 -3.83198 0
M  V30 21095 H 1904.69 0.739412 -0.048486 0
M  V30 21096 H 1907.34 1.73302 -0.814773 0
M  V30 21097 H 1905.65 3.85504 0.699588 0
M  V30 21098 H 1907.34 3.99602 0.334526 0
M  V30 21099 H 1903.93 4.14471 -1.09141 0
M  V30 21100 H 1908.12 4.54874 -1.98503 0
M  V30 21101 H 1903.37 5.17856 -3.25016 0
M  V30 21102 H 1907.55 5.59626 -4.14478 0
M  V30 21103 H 1905.17 5.90881 -4.78292 0
M  V30 21104 N 1906.75 0.369315 1.53212 0
M  V30 21105 C 1908 -0.219533 2.01608 0
M  V30 21106 C 1908.33 -1.48115 1.25601 0
M  V30 21107 O 1907.6 -1.91311 0.350762 0
M  V30 21108 C 1907.89 -0.507713 3.56503 0
M  V30 21109 C 1907.74 0.767792 4.43199 0
M  V30 21110 C 1909.06 -1.30674 4.20253 0
M  V30 21111 H 1906.18 -0.0783156 0.732827 0
M  V30 21112 H 1908.82 0.494943 1.8344 0
M  V30 21113 H 1906.97 -1.11637 3.72115 0
M  V30 21114 H 1908.64 1.4052 4.39377 0
M  V30 21115 H 1906.88 1.38737 4.11017 0
M  V30 21116 H 1907.56 0.521063 5.49535 0
M  V30 21117 H 1910.03 -0.791822 4.08497 0
M  V30 21118 H 1908.91 -1.47712 5.28652 0
M  V30 21119 H 1909.17 -2.31631 3.76562 0
M  V30 21120 N 1908.23 -1.57291 0.0985816 0
M  V30 21121 C 1909.16 -2.09882 -0.895809 0
M  V30 21122 C 1910.14 -1.01022 -1.2741 0
M  V30 21123 O 1911.32 -1.28543 -1.37873 0
M  V30 21124 C 1908.45 -2.57868 -2.19594 0
M  V30 21125 C 1907.5 -3.7842 -1.96725 0
M  V30 21126 S 1908.33 -5.21834 -1.20208 0
M  V30 21127 C 1909.48 -5.73172 -2.51444 0
M  V30 21128 H 1909.72 -2.93899 -0.448416 0
M  V30 21129 H 1907.25 -1.53973 -0.114779 0
M  V30 21130 H 1909.21 -2.86173 -2.94305 0
M  V30 21131 H 1907.87 -1.74071 -2.61454 0
M  V30 21132 H 1907.06 -4.10075 -2.93009 0
M  V30 21133 H 1906.66 -3.50627 -1.30142 0
M  V30 21134 H 1908.96 -5.81652 -3.47401 0
M  V30 21135 H 1909.9 -6.71615 -2.24362 0
M  V30 21136 H 1910.31 -5.01123 -2.59877 0
M  V30 21137 N 1909.71 0.175127 -1.56624 0
M  V30 21138 C 1910.64 1.21918 -1.99144 0
M  V30 21139 C 1911.62 1.4638 -0.866428 0
M  V30 21140 O 1912.8 1.57779 -1.13223 0
M  V30 21141 C 1909.93 2.55897 -2.34807 0
M  V30 21142 C 1908.89 2.46011 -3.50232 0
M  V30 21143 C 1908.21 3.84445 -3.71626 0
M  V30 21144 C 1909.51 1.96808 -4.83801 0
M  V30 21145 H 1911.21 0.86575 -2.8661 0
M  V30 21146 H 1908.75 0.415014 -1.3789 0
M  V30 21147 H 1910.7 3.29136 -2.63149 0
M  V30 21148 H 1909.43 2.9302 -1.44245 0
M  V30 21149 H 1908.09 1.75227 -3.22011 0
M  V30 21150 H 1907.74 4.18955 -2.78362 0
M  V30 21151 H 1907.44 3.787 -4.49288 0
M  V30 21152 H 1908.96 4.59276 -4.02366 0
M  V30 21153 H 1910.37 2.59819 -5.11045 0
M  V30 21154 H 1908.77 2.0202 -5.65073 0
M  V30 21155 H 1909.84 0.922209 -4.7605 0
M  V30 21156 N 1911.18 1.5123 0.44355 0
M  V30 21157 C 1912.41 1.67146 1.21432 0
M  V30 21158 C 1912.82 0.365681 1.85632 0
M  V30 21159 O 1912.16 -0.665141 1.71235 0
M  V30 21160 C 1912.23 2.72562 2.34415 0
M  V30 21161 C 1911.89 4.15341 1.90632 0
M  V30 21162 C 1912.89 5.00323 1.41325 0
M  V30 21163 C 1910.57 4.61409 1.98513 0
M  V30 21164 C 1912.57 6.29431 1.00476 0
M  V30 21165 C 1910.25 5.90515 1.57276 0
M  V30 21166 C 1911.25 6.74353 1.08339 0
M  V30 21167 O 1910.94 8.01046 0.676843 0
M  V30 21168 H 1910.67 0.564225 0.372325 0
M  V30 21169 H 1913.23 1.98375 0.532597 0
M  V30 21170 H 1911.46 2.36634 3.05845 0
M  V30 21171 H 1913.14 2.77419 2.96299 0
M  V30 21172 H 1913.91 4.65938 1.34636 0
M  V30 21173 H 1909.79 3.96279 2.3555 0
M  V30 21174 H 1913.33 6.94821 0.622093 0
M  V30 21175 H 1909.23 6.24415 1.63633 0
M  V30 21176 H 1910 8.14549 0.803247 0
M  V30 21177 N 1912.66 -0.698586 1.41271 0
M  V30 21178 C 1913.89 -1.48743 1.43816 0
M  V30 21179 C 1914.3 -1.88752 0.0425858 0
M  V30 21180 O 1913.66 -1.56584 -0.937425 0
M  V30 21181 C 1913.71 -2.75192 2.34418 0
M  V30 21182 O 1913.43 -2.36869 3.68544 0
M  V30 21183 C 1914.93 -3.68957 2.45735 0
M  V30 21184 H 1912.15 -0.458477 0.489938 0
M  V30 21185 H 1914.7 -0.860372 1.85521 0
M  V30 21186 H 1912.85 -3.34142 1.9603 0
M  V30 21187 H 1913.27 -3.18354 4.16834 0
M  V30 21188 H 1914.74 -4.54473 3.13302 0
M  V30 21189 H 1915.22 -4.13237 1.48767 0
M  V30 21190 H 1915.82 -3.15912 2.84745 0
M  V30 21191 N 1914.14 -1.27049 -0.93254 0
M  V30 21192 C 1915.07 -1.03677 -2.03289 0
M  V30 21193 C 1916.05 0.0412728 -1.62548 0
M  V30 21194 O 1917.23 -0.102897 -1.88219 0
M  V30 21195 C 1914.36 -0.571733 -3.3384 0
M  V30 21196 C 1913.41 -1.64362 -3.93557 0
M  V30 21197 S 1914.24 -3.23486 -4.26752 0
M  V30 21198 C 1915.4 -2.78772 -5.6039 0
M  V30 21199 H 1915.63 -1.96842 -2.22802 0
M  V30 21200 H 1913.16 -1.10826 -1.07503 0
M  V30 21201 H 1915.12 -0.310101 -4.09327 0
M  V30 21202 H 1913.78 0.339773 -3.12257 0
M  V30 21203 H 1912.97 -1.26944 -4.87751 0
M  V30 21204 H 1912.58 -1.85708 -3.24636 0
M  V30 21205 H 1914.87 -2.23774 -6.39478 0
M  V30 21206 H 1915.81 -3.71692 -6.02703 0
M  V30 21207 H 1916.22 -2.18065 -5.2068 0
M  V30 21208 N 1915.62 1.13835 -1.08993 0
M  V30 21209 C 1916.53 2.22715 -0.73724 0
M  V30 21210 C 1917.54 1.72064 0.258869 0
M  V30 21211 O 1918.72 2.01145 0.101321 0
M  V30 21212 C 1915.78 3.46338 -0.158285 0
M  V30 21213 C 1914.85 4.11902 -1.20977 0
M  V30 21214 C 1914.08 5.29624 -0.658349 0
M  V30 21215 O 1914.3 5.68023 0.520219 0
M  V30 21216 O 1913.24 5.85121 -1.41126 0
M  V30 21217 H 1917.06 2.55247 -1.64568 0
M  V30 21218 H 1914.65 1.21882 -0.864013 0
M  V30 21219 H 1916.53 4.2109 0.161481 0
M  V30 21220 H 1915.2 3.15517 0.723235 0
M  V30 21221 H 1914.11 3.38996 -1.58216 0
M  V30 21222 H 1915.44 4.46843 -2.06378 0
M  V30 21223 N 1917.1 0.876467 1.3098 0
M  V30 21224 C 1918.34 0.497226 1.9826 0
M  V30 21225 C 1918.7 -0.934405 1.67729 0
M  V30 21226 O 1919.9 -1.41933 2.28273 0
M  V30 21227 C 1918.17 0.754565 3.49344 0
M  V30 21228 S 1919.73 0.476154 4.36209 0
M  V30 21229 H 1916.55 0.185344 0.686417 0
M  V30 21230 H 1919.15 1.1339 1.59258 0
M  V30 21231 H 1917.85 1.79517 3.69055 0
M  V30 21232 H 1917.39 0.105131 3.9326 0
M  V30 21233 H 1919.4 -0.688841 4.91395 0
M  V30 21234 N 1918.57 -1.44173 0.636557 0
M  V30 21235 C 1919.82 -2.01209 0.140639 0
M  V30 21236 C 1920.14 -1.50704 -1.2469 0
M  V30 21237 O 1921.34 -1.99904 -1.83713 0
M  V30 21238 C 1919.8 -3.5934 0.20066 0
M  V30 21239 C 1919.41 -4.18841 1.58985 0
M  V30 21240 C 1921.15 -4.23829 -0.238514 0
M  V30 21241 C 1919.06 -5.69213 1.60469 0
M  V30 21242 H 1917.99 -0.752418 0.0488124 0
M  V30 21243 H 1920.64 -1.65329 0.796151 0
M  V30 21244 H 1919.02 -3.92544 -0.522054 0
M  V30 21245 H 1920.19 -3.97165 2.33658 0
M  V30 21246 H 1918.51 -3.66659 1.97357 0
M  V30 21247 H 1921.11 -5.34129 -0.247033 0
M  V30 21248 H 1921.45 -3.96556 -1.26685 0
M  V30 21249 H 1921.98 -3.95449 0.431887 0
M  V30 21250 H 1918.72 -6.01229 2.61158 0
M  V30 21251 H 1918.24 -5.92995 0.900975 0
M  V30 21252 H 1919.92 -6.3295 1.34104 0
M  V30 21253 N 1920.05 -0.377435 -1.53014 0
M  V30 21254 C 1920.98 0.455103 -2.29022 0
M  V30 21255 C 1921.96 1.07375 -1.31926 0
M  V30 21256 O 1923.15 1.08877 -1.60809 0
M  V30 21257 C 1920.28 1.58883 -3.08826 0
M  V30 21258 C 1919.23 1.09683 -4.13707 0
M  V30 21259 C 1918.56 2.32172 -4.81664 0
M  V30 21260 C 1919.86 0.173165 -5.22013 0
M  V30 21261 H 1921.55 -0.179053 -2.98864 0
M  V30 21262 H 1919.1 -0.0875549 -1.43734 0
M  V30 21263 H 1921.05 2.17798 -3.60752 0
M  V30 21264 H 1919.77 2.2504 -2.36695 0
M  V30 21265 H 1918.43 0.530291 -3.62744 0
M  V30 21266 H 1918.08 2.96811 -4.06094 0
M  V30 21267 H 1917.78 1.99919 -5.52545 0
M  V30 21268 H 1919.31 2.91751 -5.3639 0
M  V30 21269 H 1920.72 0.670145 -5.6937 0
M  V30 21270 H 1919.12 -0.0590463 -6.00071 0
M  V30 21271 H 1920.19 -0.781339 -4.78564 0
M  V30 21272 N 1921.53 1.57237 -0.106922 0
M  V30 21273 C 1922.48 2.14668 0.847728 0
M  V30 21274 C 1923.45 1.06838 1.2718 0
M  V30 21275 O 1924.63 1.34686 1.35146 0
M  V30 21276 C 1921.77 2.74079 2.09702 0
M  V30 21277 C 1920.89 3.96178 1.7224 0
M  V30 21278 C 1920.02 4.43715 2.92045 0
M  V30 21279 C 1919.06 5.58375 2.50766 0
M  V30 21280 N 1918.2 6.00711 3.63443 0
M  V30 21281 H 1923.04 2.95924 0.351133 0
M  V30 21282 H 1920.57 1.46209 0.161636 0
M  V30 21283 H 1922.53 3.06649 2.82882 0
M  V30 21284 H 1921.16 1.95532 2.56841 0
M  V30 21285 H 1920.21 3.69846 0.889819 0
M  V30 21286 H 1921.53 4.7936 1.37896 0
M  V30 21287 H 1920.68 4.78131 3.73464 0
M  V30 21288 H 1919.42 3.59458 3.29607 0
M  V30 21289 H 1918.42 5.23576 1.67776 0
M  V30 21290 H 1919.65 6.4439 2.14334 0
M  V30 21291 H 1917.59 5.19397 4.00702 0
M  V30 21292 H 1917.51 6.78718 3.32983 0
M  V30 21293 H 1918.78 6.39761 4.45338 0
M  V30 21294 N 1923.01 -0.166818 1.56715 0
M  V30 21295 C 1923.94 -1.2086 1.99787 0
M  V30 21296 C 1924.92 -1.45918 0.874178 0
M  V30 21297 O 1926.1 -1.57176 1.14058 0
M  V30 21298 C 1923.23 -2.54648 2.3616 0
M  V30 21299 C 1922.19 -2.44151 3.51532 0
M  V30 21300 C 1921.51 -3.82469 3.7366 0
M  V30 21301 C 1922.81 -1.9424 4.84838 0
M  V30 21302 H 1924.51 -0.850538 2.87065 0
M  V30 21303 H 1922.05 -0.407696 1.38108 0
M  V30 21304 H 1924.01 -3.27736 2.64891 0
M  V30 21305 H 1922.73 -2.92251 1.45797 0
M  V30 21306 H 1921.39 -1.73516 3.22936 0
M  V30 21307 H 1921.04 -4.17473 2.8058 0
M  V30 21308 H 1920.74 -3.76312 4.5129 0
M  V30 21309 H 1922.26 -4.57136 4.04796 0
M  V30 21310 H 1923.68 -2.57105 5.12416 0
M  V30 21311 H 1922.07 -1.99021 5.66137 0
M  V30 21312 H 1923.14 -0.89695 4.76532 0
M  V30 21313 N 1924.49 -1.51463 -0.435524 0
M  V30 21314 C 1925.74 -1.63454 -1.18176 0
M  V30 21315 C 1926.05 -0.357501 -1.92305 0
M  V30 21316 O 1927.25 -0.356815 -2.69145 0
M  V30 21317 C 1925.71 -2.88676 -2.14928 0
M  V30 21318 C 1925.32 -4.23391 -1.46438 0
M  V30 21319 C 1927.06 -3.10025 -2.89974 0
M  V30 21320 C 1924.97 -5.39761 -2.41685 0
M  V30 21321 H 1923.9 -0.608812 -0.444819 0
M  V30 21322 H 1926.55 -1.77931 -0.448635 0
M  V30 21323 H 1924.93 -2.67837 -2.91683 0
M  V30 21324 H 1926.11 -4.54618 -0.75229 0
M  V30 21325 H 1924.42 -4.07934 -0.835385 0
M  V30 21326 H 1927.02 -3.9414 -3.61327 0
M  V30 21327 H 1927.36 -2.23177 -3.51423 0
M  V30 21328 H 1927.89 -3.31213 -2.20325 0
M  V30 21329 H 1924.63 -6.28875 -1.84922 0
M  V30 21330 H 1924.15 -5.12908 -3.10943 0
M  V30 21331 H 1925.83 -5.71783 -3.02776 0
M  V30 21332 N 1925.96 0.691085 -1.4164 0
M  V30 21333 C 1926.93 1.78671 -1.43559 0
M  V30 21334 C 1927.93 1.5747 -0.325543 0
M  V30 21335 O 1929.12 1.64061 -0.585631 0
M  V30 21336 C 1926.25 3.17102 -1.25135 0
M  V30 21337 H 1927.44 1.78361 -2.41096 0
M  V30 21338 H 1925 0.899148 -1.27848 0
M  V30 21339 H 1925.73 3.23049 -0.284567 0
M  V30 21340 H 1925.52 3.33893 -2.05567 0
M  V30 21341 H 1927.01 3.97071 -1.29324 0
M  V30 21342 N 1927.44 1.27542 0.925789 0
M  V30 21343 C 1928.69 1.13992 1.67368 0
M  V30 21344 C 1929.02 -0.313872 1.91951 0
M  V30 21345 O 1928.27 -1.24583 1.50923 0
M  V30 21346 C 1928.57 1.87088 3.04521 0
M  V30 21347 C 1928.24 3.36936 2.99641 0
M  V30 21348 C 1926.9 3.77808 2.98018 0
M  V30 21349 C 1929.25 4.32541 2.90789 0
M  V30 21350 C 1926.58 5.12646 2.85327 0
M  V30 21351 C 1928.93 5.67437 2.79639 0
M  V30 21352 C 1927.6 6.076 2.76366 0
M  V30 21353 H 1926.87 0.417126 0.612444 0
M  V30 21354 H 1929.51 1.58173 1.07952 0
M  V30 21355 H 1927.82 1.35421 3.67653 0
M  V30 21356 H 1929.51 1.7403 3.61268 0
M  V30 21357 H 1926.1 3.04433 3.01693 0
M  V30 21358 H 1930.29 4.01935 2.91139 0
M  V30 21359 H 1925.54 5.42906 2.81181 0
M  V30 21360 H 1929.72 6.41188 2.71755 0
M  V30 21361 H 1927.35 7.12035 2.66289 0
M  V30 21362 N 1928.92 -1.13255 1.09595 0
M  V30 21363 C 1930.34 -1.36563 0.825994 0
M  V30 21364 C 1930.54 -1.93595 -0.558844 0
M  V30 21365 O 1929.59 -2.15654 -1.31338 0
M  V30 21366 C 1930.91 -2.31535 1.91864 0
M  V30 21367 C 1932.45 -2.45147 1.94607 0
M  V30 21368 C 1932.93 -3.43427 3.03021 0
M  V30 21369 N 1934.42 -3.50979 3.02271 0
M  V30 21370 C 1935.15 -4.2691 3.82799 0
M  V30 21371 N 1934.65 -5.05981 4.73239 0
M  V30 21372 N 1936.44 -4.22229 3.71051 0
M  V30 21373 H 1928.59 -0.745889 1.98872 0
M  V30 21374 H 1930.86 -0.390727 0.863734 0
M  V30 21375 H 1930.56 -1.96788 2.91492 0
M  V30 21376 H 1930.44 -3.3157 1.79837 0
M  V30 21377 H 1932.82 -2.7918 0.956178 0
M  V30 21378 H 1932.91 -1.45031 2.10712 0
M  V30 21379 H 1932.55 -3.10126 4.02225 0
M  V30 21380 H 1932.48 -4.43352 2.84159 0
M  V30 21381 H 1934.97 -2.94562 2.36731 0
M  V30 21382 H 1935.28 -5.61231 5.31262 0
M  V30 21383 H 1933.63 -5.05208 4.77274 0
M  V30 21384 H 1936.82 -3.59534 2.99755 0
M  V30 21385 H 1936.99 -4.81152 4.34047 0
M  V30 21386 N 1930.4 -0.883401 -1.30514 0
M  V30 21387 C 1931.64 -0.507734 -1.97993 0
M  V30 21388 C 1932 0.925497 -1.68222 0
M  V30 21389 O 1933.2 1.40721 -2.29022 0
M  V30 21390 C 1931.47 -0.773081 -3.48939 0
M  V30 21391 S 1933.03 -0.499281 -4.3595 0
M  V30 21392 H 1929.85 -0.188981 -0.685425 0
M  V30 21393 H 1932.45 -1.14233 -1.58654 0
M  V30 21394 H 1931.16 -1.81472 -3.68098 0
M  V30 21395 H 1930.69 -0.125985 -3.93198 0
M  V30 21396 H 1932.7 0.662772 -4.91754 0
M  V30 21397 N 1931.88 1.43833 -0.644194 0
M  V30 21398 C 1933.12 2.01914 -0.153927 0
M  V30 21399 C 1933.45 1.50758 1.22891 0
M  V30 21400 O 1932.71 0.687354 1.83232 0
M  V30 21401 C 1933.01 3.57249 -0.103941 0
M  V30 21402 C 1932.67 4.27713 -1.42731 0
M  V30 21403 C 1931.33 4.46679 -1.78972 0
M  V30 21404 C 1933.69 4.67695 -2.30024 0
M  V30 21405 C 1931.01 5.0289 -3.0219 0
M  V30 21406 C 1933.37 5.2527 -3.52525 0
M  V30 21407 C 1932.03 5.42453 -3.88974 0
M  V30 21408 H 1931.3 0.738856 -0.0563257 0
M  V30 21409 H 1933.95 1.72428 -0.833108 0
M  V30 21410 H 1932.25 3.86224 0.65866 0
M  V30 21411 H 1933.95 3.99935 0.292124 0
M  V30 21412 H 1930.54 4.1329 -1.1353 0
M  V30 21413 H 1934.72 4.52743 -2.03317 0
M  V30 21414 H 1929.98 5.14379 -3.3049 0
M  V30 21415 H 1934.15 5.55198 -4.2039 0
M  V30 21416 H 1931.78 5.85775 -4.84532 0
M  V30 21417 N 1933.35 0.385544 1.52811 0
M  V30 21418 C 1934.58 -0.197738 2.05652 0
M  V30 21419 C 1934.99 -1.41373 1.2574 0
M  V30 21420 O 1934.34 -1.81297 0.296184 0
M  V30 21421 C 1934.4 -0.636031 3.53829 0
M  V30 21422 C 1934.06 0.465981 4.54618 0
M  V30 21423 C 1935.06 1.3222 5.02806 0
M  V30 21424 C 1932.74 0.631936 4.98309 0
M  V30 21425 C 1934.74 2.32954 5.93305 0
M  V30 21426 C 1932.42 1.64261 5.8861 0
M  V30 21427 C 1933.42 2.48983 6.36 0
M  V30 21428 O 1933.11 3.48324 7.24518 0
M  V30 21429 H 1932.84 -0.0343646 0.675126 0
M  V30 21430 H 1935.4 0.548149 1.97951 0
M  V30 21431 H 1933.63 -1.43384 3.59135 0
M  V30 21432 H 1935.32 -1.14456 3.89429 0
M  V30 21433 H 1936.08 1.20528 4.69785 0
M  V30 21434 H 1931.96 -0.0177815 4.60997 0
M  V30 21435 H 1935.5 2.99118 6.30218 0
M  V30 21436 H 1931.4 1.75993 6.21045 0
M  V30 21437 H 1932.17 3.44288 7.42569 0
M  V30 21438 N 1934.83 -1.57178 0.115259 0
M  V30 21439 C 1936.08 -1.95066 -0.543645 0
M  V30 21440 C 1936.41 -0.998318 -1.66925 0
M  V30 21441 O 1935.66 -0.0215177 -1.95688 0
M  V30 21442 C 1935.96 -3.39391 -1.12019 0
M  V30 21443 C 1935.63 -4.5075 -0.116323 0
M  V30 21444 C 1934.29 -4.80935 0.159725 0
M  V30 21445 C 1936.64 -5.18096 0.568016 0
M  V30 21446 C 1933.97 -5.75784 1.12646 0
M  V30 21447 C 1936.32 -6.13984 1.52336 0
M  V30 21448 C 1934.99 -6.42564 1.80743 0
M  V30 21449 H 1934.26 -0.713797 -0.198934 0
M  V30 21450 H 1936.9 -1.90501 0.195371 0
M  V30 21451 H 1935.21 -3.40633 -1.93589 0
M  V30 21452 H 1936.9 -3.66018 -1.63805 0
M  V30 21453 H 1933.49 -4.27236 -0.341664 0
M  V30 21454 H 1937.68 -4.94934 0.367913 0
M  V30 21455 H 1932.93 -5.96234 1.35334 0
M  V30 21456 H 1937.11 -6.65255 2.05933 0
M  V30 21457 H 1934.74 -7.15867 2.55808 0
M  V30 21458 N 1936.31 0.158505 -1.56801 0
M  V30 21459 C 1937.54 0.888272 -1.86862 0
M  V30 21460 C 1937.95 1.75258 -0.702142 0
M  V30 21461 O 1937.31 1.7952 0.328431 0
M  V30 21462 C 1937.36 1.75448 -3.1607 0
M  V30 21463 O 1937.08 0.925019 -4.28223 0
M  V30 21464 C 1938.58 2.59282 -3.59566 0
M  V30 21465 H 1935.8 0.257429 -0.619654 0
M  V30 21466 H 1938.35 0.154749 -2.03914 0
M  V30 21467 H 1936.5 2.4412 -3.00806 0
M  V30 21468 H 1936.92 1.51863 -5.02034 0
M  V30 21469 H 1938.39 3.15655 -4.52842 0
M  V30 21470 H 1938.87 3.3477 -2.84299 0
M  V30 21471 H 1939.47 1.95921 -3.77485 0
M  V30 21472 N 1937.79 1.51692 0.427485 0
M  V30 21473 C 1939.04 1.64079 1.17308 0
M  V30 21474 C 1939.35 0.367695 1.92113 0
M  V30 21475 O 1940.56 0.371083 2.68952 0
M  V30 21476 C 1939.01 2.89812 2.13394 0
M  V30 21477 C 1938.62 4.24161 1.44191 0
M  V30 21478 C 1940.37 3.11559 2.88325 0
M  V30 21479 C 1938.27 5.41036 2.38819 0
M  V30 21480 H 1937.2 0.611162 0.441584 0
M  V30 21481 H 1939.85 1.78167 0.439193 0
M  V30 21482 H 1938.24 2.6938 2.90259 0
M  V30 21483 H 1939.41 4.5501 0.72817 0
M  V30 21484 H 1937.72 4.08371 0.813739 0
M  V30 21485 H 1940.32 3.96051 3.59232 0
M  V30 21486 H 1940.66 2.25037 3.50234 0
M  V30 21487 H 1941.2 3.32376 2.18565 0
M  V30 21488 H 1937.94 6.29847 1.81585 0
M  V30 21489 H 1937.46 5.1455 3.08218 0
M  V30 21490 H 1939.14 5.73381 2.9974 0
M  V30 21491 N 1939.27 -0.683564 1.42004 0
M  V30 21492 C 1940.23 -1.77907 1.44505 0
M  V30 21493 C 1941.23 -1.57295 0.333889 0
M  V30 21494 O 1942.42 -1.63748 0.594323 0
M  V30 21495 C 1939.55 -3.16434 1.26815 0
M  V30 21496 H 1940.75 -1.7708 2.42039 0
M  V30 21497 H 1938.3 -0.892355 1.28323 0
M  V30 21498 H 1939.03 -3.22894 0.301695 0
M  V30 21499 H 1938.82 -3.32798 2.07335 0
M  V30 21500 H 1940.31 -3.96379 1.31428 0
M  V30 21501 N 1940.75 -1.28031 -0.919012 0
M  V30 21502 C 1941.99 -1.16057 -1.6704 0
M  V30 21503 C 1942.35 0.289001 -1.90217 0
M  V30 21504 O 1941.64 1.20742 -1.48768 0
M  V30 21505 C 1941.83 -1.887 -3.03524 0
M  V30 21506 C 1941.66 -3.40573 -2.93667 0
M  V30 21507 C 1940.43 -4.09905 -2.95476 0
M  V30 21508 C 1942.63 -4.36404 -2.72132 0
M  V30 21509 N 1940.61 -5.48283 -2.76151 0
M  V30 21510 C 1941.98 -5.62109 -2.61598 0
M  V30 21511 C 1944.04 -4.26392 -2.57087 0
M  V30 21512 C 1942.74 -6.78941 -2.37554 0
M  V30 21513 C 1944.77 -5.42955 -2.34422 0
M  V30 21514 C 1944.13 -6.67621 -2.24638 0
M  V30 21515 H 1940.23 -0.479594 -0.617668 0
M  V30 21516 H 1942.81 -1.61613 -1.08578 0
M  V30 21517 H 1940.98 -1.45587 -3.60082 0
M  V30 21518 H 1942.72 -1.69157 -3.67652 0
M  V30 21519 H 1939.47 -3.61442 -3.06033 0
M  V30 21520 H 1939.89 -6.21005 -2.69595 0
M  V30 21521 H 1944.54 -3.30722 -2.63406 0
M  V30 21522 H 1942.25 -7.74685 -2.29975 0
M  V30 21523 H 1945.84 -5.37094 -2.23653 0
M  V30 21524 H 1944.72 -7.56294 -2.07338 0
M  V30 21525 N 1942.22 1.12672 -1.10194 0
M  V30 21526 C 1943.17 2.20403 -0.743323 0
M  V30 21527 C 1944.17 1.67402 0.259382 0
M  V30 21528 O 1945.37 1.79599 0.120012 0
M  V30 21529 H 1941.75 0.718351 -0.22243 0
M  V30 21530 H 1943.72 2.47907 -1.66087 0
M  V30 21531 C 1942.47 3.47188 -0.188629 0
M  V30 21532 H 1941.79 3.88315 -0.951411 0
M  V30 21533 H 1943.23 4.23993 0.0242649 0
M  V30 21534 C 1941.69 3.19186 1.07806 0
M  V30 21535 O 1942.22 3.38684 2.16 0
M  V30 21536 N 1940.42 2.73009 0.995705 0
M  V30 21537 H 1939.97 2.57342 0.115168 0
M  V30 21538 H 1939.93 2.54649 1.84394 0
M  V30 21539 N 1943.7 0.89031 1.30043 0
M  V30 21540 C 1944.95 0.507478 1.95212 0
M  V30 21541 C 1945.26 -0.949179 1.71026 0
M  V30 21542 O 1946.47 -1.4391 2.30222 0
M  V30 21543 C 1944.93 0.856657 3.49556 0
M  V30 21544 C 1944.53 2.33145 3.82554 0
M  V30 21545 C 1946.28 0.543281 4.21009 0
M  V30 21546 C 1944.18 2.62198 5.301 0
M  V30 21547 H 1943.11 0.186056 0.730684 0
M  V30 21548 H 1945.77 1.08602 1.47912 0
M  V30 21549 H 1944.15 0.207146 3.95458 0
M  V30 21550 H 1945.32 3.02572 3.47544 0
M  V30 21551 H 1943.64 2.61289 3.24217 0
M  V30 21552 H 1946.23 0.737312 5.29592 0
M  V30 21553 H 1946.58 -0.517644 4.13069 0
M  V30 21554 H 1947.11 1.15022 3.80808 0
M  V30 21555 H 1943.85 3.67052 5.43096 0
M  V30 21556 H 1943.37 1.97385 5.66392 0
M  V30 21557 H 1945.05 2.47975 5.97593 0
M  V30 21558 N 1945.18 -1.43489 0.651812 0
M  V30 21559 C 1946.43 -2.0183 0.164632 0
M  V30 21560 C 1946.75 -1.51408 -1.2209 0
M  V30 21561 O 1946.01 -0.697062 -1.82865 0
M  V30 21562 C 1946.31 -3.57189 0.122885 0
M  V30 21563 C 1945.97 -4.2695 1.44997 0
M  V30 21564 C 1944.64 -4.45724 1.81339 0
M  V30 21565 C 1946.99 -4.66468 2.32501 0
M  V30 21566 C 1944.32 -5.0128 3.04853 0
M  V30 21567 C 1946.67 -5.23393 3.55306 0
M  V30 21568 C 1945.33 -5.40383 3.91845 0
M  V30 21569 H 1944.6 -0.738547 0.0602433 0
M  V30 21570 H 1947.25 -1.71984 0.842241 0
M  V30 21571 H 1945.55 -3.86568 -0.638169 0
M  V30 21572 H 1947.25 -4.00084 -0.270911 0
M  V30 21573 H 1943.84 -4.12682 1.15721 0
M  V30 21574 H 1948.03 -4.51658 2.05715 0
M  V30 21575 H 1943.28 -5.1262 3.33213 0
M  V30 21576 H 1947.46 -5.52961 4.23329 0
M  V30 21577 H 1945.08 -5.83197 4.87632 0
M  V30 21578 N 1946.66 -0.393643 -1.52605 0
M  V30 21579 C 1947.93 0.244939 -1.9406 0
M  V30 21580 C 1948.31 1.63981 -1.32942 0
M  V30 21581 O 1947.66 2.2298 -0.499195 0
M  V30 21582 C 1947.87 0.266912 -3.47978 0
M  V30 21583 C 1949.22 0.493768 -4.21719 0
M  V30 21584 O 1950.24 0.346936 -3.54506 0
M  V30 21585 O 1949.1 0.78183 -5.40879 0
M  V30 21586 H 1946.2 0.153387 -0.812651 0
M  V30 21587 H 1948.74 -0.448465 -1.63667 0
M  V30 21588 H 1947.52 -0.709958 -3.84806 0
M  V30 21589 H 1947.14 1.00506 -3.84687 0
M  V30 21590 N 1948.14 1.57115 -0.123593 0
M  V30 21591 C 1949.38 1.95352 0.533292 0
M  V30 21592 C 1949.71 1.00716 1.66393 0
M  V30 21593 O 1948.97 0.0318953 1.95674 0
M  V30 21594 C 1949.26 3.39981 1.10218 0
M  V30 21595 C 1948.93 4.50805 0.0924171 0
M  V30 21596 C 1947.59 4.80843 -0.185228 0
M  V30 21597 C 1949.94 5.17787 -0.595483 0
M  V30 21598 C 1947.27 5.75179 -1.15698 0
M  V30 21599 C 1949.62 6.13168 -1.5559 0
M  V30 21600 C 1948.29 6.41596 -1.84148 0
M  V30 21601 H 1947.56 0.714842 0.195146 0
M  V30 21602 H 1950.21 1.90395 -0.205471 0
M  V30 21603 H 1948.51 3.41654 1.9178 0
M  V30 21604 H 1950.21 3.66881 1.61862 0
M  V30 21605 H 1946.8 4.27411 0.319001 0
M  V30 21606 H 1950.98 4.94732 -0.394155 0
M  V30 21607 H 1946.24 5.95508 -1.38494 0
M  V30 21608 H 1950.41 6.64154 -2.09458 0
M  V30 21609 H 1948.04 7.14501 -2.59601 0
M  V30 21610 N 1949.61 -0.150187 1.56883 0
M  V30 21611 C 1950.55 -1.21495 1.93169 0
M  V30 21612 C 1951.52 -1.41721 0.797116 0
M  V30 21613 O 1952.71 -1.56385 1.05243 0
M  V30 21614 C 1949.84 -2.5744 2.20096 0
M  V30 21615 C 1948.88 -2.53828 3.42744 0
M  V30 21616 S 1949.71 -2.00835 4.96413 0
M  V30 21617 C 1950.87 -3.38515 5.26458 0
M  V30 21618 H 1951.1 -0.905357 2.83179 0
M  V30 21619 H 1948.64 -0.355666 1.50248 0
M  V30 21620 H 1950.59 -3.35675 2.3629 0
M  V30 21621 H 1949.26 -2.85591 1.30755 0
M  V30 21622 H 1948.45 -3.53894 3.58852 0
M  V30 21623 H 1948.05 -1.837 3.25776 0
M  V30 21624 H 1950.34 -4.34611 5.19731 0
M  V30 21625 H 1951.29 -3.27263 6.27937 0
M  V30 21626 H 1951.69 -3.35503 4.5398 0
M  V30 21627 N 1951.09 -1.51916 -0.419434 0
M  V30 21628 C 1952.34 -1.65714 -1.16905 0
M  V30 21629 C 1952.67 -0.380888 -1.90428 0
M  V30 21630 O 1951.95 0.620297 -1.84344 0
M  V30 21631 C 1952.23 -2.87239 -2.17177 0
M  V30 21632 C 1952.08 -4.24887 -1.47619 0
M  V30 21633 C 1953.4 -3.04281 -3.17964 0
M  V30 21634 H 1950.52 -0.603072 -0.423643 0
M  V30 21635 H 1953.16 -1.84446 -0.456035 0
M  V30 21636 H 1951.31 -2.71398 -2.77984 0
M  V30 21637 H 1952.98 -4.52433 -0.900112 0
M  V30 21638 H 1951.23 -4.26761 -0.778273 0
M  V30 21639 H 1951.9 -5.05945 -2.20733 0
M  V30 21640 H 1954.37 -3.18951 -2.67226 0
M  V30 21641 H 1953.25 -3.90843 -3.85399 0
M  V30 21642 H 1953.51 -2.17138 -3.85102 0
M  V30 21643 N 1952.57 0.676023 -1.42365 0
M  V30 21644 C 1953.82 1.43821 -1.4298 0
M  V30 21645 C 1954.15 1.94147 -0.0455702 0
M  V30 21646 O 1953.42 1.70826 0.929976 0
M  V30 21647 C 1953.71 2.63612 -2.45318 0
M  V30 21648 C 1953.56 2.18926 -3.92927 0
M  V30 21649 C 1954.88 3.65827 -2.4466 0
M  V30 21650 H 1952 0.521622 -0.520653 0
M  V30 21651 H 1954.64 0.76837 -1.7377 0
M  V30 21652 H 1952.79 3.2076 -2.19193 0
M  V30 21653 H 1954.46 1.66955 -4.30028 0
M  V30 21654 H 1952.71 1.50512 -4.06852 0
M  V30 21655 H 1953.38 3.04965 -4.60109 0
M  V30 21656 H 1955.85 3.18393 -2.6789 0
M  V30 21657 H 1954.73 4.47226 -3.18245 0
M  V30 21658 H 1954.99 4.1687 -1.47213 0
M  V30 21659 N 1954.05 1.28517 0.912209 0
M  V30 21660 C 1955.3 1.15138 1.65609 0
M  V30 21661 C 1955.61 -0.299022 1.93301 0
M  V30 21662 O 1956.82 -0.55395 2.65789 0
M  V30 21663 C 1955.27 2.01287 2.98348 0
M  V30 21664 C 1954.88 3.51076 2.78297 0
M  V30 21665 C 1956.62 1.96599 3.7623 0
M  V30 21666 C 1954.53 4.29371 4.06687 0
M  V30 21667 H 1953.46 0.42731 0.621226 0
M  V30 21668 H 1956.11 1.5306 1.01217 0
M  V30 21669 H 1954.49 1.56222 3.63883 0
M  V30 21670 H 1955.67 4.04109 2.21434 0
M  V30 21671 H 1953.98 3.57306 2.13826 0
M  V30 21672 H 1956.58 2.52362 4.71399 0
M  V30 21673 H 1956.92 0.943087 4.05477 0
M  V30 21674 H 1957.46 2.39641 3.17517 0
M  V30 21675 H 1954.2 5.32248 3.82612 0
M  V30 21676 H 1953.72 3.81112 4.63156 0
M  V30 21677 H 1955.39 4.39372 4.74933 0
M  V30 21678 N 1955.53 -1.12086 1.1079 0
M  V30 21679 C 1956.77 -1.83677 0.852585 0
M  V30 21680 C 1957.1 -1.84292 -0.621829 0
M  V30 21681 O 1956.36 -1.28655 -1.47466 0
M  V30 21682 C 1956.66 -3.3089 1.35079 0
M  V30 21683 C 1956.32 -3.50443 2.83726 0
M  V30 21684 C 1954.98 -3.55487 3.24318 0
M  V30 21685 C 1957.34 -3.57254 3.79498 0
M  V30 21686 C 1954.66 -3.64891 4.59425 0
M  V30 21687 C 1957.02 -3.68189 5.14412 0
M  V30 21688 C 1955.68 -3.71491 5.54573 0
M  V30 21689 H 1954.95 -0.672122 0.311983 0
M  V30 21690 H 1957.6 -1.32236 1.38513 0
M  V30 21691 H 1955.9 -3.8478 0.738335 0
M  V30 21692 H 1957.6 -3.84759 1.12967 0
M  V30 21693 H 1954.19 -3.47182 2.51322 0
M  V30 21694 H 1958.37 -3.52624 3.49242 0
M  V30 21695 H 1953.63 -3.65721 4.89957 0
M  V30 21696 H 1957.8 -3.72402 5.88464 0
M  V30 21697 H 1955.43 -3.7853 6.59256 0
M  V30 21698 N 1957 -0.897194 -1.29569 0
M  V30 21699 C 1958.23 -0.536465 -2.00342 0
M  V30 21700 C 1958.65 0.87088 -1.66725 0
M  V30 21701 O 1958.01 1.57924 -0.890492 0
M  V30 21702 C 1958.06 -0.732781 -3.53076 0
M  V30 21703 O 1957.16 0.215848 -4.11835 0
M  V30 21704 H 1956.51 -0.209904 -0.62995 0
M  V30 21705 H 1959.04 -1.20809 -1.65125 0
M  V30 21706 H 1959.05 -0.636468 -4.03005 0
M  V30 21707 H 1957.72 -1.75882 -3.7688 0
M  V30 21708 H 1956.3 0.0722012 -3.7283 0
M  V30 21709 N 1958.48 1.43142 -0.659413 0
M  V30 21710 C 1959.73 2.0096 -0.172631 0
M  V30 21711 C 1960.04 1.52669 1.22277 0
M  V30 21712 O 1961.25 2.02802 1.8051 0
M  V30 21713 C 1959.71 3.58975 -0.257802 0
M  V30 21714 C 1959.31 4.16259 -1.65628 0
M  V30 21715 C 1961.06 4.24155 0.171057 0
M  V30 21716 C 1958.97 5.66588 -1.69505 0
M  V30 21717 H 1957.9 0.751547 -0.0607765 0
M  V30 21718 H 1960.55 1.64042 -0.822352 0
M  V30 21719 H 1958.93 3.93325 0.459538 0
M  V30 21720 H 1960.1 3.93398 -2.39947 0
M  V30 21721 H 1958.42 3.63473 -2.03165 0
M  V30 21722 H 1961.01 5.34454 0.162026 0
M  V30 21723 H 1961.36 3.98521 1.2036 0
M  V30 21724 H 1961.89 3.94711 -0.494745 0
M  V30 21725 H 1958.63 5.96998 -2.7069 0
M  V30 21726 H 1958.15 5.91486 -0.995201 0
M  V30 21727 H 1959.83 6.30736 -1.44156 0
M  V30 21728 N 1959.96 0.40173 1.52394 0
M  V30 21729 C 1961.19 -0.17617 2.06149 0
M  V30 21730 C 1961.6 -1.39481 1.27242 0
M  V30 21731 O 1960.96 -1.79631 0.322321 0
M  V30 21732 C 1961.01 -0.533965 3.57535 0
M  V30 21733 O 1960.73 0.63627 4.33455 0
M  V30 21734 C 1962.23 -1.16639 4.2768 0
M  V30 21735 H 1959.45 -0.0236483 0.670583 0
M  V30 21736 H 1962 0.570549 1.9638 0
M  V30 21737 H 1960.15 -1.23058 3.67336 0
M  V30 21738 H 1960.57 0.339373 5.23401 0
M  V30 21739 H 1962.04 -1.36701 5.34805 0
M  V30 21740 H 1962.52 -2.13737 3.83684 0
M  V30 21741 H 1963.12 -0.510194 4.22229 0
M  V30 21742 N 1961.44 -1.57047 0.131923 0
M  V30 21743 C 1962.69 -1.95245 -0.521892 0
M  V30 21744 C 1963.01 -1.01692 -1.66385 0
M  V30 21745 O 1962.28 -0.0756026 -1.95754 0
M  V30 21746 H 1960.86 -0.720886 -0.195786 0
M  V30 21747 H 1963.52 -1.93831 0.203893 0
M  V30 21748 H 1962.62 -2.986 -0.907979 0
M  V30 21749 N 1962.92 0.141865 -1.5696 0
M  V30 21750 C 1963.85 1.17667 -2.01685 0
M  V30 21751 C 1964.83 1.44509 -0.897282 0
M  V30 21752 O 1966.01 1.55342 -1.16544 0
M  V30 21753 C 1963.14 2.50859 -2.40182 0
M  V30 21754 C 1962.1 2.38527 -3.55371 0
M  V30 21755 C 1961.42 3.76476 -3.79697 0
M  V30 21756 C 1962.72 1.86502 -4.87867 0
M  V30 21757 H 1964.42 0.804761 -2.88382 0
M  V30 21758 H 1961.96 0.385672 -1.38739 0
M  V30 21759 H 1963.92 3.2348 -2.70071 0
M  V30 21760 H 1962.64 2.89895 -1.50428 0
M  V30 21761 H 1961.3 1.68357 -3.25656 0
M  V30 21762 H 1960.95 4.12957 -2.87186 0
M  V30 21763 H 1960.65 3.69085 -4.5722 0
M  V30 21764 H 1962.17 4.50638 -4.12017 0
M  V30 21765 H 1963.58 2.48921 -5.16441 0
M  V30 21766 H 1961.98 1.89989 -5.69231 0
M  V30 21767 H 1963.05 0.821025 -4.77899 0
M  V30 21768 N 1964.39 1.52136 0.411372 0
M  V30 21769 C 1965.63 1.6776 1.16773 0
M  V30 21770 C 1966 0.397829 1.87833 0
M  V30 21771 O 1967.2 0.430144 2.65336 0
M  V30 21772 C 1965.47 2.86438 2.13748 0
M  V30 21773 S 1967.03 3.22532 2.9752 0
M  V30 21774 H 1963.85 0.590767 0.395621 0
M  V30 21775 H 1966.45 1.90123 0.455363 0
M  V30 21776 H 1965.15 3.7783 1.60226 0
M  V30 21777 H 1964.68 2.66342 2.89526 0
M  V30 21778 H 1966.7 2.7098 4.15673 0
M  V30 21779 N 1965.87 -0.668464 1.42721 0
M  V30 21780 C 1966.8 -1.79375 1.49489 0
M  V30 21781 C 1967.78 -1.66442 0.350881 0
M  V30 21782 O 1968.97 -1.85767 0.566049 0
M  V30 21783 C 1966.1 -3.17712 1.40273 0
M  V30 21784 C 1965.05 -3.45389 2.52766 0
M  V30 21785 C 1964.38 -4.83367 2.28606 0
M  V30 21786 C 1965.68 -3.4165 3.95061 0
M  V30 21787 H 1967.37 -1.73968 2.43671 0
M  V30 21788 H 1964.92 -0.835548 1.1728 0
M  V30 21789 H 1966.87 -3.96173 1.43614 0
M  V30 21790 H 1965.6 -3.23811 0.425882 0
M  V30 21791 H 1964.26 -2.69292 2.48752 0
M  V30 21792 H 1963.9 -4.86124 1.292 0
M  V30 21793 H 1963.6 -5.02847 3.04005 0
M  V30 21794 H 1965.13 -5.64104 2.33707 0
M  V30 21795 H 1966.54 -4.1007 4.00644 0
M  V30 21796 H 1964.94 -3.72666 4.70362 0
M  V30 21797 H 1966.01 -2.40106 4.2128 0
M  V30 21798 N 1967.35 -1.28999 -0.905381 0
M  V30 21799 C 1968.76 -1.15033 -1.47052 0
M  V30 21800 C 1969.11 0.256623 -1.94514 0
M  V30 21801 O 1968.24 1.15164 -1.83211 0
M  V30 21802 C 1968.83 -2.08213 -2.67269 0
M  V30 21803 C 1967.39 -1.98286 -3.19937 0
M  V30 21804 C 1966.54 -1.99468 -1.92634 0
M  V30 21805 H 1969.49 -1.41566 -0.717271 0
M  V30 21806 H 1969.51 -1.65102 -3.42814 0
M  V30 21807 H 1969.02 -3.10604 -2.32695 0
M  V30 21808 H 1967.12 -0.98963 -3.59217 0
M  V30 21809 H 1967.24 -2.85666 -3.84619 0
M  V30 21810 H 1965.6 -1.43988 -2.10094 0
M  V30 21811 H 1966.38 -3.03554 -1.60344 0
M  V30 21812 N 1968.83 1.11497 -1.11383 0
M  V30 21813 C 1969.76 2.16696 -0.715422 0
M  V30 21814 C 1970.74 1.60028 0.288088 0
M  V30 21815 O 1971.92 1.87593 0.184653 0
M  V30 21816 C 1969.05 3.38652 -0.0571822 0
M  V30 21817 C 1968.1 4.13982 -1.02574 0
M  V30 21818 S 1968.93 4.70998 -2.54796 0
M  V30 21819 C 1970.09 5.96278 -1.90271 0
M  V30 21820 H 1970.32 2.50155 -1.60654 0
M  V30 21821 H 1967.85 1.23113 -0.931804 0
M  V30 21822 H 1969.81 4.0928 0.316249 0
M  V30 21823 H 1968.47 3.03453 0.810878 0
M  V30 21824 H 1967.66 5.01386 -0.512606 0
M  V30 21825 H 1967.27 3.4911 -1.34157 0
M  V30 21826 H 1969.56 6.66078 -1.2388 0
M  V30 21827 H 1970.5 6.52235 -2.75671 0
M  V30 21828 H 1970.91 5.47795 -1.36312 0
M  V30 21829 N 1970.31 0.904053 1.29092 0
M  V30 21830 C 1971.54 0.547758 1.99517 0
M  V30 21831 C 1971.95 -0.868589 1.67633 0
M  V30 21832 O 1971.31 -1.57394 0.923758 0
M  V30 21833 C 1971.36 0.735683 3.53935 0
M  V30 21834 O 1971.08 2.09629 3.84691 0
M  V30 21835 C 1972.58 0.38492 4.41626 0
M  V30 21836 H 1969.8 0.209762 0.63737 0
M  V30 21837 H 1972.34 1.2146 1.64523 0
M  V30 21838 H 1970.5 0.11597 3.87226 0
M  V30 21839 H 1970.91 2.12883 4.79355 0
M  V30 21840 H 1972.39 0.567226 5.49078 0
M  V30 21841 H 1972.86 -0.678298 4.33931 0
M  V30 21842 H 1973.47 0.981759 4.13813 0
M  V30 21843 N 1971.79 -1.4279 0.666995 0
M  V30 21844 C 1973.03 -2.01942 0.186305 0
M  V30 21845 C 1973.36 -1.52579 -1.20139 0
M  V30 21846 O 1972.64 -0.724677 -1.80496 0
M  V30 21847 C 1972.92 -3.59474 0.212322 0
M  V30 21848 C 1972.78 -4.19035 1.63491 0
M  V30 21849 C 1974.09 -4.37857 -0.443762 0
M  V30 21850 H 1971.21 -0.733747 0.0691733 0
M  V30 21851 H 1973.86 -1.69912 0.850298 0
M  V30 21852 H 1972.01 -3.86892 -0.353062 0
M  V30 21853 H 1973.68 -4.02598 2.25195 0
M  V30 21854 H 1971.92 -3.75161 2.178 0
M  V30 21855 H 1972.59 -5.28155 1.60486 0
M  V30 21856 H 1975.07 -4.16083 0.0374331 0
M  V30 21857 H 1973.94 -5.47478 -0.394887 0
M  V30 21858 H 1974.2 -4.15144 -1.52012 0
M  V30 21859 N 1973.26 -0.409806 -1.52179 0
M  V30 21860 C 1974.51 0.16543 -2.01422 0
M  V30 21861 C 1974.83 1.45588 -1.29727 0
M  V30 21862 O 1974.1 1.9127 -0.423399 0
M  V30 21863 H 1972.68 0.0641237 -0.744243 0
M  V30 21864 H 1975.34 -0.546204 -1.8709 0
M  V30 21865 H 1974.44 0.361061 -3.10004 0
M  V30 21866 N 1974.74 1.56975 -0.14025 0
M  V30 21867 C 1975.97 2.00699 0.522938 0
M  V30 21868 C 1976.39 1.01964 1.58066 0
M  V30 21869 O 1975.75 -0.0056107 1.81299 0
M  V30 21870 C 1975.8 3.43203 1.10653 0
M  V30 21871 O 1974.9 3.47447 2.22159 0
M  V30 21872 H 1974.24 0.65143 0.12859 0
M  V30 21873 H 1976.77 2.03246 -0.234993 0
M  V30 21874 H 1976.78 3.81862 1.43686 0
M  V30 21875 H 1975.46 4.14573 0.331913 0
M  V30 21876 H 1974.03 3.20625 1.90405 0
M  V30 21877 N 1976.22 -0.133539 1.57033 0
M  V30 21878 C 1977.45 -0.857187 1.87978 0
M  V30 21879 C 1977.86 -1.74634 0.72799 0
M  V30 21880 O 1977.2 -1.81051 -0.310857 0
M  V30 21881 C 1977.26 -1.75448 3.13781 0
M  V30 21882 C 1976.93 -1.04112 4.44983 0
M  V30 21883 C 1977.92 -0.388703 5.18445 0
M  V30 21884 C 1975.61 -1.02662 4.91697 0
M  V30 21885 C 1977.6 0.268682 6.36833 0
M  V30 21886 C 1975.29 -0.365432 6.10006 0
M  V30 21887 C 1976.29 0.28108 6.82421 0
M  V30 21888 O 1975.98 0.931754 7.98482 0
M  V30 21889 H 1975.71 -0.252521 0.627064 0
M  V30 21890 H 1978.26 -0.126928 2.05007 0
M  V30 21891 H 1976.49 -2.52602 2.92796 0
M  V30 21892 H 1978.18 -2.35126 3.30863 0
M  V30 21893 H 1978.95 -0.391622 4.83416 0
M  V30 21894 H 1974.83 -1.51926 4.35246 0
M  V30 21895 H 1978.37 0.773893 6.93294 0
M  V30 21896 H 1974.27 -0.360226 6.44494 0
M  V30 21897 H 1975.03 0.834769 8.14232 0
M  V30 21898 N 1977.7 -1.52352 -0.403298 0
M  V30 21899 C 1978.63 -1.79074 -1.49849 0
M  V30 21900 C 1979.61 -0.642006 -1.57519 0
M  V30 21901 O 1980.79 -0.888182 -1.72699 0
M  V30 21902 C 1977.92 -1.9467 -2.87612 0
M  V30 21903 C 1976.88 -3.10295 -2.9479 0
M  V30 21904 C 1976.2 -3.11122 -4.34864 0
M  V30 21905 C 1977.5 -4.49643 -2.65741 0
M  V30 21906 H 1979.2 -2.70783 -1.27737 0
M  V30 21907 H 1976.74 -1.30298 -0.613064 0
M  V30 21908 H 1978.7 -2.11947 -3.64221 0
M  V30 21909 H 1977.42 -0.996377 -3.1103 0
M  V30 21910 H 1976.08 -2.92778 -2.20627 0
M  V30 21911 H 1975.73 -2.13801 -4.553 0
M  V30 21912 H 1975.43 -3.88786 -4.4059 0
M  V30 21913 H 1976.95 -3.30536 -5.13399 0
M  V30 21914 H 1978.37 -4.67335 -3.3207 0
M  V30 21915 H 1976.76 -5.29268 -2.82835 0
M  V30 21916 H 1977.83 -4.57339 -1.61149 0
M  V30 21917 N 1979.18 0.660885 -1.43074 0
M  V30 21918 C 1980.42 1.42296 -1.44498 0
M  V30 21919 C 1980.75 1.94087 -0.0661594 0
M  V30 21920 O 1980.03 1.71803 0.911806 0
M  V30 21921 C 1980.31 2.60995 -2.481 0
M  V30 21922 C 1980.17 2.14746 -3.95227 0
M  V30 21923 C 1981.48 3.63212 -2.48526 0
M  V30 21924 H 1978.6 0.516071 -0.526156 0
M  V30 21925 H 1981.25 0.749896 -1.74575 0
M  V30 21926 H 1979.4 3.18417 -2.22583 0
M  V30 21927 H 1981.07 1.62384 -4.31774 0
M  V30 21928 H 1979.31 1.46188 -4.08426 0
M  V30 21929 H 1979.98 3.00068 -4.63318 0
M  V30 21930 H 1982.46 3.15534 -2.71251 0
M  V30 21931 H 1981.33 4.43825 -3.22971 0
M  V30 21932 H 1981.59 4.15285 -1.51626 0
M  V30 21933 N 1980.65 1.29477 0.898527 0
M  V30 21934 C 1982.07 1.15811 1.4644 0
M  V30 21935 C 1982.42 -0.246304 1.94648 0
M  V30 21936 O 1981.54 -1.1419 1.83819 0
M  V30 21937 C 1982.14 2.09627 2.66161 0
M  V30 21938 C 1980.7 1.9998 3.18881 0
M  V30 21939 C 1979.84 2.00487 1.91573 0
M  V30 21940 H 1982.79 1.41944 0.709754 0
M  V30 21941 H 1982.81 1.66918 3.41934 0
M  V30 21942 H 1982.33 3.11834 2.31044 0
M  V30 21943 H 1980.43 1.00867 3.58687 0
M  V30 21944 H 1980.54 2.87701 3.83099 0
M  V30 21945 H 1978.9 1.451 2.09327 0
M  V30 21946 H 1979.69 3.044 1.58731 0
M  V30 21947 N 1982.13 -1.10905 1.11972 0
M  V30 21948 C 1983.54 -1.64274 0.887191 0
M  V30 21949 C 1983.89 -1.87448 -0.57946 0
M  V30 21950 O 1983.02 -1.61283 -1.4428 0
M  V30 21951 C 1983.61 -2.98425 1.604 0
M  V30 21952 C 1982.17 -3.48679 1.41774 0
M  V30 21953 C 1981.32 -2.2338 1.64307 0
M  V30 21954 H 1984.27 -0.944703 1.27519 0
M  V30 21955 H 1984.29 -3.65662 1.05222 0
M  V30 21956 H 1983.8 -2.81526 2.67142 0
M  V30 21957 H 1981.91 -3.70732 0.372672 0
M  V30 21958 H 1982.02 -4.2711 2.17058 0
M  V30 21959 H 1980.38 -2.31281 1.06683 0
M  V30 21960 H 1981.17 -2.09018 2.72335 0
M  V30 21961 N 1983.61 -0.910886 -1.2861 0
M  V30 21962 C 1984.84 -0.557684 -1.99761 0
M  V30 21963 C 1985.26 0.853148 -1.67639 0
M  V30 21964 O 1984.62 1.5697 -0.907192 0
M  V30 21965 C 1984.67 -0.770188 -3.52279 0
M  V30 21966 O 1983.77 0.172155 -4.12041 0
M  V30 21967 H 1983.11 -0.216573 -0.627688 0
M  V30 21968 H 1985.64 -1.22554 -1.63834 0
M  V30 21969 H 1985.65 -0.679176 -4.02307 0
M  V30 21970 H 1984.33 -1.79869 -3.74993 0
M  V30 21971 H 1982.9 0.0326535 -3.72886 0
M  V30 21972 N 1985.09 1.42434 -0.674558 0
M  V30 21973 C 1986.02 2.33498 -0.0100395 0
M  V30 21974 C 1987 1.50665 0.789558 0
M  V30 21975 O 1988.18 1.79268 0.74676 0
M  V30 21976 C 1985.31 3.34279 0.942081 0
M  V30 21977 C 1984.27 4.27263 0.251094 0
M  V30 21978 C 1983.59 5.18249 1.31614 0
M  V30 21979 C 1984.89 5.15008 -0.869735 0
M  V30 21980 H 1986.59 2.89314 -0.770566 0
M  V30 21981 H 1984.13 1.39112 -0.372004 0
M  V30 21982 H 1986.09 3.96896 1.41604 0
M  V30 21983 H 1984.81 2.76765 1.73403 0
M  V30 21984 H 1983.47 3.6604 -0.202625 0
M  V30 21985 H 1983.12 4.57063 2.10006 0
M  V30 21986 H 1982.82 5.81288 0.858923 0
M  V30 21987 H 1984.34 5.83742 1.79103 0
M  V30 21988 H 1985.76 5.71312 -0.477004 0
M  V30 21989 H 1984.15 5.86879 -1.25273 0
M  V30 21990 H 1985.22 4.53422 -1.71861 0
M  V30 21991 N 1986.57 0.417871 1.51959 0
M  V30 21992 C 1987.81 -0.155282 2.02205 0
M  V30 21993 C 1988.15 -1.44044 1.3025 0
M  V30 21994 O 1987.42 -1.90098 0.411449 0
M  V30 21995 C 1987.7 -0.394038 3.57938 0
M  V30 21996 C 1987.56 0.908404 4.40532 0
M  V30 21997 C 1988.88 -1.17238 4.24197 0
M  V30 21998 H 1985.99 -0.0549616 0.734948 0
M  V30 21999 H 1988.64 0.553053 1.81773 0
M  V30 22000 H 1986.79 -0.997422 3.75478 0
M  V30 22001 H 1988.46 1.54427 4.34684 0
M  V30 22002 H 1986.7 1.51743 4.06395 0
M  V30 22003 H 1987.37 0.69563 5.47599 0
M  V30 22004 H 1989.85 -0.661461 4.10809 0
M  V30 22005 H 1988.72 -1.30818 5.33083 0
M  V30 22006 H 1988.99 -2.19534 3.83741 0
M  V30 22007 N 1988.04 -1.56898 0.148573 0
M  V30 22008 C 1988.98 -2.13971 -0.821526 0
M  V30 22009 C 1989.99 -1.08955 -1.20965 0
M  V30 22010 O 1991.18 -1.36226 -1.15346 0
M  V30 22011 C 1988.28 -2.6488 -2.11404 0
M  V30 22012 C 1987.45 -3.94313 -1.89303 0
M  V30 22013 C 1986.51 -4.30517 -3.02558 0
M  V30 22014 O 1985.54 -4.98812 -2.74181 0
M  V30 22015 N 1986.74 -3.90226 -4.29772 0
M  V30 22016 H 1989.5 -2.97836 -0.333735 0
M  V30 22017 H 1987.06 -1.61862 -0.0349479 0
M  V30 22018 H 1989.06 -2.86112 -2.8622 0
M  V30 22019 H 1987.63 -1.85731 -2.51441 0
M  V30 22020 H 1986.85 -3.81692 -0.985147 0
M  V30 22021 H 1988.13 -4.7889 -1.71877 0
M  V30 22022 H 1987.53 -3.352 -4.55694 0
M  V30 22023 H 1986.09 -4.16506 -5.01364 0
M  V30 22024 N 1989.52 0.125209 -1.57102 0
M  V30 22025 C 1990.45 1.15521 -2.02922 0
M  V30 22026 C 1991.43 1.43549 -0.912559 0
M  V30 22027 O 1992.62 1.54097 -1.18185 0
M  V30 22028 C 1989.75 2.48297 -2.42829 0
M  V30 22029 C 1988.7 2.34744 -3.57881 0
M  V30 22030 C 1988.03 3.72427 -3.83669 0
M  V30 22031 C 1989.33 1.81317 -4.89818 0
M  V30 22032 H 1991.02 0.774129 -2.89219 0
M  V30 22033 H 1988.57 0.370935 -1.3914 0
M  V30 22034 H 1990.52 3.20597 -2.73487 0
M  V30 22035 H 1989.25 2.88283 -1.53495 0
M  V30 22036 H 1987.9 1.64893 -3.27423 0
M  V30 22037 H 1987.55 4.09887 -2.9155 0
M  V30 22038 H 1987.25 3.64215 -4.61109 0
M  V30 22039 H 1988.78 4.46242 -4.16773 0
M  V30 22040 H 1990.19 2.43429 -5.19052 0
M  V30 22041 H 1988.59 1.83941 -5.71214 0
M  V30 22042 H 1989.66 0.770291 -4.78743 0
M  V30 22043 N 1991 1.52564 0.395213 0
M  V30 22044 C 1992.25 1.6653 1.13801 0
M  V30 22045 C 1992.56 0.408362 1.9129 0
M  V30 22046 O 1993.77 0.428049 2.68104 0
M  V30 22047 C 1992.22 2.94273 2.07199 0
M  V30 22048 C 1991.83 4.27125 1.35162 0
M  V30 22049 C 1993.58 3.17604 2.81652 0
M  V30 22050 C 1991.48 5.4598 2.27289 0
M  V30 22051 H 1990.41 0.620392 0.428521 0
M  V30 22052 H 1993.06 1.79058 0.401302 0
M  V30 22053 H 1991.45 2.75477 2.8448 0
M  V30 22054 H 1992.62 4.56452 0.631492 0
M  V30 22055 H 1990.94 4.10006 0.726934 0
M  V30 22056 H 1993.53 4.03582 3.5075 0
M  V30 22057 H 1993.88 2.32415 3.45382 0
M  V30 22058 H 1994.41 3.36938 2.11466 0
M  V30 22059 H 1991.15 6.33557 1.68184 0
M  V30 22060 H 1990.67 5.20972 2.97235 0
M  V30 22061 H 1992.35 5.79609 2.8751 0
M  V30 22062 N 1992.48 -0.653289 1.43422 0
M  V30 22063 C 1993.41 -1.77779 1.51383 0
M  V30 22064 C 1994.39 -1.6606 0.368515 0
M  V30 22065 O 1995.57 -1.85157 0.585721 0
M  V30 22066 C 1992.7 -3.16206 1.43635 0
M  V30 22067 C 1991.66 -3.42688 2.56415 0
M  V30 22068 C 1990.98 -4.80915 2.3372 0
M  V30 22069 C 1992.28 -3.3744 3.98662 0
M  V30 22070 H 1993.98 -1.71374 2.45502 0
M  V30 22071 H 1991.52 -0.823062 1.1816 0
M  V30 22072 H 1993.48 -3.94627 1.47808 0
M  V30 22073 H 1992.2 -3.23341 0.460202 0
M  V30 22074 H 1990.86 -2.66638 2.51594 0
M  V30 22075 H 1990.51 -4.84726 1.34349 0
M  V30 22076 H 1990.21 -4.99594 3.09321 0
M  V30 22077 H 1991.73 -5.61594 2.39677 0
M  V30 22078 H 1993.15 -4.05798 4.0497 0
M  V30 22079 H 1991.54 -3.67656 4.74288 0
M  V30 22080 H 1992.61 -2.35624 4.23803 0
M  V30 22081 N 1993.96 -1.29952 -0.891648 0
M  V30 22082 C 1994.89 -1.18331 -2.01296 0
M  V30 22083 C 1995.87 -0.0755571 -1.69932 0
M  V30 22084 O 1997.05 -0.256435 -1.92499 0
M  V30 22085 C 1994.18 -0.867421 -3.36293 0
M  V30 22086 C 1993.14 -1.93237 -3.81894 0
M  V30 22087 C 1992.46 -1.46962 -5.14107 0
M  V30 22088 C 1993.76 -3.34246 -4.01344 0
M  V30 22089 H 1995.46 -2.12138 -2.11276 0
M  V30 22090 H 1993 -1.02132 -1.01514 0
M  V30 22091 H 1994.96 -0.772806 -4.14253 0
M  V30 22092 H 1993.68 0.106342 -3.26427 0
M  V30 22093 H 1992.34 -2.01651 -3.06157 0
M  V30 22094 H 1991.99 -0.484311 -5.00663 0
M  V30 22095 H 1991.69 -2.1819 -5.45589 0
M  V30 22096 H 1993.21 -1.38866 -5.94599 0
M  V30 22097 H 1994.62 -3.28629 -4.69762 0
M  V30 22098 H 1993.02 -4.03502 -4.44192 0
M  V30 22099 H 1994.09 -3.76629 -3.05415 0
M  V30 22100 N 1995.44 1.1031 -1.12559 0
M  V30 22101 C 1996.66 1.86618 -0.9049 0
M  V30 22102 C 1997.09 1.80164 0.540597 0
M  V30 22103 O 1996.44 1.17252 1.38281 0
M  V30 22104 C 1996.49 3.32903 -1.38592 0
M  V30 22105 O 1995.6 4.08508 -0.565225 0
M  V30 22106 H 1994.94 0.579019 -0.325013 0
M  V30 22107 H 1997.47 1.39359 -1.498 0
M  V30 22108 H 1997.48 3.83753 -1.38556 0
M  V30 22109 H 1996.15 3.36917 -2.43844 0
M  V30 22110 H 1994.73 3.67494 -0.632682 0
M  V30 22111 N 1996.91 0.917694 1.28125 0
M  V30 22112 C 1998.33 0.616431 1.47215 0
M  V30 22113 C 1998.53 -0.837161 1.83286 0
M  V30 22114 O 1997.59 -1.61591 1.94022 0
M  V30 22115 C 1998.9 1.55772 2.57207 0
M  V30 22116 C 2000.45 1.56486 2.71074 0
M  V30 22117 C 2000.92 2.49286 3.84214 0
M  V30 22118 N 2002.41 2.47436 3.91573 0
M  V30 22119 C 2003.15 3.15936 4.7851 0
M  V30 22120 N 2002.64 3.9378 5.70008 0
M  V30 22121 N 2004.44 3.05004 4.72154 0
M  V30 22122 H 1996.59 1.85758 1.02993 0
M  V30 22123 H 1998.85 0.796969 0.513366 0
M  V30 22124 H 1998.56 2.59423 2.37471 0
M  V30 22125 H 1998.43 1.2918 3.5439 0
M  V30 22126 H 2000.82 0.535708 2.90197 0
M  V30 22127 H 2000.9 1.87122 1.7441 0
M  V30 22128 H 2000.54 3.52306 3.65846 0
M  V30 22129 H 2000.47 2.1595 4.80284 0
M  V30 22130 H 2002.96 1.90893 3.26141 0
M  V30 22131 H 2003.28 4.43058 6.33182 0
M  V30 22132 H 2001.62 3.97885 5.69836 0
M  V30 22133 H 2004.81 2.4369 3.99666 0
M  V30 22134 H 2004.99 3.5866 5.39691 0
M  V30 22135 N 1998.39 -1.42074 0.682102 0
M  V30 22136 C 1999.64 -2.0066 0.204581 0
M  V30 22137 C 1999.95 -1.54595 -1.19832 0
M  V30 22138 O 2001.16 -2.05648 -1.7726 0
M  V30 22139 C 1999.62 -3.5852 0.31488 0
M  V30 22140 C 1999.22 -4.13571 1.7223 0
M  V30 22141 C 2000.97 -4.24374 -0.103556 0
M  V30 22142 C 1998.87 -5.6382 1.78497 0
M  V30 22143 H 1997.8 -0.750485 0.0727253 0
M  V30 22144 H 2000.46 -1.62712 0.848346 0
M  V30 22145 H 1998.84 -3.94006 -0.396905 0
M  V30 22146 H 2000.01 -3.89531 2.46176 0
M  V30 22147 H 1998.33 -3.60195 2.08922 0
M  V30 22148 H 2000.92 -5.34645 -0.0769789 0
M  V30 22149 H 2001.27 -4.00385 -1.14005 0
M  V30 22150 H 2001.8 -3.93874 0.557477 0
M  V30 22151 H 1998.54 -5.92616 2.80154 0
M  V30 22152 H 1998.06 -5.89828 1.08918 0
M  V30 22153 H 1999.74 -6.28363 1.54172 0
M  V30 22154 N 1999.87 -0.425924 -1.51735 0
M  V30 22155 C 2001.12 0.145784 -2.01172 0
M  V30 22156 C 2001.43 1.4478 -1.31523 0
M  V30 22157 O 2002.64 2.10177 -1.71866 0
M  V30 22158 C 2001.09 0.310355 -3.58559 0
M  V30 22159 C 2000.7 -0.98055 -4.37138 0
M  V30 22160 C 2002.45 0.836447 -4.16178 0
M  V30 22161 C 2000.35 -0.782247 -5.86204 0
M  V30 22162 H 1999.28 0.0582569 -0.751746 0
M  V30 22163 H 2001.93 -0.553941 -1.74939 0
M  V30 22164 H 2000.32 1.07281 -3.81191 0
M  V30 22165 H 2001.49 -1.75046 -4.26258 0
M  V30 22166 H 1999.8 -1.43431 -3.90917 0
M  V30 22167 H 2002.4 1.00112 -5.25244 0
M  V30 22168 H 2002.74 1.81579 -3.74613 0
M  V30 22169 H 2003.28 0.132605 -3.97579 0
M  V30 22170 H 2000.02 -1.73363 -6.32159 0
M  V30 22171 H 1999.54 -0.0519371 -5.99778 0
M  V30 22172 H 2001.22 -0.430966 -6.45563 0
M  V30 22173 N 2001.35 1.56817 -0.156891 0
M  V30 22174 C 2002.3 2.1384 0.790976 0
M  V30 22175 C 2003.28 1.0688 1.20272 0
M  V30 22176 O 2004.47 1.33036 1.16749 0
M  V30 22177 C 2001.6 2.77136 2.0261 0
M  V30 22178 C 2000.69 3.91233 1.637 0
M  V30 22179 N 2001.08 4.96671 0.956661 0
M  V30 22180 C 1999.38 4.02125 1.92903 0
M  V30 22181 C 2000.08 5.76618 0.767257 0
M  V30 22182 N 1999.05 5.27723 1.30421 0
M  V30 22183 H 2002.86 2.92729 0.262059 0
M  V30 22184 H 2000.37 1.6234 0.0443045 0
M  V30 22185 H 2002.37 3.16355 2.71523 0
M  V30 22186 H 2001.03 1.99723 2.5601 0
M  V30 22187 H 2002.04 5.1422 0.61631 0
M  V30 22188 H 1998.72 3.35799 2.48083 0
M  V30 22189 H 2000.11 6.71505 0.230312 0
M  V30 22190 N 2002.83 -0.116876 1.57166 0
M  V30 22191 C 2003.76 -1.1737 1.95702 0
M  V30 22192 C 2004.74 -1.39998 0.826998 0
M  V30 22193 O 2005.92 -1.54117 1.08536 0
M  V30 22194 C 2003.05 -2.52714 2.25507 0
M  V30 22195 C 2002.09 -2.465 3.48051 0
M  V30 22196 S 2002.93 -1.9026 5.00561 0
M  V30 22197 C 2004.08 -3.27272 5.3352 0
M  V30 22198 H 2004.32 -0.845087 2.85036 0
M  V30 22199 H 2001.85 -0.323716 1.50968 0
M  V30 22200 H 2003.81 -3.30587 2.43357 0
M  V30 22201 H 2002.47 -2.82753 1.36783 0
M  V30 22202 H 2001.66 -3.46202 3.66278 0
M  V30 22203 H 2001.26 -1.76749 3.29599 0
M  V30 22204 H 2003.55 -4.23489 5.28832 0
M  V30 22205 H 2004.5 -3.1387 6.34737 0
M  V30 22206 H 2004.91 -3.25798 4.60994 0
M  V30 22207 N 2004.3 -1.52772 -0.387116 0
M  V30 22208 C 2005.23 -1.80654 -1.47941 0
M  V30 22209 C 2006.21 -0.658677 -1.56829 0
M  V30 22210 O 2007.4 -0.906449 -1.71747 0
M  V30 22211 C 2004.53 -1.97709 -2.85532 0
M  V30 22212 C 2003.48 -3.13404 -2.91482 0
M  V30 22213 C 2002.81 -3.15717 -4.3154 0
M  V30 22214 C 2004.11 -4.52437 -2.60957 0
M  V30 22215 H 2005.8 -2.72123 -1.24858 0
M  V30 22216 H 2003.35 -1.30941 -0.59921 0
M  V30 22217 H 2005.3 -2.15798 -3.61952 0
M  V30 22218 H 2004.03 -1.02931 -3.09956 0
M  V30 22219 H 2002.69 -2.95102 -2.1751 0
M  V30 22220 H 2002.33 -2.18618 -4.53007 0
M  V30 22221 H 2002.03 -3.93437 -4.36441 0
M  V30 22222 H 2003.56 -3.35963 -5.09864 0
M  V30 22223 H 2004.97 -4.70831 -3.27095 0
M  V30 22224 H 2003.37 -5.32238 -2.77205 0
M  V30 22225 H 2004.44 -4.59022 -1.5629 0
M  V30 22226 N 2005.78 0.645673 -1.43767 0
M  V30 22227 C 2007.2 0.962209 -1.27333 0
M  V30 22228 C 2007.4 2.0052 -0.198519 0
M  V30 22229 O 2006.45 2.48974 0.420512 0
M  V30 22230 C 2007.77 1.4393 -2.64016 0
M  V30 22231 C 2009.31 1.55555 -2.71609 0
M  V30 22232 C 2009.79 2.06652 -4.08728 0
M  V30 22233 N 2011.28 2.13944 -4.10831 0
M  V30 22234 C 2012.02 2.54619 -5.13767 0
M  V30 22235 N 2011.51 2.94536 -6.27073 0
M  V30 22236 N 2013.3 2.54625 -5.01121 0
M  V30 22237 H 2005.46 -0.0443554 -2.12354 0
M  V30 22238 H 2007.72 0.042755 -0.947035 0
M  V30 22239 H 2007.42 0.747304 -3.43669 0
M  V30 22240 H 2007.3 2.41297 -2.89923 0
M  V30 22241 H 2009.69 2.23854 -1.92285 0
M  V30 22242 H 2009.77 0.566006 -2.49459 0
M  V30 22243 H 2009.41 1.38952 -4.88523 0
M  V30 22244 H 2009.34 3.06451 -4.28247 0
M  V30 22245 H 2011.83 1.85838 -3.29048 0
M  V30 22246 H 2012.14 3.24345 -7.01442 0
M  V30 22247 H 2010.49 2.92323 -6.30533 0
M  V30 22248 H 2013.68 2.22822 -4.11665 0
M  V30 22249 H 2013.85 2.86002 -5.81469 0
M  V30 22250 N 2007.26 1.30423 0.884744 0
M  V30 22251 C 2008.19 1.19397 2.00666 0
M  V30 22252 C 2009.17 0.084568 1.6989 0
M  V30 22253 O 2010.36 0.266641 1.92361 0
M  V30 22254 C 2007.49 0.885244 3.35828 0
M  V30 22255 C 2006.44 1.9526 3.80864 0
M  V30 22256 C 2005.77 1.49687 5.13321 0
M  V30 22257 C 2007.07 3.3637 3.99566 0
M  V30 22258 H 2008.76 2.13256 2.10148 0
M  V30 22259 H 2006.31 1.02669 1.00971 0
M  V30 22260 H 2008.26 0.794764 4.13837 0
M  V30 22261 H 2006.98 -0.0890295 3.26479 0
M  V30 22262 H 2005.64 2.03272 3.05084 0
M  V30 22263 H 2005.29 0.510855 5.00399 0
M  V30 22264 H 2004.99 2.2108 5.44424 0
M  V30 22265 H 2006.51 1.42018 5.93855 0
M  V30 22266 H 2007.93 3.31115 4.68012 0
M  V30 22267 H 2006.32 4.05852 4.42046 0
M  V30 22268 H 2007.39 3.78244 3.03414 0
M  V30 22269 N 2008.74 -1.09711 1.13142 0
M  V30 22270 C 2009.99 -1.81468 0.889593 0
M  V30 22271 C 2010.31 -1.85988 -0.585956 0
M  V30 22272 O 2009.58 -1.34332 -1.42589 0
M  V30 22273 H 2008.16 -0.67205 0.326125 0
M  V30 22274 H 2010.82 -1.32709 1.42739 0
M  V30 22275 H 2009.91 -2.84746 1.27773 0
M  V30 22276 N 2010.22 -0.924476 -1.27637 0
M  V30 22277 C 2011.16 -0.41967 -2.26952 0
M  V30 22278 C 2012.13 0.511683 -1.58022 0
M  V30 22279 O 2013.32 0.431544 -1.85856 0
M  V30 22280 C 2010.46 0.324433 -3.43572 0
M  V30 22281 C 2009.57 -0.640659 -4.27223 0
M  V30 22282 C 2008.71 0.122963 -5.31058 0
M  V30 22283 C 2007.75 -0.835045 -6.06377 0
M  V30 22284 N 2006.88 -0.104257 -7.02023 0
M  V30 22285 H 2011.72 -1.27159 -2.69508 0
M  V30 22286 H 2009.26 -0.63831 -1.32529 0
M  V30 22287 H 2011.22 0.772141 -4.09992 0
M  V30 22288 H 2009.85 1.14062 -3.01976 0
M  V30 22289 H 2008.9 -1.2069 -3.60747 0
M  V30 22290 H 2010.21 -1.37295 -4.79533 0
M  V30 22291 H 2009.37 0.630738 -6.03412 0
M  V30 22292 H 2008.1 0.888238 -4.79543 0
M  V30 22293 H 2007.11 -1.3541 -5.32864 0
M  V30 22294 H 2008.33 -1.60005 -6.59981 0
M  V30 22295 H 2006.28 0.642832 -6.52843 0
M  V30 22296 H 2006.2 -0.776174 -7.52005 0
M  V30 22297 H 2007.47 0.382972 -7.78559 0
M  V30 22298 N 2011.69 1.41711 -0.689627 0
M  V30 22299 C 2012.94 2.00925 -0.217655 0
M  V30 22300 C 2013.26 1.5487 1.18491 0
M  V30 22301 O 2012.53 0.776746 1.79843 0
M  V30 22302 H 2011.11 0.742971 -0.0774783 0
M  V30 22303 H 2013.78 1.73421 -0.889456 0
M  V30 22304 H 2012.87 3.11248 -0.230451 0
M  V30 22305 N 2013.17 0.433965 1.51507 0
M  V30 22306 C 2014.58 -0.0299408 1.86676 0
M  V30 22307 C 2014.93 -1.42245 1.35132 0
M  V30 22308 O 2014.06 -2.0474 0.700735 0
M  V30 22309 C 2014.65 -0.0611079 3.38745 0
M  V30 22310 C 2013.21 -0.469416 3.73461 0
M  V30 22311 C 2012.36 0.340116 2.75206 0
M  V30 22312 H 2015.31 0.649958 1.4478 0
M  V30 22313 H 2015.33 -0.871298 3.7039 0
M  V30 22314 H 2014.84 0.952511 3.7623 0
M  V30 22315 H 2012.95 -1.48876 3.41565 0
M  V30 22316 H 2013.06 -0.196556 4.78697 0
M  V30 22317 H 2011.42 -0.201099 2.53905 0
M  V30 22318 H 2012.21 1.35255 3.15533 0
M  V30 22319 N 2014.65 -1.56732 0.165206 0
M  V30 22320 C 2015.6 -2.17666 -0.767471 0
M  V30 22321 C 2016.57 -1.11485 -1.23127 0
M  V30 22322 O 2017.75 -1.39609 -1.30054 0
M  V30 22323 C 2014.89 -2.81673 -1.99385 0
M  V30 22324 C 2014.01 -4.02298 -1.57418 0
M  V30 22325 C 2013.14 -4.54249 -2.75375 0
M  V30 22326 C 2012.18 -5.67298 -2.29869 0
M  V30 22327 N 2011.32 -6.13786 -3.40898 0
M  V30 22328 H 2016.16 -2.97023 -0.24106 0
M  V30 22329 H 2013.69 -1.46708 -0.10726 0
M  V30 22330 H 2015.65 -3.16937 -2.71306 0
M  V30 22331 H 2014.28 -2.0493 -2.49407 0
M  V30 22332 H 2013.33 -3.72894 -0.75194 0
M  V30 22333 H 2014.65 -4.84148 -1.2001 0
M  V30 22334 H 2013.8 -4.91663 -3.55461 0
M  V30 22335 H 2012.54 -3.71444 -3.16039 0
M  V30 22336 H 2011.54 -5.29442 -1.48228 0
M  V30 22337 H 2012.77 -6.519 -1.9027 0
M  V30 22338 H 2010.71 -5.33911 -3.81149 0
M  V30 22339 H 2010.63 -6.90609 -3.07563 0
M  V30 22340 H 2011.9 -6.55849 -4.21287 0
M  V30 22341 N 2016.13 0.10854 -1.57226 0
M  V30 22342 C 2017.37 0.815673 -1.85673 0
M  V30 22343 C 2017.71 1.79031 -0.752441 0
M  V30 22344 O 2016.98 1.93004 0.240811 0
M  V30 22345 C 2017.27 1.55633 -3.24731 0
M  V30 22346 C 2017.12 0.600595 -4.45772 0
M  V30 22347 C 2018.44 2.51009 -3.61501 0
M  V30 22348 H 2015.56 0.295076 -0.675351 0
M  V30 22349 H 2018.2 0.079634 -1.89833 0
M  V30 22350 H 2016.35 2.18377 -3.21316 0
M  V30 22351 H 2018.02 -0.0187984 -4.61296 0
M  V30 22352 H 2016.26 -0.0870799 -4.33713 0
M  V30 22353 H 2016.93 1.15569 -5.39766 0
M  V30 22354 H 2019.41 1.98365 -3.65774 0
M  V30 22355 H 2018.29 2.99857 -4.59758 0
M  V30 22356 H 2018.55 3.34154 -2.89472 0
M  V30 22357 N 2017.61 1.52975 0.379009 0
M  V30 22358 C 2018.85 1.68505 1.12304 0
M  V30 22359 C 2019.18 0.430012 1.89687 0
M  V30 22360 O 2018.44 -0.587809 1.86664 0
M  V30 22361 C 2018.74 2.8776 2.11964 0
M  V30 22362 C 2018.4 4.24806 1.51163 0
M  V30 22363 C 2017.06 4.62077 1.34308 0
M  V30 22364 C 2019.42 5.10087 1.07053 0
M  V30 22365 C 2016.74 5.82277 0.719058 0
M  V30 22366 C 2019.1 6.30921 0.460559 0
M  V30 22367 C 2017.76 6.66915 0.279391 0
M  V30 22368 H 2017.03 0.616604 0.41095 0
M  V30 22369 H 2019.68 1.87137 0.406443 0
M  V30 22370 H 2017.98 2.63586 2.89879 0
M  V30 22371 H 2019.68 2.96971 2.69461 0
M  V30 22372 H 2016.27 3.95453 1.65272 0
M  V30 22373 H 2020.45 4.81854 1.18872 0
M  V30 22374 H 2015.71 6.08765 0.566983 0
M  V30 22375 H 2019.88 6.96312 0.110504 0
M  V30 22376 H 2017.51 7.5992 -0.206228 0
M  V30 22377 N 2019.08 -0.63804 1.44107 0
M  V30 22378 C 2020.03 -1.74386 1.46879 0
M  V30 22379 C 2021.02 -1.57366 0.335387 0
M  V30 22380 O 2022.21 -1.6722 0.580223 0
M  V30 22381 C 2019.34 -3.13044 1.40919 0
M  V30 22382 C 2018.43 -3.35559 2.59347 0
M  V30 22383 N 2018.82 -3.28473 3.84628 0
M  V30 22384 C 2017.11 -3.66332 2.54395 0
M  V30 22385 C 2017.82 -3.51487 4.635 0
M  V30 22386 N 2016.79 -3.74029 3.94465 0
M  V30 22387 H 2020.59 -1.67355 2.41598 0
M  V30 22388 H 2018.11 -0.840261 1.38973 0
M  V30 22389 H 2020.1 -3.92337 1.40988 0
M  V30 22390 H 2018.76 -3.21246 0.472328 0
M  V30 22391 H 2019.78 -3.07545 4.16697 0
M  V30 22392 H 2016.45 -3.81557 1.69471 0
M  V30 22393 H 2017.84 -3.51659 5.72526 0
M  V30 22394 N 2020.56 -1.3089 -0.877815 0
M  V30 22395 C 2021.51 -1.17796 -2.00566 0
M  V30 22396 C 2022.5 -0.0881167 -1.69171 0
M  V30 22397 O 2023.71 -0.249467 -1.78263 0
M  V30 22398 H 2020.09 -0.364508 -0.657752 0
M  V30 22399 H 2022.06 -2.13234 -2.08743 0
M  V30 22400 C 2020.81 -0.894005 -3.3601 0
M  V30 22401 H 2020.13 -1.72472 -3.60684 0
M  V30 22402 H 2021.57 -0.842526 -4.15545 0
M  V30 22403 C 2020.03 0.403175 -3.34479 0
M  V30 22404 O 2020.56 1.42245 -3.75672 0
M  V30 22405 N 2018.76 0.416903 -2.87594 0
M  V30 22406 H 2018.31 -0.413049 -2.54267 0
M  V30 22407 H 2018.27 1.28475 -2.86952 0
M  V30 22408 N 2022.04 1.0911 -1.13723 0
M  V30 22409 C 2022.97 2.17859 -0.840227 0
M  V30 22410 C 2023.95 1.68899 0.201778 0
M  V30 22411 O 2025.14 1.94107 0.0600046 0
M  V30 22412 C 2022.27 3.45922 -0.309024 0
M  V30 22413 C 2021.22 4.08234 -1.28565 0
M  V30 22414 C 2020.55 5.31162 -0.614064 0
M  V30 22415 C 2021.85 4.50354 -2.64534 0
M  V30 22416 H 2023.54 2.4296 -1.74959 0
M  V30 22417 H 2021.09 1.16771 -0.842653 0
M  V30 22418 H 2023.04 4.21306 -0.088895 0
M  V30 22419 H 2021.76 3.20353 0.635735 0
M  V30 22420 H 2020.42 3.34873 -1.49183 0
M  V30 22421 H 2020.07 5.01875 0.336272 0
M  V30 22422 H 2019.77 5.73807 -1.26566 0
M  V30 22423 H 2021.29 6.09267 -0.403293 0
M  V30 22424 H 2022.71 5.16948 -2.47866 0
M  V30 22425 H 2021.11 5.03894 -3.259 0
M  V30 22426 H 2022.18 3.62594 -3.21952 0
M  V30 22427 N 2023.52 0.931232 1.27145 0
M  V30 22428 C 2024.45 0.377419 2.25057 0
M  V30 22429 C 2025.43 -0.528197 1.53782 0
M  V30 22430 O 2026.61 -0.467903 1.826 0
M  V30 22431 C 2023.74 -0.4587 3.3558 0
M  V30 22432 C 2022.79 0.383982 4.24768 0
M  V30 22433 S 2023.62 1.80173 5.0428 0
M  V30 22434 C 2024.78 0.973395 6.18285 0
M  V30 22435 H 2025.01 1.20726 2.71685 0
M  V30 22436 H 2022.54 0.733657 1.35856 0
M  V30 22437 H 2024.5 -0.935236 3.99704 0
M  V30 22438 H 2023.16 -1.2631 2.87584 0
M  V30 22439 H 2022.35 -0.256158 5.03349 0
M  V30 22440 H 2021.96 0.794824 3.65457 0
M  V30 22441 H 2024.25 0.211028 6.77171 0
M  V30 22442 H 2025.19 1.73233 6.86583 0
M  V30 22443 H 2025.6 0.513847 5.62156 0
M  V30 22444 N 2025 -1.41343 0.697132 0
M  V30 22445 C 2025.93 -2.33452 0.0471857 0
M  V30 22446 C 2026.91 -1.51902 -0.765488 0
M  V30 22447 O 2028.09 -1.80434 -0.718146 0
M  V30 22448 C 2025.22 -3.35735 -0.888781 0
M  V30 22449 C 2024.18 -4.27608 -0.183088 0
M  V30 22450 C 2023.5 -5.20277 -1.23352 0
M  V30 22451 C 2024.8 -5.13559 0.951558 0
M  V30 22452 H 2026.5 -2.88052 0.816496 0
M  V30 22453 H 2024.04 -1.38502 0.394089 0
M  V30 22454 H 2026 -3.99098 -1.35272 0
M  V30 22455 H 2024.72 -2.79489 -1.68977 0
M  V30 22456 H 2023.38 -3.65671 0.260833 0
M  V30 22457 H 2023.03 -4.60346 -2.02708 0
M  V30 22458 H 2022.73 -5.82581 -0.766336 0
M  V30 22459 H 2024.25 -5.86517 -1.69793 0
M  V30 22460 H 2025.67 -5.70481 0.567835 0
M  V30 22461 H 2024.06 -5.84812 1.34593 0
M  V30 22462 H 2025.13 -4.50631 1.79053 0
M  V30 22463 N 2026.48 -0.441993 -1.51275 0
M  V30 22464 C 2027.89 0.0200405 -1.86689 0
M  V30 22465 C 2028.24 1.41527 -1.35885 0
M  V30 22466 O 2027.36 2.04366 -0.711583 0
M  V30 22467 C 2027.96 0.0431426 -3.38773 0
M  V30 22468 C 2026.52 0.449604 -3.73705 0
M  V30 22469 C 2025.66 -0.354706 -2.75022 0
M  V30 22470 H 2028.61 -0.657627 -1.44433 0
M  V30 22471 H 2028.64 0.851643 -3.70847 0
M  V30 22472 H 2028.15 -0.97245 -3.75719 0
M  V30 22473 H 2026.25 1.47063 -3.4235 0
M  V30 22474 H 2026.36 0.171167 -4.78794 0
M  V30 22475 H 2024.73 0.187631 -2.54008 0
M  V30 22476 H 2025.51 -1.36926 -3.14811 0
M  V30 22477 N 2027.95 1.56642 -0.173515 0
M  V30 22478 C 2028.88 2.21076 0.751509 0
M  V30 22479 C 2029.86 1.16706 1.23749 0
M  V30 22480 O 2031.05 1.45142 1.29025 0
M  V30 22481 C 2028.18 2.85323 1.9801 0
M  V30 22482 C 2027.13 3.95751 1.62989 0
M  V30 22483 C 2026.46 4.47058 2.93332 0
M  V30 22484 C 2027.76 5.15234 0.856231 0
M  V30 22485 H 2029.45 2.98631 0.21442 0
M  V30 22486 H 2027 1.4364 0.101692 0
M  V30 22487 H 2028.95 3.29075 2.63226 0
M  V30 22488 H 2027.68 2.0514 2.54136 0
M  V30 22489 H 2026.34 3.52658 1.00141 0
M  V30 22490 H 2025.98 3.63663 3.47503 0
M  V30 22491 H 2025.68 5.21556 2.70652 0
M  V30 22492 H 2027.21 4.93497 3.59573 0
M  V30 22493 H 2028.62 5.55665 1.41102 0
M  V30 22494 H 2027.02 5.95663 0.728389 0
M  V30 22495 H 2028.09 4.84677 -0.147009 0
M  V30 22496 N 2029.43 -0.1002 1.57281 0
M  V30 22497 C 2030.36 -1.15288 1.96936 0
M  V30 22498 C 2031.34 -1.39113 0.8418 0
M  V30 22499 O 2032.53 -1.52958 1.10165 0
M  V30 22500 C 2029.65 -2.50308 2.28175 0
M  V30 22501 C 2028.7 -2.42795 3.50646 0
M  V30 22502 S 2029.53 -1.8494 5.02551 0
M  V30 22503 C 2030.69 -3.21595 5.36962 0
M  V30 22504 H 2030.92 -0.814808 2.85916 0
M  V30 22505 H 2028.45 -0.307686 1.51303 0
M  V30 22506 H 2030.41 -3.27987 2.46849 0
M  V30 22507 H 2029.07 -2.81286 1.39775 0
M  V30 22508 H 2028.27 -3.42298 3.6993 0
M  V30 22509 H 2027.87 -1.73243 3.31456 0
M  V30 22510 H 2030.16 -4.17856 5.33294 0
M  V30 22511 H 2031.1 -3.0712 6.38031 0
M  V30 22512 H 2031.51 -3.2089 4.64424 0
M  V30 22513 N 2030.91 -1.53174 -0.370891 0
M  V30 22514 C 2031.84 -1.82213 -1.46017 0
M  V30 22515 C 2032.82 -0.675274 -1.56122 0
M  V30 22516 O 2034.01 -0.924614 -1.70776 0
M  V30 22517 C 2031.14 -2.00727 -2.83419 0
M  V30 22518 C 2030.09 -3.16478 -2.88141 0
M  V30 22519 C 2029.42 -3.20276 -4.28167 0
M  V30 22520 C 2030.72 -4.55179 -2.56143 0
M  V30 22521 H 2032.41 -2.73432 -1.21965 0
M  V30 22522 H 2029.96 -1.31569 -0.585288 0
M  V30 22523 H 2031.91 -2.19625 -3.59643 0
M  V30 22524 H 2030.63 -1.06213 -3.08847 0
M  V30 22525 H 2029.29 -2.97392 -2.14367 0
M  V30 22526 H 2028.94 -2.2341 -4.50663 0
M  V30 22527 H 2028.64 -3.98044 -4.32244 0
M  V30 22528 H 2030.16 -3.41352 -5.06272 0
M  V30 22529 H 2031.58 -4.74274 -3.22082 0
M  V30 22530 H 2029.97 -5.35148 -2.71544 0
M  V30 22531 H 2031.04 -4.60654 -1.51412 0
M  V30 22532 N 2032.39 0.630389 -1.44443 0
M  V30 22533 C 2033.61 1.42206 -1.50971 0
M  V30 22534 C 2034.04 1.87609 -0.135854 0
M  V30 22535 O 2033.4 1.58782 0.8751 0
M  V30 22536 C 2033.44 2.61801 -2.47977 0
M  V30 22537 O 2032.55 3.6166 -1.98181 0
M  V30 22538 H 2031.89 0.425475 -0.509771 0
M  V30 22539 H 2034.42 0.769359 -1.89584 0
M  V30 22540 H 2034.43 3.09335 -2.66037 0
M  V30 22541 H 2033.1 2.281 -3.47769 0
M  V30 22542 H 2031.68 3.2093 -1.89891 0
M  V30 22543 N 2033.87 1.31354 0.870861 0
M  V30 22544 C 2034.8 1.21518 1.99388 0
M  V30 22545 C 2035.78 0.102582 1.6979 0
M  V30 22546 O 2036.96 0.287028 1.92067 0
M  V30 22547 C 2034.09 0.920813 3.34871 0
M  V30 22548 C 2033.05 1.99289 3.78772 0
M  V30 22549 C 2032.37 1.55123 5.11704 0
M  V30 22550 C 2033.67 3.40589 3.95975 0
M  V30 22551 H 2035.37 2.15473 2.07875 0
M  V30 22552 H 2032.91 1.03734 0.998761 0
M  V30 22553 H 2034.86 0.838612 4.12971 0
M  V30 22554 H 2033.59 -0.0543971 3.26555 0
M  V30 22555 H 2032.25 2.06496 3.0291 0
M  V30 22556 H 2031.9 0.563901 4.99829 0
M  V30 22557 H 2031.6 2.26842 5.42048 0
M  V30 22558 H 2033.12 1.48308 5.92315 0
M  V30 22559 H 2034.53 3.36061 4.64474 0
M  V30 22560 H 2032.93 4.10517 4.37716 0
M  V30 22561 H 2034 3.8144 2.99385 0
M  V30 22562 N 2035.34 -1.08505 1.143 0
M  V30 22563 C 2036.75 -1.62355 0.921836 0
M  V30 22564 C 2037.11 -1.88635 -0.539569 0
M  V30 22565 O 2036.23 -1.64307 -1.40827 0
M  V30 22566 C 2036.83 -2.94955 1.66694 0
M  V30 22567 C 2035.38 -3.45593 1.49139 0
M  V30 22568 C 2034.53 -2.19845 1.69008 0
M  V30 22569 H 2037.48 -0.917442 1.29494 0
M  V30 22570 H 2037.5 -3.63348 1.12954 0
M  V30 22571 H 2037.02 -2.75796 2.73053 0
M  V30 22572 H 2035.12 -3.69858 0.451226 0
M  V30 22573 H 2035.23 -4.2241 2.26068 0
M  V30 22574 H 2033.59 -2.28966 1.11565 0
M  V30 22575 H 2034.38 -2.03194 2.76707 0
M  V30 22576 N 2036.82 -0.937962 -1.26649 0
M  V30 22577 C 2037.78 -0.449635 -2.24746 0
M  V30 22578 C 2038.78 0.437489 -1.54734 0
M  V30 22579 O 2039.97 0.237121 -1.72579 0
M  V30 22580 C 2037.11 0.35235 -3.39074 0
M  V30 22581 H 2038.3 -1.31648 -2.6946 0
M  V30 22582 H 2035.85 -0.71962 -1.38749 0
M  V30 22583 H 2036.59 1.23758 -2.99757 0
M  V30 22584 H 2036.37 -0.283853 -3.91071 0
M  V30 22585 H 2037.86 0.684038 -4.1196 0
M  V30 22586 N 2038.3 1.40971 -0.704618 0
M  V30 22587 C 2039.23 2.33424 -0.0595656 0
M  V30 22588 C 2040.21 1.52306 0.757422 0
M  V30 22589 O 2041.4 1.80812 0.708567 0
M  V30 22590 C 2038.53 3.36202 0.870964 0
M  V30 22591 C 2037.48 4.27699 0.160408 0
M  V30 22592 C 2036.81 5.20924 1.20591 0
M  V30 22593 C 2038.11 5.13047 -0.97878 0
M  V30 22594 H 2039.8 2.87615 -0.83176 0
M  V30 22595 H 2037.35 1.38292 -0.401428 0
M  V30 22596 H 2039.3 3.9981 1.33153 0
M  V30 22597 H 2038.02 2.80381 1.67493 0
M  V30 22598 H 2036.68 3.65527 -0.280222 0
M  V30 22599 H 2036.33 4.61414 2.00264 0
M  V30 22600 H 2036.03 5.8298 0.73543 0
M  V30 22601 H 2037.55 5.8741 1.6668 0
M  V30 22602 H 2038.97 5.70172 -0.598081 0
M  V30 22603 H 2037.36 5.8409 -1.37693 0
M  V30 22604 H 2038.43 4.49675 -1.8144 0
M  V30 22605 N 2039.78 0.45001 1.51039 0
M  V30 22606 C 2040.71 -0.345315 2.30933 0
M  V30 22607 C 2041.69 -1.00959 1.36899 0
M  V30 22608 O 2042.87 -1.0108 1.6582 0
M  V30 22609 C 2040 -1.43968 3.16055 0
M  V30 22610 C 2038.96 -0.898198 4.18469 0
M  V30 22611 C 2038.28 -2.08927 4.92193 0
M  V30 22612 C 2039.58 0.0760911 5.22245 0
M  V30 22613 H 2041.28 0.321441 2.97669 0
M  V30 22614 H 2038.82 0.156032 1.43152 0
M  V30 22615 H 2040.78 -2.00338 3.70732 0
M  V30 22616 H 2039.5 -2.1349 2.47163 0
M  V30 22617 H 2038.16 -0.356617 3.64861 0
M  V30 22618 H 2037.81 -2.77098 4.19792 0
M  V30 22619 H 2037.51 -1.73328 5.61454 0
M  V30 22620 H 2039.03 -2.65827 5.49698 0
M  V30 22621 H 2040.45 -0.397728 5.71919 0
M  V30 22622 H 2038.84 0.345281 5.99106 0
M  V30 22623 H 2039.91 1.00878 4.74291 0
M  V30 22624 N 2041.26 -1.56548 0.18182 0
M  V30 22625 C 2042.2 -2.19794 -0.761146 0
M  V30 22626 C 2043.2 -1.16509 -1.22971 0
M  V30 22627 O 2044.4 -1.34685 -1.19415 0
M  V30 22628 H 2040.78 -0.704224 -0.263766 0
M  V30 22629 H 2042.75 -2.97703 -0.203871 0
M  V30 22630 C 2041.5 -2.86108 -1.9758 0
M  V30 22631 H 2040.82 -3.65317 -1.62429 0
M  V30 22632 H 2042.26 -3.33816 -2.61424 0
M  V30 22633 C 2040.72 -1.86435 -2.80613 0
M  V30 22634 O 2041.25 -1.35635 -3.78109 0
M  V30 22635 N 2039.46 -1.54958 -2.45838 0
M  V30 22636 H 2039 -1.96462 -1.66614 0
M  V30 22637 H 2038.96 -0.885231 -3.0168 0
M  V30 22638 N 2042.73 0.0918577 -1.57332 0
M  V30 22639 C 2043.98 0.793472 -1.85437 0
M  V30 22640 C 2044.3 1.7974 -0.77156 0
M  V30 22641 O 2045.5 2.54714 -0.939832 0
M  V30 22642 C 2043.96 1.462 -3.28867 0
M  V30 22643 C 2043.57 0.497677 -4.45227 0
M  V30 22644 C 2045.31 2.14715 -3.66193 0
M  V30 22645 C 2043.22 1.17098 -5.79691 0
M  V30 22646 H 2042.15 0.30008 -0.691714 0
M  V30 22647 H 2044.8 0.0464542 -1.83441 0
M  V30 22648 H 2043.18 2.25659 -3.25414 0
M  V30 22649 H 2044.35 -0.26565 -4.60034 0
M  V30 22650 H 2042.67 -0.081949 -4.16319 0
M  V30 22651 H 2045.27 2.6583 -4.63938 0
M  V30 22652 H 2045.61 2.93756 -2.9498 0
M  V30 22653 H 2046.14 1.42113 -3.71549 0
M  V30 22654 H 2042.88 0.421316 -6.54145 0
M  V30 22655 H 2042.4 1.90565 -5.68722 0
M  V30 22656 H 2044.08 1.69654 -6.24361 0
M  V30 22657 N 2044.21 1.53368 0.362763 0
M  V30 22658 C 2045.46 1.68906 1.10243 0
M  V30 22659 C 2045.77 0.448846 1.90381 0
M  V30 22660 O 2046.98 0.484821 2.67136 0
M  V30 22661 C 2045.44 2.98602 2.0091 0
M  V30 22662 C 2045.04 4.29895 1.26071 0
M  V30 22663 C 2046.79 3.23507 2.74852 0
M  V30 22664 C 2044.7 5.50678 2.15657 0
M  V30 22665 H 2043.63 0.629342 0.415265 0
M  V30 22666 H 2046.28 1.79869 0.363231 0
M  V30 22667 H 2044.66 2.81449 2.78572 0
M  V30 22668 H 2045.83 4.57689 0.534529 0
M  V30 22669 H 2044.15 4.11455 0.639803 0
M  V30 22670 H 2046.74 4.10931 3.42111 0
M  V30 22671 H 2047.09 2.39689 3.40374 0
M  V30 22672 H 2047.62 3.41347 2.04271 0
M  V30 22673 H 2044.36 6.36982 1.54707 0
M  V30 22674 H 2043.88 5.27159 2.86117 0
M  V30 22675 H 2045.56 5.85578 2.75151 0
M  V30 22676 N 2045.69 -0.62272 1.44776 0
M  V30 22677 C 2046.62 -1.74528 1.5512 0
M  V30 22678 C 2047.6 -1.65241 0.403656 0
M  V30 22679 O 2048.79 -1.83873 0.624863 0
M  V30 22680 C 2045.92 -3.13088 1.5031 0
M  V30 22681 C 2044.87 -3.37172 2.63626 0
M  V30 22682 C 2044.2 -4.75849 2.43868 0
M  V30 22683 C 2045.5 -3.28908 4.0573 0
M  V30 22684 H 2047.19 -1.66128 2.49082 0
M  V30 22685 H 2044.74 -0.797813 1.19879 0
M  V30 22686 H 2046.69 -3.91403 1.56146 0
M  V30 22687 H 2045.41 -3.22293 0.528684 0
M  V30 22688 H 2044.07 -2.61241 2.57194 0
M  V30 22689 H 2043.72 -4.81767 1.446 0
M  V30 22690 H 2043.42 -4.92921 3.19849 0
M  V30 22691 H 2044.94 -5.56383 2.51535 0
M  V30 22692 H 2046.36 -3.97117 4.13487 0
M  V30 22693 H 2044.76 -3.57513 4.8198 0
M  V30 22694 H 2045.83 -2.26581 4.28706 0
M  V30 22695 N 2047.17 -1.31814 -0.863883 0
M  V30 22696 C 2048.1 -1.22574 -1.98741 0
M  V30 22697 C 2049.08 -0.111585 -1.69734 0
M  V30 22698 O 2050.26 -0.29721 -1.91912 0
M  V30 22699 C 2047.39 -0.938559 -3.34378 0
M  V30 22700 C 2046.35 -2.01295 -3.7771 0
M  V30 22701 C 2045.67 -1.57834 -5.10874 0
M  V30 22702 C 2046.97 -3.42684 -3.94164 0
M  V30 22703 H 2048.67 -2.16572 -2.06729 0
M  V30 22704 H 2046.21 -1.04262 -0.993246 0
M  V30 22705 H 2048.17 -0.860501 -4.12521 0
M  V30 22706 H 2046.89 0.0370783 -3.26579 0
M  V30 22707 H 2045.55 -2.081 -3.01811 0
M  V30 22708 H 2045.2 -0.5904 -4.99523 0
M  V30 22709 H 2044.9 -2.29713 -5.40838 0
M  V30 22710 H 2046.42 -1.51448 -5.9152 0
M  V30 22711 H 2047.84 -3.38519 -4.62685 0
M  V30 22712 H 2046.23 -4.12833 -4.35533 0
M  V30 22713 H 2047.3 -3.83023 -2.97358 0
M  V30 22714 N 2048.65 1.07897 -1.14873 0
M  V30 22715 C 2049.9 1.79765 -0.914736 0
M  V30 22716 C 2050.21 1.87416 0.559879 0
M  V30 22717 O 2051.41 2.55749 0.911294 0
M  V30 22718 C 2049.87 3.23014 -1.58713 0
M  V30 22719 C 2049.48 3.23581 -3.09837 0
M  V30 22720 C 2051.22 3.99529 -1.43446 0
M  V30 22721 C 2049.13 4.6145 -3.69889 0
M  V30 22722 H 2048.06 0.673704 -0.338585 0
M  V30 22723 H 2050.71 1.21148 -1.37824 0
M  V30 22724 H 2049.09 3.8179 -1.05131 0
M  V30 22725 H 2050.27 2.74482 -3.7013 0
M  V30 22726 H 2048.58 2.60562 -3.24802 0
M  V30 22727 H 2051.18 5.01415 -1.85708 0
M  V30 22728 H 2051.52 4.14551 -0.381226 0
M  V30 22729 H 2052.05 3.47235 -1.94094 0
M  V30 22730 H 2048.79 4.51632 -4.75088 0
M  V30 22731 H 2048.31 5.10809 -3.14378 0
M  V30 22732 H 2049.99 5.30422 -3.70488 0
M  V30 22733 N 2050.12 0.944665 1.2615 0
M  V30 22734 C 2051.37 0.594093 1.93589 0
M  V30 22735 C 2051.7 -0.867382 1.74088 0
M  V30 22736 O 2050.95 -1.63636 1.07339 0
M  V30 22737 C 2051.25 0.886852 3.46222 0
M  V30 22738 C 2050.92 2.33276 3.85867 0
M  V30 22739 C 2049.58 2.72801 3.964 0
M  V30 22740 C 2051.93 3.27224 4.05677 0
M  V30 22741 C 2049.26 4.05362 4.24144 0
M  V30 22742 C 2051.61 4.59386 4.34911 0
M  V30 22743 C 2050.28 4.98721 4.4366 0
M  V30 22744 H 2049.55 0.217394 0.708393 0
M  V30 22745 H 2052.19 1.19183 1.49892 0
M  V30 22746 H 2050.5 0.206616 3.91255 0
M  V30 22747 H 2052.2 0.594328 3.96571 0
M  V30 22748 H 2048.79 2.01619 3.78216 0
M  V30 22749 H 2052.97 2.97883 3.96963 0
M  V30 22750 H 2048.23 4.35496 4.29131 0
M  V30 22751 H 2052.4 5.32171 4.49185 0
M  V30 22752 H 2050.03 6.01466 4.64911 0
M  V30 22753 N 2051.6 -1.40596 0.712085 0
M  V30 22754 C 2052.53 -2.33389 0.0719438 0
M  V30 22755 C 2053.51 -1.52706 -0.749334 0
M  V30 22756 O 2054.7 -1.81185 -0.698968 0
M  V30 22757 C 2051.83 -3.36659 -0.853122 0
M  V30 22758 C 2050.78 -4.27778 -0.137724 0
M  V30 22759 C 2050.11 -5.21556 -1.17827 0
M  V30 22760 C 2051.41 -5.12521 1.00597 0
M  V30 22761 H 2053.1 -2.87169 0.847002 0
M  V30 22762 H 2050.65 -1.38077 0.408756 0
M  V30 22763 H 2052.6 -4.00511 -1.31031 0
M  V30 22764 H 2051.33 -2.81266 -1.66004 0
M  V30 22765 H 2049.98 -3.65374 0.299603 0
M  V30 22766 H 2049.63 -4.6247 -1.97814 0
M  V30 22767 H 2049.33 -5.83361 -0.704503 0
M  V30 22768 H 2050.86 -5.88285 -1.63563 0
M  V30 22769 H 2052.27 -5.69847 0.62831 0
M  V30 22770 H 2050.67 -5.83351 1.40789 0
M  V30 22771 H 2051.74 -4.48706 1.83822 0
M  V30 22772 N 2053.08 -0.458013 -1.50798 0
M  V30 22773 C 2054.33 0.101617 -2.02545 0
M  V30 22774 C 2054.66 1.4054 -1.34023 0
M  V30 22775 O 2053.93 1.88941 -0.461705 0
M  V30 22776 C 2054.22 0.298998 -3.58857 0
M  V30 22777 C 2054.07 -1.02488 -4.37968 0
M  V30 22778 C 2055.39 1.05949 -4.27157 0
M  V30 22779 H 2052.51 0.0354565 -0.736147 0
M  V30 22780 H 2055.15 -0.601052 -1.80243 0
M  V30 22781 H 2053.3 0.89752 -3.77991 0
M  V30 22782 H 2054.97 -1.65898 -4.30437 0
M  V30 22783 H 2053.22 -1.62464 -4.02229 0
M  V30 22784 H 2053.89 -0.840572 -5.45562 0
M  V30 22785 H 2056.36 0.55231 -4.12418 0
M  V30 22786 H 2055.24 1.16639 -5.36364 0
M  V30 22787 H 2055.5 2.09283 -3.89427 0
M  V30 22788 N 2054.56 1.56449 -0.190119 0
M  V30 22789 C 2055.49 2.14748 0.771918 0
M  V30 22790 C 2056.47 1.08278 1.21304 0
M  V30 22791 O 2057.65 1.36362 1.30144 0
M  V30 22792 C 2054.78 2.70233 2.04186 0
M  V30 22793 C 2053.83 3.89246 1.74327 0
M  V30 22794 S 2054.66 5.27954 0.895791 0
M  V30 22795 C 2055.82 5.86857 2.17599 0
M  V30 22796 H 2056.05 2.96013 0.276302 0
M  V30 22797 H 2053.58 1.5438 0.0248132 0
M  V30 22798 H 2055.54 3.02845 2.7712 0
M  V30 22799 H 2054.2 1.89018 2.5086 0
M  V30 22800 H 2053.39 4.26461 2.68602 0
M  V30 22801 H 2053 3.57618 1.09478 0
M  V30 22802 H 2055.29 6.00917 3.12898 0
M  V30 22803 H 2056.23 6.83554 1.84823 0
M  V30 22804 H 2056.64 5.15422 2.30218 0
M  V30 22805 N 2056.04 -0.0835127 1.57379 0
M  V30 22806 C 2057.28 -0.784868 1.86671 0
M  V30 22807 C 2057.61 -1.78164 0.780253 0
M  V30 22808 O 2056.87 -1.94402 -0.224985 0
M  V30 22809 C 2057.17 -1.53851 3.22591 0
M  V30 22810 C 2056.83 -0.682799 4.457 0
M  V30 22811 C 2055.49 -0.446944 4.7912 0
M  V30 22812 C 2057.85 -0.0886784 5.21125 0
M  V30 22813 C 2055.17 0.392707 5.85384 0
M  V30 22814 C 2057.53 0.73836 6.28276 0
M  V30 22815 C 2056.19 0.984198 6.60204 0
M  V30 22816 H 2055.46 -0.287204 0.683078 0
M  V30 22817 H 2058.11 -0.0459845 1.91445 0
M  V30 22818 H 2056.41 -2.34928 3.13554 0
M  V30 22819 H 2058.11 -2.08576 3.42486 0
M  V30 22820 H 2054.7 -0.876748 4.19537 0
M  V30 22821 H 2058.88 -0.258035 4.95629 0
M  V30 22822 H 2054.14 0.592037 6.08527 0
M  V30 22823 H 2058.31 1.20553 6.85886 0
M  V30 22824 H 2055.94 1.63661 7.42374 0
M  V30 22825 N 2057.52 -1.53558 -0.354624 0
M  V30 22826 C 2058.76 -1.69489 -1.09346 0
M  V30 22827 C 2059.08 -0.458936 -1.9014 0
M  V30 22828 O 2060.28 -0.498981 -2.66875 0
M  V30 22829 C 2058.74 -2.99663 -1.99324 0
M  V30 22830 C 2058.35 -4.30558 -1.2379 0
M  V30 22831 C 2060.09 -3.2496 -2.73132 0
M  V30 22832 C 2058 -5.51814 -2.12733 0
M  V30 22833 H 2056.93 -0.631535 -0.411922 0
M  V30 22834 H 2059.58 -1.80059 -0.353687 0
M  V30 22835 H 2057.96 -2.82922 -2.77076 0
M  V30 22836 H 2059.14 -4.57966 -0.51025 0
M  V30 22837 H 2057.45 -4.11789 -0.617973 0
M  V30 22838 H 2060.05 -4.12739 -3.39927 0
M  V30 22839 H 2060.39 -2.41491 -3.39099 0
M  V30 22840 H 2060.92 -3.42426 -2.02458 0
M  V30 22841 H 2057.66 -6.37793 -1.51327 0
M  V30 22842 H 2057.18 -5.28669 -2.83317 0
M  V30 22843 H 2058.86 -5.87028 -2.72041 0
M  V30 22844 N 2058.99 0.615033 -1.45104 0
M  V30 22845 C 2060.22 1.39902 -1.52023 0
M  V30 22846 C 2060.63 1.88611 -0.149112 0
M  V30 22847 O 2059.97 1.6242 0.858222 0
M  V30 22848 C 2060.04 2.6429 -2.43703 0
M  V30 22849 C 2059.7 2.3727 -3.90579 0
M  V30 22850 C 2060.7 1.98094 -4.80682 0
M  V30 22851 C 2058.38 2.50412 -4.3543 0
M  V30 22852 C 2060.38 1.72411 -6.13639 0
M  V30 22853 C 2058.06 2.24342 -5.68431 0
M  V30 22854 C 2059.06 1.85402 -6.57354 0
M  V30 22855 O 2058.75 1.59633 -7.87891 0
M  V30 22856 H 2058.48 0.434923 -0.517511 0
M  V30 22857 H 2061.04 0.757868 -1.90907 0
M  V30 22858 H 2059.27 3.31099 -1.99775 0
M  V30 22859 H 2060.95 3.26322 -2.41389 0
M  V30 22860 H 2061.72 1.87483 -4.47297 0
M  V30 22861 H 2057.6 2.79689 -3.66463 0
M  V30 22862 H 2061.14 1.41942 -6.83007 0
M  V30 22863 H 2057.04 2.34567 -6.01372 0
M  V30 22864 H 2057.81 1.73747 -7.99846 0
M  V30 22865 N 2060.47 1.3227 0.85688 0
M  V30 22866 C 2061.43 1.2096 1.94682 0
M  V30 22867 C 2062.43 0.133231 1.60247 0
M  V30 22868 O 2063.62 0.383471 1.69927 0
M  V30 22869 C 2060.76 0.85974 3.29881 0
M  V30 22870 H 2061.95 2.17823 2.06139 0
M  V30 22871 H 2059.5 1.16069 1.04679 0
M  V30 22872 H 2060.24 -0.107161 3.24123 0
M  V30 22873 H 2060.02 1.63794 3.5625 0
M  V30 22874 H 2061.51 0.804868 4.0977 0
M  V30 22875 N 2061.95 -1.07287 1.15444 0
M  V30 22876 C 2063.2 -1.80162 0.931099 0
M  V30 22877 C 2063.53 -1.8653 -0.540402 0
M  V30 22878 O 2062.8 -1.34951 -1.40066 0
M  V30 22879 C 2063.09 -3.25184 1.54685 0
M  V30 22880 C 2062.94 -3.26957 3.089 0
M  V30 22881 C 2064.26 -4.2247 1.23318 0
M  V30 22882 H 2061.38 -0.654053 0.339682 0
M  V30 22883 H 2064.02 -1.25539 1.42619 0
M  V30 22884 H 2062.17 -3.7183 1.12583 0
M  V30 22885 H 2063.84 -2.88549 3.59912 0
M  V30 22886 H 2062.08 -2.65898 3.42755 0
M  V30 22887 H 2062.76 -4.29218 3.47097 0
M  V30 22888 H 2065.23 -3.84218 1.59737 0
M  V30 22889 H 2064.11 -5.2223 1.69018 0
M  V30 22890 H 2064.37 -4.41844 0.150314 0
M  V30 22891 N 2063.43 -0.951342 -1.25647 0
M  V30 22892 C 2064.67 -0.604351 -1.93271 0
M  V30 22893 C 2065 0.858137 -1.74546 0
M  V30 22894 O 2064.26 1.63065 -1.08206 0
M  V30 22895 C 2064.56 -0.9052 -3.45747 0
M  V30 22896 C 2064.22 -2.35319 -3.84624 0
M  V30 22897 C 2062.88 -2.74899 -3.94948 0
M  V30 22898 C 2065.24 -3.29371 -4.03936 0
M  V30 22899 C 2062.56 -4.07606 -4.21989 0
M  V30 22900 C 2064.92 -4.61686 -4.32468 0
M  V30 22901 C 2063.58 -5.01067 -4.41009 0
M  V30 22902 H 2062.85 -0.221148 -0.70723 0
M  V30 22903 H 2065.5 -1.19976 -1.49258 0
M  V30 22904 H 2063.8 -0.227362 -3.9114 0
M  V30 22905 H 2065.5 -0.615351 -3.9625 0
M  V30 22906 H 2062.09 -2.03622 -3.77142 0
M  V30 22907 H 2066.27 -2.99984 -3.95378 0
M  V30 22908 H 2061.53 -4.37766 -4.26815 0
M  V30 22909 H 2065.7 -5.34545 -4.46357 0
M  V30 22910 H 2063.33 -6.03923 -4.61715 0
M  V30 22911 N 2064.91 1.40216 -0.719531 0
M  V30 22912 C 2066.15 2.00418 -0.260225 0
M  V30 22913 C 2066.47 1.57349 1.15179 0
M  V30 22914 O 2065.74 0.814718 1.78155 0
M  V30 22915 H 2064.32 0.741161 -0.0932204 0
M  V30 22916 H 2066.99 1.71495 -0.926041 0
M  V30 22917 H 2066.08 3.10689 -0.29642 0
M  V30 22918 N 2066.38 0.466004 1.50553 0
M  V30 22919 C 2067.32 -0.37668 2.2507 0
M  V30 22920 C 2068.29 -1.00055 1.28171 0
M  V30 22921 O 2069.48 -1.03747 1.57381 0
M  V30 22922 C 2066.61 -1.52735 3.02307 0
M  V30 22923 C 2065.65 -1.02136 4.1409 0
M  V30 22924 S 2066.48 0.0598436 5.35467 0
M  V30 22925 C 2067.64 -1.09482 6.1625 0
M  V30 22926 H 2067.87 0.255883 2.96197 0
M  V30 22927 H 2065.41 0.250826 1.52349 0
M  V30 22928 H 2067.36 -2.18686 3.474 0
M  V30 22929 H 2066.03 -2.13141 2.30715 0
M  V30 22930 H 2065.22 -1.88265 4.67517 0
M  V30 22931 H 2064.82 -0.439645 3.71407 0
M  V30 22932 H 2067.11 -2.00749 6.47075 0
M  V30 22933 H 2068.06 -0.599922 7.05554 0
M  V30 22934 H 2068.46 -1.34635 5.48209 0
M  V30 22935 N 2067.86 -1.56346 0.198413 0
M  V30 22936 C 2069.09 -2.01765 -0.444344 0
M  V30 22937 C 2069.5 -1.0777 -1.55507 0
M  V30 22938 O 2068.84 -0.0753476 -1.83545 0
M  V30 22939 C 2068.9 -3.43574 -1.05816 0
M  V30 22940 C 2068.57 -4.5692 -0.0857655 0
M  V30 22941 C 2069.57 -5.15083 0.706081 0
M  V30 22942 C 2067.25 -5.02293 0.0262794 0
M  V30 22943 C 2069.24 -6.17072 1.5969 0
M  V30 22944 C 2066.93 -6.04125 0.920659 0
M  V30 22945 C 2067.93 -6.61388 1.70453 0
M  V30 22946 O 2067.62 -7.61242 2.58392 0
M  V30 22947 H 2067.35 -0.666052 -0.115545 0
M  V30 22948 H 2069.9 -2.03117 0.305386 0
M  V30 22949 H 2068.13 -3.39219 -1.85654 0
M  V30 22950 H 2069.82 -3.7278 -1.60592 0
M  V30 22951 H 2070.59 -4.80893 0.629841 0
M  V30 22952 H 2066.47 -4.57416 -0.57369 0
M  V30 22953 H 2070.01 -6.61695 2.20919 0
M  V30 22954 H 2065.91 -6.37738 0.998002 0
M  V30 22955 H 2066.68 -7.78674 2.52208 0
M  V30 22956 N 2069.34 0.0751653 -1.57421 0
M  V30 22957 C 2070.29 1.10843 -2.04491 0
M  V30 22958 C 2071.28 1.4028 -0.94962 0
M  V30 22959 O 2072.49 1.39727 -1.13474 0
M  V30 22960 H 2068.86 0.37477 -0.651959 0
M  V30 22961 H 2070.83 0.685258 -2.90425 0
M  V30 22962 C 2069.58 2.41474 -2.50171 0
M  V30 22963 H 2068.91 2.19672 -3.34042 0
M  V30 22964 H 2070.35 3.12227 -2.86863 0
M  V30 22965 C 2068.81 3.07194 -1.38323 0
M  V30 22966 O 2069.34 3.95132 -0.723447 0
M  V30 22967 N 2067.54 2.67764 -1.1292 0
M  V30 22968 H 2067.09 1.96344 -1.66754 0
M  V30 22969 H 2067.05 3.1206 -0.382881 0
M  V30 22970 N 2070.82 1.53744 0.346476 0
M  V30 22971 C 2072.07 1.70849 1.08705 0
M  V30 22972 C 2072.39 0.470151 1.88732 0
M  V30 22973 O 2071.65 -0.548082 1.87868 0
M  V30 22974 C 2071.95 2.92192 2.05812 0
M  V30 22975 C 2071.61 4.27917 1.42119 0
M  V30 22976 C 2070.28 4.64821 1.24477 0
M  V30 22977 C 2072.63 5.12243 0.962087 0
M  V30 22978 C 2069.96 5.83671 0.595386 0
M  V30 22979 C 2072.31 6.31756 0.326627 0
M  V30 22980 C 2070.97 6.67358 0.137866 0
M  V30 22981 H 2070.24 0.625182 0.397779 0
M  V30 22982 H 2072.89 1.87957 0.366657 0
M  V30 22983 H 2071.19 2.69675 2.84223 0
M  V30 22984 H 2072.89 3.0262 2.63101 0
M  V30 22985 H 2069.48 3.9887 1.56847 0
M  V30 22986 H 2073.66 4.84267 1.08625 0
M  V30 22987 H 2068.92 6.09831 0.437727 0
M  V30 22988 H 2073.09 6.9639 -0.0372189 0
M  V30 22989 H 2070.72 7.59312 -0.367372 0
M  V30 22990 N 2072.3 -0.607329 1.45428 0
M  V30 22991 C 2073.26 -1.69997 1.53732 0
M  V30 22992 C 2074.26 -1.55304 0.416799 0
M  V30 22993 O 2075.45 -1.60367 0.680287 0
M  V30 22994 C 2072.58 -3.09267 1.43411 0
M  V30 22995 H 2073.77 -1.64001 2.51085 0
M  V30 22996 H 2071.33 -0.82308 1.32872 0
M  V30 22997 H 2072.06 -3.2084 0.47243 0
M  V30 22998 H 2071.85 -3.2134 2.24685 0
M  V30 22999 H 2073.34 -3.88855 1.52255 0
M  V30 23000 N 2073.77 -1.32722 -0.849853 0
M  V30 23001 C 2075 -1.26385 -1.63433 0
M  V30 23002 C 2075.41 0.169573 -1.88439 0
M  V30 23003 O 2074.76 1.11866 -1.45711 0
M  V30 23004 C 2074.82 -1.95887 -3.01444 0
M  V30 23005 C 2074.48 -3.45215 -2.99459 0
M  V30 23006 C 2075.48 -4.40614 -2.75962 0
M  V30 23007 C 2073.16 -3.87223 -3.19943 0
M  V30 23008 C 2075.16 -5.75996 -2.72959 0
M  V30 23009 C 2072.84 -5.22713 -3.16566 0
M  V30 23010 C 2073.84 -6.16911 -2.93104 0
M  V30 23011 O 2073.53 -7.49921 -2.8961 0
M  V30 23012 H 2073.26 -0.437171 -0.515614 0
M  V30 23013 H 2075.82 -1.75479 -1.06754 0
M  V30 23014 H 2074.05 -1.41369 -3.59933 0
M  V30 23015 H 2075.74 -1.83194 -3.62208 0
M  V30 23016 H 2076.5 -4.09484 -2.59899 0
M  V30 23017 H 2072.38 -3.14321 -3.37229 0
M  V30 23018 H 2075.92 -6.49494 -2.54566 0
M  V30 23019 H 2071.82 -5.53471 -3.32175 0
M  V30 23020 H 2072.59 -7.59338 -3.0553 0
M  V30 23021 N 2075.25 1.06673 -1.16011 0
M  V30 23022 C 2076.5 1.79666 -0.940641 0
M  V30 23023 C 2076.83 1.86814 0.530502 0
M  V30 23024 O 2076.11 1.35692 1.39348 0
M  V30 23025 C 2076.39 3.24359 -1.56407 0
M  V30 23026 C 2076.24 3.25315 -3.10629 0
M  V30 23027 C 2077.56 4.2181 -1.25556 0
M  V30 23028 H 2074.68 0.652242 -0.343145 0
M  V30 23029 H 2077.32 1.2478 -1.43282 0
M  V30 23030 H 2075.47 3.71227 -1.14553 0
M  V30 23031 H 2077.14 2.86637 -3.61438 0
M  V30 23032 H 2075.39 2.64077 -3.4416 0
M  V30 23033 H 2076.06 4.27371 -3.49368 0
M  V30 23034 H 2078.53 3.83365 -1.61772 0
M  V30 23035 H 2077.41 5.21326 -1.71785 0
M  V30 23036 H 2077.67 4.41758 -0.173744 0
M  V30 23037 N 2076.73 0.957992 1.25141 0
M  V30 23038 C 2077.68 0.479695 2.2576 0
M  V30 23039 C 2078.65 -0.469606 1.59323 0
M  V30 23040 O 2079.83 -0.382116 1.86935 0
M  V30 23041 C 2076.97 -0.233227 3.44311 0
M  V30 23042 C 2076.09 0.753705 4.25374 0
M  V30 23043 C 2075.22 0.0178808 5.31197 0
M  V30 23044 C 2074.26 0.995522 6.0395 0
M  V30 23045 N 2073.4 0.290349 7.01499 0
M  V30 23046 H 2078.24 1.3426 2.66042 0
M  V30 23047 H 2075.77 0.673224 1.3079 0
M  V30 23048 H 2077.73 -0.663168 4.11896 0
M  V30 23049 H 2076.36 -1.06015 3.04894 0
M  V30 23050 H 2075.41 1.30212 3.5742 0
M  V30 23051 H 2076.73 1.4996 4.75724 0
M  V30 23052 H 2075.88 -0.470532 6.04873 0
M  V30 23053 H 2074.62 -0.760784 4.8173 0
M  V30 23054 H 2073.62 1.4949 5.29087 0
M  V30 23055 H 2074.85 1.77447 6.55507 0
M  V30 23056 H 2072.79 -0.469516 6.54318 0
M  V30 23057 H 2072.71 0.975282 7.49683 0
M  V30 23058 H 2073.98 -0.176416 7.793 0
M  V30 23059 N 2078.21 -1.39832 0.726957 0
M  V30 23060 C 2079.16 -2.30655 0.0817379 0
M  V30 23061 C 2080.13 -1.48792 -0.738257 0
M  V30 23062 O 2081.31 -1.775 -0.699873 0
M  V30 23063 C 2078.45 -3.35079 -0.825599 0
M  V30 23064 C 2077.56 -4.32 0.006145 0
M  V30 23065 C 2076.7 -5.23491 -0.90172 0
M  V30 23066 C 2075.74 -6.12066 -0.064744 0
M  V30 23067 N 2074.87 -6.95939 -0.928103 0
M  V30 23068 H 2079.71 -2.85263 0.861906 0
M  V30 23069 H 2077.25 -1.40468 0.436709 0
M  V30 23070 H 2079.21 -3.94203 -1.36602 0
M  V30 23071 H 2077.84 -2.81946 -1.57183 0
M  V30 23072 H 2076.89 -3.74562 0.66389 0
M  V30 23073 H 2078.2 -4.94499 0.65365 0
M  V30 23074 H 2077.36 -5.87602 -1.51027 0
M  V30 23075 H 2076.1 -4.61294 -1.58302 0
M  V30 23076 H 2075.1 -5.46975 0.556665 0
M  V30 23077 H 2076.33 -6.76326 0.613222 0
M  V30 23078 H 2074.27 -6.36318 -1.59484 0
M  V30 23079 H 2074.19 -7.55249 -0.336895 0
M  V30 23080 H 2075.46 -7.64487 -1.52247 0
M  V30 23081 N 2079.69 -0.473982 -1.50304 0
M  V30 23082 C 2080.6 0.323933 -2.32353 0
M  V30 23083 C 2081.61 0.993251 -1.42865 0
M  V30 23084 O 2082.79 0.980589 -1.75916 0
M  V30 23085 C 2079.85 1.38999 -3.17616 0
M  V30 23086 C 2078.91 0.736965 -4.22927 0
M  V30 23087 C 2078.15 1.75223 -5.04116 0
M  V30 23088 O 2078.37 2.97908 -4.86423 0
M  V30 23089 O 2077.3 1.32246 -5.87192 0
M  V30 23090 H 2081.13 -0.346913 -3.01712 0
M  V30 23091 H 2078.72 -0.235777 -1.47528 0
M  V30 23092 H 2080.6 2.00742 -3.70514 0
M  V30 23093 H 2079.27 2.04425 -2.50982 0
M  V30 23094 H 2078.18 0.0805047 -3.74013 0
M  V30 23095 H 2079.51 0.125602 -4.9204 0
M  V30 23096 N 2081.16 1.56239 -0.206702 0
M  V30 23097 C 2082.13 2.18382 0.695843 0
M  V30 23098 C 2083.13 1.14149 1.13255 0
M  V30 23099 O 2084.32 1.39468 1.04376 0
M  V30 23100 C 2081.45 2.79522 1.95141 0
M  V30 23101 H 2082.64 2.99503 0.154275 0
M  V30 23102 H 2080.2 1.56241 0.0429222 0
M  V30 23103 H 2080.93 2.02231 2.53521 0
M  V30 23104 H 2080.72 3.55837 1.64689 0
M  V30 23105 H 2082.21 3.27203 2.59476 0
M  V30 23106 N 2082.64 -0.0668159 1.57458 0
M  V30 23107 C 2083.89 -0.763514 1.87123 0
M  V30 23108 C 2084.21 -1.77862 0.799382 0
M  V30 23109 O 2083.48 -1.95149 -0.171413 0
M  V30 23110 H 2082.06 -0.284974 0.690506 0
M  V30 23111 H 2084.72 -0.0417221 1.94855 0
M  V30 23112 H 2083.82 -1.27663 2.84796 0
M  V30 23113 N 2084.12 -1.53926 -0.338317 0
M  V30 23114 C 2085.37 -1.70639 -1.07542 0
M  V30 23115 C 2085.68 -0.479077 -1.89642 0
M  V30 23116 O 2086.89 -0.527259 -2.66331 0
M  V30 23117 C 2085.35 -3.0176 -1.96134 0
M  V30 23118 C 2084.95 -4.31847 -1.19216 0
M  V30 23119 C 2086.7 -3.27839 -2.6967 0
M  V30 23120 C 2084.6 -5.54039 -2.06869 0
M  V30 23121 H 2083.53 -0.635868 -0.4052 0
M  V30 23122 H 2086.19 -1.80424 -0.334569 0
M  V30 23123 H 2084.57 -2.85845 -2.7406 0
M  V30 23124 H 2085.74 -4.58482 -0.461647 0
M  V30 23125 H 2084.06 -4.12421 -0.574263 0
M  V30 23126 H 2086.65 -4.16322 -3.3553 0
M  V30 23127 H 2087 -2.45074 -3.36518 0
M  V30 23128 H 2087.53 -3.44554 -1.98815 0
M  V30 23129 H 2084.27 -6.39363 -1.44554 0
M  V30 23130 H 2083.79 -5.31645 -2.77694 0
M  V30 23131 H 2085.47 -5.89881 -2.658 0
M  V30 23132 N 2085.6 0.599608 -1.45748 0
M  V30 23133 C 2086.55 1.73095 -1.55374 0
M  V30 23134 C 2087.54 1.64028 -0.423205 0
M  V30 23135 O 2088.75 1.69726 -0.599429 0
M  V30 23136 H 2085.12 0.572 -0.48818 0
M  V30 23137 H 2087.09 1.62104 -2.50529 0
M  V30 23138 C 2085.84 3.1148 -1.54517 0
M  V30 23139 H 2085.17 3.19119 -2.40838 0
M  V30 23140 H 2086.61 3.90447 -1.65309 0
M  V30 23141 C 2085.06 3.35809 -0.270913 0
M  V30 23142 O 2085.59 3.96473 0.645927 0
M  V30 23143 N 2083.8 2.90136 -0.164103 0
M  V30 23144 H 2083.35 2.40951 -0.911075 0
M  V30 23145 H 2083.31 3.06788 0.687647 0
M  V30 23146 N 2087.08 1.33171 0.842803 0
M  V30 23147 C 2088.35 1.15008 1.58216 0
M  V30 23148 C 2088.73 -0.285047 2.09167 0
M  V30 23149 O 2088.08 -1.28349 1.89047 0
M  V30 23150 C 2088.29 2.18785 2.71908 0
M  V30 23151 C 2089.64 2.52736 3.41188 0
M  V30 23152 O 2090.66 2.17422 2.82146 0
M  V30 23153 O 2089.52 3.13321 4.47763 0
M  V30 23154 H 2086.62 0.444573 0.69734 0
M  V30 23155 H 2089.16 1.44741 0.8859 0
M  V30 23156 H 2087.94 3.15201 2.31871 0
M  V30 23157 H 2087.56 1.90116 3.49202 0
M  V30 23158 N 2088.56 -1.06056 1.16576 0
M  V30 23159 C 2089.8 -1.79164 0.950155 0
M  V30 23160 C 2090.13 -1.87092 -0.520588 0
M  V30 23161 O 2089.41 -1.36429 -1.38627 0
M  V30 23162 C 2089.69 -3.23525 1.58125 0
M  V30 23163 C 2089.55 -3.23663 3.1235 0
M  V30 23164 C 2090.86 -4.21138 1.27792 0
M  V30 23165 H 2087.98 -0.650413 0.3466 0
M  V30 23166 H 2090.63 -1.24019 1.43942 0
M  V30 23167 H 2088.78 -3.70615 1.16521 0
M  V30 23168 H 2090.45 -2.84716 3.62953 0
M  V30 23169 H 2088.69 -2.62248 3.45555 0
M  V30 23170 H 2089.36 -4.25512 3.51629 0
M  V30 23171 H 2091.84 -3.82502 1.63803 0
M  V30 23172 H 2090.71 -5.20408 1.74547 0
M  V30 23173 H 2090.97 -4.4166 0.197169 0
M  V30 23174 N 2090.03 -0.964615 -1.24631 0
M  V30 23175 C 2091.26 -0.641907 -1.97216 0
M  V30 23176 C 2091.68 0.781279 -1.71107 0
M  V30 23177 O 2091.04 1.52981 -0.972952 0
M  V30 23178 C 2091.09 -0.918908 -3.48695 0
M  V30 23179 O 2090.19 -0.00276058 -4.124 0
M  V30 23180 H 2089.53 -0.243001 -0.617937 0
M  V30 23181 H 2092.06 -1.29393 -1.58489 0
M  V30 23182 H 2092.07 -0.849197 -3.99065 0
M  V30 23183 H 2090.75 -1.95612 -3.67027 0
M  V30 23184 H 2089.33 -0.125529 -3.72689 0
M  V30 23185 N 2091.51 1.39445 -0.734362 0
M  V30 23186 C 2092.46 2.32452 -0.0830804 0
M  V30 23187 C 2093.45 1.53028 0.726556 0
M  V30 23188 O 2094.66 1.68697 0.627813 0
M  V30 23189 H 2091.03 0.751957 -0.00806559 0
M  V30 23190 H 2093.01 2.85008 -0.883901 0
M  V30 23191 C 2091.75 3.38121 0.810522 0
M  V30 23192 H 2091.08 3.99315 0.196919 0
M  V30 23193 H 2092.52 4.0565 1.23385 0
M  V30 23194 C 2090.98 2.75118 1.94453 0
M  V30 23195 O 2091.51 2.62913 3.0371 0
M  V30 23196 N 2089.71 2.33215 1.73376 0
M  V30 23197 H 2089.26 2.43341 0.845144 0
M  V30 23198 H 2089.22 1.914 2.49426 0
M  V30 23199 N 2092.99 0.481946 1.5005 0
M  V30 23200 C 2094.24 -0.0692778 2.02381 0
M  V30 23201 C 2094.56 -1.3874 1.36314 0
M  V30 23202 O 2093.82 -1.89685 0.481473 0
M  V30 23203 C 2094.12 -0.289954 3.56222 0
M  V30 23204 C 2093.78 0.947803 4.40826 0
M  V30 23205 C 2092.45 1.28714 4.63666 0
M  V30 23206 C 2094.8 1.77142 4.90174 0
M  V30 23207 C 2092.13 2.44995 5.33099 0
M  V30 23208 C 2094.48 2.9256 5.60884 0
M  V30 23209 C 2093.14 3.26896 5.81975 0
M  V30 23210 H 2092.41 -0.0253506 0.740566 0
M  V30 23211 H 2095.06 0.638234 1.80551 0
M  V30 23212 H 2093.36 -1.07982 3.76626 0
M  V30 23213 H 2095.06 -0.7306 3.94288 0
M  V30 23214 H 2091.65 0.673451 4.23276 0
M  V30 23215 H 2095.84 1.52243 4.72373 0
M  V30 23216 H 2091.09 2.71858 5.47634 0
M  V30 23217 H 2095.27 3.56719 5.98101 0
M  V30 23218 H 2092.89 4.17105 6.35553 0
M  V30 23219 N 2094.47 -1.56127 0.214985 0
M  V30 23220 C 2095.38 -2.2362 -0.709323 0
M  V30 23221 C 2096.39 -1.24168 -1.21895 0
M  V30 23222 O 2097.57 -1.56962 -1.26194 0
M  V30 23223 C 2094.63 -2.89781 -1.90337 0
M  V30 23224 C 2093.7 -4.04558 -1.43636 0
M  V30 23225 C 2092.93 -4.67555 -2.57349 0
M  V30 23226 O 2093.15 -4.29521 -3.75324 0
M  V30 23227 O 2092.09 -5.56666 -2.28925 0
M  V30 23228 H 2095.91 -3.03255 -0.164408 0
M  V30 23229 H 2093.5 -1.49392 -0.0151812 0
M  V30 23230 H 2095.38 -3.31565 -2.60082 0
M  V30 23231 H 2094.05 -2.1311 -2.43651 0
M  V30 23232 H 2092.96 -3.67356 -0.707115 0
M  V30 23233 H 2094.29 -4.82951 -0.94967 0
M  V30 23234 N 2095.95 0.0584645 -1.57492 0
M  V30 23235 C 2097.17 0.767637 -1.92133 0
M  V30 23236 C 2097.59 1.70438 -0.812178 0
M  V30 23237 O 2096.95 1.81246 0.213598 0
M  V30 23238 C 2097 1.54992 -3.26588 0
M  V30 23239 O 2096.72 0.650813 -4.33239 0
M  V30 23240 C 2098.22 2.3589 -3.75328 0
M  V30 23241 H 2095.44 0.2175 -0.634772 0
M  V30 23242 H 2097.98 0.0247547 -2.04485 0
M  V30 23243 H 2096.14 2.24495 -3.15722 0
M  V30 23244 H 2096.55 1.19628 -5.10675 0
M  V30 23245 H 2098.03 2.86216 -4.72 0
M  V30 23246 H 2098.5 3.16011 -3.05014 0
M  V30 23247 H 2099.11 1.71518 -3.89181 0
M  V30 23248 N 2097.42 1.54103 0.330149 0
M  V30 23249 C 2098.67 1.71993 1.06886 0
M  V30 23250 C 2099 0.490142 1.88223 0
M  V30 23251 O 2098.25 -0.528125 1.88439 0
M  V30 23252 C 2098.55 2.94358 2.02702 0
M  V30 23253 C 2098.22 4.294 1.37572 0
M  V30 23254 C 2096.88 4.66116 1.1954 0
M  V30 23255 C 2099.23 5.13235 0.907703 0
M  V30 23256 C 2096.56 5.8427 0.533447 0
M  V30 23257 C 2098.91 6.32067 0.259603 0
M  V30 23258 C 2097.58 6.67466 0.0670758 0
M  V30 23259 H 2096.85 0.629366 0.391125 0
M  V30 23260 H 2099.49 1.88335 0.346701 0
M  V30 23261 H 2097.8 2.72675 2.81346 0
M  V30 23262 H 2099.5 3.05394 2.59877 0
M  V30 23263 H 2096.09 4.00511 1.52608 0
M  V30 23264 H 2100.27 4.85392 1.03482 0
M  V30 23265 H 2095.53 6.10261 0.373022 0
M  V30 23266 H 2099.7 6.96311 -0.111078 0
M  V30 23267 H 2097.33 7.58879 -0.447886 0
M  V30 23268 N 2098.9 -0.59187 1.46064 0
M  V30 23269 C 2100.15 -1.34773 1.50601 0
M  V30 23270 C 2100.47 -1.94379 0.155452 0
M  V30 23271 O 2099.74 -1.7805 -0.816999 0
M  V30 23272 H 2098.32 -0.50037 0.554652 0
M  V30 23273 H 2100.98 -0.69386 1.82131 0
M  V30 23274 H 2100.08 -2.15914 2.25361 0
M  V30 23275 N 2100.38 -1.33616 -0.835729 0
M  V30 23276 C 2101.33 -1.24117 -1.96717 0
M  V30 23277 C 2102.32 -0.141892 -1.68805 0
M  V30 23278 O 2103.53 -0.306054 -1.77379 0
M  V30 23279 H 2099.9 -0.385249 -0.645823 0
M  V30 23280 H 2101.87 -2.19767 -2.01854 0
M  V30 23281 C 2100.62 -1.00045 -3.32996 0
M  V30 23282 H 2099.95 -1.8386 -3.55015 0
M  V30 23283 H 2101.39 -0.974302 -4.12654 0
M  V30 23284 C 2099.85 0.296559 -3.35592 0
M  V30 23285 O 2100.38 1.30221 -3.80007 0
M  V30 23286 N 2098.58 0.325196 -2.88775 0
M  V30 23287 H 2098.13 -0.493733 -2.52824 0
M  V30 23288 H 2098.09 1.19281 -2.90894 0
M  V30 23289 N 2101.86 1.05436 -1.17136 0
M  V30 23290 C 2103.08 1.82612 -0.983237 0
M  V30 23291 C 2103.51 1.82295 0.463697 0
M  V30 23292 O 2102.87 1.23011 1.33184 0
M  V30 23293 C 2102.91 3.26726 -1.52587 0
M  V30 23294 O 2102.02 4.05743 -0.737979 0
M  V30 23295 H 2101.36 0.564713 -0.349279 0
M  V30 23296 H 2103.89 1.3288 -1.55576 0
M  V30 23297 H 2103.9 3.77531 -1.54708 0
M  V30 23298 H 2102.57 3.26271 -2.57915 0
M  V30 23299 H 2101.15 3.64479 -0.78798 0
M  V30 23300 N 2103.34 0.971211 1.24118 0
M  V30 23301 C 2104.27 0.448828 2.23743 0
M  V30 23302 C 2105.25 -0.479005 1.55384 0
M  V30 23303 O 2106.43 -0.409573 1.83997 0
M  V30 23304 C 2103.56 -0.351705 3.36869 0
M  V30 23305 C 2102.6 0.518924 4.23331 0
M  V30 23306 S 2103.44 1.96125 4.98292 0
M  V30 23307 C 2104.59 1.1696 6.14875 0
M  V30 23308 H 2104.83 1.29308 2.67706 0
M  V30 23309 H 2102.36 0.776507 1.33453 0
M  V30 23310 H 2104.32 -0.8076 4.02477 0
M  V30 23311 H 2102.98 -1.17097 2.91457 0
M  V30 23312 H 2102.17 -0.095892 5.03909 0
M  V30 23313 H 2101.77 0.910689 3.62743 0
M  V30 23314 H 2104.07 0.426358 6.76157 0
M  V30 23315 H 2105.01 1.94988 6.80724 0
M  V30 23316 H 2105.42 0.692432 5.60237 0
M  V30 23317 N 2104.81 -1.39054 0.741747 0
M  V30 23318 C 2105.74 -2.33184 0.121433 0
M  V30 23319 C 2106.73 -1.54261 -0.716774 0
M  V30 23320 O 2107.91 -1.82627 -0.660379 0
M  V30 23321 C 2105.04 -3.38393 -0.78152 0
M  V30 23322 C 2103.99 -4.27974 -0.046955 0
M  V30 23323 C 2103.32 -5.23938 -1.06737 0
M  V30 23324 C 2104.62 -5.10272 1.11446 0
M  V30 23325 H 2106.31 -2.85308 0.907724 0
M  V30 23326 H 2103.86 -1.37179 0.437953 0
M  V30 23327 H 2105.81 -4.032 -1.22506 0
M  V30 23328 H 2104.54 -2.84724 -1.6 0
M  V30 23329 H 2103.2 -3.64656 0.377036 0
M  V30 23330 H 2102.84 -4.66562 -1.8796 0
M  V30 23331 H 2102.54 -5.84725 -0.580605 0
M  V30 23332 H 2104.07 -5.91622 -1.51048 0
M  V30 23333 H 2105.48 -5.68386 0.749042 0
M  V30 23334 H 2103.88 -5.80234 1.53131 0
M  V30 23335 H 2104.95 -4.44706 1.93299 0
M  V30 23336 N 2106.29 -0.489897 -1.49792 0
M  V30 23337 C 2107.53 0.0570502 -2.0432 0
M  V30 23338 C 2107.9 1.35291 -1.36237 0
M  V30 23339 O 2109.1 1.9834 -1.81424 0
M  V30 23340 C 2107.37 0.217574 -3.56737 0
M  V30 23341 S 2108.93 0.72037 -4.32847 0
M  V30 23342 H 2105.75 0.00704922 -0.710965 0
M  V30 23343 H 2108.35 -0.661331 -1.83975 0
M  V30 23344 H 2107.05 -0.731044 -4.03836 0
M  V30 23345 H 2106.58 0.961522 -3.81469 0
M  V30 23346 H 2108.6 1.99116 -4.54497 0
M  V30 23347 N 2107.77 1.56011 -0.223262 0
M  V30 23348 C 2108.7 2.23355 0.680795 0
M  V30 23349 C 2109.68 1.20584 1.19973 0
M  V30 23350 O 2110.87 1.49174 1.24342 0
M  V30 23351 C 2108 2.91478 1.88833 0
M  V30 23352 C 2106.95 4.00736 1.50316 0
M  V30 23353 C 2106.28 4.56164 2.7896 0
M  V30 23354 C 2107.58 5.17697 0.69188 0
M  V30 23355 H 2109.27 2.99162 0.119304 0
M  V30 23356 H 2106.82 1.43891 0.055942 0
M  V30 23357 H 2108.77 3.37282 2.52623 0
M  V30 23358 H 2107.49 2.13121 2.47481 0
M  V30 23359 H 2106.15 3.55665 0.888708 0
M  V30 23360 H 2105.8 3.74535 3.35757 0
M  V30 23361 H 2105.5 5.29903 2.53922 0
M  V30 23362 H 2107.02 5.04687 3.43691 0
M  V30 23363 H 2108.44 5.59872 1.23353 0
M  V30 23364 H 2106.84 5.97679 0.538515 0
M  V30 23365 H 2107.91 4.83964 -0.301131 0
M  V30 23366 N 2109.25 -0.0501116 1.5752 0
M  V30 23367 C 2110.5 -0.745096 1.88294 0
M  V30 23368 C 2110.82 -1.76469 0.817869 0
M  V30 23369 O 2110.08 -1.94836 -0.183698 0
M  V30 23370 C 2110.38 -1.46973 3.25782 0
M  V30 23371 C 2110.04 -0.588106 4.47048 0
M  V30 23372 C 2108.71 -0.345215 4.7996 0
M  V30 23373 C 2111.06 0.0218798 5.21195 0
M  V30 23374 C 2108.39 0.516787 5.8442 0
M  V30 23375 C 2110.74 0.87146 6.26569 0
M  V30 23376 C 2109.4 1.12402 6.57968 0
M  V30 23377 H 2108.67 -0.27265 0.689016 0
M  V30 23378 H 2111.32 -0.00536588 1.91499 0
M  V30 23379 H 2109.62 -2.28224 3.18467 0
M  V30 23380 H 2111.32 -2.01265 3.46834 0
M  V30 23381 H 2107.91 -0.787561 4.21302 0
M  V30 23382 H 2112.09 -0.152846 4.96065 0
M  V30 23383 H 2107.35 0.720981 6.07134 0
M  V30 23384 H 2111.52 1.35074 6.83175 0
M  V30 23385 H 2109.15 1.79371 7.38736 0
M  V30 23386 N 2110.73 -1.54276 -0.321972 0
M  V30 23387 C 2111.66 -1.80114 -1.41745 0
M  V30 23388 C 2112.67 -0.683177 -1.47772 0
M  V30 23389 O 2113.86 -0.960312 -1.50467 0
M  V30 23390 C 2110.96 -1.90532 -2.80269 0
M  V30 23391 C 2110.13 -3.20712 -2.97427 0
M  V30 23392 C 2109.19 -3.21811 -4.16322 0
M  V30 23393 O 2108.22 -3.95443 -4.09406 0
M  V30 23394 N 2109.42 -2.45708 -5.25935 0
M  V30 23395 H 2112.19 -2.74652 -1.19943 0
M  V30 23396 H 2109.75 -1.53592 -0.511965 0
M  V30 23397 H 2111.74 -1.88693 -3.58018 0
M  V30 23398 H 2110.31 -1.03083 -2.95115 0
M  V30 23399 H 2109.53 -3.35498 -2.06965 0
M  V30 23400 H 2110.82 -4.0666 -3.05786 0
M  V30 23401 H 2110.21 -1.85477 -5.34429 0
M  V30 23402 H 2108.77 -2.49645 -6.02097 0
M  V30 23403 N 2112.2 0.584116 -1.46376 0
M  V30 23404 C 2113.45 1.34437 -1.51837 0
M  V30 23405 C 2113.78 1.93464 -0.168948 0
M  V30 23406 O 2113.06 1.76395 0.819455 0
M  V30 23407 C 2113.34 2.47477 -2.61586 0
M  V30 23408 C 2113.19 1.93494 -4.06054 0
M  V30 23409 C 2114.51 3.49527 -2.6743 0
M  V30 23410 H 2111.63 0.487455 -0.552772 0
M  V30 23411 H 2114.27 0.656303 -1.78305 0
M  V30 23412 H 2112.42 3.0617 -2.39148 0
M  V30 23413 H 2114.1 1.39268 -4.39775 0
M  V30 23414 H 2112.34 1.24333 -4.15601 0
M  V30 23415 H 2113.01 2.75087 -4.78572 0
M  V30 23416 H 2115.49 3.00712 -2.87596 0
M  V30 23417 H 2114.36 4.26082 -3.46043 0
M  V30 23418 H 2114.62 4.06664 -1.73426 0
M  V30 23419 N 2113.68 1.34058 0.828631 0
M  V30 23420 C 2114.65 1.25063 1.92073 0
M  V30 23421 C 2115.65 0.167192 1.59928 0
M  V30 23422 O 2116.84 0.419428 1.69075 0
M  V30 23423 C 2113.97 0.929519 3.27983 0
M  V30 23424 H 2115.16 2.22146 2.01472 0
M  V30 23425 H 2112.71 1.18263 1.02193 0
M  V30 23426 H 2113.45 -0.0383856 3.24277 0
M  V30 23427 H 2113.23 1.71313 3.52696 0
M  V30 23428 H 2114.72 0.891605 4.07971 0
M  V30 23429 N 2115.16 -1.04814 1.17694 0
M  V30 23430 C 2116.41 -1.77277 0.962076 0
M  V30 23431 C 2116.72 -1.88834 -0.509992 0
M  V30 23432 O 2117.93 -2.58075 -0.843166 0
M  V30 23433 C 2116.39 -3.18693 1.67221 0
M  V30 23434 C 2115.99 -3.15253 3.18308 0
M  V30 23435 C 2117.74 -3.95585 1.53988 0
M  V30 23436 C 2115.64 -4.51481 3.81993 0
M  V30 23437 H 2114.57 -0.66449 0.356328 0
M  V30 23438 H 2117.23 -1.17451 1.40988 0
M  V30 23439 H 2115.61 -3.78868 1.15216 0
M  V30 23440 H 2116.78 -2.64573 3.77277 0
M  V30 23441 H 2115.1 -2.51859 3.31596 0
M  V30 23442 H 2117.69 -4.96315 1.98937 0
M  V30 23443 H 2118.04 -4.13394 0.491003 0
M  V30 23444 H 2118.57 -3.41967 2.03232 0
M  V30 23445 H 2115.31 -4.38877 4.86895 0
M  V30 23446 H 2114.83 -5.02295 3.27811 0
M  V30 23447 H 2116.51 -5.20413 3.84421 0
M  V30 23448 N 2116.64 -0.977779 -1.23601 0
M  V30 23449 C 2117.89 -0.645211 -1.91946 0
M  V30 23450 C 2118.21 0.82092 -1.76327 0
M  V30 23451 O 2117.47 1.60733 -1.1164 0
M  V30 23452 C 2117.77 -0.978335 -3.43749 0
M  V30 23453 C 2117.43 -2.43425 -3.79546 0
M  V30 23454 C 2116.1 -2.83215 -3.89028 0
M  V30 23455 C 2118.45 -3.37865 -3.96859 0
M  V30 23456 C 2115.78 -4.16465 -4.13248 0
M  V30 23457 C 2118.13 -4.70755 -4.22578 0
M  V30 23458 C 2116.79 -5.10308 -4.30281 0
M  V30 23459 H 2116.06 -0.236099 -0.70238 0
M  V30 23460 H 2118.71 -1.23115 -1.4668 0
M  V30 23461 H 2117.01 -0.310278 -3.90569 0
M  V30 23462 H 2118.71 -0.699263 -3.94856 0
M  V30 23463 H 2115.3 -2.11576 -3.72738 0
M  V30 23464 H 2119.49 -3.08303 -3.88926 0
M  V30 23465 H 2114.74 -4.4672 -4.17434 0
M  V30 23466 H 2118.92 -5.43893 -4.34918 0
M  V30 23467 H 2116.54 -6.13581 -4.48801 0
M  V30 23468 N 2118.12 1.38658 -0.749111 0
M  V30 23469 C 2119.08 2.28849 -0.126757 0
M  V30 23470 C 2120.08 1.46977 0.652253 0
M  V30 23471 O 2121.27 1.6748 0.479181 0
M  V30 23472 C 2118.4 3.30665 0.829083 0
M  V30 23473 H 2119.6 2.85391 -0.921529 0
M  V30 23474 H 2117.15 1.47543 -0.515832 0
M  V30 23475 H 2117.88 2.79205 1.6497 0
M  V30 23476 H 2117.67 3.91149 0.272946 0
M  V30 23477 H 2119.16 3.98117 1.26067 0
M  V30 23478 N 2119.6 0.497834 1.49531 0
M  V30 23479 C 2120.84 -0.0477142 2.02044 0
M  V30 23480 C 2121.16 -1.37777 1.37994 0
M  V30 23481 O 2120.43 -1.88476 0.534194 0
M  V30 23482 H 2119.01 -0.0206231 0.746715 0
M  V30 23483 H 2121.68 0.654353 1.83587 0
M  V30 23484 H 2120.77 -0.179706 3.11582 0
M  V30 23485 N 2121.07 -1.5589 0.231532 0
M  V30 23486 C 2122.32 -1.99602 -0.391237 0
M  V30 23487 C 2122.67 -1.11672 -1.56675 0
M  V30 23488 O 2121.97 -0.168851 -1.90855 0
M  V30 23489 C 2122.16 -3.46766 -0.865354 0
M  V30 23490 C 2121.99 -4.48932 0.262677 0
M  V30 23491 C 2120.76 -4.99965 0.732345 0
M  V30 23492 C 2122.96 -5.02738 1.0844 0
M  V30 23493 N 2120.94 -5.85853 1.83439 0
M  V30 23494 C 2122.31 -5.85647 2.03512 0
M  V30 23495 C 2124.37 -4.85077 1.12271 0
M  V30 23496 C 2123.07 -6.52782 3.02106 0
M  V30 23497 C 2125.1 -5.52978 2.09688 0
M  V30 23498 C 2124.46 -6.35664 3.03497 0
M  V30 23499 H 2120.56 -0.774288 -0.109553 0
M  V30 23500 H 2123.14 -1.91608 0.345591 0
M  V30 23501 H 2121.31 -3.55187 -1.57152 0
M  V30 23502 H 2123.04 -3.77378 -1.46178 0
M  V30 23503 H 2119.8 -4.72523 0.319177 0
M  V30 23504 H 2120.22 -6.33496 2.38772 0
M  V30 23505 H 2124.86 -4.20794 0.411345 0
M  V30 23506 H 2122.58 -7.16241 3.74199 0
M  V30 23507 H 2126.17 -5.41274 2.13338 0
M  V30 23508 H 2125.05 -6.87279 3.77647 0
M  V30 23509 N 2122.55 0.0417572 -1.57545 0
M  V30 23510 C 2123.83 0.769799 -1.79815 0
M  V30 23511 C 2124.21 1.94247 -0.826527 0
M  V30 23512 O 2123.56 2.28106 0.134058 0
M  V30 23513 C 2123.77 1.21472 -3.27178 0
M  V30 23514 C 2125.11 1.63585 -3.91823 0
M  V30 23515 O 2126.14 1.30963 -3.31251 0
M  V30 23516 O 2125 2.24087 -4.98445 0
M  V30 23517 H 2122.09 0.371214 -0.739005 0
M  V30 23518 H 2124.64 0.019513 -1.69689 0
M  V30 23519 H 2123.41 0.377014 -3.8948 0
M  V30 23520 H 2123.03 2.02541 -3.42144 0
M  V30 23521 N 2124.03 1.54445 0.313786 0
M  V30 23522 C 2125.28 1.72775 1.04849 0
M  V30 23523 C 2125.6 0.509507 1.88226 0
M  V30 23524 O 2124.87 -0.476396 1.90019 0
M  V30 23525 H 2123.45 0.637053 0.390092 0
M  V30 23526 H 2126.11 1.91771 0.347859 0
M  V30 23527 H 2125.21 2.61155 1.70893 0
M  V30 23528 N 2125.51 -0.576345 1.46683 0
M  V30 23529 C 2126.44 -1.69986 1.52249 0
M  V30 23530 C 2127.42 -1.58191 0.376088 0
M  V30 23531 O 2128.6 -1.79318 0.581154 0
M  V30 23532 C 2125.73 -3.08091 1.40705 0
M  V30 23533 C 2124.78 -3.38388 2.59607 0
M  V30 23534 S 2125.61 -3.29755 4.21927 0
M  V30 23535 C 2126.76 -4.70386 4.12902 0
M  V30 23536 H 2127 -1.65007 2.47305 0
M  V30 23537 H 2124.53 -0.755613 1.34647 0
M  V30 23538 H 2126.49 -3.8776 1.34731 0
M  V30 23539 H 2125.15 -3.10554 0.470659 0
M  V30 23540 H 2124.34 -4.39022 2.4754 0
M  V30 23541 H 2123.94 -2.66299 2.62603 0
M  V30 23542 H 2126.24 -5.60915 3.79975 0
M  V30 23543 H 2127.18 -4.8751 5.13556 0
M  V30 23544 H 2127.59 -4.47534 3.44054 0
M  V30 23545 N 2126.99 -1.34495 -0.82151 0
M  V30 23546 C 2127.92 -1.28835 -1.94741 0
M  V30 23547 C 2128.9 -0.165528 -1.69293 0
M  V30 23548 O 2130.08 -0.358115 -1.9087 0
M  V30 23549 C 2127.21 -1.04446 -3.31222 0
M  V30 23550 C 2126.17 -2.13209 -3.71114 0
M  V30 23551 C 2125.49 -1.74007 -5.05594 0
M  V30 23552 C 2126.79 -3.55051 -3.83062 0
M  V30 23553 H 2128.49 -2.23039 -1.99734 0
M  V30 23554 H 2126.03 -1.07369 -0.959573 0
M  V30 23555 H 2127.98 -0.991306 -4.09574 0
M  V30 23556 H 2126.71 -0.0668391 -3.26532 0
M  V30 23557 H 2125.37 -2.17597 -2.95038 0
M  V30 23558 H 2125.02 -0.749021 -4.97392 0
M  V30 23559 H 2124.72 -2.46803 -5.33256 0
M  V30 23560 H 2126.24 -1.7019 -5.86402 0
M  V30 23561 H 2127.65 -3.53068 -4.51681 0
M  V30 23562 H 2126.05 -4.2648 -4.22179 0
M  V30 23563 H 2127.12 -3.92289 -2.85021 0
M  V30 23564 N 2128.46 1.04188 -1.18248 0
M  V30 23565 C 2129.74 1.74344 -0.886757 0
M  V30 23566 C 2130.12 2.02074 0.610675 0
M  V30 23567 O 2129.47 1.66492 1.56501 0
M  V30 23568 C 2129.68 3.02952 -1.73267 0
M  V30 23569 C 2131.03 3.76712 -1.95892 0
M  V30 23570 O 2132.05 3.12847 -1.70309 0
M  V30 23571 O 2130.91 4.91493 -2.38949 0
M  V30 23572 H 2128 0.758616 -0.329288 0
M  V30 23573 H 2130.55 1.10265 -1.28995 0
M  V30 23574 H 2129.32 2.78587 -2.74782 0
M  V30 23575 H 2128.95 3.7477 -1.3279 0
M  V30 23576 N 2129.94 0.98432 1.23081 0
M  V30 23577 C 2130.91 0.532738 2.22923 0
M  V30 23578 C 2131.91 -0.379759 1.56251 0
M  V30 23579 O 2133.1 -0.172906 1.7334 0
M  V30 23580 C 2130.23 -0.226262 3.40148 0
M  V30 23581 H 2131.42 1.41558 2.64388 0
M  V30 23582 H 2128.97 0.77062 1.35982 0
M  V30 23583 H 2129.71 -1.12547 3.04144 0
M  V30 23584 H 2129.49 0.428801 3.89748 0
M  V30 23585 H 2130.98 -0.530671 4.14214 0
M  V30 23586 N 2131.42 -1.38259 0.756453 0
M  V30 23587 C 2132.67 -1.99293 0.310658 0
M  V30 23588 C 2132.98 -1.60729 -1.11469 0
M  V30 23589 O 2134.19 -2.14755 -1.6611 0
M  V30 23590 C 2132.64 -3.56347 0.50448 0
M  V30 23591 C 2132.25 -4.0386 1.9391 0
M  V30 23592 C 2134 -4.24326 0.121541 0
M  V30 23593 C 2131.9 -5.53565 2.08133 0
M  V30 23594 H 2130.83 -0.745574 0.112405 0
M  V30 23595 H 2133.48 -1.57987 0.933403 0
M  V30 23596 H 2131.87 -3.95556 -0.187493 0
M  V30 23597 H 2133.04 -3.75934 2.66478 0
M  V30 23598 H 2131.36 -3.48614 2.27722 0
M  V30 23599 H 2133.95 -5.34301 0.206533 0
M  V30 23600 H 2134.3 -4.05866 -0.926213 0
M  V30 23601 H 2134.83 -3.90366 0.765478 0
M  V30 23602 H 2131.57 -5.76933 3.11173 0
M  V30 23603 H 2131.09 -5.83225 1.4003 0
M  V30 23604 H 2132.77 -6.19307 1.87264 0
M  V30 23605 N 2132.9 -0.505757 -1.49264 0
M  V30 23606 C 2134.15 0.0370719 -2.02466 0
M  V30 23607 C 2134.47 1.36554 -1.38504 0
M  V30 23608 O 2133.73 1.88895 -0.51159 0
M  V30 23609 C 2134.03 0.233245 -3.56638 0
M  V30 23610 C 2133.69 -1.01781 -4.39262 0
M  V30 23611 C 2132.36 -1.36074 -4.6156 0
M  V30 23612 C 2134.71 -1.84918 -4.87293 0
M  V30 23613 C 2132.04 -2.53445 -5.29134 0
M  V30 23614 C 2134.39 -3.01446 -5.56159 0
M  V30 23615 C 2133.05 -3.36113 -5.76701 0
M  V30 23616 H 2132.32 0.0135656 -0.740876 0
M  V30 23617 H 2134.97 -0.666878 -1.79513 0
M  V30 23618 H 2133.27 1.01976 -3.78296 0
M  V30 23619 H 2134.97 0.66778 -3.95401 0
M  V30 23620 H 2131.56 -0.740706 -4.22151 0
M  V30 23621 H 2135.74 -1.59738 -4.69891 0
M  V30 23622 H 2131 -2.80536 -5.4324 0
M  V30 23623 H 2135.17 -3.66189 -5.9235 0
M  V30 23624 H 2132.8 -4.27163 -6.28837 0
M  V30 23625 N 2134.38 1.55765 -0.239796 0
M  V30 23626 C 2135.32 2.22467 0.679046 0
M  V30 23627 C 2136.32 1.20993 1.18562 0
M  V30 23628 O 2137.52 1.39024 1.14334 0
M  V30 23629 H 2133.9 0.713528 0.237447 0
M  V30 23630 H 2135.87 2.98254 0.0932403 0
M  V30 23631 C 2134.62 2.93244 1.86825 0
M  V30 23632 H 2133.94 3.71094 1.48759 0
M  V30 23633 H 2135.38 3.43289 2.48855 0
M  V30 23634 C 2133.84 1.96721 2.735 0
M  V30 23635 O 2134.37 1.49575 3.72814 0
M  V30 23636 N 2132.58 1.63976 2.39917 0
M  V30 23637 H 2132.12 2.02511 1.59208 0
M  V30 23638 H 2132.08 0.996588 2.98187 0
M  V30 23639 N 2135.85 -0.0334016 1.57565 0
M  V30 23640 C 2137.08 -0.740692 1.93723 0
M  V30 23641 C 2137.5 -1.6833 0.839447 0
M  V30 23642 O 2136.86 -1.80136 -0.205152 0
M  V30 23643 C 2136.91 -1.47761 3.28936 0
M  V30 23644 O 2136.01 -2.59056 3.2088 0
M  V30 23645 H 2135.36 -0.199518 0.633315 0
M  V30 23646 H 2137.89 0.00982998 2.04598 0
M  V30 23647 H 2137.9 -1.84849 3.63724 0
M  V30 23648 H 2136.57 -0.786263 4.084 0
M  V30 23649 H 2135.15 -2.24543 2.97716 0
M  V30 23650 N 2137.33 -1.54609 -0.305591 0
M  V30 23651 C 2138.28 -1.85242 -1.37673 0
M  V30 23652 C 2139.25 -0.700952 -1.50585 0
M  V30 23653 O 2140.43 -0.949135 -1.65518 0
M  V30 23654 C 2137.57 -2.10127 -2.73753 0
M  V30 23655 C 2136.69 -3.37767 -2.69328 0
M  V30 23656 C 2135.82 -3.52519 -3.97371 0
M  V30 23657 C 2134.86 -4.73968 -3.87325 0
M  V30 23658 N 2134 -4.8555 -5.07135 0
M  V30 23659 H 2138.84 -2.76616 -1.10849 0
M  V30 23660 H 2136.38 -1.36978 -0.536239 0
M  V30 23661 H 2138.33 -2.22549 -3.52885 0
M  V30 23662 H 2136.96 -1.22025 -2.98847 0
M  V30 23663 H 2136.02 -3.33989 -1.82086 0
M  V30 23664 H 2137.33 -4.27018 -2.57793 0
M  V30 23665 H 2136.48 -3.64581 -4.84939 0
M  V30 23666 H 2135.22 -2.61393 -4.11734 0
M  V30 23667 H 2134.23 -4.61944 -2.98141 0
M  V30 23668 H 2135.45 -5.66496 -3.74511 0
M  V30 23669 H 2133.4 -3.97345 -5.2197 0
M  V30 23670 H 2133.31 -5.68794 -4.98005 0
M  V30 23671 H 2134.58 -5.01963 -5.96367 0
M  V30 23672 N 2138.81 0.568558 -1.46987 0
M  V30 23673 C 2140.06 1.32596 -1.5424 0
M  V30 23674 C 2140.41 1.91386 -0.197273 0
M  V30 23675 O 2139.7 1.74294 0.795739 0
M  V30 23676 C 2139.9 2.46501 -2.5879 0
M  V30 23677 C 2139.73 1.98871 -4.03337 0
M  V30 23678 C 2138.5 1.83234 -4.70907 0
M  V30 23679 C 2140.7 1.53991 -4.90705 0
M  V30 23680 N 2138.68 1.29824 -6.00016 0
M  V30 23681 C 2140.05 1.12269 -6.09751 0
M  V30 23682 C 2142.1 1.41938 -4.7724 0
M  V30 23683 C 2140.81 0.596928 -7.16819 0
M  V30 23684 C 2142.83 0.907644 -5.84394 0
M  V30 23685 C 2142.19 0.500286 -7.02621 0
M  V30 23686 H 2138.29 0.477653 -0.61917 0
M  V30 23687 H 2140.88 0.645779 -1.83678 0
M  V30 23688 H 2139.05 3.12064 -2.31238 0
M  V30 23689 H 2140.78 3.13481 -2.55953 0
M  V30 23690 H 2137.54 2.05608 -4.26641 0
M  V30 23691 H 2137.96 1.0524 -6.6877 0
M  V30 23692 H 2142.6 1.72047 -3.86212 0
M  V30 23693 H 2140.32 0.283446 -8.07603 0
M  V30 23694 H 2143.91 0.8181 -5.76019 0
M  V30 23695 H 2142.79 0.110434 -7.84122 0
M  V30 23696 N 2140.29 1.34929 0.814366 0
M  V30 23697 C 2141.51 1.31019 1.60776 0
M  V30 23698 C 2141.94 -0.111347 1.8777 0
M  V30 23699 O 2141.3 -1.07577 1.45935 0
M  V30 23700 C 2141.34 2.11503 2.92059 0
M  V30 23701 O 2140.45 1.49042 3.84526 0
M  V30 23702 H 2139.79 0.449572 0.488652 0
M  V30 23703 H 2142.32 1.77857 1.01133 0
M  V30 23704 H 2142.33 2.23174 3.41552 0
M  V30 23705 H 2141 3.14853 2.71736 0
M  V30 23706 H 2139.58 1.46165 3.4306 0
M  V30 23707 N 2141.77 -1.0356 1.18799 0
M  V30 23708 C 2143.04 -1.73872 0.895991 0
M  V30 23709 C 2143.42 -2.02395 -0.59995 0
M  V30 23710 O 2142.77 -1.6732 -1.55616 0
M  V30 23711 C 2142.98 -3.02028 1.74871 0
M  V30 23712 C 2144.33 -3.75667 1.97887 0
M  V30 23713 O 2145.35 -3.11939 1.71966 0
M  V30 23714 O 2144.21 -4.90219 2.41553 0
M  V30 23715 H 2141.31 -0.756859 0.333306 0
M  V30 23716 H 2143.85 -1.09579 1.29578 0
M  V30 23717 H 2142.62 -2.77126 2.76256 0
M  V30 23718 H 2142.25 -3.7406 1.34776 0
M  V30 23719 N 2143.25 -0.990834 -1.22557 0
M  V30 23720 C 2144.49 -0.673707 -1.92978 0
M  V30 23721 C 2144.85 0.779598 -1.7546 0
M  V30 23722 O 2146.05 1.20804 -2.40124 0
M  V30 23723 C 2144.32 -1.06603 -3.41131 0
M  V30 23724 S 2145.88 -0.866954 -4.3015 0
M  V30 23725 H 2142.7 -0.246392 -0.666942 0
M  V30 23726 H 2145.3 -1.27268 -1.48402 0
M  V30 23727 H 2144 -2.12015 -3.51394 0
M  V30 23728 H 2143.54 -0.458769 -3.90716 0
M  V30 23729 H 2145.55 0.243623 -4.95602 0
M  V30 23730 N 2144.72 1.37856 -0.763775 0
M  V30 23731 C 2146 1.94001 -0.249566 0
M  V30 23732 C 2146.38 1.69818 1.254 0
M  V30 23733 O 2145.73 1.04245 2.03335 0
M  V30 23734 C 2145.94 3.43551 -0.614299 0
M  V30 23735 C 2147.29 4.20625 -0.579627 0
M  V30 23736 O 2148.31 3.51878 -0.553206 0
M  V30 23737 O 2147.17 5.43201 -0.599606 0
M  V30 23738 H 2144.26 0.825148 -0.055317 0
M  V30 23739 H 2146.81 1.4719 -0.844588 0
M  V30 23740 H 2145.58 3.54703 -1.65231 0
M  V30 23741 H 2145.2 3.97599 0.00819535 0
M  V30 23742 N 2146.2 0.513665 1.48994 0
M  V30 23743 C 2147.61 0.0690541 1.86572 0
M  V30 23744 C 2147.96 -1.34882 1.42482 0
M  V30 23745 O 2147.09 -2.00738 0.808279 0
M  V30 23746 C 2147.68 0.118539 3.38593 0
M  V30 23747 C 2146.24 -0.270792 3.75425 0
M  V30 23748 C 2145.39 0.485519 2.73016 0
M  V30 23749 H 2148.34 0.725789 1.41131 0
M  V30 23750 H 2148.36 -0.673737 3.74488 0
M  V30 23751 H 2147.87 1.1506 3.70652 0
M  V30 23752 H 2145.97 -1.30561 3.48976 0
M  V30 23753 H 2146.09 0.0574672 4.79066 0
M  V30 23754 H 2144.45 -0.066227 2.54614 0
M  V30 23755 H 2145.23 1.5179 3.0792 0
M  V30 23756 N 2147.68 -1.55636 0.248053 0
M  V30 23757 C 2148.96 -1.90888 -0.426759 0
M  V30 23758 C 2149.34 -1.16894 -1.75781 0
M  V30 23759 O 2148.68 -0.286804 -2.26693 0
M  V30 23760 C 2148.89 -3.43913 -0.593709 0
M  V30 23761 C 2150.24 -4.15188 -0.889059 0
M  V30 23762 O 2151.27 -3.49658 -0.67953 0
M  V30 23763 O 2150.13 -5.31102 -1.28815 0
M  V30 23764 H 2147.22 -0.794576 -0.2293 0
M  V30 23765 H 2149.77 -1.67165 0.292205 0
M  V30 23766 H 2148.54 -3.89784 0.3441 0
M  V30 23767 H 2148.16 -3.73502 -1.36317 0
M  V30 23768 N 2149.16 0.0250451 -1.5758 0
M  V30 23769 C 2150.1 1.02441 -2.0682 0
M  V30 23770 C 2151.07 1.35675 -0.958198 0
M  V30 23771 O 2152.26 1.45944 -1.22903 0
M  V30 23772 C 2149.4 2.31904 -2.55567 0
M  V30 23773 C 2148.51 2.04792 -3.80374 0
M  V30 23774 C 2147.65 3.28155 -4.17718 0
M  V30 23775 C 2146.69 2.96616 -5.3543 0
M  V30 23776 N 2145.82 4.12442 -5.68187 0
M  V30 23777 H 2150.66 0.59756 -2.91947 0
M  V30 23778 H 2148.2 0.283432 -1.44344 0
M  V30 23779 H 2150.16 3.07553 -2.81899 0
M  V30 23780 H 2148.79 2.72304 -1.73351 0
M  V30 23781 H 2147.84 1.19622 -3.61102 0
M  V30 23782 H 2149.15 1.7753 -4.66138 0
M  V30 23783 H 2148.31 4.12169 -4.45199 0
M  V30 23784 H 2147.05 3.58534 -3.30612 0
M  V30 23785 H 2146.05 2.11005 -5.07698 0
M  V30 23786 H 2147.28 2.67511 -6.24191 0
M  V30 23787 H 2145.22 4.42765 -4.84041 0
M  V30 23788 H 2145.14 3.88617 -6.4847 0
M  V30 23789 H 2146.41 4.97317 -6.00246 0
M  V30 23790 N 2150.64 1.54769 0.297388 0
M  V30 23791 C 2151.88 1.7343 1.0298 0
M  V30 23792 C 2152.2 0.529189 1.88305 0
M  V30 23793 O 2153.4 0.597687 2.64839 0
M  V30 23794 C 2151.86 3.06854 1.88065 0
M  V30 23795 C 2151.47 4.34856 1.07724 0
M  V30 23796 C 2153.21 3.34873 2.60883 0
M  V30 23797 C 2151.12 5.59329 1.92107 0
M  V30 23798 H 2150.05 0.646388 0.388199 0
M  V30 23799 H 2152.7 1.81248 0.286615 0
M  V30 23800 H 2151.08 2.93011 2.66385 0
M  V30 23801 H 2152.26 4.59544 0.339927 0
M  V30 23802 H 2150.57 4.13799 0.464715 0
M  V30 23803 H 2153.17 4.25071 3.24374 0
M  V30 23804 H 2153.51 2.5391 3.29902 0
M  V30 23805 H 2154.04 3.49704 1.8961 0
M  V30 23806 H 2150.78 6.4297 1.27551 0
M  V30 23807 H 2150.3 5.3882 2.63501 0
M  V30 23808 H 2151.98 5.96721 2.50067 0
M  V30 23809 N 2152.11 -0.560755 1.47286 0
M  V30 23810 C 2153.06 -1.68914 1.59908 0
M  V30 23811 C 2154.06 -1.62849 0.466545 0
M  V30 23812 O 2155.26 -1.68077 0.644218 0
M  V30 23813 H 2151.64 -0.558856 0.503174 0
M  V30 23814 H 2153.61 -1.55405 2.54739 0
M  V30 23815 C 2152.36 -3.07274 1.62721 0
M  V30 23816 H 2151.68 -3.12622 2.49214 0
M  V30 23817 H 2153.12 -3.85927 1.75603 0
M  V30 23818 C 2151.58 -3.34973 0.359852 0
M  V30 23819 O 2152.11 -3.98046 -0.540583 0
M  V30 23820 N 2150.31 -2.89599 0.24097 0
M  V30 23821 H 2149.86 -2.3845 0.974638 0
M  V30 23822 H 2149.82 -3.08503 -0.606066 0
M  V30 23823 N 2153.59 -1.35359 -0.807199 0
M  V30 23824 C 2155 -1.25624 -1.38114 0
M  V30 23825 C 2155.35 0.11163 -1.95882 0
M  V30 23826 O 2154.48 1.01256 -1.91249 0
M  V30 23827 C 2155.07 -2.27464 -2.51088 0
M  V30 23828 C 2153.63 -2.21472 -3.04347 0
M  V30 23829 C 2152.78 -2.13208 -1.77307 0
M  V30 23830 H 2155.73 -1.46496 -0.610285 0
M  V30 23831 H 2155.75 -1.90077 -3.29623 0
M  V30 23832 H 2155.26 -3.27009 -2.09014 0
M  V30 23833 H 2153.36 -1.25336 -3.50887 0
M  V30 23834 H 2153.48 -3.13409 -3.6237 0
M  V30 23835 H 2151.84 -1.59176 -1.98834 0
M  V30 23836 H 2152.62 -3.14611 -1.37385 0
M  V30 23837 N 2155.07 1.02928 -1.19346 0
M  V30 23838 C 2156.32 1.75973 -0.993881 0
M  V30 23839 C 2156.64 1.89088 0.476523 0
M  V30 23840 O 2155.91 1.42417 1.34515 0
M  V30 23841 H 2154.49 0.651893 -0.364753 0
M  V30 23842 H 2157.15 1.24161 -1.50233 0
M  V30 23843 H 2156.25 2.76812 -1.44157 0
M  V30 23844 N 2156.55 0.997319 1.2203 0
M  V30 23845 C 2157.78 0.694247 1.94905 0
M  V30 23846 C 2158.19 -0.741849 1.73615 0
M  V30 23847 O 2157.55 -1.50108 1.03796 0
M  V30 23848 C 2157.6 0.996196 3.47503 0
M  V30 23849 O 2157.32 2.37587 3.68082 0
M  V30 23850 C 2158.82 0.711446 4.37554 0
M  V30 23851 H 2156.04 0.256462 0.620055 0
M  V30 23852 H 2158.58 1.33329 1.5506 0
M  V30 23853 H 2156.74 0.402886 3.85299 0
M  V30 23854 H 2157.15 2.47854 4.62243 0
M  V30 23855 H 2158.63 0.972956 5.43358 0
M  V30 23856 H 2159.1 -0.35455 4.37767 0
M  V30 23857 H 2159.71 1.28601 4.05391 0
M  V30 23858 N 2158.03 -1.37449 0.771075 0
M  V30 23859 C 2158.96 -2.28911 0.115106 0
M  V30 23860 C 2159.97 -1.48601 -0.664961 0
M  V30 23861 O 2161.16 -1.71262 -0.503164 0
M  V30 23862 C 2158.26 -3.2779 -0.860623 0
M  V30 23863 C 2157.43 -4.37193 -0.134514 0
M  V30 23864 C 2156.49 -5.1615 -1.02351 0
M  V30 23865 O 2155.52 -5.67108 -0.487536 0
M  V30 23866 N 2156.72 -5.30813 -2.34985 0
M  V30 23867 H 2159.49 -2.85846 0.900671 0
M  V30 23868 H 2157.05 -1.49418 0.623366 0
M  V30 23869 H 2159.04 -3.77494 -1.45877 0
M  V30 23870 H 2157.61 -2.71628 -1.54716 0
M  V30 23871 H 2156.83 -3.88895 0.644535 0
M  V30 23872 H 2158.12 -5.07473 0.367248 0
M  V30 23873 H 2157.51 -4.90993 -2.80966 0
M  V30 23874 H 2156.07 -5.83828 -2.89808 0
M  V30 23875 N 2159.5 -0.52156 -1.4872 0
M  V30 23876 C 2160.75 0.0156187 -2.02794 0
M  V30 23877 C 2161.08 1.34729 -1.39863 0
M  V30 23878 O 2160.36 1.86812 -0.541426 0
M  V30 23879 C 2160.64 0.146526 -3.59802 0
M  V30 23880 C 2160.49 -1.20972 -4.33227 0
M  V30 23881 C 2161.81 0.87737 -4.31266 0
M  V30 23882 H 2158.93 0.00420207 -0.736988 0
M  V30 23883 H 2161.57 -0.676958 -1.77531 0
M  V30 23884 H 2159.72 0.736393 -3.81457 0
M  V30 23885 H 2161.4 -1.84005 -4.23013 0
M  V30 23886 H 2159.64 -1.79378 -3.94976 0
M  V30 23887 H 2160.31 -1.07121 -5.41506 0
M  V30 23888 H 2162.79 0.376892 -4.1439 0
M  V30 23889 H 2161.66 0.937846 -5.40829 0
M  V30 23890 H 2161.92 1.92578 -3.97953 0
M  V30 23891 N 2160.98 1.55502 -0.256304 0
M  V30 23892 C 2162.4 1.59297 0.0983236 0
M  V30 23893 C 2162.6 1.27351 1.56154 0
M  V30 23894 O 2161.65 1.02533 2.30745 0
M  V30 23895 C 2162.97 2.9958 -0.259346 0
M  V30 23896 C 2164.52 3.12332 -0.204415 0
M  V30 23897 C 2164.99 4.5485 -0.536252 0
M  V30 23898 N 2166.48 4.60632 -0.487101 0
M  V30 23899 C 2167.22 5.68901 -0.716903 0
M  V30 23900 N 2166.71 6.85393 -1.01033 0
M  V30 23901 N 2168.51 5.58364 -0.646972 0
M  V30 23902 H 2160.66 1.74536 -1.21042 0
M  V30 23903 H 2162.92 0.812935 -0.487689 0
M  V30 23904 H 2162.63 3.27727 -1.27624 0
M  V30 23905 H 2162.5 3.74976 0.409004 0
M  V30 23906 H 2164.89 2.8396 0.803168 0
M  V30 23907 H 2164.97 2.3919 -0.906752 0
M  V30 23908 H 2164.61 4.83944 -1.54143 0
M  V30 23909 H 2164.54 5.26265 0.187668 0
M  V30 23910 H 2167.03 3.76938 -0.269421 0
M  V30 23911 H 2167.35 7.63848 -1.17285 0
M  V30 23912 H 2165.69 6.87055 -1.0479 0
M  V30 23913 H 2168.88 4.66233 -0.417713 0
M  V30 23914 H 2169.05 6.42669 -0.829457 0
M  V30 23915 N 2162.46 -0.0166879 1.57591 0
M  V30 23916 C 2163.71 -0.703596 1.89457 0
M  V30 23917 C 2164.03 -1.75229 0.855563 0
M  V30 23918 O 2163.3 -1.95595 -0.109241 0
M  V30 23919 H 2161.88 -0.262861 0.699223 0
M  V30 23920 H 2164.54 0.0202908 1.94889 0
M  V30 23921 H 2163.64 -1.18538 2.88713 0
M  V30 23922 N 2163.94 -1.54924 -0.289176 0
M  V30 23923 C 2165.22 -1.65459 -1.04319 0
M  V30 23924 C 2165.6 -0.510528 -2.04834 0
M  V30 23925 O 2164.94 0.491374 -2.23154 0
M  V30 23926 C 2165.15 -3.03984 -1.71449 0
M  V30 23927 C 2166.5 -3.61196 -2.2321 0
M  V30 23928 O 2167.53 -3.06513 -1.81462 0
M  V30 23929 O 2166.38 -4.56967 -2.99739 0
M  V30 23930 H 2163.48 -0.671376 -0.482891 0
M  V30 23931 H 2166.02 -1.67267 -0.286321 0
M  V30 23932 H 2164.8 -3.78693 -0.985267 0
M  V30 23933 H 2164.42 -3.06005 -2.53863 0
M  V30 23934 N 2165.42 0.552936 -1.47582 0
M  V30 23935 C 2166.66 1.32065 -1.56007 0
M  V30 23936 C 2167.02 1.90747 -0.219017 0
M  V30 23937 O 2168.22 2.68209 -0.178138 0
M  V30 23938 C 2166.49 2.39794 -2.65016 0
M  V30 23939 S 2168.05 3.26596 -2.93054 0
M  V30 23940 H 2164.87 0.449542 -0.550847 0
M  V30 23941 H 2167.47 0.632535 -1.84984 0
M  V30 23942 H 2166.18 1.95125 -3.61046 0
M  V30 23943 H 2165.71 3.13341 -2.37867 0
M  V30 23944 H 2167.72 4.39364 -2.30595 0
M  V30 23945 N 2166.89 1.35785 0.800009 0
M  V30 23946 C 2168.14 1.2917 1.55434 0
M  V30 23947 C 2168.46 -0.131766 1.94554 0
M  V30 23948 O 2167.73 -1.06968 1.64118 0
M  V30 23949 H 2166.31 0.475134 0.576417 0
M  V30 23950 H 2168.98 1.69963 0.953872 0
M  V30 23951 H 2168.07 1.912 2.46676 0
M  V30 23952 N 2168.37 -1.02294 1.19891 0
M  V30 23953 C 2169.32 -2.12815 0.938741 0
M  V30 23954 C 2170.31 -1.69058 -0.107611 0
M  V30 23955 O 2171.52 -1.79951 0.042175 0
M  V30 23956 H 2167.9 -0.695408 0.286203 0
M  V30 23957 H 2169.87 -2.31946 1.87732 0
M  V30 23958 C 2168.62 -3.4408 0.500448 0
M  V30 23959 H 2167.94 -3.78172 1.29716 0
M  V30 23960 H 2169.38 -4.2249 0.357569 0
M  V30 23961 C 2167.84 -3.27596 -0.786307 0
M  V30 23962 O 2168.37 -3.56756 -1.84629 0
M  V30 23963 N 2166.57 -2.80865 -0.745861 0
M  V30 23964 H 2166.12 -2.57334 0.116994 0
M  V30 23965 H 2166.08 -2.70217 -1.60718 0
M  V30 23966 N 2169.85 -1.00378 -1.21499 0
M  V30 23967 C 2171.26 -0.719279 -1.72288 0
M  V30 23968 C 2171.61 0.763155 -1.8075 0
M  V30 23969 O 2170.74 1.59617 -1.46121 0
M  V30 23970 C 2171.33 -1.299 -3.12908 0
M  V30 23971 C 2169.89 -1.06365 -3.61059 0
M  V30 23972 C 2169.04 -1.41257 -2.38625 0
M  V30 23973 H 2171.99 -1.17483 -1.06694 0
M  V30 23974 H 2172.01 -0.683038 -3.74319 0
M  V30 23975 H 2171.52 -2.37794 -3.06718 0
M  V30 23976 H 2169.62 -0.00182202 -3.726 0
M  V30 23977 H 2169.74 -1.73468 -4.46593 0
M  V30 23978 H 2168.1 -0.831332 -2.40751 0
M  V30 23979 H 2168.88 -2.50179 -2.35086 0
M  V30 23980 N 2171.33 1.37038 -0.778354 0
M  V30 23981 C 2172.55 2.0432 -0.356086 0
M  V30 23982 C 2172.98 1.58315 1.01577 0
M  V30 23983 O 2172.34 0.74645 1.65221 0
M  V30 23984 C 2172.38 3.58196 -0.41573 0
M  V30 23985 O 2171.49 4.08281 0.581416 0
M  V30 23986 H 2170.83 0.646127 -0.153022 0
M  V30 23987 H 2173.36 1.75219 -1.05639 0
M  V30 23988 H 2173.37 4.0707 -0.275375 0
M  V30 23989 H 2172.04 3.91034 -1.41652 0
M  V30 23990 H 2170.62 3.70709 0.403635 0
M  V30 23991 N 2172.81 0.529439 1.48441 0
M  V30 23992 C 2174.05 -0.00486384 2.02799 0
M  V30 23993 C 2174.39 -1.33985 1.40576 0
M  V30 23994 O 2173.66 -1.86523 0.551326 0
M  V30 23995 C 2173.94 -0.127443 3.59874 0
M  V30 23996 C 2173.8 1.23268 4.3258 0
M  V30 23997 C 2175.12 -0.854486 4.31725 0
M  V30 23998 H 2172.24 -0.00029358 0.737 0
M  V30 23999 H 2174.88 0.686364 1.7717 0
M  V30 24000 H 2173.03 -0.716153 3.81842 0
M  V30 24001 H 2174.7 1.86245 4.22031 0
M  V30 24002 H 2172.94 1.8147 3.94019 0
M  V30 24003 H 2173.61 1.09991 5.40931 0
M  V30 24004 H 2176.09 -0.354911 4.14584 0
M  V30 24005 H 2174.97 -0.909151 5.41318 0
M  V30 24006 H 2175.23 -1.90464 3.98968 0
M  V30 24007 N 2174.29 -1.55364 0.264547 0
M  V30 24008 C 2175.53 -1.98966 -0.354543 0
M  V30 24009 C 2175.85 -1.15427 -1.57168 0
M  V30 24010 O 2175.12 -0.241233 -1.94409 0
M  V30 24011 H 2173.7 -0.734885 -0.133986 0
M  V30 24012 H 2176.37 -1.91405 0.367431 0
M  V30 24013 H 2175.46 -3.05221 -0.651647 0
M  V30 24014 N 2175.76 0.00833021 -1.57598 0
M  V30 24015 C 2177.01 0.69406 -1.89382 0
M  V30 24016 C 2177.33 1.75397 -0.865751 0
M  V30 24017 O 2178.53 2.49374 -1.07353 0
M  V30 24018 C 2176.99 1.28562 -3.36154 0
M  V30 24019 C 2176.6 0.260972 -4.47239 0
M  V30 24020 C 2178.34 1.95003 -3.7706 0
M  V30 24021 C 2176.25 0.862051 -5.85083 0
M  V30 24022 H 2175.18 0.262992 -0.706648 0
M  V30 24023 H 2177.83 -0.0508492 -1.8343 0
M  V30 24024 H 2176.21 2.08092 -3.36918 0
M  V30 24025 H 2177.38 -0.50913 -4.57979 0
M  V30 24026 H 2175.7 -0.302516 -4.153 0
M  V30 24027 H 2178.3 2.40863 -4.77377 0
M  V30 24028 H 2178.64 2.77706 -3.10137 0
M  V30 24029 H 2179.17 1.22218 -3.7856 0
M  V30 24030 H 2175.91 0.0739761 -6.55458 0
M  V30 24031 H 2175.43 1.60151 -5.78024 0
M  V30 24032 H 2177.11 1.3632 -6.32476 0
M  V30 24033 N 2177.24 1.55075 0.280956 0
M  V30 24034 C 2178.49 1.75306 1.01361 0
M  V30 24035 C 2178.82 0.549775 1.86568 0
M  V30 24036 O 2178.07 -0.467908 1.90024 0
M  V30 24037 C 2178.37 3.00658 1.93234 0
M  V30 24038 C 2178.04 4.3356 1.23841 0
M  V30 24039 C 2176.7 4.69683 1.0465 0
M  V30 24040 C 2179.05 5.15863 0.743962 0
M  V30 24041 C 2176.38 5.85671 0.347296 0
M  V30 24042 C 2178.73 6.32573 0.0583841 0
M  V30 24043 C 2177.39 6.67342 -0.145308 0
M  V30 24044 H 2176.66 0.641491 0.370905 0
M  V30 24045 H 2179.31 1.89343 0.286608 0
M  V30 24046 H 2177.62 2.81488 2.72529 0
M  V30 24047 H 2179.31 3.13507 2.50029 0
M  V30 24048 H 2175.9 4.05163 1.39788 0
M  V30 24049 H 2180.09 4.88438 0.879877 0
M  V30 24050 H 2175.34 6.11139 0.178683 0
M  V30 24051 H 2179.52 6.95606 -0.332548 0
M  V30 24052 H 2177.14 7.5707 -0.689091 0
M  V30 24053 N 2178.72 -0.545102 1.47873 0
M  V30 24054 C 2179.95 -1.3249 1.58525 0
M  V30 24055 C 2180.36 -1.87685 0.238932 0
M  V30 24056 O 2179.7 -1.6633 -0.779752 0
M  V30 24057 C 2179.76 -2.52362 2.56035 0
M  V30 24058 C 2179.43 -2.18364 4.01455 0
M  V30 24059 C 2180.42 -1.74934 4.89586 0
M  V30 24060 C 2178.11 -2.29352 4.46882 0
M  V30 24061 C 2180.1 -1.42937 6.21167 0
M  V30 24062 C 2177.79 -1.96966 5.78487 0
M  V30 24063 C 2178.79 -1.53828 6.65452 0
M  V30 24064 O 2178.48 -1.2186 7.9461 0
M  V30 24065 H 2178.21 -0.409737 0.537672 0
M  V30 24066 H 2180.76 -0.665921 1.94306 0
M  V30 24067 H 2178.99 -3.21191 2.15345 0
M  V30 24068 H 2180.68 -3.14433 2.56684 0
M  V30 24069 H 2181.45 -1.65929 4.55733 0
M  V30 24070 H 2177.33 -2.61886 3.7939 0
M  V30 24071 H 2180.87 -1.09193 6.89001 0
M  V30 24072 H 2176.77 -2.05608 6.11879 0
M  V30 24073 H 2177.53 -1.35388 8.07225 0
M  V30 24074 N 2180.2 -1.36208 -0.792797 0
M  V30 24075 C 2181.44 -1.30249 -1.55053 0
M  V30 24076 C 2181.77 0.119193 -1.94134 0
M  V30 24077 O 2181.03 1.08769 -1.62689 0
M  V30 24078 C 2181.33 -2.16771 -2.84157 0
M  V30 24079 C 2180.99 -3.65368 -2.64229 0
M  V30 24080 C 2179.65 -4.0587 -2.58502 0
M  V30 24081 C 2182.01 -4.59598 -2.45804 0
M  V30 24082 C 2179.33 -5.38747 -2.32312 0
M  V30 24083 C 2181.69 -5.92688 -2.21141 0
M  V30 24084 C 2180.35 -6.32318 -2.13845 0
M  V30 24085 H 2179.62 -0.476617 -0.567378 0
M  V30 24086 H 2182.27 -1.6823 -0.914933 0
M  V30 24087 H 2180.57 -1.71716 -3.52166 0
M  V30 24088 H 2182.27 -2.09488 -3.41929 0
M  V30 24089 H 2178.86 -3.33236 -2.6954 0
M  V30 24090 H 2183.04 -4.29182 -2.49231 0
M  V30 24091 H 2178.3 -5.68437 -2.25143 0
M  V30 24092 H 2182.47 -6.65272 -2.05878 0
M  V30 24093 H 2180.1 -7.3521 -1.93314 0
M  V30 24094 N 2181.68 1.01656 -1.20431 0
M  V30 24095 C 2182.92 1.75515 -1.016 0
M  V30 24096 C 2183.25 1.88896 0.450791 0
M  V30 24097 O 2182.53 1.4148 1.33468 0
M  V30 24098 C 2182.81 3.17433 -1.70024 0
M  V30 24099 C 2182.67 3.11847 -3.24147 0
M  V30 24100 C 2183.98 4.16105 -1.43334 0
M  V30 24101 H 2181.1 0.637102 -0.370501 0
M  V30 24102 H 2183.75 1.18591 -1.48446 0
M  V30 24103 H 2181.9 3.66035 -1.30195 0
M  V30 24104 H 2183.57 2.71049 -3.7327 0
M  V30 24105 H 2181.81 2.49242 -3.55051 0
M  V30 24106 H 2182.48 4.12169 -3.6718 0
M  V30 24107 H 2184.96 3.76159 -1.77887 0
M  V30 24108 H 2183.83 5.13571 -1.93741 0
M  V30 24109 H 2184.09 4.40624 -0.360952 0
M  V30 24110 N 2183.15 1.01021 1.20965 0
M  V30 24111 C 2184.38 0.714661 1.94698 0
M  V30 24112 C 2184.8 -0.717235 1.73889 0
M  V30 24113 O 2184.16 -1.49265 1.02906 0
M  V30 24114 C 2184.21 1.04769 3.45045 0
M  V30 24115 O 2183.31 0.155818 4.12106 0
M  V30 24116 H 2182.65 0.265768 0.608493 0
M  V30 24117 H 2185.18 1.35186 1.53577 0
M  V30 24118 H 2185.19 0.996722 3.95638 0
M  V30 24119 H 2183.87 2.09099 3.59514 0
M  V30 24120 H 2182.45 0.263764 3.71966 0
M  V30 24121 N 2184.63 -1.36623 0.78561 0
M  V30 24122 C 2185.86 -2.03305 0.367534 0
M  V30 24123 C 2186.27 -1.59374 -1.01963 0
M  V30 24124 O 2185.61 -0.77687 -1.66464 0
M  V30 24125 C 2185.67 -3.57815 0.347627 0
M  V30 24126 C 2185.34 -4.24932 1.68172 0
M  V30 24127 C 2186.34 -4.48087 2.63656 0
M  V30 24128 C 2184.02 -4.62483 1.95997 0
M  V30 24129 C 2186.01 -5.07868 3.85161 0
M  V30 24130 C 2183.7 -5.21982 3.17771 0
M  V30 24131 C 2184.7 -5.44613 4.12172 0
M  V30 24132 O 2184.39 -6.02864 5.31799 0
M  V30 24133 H 2184.12 -0.659134 0.150061 0
M  V30 24134 H 2186.67 -1.75659 1.06456 0
M  V30 24135 H 2184.9 -3.84564 -0.405872 0
M  V30 24136 H 2186.59 -4.05875 -0.0452626 0
M  V30 24137 H 2187.36 -4.19476 2.43444 0
M  V30 24138 H 2183.24 -4.44194 1.2334 0
M  V30 24139 H 2186.78 -5.25448 4.58857 0
M  V30 24140 H 2182.68 -5.50018 3.37861 0
M  V30 24141 H 2183.45 -6.21333 5.32811 0
M  V30 24142 N 2186.11 -0.537304 -1.48158 0
M  V30 24143 C 2187.36 -0.00384223 -2.017 0
M  V30 24144 C 2187.67 1.34625 -1.419 0
M  V30 24145 O 2188.88 1.96849 -1.86983 0
M  V30 24146 C 2187.33 0.0435291 -3.59874 0
M  V30 24147 C 2186.94 -1.30211 -4.2866 0
M  V30 24148 C 2188.69 0.525433 -4.21236 0
M  V30 24149 C 2186.59 -1.21492 -5.78786 0
M  V30 24150 H 2185.52 0.00233368 -0.753996 0
M  V30 24151 H 2188.17 -0.682181 -1.70348 0
M  V30 24152 H 2186.56 0.7871 -3.88099 0
M  V30 24153 H 2187.73 -2.06182 -4.12099 0
M  V30 24154 H 2186.04 -1.72034 -3.79201 0
M  V30 24155 H 2188.64 0.608744 -5.31223 0
M  V30 24156 H 2188.98 1.5329 -3.8705 0
M  V30 24157 H 2189.52 -0.162674 -3.97467 0
M  V30 24158 H 2186.26 -2.19778 -6.17558 0
M  V30 24159 H 2185.78 -0.496694 -5.9774 0
M  V30 24160 H 2187.46 -0.908641 -6.40588 0
M  V30 24161 N 2187.59 1.55221 -0.272782 0
M  V30 24162 C 2188.52 2.25408 0.609392 0
M  V30 24163 C 2189.5 1.2434 1.16076 0
M  V30 24164 O 2190.68 1.53054 1.19533 0
M  V30 24165 C 2187.81 2.97338 1.79464 0
M  V30 24166 C 2186.77 4.05315 1.37491 0
M  V30 24167 C 2186.09 4.64808 2.64307 0
M  V30 24168 C 2187.39 5.19636 0.526828 0
M  V30 24169 H 2189.09 2.9939 0.0240678 0
M  V30 24170 H 2186.63 1.43996 0.0101357 0
M  V30 24171 H 2188.59 3.45149 2.41765 0
M  V30 24172 H 2187.31 2.20887 2.40576 0
M  V30 24173 H 2185.97 3.58312 0.775106 0
M  V30 24174 H 2185.62 3.85027 3.23672 0
M  V30 24175 H 2185.32 5.37713 2.36935 0
M  V30 24176 H 2186.84 5.15366 3.2746 0
M  V30 24177 H 2188.26 5.63513 1.05478 0
M  V30 24178 H 2186.65 5.9909 0.348095 0
M  V30 24179 H 2187.72 4.82761 -0.454948 0
M  V30 24180 N 2189.07 2.77022e-05 1.576 0
M  V30 24181 C 2190.32 -0.684007 1.89748 0
M  V30 24182 C 2190.63 -1.74935 0.875041 0
M  V30 24183 O 2191.83 -2.48802 1.08674 0
M  V30 24184 C 2190.29 -1.26778 3.36831 0
M  V30 24185 C 2189.9 -0.23725 4.47371 0
M  V30 24186 C 2191.64 -1.93 3.78089 0
M  V30 24187 C 2189.55 -0.831011 5.85532 0
M  V30 24188 H 2188.48 -0.259241 0.708033 0
M  V30 24189 H 2191.13 0.0605762 1.834 0
M  V30 24190 H 2189.51 -2.06303 3.38017 0
M  V30 24191 H 2190.69 0.53341 4.57702 0
M  V30 24192 H 2189 0.324536 4.15133 0
M  V30 24193 H 2191.6 -2.38328 4.78648 0
M  V30 24194 H 2191.94 -2.76058 3.11605 0
M  V30 24195 H 2192.47 -1.20209 3.79203 0
M  V30 24196 H 2189.21 -0.0392145 6.55488 0
M  V30 24197 H 2188.73 -1.57083 5.78865 0
M  V30 24198 H 2190.41 -1.32963 6.3319 0
M  V30 24199 N 2190.54 -1.55222 -0.272728 0
M  V30 24200 C 2191.77 -1.80199 -1.02679 0
M  V30 24201 C 2192.19 -0.573583 -1.79141 0
M  V30 24202 O 2191.55 0.476818 -1.74918 0
M  V30 24203 C 2191.6 -3.02627 -1.96084 0
M  V30 24204 O 2190.7 -2.77732 -3.04858 0
M  V30 24205 H 2190.05 -0.595589 -0.293547 0
M  V30 24206 H 2192.58 -2.02366 -0.301554 0
M  V30 24207 H 2192.59 -3.31367 -2.38033 0
M  V30 24208 H 2191.26 -3.91684 -1.39844 0
M  V30 24209 H 2189.84 -2.60089 -2.67223 0
M  V30 24210 N 2192.02 0.537252 -1.4816 0
M  V30 24211 C 2193.27 1.29294 -1.57018 0
M  V30 24212 C 2193.62 1.90924 -0.237825 0
M  V30 24213 O 2192.92 1.75943 0.75859 0
M  V30 24214 C 2193.11 2.40956 -2.6396 0
M  V30 24215 C 2192.94 1.9027 -4.07464 0
M  V30 24216 C 2191.71 1.73204 -4.74688 0
M  V30 24217 C 2193.91 1.43548 -4.93861 0
M  V30 24218 N 2191.89 1.17067 -6.02635 0
M  V30 24219 C 2193.26 0.993096 -6.11995 0
M  V30 24220 C 2195.32 1.31783 -4.80143 0
M  V30 24221 C 2194.02 0.444745 -7.17924 0
M  V30 24222 C 2196.04 0.783482 -5.86187 0
M  V30 24223 C 2195.41 0.351137 -7.03524 0
M  V30 24224 H 2191.51 0.464412 -0.629162 0
M  V30 24225 H 2194.09 0.606673 -1.85007 0
M  V30 24226 H 2192.26 3.07088 -2.37805 0
M  V30 24227 H 2193.99 3.07981 -2.62545 0
M  V30 24228 H 2190.75 1.96513 -4.30906 0
M  V30 24229 H 2191.17 0.910303 -6.70852 0
M  V30 24230 H 2195.81 1.63816 -3.89774 0
M  V30 24231 H 2193.53 0.112078 -8.08022 0
M  V30 24232 H 2197.12 0.695733 -5.77625 0
M  V30 24233 H 2196 -0.0559148 -7.8418 0
M  V30 24234 N 2193.5 1.36626 0.785562 0
M  V30 24235 C 2194.43 1.33953 1.91256 0
M  V30 24236 C 2195.41 0.210355 1.68794 0
M  V30 24237 O 2196.6 0.408594 1.89853 0
M  V30 24238 C 2193.73 1.13191 3.28337 0
M  V30 24239 C 2192.68 2.22974 3.65331 0
M  V30 24240 C 2192.01 1.87351 5.00803 0
M  V30 24241 C 2193.31 3.65082 3.73514 0
M  V30 24242 H 2195 2.28257 1.93751 0
M  V30 24243 H 2192.55 1.09876 0.930768 0
M  V30 24244 H 2194.5 1.09955 4.06802 0
M  V30 24245 H 2193.22 0.15339 3.2624 0
M  V30 24246 H 2191.88 2.25342 2.89165 0
M  V30 24247 H 2191.53 0.880632 4.95231 0
M  V30 24248 H 2191.23 2.60855 5.26525 0
M  V30 24249 H 2192.75 1.85677 5.81684 0
M  V30 24250 H 2194.17 3.64919 4.42162 0
M  V30 24251 H 2192.57 4.37523 4.10723 0
M  V30 24252 H 2193.64 3.99708 2.7452 0
M  V30 24253 N 2194.98 -1.01016 1.20969 0
M  V30 24254 C 2196.23 -1.74126 1.01799 0
M  V30 24255 C 2196.54 -1.90361 -0.449657 0
M  V30 24256 O 2197.75 -2.60627 -0.760634 0
M  V30 24257 C 2196.2 -3.13211 1.77276 0
M  V30 24258 C 2195.81 -3.04967 3.28176 0
M  V30 24259 C 2197.55 -3.90486 1.66496 0
M  V30 24260 C 2195.46 -4.391 3.96164 0
M  V30 24261 H 2194.39 -0.652817 0.377288 0
M  V30 24262 H 2197.04 -1.12906 1.44653 0
M  V30 24263 H 2195.42 -3.75011 1.27211 0
M  V30 24264 H 2196.6 -2.52436 3.85503 0
M  V30 24265 H 2194.91 -2.41182 3.39441 0
M  V30 24266 H 2197.51 -4.89734 2.14626 0
M  V30 24267 H 2197.85 -4.11623 0.622272 0
M  V30 24268 H 2198.39 -3.35328 2.14009 0
M  V30 24269 H 2195.13 -4.23165 5.00611 0
M  V30 24270 H 2194.65 -4.91611 3.43625 0
M  V30 24271 H 2196.32 -5.07919 4.00783 0
M  V30 24272 N 2196.46 -1.01661 -1.20428 0
M  V30 24273 C 2197.71 -0.70127 -1.89117 0
M  V30 24274 C 2198.02 0.772326 -1.79707 0
M  V30 24275 O 2199.22 1.20022 -2.4353 0
M  V30 24276 C 2197.68 -1.20394 -3.39166 0
M  V30 24277 C 2197.29 -2.70444 -3.57161 0
M  V30 24278 C 2199.03 -0.964026 -4.13409 0
M  V30 24279 C 2196.94 -3.14191 -5.01037 0
M  V30 24280 H 2195.87 -0.258613 -0.708262 0
M  V30 24281 H 2198.52 -1.2293 -1.36237 0
M  V30 24282 H 2196.9 -0.603893 -3.91368 0
M  V30 24283 H 2198.08 -3.35998 -3.15345 0
M  V30 24284 H 2196.39 -2.92578 -2.96289 0
M  V30 24285 H 2198.99 -1.2663 -5.19489 0
M  V30 24286 H 2199.33 0.0995048 -4.16181 0
M  V30 24287 H 2199.86 -1.52745 -3.67306 0
M  V30 24288 H 2196.6 -4.19821 -5.03419 0
M  V30 24289 H 2196.12 -2.53358 -5.43663 0
M  V30 24290 H 2197.8 -3.0683 -5.69618 0
M  V30 24291 N 2197.93 1.36205 -0.792844 0
M  V30 24292 C 2199.18 1.99445 -0.367365 0
M  V30 24293 C 2199.51 1.62776 1.05914 0
M  V30 24294 O 2198.79 0.884241 1.73238 0
M  V30 24295 C 2199.07 3.56102 -0.535107 0
M  V30 24296 C 2198.92 4.02614 -2.00555 0
M  V30 24297 C 2200.24 4.40074 0.0477417 0
M  V30 24298 H 2197.36 0.724539 -0.134954 0
M  V30 24299 H 2200 1.61566 -0.999822 0
M  V30 24300 H 2198.15 3.885 0.003295 0
M  V30 24301 H 2199.83 3.80688 -2.60527 0
M  V30 24302 H 2198.07 3.54028 -2.50693 0
M  V30 24303 H 2198.74 5.11561 -2.07386 0
M  V30 24304 H 2201.22 4.14056 -0.411895 0
M  V30 24305 H 2200.09 5.4881 -0.0996301 0
M  V30 24306 H 2200.35 4.27144 1.14018 0
M  V30 24307 N 2199.41 0.545154 1.47871 0
M  V30 24308 C 2200.36 -0.222471 2.31534 0
M  V30 24309 C 2201.35 -0.92096 1.42178 0
M  V30 24310 O 2202.56 -0.843617 1.59007 0
M  V30 24311 H 2198.94 -0.0906147 0.746521 0
M  V30 24312 H 2200.91 0.502511 2.94138 0
M  V30 24313 C 2199.66 -1.24693 3.24572 0
M  V30 24314 H 2198.98 -0.718875 3.93284 0
M  V30 24315 H 2200.42 -1.75516 3.85967 0
M  V30 24316 C 2198.88 -2.28852 2.47241 0
M  V30 24317 O 2199.41 -3.35565 2.20814 0
M  V30 24318 N 2197.61 -2.02462 2.08465 0
M  V30 24319 H 2197.16 -1.15696 2.30157 0
M  V30 24320 H 2197.12 -2.72372 1.57038 0
M  V30 24321 N 2200.89 -1.55074 0.28101 0
M  V30 24322 C 2201.82 -2.18883 -0.645401 0
M  V30 24323 C 2202.8 -1.15167 -1.14784 0
M  V30 24324 O 2203.99 -1.43718 -1.21973 0
M  V30 24325 C 2201.11 -2.81678 -1.88083 0
M  V30 24326 C 2200.16 -3.98748 -1.51336 0
M  V30 24327 S 2200.99 -5.32279 -0.586455 0
M  V30 24328 C 2202.15 -5.98546 -1.83013 0
M  V30 24329 H 2202.38 -2.97121 -0.103248 0
M  V30 24330 H 2199.91 -1.54262 0.065237 0
M  V30 24331 H 2201.87 -3.18486 -2.58992 0
M  V30 24332 H 2200.53 -2.03323 -2.39413 0
M  V30 24333 H 2199.73 -4.41396 -2.43281 0
M  V30 24334 H 2199.33 -3.63393 -0.884413 0
M  V30 24335 H 2201.62 -6.18137 -2.77331 0
M  V30 24336 H 2202.56 -6.93167 -1.44656 0
M  V30 24337 H 2202.97 -5.27968 -1.99775 0
M  V30 24338 N 2202.37 -0.00838561 -1.57598 0
M  V30 24339 C 2203.6 0.684462 -1.94932 0
M  V30 24340 C 2204.01 1.6737 -0.882262 0
M  V30 24341 O 2203.35 1.83114 0.146589 0
M  V30 24342 C 2203.41 1.46485 -3.28302 0
M  V30 24343 C 2203.08 0.63626 -4.52549 0
M  V30 24344 C 2204.07 -0.07965 -5.19839 0
M  V30 24345 C 2201.76 0.579761 -4.98943 0
M  V30 24346 C 2203.75 -0.840954 -6.31828 0
M  V30 24347 C 2201.44 -0.185262 -6.10819 0
M  V30 24348 C 2202.44 -0.894346 -6.77119 0
M  V30 24349 O 2202.13 -1.64687 -7.8685 0
M  V30 24350 H 2201.86 0.195038 -0.647253 0
M  V30 24351 H 2204.41 -0.0581632 -2.05318 0
M  V30 24352 H 2202.64 2.25214 -3.14349 0
M  V30 24353 H 2204.33 2.04383 -3.50689 0
M  V30 24354 H 2205.1 -0.0452054 -4.84979 0
M  V30 24355 H 2200.98 1.12122 -4.47157 0
M  V30 24356 H 2204.52 -1.39495 -6.83511 0
M  V30 24357 H 2200.42 -0.221498 -6.4512 0
M  V30 24358 H 2201.18 -1.56446 -8.0341 0
M  V30 24359 N 2203.85 1.55365 0.264492 0
M  V30 24360 C 2205.1 1.75575 0.992781 0
M  V30 24361 C 2205.41 0.569012 1.87141 0
M  V30 24362 O 2206.62 0.653728 2.63512 0
M  V30 24363 C 2205.07 3.10775 1.81514 0
M  V30 24364 C 2204.68 4.37043 0.984762 0
M  V30 24365 C 2206.42 3.40332 2.53721 0
M  V30 24366 C 2204.33 5.63278 1.80199 0
M  V30 24367 H 2203.26 0.654477 0.374401 0
M  V30 24368 H 2205.91 1.81815 0.248106 0
M  V30 24369 H 2204.29 2.98595 2.60109 0
M  V30 24370 H 2205.47 4.60162 0.242374 0
M  V30 24371 H 2203.78 4.14691 0.376837 0
M  V30 24372 H 2206.38 4.31856 3.15285 0
M  V30 24373 H 2206.72 2.60851 3.24442 0
M  V30 24374 H 2207.26 3.53647 1.8215 0
M  V30 24375 H 2203.99 6.45531 1.13884 0
M  V30 24376 H 2203.51 5.44288 2.52013 0
M  V30 24377 H 2205.19 6.01891 2.37353 0
M  V30 24378 N 2205.33 -0.529387 1.48443 0
M  V30 24379 C 2206.57 -1.28709 1.56722 0
M  V30 24380 C 2206.9 -1.92703 0.240634 0
M  V30 24381 O 2206.18 -1.79315 -0.753422 0
M  V30 24382 C 2206.46 -2.37598 2.70591 0
M  V30 24383 C 2206.32 -1.7829 4.12956 0
M  V30 24384 C 2207.63 -3.39361 2.80218 0
M  V30 24385 H 2204.75 -0.466603 0.570483 0
M  V30 24386 H 2207.4 -0.589675 1.80618 0
M  V30 24387 H 2205.55 -2.97084 2.50347 0
M  V30 24388 H 2207.22 -1.2285 4.44641 0
M  V30 24389 H 2205.46 -1.08822 4.19929 0
M  V30 24390 H 2206.13 -2.57135 4.88452 0
M  V30 24391 H 2208.61 -2.89831 2.98558 0
M  V30 24392 H 2207.48 -4.12945 3.61618 0
M  V30 24393 H 2207.74 -3.99947 1.884 0
M  V30 24394 N 2206.8 -1.37041 -0.778305 0
M  V30 24395 C 2208.05 -1.32082 -1.5389 0
M  V30 24396 C 2208.38 0.0965045 -1.9396 0
M  V30 24397 O 2207.66 1.05239 -1.6357 0
M  V30 24398 C 2207.94 -2.25387 -2.80843 0
M  V30 24399 C 2207.79 -3.75868 -2.47069 0
M  V30 24400 C 2209.11 -2.17257 -3.82737 0
M  V30 24401 H 2206.23 -0.48112 -0.558294 0
M  V30 24402 H 2208.87 -1.67687 -0.893368 0
M  V30 24403 H 2207.02 -1.95153 -3.35928 0
M  V30 24404 H 2208.7 -4.1667 -1.9795 0
M  V30 24405 H 2206.94 -3.94758 -1.79856 0
M  V30 24406 H 2207.61 -4.36579 -3.3779 0
M  V30 24407 H 2210.09 -2.43893 -3.37128 0
M  V30 24408 H 2208.96 -2.84694 -4.69298 0
M  V30 24409 H 2209.22 -1.16339 -4.26518 0
M  V30 24410 N 2208.28 1.00373 -1.21503 0
M  V30 24411 C 2209.53 1.74427 -1.03456 0
M  V30 24412 C 2209.86 1.89363 0.430731 0
M  V30 24413 O 2209.14 1.42888 1.31959 0
M  V30 24414 C 2209.42 3.15612 -1.73381 0
M  V30 24415 C 2209.27 3.08391 -3.27437 0
M  V30 24416 C 2210.59 4.14561 -1.47739 0
M  V30 24417 H 2207.71 0.633136 -0.377237 0
M  V30 24418 H 2210.35 1.1701 -1.49695 0
M  V30 24419 H 2208.5 3.64633 -1.3407 0
M  V30 24420 H 2210.17 2.67075 -3.76123 0
M  V30 24421 H 2208.42 2.45462 -3.57674 0
M  V30 24422 H 2209.09 4.08251 -3.71531 0
M  V30 24423 H 2211.56 3.74251 -1.81866 0
M  V30 24424 H 2210.44 5.11488 -1.99178 0
M  V30 24425 H 2210.7 4.40216 -0.407666 0
M  V30 24426 N 2209.76 1.02298 1.19887 0
M  V30 24427 C 2210.69 0.543321 2.21638 0
M  V30 24428 C 2211.67 -0.41267 1.57276 0
M  V30 24429 O 2212.85 -0.331166 1.85568 0
M  V30 24430 C 2209.98 -0.208511 3.38058 0
M  V30 24431 C 2209.03 0.698007 4.20749 0
M  V30 24432 S 2209.86 2.17083 4.89525 0
M  V30 24433 C 2211.02 1.42934 6.09361 0
M  V30 24434 H 2211.25 1.40546 2.61981 0
M  V30 24435 H 2208.78 0.83241 1.3004 0
M  V30 24436 H 2210.74 -0.636169 4.05541 0
M  V30 24437 H 2209.4 -1.0463 2.96161 0
M  V30 24438 H 2208.59 0.117919 5.03862 0
M  V30 24439 H 2208.2 1.06372 3.58554 0
M  V30 24440 H 2210.49 0.712756 6.7374 0
M  V30 24441 H 2211.43 2.23685 6.71841 0
M  V30 24442 H 2211.84 0.929425 5.56796 0
M  V30 24443 N 2211.24 -1.35782 0.800057 0
M  V30 24444 C 2212.15 -2.33683 0.207245 0
M  V30 24445 C 2213.16 -1.61552 -0.646282 0
M  V30 24446 O 2214.34 -1.9347 -0.55957 0
M  V30 24447 C 2211.4 -3.40749 -0.639599 0
M  V30 24448 C 2210.47 -4.28664 0.23366 0
M  V30 24449 C 2209.7 -5.30617 -0.572861 0
M  V30 24450 O 2209.92 -5.40986 -1.80806 0
M  V30 24451 O 2208.86 -6.01891 0.0328343 0
M  V30 24452 H 2212.68 -2.86167 1.01697 0
M  V30 24453 H 2210.27 -1.38438 0.561715 0
M  V30 24454 H 2212.15 -4.06184 -1.12216 0
M  V30 24455 H 2210.82 -2.90547 -1.42703 0
M  V30 24456 H 2209.73 -3.66232 0.763212 0
M  V30 24457 H 2211.06 -4.82246 0.984869 0
M  V30 24458 N 2212.72 -0.552988 -1.4758 0
M  V30 24459 C 2213.96 -0.0273599 -2.02482 0
M  V30 24460 C 2214.29 1.32078 -1.42778 0
M  V30 24461 O 2213.55 1.87172 -0.571426 0
M  V30 24462 C 2213.84 0.119666 -3.572 0
M  V30 24463 C 2213.51 -1.15705 -4.35802 0
M  V30 24464 C 2212.17 -1.50689 -4.56997 0
M  V30 24465 C 2214.52 -2.00327 -4.81164 0
M  V30 24466 C 2211.85 -2.70151 -5.20803 0
M  V30 24467 C 2214.2 -3.18988 -5.46287 0
M  V30 24468 C 2212.87 -3.5429 -5.65716 0
M  V30 24469 H 2212.14 -0.0100117 -0.740932 0
M  V30 24470 H 2214.79 -0.723651 -1.77301 0
M  V30 24471 H 2213.09 0.898893 -3.81349 0
M  V30 24472 H 2214.79 0.541648 -3.97325 0
M  V30 24473 H 2211.38 -0.874635 -4.19581 0
M  V30 24474 H 2215.56 -1.74607 -4.64571 0
M  V30 24475 H 2210.82 -2.97677 -5.3404 0
M  V30 24476 H 2214.99 -3.84849 -5.804 0
M  V30 24477 H 2212.62 -4.46953 -6.14929 0
M  V30 24478 N 2214.19 1.54923 -0.28923 0
M  V30 24479 C 2215.12 2.26041 0.58545 0
M  V30 24480 C 2216.1 1.25564 1.14751 0
M  V30 24481 O 2217.29 1.54313 1.17903 0
M  V30 24482 C 2214.42 2.99225 1.763 0
M  V30 24483 C 2213.37 4.06751 1.33184 0
M  V30 24484 C 2212.7 4.67585 2.59362 0
M  V30 24485 C 2214 5.20166 0.471684 0
M  V30 24486 H 2215.69 2.99399 -0.00768794 0
M  V30 24487 H 2213.24 1.43999 -0.0051376 0
M  V30 24488 H 2215.19 3.47694 2.38091 0
M  V30 24489 H 2213.92 2.23426 2.38219 0
M  V30 24490 H 2212.58 3.59114 0.737058 0
M  V30 24491 H 2212.22 3.88438 3.1957 0
M  V30 24492 H 2211.92 5.40196 2.31219 0
M  V30 24493 H 2213.45 5.1881 3.21976 0
M  V30 24494 H 2214.86 5.646 0.994956 0
M  V30 24495 H 2213.26 5.99425 0.284534 0
M  V30 24496 H 2214.33 4.82251 -0.506126 0
M  V30 24497 N 2215.67 0.0167433 1.57591 0
M  V30 24498 C 2216.62 -0.987316 2.10606 0
M  V30 24499 C 2217.61 -1.34505 1.02979 0
M  V30 24500 O 2218.82 -1.32873 1.21428 0
M  V30 24501 H 2215.19 -0.336122 0.672701 0
M  V30 24502 H 2217.17 -0.514766 2.93926 0
M  V30 24503 C 2215.91 -2.26478 2.63824 0
M  V30 24504 H 2215.24 -1.99823 3.46282 0
M  V30 24505 H 2216.68 -2.94971 3.04578 0
M  V30 24506 C 2215.14 -2.98607 1.55998 0
M  V30 24507 O 2215.67 -3.90242 0.95259 0
M  V30 24508 N 2213.87 -2.60725 1.28339 0
M  V30 24509 H 2213.42 -1.86288 1.77918 0
M  V30 24510 H 2213.38 -3.09297 0.564169 0
M  V30 24511 N 2217.15 -1.55503 -0.256249 0
M  V30 24512 C 2218.4 -1.761 -0.983455 0
M  V30 24513 C 2218.71 -0.578928 -1.86836 0
M  V30 24514 O 2219.92 -0.667694 -2.63162 0
M  V30 24515 C 2218.37 -3.11733 -1.79863 0
M  V30 24516 C 2217.98 -4.37559 -0.961571 0
M  V30 24517 C 2219.73 -3.41672 -2.51913 0
M  V30 24518 C 2217.63 -5.64226 -1.7721 0
M  V30 24519 H 2216.56 -0.656453 -0.370925 0
M  V30 24520 H 2219.21 -1.81944 -0.23846 0
M  V30 24521 H 2217.6 -2.9997 -2.58522 0
M  V30 24522 H 2218.77 -4.60284 -0.217967 0
M  V30 24523 H 2217.09 -4.14885 -0.35484 0
M  V30 24524 H 2219.68 -4.33522 -3.1299 0
M  V30 24525 H 2220.03 -2.62567 -3.23054 0
M  V30 24526 H 2220.56 -3.54608 -1.80271 0
M  V30 24527 H 2217.3 -6.46126 -1.10459 0
M  V30 24528 H 2216.82 -5.45617 -2.49123 0
M  V30 24529 H 2218.5 -6.03141 -2.34158 0
M  V30 24530 N 2218.63 0.521507 -1.48721 0
M  V30 24531 C 2219.59 1.60745 -1.63382 0
M  V30 24532 C 2220.59 1.5261 -0.506637 0
M  V30 24533 O 2221.78 1.56128 -0.772629 0
M  V30 24534 C 2218.91 3.0038 -1.61198 0
M  V30 24535 H 2220.11 1.49083 -2.6022 0
M  V30 24536 H 2217.66 0.744211 -1.37445 0
M  V30 24537 H 2218.39 3.1754 -0.658686 0
M  V30 24538 H 2218.18 3.07693 -2.43038 0
M  V30 24539 H 2219.67 3.79317 -1.74667 0
M  V30 24540 N 2220.11 1.37452 0.771027 0
M  V30 24541 C 2221.33 1.36067 1.56526 0
M  V30 24542 C 2221.76 -0.0515528 1.88029 0
M  V30 24543 O 2221.11 -1.02879 1.49283 0
M  V30 24544 C 2221.16 2.20688 2.85183 0
M  V30 24545 O 2220.27 1.612 3.7959 0
M  V30 24546 H 2219.61 0.464891 0.474102 0
M  V30 24547 H 2222.14 1.80985 0.954237 0
M  V30 24548 H 2222.15 2.33927 3.34279 0
M  V30 24549 H 2220.82 3.23338 2.61582 0
M  V30 24550 H 2219.4 1.57005 3.38236 0
M  V30 24551 N 2221.58 -0.997276 1.22033 0
M  V30 24552 C 2222.53 -2.08655 0.986504 0
M  V30 24553 C 2223.5 -1.65855 -0.090238 0
M  V30 24554 O 2224.69 -1.9071 0.0584629 0
M  V30 24555 C 2221.83 -3.40433 0.565629 0
M  V30 24556 C 2220.94 -3.966 1.71266 0
M  V30 24557 C 2220.07 -5.1652 1.2402 0
M  V30 24558 C 2219.11 -5.64814 2.35906 0
M  V30 24559 N 2218.25 -6.75976 1.89738 0
M  V30 24560 H 2223.09 -2.27991 1.91896 0
M  V30 24561 H 2220.63 -1.1178 0.956219 0
M  V30 24562 H 2222.59 -4.161 0.302812 0
M  V30 24563 H 2221.22 -3.21111 -0.329823 0
M  V30 24564 H 2220.27 -3.17847 2.08992 0
M  V30 24565 H 2221.58 -4.28428 2.55443 0
M  V30 24566 H 2220.73 -5.9946 0.934501 0
M  V30 24567 H 2219.47 -4.86305 0.368573 0
M  V30 24568 H 2218.48 -4.80465 2.67269 0
M  V30 24569 H 2219.7 -5.97055 3.23577 0
M  V30 24570 H 2217.65 -6.47553 1.04931 0
M  V30 24571 H 2217.57 -7.07099 2.67483 0
M  V30 24572 H 2218.83 -7.62433 1.62224 0
M  V30 24573 N 2223.06 -1.02932 -1.19343 0
M  V30 24574 C 2224.01 -0.610503 -2.22579 0
M  V30 24575 C 2224.98 0.375917 -1.6179 0
M  V30 24576 O 2226.16 0.272478 -1.88844 0
M  V30 24577 C 2223.3 0.0320867 -3.45085 0
M  V30 24578 C 2222.42 -1.00043 -4.20256 0
M  V30 24579 C 2221.55 -0.327553 -5.30189 0
M  V30 24580 C 2220.59 -1.34595 -5.97119 0
M  V30 24581 N 2219.73 -0.698849 -6.98613 0
M  V30 24582 H 2224.57 -1.49542 -2.57762 0
M  V30 24583 H 2222.11 -0.748333 -1.26643 0
M  V30 24584 H 2224.06 0.421893 -4.15061 0
M  V30 24585 H 2222.69 0.880585 -3.10557 0
M  V30 24586 H 2221.75 -1.50829 -3.4922 0
M  V30 24587 H 2223.06 -1.77441 -4.66172 0
M  V30 24588 H 2222.21 0.117073 -6.06587 0
M  V30 24589 H 2220.95 0.478627 -4.85346 0
M  V30 24590 H 2219.96 -1.80083 -5.19471 0
M  V30 24591 H 2221.18 -2.15363 -6.44046 0
M  V30 24592 H 2219.13 0.0872318 -6.55942 0
M  V30 24593 H 2219.04 -1.41071 -7.42721 0
M  V30 24594 H 2220.31 -0.278239 -7.79003 0
M  V30 24595 N 2224.54 1.35356 -0.807246 0
M  V30 24596 C 2225.49 2.29786 -0.216077 0
M  V30 24597 C 2226.46 1.52843 0.650252 0
M  V30 24598 O 2227.64 1.81279 0.595195 0
M  V30 24599 C 2224.78 3.39322 0.628834 0
M  V30 24600 C 2223.9 4.31229 -0.258003 0
M  V30 24601 C 2223.03 5.27857 0.594976 0
M  V30 24602 C 2222.07 6.11402 -0.292218 0
M  V30 24603 N 2221.21 7.00166 0.520772 0
M  V30 24604 H 2226.05 2.79753 -1.02676 0
M  V30 24605 H 2223.58 1.37683 -0.517863 0
M  V30 24606 H 2225.54 4.01496 1.13386 0
M  V30 24607 H 2224.17 2.9063 1.40477 0
M  V30 24608 H 2223.22 3.70054 -0.881141 0
M  V30 24609 H 2224.54 4.89846 -0.940845 0
M  V30 24610 H 2223.69 5.95407 1.16511 0
M  V30 24611 H 2222.43 4.69738 1.31138 0
M  V30 24612 H 2221.43 5.42799 -0.87462 0
M  V30 24613 H 2222.66 6.716 -1.0065 0
M  V30 24614 H 2220.6 6.44534 1.22114 0
M  V30 24615 H 2220.52 7.55928 -0.10401 0
M  V30 24616 H 2221.79 7.72063 1.07416 0
M  V30 24617 N 2226.02 0.560807 1.47284 0
M  V30 24618 C 2226.97 -0.197901 2.31757 0
M  V30 24619 C 2227.96 -0.905828 1.43147 0
M  V30 24620 O 2229.17 -0.826705 1.59892 0
M  V30 24621 H 2225.54 -0.0826918 0.74744 0
M  V30 24622 H 2227.51 0.53368 2.93589 0
M  V30 24623 C 2226.26 -1.21244 3.25876 0
M  V30 24624 H 2225.58 -0.677121 3.94024 0
M  V30 24625 H 2227.02 -1.71412 3.87806 0
M  V30 24626 C 2225.48 -2.26217 2.49655 0
M  V30 24627 O 2226.01 -3.33204 2.24361 0
M  V30 24628 N 2224.22 -2.0024 2.106 0
M  V30 24629 H 2223.77 -1.13248 2.31371 0
M  V30 24630 H 2223.72 -2.70691 1.59918 0
M  V30 24631 N 2227.5 -1.54768 0.297442 0
M  V30 24632 C 2228.44 -2.23387 -0.580237 0
M  V30 24633 C 2229.41 -1.21519 -1.13236 0
M  V30 24634 O 2230.6 -1.50129 -1.17754 0
M  V30 24635 C 2227.74 -2.97558 -1.74796 0
M  V30 24636 C 2226.85 -4.14192 -1.22757 0
M  V30 24637 C 2225.99 -4.75953 -2.35887 0
M  V30 24638 C 2225.03 -5.84738 -1.80963 0
M  V30 24639 N 2224.16 -6.40469 -2.87653 0
M  V30 24640 H 2229 -2.97998 0.0115357 0
M  V30 24641 H 2226.54 -1.4709 0.0174619 0
M  V30 24642 H 2228.5 -3.3879 -2.43469 0
M  V30 24643 H 2227.13 -2.2533 -2.31141 0
M  V30 24644 H 2226.18 -3.77925 -0.433205 0
M  V30 24645 H 2227.49 -4.92577 -0.785464 0
M  V30 24646 H 2226.65 -5.20019 -3.12514 0
M  V30 24647 H 2225.38 -3.96892 -2.83422 0
M  V30 24648 H 2224.39 -5.40099 -1.02824 0
M  V30 24649 H 2225.61 -6.6568 -1.34337 0
M  V30 24650 H 2223.56 -5.64293 -3.34528 0
M  V30 24651 H 2223.48 -7.1419 -2.47927 0
M  V30 24652 H 2224.75 -6.89193 -3.64188 0
M  V30 24653 N 2228.97 -0.0251005 -1.5758 0
M  V30 24654 C 2230.2 0.664712 -1.95932 0
M  V30 24655 C 2230.62 1.65893 -0.901382 0
M  V30 24656 O 2229.97 1.82123 0.117223 0
M  V30 24657 C 2230.03 1.37462 -3.34345 0
M  V30 24658 O 2229.75 0.420247 -4.3608 0
M  V30 24659 C 2231.25 2.15663 -3.87304 0
M  V30 24660 H 2228.47 0.183546 -0.645408 0
M  V30 24661 H 2231.01 -0.0836731 -2.04329 0
M  V30 24662 H 2229.17 2.07444 -3.27179 0
M  V30 24663 H 2229.58 0.9239 -5.16299 0
M  V30 24664 H 2231.05 2.60794 -4.86508 0
M  V30 24665 H 2231.53 2.99399 -3.21336 0
M  V30 24666 H 2232.14 1.50647 -3.97726 0
M  V30 24667 N 2230.45 1.55637 0.247999 0
M  V30 24668 C 2231.38 1.9324 1.31075 0
M  V30 24669 C 2232.36 0.797201 1.50262 0
M  V30 24670 O 2233.55 1.0574 1.62889 0
M  V30 24671 C 2230.68 2.22614 2.66571 0
M  V30 24672 C 2229.63 3.38375 2.62081 0
M  V30 24673 C 2228.96 3.53288 4.01362 0
M  V30 24674 C 2230.26 4.74094 2.19163 0
M  V30 24675 H 2231.95 2.82259 0.998506 0
M  V30 24676 H 2229.5 1.35804 0.478886 0
M  V30 24677 H 2231.45 2.47509 3.41053 0
M  V30 24678 H 2230.18 1.30419 2.9943 0
M  V30 24679 H 2228.83 3.13487 1.90057 0
M  V30 24680 H 2228.48 2.58515 4.31484 0
M  V30 24681 H 2228.18 4.31134 3.99246 0
M  V30 24682 H 2229.71 3.80503 4.77546 0
M  V30 24683 H 2231.12 4.98368 2.83376 0
M  V30 24684 H 2229.52 5.55034 2.2816 0
M  V30 24685 H 2230.59 4.7123 1.14327 0
M  V30 24686 N 2231.93 -0.513613 1.48996 0
M  V30 24687 C 2233.16 -1.29759 1.61794 0
M  V30 24688 C 2233.58 -1.85936 0.284508 0
M  V30 24689 O 2232.94 -1.65234 -0.746156 0
M  V30 24690 C 2232.99 -2.41268 2.67997 0
M  V30 24691 O 2232.09 -3.44768 2.26294 0
M  V30 24692 H 2231.43 -0.383621 0.54197 0
M  V30 24693 H 2233.96 -0.616273 1.95098 0
M  V30 24694 H 2233.97 -2.87216 2.89777 0
M  V30 24695 H 2232.65 -1.99743 3.64795 0
M  V30 24696 H 2231.22 -3.04825 2.14793 0
M  V30 24697 N 2233.41 -1.37859 -0.763727 0
M  V30 24698 C 2234.32 -1.36481 -1.90814 0
M  V30 24699 C 2235.34 -0.263278 -1.71997 0
M  V30 24700 O 2236.51 -0.500013 -1.95094 0
M  V30 24701 C 2233.58 -1.1787 -3.26048 0
M  V30 24702 C 2232.64 -2.37736 -3.57463 0
M  V30 24703 C 2231.87 -2.20003 -4.86245 0
M  V30 24704 O 2232.09 -1.18846 -5.57882 0
M  V30 24705 O 2231.03 -3.0837 -5.16906 0
M  V30 24706 H 2234.85 -2.32887 -1.94929 0
M  V30 24707 H 2232.44 -1.18672 -0.907598 0
M  V30 24708 H 2234.32 -1.09511 -4.06922 0
M  V30 24709 H 2233 -0.245429 -3.22768 0
M  V30 24710 H 2231.9 -2.51668 -2.76792 0
M  V30 24711 H 2233.24 -3.29658 -3.65494 0
M  V30 24712 N 2234.89 0.990791 -1.22561 0
M  V30 24713 C 2236.16 1.70426 -0.959905 0
M  V30 24714 C 2236.54 2.04482 0.524419 0
M  V30 24715 O 2235.89 1.7298 1.49299 0
M  V30 24716 C 2236.1 2.9533 -1.8596 0
M  V30 24717 C 2237.45 3.68064 -2.11693 0
M  V30 24718 O 2238.47 3.05342 -1.83425 0
M  V30 24719 O 2237.33 4.80916 -2.5958 0
M  V30 24720 H 2234.43 0.743967 -0.361167 0
M  V30 24721 H 2236.97 1.04695 -1.33556 0
M  V30 24722 H 2235.75 2.66682 -2.86351 0
M  V30 24723 H 2235.37 3.68801 -1.48566 0
M  V30 24724 N 2236.37 1.03564 1.18795 0
M  V30 24725 C 2237.64 0.650466 1.84468 0
M  V30 24726 C 2238.02 -0.870399 1.92321 0
M  V30 24727 O 2237.37 -1.76983 1.44531 0
M  V30 24728 C 2237.58 1.32042 3.23057 0
M  V30 24729 C 2238.93 1.44799 3.99147 0
M  V30 24730 O 2239.95 1.27812 3.32479 0
M  V30 24731 O 2238.81 1.72432 5.18584 0
M  V30 24732 H 2235.91 0.22696 0.795247 0
M  V30 24733 H 2238.45 1.13421 1.26229 0
M  V30 24734 H 2237.22 2.35876 3.12215 0
M  V30 24735 H 2236.85 0.824968 3.88947 0
M  V30 24736 N 2237.84 -1.34926 0.814413 0
M  V30 24737 C 2239.09 -1.98541 0.398458 0
M  V30 24738 C 2239.42 -1.64591 -1.03635 0
M  V30 24739 O 2238.67 -0.905191 -1.73507 0
M  V30 24740 C 2238.97 -3.5333 0.537843 0
M  V30 24741 C 2238.64 -4.07169 1.93711 0
M  V30 24742 C 2237.3 -4.21584 2.31991 0
M  V30 24743 C 2239.65 -4.36232 2.85221 0
M  V30 24744 C 2236.98 -4.62385 3.61133 0
M  V30 24745 C 2239.33 -4.78475 4.13817 0
M  V30 24746 C 2238 -4.91096 4.52086 0
M  V30 24747 H 2237.27 -0.726513 0.145806 0
M  V30 24748 H 2239.91 -1.61011 1.03672 0
M  V30 24749 H 2238.22 -3.91368 -0.183837 0
M  V30 24750 H 2239.92 -4.00517 0.196658 0
M  V30 24751 H 2236.51 -3.96406 1.62973 0
M  V30 24752 H 2240.69 -4.24641 2.56893 0
M  V30 24753 H 2235.95 -4.70346 3.90621 0
M  V30 24754 H 2240.12 -4.99923 4.84819 0
M  V30 24755 H 2237.75 -5.22468 5.52205 0
M  V30 24756 N 2239.32 -0.56861 -1.46985 0
M  V30 24757 C 2240.74 -0.229217 -1.57945 0
M  V30 24758 C 2240.94 1.2684 -1.56569 0
M  V30 24759 O 2239.99 2.04928 -1.47515 0
M  V30 24760 C 2241.31 -0.865959 -2.87961 0
M  V30 24761 C 2242.85 -0.838241 -3.01567 0
M  V30 24762 C 2243.33 -1.45426 -4.34298 0
M  V30 24763 N 2244.82 -1.41796 -4.40963 0
M  V30 24764 C 2245.56 -1.86413 -5.42253 0
M  V30 24765 N 2245.05 -2.38937 -6.50293 0
M  V30 24766 N 2246.84 -1.77414 -5.33367 0
M  V30 24767 H 2239 -1.54148 -1.46123 0
M  V30 24768 H 2241.26 -0.643496 -0.696144 0
M  V30 24769 H 2240.96 -1.91891 -2.94738 0
M  V30 24770 H 2240.84 -0.365753 -3.75423 0
M  V30 24771 H 2243.23 0.206054 -2.9438 0
M  V30 24772 H 2243.31 -1.37632 -2.15618 0
M  V30 24773 H 2242.95 -2.49768 -4.42242 0
M  V30 24774 H 2242.88 -0.891527 -5.18998 0
M  V30 24775 H 2245.37 -1.03388 -3.63482 0
M  V30 24776 H 2245.68 -2.70876 -7.23772 0
M  V30 24777 H 2244.03 -2.42955 -6.51151 0
M  V30 24778 H 2247.22 -1.36148 -4.47863 0
M  V30 24779 H 2247.39 -2.12503 -6.12166 0
M  V30 24780 N 2240.8 1.54608 -0.305646 0
M  V30 24781 C 2241.75 2.23692 0.568382 0
M  V30 24782 C 2242.72 1.22118 1.1259 0
M  V30 24783 O 2243.9 1.50751 1.16956 0
M  V30 24784 C 2241.04 2.9848 1.73215 0
M  V30 24785 C 2240.15 4.14837 1.20558 0
M  V30 24786 C 2239.29 4.77197 2.33359 0
M  V30 24787 C 2238.33 5.8569 1.7786 0
M  V30 24788 N 2237.47 6.41985 2.84252 0
M  V30 24789 H 2242.31 2.97987 -0.0273391 0
M  V30 24790 H 2239.84 1.47078 -0.0252622 0
M  V30 24791 H 2241.8 3.40076 2.41669 0
M  V30 24792 H 2240.43 2.26552 2.29943 0
M  V30 24793 H 2239.48 3.7815 0.413156 0
M  V30 24794 H 2240.79 4.92986 0.759331 0
M  V30 24795 H 2239.95 5.21669 3.09751 0
M  V30 24796 H 2238.69 3.98389 2.81313 0
M  V30 24797 H 2237.69 5.40637 0.999585 0
M  V30 24798 H 2238.92 6.66384 1.30804 0
M  V30 24799 H 2236.86 5.66059 3.31531 0
M  V30 24800 H 2236.78 7.15495 2.44136 0
M  V30 24801 H 2238.05 6.91115 3.60528 0
M  V30 24802 N 2242.28 0.033457 1.57564 0
M  V30 24803 C 2243.52 -0.644238 1.91979 0
M  V30 24804 C 2243.85 -1.71885 0.910261 0
M  V30 24805 O 2243.11 -1.95536 -0.0801618 0
M  V30 24806 C 2243.41 -1.29498 3.33114 0
M  V30 24807 C 2243.07 -0.350309 4.49537 0
M  V30 24808 C 2241.73 -0.0903128 4.81115 0
M  V30 24809 C 2244.09 0.298123 5.20347 0
M  V30 24810 C 2241.41 0.825848 5.80859 0
M  V30 24811 C 2243.77 1.20237 6.21068 0
M  V30 24812 C 2242.43 1.47121 6.51085 0
M  V30 24813 H 2241.7 -0.235743 0.7025 0
M  V30 24814 H 2244.35 0.0961512 1.91258 0
M  V30 24815 H 2242.65 -2.11022 3.30117 0
M  V30 24816 H 2244.35 -1.82597 3.57015 0
M  V30 24817 H 2240.94 -0.563131 4.24884 0
M  V30 24818 H 2245.12 0.110322 4.96177 0
M  V30 24819 H 2240.38 1.0418 6.02459 0
M  V30 24820 H 2244.55 1.71098 6.75054 0
M  V30 24821 H 2242.18 2.18277 7.28189 0
M  V30 24822 N 2243.76 -1.55766 -0.239741 0
M  V30 24823 C 2245 -1.77932 -0.96677 0
M  V30 24824 C 2245.33 -0.599047 -1.85045 0
M  V30 24825 O 2244.59 0.417362 -1.91198 0
M  V30 24826 C 2244.88 -3.05676 -1.85195 0
M  V30 24827 C 2244.55 -4.36691 -1.12303 0
M  V30 24828 C 2243.21 -4.72292 -0.921606 0
M  V30 24829 C 2245.56 -5.17654 -0.606928 0
M  V30 24830 C 2242.89 -5.86386 -0.191893 0
M  V30 24831 C 2245.24 -6.32505 0.109352 0
M  V30 24832 C 2243.91 -6.66722 0.32219 0
M  V30 24833 H 2243.18 -0.651099 -0.353766 0
M  V30 24834 H 2245.83 -1.90036 -0.236307 0
M  V30 24835 H 2244.13 -2.88614 -2.6497 0
M  V30 24836 H 2245.83 -3.20026 -2.41629 0
M  V30 24837 H 2242.42 -4.08727 -1.28997 0
M  V30 24838 H 2246.6 -4.90599 -0.750067 0
M  V30 24839 H 2241.86 -6.11398 -0.0165874 0
M  V30 24840 H 2246.03 -6.94479 0.516859 0
M  V30 24841 H 2243.66 -7.54977 0.889573 0
M  V30 24842 N 2245.23 0.505704 -1.49266 0
M  V30 24843 C 2246.17 1.62434 -1.61702 0
M  V30 24844 C 2247.18 1.54933 -0.499952 0
M  V30 24845 O 2248.37 1.60951 -0.771813 0
M  V30 24846 C 2245.47 3.01204 -1.55335 0
M  V30 24847 C 2244.64 3.33938 -2.82496 0
M  V30 24848 C 2243.7 4.52098 -2.69246 0
M  V30 24849 O 2242.73 4.54114 -3.43175 0
M  V30 24850 N 2243.93 5.51732 -1.80477 0
M  V30 24851 H 2246.69 1.52195 -2.5818 0
M  V30 24852 H 2244.25 0.693485 -1.46296 0
M  V30 24853 H 2246.25 3.78164 -1.44132 0
M  V30 24854 H 2244.82 3.05394 -0.66735 0
M  V30 24855 H 2244.04 2.45921 -3.08085 0
M  V30 24856 H 2245.32 3.52604 -3.66808 0
M  V30 24857 H 2244.72 5.52899 -1.19662 0
M  V30 24858 H 2243.28 6.27812 -1.75199 0
M  V30 24859 N 2246.71 1.38262 0.756405 0
M  V30 24860 C 2247.96 1.34514 1.51769 0
M  V30 24861 C 2248.29 -0.065635 1.94089 0
M  V30 24862 O 2247.57 -1.02623 1.65223 0
M  V30 24863 C 2247.85 2.29826 2.77222 0
M  V30 24864 C 2247.7 3.79751 2.41058 0
M  V30 24865 C 2249.02 2.23319 3.79232 0
M  V30 24866 H 2246.14 0.489941 0.55057 0
M  V30 24867 H 2248.78 1.69087 0.866577 0
M  V30 24868 H 2246.93 2.00473 3.3278 0
M  V30 24869 H 2248.6 4.19766 1.91296 0
M  V30 24870 H 2246.85 3.9757 1.73553 0
M  V30 24871 H 2247.52 4.41898 3.30802 0
M  V30 24872 H 2249.99 2.49225 3.33206 0
M  V30 24873 H 2248.87 2.92124 4.64709 0
M  V30 24874 H 2249.13 1.2311 4.24613 0
M  V30 24875 N 2248.19 -0.984277 1.23084 0
M  V30 24876 C 2249.44 -1.72843 1.07224 0
M  V30 24877 C 2249.79 -1.88459 -0.38742 0
M  V30 24878 O 2249.08 -1.42296 -1.28306 0
M  V30 24879 C 2249.28 -3.12917 1.72679 0
M  V30 24880 C 2249.11 -3.10961 3.24859 0
M  V30 24881 C 2247.88 -3.16369 3.94003 0
M  V30 24882 C 2250.08 -2.94433 4.21679 0
M  V30 24883 N 2248.06 -3.04259 5.33198 0
M  V30 24884 C 2249.43 -2.90444 5.47761 0
M  V30 24885 C 2251.48 -2.78889 4.12462 0
M  V30 24886 C 2250.19 -2.72501 6.65685 0
M  V30 24887 C 2252.21 -2.62309 5.30045 0
M  V30 24888 C 2251.57 -2.59014 6.5505 0
M  V30 24889 H 2247.67 -0.641747 0.446861 0
M  V30 24890 H 2250.26 -1.16827 1.55755 0
M  V30 24891 H 2248.43 -3.67158 1.26686 0
M  V30 24892 H 2250.16 -3.75943 1.4983 0
M  V30 24893 H 2246.92 -3.24395 3.45057 0
M  V30 24894 H 2247.34 -3.01489 6.06163 0
M  V30 24895 H 2251.98 -2.80229 3.16593 0
M  V30 24896 H 2249.7 -2.69905 7.61693 0
M  V30 24897 H 2253.29 -2.51251 5.24752 0
M  V30 24898 H 2252.17 -2.46344 7.44503 0
M  V30 24899 N 2249.67 -1.04192 -1.18244 0
M  V30 24900 C 2250.62 -0.634076 -2.21919 0
M  V30 24901 C 2251.59 0.358736 -1.6218 0
M  V30 24902 O 2252.77 0.252433 -1.89123 0
M  V30 24903 C 2249.91 -0.00451601 -3.451 0
M  V30 24904 C 2249.02 -1.04495 -4.19172 0
M  V30 24905 C 2248.16 -0.383769 -5.29812 0
M  V30 24906 C 2247.2 -1.40921 -5.95657 0
M  V30 24907 N 2246.33 -0.772907 -6.97833 0
M  V30 24908 H 2251.17 -1.52268 -2.56161 0
M  V30 24909 H 2248.71 -0.761723 -1.25842 0
M  V30 24910 H 2250.67 0.377846 -4.15485 0
M  V30 24911 H 2249.3 0.847597 -3.11473 0
M  V30 24912 H 2248.35 -1.54524 -3.47601 0
M  V30 24913 H 2249.66 -1.82376 -4.64263 0
M  V30 24914 H 2248.82 0.05273 -6.06677 0
M  V30 24915 H 2247.56 0.427123 -4.85826 0
M  V30 24916 H 2246.56 -1.85583 -5.17532 0
M  V30 24917 H 2247.79 -2.22182 -6.41726 0
M  V30 24918 H 2245.73 0.0176555 -6.55998 0
M  V30 24919 H 2245.65 -1.48941 -7.41183 0
M  V30 24920 H 2246.92 -0.360847 -7.78664 0
M  V30 24921 N 2251.15 1.34492 -0.821557 0
M  V30 24922 C 2252.56 1.51328 -0.507143 0
M  V30 24923 C 2252.76 1.76675 0.968932 0
M  V30 24924 O 2251.82 1.81688 1.75345 0
M  V30 24925 C 2253.13 2.67908 -1.36549 0
M  V30 24926 C 2254.68 2.8179 -1.36247 0
M  V30 24927 C 2255.15 4.01412 -2.20527 0
M  V30 24928 N 2256.65 4.08617 -2.18143 0
M  V30 24929 C 2257.38 5.0033 -2.80103 0
M  V30 24930 N 2256.88 5.97274 -3.51049 0
M  V30 24931 N 2258.67 4.93191 -2.69665 0
M  V30 24932 H 2250.82 1.16299 -1.77731 0
M  V30 24933 H 2253.08 0.570263 -0.757301 0
M  V30 24934 H 2252.79 2.55804 -2.41365 0
M  V30 24935 H 2252.66 3.62887 -1.02923 0
M  V30 24936 H 2255.05 2.93337 -0.322093 0
M  V30 24937 H 2255.13 1.87625 -1.73869 0
M  V30 24938 H 2254.78 3.90626 -3.24614 0
M  V30 24939 H 2254.71 4.94788 -1.80256 0
M  V30 24940 H 2257.2 3.39226 -1.66536 0
M  V30 24941 H 2257.51 6.63882 -3.95576 0
M  V30 24942 H 2255.85 5.97402 -3.55155 0
M  V30 24943 H 2259.05 4.16414 -2.13816 0
M  V30 24944 H 2259.22 5.64471 -3.1824 0
M  V30 24945 N 2252.62 0.576397 1.46681 0
M  V30 24946 C 2253.87 0.0595695 2.02412 0
M  V30 24947 C 2254.2 -1.2979 1.44861 0
M  V30 24948 O 2253.45 -1.86239 0.601131 0
M  V30 24949 C 2253.75 -0.0628232 3.57345 0
M  V30 24950 C 2253.42 1.22623 4.33906 0
M  V30 24951 C 2252.08 1.57941 4.54542 0
M  V30 24952 C 2254.43 2.07957 4.77916 0
M  V30 24953 C 2251.76 2.78402 5.16439 0
M  V30 24954 C 2254.11 3.27638 5.41143 0
M  V30 24955 C 2252.78 3.63246 5.60008 0
M  V30 24956 H 2252.05 0.021798 0.740679 0
M  V30 24957 H 2254.69 0.751766 1.76127 0
M  V30 24958 H 2253 -0.83811 3.82731 0
M  V30 24959 H 2254.7 -0.478369 3.98136 0
M  V30 24960 H 2251.29 0.941276 4.18136 0
M  V30 24961 H 2255.47 1.81976 4.61734 0
M  V30 24962 H 2250.73 3.06135 5.29236 0
M  V30 24963 H 2254.9 3.94034 5.74204 0
M  V30 24964 H 2252.53 4.56679 6.0774 0
M  V30 24965 N 2254.1 -1.54444 0.313841 0
M  V30 24966 C 2255.38 -1.92526 -0.345413 0
M  V30 24967 C 2255.76 -1.24245 -1.70665 0
M  V30 24968 O 2255.11 -0.382694 -2.25273 0
M  V30 24969 C 2255.32 -3.46122 -0.447309 0
M  V30 24970 C 2256.67 -4.18585 -0.712164 0
M  V30 24971 O 2257.69 -3.52226 -0.530616 0
M  V30 24972 O 2256.55 -5.36087 -1.06173 0
M  V30 24973 H 2253.64 -0.803586 -0.195393 0
M  V30 24974 H 2256.19 -1.65776 0.362842 0
M  V30 24975 H 2254.96 -3.87974 0.509111 0
M  V30 24976 H 2254.58 -3.78947 -1.20353 0
M  V30 24977 N 2255.58 -0.0418125 -1.57545 0
M  V30 24978 C 2256.99 0.495227 -1.80012 0
M  V30 24979 C 2257.34 1.71488 -0.953229 0
M  V30 24980 O 2256.47 2.15753 -0.167176 0
M  V30 24981 C 2257.06 0.905208 -3.26483 0
M  V30 24982 C 2255.62 1.38728 -3.49902 0
M  V30 24983 C 2254.77 0.358007 -2.74979 0
M  V30 24984 H 2257.72 -0.267763 -1.56425 0
M  V30 24985 H 2257.74 1.76876 -3.36891 0
M  V30 24986 H 2257.25 0.0173328 -3.88096 0
M  V30 24987 H 2255.35 2.29466 -2.93558 0
M  V30 24988 H 2255.47 1.3859 -4.58617 0
M  V30 24989 H 2253.83 0.828869 -2.40836 0
M  V30 24990 H 2254.61 -0.521621 -3.39314 0
M  V30 24991 N 2257.06 1.55891 0.231477 0
M  V30 24992 C 2258.34 1.69217 0.981066 0
M  V30 24993 C 2258.72 0.586199 2.02798 0
M  V30 24994 O 2258.06 -0.408214 2.24824 0
M  V30 24995 C 2258.27 3.10138 1.60048 0
M  V30 24996 C 2259.62 3.69231 2.09651 0
M  V30 24997 O 2260.65 3.13036 1.69961 0
M  V30 24998 O 2259.5 4.67777 2.82572 0
M  V30 24999 H 2256.6 0.688835 0.45764 0
M  V30 25000 H 2259.14 1.68215 0.224043 0
M  V30 25001 H 2257.92 3.82089 0.844038 0
M  V30 25002 H 2257.54 3.15217 2.42331 0
M  V30 25003 N 2258.54 -0.497781 1.49532 0
M  V30 25004 C 2259.95 -0.829242 1.36366 0
M  V30 25005 C 2260.15 -1.97506 0.399218 0
M  V30 25006 O 2259.21 -2.51941 -0.167933 0
M  V30 25007 C 2260.52 -1.16642 2.77155 0
M  V30 25008 C 2262.07 -1.27444 2.85879 0
M  V30 25009 C 2262.54 -1.64489 4.27443 0
M  V30 25010 N 2264.04 -1.71532 4.30268 0
M  V30 25011 C 2264.77 -2.01647 5.36774 0
M  V30 25012 N 2264.27 -2.29964 6.5352 0
M  V30 25013 N 2266.06 -2.02925 5.24193 0
M  V30 25014 H 2258.21 0.257741 2.1083 0
M  V30 25015 H 2260.47 0.0527257 0.946533 0
M  V30 25016 H 2260.18 -0.397811 3.49443 0
M  V30 25017 H 2260.05 -2.10909 3.12725 0
M  V30 25018 H 2262.44 -2.03376 2.13827 0
M  V30 25019 H 2262.52 -0.3122 2.53888 0
M  V30 25020 H 2262.17 -0.891063 5.00022 0
M  V30 25021 H 2262.1 -2.61819 4.56901 0
M  V30 25022 H 2264.59 -1.51796 3.46073 0
M  V30 25023 H 2264.9 -2.5214 7.3051 0
M  V30 25024 H 2263.24 -2.27414 6.56741 0
M  V30 25025 H 2266.44 -1.80281 4.31991 0
M  V30 25026 H 2266.61 -2.26061 6.0729 0
M  V30 25027 N 2260.01 -1.38661 -0.749062 0
M  V30 25028 C 2261.24 -1.3836 -1.53831 0
M  V30 25029 C 2261.66 0.0254887 -1.88783 0
M  V30 25030 O 2261.01 0.993265 -1.53103 0
M  V30 25031 C 2261.07 -2.24345 -2.83464 0
M  V30 25032 O 2260.79 -3.59765 -2.50002 0
M  V30 25033 C 2262.29 -2.32274 -3.77576 0
M  V30 25034 H 2259.51 -0.473091 -0.475842 0
M  V30 25035 H 2262.05 -1.82298 -0.926694 0
M  V30 25036 H 2260.21 -1.83857 -3.40992 0
M  V30 25037 H 2260.62 -4.05086 -3.33174 0
M  V30 25038 H 2262.09 -2.96714 -4.65473 0
M  V30 25039 H 2262.57 -1.33772 -4.18332 0
M  V30 25040 H 2263.18 -2.73171 -3.25972 0
M  V30 25041 N 2261.49 0.977736 -1.23605 0
M  V30 25042 C 2262.43 2.07315 -0.977405 0
M  V30 25043 C 2263.44 1.62725 0.0495559 0
M  V30 25044 O 2264.63 1.77525 -0.186292 0
M  V30 25045 C 2261.73 3.35882 -0.451275 0
M  V30 25046 C 2260.9 4.0943 -1.53903 0
M  V30 25047 C 2259.96 5.16273 -1.01731 0
M  V30 25048 O 2258.99 5.43006 -1.70686 0
M  V30 25049 N 2260.19 5.80297 0.153492 0
M  V30 25050 H 2262.95 2.30079 -1.92051 0
M  V30 25051 H 2260.51 1.14463 -1.14499 0
M  V30 25052 H 2262.51 4.04606 -0.0872286 0
M  V30 25053 H 2261.08 3.10065 0.397314 0
M  V30 25054 H 2260.3 3.35123 -2.07572 0
M  V30 25055 H 2261.58 4.55333 -2.27045 0
M  V30 25056 H 2260.98 5.60967 0.730224 0
M  V30 25057 H 2259.54 6.50183 0.458777 0
M  V30 25058 N 2262.97 1.04818 1.1769 0
M  V30 25059 C 2264.2 0.775162 1.91507 0
M  V30 25060 C 2264.61 -0.672498 1.76845 0
M  V30 25061 O 2263.95 -1.4708 1.10059 0
M  V30 25062 C 2264.01 1.07136 3.43165 0
M  V30 25063 C 2263.68 2.51445 3.81608 0
M  V30 25064 C 2264.68 3.49644 3.84766 0
M  V30 25065 C 2262.36 2.86355 4.12682 0
M  V30 25066 C 2264.35 4.80801 4.1846 0
M  V30 25067 C 2262.04 4.17716 4.46046 0
M  V30 25068 C 2263.04 5.14749 4.48912 0
M  V30 25069 O 2262.73 6.43755 4.81493 0
M  V30 25070 H 2262.46 0.281566 0.61457 0
M  V30 25071 H 2265.01 1.40101 1.50203 0
M  V30 25072 H 2263.24 0.38841 3.84744 0
M  V30 25073 H 2264.93 0.784953 3.98238 0
M  V30 25074 H 2265.7 3.24014 3.60888 0
M  V30 25075 H 2261.58 2.11494 4.09624 0
M  V30 25076 H 2265.12 5.56535 4.20613 0
M  V30 25077 H 2261.02 4.43111 4.69386 0
M  V30 25078 H 2261.79 6.48519 4.99365 0
M  V30 25079 N 2264.45 -1.34055 0.828678 0
M  V30 25080 C 2265.7 -1.97366 0.415863 0
M  V30 25081 C 2266.01 -1.66412 -1.02793 0
M  V30 25082 O 2267.22 -2.23258 -1.54493 0
M  V30 25083 C 2265.67 -3.53172 0.692663 0
M  V30 25084 C 2265.28 -3.93013 2.15045 0
M  V30 25085 C 2267.03 -4.23085 0.346296 0
M  V30 25086 C 2264.93 -5.41754 2.37184 0
M  V30 25087 H 2263.86 -0.738568 0.151768 0
M  V30 25088 H 2266.51 -1.52817 1.01584 0
M  V30 25089 H 2264.9 -3.95994 0.022446 0
M  V30 25090 H 2266.07 -3.6128 2.8603 0
M  V30 25091 H 2264.38 -3.36053 2.45881 0
M  V30 25092 H 2266.98 -5.32455 0.489464 0
M  V30 25093 H 2267.32 -4.10205 -0.70977 0
M  V30 25094 H 2267.86 -3.85759 0.971326 0
M  V30 25095 H 2264.6 -5.59627 3.41317 0
M  V30 25096 H 2264.12 -5.74983 1.70749 0
M  V30 25097 H 2265.8 -6.0851 2.19829 0
M  V30 25098 N 2265.93 -0.584167 -1.46374 0
M  V30 25099 C 2267.2 -0.00337318 -1.956 0
M  V30 25100 C 2267.58 1.45779 -1.52682 0
M  V30 25101 O 2266.93 2.1484 -0.778198 0
M  V30 25102 C 2267.14 -0.176953 -3.48551 0
M  V30 25103 C 2268.49 -0.0455355 -4.24576 0
M  V30 25104 O 2269.51 -0.105863 -3.56043 0
M  V30 25105 O 2268.37 0.0889415 -5.46428 0
M  V30 25106 H 2265.47 0.0489921 -0.825548 0
M  V30 25107 H 2268.01 -0.652588 -1.5665 0
M  V30 25108 H 2266.79 -1.19267 -3.72681 0
M  V30 25109 H 2266.41 0.508626 -3.94333 0
M  V30 25110 N 2267.41 1.54275 -0.322027 0
M  V30 25111 C 2268.63 2.05422 0.285755 0
M  V30 25112 C 2269.06 1.19671 1.45122 0
M  V30 25113 O 2268.41 0.205473 1.80132 0
M  V30 25114 C 2268.46 3.5375 0.699497 0
M  V30 25115 O 2267.57 3.70945 1.80203 0
M  V30 25116 H 2266.91 0.66197 0.0518846 0
M  V30 25117 H 2269.44 1.99129 -0.469989 0
M  V30 25118 H 2269.45 3.95992 0.982579 0
M  V30 25119 H 2268.12 4.15619 -0.152937 0
M  V30 25120 H 2266.7 3.40609 1.51788 0
M  V30 25121 N 2268.88 0.0501669 1.5752 0
M  V30 25122 C 2270.11 -0.636962 1.97377 0
M  V30 25123 C 2270.53 -1.63643 0.927495 0
M  V30 25124 O 2269.89 -1.8097 -0.109378 0
M  V30 25125 C 2269.94 -1.30117 3.36306 0
M  V30 25126 O 2269.04 -2.41683 3.3416 0
M  V30 25127 H 2268.38 -0.165667 0.643001 0
M  V30 25128 H 2270.91 0.118269 2.04258 0
M  V30 25129 H 2270.92 -1.65309 3.73011 0
M  V30 25130 H 2269.6 -0.568673 4.11994 0
M  V30 25131 H 2268.18 -2.08446 3.092 0
M  V30 25132 N 2270.36 -1.56011 -0.223207 0
M  V30 25133 C 2271.31 -1.9228 -1.2766 0
M  V30 25134 C 2272.28 -0.779789 -1.46658 0
M  V30 25135 O 2273.46 -1.03554 -1.60254 0
M  V30 25136 C 2270.6 -2.24343 -2.6223 0
M  V30 25137 C 2269.72 -3.51569 -2.51045 0
M  V30 25138 C 2268.85 -3.73087 -3.78126 0
M  V30 25139 C 2267.89 -4.93833 -3.61657 0
M  V30 25140 N 2267.03 -5.11749 -4.80684 0
M  V30 25141 H 2271.87 -2.82103 -0.960308 0
M  V30 25142 H 2269.4 -1.39628 -0.462876 0
M  V30 25143 H 2271.36 -2.40942 -3.40592 0
M  V30 25144 H 2269.99 -1.37695 -2.91959 0
M  V30 25145 H 2269.04 -3.43172 -1.64126 0
M  V30 25146 H 2270.36 -4.40083 -2.34795 0
M  V30 25147 H 2269.51 -3.89774 -4.64931 0
M  V30 25148 H 2268.25 -2.82851 -3.97299 0
M  V30 25149 H 2267.25 -4.77098 -2.73236 0
M  V30 25150 H 2268.48 -5.85552 -3.43956 0
M  V30 25151 H 2266.43 -4.24455 -5.00174 0
M  V30 25152 H 2266.34 -5.94393 -4.67155 0
M  V30 25153 H 2267.61 -5.3287 -5.6892 0
M  V30 25154 N 2271.84 0.489844 -1.49794 0
M  V30 25155 C 2272.77 1.59853 -1.70203 0
M  V30 25156 C 2273.75 1.60936 -0.550789 0
M  V30 25157 O 2274.94 1.775 -0.787872 0
M  V30 25158 C 2272.07 2.98284 -1.77888 0
M  V30 25159 C 2271.02 3.12068 -2.92912 0
M  V30 25160 C 2270.35 4.5196 -2.8572 0
M  V30 25161 C 2271.65 2.91043 -4.33695 0
M  V30 25162 H 2273.34 1.43027 -2.63028 0
M  V30 25163 H 2270.89 0.686642 -1.26575 0
M  V30 25164 H 2272.84 3.75755 -1.90751 0
M  V30 25165 H 2271.56 3.16224 -0.816708 0
M  V30 25166 H 2270.22 2.37024 -2.79669 0
M  V30 25167 H 2269.87 4.66792 -1.87388 0
M  V30 25168 H 2269.57 4.62122 -3.62929 0
M  V30 25169 H 2271.09 5.31477 -3.00607 0
M  V30 25170 H 2272.51 3.58276 -4.47561 0
M  V30 25171 H 2270.9 3.12666 -5.12211 0
M  V30 25172 H 2271.97 1.87063 -4.47365 0
M  V30 25173 N 2273.32 1.39056 0.741698 0
M  V30 25174 C 2274.54 1.39357 1.53605 0
M  V30 25175 C 2274.97 -0.0116574 1.88096 0
M  V30 25176 O 2274.33 -0.996898 1.51432 0
M  V30 25177 C 2274.37 2.26687 2.80438 0
M  V30 25178 O 2273.48 1.69215 3.76085 0
M  V30 25179 H 2272.82 0.474843 0.464134 0
M  V30 25180 H 2275.35 1.82968 0.915633 0
M  V30 25181 H 2275.36 2.40965 3.29241 0
M  V30 25182 H 2274.03 3.28814 2.54665 0
M  V30 25183 H 2272.61 1.64144 3.3483 0
M  V30 25184 N 2274.8 -0.971167 1.24121 0
M  V30 25185 C 2276.07 -1.68878 0.986897 0
M  V30 25186 C 2276.45 -2.05291 -0.491821 0
M  V30 25187 O 2275.8 -1.75333 -1.46528 0
M  V30 25188 C 2276.01 -2.92334 1.90635 0
M  V30 25189 C 2277.36 -3.6465 2.17522 0
M  V30 25190 O 2278.38 -3.02385 1.8826 0
M  V30 25191 O 2277.24 -4.76726 2.67198 0
M  V30 25192 H 2274.34 -0.738127 0.372957 0
M  V30 25193 H 2276.88 -1.02557 1.35204 0
M  V30 25194 H 2275.65 -2.62092 2.90557 0
M  V30 25195 H 2275.28 -3.6639 1.54415 0
M  V30 25196 N 2276.27 -1.05441 -1.17133 0
M  V30 25197 C 2277.52 -0.765975 -1.87454 0
M  V30 25198 C 2277.85 0.707121 -1.81191 0
M  V30 25199 O 2277.1 1.53307 -1.21636 0
M  V30 25200 C 2277.4 -1.19497 -3.36831 0
M  V30 25201 C 2277.07 -2.6707 -3.63297 0
M  V30 25202 C 2275.73 -3.07382 -3.70229 0
M  V30 25203 C 2278.08 -3.6242 -3.74568 0
M  V30 25204 C 2275.41 -4.41903 -3.85926 0
M  V30 25205 C 2277.76 -4.96677 -3.91784 0
M  V30 25206 C 2276.43 -5.3664 -3.96956 0
M  V30 25207 H 2275.7 -0.28029 -0.685943 0
M  V30 25208 H 2278.34 -1.32194 -1.38553 0
M  V30 25209 H 2276.65 -0.558037 -3.87806 0
M  V30 25210 H 2278.35 -0.948961 -3.8961 0
M  V30 25211 H 2274.94 -2.34853 -3.58528 0
M  V30 25212 H 2279.12 -3.32413 -3.68531 0
M  V30 25213 H 2274.38 -4.72363 -3.88179 0
M  V30 25214 H 2278.55 -5.70451 -3.99448 0
M  V30 25215 H 2276.18 -6.40881 -4.08871 0
M  V30 25216 N 2277.75 1.33613 -0.835776 0
M  V30 25217 C 2278.72 2.2758 -0.27204 0
M  V30 25218 C 2279.72 1.50828 0.55746 0
M  V30 25219 O 2280.91 1.70188 0.3717 0
M  V30 25220 C 2278.04 3.35268 0.617114 0
M  V30 25221 H 2279.23 2.78952 -1.10116 0
M  V30 25222 H 2276.78 1.43964 -0.60862 0
M  V30 25223 H 2277.52 2.89131 1.46879 0
M  V30 25224 H 2277.3 3.92093 0.0236377 0
M  V30 25225 H 2278.79 4.05328 1.00493 0
M  V30 25226 N 2279.23 0.591922 1.46062 0
M  V30 25227 C 2280.19 -0.125933 2.28854 0
M  V30 25228 C 2281.19 -0.810083 1.38904 0
M  V30 25229 O 2282.38 -0.660632 1.61187 0
M  V30 25230 C 2279.52 -1.18804 3.19528 0
M  V30 25231 H 2280.71 0.601768 2.93801 0
M  V30 25232 H 2278.26 0.350281 1.52324 0
M  V30 25233 H 2279 -1.94702 2.59348 0
M  V30 25234 H 2278.78 -0.701868 3.85767 0
M  V30 25235 H 2280.27 -1.69125 3.8182 0
M  V30 25236 N 2280.71 -1.54102 0.330204 0
M  V30 25237 C 2281.67 -2.23221 -0.520105 0
M  V30 25238 C 2282.67 -1.22788 -1.03826 0
M  V30 25239 O 2283.86 -1.47321 -0.929626 0
M  V30 25240 C 2280.99 -2.94145 -1.72312 0
M  V30 25241 H 2282.19 -2.99782 0.0842132 0
M  V30 25242 H 2279.74 -1.56088 0.0813707 0
M  V30 25243 H 2280.47 -2.21738 -2.36649 0
M  V30 25244 H 2280.26 -3.67799 -1.35892 0
M  V30 25245 H 2281.75 -3.46788 -2.32654 0
M  V30 25246 N 2282.19 -0.0585199 -1.57491 0
M  V30 25247 C 2283.12 0.91114 -2.1499 0
M  V30 25248 C 2284.1 1.3195 -1.07346 0
M  V30 25249 O 2285.28 1.39292 -1.3532 0
M  V30 25250 C 2282.41 2.18342 -2.70082 0
M  V30 25251 C 2281.37 1.91489 -3.82774 0
M  V30 25252 C 2280.69 3.25234 -4.24414 0
M  V30 25253 C 2281.99 1.23066 -5.07594 0
M  V30 25254 H 2283.69 0.432194 -2.96264 0
M  V30 25255 H 2281.23 0.206444 -1.42512 0
M  V30 25256 H 2283.19 2.86582 -3.08948 0
M  V30 25257 H 2281.91 2.68455 -1.86009 0
M  V30 25258 H 2280.57 1.25658 -3.44392 0
M  V30 25259 H 2280.22 3.73162 -3.37282 0
M  V30 25260 H 2279.92 3.08062 -5.00371 0
M  V30 25261 H 2281.44 3.94693 -4.65886 0
M  V30 25262 H 2282.85 1.81353 -5.4386 0
M  V30 25263 H 2281.25 1.16197 -5.88743 0
M  V30 25264 H 2282.32 0.207762 -4.84455 0
M  V30 25265 N 2283.66 1.56128 0.21493 0
M  V30 25266 C 2284.94 1.70248 0.963063 0
M  V30 25267 C 2285.32 0.607676 2.02165 0
M  V30 25268 O 2284.67 -0.384345 2.25244 0
M  V30 25269 C 2284.88 3.11818 1.5675 0
M  V30 25270 C 2286.23 3.71434 2.05723 0
M  V30 25271 O 2287.25 3.14821 1.66631 0
M  V30 25272 O 2286.11 4.70748 2.77595 0
M  V30 25273 H 2283.2 0.693651 0.450309 0
M  V30 25274 H 2285.75 1.68443 0.206189 0
M  V30 25275 H 2284.52 3.82962 0.803465 0
M  V30 25276 H 2284.15 3.17769 2.38974 0
M  V30 25277 N 2285.14 -0.481893 1.50052 0
M  V30 25278 C 2286.55 -1.06303 1.53482 0
M  V30 25279 C 2286.9 -1.9337 0.332031 0
M  V30 25280 O 2286.03 -2.0913 -0.556219 0
M  V30 25281 C 2286.62 -1.93461 2.78133 0
M  V30 25282 C 2285.18 -2.46702 2.8428 0
M  V30 25283 C 2284.33 -1.2478 2.47639 0
M  V30 25284 H 2287.28 -0.264968 1.56472 0
M  V30 25285 H 2287.3 -2.78395 2.59377 0
M  V30 25286 H 2286.81 -1.30065 3.65656 0
M  V30 25287 H 2284.92 -3.13682 2.01082 0
M  V30 25288 H 2285.03 -2.82548 3.86915 0
M  V30 25289 H 2283.39 -1.57915 1.99837 0
M  V30 25290 H 2284.18 -0.630634 3.37458 0
M  V30 25291 N 2286.62 -1.39448 -0.734313 0
M  V30 25292 C 2288.03 -1.32768 -1.31261 0
M  V30 25293 C 2288.38 0.00764048 -1.96199 0
M  V30 25294 O 2287.51 0.909762 -1.96347 0
M  V30 25295 C 2288.1 -2.40454 -2.38678 0
M  V30 25296 C 2286.66 -2.37293 -2.92179 0
M  V30 25297 C 2285.81 -2.22307 -1.65756 0
M  V30 25298 H 2288.76 -1.49525 -0.531773 0
M  V30 25299 H 2288.78 -2.07282 -3.19084 0
M  V30 25300 H 2288.29 -3.37629 -1.91386 0
M  V30 25301 H 2286.39 -1.4376 -3.4375 0
M  V30 25302 H 2286.51 -3.32176 -3.45247 0
M  V30 25303 H 2284.87 -1.69492 -1.90117 0
M  V30 25304 H 2285.65 -3.21451 -1.20515 0
M  V30 25305 N 2288.1 0.964571 -1.24635 0
M  V30 25306 C 2289.03 2.07739 -1.06614 0
M  V30 25307 C 2290.01 1.70086 0.0218367 0
M  V30 25308 O 2291.19 1.93652 -0.145827 0
M  V30 25309 C 2288.32 3.40707 -0.673503 0
M  V30 25310 C 2287.28 3.92329 -1.71061 0
M  V30 25311 C 2286.6 5.21676 -1.17294 0
M  V30 25312 C 2287.9 4.19818 -3.10725 0
M  V30 25313 H 2289.6 2.23073 -1.99697 0
M  V30 25314 H 2287.14 1.07193 -0.961539 0
M  V30 25315 H 2289.1 4.17998 -0.534418 0
M  V30 25316 H 2287.82 3.25283 0.293016 0
M  V30 25317 H 2286.48 3.17198 -1.83796 0
M  V30 25318 H 2286.13 5.02614 -0.196935 0
M  V30 25319 H 2285.83 5.57183 -1.86602 0
M  V30 25320 H 2287.35 6.01573 -1.04604 0
M  V30 25321 H 2288.77 4.87802 -3.01201 0
M  V30 25322 H 2287.16 4.6656 -3.77414 0
M  V30 25323 H 2288.23 3.26473 -3.5853 0
M  V30 25324 N 2289.58 1.0606 1.16572 0
M  V30 25325 C 2290.82 0.775905 1.87045 0
M  V30 25326 C 2291.15 -0.697502 1.81563 0
M  V30 25327 O 2290.41 -1.5266 1.22447 0
M  V30 25328 C 2290.71 1.21281 3.36193 0
M  V30 25329 C 2290.37 2.68993 3.61875 0
M  V30 25330 C 2289.03 3.09341 3.68594 0
M  V30 25331 C 2291.39 3.64401 3.72641 0
M  V30 25332 C 2288.71 4.43944 3.83577 0
M  V30 25333 C 2291.07 4.98748 3.89145 0
M  V30 25334 C 2289.73 5.38737 3.94105 0
M  V30 25335 H 2289 0.283924 0.684447 0
M  V30 25336 H 2291.65 1.32927 1.3785 0
M  V30 25337 H 2289.95 0.578596 3.87504 0
M  V30 25338 H 2291.65 0.96961 3.89101 0
M  V30 25339 H 2288.24 2.36751 3.57277 0
M  V30 25340 H 2292.42 3.34363 3.66763 0
M  V30 25341 H 2287.68 4.74415 3.85668 0
M  V30 25342 H 2291.85 5.72561 3.96417 0
M  V30 25343 H 2289.48 6.4304 4.05467 0
M  V30 25344 N 2291.06 -1.33168 0.84285 0
M  V30 25345 C 2291.99 -2.27099 0.223902 0
M  V30 25346 C 2292.97 -1.49845 -0.631285 0
M  V30 25347 O 2294.15 -1.79006 -0.590677 0
M  V30 25348 C 2291.28 -3.31696 -0.685254 0
M  V30 25349 C 2290.32 -4.26394 0.0949939 0
M  V30 25350 S 2291.16 -5.15339 1.45555 0
M  V30 25351 C 2292.31 -6.23463 0.551794 0
M  V30 25352 H 2292.55 -2.79247 1.0202 0
M  V30 25353 H 2290.08 -1.40519 0.639821 0
M  V30 25354 H 2292.04 -3.92441 -1.20419 0
M  V30 25355 H 2290.7 -2.78354 -1.45525 0
M  V30 25356 H 2289.89 -5.00452 -0.596971 0
M  V30 25357 H 2289.49 -3.70006 0.545119 0
M  V30 25358 H 2291.78 -6.77043 -0.248758 0
M  V30 25359 H 2292.73 -6.96751 1.26266 0
M  V30 25360 H 2293.14 -5.64347 0.131374 0
M  V30 25361 N 2292.53 -0.599659 -1.45746 0
M  V30 25362 C 2293.5 0.113794 -2.28917 0
M  V30 25363 C 2294.5 0.802705 -1.39332 0
M  V30 25364 O 2295.69 0.652074 -1.61535 0
M  V30 25365 C 2292.82 1.17108 -3.20154 0
M  V30 25366 H 2294.01 -0.617341 -2.93477 0
M  V30 25367 H 2291.56 -0.358354 -1.52136 0
M  V30 25368 H 2292.3 1.93324 -2.60377 0
M  V30 25369 H 2292.08 0.6814 -3.86134 0
M  V30 25370 H 2293.57 1.67098 -3.82711 0
M  V30 25371 N 2294.01 1.53925 -0.338371 0
M  V30 25372 C 2294.96 2.24847 0.520806 0
M  V30 25373 C 2295.93 1.24478 1.09974 0
M  V30 25374 O 2297.11 1.53198 1.13732 0
M  V30 25375 C 2294.25 3.02087 1.66845 0
M  V30 25376 C 2293.37 4.17301 1.11732 0
M  V30 25377 C 2292.5 4.82039 2.23185 0
M  V30 25378 C 2291.54 5.89331 1.65396 0
M  V30 25379 N 2290.68 6.4787 2.70571 0
M  V30 25380 H 2295.52 2.97862 -0.0905405 0
M  V30 25381 H 2293.05 1.46992 -0.056454 0
M  V30 25382 H 2295.01 3.45126 2.34401 0
M  V30 25383 H 2293.64 2.31379 2.25086 0
M  V30 25384 H 2292.69 3.78941 0.332852 0
M  V30 25385 H 2294.01 4.94486 0.65459 0
M  V30 25386 H 2293.16 5.28122 2.98616 0
M  V30 25387 H 2291.9 4.04267 2.728 0
M  V30 25388 H 2290.9 5.42636 0.884683 0
M  V30 25389 H 2292.13 6.69008 1.1664 0
M  V30 25390 H 2290.08 5.72964 3.1945 0
M  V30 25391 H 2289.99 7.20513 2.28905 0
M  V30 25392 H 2291.26 6.98607 3.45787 0
M  V30 25393 N 2295.49 0.0668712 1.57458 0
M  V30 25394 C 2296.9 -0.466526 1.80777 0
M  V30 25395 C 2297.25 -1.69949 0.98039 0
M  V30 25396 O 2296.38 -2.1546 0.201479 0
M  V30 25397 C 2296.97 -0.853153 3.27882 0
M  V30 25398 C 2295.53 -1.33144 3.52065 0
M  V30 25399 C 2294.68 -0.314215 2.75514 0
M  V30 25400 H 2297.63 0.292615 1.55979 0
M  V30 25401 H 2297.65 -1.71494 3.39662 0
M  V30 25402 H 2297.16 0.0444121 3.88075 0
M  V30 25403 H 2295.26 -2.24767 2.97171 0
M  V30 25404 H 2295.38 -1.31276 4.60764 0
M  V30 25405 H 2293.74 -0.79045 2.42124 0
M  V30 25406 H 2294.52 0.575537 3.38441 0
M  V30 25407 N 2296.97 -1.56239 -0.206647 0
M  V30 25408 C 2297.92 -1.94497 -1.27568 0
M  V30 25409 C 2298.91 -0.828888 -1.47736 0
M  V30 25410 O 2300.12 -1.01382 -1.48733 0
M  V30 25411 H 2296.49 -0.618308 -0.428018 0
M  V30 25412 H 2298.46 -2.83671 -0.925911 0
M  V30 25413 C 2297.21 -2.29084 -2.61564 0
M  V30 25414 H 2296.53 -3.14486 -2.46858 0
M  V30 25415 H 2297.97 -2.59726 -3.3514 0
M  V30 25416 C 2296.43 -1.12128 -3.17693 0
M  V30 25417 O 2296.96 -0.390223 -3.998 0
M  V30 25418 N 2295.17 -0.901146 -2.76275 0
M  V30 25419 H 2294.72 -1.49737 -2.09611 0
M  V30 25420 H 2294.67 -0.120374 -3.14169 0
M  V30 25421 N 2298.45 0.473929 -1.50305 0
M  V30 25422 C 2299.39 1.57228 -1.68961 0
M  V30 25423 C 2300.36 1.57386 -0.530927 0
M  V30 25424 O 2301.55 1.7496 -0.761164 0
M  V30 25425 C 2298.69 2.9522 -1.78715 0
M  V30 25426 C 2297.8 3.04872 -3.06067 0
M  V30 25427 C 2296.94 4.33762 -3.06633 0
M  V30 25428 C 2295.97 4.37146 -4.2845 0
M  V30 25429 N 2295.11 5.57503 -4.26773 0
M  V30 25430 H 2299.95 1.40626 -2.62732 0
M  V30 25431 H 2297.49 0.683766 -1.30242 0
M  V30 25432 H 2299.45 3.75239 -1.82351 0
M  V30 25433 H 2298.08 3.10464 -0.88386 0
M  V30 25434 H 2297.13 2.17745 -3.11915 0
M  V30 25435 H 2298.44 3.03233 -3.96045 0
M  V30 25436 H 2297.59 5.22125 -3.08983 0
M  V30 25437 H 2296.33 4.38006 -2.1448 0
M  V30 25438 H 2295.34 3.47181 -4.26316 0
M  V30 25439 H 2296.56 4.34595 -5.21827 0
M  V30 25440 H 2294.51 5.62538 -3.37472 0
M  V30 25441 H 2294.43 5.57592 -5.10516 0
M  V30 25442 H 2295.69 6.47999 -4.33264 0
M  V30 25443 N 2299.92 1.39835 0.726907 0
M  V30 25444 C 2301.17 1.37227 1.48368 0
M  V30 25445 C 2301.49 -0.0284514 1.94979 0
M  V30 25446 O 2300.76 -0.981183 1.69557 0
M  V30 25447 H 2299.34 0.505021 0.550421 0
M  V30 25448 H 2302 1.7478 0.862437 0
M  V30 25449 H 2301.1 2.04007 2.36194 0
M  V30 25450 N 2301.4 -0.957948 1.25144 0
M  V30 25451 C 2302.33 -2.05734 1.01026 0
M  V30 25452 C 2303.35 -1.62783 -0.0236616 0
M  V30 25453 O 2304.54 -1.77206 0.214511 0
M  V30 25454 C 2301.64 -3.35122 0.504654 0
M  V30 25455 C 2300.81 -4.06929 1.60397 0
M  V30 25456 C 2299.87 -5.14589 1.09931 0
M  V30 25457 O 2298.89 -5.40221 1.79303 0
M  V30 25458 N 2300.1 -5.80468 -0.0611525 0
M  V30 25459 H 2302.86 -2.26995 1.95687 0
M  V30 25460 H 2300.42 -1.12627 1.16305 0
M  V30 25461 H 2302.41 -4.04416 0.151587 0
M  V30 25462 H 2300.98 -3.10658 -0.347935 0
M  V30 25463 H 2300.2 -3.31778 2.12877 0
M  V30 25464 H 2301.49 -4.51663 2.3426 0
M  V30 25465 H 2300.89 -5.62058 -0.640887 0
M  V30 25466 H 2299.45 -6.50831 -0.355281 0
M  V30 25467 N 2302.88 -1.06677 -1.16008 0
M  V30 25468 C 2303.81 -0.702346 -2.22687 0
M  V30 25469 C 2304.79 0.307003 -1.67307 0
M  V30 25470 O 2305.98 0.181271 -1.93352 0
M  V30 25471 C 2303.11 -0.092099 -3.47178 0
M  V30 25472 C 2302.06 -1.02785 -4.15475 0
M  V30 25473 C 2301.39 -0.280704 -5.33963 0
M  V30 25474 C 2302.69 -2.35854 -4.66015 0
M  V30 25475 H 2304.38 -1.59423 -2.53426 0
M  V30 25476 H 2301.93 -0.767982 -1.21811 0
M  V30 25477 H 2303.88 0.17474 -4.21038 0
M  V30 25478 H 2302.6 0.834821 -3.1575 0
M  V30 25479 H 2301.26 -1.2795 -3.43547 0
M  V30 25480 H 2300.91 0.649458 -4.9879 0
M  V30 25481 H 2300.61 -0.90436 -5.80599 0
M  V30 25482 H 2302.13 -0.0215033 -6.10596 0
M  V30 25483 H 2303.55 -2.15054 -5.31436 0
M  V30 25484 H 2301.94 -2.93752 -5.23288 0
M  V30 25485 H 2303.01 -2.98648 -3.82018 0
M  V30 25486 N 2304.36 1.32719 -0.8499 0
M  V30 25487 C 2305.61 1.9668 -0.447209 0
M  V30 25488 C 2305.92 1.68027 1.00132 0
M  V30 25489 O 2307.13 2.25688 1.50922 0
M  V30 25490 C 2305.58 3.52025 -0.748762 0
M  V30 25491 C 2305.19 3.89542 -2.21271 0
M  V30 25492 C 2306.93 4.22481 -0.413562 0
M  V30 25493 C 2304.84 5.37912 -2.45773 0
M  V30 25494 H 2303.77 0.73606 -0.163499 0
M  V30 25495 H 2306.42 1.51181 -1.04002 0
M  V30 25496 H 2304.8 3.95908 -0.0854423 0
M  V30 25497 H 2305.98 3.56684 -2.91742 0
M  V30 25498 H 2304.29 3.32099 -2.51196 0
M  V30 25499 H 2306.89 5.31609 -0.574111 0
M  V30 25500 H 2307.23 4.11282 0.64442 0
M  V30 25501 H 2307.77 3.84165 -1.03257 0
M  V30 25502 H 2304.5 5.54126 -3.50177 0
M  V30 25503 H 2304.02 5.72193 -1.79874 0
M  V30 25504 H 2305.7 6.04936 -2.29482 0
M  V30 25505 N 2305.84 0.60738 1.45426 0
M  V30 25506 C 2306.8 -0.101653 2.28974 0
M  V30 25507 C 2307.8 -0.795304 1.39755 0
M  V30 25508 O 2308.99 -0.643499 1.61879 0
M  V30 25509 C 2306.12 -1.15409 3.2077 0
M  V30 25510 H 2307.31 0.632896 2.93146 0
M  V30 25511 H 2304.87 0.366417 1.51944 0
M  V30 25512 H 2305.6 -1.91941 2.61399 0
M  V30 25513 H 2305.39 -0.660912 3.8649 0
M  V30 25514 H 2306.88 -1.65066 3.83592 0
M  V30 25515 N 2307.31 -1.53743 0.34653 0
M  V30 25516 C 2308.24 -2.28059 -0.501153 0
M  V30 25517 C 2309.23 -1.29736 -1.10011 0
M  V30 25518 O 2310.41 -1.58583 -1.12094 0
M  V30 25519 C 2307.54 -3.05562 -1.65073 0
M  V30 25520 C 2306.49 -4.11413 -1.17996 0
M  V30 25521 C 2305.82 -4.76889 -2.41829 0
M  V30 25522 C 2307.12 -5.21558 -0.278303 0
M  V30 25523 H 2308.81 -2.99164 0.118803 0
M  V30 25524 H 2306.36 -1.43881 0.0585784 0
M  V30 25525 H 2308.31 -3.56291 -2.25022 0
M  V30 25526 H 2307.04 -2.32113 -2.29763 0
M  V30 25527 H 2305.7 -3.61602 -0.603268 0
M  V30 25528 H 2305.34 -4.00031 -3.04933 0
M  V30 25529 H 2305.04 -5.48405 -2.1101 0
M  V30 25530 H 2306.57 -5.30403 -3.02499 0
M  V30 25531 H 2307.98 -5.67904 -0.784723 0
M  V30 25532 H 2306.38 -6.00068 -0.0618652 0
M  V30 25533 H 2307.45 -4.80041 0.684761 0
M  V30 25534 N 2308.79 -0.0752207 -1.5742 0
M  V30 25535 C 2310.07 0.634296 -1.8503 0
M  V30 25536 C 2310.45 1.8758 -0.968338 0
M  V30 25537 O 2309.8 2.28472 -0.035515 0
M  V30 25538 C 2310.01 0.968683 -3.35287 0
M  V30 25539 C 2311.36 1.3407 -4.02878 0
M  V30 25540 O 2312.38 1.06031 -3.40053 0
M  V30 25541 O 2311.24 1.86497 -5.13694 0
M  V30 25542 H 2308.33 0.315374 -0.764505 0
M  V30 25543 H 2310.88 -0.106412 -1.69366 0
M  V30 25544 H 2309.65 0.0870688 -3.91203 0
M  V30 25545 H 2309.27 1.76604 -3.56226 0
M  V30 25546 N 2310.27 1.56347 0.198358 0
M  V30 25547 C 2311.2 1.97312 1.24861 0
M  V30 25548 C 2312.18 0.844602 1.4765 0
M  V30 25549 O 2313.37 1.10868 1.59442 0
M  V30 25550 C 2310.5 2.30982 2.59354 0
M  V30 25551 C 2309.45 3.46541 2.51183 0
M  V30 25552 C 2308.78 3.65878 3.8992 0
M  V30 25553 C 2310.08 4.80826 2.03969 0
M  V30 25554 H 2311.77 2.85293 0.908202 0
M  V30 25555 H 2309.32 1.37259 0.435438 0
M  V30 25556 H 2311.27 2.58234 3.33006 0
M  V30 25557 H 2309.99 1.3988 2.95129 0
M  V30 25558 H 2308.65 3.19374 1.79988 0
M  V30 25559 H 2308.3 2.72112 4.23041 0
M  V30 25560 H 2308 4.43617 3.85328 0
M  V30 25561 H 2309.52 3.95503 4.65198 0
M  V30 25562 H 2310.94 5.07132 2.67377 0
M  V30 25563 H 2309.34 5.62012 2.10387 0
M  V30 25564 H 2310.41 4.74628 0.992778 0
M  V30 25565 N 2311.75 -0.465951 1.50554 0
M  V30 25566 C 2313.16 -1.04669 1.54601 0
M  V30 25567 C 2313.51 -1.93007 0.352522 0
M  V30 25568 O 2312.64 -2.09708 -0.534007 0
M  V30 25569 C 2313.23 -1.905 2.8017 0
M  V30 25570 C 2311.79 -2.43673 2.8688 0
M  V30 25571 C 2310.94 -1.22147 2.48949 0
M  V30 25572 H 2313.89 -0.248357 1.56745 0
M  V30 25573 H 2313.91 -2.75628 2.62315 0
M  V30 25574 H 2313.42 -1.2618 3.67015 0
M  V30 25575 H 2311.52 -3.11532 2.04398 0
M  V30 25576 H 2311.63 -2.78429 3.8989 0
M  V30 25577 H 2310 -1.55786 2.01501 0
M  V30 25578 H 2310.78 -0.594807 3.38108 0
M  V30 25579 N 2313.23 -1.40218 -0.719481 0
M  V30 25580 C 2314.16 -1.34574 -1.84296 0
M  V30 25581 C 2315.14 -0.216769 -1.61149 0
M  V30 25582 O 2316.32 -0.399788 -1.84212 0
M  V30 25583 C 2313.45 -1.09341 -3.20566 0
M  V30 25584 C 2312.49 -2.24637 -3.62547 0
M  V30 25585 S 2313.33 -3.8701 -3.70113 0
M  V30 25586 C 2314.48 -3.64033 -5.09147 0
M  V30 25587 H 2314.72 -2.29654 -1.88803 0
M  V30 25588 H 2312.25 -1.26458 -0.885879 0
M  V30 25589 H 2314.21 -0.954672 -3.99245 0
M  V30 25590 H 2312.87 -0.159219 -3.13696 0
M  V30 25591 H 2312.06 -2.02614 -4.6148 0
M  V30 25592 H 2311.66 -2.34794 -2.91115 0
M  V30 25593 H 2313.96 -3.22259 -5.95949 0
M  V30 25594 H 2314.9 -4.62482 -5.36205 0
M  V30 25595 H 2315.31 -2.97801 -4.79557 0
M  V30 25596 N 2314.7 0.951297 -1.25651 0
M  V30 25597 C 2315.67 2.03005 -1.06402 0
M  V30 25598 C 2316.67 1.60792 -0.0157077 0
M  V30 25599 O 2317.86 1.72276 -0.2582 0
M  V30 25600 C 2314.99 3.35284 -0.616243 0
M  V30 25601 H 2316.18 2.21514 -2.02168 0
M  V30 25602 H 2313.74 1.12885 -1.08105 0
M  V30 25603 H 2314.47 3.22472 0.343861 0
M  V30 25604 H 2314.26 3.67272 -1.37308 0
M  V30 25605 H 2315.75 4.14558 -0.503105 0
M  V30 25606 N 2316.18 1.07291 1.1544 0
M  V30 25607 C 2317.43 0.796879 1.86488 0
M  V30 25608 C 2317.76 -0.675339 1.82079 0
M  V30 25609 O 2317.04 -1.49558 1.24349 0
M  V30 25610 C 2317.32 1.30495 3.35624 0
M  V30 25611 C 2317.17 2.84167 3.48668 0
M  V30 25612 C 2318.49 0.920983 4.30356 0
M  V30 25613 H 2315.61 0.290951 0.677139 0
M  V30 25614 H 2318.25 1.33058 1.3563 0
M  V30 25615 H 2316.4 0.850949 3.79066 0
M  V30 25616 H 2318.07 3.37851 3.14093 0
M  V30 25617 H 2316.32 3.22396 2.90247 0
M  V30 25618 H 2316.99 3.14785 4.53447 0
M  V30 25619 H 2319.46 1.31217 3.94869 0
M  V30 25620 H 2318.34 1.30382 5.3319 0
M  V30 25621 H 2318.6 -0.173149 4.41761 0
M  V30 25622 N 2317.66 -1.32267 0.856927 0
M  V30 25623 C 2318.91 -1.96783 0.460509 0
M  V30 25624 C 2319.23 -1.68137 -0.987672 0
M  V30 25625 O 2318.5 -0.989795 -1.69056 0
M  V30 25626 H 2317.08 -0.728024 0.167302 0
M  V30 25627 H 2319.74 -1.6131 1.09385 0
M  V30 25628 H 2318.84 -3.06132 0.607443 0
M  V30 25629 N 2319.14 -0.615084 -1.45102 0
M  V30 25630 C 2320.42 -0.044862 -1.95549 0
M  V30 25631 C 2320.8 1.42508 -1.55739 0
M  V30 25632 O 2320.14 2.13141 -0.823593 0
M  V30 25633 C 2320.35 -0.250846 -3.48097 0
M  V30 25634 C 2321.7 -0.135584 -4.24383 0
M  V30 25635 O 2322.73 -0.181361 -3.55738 0
M  V30 25636 O 2321.58 -0.0269839 -5.46493 0
M  V30 25637 H 2318.68 0.03147 -0.826401 0
M  V30 25638 H 2321.22 -0.685669 -1.55231 0
M  V30 25639 H 2320 -1.27145 -3.70067 0
M  V30 25640 H 2319.62 0.424867 -3.95323 0
M  V30 25641 N 2320.62 1.53557 -0.354678 0
M  V30 25642 C 2322.03 1.596 -0.00318231 0
M  V30 25643 C 2322.23 1.37024 1.47738 0
M  V30 25644 O 2321.29 1.17 2.23757 0
M  V30 25645 C 2322.6 2.97324 -0.449342 0
M  V30 25646 C 2324.15 3.104 -0.402632 0
M  V30 25647 C 2324.63 4.50519 -0.824434 0
M  V30 25648 N 2326.12 4.56601 -0.779059 0
M  V30 25649 C 2326.85 5.6319 -1.07725 0
M  V30 25650 N 2326.35 6.77581 -1.44417 0
M  V30 25651 N 2328.14 5.5312 -1.00076 0
M  V30 25652 H 2320.29 1.66485 -1.31896 0
M  V30 25653 H 2322.55 0.780274 -0.538402 0
M  V30 25654 H 2322.26 3.18947 -1.48208 0
M  V30 25655 H 2322.13 3.76818 0.169706 0
M  V30 25656 H 2324.52 2.88493 0.620954 0
M  V30 25657 H 2324.6 2.32939 -1.05703 0
M  V30 25658 H 2324.25 4.73162 -1.84608 0
M  V30 25659 H 2324.18 5.26394 -0.147397 0
M  V30 25660 H 2326.67 3.74462 -0.508594 0
M  V30 25661 H 2326.98 7.54843 -1.65625 0
M  V30 25662 H 2325.33 6.78999 -1.48272 0
M  V30 25663 H 2328.52 4.62632 -0.713374 0
M  V30 25664 H 2328.69 6.36093 -1.23649 0
M  V30 25665 N 2322.1 0.083568 1.57378 0
M  V30 25666 C 2323.34 -0.582464 1.93107 0
M  V30 25667 C 2323.66 -1.70051 0.96654 0
M  V30 25668 O 2324.86 -2.42691 1.2171 0
M  V30 25669 C 2323.32 -1.08745 3.43078 0
M  V30 25670 C 2322.93 0.000225151 4.48 0
M  V30 25671 C 2324.67 -1.72687 3.87788 0
M  V30 25672 C 2322.58 -0.519464 5.89114 0
M  V30 25673 H 2321.51 -0.221345 0.720779 0
M  V30 25674 H 2324.16 0.157707 1.82821 0
M  V30 25675 H 2322.54 -1.88095 3.48477 0
M  V30 25676 H 2323.72 0.775279 4.54231 0
M  V30 25677 H 2322.03 0.544133 4.12829 0
M  V30 25678 H 2324.63 -2.12621 4.90608 0
M  V30 25679 H 2324.97 -2.59152 3.258 0
M  V30 25680 H 2325.5 -0.999389 3.85042 0
M  V30 25681 H 2322.24 0.308301 6.54775 0
M  V30 25682 H 2321.76 -1.26178 5.86378 0
M  V30 25683 H 2323.44 -0.992125 6.39348 0
M  V30 25684 N 2323.57 -1.5645 -0.190064 0
M  V30 25685 C 2324.52 -1.91349 -1.23974 0
M  V30 25686 C 2325.51 -0.779717 -1.40745 0
M  V30 25687 O 2326.7 -1.04265 -1.43031 0
M  V30 25688 C 2323.83 -2.26083 -2.58343 0
M  V30 25689 C 2322.91 -3.4593 -2.45344 0
M  V30 25690 N 2323.31 -4.63699 -2.02031 0
M  V30 25691 C 2321.6 -3.50167 -2.76223 0
M  V30 25692 C 2322.3 -5.45854 -2.01044 0
M  V30 25693 N 2321.28 -4.86394 -2.42739 0
M  V30 25694 H 2325.08 -2.799 -0.896269 0
M  V30 25695 H 2322.6 -1.57436 -0.398468 0
M  V30 25696 H 2324.59 -2.49273 -3.34169 0
M  V30 25697 H 2323.25 -1.38861 -2.93509 0
M  V30 25698 H 2324.26 -4.88271 -1.72661 0
M  V30 25699 H 2320.94 -2.73374 -3.15552 0
M  V30 25700 H 2322.33 -6.50191 -1.69414 0
M  V30 25701 N 2325.05 0.45796 -1.50799 0
M  V30 25702 C 2326.29 1.21876 -1.6409 0
M  V30 25703 C 2326.66 1.88968 -0.339881 0
M  V30 25704 O 2327.86 2.66533 -0.348348 0
M  V30 25705 C 2326.13 2.22455 -2.7973 0
M  V30 25706 S 2327.69 3.07298 -3.13231 0
M  V30 25707 H 2324.5 0.4136 -0.578322 0
M  V30 25708 H 2327.11 0.513612 -1.88633 0
M  V30 25709 H 2325.81 1.71769 -3.72725 0
M  V30 25710 H 2325.34 2.97579 -2.57313 0
M  V30 25711 H 2327.36 4.23809 -2.5807 0
M  V30 25712 N 2326.53 1.40598 0.712035 0
M  V30 25713 C 2327.46 1.43902 1.83887 0
M  V30 25714 C 2328.44 0.299533 1.67442 0
M  V30 25715 O 2329.63 0.508657 1.8742 0
M  V30 25716 C 2326.76 1.30437 3.21875 0
M  V30 25717 C 2325.71 2.42026 3.52998 0
M  V30 25718 C 2325.04 2.13634 4.90168 0
M  V30 25719 C 2326.34 3.84368 3.53636 0
M  V30 25720 H 2328.03 2.38206 1.81379 0
M  V30 25721 H 2325.58 1.14655 0.871217 0
M  V30 25722 H 2327.53 1.31364 4.00402 0
M  V30 25723 H 2326.25 0.326107 3.24968 0
M  V30 25724 H 2324.91 2.40354 2.76813 0
M  V30 25725 H 2324.56 1.14191 4.89867 0
M  V30 25726 H 2324.26 2.88398 5.11957 0
M  V30 25727 H 2325.78 2.1625 5.71024 0
M  V30 25728 H 2327.2 3.87844 4.22196 0
M  V30 25729 H 2325.59 4.5868 3.86953 0
M  V30 25730 H 2326.66 4.13698 2.52947 0
M  V30 25731 N 2328.01 -0.94462 1.26153 0
M  V30 25732 C 2329.28 -1.66746 1.0225 0
M  V30 25733 C 2329.66 -2.06288 -0.448165 0
M  V30 25734 O 2329.01 -1.78402 -1.42776 0
M  V30 25735 C 2329.22 -2.88225 1.96793 0
M  V30 25736 C 2330.57 -3.59954 2.25208 0
M  V30 25737 O 2331.59 -2.98324 1.94631 0
M  V30 25738 O 2330.45 -4.70951 2.7725 0
M  V30 25739 H 2327.55 -0.73005 0.38853 0
M  V30 25740 H 2330.09 -0.996656 1.37349 0
M  V30 25741 H 2328.87 -2.5587 2.96051 0
M  V30 25742 H 2328.49 -3.63033 1.62152 0
M  V30 25743 N 2329.49 -1.07901 -1.1487 0
M  V30 25744 C 2330.73 -0.800531 -1.85133 0
M  V30 25745 C 2331.05 0.675982 -1.83548 0
M  V30 25746 O 2332.25 1.06944 -2.4955 0
M  V30 25747 C 2330.71 -1.38203 -3.32307 0
M  V30 25748 C 2330.32 -2.88996 -3.42323 0
M  V30 25749 C 2332.06 -1.18181 -4.07717 0
M  V30 25750 C 2329.97 -3.40309 -4.83678 0
M  V30 25751 H 2328.9 -0.295792 -0.693558 0
M  V30 25752 H 2331.55 -1.29978 -1.29529 0
M  V30 25753 H 2329.93 -0.8105 -3.87617 0
M  V30 25754 H 2331.11 -3.52241 -2.97091 0
M  V30 25755 H 2329.42 -3.07872 -2.80364 0
M  V30 25756 H 2332.02 -1.53989 -5.12046 0
M  V30 25757 H 2332.36 -0.121244 -4.16123 0
M  V30 25758 H 2332.89 -1.72 -3.58693 0
M  V30 25759 H 2329.63 -4.45916 -4.80458 0
M  V30 25760 H 2329.15 -2.8182 -5.29469 0
M  V30 25761 H 2330.83 -3.36593 -5.52552 0
M  V30 25762 N 2330.96 1.31811 -0.863929 0
M  V30 25763 C 2331.89 2.31144 -0.330883 0
M  V30 25764 C 2332.87 1.60088 0.574977 0
M  V30 25765 O 2334.06 1.87831 0.493271 0
M  V30 25766 C 2331.19 3.44055 0.473679 0
M  V30 25767 C 2330.14 4.26659 -0.338556 0
M  V30 25768 C 2329.47 5.3142 0.591318 0
M  V30 25769 C 2330.77 4.98165 -1.56935 0
M  V30 25770 H 2332.46 2.75977 -1.16091 0
M  V30 25771 H 2330.01 1.32678 -0.559681 0
M  V30 25772 H 2331.96 4.12592 0.857071 0
M  V30 25773 H 2330.69 2.97973 1.33716 0
M  V30 25774 H 2329.35 3.5978 -0.703818 0
M  V30 25775 H 2328.99 4.8159 1.4519 0
M  V30 25776 H 2328.69 5.87577 0.0517989 0
M  V30 25777 H 2330.22 6.02819 0.971685 0
M  V30 25778 H 2331.63 5.59333 -1.25774 0
M  V30 25779 H 2330.03 5.6409 -2.04749 0
M  V30 25780 H 2331.1 4.25497 -2.32552 0
M  V30 25781 N 2332.44 0.62277 1.44773 0
M  V30 25782 C 2333.37 -0.0741451 2.33382 0
M  V30 25783 C 2334.35 -0.843361 1.47721 0
M  V30 25784 O 2335.54 -0.810903 1.7646 0
M  V30 25785 C 2332.67 -1.06198 3.30665 0
M  V30 25786 C 2331.62 -0.404962 4.2608 0
M  V30 25787 C 2330.95 -1.50211 5.13167 0
M  V30 25788 C 2332.25 0.683505 5.17808 0
M  V30 25789 H 2333.94 0.665765 2.91904 0
M  V30 25790 H 2331.49 0.321611 1.40363 0
M  V30 25791 H 2333.44 -1.5582 3.91533 0
M  V30 25792 H 2332.16 -1.83267 2.70334 0
M  V30 25793 H 2330.82 0.0705327 3.66532 0
M  V30 25794 H 2330.47 -2.26347 4.49195 0
M  V30 25795 H 2330.17 -1.06792 5.77814 0
M  V30 25796 H 2331.7 -2.00031 5.76906 0
M  V30 25797 H 2333.11 0.270731 5.7266 0
M  V30 25798 H 2331.51 1.04034 5.91014 0
M  V30 25799 H 2332.58 1.55403 4.59323 0
M  V30 25800 N 2333.92 -1.53367 0.362817 0
M  V30 25801 C 2334.88 -2.24274 -0.472639 0
M  V30 25802 C 2335.88 -1.24963 -1.01198 0
M  V30 25803 O 2337.07 -1.4926 -0.898168 0
M  V30 25804 C 2334.2 -2.97734 -1.66034 0
M  V30 25805 H 2335.4 -2.99536 0.147782 0
M  V30 25806 H 2332.95 -1.5588 0.114461 0
M  V30 25807 H 2333.69 -2.26708 -2.31892 0
M  V30 25808 H 2333.47 -3.70598 -1.28059 0
M  V30 25809 H 2334.96 -3.51645 -2.25246 0
M  V30 25810 N 2335.4 -0.091913 -1.57332 0
M  V30 25811 C 2336.65 0.572543 -1.94237 0
M  V30 25812 C 2336.97 1.68388 -0.973428 0
M  V30 25813 O 2336.23 1.95699 0.00753472 0
M  V30 25814 C 2336.53 1.17045 -3.37691 0
M  V30 25815 C 2336.19 0.183224 -4.50528 0
M  V30 25816 C 2334.86 -0.0883122 -4.81119 0
M  V30 25817 C 2337.21 -0.491041 -5.18882 0
M  V30 25818 C 2334.54 -1.04086 -5.77393 0
M  V30 25819 C 2336.89 -1.43204 -6.16178 0
M  V30 25820 C 2335.55 -1.71184 -6.45176 0
M  V30 25821 H 2334.82 0.209508 -0.710765 0
M  V30 25822 H 2337.47 -0.167069 -1.9077 0
M  V30 25823 H 2335.77 1.98624 -3.37721 0
M  V30 25824 H 2337.47 1.69221 -3.63546 0
M  V30 25825 H 2334.06 0.405049 -4.26682 0
M  V30 25826 H 2338.24 -0.294399 -4.95426 0
M  V30 25827 H 2333.5 -1.26468 -5.98177 0
M  V30 25828 H 2337.67 -1.96034 -6.68239 0
M  V30 25829 H 2335.3 -2.45153 -7.19586 0
M  V30 25830 N 2336.88 1.56548 0.181765 0
M  V30 25831 C 2338.1 1.85523 0.915914 0
M  V30 25832 C 2338.52 0.676047 1.76281 0
M  V30 25833 O 2337.88 -0.355045 1.79013 0
M  V30 25834 C 2337.93 3.13431 1.80121 0
M  V30 25835 O 2337.65 4.26803 0.988487 0
M  V30 25836 C 2339.15 3.55678 2.64591 0
M  V30 25837 H 2336.37 0.615765 0.266599 0
M  V30 25838 H 2338.91 2.03661 0.185004 0
M  V30 25839 H 2337.07 2.97149 2.48558 0
M  V30 25840 H 2337.48 4.99724 1.59299 0
M  V30 25841 H 2338.96 4.48107 3.22342 0
M  V30 25842 H 2339.43 2.79298 3.38953 0
M  V30 25843 H 2340.04 3.74535 2.01503 0
M  V30 25844 N 2338.35 -0.449957 1.5104 0
M  V30 25845 C 2339.3 -1.5452 1.71441 0
M  V30 25846 C 2340.27 -1.56521 0.555899 0
M  V30 25847 O 2341.46 -1.73727 0.788902 0
M  V30 25848 C 2338.6 -2.9234 1.83389 0
M  V30 25849 C 2337.71 -2.99965 3.10878 0
M  V30 25850 C 2336.84 -4.28829 3.13495 0
M  V30 25851 C 2335.88 -4.30274 4.35351 0
M  V30 25852 N 2335.02 -5.50643 4.35588 0
M  V30 25853 H 2339.86 -1.36428 2.64936 0
M  V30 25854 H 2337.4 -0.662959 1.31314 0
M  V30 25855 H 2339.36 -3.7229 1.88298 0
M  V30 25856 H 2337.99 -3.09018 0.93314 0
M  V30 25857 H 2337.04 -2.12755 3.1534 0
M  V30 25858 H 2338.35 -2.96893 4.00819 0
M  V30 25859 H 2337.5 -5.17143 3.1725 0
M  V30 25860 H 2336.24 -4.34539 2.21421 0
M  V30 25861 H 2335.25 -3.40354 4.31786 0
M  V30 25862 H 2336.47 -4.26239 5.28675 0
M  V30 25863 H 2334.42 -5.57098 3.46378 0
M  V30 25864 H 2334.34 -5.494 5.19323 0
M  V30 25865 H 2335.6 -6.41024 4.43518 0
M  V30 25866 N 2339.83 -1.40974 -0.704569 0
M  V30 25867 C 2341.25 -1.23245 -1.01404 0
M  V30 25868 C 2341.45 -0.115434 -2.01169 0
M  V30 25869 O 2340.5 0.523104 -2.47022 0
M  V30 25870 C 2341.82 -2.57839 -1.54724 0
M  V30 25871 C 2343.37 -2.64945 -1.66653 0
M  V30 25872 C 2343.84 -3.99834 -2.23376 0
M  V30 25873 N 2345.33 -4.01633 -2.30749 0
M  V30 25874 C 2346.07 -5.02799 -2.75646 0
M  V30 25875 N 2345.56 -6.14357 -3.20214 0
M  V30 25876 N 2347.36 -4.90164 -2.75129 0
M  V30 25877 H 2339.51 -2.12355 -0.0434912 0
M  V30 25878 H 2341.77 -0.944457 -0.0818785 0
M  V30 25879 H 2341.48 -3.40285 -0.888772 0
M  V30 25880 H 2341.35 -2.79698 -2.53079 0
M  V30 25881 H 2343.74 -1.82864 -2.31614 0
M  V30 25882 H 2343.82 -2.46906 -0.668674 0
M  V30 25883 H 2343.46 -4.82359 -1.59034 0
M  V30 25884 H 2343.39 -4.15209 -3.23897 0
M  V30 25885 H 2345.88 -3.21082 -1.99285 0
M  V30 25886 H 2346.2 -6.8743 -3.53072 0
M  V30 25887 H 2344.54 -6.17907 -3.18145 0
M  V30 25888 H 2347.73 -4.02099 -2.39654 0
M  V30 25889 H 2347.9 -5.69146 -3.09802 0
M  V30 25890 N 2341.31 0.937917 -1.26653 0
M  V30 25891 C 2342.56 1.68698 -1.12556 0
M  V30 25892 C 2342.89 1.9138 0.329748 0
M  V30 25893 O 2342.16 1.49682 1.242 0
M  V30 25894 C 2342.45 3.05978 -1.89867 0
M  V30 25895 C 2342.3 2.90601 -3.43323 0
M  V30 25896 C 2343.62 4.06147 -1.69506 0
M  V30 25897 H 2340.74 0.612249 -0.410268 0
M  V30 25898 H 2343.38 1.0891 -1.55687 0
M  V30 25899 H 2341.53 3.57014 -1.5321 0
M  V30 25900 H 2343.2 2.46762 -3.89752 0
M  V30 25901 H 2341.45 2.26158 -3.70183 0
M  V30 25902 H 2342.12 3.87983 -3.92649 0
M  V30 25903 H 2344.59 3.64085 -2.01449 0
M  V30 25904 H 2343.47 5.0021 -2.2601 0
M  V30 25905 H 2343.73 4.37437 -0.640442 0
M  V30 25906 N 2342.79 1.08509 1.14296 0
M  V30 25907 C 2343.72 0.660043 2.18446 0
M  V30 25908 C 2344.7 -0.328721 1.59243 0
M  V30 25909 O 2345.88 -0.232334 1.87063 0
M  V30 25910 C 2343.01 -0.0290212 3.38688 0
M  V30 25911 C 2342.06 0.920056 4.16458 0
M  V30 25912 S 2342.89 2.42727 4.7733 0
M  V30 25913 C 2344.05 1.75034 6.00928 0
M  V30 25914 H 2344.28 1.54235 2.54163 0
M  V30 25915 H 2341.81 0.900171 1.25444 0
M  V30 25916 H 2343.77 -0.420306 4.08343 0
M  V30 25917 H 2342.43 -0.887842 3.01291 0
M  V30 25918 H 2341.62 0.38484 5.02529 0
M  V30 25919 H 2341.23 1.25229 3.52411 0
M  V30 25920 H 2343.52 1.06889 6.69015 0
M  V30 25921 H 2344.46 2.58983 6.5904 0
M  V30 25922 H 2344.87 1.22326 5.51087 0
M  V30 25923 N 2344.27 -1.31351 0.870907 0
M  V30 25924 C 2345.51 -1.96284 0.481355 0
M  V30 25925 C 2345.84 -1.69175 -0.969783 0
M  V30 25926 O 2345.11 -1.00767 -1.67997 0
M  V30 25927 H 2343.69 -0.726209 0.175014 0
M  V30 25928 H 2346.35 -1.60141 1.1109 0
M  V30 25929 H 2345.44 -3.0547 0.639879 0
M  V30 25930 N 2345.74 -0.630439 -1.44441 0
M  V30 25931 C 2346.68 0.113307 -2.2892 0
M  V30 25932 C 2347.69 0.809565 -1.41244 0
M  V30 25933 O 2348.88 0.671127 -1.65403 0
M  V30 25934 C 2345.98 1.18261 -3.17597 0
M  V30 25935 C 2345.15 0.568997 -4.33683 0
M  V30 25936 C 2344.21 1.53217 -5.03399 0
M  V30 25937 O 2343.24 1.04957 -5.5944 0
M  V30 25938 N 2344.44 2.86652 -5.04788 0
M  V30 25939 H 2347.2 -0.611687 -2.93391 0
M  V30 25940 H 2344.76 -0.471551 -1.54881 0
M  V30 25941 H 2346.76 1.82726 -3.611 0
M  V30 25942 H 2345.33 1.80984 -2.5488 0
M  V30 25943 H 2344.55 -0.254256 -3.93379 0
M  V30 25944 H 2345.83 0.139678 -5.08608 0
M  V30 25945 H 2345.23 3.28441 -4.6059 0
M  V30 25946 H 2343.79 3.46479 -5.52083 0
M  V30 25947 N 2347.22 1.53172 -0.370945 0
M  V30 25948 C 2348.5 1.93675 0.27372 0
M  V30 25949 C 2348.88 1.30493 1.65936 0
M  V30 25950 O 2348.23 0.466039 2.23697 0
M  V30 25951 C 2348.44 3.47543 0.31854 0
M  V30 25952 C 2349.79 4.2094 0.556318 0
M  V30 25953 O 2350.81 3.53952 0.399525 0
M  V30 25954 O 2349.67 5.39658 0.862038 0
M  V30 25955 H 2346.76 0.810284 0.165434 0
M  V30 25956 H 2349.31 1.64315 -0.424119 0
M  V30 25957 H 2348.08 3.85817 -0.652755 0
M  V30 25958 H 2347.7 3.83153 1.06206 0
M  V30 25959 N 2348.7 0.100255 1.57281 0
M  V30 25960 C 2349.95 -0.563067 1.94827 0
M  V30 25961 C 2350.28 -1.67513 0.982505 0
M  V30 25962 O 2349.55 -1.94493 0.0164411 0
M  V30 25963 C 2349.84 -1.1134 3.42455 0
M  V30 25964 C 2349.69 -0.00604174 4.498 0
M  V30 25965 C 2351.01 -2.01018 3.9151 0
M  V30 25966 H 2348.13 -0.203209 0.708431 0
M  V30 25967 H 2350.77 0.172012 1.8922 0
M  V30 25968 H 2348.92 -1.73984 3.47364 0
M  V30 25969 H 2350.59 0.628437 4.56999 0
M  V30 25970 H 2348.84 0.659656 4.28755 0
M  V30 25971 H 2349.51 -0.432012 5.50307 0
M  V30 25972 H 2351.98 -1.48271 3.88786 0
M  V30 25973 H 2350.86 -2.36448 4.95362 0
M  V30 25974 H 2351.12 -2.92955 3.31104 0
M  V30 25975 N 2350.18 -1.56643 -0.17346 0
M  V30 25976 C 2351.6 -1.50713 -0.525148 0
M  V30 25977 C 2351.8 -0.804139 -1.84759 0
M  V30 25978 O 2350.85 -0.363618 -2.49868 0
M  V30 25979 C 2352.16 -2.95442 -0.559885 0
M  V30 25980 C 2353.71 -3.06235 -0.647234 0
M  V30 25981 C 2354.19 -4.52418 -0.712884 0
M  V30 25982 N 2355.68 -4.56656 -0.775831 0
M  V30 25983 C 2356.41 -5.67107 -0.847164 0
M  V30 25984 N 2355.91 -6.87195 -0.879464 0
M  V30 25985 N 2357.7 -5.55073 -0.88602 0
M  V30 25986 H 2349.85 -2.00752 0.693717 0
M  V30 25987 H 2352.12 -0.914481 0.249857 0
M  V30 25988 H 2351.82 -3.50022 0.34311 0
M  V30 25989 H 2351.7 -3.49971 -1.40712 0
M  V30 25990 H 2354.08 -2.5169 -1.54066 0
M  V30 25991 H 2354.16 -2.54794 0.226631 0
M  V30 25992 H 2353.81 -5.07594 0.176273 0
M  V30 25993 H 2353.74 -5.01613 -1.60286 0
M  V30 25994 H 2356.23 -3.70194 -0.759239 0
M  V30 25995 H 2356.54 -7.67123 -0.935009 0
M  V30 25996 H 2354.89 -6.8981 -0.847777 0
M  V30 25997 H 2358.08 -4.60174 -0.857772 0
M  V30 25998 H 2358.25 -6.41173 -0.93815 0
M  V30 25999 N 2351.66 0.44194 -1.51277 0
M  V30 26000 C 2352.59 1.55588 -1.66936 0
M  V30 26001 C 2353.57 1.54162 -0.516986 0
M  V30 26002 O 2354.75 1.73357 -0.74024 0
M  V30 26003 C 2351.88 2.94171 -1.67872 0
M  V30 26004 C 2350.93 3.13641 -2.89019 0
M  V30 26005 S 2351.76 2.90428 -4.49902 0
M  V30 26006 C 2352.91 4.31301 -4.53575 0
M  V30 26007 H 2353.15 1.42071 -2.61157 0
M  V30 26008 H 2350.68 0.631317 -1.40903 0
M  V30 26009 H 2352.64 3.74055 -1.69095 0
M  V30 26010 H 2351.3 3.05055 -0.74835 0
M  V30 26011 H 2350.49 4.14952 -2.86061 0
M  V30 26012 H 2350.09 2.41575 -2.85513 0
M  V30 26013 H 2352.39 5.24426 -4.28933 0
M  V30 26014 H 2353.33 4.39293 -5.55362 0
M  V30 26015 H 2353.74 4.14741 -3.8295 0
M  V30 26016 N 2353.14 1.41345 0.697083 0
M  V30 26017 C 2354.05 1.4543 1.84085 0
M  V30 26018 C 2355.06 0.34504 1.70545 0
M  V30 26019 O 2356.24 0.592526 1.92487 0
M  V30 26020 C 2353.3 1.33292 3.20053 0
M  V30 26021 C 2352.36 2.5452 3.45713 0
M  V30 26022 C 2351.6 2.42952 4.75195 0
M  V30 26023 O 2351.82 1.45328 5.51576 0
M  V30 26024 O 2350.75 3.32681 5.01604 0
M  V30 26025 H 2354.58 2.41922 1.83595 0
M  V30 26026 H 2352.16 1.22867 0.849945 0
M  V30 26027 H 2354.05 1.28801 4.01233 0
M  V30 26028 H 2352.72 0.399146 3.2123 0
M  V30 26029 H 2351.63 2.64588 2.64469 0
M  V30 26030 H 2352.96 3.46721 3.4935 0
M  V30 26031 N 2354.61 -0.931187 1.27148 0
M  V30 26032 C 2355.56 -2.03132 1.09572 0
M  V30 26033 C 2356.53 -1.661 -0.00219513 0
M  V30 26034 O 2357.72 -1.90132 0.159472 0
M  V30 26035 C 2354.86 -3.36956 0.74529 0
M  V30 26036 C 2353.97 -3.86964 1.92048 0
M  V30 26037 C 2353.1 -5.09219 1.51225 0
M  V30 26038 C 2352.14 -5.51515 2.65514 0
M  V30 26039 N 2351.28 -6.64968 2.25303 0
M  V30 26040 H 2356.12 -2.17498 2.03712 0
M  V30 26041 H 2353.66 -1.06555 1.01413 0
M  V30 26042 H 2355.61 -4.13909 0.522951 0
M  V30 26043 H 2354.24 -3.22407 -0.159145 0
M  V30 26044 H 2353.3 -3.06322 2.25546 0
M  V30 26045 H 2354.61 -4.14285 2.77794 0
M  V30 26046 H 2353.76 -5.93663 1.25095 0
M  V30 26047 H 2352.5 -4.83668 0.625834 0
M  V30 26048 H 2351.51 -4.65623 2.92362 0
M  V30 26049 H 2352.73 -5.79064 3.54771 0
M  V30 26050 H 2350.68 -6.41081 1.39109 0
M  V30 26051 H 2350.59 -6.91926 3.04589 0
M  V30 26052 H 2351.86 -7.52762 2.02411 0
M  V30 26053 N 2356.09 -1.09114 -1.13719 0
M  V30 26054 C 2357.34 -0.826447 -1.85196 0
M  V30 26055 C 2357.67 0.646287 -1.8313 0
M  V30 26056 O 2356.95 1.47561 -1.26712 0
M  V30 26057 C 2357.23 -1.35818 -3.33505 0
M  V30 26058 C 2357.08 -2.89678 -3.44103 0
M  V30 26059 C 2358.4 -0.989332 -4.28836 0
M  V30 26060 H 2355.52 -0.301686 -0.672424 0
M  V30 26061 H 2358.16 -1.35199 -1.33496 0
M  V30 26062 H 2356.31 -0.911148 -3.77664 0
M  V30 26063 H 2357.98 -3.42806 -3.08678 0
M  V30 26064 H 2356.23 -3.26972 -2.85082 0
M  V30 26065 H 2356.9 -3.21959 -4.48382 0
M  V30 26066 H 2359.37 -1.37482 -3.92731 0
M  V30 26067 H 2358.25 -1.38848 -5.31049 0
M  V30 26068 H 2358.51 0.102846 -4.4198 0
M  V30 26069 N 2357.57 1.30887 -0.877861 0
M  V30 26070 C 2358.82 1.96705 -0.49346 0
M  V30 26071 C 2359.15 1.69182 0.953474 0
M  V30 26072 O 2358.42 0.992624 1.67264 0
M  V30 26073 C 2358.71 3.51978 -0.760491 0
M  V30 26074 C 2358.56 3.89044 -2.25753 0
M  V30 26075 C 2359.88 4.39487 -0.232226 0
M  V30 26076 H 2357 0.714489 -0.180759 0
M  V30 26077 H 2359.64 1.5488 -1.10055 0
M  V30 26078 H 2357.79 3.87734 -0.243783 0
M  V30 26079 H 2359.46 3.63349 -2.8421 0
M  V30 26080 H 2357.7 3.37368 -2.727 0
M  V30 26081 H 2358.38 4.97337 -2.395 0
M  V30 26082 H 2360.85 4.10599 -0.674386 0
M  V30 26083 H 2359.73 5.47065 -0.448451 0
M  V30 26084 H 2359.99 4.33531 0.86622 0
M  V30 26085 N 2359.05 0.638091 1.44105 0
M  V30 26086 C 2360.27 0.150952 2.0685 0
M  V30 26087 C 2360.7 -1.1683 1.47419 0
M  V30 26088 O 2360.06 -1.7183 0.578295 0
M  V30 26089 C 2360.1 0.0571434 3.60555 0
M  V30 26090 O 2359.21 -0.984902 4.00467 0
M  V30 26091 H 2358.55 0.0879514 0.658149 0
M  V30 26092 H 2361.08 0.87674 1.84863 0
M  V30 26093 H 2361.09 -0.13116 4.07789 0
M  V30 26094 H 2359.76 1.02028 4.03191 0
M  V30 26095 H 2358.34 -0.770608 3.64851 0
M  V30 26096 N 2360.53 -1.52973 0.379063 0
M  V30 26097 C 2361.44 -2.29872 -0.468599 0
M  V30 26098 C 2362.45 -1.36375 -1.08065 0
M  V30 26099 O 2363.63 -1.6944 -1.08868 0
M  V30 26100 C 2360.69 -3.08303 -1.58589 0
M  V30 26101 C 2359.75 -4.17491 -0.999997 0
M  V30 26102 C 2358.99 -4.92172 -2.06404 0
M  V30 26103 O 2359.21 -4.66841 -3.27743 0
M  V30 26104 O 2358.14 -5.77773 -1.68707 0
M  V30 26105 H 2361.97 -3.03291 0.157561 0
M  V30 26106 H 2359.55 -1.48713 0.143061 0
M  V30 26107 H 2361.44 -3.57235 -2.23519 0
M  V30 26108 H 2360.11 -2.37707 -2.1972 0
M  V30 26109 H 2359.02 -3.72778 -0.314233 0
M  V30 26110 H 2360.35 -4.90291 -0.433049 0
M  V30 26111 N 2362 -0.108595 -1.57225 0
M  V30 26112 C 2363.25 0.551669 -1.94009 0
M  V30 26113 C 2363.57 1.68492 -0.993471 0
M  V30 26114 O 2364.77 2.40724 -1.25555 0
M  V30 26115 C 2363.23 1.03273 -3.44765 0
M  V30 26116 C 2362.84 -0.071498 -4.47943 0
M  V30 26117 C 2364.58 1.66496 -3.90486 0
M  V30 26118 C 2362.49 0.425676 -5.89866 0
M  V30 26119 H 2361.42 0.20985 -0.724209 0
M  V30 26120 H 2364.07 -0.186773 -1.82547 0
M  V30 26121 H 2362.45 1.82527 -3.51425 0
M  V30 26122 H 2363.62 -0.847445 -4.5294 0
M  V30 26123 H 2361.94 -0.609741 -4.11912 0
M  V30 26124 H 2364.54 2.04789 -4.93929 0
M  V30 26125 H 2364.88 2.53936 -3.29882 0
M  V30 26126 H 2365.41 0.938006 -3.86583 0
M  V30 26127 H 2362.15 -0.412431 -6.54201 0
M  V30 26128 H 2361.67 1.16833 -5.88311 0
M  V30 26129 H 2363.35 0.890285 -6.40845 0
M  V30 26130 N 2363.48 1.56732 0.16515 0
M  V30 26131 C 2364.39 2.00127 1.22419 0
M  V30 26132 C 2365.41 0.913645 1.48083 0
M  V30 26133 O 2366.58 1.22175 1.6011 0
M  V30 26134 C 2363.65 2.35769 2.54193 0
M  V30 26135 C 2362.71 3.5839 2.36337 0
M  V30 26136 C 2361.94 3.92322 3.61827 0
M  V30 26137 O 2362.17 3.27143 4.67262 0
M  V30 26138 O 2361.1 4.85647 3.5557 0
M  V30 26139 H 2364.93 2.90494 0.885835 0
M  V30 26140 H 2362.51 1.44682 0.372492 0
M  V30 26141 H 2364.39 2.59635 3.31915 0
M  V30 26142 H 2363.07 1.48562 2.87595 0
M  V30 26143 H 2361.97 3.39734 1.56626 0
M  V30 26144 H 2363.31 4.46157 2.07857 0
M  V30 26145 N 2364.96 -0.433911 1.51509 0
M  V30 26146 C 2366.18 -1.21 1.68445 0
M  V30 26147 C 2366.61 -1.84166 0.382669 0
M  V30 26148 O 2365.97 -1.68957 -0.65752 0
M  V30 26149 C 2366.02 -2.26722 2.80409 0
M  V30 26150 O 2365.12 -3.32288 2.44251 0
M  V30 26151 H 2364.46 -0.354353 0.561543 0
M  V30 26152 H 2366.99 -0.511989 1.9809 0
M  V30 26153 H 2367 -2.71452 3.04594 0
M  V30 26154 H 2365.68 -1.80126 3.7487 0
M  V30 26155 H 2364.25 -2.93011 2.30649 0
M  V30 26156 N 2366.44 -1.41713 -0.689577 0
M  V30 26157 C 2367.69 -1.41113 -1.44678 0
M  V30 26158 C 2368.01 -0.0232539 -1.94986 0
M  V30 26159 O 2367.28 0.935883 -1.72099 0
M  V30 26160 H 2365.86 -0.519436 -0.536838 0
M  V30 26161 H 2368.52 -1.77005 -0.815794 0
M  V30 26162 H 2367.62 -2.10197 -2.30702 0
M  V30 26163 N 2367.92 0.924431 -1.2764 0
M  V30 26164 C 2369.16 1.67247 -1.1417 0
M  V30 26165 C 2369.49 1.91984 0.311829 0
M  V30 26166 O 2368.75 1.51055 1.24422 0
M  V30 26167 C 2369.05 3.04321 -1.87412 0
M  V30 26168 C 2368.71 2.99283 -3.37255 0
M  V30 26169 C 2367.37 2.97616 -3.78125 0
M  V30 26170 C 2369.73 2.90328 -4.3285 0
M  V30 26171 C 2367.05 2.84781 -5.12949 0
M  V30 26172 C 2369.41 2.79035 -5.67735 0
M  V30 26173 C 2368.07 2.75719 -6.07894 0
M  V30 26174 H 2367.34 0.611999 -0.417777 0
M  V30 26175 H 2369.99 1.07783 -1.58288 0
M  V30 26176 H 2368.29 3.67508 -1.35812 0
M  V30 26177 H 2369.99 3.61082 -1.74415 0
M  V30 26178 H 2366.58 3.01369 -3.04753 0
M  V30 26179 H 2370.76 2.90712 -4.02244 0
M  V30 26180 H 2366.02 2.80603 -5.43205 0
M  V30 26181 H 2370.19 2.71072 -6.41477 0
M  V30 26182 H 2367.82 2.65531 -7.12318 0
M  V30 26183 N 2369.39 1.09715 1.13139 0
M  V30 26184 C 2370.32 0.761141 2.20746 0
M  V30 26185 C 2371.31 -0.262537 1.68062 0
M  V30 26186 O 2372.49 -0.129943 1.93765 0
M  V30 26187 C 2369.62 0.184115 3.46812 0
M  V30 26188 C 2368.57 1.13764 4.12604 0
M  V30 26189 C 2367.9 0.422176 5.33031 0
M  V30 26190 C 2369.2 2.48127 4.59598 0
M  V30 26191 H 2370.89 1.66086 2.4911 0
M  V30 26192 H 2368.44 0.800008 1.19732 0
M  V30 26193 H 2370.39 -0.0630474 4.21353 0
M  V30 26194 H 2369.12 -0.750812 3.17853 0
M  V30 26195 H 2367.78 1.37013 3.40034 0
M  V30 26196 H 2367.42 -0.516984 5.00336 0
M  V30 26197 H 2367.12 1.05798 5.77997 0
M  V30 26198 H 2368.65 0.183385 6.10325 0
M  V30 26199 H 2370.06 2.29068 5.25548 0
M  V30 26200 H 2368.46 3.07523 5.15315 0
M  V30 26201 H 2369.53 3.08671 3.73965 0
M  V30 26202 N 2370.87 -1.30419 0.88479 0
M  V30 26203 C 2371.8 -2.30588 0.367614 0
M  V30 26204 C 2372.78 -1.60982 -0.549436 0
M  V30 26205 O 2373.97 -1.88592 -0.463327 0
M  V30 26206 C 2371.1 -3.44765 -0.418883 0
M  V30 26207 C 2370.05 -4.26066 0.406391 0
M  V30 26208 C 2369.38 -5.32294 -0.506699 0
M  V30 26209 C 2370.68 -4.95606 1.64841 0
M  V30 26210 H 2372.37 -2.74095 1.20467 0
M  V30 26211 H 2369.92 -1.31771 0.580718 0
M  V30 26212 H 2371.87 -4.13903 -0.791322 0
M  V30 26213 H 2370.6 -3.00062 -1.28958 0
M  V30 26214 H 2369.25 -3.58615 0.760967 0
M  V30 26215 H 2368.9 -4.83839 -1.3751 0
M  V30 26216 H 2368.6 -5.87585 0.041686 0
M  V30 26217 H 2370.13 -6.04288 -0.875658 0
M  V30 26218 H 2371.54 -5.57262 1.34656 0
M  V30 26219 H 2369.94 -5.60761 2.13698 0
M  V30 26220 H 2371.01 -4.21743 2.39292 0
M  V30 26221 N 2372.35 -0.645724 -1.43764 0
M  V30 26222 C 2373.31 0.0409085 -2.29163 0
M  V30 26223 C 2374.31 0.757971 -1.41815 0
M  V30 26224 O 2375.5 0.600353 -1.63528 0
M  V30 26225 C 2372.64 1.06863 -3.23718 0
M  V30 26226 H 2373.83 -0.710396 -2.91365 0
M  V30 26227 H 2371.38 -0.406574 -1.50919 0
M  V30 26228 H 2372.12 1.84943 -2.66396 0
M  V30 26229 H 2371.9 0.558209 -3.88106 0
M  V30 26230 H 2373.39 1.54838 -3.87834 0
M  V30 26231 N 2373.83 1.5277 -0.38717 0
M  V30 26232 C 2374.78 2.27927 0.463912 0
M  V30 26233 C 2375.77 1.31743 1.0649 0
M  V30 26234 O 2376.98 1.49289 1.00562 0
M  V30 26235 H 2373.35 0.732912 0.168357 0
M  V30 26236 H 2375.32 2.97785 -0.191462 0
M  V30 26237 C 2374.07 3.09715 1.58024 0
M  V30 26238 H 2373.39 3.83583 1.12711 0
M  V30 26239 H 2374.83 3.65445 2.15002 0
M  V30 26240 C 2373.29 2.21894 2.53505 0
M  V30 26241 O 2373.82 1.84428 3.5686 0
M  V30 26242 N 2372.03 1.86097 2.23196 0
M  V30 26243 H 2371.58 2.16763 1.39181 0
M  V30 26244 H 2371.53 1.27626 2.87331 0
M  V30 26245 N 2375.31 0.116931 1.57166 0
M  V30 26246 C 2376.72 -0.408777 1.8217 0
M  V30 26247 C 2377.07 -1.66744 1.03396 0
M  V30 26248 O 2376.19 -2.1471 0.269924 0
M  V30 26249 C 2376.79 -0.748408 3.3043 0
M  V30 26250 C 2375.35 -1.21876 3.56122 0
M  V30 26251 C 2374.49 -0.226403 2.76374 0
M  V30 26252 H 2377.45 0.342091 1.54969 0
M  V30 26253 H 2377.47 -1.60601 3.44946 0
M  V30 26254 H 2376.98 0.167853 3.87737 0
M  V30 26255 H 2375.08 -2.15199 3.04171 0
M  V30 26256 H 2375.19 -1.16551 4.64707 0
M  V30 26257 H 2373.56 -0.71302 2.44516 0
M  V30 26258 H 2374.34 0.682918 3.36439 0
M  V30 26259 N 2376.78 -1.56818 -0.156836 0
M  V30 26260 C 2378.03 -1.82807 -0.871093 0
M  V30 26261 C 2378.36 -0.696294 -1.81609 0
M  V30 26262 O 2377.61 0.315425 -1.93141 0
M  V30 26263 C 2377.91 -3.15063 -1.68731 0
M  V30 26264 C 2377.58 -4.4203 -0.889968 0
M  V30 26265 C 2376.24 -4.76513 -0.669958 0
M  V30 26266 C 2378.59 -5.20144 -0.331678 0
M  V30 26267 C 2375.92 -5.86579 0.119207 0
M  V30 26268 C 2378.27 -6.31037 0.444476 0
M  V30 26269 C 2376.94 -6.64077 0.675152 0
M  V30 26270 H 2376.21 -0.668936 -0.318755 0
M  V30 26271 H 2378.85 -1.91022 -0.13524 0
M  V30 26272 H 2377.16 -3.02254 -2.49299 0
M  V30 26273 H 2378.86 -3.32384 -2.24326 0
M  V30 26274 H 2375.45 -4.1499 -1.0715 0
M  V30 26275 H 2379.63 -4.93886 -0.488956 0
M  V30 26276 H 2374.89 -6.10626 0.307525 0
M  V30 26277 H 2379.06 -6.90763 0.884261 0
M  V30 26278 H 2376.69 -7.492 1.28852 0
M  V30 26279 N 2378.26 0.425871 -1.51737 0
M  V30 26280 C 2379.21 1.51773 -1.73878 0
M  V30 26281 C 2380.18 1.55617 -0.580729 0
M  V30 26282 O 2381.36 1.7245 -0.816441 0
M  V30 26283 C 2378.5 2.89385 -1.88017 0
M  V30 26284 C 2377.62 2.94981 -3.15611 0
M  V30 26285 C 2376.75 4.23787 -3.20278 0
M  V30 26286 C 2375.79 4.23294 -4.42141 0
M  V30 26287 N 2374.93 5.43643 -4.44293 0
M  V30 26288 H 2379.77 1.32196 -2.67073 0
M  V30 26289 H 2377.31 0.641985 -1.32352 0
M  V30 26290 H 2379.26 3.69247 -1.94197 0
M  V30 26291 H 2377.89 3.07495 -0.982185 0
M  V30 26292 H 2376.95 2.07712 -3.18685 0
M  V30 26293 H 2378.26 2.90479 -4.05491 0
M  V30 26294 H 2377.41 5.12031 -3.25437 0
M  V30 26295 H 2376.15 4.30961 -2.28307 0
M  V30 26296 H 2375.16 3.33442 -4.37146 0
M  V30 26297 H 2376.38 4.17774 -5.35389 0
M  V30 26298 H 2374.33 5.51517 -3.55198 0
M  V30 26299 H 2374.24 5.41068 -5.27997 0
M  V30 26300 H 2375.51 6.33887 -4.5366 0
M  V30 26301 N 2379.74 1.42077 0.682052 0
M  V30 26302 C 2380.99 1.41454 1.43784 0
M  V30 26303 C 2381.3 0.0317418 1.95574 0
M  V30 26304 O 2382.51 -0.0970985 2.71326 0
M  V30 26305 C 2380.96 2.48784 2.60067 0
M  V30 26306 C 2380.57 3.93035 2.15006 0
M  V30 26307 C 2382.32 2.57317 3.37622 0
M  V30 26308 C 2380.22 4.91889 3.28328 0
M  V30 26309 H 2379.15 0.526091 0.540134 0
M  V30 26310 H 2381.8 1.67956 0.739128 0
M  V30 26311 H 2380.19 2.15435 3.32271 0
M  V30 26312 H 2381.36 4.35702 1.50002 0
M  V30 26313 H 2379.68 3.88286 1.50409 0
M  V30 26314 H 2382.27 3.28352 4.22006 0
M  V30 26315 H 2382.62 1.61435 3.83724 0
M  V30 26316 H 2383.15 2.89824 2.72483 0
M  V30 26317 H 2379.89 5.89222 2.87224 0
M  V30 26318 H 2379.41 4.5386 3.92137 0
M  V30 26319 H 2381.09 5.13272 3.93904 0
M  V30 26320 N 2381.22 -0.917649 1.28129 0
M  V30 26321 C 2382.45 -1.70024 1.17895 0
M  V30 26322 C 2382.86 -1.8696 -0.262925 0
M  V30 26323 O 2382.22 -1.39382 -1.17809 0
M  V30 26324 C 2382.27 -3.09449 1.86878 0
M  V30 26325 O 2381.99 -2.933 3.25433 0
M  V30 26326 C 2383.49 -4.03811 1.82897 0
M  V30 26327 H 2380.71 -0.531609 0.409429 0
M  V30 26328 H 2383.26 -1.1488 1.69183 0
M  V30 26329 H 2381.41 -3.61423 1.3947 0
M  V30 26330 H 2381.83 -3.81516 3.59924 0
M  V30 26331 H 2383.3 -4.9912 2.3576 0
M  V30 26332 H 2383.78 -4.31844 0.800488 0
M  V30 26333 H 2384.38 -3.57765 2.29965 0
M  V30 26334 N 2382.7 -1.10314 -1.12555 0
M  V30 26335 C 2383.94 -0.854575 -1.85678 0
M  V30 26336 C 2384.3 0.608811 -1.82092 0
M  V30 26337 O 2385.5 0.973673 -2.50546 0
M  V30 26338 C 2383.77 -1.38632 -3.29418 0
M  V30 26339 S 2385.33 -1.273 -4.19929 0
M  V30 26340 H 2382.15 -0.308839 -0.640421 0
M  V30 26341 H 2384.75 -1.40833 -1.35596 0
M  V30 26342 H 2383.46 -2.44543 -3.29586 0
M  V30 26343 H 2382.99 -0.829087 -3.84564 0
M  V30 26344 H 2385 -0.229863 -4.95667 0
M  V30 26345 N 2384.18 1.29948 -0.891694 0
M  V30 26346 C 2385.09 2.317 -0.367732 0
M  V30 26347 C 2386.1 1.65621 0.533457 0
M  V30 26348 O 2387.28 1.96866 0.424963 0
M  V30 26349 C 2384.34 3.44346 0.403345 0
M  V30 26350 C 2383.4 4.26036 -0.528403 0
M  V30 26351 C 2382.64 5.33302 0.20597 0
M  V30 26352 O 2382.86 5.52156 1.43109 0
M  V30 26353 O 2381.79 6.00235 -0.447386 0
M  V30 26354 H 2385.62 2.78481 -1.21168 0
M  V30 26355 H 2383.2 1.3424 -0.655748 0
M  V30 26356 H 2385.09 4.1295 0.83968 0
M  V30 26357 H 2383.76 2.99687 1.22349 0
M  V30 26358 H 2382.67 3.60104 -1.01369 0
M  V30 26359 H 2384 4.74316 -1.31474 0
M  V30 26360 N 2385.65 0.653339 1.4342 0
M  V30 26361 C 2387.06 0.246569 1.85065 0
M  V30 26362 C 2387.42 -1.20688 1.5469 0
M  V30 26363 O 2386.54 -1.9212 0.99593 0
M  V30 26364 C 2387.14 0.440725 3.35921 0
M  V30 26365 C 2385.69 0.0882725 3.76296 0
M  V30 26366 C 2384.84 0.743531 2.67146 0
M  V30 26367 H 2387.79 0.857002 1.33571 0
M  V30 26368 H 2387.81 -0.313731 3.79204 0
M  V30 26369 H 2387.33 1.49865 3.57997 0
M  V30 26370 H 2385.43 -0.967047 3.59832 0
M  V30 26371 H 2385.54 0.513822 4.76337 0
M  V30 26372 H 2383.9 0.176757 2.54086 0
M  V30 26373 H 2384.69 1.80448 2.9205 0
M  V30 26374 N 2387.13 -1.52563 0.395266 0
M  V30 26375 C 2388.38 -2.00838 -0.186286 0
M  V30 26376 C 2388.69 -1.28579 -1.474 0
M  V30 26377 O 2389.9 -1.67597 -2.13597 0
M  V30 26378 C 2388.36 -3.57861 -0.382533 0
M  V30 26379 C 2387.96 -4.39024 0.892279 0
M  V30 26380 C 2389.71 -4.14408 -0.920127 0
M  V30 26381 C 2387.61 -5.87661 0.663983 0
M  V30 26382 H 2386.54 -0.75042 -0.0733909 0
M  V30 26383 H 2389.2 -1.7602 0.518583 0
M  V30 26384 H 2387.58 -3.78952 -1.1494 0
M  V30 26385 H 2388.75 -4.29698 1.66422 0
M  V30 26386 H 2387.07 -3.93728 1.35526 0
M  V30 26387 H 2389.66 -5.23121 -1.10674 0
M  V30 26388 H 2390.01 -3.70879 -1.89089 0
M  V30 26389 H 2390.54 -3.97231 -0.212681 0
M  V30 26390 H 2387.28 -6.35524 1.60592 0
M  V30 26391 H 2386.8 -5.9976 -0.0689139 0
M  V30 26392 H 2388.48 -6.463 0.300813 0
M  V30 26393 N 2388.61 -0.125265 -1.57101 0
M  V30 26394 C 2389.84 0.538761 -1.99762 0
M  V30 26395 C 2390.25 1.59825 -1.00506 0
M  V30 26396 O 2389.61 1.825 0.00116266 0
M  V30 26397 C 2389.66 1.15921 -3.4241 0
M  V30 26398 O 2389.38 0.142066 -4.3787 0
M  V30 26399 C 2390.88 1.90595 -4.00235 0
M  V30 26400 H 2388.1 0.142129 -0.655775 0
M  V30 26401 H 2390.65 -0.213449 -2.03383 0
M  V30 26402 H 2388.8 1.86217 -3.39709 0
M  V30 26403 H 2389.22 0.593683 -5.21129 0
M  V30 26404 H 2390.69 2.29326 -5.02109 0
M  V30 26405 H 2391.17 2.78357 -3.39726 0
M  V30 26406 H 2391.77 1.25048 -4.06501 0
M  V30 26407 N 2390.09 1.56899 0.148518 0
M  V30 26408 C 2391.32 1.87424 0.876356 0
M  V30 26409 C 2391.73 0.713287 1.74807 0
M  V30 26410 O 2391.09 -0.316994 1.79726 0
M  V30 26411 C 2391.14 3.17181 1.73432 0
M  V30 26412 O 2390.86 4.28803 0.897734 0
M  V30 26413 C 2392.36 3.6121 2.56987 0
M  V30 26414 H 2389.58 0.621281 0.253478 0
M  V30 26415 H 2392.12 2.04008 0.141762 0
M  V30 26416 H 2390.28 3.02355 2.42199 0
M  V30 26417 H 2390.69 5.02991 1.48663 0
M  V30 26418 H 2392.17 4.54843 3.12765 0
M  V30 26419 H 2392.64 2.86425 3.32952 0
M  V30 26420 H 2393.25 3.78725 1.93513 0
M  V30 26421 N 2391.57 -0.417818 1.51961 0
M  V30 26422 C 2392.79 -1.1875 1.69428 0
M  V30 26423 C 2393.21 -1.84514 0.399988 0
M  V30 26424 O 2392.57 -1.71528 -0.623258 0
M  V30 26425 C 2392.62 -2.25709 2.82379 0
M  V30 26426 O 2392.34 -1.62631 4.06796 0
M  V30 26427 C 2393.84 -3.15623 3.11283 0
M  V30 26428 H 2391.06 -0.357176 0.568037 0
M  V30 26429 H 2393.6 -0.492695 1.98476 0
M  V30 26430 H 2391.76 -2.90872 2.55875 0
M  V30 26431 H 2392.17 -2.33471 4.69672 0
M  V30 26432 H 2393.65 -3.86764 3.9385 0
M  V30 26433 H 2394.12 -3.77499 2.24479 0
M  V30 26434 H 2394.73 -2.56138 3.39519 0
M  V30 26435 N 2393.04 -1.42436 -0.674508 0
M  V30 26436 C 2393.97 -1.48727 -1.80007 0
M  V30 26437 C 2394.95 -0.343822 -1.66589 0
M  V30 26438 O 2396.14 -0.558169 -1.86006 0
M  V30 26439 C 2393.27 -1.38925 -3.18304 0
M  V30 26440 C 2392.22 -2.513 -3.46457 0
M  V30 26441 C 2391.55 -2.26555 -4.84331 0
M  V30 26442 C 2392.85 -3.93609 -3.43321 0
M  V30 26443 H 2394.54 -2.42931 -1.74999 0
M  V30 26444 H 2392.09 -1.16925 -0.840512 0
M  V30 26445 H 2394.04 -1.41934 -3.96778 0
M  V30 26446 H 2392.77 -0.412151 -3.23989 0
M  V30 26447 H 2391.43 -2.47608 -2.70344 0
M  V30 26448 H 2391.07 -1.27138 -4.86667 0
M  V30 26449 H 2390.77 -3.0187 -5.04131 0
M  V30 26450 H 2392.3 -2.31314 -5.6509 0
M  V30 26451 H 2393.71 -3.98902 -4.11765 0
M  V30 26452 H 2392.11 -4.68778 -3.74656 0
M  V30 26453 H 2393.18 -4.20259 -2.41889 0
M  V30 26454 N 2394.52 0.910841 -1.28614 0
M  V30 26455 C 2395.47 2.01363 -1.1279 0
M  V30 26456 C 2396.44 1.66082 -0.0242302 0
M  V30 26457 O 2397.62 1.89855 -0.1897 0
M  V30 26458 C 2394.76 3.35728 -0.798802 0
M  V30 26459 C 2393.88 3.8386 -1.9818 0
M  V30 26460 C 2393.01 5.06749 -1.59307 0
M  V30 26461 C 2392.05 5.47221 -2.74254 0
M  V30 26462 N 2391.19 6.613 -2.35854 0
M  V30 26463 H 2396.03 2.1423 -2.07146 0
M  V30 26464 H 2393.56 1.04928 -1.03095 0
M  V30 26465 H 2395.52 4.13025 -0.588734 0
M  V30 26466 H 2394.15 3.2262 0.107833 0
M  V30 26467 H 2393.2 3.02695 -2.30391 0
M  V30 26468 H 2394.52 4.09813 -2.8435 0
M  V30 26469 H 2393.67 5.91598 -1.34524 0
M  V30 26470 H 2392.41 4.82611 -0.702702 0
M  V30 26471 H 2391.41 4.60912 -2.99733 0
M  V30 26472 H 2392.64 5.73346 -3.63938 0
M  V30 26473 H 2390.59 6.38787 -1.4929 0
M  V30 26474 H 2390.5 6.86993 -3.15558 0
M  V30 26475 H 2391.77 7.49446 -2.14361 0
M  V30 26476 N 2396 1.10909 1.11969 0
M  V30 26477 C 2397.42 0.841876 1.3559 0
M  V30 26478 C 2397.62 -0.536212 1.94234 0
M  V30 26479 O 2396.67 -1.28812 2.17172 0
M  V30 26480 C 2397.99 1.94553 2.29281 0
M  V30 26481 C 2399.53 1.97455 2.42859 0
M  V30 26482 C 2400.01 3.07008 3.39868 0
M  V30 26483 N 2401.5 3.06347 3.47427 0
M  V30 26484 C 2402.23 3.87755 4.22414 0
M  V30 26485 N 2401.73 4.79112 5.00424 0
M  V30 26486 N 2403.52 3.75954 4.1787 0
M  V30 26487 H 2395.67 1.99729 0.722629 0
M  V30 26488 H 2397.94 0.868235 0.38062 0
M  V30 26489 H 2397.64 2.93769 1.93373 0
M  V30 26490 H 2397.52 1.83694 3.29449 0
M  V30 26491 H 2399.9 0.988694 2.78045 0
M  V30 26492 H 2399.99 2.12391 1.42562 0
M  V30 26493 H 2399.63 4.05816 3.0541 0
M  V30 26494 H 2399.56 2.89313 4.40006 0
M  V30 26495 H 2402.05 2.40152 2.9178 0
M  V30 26496 H 2402.36 5.37776 5.54993 0
M  V30 26497 H 2400.71 4.83137 4.99603 0
M  V30 26498 H 2403.9 3.03931 3.56011 0
M  V30 26499 H 2404.07 4.39633 4.76054 0
M  V30 26500 N 2397.48 -1.29474 0.898573 0
M  V30 26501 C 2398.43 -2.27752 0.373859 0
M  V30 26502 C 2399.4 -1.56959 -0.543417 0
M  V30 26503 O 2400.58 -1.84949 -0.468902 0
M  V30 26504 C 2397.72 -3.42848 -0.393588 0
M  V30 26505 C 2396.83 -4.28427 0.554454 0
M  V30 26506 C 2395.97 -5.30702 -0.229933 0
M  V30 26507 C 2395.01 -6.07937 0.712706 0
M  V30 26508 N 2394.14 -7.0209 -0.0372049 0
M  V30 26509 H 2398.98 -2.72015 1.21703 0
M  V30 26510 H 2396.52 -1.33788 0.611479 0
M  V30 26511 H 2398.48 -4.08354 -0.854588 0
M  V30 26512 H 2397.11 -2.99617 -1.20122 0
M  V30 26513 H 2396.16 -3.63105 1.13397 0
M  V30 26514 H 2397.47 -4.82202 1.27605 0
M  V30 26515 H 2396.63 -6.02019 -0.752182 0
M  V30 26516 H 2395.37 -4.77656 -0.984674 0
M  V30 26517 H 2394.37 -5.35484 1.24646 0
M  V30 26518 H 2395.6 -6.63071 1.46676 0
M  V30 26519 H 2393.54 -6.51415 -0.774233 0
M  V30 26520 H 2393.46 -7.53416 0.624506 0
M  V30 26521 H 2394.73 -7.77629 -0.539754 0
M  V30 26522 N 2398.96 -0.660936 -1.43071 0
M  V30 26523 C 2399.89 0.0647239 -2.29109 0
M  V30 26524 C 2400.9 0.779423 -1.4293 0
M  V30 26525 O 2402.09 0.635892 -1.66789 0
M  V30 26526 C 2399.19 1.11498 -3.20034 0
M  V30 26527 C 2398.36 0.476878 -4.34793 0
M  V30 26528 C 2397.42 1.42504 -5.06536 0
M  V30 26529 O 2396.45 0.930672 -5.6154 0
M  V30 26530 N 2397.65 2.7588 -5.10755 0
M  V30 26531 H 2400.42 -0.673782 -2.92028 0
M  V30 26532 H 2397.98 -0.504297 -1.53846 0
M  V30 26533 H 2399.97 1.75025 -3.64895 0
M  V30 26534 H 2398.54 1.75537 -2.58661 0
M  V30 26535 H 2397.76 -0.337641 -3.92751 0
M  V30 26536 H 2399.05 0.0317631 -5.0879 0
M  V30 26537 H 2398.44 3.18597 -4.67453 0
M  V30 26538 H 2397 3.3469 -5.59308 0
M  V30 26539 N 2400.43 1.52351 -0.403352 0
M  V30 26540 C 2401.34 2.30589 0.431969 0
M  V30 26541 C 2402.36 1.38077 1.05881 0
M  V30 26542 O 2403.54 1.7115 1.06158 0
M  V30 26543 C 2400.6 3.10787 1.53664 0
M  V30 26544 C 2399.66 4.19029 0.933451 0
M  V30 26545 C 2398.9 4.95393 1.98548 0
M  V30 26546 O 2399.12 4.71996 3.20274 0
M  V30 26547 O 2398.05 5.80384 1.59493 0
M  V30 26548 H 2401.88 3.03002 -0.205792 0
M  V30 26549 H 2399.46 1.48467 -0.166702 0
M  V30 26550 H 2401.35 3.60746 2.17808 0
M  V30 26551 H 2400.02 2.41173 2.15911 0
M  V30 26552 H 2398.93 3.73231 0.254888 0
M  V30 26553 H 2400.26 4.90918 0.354993 0
M  V30 26554 N 2401.91 0.133594 1.57033 0
M  V30 26555 C 2402.88 -0.796957 2.14898 0
M  V30 26556 C 2403.88 -1.18456 1.08742 0
M  V30 26557 O 2405.07 -1.10768 1.34447 0
M  V30 26558 C 2402.2 -2.07968 2.70115 0
M  V30 26559 H 2403.39 -0.29382 2.98457 0
M  V30 26560 H 2400.94 -0.115759 1.55871 0
M  V30 26561 H 2401.68 -2.62679 1.90185 0
M  V30 26562 H 2401.46 -1.81109 3.47767 0
M  V30 26563 H 2402.95 -2.74457 3.14743 0
M  V30 26564 N 2403.39 -1.56975 -0.140195 0
M  V30 26565 C 2404.64 -1.83992 -0.852917 0
M  V30 26566 C 2404.97 -0.716218 -1.8051 0
M  V30 26567 O 2404.24 0.279647 -1.92479 0
M  V30 26568 C 2404.53 -3.2153 -1.62144 0
M  V30 26569 C 2404.38 -4.44472 -0.690285 0
M  V30 26570 C 2405.7 -3.5637 -2.58241 0
M  V30 26571 H 2402.82 -0.669269 -0.308622 0
M  V30 26572 H 2405.46 -1.89634 -0.117865 0
M  V30 26573 H 2403.61 -3.16851 -2.24806 0
M  V30 26574 H 2405.28 -4.6124 -0.0741453 0
M  V30 26575 H 2403.53 -4.338 -0.000320181 0
M  V30 26576 H 2404.2 -5.37328 -1.26421 0
M  V30 26577 H 2406.67 -3.61703 -2.05694 0
M  V30 26578 H 2405.55 -4.53623 -3.09059 0
M  V30 26579 H 2405.81 -2.8268 -3.39918 0
M  V30 26580 N 2404.87 0.409753 -1.5218 0
M  V30 26581 C 2406.09 1.18305 -1.70349 0
M  V30 26582 C 2406.52 1.83534 -0.411919 0
M  V30 26583 O 2405.88 1.69981 0.630557 0
M  V30 26584 C 2405.92 2.22233 -2.83981 0
M  V30 26585 O 2405.03 3.2836 -2.49506 0
M  V30 26586 H 2404.37 0.345374 -0.567109 0
M  V30 26587 H 2406.9 0.48041 -1.9888 0
M  V30 26588 H 2406.91 2.66572 -3.08874 0
M  V30 26589 H 2405.58 1.74139 -3.77688 0
M  V30 26590 H 2404.16 2.89304 -2.35282 0
M  V30 26591 N 2406.35 1.42792 0.666944 0
M  V30 26592 C 2407.31 1.46571 1.76209 0
M  V30 26593 C 2408.31 0.352224 1.56895 0
M  V30 26594 O 2409.5 0.613393 1.63043 0
M  V30 26595 C 2406.63 1.305 3.14933 0
M  V30 26596 H 2407.82 2.44089 1.74243 0
M  V30 26597 H 2405.38 1.29355 0.877319 0
M  V30 26598 H 2406.11 0.339358 3.2252 0
M  V30 26599 H 2405.9 2.11205 3.30356 0
M  V30 26600 H 2407.39 1.36045 3.94818 0
M  V30 26601 N 2407.82 -0.904008 1.29095 0
M  V30 26602 C 2409.05 -1.68764 1.19692 0
M  V30 26603 C 2409.47 -1.87229 -0.24308 0
M  V30 26604 O 2408.82 -1.40624 -1.16324 0
M  V30 26605 C 2408.88 -3.0745 1.90149 0
M  V30 26606 O 2408.6 -2.89832 3.28526 0
M  V30 26607 C 2410.1 -4.01849 1.8717 0
M  V30 26608 H 2407.32 -0.527237 0.415045 0
M  V30 26609 H 2409.86 -1.13079 1.70392 0
M  V30 26610 H 2408.02 -3.59924 1.43296 0
M  V30 26611 H 2408.43 -3.77677 3.63951 0
M  V30 26612 H 2409.9 -4.96592 2.41041 0
M  V30 26613 H 2410.38 -4.3097 0.846246 0
M  V30 26614 H 2410.99 -3.55306 2.33747 0
M  V30 26615 N 2409.3 -1.11501 -1.11379 0
M  V30 26616 C 2410.55 -0.859025 -1.82493 0
M  V30 26617 C 2410.86 0.617245 -1.85606 0
M  V30 26618 O 2412.07 0.989507 -2.52826 0
M  V30 26619 C 2410.53 -1.48705 -3.27742 0
M  V30 26620 C 2410.13 -2.9974 -3.32956 0
M  V30 26621 C 2411.88 -1.31092 -4.03751 0
M  V30 26622 C 2409.79 -3.55524 -4.72606 0
M  V30 26623 H 2408.72 -0.317708 -0.683797 0
M  V30 26624 H 2411.37 -1.34033 -1.25329 0
M  V30 26625 H 2409.75 -0.933407 -3.84842 0
M  V30 26626 H 2410.92 -3.61514 -2.85734 0
M  V30 26627 H 2409.24 -3.16636 -2.70427 0
M  V30 26628 H 2411.83 -1.70201 -5.06888 0
M  V30 26629 H 2412.18 -0.253569 -4.15527 0
M  V30 26630 H 2412.71 -1.83324 -3.5304 0
M  V30 26631 H 2409.45 -4.60975 -4.66028 0
M  V30 26632 H 2408.97 -2.98522 -5.20235 0
M  V30 26633 H 2410.65 -3.54002 -5.41564 0
M  V30 26634 N 2410.78 1.28995 -0.905426 0
M  V30 26635 C 2412.03 1.94606 -0.530225 0
M  V30 26636 C 2412.34 1.72122 0.929155 0
M  V30 26637 O 2413.55 2.31886 1.41214 0
M  V30 26638 C 2412.01 3.48532 -0.897394 0
M  V30 26639 C 2411.61 3.79807 -2.37593 0
M  V30 26640 C 2413.36 4.20346 -0.592378 0
M  V30 26641 C 2411.26 5.27004 -2.68366 0
M  V30 26642 H 2410.19 0.728463 -0.19457 0
M  V30 26643 H 2412.85 1.46634 -1.10321 0
M  V30 26644 H 2411.23 3.95189 -0.253283 0
M  V30 26645 H 2412.4 3.43989 -3.06608 0
M  V30 26646 H 2410.72 3.21146 -2.65055 0
M  V30 26647 H 2413.31 5.28696 -0.799068 0
M  V30 26648 H 2413.66 4.13645 0.469401 0
M  V30 26649 H 2414.19 3.7944 -1.19458 0
M  V30 26650 H 2410.93 5.38775 -3.73365 0
M  V30 26651 H 2410.45 5.64049 -2.03981 0
M  V30 26652 H 2412.13 5.94658 -2.54933 0
M  V30 26653 N 2412.26 0.668514 1.42719 0
M  V30 26654 C 2413.19 -0.0525728 2.2914 0
M  V30 26655 C 2414.2 -0.771832 1.43341 0
M  V30 26656 O 2415.39 -0.627038 1.67124 0
M  V30 26657 C 2412.49 -1.09799 3.2062 0
M  V30 26658 C 2411.67 -0.453813 4.35039 0
M  V30 26659 C 2410.73 -1.39816 5.07285 0
M  V30 26660 O 2409.75 -0.90088 5.62026 0
M  V30 26661 N 2410.95 -2.73167 5.12211 0
M  V30 26662 H 2413.72 0.68926 2.91666 0
M  V30 26663 H 2411.28 0.512449 1.53576 0
M  V30 26664 H 2413.27 -1.73088 3.65818 0
M  V30 26665 H 2411.84 -1.74162 2.59589 0
M  V30 26666 H 2411.06 0.358465 3.92567 0
M  V30 26667 H 2412.35 -0.00478028 5.088 0
M  V30 26668 H 2411.75 -3.16114 4.69136 0
M  V30 26669 H 2410.3 -3.3172 5.61075 0
M  V30 26670 N 2413.74 -1.52135 0.411426 0
M  V30 26671 C 2415.15 -1.59478 0.0624145 0
M  V30 26672 C 2415.35 -1.42413 -1.42551 0
M  V30 26673 O 2414.41 -1.25224 -2.19261 0
M  V30 26674 C 2415.72 -2.95451 0.559383 0
M  V30 26675 C 2417.27 -3.08691 0.517558 0
M  V30 26676 C 2417.75 -4.47148 0.991073 0
M  V30 26677 N 2419.24 -4.53395 0.947987 0
M  V30 26678 C 2419.97 -5.58804 1.28553 0
M  V30 26679 N 2419.47 -6.71754 1.69465 0
M  V30 26680 N 2421.26 -5.49024 1.20536 0
M  V30 26681 H 2413.41 -1.61475 1.37985 0
M  V30 26682 H 2415.67 -0.759754 0.56699 0
M  V30 26683 H 2415.38 -3.13227 1.59944 0
M  V30 26684 H 2415.25 -3.77188 -0.0297351 0
M  V30 26685 H 2417.64 -2.90599 -0.513454 0
M  V30 26686 H 2417.72 -2.28855 1.14276 0
M  V30 26687 H 2417.37 -4.65984 2.02042 0
M  V30 26688 H 2417.3 -5.25484 0.342663 0
M  V30 26689 H 2419.79 -3.72316 0.647223 0
M  V30 26690 H 2420.1 -7.48176 1.93527 0
M  V30 26691 H 2418.45 -6.73029 1.73371 0
M  V30 26692 H 2421.64 -4.59666 0.884585 0
M  V30 26693 H 2421.81 -6.31066 1.47172 0
M  V30 26694 N 2415.22 -0.14192 -1.5696 0
M  V30 26695 C 2416.18 0.785549 -2.15318 0
M  V30 26696 C 2417.18 1.17878 -1.09368 0
M  V30 26697 O 2418.37 1.10053 -1.35033 0
M  V30 26698 C 2415.5 2.06532 -2.71214 0
M  V30 26699 H 2416.69 0.277988 -2.98609 0
M  V30 26700 H 2414.25 0.107491 -1.5593 0
M  V30 26701 H 2414.98 2.61667 -1.91575 0
M  V30 26702 H 2414.77 1.79262 -3.48723 0
M  V30 26703 H 2416.26 2.72784 -3.16194 0
M  V30 26704 N 2416.69 1.57047 0.131868 0
M  V30 26705 C 2417.92 1.88069 0.855186 0
M  V30 26706 C 2418.33 0.729848 1.74556 0
M  V30 26707 O 2417.67 -0.308931 1.81084 0
M  V30 26708 C 2417.74 3.13967 1.75114 0
M  V30 26709 C 2417.4 4.45093 1.03639 0
M  V30 26710 C 2418.4 5.18486 0.383185 0
M  V30 26711 C 2416.08 4.91806 1.02139 0
M  V30 26712 C 2418.08 6.36805 -0.275459 0
M  V30 26713 C 2415.76 6.10045 0.35894 0
M  V30 26714 C 2416.76 6.82391 -0.288341 0
M  V30 26715 O 2416.45 7.98382 -0.940251 0
M  V30 26716 H 2416.18 0.627332 0.251853 0
M  V30 26717 H 2418.74 2.05021 0.124746 0
M  V30 26718 H 2416.97 2.93064 2.5229 0
M  V30 26719 H 2418.65 3.31113 2.34774 0
M  V30 26720 H 2419.42 4.83458 0.386477 0
M  V30 26721 H 2415.3 4.35408 1.51463 0
M  V30 26722 H 2418.84 6.93211 -0.78127 0
M  V30 26723 H 2414.74 6.44532 0.353367 0
M  V30 26724 H 2415.51 8.14143 -0.843433 0
M  V30 26725 N 2418.17 -0.401677 1.52395 0
M  V30 26726 C 2419.12 -1.48988 1.7627 0
M  V30 26727 C 2420.09 -1.54674 0.605413 0
M  V30 26728 O 2421.27 -1.71129 0.843772 0
M  V30 26729 C 2418.41 -2.86357 1.92597 0
M  V30 26730 C 2417.53 -2.89922 3.20264 0
M  V30 26731 C 2416.66 -4.18638 3.2698 0
M  V30 26732 C 2415.7 -4.16206 4.48819 0
M  V30 26733 N 2414.84 -5.36506 4.52886 0
M  V30 26734 H 2419.68 -1.2793 2.69143 0
M  V30 26735 H 2417.21 -0.620847 1.33356 0
M  V30 26736 H 2419.17 -3.66111 2.00046 0
M  V30 26737 H 2417.8 -3.05893 1.03098 0
M  V30 26738 H 2416.85 -2.02615 3.21949 0
M  V30 26739 H 2418.17 -2.83991 4.10061 0
M  V30 26740 H 2417.32 -5.06789 3.33542 0
M  V30 26741 H 2416.06 -4.27274 2.35134 0
M  V30 26742 H 2415.06 -3.26445 4.42395 0
M  V30 26743 H 2416.29 -4.09204 5.41968 0
M  V30 26744 H 2414.24 -5.45796 3.63927 0
M  V30 26745 H 2414.15 -5.326 5.36538 0
M  V30 26746 H 2415.42 -6.26589 4.63688 0
M  V30 26747 N 2419.65 -1.43144 -0.659362 0
M  V30 26748 C 2420.6 -1.48083 -1.79371 0
M  V30 26749 C 2421.59 -0.355017 -1.65638 0
M  V30 26750 O 2422.8 -0.528734 -1.72059 0
M  V30 26751 H 2419.17 -0.46411 -0.591697 0
M  V30 26752 H 2421.14 -2.43612 -1.72325 0
M  V30 26753 C 2419.89 -1.41505 -3.17603 0
M  V30 26754 H 2419.22 -2.27437 -3.28805 0
M  V30 26755 H 2420.66 -1.49022 -3.96949 0
M  V30 26756 C 2419.11 -0.131824 -3.36642 0
M  V30 26757 O 2419.64 0.809317 -3.93463 0
M  V30 26758 N 2417.85 -0.0439906 -2.90567 0
M  V30 26759 H 2417.4 -0.810662 -2.44512 0
M  V30 26760 H 2417.36 0.813916 -3.03682 0
M  V30 26761 N 2421.13 0.897149 -1.29572 0
M  V30 26762 C 2422.36 1.67883 -1.20411 0
M  V30 26763 C 2422.77 1.87705 0.237396 0
M  V30 26764 O 2422.11 1.41584 1.17046 0
M  V30 26765 C 2422.17 3.0831 -1.84892 0
M  V30 26766 C 2421.83 3.1171 -3.34194 0
M  V30 26767 C 2422.83 2.91667 -4.30379 0
M  V30 26768 C 2420.52 3.33695 -3.75437 0
M  V30 26769 C 2422.51 2.93547 -5.65782 0
M  V30 26770 C 2420.2 3.35205 -5.10961 0
M  V30 26771 C 2421.2 3.15154 -6.05943 0
M  V30 26772 O 2420.88 3.16457 -7.38993 0
M  V30 26773 H 2420.62 0.531039 -0.418298 0
M  V30 26774 H 2423.17 1.13011 -1.71516 0
M  V30 26775 H 2421.4 3.64795 -1.28301 0
M  V30 26776 H 2423.09 3.68577 -1.70017 0
M  V30 26777 H 2423.85 2.74492 -3.99849 0
M  V30 26778 H 2419.73 3.48341 -3.01959 0
M  V30 26779 H 2423.28 2.77815 -6.39894 0
M  V30 26780 H 2419.17 3.51912 -5.41136 0
M  V30 26781 H 2419.94 3.32706 -7.47829 0
M  V30 26782 N 2422.61 1.1209 1.10786 0
M  V30 26783 C 2424.02 0.856209 1.34689 0
M  V30 26784 C 2424.22 -0.515581 1.94792 0
M  V30 26785 O 2423.28 -1.26501 2.18526 0
M  V30 26786 C 2424.59 1.96974 2.27204 0
M  V30 26787 C 2426.14 2.0002 2.40751 0
M  V30 26788 C 2426.61 3.10596 3.36592 0
M  V30 26789 N 2428.1 3.10015 3.44159 0
M  V30 26790 C 2428.84 3.92214 4.18277 0
M  V30 26791 N 2428.34 4.84392 4.95314 0
M  V30 26792 N 2430.13 3.80365 4.13859 0
M  V30 26793 H 2422.28 2.00485 0.701405 0
M  V30 26794 H 2424.54 0.872223 0.37139 0
M  V30 26795 H 2424.25 2.95803 1.90246 0
M  V30 26796 H 2424.12 1.87178 3.27482 0
M  V30 26797 H 2426.51 1.01813 2.7698 0
M  V30 26798 H 2426.59 2.13891 1.40301 0
M  V30 26799 H 2426.23 4.09033 3.01089 0
M  V30 26800 H 2426.16 2.93964 4.36913 0
M  V30 26801 H 2428.66 2.43233 2.89216 0
M  V30 26802 H 2428.97 5.43632 5.49257 0
M  V30 26803 H 2427.31 4.88409 4.94451 0
M  V30 26804 H 2430.5 3.07689 3.52767 0
M  V30 26805 H 2430.68 4.44657 4.71364 0
M  V30 26806 N 2424.08 -1.28513 0.912254 0
M  V30 26807 C 2425.01 -2.29756 0.416443 0
M  V30 26808 C 2425.99 -1.62111 -0.515166 0
M  V30 26809 O 2427.18 -1.89532 -0.423219 0
M  V30 26810 C 2424.31 -3.45576 -0.345659 0
M  V30 26811 C 2423.26 -4.25108 0.496674 0
M  V30 26812 C 2422.59 -5.33249 -0.393678 0
M  V30 26813 C 2423.89 -4.91998 1.75316 0
M  V30 26814 H 2425.58 -2.71478 1.26254 0
M  V30 26815 H 2423.13 -1.3051 0.608538 0
M  V30 26816 H 2425.08 -4.15489 -0.703349 0
M  V30 26817 H 2423.81 -3.0273 -1.22565 0
M  V30 26818 H 2422.47 -3.5692 0.836863 0
M  V30 26819 H 2422.11 -4.86647 -1.27217 0
M  V30 26820 H 2421.81 -5.87365 0.166312 0
M  V30 26821 H 2423.34 -6.0601 -0.747283 0
M  V30 26822 H 2424.75 -5.5428 1.46446 0
M  V30 26823 H 2423.15 -5.56102 2.25544 0
M  V30 26824 H 2424.22 -4.16573 2.48184 0
M  V30 26825 N 2425.56 -0.676073 -1.42362 0
M  V30 26826 C 2426.98 -0.345745 -1.5581 0
M  V30 26827 C 2427.18 1.14877 -1.65546 0
M  V30 26828 O 2426.23 1.93422 -1.62309 0
M  V30 26829 C 2427.55 -1.07718 -2.80744 0
M  V30 26830 C 2429.1 -1.05963 -2.94518 0
M  V30 26831 C 2429.57 -1.77241 -4.22315 0
M  V30 26832 N 2431.06 -1.74115 -4.2923 0
M  V30 26833 C 2431.8 -2.26122 -5.26931 0
M  V30 26834 N 2431.29 -2.86516 -6.30777 0
M  V30 26835 N 2433.09 -2.16489 -5.18738 0
M  V30 26836 H 2425.24 -1.64563 -1.34286 0
M  V30 26837 H 2427.5 -0.693361 -0.646494 0
M  V30 26838 H 2427.21 -2.13226 -2.79692 0
M  V30 26839 H 2427.08 -0.643225 -3.71675 0
M  V30 26840 H 2429.47 -0.0128774 -2.95097 0
M  V30 26841 H 2429.55 -1.53247 -2.04814 0
M  V30 26842 H 2429.19 -2.81885 -4.22497 0
M  V30 26843 H 2429.12 -1.27405 -5.10955 0
M  V30 26844 H 2431.61 -1.30065 -3.54812 0
M  V30 26845 H 2431.93 -3.23817 -7.01685 0
M  V30 26846 H 2430.27 -2.90586 -6.31335 0
M  V30 26847 H 2433.46 -1.68994 -4.3653 0
M  V30 26848 H 2433.63 -2.57326 -5.94716 0
M  V30 26849 N 2427.04 1.51915 -0.419488 0
M  V30 26850 C 2428.46 1.59443 -0.0708711 0
M  V30 26851 C 2428.66 1.43167 1.41794 0
M  V30 26852 O 2427.71 1.26385 2.18593 0
M  V30 26853 C 2429.03 2.9515 -0.575043 0
M  V30 26854 C 2430.57 3.08413 -0.533921 0
M  V30 26855 C 2431.05 4.46617 -1.01477 0
M  V30 26856 N 2432.54 4.52886 -0.972019 0
M  V30 26857 C 2433.27 5.58114 -1.31515 0
M  V30 26858 N 2432.77 6.70846 -1.73025 0
M  V30 26859 N 2434.56 5.48377 -1.23446 0
M  V30 26860 H 2426.71 1.60741 -1.38839 0
M  V30 26861 H 2428.98 0.756736 -0.571011 0
M  V30 26862 H 2428.68 3.12374 -1.61602 0
M  V30 26863 H 2428.56 3.77199 0.00973147 0
M  V30 26864 H 2430.94 2.90867 0.498035 0
M  V30 26865 H 2431.03 2.28246 -1.15488 0
M  V30 26866 H 2430.67 4.64906 -2.04511 0
M  V30 26867 H 2430.6 5.25295 -0.370526 0
M  V30 26868 H 2433.09 3.71968 -0.666958 0
M  V30 26869 H 2433.4 7.47139 -1.97492 0
M  V30 26870 H 2431.75 6.721 -1.76938 0
M  V30 26871 H 2434.94 4.5919 -0.90895 0
M  V30 26872 H 2435.11 6.30277 -1.50517 0
M  V30 26873 N 2428.52 0.150242 1.56882 0
M  V30 26874 C 2429.47 -0.805274 2.18216 0
M  V30 26875 C 2430.46 -1.25294 1.14008 0
M  V30 26876 O 2431.67 -1.22104 1.32252 0
M  V30 26877 H 2428.04 -0.277901 0.698767 0
M  V30 26878 H 2430.01 -0.26381 2.97232 0
M  V30 26879 C 2428.76 -2.03304 2.82069 0
M  V30 26880 H 2428.08 -1.69756 3.61971 0
M  V30 26881 H 2429.52 -2.68097 3.28481 0
M  V30 26882 C 2427.98 -2.84312 1.80744 0
M  V30 26883 O 2428.51 -3.80764 1.27989 0
M  V30 26884 N 2426.72 -2.4891 1.49974 0
M  V30 26885 H 2426.27 -1.70539 1.93065 0
M  V30 26886 H 2426.22 -3.03403 0.82427 0
M  V30 26887 N 2430 -1.57115 -0.123538 0
M  V30 26888 C 2431.27 -1.75574 -0.862165 0
M  V30 26889 C 2431.65 -0.72451 -1.98278 0
M  V30 26890 O 2431 0.252367 -2.27102 0
M  V30 26891 C 2431.21 -3.20426 -1.38304 0
M  V30 26892 C 2432.56 -3.82796 -1.83717 0
M  V30 26893 O 2433.58 -3.24001 -1.47993 0
M  V30 26894 O 2432.44 -4.86132 -2.49677 0
M  V30 26895 H 2429.54 -0.718725 -0.409101 0
M  V30 26896 H 2432.08 -1.69358 -0.107632 0
M  V30 26897 H 2430.85 -3.86995 -0.578821 0
M  V30 26898 H 2430.48 -3.31161 -2.20041 0
M  V30 26899 N 2431.47 0.393589 -1.52606 0
M  V30 26900 C 2432.42 1.48051 -1.77058 0
M  V30 26901 C 2433.39 1.5435 -0.613608 0
M  V30 26902 O 2434.58 1.70679 -0.852836 0
M  V30 26903 C 2431.72 2.85332 -1.94113 0
M  V30 26904 C 2430.83 2.8822 -3.21797 0
M  V30 26905 C 2429.96 4.16898 -3.29195 0
M  V30 26906 C 2429 4.1382 -4.5102 0
M  V30 26907 N 2428.14 5.34097 -4.55725 0
M  V30 26908 H 2432.98 1.26501 -2.69817 0
M  V30 26909 H 2430.52 0.613766 -1.33684 0
M  V30 26910 H 2432.48 3.65045 -2.01985 0
M  V30 26911 H 2431.11 3.05342 -1.04719 0
M  V30 26912 H 2430.16 2.00905 -3.23019 0
M  V30 26913 H 2431.47 2.81813 -4.11562 0
M  V30 26914 H 2430.62 5.05013 -3.36225 0
M  V30 26915 H 2429.36 4.26021 -2.37396 0
M  V30 26916 H 2428.37 3.24094 -4.4412 0
M  V30 26917 H 2429.59 4.06324 -5.4413 0
M  V30 26918 H 2427.54 5.43858 -3.66816 0
M  V30 26919 H 2427.46 5.29747 -5.39355 0
M  V30 26920 H 2428.72 6.24121 -4.67004 0
M  V30 26921 N 2432.95 1.43492 0.651762 0
M  V30 26922 C 2433.9 1.49033 1.78583 0
M  V30 26923 C 2434.89 0.363796 1.65448 0
M  V30 26924 O 2436.1 0.537852 1.71776 0
M  V30 26925 H 2432.48 0.467242 0.589228 0
M  V30 26926 H 2434.45 2.44522 1.7103 0
M  V30 26927 C 2433.2 1.43187 3.16848 0
M  V30 26928 H 2432.52 2.29177 3.27594 0
M  V30 26929 H 2433.96 1.51125 3.96153 0
M  V30 26930 C 2432.42 0.149675 3.36567 0
M  V30 26931 O 2432.95 -0.78844 3.93886 0
M  V30 26932 N 2431.15 0.0593995 2.90539 0
M  V30 26933 H 2430.7 0.823618 2.44078 0
M  V30 26934 H 2430.66 -0.797799 3.04109 0
M  V30 26935 N 2434.43 -0.890264 1.30046 0
M  V30 26936 C 2435.66 -1.67485 1.21475 0
M  V30 26937 C 2436.07 -1.87476 -0.223208 0
M  V30 26938 O 2435.43 -1.41849 -1.14826 0
M  V30 26939 C 2435.48 -3.05416 1.934 0
M  V30 26940 O 2435.2 -2.86331 3.31581 0
M  V30 26941 C 2436.7 -3.99841 1.91421 0
M  V30 26942 H 2433.92 -0.522805 0.420613 0
M  V30 26943 H 2436.47 -1.11265 1.71582 0
M  V30 26944 H 2434.62 -3.58384 1.47105 0
M  V30 26945 H 2435.04 -3.73796 3.67936 0
M  V30 26946 H 2436.51 -4.94007 2.46294 0
M  V30 26947 H 2436.99 -4.30048 0.891908 0
M  V30 26948 H 2437.59 -3.52807 2.37502 0
M  V30 26949 N 2435.91 -1.12676 -1.1019 0
M  V30 26950 C 2437.13 -0.906886 -1.86522 0
M  V30 26951 C 2437.56 0.538679 -1.80222 0
M  V30 26952 O 2436.92 1.38156 -1.17399 0
M  V30 26953 C 2436.96 -1.38946 -3.32756 0
M  V30 26954 O 2436.07 -0.569572 -4.08448 0
M  V30 26955 H 2435.41 -0.325629 -0.578672 0
M  V30 26956 H 2437.94 -1.49948 -1.392 0
M  V30 26957 H 2437.95 -1.38965 -3.83605 0
M  V30 26958 H 2436.62 -2.44203 -3.36657 0
M  V30 26959 H 2435.2 -0.636593 -3.67426 0
M  V30 26960 N 2437.39 1.28028 -0.919057 0
M  V30 26961 C 2438.66 1.89777 -0.473701 0
M  V30 26962 C 2439.04 1.83261 1.0478 0
M  V30 26963 O 2438.39 1.27206 1.89818 0
M  V30 26964 C 2438.6 3.34065 -1.01004 0
M  V30 26965 C 2439.95 4.11018 -1.06532 0
M  V30 26966 O 2440.97 3.43046 -0.959056 0
M  V30 26967 O 2439.83 5.32528 -1.22786 0
M  V30 26968 H 2436.93 0.813099 -0.150994 0
M  V30 26969 H 2439.47 1.36357 -1.01019 0
M  V30 26970 H 2438.24 3.33058 -2.05398 0
M  V30 26971 H 2437.87 3.94991 -0.454695 0
M  V30 26972 N 2438.86 0.683613 1.42002 0
M  V30 26973 C 2440.11 0.206716 2.00638 0
M  V30 26974 C 2440.43 -1.19668 1.54722 0
M  V30 26975 O 2441.63 -1.77041 2.05836 0
M  V30 26976 C 2440.09 0.318695 3.58486 0
M  V30 26977 C 2439.7 1.7267 4.13387 0
M  V30 26978 C 2441.44 -0.0990395 4.24384 0
M  V30 26979 C 2439.35 1.79097 5.63629 0
M  V30 26980 H 2438.28 0.0735239 0.750407 0
M  V30 26981 H 2440.93 0.850077 1.62622 0
M  V30 26982 H 2439.31 -0.392712 3.94048 0
M  V30 26983 H 2440.48 2.4659 3.89269 0
M  V30 26984 H 2438.8 2.09305 3.59972 0
M  V30 26985 H 2441.4 -0.0712894 5.34652 0
M  V30 26986 H 2441.74 -1.13579 4.00507 0
M  V30 26987 H 2442.27 0.561668 3.93815 0
M  V30 26988 H 2439.01 2.80784 5.92318 0
M  V30 26989 H 2438.53 1.09545 5.89712 0
M  V30 26990 H 2440.21 1.54841 6.28198 0
M  V30 26991 N 2440.34 -1.5169 0.427538 0
M  V30 26992 C 2441.29 -2.24346 -0.406565 0
M  V30 26993 C 2442.28 -1.26189 -0.998254 0
M  V30 26994 O 2443.47 -1.51332 -0.918019 0
M  V30 26995 C 2440.6 -3.0818 -1.51261 0
M  V30 26996 C 2439.68 -4.1376 -0.930795 0
M  V30 26997 N 2440.08 -5.05741 -0.0772663 0
M  V30 26998 C 2438.37 -4.2957 -1.19941 0
M  V30 26999 C 2439.07 -5.81169 0.248446 0
M  V30 27000 N 2438.05 -5.4237 -0.36544 0
M  V30 27001 H 2441.85 -2.92821 0.251632 0
M  V30 27002 H 2439.37 -1.60631 0.239031 0
M  V30 27003 H 2441.36 -3.588 -2.12293 0
M  V30 27004 H 2440.02 -2.41247 -2.17324 0
M  V30 27005 H 2441.03 -5.17096 0.288442 0
M  V30 27006 H 2437.71 -3.73865 -1.85826 0
M  V30 27007 H 2439.1 -6.65258 0.942403 0
M  V30 27008 N 2441.82 -0.15856 -1.568 0
M  V30 27009 C 2442.75 0.815028 -2.13149 0
M  V30 27010 C 2443.73 1.2346 -1.05812 0
M  V30 27011 O 2444.92 1.32865 -1.33713 0
M  V30 27012 C 2442.04 2.09589 -2.66064 0
M  V30 27013 C 2441.09 1.82134 -3.85655 0
M  V30 27014 S 2441.92 1.00198 -5.26042 0
M  V30 27015 C 2443.08 2.29378 -5.82354 0
M  V30 27016 H 2443.31 0.335885 -2.95397 0
M  V30 27017 H 2440.84 0.055912 -1.54299 0
M  V30 27018 H 2442.8 2.83165 -2.972 0
M  V30 27019 H 2441.46 2.54618 -1.83926 0
M  V30 27020 H 2440.66 2.77139 -4.20963 0
M  V30 27021 H 2440.26 1.16661 -3.5534 0
M  V30 27022 H 2442.55 3.24942 -5.94491 0
M  V30 27023 H 2443.49 1.98558 -6.79691 0
M  V30 27024 H 2443.9 2.40555 -5.10679 0
M  V30 27025 N 2443.3 1.57178 0.115204 0
M  V30 27026 C 2444.55 1.84239 0.820913 0
M  V30 27027 C 2444.86 0.744792 1.80865 0
M  V30 27028 O 2446.07 0.901916 2.56081 0
M  V30 27029 C 2444.52 3.2666 1.51066 0
M  V30 27030 C 2444.13 4.44439 0.563716 0
M  V30 27031 C 2445.88 3.62965 2.20128 0
M  V30 27032 C 2443.78 5.77889 1.25691 0
M  V30 27033 H 2442.71 0.687183 0.310315 0
M  V30 27034 H 2445.36 1.83352 0.0736811 0
M  V30 27035 H 2443.75 3.22028 2.30465 0
M  V30 27036 H 2444.92 4.60377 -0.197328 0
M  V30 27037 H 2443.23 4.16395 -0.020137 0
M  V30 27038 H 2445.83 4.59941 2.72687 0
M  V30 27039 H 2446.17 2.90587 2.98102 0
M  V30 27040 H 2446.71 3.69399 1.47613 0
M  V30 27041 H 2443.45 6.53447 0.518378 0
M  V30 27042 H 2442.97 5.65831 1.98987 0
M  V30 27043 H 2444.65 6.21774 1.78904 0
M  V30 27044 N 2444.78 -0.38549 1.52813 0
M  V30 27045 C 2446.05 -1.14462 1.58612 0
M  V30 27046 C 2446.43 -2.07625 0.381438 0
M  V30 27047 O 2445.78 -2.19645 -0.62996 0
M  V30 27048 C 2445.99 -1.90123 2.92668 0
M  V30 27049 C 2447.34 -2.45361 3.4653 0
M  V30 27050 O 2448.36 -2.00275 2.94565 0
M  V30 27051 O 2447.22 -3.27728 4.37329 0
M  V30 27052 H 2444.32 -0.52393 0.639865 0
M  V30 27053 H 2446.86 -0.39036 1.65149 0
M  V30 27054 H 2445.64 -1.22015 3.7179 0
M  V30 27055 H 2445.26 -2.72502 2.89531 0
M  V30 27056 N 2446.26 -1.43835 -0.644143 0
M  V30 27057 C 2447.5 -1.45644 -1.40115 0
M  V30 27058 C 2447.82 -0.0852755 -1.94813 0
M  V30 27059 O 2447.09 0.880657 -1.74989 0
M  V30 27060 H 2445.67 -0.536253 -0.520041 0
M  V30 27061 H 2448.34 -1.79511 -0.759069 0
M  V30 27062 H 2447.43 -2.17431 -2.23898 0
M  V30 27063 N 2447.73 0.883355 -1.30517 0
M  V30 27064 C 2449.01 1.61678 -1.10089 0
M  V30 27065 C 2449.39 2.08191 0.349233 0
M  V30 27066 O 2448.74 1.85011 1.34102 0
M  V30 27067 C 2448.95 2.78507 -2.1032 0
M  V30 27068 C 2450.3 3.48799 -2.42125 0
M  V30 27069 O 2451.32 2.88698 -2.08643 0
M  V30 27070 O 2450.18 4.57186 -2.99404 0
M  V30 27071 H 2447.27 0.710682 -0.422919 0
M  V30 27072 H 2449.82 0.92999 -1.41948 0
M  V30 27073 H 2448.59 2.41454 -3.07922 0
M  V30 27074 H 2448.21 3.54883 -1.79288 0
M  V30 27075 N 2449.21 1.13259 1.09591 0
M  V30 27076 C 2450.63 0.870447 1.33774 0
M  V30 27077 C 2450.83 -0.494891 1.95328 0
M  V30 27078 O 2449.88 -1.24177 2.19855 0
M  V30 27079 C 2451.2 1.99373 2.25102 0
M  V30 27080 C 2452.74 2.02562 2.38616 0
M  V30 27081 C 2453.22 3.14148 3.33279 0
M  V30 27082 N 2454.71 3.13647 3.40851 0
M  V30 27083 C 2455.45 3.96628 4.14094 0
M  V30 27084 N 2454.94 4.89619 4.90148 0
M  V30 27085 N 2456.73 3.84733 4.09801 0
M  V30 27086 H 2448.89 2.01217 0.680101 0
M  V30 27087 H 2451.15 0.876113 0.362118 0
M  V30 27088 H 2450.85 2.97804 1.87098 0
M  V30 27089 H 2450.73 1.90641 3.25478 0
M  V30 27090 H 2453.12 1.04745 2.75885 0
M  V30 27091 H 2453.2 2.15367 1.38025 0
M  V30 27092 H 2452.84 4.12203 2.96734 0
M  V30 27093 H 2452.77 2.98581 4.3377 0
M  V30 27094 H 2455.26 2.46287 2.8662 0
M  V30 27095 H 2455.57 5.49427 5.43461 0
M  V30 27096 H 2453.92 4.93626 4.89243 0
M  V30 27097 H 2457.11 3.11414 3.49484 0
M  V30 27098 H 2457.28 4.49632 4.66621 0
M  V30 27099 N 2450.69 -1.27539 0.925834 0
M  V30 27100 C 2451.97 -1.89523 0.483759 0
M  V30 27101 C 2452.35 -1.83814 -1.03806 0
M  V30 27102 O 2451.69 -1.28211 -1.89141 0
M  V30 27103 C 2451.9 -3.33524 1.02774 0
M  V30 27104 C 2453.25 -4.10447 1.08711 0
M  V30 27105 O 2454.28 -3.42533 0.977236 0
M  V30 27106 O 2453.14 -5.31869 1.25608 0
M  V30 27107 H 2450.23 -0.812287 0.155304 0
M  V30 27108 H 2452.78 -1.3582 1.0174 0
M  V30 27109 H 2451.55 -3.31964 2.07161 0
M  V30 27110 H 2451.17 -3.94745 0.475636 0
M  V30 27111 N 2452.17 -0.691135 -1.41637 0
M  V30 27112 C 2453.41 -0.220555 -2.01597 0
M  V30 27113 C 2453.75 1.17532 -1.54596 0
M  V30 27114 O 2453.02 1.7924 -0.755209 0
M  V30 27115 C 2453.3 -0.273306 -3.59061 0
M  V30 27116 C 2453.16 -1.7058 -4.162 0
M  V30 27117 C 2454.48 0.36938 -4.38547 0
M  V30 27118 H 2451.6 -0.0816173 -0.732467 0
M  V30 27119 H 2454.24 -0.879015 -1.68444 0
M  V30 27120 H 2452.39 0.287343 -3.87436 0
M  V30 27121 H 2454.06 -2.31996 -3.98718 0
M  V30 27122 H 2452.3 -2.24136 -3.7141 0
M  V30 27123 H 2452.97 -1.69428 -5.25355 0
M  V30 27124 H 2455.45 -0.10805 -4.1596 0
M  V30 27125 H 2454.33 0.301906 -5.48069 0
M  V30 27126 H 2454.59 1.44944 -4.17665 0
M  V30 27127 N 2453.65 1.51461 -0.435577 0
M  V30 27128 C 2454.6 2.24558 0.394661 0
M  V30 27129 C 2455.58 1.26717 0.991548 0
M  V30 27130 O 2456.77 1.51817 0.90998 0
M  V30 27131 C 2453.9 3.08978 1.49624 0
M  V30 27132 C 2452.99 4.14247 0.908839 0
M  V30 27133 N 2453.38 5.05775 0.0504446 0
M  V30 27134 C 2451.68 4.302 1.17661 0
M  V30 27135 C 2452.38 5.81029 -0.279263 0
M  V30 27136 N 2451.35 5.42556 0.336672 0
M  V30 27137 H 2455.15 2.92683 -0.267158 0
M  V30 27138 H 2452.67 1.60502 -0.247546 0
M  V30 27139 H 2454.67 3.5992 2.10387 0
M  V30 27140 H 2453.33 2.42396 2.16042 0
M  V30 27141 H 2454.34 5.16936 -0.315861 0
M  V30 27142 H 2451.01 3.74845 1.8384 0
M  V30 27143 H 2452.4 6.64749 -0.97767 0
M  V30 27144 N 2455.12 0.166873 1.56714 0
M  V30 27145 C 2456.09 -0.751194 2.1654 0
M  V30 27146 C 2457.09 -1.16123 1.1123 0
M  V30 27147 O 2458.28 -1.07891 1.36767 0
M  V30 27148 C 2455.41 -2.02191 2.74466 0
M  V30 27149 H 2456.6 -0.230447 2.99013 0
M  V30 27150 H 2454.16 -0.0826708 1.56081 0
M  V30 27151 H 2454.89 -2.58586 1.95714 0
M  V30 27152 H 2454.68 -1.73691 3.5153 0
M  V30 27153 H 2456.17 -2.67719 3.20494 0
M  V30 27154 N 2456.6 -1.57237 -0.106866 0
M  V30 27155 C 2457.83 -1.89681 -0.826356 0
M  V30 27156 C 2458.25 -0.759383 -1.72855 0
M  V30 27157 O 2457.6 0.269231 -1.80503 0
M  V30 27158 C 2457.65 -3.21667 -1.64961 0
M  V30 27159 O 2457.37 -4.31033 -0.783728 0
M  V30 27160 C 2458.88 -3.67896 -2.4732 0
M  V30 27161 H 2456.1 -0.627783 -0.236916 0
M  V30 27162 H 2458.64 -2.04312 -0.0876234 0
M  V30 27163 H 2456.79 -3.0867 -2.34098 0
M  V30 27164 H 2457.21 -5.06755 -1.35275 0
M  V30 27165 H 2458.68 -4.62976 -3.00595 0
M  V30 27166 H 2459.16 -2.95152 -3.25241 0
M  V30 27167 H 2459.77 -3.83723 -1.83404 0
M  V30 27168 N 2458.08 0.377381 -1.53015 0
M  V30 27169 C 2459.03 1.46165 -1.78618 0
M  V30 27170 C 2460 1.53691 -0.629944 0
M  V30 27171 O 2461.18 1.69765 -0.870891 0
M  V30 27172 C 2458.32 2.83257 -1.97128 0
M  V30 27173 C 2457.44 2.84791 -3.24836 0
M  V30 27174 C 2456.57 4.13383 -3.33598 0
M  V30 27175 C 2455.61 4.09013 -4.55384 0
M  V30 27176 N 2454.75 5.29233 -4.61364 0
M  V30 27177 H 2459.59 1.23632 -2.71144 0
M  V30 27178 H 2457.12 0.599553 -1.34327 0
M  V30 27179 H 2459.08 3.62882 -2.05846 0
M  V30 27180 H 2457.71 3.04214 -1.07951 0
M  V30 27181 H 2456.76 1.97468 -3.25132 0
M  V30 27182 H 2458.08 2.77432 -4.14527 0
M  V30 27183 H 2457.23 5.01418 -3.41562 0
M  V30 27184 H 2455.97 4.23479 -2.41902 0
M  V30 27185 H 2454.97 3.19366 -4.47533 0
M  V30 27186 H 2456.2 4.00529 -5.48409 0
M  V30 27187 H 2454.14 5.39937 -3.72564 0
M  V30 27188 H 2454.06 5.23996 -5.44944 0
M  V30 27189 H 2455.33 6.19133 -4.73597 0
M  V30 27190 N 2459.56 1.44175 0.636506 0
M  V30 27191 C 2460.47 1.53107 1.77751 0
M  V30 27192 C 2461.48 0.417063 1.68928 0
M  V30 27193 O 2462.66 0.673633 1.898 0
M  V30 27194 C 2459.73 1.46747 3.14112 0
M  V30 27195 C 2458.79 2.68954 3.34607 0
M  V30 27196 C 2458.02 2.62888 4.64463 0
M  V30 27197 O 2458.24 1.68591 5.44916 0
M  V30 27198 O 2457.18 3.53656 4.87043 0
M  V30 27199 H 2461 2.49492 1.73169 0
M  V30 27200 H 2458.59 1.26361 0.797068 0
M  V30 27201 H 2460.47 1.45703 3.95409 0
M  V30 27202 H 2459.14 0.535032 3.19248 0
M  V30 27203 H 2458.05 2.75567 2.53009 0
M  V30 27204 H 2459.38 3.61226 3.3433 0
M  V30 27205 N 2461.04 -0.876421 1.30983 0
M  V30 27206 C 2462.28 -1.62572 1.20061 0
M  V30 27207 C 2462.61 -1.93481 -0.242913 0
M  V30 27208 O 2461.88 -1.57726 -1.16187 0
M  V30 27209 H 2460.46 -0.602669 0.44136 0
M  V30 27210 H 2463.12 -1.0496 1.64224 0
M  V30 27211 H 2462.21 -2.57216 1.76767 0
M  V30 27212 N 2462.51 -1.13839 -1.08989 0
M  V30 27213 C 2463.48 -0.822752 -2.13924 0
M  V30 27214 C 2464.48 0.169872 -1.599 0
M  V30 27215 O 2465.67 -0.0577557 -1.74104 0
M  V30 27216 C 2462.8 -0.225378 -3.40154 0
M  V30 27217 H 2463.99 -1.75267 -2.43355 0
M  V30 27218 H 2461.55 -0.943616 -1.24602 0
M  V30 27219 H 2462.28 0.713538 -3.16353 0
M  V30 27220 H 2462.07 -0.94026 -3.80659 0
M  V30 27221 H 2463.56 -0.0215518 -4.17594 0
M  V30 27222 N 2463.99 1.27046 -0.932584 0
M  V30 27223 C 2465.22 1.9796 -0.591207 0
M  V30 27224 C 2465.63 1.69719 0.836189 0
M  V30 27225 O 2464.97 0.957064 1.56799 0
M  V30 27226 C 2465.04 3.51735 -0.743144 0
M  V30 27227 C 2464.7 4.03609 -2.14357 0
M  V30 27228 C 2465.7 4.16009 -3.11822 0
M  V30 27229 C 2463.38 4.37835 -2.46183 0
M  V30 27230 C 2465.38 4.61915 -4.39219 0
M  V30 27231 C 2463.06 4.83431 -3.73814 0
M  V30 27232 C 2464.06 4.95431 -4.70146 0
M  V30 27233 O 2463.75 5.40026 -5.95506 0
M  V30 27234 H 2463.48 0.638373 -0.222387 0
M  V30 27235 H 2466.03 1.6274 -1.25319 0
M  V30 27236 H 2464.26 3.86693 -0.0240419 0
M  V30 27237 H 2465.95 4.03863 -0.406101 0
M  V30 27238 H 2466.72 3.89821 -2.88556 0
M  V30 27239 H 2462.6 4.27734 -1.71943 0
M  V30 27240 H 2466.14 4.71196 -5.14412 0
M  V30 27241 H 2462.04 5.09061 -3.96897 0
M  V30 27242 H 2462.81 5.58268 -5.98564 0
M  V30 27243 N 2465.47 0.698636 1.41269 0
M  V30 27244 C 2466.72 0.230901 2.01179 0
M  V30 27245 C 2467.05 -1.17046 1.5534 0
M  V30 27246 O 2466.3 -1.80474 0.756807 0
M  V30 27247 C 2466.6 0.240254 3.56592 0
M  V30 27248 C 2466.27 1.58956 4.21952 0
M  V30 27249 C 2464.93 1.95895 4.39521 0
M  V30 27250 C 2467.28 2.47712 4.58572 0
M  V30 27251 C 2464.61 3.21169 4.90986 0
M  V30 27252 C 2466.96 3.72322 5.11429 0
M  V30 27253 C 2465.62 4.094 5.27208 0
M  V30 27254 H 2464.89 0.0844925 0.736167 0
M  V30 27255 H 2467.54 0.89833 1.69122 0
M  V30 27256 H 2465.85 -0.510729 3.88457 0
M  V30 27257 H 2467.54 -0.139225 4.00758 0
M  V30 27258 H 2464.13 1.29226 4.08655 0
M  V30 27259 H 2468.32 2.20453 4.44651 0
M  V30 27260 H 2463.57 3.49887 5.01387 0
M  V30 27261 H 2467.75 4.4128 5.38744 0
M  V30 27262 H 2465.37 5.06543 5.6685 0
M  V30 27263 N 2466.95 -1.51228 0.443603 0
M  V30 27264 C 2468.23 -1.94761 -0.181003 0
M  V30 27265 C 2468.61 -1.38262 -1.59521 0
M  V30 27266 O 2467.95 -0.572237 -2.21219 0
M  V30 27267 C 2468.16 -3.48667 -0.15236 0
M  V30 27268 C 2469.51 -4.23115 -0.354849 0
M  V30 27269 O 2470.54 -3.55455 -0.230194 0
M  V30 27270 O 2469.39 -5.43157 -0.603578 0
M  V30 27271 H 2466.49 -0.817255 -0.126586 0
M  V30 27272 H 2469.03 -1.62104 0.502033 0
M  V30 27273 H 2467.81 -3.82263 0.83609 0
M  V30 27274 H 2467.43 -3.87784 -0.878038 0
M  V30 27275 N 2468.43 -0.175182 -1.56623 0
M  V30 27276 C 2469.37 0.753596 -2.1815 0
M  V30 27277 C 2470.34 1.22415 -1.12267 0
M  V30 27278 O 2471.53 1.29162 -1.40434 0
M  V30 27279 C 2468.67 1.97587 -2.82937 0
M  V30 27280 C 2467.78 1.54853 -4.03292 0
M  V30 27281 C 2466.92 2.72477 -4.55993 0
M  V30 27282 C 2465.96 2.26252 -5.6875 0
M  V30 27283 N 2465.09 3.36983 -6.15944 0
M  V30 27284 H 2469.93 0.222143 -2.97171 0
M  V30 27285 H 2467.47 0.0979164 -1.46774 0
M  V30 27286 H 2469.43 2.69282 -3.18658 0
M  V30 27287 H 2468.06 2.48097 -2.06514 0
M  V30 27288 H 2467.11 0.728181 -3.73365 0
M  V30 27289 H 2468.42 1.16925 -4.84902 0
M  V30 27290 H 2467.58 3.52323 -4.93916 0
M  V30 27291 H 2466.31 3.13668 -3.73449 0
M  V30 27292 H 2465.32 1.44854 -5.30375 0
M  V30 27293 H 2466.54 1.86115 -6.53099 0
M  V30 27294 H 2464.49 3.77742 -5.36328 0
M  V30 27295 H 2464.41 3.0316 -6.92553 0
M  V30 27296 H 2465.68 4.17102 -6.58518 0
M  V30 27297 N 2469.91 1.57292 0.0985263 0
M  V30 27298 C 2470.87 2.0086 1.10398 0
M  V30 27299 C 2471.87 0.901616 1.33145 0
M  V30 27300 O 2473.06 1.16718 1.29316 0
M  V30 27301 C 2470.19 2.36636 2.4539 0
M  V30 27302 H 2471.38 2.90904 0.729048 0
M  V30 27303 H 2468.94 1.52479 0.343468 0
M  V30 27304 H 2469.67 1.49536 2.87766 0
M  V30 27305 H 2469.46 3.17391 2.30229 0
M  V30 27306 H 2470.95 2.71013 3.17713 0
M  V30 27307 N 2471.38 -0.369261 1.53213 0
M  V30 27308 C 2472.33 -1.45215 1.79391 0
M  V30 27309 C 2473.3 -1.53355 0.638086 0
M  V30 27310 O 2474.49 -1.69301 0.879882 0
M  V30 27311 C 2471.63 -2.82208 1.98628 0
M  V30 27312 C 2470.74 -2.83064 3.26342 0
M  V30 27313 C 2469.87 -4.11608 3.35786 0
M  V30 27314 C 2468.91 -4.06593 4.57547 0
M  V30 27315 N 2468.05 -5.26779 4.64164 0
M  V30 27316 H 2472.89 -1.22193 2.71796 0
M  V30 27317 H 2470.43 -0.592421 1.34643 0
M  V30 27318 H 2472.38 -3.61785 2.07767 0
M  V30 27319 H 2471.01 -3.03638 1.09563 0
M  V30 27320 H 2470.07 -1.95741 3.26174 0
M  V30 27321 H 2471.38 -2.7523 4.15993 0
M  V30 27322 H 2470.53 -4.996 3.44217 0
M  V30 27323 H 2469.27 -4.22191 2.44144 0
M  V30 27324 H 2468.28 -3.16988 4.4922 0
M  V30 27325 H 2469.5 -3.97615 5.50526 0
M  V30 27326 H 2467.45 -5.37954 3.75422 0
M  V30 27327 H 2467.36 -5.21099 5.47715 0
M  V30 27328 H 2468.63 -6.16613 4.76874 0
M  V30 27329 N 2472.86 -1.4451 -0.628851 0
M  V30 27330 C 2473.77 -1.54047 -1.76937 0
M  V30 27331 C 2474.79 -0.426016 -1.68704 0
M  V30 27332 O 2475.96 -0.683689 -1.8944 0
M  V30 27333 C 2473.03 -1.4841 -3.13329 0
M  V30 27334 C 2472.09 -2.70725 -3.33176 0
M  V30 27335 C 2471.32 -2.65348 -4.63062 0
M  V30 27336 O 2471.55 -1.71478 -5.44014 0
M  V30 27337 O 2470.48 -3.56234 -4.85161 0
M  V30 27338 H 2474.31 -2.50406 -1.71844 0
M  V30 27339 H 2471.89 -1.26782 -0.790355 0
M  V30 27340 H 2473.77 -1.47798 -3.94631 0
M  V30 27341 H 2472.45 -0.551955 -3.18959 0
M  V30 27342 H 2471.35 -2.76905 -2.51544 0
M  V30 27343 H 2472.69 -3.62994 -3.32409 0
M  V30 27344 N 2474.34 0.869463 -1.31446 0
M  V30 27345 C 2475.29 1.97673 -1.19139 0
M  V30 27346 C 2476.26 1.65921 -0.0770558 0
M  V30 27347 O 2477.44 1.89155 -0.250005 0
M  V30 27348 C 2474.58 3.33017 -0.905207 0
M  V30 27349 C 2473.69 3.77361 -2.10292 0
M  V30 27350 C 2472.83 5.01424 -1.75348 0
M  V30 27351 C 2471.87 5.38219 -2.91525 0
M  V30 27352 N 2471.01 6.53462 -2.56773 0
M  V30 27353 H 2475.85 2.07531 -2.13857 0
M  V30 27354 H 2473.38 1.01595 -1.06381 0
M  V30 27355 H 2475.34 4.10943 -0.719837 0
M  V30 27356 H 2473.97 3.228 0.0051395 0
M  V30 27357 H 2473.02 2.95212 -2.39904 0
M  V30 27358 H 2474.33 4.00559 -2.97244 0
M  V30 27359 H 2473.49 5.87019 -1.53277 0
M  V30 27360 H 2472.23 4.80131 -0.855886 0
M  V30 27361 H 2471.23 4.51143 -3.14245 0
M  V30 27362 H 2472.46 5.61477 -3.81995 0
M  V30 27363 H 2470.4 6.33714 -1.69537 0
M  V30 27364 H 2470.32 6.76606 -3.37255 0
M  V30 27365 H 2471.59 7.42247 -2.38096 0
M  V30 27366 N 2475.82 1.14415 1.08383 0
M  V30 27367 C 2477.04 0.936445 1.85055 0
M  V30 27368 C 2477.47 -0.509939 1.81056 0
M  V30 27369 O 2476.83 -1.36271 1.19582 0
M  V30 27370 C 2476.87 1.44223 3.30503 0
M  V30 27371 O 2475.98 0.63448 4.0749 0
M  V30 27372 H 2475.32 0.334794 0.573419 0
M  V30 27373 H 2477.85 1.52144 1.36797 0
M  V30 27374 H 2477.86 1.4505 3.81346 0
M  V30 27375 H 2476.53 2.49528 3.32729 0
M  V30 27376 H 2475.11 0.694967 3.66367 0
M  V30 27377 N 2477.3 -1.26549 0.939309 0
M  V30 27378 C 2478.71 -1.75792 0.628813 0
M  V30 27379 C 2479.06 -1.76541 -0.856015 0
M  V30 27380 O 2478.18 -1.37633 -1.66992 0
M  V30 27381 C 2478.78 -3.19233 1.13471 0
M  V30 27382 C 2477.34 -3.66096 0.874666 0
M  V30 27383 C 2476.48 -2.4564 1.28671 0
M  V30 27384 H 2479.43 -1.12652 1.11782 0
M  V30 27385 H 2479.46 -3.77362 0.487675 0
M  V30 27386 H 2478.97 -3.18656 2.2154 0
M  V30 27387 H 2477.07 -3.72106 -0.191728 0
M  V30 27388 H 2477.18 -4.55001 1.50036 0
M  V30 27389 H 2475.55 -2.44744 0.705152 0
M  V30 27390 H 2476.33 -2.47765 2.37629 0
M  V30 27391 N 2478.77 -0.706118 -1.40896 0
M  V30 27392 C 2480.02 -0.238609 -2.00284 0
M  V30 27393 C 2480.34 1.17191 -1.56606 0
M  V30 27394 O 2481.54 1.73744 -2.08627 0
M  V30 27395 C 2480 -0.375686 -3.57934 0
M  V30 27396 C 2479.61 -1.79225 -4.10588 0
M  V30 27397 C 2481.35 0.0315111 -4.24488 0
M  V30 27398 C 2479.26 -1.88041 -5.60709 0
M  V30 27399 H 2478.19 -0.0854529 -0.749142 0
M  V30 27400 H 2480.84 -0.875841 -1.61249 0
M  V30 27401 H 2479.22 0.329973 -3.94623 0
M  V30 27402 H 2480.39 -2.52752 -3.85296 0
M  V30 27403 H 2478.71 -2.15006 -3.56597 0
M  V30 27404 H 2481.31 -0.0137782 -5.34698 0
M  V30 27405 H 2481.65 1.07193 -4.02263 0
M  V30 27406 H 2482.18 -0.62425 -3.92871 0
M  V30 27407 H 2478.92 -2.90172 -5.87776 0
M  V30 27408 H 2478.44 -1.18913 -5.87894 0
M  V30 27409 H 2480.12 -1.64816 -6.25656 0
M  V30 27410 N 2480.25 1.50991 -0.451617 0
M  V30 27411 C 2481.18 2.25882 0.388595 0
M  V30 27412 C 2482.2 1.30448 0.974018 0
M  V30 27413 O 2483.39 1.561 0.865731 0
M  V30 27414 C 2480.49 3.01014 1.55705 0
M  V30 27415 C 2479.66 4.23654 1.08794 0
M  V30 27416 C 2478.72 4.81244 2.12817 0
M  V30 27417 O 2477.74 5.42696 1.71669 0
M  V30 27418 N 2478.95 4.66528 3.45445 0
M  V30 27419 H 2481.71 2.98627 -0.253343 0
M  V30 27420 H 2479.27 1.59438 -0.281296 0
M  V30 27421 H 2481.26 3.36424 2.24946 0
M  V30 27422 H 2479.83 2.31189 2.10405 0
M  V30 27423 H 2479.05 3.93574 0.22208 0
M  V30 27424 H 2480.34 5.0321 0.752124 0
M  V30 27425 H 2479.74 4.17612 3.81598 0
M  V30 27426 H 2478.3 5.06261 4.1054 0
M  V30 27427 N 2481.73 0.183486 1.56528 0
M  V30 27428 C 2482.95 -0.467393 2.02065 0
M  V30 27429 C 2483.38 -1.55194 1.06285 0
M  V30 27430 O 2482.74 -1.81246 0.0443883 0
M  V30 27431 C 2482.79 -1.01147 3.46124 0
M  V30 27432 O 2481.89 -2.12493 3.53441 0
M  V30 27433 H 2481.23 -0.110577 0.654728 0
M  V30 27434 H 2483.76 0.290953 2.02521 0
M  V30 27435 H 2483.77 -1.33101 3.85679 0
M  V30 27436 H 2482.45 -0.21746 4.15331 0
M  V30 27437 H 2481.02 -1.81491 3.25754 0
M  V30 27438 N 2483.21 -1.57342 -0.0901833 0
M  V30 27439 C 2484.14 -1.99103 -1.13538 0
M  V30 27440 C 2485.15 -0.894282 -1.36038 0
M  V30 27441 O 2486.34 -1.17235 -1.34604 0
M  V30 27442 C 2483.44 -2.299 -2.48997 0
M  V30 27443 C 2482.61 -3.61186 -2.46705 0
M  V30 27444 C 2481.67 -3.79863 -3.6413 0
M  V30 27445 O 2480.7 -4.51661 -3.46397 0
M  V30 27446 N 2481.9 -3.20814 -4.83796 0
M  V30 27447 H 2484.67 -2.89375 -0.779891 0
M  V30 27448 H 2482.23 -1.59476 -0.279097 0
M  V30 27449 H 2484.22 -2.39584 -3.26162 0
M  V30 27450 H 2482.79 -1.4561 -2.76616 0
M  V30 27451 H 2482.01 -3.62426 -1.55052 0
M  V30 27452 H 2483.3 -4.47425 -2.42257 0
M  V30 27453 H 2482.7 -2.62503 -5.01107 0
M  V30 27454 H 2481.25 -3.35976 -5.58537 0
M  V30 27455 N 2484.69 0.36113 -1.53407 0
M  V30 27456 C 2485.94 1.10063 -1.69024 0
M  V30 27457 C 2486.25 1.90333 -0.450871 0
M  V30 27458 O 2487.45 2.67084 -0.487664 0
M  V30 27459 C 2485.91 2.00592 -2.98815 0
M  V30 27460 C 2485.52 1.25614 -4.30029 0
M  V30 27461 C 2487.26 2.74507 -3.23799 0
M  V30 27462 C 2485.17 2.15071 -5.50907 0
M  V30 27463 H 2484.1 0.414595 -0.629783 0
M  V30 27464 H 2486.75 0.361317 -1.79908 0
M  V30 27465 H 2485.13 2.78273 -2.81745 0
M  V30 27466 H 2486.31 0.529659 -4.57746 0
M  V30 27467 H 2484.62 0.635424 -4.11523 0
M  V30 27468 H 2487.22 3.41673 -4.11295 0
M  V30 27469 H 2487.56 3.40119 -2.40051 0
M  V30 27470 H 2488.09 2.03908 -3.41565 0
M  V30 27471 H 2484.83 1.54029 -6.37146 0
M  V30 27472 H 2484.35 2.85556 -5.27464 0
M  V30 27473 H 2486.03 2.74527 -5.8587 0
M  V30 27474 O 2486.2 1.53332 0.507107 0
M  V30 27475 H 2486.89 1.54972 1.16205 0
M  V30 END ATOM
M  V30 BEGIN BOND
M  V30 END BOND
M  V30 END CTAB
M  END
$$$$
