drugbank_target|Q26609 Hexokinase (DB02379)
 OpenBabel12092120283D

  0  0  0     0  0            999 V3000
M  V30 BEGIN CTAB
M  V30 COUNTS 7088 7149 0 0 0
M  V30 BEGIN ATOM
M  V30 1 H -0.908 1.98254 -0.117106 0
M  V30 2 N 0 1.576 0 0
M  V30 3 C 0.933 2.03868 1.02534 0
M  V30 4 C 1.911 0.928543 1.3348 0
M  V30 5 O 3.095 1.19667 1.45644 0
M  V30 6 C 0.222 2.43627 2.35294 0
M  V30 7 C -0.732 3.65373 2.2001 0
M  V30 8 S 0.101 5.13292 1.52614 0
M  V30 9 C 1.257 5.56322 2.86805 0
M  V30 10 H 1.49 2.90518 0.631377 0
M  V30 11 H -0.977 1.52953 0.210867 0
M  V30 12 H 0.981 2.67203 3.11629 0
M  V30 13 H -0.358 1.57376 2.7183 0
M  V30 14 H -1.165 3.90944 3.18086 0
M  V30 15 H -1.563 3.418 1.51819 0
M  V30 16 H 0.729 5.58782 3.83104 0
M  V30 17 H 1.672 6.56266 2.65933 0
M  V30 18 H 2.08 4.83886 2.90714 0
M  V30 19 N 1.4781 -0.272755 1.55222 0
M  V30 20 C 2.7241 -1.00581 1.761 0
M  V30 21 C 3.0571 -1.85932 0.560625 0
M  V30 22 O 2.3321 -1.89416 -0.441801 0
M  V30 23 C 2.6151 -1.88816 3.06628 0
M  V30 24 C 2.4681 -1.06457 4.37021 0
M  V30 25 C 3.7871 -2.8752 3.33197 0
M  V30 26 H 0.9061 -0.364244 0.640699 0
M  V30 27 H 3.5481 -0.278189 1.87952 0
M  V30 28 H 1.6981 -2.50856 2.96654 0
M  V30 29 H 3.3701 -0.464863 4.58952 0
M  V30 30 H 1.6131 -0.368043 4.32236 0
M  V30 31 H 2.2841 -1.71514 5.24678 0
M  V30 32 H 4.7601 -2.35615 3.42965 0
M  V30 33 H 3.6361 -3.46399 4.25792 0
M  V30 34 H 3.8971 -3.62657 2.52849 0
M  V30 35 N 2.9562 -1.48159 -0.537278 0
M  V30 36 C 4.2032 -1.55804 -1.29349 0
M  V30 37 C 4.5312 -0.228802 -1.9315 0
M  V30 38 O 3.7862 0.780242 -1.79473 0
M  V30 39 C 4.0852 -2.63956 -2.40961 0
M  V30 40 C 3.7512 -4.0662 -1.94861 0
M  V30 41 C 2.4132 -4.45452 -1.82006 0
M  V30 42 C 4.7652 -4.96055 -1.59933 0
M  V30 43 C 2.0932 -5.71531 -1.32547 0
M  V30 44 C 4.4452 -6.22617 -1.11939 0
M  V30 45 C 3.1092 -6.60312 -0.976951 0
M  V30 46 H 2.3792 -0.570129 -0.473322 0
M  V30 47 H 5.0262 -1.81845 -0.600372 0
M  V30 48 H 3.3312 -2.31747 -3.15912 0
M  V30 49 H 5.0282 -2.67089 -2.99107 0
M  V30 50 H 1.6182 -3.75949 -2.05815 0
M  V30 51 H 5.8022 -4.66738 -1.68728 0
M  V30 52 H 1.0582 -5.99468 -1.202 0
M  V30 53 H 5.2322 -6.91318 -0.839811 0
M  V30 54 H 2.8592 -7.57895 -0.591501 0
M  V30 55 N 4.4343 0.785586 -1.36625 0
M  V30 56 C 5.6593 1.57963 -1.34397 0
M  V30 57 C 6.0843 1.87964 0.071526 0
M  V30 58 O 5.4423 1.48182 1.0446 0
M  V30 59 C 5.4903 2.87511 -2.17646 0
M  V30 60 O 4.5943 3.81281 -1.57158 0
M  V30 61 H 3.9353 0.479014 -0.459828 0
M  V30 62 H 6.4653 0.973411 -1.79961 0
M  V30 63 H 6.4753 3.36745 -2.30362 0
M  V30 64 H 5.1503 2.65002 -3.20541 0
M  V30 65 H 3.7273 3.39885 -1.53403 0
M  V30 66 N 5.9124 1.20967 1.01018 0
M  V30 67 C 7.1894 0.93264 1.71934 0
M  V30 68 C 7.5694 -0.55692 2.03621 0
M  V30 69 O 6.9174 -1.52035 1.7058 0
M  V30 70 C 7.1274 1.81233 2.98254 0
M  V30 71 C 8.4754 2.05804 3.71389 0
M  V30 72 O 9.4994 1.78539 3.08225 0
M  V30 73 O 8.3584 2.51888 4.84989 0
M  V30 74 H 5.4524 0.349272 0.749625 0
M  V30 75 H 7.9984 1.31871 1.06808 0
M  V30 76 H 6.7704 2.82067 2.71208 0
M  V30 77 H 6.3934 1.42674 3.7112 0
M  V30 78 N 7.3905 -1.2043 1.01659 0
M  V30 79 C 8.3225 -2.22626 0.544988 0
M  V30 80 C 9.3355 -1.58479 -0.372609 0
M  V30 81 O 10.5245 -1.77679 -0.170958 0
M  V30 82 C 7.6245 -3.38141 -0.22663 0
M  V30 83 C 6.7975 -4.31877 0.692876 0
M  V30 84 C 5.8565 -5.26191 -0.0311616 0
M  V30 85 O 4.8825 -5.6612 0.591343 0
M  V30 86 N 6.0845 -5.65618 -1.30601 0
M  V30 87 H 8.8495 -2.63716 1.42388 0
M  V30 88 H 6.4105 -1.34971 0.894116 0
M  V30 89 H 8.4025 -3.98239 -0.72024 0
M  V30 90 H 6.9725 -2.95943 -1.00681 0
M  V30 91 H 6.1925 -3.69746 1.36679 0
M  V30 92 H 7.4805 -4.91426 1.31824 0
M  V30 93 H 6.8785 -5.3519 -1.83269 0
M  V30 94 H 5.4355 -6.28025 -1.74435 0
M  V30 95 N 8.8686 -0.792821 -1.36206 0
M  V30 96 C 9.8006 -0.151469 -2.28699 0
M  V30 97 C 10.8136 0.641262 -1.49638 0
M  V30 98 O 12.0026 0.475885 -1.72039 0
M  V30 99 C 9.1026 0.808424 -3.29117 0
M  V30 100 C 8.2756 0.0650202 -4.37352 0
M  V30 101 C 7.3346 0.941358 -5.17711 0
M  V30 102 O 6.3606 0.397352 -5.67811 0
M  V30 103 N 7.5626 2.2652 -5.3448 0
M  V30 104 H 10.3276 -0.945982 -2.84379 0
M  V30 105 H 7.8886 -0.647032 -1.48409 0
M  V30 106 H 9.8806 1.3986 -3.79765 0
M  V30 107 H 8.4506 1.5038 -2.74052 0
M  V30 108 H 7.6706 -0.706255 -3.87822 0
M  V30 109 H 8.9586 -0.447847 -5.06825 0
M  V30 110 H 8.3566 2.73128 -4.95396 0
M  V30 111 H 6.9136 2.80493 -5.88359 0
M  V30 112 N 10.3467 1.47872 -0.545128 0
M  V30 113 C 11.2767 2.32661 0.197793 0
M  V30 114 C 12.2577 1.43041 0.920504 0
M  V30 115 O 13.4427 1.71912 0.90333 0
M  V30 116 C 10.5727 3.24569 1.23582 0
M  V30 117 C 9.5267 4.23333 0.630323 0
M  V30 118 C 8.8527 5.0448 1.77211 0
M  V30 119 C 10.1527 5.20704 -0.407974 0
M  V30 120 H 11.8467 2.95024 -0.510045 0
M  V30 121 H 9.3927 1.4187 -0.246731 0
M  V30 122 H 11.3457 3.8272 1.76362 0
M  V30 123 H 10.0697 2.60236 1.97344 0
M  V30 124 H 8.7287 3.6639 0.123922 0
M  V30 125 H 8.3767 4.36561 2.49847 0
M  V30 126 H 8.0767 5.71339 1.37281 0
M  V30 127 H 9.6007 5.65487 2.3034 0
M  V30 128 H 11.0147 5.7329 0.033305 0
M  V30 129 H 9.4117 5.95699 -0.725486 0
M  V30 130 H 10.4817 4.66917 -1.30828 0
M  V30 131 N 11.8248 0.280983 1.55075 0
M  V30 132 C 13.0718 -0.334115 1.99725 0
M  V30 133 C 13.3998 -1.5542 1.1694 0
M  V30 134 O 12.6548 -1.94361 0.228531 0
M  V30 135 C 12.9538 -0.754656 3.49342 0
M  V30 136 C 12.6198 0.361445 4.49449 0
M  V30 137 C 11.2818 0.667893 4.76542 0
M  V30 138 C 13.6338 1.11322 5.09173 0
M  V30 139 C 10.9618 1.7296 5.60626 0
M  V30 140 C 13.3138 2.1647 5.9441 0
M  V30 141 C 11.9778 2.47742 6.19822 0
M  V30 142 H 11.2478 -0.122261 0.730844 0
M  V30 143 H 13.8948 0.395917 1.87363 0
M  V30 144 H 12.1998 -1.56446 3.5921 0
M  V30 145 H 13.8968 -1.24142 3.813 0
M  V30 146 H 10.4868 0.112481 4.28452 0
M  V30 147 H 14.6708 0.88973 4.8826 0
M  V30 148 H 9.9268 1.97684 5.78559 0
M  V30 149 H 14.1008 2.75193 6.3972 0
M  V30 150 H 11.7278 3.30145 6.84769 0
M  V30 151 N 13.3029 -1.57598 0.00835791 0
M  V30 152 C 14.2129 -2.12385 -0.996487 0
M  V30 153 C 15.2289 -1.07108 -1.37127 0
M  V30 154 O 16.4049 -1.39055 -1.4569 0
M  V30 155 C 13.4699 -2.62314 -2.26699 0
M  V30 156 C 12.5309 -3.82225 -1.95456 0
M  V30 157 C 11.7639 -4.29763 -3.16449 0
M  V30 158 O 11.9869 -3.76584 -4.28416 0
M  V30 159 O 10.9209 -5.21832 -2.99958 0
M  V30 160 H 14.7469 -2.98479 -0.560725 0
M  V30 161 H 12.3319 -1.47903 -0.210987 0
M  V30 162 H 14.2139 -2.94589 -3.01322 0
M  V30 163 H 12.8889 -1.79313 -2.69497 0
M  V30 164 H 11.7959 -3.54909 -1.18282 0
M  V30 165 H 13.1289 -4.66324 -1.57489 0
M  V30 166 N 14.781 0.264519 -1.55364 0
M  V30 167 C 15.728 1.32717 -1.88825 0
M  V30 168 C 16.698 1.48675 -0.740605 0
M  V30 169 O 17.883 1.62945 -0.992657 0
M  V30 170 C 15.023 2.68089 -2.17307 0
M  V30 171 C 14.136 2.60284 -3.44785 0
M  V30 172 C 13.271 3.87892 -3.62924 0
M  V30 173 C 12.31 3.74631 -4.84064 0
M  V30 174 N 11.447 4.94092 -4.98816 0
M  V30 175 H 16.287 1.03481 -2.79456 0
M  V30 176 H 13.824 0.499757 -1.3835 0
M  V30 177 H 15.782 3.46864 -2.31821 0
M  V30 178 H 14.412 2.95509 -1.299 0
M  V30 179 H 13.464 1.73173 -3.38697 0
M  V30 180 H 14.776 2.46388 -4.33698 0
M  V30 181 H 13.93 4.75109 -3.77302 0
M  V30 182 H 12.669 4.04664 -2.7221 0
M  V30 183 H 11.674 2.85797 -4.69681 0
M  V30 184 H 12.899 3.5937 -5.76221 0
M  V30 185 H 10.845 5.11259 -4.11036 0
M  V30 186 H 10.762 4.8276 -5.81789 0
M  V30 187 H 12.03 5.82857 -5.17588 0
M  V30 188 N 16.2591 1.48442 0.529413 0
M  V30 189 C 17.5051 1.5672 1.28711 0
M  V30 190 C 17.8381 0.2406 1.92704 0
M  V30 191 O 17.1131 -0.753454 1.79313 0
M  V30 192 C 17.3961 2.70587 2.37603 0
M  V30 193 C 17.2491 4.12953 1.78297 0
M  V30 194 C 18.5681 2.80212 3.39366 0
M  V30 195 H 15.6871 0.570474 0.466613 0
M  V30 196 H 18.3291 1.80617 0.589706 0
M  V30 197 H 16.4791 2.50342 2.97088 0
M  V30 198 H 18.1511 4.44639 1.22858 0
M  V30 199 H 16.3941 4.19927 1.0883 0
M  V30 200 H 17.0651 4.88448 2.57144 0
M  V30 201 H 19.5411 2.98553 2.89836 0
M  V30 202 H 18.4171 3.61611 4.12951 0
M  V30 203 H 18.6781 1.88393 3.99951 0
M  V30 204 N 17.7372 -0.778329 1.37039 0
M  V30 205 C 18.9832 -1.53892 1.32079 0
M  V30 206 C 19.3162 -1.9396 -0.0965386 0
M  V30 207 O 18.5912 -1.63568 -1.05242 0
M  V30 208 C 18.8742 -2.80847 2.25382 0
M  V30 209 C 18.7272 -2.47076 3.75864 0
M  V30 210 C 20.0462 -3.82741 2.1725 0
M  V30 211 H 17.1652 -0.558303 0.48111 0
M  V30 212 H 19.8072 -0.893397 1.67685 0
M  V30 213 H 17.9572 -3.35931 1.95148 0
M  V30 214 H 19.6292 -1.97957 4.16666 0
M  V30 215 H 17.8722 -1.79863 3.94755 0
M  V30 216 H 18.5432 -3.37798 4.36574 0
M  V30 217 H 21.0192 -3.37133 2.43887 0
M  V30 218 H 19.8952 -4.69303 2.84686 0
M  V30 219 H 20.1562 -4.2652 1.16331 0
M  V30 220 N 19.2153 -1.21501 -1.00376 0
M  V30 221 C 20.1253 -0.991447 -2.12621 0
M  V30 222 C 21.1413 0.0568446 -1.73907 0
M  V30 223 O 22.3173 -0.13348 -2.00957 0
M  V30 224 C 19.3823 -0.560312 -3.42142 0
M  V30 225 C 18.4433 -1.68096 -3.95022 0
M  V30 226 C 17.6763 -1.2703 -5.18362 0
M  V30 227 O 17.8993 -0.144438 -5.70217 0
M  V30 228 O 16.8333 -2.08269 -5.64719 0
M  V30 229 H 20.6593 -1.93158 -2.34358 0
M  V30 230 H 18.2443 -0.999999 -1.10997 0
M  V30 231 H 20.1263 -0.329724 -4.20108 0
M  V30 232 H 18.8013 0.351089 -3.2179 0
M  V30 233 H 17.7083 -1.96597 -3.18278 0
M  V30 234 H 19.0413 -2.56983 -4.19786 0
M  V30 235 N 20.6934 1.19889 -1.02296 0
M  V30 236 C 21.9424 1.88743 -0.711257 0
M  V30 237 C 22.2554 1.80112 0.762817 0
M  V30 238 O 23.4614 2.44161 1.18733 0
M  V30 239 C 21.9174 3.38525 -1.22185 0
M  V30 240 C 21.5254 3.55727 -2.72328 0
M  V30 241 C 23.2694 4.12893 -0.985864 0
M  V30 242 C 21.1764 4.99369 -3.16835 0
M  V30 243 H 20.1064 0.706885 -0.262353 0
M  V30 244 H 22.7574 1.35586 -1.23648 0
M  V30 245 H 21.1394 3.91044 -0.624571 0
M  V30 246 H 22.3134 3.13564 -3.3766 0
M  V30 247 H 20.6284 2.94739 -2.9414 0
M  V30 248 H 23.2254 5.18813 -1.29374 0
M  V30 249 H 23.5684 4.16228 0.0775055 0
M  V30 250 H 24.1014 3.66494 -1.54684 0
M  V30 251 H 20.8404 5.01193 -4.22476 0
M  V30 252 H 20.3604 5.42317 -2.56228 0
M  V30 253 H 22.0394 5.67988 -3.09837 0
M  V30 254 N 22.1715 0.800033 1.35784 0
M  V30 255 C 23.1015 0.220184 2.3246 0
M  V30 256 C 24.0825 -0.65073 1.57161 0
M  V30 257 O 25.2675 -0.582359 1.85263 0
M  V30 258 C 22.3975 -0.637353 3.41402 0
M  V30 259 C 21.3515 0.134531 4.27789 0
M  V30 260 C 20.6775 -0.844285 5.27992 0
M  V30 261 C 21.9775 1.32979 5.05088 0
M  V30 262 H 23.6715 1.02787 2.81203 0
M  V30 263 H 21.2175 0.495717 1.35199 0
M  V30 264 H 23.1705 -1.05302 4.08031 0
M  V30 265 H 21.8945 -1.47785 2.91251 0
M  V30 266 H 20.5535 0.531296 3.6273 0
M  V30 267 H 20.2015 -1.68011 4.74111 0
M  V30 268 H 19.9015 -0.332184 5.8666 0
M  V30 269 H 21.4255 -1.2583 5.97494 0
M  V30 270 H 22.8395 0.98934 5.64699 0
M  V30 271 H 21.2365 1.77593 5.7322 0
M  V30 272 H 22.3065 2.11978 4.36111 0
M  V30 273 N 23.6496 -1.47581 0.552962 0
M  V30 274 C 24.5966 -2.29957 -0.197108 0
M  V30 275 C 25.5666 -1.38799 -0.912359 0
M  V30 276 O 26.7516 -1.67761 -0.908888 0
M  V30 277 C 23.8916 -3.22672 -1.22379 0
M  V30 278 C 23.0046 -4.28919 -0.515038 0
M  V30 279 C 22.1396 -5.0879 -1.52664 0
M  V30 280 C 21.1786 -6.06815 -0.802631 0
M  V30 281 N 20.3156 -6.7966 -1.76086 0
M  V30 282 H 25.1556 -2.93578 0.511486 0
M  V30 283 H 22.6926 -1.4471 0.264067 0
M  V30 284 H 24.6506 -3.74845 -1.83159 0
M  V30 285 H 23.2806 -2.60925 -1.90047 0
M  V30 286 H 22.3326 -3.79835 0.207192 0
M  V30 287 H 23.6446 -4.98773 0.0523425 0
M  V30 288 H 22.7986 -5.65091 -2.20809 0
M  V30 289 H 21.5376 -4.38828 -2.12794 0
M  V30 290 H 20.5426 -5.49695 -0.107238 0
M  V30 291 H 21.7676 -6.78784 -0.207135 0
M  V30 292 H 19.7136 -6.12432 -2.35081 0
M  V30 293 H 19.6306 -7.45669 -1.24552 0
M  V30 294 H 20.8986 -7.40538 -2.43359 0
M  V30 295 N 25.1277 -0.289203 -1.54924 0
M  V30 296 C 26.5387 0.205791 -1.85562 0
M  V30 297 C 26.8897 1.54351 -1.2112 0
M  V30 298 O 26.0147 2.10435 -0.504601 0
M  V30 299 C 26.6097 0.380177 -3.3666 0
M  V30 300 C 25.1687 0.819395 -3.67373 0
M  V30 301 C 24.3157 -0.079159 -2.77187 0
M  V30 302 H 27.2667 -0.510577 -1.50262 0
M  V30 303 H 27.2877 1.21659 -3.60526 0
M  V30 304 H 26.7997 -0.593589 -3.83534 0
M  V30 305 H 24.9007 1.80413 -3.26009 0
M  V30 306 H 25.0137 0.646957 -4.74712 0
M  V30 307 H 23.3777 0.439565 -2.50878 0
M  V30 308 H 24.1607 -1.04906 -3.26878 0
M  V30 309 N 26.6058 1.57591 -0.0167156 0
M  V30 310 C 27.8528 1.91283 0.664597 0
M  V30 311 C 28.1808 0.891949 1.72842 0
M  V30 312 O 27.4358 -0.100931 1.9544 0
M  V30 313 C 27.7348 3.3172 1.33029 0
M  V30 314 C 27.4008 4.4914 0.398047 0
M  V30 315 C 26.0628 4.80992 0.141421 0
M  V30 316 C 28.4148 5.20634 -0.242825 0
M  V30 317 C 25.7428 5.81703 -0.764092 0
M  V30 318 C 28.0948 6.22311 -1.13632 0
M  V30 319 C 26.7588 6.52611 -1.40196 0
M  V30 320 H 26.0288 0.699956 0.243193 0
M  V30 321 H 28.6758 1.9135 -0.0758267 0
M  V30 322 H 26.9808 3.27856 2.14517 0
M  V30 323 H 28.6778 3.55055 1.86379 0
M  V30 324 H 25.2678 4.24262 0.608238 0
M  V30 325 H 29.4518 4.96267 -0.0576019 0
M  V30 326 H 24.7078 6.03532 -0.977732 0
M  V30 327 H 28.8818 6.76834 -1.63917 0
M  V30 328 H 26.5088 7.30467 -2.10529 0
M  V30 329 N 28.0839 -0.256276 1.55502 0
M  V30 330 C 29.3609 -1.00789 1.67633 0
M  V30 331 C 29.7409 -2.03706 0.553826 0
M  V30 332 O 29.0889 -2.24145 -0.443969 0
M  V30 333 C 29.2989 -1.64968 3.07549 0
M  V30 334 C 30.6469 -2.15505 3.65845 0
M  V30 335 O 31.6709 -1.74925 3.1029 0
M  V30 336 O 30.5299 -2.89986 4.63217 0
M  V30 337 H 27.6239 -0.468553 0.681459 0
M  V30 338 H 30.1699 -0.250806 1.67836 0
M  V30 339 H 28.9419 -0.904785 3.80696 0
M  V30 340 H 28.5649 -2.47321 3.11317 0
M  V30 341 N 29.562 -1.4872 -0.521534 0
M  V30 342 C 30.492 -1.66771 -1.63431 0
M  V30 343 C 31.473 -0.516499 -1.62069 0
M  V30 344 O 32.658 -0.750013 -1.79132 0
M  V30 345 C 29.788 -1.71515 -3.01993 0
M  V30 346 C 28.742 -2.86222 -3.18216 0
M  V30 347 C 28.068 -2.76061 -4.57924 0
M  V30 348 C 29.368 -4.27419 -3.00184 0
M  V30 349 H 31.062 -2.59932 -1.48579 0
M  V30 350 H 28.608 -1.25089 -0.713358 0
M  V30 351 H 30.561 -1.82731 -3.7972 0
M  V30 352 H 29.285 -0.749393 -3.17886 0
M  V30 353 H 27.944 -2.74575 -2.42908 0
M  V30 354 H 27.592 -1.77437 -4.70665 0
M  V30 355 H 27.292 -3.53037 -4.69722 0
M  V30 356 H 28.816 -2.89256 -5.37739 0
M  V30 357 H 30.23 -4.39855 -3.67697 0
M  V30 358 H 28.627 -5.05458 -3.2347 0
M  V30 359 H 29.697 -4.43293 -1.96518 0
M  V30 360 N 31.0401 0.771051 -1.3745 0
M  V30 361 C 32.2651 1.56529 -1.36065 0
M  V30 362 C 32.6901 1.88029 0.0515859 0
M  V30 363 O 32.0481 1.49282 1.02882 0
M  V30 364 C 32.0961 2.85187 -2.20683 0
M  V30 365 O 31.2001 3.79593 -1.61193 0
M  V30 366 H 30.5411 0.47411 -0.464883 0
M  V30 367 H 33.0711 0.954269 -1.80983 0
M  V30 368 H 33.0811 3.34283 -2.33921 0
M  V30 369 H 31.7561 2.61588 -3.23334 0
M  V30 370 H 30.3331 3.38239 -1.56999 0
M  V30 371 N 32.5182 1.22032 0.997298 0
M  V30 372 C 33.7642 1.04376 1.73878 0
M  V30 373 C 34.0972 -0.420716 1.89588 0
M  V30 374 O 33.3722 -1.31202 1.43583 0
M  V30 375 C 33.6552 1.75047 3.14691 0
M  V30 376 C 33.5082 3.29062 3.06656 0
M  V30 377 C 34.8272 1.49928 4.13775 0
M  V30 378 H 31.9462 0.380578 0.631133 0
M  V30 379 H 34.5882 1.50312 1.16217 0
M  V30 380 H 32.7382 1.35996 3.63919 0
M  V30 381 H 34.4102 3.7753 2.65083 0
M  V30 382 H 32.6532 3.58967 2.43568 0
M  V30 383 H 33.3242 3.73683 4.06282 0
M  V30 384 H 35.8002 1.83842 3.73285 0
M  V30 385 H 34.6762 2.01878 5.10428 0
M  V30 386 H 34.9372 0.430929 4.39995 0
M  V30 387 N 33.9963 -1.19345 1.0293 0
M  V30 388 C 35.2423 -1.89318 0.727083 0
M  V30 389 C 35.5753 -1.79446 -0.742483 0
M  V30 390 O 34.8503 -1.1871 -1.54072 0
M  V30 391 C 35.1333 -3.40238 1.17942 0
M  V30 392 C 34.9863 -3.58979 2.71024 0
M  V30 393 C 36.3053 -4.33479 0.760548 0
M  V30 394 H 33.4243 -0.687475 0.265606 0
M  V30 395 H 36.0663 -1.40477 1.2793 0
M  V30 396 H 34.2163 -3.81964 0.709608 0
M  V30 397 H 35.8883 -3.26421 3.25955 0
M  V30 398 H 34.1313 -3.02018 3.11396 0
M  V30 399 H 34.8023 -4.64823 2.9773 0
M  V30 400 H 37.2783 -3.99469 1.16464 0
M  V30 401 H 36.1543 -5.37664 1.10493 0
M  V30 402 H 36.4153 -4.40813 -0.337063 0
M  V30 403 N 35.4744 -0.807222 -1.35358 0
M  V30 404 C 36.7514 -0.311126 -1.9311 0
M  V30 405 C 37.1314 1.19937 -1.73719 0
M  V30 406 O 36.4794 1.99918 -1.10657 0
M  V30 407 C 36.6894 -0.723226 -3.41424 0
M  V30 408 C 38.0374 -0.713078 -4.18569 0
M  V30 409 O 39.0614 -0.664811 -3.49941 0
M  V30 410 O 37.9204 -0.772022 -5.41019 0
M  V30 411 H 35.0144 -0.081526 -0.822972 0
M  V30 412 H 37.5604 -0.890962 -1.4443 0
M  V30 413 H 36.3324 -1.76426 -3.4927 0
M  V30 414 H 35.9554 -0.118232 -3.97424 0
M  V30 415 N 36.9525 1.47285 -0.560781 0
M  V30 416 C 38.1825 2.06555 -0.0429638 0
M  V30 417 C 38.5905 1.41339 1.25777 0
M  V30 418 O 37.9335 0.505182 1.76617 0
M  V30 419 C 37.9955 3.58827 0.219887 0
M  V30 420 C 37.6595 4.46105 -0.991944 0
M  V30 421 C 38.6565 4.84 -1.89843 0
M  V30 422 C 36.3415 4.87567 -1.20762 0
M  V30 423 C 38.3355 5.6216 -3.00425 0
M  V30 424 C 36.0225 5.65491 -2.31653 0
M  V30 425 C 37.0205 6.02699 -3.21315 0
M  V30 426 O 36.7085 6.79052 -4.30283 0
M  V30 427 H 36.4405 0.674537 -0.0444468 0
M  V30 428 H 38.9945 1.90225 -0.774818 0
M  V30 429 H 37.2245 3.73383 1.00609 0
M  V30 430 H 38.9135 4.00103 0.683522 0
M  V30 431 H 39.6795 4.52564 -1.74387 0
M  V30 432 H 35.5585 4.5807 -0.518893 0
M  V30 433 H 39.1025 5.9112 -3.70436 0
M  V30 434 H 34.9995 5.9634 -2.47081 0
M  V30 435 H 35.7675 6.9745 -4.28376 0
M  V30 436 N 38.4306 0.297415 1.54768 0
M  V30 437 C 39.3406 -0.58983 2.27064 0
M  V30 438 C 40.3566 -1.15144 1.30453 0
M  V30 439 O 41.5326 -1.17699 1.63428 0
M  V30 440 C 38.5976 -1.74714 2.9946 0
M  V30 441 C 37.6586 -1.21997 4.11601 0
M  V30 442 C 36.8916 -2.32212 4.80535 0
M  V30 443 O 37.1146 -3.52036 4.48806 0
M  V30 444 O 36.0486 -1.99106 5.68014 0
M  V30 445 H 39.8746 -0.00348199 3.037 0
M  V30 446 H 37.4596 0.0640035 1.49263 0
M  V30 447 H 39.3416 -2.42147 3.44881 0
M  V30 448 H 38.0166 -2.32016 2.25722 0
M  V30 449 H 36.9236 -0.511458 3.70587 0
M  V30 450 H 38.2566 -0.692419 4.87305 0
M  V30 451 N 39.9087 -1.5758 0.0250728 0
M  V30 452 C 40.8187 -2.1343 -0.973905 0
M  V30 453 C 41.8347 -1.08556 -1.35984 0
M  V30 454 O 43.0107 -1.40592 -1.44207 0
M  V30 455 C 40.0757 -2.64703 -2.23904 0
M  V30 456 C 39.1367 -3.84276 -1.91391 0
M  V30 457 C 38.3697 -4.33095 -3.11873 0
M  V30 458 O 38.5927 -3.81107 -4.24398 0
M  V30 459 O 37.5267 -5.24984 -2.94406 0
M  V30 460 H 41.3527 -2.99057 -0.529036 0
M  V30 461 H 38.9377 -1.48118 -0.195288 0
M  V30 462 H 40.8197 -2.97769 -2.98181 0
M  V30 463 H 39.4947 -1.82161 -2.6758 0
M  V30 464 H 38.4017 -3.56143 -1.14511 0
M  V30 465 H 39.7347 -4.67968 -1.52534 0
M  V30 466 N 41.3868 0.248026 -1.55636 0
M  V30 467 C 42.6358 0.974134 -1.76617 0
M  V30 468 C 42.9488 1.86528 -0.588796 0
M  V30 469 O 44.1548 2.62805 -0.681594 0
M  V30 470 C 42.6108 1.78213 -3.12679 0
M  V30 471 C 42.2188 0.93843 -4.38061 0
M  V30 472 C 43.9628 2.50104 -3.42999 0
M  V30 473 C 41.8698 1.74225 -5.65155 0
M  V30 474 H 40.7998 0.36745 -0.658405 0
M  V30 475 H 43.4508 0.22884 -1.82067 0
M  V30 476 H 41.8328 2.56933 -3.01333 0
M  V30 477 H 43.0068 0.193635 -4.60393 0
M  V30 478 H 41.3218 0.332905 -4.15067 0
M  V30 479 H 43.9188 3.10694 -4.3517 0
M  V30 480 H 44.2618 3.21662 -2.64271 0
M  V30 481 H 44.7948 1.78395 -3.55556 0
M  V30 482 H 41.5338 1.07043 -6.46701 0
M  V30 483 H 41.0538 2.46235 -5.46926 0
M  V30 484 H 42.7328 2.30967 -6.0437 0
M  V30 485 N 42.8649 1.48995 0.513639 0
M  V30 486 C 44.1049 1.59452 1.27885 0
M  V30 487 C 44.4689 0.269479 1.90099 0
M  V30 488 O 45.6699 0.249139 2.67643 0
M  V30 489 C 43.9409 2.71277 2.32688 0
M  V30 490 S 45.4999 3.01604 3.18717 0
M  V30 491 H 42.3179 0.562565 0.434789 0
M  V30 492 H 44.9199 1.86595 0.583301 0
M  V30 493 H 43.6239 3.66089 1.8549 0
M  V30 494 H 43.1549 2.46086 3.06929 0
M  V30 495 H 45.1699 2.42155 4.331 0
M  V30 496 N 44.343 -0.763751 1.37857 0
M  V30 497 C 45.62 -1.51244 1.24035 0
M  V30 498 C 46 -2.10472 -0.162649 0
M  V30 499 O 45.348 -1.96206 -1.17112 0
M  V30 500 C 45.558 -2.58694 2.34261 0
M  V30 501 C 46.906 -3.25878 2.72193 0
M  V30 502 O 47.93 -2.68993 2.33497 0
M  V30 503 O 46.789 -4.2874 3.38887 0
M  V30 504 H 43.883 -0.670243 0.484462 0
M  V30 505 H 46.429 -0.800031 1.49658 0
M  V30 506 H 45.201 -2.13105 3.2818 0
M  V30 507 H 44.824 -3.37527 2.10146 0
M  V30 508 N 45.8211 -1.22559 -0.990812 0
M  V30 509 C 47.2371 -0.985996 -1.255 0
M  V30 510 C 47.4371 0.319173 -1.98956 0
M  V30 511 O 46.4931 1.04127 -2.3003 0
M  V30 512 C 47.8061 -2.18607 -2.06474 0
M  V30 513 C 49.3541 -2.22985 -2.19651 0
M  V30 514 C 49.8291 -3.4255 -3.04012 0
M  V30 515 N 51.3201 -3.42725 -3.11599 0
M  V30 516 C 52.0551 -4.31892 -3.7717 0
M  V30 517 N 51.5511 -5.31279 -4.44651 0
M  V30 518 N 53.3441 -4.19662 -3.73952 0
M  V30 519 H 45.4951 -2.06469 -0.49841 0
M  V30 520 H 47.7581 -0.904853 -0.282747 0
M  V30 521 H 47.4641 -3.13267 -1.59865 0
M  V30 522 H 47.3381 -2.18838 -3.07229 0
M  V30 523 H 49.7251 -1.28871 -2.65474 0
M  V30 524 H 49.8061 -2.26791 -1.18319 0
M  V30 525 H 49.4501 -4.36965 -2.58889 0
M  V30 526 H 49.3801 -3.35984 -4.0549 0
M  V30 527 H 51.8711 -2.70807 -2.63575 0
M  V30 528 H 52.1841 -5.95593 -4.92431 0
M  V30 529 H 50.5291 -5.3519 -4.43392 0
M  V30 530 H 53.7201 -3.41268 -3.20396 0
M  V30 531 H 53.8931 -4.89358 -4.24774 0
M  V30 532 N 47.2992 1.18797 -1.03562 0
M  V30 533 C 48.2322 2.2105 -0.56676 0
M  V30 534 C 49.2102 1.57704 0.395993 0
M  V30 535 O 50.3942 1.85908 0.311498 0
M  V30 536 C 47.5212 3.38259 0.172704 0
M  V30 537 C 46.5672 4.19987 -0.74252 0
M  V30 538 S 47.4002 4.87199 -2.22254 0
M  V30 539 C 48.5562 6.07813 -1.49379 0
M  V30 540 H 48.7892 2.60478 -1.43312 0
M  V30 541 H 46.3222 1.29151 -0.846133 0
M  V30 542 H 48.2802 4.06191 0.593191 0
M  V30 543 H 46.9412 2.97252 1.01488 0
M  V30 544 H 46.1342 5.03709 -0.171265 0
M  V30 545 H 45.7362 3.57408 -1.10163 0
M  V30 546 H 48.0282 6.72948 -0.784056 0
M  V30 547 H 48.9712 6.69435 -2.30786 0
M  V30 548 H 49.3792 5.55781 -0.988331 0
M  V30 549 N 48.7773 0.814389 1.34928 0
M  V30 550 C 50.0253 0.397636 1.9815 0
M  V30 551 C 50.3463 -1.04069 1.64908 0
M  V30 552 O 49.6163 -1.72121 0.93548 0
M  V30 553 H 48.1963 0.144043 0.732981 0
M  V30 554 H 50.8583 1.04195 1.6471 0
M  V30 555 H 49.9543 0.509688 3.0791 0
M  V30 556 N 50.2554 -1.46986 0.568584 0
M  V30 557 C 51.1654 -2.33942 -0.17555 0
M  V30 558 C 52.1814 -1.48891 -0.90041 0
M  V30 559 O 53.3574 -1.81794 -0.86676 0
M  V30 560 C 50.4224 -3.25811 -1.18524 0
M  V30 561 C 49.4834 -4.26757 -0.466582 0
M  V30 562 C 48.7164 -5.14236 -1.42817 0
M  V30 563 O 48.9394 -5.04379 -2.66379 0
M  V30 564 O 47.8734 -5.94412 -0.946453 0
M  V30 565 H 51.6994 -2.98896 0.538036 0
M  V30 566 H 49.2844 -1.4573 0.329097 0
M  V30 567 H 51.1664 -3.82527 -1.76779 0
M  V30 568 H 49.8414 -2.63471 -1.88055 0
M  V30 569 H 48.7484 -3.73769 0.157451 0
M  V30 570 H 50.0814 -4.91843 0.187485 0
M  V30 571 N 51.7335 -0.305618 -1.54608 0
M  V30 572 C 52.9585 0.307562 -2.05107 0
M  V30 573 C 53.3835 1.46385 -1.18123 0
M  V30 574 O 52.7415 1.8034 -0.186324 0
M  V30 575 C 52.7895 0.73704 -3.52987 0
M  V30 576 O 51.8935 1.84134 -3.6901 0
M  V30 577 H 51.2345 0.0589143 -0.661381 0
M  V30 578 H 53.7645 -0.448807 -1.99617 0
M  V30 579 H 53.7745 1.02459 -3.94925 0
M  V30 580 H 52.4495 -0.108773 -4.15758 0
M  V30 581 H 51.0265 1.55398 -3.38978 0
M  V30 582 N 53.2116 1.57565 -0.0334293 0
M  V30 583 C 54.1446 2.05997 0.981866 0
M  V30 584 C 55.1226 0.956647 1.3148 0
M  V30 585 O 56.3066 1.22729 1.43073 0
M  V30 586 C 53.4336 2.48564 2.30074 0
M  V30 587 C 52.4796 3.69958 2.12211 0
M  V30 588 S 53.3126 5.16414 1.41692 0
M  V30 589 C 54.4686 5.6228 2.7494 0
M  V30 590 H 54.7016 2.91792 0.569612 0
M  V30 591 H 52.2346 1.53366 0.178376 0
M  V30 592 H 54.1926 2.73753 3.05892 0
M  V30 593 H 52.8536 1.63106 2.68431 0
M  V30 594 H 52.0466 3.97603 3.09722 0
M  V30 595 H 51.6486 3.44943 1.44535 0
M  V30 596 H 53.9406 5.66783 3.71165 0
M  V30 597 H 54.8836 6.61759 2.51953 0
M  V30 598 H 55.2916 4.89944 2.80384 0
M  V30 599 N 54.6897 -0.239769 1.55765 0
M  V30 600 C 56.1057 -0.588624 1.48349 0
M  V30 601 C 56.3057 -1.88005 0.72502 0
M  V30 602 O 55.3617 -2.51186 0.257269 0
M  V30 603 C 56.6747 -0.68474 2.928 0
M  V30 604 C 58.2227 -0.77659 3.03213 0
M  V30 605 C 58.6977 -0.904207 4.48986 0
M  V30 606 N 60.1887 -0.968896 4.52953 0
M  V30 607 C 60.9237 -1.08703 5.63002 0
M  V30 608 N 60.4197 -1.17026 6.82845 0
M  V30 609 N 62.2127 -1.12074 5.50814 0
M  V30 610 H 54.3637 0.607911 2.03515 0
M  V30 611 H 56.6267 0.21083 0.924259 0
M  V30 612 H 56.3327 0.194284 3.51163 0
M  V30 613 H 56.2067 -1.55435 3.43686 0
M  V30 614 H 58.5937 -1.64606 2.44926 0
M  V30 615 H 58.6747 0.118315 2.55526 0
M  V30 616 H 58.3187 -0.0392633 5.07885 0
M  V30 617 H 58.2487 -1.81426 4.9436 0
M  V30 618 H 60.7397 -0.915633 3.6664 0
M  V30 619 H 61.0527 -1.25966 7.62465 0
M  V30 620 H 59.3977 -1.13971 6.85591 0
M  V30 621 H 62.5887 -1.05226 4.5612 0
M  V30 622 H 62.7617 -1.20936 6.36615 0
M  V30 623 N 56.1678 -1.49265 -0.50573 0
M  V30 624 C 57.0978 -1.68495 -1.61653 0
M  V30 625 C 58.0788 -0.53366 -1.61512 0
M  V30 626 O 59.2638 -0.76897 -1.78327 0
M  V30 627 C 56.3938 -1.74709 -3.00157 0
M  V30 628 C 55.3478 -2.89581 -3.15162 0
M  V30 629 C 54.6738 -2.80903 -4.5497 0
M  V30 630 C 55.9738 -4.30578 -2.95634 0
M  V30 631 H 57.6678 -2.61493 -1.45814 0
M  V30 632 H 55.2138 -1.25838 -0.70005 0
M  V30 633 H 57.1668 -1.86748 -3.77761 0
M  V30 634 H 55.8908 -0.783067 -3.17074 0
M  V30 635 H 54.5498 -2.77136 -2.39982 0
M  V30 636 H 54.1978 -1.82419 -4.68756 0
M  V30 637 H 53.8978 -3.57999 -4.65951 0
M  V30 638 H 55.4218 -2.94944 -5.34641 0
M  V30 639 H 56.8358 -4.4373 -3.63011 0
M  V30 640 H 55.2328 -5.0886 -3.18091 0
M  V30 641 H 56.3028 -4.45352 -1.91806 0
M  V30 642 N 57.6459 0.756429 -1.3826 0
M  V30 643 C 58.8939 1.51248 -1.34047 0
M  V30 644 C 59.2149 1.94875 0.0698372 0
M  V30 645 O 58.4849 1.67436 1.01696 0
M  V30 646 H 57.0649 0.561018 -0.493222 0
M  V30 647 H 59.7269 0.899347 -1.7291 0
M  V30 648 H 58.8229 2.40472 -1.98947 0
M  V30 649 N 59.124 1.23083 0.984299 0
M  V30 650 C 60.054 1.03292 2.09411 0
M  V30 651 C 61.035 -0.048923 1.7003 0
M  V30 652 O 62.22 0.114967 1.93859 0
M  V30 653 C 59.35 0.619155 3.41736 0
M  V30 654 C 58.304 1.64791 3.95004 0
M  V30 655 C 57.63 1.0897 5.23478 0
M  V30 656 C 58.93 3.03999 4.24714 0
M  V30 657 H 60.624 1.96119 2.26225 0
M  V30 658 H 58.17 0.944344 1.08711 0
M  V30 659 H 60.123 0.467777 4.18796 0
M  V30 660 H 58.847 -0.344786 3.24775 0
M  V30 661 H 57.506 1.78721 3.20085 0
M  V30 662 H 57.154 0.11686 5.02864 0
M  V30 663 H 56.854 1.77704 5.60085 0
M  V30 664 H 58.378 0.950093 6.03163 0
M  V30 665 H 59.792 2.93393 4.92538 0
M  V30 666 H 58.189 3.69936 4.72512 0
M  V30 667 H 59.259 3.53285 3.32142 0
M  V30 668 N 60.6021 -1.18246 1.0419 0
M  V30 669 C 61.5341 -2.2142 0.592088 0
M  V30 670 C 62.5471 -1.59233 -0.338909 0
M  V30 671 O 63.7361 -1.78002 -0.133231 0
M  V30 672 C 60.8361 -3.38546 -0.154854 0
M  V30 673 C 60.0091 -4.3031 0.784328 0
M  V30 674 C 59.0681 -5.26138 0.0804583 0
M  V30 675 O 58.0941 -5.64738 0.711292 0
M  V30 676 N 59.2961 -5.68261 -1.18574 0
M  V30 677 H 62.0611 -2.60636 1.47949 0
M  V30 678 H 59.6221 -1.33044 0.922544 0
M  V30 679 H 61.6141 -3.99678 -0.635606 0
M  V30 680 H 60.1841 -2.98012 -0.943811 0
M  V30 681 H 59.4041 -3.66764 1.44491 0
M  V30 682 H 60.6921 -4.8852 1.42218 0
M  V30 683 H 60.0901 -5.38957 -1.71876 0
M  V30 684 H 58.6471 -6.31584 -1.61074 0
M  V30 685 N 62.0802 -0.821533 -1.34494 0
M  V30 686 C 63.0272 -0.240397 -2.29545 0
M  V30 687 C 63.9972 0.634031 -1.53523 0
M  V30 688 O 65.1822 0.575966 -1.81899 0
M  V30 689 C 62.3222 0.592869 -3.39969 0
M  V30 690 C 61.4352 -0.30365 -4.30932 0
M  V30 691 C 60.5702 0.539049 -5.28458 0
M  V30 692 C 59.6092 -0.356942 -6.11058 0
M  V30 693 N 58.7462 0.446603 -7.00678 0
M  V30 694 H 63.5862 -1.05632 -2.7865 0
M  V30 695 H 61.1232 -0.532413 -1.37127 0
M  V30 696 H 63.0812 1.09129 -4.02675 0
M  V30 697 H 61.7112 1.37392 -2.92102 0
M  V30 698 H 60.7632 -0.920276 -3.691 0
M  V30 699 H 62.0752 -0.992661 -4.88823 0
M  V30 700 H 61.2292 1.102 -5.96608 0
M  V30 701 H 59.9682 1.26157 -4.71101 0
M  V30 702 H 58.9732 -0.932047 -5.41842 0
M  V30 703 H 60.1982 -1.07755 -6.70497 0
M  V30 704 H 58.1442 1.15282 -6.45791 0
M  V30 705 H 58.0612 -0.184048 -7.55776 0
M  V30 706 H 59.3292 0.992352 -7.73158 0
M  V30 707 N 63.5583 1.46682 -0.576371 0
M  V30 708 C 64.7833 2.07304 -0.0630475 0
M  V30 709 C 65.2083 1.42329 1.2298 0
M  V30 710 O 64.5663 0.504865 1.74129 0
M  V30 711 C 64.6143 3.60472 0.095895 0
M  V30 712 O 63.7183 3.95927 1.15394 0
M  V30 713 H 63.0593 0.661288 -0.0599463 0
M  V30 714 H 65.5893 1.88417 -0.797511 0
M  V30 715 H 65.5993 4.06865 0.304071 0
M  V30 716 H 64.2743 4.07157 -0.84828 0
M  V30 717 H 62.8513 3.61252 0.924724 0
M  V30 718 N 65.0364 0.313813 1.54444 0
M  V30 719 C 66.2644 -0.293918 2.04802 0
M  V30 720 C 66.6794 -1.46537 1.19047 0
M  V30 721 O 66.0364 -1.81182 0.218939 0
M  V30 722 C 66.0874 -0.737806 3.53891 0
M  V30 723 O 65.8084 0.387038 4.36387 0
M  V30 724 C 67.3094 -1.40936 4.203 0
M  V30 725 H 64.5294 -0.0620057 0.668129 0
M  V30 726 H 67.0734 0.457169 1.99324 0
M  V30 727 H 65.2284 -1.43889 3.59687 0
M  V30 728 H 65.6424 0.0391274 5.24485 0
M  V30 729 H 67.1164 -1.67099 5.26101 0
M  V30 730 H 67.5934 -2.35355 3.70816 0
M  V30 731 H 68.1994 -0.751117 4.18615 0
M  V30 732 N 66.5145 -1.57545 0.0417849 0
M  V30 733 C 67.4625 -2.12148 -0.953723 0
M  V30 734 C 68.4565 -1.05104 -1.32852 0
M  V30 735 O 69.6625 -1.23524 -1.30927 0
M  V30 736 H 66.0375 -0.677957 -0.325389 0
M  V30 737 H 68.0085 -2.94707 -0.467991 0
M  V30 738 C 66.7575 -2.6739 -2.22257 0
M  V30 739 H 66.0805 -3.49413 -1.94295 0
M  V30 740 H 67.5205 -3.09227 -2.90094 0
M  V30 741 C 65.9795 -1.60723 -2.96091 0
M  V30 742 O 66.5095 -1.01449 -3.88679 0
M  V30 743 N 64.7155 -1.32466 -2.58652 0
M  V30 744 H 64.2625 -1.80856 -1.83437 0
M  V30 745 H 64.2205 -0.61325 -3.08361 0
M  V30 746 N 67.9926 0.231505 -1.5589 0
M  V30 747 C 68.9026 1.308 -1.94752 0
M  V30 748 C 69.9186 1.51826 -0.849989 0
M  V30 749 O 71.0946 1.6515 -1.15271 0
M  V30 750 C 68.1596 2.63968 -2.24771 0
M  V30 751 C 67.2206 2.51331 -3.48039 0
M  V30 752 C 66.4536 3.78148 -3.76616 0
M  V30 753 O 66.6766 4.80722 -3.07022 0
M  V30 754 O 65.6106 3.75857 -4.70123 0
M  V30 755 H 69.4366 1.0083 -2.86474 0
M  V30 756 H 67.0216 0.433547 -1.42971 0
M  V30 757 H 68.9036 3.42633 -2.45318 0
M  V30 758 H 67.5786 2.9364 -1.36225 0
M  V30 759 H 66.4856 1.709 -3.32782 0
M  V30 760 H 67.8186 2.26601 -4.36936 0
M  V30 761 N 69.4707 1.49531 0.497807 0
M  V30 762 C 70.4177 1.66436 1.59899 0
M  V30 763 C 71.3877 0.505793 1.58212 0
M  V30 764 O 72.5727 0.733202 1.7615 0
M  V30 765 C 69.7127 1.7399 2.98029 0
M  V30 766 C 68.8257 3.01172 3.09708 0
M  V30 767 C 67.9607 2.99686 4.38591 0
M  V30 768 C 66.9997 4.21434 4.43914 0
M  V30 769 N 66.1367 4.1784 5.64229 0
M  V30 770 H 70.9767 2.60459 1.44793 0
M  V30 771 H 68.5137 1.29137 0.704423 0
M  V30 772 H 70.4717 1.76352 3.78095 0
M  V30 773 H 69.1017 0.834301 3.11832 0
M  V30 774 H 68.1537 3.08408 2.22685 0
M  V30 775 H 69.4657 3.91165 3.09502 0
M  V30 776 H 68.6197 3.00628 5.2698 0
M  V30 777 H 67.3587 2.07477 4.41367 0
M  V30 778 H 66.3637 4.20733 3.53926 0
M  V30 779 H 67.5887 5.14839 4.42851 0
M  V30 780 H 65.5347 3.28469 5.67841 0
M  V30 781 H 65.4517 5.01571 5.65652 0
M  V30 782 H 66.7197 4.22889 6.54817 0
M  V30 783 N 70.9488 -0.749086 1.3866 0
M  V30 784 C 72.1738 -1.54344 1.38538 0
M  V30 785 C 72.5988 -1.88088 -0.0216655 0
M  V30 786 O 71.9568 -1.50899 -1.00494 0
M  V30 787 C 72.0048 -2.8164 2.25192 0
M  V30 788 O 71.1088 -3.7698 1.67212 0
M  V30 789 H 70.4498 -0.466654 0.472367 0
M  V30 790 H 72.9798 -0.925355 1.82478 0
M  V30 791 H 72.9898 -3.30519 2.3921 0
M  V30 792 H 71.6648 -2.56411 3.27454 0
M  V30 793 H 70.2418 -3.35699 1.6236 0
M  V30 794 N 72.4269 -1.23603 -0.977757 0
M  V30 795 C 73.6519 -1.09735 -1.75991 0
M  V30 796 C 74.0769 0.346858 -1.84874 0
M  V30 797 O 73.4349 1.25093 -1.3123 0
M  V30 798 C 73.4829 -1.73051 -3.16363 0
M  V30 799 O 72.5869 -0.994452 -4.0023 0
M  V30 800 H 71.9279 -0.384476 -0.541364 0
M  V30 801 H 74.4579 -1.6371 -1.2272 0
M  V30 802 H 74.4679 -1.78398 -3.66931 0
M  V30 803 H 73.1429 -2.78137 -3.09213 0
M  V30 804 H 71.7199 -1.01812 -3.58732 0
M  V30 805 N 73.905 1.17692 -1.04816 0
M  V30 806 C 75.154 1.87192 -0.751132 0
M  V30 807 C 75.467 1.8169 0.724441 0
M  V30 808 O 76.673 2.46625 1.13527 0
M  V30 809 C 75.129 3.35857 -1.29338 0
M  V30 810 C 74.737 3.4987 -2.79812 0
M  V30 811 C 76.481 4.10709 -1.07322 0
M  V30 812 C 74.388 4.92536 -3.27356 0
M  V30 813 H 73.318 0.701162 -0.277288 0
M  V30 814 H 75.969 1.32932 -1.26496 0
M  V30 815 H 74.351 3.89631 -0.707376 0
M  V30 816 H 75.525 3.06332 -3.44235 0
M  V30 817 H 73.84 2.88433 -3.00325 0
M  V30 818 H 76.437 5.15952 -1.4035 0
M  V30 819 H 76.78 4.16299 -0.0108001 0
M  V30 820 H 77.313 3.6313 -1.62423 0
M  V30 821 H 74.052 4.92119 -4.33012 0
M  V30 822 H 73.572 5.3676 -2.67673 0
M  V30 823 H 75.251 5.61288 -3.21815 0
M  V30 824 N 75.3831 0.828654 1.34056 0
M  V30 825 C 76.3301 0.252567 2.29414 0
M  V30 826 C 77.3001 -0.62588 1.53857 0
M  V30 827 O 78.4851 -0.566312 1.82202 0
M  V30 828 C 75.6251 -0.574831 3.40279 0
M  V30 829 C 74.7381 0.326499 4.30764 0
M  V30 830 C 73.8731 -0.511016 5.28736 0
M  V30 831 C 72.9121 0.389342 6.1086 0
M  V30 832 N 72.0491 -0.409439 7.00905 0
M  V30 833 H 76.8891 1.07108 2.78086 0
M  V30 834 H 74.4261 0.539677 1.36843 0
M  V30 835 H 76.3841 -1.06992 4.03248 0
M  V30 836 H 75.0141 -1.35841 2.92826 0
M  V30 837 H 74.0661 0.939837 3.68607 0
M  V30 838 H 75.3781 1.01857 4.88289 0
M  V30 839 H 74.5321 -1.07035 5.97184 0
M  V30 840 H 73.2711 -1.23657 4.71763 0
M  V30 841 H 72.2761 0.960769 5.4134 0
M  V30 842 H 73.5011 1.1131 6.69916 0
M  V30 843 H 71.4471 -1.11856 6.46393 0
M  V30 844 H 71.3641 0.224126 7.55668 0
M  V30 845 H 72.6321 -0.951336 7.73673 0
M  V30 846 N 76.8612 -1.46375 0.584142 0
M  V30 847 C 77.7942 -2.27351 -0.196676 0
M  V30 848 C 78.7722 -1.35715 -0.895561 0
M  V30 849 O 79.9562 -1.65126 -0.90916 0
M  V30 850 C 77.0832 -3.13486 -1.28235 0
M  V30 851 C 76.1292 -4.20896 -0.689145 0
M  V30 852 S 76.9622 -5.33299 0.48507 0
M  V30 853 C 78.1182 -6.23 -0.601767 0
M  V30 854 H 78.3512 -2.93228 0.490395 0
M  V30 855 H 75.8842 -1.49875 0.371071 0
M  V30 856 H 77.8422 -3.63676 -1.90395 0
M  V30 857 H 76.5032 -2.4692 -1.94138 0
M  V30 858 H 75.6962 -4.80997 -1.50527 0
M  V30 859 H 75.2982 -3.73726 -0.143181 0
M  V30 860 H 77.5902 -6.60979 -1.48705 0
M  V30 861 H 78.5332 -7.0809 -0.0374799 0
M  V30 862 H 78.9412 -5.57173 -0.906557 0
M  V30 863 N 78.3393 -0.321999 -1.54275 0
M  V30 864 C 79.5863 0.281044 -2.0054 0
M  V30 865 C 79.9143 1.52265 -1.21019 0
M  V30 866 O 79.1693 1.93687 -0.279982 0
M  V30 867 C 79.4683 0.661769 -3.5122 0
M  V30 868 C 79.1343 -0.480482 -4.48333 0
M  V30 869 C 77.7963 -0.794005 -4.74604 0
M  V30 870 C 80.1483 -1.24783 -5.06042 0
M  V30 871 C 77.4763 -1.87763 -5.55844 0
M  V30 872 C 79.8283 -2.32153 -5.88462 0
M  V30 873 C 78.4923 -2.64089 -6.13036 0
M  V30 874 H 77.7623 0.102841 -0.733829 0
M  V30 875 H 80.4093 -0.445453 -1.86247 0
M  V30 876 H 78.7143 1.46867 -3.63232 0
M  V30 877 H 80.4113 1.13989 -3.84457 0
M  V30 878 H 77.0013 -0.226039 -4.28004 0
M  V30 879 H 81.1853 -1.01887 -4.85729 0
M  V30 880 H 76.4413 -2.12954 -5.73115 0
M  V30 881 H 80.6153 -2.92057 -6.32199 0
M  V30 882 H 78.2423 -3.48185 -6.75775 0
M  V30 883 N 79.8174 1.5752 -0.0501392 0
M  V30 884 C 81.2284 1.80271 0.485705 0
M  V30 885 C 81.5794 0.96228 1.70981 0
M  V30 886 O 80.7044 0.178578 2.15662 0
M  V30 887 C 81.2994 3.26957 0.887938 0
M  V30 888 C 79.8584 3.5063 1.36877 0
M  V30 889 C 79.0054 2.75165 0.343468 0
M  V30 890 H 81.9564 1.56281 -0.276028 0
M  V30 891 H 81.9774 3.37821 1.75093 0
M  V30 892 H 81.4894 3.881 -0.0031809 0
M  V30 893 H 79.5904 2.94766 2.27911 0
M  V30 894 H 79.7034 4.59343 1.36164 0
M  V30 895 H 78.0674 2.4127 0.816128 0
M  V30 896 H 78.8504 3.39034 -0.539548 0
M  V30 897 N 81.2955 -0.223234 1.56011 0
M  V30 898 C 82.5205 -0.968978 1.83373 0
M  V30 899 C 82.9455 -1.77227 0.630254 0
M  V30 900 O 82.3035 -1.76345 -0.420959 0
M  V30 901 C 82.3515 -1.86363 3.08709 0
M  V30 902 O 81.4555 -2.95873 2.87285 0
M  V30 903 H 80.7965 -0.274461 0.604622 0
M  V30 904 H 83.3265 -0.237056 2.03222 0
M  V30 905 H 83.3365 -2.27376 3.38768 0
M  V30 906 H 82.0115 -1.27319 3.95933 0
M  V30 907 H 80.5885 -2.58818 2.68454 0
M  V30 908 N 82.7736 -1.49793 -0.48987 0
M  V30 909 C 84.0036 -1.6333 -1.26518 0
M  V30 910 C 84.4116 -0.308392 -1.8667 0
M  V30 911 O 83.7546 0.717512 -1.69108 0
M  V30 912 C 83.8166 -2.6522 -2.4269 0
M  V30 913 C 83.4806 -4.09279 -2.03321 0
M  V30 914 C 84.4776 -4.95738 -1.56652 0
M  V30 915 C 82.1626 -4.55082 -2.12616 0
M  V30 916 C 84.1566 -6.26041 -1.19795 0
M  V30 917 C 81.8436 -5.85396 -1.75371 0
M  V30 918 C 82.8416 -6.707 -1.29036 0
M  V30 919 O 82.5296 -7.98584 -0.92299 0
M  V30 920 H 82.2616 -0.552502 -0.389509 0
M  V30 921 H 84.8156 -1.96642 -0.593381 0
M  V30 922 H 83.0456 -2.27112 -3.12981 0
M  V30 923 H 84.7346 -2.68171 -3.04695 0
M  V30 924 H 85.5006 -4.61575 -1.48908 0
M  V30 925 H 81.3796 -3.88844 -2.47631 0
M  V30 926 H 84.9236 -6.92578 -0.835582 0
M  V30 927 H 80.8206 -6.19085 -1.82768 0
M  V30 928 H 81.5886 -8.11692 -1.05349 0
M  V30 929 N 84.2517 0.741722 -1.39055 0
M  V30 930 C 85.4977 1.50336 -1.36113 0
M  V30 931 C 85.8307 1.94148 0.0450796 0
M  V30 932 O 85.1057 1.66301 1.00868 0
M  V30 933 C 85.3887 2.74773 -2.32749 0
M  V30 934 C 85.2417 2.37023 -3.82283 0
M  V30 935 C 86.5607 3.76846 -2.27322 0
M  V30 936 H 83.6797 0.545351 -0.495743 0
M  V30 937 H 86.3217 0.848624 -1.69995 0
M  V30 938 H 84.4717 3.30639 -2.03986 0
M  V30 939 H 86.1437 1.8684 -4.21768 0
M  V30 940 H 84.3867 1.69334 -3.99385 0
M  V30 941 H 85.0577 3.26104 -4.45376 0
M  V30 942 H 87.5337 3.30548 -2.5274 0
M  V30 943 H 86.4097 4.6159 -2.97028 0
M  V30 944 H 86.6707 4.23286 -1.27599 0
M  V30 945 N 85.7298 1.2412 0.971189 0
M  V30 946 C 86.9578 1.10575 1.74874 0
M  V30 947 C 87.3728 -0.342017 1.85676 0
M  V30 948 O 86.7298 -1.23617 1.34258 0
M  V30 949 C 86.7808 1.73579 3.171 0
M  V30 950 O 86.5018 3.12695 3.06844 0
M  V30 951 C 88.0028 1.65598 4.11208 0
M  V30 952 H 85.2228 0.386504 0.548503 0
M  V30 953 H 87.7668 1.64156 1.21955 0
M  V30 954 H 85.9218 1.24009 3.67016 0
M  V30 955 H 86.3358 3.43412 3.96445 0
M  V30 956 H 87.8098 2.1437 5.08674 0
M  V30 957 H 88.2868 0.616532 4.34851 0
M  V30 958 H 88.8928 2.14578 3.67201 0
M  V30 959 N 87.2079 -1.17134 1.05439 0
M  V30 960 C 88.1549 -2.21235 0.657539 0
M  V30 961 C 89.1249 -1.62551 -0.341543 0
M  V30 962 O 90.3099 -1.89379 -0.232393 0
M  V30 963 C 87.4499 -3.45076 0.0410575 0
M  V30 964 C 86.5629 -4.18042 1.08927 0
M  V30 965 C 85.6979 -5.29376 0.439848 0
M  V30 966 C 84.7369 -5.94132 1.4722 0
M  V30 967 N 83.8739 -6.96975 0.846756 0
M  V30 968 H 88.7139 -2.54534 1.54972 0
M  V30 969 H 86.2509 -1.25028 0.775006 0
M  V30 970 H 88.2089 -4.15862 -0.33383 0
M  V30 971 H 86.8389 -3.12353 -0.814568 0
M  V30 972 H 85.8909 -3.45945 1.58196 0
M  V30 973 H 87.2029 -4.62306 1.87282 0
M  V30 974 H 86.3569 -6.06699 0.0115125 0
M  V30 975 H 85.0959 -4.86251 -0.375656 0
M  V30 976 H 84.1009 -5.15538 1.91052 0
M  V30 977 H 85.3259 -6.39337 2.28965 0
M  V30 978 H 83.2719 -6.5598 0.0518075 0
M  V30 979 H 83.1889 -7.39565 1.5678 0
M  V30 980 H 84.4569 -7.78239 0.443277 0
M  V30 981 N 88.686 -0.835752 -1.33615 0
M  V30 982 C 89.914 -0.443344 -2.02094 0
M  V30 983 C 90.329 0.954522 -1.62894 0
M  V30 984 O 89.686 1.61982 -0.840723 0
M  V30 985 C 89.737 -0.550775 -3.5728 0
M  V30 986 O 89.458 -1.89356 -3.95065 0
M  V30 987 C 90.959 -0.154919 -4.43029 0
M  V30 988 H 88.179 -0.176359 -0.647409 0
M  V30 989 H 90.723 -1.12746 -1.70612 0
M  V30 990 H 88.878 0.0853997 -3.87306 0
M  V30 991 H 89.292 -1.87687 -4.89769 0
M  V30 992 H 90.766 -0.281144 -5.51284 0
M  V30 993 H 91.243 0.902863 -4.2982 0
M  V30 994 H 91.849 -0.765404 -4.18356 0
M  V30 995 N 90.1641 1.46063 -0.591896 0
M  V30 996 C 91.5751 1.85944 -0.167822 0
M  V30 997 C 91.9261 1.49429 1.27143 0
M  V30 998 O 91.0511 0.913515 1.96173 0
M  V30 999 C 91.6461 3.37489 -0.297794 0
M  V30 1000 C 90.2051 3.76332 0.0714732 0
M  V30 1001 C 89.3521 2.7006 -0.629509 0
M  V30 1002 H 92.3031 1.37087 -0.799555 0
M  V30 1003 H 92.3241 3.77532 0.474349 0
M  V30 1004 H 91.8361 3.64034 -1.3454 0
M  V30 1005 H 89.9371 3.55405 1.11886 0
M  V30 1006 H 90.0501 4.78088 -0.311245 0
M  V30 1007 H 88.4141 2.54607 -0.0687867 0
M  V30 1008 H 89.1971 2.99444 -1.67894 0
M  V30 1009 N 91.6422 0.330177 1.54103 0
M  V30 1010 C 92.5902 -0.548226 2.26047 0
M  V30 1011 C 93.5842 -1.11309 1.27698 0
M  V30 1012 O 94.7902 -1.06036 1.45452 0
M  V30 1013 H 91.1652 -0.195456 0.726155 0
M  V30 1014 H 93.1362 0.0807567 2.98291 0
M  V30 1015 C 91.8852 -1.69415 3.03634 0
M  V30 1016 H 91.2082 -1.26876 3.79134 0
M  V30 1017 H 92.6482 -2.28423 3.5721 0
M  V30 1018 C 91.1072 -2.61569 2.12328 0
M  V30 1019 O 91.6372 -3.63462 1.7105 0
M  V30 1020 N 89.8432 -2.29952 1.77681 0
M  V30 1021 H 89.3902 -1.47134 2.11446 0
M  V30 1022 H 89.3482 -2.91871 1.16869 0
M  V30 1023 N 93.1203 -1.57491 0.0584922 0
M  V30 1024 C 94.3683 -1.92597 -0.612436 0
M  V30 1025 C 94.6893 -0.938162 -1.70949 0
M  V30 1026 O 93.9593 0.0158301 -1.95894 0
M  V30 1027 H 92.5393 -0.710964 -0.229214 0
M  V30 1028 H 95.2013 -1.94571 0.113218 0
M  V30 1029 H 94.2973 -2.94038 -1.04633 0
M  V30 1030 N 94.5984 0.214957 -1.56127 0
M  V30 1031 C 95.8264 0.955092 -1.83536 0
M  V30 1032 C 96.2414 1.77677 -0.638472 0
M  V30 1033 O 95.5984 1.78219 0.392968 0
M  V30 1034 C 95.6494 1.86734 -3.09536 0
M  V30 1035 O 95.3704 1.07887 -4.24608 0
M  V30 1036 C 96.8714 2.72082 -3.4998 0
M  V30 1037 H 94.0914 0.279611 -0.609966 0
M  V30 1038 H 96.6354 0.228197 -2.03223 0
M  V30 1039 H 94.7904 2.5481 -2.91806 0
M  V30 1040 H 95.2044 1.69872 -4.9623 0
M  V30 1041 H 96.6784 3.31782 -4.41163 0
M  V30 1042 H 97.1554 3.44806 -2.7204 0
M  V30 1043 H 97.7614 2.09409 -3.70173 0
M  V30 1044 N 96.0765 1.50051 0.48192 0
M  V30 1045 C 96.9865 1.7089 1.60728 0
M  V30 1046 C 98.0025 0.591788 1.63627 0
M  V30 1047 O 99.1785 0.868817 1.81696 0
M  V30 1048 C 96.2435 1.78855 2.97005 0
M  V30 1049 C 95.3045 3.02537 3.04581 0
M  V30 1050 C 94.5375 3.10112 4.34357 0
M  V30 1051 O 94.7605 2.24765 5.24249 0
M  V30 1052 O 93.6945 4.02747 4.47301 0
M  V30 1053 H 97.5205 2.66264 1.46072 0
M  V30 1054 H 95.1055 1.34018 0.660264 0
M  V30 1055 H 96.9875 1.86336 3.77964 0
M  V30 1056 H 95.6625 0.866628 3.11883 0
M  V30 1057 H 94.5695 3.00563 2.22739 0
M  V30 1058 H 95.9025 3.94272 2.94636 0
M  V30 1059 N 97.5546 -0.734337 1.39446 0
M  V30 1060 C 98.7826 -1.52358 1.39981 0
M  V30 1061 C 99.1976 -1.88799 -0.0054975 0
M  V30 1062 O 98.5546 -1.54146 -0.976998 0
M  V30 1063 C 98.6056 -2.81072 2.27333 0
M  V30 1064 O 98.3266 -2.46178 3.62392 0
M  V30 1065 C 99.8276 -3.75096 2.36259 0
M  V30 1066 H 97.0476 -0.470806 0.478103 0
M  V30 1067 H 99.5916 -0.907339 1.83269 0
M  V30 1068 H 97.7466 -3.39026 1.87457 0
M  V30 1069 H 98.1606 -3.28866 4.08592 0
M  V30 1070 H 99.6346 -4.62305 3.01626 0
M  V30 1071 H 100.112 -4.16892 1.38194 0
M  V30 1072 H 100.718 -3.23061 2.76608 0
M  V30 1073 N 99.0327 -1.24633 -0.964593 0
M  V30 1074 C 100.281 -1.08573 -1.70459 0
M  V30 1075 C 100.602 0.375655 -1.91347 0
M  V30 1076 O 99.8717 1.26779 -1.49345 0
M  V30 1077 H 98.4517 -0.398784 -0.631649 0
M  V30 1078 H 101.114 -1.56601 -1.16026 0
M  V30 1079 H 100.21 -1.58623 -2.68785 0
M  V30 1080 N 100.511 1.16574 -1.06058 0
M  V30 1081 C 101.459 2.22941 -0.663343 0
M  V30 1082 C 102.453 1.66358 0.319593 0
M  V30 1083 O 103.659 1.7905 0.184713 0
M  V30 1084 H 100.034 0.725907 -0.196376 0
M  V30 1085 H 102.005 2.53736 -1.57037 0
M  V30 1086 C 100.754 3.47642 -0.0632808 0
M  V30 1087 H 100.077 3.91493 -0.810733 0
M  V30 1088 H 101.517 4.2363 0.177177 0
M  V30 1089 C 99.9758 3.1509 1.19248 0
M  V30 1090 O 100.506 3.30673 2.28075 0
M  V30 1091 N 98.7118 2.6924 1.09353 0
M  V30 1092 H 98.2588 2.5676 0.207912 0
M  V30 1093 H 98.2168 2.47833 1.93458 0
M  V30 1094 N 101.989 0.842826 1.3317 0
M  V30 1095 C 103.236 0.440447 1.97652 0
M  V30 1096 C 103.564 -1.00123 1.6675 0
M  V30 1097 O 102.819 -1.7155 0.941761 0
M  V30 1098 C 103.118 0.612607 3.52111 0
M  V30 1099 C 102.784 2.02297 4.02972 0
M  V30 1100 C 101.446 2.40874 4.16573 0
M  V30 1101 C 103.798 2.94402 4.30089 0
M  V30 1102 C 101.126 3.70852 4.54627 0
M  V30 1103 C 103.478 4.23865 4.69597 0
M  V30 1104 C 102.142 4.62392 4.81404 0
M  V30 1105 H 101.412 0.161171 0.72326 0
M  V30 1106 H 104.059 1.07061 1.58777 0
M  V30 1107 H 102.364 -0.100849 3.9167 0
M  V30 1108 H 104.061 0.2815 4.00011 0
M  V30 1109 H 100.651 1.71338 3.92863 0
M  V30 1110 H 104.835 2.65835 4.19101 0
M  V30 1111 H 100.091 4.00501 4.61962 0
M  V30 1112 H 104.265 4.95306 4.89536 0
M  V30 1113 H 101.892 5.63154 5.10648 0
M  V30 1114 N 103.467 -1.45747 0.599634 0
M  V30 1115 C 104.397 -2.33235 -0.111306 0
M  V30 1116 C 105.378 -1.46359 -0.866781 0
M  V30 1117 O 106.563 -1.75146 -0.838904 0
M  V30 1118 C 103.693 -3.28932 -1.11451 0
M  V30 1119 C 102.647 -4.25381 -0.472772 0
M  V30 1120 C 101.973 -5.1071 -1.58365 0
M  V30 1121 C 103.273 -5.18831 0.600948 0
M  V30 1122 H 104.967 -2.92927 0.61919 0
M  V30 1123 H 102.513 -1.40857 0.299215 0
M  V30 1124 H 104.466 -3.89002 -1.62036 0
M  V30 1125 H 103.19 -2.67381 -1.8755 0
M  V30 1126 H 101.849 -3.66598 0.0121472 0
M  V30 1127 H 101.497 -4.45533 -2.33473 0
M  V30 1128 H 101.197 -5.7604 -1.15982 0
M  V30 1129 H 102.721 -5.73647 -2.09194 0
M  V30 1130 H 104.135 -5.73019 0.179491 0
M  V30 1131 H 102.532 -5.92595 0.946076 0
M  V30 1132 H 103.602 -4.6174 1.48068 0
M  V30 1133 N 104.945 -0.338344 -1.53925 0
M  V30 1134 C 105.908 0.508299 -2.23493 0
M  V30 1135 C 106.908 1.03175 -1.23335 0
M  V30 1136 O 108.098 0.921826 -1.47811 0
M  V30 1137 C 105.23 1.70754 -2.95052 0
M  V30 1138 H 106.423 -0.100058 -2.99733 0
M  V30 1139 H 103.976 -0.0896198 -1.56043 0
M  V30 1140 H 104.711 2.35474 -2.22986 0
M  V30 1141 H 104.496 1.33946 -3.68512 0
M  V30 1142 H 105.986 2.30818 -3.48013 0
M  V30 1143 N 106.423 1.57458 -0.0668435 0
M  V30 1144 C 107.353 2.15468 0.899764 0
M  V30 1145 C 108.334 1.08042 1.31381 0
M  V30 1146 O 109.519 1.36054 1.38574 0
M  V30 1147 C 106.649 2.71232 2.16911 0
M  V30 1148 C 105.603 3.83781 1.89463 0
M  V30 1149 C 104.929 4.26127 3.22986 0
M  V30 1150 C 106.229 5.08238 1.20381 0
M  V30 1151 H 107.923 2.96488 0.416529 0
M  V30 1152 H 105.469 1.4262 0.198908 0
M  V30 1153 H 107.422 3.10458 2.84945 0
M  V30 1154 H 106.146 1.87426 2.67468 0
M  V30 1155 H 104.805 3.45051 1.23836 0
M  V30 1156 H 104.453 3.39249 3.71374 0
M  V30 1157 H 104.153 5.01993 3.05413 0
M  V30 1158 H 105.677 4.67966 3.92225 0
M  V30 1159 H 107.091 5.44811 1.78475 0
M  V30 1160 H 105.488 5.89349 1.13083 0
M  V30 1161 H 106.558 4.84558 0.182153 0
M  V30 1162 N 107.901 -0.206675 1.56239 0
M  V30 1163 C 109.178 -0.954051 1.70755 0
M  V30 1164 C 109.558 -2.01841 0.618353 0
M  V30 1165 O 108.906 -2.25444 -0.372434 0
M  V30 1166 C 109.116 -1.551 3.12642 0
M  V30 1167 C 110.464 -2.03757 3.72516 0
M  V30 1168 O 111.488 -1.64965 3.15698 0
M  V30 1169 O 110.347 -2.75103 4.72208 0
M  V30 1170 H 107.441 -0.446636 0.696021 0
M  V30 1171 H 109.987 -0.197283 1.68549 0
M  V30 1172 H 108.759 -0.783212 3.83382 0
M  V30 1173 H 108.382 -2.37291 3.19028 0
M  V30 1174 N 109.379 -1.50304 -0.473955 0
M  V30 1175 C 110.309 -1.71886 -1.58042 0
M  V30 1176 C 111.29 -0.567799 -1.60344 0
M  V30 1177 O 112.475 -0.806623 -1.76656 0
M  V30 1178 C 109.605 -1.81036 -2.96384 0
M  V30 1179 C 108.559 -2.962 -3.08949 0
M  V30 1180 C 107.885 -2.9049 -4.48909 0
M  V30 1181 C 109.185 -4.36752 -2.86434 0
M  V30 1182 H 110.879 -2.64527 -1.40234 0
M  V30 1183 H 108.425 -1.27295 -0.673201 0
M  V30 1184 H 110.378 -1.94719 -3.73714 0
M  V30 1185 H 109.102 -0.850147 -3.15341 0
M  V30 1186 H 107.761 -2.82164 -2.3405 0
M  V30 1187 H 107.409 -1.92321 -4.64781 0
M  V30 1188 H 107.109 -3.67802 -4.58253 0
M  V30 1189 H 108.633 -3.06218 -5.28264 0
M  V30 1190 H 110.047 -4.5133 -3.53517 0
M  V30 1191 H 108.444 -5.15493 -3.07225 0
M  V30 1192 H 109.514 -4.49321 -1.82316 0
M  V30 1193 N 110.857 0.726932 -1.39834 0
M  V30 1194 C 112.105 1.4837 -1.37225 0
M  V30 1195 C 112.426 1.94979 0.0284857 0
M  V30 1196 O 111.696 1.69555 0.981213 0
M  V30 1197 H 110.276 0.55043 -0.505011 0
M  V30 1198 H 112.938 0.862468 -1.74778 0
M  V30 1199 H 112.034 2.36198 -2.04003 0
M  V30 1200 N 112.336 1.25143 0.95797 0
M  V30 1201 C 113.584 1.09476 1.69881 0
M  V30 1202 C 113.905 -0.365502 1.91544 0
M  V30 1203 O 113.175 -1.25985 1.50015 0
M  V30 1204 H 111.755 0.402128 0.629525 0
M  V30 1205 H 114.417 1.57214 1.15194 0
M  V30 1206 H 113.513 1.60046 2.6794 0
M  V30 1207 N 113.814 -1.1601 1.06675 0
M  V30 1208 C 115.042 -1.90527 0.806667 0
M  V30 1209 C 115.457 -1.77643 -0.639396 0
M  V30 1210 O 114.814 -1.12369 -1.43803 0
M  V30 1211 C 114.865 -3.41106 1.19705 0
M  V30 1212 O 114.586 -3.53608 2.58636 0
M  V30 1213 C 116.087 -4.32663 0.965266 0
M  V30 1214 H 113.307 -0.604053 0.292166 0
M  V30 1215 H 115.851 -1.47026 1.4214 0
M  V30 1216 H 114.006 -3.82296 0.626774 0
M  V30 1217 H 114.42 -4.47011 2.74375 0
M  V30 1218 H 115.894 -5.36763 1.288 0
M  V30 1219 H 116.371 -4.39089 -0.0987936 0
M  V30 1220 H 116.977 -3.97206 1.52011 0
M  V30 1221 N 115.292 -0.849877 -1.32721 0
M  V30 1222 C 116.24 -0.279745 -2.30912 0
M  V30 1223 C 117.234 0.594278 -1.58634 0
M  V30 1224 O 118.44 0.482613 -1.73409 0
M  V30 1225 H 114.815 -0.0717521 -0.748569 0
M  V30 1226 H 116.786 -1.12222 -2.76494 0
M  V30 1227 C 115.535 0.521108 -3.43773 0
M  V30 1228 H 114.858 -0.142141 -3.99547 0
M  V30 1229 H 116.298 0.885693 -4.14646 0
M  V30 1230 C 114.757 1.70442 -2.90605 0
M  V30 1231 O 115.287 2.8034 -2.87702 0
M  V30 1232 N 113.493 1.52991 -2.47067 0
M  V30 1233 H 113.04 0.635914 -2.49628 0
M  V30 1234 H 112.998 2.32311 -2.11847 0
M  V30 1235 N 116.77 1.45427 -0.607355 0
M  V30 1236 C 118 2.06314 -0.108656 0
M  V30 1237 C 118.408 1.45269 1.21217 0
M  V30 1238 O 117.751 0.561115 1.74921 0
M  V30 1239 C 117.813 3.59345 0.105618 0
M  V30 1240 C 117.477 4.42723 -1.13337 0
M  V30 1241 C 118.474 4.77715 -2.05145 0
M  V30 1242 C 116.159 4.83478 -1.36213 0
M  V30 1243 C 118.153 5.52317 -3.18158 0
M  V30 1244 C 115.84 5.57835 -2.49527 0
M  V30 1245 C 116.838 5.92171 -3.40327 0
M  V30 1246 O 116.526 6.65019 -4.51669 0
M  V30 1247 H 116.258 0.672782 -0.0658842 0
M  V30 1248 H 118.812 1.87664 -0.834945 0
M  V30 1249 H 117.042 3.76394 0.886796 0
M  V30 1250 H 118.731 4.02076 0.555886 0
M  V30 1251 H 119.497 4.46787 -1.88697 0
M  V30 1252 H 115.376 4.56188 -0.664362 0
M  V30 1253 H 118.92 5.79036 -3.89054 0
M  V30 1254 H 114.817 5.88177 -2.65928 0
M  V30 1255 H 115.585 6.83469 -4.50348 0
M  V30 1256 N 118.248 0.346503 1.53744 0
M  V30 1257 C 119.664 -0.00530975 1.59599 0
M  V30 1258 C 119.864 -1.48465 1.36236 0
M  V30 1259 O 118.92 -2.24376 1.15808 0
M  V30 1260 C 120.233 0.433516 2.97559 0
M  V30 1261 C 121.781 0.386111 3.10609 0
M  V30 1262 C 122.256 0.800451 4.50951 0
M  V30 1263 N 123.747 0.754753 4.5701 0
M  V30 1264 C 124.482 1.04727 5.63755 0
M  V30 1265 N 123.978 1.4081 6.7834 0
M  V30 1266 N 125.771 0.971316 5.53644 0
M  V30 1267 H 117.922 1.31009 1.67184 0
M  V30 1268 H 120.185 0.534242 0.783128 0
M  V30 1269 H 119.891 1.46509 3.19731 0
M  V30 1270 H 119.765 -0.189753 3.76722 0
M  V30 1271 H 122.152 -0.636295 2.88158 0
M  V30 1272 H 122.233 1.04462 2.33498 0
M  V30 1273 H 121.877 1.82088 4.74137 0
M  V30 1274 H 121.807 0.119386 5.26465 0
M  V30 1275 H 124.298 0.488662 3.74727 0
M  V30 1276 H 124.611 1.61607 7.55714 0
M  V30 1277 H 122.956 1.44657 6.79779 0
M  V30 1278 H 126.147 0.688748 4.63005 0
M  V30 1279 H 126.32 1.20263 6.36742 0
M  V30 1280 N 119.726 -1.57421 0.075193 0
M  V30 1281 C 120.972 -1.93905 -0.594025 0
M  V30 1282 C 121.305 -0.955701 -1.69056 0
M  V30 1283 O 120.58 0.0145373 -1.94495 0
M  V30 1284 C 120.863 -3.40638 -1.1678 0
M  V30 1285 C 120.716 -4.49733 -0.0776792 0
M  V30 1286 C 122.035 -3.88259 -2.07228 0
M  V30 1287 H 119.154 -0.705105 -0.214466 0
M  V30 1288 H 121.796 -1.8947 0.141854 0
M  V30 1289 H 119.946 -3.44549 -1.79494 0
M  V30 1290 H 121.618 -4.57942 0.555573 0
M  V30 1291 H 119.861 -4.29751 0.591286 0
M  V30 1292 H 120.532 -5.49549 -0.519603 0
M  V30 1293 H 123.008 -3.86376 -1.54445 0
M  V30 1294 H 121.884 -4.91533 -2.44308 0
M  V30 1295 H 122.145 -3.26396 -2.98191 0
M  V30 1296 N 121.204 0.198386 -1.56346 0
M  V30 1297 C 122.134 1.24865 -1.9731 0
M  V30 1298 C 123.115 1.47651 -0.844576 0
M  V30 1299 O 124.3 1.59444 -1.10866 0
M  V30 1300 C 121.43 2.59358 -2.30977 0
M  V30 1301 C 120.384 2.5119 -3.46537 0
M  V30 1302 C 119.71 3.89926 -3.65871 0
M  V30 1303 C 121.01 2.03977 -4.80823 0
M  V30 1304 H 122.704 0.908252 -2.85291 0
M  V30 1305 H 120.25 0.435462 -1.37258 0
M  V30 1306 H 122.203 3.33011 -2.58228 0
M  V30 1307 H 120.927 2.95132 -1.39874 0
M  V30 1308 H 119.586 1.79993 -3.19371 0
M  V30 1309 H 119.234 4.23046 -2.72105 0
M  V30 1310 H 118.934 3.85336 -4.4361 0
M  V30 1311 H 120.458 4.65205 -3.95495 0
M  V30 1312 H 121.872 2.67386 -5.07127 0
M  V30 1313 H 120.269 2.10397 -5.62008 0
M  V30 1314 H 121.339 0.992861 -4.74626 0
M  V30 1315 N 122.682 1.50554 0.465978 0
M  V30 1316 C 123.907 1.65838 1.24549 0
M  V30 1317 C 124.332 0.343486 1.84937 0
M  V30 1318 O 123.69 -0.69324 1.67523 0
M  V30 1319 C 123.738 2.75533 2.32624 0
M  V30 1320 O 122.842 2.37142 3.37398 0
M  V30 1321 H 122.183 0.553893 0.366194 0
M  V30 1322 H 124.713 1.96959 0.553927 0
M  V30 1323 H 124.723 2.98763 2.77857 0
M  V30 1324 H 123.398 3.70962 1.88043 0
M  V30 1325 H 121.975 2.24377 2.97841 0
M  V30 1326 N 124.16 -0.719506 1.40217 0
M  V30 1327 C 125.406 -1.48152 1.38488 0
M  V30 1328 C 125.739 -1.94195 -0.0141867 0
M  V30 1329 O 125.014 -1.67884 -0.982096 0
M  V30 1330 C 125.297 -2.71035 2.37091 0
M  V30 1331 C 125.15 -2.30912 3.86005 0
M  V30 1332 C 126.469 -3.73182 2.33288 0
M  V30 1333 H 123.588 -0.537395 0.504357 0
M  V30 1334 H 126.23 -0.821472 1.71324 0
M  V30 1335 H 124.38 -3.27352 2.0922 0
M  V30 1336 H 126.052 -1.80107 4.24687 0
M  V30 1337 H 124.295 -1.62958 4.02029 0
M  V30 1338 H 124.966 -3.18978 4.50508 0
M  V30 1339 H 127.442 -3.26485 2.57966 0
M  V30 1340 H 126.318 -4.56806 3.04334 0
M  V30 1341 H 126.579 -4.21202 1.34317 0
M  V30 1342 N 125.638 -1.25649 -0.95132 0
M  V30 1343 C 126.866 -1.13343 -1.73092 0
M  V30 1344 C 127.281 0.312434 -1.86197 0
M  V30 1345 O 126.638 1.21465 -1.36207 0
M  V30 1346 C 126.689 -1.78602 -3.14299 0
M  V30 1347 O 126.41 -3.17537 -3.01831 0
M  V30 1348 C 127.911 -1.72119 -4.08522 0
M  V30 1349 H 125.131 -0.395181 -0.542285 0
M  V30 1350 H 127.675 -1.66076 -1.19328 0
M  V30 1351 H 125.83 -1.29832 -3.64996 0
M  V30 1352 H 126.244 -3.49676 -3.90931 0
M  V30 1353 H 127.718 -2.22435 -5.052 0
M  V30 1354 H 128.195 -0.685635 -4.33815 0
M  V30 1355 H 128.801 -2.20393 -3.63741 0
M  V30 1356 N 127.117 1.15442 -1.07289 0
M  V30 1357 C 128.047 2.22312 -0.714107 0
M  V30 1358 C 129.028 1.67467 0.298155 0
M  V30 1359 O 130.213 1.93445 0.171048 0
M  V30 1360 C 127.343 3.47124 -0.110448 0
M  V30 1361 C 126.297 4.14926 -1.04979 0
M  V30 1362 C 125.623 5.33807 -0.308924 0
M  V30 1363 C 126.923 4.64762 -2.38314 0
M  V30 1364 H 128.617 2.5258 -1.6076 0
M  V30 1365 H 126.163 1.21404 -0.77441 0
M  V30 1366 H 128.116 4.21124 0.152482 0
M  V30 1367 H 126.84 3.16187 0.81812 0
M  V30 1368 H 125.499 3.42866 -1.29764 0
M  V30 1369 H 125.147 4.99126 0.623084 0
M  V30 1370 H 124.847 5.80113 -0.935036 0
M  V30 1371 H 126.371 6.10576 -0.0537771 0
M  V30 1372 H 127.785 5.30292 -2.1786 0
M  V30 1373 H 126.182 5.21728 -2.96514 0
M  V30 1374 H 127.252 3.80434 -3.00663 0
M  V30 1375 N 128.595 0.856903 1.32268 0
M  V30 1376 C 129.505 0.306131 2.32594 0
M  V30 1377 C 130.521 -0.577209 1.64147 0
M  V30 1378 O 131.697 -0.477043 1.95669 0
M  V30 1379 C 128.762 -0.494561 3.43154 0
M  V30 1380 C 127.823 0.415186 4.27288 0
M  V30 1381 C 127.056 -0.347387 5.32568 0
M  V30 1382 O 127.279 -1.57708 5.48165 0
M  V30 1383 O 126.213 0.287982 6.01211 0
M  V30 1384 H 130.039 1.13737 2.81598 0
M  V30 1385 H 127.624 0.619902 1.35932 0
M  V30 1386 H 129.506 -0.948944 4.10576 0
M  V30 1387 H 128.181 -1.30257 2.96336 0
M  V30 1388 H 127.088 0.917793 3.62667 0
M  V30 1389 H 128.421 1.18844 4.77637 0
M  V30 1390 N 130.073 -1.45103 0.615059 0
M  V30 1391 C 131.321 -2.01784 0.112955 0
M  V30 1392 C 131.642 -1.48504 -1.26378 0
M  V30 1393 O 130.912 -0.682245 -1.83636 0
M  V30 1394 H 129.492 -0.745993 0.0387668 0
M  V30 1395 H 132.154 -1.77808 0.798141 0
M  V30 1396 H 131.25 -3.12025 0.0684069 0
M  V30 1397 N 131.551 -0.354651 -1.53558 0
M  V30 1398 C 132.498 0.496968 -2.25386 0
M  V30 1399 C 133.468 1.0865 -1.25636 0
M  V30 1400 O 134.653 1.12104 -1.54394 0
M  V30 1401 C 131.793 1.63637 -3.03837 0
M  V30 1402 C 130.906 1.07307 -4.18461 0
M  V30 1403 C 130.041 2.18068 -4.84376 0
M  V30 1404 C 129.08 1.59147 -5.91049 0
M  V30 1405 N 128.217 2.63695 -6.50699 0
M  V30 1406 H 133.057 -0.122075 -2.9775 0
M  V30 1407 H 130.594 -0.0720154 -1.46924 0
M  V30 1408 H 132.552 2.30734 -3.47589 0
M  V30 1409 H 131.182 2.22623 -2.33749 0
M  V30 1410 H 130.234 0.292708 -3.79272 0
M  V30 1411 H 131.546 0.602193 -4.95152 0
M  V30 1412 H 130.7 2.93007 -5.31255 0
M  V30 1413 H 129.439 2.68504 -4.07133 0
M  V30 1414 H 128.444 0.827175 -5.43542 0
M  V30 1415 H 129.669 1.09549 -6.70206 0
M  V30 1416 H 127.615 3.13365 -5.76315 0
M  V30 1417 H 127.532 2.21263 -7.22896 0
M  V30 1418 H 128.8 3.3837 -7.02229 0
M  V30 1419 N 133.029 1.57378 -0.0835403 0
M  V30 1420 C 134.277 1.93547 0.581718 0
M  V30 1421 C 134.598 0.96524 1.69435 0
M  V30 1422 O 133.868 0.0153369 1.95894 0
M  V30 1423 H 132.448 0.714521 0.217874 0
M  V30 1424 H 135.11 1.94366 -0.144158 0
M  V30 1425 H 134.206 2.95665 0.999423 0
M  V30 1426 N 134.507 -0.190092 1.56449 0
M  V30 1427 C 135.454 -1.23557 1.94942 0
M  V30 1428 C 136.424 -1.44972 0.810696 0
M  V30 1429 O 137.609 -1.58023 1.06927 0
M  V30 1430 C 134.749 -2.57416 2.2985 0
M  V30 1431 C 133.862 -2.43537 3.5681 0
M  V30 1432 C 132.997 -3.70134 3.81017 0
M  V30 1433 C 132.036 -3.51109 5.01387 0
M  V30 1434 N 131.173 -4.6973 5.21822 0
M  V30 1435 H 136.013 -0.900304 2.84075 0
M  V30 1436 H 133.55 -0.43318 1.40577 0
M  V30 1437 H 135.508 -3.35409 2.48106 0
M  V30 1438 H 134.138 -2.88975 1.43852 0
M  V30 1439 H 133.19 -1.56816 3.46573 0
M  V30 1440 H 134.502 -2.25415 4.4496 0
M  V30 1441 H 133.656 -4.56566 3.9954 0
M  V30 1442 H 132.395 -3.91215 2.91207 0
M  V30 1443 H 131.4 -2.63063 4.82782 0
M  V30 1444 H 132.625 -3.31468 5.9271 0
M  V30 1445 H 130.571 -4.91065 4.34961 0
M  V30 1446 H 130.488 -4.54452 6.0416 0
M  V30 1447 H 131.756 -5.57499 5.44808 0
M  V30 1448 N 135.985 -1.50799 -0.457987 0
M  V30 1449 C 137.21 -1.66496 -1.23668 0
M  V30 1450 C 137.635 -0.353288 -1.84752 0
M  V30 1451 O 136.993 0.684346 -1.67888 0
M  V30 1452 C 137.041 -2.76763 -2.3116 0
M  V30 1453 O 136.145 -2.38928 -3.36136 0
M  V30 1454 H 135.486 -0.555828 -0.363252 0
M  V30 1455 H 138.016 -1.9725 -0.543474 0
M  V30 1456 H 138.026 -3.00232 -2.76269 0
M  V30 1457 H 136.701 -3.71954 -1.86073 0
M  V30 1458 H 135.278 -2.25953 -2.96647 0
M  V30 1459 N 137.463 0.71206 -1.40597 0
M  V30 1460 C 138.874 1.29135 -1.34837 0
M  V30 1461 C 139.225 1.96186 -0.0235395 0
M  V30 1462 O 138.35 1.97768 0.878444 0
M  V30 1463 C 138.945 2.34827 -2.44217 0
M  V30 1464 C 137.504 2.88371 -2.41907 0
M  V30 1465 C 136.651 1.62202 -2.24913 0
M  V30 1466 H 139.602 0.507944 -1.50352 0
M  V30 1467 H 139.623 3.15749 -2.12327 0
M  V30 1468 H 139.135 1.85996 -3.40627 0
M  V30 1469 H 137.236 3.41422 -1.49204 0
M  V30 1470 H 137.349 3.39925 -3.37621 0
M  V30 1471 H 135.713 1.874 -1.72492 0
M  V30 1472 H 136.496 1.15391 -3.23326 0
M  V30 1473 N 138.941 1.26152 0.944643 0
M  V30 1474 C 140.357 1.03189 1.21754 0
M  V30 1475 C 140.557 -0.245112 2.00004 0
M  V30 1476 O 139.613 -0.955176 2.33736 0
M  V30 1477 C 140.926 2.26119 1.98219 0
M  V30 1478 C 142.474 2.30984 2.11224 0
M  V30 1479 C 142.949 3.53597 2.91089 0
M  V30 1480 N 144.44 3.54053 2.98664 0
M  V30 1481 C 145.175 4.45593 3.60881 0
M  V30 1482 N 144.671 5.47416 4.24626 0
M  V30 1483 N 146.464 4.33252 3.58119 0
M  V30 1484 H 138.615 2.08177 0.421437 0
M  V30 1485 H 140.878 0.914723 0.248969 0
M  V30 1486 H 140.584 3.18984 1.48128 0
M  V30 1487 H 140.458 2.3009 2.98895 0
M  V30 1488 H 142.845 1.38635 2.60508 0
M  V30 1489 H 142.926 2.31026 1.09821 0
M  V30 1490 H 142.57 4.46273 2.42493 0
M  V30 1491 H 142.5 3.50802 3.92741 0
M  V30 1492 H 144.991 2.80403 2.53343 0
M  V30 1493 H 145.304 6.13459 4.69987 0
M  V30 1494 H 143.649 5.51278 4.23223 0
M  V30 1495 H 146.84 3.52924 3.0751 0
M  V30 1496 H 147.013 5.04786 4.06319 0
M  V30 1497 N 140.419 -1.14872 1.07899 0
M  V30 1498 C 141.668 -1.85135 0.800499 0
M  V30 1499 C 141.981 -1.83547 -0.676014 0
M  V30 1500 O 143.187 -2.49548 -1.06948 0
M  V30 1501 C 141.643 -3.3231 1.38197 0
M  V30 1502 C 141.251 -3.42329 2.8899 0
M  V30 1503 C 142.995 -4.0772 1.18174 0
M  V30 1504 C 140.902 -4.83684 3.403 0
M  V30 1505 H 139.832 -0.693563 0.29578 0
M  V30 1506 H 142.483 -1.29532 1.29976 0
M  V30 1507 H 140.865 -3.87618 0.810431 0
M  V30 1508 H 142.039 -2.97097 3.52236 0
M  V30 1509 H 140.354 -2.80369 3.07867 0
M  V30 1510 H 142.951 -5.12049 1.5398 0
M  V30 1511 H 143.294 -4.16124 0.12117 0
M  V30 1512 H 143.827 -3.58696 1.71994 0
M  V30 1513 H 140.566 -4.80465 4.45907 0
M  V30 1514 H 140.086 -5.29474 2.81811 0
M  V30 1515 H 141.765 -5.52558 3.36584 0
M  V30 1516 N 141.898 -0.863906 -1.31812 0
M  V30 1517 C 142.83 -0.272485 -2.27575 0
M  V30 1518 C 143.843 0.56104 -1.52827 0
M  V30 1519 O 145.032 0.384021 -1.7432 0
M  V30 1520 C 142.132 0.63283 -3.32939 0
M  V30 1521 C 141.305 -0.166902 -4.37081 0
M  V30 1522 C 140.364 0.665608 -5.21973 0
M  V30 1523 O 139.39 0.0958091 -5.69119 0
M  V30 1524 N 140.592 1.9787 -5.45736 0
M  V30 1525 H 143.357 -1.0954 -2.78964 0
M  V30 1526 H 140.918 -0.724791 -1.4477 0
M  V30 1527 H 142.91 1.19532 -3.86645 0
M  V30 1528 H 141.48 1.35642 -2.81638 0
M  V30 1529 H 140.7 -0.910838 -3.83533 0
M  V30 1530 H 141.988 -0.715874 -5.03739 0
M  V30 1531 H 141.386 2.46484 -5.09178 0
M  V30 1532 H 139.943 2.48911 -6.024 0
M  V30 1533 N 143.376 1.44774 -0.622745 0
M  V30 1534 C 144.286 2.34433 0.0886031 0
M  V30 1535 C 145.302 1.52131 0.844529 0
M  V30 1536 O 146.478 1.84886 0.798691 0
M  V30 1537 C 143.543 3.29986 1.0635 0
M  V30 1538 C 142.604 4.28195 0.307873 0
M  V30 1539 C 141.837 5.19183 1.23633 0
M  V30 1540 O 142.06 5.13918 2.47476 0
M  V30 1541 O 140.994 5.97515 0.725189 0
M  V30 1542 H 144.82 2.96693 -0.648599 0
M  V30 1543 H 142.405 1.44408 -0.382957 0
M  V30 1544 H 144.287 3.88825 1.6246 0
M  V30 1545 H 142.962 2.70269 1.78146 0
M  V30 1546 H 141.869 3.72927 -0.296064 0
M  V30 1547 H 143.202 4.90808 -0.3699 0
M  V30 1548 N 144.854 0.36279 1.53368 0
M  V30 1549 C 146.27 0.0116182 1.59596 0
M  V30 1550 C 146.47 -1.47012 1.37803 0
M  V30 1551 O 145.526 -2.23136 1.18181 0
M  V30 1552 C 146.839 0.465052 2.97082 0
M  V30 1553 C 148.387 0.419033 3.10182 0
M  V30 1554 C 148.862 0.848235 4.50077 0
M  V30 1555 N 150.353 0.803183 4.56183 0
M  V30 1556 C 151.088 1.107 5.62613 0
M  V30 1557 N 150.584 1.47996 6.76808 0
M  V30 1558 N 152.377 1.02998 5.52583 0
M  V30 1559 H 144.528 1.32775 1.65785 0
M  V30 1560 H 146.791 0.542518 0.777417 0
M  V30 1561 H 146.497 1.49892 3.18159 0
M  V30 1562 H 146.371 -0.149786 3.76902 0
M  V30 1563 H 148.758 -0.605696 2.88817 0
M  V30 1564 H 148.839 1.06933 2.32377 0
M  V30 1565 H 148.483 1.87107 4.7218 0
M  V30 1566 H 148.413 0.175218 5.26308 0
M  V30 1567 H 150.904 0.52838 3.74188 0
M  V30 1568 H 151.217 1.69613 7.53957 0
M  V30 1569 H 149.562 1.51859 6.78206 0
M  V30 1570 H 152.753 0.737817 4.62249 0
M  V30 1571 H 152.926 1.2701 6.35431 0
M  V30 1572 N 146.332 -1.57332 0.0918853 0
M  V30 1573 C 147.56 -1.98574 -0.581048 0
M  V30 1574 C 147.975 -0.970903 -1.61923 0
M  V30 1575 O 147.332 0.0399054 -1.82456 0
M  V30 1576 C 147.383 -3.39872 -1.23164 0
M  V30 1577 O 147.104 -4.37469 -0.234989 0
M  V30 1578 C 148.605 -3.96099 -1.99049 0
M  V30 1579 H 145.825 -0.65261 -0.156018 0
M  V30 1580 H 148.369 -2.0379 0.170225 0
M  V30 1581 H 146.524 -3.35679 -1.93386 0
M  V30 1582 H 146.938 -5.19751 -0.70418 0
M  V30 1583 H 148.412 -4.97127 -2.39934 0
M  V30 1584 H 148.889 -3.3374 -2.85507 0
M  V30 1585 H 149.495 -4.03755 -1.3365 0
M  V30 1586 N 147.81 0.181792 -1.56548 0
M  V30 1587 C 149.04 0.914618 -1.85252 0
M  V30 1588 C 149.448 1.76791 -0.673914 0
M  V30 1589 O 148.791 1.80009 0.366416 0
M  V30 1590 C 148.853 1.85019 -3.08234 0
M  V30 1591 C 148.517 1.17754 -4.41569 0
M  V30 1592 C 149.514 0.548035 -5.17003 0
M  V30 1593 C 147.199 1.17742 -4.88305 0
M  V30 1594 C 149.193 -0.0726128 -6.37359 0
M  V30 1595 C 146.88 0.552946 -6.08593 0
M  V30 1596 C 147.878 -0.070978 -6.82963 0
M  V30 1597 O 147.566 -0.685635 -8.00971 0
M  V30 1598 H 147.298 0.271695 -0.618998 0
M  V30 1599 H 149.852 0.189944 -2.0452 0
M  V30 1600 H 148.082 2.61491 -2.84885 0
M  V30 1601 H 149.771 2.45195 -3.23472 0
M  V30 1602 H 150.537 0.540174 -4.81982 0
M  V30 1603 H 146.416 1.65246 -4.30366 0
M  V30 1604 H 149.96 -0.560213 -6.95347 0
M  V30 1605 H 145.857 0.558354 -6.43081 0
M  V30 1606 H 146.625 -0.58385 -8.16415 0
M  V30 1607 N 149.288 1.51039 0.449983 0
M  V30 1608 C 150.528 1.64732 1.21007 0
M  V30 1609 C 150.892 0.349865 1.88785 0
M  V30 1610 O 152.093 0.362431 2.66345 0
M  V30 1611 C 150.364 2.80902 2.20973 0
M  V30 1612 S 151.923 3.14851 3.05638 0
M  V30 1613 H 148.741 0.5805 0.410538 0
M  V30 1614 H 151.343 1.88901 0.503634 0
M  V30 1615 H 150.047 3.73627 1.69796 0
M  V30 1616 H 149.578 2.58882 2.96215 0
M  V30 1617 H 151.593 2.60306 4.22439 0
M  V30 1618 N 150.766 -0.704594 1.40972 0
M  V30 1619 C 152.015 -1.46018 1.39146 0
M  V30 1620 C 152.328 -1.956 0.000589254 0
M  V30 1621 O 153.534 -2.71137 -0.1403 0
M  V30 1622 C 151.99 -2.63996 2.4461 0
M  V30 1623 C 151.598 -2.21238 3.89561 0
M  V30 1624 C 153.342 -3.41677 2.51907 0
M  V30 1625 C 151.249 -3.3612 4.86598 0
M  V30 1626 H 150.179 -0.548444 0.517422 0
M  V30 1627 H 152.83 -0.765784 1.66757 0
M  V30 1628 H 151.212 -3.3566 2.10115 0
M  V30 1629 H 152.386 -1.56923 4.33257 0
M  V30 1630 H 150.701 -1.56574 3.85841 0
M  V30 1631 H 153.298 -4.27182 3.2159 0
M  V30 1632 H 153.641 -3.86247 1.55303 0
M  V30 1633 H 154.174 -2.77064 2.85448 0
M  V30 1634 H 150.913 -2.96572 5.84573 0
M  V30 1635 H 150.433 -3.99315 4.47557 0
M  V30 1636 H 152.112 -4.02029 5.06934 0
M  V30 1637 N 152.244 -1.26651 -0.937939 0
M  V30 1638 C 153.655 -1.1125 -1.49934 0
M  V30 1639 C 154.006 0.306077 -1.93798 0
M  V30 1640 O 153.131 1.19792 -1.80219 0
M  V30 1641 C 153.726 -2.01339 -2.72485 0
M  V30 1642 C 152.285 -1.90074 -3.24883 0
M  V30 1643 C 151.432 -1.94498 -1.97651 0
M  V30 1644 H 154.383 -1.39693 -0.753091 0
M  V30 1645 H 154.404 -1.56319 -3.46907 0
M  V30 1646 H 153.916 -3.04577 -2.40529 0
M  V30 1647 H 152.017 -0.897827 -3.61621 0
M  V30 1648 H 152.13 -2.75778 -3.9177 0
M  V30 1649 H 150.494 -1.38591 -2.13693 0
M  V30 1650 H 151.277 -2.99372 -1.68022 0
M  V30 1651 N 153.722 1.14298 -1.08507 0
M  V30 1652 C 154.685 2.17607 -0.719711 0
M  V30 1653 C 155.685 1.58907 0.245997 0
M  V30 1654 O 156.875 1.74181 0.0254081 0
M  V30 1655 C 154.007 3.40842 -0.0627695 0
M  V30 1656 H 155.2 2.51443 -1.63452 0
M  V30 1657 H 152.753 1.28963 -0.88307 0
M  V30 1658 H 153.488 3.12587 0.863716 0
M  V30 1659 H 153.273 3.84713 -0.757504 0
M  V30 1660 H 154.763 4.17221 0.177786 0
M  V30 1661 N 155.201 0.870884 1.31352 0
M  V30 1662 C 156.111 0.330783 2.32256 0
M  V30 1663 C 157.127 -0.559767 1.6475 0
M  V30 1664 O 158.303 -0.456263 1.96164 0
M  V30 1665 C 155.368 -0.458137 3.4366 0
M  V30 1666 C 154.429 0.460482 4.26823 0
M  V30 1667 C 153.662 -0.290881 5.32907 0
M  V30 1668 O 153.885 -1.51885 5.49806 0
M  V30 1669 O 152.819 0.351732 6.00871 0
M  V30 1670 H 156.645 1.16718 2.80376 0
M  V30 1671 H 154.23 0.634285 1.35267 0
M  V30 1672 H 156.112 -0.905343 4.1156 0
M  V30 1673 H 154.787 -1.27106 2.97701 0
M  V30 1674 H 153.694 0.956207 3.61673 0
M  V30 1675 H 155.027 1.23903 4.7635 0
M  V30 1676 N 156.679 -1.44442 0.630414 0
M  V30 1677 C 157.626 -2.30678 -0.0749355 0
M  V30 1678 C 158.596 -1.4344 -0.837502 0
M  V30 1679 O 159.781 -1.72343 -0.818684 0
M  V30 1680 C 156.921 -3.28706 -1.05103 0
M  V30 1681 C 156.034 -4.31046 -0.286954 0
M  V30 1682 C 155.169 -5.16167 -1.2548 0
M  V30 1683 C 154.208 -6.10216 -0.479843 0
M  V30 1684 N 153.345 -6.88039 -1.39811 0
M  V30 1685 H 158.185 -2.90454 0.666386 0
M  V30 1686 H 155.722 -1.43107 0.340404 0
M  V30 1687 H 157.68 -3.84027 -1.63031 0
M  V30 1688 H 156.31 -2.70632 -1.75949 0
M  V30 1689 H 155.362 -3.78203 0.408243 0
M  V30 1690 H 156.674 -4.97794 0.316657 0
M  V30 1691 H 155.828 -5.76002 -1.90544 0
M  V30 1692 H 154.567 -4.49491 -1.89233 0
M  V30 1693 H 153.572 -5.49491 0.184295 0
M  V30 1694 H 154.797 -6.78928 0.152965 0
M  V30 1695 H 152.743 -6.24032 -2.02287 0
M  V30 1696 H 152.66 -7.51223 -0.848508 0
M  V30 1697 H 153.928 -7.52397 -2.03762 0
M  V30 1698 N 158.157 -0.370918 -1.53173 0
M  V30 1699 C 159.09 0.516727 -2.22273 0
M  V30 1700 C 160.068 1.07877 -1.21661 0
M  V30 1701 O 161.252 1.13389 -1.50583 0
M  V30 1702 C 158.379 1.71346 -2.92161 0
M  V30 1703 C 157.425 1.27838 -4.0689 0
M  V30 1704 S 158.258 0.275217 -5.34792 0
M  V30 1705 C 159.414 1.47816 -6.08195 0
M  V30 1706 H 159.647 -0.0701054 -2.97217 0
M  V30 1707 H 157.18 -0.155038 -1.5362 0
M  V30 1708 H 159.138 2.39988 -3.3304 0
M  V30 1709 H 157.799 2.27156 -2.16931 0
M  V30 1710 H 156.992 2.17141 -4.54825 0
M  V30 1711 H 156.594 0.671105 -3.6793 0
M  V30 1712 H 158.886 2.40831 -6.33251 0
M  V30 1713 H 159.829 1.04008 -7.0042 0
M  V30 1714 H 160.237 1.68663 -5.38714 0
M  V30 1715 N 159.635 1.57281 -0.100228 0
M  V30 1716 C 160.86 1.99302 0.573881 0
M  V30 1717 C 161.285 0.979059 1.60611 0
M  V30 1718 O 160.643 -0.0517803 1.81226 0
M  V30 1719 C 160.691 3.40274 1.19358 0
M  V30 1720 O 159.795 3.41676 2.30935 0
M  V30 1721 H 159.136 0.647944 0.145138 0
M  V30 1722 H 161.666 2.03779 -0.183156 0
M  V30 1723 H 161.676 3.78078 1.53365 0
M  V30 1724 H 160.351 4.13594 0.437385 0
M  V30 1725 H 158.928 3.15672 1.98509 0
M  V30 1726 N 161.113 -0.173488 1.56642 0
M  V30 1727 C 162.361 -0.888706 1.81512 0
M  V30 1728 C 162.682 -1.82875 0.676872 0
M  V30 1729 O 161.952 -1.93536 -0.303414 0
M  V30 1730 H 160.532 -0.331164 0.669582 0
M  V30 1731 H 163.194 -0.173823 1.94123 0
M  V30 1732 H 162.29 -1.46691 2.75478 0
M  V30 1733 N 162.591 -1.51276 -0.441967 0
M  V30 1734 C 163.816 -1.67799 -1.21895 0
M  V30 1735 C 164.241 -0.372864 -1.84367 0
M  V30 1736 O 163.599 0.666501 -1.68604 0
M  V30 1737 C 163.647 -2.79199 -2.28211 0
M  V30 1738 O 162.751 -2.42479 -3.33583 0
M  V30 1739 H 162.092 -0.559649 -0.357336 0
M  V30 1740 H 164.622 -1.97815 -0.522522 0
M  V30 1741 H 164.632 -3.03146 -2.73069 0
M  V30 1742 H 163.307 -3.73906 -1.82118 0
M  V30 1743 H 161.884 -2.29087 -2.94234 0
M  V30 1744 N 164.069 0.697108 -1.41344 0
M  V30 1745 C 165.317 1.45426 -1.40341 0
M  V30 1746 C 165.638 1.94996 -0.0128787 0
M  V30 1747 O 164.908 1.71599 0.945027 0
M  V30 1748 H 163.488 0.539594 -0.516573 0
M  V30 1749 H 166.15 0.825201 -1.76569 0
M  V30 1750 H 165.246 2.31817 -2.08967 0
M  V30 1751 N 165.547 1.27147 0.931209 0
M  V30 1752 C 166.775 1.16082 1.71267 0
M  V30 1753 C 167.19 -0.282772 1.8667 0
M  V30 1754 O 166.547 -1.19283 1.38122 0
M  V30 1755 C 166.598 1.8358 3.11417 0
M  V30 1756 O 166.319 3.22299 2.96741 0
M  V30 1757 C 167.82 1.78597 4.05732 0
M  V30 1758 H 165.04 0.403758 0.535929 0
M  V30 1759 H 167.584 1.67953 1.16671 0
M  V30 1760 H 165.739 1.35623 3.62885 0
M  V30 1761 H 166.153 3.55851 3.85319 0
M  V30 1762 H 167.627 2.30444 5.01597 0
M  V30 1763 H 168.104 0.754564 4.3267 0
M  V30 1764 H 168.71 2.26152 3.60188 0
M  V30 1765 N 167.025 -1.13721 1.09112 0
M  V30 1766 C 167.935 -2.22638 0.73957 0
M  V30 1767 C 168.951 -1.72091 -0.257068 0
M  V30 1768 O 170.127 -2.01155 -0.0992154 0
M  V30 1769 C 167.192 -3.46322 0.16191 0
M  V30 1770 C 166.253 -4.11775 1.21408 0
M  V30 1771 C 165.486 -5.29555 0.663891 0
M  V30 1772 O 165.709 -5.68077 -0.514274 0
M  V30 1773 O 164.643 -5.84973 1.41738 0
M  V30 1774 H 168.469 -2.55074 1.64836 0
M  V30 1775 H 166.054 -1.21791 0.865289 0
M  V30 1776 H 167.936 -4.21107 -0.157073 0
M  V30 1777 H 166.611 -3.15593 -0.719932 0
M  V30 1778 H 165.518 -3.3883 1.58571 0
M  V30 1779 H 166.851 -4.46627 2.06845 0
M  V30 1780 N 168.503 -0.877838 -1.30888 0
M  V30 1781 C 169.433 -0.35534 -2.3078 0
M  V30 1782 C 170.414 0.557994 -1.60687 0
M  V30 1783 O 171.599 0.473355 -1.88343 0
M  V30 1784 C 168.729 0.437221 -3.44537 0
M  V30 1785 C 167.683 -0.383715 -4.26276 0
M  V30 1786 C 167.009 0.535014 -5.32017 0
M  V30 1787 C 168.309 -1.62201 -4.96476 0
M  V30 1788 H 170.003 -1.19007 -2.74732 0
M  V30 1789 H 167.549 -0.573698 -1.32078 0
M  V30 1790 H 169.502 0.813334 -4.13477 0
M  V30 1791 H 168.226 1.30553 -2.99372 0
M  V30 1792 H 166.885 -0.741874 -3.59015 0
M  V30 1793 H 166.533 1.40083 -4.831 0
M  V30 1794 H 166.233 -0.0104211 -5.87599 0
M  V30 1795 H 167.757 0.907799 -6.03814 0
M  V30 1796 H 169.171 -1.31689 -5.5797 0
M  V30 1797 H 167.568 -2.10711 -5.61891 0
M  V30 1798 H 168.638 -2.37044 -4.23011 0
M  V30 1799 N 169.982 1.44106 -0.638065 0
M  V30 1800 C 171.229 2.01978 -0.14533 0
M  V30 1801 C 171.557 1.50234 1.23532 0
M  V30 1802 O 170.812 0.679548 1.83523 0
M  V30 1803 C 171.111 3.5729 -0.0887327 0
M  V30 1804 C 170.777 4.28317 -1.40909 0
M  V30 1805 C 169.439 4.47437 -1.77069 0
M  V30 1806 C 171.791 4.6867 -2.28031 0
M  V30 1807 C 169.119 5.04171 -3.00047 0
M  V30 1808 C 171.471 5.26766 -3.50286 0
M  V30 1809 C 170.135 5.44104 -3.86661 0
M  V30 1810 H 169.405 0.739089 -0.0531801 0
M  V30 1811 H 172.052 1.72781 -0.825761 0
M  V30 1812 H 170.357 3.8594 0.675095 0
M  V30 1813 H 172.054 3.99807 0.309145 0
M  V30 1814 H 168.644 4.1377 -1.1177 0
M  V30 1815 H 172.828 4.53604 -2.01388 0
M  V30 1816 H 168.084 5.15782 -3.28298 0
M  V30 1817 H 172.258 5.56983 -4.18023 0
M  V30 1818 H 169.885 5.87832 -4.82034 0
M  V30 1819 N 171.46 0.379036 1.52974 0
M  V30 1820 C 172.407 -0.461048 2.26148 0
M  V30 1821 C 173.377 -1.06637 1.27349 0
M  V30 1822 O 174.562 -1.09633 1.56157 0
M  V30 1823 C 171.702 -1.58782 3.06402 0
M  V30 1824 C 170.815 -1.00636 4.20115 0
M  V30 1825 C 169.95 -2.10334 4.87784 0
M  V30 1826 C 168.989 -1.49724 5.93506 0
M  V30 1827 N 168.126 -2.5331 6.54812 0
M  V30 1828 H 172.966 0.169429 2.97518 0
M  V30 1829 H 170.503 0.0953806 1.4679 0
M  V30 1830 H 172.461 -2.25174 3.51215 0
M  V30 1831 H 171.091 -2.18876 2.37261 0
M  V30 1832 H 170.143 -0.232332 3.7969 0
M  V30 1833 H 171.455 -0.523343 4.96047 0
M  V30 1834 H 170.609 -2.84519 5.35849 0
M  V30 1835 H 169.348 -2.61992 4.11353 0
M  V30 1836 H 168.353 -0.740598 5.44789 0
M  V30 1837 H 169.578 -0.988732 6.71864 0
M  V30 1838 H 167.524 -3.04156 5.81227 0
M  V30 1839 H 167.441 -2.09734 7.26325 0
M  V30 1840 H 168.709 -3.27155 7.07524 0
M  V30 1841 N 172.938 -1.57226 0.108567 0
M  V30 1842 C 174.168 -1.9889 -0.559142 0
M  V30 1843 C 174.576 -0.986889 -1.61422 0
M  V30 1844 O 173.919 0.0298705 -1.83676 0
M  V30 1845 C 173.981 -3.36952 -1.25315 0
M  V30 1846 C 173.645 -4.55679 -0.347248 0
M  V30 1847 C 174.642 -5.18281 0.409996 0
M  V30 1848 C 172.327 -5.0162 -0.261367 0
M  V30 1849 C 174.321 -6.25203 1.24096 0
M  V30 1850 C 172.008 -6.08405 0.573238 0
M  V30 1851 C 173.006 -6.70063 1.32304 0
M  V30 1852 O 172.694 -7.74788 2.14381 0
M  V30 1853 H 172.426 -0.658343 -0.153492 0
M  V30 1854 H 174.98 -2.04532 0.188584 0
M  V30 1855 H 173.21 -3.28032 -2.04773 0
M  V30 1856 H 174.899 -3.62974 -1.81673 0
M  V30 1857 H 175.665 -4.8371 0.353457 0
M  V30 1858 H 171.544 -4.53381 -0.834656 0
M  V30 1859 H 175.088 -6.73259 1.82669 0
M  V30 1860 H 170.985 -6.42406 0.631208 0
M  V30 1861 H 171.753 -7.91837 2.07209 0
M  V30 1862 N 174.416 0.165178 -1.56732 0
M  V30 1863 C 175.665 0.879143 -1.81532 0
M  V30 1864 C 175.978 1.83144 -0.686842 0
M  V30 1865 O 177.184 2.58823 -0.819944 0
M  V30 1866 C 175.64 1.61388 -3.21686 0
M  V30 1867 C 175.248 0.704904 -4.4242 0
M  V30 1868 C 176.992 2.3157 -3.55774 0
M  V30 1869 C 174.899 1.44022 -5.73595 0
M  V30 1870 H 173.829 0.332033 -0.676957 0
M  V30 1871 H 176.48 0.132008 -1.83025 0
M  V30 1872 H 174.862 2.40599 -3.14529 0
M  V30 1873 H 176.036 -0.0506815 -4.60772 0
M  V30 1874 H 174.351 0.112419 -4.16248 0
M  V30 1875 H 176.948 2.8719 -4.51028 0
M  V30 1876 H 177.291 3.07201 -2.8095 0
M  V30 1877 H 177.824 1.59297 -3.64513 0
M  V30 1878 H 174.563 0.72612 -6.51466 0
M  V30 1879 H 174.083 2.16898 -5.5921 0
M  V30 1880 H 175.762 1.98606 -6.15764 0
M  V30 1881 N 175.894 1.51508 0.433938 0
M  V30 1882 C 176.857 1.72473 1.50949 0
M  V30 1883 C 177.857 0.594725 1.49398 0
M  V30 1884 O 179.047 0.862315 1.5136 0
M  V30 1885 C 176.179 1.78431 2.90474 0
M  V30 1886 H 177.372 2.68467 1.33662 0
M  V30 1887 H 174.925 1.41549 0.662836 0
M  V30 1888 H 175.66 0.842645 3.13161 0
M  V30 1889 H 175.445 2.60558 2.93005 0
M  V30 1890 H 176.935 1.96479 3.68491 0
M  V30 1891 N 177.372 -0.689602 1.41712 0
M  V30 1892 C 178.282 -1.83314 1.46401 0
M  V30 1893 C 179.298 -1.7036 0.35405 0
M  V30 1894 O 180.474 -1.92171 0.602692 0
M  V30 1895 C 177.539 -3.19344 1.34982 0
M  V30 1896 C 176.6 -3.44363 2.56344 0
M  V30 1897 C 175.833 -4.73904 2.45461 0
M  V30 1898 O 176.056 -5.508 1.48241 0
M  V30 1899 O 174.99 -4.99839 3.35328 0
M  V30 1900 H 178.816 -1.82314 2.42889 0
M  V30 1901 H 176.401 -0.843438 1.23315 0
M  V30 1902 H 178.283 -4.00547 1.3092 0
M  V30 1903 H 176.958 -3.21014 0.41612 0
M  V30 1904 H 175.865 -2.63067 2.65982 0
M  V30 1905 H 177.198 -3.47512 3.48563 0
M  V30 1906 N 178.85 -1.27639 -0.924453 0
M  V30 1907 C 180.078 -1.16989 -1.70649 0
M  V30 1908 C 180.493 0.272869 -1.86818 0
M  V30 1909 O 179.85 1.18549 -1.38753 0
M  V30 1910 C 179.901 -1.85229 -3.10439 0
M  V30 1911 O 179.622 -3.23868 -2.95028 0
M  V30 1912 C 181.123 -1.80746 -4.04779 0
M  V30 1913 H 178.343 -0.406595 -0.53378 0
M  V30 1914 H 180.887 -1.68569 -1.15778 0
M  V30 1915 H 179.042 -1.37545 -3.6216 0
M  V30 1916 H 179.456 -3.57889 -3.83426 0
M  V30 1917 H 180.93 -2.33101 -5.00368 0
M  V30 1918 H 181.407 -0.777499 -4.32263 0
M  V30 1919 H 182.013 -2.28059 -3.58984 0
M  V30 1920 N 180.328 1.1314 -1.09713 0
M  V30 1921 C 181.258 2.20748 -0.761102 0
M  V30 1922 C 182.239 1.68061 0.262566 0
M  V30 1923 O 183.424 1.93765 0.129977 0
M  V30 1924 C 180.554 3.46812 -0.184054 0
M  V30 1925 C 179.508 4.12606 -1.13757 0
M  V30 1926 C 178.834 5.33031 -0.422083 0
M  V30 1927 C 180.134 4.59603 -2.48118 0
M  V30 1928 H 181.828 2.49113 -1.66082 0
M  V30 1929 H 179.374 1.19734 -0.799987 0
M  V30 1930 H 181.327 4.21353 0.0631215 0
M  V30 1931 H 180.051 3.17851 0.750868 0
M  V30 1932 H 178.71 3.40036 -1.37007 0
M  V30 1933 H 178.358 5.00335 0.517072 0
M  V30 1934 H 178.058 5.77999 -1.05788 0
M  V30 1935 H 179.582 6.10325 -0.183277 0
M  V30 1936 H 180.996 5.25552 -2.29059 0
M  V30 1937 H 179.393 5.15321 -3.07514 0
M  V30 1938 H 180.463 3.73971 -3.08665 0
M  V30 1939 N 181.806 0.884767 1.30421 0
M  V30 1940 C 182.769 0.356277 2.26414 0
M  V30 1941 C 183.769 -0.501124 1.52792 0
M  V30 1942 O 184.959 -0.30831 1.7145 0
M  V30 1943 C 182.091 -0.492316 3.37326 0
M  V30 1944 H 183.284 1.20389 2.74675 0
M  V30 1945 H 180.837 0.661607 1.41607 0
M  V30 1946 H 181.572 -1.36052 2.94381 0
M  V30 1947 H 181.357 0.121832 3.91911 0
M  V30 1948 H 182.847 -0.853871 4.08777 0
M  V30 1949 N 183.284 -1.43765 0.645699 0
M  V30 1950 C 184.561 -1.9541 0.0862963 0
M  V30 1951 C 184.941 -1.58725 -1.39175 0
M  V30 1952 O 184.289 -0.868581 -2.11348 0
M  V30 1953 C 184.499 -3.47488 0.324565 0
M  V30 1954 C 185.847 -4.24001 0.225497 0
M  V30 1955 O 186.871 -3.55274 0.256715 0
M  V30 1956 O 185.73 -5.46313 0.142801 0
M  V30 1957 H 182.824 -0.826882 -0.0139483 0
M  V30 1958 H 185.37 -1.53743 0.718415 0
M  V30 1959 H 184.142 -3.67289 1.3496 0
M  V30 1960 H 183.765 -3.96135 -0.340987 0
M  V30 1961 N 184.763 -0.387143 -1.52771 0
M  V30 1962 C 186.01 0.195735 -2.01552 0
M  V30 1963 C 186.338 1.46995 -1.27369 0
M  V30 1964 O 185.593 1.92325 -0.361879 0
M  V30 1965 C 185.892 0.512209 -3.53711 0
M  V30 1966 C 185.558 -0.670202 -4.45891 0
M  V30 1967 C 184.22 -0.994586 -4.70809 0
M  V30 1968 C 186.572 -1.46134 -5.00294 0
M  V30 1969 C 183.9 -2.11169 -5.4738 0
M  V30 1970 C 186.252 -2.56903 -5.78086 0
M  V30 1971 C 184.916 -2.89852 -6.01284 0
M  V30 1972 H 184.186 0.0716246 -0.73753 0
M  V30 1973 H 186.833 -0.524046 -1.8419 0
M  V30 1974 H 185.138 1.31329 -3.69134 0
M  V30 1975 H 186.835 0.975804 -3.88946 0
M  V30 1976 H 183.425 -0.407366 -4.2666 0
M  V30 1977 H 187.609 -1.22397 -4.80971 0
M  V30 1978 H 182.865 -2.3707 -5.63567 0
M  V30 1979 H 187.039 -3.18608 -6.19243 0
M  V30 1980 H 184.666 -3.76533 -6.60399 0
M  V30 1981 N 186.241 1.57166 -0.116904 0
M  V30 1982 C 187.171 2.18222 0.830759 0
M  V30 1983 C 188.152 1.12167 1.27877 0
M  V30 1984 O 189.337 1.40394 1.34176 0
M  V30 1985 C 186.467 2.77996 2.08172 0
M  V30 1986 C 185.421 3.89614 1.77157 0
M  V30 1987 C 184.747 4.36187 3.09265 0
M  V30 1988 C 186.047 5.1181 1.04151 0
M  V30 1989 H 187.741 2.97664 0.321992 0
M  V30 1990 H 185.287 1.4318 0.153434 0
M  V30 1991 H 187.24 3.19366 2.74924 0
M  V30 1992 H 185.964 1.9584 2.6137 0
M  V30 1993 H 184.623 3.48816 1.12796 0
M  V30 1994 H 184.271 3.50893 3.60393 0
M  V30 1995 H 183.971 5.11455 2.89288 0
M  V30 1996 H 185.495 4.80207 3.77139 0
M  V30 1997 H 186.909 5.50214 1.61052 0
M  V30 1998 H 185.306 5.92648 0.942762 0
M  V30 1999 H 186.376 4.84892 0.0279022 0
M  V30 2000 N 187.719 -0.156864 1.56817 0
M  V30 2001 C 188.629 -1.2136 2.00771 0
M  V30 2002 C 189.645 -1.47598 0.921459 0
M  V30 2003 O 190.821 -1.59462 1.2302 0
M  V30 2004 C 187.886 -2.52943 2.37109 0
M  V30 2005 C 186.947 -2.34439 3.59634 0
M  V30 2006 C 186.18 -3.59748 3.94229 0
M  V30 2007 O 186.403 -4.65526 3.29609 0
M  V30 2008 O 185.337 -3.52998 4.8752 0
M  V30 2009 H 189.163 -0.870468 2.90958 0
M  V30 2010 H 186.748 -0.36484 1.44877 0
M  V30 2011 H 188.63 -3.30538 2.61386 0
M  V30 2012 H 187.305 -2.86806 1.5008 0
M  V30 2013 H 186.212 -1.54828 3.40557 0
M  V30 2014 H 187.545 -2.05496 4.4725 0
M  V30 2015 N 189.197 -1.51736 -0.425897 0
M  V30 2016 C 190.145 -1.74464 -1.53834 0
M  V30 2017 C 191.139 -0.611241 -1.57988 0
M  V30 2018 O 192.345 -0.792899 -1.61596 0
M  V30 2019 H 188.72 -0.551437 -0.511293 0
M  V30 2020 H 190.691 -2.67694 -1.31843 0
M  V30 2021 C 189.44 -1.8972 -2.91379 0
M  V30 2022 H 188.763 -2.76344 -2.88919 0
M  V30 2023 H 190.203 -2.09629 -3.68553 0
M  V30 2024 C 188.662 -0.65992 -3.30374 0
M  V30 2025 O 189.192 0.180083 -4.01296 0
M  V30 2026 N 187.398 -0.500677 -2.86254 0
M  V30 2027 H 186.945 -1.18532 -2.28709 0
M  V30 2028 H 186.903 0.325903 -3.12706 0
M  V30 2029 N 190.675 0.682077 -1.42076 0
M  V30 2030 C 191.623 1.81707 -1.45208 0
M  V30 2031 C 192.617 1.66183 -0.328591 0
M  V30 2032 O 193.823 1.7288 -0.501264 0
M  V30 2033 H 190.198 0.599014 -0.454628 0
M  V30 2034 H 192.169 1.76183 -2.40836 0
M  V30 2035 C 190.918 3.19816 -1.36428 0
M  V30 2036 H 190.241 3.32385 -2.22171 0
M  V30 2037 H 191.681 3.99272 -1.42681 0
M  V30 2038 C 190.14 3.36809 -0.078191 0
M  V30 2039 O 190.67 3.92124 0.87188 0
M  V30 2040 N 188.876 2.906 0.00229266 0
M  V30 2041 H 188.423 2.45772 -0.771616 0
M  V30 2042 H 188.381 3.02347 0.862179 0
M  V30 2043 N 192.153 1.28127 0.917671 0
M  V30 2044 C 193.401 1.14825 1.66312 0
M  V30 2045 C 193.722 -0.304379 1.9261 0
M  V30 2046 O 192.992 -1.21149 1.53947 0
M  V30 2047 H 191.572 0.421953 0.616413 0
M  V30 2048 H 194.234 1.608 1.10134 0
M  V30 2049 H 193.33 1.68489 2.62712 0
M  V30 2050 N 193.631 -1.12557 1.10312 0
M  V30 2051 C 194.564 -2.1737 0.694674 0
M  V30 2052 C 195.542 -1.59745 -0.303373 0
M  V30 2053 O 196.726 -1.87408 -0.202578 0
M  V30 2054 C 193.853 -3.38691 0.0248052 0
M  V30 2055 C 192.899 -4.14943 0.986121 0
M  V30 2056 S 193.732 -4.73413 2.50281 0
M  V30 2057 C 194.888 -5.9807 1.84562 0
M  V30 2058 H 195.121 -2.5168 1.58255 0
M  V30 2059 H 192.654 -1.23998 0.919992 0
M  V30 2060 H 194.612 -4.08959 -0.355361 0
M  V30 2061 H 193.273 -3.02664 -0.839851 0
M  V30 2062 H 192.466 -5.01854 0.464651 0
M  V30 2063 H 192.068 -3.50377 1.30813 0
M  V30 2064 H 194.36 -6.67232 1.17507 0
M  V30 2065 H 195.303 -6.54841 2.69423 0
M  V30 2066 H 195.711 -5.49073 1.31069 0
M  V30 2067 N 195.109 -0.891671 -1.2995 0
M  V30 2068 C 196.056 -0.361736 -2.27948 0
M  V30 2069 C 197.026 0.551761 -1.56668 0
M  V30 2070 O 198.211 0.478736 -1.84696 0
M  V30 2071 C 195.351 0.411825 -3.42634 0
M  V30 2072 C 194.464 -0.531651 -4.28716 0
M  V30 2073 C 193.599 0.258167 -5.30572 0
M  V30 2074 C 192.638 -0.680349 -6.08307 0
M  V30 2075 N 191.775 0.0745613 -7.0206 0
M  V30 2076 H 196.615 -1.20254 -2.72659 0
M  V30 2077 H 194.152 -0.604352 -1.34112 0
M  V30 2078 H 196.11 0.876304 -4.07893 0
M  V30 2079 H 194.74 1.21715 -2.98974 0
M  V30 2080 H 193.792 -1.11463 -3.63703 0
M  V30 2081 H 195.104 -1.25038 -4.82874 0
M  V30 2082 H 194.258 0.784204 -6.0161 0
M  V30 2083 H 192.997 1.01008 -4.77126 0
M  V30 2084 H 192.002 -1.21796 -5.3614 0
M  V30 2085 H 193.227 -1.43145 -6.63842 0
M  V30 2086 H 191.173 0.808883 -6.50994 0
M  V30 2087 H 191.09 -0.584409 -7.53738 0
M  V30 2088 H 192.358 0.581123 -7.77331 0
M  V30 2089 N 196.587 1.43421 -0.653314 0
M  V30 2090 C 197.864 1.95361 -0.0966581 0
M  V30 2091 C 198.244 1.59461 1.38331 0
M  V30 2092 O 197.592 0.879777 2.10884 0
M  V30 2093 C 197.802 3.47311 -0.342988 0
M  V30 2094 C 199.15 4.23875 -0.24798 0
M  V30 2095 O 200.174 3.55133 -0.275553 0
M  V30 2096 O 199.033 5.4623 -0.171771 0
M  V30 2097 H 196.127 0.826945 0.00956291 0
M  V30 2098 H 198.673 1.5336 -0.726558 0
M  V30 2099 H 197.445 3.66569 -1.36906 0
M  V30 2100 H 197.068 3.9631 0.319975 0
M  V30 2101 N 198.065 0.39524 1.52563 0
M  V30 2102 C 199.012 -0.437036 2.26624 0
M  V30 2103 C 199.982 -1.05281 1.28472 0
M  V30 2104 O 201.167 -1.07971 1.57311 0
M  V30 2105 C 198.307 -1.55524 3.08069 0
M  V30 2106 C 197.42 -0.961745 4.21158 0
M  V30 2107 C 196.555 -2.05149 4.89987 0
M  V30 2108 C 195.594 -1.4342 5.95061 0
M  V30 2109 N 194.731 -2.46351 6.57462 0
M  V30 2110 H 199.571 0.200976 2.97322 0
M  V30 2111 H 197.108 0.110944 1.46681 0
M  V30 2112 H 199.066 -2.21437 3.53584 0
M  V30 2113 H 197.696 -2.16348 2.3957 0
M  V30 2114 H 196.748 -0.192048 3.79915 0
M  V30 2115 H 198.06 -0.470701 4.96574 0
M  V30 2116 H 197.214 -2.78819 5.38837 0
M  V30 2117 H 195.953 -2.57615 4.14109 0
M  V30 2118 H 194.958 -0.682774 5.45544 0
M  V30 2119 H 196.183 -0.917416 6.72875 0
M  V30 2120 H 194.129 -2.97975 5.8442 0
M  V30 2121 H 194.046 -2.02019 7.28508 0
M  V30 2122 H 195.314 -3.19633 7.10954 0
M  V30 2123 N 199.544 -1.57102 0.125237 0
M  V30 2124 C 200.491 -2.15641 -0.822655 0
M  V30 2125 C 201.461 -1.08313 -1.25927 0
M  V30 2126 O 202.646 -1.36251 -1.33567 0
M  V30 2127 C 199.786 -2.76504 -2.06494 0
M  V30 2128 C 198.899 -3.98158 -1.67612 0
M  V30 2129 C 198.034 -4.47088 -2.86854 0
M  V30 2130 C 197.073 -5.6126 -2.44242 0
M  V30 2131 N 196.21 -6.04905 -3.56419 0
M  V30 2132 H 201.05 -2.96313 -0.316625 0
M  V30 2133 H 198.587 -1.46388 -0.144588 0
M  V30 2134 H 200.545 -3.09925 -2.79289 0
M  V30 2135 H 199.175 -1.98512 -2.54545 0
M  V30 2136 H 198.227 -3.70858 -0.846661 0
M  V30 2137 H 199.539 -4.80934 -1.32301 0
M  V30 2138 H 198.693 -4.82451 -3.67867 0
M  V30 2139 H 197.432 -3.63275 -3.25396 0
M  V30 2140 H 196.437 -5.25495 -1.61663 0
M  V30 2141 H 197.662 -6.46843 -2.0681 0
M  V30 2142 H 195.608 -5.24032 -3.94623 0
M  V30 2143 H 195.525 -6.82552 -3.25051 0
M  V30 2144 H 196.793 -6.44907 -4.37853 0
M  V30 2145 N 201.022 0.148545 -1.56898 0
M  V30 2146 C 202.269 0.861418 -1.83264 0
M  V30 2147 C 202.597 1.81239 -0.705883 0
M  V30 2148 O 201.852 1.93305 0.305212 0
M  V30 2149 C 202.151 1.67064 -3.1595 0
M  V30 2150 C 201.817 0.866591 -4.42494 0
M  V30 2151 C 200.479 0.644762 -4.76861 0
M  V30 2152 C 202.831 0.30418 -5.20312 0
M  V30 2153 C 200.159 -0.15021 -5.86508 0
M  V30 2154 C 202.511 -0.477824 -6.30793 0
M  V30 2155 C 201.175 -0.710244 -6.63711 0
M  V30 2156 H 200.445 0.315215 -0.670612 0
M  V30 2157 H 203.092 0.125142 -1.91091 0
M  V30 2158 H 201.397 2.47698 -3.03567 0
M  V30 2159 H 203.094 2.22566 -3.33565 0
M  V30 2160 H 199.684 1.04955 -4.15551 0
M  V30 2161 H 203.868 0.462844 -4.94137 0
M  V30 2162 H 199.124 -0.339796 -6.10455 0
M  V30 2163 H 203.298 -0.92076 -6.90286 0
M  V30 2164 H 200.925 -1.3281 -7.48509 0
M  V30 2165 N 202.5 1.5196 0.417844 0
M  V30 2166 C 203.777 1.56146 1.17803 0
M  V30 2167 C 204.157 0.337275 2.08388 0
M  V30 2168 O 203.505 -0.676447 2.18258 0
M  V30 2169 C 203.715 2.88566 1.96293 0
M  V30 2170 C 205.063 3.41244 2.52662 0
M  V30 2171 O 206.087 2.90247 2.06483 0
M  V30 2172 O 204.946 4.30273 3.36938 0
M  V30 2173 H 202.04 0.628598 0.537395 0
M  V30 2174 H 204.586 1.64283 0.425331 0
M  V30 2175 H 203.358 3.69116 1.2988 0
M  V30 2176 H 202.981 2.83681 2.78587 0
M  V30 2177 N 203.978 -0.674533 1.42435 0
M  V30 2178 C 204.908 -1.80009 1.48724 0
M  V30 2179 C 205.889 -1.6659 0.343793 0
M  V30 2180 O 207.074 -1.86007 0.558137 0
M  V30 2181 C 204.204 -3.18306 1.38919 0
M  V30 2182 C 203.158 -3.46461 2.51294 0
M  V30 2183 C 202.484 -4.84335 2.26547 0
M  V30 2184 C 203.784 -3.43328 3.93603 0
M  V30 2185 H 205.478 -1.75004 2.42928 0
M  V30 2186 H 203.024 -0.840533 1.16923 0
M  V30 2187 H 204.977 -3.9678 1.41927 0
M  V30 2188 H 203.701 -3.2399 0.412094 0
M  V30 2189 H 202.36 -2.70348 2.47604 0
M  V30 2190 H 202.008 -4.86669 1.2713 0
M  V30 2191 H 201.708 -5.04136 3.01861 0
M  V30 2192 H 203.232 -5.65094 2.31304 0
M  V30 2193 H 204.646 -4.11772 3.98894 0
M  V30 2194 H 203.043 -3.74664 4.68771 0
M  V30 2195 H 204.113 -2.41897 4.20255 0
M  V30 2196 N 205.456 -1.28612 -0.910864 0
M  V30 2197 C 206.704 -1.15705 -1.65701 0
M  V30 2198 C 207.025 0.29416 -1.92769 0
M  V30 2199 O 206.295 1.20331 -1.54588 0
M  V30 2200 H 204.875 -0.425216 -0.614167 0
M  V30 2201 H 207.537 -1.61381 -1.0928 0
M  V30 2202 H 206.633 -1.6988 -2.61815 0
M  V30 2203 N 206.934 1.1197 -1.10907 0
M  V30 2204 C 208.181 1.83588 -0.854507 0
M  V30 2205 C 208.509 1.84357 0.6199 0
M  V30 2206 O 207.764 1.28809 1.47332 0
M  V30 2207 C 208.063 3.30749 -1.35425 0
M  V30 2208 C 207.729 3.50146 -2.84093 0
M  V30 2209 C 206.391 3.55148 -3.2469 0
M  V30 2210 C 208.743 3.56857 -3.79872 0
M  V30 2211 C 206.071 3.6441 -4.59806 0
M  V30 2212 C 208.423 3.6765 -5.14797 0
M  V30 2213 C 207.087 3.7091 -5.54961 0
M  V30 2214 H 206.357 0.671795 -0.312686 0
M  V30 2215 H 209.004 1.32091 -1.38652 0
M  V30 2216 H 207.309 3.84703 -0.742361 0
M  V30 2217 H 209.006 3.8464 -1.1337 0
M  V30 2218 H 205.596 3.46919 -2.51685 0
M  V30 2219 H 209.78 3.52258 -3.49611 0
M  V30 2220 H 205.036 3.65208 -4.9034 0
M  V30 2221 H 209.21 3.71786 -5.88853 0
M  V30 2222 H 206.837 3.7784 -6.59652 0
M  V30 2223 N 208.412 0.89855 1.29475 0
M  V30 2224 C 209.64 0.539261 1.99749 0
M  V30 2225 C 210.055 -0.875716 1.67262 0
M  V30 2226 O 209.412 -1.57786 0.917049 0
M  V30 2227 C 209.463 0.72061 3.54245 0
M  V30 2228 O 209.184 2.07989 3.8558 0
M  V30 2229 C 210.685 0.366118 4.41786 0
M  V30 2230 H 207.905 0.207047 0.638258 0
M  V30 2231 H 210.449 1.20758 1.65039 0
M  V30 2232 H 208.604 0.0994862 3.87272 0
M  V30 2233 H 209.018 2.10841 4.80257 0
M  V30 2234 H 210.492 0.543848 5.49314 0
M  V30 2235 H 210.969 -0.696763 4.33638 0
M  V30 2236 H 211.575 0.964135 4.14228 0
M  V30 2237 N 209.89 -1.43072 0.660911 0
M  V30 2238 C 211.137 -2.01721 0.177445 0
M  V30 2239 C 211.465 -1.5218 -1.21126 0
M  V30 2240 O 210.72 -0.708659 -1.82419 0
M  V30 2241 C 211.019 -3.57103 0.145563 0
M  V30 2242 C 210.685 -4.26021 1.47705 0
M  V30 2243 C 209.347 -4.44563 1.84165 0
M  V30 2244 C 211.699 -4.64983 2.35458 0
M  V30 2245 C 209.027 -4.99334 3.0803 0
M  V30 2246 C 211.379 -5.21127 3.58622 0
M  V30 2247 C 210.043 -5.37884 3.95268 0
M  V30 2248 H 209.313 -0.73815 0.0649317 0
M  V30 2249 H 211.96 -1.71446 0.853144 0
M  V30 2250 H 210.265 -3.86965 -0.61361 0
M  V30 2251 H 211.962 -4.00248 -0.2455 0
M  V30 2252 H 208.552 -4.11939 1.18339 0
M  V30 2253 H 212.736 -4.50343 2.08579 0
M  V30 2254 H 207.992 -5.10493 3.36462 0
M  V30 2255 H 212.166 -5.50262 4.26831 0
M  V30 2256 H 209.793 -5.80089 4.91325 0
M  V30 2257 N 211.368 -0.403325 -1.52352 0
M  V30 2258 C 212.593 0.176499 -2.06648 0
M  V30 2259 C 213.018 1.38577 -1.27193 0
M  V30 2260 O 212.376 1.7879 -0.300637 0
M  V30 2261 C 212.424 0.511061 -3.5696 0
M  V30 2262 O 211.528 1.60294 -3.79973 0
M  V30 2263 H 210.869 0.0167337 -0.663789 0
M  V30 2264 H 213.399 -0.574848 -1.96359 0
M  V30 2265 H 213.409 0.771362 -4.00642 0
M  V30 2266 H 212.084 -0.37296 -4.14224 0
M  V30 2267 H 210.661 1.33526 -3.48174 0
M  V30 2268 N 212.846 1.57033 -0.133567 0
M  V30 2269 C 214.093 1.95686 0.520877 0
M  V30 2270 C 214.421 1.0177 1.6575 0
M  V30 2271 O 213.676 0.0443195 1.9565 0
M  V30 2272 C 213.975 3.40674 1.08057 0
M  V30 2273 C 213.641 4.50855 0.0637899 0
M  V30 2274 C 212.303 4.80716 -0.215757 0
M  V30 2275 C 214.655 5.17398 -0.62835 0
M  V30 2276 C 211.983 5.74433 -1.19348 0
M  V30 2277 C 214.335 6.12167 -1.5948 0
M  V30 2278 C 212.999 6.40414 -1.88218 0
M  V30 2279 H 212.269 0.716067 0.190602 0
M  V30 2280 H 214.916 1.9026 -0.217556 0
M  V30 2281 H 213.221 3.42865 1.89606 0
M  V30 2282 H 214.918 3.67902 1.59529 0
M  V30 2283 H 211.508 4.27605 0.291855 0
M  V30 2284 H 215.692 4.94472 -0.425562 0
M  V30 2285 H 210.948 5.94616 -1.42272 0
M  V30 2286 H 215.122 6.6281 -2.13671 0
M  V30 2287 H 212.749 7.12838 -2.64133 0
M  V30 2288 N 214.325 -0.140222 1.56975 0
M  V30 2289 C 215.736 -0.699596 1.73097 0
M  V30 2290 C 216.087 -1.8134 0.749022 0
M  V30 2291 O 215.212 -2.16241 -0.0828503 0
M  V30 2292 C 215.807 -1.27582 3.1386 0
M  V30 2293 C 214.366 -1.78169 3.31561 0
M  V30 2294 C 213.513 -0.672855 2.69013 0
M  V30 2295 H 216.464 0.0855115 1.58469 0
M  V30 2296 H 216.485 -2.14561 3.14235 0
M  V30 2297 H 215.997 -0.464955 3.85305 0
M  V30 2298 H 214.098 -2.61801 2.65124 0
M  V30 2299 H 214.211 -1.90574 4.39566 0
M  V30 2300 H 212.575 -1.10118 2.29665 0
M  V30 2301 H 213.358 0.126679 3.43066 0
M  V30 2302 N 215.803 -1.52179 -0.40978 0
M  V30 2303 C 217.043 -1.67882 -1.16597 0
M  V30 2304 C 217.407 -0.399795 -1.87791 0
M  V30 2305 O 218.608 -0.43292 -2.65291 0
M  V30 2306 C 216.879 -2.86662 -2.13448 0
M  V30 2307 S 218.438 -3.22843 -2.97183 0
M  V30 2308 H 215.256 -0.59118 -0.395002 0
M  V30 2309 H 217.858 -1.9017 -0.453373 0
M  V30 2310 H 216.562 -3.77998 -1.59831 0
M  V30 2311 H 216.093 -2.66645 -2.89247 0
M  V30 2312 H 218.108 -2.71415 -4.15389 0
M  V30 2313 N 217.281 0.66697 -1.42791 0
M  V30 2314 C 218.527 1.4291 -1.43891 0
M  V30 2315 C 218.86 1.94114 -0.0578972 0
M  V30 2316 O 218.135 1.71414 0.91911 0
M  V30 2317 C 218.418 2.62049 -2.46987 0
M  V30 2318 C 218.271 2.16426 -3.94309 0
M  V30 2319 C 219.59 3.64266 -2.46978 0
M  V30 2320 H 216.709 0.518306 -0.523954 0
M  V30 2321 H 219.351 0.757321 -1.74255 0
M  V30 2322 H 217.501 3.19361 -2.21225 0
M  V30 2323 H 219.173 1.64221 -4.31079 0
M  V30 2324 H 217.416 1.47925 -4.078 0
M  V30 2325 H 218.087 3.02038 -4.62036 0
M  V30 2326 H 220.563 3.16686 -2.69906 0
M  V30 2327 H 219.439 4.45196 -3.21079 0
M  V30 2328 H 219.7 4.15927 -1.49857 0
M  V30 2329 N 218.759 1.29093 0.90403 0
M  V30 2330 C 219.691 1.09658 2.01266 0
M  V30 2331 C 220.704 0.0453729 1.62737 0
M  V30 2332 O 221.893 0.289446 1.76138 0
M  V30 2333 C 218.993 0.646278 3.32681 0
M  V30 2334 C 218.166 1.77505 3.99763 0
M  V30 2335 C 217.225 1.31649 5.09465 0
M  V30 2336 O 216.251 2.02045 5.32134 0
M  V30 2337 N 217.453 0.184997 5.80205 0
M  V30 2338 H 220.218 2.05135 2.18494 0
M  V30 2339 H 217.779 1.20975 1.07594 0
M  V30 2340 H 219.771 0.322906 4.0341 0
M  V30 2341 H 218.341 -0.215916 3.11853 0
M  V30 2342 H 217.561 2.26752 3.22455 0
M  V30 2343 H 218.849 2.53198 4.41325 0
M  V30 2344 H 218.247 -0.402021 5.6427 0
M  V30 2345 H 216.804 -0.0790358 6.51752 0
M  V30 2346 N 220.237 -1.11381 1.11499 0
M  V30 2347 C 221.184 -2.17439 0.773887 0
M  V30 2348 C 222.154 -1.64132 -0.254899 0
M  V30 2349 O 223.339 -1.90345 -0.13168 0
M  V30 2350 C 220.479 -3.44373 0.223917 0
M  V30 2351 C 219.592 -4.1168 1.30934 0
M  V30 2352 C 218.727 -5.263 0.71984 0
M  V30 2353 C 217.766 -5.85493 1.78507 0
M  V30 2354 N 216.903 -6.91507 1.21502 0
M  V30 2355 H 221.743 -2.45962 1.68246 0
M  V30 2356 H 219.28 -1.20744 0.840191 0
M  V30 2357 H 221.238 -4.17047 -0.112921 0
M  V30 2358 H 219.868 -3.16232 -0.647851 0
M  V30 2359 H 218.92 -3.37073 1.76312 0
M  V30 2360 H 220.232 -4.51729 2.11524 0
M  V30 2361 H 219.386 -6.05785 0.333094 0
M  V30 2362 H 218.125 -4.87559 -0.117377 0
M  V30 2363 H 217.13 -5.04686 2.18111 0
M  V30 2364 H 218.355 -6.26301 2.62533 0
M  V30 2365 H 216.301 -6.54783 0.399455 0
M  V30 2366 H 216.218 -7.30214 1.95763 0
M  V30 2367 H 217.486 -7.74795 0.855181 0
M  V30 2368 N 221.715 -0.905404 -1.28997 0
M  V30 2369 C 222.963 -0.533192 -1.9494 0
M  V30 2370 C 223.284 0.924618 -1.71685 0
M  V30 2371 O 222.554 1.65268 -1.05183 0
M  V30 2372 H 221.134 -0.194194 -0.721317 0
M  V30 2373 H 223.796 -1.15294 -1.57141 0
M  V30 2374 H 222.892 -0.72059 -3.03667 0
M  V30 2375 N 223.193 1.4272 -0.668489 0
M  V30 2376 C 224.123 2.335 -0.000100175 0
M  V30 2377 C 225.104 1.50328 0.795964 0
M  V30 2378 O 226.289 1.78949 0.754385 0
M  V30 2379 C 223.419 3.33874 0.956302 0
M  V30 2380 C 222.373 4.27152 0.269278 0
M  V30 2381 C 221.699 5.17684 1.33818 0
M  V30 2382 C 222.999 5.15373 -0.847805 0
M  V30 2383 H 224.693 2.89639 -0.758244 0
M  V30 2384 H 222.239 1.39269 -0.366079 0
M  V30 2385 H 224.192 3.9629 1.43292 0
M  V30 2386 H 222.916 2.76025 1.74579 0
M  V30 2387 H 221.575 3.66123 -0.187042 0
M  V30 2388 H 221.223 4.56165 2.1195 0
M  V30 2389 H 220.923 5.80918 0.883659 0
M  V30 2390 H 222.447 5.82974 1.81586 0
M  V30 2391 H 223.861 5.7151 -0.452681 0
M  V30 2392 H 222.258 5.87407 -1.22773 0
M  V30 2393 H 223.328 4.5415 -1.69929 0
M  V30 2394 N 224.671 0.411399 1.52136 0
M  V30 2395 C 225.899 -0.163076 2.06256 0
M  V30 2396 C 226.314 -1.3867 1.28125 0
M  V30 2397 O 225.671 -1.79423 0.333721 0
M  V30 2398 C 225.722 -0.511252 3.57867 0
M  V30 2399 O 225.443 0.66378 4.33042 0
M  V30 2400 C 226.944 -1.13921 4.28412 0
M  V30 2401 H 224.164 -0.0193897 0.67072 0
M  V30 2402 H 226.708 0.583007 1.96013 0
M  V30 2403 H 224.863 -1.20723 3.6811 0
M  V30 2404 H 225.277 0.372601 5.23175 0
M  V30 2405 H 226.751 -1.33302 5.35663 0
M  V30 2406 H 227.228 -2.11296 3.85033 0
M  V30 2407 H 227.834 -0.483373 4.22544 0
M  V30 2408 N 226.149 -1.5696 0.141893 0
M  V30 2409 C 227.099 -2.13074 -0.811383 0
M  V30 2410 C 228.083 -1.05726 -1.21288 0
M  V30 2411 O 229.275 -1.31914 -1.18015 0
M  V30 2412 C 226.404 -2.75186 -2.0525 0
M  V30 2413 C 225.49 -3.8965 -1.67432 0
M  V30 2414 N 225.881 -4.95733 -1.0041 0
M  V30 2415 C 224.179 -4.00262 -1.96739 0
M  V30 2416 C 224.88 -5.75858 -0.822345 0
M  V30 2417 N 223.856 -5.26452 -1.3546 0
M  V30 2418 H 227.658 -2.92465 -0.290031 0
M  V30 2419 H 225.172 -1.6229 -0.0598218 0
M  V30 2420 H 227.169 -3.13745 -2.74535 0
M  V30 2421 H 225.829 -1.97266 -2.57907 0
M  V30 2422 H 226.84 -5.13607 -0.665441 0
M  V30 2423 H 223.517 -3.33412 -2.51282 0
M  V30 2424 H 224.907 -6.71254 -0.294496 0
M  V30 2425 N 227.627 0.131896 -1.57047 0
M  V30 2426 C 228.59 1.14638 -1.98471 0
M  V30 2427 C 229.59 1.35029 -0.873148 0
M  V30 2428 O 230.78 1.31764 -1.13946 0
M  V30 2429 C 227.912 2.50358 -2.31373 0
M  V30 2430 H 229.105 0.79064 -2.8929 0
M  V30 2431 H 226.658 0.375761 -1.51716 0
M  V30 2432 H 227.393 2.90876 -1.43393 0
M  V30 2433 H 227.178 2.36915 -3.12432 0
M  V30 2434 H 228.668 3.23395 -2.64207 0
M  V30 2435 N 229.106 1.52395 0.401703 0
M  V30 2436 C 230.334 1.70676 1.16949 0
M  V30 2437 C 230.749 0.419503 1.8408 0
M  V30 2438 O 230.106 -0.605061 1.72178 0
M  V30 2439 C 230.157 2.84753 2.22706 0
M  V30 2440 O 229.878 4.08495 1.58314 0
M  V30 2441 C 231.379 3.14608 3.12309 0
M  V30 2442 H 228.599 0.571787 0.351142 0
M  V30 2443 H 231.143 1.98987 0.471652 0
M  V30 2444 H 229.298 2.58941 2.88147 0
M  V30 2445 H 229.712 4.72117 2.28485 0
M  V30 2446 H 231.186 3.97923 3.82572 0
M  V30 2447 H 231.663 2.28464 3.75101 0
M  V30 2448 H 232.269 3.42212 2.52529 0
M  V30 2449 N 230.584 -0.659388 1.43143 0
M  V30 2450 C 231.514 -1.78422 1.50625 0
M  V30 2451 C 232.495 -1.66216 0.361443 0
M  V30 2452 O 233.68 -1.85404 0.577834 0
M  V30 2453 C 230.81 -3.16815 1.42287 0
M  V30 2454 C 229.764 -3.43777 2.54954 0
M  V30 2455 C 229.09 -4.81905 2.31671 0
M  V30 2456 C 230.39 -3.39134 3.97222 0
M  V30 2457 H 232.084 -1.72417 2.44771 0
M  V30 2458 H 229.63 -0.828084 1.17808 0
M  V30 2459 H 231.583 -3.95253 1.46127 0
M  V30 2460 H 230.307 -3.23534 0.446435 0
M  V30 2461 H 228.966 -2.67707 2.50457 0
M  V30 2462 H 228.614 -4.85294 1.32284 0
M  V30 2463 H 228.314 -5.00906 3.07192 0
M  V30 2464 H 229.838 -5.62609 2.37284 0
M  V30 2465 H 231.252 -4.07518 4.03239 0
M  V30 2466 H 229.649 -3.69671 4.72719 0
M  V30 2467 H 230.719 -2.37426 4.22797 0
M  V30 2468 N 232.062 -1.29571 -0.897171 0
M  V30 2469 C 233.308 -1.17863 -1.65034 0
M  V30 2470 C 233.641 0.268729 -1.92332 0
M  V30 2471 O 232.916 1.19378 -1.53555 0
M  V30 2472 C 233.199 -1.995 -2.99786 0
M  V30 2473 C 233.052 -3.5239 -2.79538 0
M  V30 2474 C 234.371 -1.82335 -4.00552 0
M  V30 2475 H 231.49 -0.429528 -0.598895 0
M  V30 2476 H 234.132 -1.59072 -1.03905 0
M  V30 2477 H 232.282 -1.64485 -3.51962 0
M  V30 2478 H 233.954 -3.97401 -2.34244 0
M  V30 2479 H 232.197 -3.77187 -2.14273 0
M  V30 2480 H 232.868 -4.04787 -3.75302 0
M  V30 2481 H 235.344 -2.12924 -3.57495 0
M  V30 2482 H 234.22 -2.41801 -4.92771 0
M  V30 2483 H 234.481 -0.779209 -4.35179 0
M  V30 2484 N 233.54 1.10788 -1.12088 0
M  V30 2485 C 234.956 1.34691 -0.856186 0
M  V30 2486 C 235.156 1.94791 0.515615 0
M  V30 2487 O 234.212 2.18524 1.26505 0
M  V30 2488 C 235.525 2.27208 -1.9697 0
M  V30 2489 C 237.073 2.40755 -2.00016 0
M  V30 2490 C 237.548 3.36598 -3.1059 0
M  V30 2491 N 239.039 3.44164 -3.10008 0
M  V30 2492 C 239.774 4.18284 -3.92206 0
M  V30 2493 N 239.27 4.95322 -4.84384 0
M  V30 2494 N 241.063 4.13865 -3.80357 0
M  V30 2495 H 233.214 0.70144 -2.00483 0
M  V30 2496 H 235.477 0.371405 -0.872217 0
M  V30 2497 H 235.183 1.90251 -2.958 0
M  V30 2498 H 235.057 3.27485 -1.87172 0
M  V30 2499 H 237.444 2.76982 -1.01808 0
M  V30 2500 H 237.525 1.40305 -2.13888 0
M  V30 2501 H 237.169 3.01096 -4.09028 0
M  V30 2502 H 237.099 4.36918 -2.93956 0
M  V30 2503 H 239.59 2.8922 -2.43228 0
M  V30 2504 H 239.903 5.49267 -5.43623 0
M  V30 2505 H 238.248 4.94459 -4.884 0
M  V30 2506 H 241.439 3.52773 -3.07683 0
M  V30 2507 H 241.612 4.71372 -4.44649 0
M  V30 2508 N 235.018 0.912232 1.28515 0
M  V30 2509 C 236.264 0.554851 1.95686 0
M  V30 2510 C 236.619 -0.89138 1.70506 0
M  V30 2511 O 235.912 -1.62529 1.01464 0
M  V30 2512 C 236.106 0.798392 3.48368 0
M  V30 2513 C 235.935 2.26674 3.88393 0
M  V30 2514 C 234.705 2.91657 4.12631 0
M  V30 2515 C 236.903 3.24303 3.99164 0
M  V30 2516 N 234.885 4.28805 4.39317 0
M  V30 2517 C 236.256 4.4661 4.30046 0
M  V30 2518 C 238.311 3.19723 3.81683 0
M  V30 2519 C 237.014 5.64915 4.45268 0
M  V30 2520 C 239.04 4.37325 3.98121 0
M  V30 2521 C 238.402 5.58406 4.29375 0
M  V30 2522 H 234.501 0.252876 0.739985 0
M  V30 2523 H 237.085 1.17565 1.55199 0
M  V30 2524 H 235.256 0.20688 3.87849 0
M  V30 2525 H 236.988 0.405193 4.02666 0
M  V30 2526 H 233.743 2.42393 4.06869 0
M  V30 2527 H 234.167 4.99712 4.56746 0
M  V30 2528 H 238.809 2.27191 3.56573 0
M  V30 2529 H 236.527 6.57927 4.6921 0
M  V30 2530 H 240.113 4.35282 3.86033 0
M  V30 2531 H 238.993 6.47889 4.41825 0
M  V30 2532 N 236.496 -1.42363 0.676048 0
M  V30 2533 C 237.724 -2.05859 0.207268 0
M  V30 2534 C 238.139 -1.50796 -1.13605 0
M  V30 2535 O 237.496 -0.648265 -1.70598 0
M  V30 2536 C 237.547 -3.61248 0.134975 0
M  V30 2537 O 237.268 -4.1427 1.42521 0
M  V30 2538 C 238.769 -4.41859 -0.357151 0
M  V30 2539 H 235.989 -0.663431 0.100503 0
M  V30 2540 H 238.533 -1.82479 0.923136 0
M  V30 2541 H 236.688 -3.83735 -0.531588 0
M  V30 2542 H 237.102 -5.0815 1.29939 0
M  V30 2543 H 238.576 -5.50847 -0.356641 0
M  V30 2544 H 239.053 -4.16536 -1.39264 0
M  V30 2545 H 239.659 -4.24392 0.27772 0
M  V30 2546 N 237.974 -0.419461 -1.51915 0
M  V30 2547 C 238.921 0.400927 -2.27291 0
M  V30 2548 C 239.891 1.03224 -1.30131 0
M  V30 2549 O 241.076 1.05455 -1.59009 0
M  V30 2550 C 238.216 1.50603 -3.10504 0
M  V30 2551 C 237.329 0.89462 -4.22635 0
M  V30 2552 C 236.464 1.97328 -4.93189 0
M  V30 2553 C 235.503 1.33935 -5.97267 0
M  V30 2554 N 234.64 2.3586 -6.61298 0
M  V30 2555 H 239.48 -0.248251 -2.96964 0
M  V30 2556 H 237.017 -0.134266 -1.46486 0
M  V30 2557 H 238.975 2.15783 -3.57062 0
M  V30 2558 H 237.605 2.12509 -2.42981 0
M  V30 2559 H 236.657 0.131583 -3.80172 0
M  V30 2560 H 237.969 0.391641 -4.9726 0
M  V30 2561 H 237.123 2.70211 -5.43204 0
M  V30 2562 H 235.862 2.50994 -4.18155 0
M  V30 2563 H 234.867 0.595896 -5.46561 0
M  V30 2564 H 236.092 0.810252 -6.74249 0
M  V30 2565 H 234.038 2.88639 -5.89087 0
M  V30 2566 H 233.955 1.90403 -7.3163 0
M  V30 2567 H 235.223 3.08282 -7.15949 0
M  V30 2568 N 239.452 1.56882 -0.150215 0
M  V30 2569 C 240.7 1.9584 0.499105 0
M  V30 2570 C 241.021 1.03623 1.65188 0
M  V30 2571 O 240.291 0.0984084 1.95653 0
M  V30 2572 H 238.871 0.723119 0.187373 0
M  V30 2573 H 241.533 1.9358 -0.226466 0
M  V30 2574 H 240.629 2.99638 0.873122 0
M  V30 2575 N 240.93 -0.123565 1.57115 0
M  V30 2576 C 242.177 -0.832153 1.84612 0
M  V30 2577 C 242.505 -1.80093 0.734627 0
M  V30 2578 O 241.76 -1.93766 -0.27442 0
M  V30 2579 C 242.059 -1.62016 3.18568 0
M  V30 2580 C 241.725 -0.796084 4.43817 0
M  V30 2581 C 240.387 -0.568816 4.77826 0
M  V30 2582 C 242.739 -0.221364 5.2073 0
M  V30 2583 C 240.067 0.243499 5.86194 0
M  V30 2584 C 242.419 0.578117 6.29953 0
M  V30 2585 C 241.083 0.815744 6.62497 0
M  V30 2586 H 240.353 -0.304507 0.675542 0
M  V30 2587 H 243 -0.0947248 1.91266 0
M  V30 2588 H 241.305 -2.42837 3.0747 0
M  V30 2589 H 243.002 -2.17231 3.37064 0
M  V30 2590 H 239.592 -0.983307 4.17168 0
M  V30 2591 H 243.776 -0.384173 4.94811 0
M  V30 2592 H 239.032 0.436871 6.09837 0
M  V30 2593 H 243.206 1.03046 6.88734 0
M  V30 2594 H 240.833 1.44701 7.46301 0
M  V30 2595 N 242.408 -1.52605 -0.393616 0
M  V30 2596 C 243.633 -1.71592 -1.16495 0
M  V30 2597 C 244.058 -0.43133 -1.83088 0
M  V30 2598 O 243.416 0.612523 -1.7064 0
M  V30 2599 C 243.464 -2.86318 -2.19213 0
M  V30 2600 O 242.568 -2.52969 -3.257 0
M  V30 2601 H 241.909 -0.570734 -0.33935 0
M  V30 2602 H 244.439 -1.99377 -0.459324 0
M  V30 2603 H 244.449 -3.1168 -2.63286 0
M  V30 2604 H 243.124 -3.79511 -1.7013 0
M  V30 2605 H 241.701 -2.38332 -2.86797 0
M  V30 2606 N 243.887 0.651787 -1.4349 0
M  V30 2607 C 244.85 1.74647 -1.48429 0
M  V30 2608 C 245.85 1.56513 -0.368817 0
M  V30 2609 O 247.04 1.62385 -0.630623 0
M  V30 2610 C 244.172 3.13533 -1.33827 0
M  V30 2611 H 245.365 1.71649 -2.4592 0
M  V30 2612 H 242.918 0.863573 -1.30277 0
M  V30 2613 H 243.653 3.22142 -0.37349 0
M  V30 2614 H 243.438 3.28101 -2.14691 0
M  V30 2615 H 244.928 3.93356 -1.40218 0
M  V30 2616 N 245.365 1.30045 0.890287 0
M  V30 2617 C 246.642 1.09227 1.62262 0
M  V30 2618 C 247.022 -0.360305 2.08002 0
M  V30 2619 O 246.37 -1.35084 1.84295 0
M  V30 2620 C 246.58 2.08835 2.79623 0
M  V30 2621 C 247.928 2.40266 3.50082 0
M  V30 2622 O 248.952 2.07104 2.89804 0
M  V30 2623 O 247.811 2.96967 4.58773 0
M  V30 2624 H 244.905 0.419132 0.712922 0
M  V30 2625 H 247.451 1.41451 0.937529 0
M  V30 2626 H 246.223 3.06633 2.43089 0
M  V30 2627 H 245.846 1.77397 3.55832 0
M  V30 2628 N 246.843 -1.10192 1.12674 0
M  V30 2629 C 248.091 -1.81845 0.881861 0
M  V30 2630 C 248.412 -1.85737 -0.593867 0
M  V30 2631 O 247.682 -1.33724 -1.4316 0
M  V30 2632 H 246.262 -0.673432 0.323261 0
M  V30 2633 H 248.924 -1.33316 1.42172 0
M  V30 2634 H 248.02 -2.85288 1.2656 0
M  V30 2635 N 248.321 -0.919034 -1.28029 0
M  V30 2636 C 249.567 -0.555757 -1.95036 0
M  V30 2637 C 249.9 0.899198 -1.72128 0
M  V30 2638 O 249.175 1.64023 -1.04531 0
M  V30 2639 C 249.458 -0.872024 -3.49382 0
M  V30 2640 C 249.311 -2.3801 -3.81669 0
M  V30 2641 C 250.63 -0.37185 -4.38526 0
M  V30 2642 H 247.749 -0.203386 -0.708381 0
M  V30 2643 H 250.391 -1.14924 -1.51303 0
M  V30 2644 H 248.541 -0.366946 -3.86763 0
M  V30 2645 H 250.213 -2.9562 -3.54128 0
M  V30 2646 H 248.456 -2.83289 -3.28526 0
M  V30 2647 H 249.127 -2.55192 -4.8947 0
M  V30 2648 H 251.603 -0.804602 -4.08247 0
M  V30 2649 H 250.479 -0.622173 -5.45362 0
M  V30 2650 H 250.74 0.727934 -4.36066 0
M  V30 2651 N 249.799 1.42003 -0.683588 0
M  V30 2652 C 250.709 2.34597 -0.0109075 0
M  V30 2653 C 251.725 1.55576 0.779245 0
M  V30 2654 O 252.901 1.88107 0.719555 0
M  V30 2655 C 249.966 3.34199 0.922588 0
M  V30 2656 C 249.027 4.29115 0.125984 0
M  V30 2657 C 248.26 5.23959 1.01502 0
M  V30 2658 O 248.483 5.23952 2.25456 0
M  V30 2659 O 247.417 6.00053 0.47111 0
M  V30 2660 H 251.243 2.93675 -0.773853 0
M  V30 2661 H 248.828 1.42654 -0.443861 0
M  V30 2662 H 250.71 3.95365 1.45823 0
M  V30 2663 H 249.385 2.77582 1.66523 0
M  V30 2664 H 248.292 3.71335 -0.453969 0
M  V30 2665 H 249.625 4.88798 -0.577736 0
M  V30 2666 N 251.277 0.427512 1.51691 0
M  V30 2667 C 252.525 -0.141948 2.01601 0
M  V30 2668 C 252.846 -1.44067 1.31414 0
M  V30 2669 O 252.116 -1.90763 0.445658 0
M  V30 2670 H 250.696 -0.0554468 0.744939 0
M  V30 2671 H 253.358 0.567968 1.86441 0
M  V30 2672 H 252.454 -0.324913 3.10404 0
M  V30 2673 N 252.755 -1.56801 0.158532 0
M  V30 2674 C 253.705 -2.13923 -0.788738 0
M  V30 2675 C 254.689 -1.07006 -1.2016 0
M  V30 2676 O 255.881 -1.33159 -1.1661 0
M  V30 2677 C 253.01 -2.77348 -2.02319 0
M  V30 2678 C 252.096 -3.91404 -1.6329 0
M  V30 2679 N 252.487 -4.9677 -0.951463 0
M  V30 2680 C 250.785 -4.02326 -1.92482 0
M  V30 2681 C 251.486 -5.76698 -0.761221 0
M  V30 2682 N 250.462 -5.27859 -1.29869 0
M  V30 2683 H 254.264 -2.92757 -0.258995 0
M  V30 2684 H 251.778 -1.62344 -0.0426055 0
M  V30 2685 H 253.775 -3.16639 -2.71192 0
M  V30 2686 H 252.435 -1.99991 -2.558 0
M  V30 2687 H 253.446 -5.14284 -0.610928 0
M  V30 2688 H 250.123 -3.36059 -2.47732 0
M  V30 2689 H 251.513 -6.71529 -0.223284 0
M  V30 2690 N 254.233 0.115231 -1.57178 0
M  V30 2691 C 255.181 1.16014 -2.01602 0
M  V30 2692 C 256.175 1.42653 -0.913587 0
M  V30 2693 O 257.381 1.42571 -1.09879 0
M  V30 2694 H 253.756 0.391252 -0.642204 0
M  V30 2695 H 255.727 0.758998 -2.88586 0
M  V30 2696 C 254.476 2.47767 -2.4394 0
M  V30 2697 H 253.799 2.28108 -3.28339 0
M  V30 2698 H 255.239 3.19432 -2.78818 0
M  V30 2699 C 253.698 3.10617 -1.30455 0
M  V30 2700 O 254.228 3.96846 -0.622585 0
M  V30 2701 N 252.434 2.70553 -1.06064 0
M  V30 2702 H 251.981 2.00527 -1.61699 0
M  V30 2703 H 251.939 3.12934 -0.303284 0
M  V30 2704 N 255.711 1.52812 0.385517 0
M  V30 2705 C 256.957 1.68275 1.13188 0
M  V30 2706 C 257.29 0.423179 1.89533 0
M  V30 2707 O 256.565 -0.579113 1.85679 0
M  V30 2708 C 256.848 2.92001 2.1073 0
M  V30 2709 C 256.701 4.28067 1.38125 0
M  V30 2710 C 258.02 3.11283 3.11113 0
M  V30 2711 H 255.139 0.612352 0.410115 0
M  V30 2712 H 257.781 1.85415 0.414869 0
M  V30 2713 H 255.931 2.77519 2.71874 0
M  V30 2714 H 257.603 4.54324 0.799187 0
M  V30 2715 H 255.846 4.28388 0.683092 0
M  V30 2716 H 256.517 5.10733 2.09417 0
M  V30 2717 H 258.993 3.2482 2.6006 0
M  V30 2718 H 257.869 3.99325 3.76605 0
M  V30 2719 H 258.13 2.25656 3.80173 0
M  V30 2720 N 257.189 -0.644168 1.43834 0
M  V30 2721 C 258.152 -1.73857 1.49353 0
M  V30 2722 C 259.152 -1.56315 0.377112 0
M  V30 2723 O 260.342 -1.62048 0.639226 0
M  V30 2724 C 257.474 -3.12819 1.35488 0
M  V30 2725 H 258.667 -1.70342 2.46827 0
M  V30 2726 H 256.22 -0.856652 1.30733 0
M  V30 2727 H 256.955 -3.2194 0.390569 0
M  V30 2728 H 256.74 -3.26958 2.16428 0
M  V30 2729 H 258.23 -3.92606 1.42302 0
M  V30 2730 N 258.668 -1.30515 -0.883378 0
M  V30 2731 C 259.578 -1.18959 -2.02203 0
M  V30 2732 C 260.594 -0.109172 -1.73657 0
M  V30 2733 O 261.77 -0.324413 -1.9877 0
M  V30 2734 C 258.835 -0.883871 -3.35244 0
M  V30 2735 C 257.896 -2.04982 -3.77201 0
M  V30 2736 C 257.129 -1.75859 -5.03894 0
M  V30 2737 O 257.352 -0.687276 -5.66244 0
M  V30 2738 O 256.286 -2.61146 -5.42297 0
M  V30 2739 H 260.112 -2.14616 -2.1488 0
M  V30 2740 H 257.697 -1.10124 -1.0096 0
M  V30 2741 H 259.579 -0.728644 -4.15053 0
M  V30 2742 H 258.254 0.0427798 -3.23672 0
M  V30 2743 H 257.161 -2.26038 -2.9809 0
M  V30 2744 H 258.494 -2.95825 -3.93381 0
M  V30 2745 N 260.146 1.09593 -1.13257 0
M  V30 2746 C 261.076 2.18214 -0.830946 0
M  V30 2747 C 262.057 1.68812 0.208966 0
M  V30 2748 O 263.242 1.9408 0.0682666 0
M  V30 2749 C 260.372 3.46051 -0.294296 0
M  V30 2750 C 259.326 4.08778 -1.26826 0
M  V30 2751 C 258.652 5.31419 -0.591449 0
M  V30 2752 C 259.952 4.51476 -2.62615 0
M  V30 2753 H 261.646 2.43703 -1.73923 0
M  V30 2754 H 259.192 1.17128 -0.837675 0
M  V30 2755 H 261.145 4.2134 -0.0709606 0
M  V30 2756 H 259.869 3.20079 0.649366 0
M  V30 2757 H 258.528 3.35505 -1.47756 0
M  V30 2758 H 258.176 5.01727 0.357633 0
M  V30 2759 H 257.876 5.74341 -1.24123 0
M  V30 2760 H 259.4 6.09433 -0.377355 0
M  V30 2761 H 260.814 5.17999 -2.45663 0
M  V30 2762 H 259.211 5.05277 -3.23752 0
M  V30 2763 H 260.281 3.63962 -3.20406 0
M  V30 2764 N 261.624 0.925811 1.2754 0
M  V30 2765 C 262.554 0.440748 2.29303 0
M  V30 2766 C 263.535 -0.497971 1.62648 0
M  V30 2767 O 264.72 -0.403126 1.8997 0
M  V30 2768 C 261.85 -0.309048 3.45922 0
M  V30 2769 C 260.804 0.54166 4.24559 0
M  V30 2770 C 260.13 -0.337191 5.33636 0
M  V30 2771 C 261.43 1.80516 4.90114 0
M  V30 2772 H 263.124 1.29121 2.70126 0
M  V30 2773 H 260.67 0.622323 1.29858 0
M  V30 2774 H 262.623 -0.659315 4.1621 0
M  V30 2775 H 261.347 -1.19352 3.04011 0
M  V30 2776 H 260.006 0.874609 3.56014 0
M  V30 2777 H 259.654 -1.22056 4.87966 0
M  V30 2778 H 259.354 0.228497 5.87156 0
M  V30 2779 H 260.878 -0.683072 6.06767 0
M  V30 2780 H 262.292 1.52307 5.52698 0
M  V30 2781 H 260.689 2.3142 5.53683 0
M  V30 2782 H 261.759 2.52581 4.13921 0
M  V30 2783 N 263.102 -1.41638 0.69111 0
M  V30 2784 C 264.034 -2.29194 -0.0161523 0
M  V30 2785 C 265.047 -1.44549 -0.748955 0
M  V30 2786 O 266.236 -1.681 -0.6004 0
M  V30 2787 C 263.336 -3.22325 -1.0469 0
M  V30 2788 C 262.509 -4.35706 -0.384621 0
M  V30 2789 C 261.568 -5.09443 -1.31737 0
M  V30 2790 O 260.594 -5.63386 -0.811451 0
M  V30 2791 N 261.796 -5.16487 -2.64993 0
M  V30 2792 H 264.561 -2.90534 0.735523 0
M  V30 2793 H 262.122 -1.52742 0.53679 0
M  V30 2794 H 264.114 -3.68522 -1.67252 0
M  V30 2795 H 262.684 -2.62323 -1.70015 0
M  V30 2796 H 261.904 -3.91948 0.420804 0
M  V30 2797 H 263.192 -5.08743 0.0760765 0
M  V30 2798 H 262.59 -4.741 -3.08619 0
M  V30 2799 H 261.147 -5.66276 -3.22761 0
M  V30 2800 N 264.58 -0.43555 -1.51462 0
M  V30 2801 C 265.808 0.130242 -2.0649 0
M  V30 2802 C 266.223 1.36614 -1.30315 0
M  V30 2803 O 265.58 1.78869 -0.362223 0
M  V30 2804 C 265.631 0.454253 -3.58635 0
M  V30 2805 O 265.352 -0.73259 -4.31931 0
M  V30 2806 C 266.853 1.07091 -4.3017 0
M  V30 2807 H 264.073 0.00871669 -0.670943 0
M  V30 2808 H 266.617 -0.614117 -1.95061 0
M  V30 2809 H 264.772 1.14851 -3.69984 0
M  V30 2810 H 265.186 -0.455787 -5.22516 0
M  V30 2811 H 266.66 1.24764 -5.37716 0
M  V30 2812 H 267.137 2.05144 -3.88346 0
M  V30 2813 H 267.743 0.416089 -4.2326 0
M  V30 2814 N 266.058 1.56714 -0.166846 0
M  V30 2815 C 266.968 2.21331 0.777791 0
M  V30 2816 C 267.984 1.20358 1.25658 0
M  V30 2817 O 269.16 1.53005 1.30964 0
M  V30 2818 C 266.225 2.83787 1.99163 0
M  V30 2819 C 265.286 3.99947 1.56016 0
M  V30 2820 C 264.519 4.59415 2.71613 0
M  V30 2821 O 264.742 4.17769 3.88362 0
M  V30 2822 O 263.676 5.49359 2.45945 0
M  V30 2823 H 267.502 3.02605 0.257636 0
M  V30 2824 H 265.087 1.49275 0.0611393 0
M  V30 2825 H 266.969 3.23405 2.70161 0
M  V30 2826 H 265.644 2.05513 2.50092 0
M  V30 2827 H 264.551 3.65007 0.819809 0
M  V30 2828 H 265.884 4.79801 1.09782 0
M  V30 2829 N 267.536 -0.106894 1.57237 0
M  V30 2830 C 268.466 -1.13148 2.04254 0
M  V30 2831 C 269.447 -1.42476 0.929224 0
M  V30 2832 O 270.632 -1.52709 1.19973 0
M  V30 2833 C 267.762 -2.4545 2.45706 0
M  V30 2834 C 266.716 -2.30558 3.60592 0
M  V30 2835 C 266.042 -3.67931 3.87983 0
M  V30 2836 C 267.342 -1.75597 4.91897 0
M  V30 2837 H 269.036 -0.740374 2.90101 0
M  V30 2838 H 266.582 -0.354696 1.39563 0
M  V30 2839 H 268.535 -3.17389 2.77205 0
M  V30 2840 H 267.259 -2.86475 1.56843 0
M  V30 2841 H 265.918 -1.61067 3.29322 0
M  V30 2842 H 265.566 -4.06462 2.96306 0
M  V30 2843 H 265.266 -3.58817 4.65322 0
M  V30 2844 H 266.79 -4.41356 4.21945 0
M  V30 2845 H 268.204 -2.37364 5.21854 0
M  V30 2846 H 266.601 -1.77272 5.73319 0
M  V30 2847 H 267.671 -0.714451 4.79608 0
M  V30 2848 N 269.014 -1.53014 -0.377408 0
M  V30 2849 C 270.291 -1.59215 -1.13622 0
M  V30 2850 C 270.671 -0.392407 -2.07421 0
M  V30 2851 O 270.019 0.618342 -2.19975 0
M  V30 2852 C 270.229 -2.93669 -1.88573 0
M  V30 2853 C 271.577 -3.47822 -2.43526 0
M  V30 2854 O 272.601 -2.9562 -1.98715 0
M  V30 2855 O 271.46 -4.39055 -3.25412 0
M  V30 2856 H 268.554 -0.642625 -0.52054 0
M  V30 2857 H 271.1 -1.65353 -0.381625 0
M  V30 2858 H 269.872 -3.7243 -1.20048 0
M  V30 2859 H 269.495 -2.90968 -2.70968 0
M  V30 2860 N 270.492 0.636531 -1.44174 0
M  V30 2861 C 271.439 1.74875 -1.50624 0
M  V30 2862 C 272.409 1.62275 -0.35442 0
M  V30 2863 O 273.594 1.82276 -0.563908 0
M  V30 2864 C 270.734 3.13102 -1.45125 0
M  V30 2865 C 269.847 3.36717 -2.7064 0
M  V30 2866 C 268.982 4.64885 -2.57013 0
M  V30 2867 C 268.021 4.8166 -3.77717 0
M  V30 2868 N 267.158 6.01101 -3.62798 0
M  V30 2869 H 271.998 1.68697 -2.45653 0
M  V30 2870 H 269.535 0.823004 -1.21922 0
M  V30 2871 H 271.493 3.93034 -1.39929 0
M  V30 2872 H 270.123 3.18308 -0.536671 0
M  V30 2873 H 269.175 2.50763 -2.86046 0
M  V30 2874 H 270.487 3.44993 -3.60252 0
M  V30 2875 H 269.641 5.52969 -2.49619 0
M  V30 2876 H 268.38 4.58957 -1.64953 0
M  V30 2877 H 267.385 3.92007 -3.85501 0
M  V30 2878 H 268.61 4.89406 -4.70807 0
M  V30 2879 H 266.556 5.96273 -2.73486 0
M  V30 2880 H 266.473 6.10409 -4.46023 0
M  V30 2881 H 267.741 6.91761 -3.59286 0
M  V30 2882 N 271.97 1.30982 0.876444 0
M  V30 2883 C 273.386 1.09498 1.16113 0
M  V30 2884 C 273.586 -0.13875 2.01022 0
M  V30 2885 O 272.642 -0.829935 2.38471 0
M  V30 2886 C 273.955 2.36308 1.85954 0
M  V30 2887 C 275.503 2.41856 1.98683 0
M  V30 2888 C 275.978 3.6853 2.71937 0
M  V30 2889 N 277.469 3.69387 2.79477 0
M  V30 2890 C 278.204 4.64096 3.36753 0
M  V30 2891 N 277.7 5.69155 3.95012 0
M  V30 2892 N 279.493 4.51626 3.3465 0
M  V30 2893 H 271.644 2.10118 0.310494 0
M  V30 2894 H 273.907 0.926634 0.200131 0
M  V30 2895 H 273.613 3.26388 1.31011 0
M  V30 2896 H 273.487 2.4561 2.86278 0
M  V30 2897 H 275.874 1.52249 2.52793 0
M  V30 2898 H 275.955 2.36523 0.9742 0
M  V30 2899 H 275.599 4.58499 2.18496 0
M  V30 2900 H 275.529 3.71127 3.73593 0
M  V30 2901 H 278.02 2.93438 2.38123 0
M  V30 2902 H 278.333 6.3751 4.36808 0
M  V30 2903 H 276.678 5.72937 3.93406 0
M  V30 2904 H 279.869 3.68728 2.8837 0
M  V30 2905 H 280.042 5.25614 3.7899 0
M  V30 2906 N 273.449 -1.08991 1.13837 0
M  V30 2907 C 274.359 -2.19301 0.833333 0
M  V30 2908 C 275.375 -1.73026 -0.183847 0
M  V30 2909 O 276.551 -2.01395 -0.0138092 0
M  V30 2910 C 273.616 -3.45323 0.308651 0
M  V30 2911 C 272.677 -4.06255 1.38764 0
M  V30 2912 C 271.91 -5.26262 0.887896 0
M  V30 2913 O 272.133 -5.69747 -0.27287 0
M  V30 2914 O 271.067 -5.78435 1.66421 0
M  V30 2915 H 274.893 -2.47854 1.75506 0
M  V30 2916 H 272.478 -1.18012 0.916166 0
M  V30 2917 H 274.36 -4.21394 0.0216739 0
M  V30 2918 H 273.035 -3.18362 -0.585431 0
M  V30 2919 H 271.942 -3.318 1.72799 0
M  V30 2920 H 273.275 -4.37452 2.25602 0
M  V30 2921 N 274.927 -0.932562 -1.27047 0
M  V30 2922 C 275.857 -0.452902 -2.29066 0
M  V30 2923 C 276.838 0.489338 -1.62909 0
M  V30 2924 O 278.023 0.393046 -1.90181 0
M  V30 2925 C 275.153 0.290698 -3.46081 0
M  V30 2926 C 274.107 -0.564168 -4.24265 0
M  V30 2927 C 273.433 0.308886 -5.33807 0
M  V30 2928 C 274.733 -1.83112 -4.89149 0
M  V30 2929 H 276.427 -1.30552 -2.69437 0
M  V30 2930 H 273.973 -0.629201 -1.29526 0
M  V30 2931 H 275.926 0.637233 -4.16554 0
M  V30 2932 H 274.65 1.17738 -3.0464 0
M  V30 2933 H 273.309 -0.893477 -3.55545 0
M  V30 2934 H 272.957 1.19467 -4.88607 0
M  V30 2935 H 272.657 -0.259633 -5.87026 0
M  V30 2936 H 274.181 0.650884 -6.07121 0
M  V30 2937 H 275.595 -1.55236 -5.51883 0
M  V30 2938 H 273.992 -2.34353 -5.52448 0
M  V30 2939 H 275.062 -2.54772 -4.12576 0
M  V30 2940 N 276.405 1.4127 -0.698611 0
M  V30 2941 C 277.353 2.32588 -0.023855 0
M  V30 2942 C 278.347 1.51128 0.765292 0
M  V30 2943 O 279.553 1.67043 0.670571 0
M  V30 2944 H 275.928 0.751918 0.0110871 0
M  V30 2945 H 277.899 2.87167 -0.811031 0
M  V30 2946 C 276.648 3.35947 0.896369 0
M  V30 2947 H 275.971 3.98684 0.298548 0
M  V30 2948 H 277.411 4.02376 1.33676 0
M  V30 2949 C 275.87 2.70076 2.01396 0
M  V30 2950 O 276.4 2.55093 3.10307 0
M  V30 2951 N 274.606 2.28724 1.79259 0
M  V30 2952 H 274.153 2.4111 0.906841 0
M  V30 2953 H 274.111 1.84986 2.54219 0
M  V30 2954 N 277.883 0.443576 1.51229 0
M  V30 2955 C 279.129 -0.120975 2.02439 0
M  V30 2956 C 279.462 -1.41815 1.32674 0
M  V30 2957 O 278.737 -1.89373 0.443622 0
M  V30 2958 C 279.02 -0.333291 3.58554 0
M  V30 2959 C 278.873 0.982968 4.38928 0
M  V30 2960 C 280.192 -1.10028 4.26124 0
M  V30 2961 H 277.311 -0.0424923 0.735774 0
M  V30 2962 H 279.953 0.583794 1.80809 0
M  V30 2963 H 278.103 -0.933614 3.77115 0
M  V30 2964 H 279.775 1.61775 4.32003 0
M  V30 2965 H 278.018 1.58611 4.03763 0
M  V30 2966 H 278.689 0.788379 5.46341 0
M  V30 2967 H 281.165 -0.591711 4.11871 0
M  V30 2968 H 280.041 -1.21761 5.35225 0
M  V30 2969 H 280.302 -2.12996 3.87408 0
M  V30 2970 N 279.361 -1.56624 0.175154 0
M  V30 2971 C 280.308 -2.18149 -0.753634 0
M  V30 2972 C 281.278 -1.12265 -1.22417 0
M  V30 2973 O 282.463 -1.40432 -1.29165 0
M  V30 2974 C 279.603 -2.82933 -1.97592 0
M  V30 2975 C 278.716 -4.03289 -1.5486 0
M  V30 2976 C 277.851 -4.55988 -2.72485 0
M  V30 2977 C 276.89 -5.68746 -2.26262 0
M  V30 2978 N 276.027 -6.15938 -3.36994 0
M  V30 2979 H 280.867 -2.9717 -0.222195 0
M  V30 2980 H 278.404 -1.46774 -0.0979422 0
M  V30 2981 H 280.362 -3.18653 -2.69288 0
M  V30 2982 H 278.992 -2.06509 -2.481 0
M  V30 2983 H 278.044 -3.73364 -0.728246 0
M  V30 2984 H 279.356 -4.849 -1.16933 0
M  V30 2985 H 278.51 -4.9391 -3.52332 0
M  V30 2986 H 277.249 -3.73443 -3.13674 0
M  V30 2987 H 276.254 -5.30372 -1.44863 0
M  V30 2988 H 277.479 -6.53095 -1.86127 0
M  V30 2989 H 275.425 -5.36321 -3.77751 0
M  V30 2990 H 275.342 -6.92548 -3.03172 0
M  V30 2991 H 276.61 -6.58511 -4.17114 0
M  V30 2992 N 280.839 0.0985539 -1.57292 0
M  V30 2993 C 282.079 0.808332 -1.87737 0
M  V30 2994 C 282.443 1.7607 -0.76572 0
M  V30 2995 O 283.644 2.51358 -0.952499 0
M  V30 2996 C 281.915 1.52093 -3.23423 0
M  V30 2997 S 283.474 2.26947 -3.75554 0
M  V30 2998 H 280.292 0.269377 -0.657995 0
M  V30 2999 H 282.894 0.0656269 -1.9539 0
M  V30 3000 H 281.598 0.81363 -4.02254 0
M  V30 3001 H 281.129 2.30361 -3.189 0
M  V30 3002 H 283.144 3.53027 -3.48692 0
M  V30 3003 N 282.317 1.53212 0.369288 0
M  V30 3004 C 283.563 1.69466 1.11397 0
M  V30 3005 C 283.896 0.443257 1.89074 0
M  V30 3006 O 283.171 -0.559386 1.86282 0
M  V30 3007 C 283.454 2.9422 2.07621 0
M  V30 3008 C 283.307 4.29508 1.33577 0
M  V30 3009 C 284.626 3.14565 3.07794 0
M  V30 3010 H 281.745 0.616667 0.403597 0
M  V30 3011 H 284.387 1.85845 0.395179 0
M  V30 3012 H 282.537 2.80387 2.68916 0
M  V30 3013 H 284.209 4.55147 0.750955 0
M  V30 3014 H 282.452 4.29088 0.637618 0
M  V30 3015 H 283.123 5.12926 2.03989 0
M  V30 3016 H 285.599 3.2756 2.56601 0
M  V30 3017 H 284.475 4.03297 3.72348 0
M  V30 3018 H 284.736 2.29675 3.77759 0
M  V30 3019 N 283.795 -0.628877 1.44509 0
M  V30 3020 C 284.758 -1.72263 1.51188 0
M  V30 3021 C 285.758 -1.55907 0.39367 0
M  V30 3022 O 286.948 -1.61361 0.656377 0
M  V30 3023 C 284.08 -3.11365 1.38798 0
M  V30 3024 H 285.273 -1.67714 2.4862 0
M  V30 3025 H 282.826 -0.842737 1.31634 0
M  V30 3026 H 283.561 -3.21507 0.424693 0
M  V30 3027 H 283.346 -3.24644 2.19884 0
M  V30 3028 H 284.836 -3.91075 1.46458 0
M  V30 3029 N 285.273 -1.31445 -0.869486 0
M  V30 3030 C 286.519 -1.21337 -1.62496 0
M  V30 3031 C 286.852 0.227872 -1.92858 0
M  V30 3032 O 286.127 1.16094 -1.56053 0
M  V30 3033 C 286.41 -2.05814 -2.95487 0
M  V30 3034 C 286.263 -3.5824 -2.72 0
M  V30 3035 C 287.582 -1.9079 -3.96594 0
M  V30 3036 H 284.701 -0.442135 -0.589649 0
M  V30 3037 H 287.343 -1.6124 -1.00507 0
M  V30 3038 H 285.493 -1.71913 -3.48394 0
M  V30 3039 H 287.165 -4.0228 -2.25762 0
M  V30 3040 H 285.408 -3.81647 -2.06224 0
M  V30 3041 H 286.079 -4.12657 -3.66631 0
M  V30 3042 H 288.555 -2.20459 -3.52898 0
M  V30 3043 H 287.431 -2.52199 -4.87531 0
M  V30 3044 H 287.692 -0.871341 -4.33428 0
M  V30 3045 N 286.751 1.08385 -1.14413 0
M  V30 3046 C 287.997 1.81044 -0.913834 0
M  V30 3047 C 288.33 1.86004 0.558209 0
M  V30 3048 O 287.605 1.33606 1.4135 0
M  V30 3049 C 287.888 3.26648 -1.51569 0
M  V30 3050 C 287.741 3.29895 -3.0576 0
M  V30 3051 C 289.06 4.23629 -1.19273 0
M  V30 3052 H 286.179 0.65727 -0.333414 0
M  V30 3053 H 288.821 1.26896 -1.41412 0
M  V30 3054 H 286.971 3.72889 -1.09023 0
M  V30 3055 H 288.643 2.91977 -3.57137 0
M  V30 3056 H 286.886 2.69163 -3.40197 0
M  V30 3057 H 287.557 4.32516 -3.42977 0
M  V30 3058 H 290.033 3.85727 -1.56057 0
M  V30 3059 H 288.909 5.23822 -1.64017 0
M  V30 3060 H 289.17 4.41968 -0.108068 0
M  V30 3061 N 288.23 0.939286 1.26551 0
M  V30 3062 C 289.178 0.43815 2.28436 0
M  V30 3063 C 290.172 -0.483587 1.62351 0
M  V30 3064 O 291.378 -0.362009 1.76322 0
M  V30 3065 H 287.753 0.123149 0.741848 0
M  V30 3066 H 289.724 1.31002 2.68106 0
M  V30 3067 C 288.473 -0.283052 3.46546 0
M  V30 3068 H 287.796 0.417043 3.97619 0
M  V30 3069 H 289.236 -0.597948 4.19763 0
M  V30 3070 C 287.695 -1.50018 3.01656 0
M  V30 3071 O 288.225 -2.59855 3.0633 0
M  V30 3072 N 286.431 -1.35608 2.57019 0
M  V30 3073 H 285.978 -0.46244 2.53415 0
M  V30 3074 H 285.936 -2.17165 2.27347 0
M  V30 3075 N 289.708 -1.40897 0.706093 0
M  V30 3076 C 290.985 -1.94868 0.169099 0
M  V30 3077 C 291.365 -1.64485 -1.32318 0
M  V30 3078 O 290.713 -0.95744 -2.07474 0
M  V30 3079 C 290.923 -3.45798 0.471654 0
M  V30 3080 C 292.271 -4.22663 0.405127 0
M  V30 3081 O 293.295 -3.53865 0.407168 0
M  V30 3082 O 292.154 -5.45216 0.374383 0
M  V30 3083 H 289.248 -0.82673 0.0211352 0
M  V30 3084 H 291.794 -1.50558 0.782976 0
M  V30 3085 H 290.566 -3.61235 1.50416 0
M  V30 3086 H 290.189 -3.97225 -0.172666 0
M  V30 3087 N 291.186 -0.45159 -1.50991 0
M  V30 3088 C 292.414 0.108334 -2.06616 0
M  V30 3089 C 292.829 1.35224 -1.31757 0
M  V30 3090 O 292.186 1.78475 -0.381174 0
M  V30 3091 C 292.237 0.41619 -3.59096 0
M  V30 3092 O 291.958 -0.778361 -4.3113 0
M  V30 3093 C 293.459 1.02523 -4.31282 0
M  V30 3094 H 290.679 0.00159995 -0.670998 0
M  V30 3095 H 293.223 -0.634771 -1.94399 0
M  V30 3096 H 291.378 1.10921 -3.71181 0
M  V30 3097 H 291.792 -0.511181 -5.22003 0
M  V30 3098 H 293.266 1.19053 -5.39009 0
M  V30 3099 H 293.743 2.01013 -3.905 0
M  V30 3100 H 294.349 0.371173 -4.23677 0
M  V30 3101 N 292.664 1.56529 -0.183458 0
M  V30 3102 C 293.91 1.97537 0.459036 0
M  V30 3103 C 294.243 1.06989 1.62071 0
M  V30 3104 O 293.518 0.11948 1.94133 0
M  V30 3105 C 293.801 3.47874 0.930368 0
M  V30 3106 C 293.654 4.492 -0.232317 0
M  V30 3107 C 294.973 4.01612 1.79989 0
M  V30 3108 H 292.092 0.718204 0.165383 0
M  V30 3109 H 294.734 1.88042 -0.272038 0
M  V30 3110 H 292.884 3.56095 1.55333 0
M  V30 3111 H 294.556 4.53027 -0.86972 0
M  V30 3112 H 292.799 4.24657 -0.885928 0
M  V30 3113 H 293.47 5.51823 0.139796 0
M  V30 3114 H 295.946 3.96097 1.27461 0
M  V30 3115 H 294.822 5.07195 2.09867 0
M  V30 3116 H 295.083 3.46163 2.74998 0
M  V30 3117 N 294.142 -0.090211 1.57342 0
M  V30 3118 C 295.39 -0.791241 1.85967 0
M  V30 3119 C 295.711 -1.7903 0.772859 0
M  V30 3120 O 294.981 -1.94872 -0.200398 0
M  V30 3121 H 293.561 -0.295205 0.686195 0
M  V30 3122 H 296.223 -0.0706782 1.94772 0
M  V30 3123 H 295.319 -1.31882 2.82867 0
M  V30 3124 N 295.62 -1.53406 -0.361157 0
M  V30 3125 C 296.848 -1.73717 -1.12383 0
M  V30 3126 C 297.263 -0.468161 -1.82904 0
M  V30 3127 O 296.62 0.559198 -1.73722 0
M  V30 3128 C 296.671 -2.90558 -2.15078 0
M  V30 3129 O 296.392 -4.12549 -1.47428 0
M  V30 3130 C 297.893 -3.22777 -3.03858 0
M  V30 3131 H 295.113 -0.580896 -0.335858 0
M  V30 3132 H 297.657 -2.00167 -0.418728 0
M  V30 3133 H 295.812 -2.66489 -2.8118 0
M  V30 3134 H 296.226 -4.78009 -2.15887 0
M  V30 3135 H 297.7 -4.07927 -3.71887 0
M  V30 3136 H 298.177 -2.38329 -3.68912 0
M  V30 3137 H 298.783 -3.48787 -2.43367 0
M  V30 3138 N 297.098 0.621204 -1.44841 0
M  V30 3139 C 298.028 1.74366 -1.55303 0
M  V30 3140 C 299.009 1.65199 -0.405385 0
M  V30 3141 O 300.194 1.83807 -0.626787 0
M  V30 3142 C 297.324 3.12931 -1.50637 0
M  V30 3143 C 296.278 3.36896 -2.63979 0
M  V30 3144 C 295.604 4.75594 -2.44366 0
M  V30 3145 C 296.904 3.28483 -4.06074 0
M  V30 3146 H 298.598 1.65867 -2.49256 0
M  V30 3147 H 296.144 0.796558 -1.19962 0
M  V30 3148 H 298.097 3.9124 -1.56555 0
M  V30 3149 H 296.821 3.22237 -0.532057 0
M  V30 3150 H 295.48 2.60972 -2.57467 0
M  V30 3151 H 295.128 4.81616 -1.45105 0
M  V30 3152 H 294.828 4.92586 -3.20364 0
M  V30 3153 H 296.352 5.5612 -2.52117 0
M  V30 3154 H 297.766 3.96684 -4.13902 0
M  V30 3155 H 296.163 3.57008 -4.82354 0
M  V30 3156 H 297.233 2.26133 -4.28943 0
M  V30 3157 N 298.576 1.31904 0.862503 0
M  V30 3158 C 299.539 1.20131 1.95195 0
M  V30 3159 C 300.539 0.126409 1.60302 0
M  V30 3160 O 301.729 0.376234 1.70089 0
M  V30 3161 C 298.861 0.845691 3.30244 0
M  V30 3162 H 300.054 2.16943 2.07064 0
M  V30 3163 H 297.607 1.15622 1.05172 0
M  V30 3164 H 298.342 -0.120957 3.24074 0
M  V30 3165 H 298.127 1.62276 3.56944 0
M  V30 3166 H 299.617 0.787418 4.10109 0
M  V30 3167 N 300.054 -1.07777 1.14986 0
M  V30 3168 C 301.279 -1.84558 0.946213 0
M  V30 3169 C 301.704 -1.81323 -0.500362 0
M  V30 3170 O 301.062 -1.20301 -1.35637 0
M  V30 3171 C 301.11 -3.29736 1.45968 0
M  V30 3172 O 300.214 -4.07149 0.65601 0
M  V30 3173 H 299.555 -0.571641 0.33782 0
M  V30 3174 H 302.085 -1.35991 1.52865 0
M  V30 3175 H 302.095 -3.80574 1.47063 0
M  V30 3176 H 300.77 -3.31406 2.51283 0
M  V30 3177 H 299.347 -3.65994 0.714322 0
M  V30 3178 N 301.532 -0.945985 -1.26051 0
M  V30 3179 C 302.772 -0.603665 -1.95282 0
M  V30 3180 C 303.136 0.842377 -1.72534 0
M  V30 3181 O 304.337 1.29387 -2.35611 0
M  V30 3182 C 302.608 -0.942292 -3.44754 0
M  V30 3183 S 304.167 -0.711242 -4.32997 0
M  V30 3184 H 300.985 -0.222176 -0.675395 0
M  V30 3185 H 303.587 -1.21832 -1.52896 0
M  V30 3186 H 302.291 -1.99203 -3.58812 0
M  V30 3187 H 301.822 -0.317546 -3.92116 0
M  V30 3188 H 303.837 0.422221 -4.944 0
M  V30 3189 N 303.011 1.40521 -0.713556 0
M  V30 3190 C 303.974 2.29098 -0.0684347 0
M  V30 3191 C 304.974 1.45268 0.689472 0
M  V30 3192 O 306.164 1.66205 0.521677 0
M  V30 3193 C 303.296 3.28446 0.913024 0
M  V30 3194 H 304.489 2.87645 -0.84855 0
M  V30 3195 H 302.042 1.48809 -0.47809 0
M  V30 3196 H 302.777 2.74913 1.72027 0
M  V30 3197 H 302.562 3.90327 0.372472 0
M  V30 3198 H 304.052 3.94777 1.36165 0
M  V30 3199 N 304.489 0.459591 1.5075 0
M  V30 3200 C 305.419 -0.330644 2.31147 0
M  V30 3201 C 306.4 -1.00087 1.37538 0
M  V30 3202 O 307.585 -1.00025 1.66459 0
M  V30 3203 C 304.715 -1.41958 3.16962 0
M  V30 3204 C 303.669 -0.871608 4.19031 0
M  V30 3205 C 302.995 -2.05797 4.9351 0
M  V30 3206 C 304.295 0.109251 5.22186 0
M  V30 3207 H 305.989 0.340336 2.97459 0
M  V30 3208 H 303.535 0.165119 1.4305 0
M  V30 3209 H 305.488 -1.9798 3.71997 0
M  V30 3210 H 304.212 -2.11917 2.48513 0
M  V30 3211 H 302.871 -0.333442 3.6508 0
M  V30 3212 H 302.519 -2.74427 4.21544 0
M  V30 3213 H 302.219 -1.6976 5.62544 0
M  V30 3214 H 303.743 -2.62331 5.51375 0
M  V30 3215 H 305.157 -0.361405 5.7216 0
M  V30 3216 H 303.554 0.383316 5.98875 0
M  V30 3217 H 304.624 1.03887 4.73641 0
M  V30 3218 N 305.967 -1.56429 0.191757 0
M  V30 3219 C 306.877 -2.22541 -0.742481 0
M  V30 3220 C 307.893 -1.22342 -1.23727 0
M  V30 3221 O 309.069 -1.55069 -1.28513 0
M  V30 3222 C 306.134 -2.8692 -1.94623 0
M  V30 3223 C 305.195 -4.02378 -1.49633 0
M  V30 3224 C 304.428 -4.63678 -2.6427 0
M  V30 3225 O 304.651 -4.23895 -3.81666 0
M  V30 3226 O 303.585 -5.53202 -2.37174 0
M  V30 3227 H 307.411 -3.02977 -0.209462 0
M  V30 3228 H 304.996 -1.49353 -0.0373832 0
M  V30 3229 H 306.878 -3.27663 -2.64982 0
M  V30 3230 H 305.553 -2.09466 -2.46791 0
M  V30 3231 H 304.46 -3.66265 -0.761636 0
M  V30 3232 H 305.793 -4.81487 -1.02134 0
M  V30 3233 N 307.445 0.0818655 -1.57387 0
M  V30 3234 C 308.722 0.815343 -1.77796 0
M  V30 3235 C 309.102 1.96289 -0.77679 0
M  V30 3236 O 308.45 2.27691 0.192106 0
M  V30 3237 C 308.66 1.29765 -3.23978 0
M  V30 3238 C 310.008 1.7351 -3.8753 0
M  V30 3239 O 311.032 1.39356 -3.27808 0
M  V30 3240 O 309.891 2.36708 -4.92576 0
M  V30 3241 H 306.985 0.389914 -0.729312 0
M  V30 3242 H 309.531 0.0627213 -1.69584 0
M  V30 3243 H 308.303 0.47608 -3.88393 0
M  V30 3244 H 307.926 2.11189 -3.36875 0
M  V30 3245 N 308.923 1.53595 0.353017 0
M  V30 3246 C 310.334 1.61937 0.929153 0
M  V30 3247 C 310.685 0.494686 1.89861 0
M  V30 3248 O 309.81 -0.377017 2.1309 0
M  V30 3249 C 310.405 2.93526 1.69199 0
M  V30 3250 C 308.964 3.04161 2.21727 0
M  V30 3251 C 308.111 2.57322 1.03348 0
M  V30 3252 H 311.062 1.58155 0.131431 0
M  V30 3253 H 311.083 2.82034 2.55416 0
M  V30 3254 H 310.595 3.75362 0.986144 0
M  V30 3255 H 308.696 2.26938 2.95516 0
M  V30 3256 H 308.809 4.09465 2.48748 0
M  V30 3257 H 307.173 2.12499 1.40414 0
M  V30 3258 H 307.956 3.41588 0.342428 0
M  V30 3259 N 310.401 -0.613514 1.45168 0
M  V30 3260 C 311.348 -1.72456 1.53387 0
M  V30 3261 C 312.318 -1.6169 0.380191 0
M  V30 3262 O 313.503 -1.81356 0.592836 0
M  V30 3263 C 310.643 -3.10753 1.50088 0
M  V30 3264 C 309.756 -3.32368 2.75963 0
M  V30 3265 C 308.891 -4.60737 2.64376 0
M  V30 3266 C 307.93 -4.7559 3.85332 0
M  V30 3267 N 307.067 -5.95253 3.72315 0
M  V30 3268 H 311.907 -1.64768 2.48305 0
M  V30 3269 H 309.444 -0.803503 1.23216 0
M  V30 3270 H 311.402 -3.90758 1.46164 0
M  V30 3271 H 310.032 -3.17413 0.587243 0
M  V30 3272 H 309.084 -2.4618 2.89999 0
M  V30 3273 H 310.396 -3.39218 3.65695 0
M  V30 3274 H 309.55 -5.48928 2.58385 0
M  V30 3275 H 308.289 -4.56275 1.72233 0
M  V30 3276 H 307.294 -3.85824 3.91688 0
M  V30 3277 H 308.519 -4.81854 4.78533 0
M  V30 3278 H 306.465 -5.91847 2.82937 0
M  V30 3279 H 306.382 -6.03236 4.55677 0
M  V30 3280 H 307.65 -6.85958 3.70246 0
M  V30 3281 N 311.879 -1.3236 -0.855495 0
M  V30 3282 C 313.119 -1.24187 -1.62348 0
M  V30 3283 C 313.483 0.193597 -1.91021 0
M  V30 3284 O 314.684 0.39904 -2.65822 0
M  V30 3285 C 312.955 -2.07661 -2.90881 0
M  V30 3286 S 314.514 -2.16505 -3.81669 0
M  V30 3287 H 311.332 -0.442076 -0.556857 0
M  V30 3288 H 313.934 -1.67198 -1.01317 0
M  V30 3289 H 312.638 -3.11018 -2.67761 0
M  V30 3290 H 312.169 -1.65425 -3.56929 0
M  V30 3291 H 314.184 -1.31394 -4.78487 0
M  V30 3292 N 313.357 1.07166 -1.15556 0
M  V30 3293 C 314.32 2.12589 -0.856644 0
M  V30 3294 C 315.32 1.6015 0.14444 0
M  V30 3295 O 316.51 1.7399 -0.0854163 0
M  V30 3296 C 313.642 3.39753 -0.279405 0
M  V30 3297 H 314.835 2.40539 -1.79112 0
M  V30 3298 H 312.388 1.23086 -0.963298 0
M  V30 3299 H 313.123 3.17447 0.663174 0
M  V30 3300 H 312.908 3.79117 -1.00063 0
M  V30 3301 H 314.398 4.17507 -0.0879113 0
M  V30 3302 N 314.835 0.952656 1.25548 0
M  V30 3303 C 316.081 0.607272 1.93494 0
M  V30 3304 C 316.414 -0.853245 1.74452 0
M  V30 3305 O 315.689 -1.61194 1.08843 0
M  V30 3306 C 315.972 0.96435 3.46947 0
M  V30 3307 C 315.825 2.48045 3.75225 0
M  V30 3308 C 317.144 0.487987 4.37386 0
M  V30 3309 H 314.263 0.222096 0.702739 0
M  V30 3310 H 316.905 1.18895 1.48203 0
M  V30 3311 H 315.055 0.469361 3.85654 0
M  V30 3312 H 316.727 3.04905 3.46166 0
M  V30 3313 H 314.97 2.919 3.209 0
M  V30 3314 H 315.641 2.6808 4.82532 0
M  V30 3315 H 318.117 0.912558 4.0597 0
M  V30 3316 H 316.993 0.766547 5.43521 0
M  V30 3317 H 317.254 -0.612063 4.37843 0
M  V30 3318 N 316.313 -1.40141 0.720998 0
M  V30 3319 C 317.561 -2.0039 0.262323 0
M  V30 3320 C 317.882 -1.57469 -1.15015 0
M  V30 3321 O 317.152 -0.816582 -1.78069 0
M  V30 3322 H 315.732 -0.741063 0.093996 0
M  V30 3323 H 318.394 -1.71398 0.927835 0
M  V30 3324 H 317.49 -3.10658 0.299671 0
M  V30 3325 N 317.792 -0.46758 -1.50504 0
M  V30 3326 C 318.722 0.318381 -2.31319 0
M  V30 3327 C 319.703 0.993564 -1.38066 0
M  V30 3328 O 320.888 0.991411 -1.66987 0
M  V30 3329 C 318.018 1.40275 -3.17711 0
M  V30 3330 C 316.972 0.849373 -4.19487 0
M  V30 3331 C 316.298 2.03177 -4.94594 0
M  V30 3332 C 317.598 -0.136942 -5.2212 0
M  V30 3333 H 319.292 -0.356106 -2.97275 0
M  V30 3334 H 316.838 -0.172703 -1.42961 0
M  V30 3335 H 318.791 1.96004 -3.73042 0
M  V30 3336 H 317.515 2.10596 -2.49634 0
M  V30 3337 H 316.174 0.314076 -3.65252 0
M  V30 3338 H 315.822 2.72187 -4.22993 0
M  V30 3339 H 315.522 1.66774 -5.63436 0
M  V30 3340 H 317.046 2.59403 -5.52759 0
M  V30 3341 H 318.46 0.331056 -5.72343 0
M  V30 3342 H 316.857 -0.41507 -5.98663 0
M  V30 3343 H 317.927 -1.06398 -4.73083 0
M  V30 3344 N 319.27 1.56325 -0.20005 0
M  V30 3345 C 320.519 1.96895 0.437652 0
M  V30 3346 C 320.832 1.08999 1.62415 0
M  V30 3347 O 322.038 1.39372 2.32997 0
M  V30 3348 C 320.494 3.50198 0.830025 0
M  V30 3349 C 320.102 4.46765 -0.332461 0
M  V30 3350 C 321.846 3.99526 1.43453 0
M  V30 3351 C 319.753 5.91344 0.0811468 0
M  V30 3352 H 318.683 0.735209 0.167282 0
M  V30 3353 H 321.334 1.81148 -0.292853 0
M  V30 3354 H 319.716 3.61467 1.61734 0
M  V30 3355 H 320.89 4.47231 -1.11 0
M  V30 3356 H 319.205 4.07657 -0.848789 0
M  V30 3357 H 321.802 5.05025 1.75652 0
M  V30 3358 H 322.145 3.44122 2.34277 0
M  V30 3359 H 322.678 3.91393 0.71109 0
M  V30 3360 H 319.417 6.50685 -0.793033 0
M  V30 3361 H 318.937 5.94121 0.823445 0
M  V30 3362 H 320.616 6.44945 0.515252 0
M  V30 3363 N 320.748 -0.0735177 1.57428 0
M  V30 3364 C 321.994 -0.774145 1.87443 0
M  V30 3365 C 322.327 -1.77311 0.792103 0
M  V30 3366 O 321.602 -1.93492 -0.197793 0
M  V30 3367 C 321.885 -1.48367 3.28115 0
M  V30 3368 C 321.738 -0.501227 4.46999 0
M  V30 3369 C 323.057 -2.429 3.66998 0
M  V30 3370 H 320.176 -0.279971 0.681752 0
M  V30 3371 H 322.818 -0.0373616 1.89963 0
M  V30 3372 H 320.968 -2.11171 3.26097 0
M  V30 3373 H 322.64 0.121468 4.6114 0
M  V30 3374 H 320.883 0.183593 4.33411 0
M  V30 3375 H 321.554 -1.03526 5.42205 0
M  V30 3376 H 324.03 -1.90175 3.70098 0
M  V30 3377 H 322.906 -2.89549 4.66318 0
M  V30 3378 H 323.167 -3.27628 2.96837 0
M  V30 3379 N 322.226 -1.5378 -0.344866 0
M  V30 3380 C 323.474 -1.70625 -1.08311 0
M  V30 3381 C 323.795 -0.471447 -1.89215 0
M  V30 3382 O 323.065 0.514616 -1.8902 0
M  V30 3383 H 321.645 -0.629058 -0.402859 0
M  V30 3384 H 324.307 -1.9103 -0.386459 0
M  V30 3385 H 323.403 -2.57656 -1.76124 0
M  V30 3386 N 323.704 0.605807 -1.45491 0
M  V30 3387 C 324.932 1.39136 -1.5313 0
M  V30 3388 C 325.347 1.88082 -0.164507 0
M  V30 3389 O 324.704 1.62316 0.834247 0
M  V30 3390 C 324.755 2.59463 -2.51716 0
M  V30 3391 O 324.476 2.12551 -3.83084 0
M  V30 3392 C 325.977 3.52301 -2.6907 0
M  V30 3393 H 323.197 0.425849 -0.51855 0
M  V30 3394 H 325.741 0.73865 -1.90694 0
M  V30 3395 H 323.896 3.20772 -2.17219 0
M  V30 3396 H 324.31 2.90744 -4.36541 0
M  V30 3397 H 325.784 4.33271 -3.42024 0
M  V30 3398 H 326.261 4.02757 -1.75167 0
M  V30 3399 H 326.867 2.96845 -3.04571 0
M  V30 3400 N 325.182 1.32811 0.848464 0
M  V30 3401 C 326.43 1.23479 1.59991 0
M  V30 3402 C 326.751 -0.201853 1.93952 0
M  V30 3403 O 326.021 -1.12818 1.60153 0
M  V30 3404 H 324.601 0.454034 0.593179 0
M  V30 3405 H 327.263 1.66412 1.01455 0
M  V30 3406 H 326.359 1.82178 2.53412 0
M  V30 3407 N 326.66 -1.06551 1.16123 0
M  V30 3408 C 327.888 -1.83005 0.965237 0
M  V30 3409 C 328.303 -1.82423 -0.486542 0
M  V30 3410 O 327.66 -1.24152 -1.33763 0
M  V30 3411 C 327.711 -3.29733 1.48183 0
M  V30 3412 O 327.432 -3.30416 2.87674 0
M  V30 3413 C 328.933 -4.22926 1.32848 0
M  V30 3414 H 326.153 -0.577118 0.342309 0
M  V30 3415 H 328.697 -1.3445 1.54089 0
M  V30 3416 H 326.852 -3.75609 0.948517 0
M  V30 3417 H 327.266 -4.22149 3.11272 0
M  V30 3418 H 328.74 -5.23916 1.73827 0
M  V30 3419 H 329.217 -4.38346 0.273692 0
M  V30 3420 H 329.823 -3.82894 1.85127 0
M  V30 3421 N 328.138 -0.959301 -1.25041 0
M  V30 3422 C 329.086 -0.474437 -2.2771 0
M  V30 3423 C 330.08 0.457697 -1.631 0
M  V30 3424 O 331.286 0.333912 -1.76876 0
M  V30 3425 H 327.661 -0.134936 -0.739795 0
M  V30 3426 H 329.632 -1.35251 -2.65988 0
M  V30 3427 C 328.381 0.227884 -3.46952 0
M  V30 3428 H 327.704 -0.480248 -3.96905 0
M  V30 3429 H 329.144 0.531091 -4.20661 0
M  V30 3430 C 327.603 1.452 -3.04004 0
M  V30 3431 O 328.133 2.54949 -3.10426 0
M  V30 3432 N 326.339 1.31502 -2.59144 0
M  V30 3433 H 325.886 0.422065 -2.54119 0
M  V30 3434 H 325.844 2.13521 -2.30773 0
M  V30 3435 N 329.616 1.39756 -0.72842 0
M  V30 3436 C 330.862 2.00942 -0.273892 0
M  V30 3437 C 331.195 1.57656 1.13394 0
M  V30 3438 O 330.47 0.802434 1.77176 0
M  V30 3439 C 330.753 3.58211 -0.368346 0
M  V30 3440 C 330.606 4.11534 -1.81548 0
M  V30 3441 C 331.925 4.39372 0.253054 0
M  V30 3442 H 329.044 0.730047 -0.100996 0
M  V30 3443 H 331.686 1.66056 -0.923337 0
M  V30 3444 H 329.836 3.88061 0.184588 0
M  V30 3445 H 331.508 3.92431 -2.42478 0
M  V30 3446 H 329.751 3.65341 -2.33898 0
M  V30 3447 H 330.422 5.20682 -1.83288 0
M  V30 3448 H 332.898 4.15527 -0.218224 0
M  V30 3449 H 331.774 5.48677 0.156585 0
M  V30 3450 H 332.035 4.21358 1.33826 0
M  V30 3451 N 331.094 0.475555 1.50254 0
M  V30 3452 C 332.057 -0.305016 2.27161 0
M  V30 3453 C 333.057 -0.916519 1.32123 0
M  V30 3454 O 334.247 -0.785003 1.5551 0
M  V30 3455 C 331.379 -1.43496 3.09227 0
M  V30 3456 H 332.572 0.369511 2.97615 0
M  V30 3457 H 330.125 0.229747 1.54602 0
M  V30 3458 H 330.86 -2.14441 2.43281 0
M  V30 3459 H 330.645 -1.00223 3.79075 0
M  V30 3460 H 332.135 -1.98548 3.67381 0
M  V30 3461 N 332.573 -1.56217 0.208337 0
M  V30 3462 C 333.803 -2.02043 -0.431523 0
M  V30 3463 C 334.211 -1.08755 -1.54819 0
M  V30 3464 O 333.554 -0.0870009 -1.83494 0
M  V30 3465 C 333.616 -3.44239 -1.03633 0
M  V30 3466 C 333.28 -4.56965 -0.0567502 0
M  V30 3467 C 334.277 -5.14624 0.738773 0
M  V30 3468 C 331.962 -5.02266 0.0581736 0
M  V30 3469 C 333.956 -6.16045 1.63605 0
M  V30 3470 C 331.643 -6.03528 0.959001 0
M  V30 3471 C 332.641 -6.60293 1.7465 0
M  V30 3472 O 332.329 -7.59586 2.6322 0
M  V30 3473 H 332.061 -0.666772 -0.111313 0
M  V30 3474 H 334.615 -2.02919 0.318277 0
M  V30 3475 H 332.845 -3.40391 -1.83497 0
M  V30 3476 H 334.534 -3.73793 -1.58221 0
M  V30 3477 H 335.3 -4.80483 0.660364 0
M  V30 3478 H 331.179 -4.57771 -0.544633 0
M  V30 3479 H 334.723 -6.60279 2.25116 0
M  V30 3480 H 330.62 -6.37092 1.03848 0
M  V30 3481 H 331.388 -7.77057 2.57148 0
M  V30 3482 N 334.051 0.0651679 -1.57465 0
M  V30 3483 C 335.3 0.761916 -1.86756 0
M  V30 3484 C 335.613 1.78406 -0.801925 0
M  V30 3485 O 336.819 2.53084 -0.982885 0
M  V30 3486 C 335.275 1.40603 -3.31299 0
M  V30 3487 C 334.883 0.422115 -4.46007 0
M  V30 3488 C 336.627 2.08476 -3.69781 0
M  V30 3489 C 334.534 1.07252 -5.81593 0
M  V30 3490 H 333.464 0.288308 -0.696702 0
M  V30 3491 H 336.115 0.015344 -1.83494 0
M  V30 3492 H 334.497 2.20109 -3.29193 0
M  V30 3493 H 335.671 -0.343613 -4.59517 0
M  V30 3494 H 333.986 -0.152527 -4.16121 0
M  V30 3495 H 336.583 2.57925 -4.68379 0
M  V30 3496 H 336.926 2.88712 -2.99919 0
M  V30 3497 H 337.459 1.35792 -3.73905 0
M  V30 3498 H 334.198 0.310342 -6.54765 0
M  V30 3499 H 333.718 1.80895 -5.71872 0
M  V30 3500 H 335.397 1.59043 -6.27148 0
M  V30 3501 N 335.529 1.53961 0.336706 0
M  V30 3502 C 336.439 1.85432 1.43708 0
M  V30 3503 C 337.455 0.745053 1.57242 0
M  V30 3504 O 338.631 1.03804 1.72588 0
M  V30 3505 C 335.696 2.06349 2.78605 0
M  V30 3506 C 334.757 3.30191 2.74358 0
M  V30 3507 C 333.99 3.50101 4.02822 0
M  V30 3508 O 334.213 2.7371 5.00439 0
M  V30 3509 O 333.147 4.43547 4.06878 0
M  V30 3510 H 336.973 2.78975 1.20028 0
M  V30 3511 H 334.558 1.39701 0.52952 0
M  V30 3512 H 336.44 2.21513 3.58483 0
M  V30 3513 H 335.115 1.15995 3.02203 0
M  V30 3514 H 334.022 3.20425 1.93078 0
M  V30 3515 H 335.355 4.2056 2.55715 0
M  V30 3516 N 337.007 -0.598083 1.45811 0
M  V30 3517 C 338.284 -1.35777 1.40797 0
M  V30 3518 C 338.664 -2.10935 0.083462 0
M  V30 3519 O 338.012 -2.08505 -0.934763 0
M  V30 3520 C 338.222 -2.29666 2.62783 0
M  V30 3521 C 339.57 -2.91977 3.08277 0
M  V30 3522 O 340.594 -2.39984 2.63223 0
M  V30 3523 O 339.453 -3.86376 3.86491 0
M  V30 3524 H 336.547 -0.609291 0.55919 0
M  V30 3525 H 339.093 -0.620379 1.57954 0
M  V30 3526 H 337.865 -1.73454 3.50756 0
M  V30 3527 H 337.488 -3.1077 2.48008 0
M  V30 3528 N 338.485 -1.33259 -0.841409 0
M  V30 3529 C 339.71 -1.2775 -1.63385 0
M  V30 3530 C 340.135 0.149188 -1.87507 0
M  V30 3531 O 339.493 1.10498 -1.43736 0
M  V30 3532 C 339.541 -2.05571 -2.96265 0
M  V30 3533 O 338.645 -1.41257 -3.87453 0
M  V30 3534 H 337.986 -0.439627 -0.497618 0
M  V30 3535 H 340.516 -1.75782 -1.04699 0
M  V30 3536 H 340.526 -2.16241 -3.45982 0
M  V30 3537 H 339.201 -3.09309 -2.7803 0
M  V30 3538 H 337.778 -1.39217 -3.45938 0
M  V30 3539 N 339.963 1.05934 -1.16686 0
M  V30 3540 C 341.188 1.83029 -0.975455 0
M  V30 3541 C 341.613 1.82096 0.471452 0
M  V30 3542 O 340.971 1.22443 1.33706 0
M  V30 3543 C 341.019 3.27372 -1.51195 0
M  V30 3544 O 340.123 4.06054 -0.720701 0
M  V30 3545 H 339.464 0.566194 -0.346872 0
M  V30 3546 H 341.994 1.33541 -1.55009 0
M  V30 3547 H 342.004 3.78186 -1.53099 0
M  V30 3548 H 340.679 3.27366 -2.56523 0
M  V30 3549 H 339.256 3.64812 -0.772458 0
M  V30 3550 N 341.441 0.965919 1.2453 0
M  V30 3551 C 342.388 0.49402 2.25451 0
M  V30 3552 C 343.358 -0.45948 1.59618 0
M  V30 3553 O 344.543 -0.370238 1.87173 0
M  V30 3554 C 341.683 -0.211359 3.44452 0
M  V30 3555 C 340.796 0.7807 4.24887 0
M  V30 3556 C 339.931 0.0516105 5.31175 0
M  V30 3557 C 338.97 1.03385 6.03306 0
M  V30 3558 N 338.107 0.334887 7.01301 0
M  V30 3559 H 342.947 1.35946 2.65184 0
M  V30 3560 H 340.484 0.681515 1.3036 0
M  V30 3561 H 342.442 -0.637 4.12308 0
M  V30 3562 H 341.072 -1.04077 3.05562 0
M  V30 3563 H 340.124 1.32479 3.56586 0
M  V30 3564 H 341.436 1.52978 4.74762 0
M  V30 3565 H 340.59 -0.432114 6.05159 0
M  V30 3566 H 339.329 -0.730179 4.82203 0
M  V30 3567 H 338.334 1.52847 5.28127 0
M  V30 3568 H 339.559 1.81606 6.54367 0
M  V30 3569 H 337.505 -0.427959 6.54603 0
M  V30 3570 H 337.422 1.02287 7.49048 0
M  V30 3571 H 338.69 -0.126928 7.79397 0
M  V30 3572 N 342.919 -1.39368 0.735821 0
M  V30 3573 C 344.165 -2.00794 0.284544 0
M  V30 3574 C 344.498 -1.58255 -1.12557 0
M  V30 3575 O 343.773 -0.811819 -1.76748 0
M  V30 3576 C 344.056 -3.58011 0.387337 0
M  V30 3577 C 343.909 -4.10566 1.83728 0
M  V30 3578 C 345.228 -4.395 -0.22975 0
M  V30 3579 H 342.347 -0.729501 0.104866 0
M  V30 3580 H 344.989 -1.65564 0.93213 0
M  V30 3581 H 343.139 -3.88154 -0.164006 0
M  V30 3582 H 344.811 -3.91139 2.44556 0
M  V30 3583 H 343.054 -3.64095 2.35833 0
M  V30 3584 H 343.725 -5.19702 1.86047 0
M  V30 3585 H 346.201 -4.15406 0.240257 0
M  V30 3586 H 345.077 -5.48752 -0.127485 0
M  V30 3587 H 345.338 -4.22062 -1.3159 0
M  V30 3588 N 344.397 -0.483516 -1.5 0
M  V30 3589 C 345.307 0.309172 -2.32554 0
M  V30 3590 C 346.323 0.984159 -1.43493 0
M  V30 3591 O 347.499 0.969399 -1.76535 0
M  V30 3592 C 344.564 1.36979 -3.18493 0
M  V30 3593 C 343.625 0.710095 -4.23387 0
M  V30 3594 C 342.858 1.72018 -5.05218 0
M  V30 3595 O 343.081 2.94813 -4.88305 0
M  V30 3596 O 342.015 1.28515 -5.8802 0
M  V30 3597 H 345.841 -0.366064 -3.01486 0
M  V30 3598 H 343.426 -0.24514 -1.47375 0
M  V30 3599 H 345.308 1.98385 -3.71781 0
M  V30 3600 H 343.983 2.02828 -2.52275 0
M  V30 3601 H 342.89 0.0567539 -3.74057 0
M  V30 3602 H 344.223 0.0943557 -4.9211 0
M  V30 3603 N 345.875 1.56104 -0.216619 0
M  V30 3604 C 346.805 2.23063 0.690296 0
M  V30 3605 C 347.786 1.20072 1.20485 0
M  V30 3606 O 348.971 1.48643 1.24976 0
M  V30 3607 C 346.101 2.90672 1.90072 0
M  V30 3608 C 345.055 4.00092 1.5202 0
M  V30 3609 C 344.381 4.54972 2.80899 0
M  V30 3610 C 345.681 5.17398 0.71391 0
M  V30 3611 H 347.375 2.99109 0.132038 0
M  V30 3612 H 344.921 1.43866 0.0620664 0
M  V30 3613 H 346.874 3.36204 2.54057 0
M  V30 3614 H 345.598 2.12066 2.48386 0
M  V30 3615 H 344.257 3.55283 0.903839 0
M  V30 3616 H 343.905 3.73102 3.37348 0
M  V30 3617 H 343.605 5.28817 2.56176 0
M  V30 3618 H 345.129 5.0322 3.45836 0
M  V30 3619 H 346.543 5.59342 1.25735 0
M  V30 3620 H 344.94 5.97444 0.563951 0
M  V30 3621 H 346.01 4.84088 -0.280527 0
M  V30 3622 N 347.353 -0.0568162 1.57498 0
M  V30 3623 C 348.286 -1.09817 2.00039 0
M  V30 3624 C 349.264 -1.3674 0.879819 0
M  V30 3625 O 350.448 -1.49863 1.14338 0
M  V30 3626 C 347.575 -2.43924 2.34986 0
M  V30 3627 C 346.621 -2.33039 3.57204 0
M  V30 3628 S 347.454 -1.7102 5.07457 0
M  V30 3629 C 348.61 -3.06674 5.45621 0
M  V30 3630 H 348.843 -0.735701 2.88053 0
M  V30 3631 H 346.376 -0.265871 1.52094 0
M  V30 3632 H 348.334 -3.2106 2.55795 0
M  V30 3633 H 346.995 -2.77327 1.47474 0
M  V30 3634 H 346.188 -3.31973 3.79223 0
M  V30 3635 H 345.79 -1.64043 3.36104 0
M  V30 3636 H 348.082 -4.03 5.44608 0
M  V30 3637 H 349.025 -2.8942 6.46252 0
M  V30 3638 H 349.433 -3.07969 4.73091 0
M  V30 3639 N 348.832 -1.54138 -0.328536 0
M  V30 3640 C 350.109 -1.62749 -1.08499 0
M  V30 3641 C 350.489 -0.458198 -2.06067 0
M  V30 3642 O 349.837 0.548046 -2.2183 0
M  V30 3643 C 350.047 -2.99519 -1.79135 0
M  V30 3644 C 351.395 -3.55394 -2.32337 0
M  V30 3645 O 352.419 -3.01792 -1.89209 0
M  V30 3646 O 351.278 -4.49186 -3.11279 0
M  V30 3647 H 348.372 -0.65886 -0.499832 0
M  V30 3648 H 350.918 -1.66484 -0.328826 0
M  V30 3649 H 349.69 -3.76061 -1.08139 0
M  V30 3650 H 349.313 -2.99441 -2.61574 0
M  V30 3651 N 350.31 0.590341 -1.46126 0
M  V30 3652 C 351.558 1.34616 -1.50742 0
M  V30 3653 C 351.879 1.94363 -0.157486 0
M  V30 3654 O 351.149 1.78136 0.815136 0
M  V30 3655 H 349.729 0.499789 -0.555175 0
M  V30 3656 H 352.391 0.691953 -1.82203 0
M  V30 3657 H 351.487 2.15678 -2.25587 0
M  V30 3658 N 351.788 1.33704 0.83433 0
M  V30 3659 C 353.034 1.25603 1.59222 0
M  V30 3660 C 353.367 -0.176659 1.93395 0
M  V30 3661 O 352.642 -1.11915 1.59076 0
M  V30 3662 C 352.925 2.13576 2.89926 0
M  V30 3663 C 352.778 3.65326 2.62406 0
M  V30 3664 C 354.097 2.01238 3.91397 0
M  V30 3665 H 351.216 0.457613 0.577719 0
M  V30 3666 H 353.858 1.63848 0.961972 0
M  V30 3667 H 352.008 1.8109 3.43713 0
M  V30 3668 H 353.68 4.08124 2.15017 0
M  V30 3669 H 351.923 3.8698 1.96033 0
M  V30 3670 H 352.594 4.22232 3.55562 0
M  V30 3671 H 355.07 2.29738 3.46929 0
M  V30 3672 H 353.946 2.65036 4.80673 0
M  V30 3673 H 354.207 0.985951 4.30966 0
M  V30 3674 N 353.266 -1.05314 1.17247 0
M  V30 3675 C 354.213 -2.13031 0.888058 0
M  V30 3676 C 355.183 -1.65253 -0.167537 0
M  V30 3677 O 356.368 -1.90775 -0.0305974 0
M  V30 3678 C 353.508 -3.42702 0.406147 0
M  V30 3679 C 352.621 -4.04161 1.52572 0
M  V30 3680 C 351.756 -5.21744 0.997808 0
M  V30 3681 C 350.795 -5.75207 2.09291 0
M  V30 3682 N 349.932 -6.84094 1.57986 0
M  V30 3683 H 354.772 -2.36698 1.81048 0
M  V30 3684 H 352.309 -1.16121 0.903013 0
M  V30 3685 H 354.267 -4.17059 0.108305 0
M  V30 3686 H 352.897 -3.19222 -0.479313 0
M  V30 3687 H 351.949 -3.27253 1.93931 0
M  V30 3688 H 353.261 -4.39881 2.35172 0
M  V30 3689 H 352.415 -6.03168 0.653739 0
M  V30 3690 H 351.154 -4.87495 0.141232 0
M  V30 3691 H 350.159 -4.92414 2.44557 0
M  V30 3692 H 351.384 -6.11505 2.95362 0
M  V30 3693 H 349.33 -6.51745 0.74598 0
M  V30 3694 H 349.247 -7.18811 2.34195 0
M  V30 3695 H 350.515 -7.69172 1.26468 0
M  V30 3696 N 354.744 -0.972509 -1.24016 0
M  V30 3697 C 355.654 -0.5143 -2.28893 0
M  V30 3698 C 356.67 0.427078 -1.68677 0
M  V30 3699 O 357.846 0.298939 -1.99169 0
M  V30 3700 C 354.911 0.183598 -3.46214 0
M  V30 3701 C 353.972 -0.798202 -4.21814 0
M  V30 3702 C 353.205 -0.133514 -5.33533 0
M  V30 3703 O 353.428 1.07714 -5.60137 0
M  V30 3704 O 352.362 -0.828103 -5.96176 0
M  V30 3705 H 356.188 -1.38629 -2.70214 0
M  V30 3706 H 353.773 -0.739769 -1.29799 0
M  V30 3707 H 355.655 0.575433 -4.17453 0
M  V30 3708 H 354.33 1.03048 -3.0686 0
M  V30 3709 H 353.237 -1.24059 -3.52931 0
M  V30 3710 H 354.57 -1.61364 -4.64997 0
M  V30 3711 N 356.222 1.38976 -0.743202 0
M  V30 3712 C 357.633 1.83123 -0.363732 0
M  V30 3713 C 357.984 1.6205 1.10609 0
M  V30 3714 O 357.109 1.11606 1.854 0
M  V30 3715 C 357.704 3.32439 -0.653408 0
M  V30 3716 C 356.263 3.74974 -0.327338 0
M  V30 3717 C 355.41 2.61878 -0.911875 0
M  V30 3718 H 358.361 1.27852 -0.940191 0
M  V30 3719 H 358.382 3.80432 0.0720031 0
M  V30 3720 H 357.894 3.47745 -1.72323 0
M  V30 3721 H 355.995 3.65252 0.736314 0
M  V30 3722 H 356.108 4.72106 -0.815631 0
M  V30 3723 H 354.472 2.52448 -0.337944 0
M  V30 3724 H 355.255 2.79987 -1.98651 0
M  V30 3725 N 357.7 0.491464 1.49741 0
M  V30 3726 C 358.61 -0.296835 2.32715 0
M  V30 3727 C 359.626 -0.976536 1.44013 0
M  V30 3728 O 360.802 -0.960023 1.77047 0
M  V30 3729 C 357.867 -1.35288 3.19215 0
M  V30 3730 C 356.928 -0.687632 4.23757 0
M  V30 3731 C 356.161 -1.69336 5.06123 0
M  V30 3732 O 356.384 -2.92219 4.89861 0
M  V30 3733 O 355.318 -1.25394 5.88693 0
M  V30 3734 H 359.144 0.382048 3.01287 0
M  V30 3735 H 356.729 0.252953 1.47243 0
M  V30 3736 H 358.611 -1.96411 3.72828 0
M  V30 3737 H 357.286 -2.01487 2.53347 0
M  V30 3738 H 356.193 -0.0369159 3.74082 0
M  V30 3739 H 357.526 -0.0682566 4.92153 0
M  V30 3740 N 359.178 -1.55987 0.224894 0
M  V30 3741 C 360.424 -1.98684 -0.406502 0
M  V30 3742 C 360.757 -1.11248 -1.59177 0
M  V30 3743 O 360.032 -0.170909 -1.93748 0
M  V30 3744 C 360.315 -3.50218 -0.837808 0
M  V30 3745 C 360.168 -4.48426 0.351332 0
M  V30 3746 C 361.487 -4.06243 -1.69278 0
M  V30 3747 H 358.606 -0.722337 -0.146283 0
M  V30 3748 H 361.248 -1.87255 0.321799 0
M  V30 3749 H 359.398 -3.60089 -1.45837 0
M  V30 3750 H 361.07 -4.50562 0.989526 0
M  V30 3751 H 359.313 -4.22159 0.998207 0
M  V30 3752 H 359.984 -5.52 0.00655905 0
M  V30 3753 H 362.46 -3.99337 -1.16914 0
M  V30 3754 H 361.336 -5.12581 -1.96346 0
M  V30 3755 H 361.597 -3.53332 -2.65723 0
M  V30 3756 N 360.656 0.0484629 -1.57525 0
M  V30 3757 C 361.902 0.744226 -1.88651 0
M  V30 3758 C 362.235 1.76029 -0.820212 0
M  V30 3759 O 361.51 1.93782 0.166985 0
M  V30 3760 C 361.793 1.43128 -3.30434 0
M  V30 3761 C 361.646 0.43005 -4.47739 0
M  V30 3762 C 362.965 2.37031 -3.70816 0
M  V30 3763 H 360.084 0.269089 -0.68612 0
M  V30 3764 H 362.726 0.00713532 -1.89999 0
M  V30 3765 H 360.876 2.05956 -3.29415 0
M  V30 3766 H 362.548 -0.194816 -4.60888 0
M  V30 3767 H 360.791 -0.252522 -4.33064 0
M  V30 3768 H 361.462 0.948874 -5.43783 0
M  V30 3769 H 363.938 1.84263 -3.73077 0
M  V30 3770 H 362.814 2.82094 -4.70865 0
M  V30 3771 H 363.075 3.22864 -3.02012 0
M  V30 3772 N 362.134 1.5431 0.320358 0
M  V30 3773 C 363.383 1.7188 1.05546 0
M  V30 3774 C 363.696 0.501143 1.89071 0
M  V30 3775 O 364.902 0.558258 2.65699 0
M  V30 3776 C 363.358 3.04025 1.92605 0
M  V30 3777 C 362.966 4.33207 1.14176 0
M  V30 3778 C 364.71 3.30959 2.65832 0
M  V30 3779 C 362.617 5.56412 2.00399 0
M  V30 3780 H 361.547 0.640547 0.397763 0
M  V30 3781 H 364.198 1.80802 0.313522 0
M  V30 3782 H 362.58 2.89019 2.7071 0
M  V30 3783 H 363.754 4.58989 0.40819 0
M  V30 3784 H 362.069 4.13062 0.526165 0
M  V30 3785 H 364.666 4.20203 3.30656 0
M  V30 3786 H 365.009 2.48979 3.33639 0
M  V30 3787 H 365.542 3.46847 1.94787 0
M  V30 3788 H 362.281 6.41004 1.37094 0
M  V30 3789 H 361.801 5.34844 2.7148 0
M  V30 3790 H 363.48 5.92938 2.58908 0
M  V30 3791 N 363.613 -0.582584 1.46437 0
M  V30 3792 C 364.561 -1.71272 1.5738 0
M  V30 3793 C 365.555 -1.63524 0.44229 0
M  V30 3794 O 366.761 -1.69016 0.619166 0
M  V30 3795 H 363.136 -0.566273 0.494813 0
M  V30 3796 H 365.107 -1.59174 2.52401 0
M  V30 3797 C 363.856 -3.09658 1.58136 0
M  V30 3798 H 363.179 -3.16291 2.44541 0
M  V30 3799 H 364.619 -3.88494 1.69847 0
M  V30 3800 C 363.078 -3.3547 0.310026 0
M  V30 3801 O 363.608 -3.97199 -0.599683 0
M  V30 3802 N 361.814 -2.89925 0.197901 0
M  V30 3803 H 361.361 -2.39873 0.93909 0
M  V30 3804 H 361.319 -3.07568 -0.65185 0
M  V30 3805 N 365.091 -1.34144 -0.827227 0
M  V30 3806 C 366.319 -1.29325 -1.61501 0
M  V30 3807 C 366.734 0.13354 -1.88327 0
M  V30 3808 O 366.091 1.0793 -1.47164 0
M  V30 3809 C 366.142 -2.07746 -2.95844 0
M  V30 3810 O 365.863 -3.4486 -2.70191 0
M  V30 3811 C 367.364 -2.10273 -3.90256 0
M  V30 3812 H 364.584 -0.445069 -0.50215 0
M  V30 3813 H 367.128 -1.76693 -1.02955 0
M  V30 3814 H 365.283 -1.6403 -3.5096 0
M  V30 3815 H 365.697 -3.85345 -3.55822 0
M  V30 3816 H 367.171 -2.69575 -4.81698 0
M  V30 3817 H 367.648 -1.096 -4.25305 0
M  V30 3818 H 368.254 -2.54059 -3.41078 0
M  V30 3819 N 366.569 1.04691 -1.17803 0
M  V30 3820 C 367.479 2.16057 -0.914151 0
M  V30 3821 C 368.495 1.73589 0.119503 0
M  V30 3822 O 369.671 2.01308 -0.0609468 0
M  V30 3823 C 366.736 3.4394 -0.436603 0
M  V30 3824 C 365.797 4.00825 -1.53746 0
M  V30 3825 C 365.03 5.22604 -1.0826 0
M  V30 3826 O 365.253 5.70367 0.0612244 0
M  V30 3827 O 364.187 5.7186 -1.87775 0
M  V30 3828 H 368.013 2.41169 -1.84584 0
M  V30 3829 H 365.598 1.1453 -0.959334 0
M  V30 3830 H 367.48 4.21024 -0.178057 0
M  V30 3831 H 366.155 3.20316 0.466869 0
M  V30 3832 H 365.062 3.25158 -1.84995 0
M  V30 3833 H 366.395 4.28778 -2.41683 0
M  V30 3834 N 368.047 0.979072 1.23499 0
M  V30 3835 C 369.293 0.6578 1.9247 0
M  V30 3836 C 369.648 -0.799746 1.74991 0
M  V30 3837 O 368.941 -1.56922 1.09937 0
M  V30 3838 C 369.135 0.981932 3.43646 0
M  V30 3839 C 368.964 2.46944 3.75831 0
M  V30 3840 C 367.734 3.13119 3.96591 0
M  V30 3841 C 369.932 3.45006 3.81412 0
M  V30 3842 N 367.914 4.51489 4.15969 0
M  V30 3843 C 369.285 4.68778 4.05768 0
M  V30 3844 C 371.34 3.39505 3.64198 0
M  V30 3845 C 370.043 5.87723 4.14697 0
M  V30 3846 C 372.069 4.57814 3.7438 0
M  V30 3847 C 371.431 5.80381 3.99171 0
M  V30 3848 H 367.53 0.291746 0.72554 0
M  V30 3849 H 370.114 1.25626 1.48749 0
M  V30 3850 H 368.285 0.412179 3.86207 0
M  V30 3851 H 370.017 0.618068 3.99953 0
M  V30 3852 H 366.772 2.63619 3.93449 0
M  V30 3853 H 367.196 5.23221 4.29615 0
M  V30 3854 H 371.838 2.45773 3.44029 0
M  V30 3855 H 369.556 6.81874 4.33675 0
M  V30 3856 H 373.142 4.55132 3.62417 0
M  V30 3857 H 372.022 6.70398 4.06861 0
M  V30 3858 N 369.525 -1.3858 0.750561 0
M  V30 3859 C 370.773 -1.99789 0.30477 0
M  V30 3860 C 371.094 -1.59874 -1.11649 0
M  V30 3861 O 370.364 -0.85417 -1.76297 0
M  V30 3862 H 368.944 -0.738902 0.109694 0
M  V30 3863 H 371.606 -1.69391 0.963983 0
M  V30 3864 H 370.702 -3.09952 0.365499 0
M  V30 3865 N 371.003 -0.499398 -1.49478 0
M  V30 3866 C 371.966 0.268838 -2.27618 0
M  V30 3867 C 372.966 0.895383 -1.33565 0
M  V30 3868 O 374.156 0.760164 -1.56739 0
M  V30 3869 C 371.288 1.38559 -3.11471 0
M  V30 3870 H 372.481 -0.416812 -2.96989 0
M  V30 3871 H 370.034 -0.254313 -1.54217 0
M  V30 3872 H 370.769 2.10544 -2.46661 0
M  V30 3873 H 370.554 0.941797 -3.80621 0
M  V30 3874 H 372.044 1.92678 -3.70493 0
M  V30 3875 N 372.481 1.55866 -0.233164 0
M  V30 3876 C 373.728 1.98603 0.395374 0
M  V30 3877 C 374.056 1.12105 1.58942 0
M  V30 3878 O 373.311 0.168656 1.94972 0
M  V30 3879 C 373.61 3.46856 0.861724 0
M  V30 3880 C 373.276 4.50348 -0.223066 0
M  V30 3881 C 371.938 4.78371 -0.521038 0
M  V30 3882 C 374.29 5.12355 -0.956124 0
M  V30 3883 C 371.618 5.6568 -1.55638 0
M  V30 3884 C 373.97 6.00786 -1.98089 0
M  V30 3885 C 372.634 6.27148 -2.28565 0
M  V30 3886 H 371.904 0.726739 0.144677 0
M  V30 3887 H 374.551 1.88491 -0.338114 0
M  V30 3888 H 372.856 3.5423 1.67418 0
M  V30 3889 H 374.553 3.77302 1.35809 0
M  V30 3890 H 371.143 4.28596 0.0193234 0
M  V30 3891 H 375.327 4.90765 -0.739166 0
M  V30 3892 H 370.583 5.84365 -1.798 0
M  V30 3893 H 374.757 6.4788 -2.55391 0
M  V30 3894 H 372.384 6.94597 -3.08932 0
M  V30 3895 N 373.959 -0.0401083 1.57549 0
M  V30 3896 C 375.207 -0.731677 1.8839 0
M  V30 3897 C 375.528 -1.76481 0.829425 0
M  V30 3898 O 374.798 -1.95411 -0.1383 0
M  V30 3899 H 373.378 -0.273225 0.695239 0
M  V30 3900 H 376.04 -0.00867725 1.94898 0
M  V30 3901 H 375.136 -1.22816 2.86919 0
M  V30 3902 N 375.437 -1.54477 -0.31217 0
M  V30 3903 C 376.347 -1.87695 -1.4074 0
M  V30 3904 C 377.363 -0.769975 -1.56036 0
M  V30 3905 O 378.539 -1.06537 -1.70915 0
M  V30 3906 C 375.604 -2.10755 -2.75287 0
M  V30 3907 C 374.665 -3.34514 -2.69071 0
M  V30 3908 C 373.898 -3.56465 -3.97201 0
M  V30 3909 O 374.121 -2.81637 -4.96021 0
M  V30 3910 O 373.055 -4.49964 -3.9977 0
M  V30 3911 H 376.881 -2.80849 -1.15574 0
M  V30 3912 H 374.466 -1.40526 -0.507228 0
M  V30 3913 H 376.348 -2.27188 -3.54913 0
M  V30 3914 H 375.023 -1.20788 -3.0032 0
M  V30 3915 H 373.93 -3.23456 -1.87955 0
M  V30 3916 H 375.263 -4.24575 -2.48992 0
M  V30 3917 N 376.915 0.57481 -1.46744 0
M  V30 3918 C 377.862 1.68329 -1.57905 0
M  V30 3919 C 378.832 1.60625 -0.422927 0
M  V30 3920 O 380.017 1.79721 -0.640711 0
M  V30 3921 C 377.157 3.06665 -1.58274 0
M  V30 3922 C 376.27 3.24935 -2.84678 0
M  V30 3923 C 375.405 4.53566 -2.76499 0
M  V30 3924 C 374.444 4.65207 -3.97806 0
M  V30 3925 N 373.581 5.85172 -3.87967 0
M  V30 3926 H 378.421 1.58127 -2.52587 0
M  V30 3927 H 375.958 0.770552 -1.25303 0
M  V30 3928 H 377.916 3.86745 -1.56473 0
M  V30 3929 H 376.546 3.15745 -0.671194 0
M  V30 3930 H 375.598 2.38405 -2.96424 0
M  V30 3931 H 376.91 3.29403 -3.7456 0
M  V30 3932 H 376.064 5.41885 -2.72848 0
M  V30 3933 H 374.803 4.51548 -1.8427 0
M  V30 3934 H 373.808 3.75304 -4.0178 0
M  V30 3935 H 375.033 4.68997 -4.9114 0
M  V30 3936 H 372.979 5.84137 -2.98529 0
M  V30 3937 H 372.896 5.90943 -4.71511 0
M  V30 3938 H 374.164 6.759 -3.88303 0
M  V30 3939 N 378.394 1.34581 0.820102 0
M  V30 3940 C 379.642 1.26845 1.57336 0
M  V30 3941 C 379.963 -0.160667 1.94337 0
M  V30 3942 O 379.233 -1.09396 1.6251 0
M  V30 3943 H 377.813 0.466514 0.583415 0
M  V30 3944 H 380.475 1.68526 0.979027 0
M  V30 3945 H 379.571 1.87513 2.4949 0
M  V30 3946 N 379.872 -1.04064 1.18357 0
M  V30 3947 C 380.782 -2.15569 0.925596 0
M  V30 3948 C 381.798 -1.7365 -0.110295 0
M  V30 3949 O 382.974 -2.01273 0.0716218 0
M  V30 3950 C 380.039 -3.43704 0.454836 0
M  V30 3951 C 379.1 -4.00004 1.55869 0
M  V30 3952 C 378.333 -5.22023 1.1103 0
M  V30 3953 O 378.556 -5.70392 -0.0309756 0
M  V30 3954 O 377.49 -5.70856 1.90805 0
M  V30 3955 H 381.316 -2.40187 1.8586 0
M  V30 3956 H 378.901 -1.1402 0.965394 0
M  V30 3957 H 380.783 -4.20923 0.200382 0
M  V30 3958 H 379.458 -3.20559 -0.449876 0
M  V30 3959 H 378.365 -3.24172 1.86716 0
M  V30 3960 H 379.698 -4.2749 2.43953 0
M  V30 3961 N 381.35 -0.985608 -1.22978 0
M  V30 3962 C 382.28 -0.549649 -2.26939 0
M  V30 3963 C 383.261 0.419803 -1.64838 0
M  V30 3964 O 384.446 0.31203 -1.91677 0
M  V30 3965 C 381.576 0.143652 -3.47003 0
M  V30 3966 C 380.53 -0.743606 -4.21491 0
M  V30 3967 C 379.856 0.0822027 -5.34637 0
M  V30 3968 C 381.156 -2.03694 -4.80943 0
M  V30 3969 H 382.85 -1.41862 -2.63658 0
M  V30 3970 H 380.396 -0.683571 -1.26741 0
M  V30 3971 H 382.349 0.459985 -4.18882 0
M  V30 3972 H 381.073 1.04711 -3.09359 0
M  V30 3973 H 379.732 -1.04347 -3.51436 0
M  V30 3974 H 379.38 0.986359 -4.93234 0
M  V30 3975 H 379.08 -0.508377 -5.85397 0
M  V30 3976 H 380.604 0.392797 -6.09335 0
M  V30 3977 H 382.018 -1.78504 -5.44802 0
M  V30 3978 H 380.415 -2.57573 -5.42011 0
M  V30 3979 H 381.485 -2.72042 -4.01399 0
M  V30 3980 N 382.828 1.3818 -0.7579 0
M  V30 3981 C 384.105 1.94106 -0.241306 0
M  V30 3982 C 384.485 1.69282 1.26122 0
M  V30 3983 O 383.833 1.03378 2.03777 0
M  V30 3984 C 384.043 3.43809 -0.59967 0
M  V30 3985 C 385.391 4.20868 -0.561717 0
M  V30 3986 O 386.415 3.5211 -0.538222 0
M  V30 3987 O 385.274 5.43451 -0.576478 0
M  V30 3988 H 382.368 0.825376 -0.0518042 0
M  V30 3989 H 384.914 1.47548 -0.838315 0
M  V30 3990 H 383.686 3.55403 -1.6372 0
M  V30 3991 H 383.309 3.97592 0.0251197 0
M  V30 3992 N 384.306 0.507319 1.49211 0
M  V30 3993 C 385.546 -0.0332372 2.04373 0
M  V30 3994 C 385.91 -1.33694 1.37804 0
M  V30 3995 O 387.111 -1.96213 1.83722 0
M  V30 3996 C 385.382 -0.17599 3.56966 0
M  V30 3997 S 386.941 -0.669882 4.33657 0
M  V30 3998 H 383.759 0.00123603 0.710999 0
M  V30 3999 H 386.361 0.682725 1.83191 0
M  V30 4000 H 385.065 0.778053 4.02957 0
M  V30 4001 H 384.596 -0.917005 3.82563 0
M  V30 4002 H 386.611 -1.93806 4.56786 0
M  V30 4003 N 385.784 -1.5574 0.241426 0
M  V30 4004 C 387.03 -1.99846 -0.378555 0
M  V30 4005 C 387.385 -1.12665 -1.55963 0
M  V30 4006 O 386.678 -0.180966 -1.90743 0
M  V30 4007 C 386.872 -3.47308 -0.843317 0
M  V30 4008 C 386.701 -4.48756 0.291178 0
M  V30 4009 C 385.471 -4.9949 0.764077 0
M  V30 4010 C 387.669 -5.02039 1.11631 0
M  V30 4011 N 385.651 -5.84676 1.87156 0
M  V30 4012 C 387.022 -5.84343 2.07226 0
M  V30 4013 C 389.077 -4.84354 1.15349 0
M  V30 4014 C 387.78 -6.50851 3.06245 0
M  V30 4015 C 389.806 -5.51636 2.13195 0
M  V30 4016 C 389.168 -6.33724 3.07528 0
M  V30 4017 H 385.267 -0.774968 -0.104634 0
M  V30 4018 H 387.851 -1.91385 0.357751 0
M  V30 4019 H 386.022 -3.56178 -1.54893 0
M  V30 4020 H 387.754 -3.78299 -1.43779 0
M  V30 4021 H 384.509 -4.72311 0.349175 0
M  V30 4022 H 384.933 -6.31967 2.42789 0
M  V30 4023 H 389.575 -4.20525 0.438057 0
M  V30 4024 H 387.293 -7.1385 3.78739 0
M  V30 4025 H 390.879 -5.39909 2.16771 0
M  V30 4026 H 389.759 -6.84867 3.82003 0
M  V30 4027 N 387.262 0.0317525 -1.57568 0
M  V30 4028 C 388.678 0.38735 -1.54828 0
M  V30 4029 C 388.878 1.7677 -0.967187 0
M  V30 4030 O 387.934 2.45581 -0.587063 0
M  V30 4031 C 389.247 0.291667 -2.99282 0
M  V30 4032 C 390.795 0.368946 -3.10818 0
M  V30 4033 C 391.27 0.302741 -4.56998 0
M  V30 4034 N 392.761 0.361617 -4.61786 0
M  V30 4035 C 393.496 0.333238 -5.72431 0
M  V30 4036 N 392.992 0.257308 -6.92322 0
M  V30 4037 N 394.785 0.382769 -5.60795 0
M  V30 4038 H 386.936 -0.871609 -1.93692 0
M  V30 4039 H 389.199 -0.331161 -0.888277 0
M  V30 4040 H 388.905 -0.656794 -3.45513 0
M  V30 4041 H 388.779 1.08638 -3.61217 0
M  V30 4042 H 391.166 1.30784 -2.64536 0
M  V30 4043 H 391.247 -0.455066 -2.5172 0
M  V30 4044 H 390.891 -0.632473 -5.03947 0
M  V30 4045 H 390.821 1.14482 -5.14005 0
M  V30 4046 H 393.312 0.422923 -3.75526 0
M  V30 4047 H 393.625 0.24068 -7.72425 0
M  V30 4048 H 391.97 0.223396 -6.94641 0
M  V30 4049 H 395.161 0.44006 -4.66027 0
M  V30 4050 H 395.334 0.357184 -6.47015 0
M  V30 4051 N 388.74 1.54641 0.303973 0
M  V30 4052 C 389.968 1.77768 1.05858 0
M  V30 4053 C 390.383 0.535722 1.8104 0
M  V30 4054 O 389.74 -0.494337 1.75677 0
M  V30 4055 C 389.791 2.9834 2.04146 0
M  V30 4056 O 389.512 4.17736 1.32015 0
M  V30 4057 C 391.013 3.33832 2.91669 0
M  V30 4058 H 388.233 0.592961 0.314067 0
M  V30 4059 H 390.777 2.01583 0.344149 0
M  V30 4060 H 388.932 2.76742 2.71096 0
M  V30 4061 H 389.346 4.85693 1.97998 0
M  V30 4062 H 390.82 4.21448 3.56491 0
M  V30 4063 H 391.297 2.51857 3.59812 0
M  V30 4064 H 391.903 3.57579 2.30254 0
M  V30 4065 N 390.218 -0.567019 1.47046 0
M  V30 4066 C 391.15 -1.68985 1.54844 0
M  V30 4067 C 392.163 -1.56869 0.435431 0
M  V30 4068 O 393.352 -1.64006 0.70457 0
M  V30 4069 C 390.452 -3.07373 1.42742 0
M  V30 4070 C 389.625 -3.45339 2.6844 0
M  V30 4071 C 388.684 -4.62849 2.50314 0
M  V30 4072 O 387.71 -4.67922 3.24095 0
M  V30 4073 N 388.912 -5.58726 1.57499 0
M  V30 4074 H 391.677 -1.62745 2.51663 0
M  V30 4075 H 389.238 -0.753411 1.43302 0
M  V30 4076 H 391.23 -3.83803 1.28365 0
M  V30 4077 H 389.8 -3.07893 0.540445 0
M  V30 4078 H 389.02 -2.58455 2.97648 0
M  V30 4079 H 390.308 -3.67476 3.51907 0
M  V30 4080 H 389.706 -5.57376 0.966876 0
M  V30 4081 H 388.263 -6.34523 1.49078 0
M  V30 4082 N 391.696 -1.35014 -0.812953 0
M  V30 4083 C 392.943 -1.27931 -1.56971 0
M  V30 4084 C 393.271 0.148034 -1.93936 0
M  V30 4085 O 392.526 1.11175 -1.61054 0
M  V30 4086 C 392.825 -2.12524 -2.87347 0
M  V30 4087 C 392.491 -3.61401 -2.6963 0
M  V30 4088 C 391.153 -4.01983 -2.64506 0
M  V30 4089 C 393.505 -4.55894 -2.52607 0
M  V30 4090 C 390.833 -5.35235 -2.40293 0
M  V30 4091 C 393.185 -5.89336 -2.29925 0
M  V30 4092 C 391.849 -6.2907 -2.23219 0
M  V30 4093 H 391.119 -0.468131 -0.574399 0
M  V30 4094 H 393.766 -1.66851 -0.939836 0
M  V30 4095 H 392.071 -1.66463 -3.54679 0
M  V30 4096 H 393.768 -2.04383 -3.45005 0
M  V30 4097 H 390.358 -3.29193 -2.74463 0
M  V30 4098 H 394.542 -4.25431 -2.55583 0
M  V30 4099 H 389.798 -5.65028 -2.33566 0
M  V30 4100 H 393.972 -6.62139 -2.15743 0
M  V30 4101 H 391.599 -7.32256 -2.04219 0
M  V30 4102 N 393.175 1.03435 -1.18907 0
M  V30 4103 C 394.452 1.73778 -0.89781 0
M  V30 4104 C 394.832 2.02458 0.597832 0
M  V30 4105 O 394.18 1.67482 1.55441 0
M  V30 4106 C 394.39 3.01845 -1.75187 0
M  V30 4107 C 395.738 3.7546 -1.9828 0
M  V30 4108 O 396.762 3.11759 -1.72293 0
M  V30 4109 O 395.621 4.89966 -2.42065 0
M  V30 4110 H 392.715 0.75651 -0.334098 0
M  V30 4111 H 395.261 1.09444 -1.29693 0
M  V30 4112 H 394.033 2.76836 -2.76545 0
M  V30 4113 H 393.656 3.73919 -1.35167 0
M  V30 4114 N 394.653 0.992116 1.22453 0
M  V30 4115 C 395.6 0.541731 2.24352 0
M  V30 4116 C 396.57 -0.425519 1.60557 0
M  V30 4117 O 397.755 -0.330453 1.87917 0
M  V30 4118 C 394.895 -0.138248 3.44823 0
M  V30 4119 C 394.008 0.870649 4.23136 0
M  V30 4120 C 393.143 0.164269 5.30946 0
M  V30 4121 C 392.182 1.16159 6.00977 0
M  V30 4122 N 391.319 0.483568 7.00433 0
M  V30 4123 H 396.159 1.41541 2.62241 0
M  V30 4124 H 393.696 0.709013 1.28885 0
M  V30 4125 H 395.654 -0.5494 4.13567 0
M  V30 4126 H 394.284 -0.975721 3.077 0
M  V30 4127 H 393.336 1.40013 3.53696 0
M  V30 4128 H 394.648 1.63014 4.7141 0
M  V30 4129 H 393.802 -0.303653 6.0594 0
M  V30 4130 H 392.541 -0.627733 4.83643 0
M  V30 4131 H 391.546 1.64015 5.24766 0
M  V30 4132 H 392.771 1.95445 6.50368 0
M  V30 4133 H 390.717 -0.289012 6.55363 0
M  V30 4134 H 390.634 1.18152 7.4671 0
M  V30 4135 H 391.902 0.0384219 7.79491 0
M  V30 4136 N 396.131 -1.37776 0.765217 0
M  V30 4137 C 397.356 -2.04651 0.336537 0
M  V30 4138 C 397.781 -1.57337 -1.03086 0
M  V30 4139 O 397.139 -0.730621 -1.65927 0
M  V30 4140 C 397.187 -3.58577 0.381468 0
M  V30 4141 O 396.291 -4.07706 -0.62042 0
M  V30 4142 H 395.632 -0.64756 0.146838 0
M  V30 4143 H 398.162 -1.76221 1.03959 0
M  V30 4144 H 398.172 -4.07314 0.236448 0
M  V30 4145 H 396.847 -3.9237 1.37907 0
M  V30 4146 H 395.424 -3.70306 -0.439056 0
M  V30 4147 N 397.609 -0.515225 -1.4894 0
M  V30 4148 C 398.542 0.302518 -2.26186 0
M  V30 4149 C 399.52 0.957895 -1.31389 0
M  V30 4150 O 400.704 0.985198 -1.60705 0
M  V30 4151 C 397.831 1.42719 -3.07163 0
M  V30 4152 C 396.877 0.884736 -4.17223 0
M  V30 4153 S 397.71 -0.235767 -5.34981 0
M  V30 4154 C 398.866 0.891731 -6.19515 0
M  V30 4155 H 399.099 -0.353076 -2.95196 0
M  V30 4156 H 396.632 -0.300753 -1.51443 0
M  V30 4157 H 398.59 2.07152 -3.54398 0
M  V30 4158 H 397.251 2.05445 -2.37595 0
M  V30 4159 H 396.444 1.72801 -4.73451 0
M  V30 4160 H 396.046 0.317362 -3.72651 0
M  V30 4161 H 398.338 1.79377 -6.53322 0
M  V30 4162 H 399.281 0.367751 -7.07144 0
M  V30 4163 H 399.689 1.16548 -5.52338 0
M  V30 4164 N 399.087 1.5561 -0.249682 0
M  V30 4165 C 400.364 1.90932 0.424761 0
M  V30 4166 C 400.744 1.17078 1.75658 0
M  V30 4167 O 400.092 0.289176 2.26663 0
M  V30 4168 C 400.302 3.43975 0.590109 0
M  V30 4169 C 401.65 4.15281 0.884714 0
M  V30 4170 O 402.674 3.49729 0.67587 0
M  V30 4171 O 401.533 5.31236 1.28259 0
M  V30 4172 H 398.627 0.794815 0.228468 0
M  V30 4173 H 401.173 1.67135 -0.293954 0
M  V30 4174 H 399.945 3.89748 -0.34818 0
M  V30 4175 H 399.568 3.73644 1.35926 0
M  V30 4176 N 400.565 -0.0233959 1.57583 0
M  V30 4177 C 401.814 -0.712133 1.8871 0
M  V30 4178 C 402.127 -1.76217 0.848944 0
M  V30 4179 O 403.333 -2.50389 1.04964 0
M  V30 4180 C 401.789 -1.3177 3.3491 0
M  V30 4181 C 401.397 -0.303715 4.46969 0
M  V30 4182 C 403.141 -1.98598 3.75179 0
M  V30 4183 C 401.048 -0.917945 5.84233 0
M  V30 4184 H 399.978 -0.269735 0.704101 0
M  V30 4185 H 402.629 0.0333114 1.8347 0
M  V30 4186 H 401.011 -2.11304 3.34913 0
M  V30 4187 H 402.185 0.465325 4.58445 0
M  V30 4188 H 400.5 0.2628 4.1557 0
M  V30 4189 H 403.097 -2.45416 4.75053 0
M  V30 4190 H 403.44 -2.80659 3.07468 0
M  V30 4191 H 403.973 -1.25831 3.77374 0
M  V30 4192 H 400.712 -0.136633 6.55358 0
M  V30 4193 H 400.232 -1.65669 5.76467 0
M  V30 4194 H 401.911 -1.4236 6.31144 0
M  V30 4195 N 402.043 -1.548 -0.295768 0
M  V30 4196 C 403.32 -1.65014 -1.05023 0
M  V30 4197 C 403.7 -0.501805 -2.05049 0
M  V30 4198 O 403.048 0.500869 -2.22943 0
M  V30 4199 C 403.258 -3.03252 -1.72741 0
M  V30 4200 C 404.606 -3.60242 -2.24746 0
M  V30 4201 O 405.63 -3.05737 -1.82765 0
M  V30 4202 O 404.489 -4.55687 -3.01681 0
M  V30 4203 H 401.583 -0.669314 -0.485744 0
M  V30 4204 H 404.129 -1.67144 -0.293438 0
M  V30 4205 H 402.901 -3.7827 -1.00138 0
M  V30 4206 H 402.524 -3.04922 -2.55163 0
M  V30 4207 N 403.521 0.559213 -1.47345 0
M  V30 4208 C 404.746 1.34676 -1.57725 0
M  V30 4209 C 405.171 1.86723 -0.227164 0
M  V30 4210 O 404.529 1.6286 0.796642 0
M  V30 4211 C 404.577 2.49399 -2.60447 0
M  V30 4212 O 403.681 3.51567 -2.15578 0
M  V30 4213 H 403.022 0.400115 -0.52991 0
M  V30 4214 H 405.552 0.676009 -1.93109 0
M  V30 4215 H 405.562 2.95996 -2.80803 0
M  V30 4216 H 404.237 2.10873 -3.58477 0
M  V30 4217 H 402.814 3.11289 -2.05313 0
M  V30 4218 N 404.999 1.35443 0.805782 0
M  V30 4219 C 405.929 1.31095 1.93226 0
M  V30 4220 C 406.91 0.185244 1.69088 0
M  V30 4221 O 408.095 0.380332 1.90439 0
M  V30 4222 C 405.225 1.08299 3.29983 0
M  V30 4223 C 404.179 2.17519 3.68605 0
M  V30 4224 C 403.505 1.79887 5.03532 0
M  V30 4225 C 404.805 3.5949 3.78898 0
M  V30 4226 H 406.499 2.25352 1.97122 0
M  V30 4227 H 404.045 1.0848 0.946996 0
M  V30 4228 H 405.998 1.03897 4.08391 0
M  V30 4229 H 404.722 0.104885 3.26432 0
M  V30 4230 H 403.381 2.2102 2.92482 0
M  V30 4231 H 403.029 0.80693 4.96485 0
M  V30 4232 H 402.729 2.53001 5.30344 0
M  V30 4233 H 404.253 1.77011 5.84379 0
M  V30 4234 H 405.667 3.58307 4.47536 0
M  V30 4235 H 404.064 4.31371 4.1718 0
M  V30 4236 H 405.134 3.95584 2.80431 0
M  V30 4237 N 406.477 -1.02803 1.19454 0
M  V30 4238 C 407.427 -2.0945 0.900827 0
M  V30 4239 C 408.411 -1.60335 -0.134715 0
M  V30 4240 O 409.603 -1.76857 0.0710924 0
M  V30 4241 C 406.732 -3.4044 0.442229 0
M  V30 4242 C 405.818 -3.96286 1.51056 0
M  V30 4243 N 406.209 -4.25785 2.73021 0
M  V30 4244 C 404.507 -4.24307 1.37404 0
M  V30 4245 C 405.208 -4.70654 3.41848 0
M  V30 4246 N 404.184 -4.72238 2.69243 0
M  V30 4247 H 407.986 -2.3015 1.82779 0
M  V30 4248 H 405.5 -1.20672 1.08683 0
M  V30 4249 H 407.497 -4.16354 0.21326 0
M  V30 4250 H 406.157 -3.21159 -0.478238 0
M  V30 4251 H 407.168 -4.15041 3.09776 0
M  V30 4252 H 403.845 -4.14285 0.517103 0
M  V30 4253 H 405.235 -5.02392 4.46152 0
M  V30 4254 N 407.956 -0.998596 -1.21925 0
M  V30 4255 C 409.367 -0.711939 -1.72593 0
M  V30 4256 C 409.718 0.770842 -1.80423 0
M  V30 4257 O 408.843 1.60237 -1.4544 0
M  V30 4258 C 409.438 -1.28567 -3.13458 0
M  V30 4259 C 407.997 -1.04828 -3.61508 0
M  V30 4260 C 407.144 -1.4024 -2.39224 0
M  V30 4261 H 410.095 -1.17027 -1.07193 0
M  V30 4262 H 410.116 -0.667098 -3.74607 0
M  V30 4263 H 409.628 -2.36486 -3.07727 0
M  V30 4264 H 407.729 0.0140383 -3.72597 0
M  V30 4265 H 407.842 -1.71566 -4.47328 0
M  V30 4266 H 406.206 -0.821077 -2.41103 0
M  V30 4267 H 406.989 -2.49176 -2.36149 0
M  V30 4268 N 409.434 1.37368 -0.772513 0
M  V30 4269 C 410.682 1.99279 -0.336516 0
M  V30 4270 C 411.003 1.6163 1.09091 0
M  V30 4271 O 410.273 0.882109 1.74916 0
M  V30 4272 H 408.853 0.737063 -0.121435 0
M  V30 4273 H 411.515 1.67836 -0.990809 0
M  V30 4274 H 410.611 3.09332 -0.414763 0
M  V30 4275 N 410.912 0.523116 1.48665 0
M  V30 4276 C 411.859 -0.243398 2.29513 0
M  V30 4277 C 412.829 -0.940139 1.36933 0
M  V30 4278 O 414.014 -0.942503 1.65896 0
M  V30 4279 C 411.154 -1.28855 3.20141 0
M  V30 4280 C 410.267 -0.60135 4.27794 0
M  V30 4281 C 409.402 -1.62884 5.05611 0
M  V30 4282 C 408.441 -0.924726 6.05075 0
M  V30 4283 N 407.578 -1.89744 6.75975 0
M  V30 4284 H 412.418 0.452234 2.94549 0
M  V30 4285 H 409.955 0.234858 1.45213 0
M  V30 4286 H 411.913 -1.90674 3.71079 0
M  V30 4287 H 410.543 -1.95266 2.57043 0
M  V30 4288 H 409.595 0.130623 3.80176 0
M  V30 4289 H 410.907 -0.0481585 4.98777 0
M  V30 4290 H 410.061 -2.32149 5.60528 0
M  V30 4291 H 408.8 -2.21592 4.34452 0
M  V30 4292 H 407.805 -0.217966 5.49368 0
M  V30 4293 H 409.03 -0.343851 6.78229 0
M  V30 4294 H 406.976 -2.47373 6.07571 0
M  V30 4295 H 406.893 -1.3955 7.43009 0
M  V30 4296 H 408.161 -2.58229 7.35485 0
M  V30 4297 N 412.39 -1.55475 0.257931 0
M  V30 4298 C 413.322 -2.19192 -0.669881 0
M  V30 4299 C 414.335 -1.17148 -1.1305 0
M  V30 4300 O 415.524 -1.43959 -1.05537 0
M  V30 4301 C 412.624 -2.79016 -1.92363 0
M  V30 4302 C 411.797 -4.06586 -1.61265 0
M  V30 4303 C 410.856 -4.50622 -2.7171 0
M  V30 4304 O 409.882 -5.16765 -2.38627 0
M  V30 4305 N 411.084 -4.19325 -4.01431 0
M  V30 4306 H 413.849 -2.99441 -0.124635 0
M  V30 4307 H 411.41 -1.6171 0.0783311 0
M  V30 4308 H 413.402 -3.05427 -2.65511 0
M  V30 4309 H 411.972 -2.0286 -2.37837 0
M  V30 4310 H 411.192 -3.87646 -0.715811 0
M  V30 4311 H 412.48 -4.89737 -1.37967 0
M  V30 4312 H 411.878 -3.66247 -4.31138 0
M  V30 4313 H 410.435 -4.50547 -4.7101 0
M  V30 4314 N 413.868 0.0150385 -1.57593 0
M  V30 4315 C 414.798 1.01047 -2.10503 0
M  V30 4316 C 415.779 1.36816 -1.01071 0
M  V30 4317 O 416.964 1.45455 -1.28672 0
M  V30 4318 C 414.094 2.30708 -2.59598 0
M  V30 4319 C 413.048 2.09142 -3.73421 0
M  V30 4320 C 412.374 3.44685 -4.08774 0
M  V30 4321 C 413.674 1.46619 -5.01298 0
M  V30 4322 H 415.368 0.569978 -2.93925 0
M  V30 4323 H 412.914 0.272724 -1.41394 0
M  V30 4324 H 414.867 3.00687 -2.95238 0
M  V30 4325 H 413.591 2.76843 -1.73279 0
M  V30 4326 H 412.25 1.41592 -3.38153 0
M  V30 4327 H 411.898 3.88495 -3.195 0
M  V30 4328 H 411.598 3.31077 -4.8545 0
M  V30 4329 H 413.122 4.16004 -4.4696 0
M  V30 4330 H 414.536 2.06535 -5.34805 0
M  V30 4331 H 412.933 1.43544 -5.82679 0
M  V30 4332 H 414.003 0.433611 -4.82957 0
M  V30 4333 N 415.346 1.54954 0.287554 0
M  V30 4334 C 416.576 1.78622 1.03816 0
M  V30 4335 C 416.984 0.552451 1.80955 0
M  V30 4336 O 416.327 -0.487665 1.77109 0
M  V30 4337 C 416.389 2.94975 2.055 0
M  V30 4338 C 416.053 4.32565 1.47433 0
M  V30 4339 C 417.05 5.12096 0.897436 0
M  V30 4340 C 414.735 4.79195 1.50591 0
M  V30 4341 C 416.729 6.36383 0.359851 0
M  V30 4342 C 414.416 6.03441 0.964459 0
M  V30 4343 C 415.414 6.81872 0.392413 0
M  V30 4344 O 415.102 8.03777 -0.140788 0
M  V30 4345 H 414.834 0.599144 0.313053 0
M  V30 4346 H 417.388 2.02761 0.328225 0
M  V30 4347 H 415.618 2.66493 2.80211 0
M  V30 4348 H 417.307 3.06097 2.6657 0
M  V30 4349 H 418.073 4.77209 0.865841 0
M  V30 4350 H 413.952 4.18167 1.94055 0
M  V30 4351 H 417.496 6.97545 -0.0872951 0
M  V30 4352 H 413.393 6.37813 0.993246 0
M  V30 4353 H 414.161 8.18495 -0.0287617 0
M  V30 4354 N 416.824 -0.551391 1.4764 0
M  V30 4355 C 417.734 -1.68525 1.63207 0
M  V30 4356 C 418.75 -1.6621 0.514815 0
M  V30 4357 O 419.926 -1.85551 0.783113 0
M  V30 4358 C 416.991 -3.05025 1.64805 0
M  V30 4359 C 416.052 -3.18362 2.88 0
M  V30 4360 C 415.285 -4.4835 2.89513 0
M  V30 4361 O 415.508 -5.34163 2.00065 0
M  V30 4362 O 414.442 -4.65602 3.81443 0
M  V30 4363 H 418.268 -1.58333 2.59161 0
M  V30 4364 H 415.853 -0.722063 1.30792 0
M  V30 4365 H 417.735 -3.86245 1.68502 0
M  V30 4366 H 416.41 -3.15587 0.720197 0
M  V30 4367 H 415.317 -2.36518 2.89845 0
M  V30 4368 H 416.65 -3.12707 3.80099 0
M  V30 4369 N 418.302 -1.35869 -0.798587 0
M  V30 4370 C 419.249 -1.29446 -1.91082 0
M  V30 4371 C 420.219 -0.16487 -1.6528 0
M  V30 4372 O 421.404 -0.349888 -1.87564 0
M  V30 4373 C 418.544 -1.0804 -3.27752 0
M  V30 4374 C 417.657 -2.29993 -3.65687 0
M  V30 4375 C 416.792 -2.01673 -4.91428 0
M  V30 4376 C 415.831 -3.19636 -5.22015 0
M  V30 4377 N 414.968 -2.91039 -6.38937 0
M  V30 4378 H 419.808 -2.24553 -1.95907 0
M  V30 4379 H 417.345 -1.11615 -0.958148 0
M  V30 4380 H 419.303 -0.936586 -4.06551 0
M  V30 4381 H 417.933 -0.16592 -3.22373 0
M  V30 4382 H 416.985 -2.55211 -2.82085 0
M  V30 4383 H 418.297 -3.18052 -3.84245 0
M  V30 4384 H 417.451 -1.84168 -5.78072 0
M  V30 4385 H 416.19 -1.10911 -4.74921 0
M  V30 4386 H 415.195 -3.37709 -4.33858 0
M  V30 4387 H 416.42 -4.11211 -5.40447 0
M  V30 4388 H 414.366 -2.0288 -6.2384 0
M  V30 4389 H 414.283 -3.72635 -6.57784 0
M  V30 4390 H 415.551 -2.77093 -7.28587 0
M  V30 4391 N 419.78 1.02168 -1.19998 0
M  V30 4392 C 420.713 2.10232 -0.887558 0
M  V30 4393 C 421.691 1.61827 0.158317 0
M  V30 4394 O 422.875 1.88471 0.0330249 0
M  V30 4395 C 420.002 3.37092 -0.32964 0
M  V30 4396 C 419.048 4.0438 -1.3557 0
M  V30 4397 S 419.881 4.48956 -2.91888 0
M  V30 4398 C 421.037 5.79024 -2.37658 0
M  V30 4399 H 421.27 2.36409 -1.80272 0
M  V30 4400 H 418.803 1.15211 -1.0279 0
M  V30 4401 H 420.761 4.10498 -0.0142824 0
M  V30 4402 H 419.422 3.08996 0.563941 0
M  V30 4403 H 418.615 4.95632 -0.9146 0
M  V30 4404 H 418.217 3.37176 -1.61828 0
M  V30 4405 H 420.509 6.53942 -1.77103 0
M  V30 4406 H 421.452 6.27924 -3.27287 0
M  V30 4407 H 421.86 5.35043 -1.79971 0
M  V30 4408 N 421.258 1.00505 1.21394 0
M  V30 4409 C 422.504 0.688793 1.90745 0
M  V30 4410 C 422.837 -0.778486 1.77914 0
M  V30 4411 O 422.112 -1.56433 1.15581 0
M  V30 4412 C 422.395 1.11063 3.42545 0
M  V30 4413 C 422.248 2.63737 3.64367 0
M  V30 4414 C 423.567 0.673059 4.34923 0
M  V30 4415 H 420.686 0.251702 0.692687 0
M  V30 4416 H 423.328 1.25074 1.43026 0
M  V30 4417 H 421.478 0.632508 3.83317 0
M  V30 4418 H 423.15 3.19313 3.32922 0
M  V30 4419 H 421.393 3.05248 3.08231 0
M  V30 4420 H 422.064 2.88305 4.70727 0
M  V30 4421 H 424.54 1.08392 4.01734 0
M  V30 4422 H 423.416 0.996383 5.39781 0
M  V30 4423 H 423.677 -0.425808 4.40045 0
M  V30 4424 N 422.737 -1.36956 0.779787 0
M  V30 4425 C 423.962 -2.04283 0.358224 0
M  V30 4426 C 424.387 -1.58422 -1.01411 0
M  V30 4427 O 423.745 -0.748179 -1.65142 0
M  V30 4428 C 423.793 -3.58152 0.419479 0
M  V30 4429 O 422.897 -4.08342 -0.577142 0
M  V30 4430 H 422.238 -0.645967 0.153698 0
M  V30 4431 H 424.768 -1.75108 1.05822 0
M  V30 4432 H 424.778 -4.07041 0.279636 0
M  V30 4433 H 423.453 -3.90886 1.42061 0
M  V30 4434 H 422.03 -3.70751 -0.399755 0
M  V30 4435 N 424.215 -0.530993 -1.48385 0
M  V30 4436 C 425.463 0.00273189 -2.021 0
M  V30 4437 C 425.784 1.34672 -1.41027 0
M  V30 4438 O 425.054 1.8724 -0.576012 0
M  V30 4439 H 423.634 0.00399774 -0.746989 0
M  V30 4440 H 426.296 -0.695054 -1.82085 0
M  V30 4441 H 425.392 0.11031 -3.11905 0
M  V30 4442 N 425.693 1.55336 -0.266172 0
M  V30 4443 C 426.626 2.18256 0.666296 0
M  V30 4444 C 427.604 1.14064 1.1588 0
M  V30 4445 O 428.788 1.42546 1.23341 0
M  V30 4446 C 425.915 2.79867 1.90768 0
M  V30 4447 C 424.961 3.97283 1.55141 0
M  V30 4448 S 425.794 5.31694 0.637313 0
M  V30 4449 C 426.95 5.96769 1.88727 0
M  V30 4450 H 427.183 2.97008 0.131647 0
M  V30 4451 H 424.716 1.54317 -0.0504869 0
M  V30 4452 H 426.674 3.15996 2.62025 0
M  V30 4453 H 425.335 2.01025 2.41346 0
M  V30 4454 H 424.528 4.3905 2.4749 0
M  V30 4455 H 424.13 3.6253 0.919113 0
M  V30 4456 H 426.422 6.15458 2.83227 0
M  V30 4457 H 427.365 6.91752 1.51276 0
M  V30 4458 H 427.773 5.26034 2.04814 0
M  V30 4459 N 427.171 -0.0066808 1.57599 0
M  V30 4460 C 428.401 -0.703066 1.94269 0
M  V30 4461 C 428.809 -1.68206 0.866222 0
M  V30 4462 O 428.152 -1.82966 -0.164087 0
M  V30 4463 C 428.214 -1.49616 3.26887 0
M  V30 4464 C 427.878 -0.679494 4.5192 0
M  V30 4465 C 428.875 0.0299508 5.19891 0
M  V30 4466 C 426.56 -0.627433 4.98366 0
M  V30 4467 C 428.554 0.780514 6.32603 0
M  V30 4468 C 426.241 0.126861 6.10968 0
M  V30 4469 C 427.239 0.829574 6.77943 0
M  V30 4470 O 426.927 1.57157 7.88389 0
M  V30 4471 H 426.659 -0.201217 0.645359 0
M  V30 4472 H 429.213 0.0385326 2.05364 0
M  V30 4473 H 427.443 -2.28209 3.12182 0
M  V30 4474 H 429.132 -2.07726 3.48719 0
M  V30 4475 H 429.898 -0.00115963 4.85 0
M  V30 4476 H 425.777 -1.16392 4.46065 0
M  V30 4477 H 429.321 1.32954 6.84813 0
M  V30 4478 H 425.218 0.159815 6.45302 0
M  V30 4479 H 425.986 1.48758 8.04868 0
M  V30 4480 N 428.649 -1.55105 -0.279332 0
M  V30 4481 C 429.579 -1.90557 -1.34945 0
M  V30 4482 C 430.56 -0.766738 -1.51839 0
M  V30 4483 O 431.745 -1.02434 -1.64988 0
M  V30 4484 C 428.875 -2.17193 -2.71006 0
M  V30 4485 C 427.829 -3.33021 -2.68851 0
M  V30 4486 C 427.155 -3.45123 -4.08405 0
M  V30 4487 C 428.455 -4.69578 -2.28678 0
M  V30 4488 H 430.149 -2.80188 -1.05522 0
M  V30 4489 H 427.695 -1.34811 -0.506173 0
M  V30 4490 H 429.648 -2.40581 -3.45975 0
M  V30 4491 H 428.372 -1.24355 -3.01999 0
M  V30 4492 H 427.031 -3.0959 -1.9634 0
M  V30 4493 H 426.679 -2.49762 -4.3661 0
M  V30 4494 H 426.379 -4.22995 -4.07859 0
M  V30 4495 H 427.903 -3.70796 -4.85121 0
M  V30 4496 H 429.317 -4.92553 -2.93368 0
M  V30 4497 H 427.714 -5.5032 -2.39306 0
M  V30 4498 H 428.784 -4.68828 -1.23807 0
M  V30 4499 N 430.127 0.543554 -1.4793 0
M  V30 4500 C 431.375 1.29752 -1.54948 0
M  V30 4501 C 431.696 1.93764 -0.219242 0
M  V30 4502 O 430.966 1.80639 0.75805 0
M  V30 4503 H 429.546 0.481874 -0.570795 0
M  V30 4504 H 432.208 0.633636 -1.84312 0
M  V30 4505 H 431.304 2.08392 -2.32334 0
M  V30 4506 N 431.605 1.3629 0.791371 0
M  V30 4507 C 432.515 1.32606 1.93527 0
M  V30 4508 C 433.531 0.228541 1.72493 0
M  V30 4509 O 434.707 0.460571 1.96063 0
M  V30 4510 C 431.772 1.11271 3.28359 0
M  V30 4511 C 430.833 2.3048 3.62185 0
M  V30 4512 C 430.066 2.10154 4.90583 0
M  V30 4513 O 430.289 1.07572 5.60165 0
M  V30 4514 O 429.223 2.97884 5.23019 0
M  V30 4515 H 433.049 2.28909 1.99585 0
M  V30 4516 H 430.634 1.16818 0.931344 0
M  V30 4517 H 432.516 1.01283 4.09047 0
M  V30 4518 H 431.191 0.180292 3.23198 0
M  V30 4519 H 430.098 2.46036 2.81811 0
M  V30 4520 H 431.431 3.22221 3.72068 0
M  V30 4521 N 433.083 -1.0153 1.20538 0
M  V30 4522 C 434.013 -2.11972 0.979295 0
M  V30 4523 C 434.994 -1.6985 -0.0921787 0
M  V30 4524 O 436.179 -1.94089 0.0655932 0
M  V30 4525 C 433.309 -3.43201 0.531984 0
M  V30 4526 C 432.263 -3.9907 1.54685 0
M  V30 4527 C 431.589 -5.26082 0.956127 0
M  V30 4528 C 432.889 -4.32313 2.93092 0
M  V30 4529 H 434.583 -2.31143 1.90298 0
M  V30 4530 H 432.129 -1.11079 0.916372 0
M  V30 4531 H 434.082 -4.1985 0.361044 0
M  V30 4532 H 432.806 -3.23792 -0.427327 0
M  V30 4533 H 431.465 -3.2453 1.70517 0
M  V30 4534 H 431.113 -5.02999 -0.0111538 0
M  V30 4535 H 430.813 -5.64426 1.63393 0
M  V30 4536 H 432.337 -6.05386 0.796284 0
M  V30 4537 H 433.751 -4.99845 2.80763 0
M  V30 4538 H 432.148 -4.81774 3.57791 0
M  V30 4539 H 433.218 -3.41025 3.44717 0
M  V30 4540 N 434.561 -1.01147 -1.20859 0
M  V30 4541 C 435.807 -0.698899 -1.90377 0
M  V30 4542 C 436.14 0.76904 -1.78324 0
M  V30 4543 O 435.415 1.55817 -1.16409 0
M  V30 4544 C 435.698 -1.12878 -3.41951 0
M  V30 4545 C 435.551 -2.65665 -3.62963 0
M  V30 4546 C 436.87 -0.696114 -4.3456 0
M  V30 4547 H 433.989 -0.255372 -0.691342 0
M  V30 4548 H 436.631 -1.25831 -1.42361 0
M  V30 4549 H 434.781 -0.652827 -3.82976 0
M  V30 4550 H 436.453 -3.21074 -3.31224 0
M  V30 4551 H 434.696 -3.06878 -3.06608 0
M  V30 4552 H 435.367 -2.90797 -4.69192 0
M  V30 4553 H 437.843 -1.10521 -4.01154 0
M  V30 4554 H 436.719 -1.025 -5.39245 0
M  V30 4555 H 436.98 0.402465 -4.40264 0
M  V30 4556 N 436.039 1.36541 -0.78704 0
M  V30 4557 C 437.455 1.52571 -0.46844 0
M  V30 4558 C 437.655 1.7415 1.01361 0
M  V30 4559 O 436.711 1.77163 1.79915 0
M  V30 4560 C 438.024 2.71299 -1.29682 0
M  V30 4561 C 439.572 2.85169 -1.29027 0
M  V30 4562 C 440.047 4.06898 -2.10233 0
M  V30 4563 N 441.538 4.1404 -2.07666 0
M  V30 4564 C 442.273 5.07301 -2.67271 0
M  V30 4565 N 441.769 6.06021 -3.35724 0
M  V30 4566 N 443.562 4.99898 -2.57018 0
M  V30 4567 H 435.713 1.20788 -1.74711 0
M  V30 4568 H 437.976 0.589364 -0.742532 0
M  V30 4569 H 437.682 2.61868 -2.34773 0
M  V30 4570 H 437.556 3.6539 -0.936479 0
M  V30 4571 H 439.943 2.94062 -0.247284 0
M  V30 4572 H 440.024 1.91992 -1.69035 0
M  V30 4573 H 439.668 3.98766 -3.1456 0
M  V30 4574 H 439.598 4.99218 -1.67597 0
M  V30 4575 H 442.089 3.43357 -1.57843 0
M  V30 4576 H 442.402 6.73741 -3.78541 0
M  V30 4577 H 440.747 6.06253 -3.39826 0
M  V30 4578 H 443.938 4.21724 -2.03142 0
M  V30 4579 H 444.111 5.72392 -3.03761 0
M  V30 4580 N 437.518 0.538854 1.48102 0
M  V30 4581 C 438.468 -0.23907 2.26743 0
M  V30 4582 C 439.452 -0.901923 1.33245 0
M  V30 4583 O 440.644 -0.803263 1.57723 0
M  V30 4584 C 437.773 -1.2799 3.18549 0
M  V30 4585 C 436.859 -0.621388 4.19523 0
M  V30 4586 N 437.25 0.298004 5.04921 0
M  V30 4587 C 435.548 -0.877533 4.37282 0
M  V30 4588 C 436.249 0.678757 5.77726 0
M  V30 4589 N 435.225 0.0377881 5.43587 0
M  V30 4590 H 439.027 0.468096 2.90148 0
M  V30 4591 H 436.541 0.357497 1.58416 0
M  V30 4592 H 438.538 -1.851 3.73555 0
M  V30 4593 H 437.198 -1.98835 2.567 0
M  V30 4594 H 438.209 0.671126 5.13533 0
M  V30 4595 H 434.886 -1.57588 3.86616 0
M  V30 4596 H 436.276 1.43316 6.56437 0
M  V30 4597 N 438.996 -1.55193 0.274407 0
M  V30 4598 C 440.245 -1.98758 -0.343213 0
M  V30 4599 C 440.558 -1.16624 -1.5703 0
M  V30 4600 O 441.764 -1.5033 -2.26082 0
M  V30 4601 C 440.22 -3.53759 -0.661996 0
M  V30 4602 C 439.828 -4.4467 0.54524 0
M  V30 4603 C 441.572 -4.05916 -1.24228 0
M  V30 4604 C 439.479 -5.91058 0.201084 0
M  V30 4605 H 438.409 -0.742353 -0.132014 0
M  V30 4606 H 441.06 -1.79545 0.378948 0
M  V30 4607 H 439.442 -3.68772 -1.44304 0
M  V30 4608 H 440.616 -4.41426 1.32212 0
M  V30 4609 H 438.931 -4.03143 1.04232 0
M  V30 4610 H 441.528 -5.12831 -1.51357 0
M  V30 4611 H 441.871 -3.54908 -2.17592 0
M  V30 4612 H 442.404 -3.9434 -0.523542 0
M  V30 4613 H 439.143 -6.46161 1.10258 0
M  V30 4614 H 438.663 -5.97373 -0.539045 0
M  V30 4615 H 440.342 -6.46669 -0.206954 0
M  V30 4616 N 440.474 -0.00167713 -1.576 0
M  V30 4617 C 441.723 0.682021 -1.89819 0
M  V30 4618 C 442.036 1.74844 -0.876871 0
M  V30 4619 O 443.242 2.48688 -1.08934 0
M  V30 4620 C 441.698 1.26425 -3.36964 0
M  V30 4621 C 441.306 0.232568 -4.47396 0
M  V30 4622 C 443.05 1.92604 -3.78291 0
M  V30 4623 C 440.957 0.824882 -5.85619 0
M  V30 4624 H 439.887 0.258499 -0.708304 0
M  V30 4625 H 442.538 -0.0624957 -1.83394 0
M  V30 4626 H 440.92 2.05949 -3.38232 0
M  V30 4627 H 442.094 -0.5382 -4.57646 0
M  V30 4628 H 440.409 -0.32888 -4.15099 0
M  V30 4629 H 443.006 2.37827 -4.78897 0
M  V30 4630 H 443.349 2.75732 -3.11894 0
M  V30 4631 H 443.882 1.19812 -3.79328 0
M  V30 4632 H 440.621 0.0323542 -6.55492 0
M  V30 4633 H 440.141 1.56477 -5.79029 0
M  V30 4634 H 441.82 1.32301 -6.33329 0
M  V30 4635 N 441.952 1.55251 0.271103 0
M  V30 4636 C 443.198 1.76207 1.00394 0
M  V30 4637 C 443.531 0.562604 1.85872 0
M  V30 4638 O 442.806 -0.439785 1.89463 0
M  V30 4639 C 443.089 3.06828 1.8849 0
M  V30 4640 C 442.942 4.37134 1.05992 0
M  V30 4641 C 444.261 3.33503 2.87165 0
M  V30 4642 H 441.38 0.641086 0.363562 0
M  V30 4643 H 444.022 1.87982 0.276189 0
M  V30 4644 H 442.172 2.96921 2.5054 0
M  V30 4645 H 443.844 4.59001 0.459978 0
M  V30 4646 H 442.087 4.32275 0.363443 0
M  V30 4647 H 442.758 5.2486 1.70955 0
M  V30 4648 H 445.234 3.43215 2.3525 0
M  V30 4649 H 444.11 4.2616 3.45946 0
M  V30 4650 H 444.371 2.53235 3.62387 0
M  V30 4651 N 443.43 -0.535701 1.48216 0
M  V30 4652 C 444.66 -1.3148 1.59363 0
M  V30 4653 C 445.068 -1.8753 0.250844 0
M  V30 4654 O 444.411 -1.66821 -0.769174 0
M  V30 4655 C 444.473 -2.50731 2.57632 0
M  V30 4656 C 444.137 -2.15811 4.02833 0
M  V30 4657 C 445.134 -1.71822 4.90686 0
M  V30 4658 C 442.819 -2.26509 4.48329 0
M  V30 4659 C 444.813 -1.3899 6.22062 0
M  V30 4660 C 442.5 -1.93289 5.79726 0
M  V30 4661 C 443.498 -1.49599 6.66415 0
M  V30 4662 O 443.186 -1.16812 7.95368 0
M  V30 4663 H 442.918 -0.406315 0.540263 0
M  V30 4664 H 445.472 -0.653569 1.94725 0
M  V30 4665 H 443.702 -3.19817 2.1738 0
M  V30 4666 H 445.391 -3.12797 2.58675 0
M  V30 4667 H 446.157 -1.63031 4.56778 0
M  V30 4668 H 442.036 -2.59471 3.81045 0
M  V30 4669 H 445.58 -1.04816 6.89681 0
M  V30 4670 H 441.477 -2.01718 6.13172 0
M  V30 4671 H 442.245 -1.30259 8.08069 0
M  V30 4672 N 444.908 -1.36708 -0.784132 0
M  V30 4673 C 445.838 -1.34153 -1.91116 0
M  V30 4674 C 446.819 -0.212121 -1.68772 0
M  V30 4675 O 448.004 -0.410581 -1.8981 0
M  V30 4676 C 445.134 -1.13535 -3.28218 0
M  V30 4677 C 444.088 -2.23356 -3.65097 0
M  V30 4678 C 443.414 -1.87875 -5.00607 0
M  V30 4679 C 444.714 -3.65473 -3.73131 0
M  V30 4680 H 446.408 -2.28459 -1.93512 0
M  V30 4681 H 443.954 -1.09973 -0.929618 0
M  V30 4682 H 445.907 -1.10381 -4.06687 0
M  V30 4683 H 444.631 -0.156804 -3.26223 0
M  V30 4684 H 443.29 -2.25645 -2.88929 0
M  V30 4685 H 442.938 -0.885814 -4.95139 0
M  V30 4686 H 442.638 -2.61406 -5.26252 0
M  V30 4687 H 444.162 -1.86286 -5.81489 0
M  V30 4688 H 445.576 -3.65382 -4.41779 0
M  V30 4689 H 443.973 -4.37953 -4.10265 0
M  V30 4690 H 445.043 -3.99995 -2.74102 0
M  V30 4691 N 446.386 1.0089 -1.21074 0
M  V30 4692 C 447.632 1.74866 -1.02712 0
M  V30 4693 C 447.965 1.89178 0.438787 0
M  V30 4694 O 447.24 1.42325 1.32567 0
M  V30 4695 C 447.523 3.16347 -1.72036 0
M  V30 4696 C 447.376 3.09782 -3.26121 0
M  V30 4697 C 448.695 4.15187 -1.45973 0
M  V30 4698 H 445.814 0.634736 -0.374539 0
M  V30 4699 H 448.456 1.17646 -1.49196 0
M  V30 4700 H 446.606 3.65201 -1.32517 0
M  V30 4701 H 448.278 2.68673 -3.74983 0
M  V30 4702 H 446.521 2.46982 -3.56626 0
M  V30 4703 H 447.192 4.09829 -3.6979 0
M  V30 4704 H 449.668 3.75022 -1.80272 0
M  V30 4705 H 448.544 5.12331 -1.96999 0
M  V30 4706 H 448.805 4.40386 -0.388924 0
M  V30 4707 N 447.864 1.01787 1.20321 0
M  V30 4708 C 448.774 0.598898 2.26827 0
M  V30 4709 C 449.79 -0.36418 1.70146 0
M  V30 4710 O 450.966 -0.224812 2.00141 0
M  V30 4711 C 448.031 -0.0549769 3.46656 0
M  V30 4712 C 447.092 0.954205 4.18561 0
M  V30 4713 C 446.325 0.331439 5.3267 0
M  V30 4714 O 446.548 -0.86851 5.63749 0
M  V30 4715 O 445.482 1.0488 5.92692 0
M  V30 4716 H 449.308 1.48562 2.64883 0
M  V30 4717 H 446.893 0.787434 1.26964 0
M  V30 4718 H 448.775 -0.420102 4.19301 0
M  V30 4719 H 447.45 -0.915876 3.10473 0
M  V30 4720 H 446.357 1.37072 3.48083 0
M  V30 4721 H 447.69 1.78511 4.58688 0
M  V30 4722 N 449.342 -1.36122 0.79427 0
M  V30 4723 C 450.274 -2.28683 0.153903 0
M  V30 4724 C 451.287 -1.49707 -0.639669 0
M  V30 4725 O 452.476 -1.7209 -0.474054 0
M  V30 4726 C 449.576 -3.29202 -0.804921 0
M  V30 4727 C 448.749 -4.37358 -0.060366 0
M  V30 4728 C 447.808 -5.17811 -0.935849 0
M  V30 4729 O 446.834 -5.67853 -0.391309 0
M  V30 4730 N 448.036 -5.34721 -2.25951 0
M  V30 4731 H 450.801 -2.84278 0.949008 0
M  V30 4732 H 448.362 -1.4834 0.648611 0
M  V30 4733 H 450.354 -3.79914 -1.39455 0
M  V30 4734 H 448.924 -2.74212 -1.50088 0
M  V30 4735 H 448.144 -3.87746 0.710382 0
M  V30 4736 H 449.432 -5.06777 0.45324 0
M  V30 4737 H 448.83 -4.95687 -2.72601 0
M  V30 4738 H 447.387 -5.88657 -2.79867 0
M  V30 4739 N 450.82 -0.546701 -1.47814 0
M  V30 4740 C 451.767 0.206854 -2.29871 0
M  V30 4741 C 452.737 0.918235 -1.38411 0
M  V30 4742 O 453.922 0.915991 -1.67375 0
M  V30 4743 C 451.062 1.23746 -3.22151 0
M  V30 4744 C 450.175 0.533216 -4.28697 0
M  V30 4745 C 449.31 1.5482 -5.08138 0
M  V30 4746 C 448.349 0.828347 -6.06469 0
M  V30 4747 N 447.486 1.78966 -6.78908 0
M  V30 4748 H 452.326 -0.499037 -2.93792 0
M  V30 4749 H 449.863 -0.25793 -1.44821 0
M  V30 4750 H 451.821 1.84746 -3.74065 0
M  V30 4751 H 450.451 1.91151 -2.60117 0
M  V30 4752 H 449.503 -0.191089 -3.7992 0
M  V30 4753 H 450.815 -0.0311987 -4.9879 0
M  V30 4754 H 449.969 2.23202 -5.6415 0
M  V30 4755 H 448.708 2.14652 -4.37922 0
M  V30 4756 H 447.713 0.130539 -5.49645 0
M  V30 4757 H 448.938 0.235907 -6.7869 0
M  V30 4758 H 446.884 2.37675 -6.1143 0
M  V30 4759 H 446.801 1.27712 -7.45135 0
M  V30 4760 H 448.069 2.46496 -7.395 0
M  V30 4761 N 452.299 1.55045 -0.282633 0
M  V30 4762 C 453.548 1.98938 0.332667 0
M  V30 4763 C 453.861 1.17455 1.56409 0
M  V30 4764 O 455.067 1.51527 2.25282 0
M  V30 4765 C 453.523 3.54105 0.643226 0
M  V30 4766 C 453.131 4.44374 -0.568814 0
M  V30 4767 C 454.875 4.06569 1.22074 0
M  V30 4768 C 452.782 5.90943 -0.232426 0
M  V30 4769 H 451.712 0.743043 0.128075 0
M  V30 4770 H 454.363 1.79341 -0.388464 0
M  V30 4771 H 452.745 3.69532 1.42346 0
M  V30 4772 H 453.919 4.40718 -1.34551 0
M  V30 4773 H 452.234 4.02585 -1.06369 0
M  V30 4774 H 454.831 5.13626 1.48635 0
M  V30 4775 H 455.174 3.56057 2.15707 0
M  V30 4776 H 455.707 3.94612 0.502621 0
M  V30 4777 H 452.446 6.45567 -1.13683 0
M  V30 4778 H 451.966 5.9765 0.507357 0
M  V30 4779 H 453.645 6.4677 0.172657 0
M  V30 4780 N 453.777 0.010035 1.57597 0
M  V30 4781 C 454.707 -0.976857 2.12084 0
M  V30 4782 C 455.688 -1.35191 1.03235 0
M  V30 4783 O 456.873 -1.43389 1.3097 0
M  V30 4784 C 454.003 -2.26548 2.63236 0
M  V30 4785 C 452.957 -2.03175 3.76701 0
M  V30 4786 C 452.283 -3.38138 4.14206 0
M  V30 4787 C 453.583 -1.38625 5.03568 0
M  V30 4788 H 455.277 -0.523145 2.94794 0
M  V30 4789 H 452.823 -0.250195 1.4181 0
M  V30 4790 H 454.776 -2.95952 2.99984 0
M  V30 4791 H 453.5 -2.74051 1.77661 0
M  V30 4792 H 452.159 -1.36195 3.40362 0
M  V30 4793 H 451.807 -3.83363 3.25641 0
M  V30 4794 H 451.507 -3.23312 4.90656 0
M  V30 4795 H 453.031 -4.08841 4.53521 0
M  V30 4796 H 454.445 -1.98 5.38023 0
M  V30 4797 H 452.842 -1.34256 5.84889 0
M  V30 4798 H 453.912 -0.356722 4.83586 0
M  V30 4799 N 455.255 -1.55392 -0.262866 0
M  V30 4800 C 456.502 -1.76476 -0.993109 0
M  V30 4801 C 456.83 -0.571479 -1.85915 0
M  V30 4802 O 456.085 0.445733 -1.90556 0
M  V30 4803 C 456.384 -3.02889 -1.89718 0
M  V30 4804 C 456.05 -4.34974 -1.18781 0
M  V30 4805 C 454.712 -4.7087 -0.991699 0
M  V30 4806 C 457.064 -5.16695 -0.683798 0
M  V30 4807 C 454.392 -5.86036 -0.279024 0
M  V30 4808 C 456.744 -6.32598 0.0153327 0
M  V30 4809 C 455.408 -6.67127 0.223062 0
M  V30 4810 H 454.678 -0.64577 -0.363404 0
M  V30 4811 H 457.325 -1.89664 -0.264525 0
M  V30 4812 H 455.63 -2.84644 -2.6923 0
M  V30 4813 H 457.327 -3.16399 -2.46359 0
M  V30 4814 H 453.917 -4.06765 -1.35058 0
M  V30 4815 H 458.101 -4.8943 -0.8229 0
M  V30 4816 H 453.357 -6.11306 -0.107456 0
M  V30 4817 H 457.531 -6.95171 0.413584 0
M  V30 4818 H 455.158 -7.56216 0.777265 0
M  V30 4819 N 456.733 0.527833 -1.48498 0
M  V30 4820 C 458.149 0.856571 -1.34666 0
M  V30 4821 C 458.349 1.98271 -0.35931 0
M  V30 4822 O 457.405 2.51551 0.218703 0
M  V30 4823 C 458.718 1.22207 -2.74747 0
M  V30 4824 C 460.266 1.33183 -2.83251 0
M  V30 4825 C 460.741 1.73075 -4.24039 0
M  V30 4826 N 462.232 1.80174 -4.26722 0
M  V30 4827 C 462.967 2.1243 -5.32598 0
M  V30 4828 N 462.463 2.43096 -6.4875 0
M  V30 4829 N 464.256 2.13454 -5.19994 0
M  V30 4830 H 456.407 -0.215174 -2.11307 0
M  V30 4831 H 458.67 -0.0336281 -0.947403 0
M  V30 4832 H 458.376 0.468195 -3.4857 0
M  V30 4833 H 458.25 2.17173 -3.08409 0
M  V30 4834 H 460.637 2.07647 -2.09683 0
M  V30 4835 H 460.718 0.363333 -2.53206 0
M  V30 4836 H 460.362 0.991712 -4.98124 0
M  V30 4837 H 460.292 2.70979 -4.51529 0
M  V30 4838 H 462.783 1.58744 -3.42942 0
M  V30 4839 H 463.096 2.6682 -7.25277 0
M  V30 4840 H 461.441 2.40611 -6.52021 0
M  V30 4841 H 464.632 1.88956 -4.28268 0
M  V30 4842 H 464.805 2.38261 -6.02608 0
M  V30 4843 N 458.211 1.37122 0.776871 0
M  V30 4844 C 459.459 1.31787 1.53221 0
M  V30 4845 C 459.78 -0.0987589 1.9475 0
M  V30 4846 O 459.05 -1.0417 1.65908 0
M  V30 4847 H 457.63 0.484839 0.568278 0
M  V30 4848 H 460.292 1.71556 0.924917 0
M  V30 4849 H 459.388 1.95355 2.43398 0
M  V30 4850 N 459.689 -1.00246 1.21608 0
M  V30 4851 C 460.966 -1.71336 0.943568 0
M  V30 4852 C 461.346 -2.03972 -0.543943 0
M  V30 4853 O 460.694 -1.71545 -1.50946 0
M  V30 4854 C 460.904 -2.97094 1.83128 0
M  V30 4855 C 462.252 -3.70071 2.08165 0
M  V30 4856 O 463.276 -3.07081 1.80498 0
M  V30 4857 O 462.135 -4.83376 2.54971 0
M  V30 4858 H 459.229 -0.747386 0.354039 0
M  V30 4859 H 461.775 -1.05967 1.32549 0
M  V30 4860 H 460.547 -2.69407 2.83788 0
M  V30 4861 H 460.17 -3.70204 1.45034 0
M  V30 4862 N 461.167 -1.02423 -1.1978 0
M  V30 4863 C 462.097 -0.62157 -2.25075 0
M  V30 4864 C 463.078 0.367148 -1.6609 0
M  V30 4865 O 464.263 0.250892 -1.92573 0
M  V30 4866 C 461.393 0.0331826 -3.47284 0
M  V30 4867 C 460.347 -0.877323 -4.18912 0
M  V30 4868 C 459.673 -0.0879296 -5.34628 0
M  V30 4869 C 460.973 -2.18892 -4.74219 0
M  V30 4870 H 462.667 -1.50179 -2.59011 0
M  V30 4871 H 460.213 -0.723547 -1.24502 0
M  V30 4872 H 462.166 0.326488 -4.20133 0
M  V30 4873 H 460.89 0.948164 -3.12534 0
M  V30 4874 H 459.549 -1.15475 -3.47938 0
M  V30 4875 H 459.197 0.828941 -4.96123 0
M  V30 4876 H 458.897 -0.694359 -5.83483 0
M  V30 4877 H 460.421 0.198743 -6.10276 0
M  V30 4878 H 461.835 -1.95746 -5.38847 0
M  V30 4879 H 460.232 -2.74686 -5.33542 0
M  V30 4880 H 461.302 -2.84674 -3.92541 0
M  V30 4881 N 462.645 1.35699 -0.801477 0
M  V30 4882 C 464.056 1.81415 -0.441073 0
M  V30 4883 C 464.407 1.66595 1.03636 0
M  V30 4884 O 463.532 1.19369 1.80499 0
M  V30 4885 C 464.127 3.29369 -0.793819 0
M  V30 4886 C 462.686 3.73248 -0.486083 0
M  V30 4887 C 461.833 2.57775 -1.02213 0
M  V30 4888 H 464.784 1.23749 -0.993572 0
M  V30 4889 H 464.805 3.80395 -0.0894158 0
M  V30 4890 H 464.317 3.40123 -1.86917 0
M  V30 4891 H 462.418 3.68046 0.580735 0
M  V30 4892 H 462.531 4.68222 -1.01513 0
M  V30 4893 H 460.895 2.50788 -0.444712 0
M  V30 4894 H 461.678 2.71309 -2.10348 0
M  V30 4895 N 464.123 0.554532 1.47522 0
M  V30 4896 C 465.033 -0.197865 2.33764 0
M  V30 4897 C 466.049 -0.914576 1.48025 0
M  V30 4898 O 467.225 -0.884067 1.80959 0
M  V30 4899 C 464.29 -1.21628 3.24665 0
M  V30 4900 C 463.351 -0.507283 4.26292 0
M  V30 4901 C 462.584 -1.47718 5.1285 0
M  V30 4902 O 462.807 -2.7118 5.01814 0
M  V30 4903 O 461.741 -1.00313 5.93482 0
M  V30 4904 H 465.567 0.50949 2.99396 0
M  V30 4905 H 463.152 0.315176 1.46038 0
M  V30 4906 H 465.034 -1.80421 3.80823 0
M  V30 4907 H 463.709 -1.9056 2.61665 0
M  V30 4908 H 462.616 0.121778 3.73902 0
M  V30 4909 H 463.949 0.140544 4.91999 0
M  V30 4910 N 465.601 -1.54893 0.290851 0
M  V30 4911 C 467.017 -1.59476 -0.0628432 0
M  V30 4912 C 467.217 -1.30795 -1.5328 0
M  V30 4913 O 466.273 -1.07644 -2.28406 0
M  V30 4914 C 467.586 -2.98928 0.325962 0
M  V30 4915 C 469.134 -3.11799 0.273882 0
M  V30 4916 C 469.609 -4.53544 0.637359 0
M  V30 4917 N 471.1 -4.59433 0.589507 0
M  V30 4918 C 471.835 -5.67164 0.84335 0
M  V30 4919 N 471.331 -6.82975 1.16263 0
M  V30 4920 N 473.124 -5.56786 0.771091 0
M  V30 4921 H 465.275 -1.71798 1.24896 0
M  V30 4922 H 467.538 -0.801879 0.505663 0
M  V30 4923 H 467.244 -3.24805 1.34887 0
M  V30 4924 H 467.118 -3.75793 -0.325441 0
M  V30 4925 H 469.505 -2.85677 -0.739765 0
M  V30 4926 H 469.586 -2.37112 0.959766 0
M  V30 4927 H 469.23 -4.80394 1.64877 0
M  V30 4928 H 469.16 -5.26553 -0.0704866 0
M  V30 4929 H 471.651 -3.76245 0.353252 0
M  V30 4930 H 471.964 -7.61048 1.34257 0
M  V30 4931 H 470.309 -6.84552 1.20057 0
M  V30 4932 H 473.5 -4.65187 0.521383 0
M  V30 4933 H 473.673 -6.40664 0.972295 0
M  V30 4934 N 467.08 -0.0183926 -1.57589 0
M  V30 4935 C 468.01 0.965596 -2.12599 0
M  V30 4936 C 468.991 1.34641 -1.0395 0
M  V30 4937 O 470.176 1.42693 -1.31729 0
M  V30 4938 C 467.306 2.25149 -2.64434 0
M  V30 4939 C 466.26 2.01175 -3.77773 0
M  V30 4940 C 465.586 3.35937 -4.15994 0
M  V30 4941 C 466.886 1.35953 -5.04296 0
M  V30 4942 H 468.58 0.507504 -2.95067 0
M  V30 4943 H 466.126 0.242671 -1.41941 0
M  V30 4944 H 468.079 2.94357 -3.01549 0
M  V30 4945 H 466.803 2.73105 -1.79112 0
M  V30 4946 H 465.462 1.34388 -3.4108 0
M  V30 4947 H 465.11 3.81631 -3.27669 0
M  V30 4948 H 464.81 3.20705 -4.92364 0
M  V30 4949 H 466.334 4.0643 -4.55683 0
M  V30 4950 H 467.748 1.95144 -5.39065 0
M  V30 4951 H 466.145 1.31152 -5.85593 0
M  V30 4952 H 467.215 0.331071 -4.83768 0
M  V30 4953 N 468.558 1.5553 0.254621 0
M  V30 4954 C 469.505 1.89666 1.31512 0
M  V30 4955 C 470.475 0.750057 1.482 0
M  V30 4956 O 471.66 1.00301 1.62309 0
M  V30 4957 C 468.8 2.19009 2.667 0
M  V30 4958 C 467.913 3.46435 2.58083 0
M  V30 4959 C 467.048 3.65386 3.85573 0
M  V30 4960 C 466.087 4.8644 3.71541 0
M  V30 4961 N 465.224 5.01952 4.90906 0
M  V30 4962 H 470.064 2.80109 1.017 0
M  V30 4963 H 467.601 1.38666 0.490938 0
M  V30 4964 H 469.559 2.34025 3.45381 0
M  V30 4965 H 468.189 1.31779 2.94676 0
M  V30 4966 H 467.241 3.39792 1.71013 0
M  V30 4967 H 468.553 4.35258 2.43622 0
M  V30 4968 H 467.707 3.80319 4.72697 0
M  V30 4969 H 466.446 2.74781 4.02922 0
M  V30 4970 H 465.451 4.71491 2.82801 0
M  V30 4971 H 466.676 5.78497 3.55694 0
M  V30 4972 H 464.622 4.14283 5.08631 0
M  V30 4973 H 464.539 5.84851 4.79046 0
M  V30 4974 H 465.807 5.21289 5.7955 0
M  V30 4975 N 470.036 -0.519951 1.48776 0
M  V30 4976 C 471.282 -1.27711 1.57536 0
M  V30 4977 C 471.615 -1.92547 0.252866 0
M  V30 4978 O 470.89 -1.7979 -0.742021 0
M  V30 4979 C 471.173 -2.35875 2.72094 0
M  V30 4980 C 471.026 -1.75664 4.1408 0
M  V30 4981 C 472.345 -3.37575 2.82367 0
M  V30 4982 H 469.464 -0.462971 0.573434 0
M  V30 4983 H 472.106 -0.578194 1.80989 0
M  V30 4984 H 470.256 -2.95488 2.52228 0
M  V30 4985 H 471.928 -1.20025 4.45412 0
M  V30 4986 H 470.171 -1.06154 4.20611 0
M  V30 4987 H 470.842 -2.54029 4.90075 0
M  V30 4988 H 473.318 -2.87929 3.00393 0
M  V30 4989 H 472.194 -4.1064 3.64233 0
M  V30 4990 H 472.455 -3.98743 1.90936 0
M  V30 4991 N 471.514 -1.37532 -0.769588 0
M  V30 4992 C 472.93 -1.18379 -1.07045 0
M  V30 4993 C 473.13 -0.0214312 -2.01489 0
M  V30 4994 O 472.186 0.637809 -2.44312 0
M  V30 4995 C 473.499 -2.50338 -1.66588 0
M  V30 4996 C 475.047 -2.56879 -1.78835 0
M  V30 4997 C 475.522 -3.88974 -2.41792 0
M  V30 4998 N 477.013 -3.90428 -2.4924 0
M  V30 4999 C 477.748 -4.89388 -2.98809 0
M  V30 5000 N 477.244 -5.98745 -3.48535 0
M  V30 5001 N 479.037 -4.76791 -2.97703 0
M  V30 5002 H 471.188 -2.11921 -0.142541 0
M  V30 5003 H 473.451 -0.939608 -0.125863 0
M  V30 5004 H 473.157 -3.35767 -1.0466 0
M  V30 5005 H 473.031 -2.67583 -2.65856 0
M  V30 5006 H 475.418 -1.71856 -2.39895 0
M  V30 5007 H 475.499 -2.43516 -0.783166 0
M  V30 5008 H 475.143 -4.74412 -1.81371 0
M  V30 5009 H 475.073 -3.99641 -3.4292 0
M  V30 5010 H 477.564 -3.11433 -2.14052 0
M  V30 5011 H 477.877 -6.70205 -3.84767 0
M  V30 5012 H 476.222 -6.02387 -3.46634 0
M  V30 5013 H 479.413 -3.90478 -2.58157 0
M  V30 5014 H 479.586 -5.54069 -3.36024 0
M  V30 5015 N 472.992 0.995999 -1.22138 0
M  V30 5016 C 473.94 2.10673 -0.985876 0
M  V30 5017 C 474.934 1.69255 0.0699553 0
M  V30 5018 O 476.14 1.79812 -0.0822176 0
M  V30 5019 H 472.515 0.688865 -0.30161 0
M  V30 5020 H 474.486 2.27711 -1.92848 0
M  V30 5021 C 473.235 3.42881 -0.576909 0
M  V30 5022 H 472.558 3.75191 -1.38101 0
M  V30 5023 H 473.998 4.21589 -0.451518 0
M  V30 5024 C 472.457 3.29265 0.713196 0
M  V30 5025 O 472.987 3.60777 1.76643 0
M  V30 5026 N 471.193 2.82456 0.683162 0
M  V30 5027 H 470.74 2.5701 -0.174242 0
M  V30 5028 H 470.698 2.73727 1.54663 0
M  V30 5029 N 474.47 1.03057 1.19235 0
M  V30 5030 C 475.695 0.74757 1.93458 0
M  V30 5031 C 476.12 -0.687648 1.7508 0
M  V30 5032 O 475.478 -1.47499 1.05422 0
M  V30 5033 C 475.526 1.10604 3.43219 0
M  V30 5034 O 474.63 0.225671 4.11782 0
M  V30 5035 H 473.971 0.276047 0.603899 0
M  V30 5036 H 476.501 1.3777 1.51263 0
M  V30 5037 H 476.511 1.06366 3.93891 0
M  V30 5038 H 475.186 2.15165 3.55917 0
M  V30 5039 H 473.763 0.326795 3.71465 0
M  V30 5040 N 475.948 -1.35272 0.808662 0
M  V30 5041 C 476.878 -2.32315 0.234981 0
M  V30 5042 C 477.859 -1.57572 -0.64071 0
M  V30 5043 O 479.044 -1.8563 -0.570551 0
M  V30 5044 C 476.174 -3.41801 -0.615601 0
M  V30 5045 C 475.128 -4.27694 0.161767 0
M  V30 5046 C 474.454 -5.28519 -0.810649 0
M  V30 5047 C 475.754 -5.04231 1.36193 0
M  V30 5048 H 477.448 -2.80543 1.04575 0
M  V30 5049 H 474.994 -1.3488 0.504315 0
M  V30 5050 H 476.947 -4.08693 -1.02702 0
M  V30 5051 H 475.671 -2.92186 -1.45928 0
M  V30 5052 H 474.33 -3.62384 0.554382 0
M  V30 5053 H 473.978 -4.75171 -1.64988 0
M  V30 5054 H 473.678 -5.8686 -0.294822 0
M  V30 5055 H 475.202 -5.98283 -1.22023 0
M  V30 5056 H 476.616 -5.64058 1.02528 0
M  V30 5057 H 475.013 -5.72077 1.81239 0
M  V30 5058 H 476.083 -4.34753 2.14751 0
M  V30 5059 N 477.426 -0.562348 -1.47226 0
M  V30 5060 C 478.356 0.170627 -2.32876 0
M  V30 5061 C 479.337 0.903748 -1.44106 0
M  V30 5062 O 480.522 0.883206 -1.72954 0
M  V30 5063 C 477.652 1.19786 -3.25989 0
M  V30 5064 C 476.606 0.580875 -4.2404 0
M  V30 5065 C 475.932 1.71311 -5.06514 0
M  V30 5066 C 477.232 -0.468714 -5.20193 0
M  V30 5067 H 478.926 -0.544441 -2.94408 0
M  V30 5068 H 476.472 -0.263271 -1.41573 0
M  V30 5069 H 478.425 1.71884 -3.84752 0
M  V30 5070 H 477.149 1.94294 -2.62521 0
M  V30 5071 H 475.808 0.0811538 -3.6651 0
M  V30 5072 H 475.456 2.44736 -4.39447 0
M  V30 5073 H 475.156 1.30604 -5.72902 0
M  V30 5074 H 476.68 2.23725 -5.68137 0
M  V30 5075 H 478.094 -0.0336028 -5.7329 0
M  V30 5076 H 476.491 -0.794957 -5.94811 0
M  V30 5077 H 477.561 -1.36269 -4.65359 0
M  V30 5078 N 478.904 1.54736 -0.299062 0
M  V30 5079 C 480.132 2.04512 0.313447 0
M  V30 5080 C 480.547 1.17643 1.47667 0
M  V30 5081 O 479.904 0.20164 1.81383 0
M  V30 5082 C 479.955 3.53171 0.771542 0
M  V30 5083 O 479.676 4.36736 -0.345379 0
M  V30 5084 C 481.177 4.18936 1.4494 0
M  V30 5085 H 478.397 0.667507 0.0683784 0
M  V30 5086 H 480.941 1.99752 -0.438129 0
M  V30 5087 H 479.096 3.58298 1.47314 0
M  V30 5088 H 479.51 5.24499 0.0109219 0
M  V30 5089 H 480.984 5.24482 1.72111 0
M  V30 5090 H 481.461 3.68554 2.38883 0
M  V30 5091 H 482.067 4.17879 0.791028 0
M  V30 5092 N 480.382 0.0267497 1.57577 0
M  V30 5093 C 481.798 -0.32962 1.56159 0
M  V30 5094 C 481.998 -1.73059 1.03213 0
M  V30 5095 O 481.054 -2.43233 0.677804 0
M  V30 5096 C 482.367 -0.18039 3.00158 0
M  V30 5097 C 483.915 -0.253334 3.11973 0
M  V30 5098 C 484.39 -0.132921 4.57807 0
M  V30 5099 N 485.881 -0.189979 4.6281 0
M  V30 5100 C 486.616 -0.120554 5.73273 0
M  V30 5101 N 486.112 -0.000180315 6.928 0
M  V30 5102 N 487.905 -0.174369 5.61829 0
M  V30 5103 H 480.056 0.942896 1.90324 0
M  V30 5104 H 482.319 0.3639 0.875375 0
M  V30 5105 H 482.025 0.784576 3.42837 0
M  V30 5106 H 481.899 -0.951565 3.65 0
M  V30 5107 H 484.286 -1.20876 2.69208 0
M  V30 5108 H 484.367 0.548177 2.49857 0
M  V30 5109 H 484.011 0.819073 5.01252 0
M  V30 5110 H 483.941 -0.953264 5.179 0
M  V30 5111 H 486.432 -0.283257 3.76837 0
M  V30 5112 H 486.745 0.0461666 7.72786 0
M  V30 5113 H 485.09 0.034569 6.94991 0
M  V30 5114 H 488.281 -0.266794 4.67339 0
M  V30 5115 H 488.454 -0.116802 6.47895 0
M  V30 5116 N 481.861 -1.55662 -0.24637 0
M  V30 5117 C 483.091 -1.81312 -0.990438 0
M  V30 5118 C 483.499 -0.600234 -1.79426 0
M  V30 5119 O 482.842 0.440537 -1.78339 0
M  V30 5120 C 482.904 -3.0032 -1.97607 0
M  V30 5121 C 482.568 -4.36322 -1.35912 0
M  V30 5122 C 483.565 -5.14295 -0.761348 0
M  V30 5123 C 481.25 -4.83019 -1.37833 0
M  V30 5124 C 483.244 -6.37114 -0.190998 0
M  V30 5125 C 480.931 -6.05786 -0.804128 0
M  V30 5126 C 481.929 -6.82672 -0.211489 0
M  V30 5127 O 481.617 -8.03121 0.353845 0
M  V30 5128 H 481.349 -0.607233 -0.297058 0
M  V30 5129 H 483.903 -2.0356 -0.274351 0
M  V30 5130 H 482.133 -2.73829 -2.73047 0
M  V30 5131 H 483.822 -3.13057 -2.58361 0
M  V30 5132 H 484.588 -4.79337 -0.739013 0
M  V30 5133 H 480.467 -4.23165 -1.829 0
M  V30 5134 H 484.011 -6.97069 0.272206 0
M  V30 5135 H 479.908 -6.40222 -0.823792 0
M  V30 5136 H 480.676 -8.18131 0.245761 0
M  V30 5137 N 483.339 0.512053 -1.4905 0
M  V30 5138 C 484.269 1.62365 -1.67809 0
M  V30 5139 C 485.25 1.61737 -0.526809 0
M  V30 5140 O 486.435 1.78651 -0.761404 0
M  V30 5141 C 483.565 3.00895 -1.73435 0
M  V30 5142 C 482.519 3.16387 -2.88242 0
M  V30 5143 C 481.845 4.56157 -2.78971 0
M  V30 5144 C 483.145 2.97457 -4.29321 0
M  V30 5145 H 484.839 1.46921 -2.60873 0
M  V30 5146 H 482.385 0.705379 -1.2554 0
M  V30 5147 H 484.338 3.78549 -1.85145 0
M  V30 5148 H 483.062 3.17403 -0.769619 0
M  V30 5149 H 481.721 2.41155 -2.76116 0
M  V30 5150 H 481.369 4.69525 -1.8043 0
M  V30 5151 H 481.069 4.67465 -3.5602 0
M  V30 5152 H 482.593 5.35886 -2.92675 0
M  V30 5153 H 484.007 3.64888 -4.42187 0
M  V30 5154 H 482.404 3.20245 -5.07507 0
M  V30 5155 H 483.474 1.93692 -4.44535 0
M  V30 5156 N 484.817 1.37938 0.762283 0
M  V30 5157 C 486.045 1.36883 1.55147 0
M  V30 5158 C 486.46 -0.0435348 1.8875 0
M  V30 5159 O 485.817 -1.00786 1.52146 0
M  V30 5160 C 485.868 2.21624 2.85596 0
M  V30 5161 O 485.589 3.57358 2.5343 0
M  V30 5162 C 487.09 2.28653 3.7978 0
M  V30 5163 H 484.31 0.468521 0.480343 0
M  V30 5164 H 486.854 1.81404 0.944079 0
M  V30 5165 H 485.009 1.80588 3.42734 0
M  V30 5166 H 485.423 4.01883 3.37032 0
M  V30 5167 H 486.897 2.9225 4.68288 0
M  V30 5168 H 487.374 1.29767 4.19592 0
M  V30 5169 H 487.98 2.70043 3.28568 0
M  V30 5170 N 486.295 -0.989507 1.22664 0
M  V30 5171 C 487.572 -1.70326 0.961688 0
M  V30 5172 C 487.952 -2.04537 -0.522279 0
M  V30 5173 O 487.3 -1.73136 -1.49118 0
M  V30 5174 C 487.51 -2.95135 1.86269 0
M  V30 5175 C 488.858 -3.67842 2.12078 0
M  V30 5176 O 489.882 -3.0515 1.83745 0
M  V30 5177 O 488.741 -4.80644 2.60083 0
M  V30 5178 H 485.835 -0.743589 0.361946 0
M  V30 5179 H 488.381 -1.04555 1.33665 0
M  V30 5180 H 487.153 -2.66382 2.8663 0
M  V30 5181 H 486.776 -3.68645 1.48952 0
M  V30 5182 N 487.773 -1.03688 -1.18687 0
M  V30 5183 C 489.019 -0.739123 -1.88851 0
M  V30 5184 C 489.352 0.731042 -1.79915 0
M  V30 5185 O 488.627 1.53313 -1.19688 0
M  V30 5186 C 488.91 -1.20106 -3.3948 0
M  V30 5187 C 488.763 -2.73304 -3.57246 0
M  V30 5188 C 490.082 -0.788134 -4.32986 0
M  V30 5189 H 487.201 -0.269978 -0.68577 0
M  V30 5190 H 489.843 -1.28822 -1.3966 0
M  V30 5191 H 487.993 -0.733915 -3.81505 0
M  V30 5192 H 489.665 -3.28027 -3.24339 0
M  V30 5193 H 487.908 -3.13313 -3.00029 0
M  V30 5194 H 488.579 -3.00684 -4.62918 0
M  V30 5195 H 491.055 -1.19005 -3.98719 0
M  V30 5196 H 489.931 -1.13915 -5.36949 0
M  V30 5197 H 490.192 0.308988 -4.41019 0
M  V30 5198 N 489.251 1.34841 -0.815825 0
M  V30 5199 C 490.161 2.33425 -0.234462 0
M  V30 5200 C 491.177 1.62295 0.627413 0
M  V30 5201 O 492.353 1.94109 0.536987 0
M  V30 5202 C 489.418 3.41471 0.599849 0
M  V30 5203 C 488.479 4.28362 -0.283596 0
M  V30 5204 C 487.712 5.31248 0.51099 0
M  V30 5205 O 487.935 5.43056 1.7449 0
M  V30 5206 O 486.869 6.01812 -0.10297 0
M  V30 5207 H 490.695 2.84962 -1.05024 0
M  V30 5208 H 488.28 1.37774 -0.577809 0
M  V30 5209 H 490.162 4.07464 1.07475 0
M  V30 5210 H 488.837 2.9219 1.39308 0
M  V30 5211 H 487.744 3.65318 -0.805836 0
M  V30 5212 H 489.077 4.81066 -1.041 0
M  V30 5213 N 490.729 0.570148 1.46925 0
M  V30 5214 C 492.145 0.23087 1.57921 0
M  V30 5215 C 492.345 -1.26676 1.56702 0
M  V30 5216 O 491.401 -2.04774 1.47729 0
M  V30 5217 C 492.714 0.868973 2.8787 0
M  V30 5218 C 494.262 0.841397 3.01479 0
M  V30 5219 C 494.737 1.45881 4.34146 0
M  V30 5220 N 496.228 1.42258 4.40814 0
M  V30 5221 C 496.963 1.8698 5.42057 0
M  V30 5222 N 496.459 2.39618 6.50042 0
M  V30 5223 N 498.252 1.77972 5.33181 0
M  V30 5224 H 490.403 1.54301 1.45962 0
M  V30 5225 H 492.666 0.644224 0.69547 0
M  V30 5226 H 492.372 1.922 2.94537 0
M  V30 5227 H 492.246 0.369682 3.75384 0
M  V30 5228 H 494.633 -0.202973 2.94401 0
M  V30 5229 H 494.714 1.37858 2.15474 0
M  V30 5230 H 494.358 2.50231 4.4198 0
M  V30 5231 H 494.288 0.896958 5.18905 0
M  V30 5232 H 496.779 1.03768 3.63374 0
M  V30 5233 H 497.092 2.71633 7.23488 0
M  V30 5234 H 495.437 2.43636 6.50897 0
M  V30 5235 H 498.628 1.36617 4.4772 0
M  V30 5236 H 498.801 2.13143 6.11943 0
M  V30 5237 N 492.207 -1.54576 0.307264 0
M  V30 5238 C 493.484 -1.92377 -0.353605 0
M  V30 5239 C 493.864 -1.23517 -1.71192 0
M  V30 5240 O 493.212 -0.373101 -2.25433 0
M  V30 5241 C 493.422 -3.45928 -0.462039 0
M  V30 5242 C 494.77 -4.18278 -0.729975 0
M  V30 5243 O 495.794 -3.51997 -0.545605 0
M  V30 5244 O 494.653 -5.3563 -1.08454 0
M  V30 5245 H 491.747 -0.802747 -0.198812 0
M  V30 5246 H 494.293 -1.65929 0.355783 0
M  V30 5247 H 493.065 -3.88187 0.492592 0
M  V30 5248 H 492.688 -3.78431 -1.21965 0
M  V30 5249 N 493.685 -0.035106 -1.57561 0
M  V30 5250 C 495.096 0.502885 -1.798 0
M  V30 5251 C 495.447 1.71892 -0.945921 0
M  V30 5252 O 494.572 2.15822 -0.157991 0
M  V30 5253 C 495.167 0.919097 -3.26095 0
M  V30 5254 C 493.726 1.40216 -3.49308 0
M  V30 5255 C 492.873 0.369709 -2.74824 0
M  V30 5256 H 495.824 -0.261102 -1.56537 0
M  V30 5257 H 495.845 1.78308 -3.36135 0
M  V30 5258 H 495.357 0.0338526 -3.88085 0
M  V30 5259 H 493.458 2.30714 -2.92578 0
M  V30 5260 H 493.571 1.40541 -4.58023 0
M  V30 5261 H 491.935 0.839113 -2.40481 0
M  V30 5262 H 492.718 -0.507173 -3.39533 0
M  V30 5263 N 495.163 1.55791 0.238111 0
M  V30 5264 C 496.126 1.90239 1.27835 0
M  V30 5265 C 497.126 0.779552 1.4064 0
M  V30 5266 O 498.316 1.04747 1.3919 0
M  V30 5267 C 495.448 2.13859 2.65475 0
M  V30 5268 H 496.641 2.83262 0.985034 0
M  V30 5269 H 494.194 1.48818 0.477799 0
M  V30 5270 H 494.929 1.23334 2.99932 0
M  V30 5271 H 494.714 2.95643 2.57561 0
M  V30 5272 H 496.204 2.41664 3.40571 0
M  V30 5273 N 496.642 -0.504142 1.49319 0
M  V30 5274 C 497.592 -1.60284 1.62151 0
M  V30 5275 C 498.576 -1.53657 0.477315 0
M  V30 5276 O 499.768 -1.6124 0.730108 0
M  V30 5277 C 496.897 -2.98909 1.68844 0
M  V30 5278 C 495.983 -3.10544 2.8883 0
M  V30 5279 N 496.374 -2.92078 4.12946 0
M  V30 5280 C 494.672 -3.4164 2.86702 0
M  V30 5281 C 495.373 -3.07812 4.93585 0
M  V30 5282 N 494.349 -3.36549 4.26891 0
M  V30 5283 H 498.151 -1.44656 2.55835 0
M  V30 5284 H 495.665 -0.710198 1.46048 0
M  V30 5285 H 497.662 -3.77865 1.76134 0
M  V30 5286 H 496.322 -3.15609 0.762943 0
M  V30 5287 H 497.333 -2.68316 4.42975 0
M  V30 5288 H 494.01 -3.64537 2.03517 0
M  V30 5289 H 495.4 -2.98054 6.02174 0
M  V30 5290 N 498.12 -1.38341 -0.754957 0
M  V30 5291 C 499.05 -1.38176 -1.88227 0
M  V30 5292 C 500.031 -0.247873 -1.68284 0
M  V30 5293 O 501.216 -0.45075 -1.88896 0
M  V30 5294 C 498.346 -1.20471 -3.25736 0
M  V30 5295 C 497.3 -2.3105 -3.60278 0
M  V30 5296 C 496.626 -1.98452 -4.96509 0
M  V30 5297 C 497.926 -3.73305 -3.65295 0
M  V30 5298 H 499.62 -2.32512 -1.88622 0
M  V30 5299 H 497.166 -1.1192 -0.906082 0
M  V30 5300 H 499.119 -1.18982 -4.04254 0
M  V30 5301 H 497.843 -0.225965 -3.25817 0
M  V30 5302 H 496.502 -2.31723 -2.84078 0
M  V30 5303 H 496.15 -0.990641 -4.93148 0
M  V30 5304 H 495.85 -2.7251 -5.20588 0
M  V30 5305 H 497.374 -1.98578 -5.77407 0
M  V30 5306 H 498.788 -3.7467 -4.3393 0
M  V30 5307 H 497.185 -4.46557 -4.00883 0
M  V30 5308 H 498.255 -4.05719 -2.65556 0
M  V30 5309 N 499.598 0.982988 -1.23187 0
M  V30 5310 C 500.528 2.09301 -1.03515 0
M  V30 5311 C 501.509 1.70035 0.0471136 0
M  V30 5312 O 502.694 1.93847 -0.117029 0
M  V30 5313 C 499.824 3.4167 -0.622791 0
M  V30 5314 C 498.778 3.94828 -1.65211 0
M  V30 5315 C 498.104 5.23362 -1.09527 0
M  V30 5316 C 499.404 4.2439 -3.04451 0
M  V30 5317 H 501.098 2.26016 -1.96359 0
M  V30 5318 H 498.644 1.08611 -0.945501 0
M  V30 5319 H 500.597 4.18746 -0.472233 0
M  V30 5320 H 499.321 3.24811 0.341329 0
M  V30 5321 H 497.98 3.19895 -1.79061 0
M  V30 5322 H 497.628 5.02852 -0.122211 0
M  V30 5323 H 497.328 5.59895 -1.783 0
M  V30 5324 H 498.852 6.03062 -0.956511 0
M  V30 5325 H 500.266 4.92225 -2.93917 0
M  V30 5326 H 498.663 4.72118 -3.70438 0
M  V30 5327 H 499.733 3.31765 -3.53638 0
M  V30 5328 N 501.076 1.04316 1.18135 0
M  V30 5329 C 502.306 0.767003 1.91835 0
M  V30 5330 C 502.714 -0.68002 1.76557 0
M  V30 5331 O 502.057 -1.47548 1.09432 0
M  V30 5332 C 502.119 1.05674 3.43618 0
M  V30 5333 C 501.783 2.49818 3.82675 0
M  V30 5334 C 502.78 3.48003 3.86251 0
M  V30 5335 C 500.465 2.84596 4.13897 0
M  V30 5336 C 502.459 4.79016 4.20503 0
M  V30 5337 C 500.146 4.15813 4.4782 0
M  V30 5338 C 501.144 5.12834 4.51099 0
M  V30 5339 O 500.832 6.41699 4.84229 0
M  V30 5340 H 500.564 0.278948 0.615763 0
M  V30 5341 H 503.118 1.3946 1.50798 0
M  V30 5342 H 501.348 0.372029 3.84906 0
M  V30 5343 H 503.037 0.767994 3.98568 0
M  V30 5344 H 503.803 3.22475 3.62264 0
M  V30 5345 H 499.682 2.09748 4.1052 0
M  V30 5346 H 503.226 5.54739 4.22978 0
M  V30 5347 H 499.123 4.41109 4.71268 0
M  V30 5348 H 499.891 6.46387 5.02121 0
M  V30 5349 N 502.554 -1.34406 0.822964 0
M  V30 5350 C 503.502 -2.31428 0.233165 0
M  V30 5351 C 504.496 -1.57404 -0.626118 0
M  V30 5352 O 505.702 -1.72402 -0.517453 0
M  V30 5353 H 502.077 -0.749863 0.0566557 0
M  V30 5354 H 504.048 -2.78699 1.06628 0
M  V30 5355 C 502.797 -3.42653 -0.590264 0
M  V30 5356 H 502.12 -3.99753 0.0616129 0
M  V30 5357 H 503.56 -4.12778 -0.969054 0
M  V30 5358 C 502.019 -2.87112 -1.76262 0
M  V30 5359 O 502.549 -2.81995 -2.8608 0
M  V30 5360 N 500.755 -2.43934 -1.57938 0
M  V30 5361 H 500.302 -2.48296 -0.686078 0
M  V30 5362 H 500.26 -2.07123 -2.36532 0
M  V30 5363 N 504.032 -0.577932 -1.46621 0
M  V30 5364 C 505.26 -0.0671642 -2.06791 0
M  V30 5365 C 505.675 1.23571 -1.42743 0
M  V30 5366 O 505.032 1.74602 -0.531062 0
M  V30 5367 C 505.083 0.110357 -3.61332 0
M  V30 5368 O 504.804 -1.14095 -4.22982 0
M  V30 5369 C 506.305 0.656025 -4.38419 0
M  V30 5370 H 503.525 -0.0552732 -0.66872 0
M  V30 5371 H 506.069 -0.797242 -1.8832 0
M  V30 5372 H 504.224 0.790637 -3.79246 0
M  V30 5373 H 504.638 -0.951742 -5.15793 0
M  V30 5374 H 506.112 0.729438 -5.47159 0
M  V30 5375 H 506.589 1.67195 -4.06131 0
M  V30 5376 H 507.195 0.0107692 -4.25299 0
M  V30 5377 N 505.51 1.54411 -0.315457 0
M  V30 5378 C 506.46 2.20772 0.569549 0
M  V30 5379 C 507.444 1.18551 1.08787 0
M  V30 5380 O 508.636 1.44213 1.02624 0
M  V30 5381 C 505.765 2.96293 1.73394 0
M  V30 5382 C 504.851 4.05844 1.2309 0
M  V30 5383 N 505.242 5.03822 0.446927 0
M  V30 5384 C 503.54 4.19648 1.51035 0
M  V30 5385 C 504.241 5.8143 0.17725 0
M  V30 5386 N 503.217 5.38245 0.761118 0
M  V30 5387 H 507.019 2.93877 -0.0368076 0
M  V30 5388 H 504.533 1.61949 -0.120915 0
M  V30 5389 H 506.53 3.42313 2.37965 0
M  V30 5390 H 505.19 2.24708 2.34386 0
M  V30 5391 H 506.201 5.17821 0.0905027 0
M  V30 5392 H 502.878 3.59274 2.1267 0
M  V30 5393 H 504.268 6.70369 -0.45335 0
M  V30 5394 N 506.988 0.0434614 1.5754 0
M  V30 5395 C 508.218 -0.640905 1.96408 0
M  V30 5396 C 508.626 -1.65365 0.919297 0
M  V30 5397 O 507.969 -1.83395 -0.105795 0
M  V30 5398 C 508.031 -1.39141 3.31482 0
M  V30 5399 C 507.695 -0.535375 4.53853 0
M  V30 5400 C 508.692 0.195335 5.19533 0
M  V30 5401 C 506.377 -0.468564 5.0011 0
M  V30 5402 C 508.371 0.981377 6.298 0
M  V30 5403 C 506.058 0.321171 6.10255 0
M  V30 5404 C 507.056 1.04484 6.74961 0
M  V30 5405 O 506.744 1.8216 7.8299 0
M  V30 5406 H 506.476 -0.180584 0.651433 0
M  V30 5407 H 509.03 0.103848 2.05137 0
M  V30 5408 H 507.26 -2.18162 3.19284 0
M  V30 5409 H 508.949 -1.96526 3.55151 0
M  V30 5410 H 509.715 0.15314 4.84758 0
M  V30 5411 H 505.594 -1.02142 4.49542 0
M  V30 5412 H 509.138 1.54674 6.80237 0
M  V30 5413 H 505.035 0.365032 6.44467 0
M  V30 5414 H 505.803 1.74289 7.99728 0
M  V30 5415 N 508.466 -1.55915 -0.229846 0
M  V30 5416 C 509.399 -1.86734 -1.3117 0
M  V30 5417 C 510.377 -0.723947 -1.45595 0
M  V30 5418 O 511.561 -0.971462 -1.61539 0
M  V30 5419 C 508.688 -2.06707 -2.68309 0
M  V30 5420 C 507.734 -3.2938 -2.70944 0
M  V30 5421 S 508.567 -4.85547 -2.25842 0
M  V30 5422 C 509.723 -5.08546 -3.64873 0
M  V30 5423 H 509.956 -2.78204 -1.04832 0
M  V30 5424 H 507.489 -1.48243 -0.431681 0
M  V30 5425 H 509.447 -2.18898 -3.47267 0
M  V30 5426 H 508.108 -1.16049 -2.91876 0
M  V30 5427 H 507.301 -3.40374 -3.71701 0
M  V30 5428 H 506.903 -3.16004 -2.00044 0
M  V30 5429 H 509.195 -4.96935 -4.60502 0
M  V30 5430 H 510.138 -6.10465 -3.58801 0
M  V30 5431 H 510.546 -4.36314 -3.58176 0
M  V30 5432 N 509.944 0.496216 -1.49584 0
M  V30 5433 C 510.874 1.60576 -1.69521 0
M  V30 5434 C 511.855 1.61169 -0.543933 0
M  V30 5435 O 513.04 1.77834 -0.78031 0
M  V30 5436 C 510.17 2.99038 -1.76616 0
M  V30 5437 C 509.124 3.13312 -2.91581 0
M  V30 5438 C 508.45 4.53172 -2.83794 0
M  V30 5439 C 509.75 2.92886 -4.32452 0
M  V30 5440 H 511.444 1.44146 -2.62416 0
M  V30 5441 H 508.99 0.692024 -1.26282 0
M  V30 5442 H 510.943 3.76564 -1.8915 0
M  V30 5443 H 509.667 3.16568 -0.80324 0
M  V30 5444 H 508.326 2.38213 -2.78658 0
M  V30 5445 H 507.974 4.67585 -1.854 0
M  V30 5446 H 507.674 4.63662 -3.60958 0
M  V30 5447 H 509.198 5.32752 -2.98342 0
M  V30 5448 H 510.612 3.60178 -4.46032 0
M  V30 5449 H 509.009 3.14844 -5.10875 0
M  V30 5450 H 510.079 1.88966 -4.46565 0
M  V30 5451 N 511.423 1.38739 0.74761 0
M  V30 5452 C 512.651 1.38521 1.53686 0
M  V30 5453 C 513.066 -0.0235129 1.88785 0
M  V30 5454 O 512.423 -0.991662 1.53207 0
M  V30 5455 C 512.474 2.24641 2.83229 0
M  V30 5456 O 512.195 3.60026 2.49625 0
M  V30 5457 C 513.696 2.32669 3.77333 0
M  V30 5458 H 510.916 0.473589 0.475347 0
M  V30 5459 H 513.46 1.82395 0.924786 0
M  V30 5460 H 511.615 1.84213 3.40799 0
M  V30 5461 H 512.029 4.05435 3.3275 0
M  V30 5462 H 513.503 2.97201 4.65162 0
M  V30 5463 H 513.98 1.3421 4.18192 0
M  V30 5464 H 514.586 2.73512 3.25685 0
M  V30 5465 N 512.901 -0.976442 1.23707 0
M  V30 5466 C 514.178 -1.69296 0.979699 0
M  V30 5467 C 514.558 -2.0508 -0.500555 0
M  V30 5468 O 513.906 -1.74708 -1.47273 0
M  V30 5469 C 514.116 -2.93143 1.89389 0
M  V30 5470 C 515.464 -3.65572 2.15968 0
M  V30 5471 O 516.488 -3.03184 1.86971 0
M  V30 5472 O 515.347 -4.77859 2.65167 0
M  V30 5473 H 512.441 -0.739708 0.369812 0
M  V30 5474 H 514.987 -1.03131 1.34767 0
M  V30 5475 H 513.759 -2.63327 2.89439 0
M  V30 5476 H 513.382 -3.67044 1.52854 0
M  V30 5477 N 514.379 -1.04941 -1.1758 0
M  V30 5478 C 515.656 -0.671918 -1.83697 0
M  V30 5479 C 516.036 0.847929 -1.93322 0
M  V30 5480 O 515.384 1.75287 -1.46583 0
M  V30 5481 C 515.594 -1.35797 -3.21497 0
M  V30 5482 C 516.942 -1.4944 -3.97433 0
M  V30 5483 O 517.966 -1.31678 -3.30967 0
M  V30 5484 O 516.825 -1.78463 -5.1654 0
M  V30 5485 H 513.919 -0.236212 -0.792548 0
M  V30 5486 H 516.465 -1.14884 -1.24899 0
M  V30 5487 H 515.237 -2.39498 -3.09446 0
M  V30 5488 H 514.86 -0.870236 -3.8796 0
M  V30 5489 N 515.857 1.33968 -0.830081 0
M  V30 5490 C 516.787 2.31911 -0.271911 0
M  V30 5491 C 517.768 1.58571 0.61556 0
M  V30 5492 O 518.953 1.86514 0.540946 0
M  V30 5493 C 516.083 3.42737 0.561146 0
M  V30 5494 C 515.037 4.27383 -0.229789 0
M  V30 5495 C 514.363 5.29742 0.726463 0
M  V30 5496 C 515.663 5.02 -1.44197 0
M  V30 5497 H 517.357 2.78844 -1.09025 0
M  V30 5498 H 514.903 1.34061 -0.52571 0
M  V30 5499 H 516.856 4.10276 0.961867 0
M  V30 5500 H 515.58 2.94471 1.41261 0
M  V30 5501 H 514.239 3.61456 -0.611964 0
M  V30 5502 H 513.887 4.77736 1.57408 0
M  V30 5503 H 513.587 5.87255 0.20142 0
M  V30 5504 H 515.111 6.00149 1.12489 0
M  V30 5505 H 516.525 5.62355 -1.11488 0
M  V30 5506 H 514.922 5.69122 -1.90317 0
M  V30 5507 H 515.992 4.31281 -2.2164 0
M  V30 5508 N 517.335 0.585699 1.46312 0
M  V30 5509 C 518.285 -0.166813 2.27389 0
M  V30 5510 C 519.269 -0.859076 1.36047 0
M  V30 5511 O 520.461 -0.752678 1.60199 0
M  V30 5512 C 517.59 -1.17791 3.2246 0
M  V30 5513 C 516.676 -0.487605 4.21288 0
M  V30 5514 N 517.067 0.45849 5.03718 0
M  V30 5515 C 515.365 -0.737971 4.39852 0
M  V30 5516 C 516.066 0.862213 5.75275 0
M  V30 5517 N 515.042 0.210707 5.43191 0
M  V30 5518 H 518.844 0.560167 2.88512 0
M  V30 5519 H 516.358 0.407715 1.57199 0
M  V30 5520 H 518.355 -1.73122 3.79255 0
M  V30 5521 H 517.015 -1.90568 2.62896 0
M  V30 5522 H 518.026 0.834163 5.11138 0
M  V30 5523 H 514.703 -1.45209 3.91434 0
M  V30 5524 H 516.093 1.64128 6.51546 0
M  V30 5525 N 518.813 -1.54241 0.323641 0
M  V30 5526 C 520.059 -2.00867 -0.279323 0
M  V30 5527 C 520.392 -1.21146 -1.5178 0
M  V30 5528 O 519.667 -0.29378 -1.92269 0
M  V30 5529 C 519.95 -3.54837 -0.613387 0
M  V30 5530 C 519.803 -4.45284 0.635803 0
M  V30 5531 C 521.122 -4.16186 -1.43099 0
M  V30 5532 H 518.241 -0.730177 -0.100049 0
M  V30 5533 H 520.883 -1.84829 0.440235 0
M  V30 5534 H 519.033 -3.68634 -1.22641 0
M  V30 5535 H 520.705 -4.43357 1.27406 0
M  V30 5536 H 518.948 -4.14956 1.26466 0
M  V30 5537 H 519.619 -5.5084 0.357597 0
M  V30 5538 H 522.095 -4.05964 -0.912814 0
M  V30 5539 H 520.971 -5.24031 -1.6335 0
M  V30 5540 H 521.232 -3.69516 -2.42715 0
M  V30 5541 N 520.291 -0.0518155 -1.57515 0
M  V30 5542 C 521.702 0.483787 -1.80323 0
M  V30 5543 C 522.053 1.70879 -0.964099 0
M  V30 5544 O 521.178 2.15643 -0.180872 0
M  V30 5545 C 521.773 0.884459 -3.27052 0
M  V30 5546 C 520.332 1.36504 -3.50776 0
M  V30 5547 C 519.479 0.340539 -2.75201 0
M  V30 5548 H 522.43 -0.277691 -1.56252 0
M  V30 5549 H 522.451 1.74733 -3.38007 0
M  V30 5550 H 521.963 -0.00731093 -3.88099 0
M  V30 5551 H 520.064 2.27598 -2.95009 0
M  V30 5552 H 520.177 1.35675 -4.59488 0
M  V30 5553 H 518.541 0.81356 -2.41357 0
M  V30 5554 H 519.324 -0.543156 -3.38976 0
M  V30 5555 N 521.769 1.56035 0.221574 0
M  V30 5556 C 523.015 1.79312 0.947372 0
M  V30 5557 C 523.348 0.621453 1.83988 0
M  V30 5558 O 522.623 -0.379287 1.90766 0
M  V30 5559 C 522.906 3.1267 1.78633 0
M  V30 5560 C 522.759 4.40284 0.920312 0
M  V30 5561 C 524.078 3.4247 2.7641 0
M  V30 5562 H 521.197 0.652328 0.342982 0
M  V30 5563 H 523.839 1.88765 0.216244 0
M  V30 5564 H 521.989 3.04741 2.40967 0
M  V30 5565 H 523.661 4.60232 0.313718 0
M  V30 5566 H 521.904 4.33212 0.225734 0
M  V30 5567 H 522.575 5.30033 1.54171 0
M  V30 5568 H 525.051 3.50526 2.24211 0
M  V30 5569 H 523.927 4.3695 3.32213 0
M  V30 5570 H 524.188 2.64635 3.54148 0
M  V30 5571 N 523.247 -0.488276 1.49845 0
M  V30 5572 C 524.493 -1.24341 1.6021 0
M  V30 5573 C 524.826 -1.91967 0.293651 0
M  V30 5574 O 524.101 -1.81323 -0.703718 0
M  V30 5575 C 524.384 -2.3005 2.77036 0
M  V30 5576 C 524.237 -1.66842 4.17713 0
M  V30 5577 C 525.556 -3.31509 2.89464 0
M  V30 5578 H 522.675 -0.450704 0.583125 0
M  V30 5579 H 525.317 -0.539673 1.82174 0
M  V30 5580 H 523.467 -2.90071 2.58439 0
M  V30 5581 H 525.139 -1.1055 4.47858 0
M  V30 5582 H 523.382 -0.972079 4.22768 0
M  V30 5583 H 524.053 -2.43576 4.95353 0
M  V30 5584 H 526.529 -2.81493 3.06433 0
M  V30 5585 H 525.405 -4.02822 3.72861 0
M  V30 5586 H 525.666 -3.94603 1.99351 0
M  V30 5587 N 524.725 -1.39134 -0.740242 0
M  V30 5588 C 525.635 -1.39697 -1.88473 0
M  V30 5589 C 526.651 -0.292403 -1.71526 0
M  V30 5590 O 527.827 -0.533021 -1.94219 0
M  V30 5591 C 524.892 -1.23382 -3.24003 0
M  V30 5592 C 523.953 -2.43763 -3.53381 0
M  V30 5593 C 523.186 -2.28216 -4.82445 0
M  V30 5594 O 523.409 -1.28288 -5.55786 0
M  V30 5595 O 522.343 -3.1709 -5.11603 0
M  V30 5596 H 526.169 -2.36159 -1.90952 0
M  V30 5597 H 523.754 -1.20194 -0.887346 0
M  V30 5598 H 525.636 -1.16395 -4.05006 0
M  V30 5599 H 524.311 -0.300121 -3.22306 0
M  V30 5600 H 523.218 -2.56325 -2.72485 0
M  V30 5601 H 524.551 -3.35808 -3.59852 0
M  V30 5602 N 526.204 0.969867 -1.24223 0
M  V30 5603 C 527.615 1.52717 -1.07399 0
M  V30 5604 C 527.966 1.92956 0.355298 0
M  V30 5605 O 527.091 1.77112 1.2434 0
M  V30 5606 C 527.686 2.77521 -1.94339 0
M  V30 5607 C 526.245 3.29615 -1.81744 0
M  V30 5608 C 525.392 2.02537 -1.89405 0
M  V30 5609 H 528.343 0.788399 -1.37732 0
M  V30 5610 H 528.364 3.50773 -1.47439 0
M  V30 5611 H 527.876 2.48203 -2.98357 0
M  V30 5612 H 525.977 3.63789 -0.805505 0
M  V30 5613 H 526.09 3.98661 -2.65718 0
M  V30 5614 H 524.454 2.17151 -1.33108 0
M  V30 5615 H 525.237 1.75587 -2.94999 0
M  V30 5616 N 527.682 1.05563 1.17022 0
M  V30 5617 C 528.931 0.763036 1.8671 0
M  V30 5618 C 529.244 -0.712857 1.82147 0
M  V30 5619 O 530.45 -1.11955 2.47343 0
M  V30 5620 C 528.906 1.31474 3.35026 0
M  V30 5621 C 528.514 2.82034 3.48081 0
M  V30 5622 C 530.258 1.09935 4.10018 0
M  V30 5623 C 528.165 3.30486 4.90442 0
M  V30 5624 H 527.095 0.281747 0.699382 0
M  V30 5625 H 529.746 1.2734 1.32124 0
M  V30 5626 H 528.128 0.732171 3.89173 0
M  V30 5627 H 529.302 3.46178 3.04133 0
M  V30 5628 H 527.617 3.02156 2.86515 0
M  V30 5629 H 530.214 1.43632 5.15048 0
M  V30 5630 H 530.557 0.0373072 4.16283 0
M  V30 5631 H 531.09 1.64732 3.62089 0
M  V30 5632 H 527.829 4.36137 4.89352 0
M  V30 5633 H 527.349 2.71086 5.35044 0
M  V30 5634 H 529.028 3.25382 5.59227 0
M  V30 5635 N 529.16 -1.33526 0.837174 0
M  V30 5636 C 530.437 -1.92369 0.354065 0
M  V30 5637 C 530.817 -1.76348 -1.16038 0
M  V30 5638 O 530.165 -1.15083 -1.97403 0
M  V30 5639 C 530.375 -3.39728 0.799101 0
M  V30 5640 C 531.723 -4.16877 0.806139 0
M  V30 5641 O 532.747 -3.48373 0.742597 0
M  V30 5642 O 531.606 -5.39166 0.892345 0
M  V30 5643 H 528.7 -0.820952 0.0998378 0
M  V30 5644 H 531.246 -1.42409 0.922913 0
M  V30 5645 H 530.018 -3.45254 1.84162 0
M  V30 5646 H 529.641 -3.97062 0.206731 0
M  V30 5647 N 530.638 -0.59345 -1.46 0
M  V30 5648 C 531.586 0.146268 -2.3214 0
M  V30 5649 C 532.58 0.873743 -1.45128 0
M  V30 5650 O 533.786 0.790912 -1.61693 0
M  V30 5651 H 530.161 0.0660349 -0.749095 0
M  V30 5652 H 532.132 -0.598895 -2.92328 0
M  V30 5653 C 530.881 1.1396 -3.28494 0
M  V30 5654 H 530.204 0.589252 -3.95434 0
M  V30 5655 H 531.644 1.62738 -3.91526 0
M  V30 5656 C 530.103 2.20604 -2.54628 0
M  V30 5657 O 530.633 3.28128 -2.31722 0
M  V30 5658 N 528.839 1.95502 -2.15005 0
M  V30 5659 H 528.386 1.0807 -2.33834 0
M  V30 5660 H 528.344 2.67064 -1.65904 0
M  V30 5661 N 532.116 1.54067 -0.331816 0
M  V30 5662 C 533.532 1.59587 0.0205388 0
M  V30 5663 C 533.732 1.34813 1.49759 0
M  V30 5664 O 532.788 1.13661 2.25471 0
M  V30 5665 C 534.101 2.97959 -0.405103 0
M  V30 5666 C 535.649 3.10964 -0.356454 0
M  V30 5667 C 536.124 4.51694 -0.757384 0
M  V30 5668 N 537.615 4.57709 -0.71111 0
M  V30 5669 C 538.35 5.64729 -0.993427 0
M  V30 5670 N 537.846 6.79652 -1.3433 0
M  V30 5671 N 539.639 5.54546 -0.918442 0
M  V30 5672 H 531.79 1.68426 -1.29407 0
M  V30 5673 H 534.053 0.78819 -0.526745 0
M  V30 5674 H 533.759 3.21115 -1.43451 0
M  V30 5675 H 533.633 3.76524 0.225692 0
M  V30 5676 H 536.02 2.87538 0.663763 0
M  V30 5677 H 536.101 2.34484 -1.02229 0
M  V30 5678 H 535.745 4.75853 -1.77555 0
M  V30 5679 H 535.675 5.26555 -0.0691444 0
M  V30 5680 H 538.166 3.75176 -0.452883 0
M  V30 5681 H 538.479 7.57221 -1.54388 0
M  V30 5682 H 536.824 6.81128 -1.38164 0
M  V30 5683 H 540.015 4.63641 -0.644536 0
M  V30 5684 H 540.188 6.37861 -1.14181 0
M  V30 5685 N 533.594 0.0601682 1.57485 0
M  V30 5686 C 534.843 -0.611101 1.9222 0
M  V30 5687 C 535.156 -1.71469 0.941159 0
M  V30 5688 O 536.362 -2.44473 1.18089 0
M  V30 5689 C 534.818 -1.13832 3.41424 0
M  V30 5690 C 534.426 -0.0663596 4.47951 0
M  V30 5691 C 536.17 -1.78432 3.85178 0
M  V30 5692 C 534.077 -0.606965 5.88277 0
M  V30 5693 H 533.007 -0.232033 0.71741 0
M  V30 5694 H 535.658 0.130518 1.83035 0
M  V30 5695 H 534.04 -1.93254 3.45643 0
M  V30 5696 H 535.214 0.707682 4.55333 0
M  V30 5697 H 533.529 0.482715 4.13593 0
M  V30 5698 H 536.126 -2.1989 4.87394 0
M  V30 5699 H 536.469 -2.63966 3.21913 0
M  V30 5700 H 537.002 -1.05651 3.83514 0
M  V30 5701 H 533.741 0.21095 6.5516 0
M  V30 5702 H 533.261 -1.34879 5.84438 0
M  V30 5703 H 534.94 -1.08704 6.37803 0
M  V30 5704 N 535.072 -1.5615 -0.213296 0
M  V30 5705 C 536.318 -1.79812 -0.937849 0
M  V30 5706 C 536.651 -0.631201 -1.83656 0
M  V30 5707 O 535.926 0.369165 -1.90964 0
M  V30 5708 C 536.209 -3.13613 -1.76972 0
M  V30 5709 C 536.062 -4.40766 -0.89695 0
M  V30 5710 C 537.381 -3.43931 -2.7459 0
M  V30 5711 H 534.5 -0.654138 -0.339518 0
M  V30 5712 H 537.142 -1.88877 -0.20623 0
M  V30 5713 H 535.292 -3.06015 -2.39347 0
M  V30 5714 H 536.964 -4.60392 -0.289306 0
M  V30 5715 H 535.207 -4.33326 -0.202756 0
M  V30 5716 H 535.878 -5.30843 -1.51358 0
M  V30 5717 H 538.354 -3.5171 -2.22349 0
M  V30 5718 H 537.23 -4.38706 -3.29891 0
M  V30 5719 H 537.491 -2.6651 -3.52739 0
M  V30 5720 N 536.55 0.480323 -1.50102 0
M  V30 5721 C 537.966 0.813295 -1.37323 0
M  V30 5722 C 538.166 1.97027 -0.422206 0
M  V30 5723 O 537.222 2.5212 0.138563 0
M  V30 5724 C 538.535 1.13404 -2.78496 0
M  V30 5725 C 540.083 1.24104 -2.87345 0
M  V30 5726 C 540.558 1.59497 -4.29331 0
M  V30 5727 N 542.049 1.66507 -4.32238 0
M  V30 5728 C 542.784 1.95378 -5.39087 0
M  V30 5729 N 542.28 2.22333 -6.56155 0
M  V30 5730 N 544.073 1.96803 -5.26522 0
M  V30 5731 H 536.224 -0.282291 -2.10516 0
M  V30 5732 H 538.487 -0.063752 -0.945854 0
M  V30 5733 H 538.193 0.357064 -3.49883 0
M  V30 5734 H 538.067 2.07251 -3.15162 0
M  V30 5735 H 540.454 2.00871 -2.16183 0
M  V30 5736 H 540.535 0.282593 -2.54234 0
M  V30 5737 H 540.179 0.832736 -5.01027 0
M  V30 5738 H 540.109 2.56477 -4.59921 0
M  V30 5739 H 542.6 1.47753 -3.47818 0
M  V30 5740 H 542.913 2.43611 -7.33399 0
M  V30 5741 H 541.258 2.19745 -6.59346 0
M  V30 5742 H 544.449 1.75235 -4.34062 0
M  V30 5743 H 544.622 2.18969 -6.09883 0
M  V30 5744 N 538.028 1.39524 0.732853 0
M  V30 5745 C 539.258 1.3994 1.51988 0
M  V30 5746 C 539.666 -0.00727973 1.89199 0
M  V30 5747 O 539.009 -0.989521 1.54771 0
M  V30 5748 C 539.071 2.21026 2.83527 0
M  V30 5749 C 538.735 3.69633 2.68738 0
M  V30 5750 C 539.732 4.62665 2.37143 0
M  V30 5751 C 537.417 4.13244 2.85542 0
M  V30 5752 C 539.411 5.97291 2.22536 0
M  V30 5753 C 537.098 5.47945 2.70554 0
M  V30 5754 C 538.096 6.39783 2.39097 0
M  V30 5755 O 537.784 7.72002 2.24204 0
M  V30 5756 H 537.516 0.479795 0.476206 0
M  V30 5757 H 540.07 1.8399 0.913054 0
M  V30 5758 H 538.3 1.71728 3.46477 0
M  V30 5759 H 539.989 2.13594 3.45156 0
M  V30 5760 H 540.755 4.30272 2.2381 0
M  V30 5761 H 536.634 3.42094 3.09019 0
M  V30 5762 H 540.178 6.68939 1.97905 0
M  V30 5763 H 536.075 5.79928 2.83466 0
M  V30 5764 H 536.843 7.8275 2.39258 0
M  V30 5765 N 539.506 -0.963266 1.24736 0
M  V30 5766 C 540.469 -2.04013 1.04457 0
M  V30 5767 C 541.469 -1.608 0.000335555 0
M  V30 5768 O 542.659 -1.72515 0.241719 0
M  V30 5769 C 539.791 -3.35858 0.584162 0
M  V30 5770 H 540.984 -2.23436 2.00041 0
M  V30 5771 H 538.537 -1.13914 1.07021 0
M  V30 5772 H 539.272 -3.22128 -0.374673 0
M  V30 5773 H 539.057 -3.68568 1.3379 0
M  V30 5774 H 540.547 -4.1502 0.463451 0
M  V30 5775 N 540.985 -1.06182 -1.16461 0
M  V30 5776 C 542.225 -0.787048 -1.8864 0
M  V30 5777 C 542.589 0.674093 -1.79778 0
M  V30 5778 O 543.79 1.06341 -2.46871 0
M  V30 5779 C 542.061 -1.2666 -3.34203 0
M  V30 5780 S 543.62 -1.12071 -4.24247 0
M  V30 5781 H 540.438 -0.285539 -0.651144 0
M  V30 5782 H 543.04 -1.35851 -1.40587 0
M  V30 5783 H 541.744 -2.32496 -3.38192 0
M  V30 5784 H 541.275 -0.689841 -3.87304 0
M  V30 5785 H 543.29 -0.0509341 -4.96174 0
M  V30 5786 N 542.463 1.3308 -0.844243 0
M  V30 5787 C 543.373 2.32876 -0.283922 0
M  V30 5788 C 544.389 1.63589 0.592846 0
M  V30 5789 O 545.565 1.95205 0.495693 0
M  V30 5790 C 542.63 3.42667 0.527283 0
M  V30 5791 C 541.691 4.27664 -0.374394 0
M  V30 5792 C 540.924 5.32212 0.39819 0
M  V30 5793 O 541.147 5.46635 1.62932 0
M  V30 5794 O 540.081 6.01458 -0.2306 0
M  V30 5795 H 543.907 2.82671 -1.11045 0
M  V30 5796 H 541.492 1.36518 -0.606903 0
M  V30 5797 H 543.374 4.09652 0.988078 0
M  V30 5798 H 542.049 2.95079 1.33078 0
M  V30 5799 H 540.956 3.63526 -0.883144 0
M  V30 5800 H 542.289 4.78749 -1.1428 0
M  V30 5801 N 543.941 0.601185 1.45683 0
M  V30 5802 C 544.874 -0.17013 2.27565 0
M  V30 5803 C 545.852 -0.879661 1.36751 0
M  V30 5804 O 547.036 -0.889827 1.66176 0
M  V30 5805 C 544.163 -1.24568 3.14961 0
M  V30 5806 C 543.209 -0.639978 4.21671 0
M  V30 5807 S 544.042 0.547275 5.32696 0
M  V30 5808 C 545.198 -0.529019 6.2366 0
M  V30 5809 H 545.431 0.524583 2.92635 0
M  V30 5810 H 542.964 0.388537 1.49431 0
M  V30 5811 H 544.922 -1.86138 3.65873 0
M  V30 5812 H 543.583 -1.91243 2.49169 0
M  V30 5813 H 542.776 -1.44903 4.8272 0
M  V30 5814 H 542.378 -0.0995558 3.73867 0
M  V30 5815 H 544.67 -1.40981 6.62669 0
M  V30 5816 H 545.613 0.0451599 7.08086 0
M  V30 5817 H 546.021 -0.84147 5.58193 0
M  V30 5818 N 545.419 -1.53889 0.339982 0
M  V30 5819 C 546.665 -2.01152 -0.258003 0
M  V30 5820 C 546.998 -1.22749 -1.50487 0
M  V30 5821 O 546.273 -0.314156 -1.91946 0
M  V30 5822 C 546.556 -3.55468 -0.575717 0
M  V30 5823 C 546.409 -4.44584 0.682996 0
M  V30 5824 C 547.728 -4.1768 -1.38677 0
M  V30 5825 H 544.847 -0.731198 -0.0922992 0
M  V30 5826 H 547.489 -1.84352 0.459814 0
M  V30 5827 H 545.639 -3.69914 -1.18725 0
M  V30 5828 H 547.311 -4.41981 1.32102 0
M  V30 5829 H 545.554 -4.13592 1.3086 0
M  V30 5830 H 546.225 -5.5043 0.416001 0
M  V30 5831 H 548.701 -4.0691 -0.869705 0
M  V30 5832 H 547.577 -5.25734 -1.57783 0
M  V30 5833 H 547.838 -3.72069 -2.38782 0
M  V30 5834 N 546.897 -0.0685191 -1.57451 0
M  V30 5835 C 548.143 0.602239 -1.93652 0
M  V30 5836 C 548.476 1.6946 -0.948526 0
M  V30 5837 O 547.751 1.94487 0.022782 0
M  V30 5838 C 548.034 1.18223 -3.4014 0
M  V30 5839 C 547.887 0.0967431 -4.49696 0
M  V30 5840 C 549.206 2.08872 -3.87377 0
M  V30 5841 H 546.325 0.217453 -0.70419 0
M  V30 5842 H 548.967 -0.133821 -1.89528 0
M  V30 5843 H 547.117 1.80953 -3.43785 0
M  V30 5844 H 548.789 -0.536155 -4.58174 0
M  V30 5845 H 547.032 -0.573063 -4.29998 0
M  V30 5846 H 547.703 0.542894 -5.49324 0
M  V30 5847 H 550.179 1.56081 -3.85717 0
M  V30 5848 H 549.055 2.46389 -4.90493 0
M  V30 5849 H 549.316 2.99572 -3.25129 0
M  V30 5850 N 548.375 1.56261 0.205012 0
M  V30 5851 C 549.322 1.93754 1.25411 0
M  V30 5852 C 550.292 0.796826 1.45739 0
M  V30 5853 O 551.477 1.05414 1.59036 0
M  V30 5854 C 548.617 2.27383 2.59598 0
M  V30 5855 C 547.73 3.5447 2.46931 0
M  V30 5856 C 546.865 3.77468 3.73753 0
M  V30 5857 C 545.904 4.98014 3.55877 0
M  V30 5858 N 545.041 5.17316 4.74688 0
M  V30 5859 H 549.881 2.83203 0.92737 0
M  V30 5860 H 547.418 1.40158 0.446574 0
M  V30 5861 H 549.376 2.44895 3.37761 0
M  V30 5862 H 548.006 1.41088 2.90335 0
M  V30 5863 H 547.058 3.45061 1.60116 0
M  V30 5864 H 548.37 4.42789 2.29651 0
M  V30 5865 H 547.524 3.95165 4.60358 0
M  V30 5866 H 546.263 2.87461 3.93976 0
M  V30 5867 H 545.268 4.80249 2.67657 0
M  V30 5868 H 546.493 5.8952 3.37109 0
M  V30 5869 H 544.439 4.30255 4.95194 0
M  V30 5870 H 544.356 5.99796 4.60197 0
M  V30 5871 H 545.624 5.39463 5.62672 0
M  V30 5872 N 549.853 -0.472356 1.50355 0
M  V30 5873 C 551.269 -0.806001 1.37753 0
M  V30 5874 C 551.469 -1.968 0.432649 0
M  V30 5875 O 550.525 -2.52189 -0.12519 0
M  V30 5876 C 551.838 -1.11926 2.79093 0
M  V30 5877 C 553.386 -1.22579 2.87999 0
M  V30 5878 C 553.861 -1.57218 4.3017 0
M  V30 5879 N 555.352 -1.64212 4.33115 0
M  V30 5880 C 556.087 -1.92517 5.40116 0
M  V30 5881 N 555.583 -2.1885 6.57325 0
M  V30 5882 N 557.376 -1.94008 5.27558 0
M  V30 5883 H 549.527 0.293451 2.10363 0
M  V30 5884 H 551.79 0.0687672 0.945503 0
M  V30 5885 H 551.496 -0.338504 3.50067 0
M  V30 5886 H 551.37 -2.05577 3.16256 0
M  V30 5887 H 553.757 -1.99722 2.17245 0
M  V30 5888 H 553.838 -0.269107 2.54381 0
M  V30 5889 H 553.482 -0.806154 5.01461 0
M  V30 5890 H 553.412 -2.54034 4.61275 0
M  V30 5891 H 555.903 -1.45906 3.48597 0
M  V30 5892 H 556.216 -2.39718 7.3468 0
M  V30 5893 H 554.561 -2.16245 6.60502 0
M  V30 5894 H 557.752 -1.72931 4.34986 0
M  V30 5895 H 557.925 -2.15731 6.11035 0
M  V30 5896 N 551.331 -1.39911 -0.725443 0
M  V30 5897 C 552.294 -1.39156 -1.82121 0
M  V30 5898 C 553.294 -0.287018 -1.58218 0
M  V30 5899 O 554.484 -0.545421 -1.65441 0
M  V30 5900 C 551.616 -1.1736 -3.20062 0
M  V30 5901 H 552.809 -2.36672 -1.84191 0
M  V30 5902 H 550.362 -1.25615 -0.930079 0
M  V30 5903 H 551.097 -0.205648 -3.23647 0
M  V30 5904 H 550.882 -1.97358 -3.3881 0
M  V30 5905 H 552.372 -1.19596 -4.00108 0
M  V30 5906 N 552.809 0.956637 -1.25245 0
M  V30 5907 C 553.772 2.03457 -1.05537 0
M  V30 5908 C 554.772 1.60798 -0.00886317 0
M  V30 5909 O 555.962 1.72384 -0.250865 0
M  V30 5910 C 553.094 3.35543 -0.601965 0
M  V30 5911 H 554.287 2.22372 -2.01223 0
M  V30 5912 H 551.84 1.13344 -1.07623 0
M  V30 5913 H 552.575 3.22323 0.357584 0
M  V30 5914 H 552.36 3.67854 -1.35743 0
M  V30 5915 H 553.85 4.14769 -0.485454 0
M  V30 5916 N 554.287 1.06798 1.15896 0
M  V30 5917 C 555.517 0.807522 1.90165 0
M  V30 5918 C 555.925 -0.642417 1.7796 0
M  V30 5919 O 555.268 -1.45193 1.12537 0
M  V30 5920 C 555.33 1.12939 3.41299 0
M  V30 5921 C 554.994 2.57879 3.7729 0
M  V30 5922 C 555.991 3.56118 3.78782 0
M  V30 5923 C 553.676 2.93311 4.07767 0
M  V30 5924 C 555.67 4.87827 4.10248 0
M  V30 5925 C 553.357 4.25219 4.38899 0
M  V30 5926 C 554.355 5.22287 4.4012 0
M  V30 5927 O 554.043 6.51826 4.70508 0
M  V30 5928 H 553.775 0.291946 0.609708 0
M  V30 5929 H 556.329 1.42627 1.47806 0
M  V30 5930 H 554.559 0.45359 3.84031 0
M  V30 5931 H 556.248 0.852363 3.9685 0
M  V30 5932 H 557.014 3.30086 3.55342 0
M  V30 5933 H 552.893 2.18409 4.05979 0
M  V30 5934 H 556.437 5.63586 4.11116 0
M  V30 5935 H 552.334 4.51006 4.61805 0
M  V30 5936 H 553.102 6.56893 4.88298 0
M  V30 5937 N 555.766 -1.3263 0.851289 0
M  V30 5938 C 556.696 -2.31449 0.308771 0
M  V30 5939 C 557.677 -1.59531 -0.590255 0
M  V30 5940 O 558.862 -1.87351 -0.511205 0
M  V30 5941 C 555.992 -3.43586 -0.506548 0
M  V30 5942 C 554.946 -4.26963 0.297753 0
M  V30 5943 C 554.272 -5.30831 -0.642094 0
M  V30 5944 C 555.572 -4.99643 1.52166 0
M  V30 5945 H 557.266 -2.77074 1.13447 0
M  V30 5946 H 554.812 -1.33207 0.546971 0
M  V30 5947 H 556.765 -4.11754 -0.896474 0
M  V30 5948 H 555.489 -2.96681 -1.36558 0
M  V30 5949 H 554.148 -3.60437 0.669391 0
M  V30 5950 H 553.796 -4.8018 -1.49788 0
M  V30 5951 H 553.496 -5.87501 -0.107968 0
M  V30 5952 H 555.02 -6.01862 -1.02927 0
M  V30 5953 H 556.434 -5.6051 1.20421 0
M  V30 5954 H 554.831 -5.66022 1.99347 0
M  V30 5955 H 555.901 -4.27701 2.28474 0
M  V30 5956 N 557.244 -0.608902 -1.45362 0
M  V30 5957 C 558.207 0.0992563 -2.28985 0
M  V30 5958 C 559.207 0.793841 -1.39838 0
M  V30 5959 O 560.397 0.641804 -1.61946 0
M  V30 5960 C 557.529 1.15073 -3.20891 0
M  V30 5961 H 558.722 -0.635964 -2.93079 0
M  V30 5962 H 556.275 -0.368007 -1.51906 0
M  V30 5963 H 557.01 1.91667 -2.616 0
M  V30 5964 H 556.795 0.656867 -3.86559 0
M  V30 5965 H 558.285 1.64665 -3.83765 0
M  V30 5966 N 558.722 1.53707 -0.348139 0
M  V30 5967 C 559.97 2.00591 0.246478 0
M  V30 5968 C 560.291 1.23753 1.50699 0
M  V30 5969 O 559.561 0.345964 1.92821 0
M  V30 5970 H 558.141 0.741053 0.0940679 0
M  V30 5971 H 560.803 1.89139 -0.470354 0
M  V30 5972 H 559.899 3.08297 0.485714 0
M  V30 5973 N 560.2 0.0768682 1.57412 0
M  V30 5974 C 561.163 -0.873949 2.11884 0
M  V30 5975 C 562.163 -1.22301 1.04398 0
M  V30 5976 O 563.353 -1.15545 1.30365 0
M  V30 5977 C 560.485 -2.17575 2.62438 0
M  V30 5978 H 561.678 -0.401278 2.97203 0
M  V30 5979 H 559.231 -0.171904 1.55352 0
M  V30 5980 H 559.966 -2.69368 1.80587 0
M  V30 5981 H 559.751 -1.93534 3.41009 0
M  V30 5982 H 561.241 -2.85631 3.04639 0
M  V30 5983 N 561.678 -1.56367 -0.196722 0
M  V30 5984 C 562.926 -1.80172 -0.915554 0
M  V30 5985 C 563.247 -0.649649 -1.8386 0
M  V30 5986 O 562.517 0.332111 -1.93064 0
M  V30 5987 H 561.097 -0.664592 -0.341067 0
M  V30 5988 H 563.759 -1.93844 -0.202622 0
M  V30 5989 H 562.855 -2.7327 -1.50764 0
M  V30 5990 N 563.156 0.464375 -1.50603 0
M  V30 5991 C 564.405 1.21277 -1.61167 0
M  V30 5992 C 564.718 1.92953 -0.320704 0
M  V30 5993 O 565.924 2.69778 -0.30534 0
M  V30 5994 C 564.38 2.20403 -2.84518 0
M  V30 5995 C 563.988 1.54499 -4.20516 0
M  V30 5996 C 565.732 2.95843 -3.0443 0
M  V30 5997 C 563.639 2.51951 -5.35047 0
M  V30 5998 H 562.569 0.456367 -0.600204 0
M  V30 5999 H 565.22 0.48254 -1.77042 0
M  V30 6000 H 563.602 2.96746 -2.62217 0
M  V30 6001 H 564.776 0.83899 -4.53098 0
M  V30 6002 H 563.091 0.913152 -4.06264 0
M  V30 6003 H 565.688 3.6879 -3.87167 0
M  V30 6004 H 566.031 3.55622 -2.16423 0
M  V30 6005 H 566.564 2.26611 -3.26944 0
M  V30 6006 H 563.303 1.96901 -6.25228 0
M  V30 6007 H 562.823 3.20683 -5.06875 0
M  V30 6008 H 564.502 3.13643 -5.65895 0
M  V30 6009 N 564.634 1.40294 0.718013 0
M  V30 6010 C 565.597 1.4012 1.81381 0
M  V30 6011 C 566.597 0.295405 1.58063 0
M  V30 6012 O 567.787 0.554187 1.6515 0
M  V30 6013 C 564.919 1.19056 3.19435 0
M  V30 6014 H 566.112 2.37645 1.82933 0
M  V30 6015 H 563.665 1.26107 0.923405 0
M  V30 6016 H 564.4 0.222809 3.23534 0
M  V30 6017 H 564.185 1.99152 3.37758 0
M  V30 6018 H 565.675 1.21716 3.99468 0
M  V30 6019 N 566.112 -0.949982 1.2575 0
M  V30 6020 C 567.352 -1.70994 1.11984 0
M  V30 6021 C 567.716 -1.89095 -0.332746 0
M  V30 6022 O 568.917 -2.62192 -0.592331 0
M  V30 6023 C 567.188 -3.05286 1.85837 0
M  V30 6024 S 568.747 -3.96477 1.88019 0
M  V30 6025 H 565.565 -0.587689 0.400178 0
M  V30 6026 H 568.167 -1.13271 1.59342 0
M  V30 6027 H 566.871 -2.89785 2.90608 0
M  V30 6028 H 566.402 -3.68069 1.38885 0
M  V30 6029 H 568.417 -4.86814 0.96057 0
M  V30 6030 N 567.59 -1.07411 -1.15328 0
M  V30 6031 C 568.839 -0.792643 -1.85473 0
M  V30 6032 C 569.152 0.683789 -1.83259 0
M  V30 6033 O 570.358 1.08005 -2.49093 0
M  V30 6034 C 568.814 -1.36787 -3.32892 0
M  V30 6035 C 568.422 -2.87536 -3.43551 0
M  V30 6036 C 570.166 -1.16444 -4.08217 0
M  V30 6037 C 568.073 -3.38247 -4.85122 0
M  V30 6038 H 567.003 -0.292838 -0.694811 0
M  V30 6039 H 569.654 -1.29426 -1.30082 0
M  V30 6040 H 568.036 -0.793993 -3.87958 0
M  V30 6041 H 569.21 -3.50973 -2.98588 0
M  V30 6042 H 567.525 -3.06676 -2.81672 0
M  V30 6043 H 570.122 -1.51808 -5.12697 0
M  V30 6044 H 570.465 -0.10353 -4.16171 0
M  V30 6045 H 570.998 -1.70472 -3.59422 0
M  V30 6046 H 567.737 -4.43866 -4.82351 0
M  V30 6047 H 567.257 -2.79564 -5.30664 0
M  V30 6048 H 568.936 -3.34238 -5.5398 0
M  V30 6049 N 569.068 1.32177 -0.85831 0
M  V30 6050 C 569.998 2.31282 -0.321041 0
M  V30 6051 C 570.979 1.59841 0.581786 0
M  V30 6052 O 572.164 1.87619 0.501262 0
M  V30 6053 C 569.294 3.4385 0.48832 0
M  V30 6054 C 568.248 4.26799 -0.320391 0
M  V30 6055 C 567.574 5.31164 0.613934 0
M  V30 6056 C 568.874 4.98829 -1.54813 0
M  V30 6057 H 570.568 2.76469 -1.14915 0
M  V30 6058 H 568.114 1.32916 -0.554028 0
M  V30 6059 H 570.067 4.12224 0.874626 0
M  V30 6060 H 568.791 2.97401 1.34983 0
M  V30 6061 H 567.45 3.60077 -0.688497 0
M  V30 6062 H 567.098 4.80967 1.47239 0
M  V30 6063 H 566.798 5.8755 0.0768097 0
M  V30 6064 H 568.322 6.024 0.997336 0
M  V30 6065 H 569.736 5.59864 -1.23392 0
M  V30 6066 H 568.133 5.64957 -2.02346 0
M  V30 6067 H 569.203 4.26483 -2.30739 0
M  V30 6068 N 570.547 0.616602 1.45037 0
M  V30 6069 C 571.963 0.280994 1.57107 0
M  V30 6070 C 572.163 -1.21627 1.60653 0
M  V30 6071 O 571.219 -1.9997 1.54169 0
M  V30 6072 C 572.532 0.960116 2.8496 0
M  V30 6073 C 574.08 0.936884 2.98649 0
M  V30 6074 C 574.555 1.59619 4.29285 0
M  V30 6075 N 576.046 1.5621 4.36065 0
M  V30 6076 C 576.781 2.04131 5.35834 0
M  V30 6077 N 576.277 2.60177 6.4209 0
M  V30 6078 N 578.07 1.94845 5.27249 0
M  V30 6079 H 570.221 1.58867 1.40979 0
M  V30 6080 H 572.484 0.666024 0.674623 0
M  V30 6081 H 572.19 2.01473 2.88273 0
M  V30 6082 H 572.064 0.488921 3.74018 0
M  V30 6083 H 574.451 -0.109209 2.94898 0
M  V30 6084 H 574.532 1.44643 2.10979 0
M  V30 6085 H 574.176 2.64166 4.33796 0
M  V30 6086 H 574.106 1.06159 5.15789 0
M  V30 6087 H 576.597 1.15276 3.59889 0
M  V30 6088 H 576.91 2.94513 7.1448 0
M  V30 6089 H 575.255 2.64221 6.42816 0
M  V30 6090 H 578.446 1.50792 4.43147 0
M  V30 6091 H 578.619 2.32504 6.04852 0
M  V30 6092 N 572.025 -1.5352 0.356285 0
M  V30 6093 C 573.441 -1.59599 0.00485267 0
M  V30 6094 C 573.641 -1.37179 -1.47595 0
M  V30 6095 O 572.697 -1.17234 -2.23635 0
M  V30 6096 C 574.01 -2.97277 0.452454 0
M  V30 6097 C 575.558 -3.10357 0.405881 0
M  V30 6098 C 576.033 -4.50432 0.829148 0
M  V30 6099 N 577.524 -4.5652 0.783838 0
M  V30 6100 C 578.259 -5.63077 1.08315 0
M  V30 6101 N 577.755 -6.77429 1.45126 0
M  V30 6102 N 579.548 -5.53014 1.00655 0
M  V30 6103 H 571.699 -1.66346 1.32071 0
M  V30 6104 H 573.962 -0.77971 0.539218 0
M  V30 6105 H 573.668 -3.18792 1.48542 0
M  V30 6106 H 573.542 -3.76836 -0.165762 0
M  V30 6107 H 575.929 -2.88558 -0.617934 0
M  V30 6108 H 576.01 -2.32828 1.05947 0
M  V30 6109 H 575.654 -4.72968 1.85103 0
M  V30 6110 H 575.584 -5.26378 0.152906 0
M  V30 6111 H 578.075 -3.74408 0.512513 0
M  V30 6112 H 578.388 -7.54669 1.66415 0
M  V30 6113 H 576.733 -6.78844 1.48983 0
M  V30 6114 H 579.924 -4.62557 0.718215 0
M  V30 6115 H 580.097 -6.35964 1.24315 0
M  V30 6116 N 573.503 -0.0852151 -1.57369 0
M  V30 6117 C 574.752 0.580443 -1.93168 0
M  V30 6118 C 575.065 1.6995 -0.968319 0
M  V30 6119 O 576.271 2.42564 -1.21963 0
M  V30 6120 C 574.727 1.08386 -3.43192 0
M  V30 6121 C 574.335 -0.00491388 -4.48 0
M  V30 6122 C 576.079 1.72281 -3.87968 0
M  V30 6123 C 573.986 0.513299 -5.89168 0
M  V30 6124 H 572.916 0.22059 -0.72101 0
M  V30 6125 H 575.567 -0.159621 -1.82804 0
M  V30 6126 H 573.949 1.8773 -3.48674 0
M  V30 6127 H 575.123 -0.780032 -4.5415 0
M  V30 6128 H 573.438 -0.548453 -4.12772 0
M  V30 6129 H 576.035 2.12108 -4.9083 0
M  V30 6130 H 576.378 2.58811 -3.26071 0
M  V30 6131 H 576.911 0.995359 -3.85146 0
M  V30 6132 H 573.65 -0.315153 -6.54742 0
M  V30 6133 H 573.17 1.25564 -5.8651 0
M  V30 6134 H 574.849 0.985433 -6.39451 0
M  V30 6135 N 574.981 1.5647 0.188427 0
M  V30 6136 C 575.929 1.95971 1.25293 0
M  V30 6137 C 576.923 0.846047 1.4676 0
M  V30 6138 O 578.129 1.03109 1.47542 0
M  V30 6139 H 574.504 0.623253 0.420784 0
M  V30 6140 H 576.475 2.84731 0.892792 0
M  V30 6141 C 575.224 2.32116 2.58877 0
M  V30 6142 H 574.547 3.17341 2.43176 0
M  V30 6143 H 575.987 2.63613 3.3209 0
M  V30 6144 C 574.446 1.15823 3.16365 0
M  V30 6145 O 574.976 0.436785 3.99318 0
M  V30 6146 N 573.182 0.933278 2.75206 0
M  V30 6147 H 572.729 1.52169 2.07852 0
M  V30 6148 H 572.687 0.156976 3.14008 0
M  V30 6149 N 576.459 -0.456382 1.50847 0
M  V30 6150 C 577.875 -0.791345 1.386 0
M  V30 6151 C 578.075 -1.9633 0.453498 0
M  V30 6152 O 577.131 -2.52308 -0.0984353 0
M  V30 6153 C 578.444 -1.08959 2.80265 0
M  V30 6154 C 579.992 -1.19517 2.89283 0
M  V30 6155 C 580.467 -1.52647 4.31814 0
M  V30 6156 N 581.958 -1.59609 4.34832 0
M  V30 6157 C 582.693 -1.86777 5.42127 0
M  V30 6158 N 582.189 -2.11866 6.59609 0
M  V30 6159 N 583.982 -1.88402 5.29586 0
M  V30 6160 H 576.133 0.315746 2.1004 0
M  V30 6161 H 578.396 0.0787916 0.94472 0
M  V30 6162 H 578.102 -0.301355 3.50407 0
M  V30 6163 H 577.976 -2.02211 3.18419 0
M  V30 6164 H 580.363 -1.97406 2.19351 0
M  V30 6165 H 580.444 -0.242111 2.54652 0
M  V30 6166 H 580.088 -0.752922 5.02288 0
M  V30 6167 H 580.018 -2.49127 4.63943 0
M  V30 6168 H 582.509 -1.42201 3.50125 0
M  V30 6169 H 582.822 -2.31912 7.37182 0
M  V30 6170 H 581.167 -2.09228 6.62758 0
M  V30 6171 H 584.358 -1.68307 4.36795 0
M  V30 6172 H 584.531 -2.09238 6.13289 0
M  V30 6173 N 577.937 -1.40673 -0.710563 0
M  V30 6174 C 579.162 -1.42741 -1.50465 0
M  V30 6175 C 579.587 -0.0302116 -1.88076 0
M  V30 6176 O 578.945 0.962945 -1.53613 0
M  V30 6177 C 578.993 -2.32873 -2.75322 0
M  V30 6178 O 578.097 -1.77544 -3.72226 0
M  V30 6179 H 577.438 -0.485056 -0.45345 0
M  V30 6180 H 579.968 -1.84961 -0.874681 0
M  V30 6181 H 579.978 -2.48233 -3.23797 0
M  V30 6182 H 578.653 -3.34401 -2.47283 0
M  V30 6183 H 577.23 -1.71556 -3.31093 0
M  V30 6184 N 579.415 0.9433 -1.26252 0
M  V30 6185 C 580.325 2.07532 -1.09397 0
M  V30 6186 C 581.341 1.73977 -0.0280449 0
M  V30 6187 O 582.517 2.00067 -0.231337 0
M  V30 6188 C 579.582 3.39002 -0.726523 0
M  V30 6189 C 578.643 3.86353 -1.87163 0
M  V30 6190 C 577.876 5.11549 -1.52162 0
M  V30 6191 O 578.099 5.68834 -0.422385 0
M  V30 6192 O 577.033 5.53889 -2.35565 0
M  V30 6193 H 580.859 2.24658 -2.04359 0
M  V30 6194 H 578.444 1.05988 -1.05295 0
M  V30 6195 H 580.326 4.18 -0.534236 0
M  V30 6196 H 579.001 3.2312 0.193721 0
M  V30 6197 H 577.908 3.0831 -2.11886 0
M  V30 6198 H 579.241 4.06752 -2.77152 0
M  V30 6199 N 580.893 1.08022 1.14757 0
M  V30 6200 C 582.139 0.808705 1.85978 0
M  V30 6201 C 582.472 -0.663764 1.82504 0
M  V30 6202 O 581.747 -1.48765 1.25296 0
M  V30 6203 C 582.03 1.32623 3.34788 0
M  V30 6204 C 581.883 2.86375 3.46856 0
M  V30 6205 C 583.202 0.948291 4.29762 0
M  V30 6206 H 580.321 0.295244 0.675278 0
M  V30 6207 H 582.963 1.33917 1.34783 0
M  V30 6208 H 581.113 0.875002 3.78518 0
M  V30 6209 H 582.785 3.39839 3.11941 0
M  V30 6210 H 581.028 3.24232 2.88194 0
M  V30 6211 H 581.699 3.17658 4.51439 0
M  V30 6212 H 584.175 1.33722 3.94028 0
M  V30 6213 H 583.051 1.33765 5.32352 0
M  V30 6214 H 583.312 -0.145094 4.41862 0
M  V30 6215 N 582.371 -1.3172 0.865308 0
M  V30 6216 C 583.599 -2.01057 0.488251 0
M  V30 6217 C 584.014 -1.64979 -0.918 0
M  V30 6218 O 583.371 -0.876597 -1.60069 0
M  V30 6219 C 583.422 -3.55964 0.630224 0
M  V30 6220 O 583.143 -3.90749 1.98109 0
M  V30 6221 C 584.644 -4.42574 0.253567 0
M  V30 6222 H 581.864 -0.64332 0.190736 0
M  V30 6223 H 584.408 -1.68058 1.16519 0
M  V30 6224 H 582.563 -3.874 0.000895422 0
M  V30 6225 H 582.977 -4.85467 1.9855 0
M  V30 6226 H 584.451 -5.50521 0.403875 0
M  V30 6227 H 584.928 -4.31724 -0.806895 0
M  V30 6228 H 585.534 -4.16547 0.858404 0
M  V30 6229 N 583.85 -0.624285 -1.44708 0
M  V30 6230 C 585.096 -0.126237 -2.02407 0
M  V30 6231 C 585.428 1.24618 -1.48943 0
M  V30 6232 O 584.704 1.82569 -0.670742 0
M  V30 6233 C 584.986 -0.105449 -3.59946 0
M  V30 6234 C 584.84 -1.50972 -4.23707 0
M  V30 6235 C 586.159 0.573629 -4.36346 0
M  V30 6236 H 583.278 -0.0473472 -0.735478 0
M  V30 6237 H 585.92 -0.799452 -1.72362 0
M  V30 6238 H 584.07 0.46783 -3.85673 0
M  V30 6239 H 585.742 -2.13136 -4.0911 0
M  V30 6240 H 583.985 -2.0656 -3.81465 0
M  V30 6241 H 584.656 -1.44727 -5.32689 0
M  V30 6242 H 587.132 0.0861787 -4.16011 0
M  V30 6243 H 586.008 0.557338 -5.46063 0
M  V30 6244 H 586.269 1.64276 -4.10446 0
M  V30 6245 N 585.328 1.53329 -0.364422 0
M  V30 6246 C 586.576 2.00842 0.225189 0
M  V30 6247 C 586.897 1.25345 1.49378 0
M  V30 6248 O 586.167 0.366396 1.92443 0
M  V30 6249 H 584.747 0.742009 0.0862027 0
M  V30 6250 H 587.409 1.8863 -0.490389 0
M  V30 6251 H 586.505 3.08795 0.452987 0
M  V30 6252 N 586.806 0.0935595 1.57322 0
M  V30 6253 C 588.052 -0.571355 1.94585 0
M  V30 6254 C 588.385 -1.67929 0.975366 0
M  V30 6255 O 587.66 -1.94498 0.00816206 0
M  V30 6256 C 587.943 -1.12797 3.41978 0
M  V30 6257 C 587.796 -0.0251881 4.49793 0
M  V30 6258 C 589.115 -2.02682 3.90651 0
M  V30 6259 H 586.234 -0.206223 0.70756 0
M  V30 6260 H 588.876 0.163956 1.89291 0
M  V30 6261 H 587.026 -1.75461 3.4662 0
M  V30 6262 H 588.698 0.608979 4.57263 0
M  V30 6263 H 586.941 0.641399 4.29032 0
M  V30 6264 H 587.612 -0.455433 5.50118 0
M  V30 6265 H 590.088 -1.49925 3.88152 0
M  V30 6266 H 588.964 -2.38555 4.94351 0
M  V30 6267 H 589.225 -2.94362 3.29854 0
M  V30 6268 N 588.284 -1.56567 -0.180126 0
M  V30 6269 C 589.561 -1.7235 -0.924931 0
M  V30 6270 C 589.941 -0.652523 -2.00762 0
M  V30 6271 O 589.289 0.334115 -2.26044 0
M  V30 6272 C 589.499 -3.1523 -1.49771 0
M  V30 6273 C 590.847 -3.75921 -1.97405 0
M  V30 6274 O 591.871 -3.18452 -1.59583 0
M  V30 6275 O 590.73 -4.7681 -2.67048 0
M  V30 6276 H 587.824 -0.703502 -0.434758 0
M  V30 6277 H 590.37 -1.6886 -0.168647 0
M  V30 6278 H 589.142 -3.84656 -0.718027 0
M  V30 6279 H 588.765 -3.23009 -2.31842 0
M  V30 6280 N 589.762 0.448376 -1.51087 0
M  V30 6281 C 591.01 1.19635 -1.62886 0
M  V30 6282 C 591.331 1.91977 -0.342024 0
M  V30 6283 O 590.601 1.85094 0.641636 0
M  V30 6284 H 589.181 0.444598 -0.600285 0
M  V30 6285 H 591.843 0.515138 -1.87969 0
M  V30 6286 H 590.939 1.93194 -2.45117 0
M  V30 6287 N 591.24 1.41047 0.703093 0
M  V30 6288 C 592.465 1.43537 1.49706 0
M  V30 6289 C 592.89 0.0401853 1.88057 0
M  V30 6290 O 592.248 -0.954785 1.54122 0
M  V30 6291 C 592.296 2.3433 2.74084 0
M  V30 6292 O 591.4 1.79515 3.71279 0
M  V30 6293 H 590.741 0.487454 0.450871 0
M  V30 6294 H 593.271 1.85422 0.86486 0
M  V30 6295 H 593.281 2.49947 3.22476 0
M  V30 6296 H 591.956 3.35708 2.45506 0
M  V30 6297 H 590.533 1.7331 3.30179 0
M  V30 6298 N 592.718 -0.936591 1.26751 0
M  V30 6299 C 593.648 -2.05315 1.11212 0
M  V30 6300 C 594.629 -1.70092 0.0160262 0
M  V30 6301 O 595.814 -1.93279 0.188894 0
M  V30 6302 C 592.944 -3.39123 0.749171 0
M  V30 6303 C 591.898 -3.88425 1.79751 0
M  V30 6304 C 591.224 -5.18936 1.28876 0
M  V30 6305 C 592.524 -4.12798 3.19992 0
M  V30 6306 H 594.218 -2.18573 2.04613 0
M  V30 6307 H 591.764 -1.05027 0.985159 0
M  V30 6308 H 593.717 -4.16704 0.627323 0
M  V30 6309 H 592.441 -3.25855 -0.220543 0
M  V30 6310 H 591.1 -3.13028 1.90811 0
M  V30 6311 H 590.748 -5.02051 0.308757 0
M  V30 6312 H 590.448 -5.52892 1.98958 0
M  V30 6313 H 591.972 -5.99096 1.17967 0
M  V30 6314 H 593.386 -4.80977 3.11983 0
M  V30 6315 H 591.783 -4.58044 3.87705 0
M  V30 6316 H 592.853 -3.18412 3.65707 0
M  V30 6317 N 594.196 -1.08629 -1.14182 0
M  V30 6318 C 595.426 -0.837673 -1.88856 0
M  V30 6319 C 595.834 0.614024 -1.78959 0
M  V30 6320 O 595.177 1.43384 -1.14833 0
M  V30 6321 C 595.239 -1.18355 -3.39459 0
M  V30 6322 C 594.903 -2.63848 -3.73139 0
M  V30 6323 C 595.9 -3.62099 -3.73069 0
M  V30 6324 C 593.585 -2.99761 -4.03049 0
M  V30 6325 C 595.579 -4.94292 -4.02435 0
M  V30 6326 C 593.266 -4.32147 -4.32078 0
M  V30 6327 C 594.264 -5.29223 -4.31755 0
M  V30 6328 O 593.952 -6.59229 -4.60079 0
M  V30 6329 H 593.684 -0.301609 -0.604986 0
M  V30 6330 H 596.238 -1.44961 -1.45518 0
M  V30 6331 H 594.468 -0.514628 -3.8326 0
M  V30 6332 H 596.157 -0.915391 -3.95443 0
M  V30 6333 H 596.923 -3.35698 -3.50046 0
M  V30 6334 H 592.802 -2.2484 -4.02453 0
M  V30 6335 H 596.346 -5.70055 -4.02098 0
M  V30 6336 H 592.243 -4.58296 -4.54571 0
M  V30 6337 H 593.011 -6.64578 -4.77785 0
M  V30 6338 N 595.674 1.31259 -0.872281 0
M  V30 6339 C 596.621 2.28459 -0.327857 0
M  V30 6340 C 597.591 1.55831 0.574957 0
M  V30 6341 O 598.776 1.83965 0.506101 0
M  V30 6342 C 595.916 3.41985 0.462644 0
M  V30 6343 C 595.029 4.29458 -0.467949 0
M  V30 6344 C 594.164 5.30131 0.336903 0
M  V30 6345 C 593.203 6.0925 -0.58997 0
M  V30 6346 N 592.34 7.01872 0.178775 0
M  V30 6347 H 597.18 2.74414 -1.16193 0
M  V30 6348 H 594.717 1.34994 -0.584376 0
M  V30 6349 H 596.675 4.06547 0.936759 0
M  V30 6350 H 595.305 2.97134 1.2614 0
M  V30 6351 H 594.357 3.65318 -1.06052 0
M  V30 6352 H 595.669 4.84677 -1.17856 0
M  V30 6353 H 594.823 6.0038 0.873427 0
M  V30 6354 H 593.562 4.75573 1.08079 0
M  V30 6355 H 592.567 5.37889 -1.13823 0
M  V30 6356 H 593.792 6.65894 -1.33275 0
M  V30 6357 H 591.738 6.49721 0.905435 0
M  V30 6358 H 591.655 7.54522 -0.472452 0
M  V30 6359 H 592.923 7.76382 0.696454 0
M  V30 6360 N 597.152 0.631951 1.44375 0
M  V30 6361 C 598.399 0.136767 2.02038 0
M  V30 6362 C 598.727 -1.24168 1.49709 0
M  V30 6363 O 597.982 -1.83809 0.671763 0
M  V30 6364 C 598.281 0.0735861 3.57324 0
M  V30 6365 C 597.947 1.39092 4.28911 0
M  V30 6366 C 596.609 1.75171 4.48184 0
M  V30 6367 C 598.961 2.26042 4.69632 0
M  V30 6368 C 596.289 2.97907 5.05439 0
M  V30 6369 C 598.641 3.4805 5.28246 0
M  V30 6370 C 597.305 3.84351 5.45738 0
M  V30 6371 H 596.575 0.0500466 0.739308 0
M  V30 6372 H 599.222 0.818429 1.7313 0
M  V30 6373 H 597.527 -0.691449 3.8565 0
M  V30 6374 H 599.224 -0.326091 3.99672 0
M  V30 6375 H 595.814 1.10015 4.1424 0
M  V30 6376 H 599.998 1.99463 4.54454 0
M  V30 6377 H 595.254 3.26108 5.17169 0
M  V30 6378 H 599.428 4.15658 5.5875 0
M  V30 6379 H 597.055 4.79538 5.8987 0
M  V30 6380 N 598.631 -1.53133 0.372548 0
M  V30 6381 C 599.581 -2.22733 -0.487218 0
M  V30 6382 C 600.565 -1.22506 -1.04312 0
M  V30 6383 O 601.757 -1.47923 -0.972005 0
M  V30 6384 C 598.886 -3.02524 -1.62278 0
M  V30 6385 C 597.972 -4.10133 -1.07943 0
M  V30 6386 N 598.363 -5.05133 -0.259629 0
M  V30 6387 C 596.661 -4.24964 -1.35356 0
M  V30 6388 C 597.362 -5.81687 0.0386656 0
M  V30 6389 N 596.338 -5.40699 -0.560827 0
M  V30 6390 H 600.14 -2.93538 0.145853 0
M  V30 6391 H 597.654 -1.61389 0.180938 0
M  V30 6392 H 599.651 -3.50909 -2.25096 0
M  V30 6393 H 598.311 -2.33252 -2.25884 0
M  V30 6394 H 599.322 -5.178 0.101746 0
M  V30 6395 H 595.999 -3.66919 -1.9919 0
M  V30 6396 H 597.389 -6.68224 0.701841 0
M  V30 6397 N 600.109 -0.101901 -1.5727 0
M  V30 6398 C 601.52 0.426173 -1.81771 0
M  V30 6399 C 601.871 1.67725 -1.01797 0
M  V30 6400 O 600.996 2.14958 -0.249386 0
M  V30 6401 C 601.591 0.779962 -3.297 0
M  V30 6402 C 600.15 1.25275 -3.54941 0
M  V30 6403 C 599.297 0.252814 -2.76145 0
M  V30 6404 H 602.248 -0.32726 -1.55289 0
M  V30 6405 H 602.269 1.63891 -3.43395 0
M  V30 6406 H 601.781 -0.130778 -3.8788 0
M  V30 6407 H 599.882 2.18097 -3.021 0
M  V30 6408 H 599.995 1.20988 -4.63572 0
M  V30 6409 H 598.359 0.736362 -2.43823 0
M  V30 6410 H 599.142 -0.650724 -3.37076 0
M  V30 6411 N 601.587 1.56661 0.17182 0
M  V30 6412 C 602.534 1.96371 1.21273 0
M  V30 6413 C 603.504 0.82756 1.44016 0
M  V30 6414 O 604.689 1.08764 1.56764 0
M  V30 6415 C 601.829 2.32838 2.54716 0
M  V30 6416 C 600.942 3.59628 2.39356 0
M  V30 6417 C 600.077 3.85311 3.65662 0
M  V30 6418 C 599.116 5.0545 3.45234 0
M  V30 6419 N 598.253 5.27268 4.63608 0
M  V30 6420 H 603.093 2.85106 0.86709 0
M  V30 6421 H 600.63 1.41073 0.416744 0
M  V30 6422 H 602.588 2.52004 3.3249 0
M  V30 6423 H 601.218 1.47214 2.87277 0
M  V30 6424 H 600.27 3.4838 1.52761 0
M  V30 6425 H 601.582 4.4756 2.20207 0
M  V30 6426 H 600.736 4.04841 4.51872 0
M  V30 6427 H 599.475 2.95753 3.8779 0
M  V30 6428 H 598.48 4.85819 2.5741 0
M  V30 6429 H 599.705 5.96538 3.24529 0
M  V30 6430 H 597.651 4.40662 4.85956 0
M  V30 6431 H 597.568 6.09422 4.4737 0
M  V30 6432 H 598.836 5.51277 5.51103 0
M  V30 6433 N 603.065 -0.440357 1.51323 0
M  V30 6434 C 604.312 -1.19004 1.63842 0
M  V30 6435 C 604.64 -1.91266 0.35321 0
M  V30 6436 O 603.895 -1.84143 -0.662565 0
M  V30 6437 C 604.194 -2.2339 2.78984 0
M  V30 6438 C 603.86 -1.68162 4.18369 0
M  V30 6439 C 602.522 -1.52823 4.56288 0
M  V30 6440 C 604.874 -1.27524 5.05358 0
M  V30 6441 C 602.202 -0.953157 5.78906 0
M  V30 6442 C 604.554 -0.714474 6.28552 0
M  V30 6443 C 603.218 -0.547961 6.65247 0
M  V30 6444 H 602.488 -0.435468 0.59954 0
M  V30 6445 H 605.135 -0.481538 1.85347 0
M  V30 6446 H 603.44 -3.00267 2.51688 0
M  V30 6447 H 605.137 -2.81211 2.85869 0
M  V30 6448 H 601.727 -1.81077 3.8847 0
M  V30 6449 H 605.911 -1.38197 4.76671 0
M  V30 6450 H 601.167 -0.811882 6.05986 0
M  V30 6451 H 605.341 -0.391059 6.95301 0
M  V30 6452 H 602.968 -0.100222 7.60134 0
M  V30 6453 N 604.543 -1.41418 -0.695603 0
M  V30 6454 C 605.783 -1.42241 -1.46788 0
M  V30 6455 C 606.147 -0.0300827 -1.91976 0
M  V30 6456 O 607.348 0.0868914 -2.6866 0
M  V30 6457 C 605.619 -2.4011 -2.6473 0
M  V30 6458 S 607.178 -2.59462 -3.53871 0
M  V30 6459 H 603.996 -0.503893 -0.50161 0
M  V30 6460 H 606.598 -1.77855 -0.811654 0
M  V30 6461 H 605.302 -3.40073 -2.29736 0
M  V30 6462 H 604.833 -2.05849 -3.35246 0
M  V30 6463 H 606.848 -1.862 -4.59939 0
M  V30 6464 N 606.021 0.929856 -1.27246 0
M  V30 6465 C 606.931 2.0636 -1.11592 0
M  V30 6466 C 607.947 1.73938 -0.046496 0
M  V30 6467 O 609.123 1.9981 -0.252544 0
M  V30 6468 C 606.188 3.38213 -0.762437 0
M  V30 6469 C 605.249 3.84346 -1.9125 0
M  V30 6470 C 604.482 5.09906 -1.57579 0
M  V30 6471 O 604.705 5.68354 -0.482694 0
M  V30 6472 O 603.639 5.51359 -2.41426 0
M  V30 6473 H 607.465 2.22478 -2.0673 0
M  V30 6474 H 605.05 1.04865 -1.06413 0
M  V30 6475 H 606.932 4.1741 -0.57854 0
M  V30 6476 H 605.607 3.23307 0.159439 0
M  V30 6477 H 604.514 3.06045 -2.15144 0
M  V30 6478 H 605.847 4.0379 -2.81451 0
M  V30 6479 N 607.499 1.09233 1.13605 0
M  V30 6480 C 608.915 0.82163 1.36826 0
M  V30 6481 C 609.115 -0.565021 1.93416 0
M  V30 6482 O 608.171 -1.32026 2.15234 0
M  V30 6483 C 609.484 1.91124 2.32147 0
M  V30 6484 C 611.032 1.93824 2.45767 0
M  V30 6485 C 611.507 3.01923 3.44393 0
M  V30 6486 N 612.998 3.01149 3.51942 0
M  V30 6487 C 613.733 3.81434 4.2813 0
M  V30 6488 N 613.229 4.71621 5.07489 0
M  V30 6489 N 615.022 3.69702 4.23411 0
M  V30 6490 H 607.173 1.98633 0.752234 0
M  V30 6491 H 609.436 0.862482 0.393482 0
M  V30 6492 H 609.142 2.90862 1.97717 0
M  V30 6493 H 609.016 1.78777 3.32142 0
M  V30 6494 H 611.403 0.94726 2.79483 0
M  V30 6495 H 611.484 2.10248 1.45703 0
M  V30 6496 H 611.128 4.01232 3.11408 0
M  V30 6497 H 611.058 2.82742 4.44257 0
M  V30 6498 H 613.549 2.35789 2.95317 0
M  V30 6499 H 613.862 5.29468 5.62924 0
M  V30 6500 H 612.207 4.75658 5.06729 0
M  V30 6501 H 615.398 2.98606 3.60489 0
M  V30 6502 H 615.571 4.32509 4.82535 0
M  V30 6503 N 608.977 -1.30795 0.87923 0
M  V30 6504 C 609.91 -2.26396 0.286404 0
M  V30 6505 C 610.888 -1.51528 -0.589748 0
M  V30 6506 O 612.072 -1.80566 -0.541119 0
M  V30 6507 C 609.199 -3.33458 -0.593581 0
M  V30 6508 C 608.245 -4.2597 0.21247 0
M  V30 6509 S 609.078 -5.11132 1.59702 0
M  V30 6510 C 610.234 -6.21705 0.723408 0
M  V30 6511 H 610.467 -2.7633 1.09677 0
M  V30 6512 H 608 -1.38703 0.678305 0
M  V30 6513 H 609.958 -3.9561 -1.09557 0
M  V30 6514 H 608.619 -2.82259 -1.37799 0
M  V30 6515 H 607.812 -5.01907 -0.458822 0
M  V30 6516 H 607.414 -3.68363 0.646883 0
M  V30 6517 H 609.706 -6.77472 -0.0620739 0
M  V30 6518 H 610.649 -6.93007 1.4542 0
M  V30 6519 H 611.057 -5.63771 0.286855 0
M  V30 6520 N 610.455 -0.639598 -1.44038 0
M  V30 6521 C 611.683 -0.154811 -2.0632 0
M  V30 6522 C 612.098 1.17406 -1.47856 0
M  V30 6523 O 611.455 1.72193 -0.604638 0
M  V30 6524 C 611.506 -0.0429958 -3.61474 0
M  V30 6525 O 611.227 -1.31932 -4.17763 0
M  V30 6526 C 612.728 0.469486 -4.40807 0
M  V30 6527 H 609.948 -0.0835862 -0.665773 0
M  V30 6528 H 612.492 -0.876397 -1.84769 0
M  V30 6529 H 610.647 0.629075 -3.82258 0
M  V30 6530 H 611.061 -1.16965 -5.11292 0
M  V30 6531 H 612.535 0.496712 -5.49761 0
M  V30 6532 H 613.012 1.49819 -4.12857 0
M  V30 6533 H 613.618 -0.169624 -4.24962 0
M  V30 6534 N 611.933 1.52934 -0.380664 0
M  V30 6535 C 613.21 1.93845 0.261417 0
M  V30 6536 C 613.59 1.31544 1.65104 0
M  V30 6537 O 612.938 0.480234 2.23397 0
M  V30 6538 C 613.148 3.47739 0.296466 0
M  V30 6539 C 614.496 4.21284 0.529578 0
M  V30 6540 O 615.52 3.54199 0.377041 0
M  V30 6541 O 614.379 5.40195 0.827753 0
M  V30 6542 H 611.473 0.811318 0.160285 0
M  V30 6543 H 614.019 1.64042 -0.434544 0
M  V30 6544 H 612.791 3.85395 -0.67724 0
M  V30 6545 H 612.414 3.8382 1.0377 0
M  V30 6546 N 613.412 0.11024 1.57214 0
M  V30 6547 C 614.345 -0.880224 2.1054 0
M  V30 6548 C 615.323 -1.26658 1.01964 0
M  V30 6549 O 616.507 -1.36917 1.29561 0
M  V30 6550 C 613.634 -2.17676 2.59489 0
M  V30 6551 C 612.68 -1.93914 3.79868 0
M  V30 6552 S 613.513 -1.16336 5.2271 0
M  V30 6553 C 614.669 -2.47188 5.75021 0
M  V30 6554 H 614.902 -0.426614 2.94223 0
M  V30 6555 H 612.435 -0.10336 1.54054 0
M  V30 6556 H 614.393 -2.92175 2.88347 0
M  V30 6557 H 613.054 -2.60156 1.76005 0
M  V30 6558 H 612.247 -2.8996 4.12236 0
M  V30 6559 H 611.849 -1.27539 3.51582 0
M  V30 6560 H 614.141 -3.43079 5.84211 0
M  V30 6561 H 615.084 -2.19377 6.7326 0
M  V30 6562 H 615.492 -2.56154 5.03036 0
M  V30 6563 N 614.89 -1.56749 -0.16351 0
M  V30 6564 C 616.136 -1.82704 -0.880168 0
M  V30 6565 C 616.469 -0.689311 -1.81555 0
M  V30 6566 O 615.744 0.308224 -1.92042 0
M  V30 6567 C 616.027 -3.19084 -1.66905 0
M  V30 6568 C 615.88 -4.43397 -0.756269 0
M  V30 6569 C 617.199 -3.52493 -2.63509 0
M  V30 6570 H 614.318 -0.664608 -0.318535 0
M  V30 6571 H 616.96 -1.89438 -0.146036 0
M  V30 6572 H 615.11 -3.13475 -2.2949 0
M  V30 6573 H 616.782 -4.61079 -0.14269 0
M  V30 6574 H 615.025 -4.33752 -0.0647944 0
M  V30 6575 H 615.696 -5.3539 -1.34393 0
M  V30 6576 H 618.172 -3.58606 -2.11047 0
M  V30 6577 H 617.048 -4.48979 -3.15767 0
M  V30 6578 H 617.309 -2.77597 -3.44082 0
M  V30 6579 N 616.368 0.432326 -1.51554 0
M  V30 6580 C 617.645 1.19288 -1.55015 0
M  V30 6581 C 618.025 2.08701 -0.317375 0
M  V30 6582 O 617.373 2.17602 0.697243 0
M  V30 6583 C 617.583 1.99037 -2.86679 0
M  V30 6584 C 618.931 2.55907 -3.38817 0
M  V30 6585 O 619.955 2.09243 -2.88263 0
M  V30 6586 O 618.814 3.41029 -4.27038 0
M  V30 6587 H 615.908 0.543369 -0.623441 0
M  V30 6588 H 618.454 0.440988 -1.6387 0
M  V30 6589 H 617.226 1.33397 -3.6786 0
M  V30 6590 H 616.849 2.81281 -2.8101 0
M  V30 6591 N 617.846 1.41785 0.688094 0
M  V30 6592 C 618.793 1.44221 1.80191 0
M  V30 6593 C 619.763 0.295688 1.63447 0
M  V30 6594 O 620.948 0.49783 1.84191 0
M  V30 6595 C 618.088 1.33743 3.1813 0
M  V30 6596 C 617.201 2.58325 3.46254 0
M  V30 6597 C 616.336 2.40086 4.73848 0
M  V30 6598 C 615.375 3.60107 4.94964 0
M  V30 6599 N 614.512 3.40892 6.13789 0
M  V30 6600 H 619.352 2.39411 1.77444 0
M  V30 6601 H 616.889 1.18876 0.866423 0
M  V30 6602 H 618.847 1.25669 3.97823 0
M  V30 6603 H 617.477 0.42157 3.20035 0
M  V30 6604 H 616.529 2.7682 2.60912 0
M  V30 6605 H 617.841 3.4758 3.57756 0
M  V30 6606 H 616.995 2.29522 5.61609 0
M  V30 6607 H 615.734 1.483 4.64606 0
M  V30 6608 H 614.739 3.71118 4.05649 0
M  V30 6609 H 615.964 4.52857 5.06061 0
M  V30 6610 H 613.91 2.51812 6.05745 0
M  V30 6611 H 613.827 4.23727 6.26092 0
M  V30 6612 H 615.095 3.34114 7.04264 0
M  V30 6613 N 619.324 -0.923095 1.27737 0
M  V30 6614 C 620.254 -2.04124 1.13383 0
M  V30 6615 C 621.235 -1.70066 0.0340658 0
M  V30 6616 O 622.42 -1.93068 0.209383 0
M  V30 6617 C 619.55 -3.3831 0.785097 0
M  V30 6618 C 618.504 -3.86496 1.8386 0
M  V30 6619 C 617.83 -5.1754 1.34373 0
M  V30 6620 C 619.13 -4.09381 3.24353 0
M  V30 6621 H 620.824 -2.1639 2.06919 0
M  V30 6622 H 618.37 -1.03976 0.996243 0
M  V30 6623 H 620.323 -4.16016 0.671485 0
M  V30 6624 H 619.047 -3.2607 -0.185969 0
M  V30 6625 H 617.706 -3.10987 1.9412 0
M  V30 6626 H 617.354 -5.01696 0.361989 0
M  V30 6627 H 617.054 -5.50751 2.04811 0
M  V30 6628 H 618.578 -5.97811 1.24315 0
M  V30 6629 H 619.992 -4.77641 3.17067 0
M  V30 6630 H 618.389 -4.53906 3.92542 0
M  V30 6631 H 619.459 -3.14515 3.69064 0
M  V30 6632 N 620.802 -1.09834 -1.13024 0
M  V30 6633 C 621.749 -0.741522 -2.18564 0
M  V30 6634 C 622.719 0.279236 -1.63736 0
M  V30 6635 O 623.904 0.159923 -1.90129 0
M  V30 6636 C 621.044 -0.17277 -3.44667 0
M  V30 6637 C 620.157 -1.24808 -4.13578 0
M  V30 6638 C 619.292 -0.641631 -5.27311 0
M  V30 6639 C 618.331 -1.69795 -5.88078 0
M  V30 6640 N 617.468 -1.11223 -6.93234 0
M  V30 6641 H 622.308 -1.64576 -2.48432 0
M  V30 6642 H 619.845 -0.822174 -1.21978 0
M  V30 6643 H 621.803 0.17482 -4.16834 0
M  V30 6644 H 620.433 0.694725 -3.15235 0
M  V30 6645 H 619.485 -1.71288 -3.39653 0
M  V30 6646 H 620.797 -2.04795 -4.54819 0
M  V30 6647 H 619.951 -0.243128 -6.06213 0
M  V30 6648 H 618.69 0.189742 -4.87331 0
M  V30 6649 H 617.695 -2.10595 -5.07868 0
M  V30 6650 H 618.92 -2.53206 -6.3013 0
M  V30 6651 H 616.866 -0.302208 -6.55304 0
M  V30 6652 H 616.783 -1.84901 -7.3304 0
M  V30 6653 H 618.051 -0.740068 -7.75979 0
M  V30 6654 N 622.28 1.30327 -0.886154 0
M  V30 6655 C 623.691 1.78243 -0.555554 0
M  V30 6656 C 624.042 1.72849 0.928314 0
M  V30 6657 O 623.167 1.30607 1.72542 0
M  V30 6658 C 623.762 3.23654 -1.00168 0
M  V30 6659 C 622.321 3.69401 -0.722471 0
M  V30 6660 C 621.468 2.50753 -1.18399 0
M  V30 6661 H 624.419 1.1718 -1.07026 0
M  V30 6662 H 624.44 3.79056 -0.331152 0
M  V30 6663 H 623.952 3.27548 -2.08169 0
M  V30 6664 H 622.053 3.70995 0.345496 0
M  V30 6665 H 622.166 4.60818 -1.31085 0
M  V30 6666 H 620.53 2.47452 -0.603303 0
M  V30 6667 H 621.313 2.57383 -2.27176 0
M  V30 6668 N 623.758 0.647228 1.43697 0
M  V30 6669 C 624.705 -0.0480092 2.3075 0
M  V30 6670 C 625.675 -0.820705 1.44408 0
M  V30 6671 O 626.86 -0.798515 1.73287 0
M  V30 6672 C 624 -1.01259 3.2991 0
M  V30 6673 C 623.113 -0.236629 4.31351 0
M  V30 6674 C 622.248 -1.19447 5.17596 0
M  V30 6675 C 621.287 -0.408595 6.10735 0
M  V30 6676 N 620.424 -1.31772 6.89623 0
M  V30 6677 H 625.264 0.700238 2.89656 0
M  V30 6678 H 622.801 0.357082 1.427 0
M  V30 6679 H 624.759 -1.58538 3.85903 0
M  V30 6680 H 623.389 -1.72778 2.72667 0
M  V30 6681 H 622.441 0.452353 3.77701 0
M  V30 6682 H 623.753 0.374731 4.9739 0
M  V30 6683 H 622.907 -1.83809 5.78186 0
M  V30 6684 H 621.646 -1.83975 4.51669 0
M  V30 6685 H 620.651 0.24841 5.49239 0
M  V30 6686 H 621.876 0.232188 6.78703 0
M  V30 6687 H 619.822 -1.94991 6.2635 0
M  V30 6688 H 619.739 -0.760779 7.52162 0
M  V30 6689 H 621.007 -1.94967 7.54724 0
M  V30 6690 N 625.236 -1.5273 0.388769 0
M  V30 6691 C 626.184 -2.27975 -0.461527 0
M  V30 6692 C 627.178 -1.31854 -1.06352 0
M  V30 6693 O 628.384 -1.49394 -1.00406 0
M  V30 6694 H 624.759 -0.733088 -0.16759 0
M  V30 6695 H 626.73 -2.97765 0.194579 0
M  V30 6696 C 625.479 -3.09881 -1.577 0
M  V30 6697 H 624.802 -3.83701 -1.12309 0
M  V30 6698 H 626.242 -3.6567 -2.14619 0
M  V30 6699 C 624.701 -2.22159 -2.53272 0
M  V30 6700 O 625.231 -1.84802 -3.56667 0
M  V30 6701 N 623.437 -1.8633 -2.23001 0
M  V30 6702 H 622.984 -2.16909 -1.38954 0
M  V30 6703 H 622.942 -1.27927 -2.87197 0
M  V30 6704 N 626.714 -0.118576 -1.57153 0
M  V30 6705 C 627.942 0.54726 -1.99531 0
M  V30 6706 C 628.357 1.60251 -0.998246 0
M  V30 6707 O 627.714 1.82498 0.00893106 0
M  V30 6708 C 627.765 1.17378 -3.41913 0
M  V30 6709 O 627.486 0.160703 -4.37805 0
M  V30 6710 C 628.987 1.92297 -3.9942 0
M  V30 6711 H 626.207 0.144919 -0.655164 0
M  V30 6712 H 628.751 -0.20479 -2.03472 0
M  V30 6713 H 626.906 1.87661 -3.38913 0
M  V30 6714 H 627.32 0.61586 -5.20872 0
M  V30 6715 H 628.794 2.31462 -5.01128 0
M  V30 6716 H 629.271 2.79801 -3.38538 0
M  V30 6717 H 629.877 1.26777 -4.05965 0
M  V30 6718 N 628.193 1.56834 0.155195 0
M  V30 6719 C 629.609 1.51315 0.50755 0
M  V30 6720 C 629.809 0.825614 1.83809 0
M  V30 6721 O 628.865 0.39271 2.49427 0
M  V30 6722 C 630.178 2.96074 0.52542 0
M  V30 6723 C 631.726 3.06968 0.611505 0
M  V30 6724 C 632.201 4.53218 0.660115 0
M  V30 6725 N 633.692 4.5753 0.722564 0
M  V30 6726 C 634.427 5.68056 0.781023 0
M  V30 6727 N 633.923 6.88173 0.799327 0
M  V30 6728 N 635.716 5.56068 0.821278 0
M  V30 6729 H 627.867 1.9993 -0.717063 0
M  V30 6730 H 630.13 0.911507 -0.260496 0
M  V30 6731 H 629.836 3.49599 -0.383875 0
M  V30 6732 H 629.71 3.51587 1.36624 0
M  V30 6733 H 632.097 2.53468 1.51122 0
M  V30 6734 H 632.178 2.54513 -0.256306 0
M  V30 6735 H 631.822 5.07354 -0.23541 0
M  V30 6736 H 631.752 5.03447 1.5443 0
M  V30 6737 H 634.243 3.71054 0.716049 0
M  V30 6738 H 634.556 7.6816 0.845553 0
M  V30 6739 H 632.901 6.90751 0.767337 0
M  V30 6740 H 636.092 4.61142 0.804091 0
M  V30 6741 H 636.265 6.42223 0.863372 0
M  V30 6742 N 629.671 -0.424282 1.51781 0
M  V30 6743 C 630.918 -1.1726 1.65095 0
M  V30 6744 C 631.246 -1.90881 0.373477 0
M  V30 6745 O 630.501 -1.84835 -0.642997 0
M  V30 6746 C 630.8 -2.20418 2.81337 0
M  V30 6747 C 630.466 -1.63715 4.20129 0
M  V30 6748 C 629.128 -1.47975 4.57883 0
M  V30 6749 C 631.48 -1.22157 5.06682 0
M  V30 6750 C 628.808 -0.891703 5.79884 0
M  V30 6751 C 631.16 -0.647767 6.29275 0
M  V30 6752 C 629.824 -0.477371 6.65791 0
M  V30 6753 H 629.094 -0.429085 0.604125 0
M  V30 6754 H 631.741 -0.461852 1.85847 0
M  V30 6755 H 630.046 -2.97581 2.54859 0
M  V30 6756 H 631.743 -2.78163 2.88836 0
M  V30 6757 H 628.333 -1.76946 3.90369 0
M  V30 6758 H 632.517 -1.33133 4.7811 0
M  V30 6759 H 627.773 -0.747563 6.06813 0
M  V30 6760 H 631.947 -0.317291 6.95677 0
M  V30 6761 H 629.574 -0.0195936 7.60197 0
M  V30 6762 N 631.149 -1.42148 -0.680565 0
M  V30 6763 C 632.389 -1.4379 -1.45271 0
M  V30 6764 C 632.753 -0.0504426 -1.91934 0
M  V30 6765 O 633.954 0.0583916 -2.68737 0
M  V30 6766 C 632.225 -2.42904 -2.62168 0
M  V30 6767 S 633.784 -2.63201 -3.51099 0
M  V30 6768 H 630.602 -0.509185 -0.496237 0
M  V30 6769 H 633.204 -1.78706 -0.792744 0
M  V30 6770 H 631.908 -3.4249 -2.26116 0
M  V30 6771 H 631.439 -2.09394 -3.33043 0
M  V30 6772 H 633.454 -1.91068 -4.57938 0
M  V30 6773 N 632.627 0.916307 -1.28225 0
M  V30 6774 C 633.557 2.0352 -1.14464 0
M  V30 6775 C 634.538 1.70045 -0.0430844 0
M  V30 6776 O 635.723 1.92954 -0.219619 0
M  V30 6777 C 632.853 3.37889 -0.803027 0
M  V30 6778 C 631.807 3.85516 -1.85908 0
M  V30 6779 C 631.133 5.1682 -1.37116 0
M  V30 6780 C 632.433 4.07655 -3.26519 0
M  V30 6781 H 634.127 2.1529 -2.08064 0
M  V30 6782 H 631.673 1.03446 -1.00174 0
M  V30 6783 H 633.626 4.15654 -0.693537 0
M  V30 6784 H 632.35 3.26164 0.168674 0
M  V30 6785 H 631.009 3.09953 -1.95767 0
M  V30 6786 H 630.657 5.01497 -0.38859 0
M  V30 6787 H 630.357 5.49657 -2.07728 0
M  V30 6788 H 631.881 5.97143 -1.27484 0
M  V30 6789 H 633.295 4.75953 -3.19596 0
M  V30 6790 H 631.692 4.51818 -3.94943 0
M  V30 6791 H 632.762 3.12553 -3.70727 0
M  V30 6792 N 634.105 1.10431 1.1244 0
M  V30 6793 C 635.521 0.836096 1.35947 0
M  V30 6794 C 635.721 -0.544475 1.94004 0
M  V30 6795 O 634.777 -1.29735 2.16622 0
M  V30 6796 C 636.09 1.93575 2.30107 0
M  V30 6797 C 637.638 1.9642 2.43697 0
M  V30 6798 C 638.113 3.05559 3.41171 0
M  V30 6799 N 639.604 3.04865 3.48728 0
M  V30 6800 C 640.339 3.85954 4.24061 0
M  V30 6801 N 639.835 4.76977 5.02458 0
M  V30 6802 N 641.628 3.74172 4.19466 0
M  V30 6803 H 633.779 1.9942 0.731124 0
M  V30 6804 H 636.042 0.866607 0.384312 0
M  V30 6805 H 635.748 2.92943 1.94621 0
M  V30 6806 H 635.622 1.8229 3.30227 0
M  V30 6807 H 638.009 0.97685 2.78463 0
M  V30 6808 H 638.09 2.11782 1.43465 0
M  V30 6809 H 637.734 4.04513 3.07135 0
M  V30 6810 H 637.664 2.87438 4.41234 0
M  V30 6811 H 640.155 2.38908 2.92799 0
M  V30 6812 H 640.468 5.35409 5.57277 0
M  V30 6813 H 638.813 4.81006 5.01655 0
M  V30 6814 H 642.004 3.02412 3.57302 0
M  V30 6815 H 642.177 4.37602 4.77921 0
M  V30 6816 N 635.583 -1.29855 0.893053 0
M  V30 6817 C 636.513 -2.3035 0.382249 0
M  V30 6818 C 637.494 -1.61328 -0.539203 0
M  V30 6819 O 638.679 -1.88882 -0.451342 0
M  V30 6820 C 635.809 -3.45024 -0.396983 0
M  V30 6821 C 634.763 -4.258 0.433437 0
M  V30 6822 C 634.089 -5.32605 -0.472889 0
M  V30 6823 C 635.389 -4.94549 1.67984 0
M  V30 6824 H 637.083 -2.73325 1.22205 0
M  V30 6825 H 634.629 -1.314 0.589073 0
M  V30 6826 H 636.582 -4.14398 -0.765024 0
M  V30 6827 H 635.306 -3.00875 -1.2705 0
M  V30 6828 H 633.965 -3.58125 0.783723 0
M  V30 6829 H 633.613 -4.84702 -1.34435 0
M  V30 6830 H 633.313 -5.87547 0.0789958 0
M  V30 6831 H 634.837 -6.04832 -0.837269 0
M  V30 6832 H 636.251 -5.56395 1.38192 0
M  V30 6833 H 634.648 -5.59393 2.17254 0
M  V30 6834 H 635.718 -4.20215 2.41965 0
M  V30 6835 N 637.061 -0.65484 -1.43351 0
M  V30 6836 C 638.286 -0.175046 -2.0666 0
M  V30 6837 C 638.711 1.15104 -1.4877 0
M  V30 6838 O 638.069 1.71144 -0.598279 0
M  V30 6839 C 638.117 -0.0991544 -3.60464 0
M  V30 6840 O 637.221 0.938169 -4.01587 0
M  V30 6841 H 636.562 -0.0956148 -0.65708 0
M  V30 6842 H 639.092 -0.898222 -1.83829 0
M  V30 6843 H 639.102 0.083632 -4.07914 0
M  V30 6844 H 637.777 -1.06719 -4.01975 0
M  V30 6845 H 636.354 0.72804 -3.65724 0
M  V30 6846 N 638.539 1.52521 -0.396863 0
M  V30 6847 C 639.449 2.30403 0.44178 0
M  V30 6848 C 640.465 1.37625 1.06468 0
M  V30 6849 O 641.641 1.70697 1.06886 0
M  V30 6850 C 638.706 3.1013 1.54986 0
M  V30 6851 C 637.767 4.18628 0.951279 0
M  V30 6852 C 637 4.94543 2.00655 0
M  V30 6853 O 637.223 4.70629 3.22281 0
M  V30 6854 O 636.157 5.797 1.61962 0
M  V30 6855 H 639.983 3.03087 -0.192892 0
M  V30 6856 H 637.568 1.48537 -0.16038 0
M  V30 6857 H 639.45 3.59816 2.19341 0
M  V30 6858 H 638.125 2.40251 2.16935 0
M  V30 6859 H 637.032 3.73119 0.270773 0
M  V30 6860 H 638.365 4.90763 0.375887 0
M  V30 6861 N 640.017 0.126909 1.57088 0
M  V30 6862 C 641.294 -0.573152 1.87014 0
M  V30 6863 C 641.674 -1.84297 1.02945 0
M  V30 6864 O 641.022 -2.28232 0.110573 0
M  V30 6865 C 641.232 -0.857984 3.38289 0
M  V30 6866 C 642.58 -1.20759 4.07066 0
M  V30 6867 O 643.604 -0.947992 3.43353 0
M  V30 6868 O 642.463 -1.69516 5.19545 0
M  V30 6869 H 639.557 -0.290082 0.774456 0
M  V30 6870 H 642.103 0.162008 1.68925 0
M  V30 6871 H 640.875 0.0415286 3.91278 0
M  V30 6872 H 640.498 -1.64803 3.61837 0
M  V30 6873 N 641.495 -1.56914 -0.146875 0
M  V30 6874 C 642.743 -1.82994 -0.85777 0
M  V30 6875 C 643.064 -0.707814 -1.817 0
M  V30 6876 O 642.334 0.270521 -1.94023 0
M  V30 6877 H 640.914 -0.675106 -0.319751 0
M  V30 6878 H 643.576 -1.9439 -0.140849 0
M  V30 6879 H 642.672 -2.77928 -1.41994 0
M  V30 6880 N 642.974 0.416227 -1.52004 0
M  V30 6881 C 644.199 1.19029 -1.69843 0
M  V30 6882 C 644.624 1.83708 -0.404103 0
M  V30 6883 O 643.982 1.69711 0.637787 0
M  V30 6884 C 644.03 2.23439 -2.83032 0
M  V30 6885 O 643.134 3.29419 -2.48106 0
M  V30 6886 H 642.475 0.347785 -0.565634 0
M  V30 6887 H 645.005 0.488871 -1.98674 0
M  V30 6888 H 645.015 2.67884 -3.07737 0
M  V30 6889 H 643.69 1.75745 -3.76944 0
M  V30 6890 H 642.267 2.90303 -2.34048 0
M  V30 6891 N 644.452 1.42507 0.673017 0
M  V30 6892 C 645.7 1.42789 1.43023 0
M  V30 6893 C 646.021 0.0459738 1.94946 0
M  V30 6894 O 645.291 -0.915765 1.73178 0
M  V30 6895 H 643.871 0.525657 0.530748 0
M  V30 6896 H 646.533 1.77944 0.795113 0
M  V30 6897 H 645.629 2.12872 2.28237 0
M  V30 6898 N 645.93 -0.909495 1.28709 0
M  V30 6899 C 646.877 -2.01245 1.13 0
M  V30 6900 C 647.847 -1.6608 0.0259684 0
M  V30 6901 O 649.032 -1.89835 0.191687 0
M  V30 6902 C 646.172 -3.35644 0.802315 0
M  V30 6903 C 645.285 -3.83653 1.98582 0
M  V30 6904 C 644.42 -5.06582 1.59837 0
M  V30 6905 C 643.459 -5.46934 2.74827 0
M  V30 6906 N 642.596 -6.61053 2.36546 0
M  V30 6907 H 647.436 -2.14013 2.0737 0
M  V30 6908 H 644.973 -1.0482 1.03205 0
M  V30 6909 H 646.931 -4.12963 0.593057 0
M  V30 6910 H 645.561 -3.22631 -0.104457 0
M  V30 6911 H 644.613 -3.02454 2.30708 0
M  V30 6912 H 645.925 -4.09515 2.84779 0
M  V30 6913 H 645.079 -5.91457 1.35143 0
M  V30 6914 H 643.818 -4.82537 0.707753 0
M  V30 6915 H 642.823 -4.60599 3.00215 0
M  V30 6916 H 644.048 -5.72965 3.64538 0
M  V30 6917 H 641.994 -6.3863 1.49959 0
M  V30 6918 H 641.911 -6.86662 3.16277 0
M  V30 6919 H 643.179 -7.49221 2.15146 0
M  V30 6920 N 647.408 -1.11026 -1.11852 0
M  V30 6921 C 648.656 -0.854769 -1.83134 0
M  V30 6922 C 648.977 0.621375 -1.84835 0
M  V30 6923 O 648.247 1.45129 -1.31584 0
M  V30 6924 H 646.827 -0.313229 -0.678157 0
M  V30 6925 H 649.489 -1.40178 -1.35411 0
M  V30 6926 H 648.585 -1.22311 -2.87135 0
M  V30 6927 N 648.886 1.2938 -0.899927 0
M  V30 6928 C 649.849 2.25983 -0.382677 0
M  V30 6929 C 650.849 1.53366 0.483259 0
M  V30 6930 O 652.039 1.71798 0.28828 0
M  V30 6931 C 649.171 3.37878 0.452915 0
M  V30 6932 H 650.364 2.73252 -1.23586 0
M  V30 6933 H 647.917 1.40825 -0.678088 0
M  V30 6934 H 648.652 2.95949 1.32608 0
M  V30 6935 H 648.437 3.91742 -0.167562 0
M  V30 6936 H 649.927 4.09746 0.806107 0
M  V30 6937 N 650.364 0.662433 1.43002 0
M  V30 6938 C 651.327 -0.0142016 2.29196 0
M  V30 6939 C 652.327 -0.741394 1.42688 0
M  V30 6940 O 653.517 -0.581257 1.64216 0
M  V30 6941 C 650.649 -1.03084 3.24941 0
M  V30 6942 H 651.842 0.7443 2.90517 0
M  V30 6943 H 649.395 0.424133 1.50435 0
M  V30 6944 H 650.13 -1.81826 2.68533 0
M  V30 6945 H 649.915 -0.512946 3.8873 0
M  V30 6946 H 651.405 -1.50308 3.89612 0
M  V30 6947 N 651.842 -1.52309 0.404946 0
M  V30 6948 C 652.805 -2.25491 -0.410651 0
M  V30 6949 C 653.805 -1.27704 -0.977154 0
M  V30 6950 O 654.995 -1.51679 -0.856691 0
M  V30 6951 C 652.127 -3.02197 -1.57765 0
M  V30 6952 H 653.32 -2.99015 0.230277 0
M  V30 6953 H 650.873 -1.55506 0.157377 0
M  V30 6954 H 651.608 -2.33013 -2.25556 0
M  V30 6955 H 651.393 -3.73987 -1.17797 0
M  V30 6956 H 652.883 -3.57719 -2.15469 0
M  V30 6957 N 653.32 -0.135238 -1.57019 0
M  V30 6958 C 654.569 0.518694 -1.94917 0
M  V30 6959 C 654.882 1.66783 -1.0219 0
M  V30 6960 O 656.088 2.38561 -1.29619 0
M  V30 6961 C 654.544 0.974123 -3.46466 0
M  V30 6962 C 654.152 -0.147439 -4.47757 0
M  V30 6963 C 655.896 1.59851 -3.93253 0
M  V30 6964 C 653.803 0.325599 -5.90503 0
M  V30 6965 H 652.733 0.19754 -0.727663 0
M  V30 6966 H 655.384 -0.217698 -1.82204 0
M  V30 6967 H 653.766 1.76542 -3.5447 0
M  V30 6968 H 654.94 -0.924122 -4.51438 0
M  V30 6969 H 653.255 -0.679496 -4.10818 0
M  V30 6970 H 655.852 1.96385 -4.9733 0
M  V30 6971 H 656.195 2.48306 -3.3414 0
M  V30 6972 H 656.728 0.872323 -3.88118 0
M  V30 6973 H 653.467 -0.523295 -6.53408 0
M  V30 6974 H 652.987 1.06841 -5.90208 0
M  V30 6975 H 654.666 0.781498 -6.42263 0
M  V30 6976 N 654.798 1.5699 0.138552 0
M  V30 6977 C 655.761 1.97984 1.15478 0
M  V30 6978 C 656.761 0.867416 1.35398 0
M  V30 6979 O 657.951 1.13387 1.32246 0
M  V30 6980 C 655.083 2.3031 2.51337 0
M  V30 6981 H 656.276 2.88953 0.802896 0
M  V30 6982 H 653.829 1.51555 0.382189 0
M  V30 6983 H 654.564 1.42159 2.91481 0
M  V30 6984 H 654.349 3.11425 2.38237 0
M  V30 6985 H 655.839 2.62834 3.24512 0
M  V30 6986 N 656.276 -0.40816 1.52223 0
M  V30 6987 C 657.239 -1.48 1.7501 0
M  V30 6988 C 658.239 -1.48367 0.619996 0
M  V30 6989 O 659.429 -1.49874 0.887881 0
M  V30 6990 C 656.561 -2.87403 1.83336 0
M  V30 6991 H 657.754 -1.29086 2.70697 0
M  V30 6992 H 655.307 -0.638715 1.42654 0
M  V30 6993 H 656.042 -3.11686 0.895677 0
M  V30 6994 H 655.827 -2.8854 2.65494 0
M  V30 6995 H 657.317 -3.65103 2.02705 0
M  V30 6996 N 657.755 -1.42862 -0.66545 0
M  V30 6997 C 658.98 -1.47456 -1.45848 0
M  V30 6998 C 659.405 -0.0900312 -1.87884 0
M  V30 6999 O 658.763 0.913587 -1.56599 0
M  V30 7000 C 658.811 -2.41514 -2.67774 0
M  V30 7001 O 657.915 -1.89296 -3.66389 0
M  V30 7002 H 657.256 -0.499236 -0.437789 0
M  V30 7003 H 659.786 -1.8765 -0.815394 0
M  V30 7004 H 659.796 -2.58409 -3.15735 0
M  V30 7005 H 658.471 -3.42099 -2.36519 0
M  V30 7006 H 657.048 -1.82003 -3.25468 0
M  V30 7007 N 659.233 0.902656 -1.29189 0
M  V30 7008 C 660.473 1.6672 -1.18254 0
M  V30 7009 C 660.837 1.90199 0.262336 0
M  V30 7010 O 662.038 2.6421 0.494612 0
M  V30 7011 C 660.309 2.98178 -1.9704 0
M  V30 7012 S 661.868 3.89226 -2.02605 0
M  V30 7013 H 658.686 0.572432 -0.421714 0
M  V30 7014 H 661.288 1.07279 -1.63436 0
M  V30 7015 H 659.992 2.788 -3.01163 0
M  V30 7016 H 659.523 3.62661 -1.5245 0
M  V30 7017 H 661.538 4.82913 -1.14059 0
M  V30 7018 N 660.711 1.11618 1.11262 0
M  V30 7019 C 661.939 0.888739 1.8684 0
M  V30 7020 C 662.354 -0.561558 1.80255 0
M  V30 7021 O 661.711 -1.38782 1.18515 0
M  V30 7022 C 661.762 1.34422 3.35579 0
M  V30 7023 O 661.483 2.73766 3.42029 0
M  V30 7024 C 662.984 1.15246 4.28058 0
M  V30 7025 H 660.204 0.318152 0.590779 0
M  V30 7026 H 662.748 1.48398 1.40707 0
M  V30 7027 H 660.903 0.79239 3.7921 0
M  V30 7028 H 661.317 2.9355 4.34659 0
M  V30 7029 H 662.791 1.52015 5.30656 0
M  V30 7030 H 663.268 0.0922007 4.39103 0
M  V30 7031 H 663.874 1.69136 3.90222 0
M  V30 7032 N 662.189 -1.289 0.906776 0
M  V30 7033 C 663.605 -1.47733 0.603902 0
M  V30 7034 C 663.805 -1.82568 -0.852702 0
M  V30 7035 O 662.861 -1.92642 -1.63234 0
M  V30 7036 C 664.174 -2.58522 1.53581 0
M  V30 7037 C 665.722 -2.72394 1.54177 0
M  V30 7038 C 666.197 -3.86318 2.46013 0
M  V30 7039 N 667.688 -3.93661 2.441 0
M  V30 7040 C 668.423 -4.81177 3.11859 0
M  V30 7041 N 667.919 -5.73333 3.88923 0
M  V30 7042 N 669.712 -4.74728 3.00981 0
M  V30 7043 H 661.863 -1.04567 1.84877 0
M  V30 7044 H 664.126 -0.520118 0.792579 0
M  V30 7045 H 663.832 -2.39667 2.57396 0
M  V30 7046 H 663.706 -3.55475 1.26165 0
M  V30 7047 H 666.093 -2.90641 0.511034 0
M  V30 7048 H 666.174 -1.75993 1.85634 0
M  V30 7049 H 665.818 -3.68826 3.49185 0
M  V30 7050 H 665.748 -4.82102 2.11862 0
M  V30 7051 H 668.239 -3.27751 1.88115 0
M  V30 7052 H 668.552 -6.36923 4.37663 0
M  V30 7053 H 666.897 -5.73196 3.93029 0
M  V30 7054 H 670.088 -4.01722 2.40286 0
M  V30 7055 H 670.261 -5.42719 3.54062 0
M  V30 7056 N 663.667 -0.670007 -1.42649 0
M  V30 7057 C 664.599 0.0501746 -2.29145 0
M  V30 7058 C 665.612 0.770331 -1.43422 0
M  V30 7059 O 666.801 0.625288 -1.6719 0
M  V30 7060 C 663.901 1.09463 -3.20735 0
M  V30 7061 C 663.074 0.44926 -4.35087 0
M  V30 7062 C 662.133 1.39285 -5.07431 0
M  V30 7063 O 661.159 0.894997 -5.6212 0
M  V30 7064 N 662.361 2.72631 -5.12496 0
M  V30 7065 H 665.126 -0.692312 -2.91594 0
M  V30 7066 H 662.687 -0.514056 -1.53522 0
M  V30 7067 H 664.679 1.72705 -3.65999 0
M  V30 7068 H 663.249 1.73891 -2.59771 0
M  V30 7069 H 662.469 -0.362573 -3.92529 0
M  V30 7070 H 663.757 -0.000544776 -5.088 0
M  V30 7071 H 663.155 3.15623 -4.69467 0
M  V30 7072 H 661.712 3.31132 -5.61422 0
M  V30 7073 N 665.145 1.52092 -0.413018 0
M  V30 7074 C 666.093 2.28681 0.425199 0
M  V30 7075 C 667.087 1.3353 1.04241 0
M  V30 7076 O 668.293 1.50973 0.980166 0
M  V30 7077 H 664.668 0.735661 0.155906 0
M  V30 7078 H 666.639 2.97418 -0.241926 0
M  V30 7079 C 665.388 3.1235 1.5275 0
M  V30 7080 H 664.711 3.85439 1.06191 0
M  V30 7081 H 666.151 3.69038 2.08774 0
M  V30 7082 C 664.61 2.26161 2.49706 0
M  V30 7083 O 665.14 1.90452 3.53682 0
M  V30 7084 N 663.346 1.89854 2.20008 0
M  V30 7085 H 662.893 2.19092 1.35486 0
M  V30 7086 H 662.851 1.3248 2.85125 0
M  V30 7087 O 666.662 0.284301 1.58978 0
M  V30 7088 H 667.353 -0.283792 1.9161 0
M  V30 END ATOM
M  V30 BEGIN BOND
M  V30 END BOND
M  V30 END CTAB
M  END
$$$$
