drugbank_target|P39621 Spore coat polysaccharide biosynthesis protein SpsA (DB03435)
 OpenBabel12092120023D

  0  0  0     0  0            999 V3000
M  V30 BEGIN CTAB
M  V30 COUNTS 4190 4241 0 0 0
M  V30 BEGIN ATOM
M  V30 1 H -0.908 1.98254 -0.117106 0
M  V30 2 N 0 1.576 0 0
M  V30 3 C 0.933 2.03868 1.02534 0
M  V30 4 C 1.911 0.928543 1.3348 0
M  V30 5 O 3.095 1.19667 1.45644 0
M  V30 6 C 0.222 2.43627 2.35294 0
M  V30 7 C -0.732 3.65373 2.2001 0
M  V30 8 S 0.101 5.13292 1.52614 0
M  V30 9 C 1.257 5.56322 2.86805 0
M  V30 10 H 1.49 2.90518 0.631377 0
M  V30 11 H -0.977 1.52953 0.210867 0
M  V30 12 H 0.981 2.67203 3.11629 0
M  V30 13 H -0.358 1.57376 2.7183 0
M  V30 14 H -1.165 3.90944 3.18086 0
M  V30 15 H -1.563 3.418 1.51819 0
M  V30 16 H 0.729 5.58782 3.83104 0
M  V30 17 H 1.672 6.56266 2.65933 0
M  V30 18 H 2.08 4.83886 2.90714 0
M  V30 19 N 1.4781 -0.272755 1.55222 0
M  V30 20 C 2.8891 -0.84378 1.66545 0
M  V30 21 C 3.2401 -1.87035 0.592641 0
M  V30 22 O 2.3651 -2.14761 -0.265818 0
M  V30 23 C 2.9601 -1.53723 3.01918 0
M  V30 24 C 1.5191 -2.05628 3.15268 0
M  V30 25 C 0.6661 -0.898424 2.62343 0
M  V30 26 H 3.6171 -0.0490998 1.58624 0
M  V30 27 H 3.6381 -2.40421 2.94921 0
M  V30 28 H 3.1501 -0.78983 3.79978 0
M  V30 29 H 1.2511 -2.83329 2.41983 0
M  V30 30 H 1.3641 -2.27142 4.21833 0
M  V30 31 H -0.2719 -1.29186 2.19506 0
M  V30 32 H 0.5111 -0.164528 3.42906 0
M  V30 33 N 2.9562 -1.48159 -0.537278 0
M  V30 34 C 3.9032 -1.62138 -1.64256 0
M  V30 35 C 4.8732 -0.463668 -1.59497 0
M  V30 36 O 6.0582 -0.686241 -1.78032 0
M  V30 37 C 3.1982 -1.66028 -3.02537 0
M  V30 38 C 2.3112 -2.92855 -3.17585 0
M  V30 39 C 1.4462 -2.87952 -4.46382 0
M  V30 40 C 0.4852 -4.09516 -4.54932 0
M  V30 41 N -0.3778 -4.02733 -5.75109 0
M  V30 42 H 4.4622 -2.56529 -1.51647 0
M  V30 43 H 1.9992 -1.27224 -0.738414 0
M  V30 44 H 3.9572 -1.66265 -3.82638 0
M  V30 45 H 2.5872 -0.751331 -3.13934 0
M  V30 46 H 1.6392 -3.02395 -2.30784 0
M  V30 47 H 2.9512 -3.82822 -3.19764 0
M  V30 48 H 2.1052 -2.8655 -5.34765 0
M  V30 49 H 0.8442 -1.95702 -4.46712 0
M  V30 50 H -0.1508 -4.11201 -3.64957 0
M  V30 51 H 1.0742 -5.02917 -4.56346 0
M  V30 52 H -0.9798 -3.13299 -5.76351 0
M  V30 53 H -1.0628 -4.86397 -5.78752 0
M  V30 54 H 0.2052 -4.05379 -6.65799 0
M  V30 55 N 4.4343 0.785586 -1.36625 0
M  V30 56 C 5.6803 1.54591 -1.31261 0
M  V30 57 C 6.0133 1.93906 0.106823 0
M  V30 58 O 5.2883 1.63007 1.06108 0
M  V30 59 C 5.5713 2.82038 -2.23889 0
M  V30 60 C 5.4243 2.49066 -3.74548 0
M  V30 61 C 6.7433 3.83887 -2.15217 0
M  V30 62 H 3.8623 0.560846 -0.478143 0
M  V30 63 H 6.5043 0.902278 -1.67209 0
M  V30 64 H 4.6543 3.36961 -1.93363 0
M  V30 65 H 6.3263 2.00164 -4.15611 0
M  V30 66 H 4.5693 1.81954 -3.93796 0
M  V30 67 H 5.2403 3.40109 -4.34776 0
M  V30 68 H 7.7163 3.38421 -2.42096 0
M  V30 69 H 6.5923 4.70806 -2.82193 0
M  V30 70 H 6.8533 4.27131 -1.14068 0
M  V30 71 N 5.9124 1.20967 1.01018 0
M  V30 72 C 7.1374 1.0503 1.78839 0
M  V30 73 C 7.5624 -0.395752 1.8389 0
M  V30 74 O 6.9204 -1.28529 1.27867 0
M  V30 75 C 6.9684 1.64602 3.2084 0
M  V30 76 O 6.0724 0.887988 4.02726 0
M  V30 77 H 5.4134 0.369987 0.551367 0
M  V30 78 H 7.9434 1.60399 1.27018 0
M  V30 79 H 7.9534 1.68607 3.71532 0
M  V30 80 H 6.6284 2.69841 3.16479 0
M  V30 81 H 5.2054 0.922648 3.61305 0
M  V30 82 N 7.3905 -1.2043 1.01659 0
M  V30 83 C 8.6365 -1.90079 0.706963 0
M  V30 84 C 8.9695 -1.78648 -0.761474 0
M  V30 85 O 8.2445 -1.17069 -1.55323 0
M  V30 86 C 8.5275 -3.41469 1.14327 0
M  V30 87 C 8.3805 -3.61833 2.67201 0
M  V30 88 C 9.6995 -4.34261 0.714529 0
M  V30 89 H 6.8185 -0.690254 0.2583 0
M  V30 90 H 9.4605 -1.41826 1.26433 0
M  V30 91 H 7.6105 -3.82696 0.669056 0
M  V30 92 H 9.2825 -3.2986 3.22475 0
M  V30 93 H 7.5255 -3.05304 3.08175 0
M  V30 94 H 8.1965 -4.67955 2.92783 0
M  V30 95 H 10.6725 -4.00682 1.12221 0
M  V30 96 H 9.5485 -5.38806 1.04784 0
M  V30 97 H 9.8095 -4.40431 -0.383799 0
M  V30 98 N 8.8686 -0.792821 -1.36206 0
M  V30 99 C 10.1176 -0.363353 -1.984 0
M  V30 100 C 10.4306 1.07172 -1.63626 0
M  V30 101 O 11.6366 1.60362 -2.19081 0
M  V30 102 C 10.0926 -0.59872 -3.54885 0
M  V30 103 C 9.7006 -2.04543 -3.9858 0
M  V30 104 C 11.4446 -0.233926 -4.23855 0
M  V30 105 C 9.3516 -2.22727 -5.47856 0
M  V30 106 H 8.2816 -0.13212 -0.742334 0
M  V30 107 H 10.9326 -0.974935 -1.55458 0
M  V30 108 H 9.3146 0.0826222 -3.95914 0
M  V30 109 H 10.4886 -2.76345 -3.68741 0
M  V30 110 H 8.8036 -2.36879 -3.42458 0
M  V30 111 H 11.4006 -0.348027 -5.33566 0
M  V30 112 H 11.7436 0.818351 -4.08177 0
M  V30 113 H 12.2766 -0.868639 -3.882 0
M  V30 114 H 9.0156 -3.2635 -5.68486 0
M  V30 115 H 8.5356 -1.55434 -5.7931 0
M  V30 116 H 10.2146 -2.03607 -6.14128 0
M  V30 117 N 10.3467 1.47872 -0.545128 0
M  V30 118 C 11.2797 2.2675 0.256885 0
M  V30 119 C 12.2577 1.33293 0.931228 0
M  V30 120 O 13.4417 1.62657 0.95262 0
M  V30 121 C 10.5687 3.09976 1.36501 0
M  V30 122 C 9.6147 4.1892 0.800496 0
M  V30 123 S 10.4477 5.34397 -0.343505 0
M  V30 124 C 11.6037 6.21186 0.766733 0
M  V30 125 H 11.8367 2.94425 -0.412479 0
M  V30 126 H 9.3697 1.50806 -0.331204 0
M  V30 127 H 11.3277 3.585 1.9997 0
M  V30 128 H 9.9887 2.41686 2.00616 0
M  V30 129 H 9.1817 4.76836 1.63227 0
M  V30 130 H 8.7837 3.73215 0.242217 0
M  V30 131 H 11.0757 6.56804 1.66178 0
M  V30 132 H 12.0187 7.07742 0.225204 0
M  V30 133 H 12.4267 5.54574 1.05396 0
M  V30 134 N 11.8248 0.280983 1.55075 0
M  V30 135 C 13.0528 -0.337293 2.04132 0
M  V30 136 C 13.4678 -1.4903 1.15912 0
M  V30 137 O 12.8248 -1.81606 0.180459 0
M  V30 138 C 12.8758 -0.812706 3.52246 0
M  V30 139 O 12.5968 0.294387 4.3711 0
M  V30 140 C 14.0978 -1.4982 4.17216 0
M  V30 141 H 11.3178 -0.0761638 0.666663 0
M  V30 142 H 13.8618 0.414787 2.00249 0
M  V30 143 H 12.0168 -1.51486 3.56554 0
M  V30 144 H 12.4308 -0.0721325 5.2445 0
M  V30 145 H 13.9048 -1.7822 5.22438 0
M  V30 146 H 14.3818 -2.43168 3.65741 0
M  V30 147 H 14.9878 -0.839742 4.16927 0
M  V30 148 N 13.3029 -1.57598 0.00835791 0
M  V30 149 C 14.5279 -1.95617 -0.689103 0
M  V30 150 C 14.9529 -0.883753 -1.66046 0
M  V30 151 O 14.3109 0.157352 -1.80616 0
M  V30 152 C 14.3589 -3.32736 -1.38994 0
M  V30 153 O 13.4629 -3.27631 -2.50463 0
M  V30 154 H 12.8039 -0.638379 -0.182668 0
M  V30 155 H 15.3339 -2.045 0.064036 0
M  V30 156 H 15.3439 -3.68494 -1.75147 0
M  V30 157 H 14.0189 -4.1034 -0.677778 0
M  V30 158 H 12.5959 -3.03561 -2.16576 0
M  V30 159 N 14.781 0.264519 -1.55364 0
M  V30 160 C 16.011 1.01153 -1.80143 0
M  V30 161 C 16.419 1.80115 -0.579253 0
M  V30 162 O 15.762 1.77813 0.46132 0
M  V30 163 C 15.824 2.01098 -2.97993 0
M  V30 164 C 15.488 1.40995 -4.34706 0
M  V30 165 C 16.485 0.821316 -5.13372 0
M  V30 166 C 14.17 1.43461 -4.81378 0
M  V30 167 C 16.164 0.265339 -6.36847 0
M  V30 168 C 13.851 0.874771 -6.04807 0
M  V30 169 C 14.849 0.291146 -6.82379 0
M  V30 170 O 14.537 -0.260093 -8.03479 0
M  V30 171 H 14.269 0.304125 -0.603725 0
M  V30 172 H 16.823 0.298089 -2.03225 0
M  V30 173 H 15.053 2.76224 -2.70623 0
M  V30 174 H 16.742 2.61997 -3.1002 0
M  V30 175 H 17.508 0.794903 -4.78442 0
M  V30 176 H 13.387 1.87826 -4.21002 0
M  V30 177 H 16.931 -0.190837 -6.97339 0
M  V30 178 H 12.828 0.898452 -6.39217 0
M  V30 179 H 13.596 -0.150265 -8.18362 0
M  V30 180 N 16.2591 1.48442 0.529413 0
M  V30 181 C 17.2071 1.63452 1.65487 0
M  V30 182 C 18.2011 0.500955 1.61823 0
M  V30 183 O 19.4071 0.679695 1.66674 0
M  V30 184 H 15.7821 0.514905 0.548066 0
M  V30 185 H 17.7531 2.57975 1.49971 0
M  V30 186 C 16.5021 1.69196 3.03756 0
M  V30 187 H 15.8251 2.55784 3.07269 0
M  V30 188 H 17.2651 1.83743 3.82119 0
M  V30 189 C 15.7241 0.430765 3.34135 0
M  V30 190 O 16.2541 -0.4561 3.99102 0
M  V30 191 N 14.4601 0.302293 2.89023 0
M  V30 192 H 14.0071 1.02496 2.36331 0
M  V30 193 H 13.9651 -0.540546 3.09718 0
M  V30 194 N 17.7372 -0.778329 1.37039 0
M  V30 195 C 18.6842 -1.89139 1.32269 0
M  V30 196 C 19.6542 -1.65017 0.189387 0
M  V30 197 O 20.8392 -1.87024 0.377693 0
M  V30 198 C 17.9792 -3.26112 1.12894 0
M  V30 199 C 17.0922 -3.62233 2.35396 0
M  V30 200 C 16.2272 -4.8838 2.08946 0
M  V30 201 C 15.2662 -5.17212 3.2735 0
M  V30 202 N 14.4032 -6.34546 3.00492 0
M  V30 203 H 19.2432 -1.92552 2.27437 0
M  V30 204 H 16.7802 -0.941473 1.13025 0
M  V30 205 H 18.7382 -4.05116 0.996835 0
M  V30 206 H 17.3682 -3.22091 0.213758 0
M  V30 207 H 16.4202 -2.78265 2.5937 0
M  V30 208 H 17.7322 -3.79481 3.23721 0
M  V30 209 H 16.8862 -5.75274 1.92729 0
M  V30 210 H 15.6252 -4.73222 1.17949 0
M  V30 211 H 14.6302 -4.28796 3.44113 0
M  V30 212 H 15.8552 -5.34283 4.19188 0
M  V30 213 H 13.8012 -6.20759 2.12118 0
M  V30 214 H 13.7182 -6.52179 3.82358 0
M  V30 215 H 14.9862 -7.24394 2.87879 0
M  V30 216 N 19.2153 -1.21501 -1.00376 0
M  V30 217 C 20.4403 -1.05977 -1.78279 0
M  V30 218 C 20.8653 0.385994 -1.84097 0
M  V30 219 O 20.2233 1.27849 -1.28547 0
M  V30 220 C 20.2713 -1.66302 -3.19963 0
M  V30 221 O 19.3753 -0.909333 -4.0225 0
M  V30 222 H 18.7163 -0.372906 -0.549397 0
M  V30 223 H 21.2463 -1.6107 -1.26165 0
M  V30 224 H 21.2563 -1.70574 -3.70632 0
M  V30 225 H 19.9313 -2.71515 -3.15043 0
M  V30 226 H 18.5083 -0.941795 -3.60811 0
M  V30 227 N 20.6934 1.19889 -1.02296 0
M  V30 228 C 21.9704 1.85148 -0.630832 0
M  V30 229 C 22.3504 1.91385 0.890782 0
M  V30 230 O 21.6984 1.42642 1.78509 0
M  V30 231 C 21.9084 3.24442 -1.28602 0
M  V30 232 C 23.2564 4.00663 -1.4055 0
M  V30 233 O 24.2804 3.33818 -1.24273 0
M  V30 234 O 23.1394 5.20387 -1.66913 0
M  V30 235 H 20.2334 0.797613 -0.218499 0
M  V30 236 H 22.7794 1.27427 -1.12074 0
M  V30 237 H 21.5514 3.14704 -2.32545 0
M  V30 238 H 21.1744 3.89802 -0.7836 0
M  V30 239 N 22.1715 0.800033 1.35784 0
M  V30 240 C 23.4015 0.389041 2.02904 0
M  V30 241 C 23.8095 -1.0027 1.60445 0
M  V30 242 O 23.1525 -1.65633 0.794453 0
M  V30 243 C 23.2145 0.385495 3.57427 0
M  V30 244 C 22.8785 1.72662 4.23127 0
M  V30 245 C 23.8755 2.68385 4.4527 0
M  V30 246 C 21.5605 2.00883 4.60381 0
M  V30 247 C 23.5545 3.90517 5.03761 0
M  V30 248 C 21.2415 3.2328 5.18588 0
M  V30 249 C 22.2395 4.17915 5.40218 0
M  V30 250 O 21.9275 5.38153 5.97199 0
M  V30 251 H 21.6595 0.157032 0.657508 0
M  V30 252 H 24.2135 1.08311 1.74522 0
M  V30 253 H 22.4435 -0.365128 3.84972 0
M  V30 254 H 24.1325 -0.00228296 4.059 0
M  V30 255 H 24.8985 2.47872 4.16874 0
M  V30 256 H 20.7775 1.28037 4.42863 0
M  V30 257 H 24.3215 4.64395 5.2056 0
M  V30 258 H 20.2185 3.43667 5.4641 0
M  V30 259 H 20.9865 5.3936 6.15656 0
M  V30 260 N 23.6496 -1.47581 0.552962 0
M  V30 261 C 24.8956 -2.02782 0.0273648 0
M  V30 262 C 25.2286 -1.42687 -1.31734 0
M  V30 263 O 24.5036 -0.580897 -1.85623 0
M  V30 264 C 24.7866 -3.60031 -0.0702371 0
M  V30 265 C 24.6396 -4.30566 1.30126 0
M  V30 266 C 25.9586 -4.33028 -0.785771 0
M  V30 267 H 23.0776 -0.736912 0.0114185 0
M  V30 268 H 25.7196 -1.76056 0.714432 0
M  V30 269 H 23.8696 -3.82932 -0.655382 0
M  V30 270 H 25.5416 -4.19018 1.92929 0
M  V30 271 H 23.7846 -3.91086 1.87709 0
M  V30 272 H 24.4556 -5.39114 1.18573 0
M  V30 273 H 26.9316 -4.15095 -0.288982 0
M  V30 274 H 25.8076 -5.42695 -0.823013 0
M  V30 275 H 26.0686 -4.01945 -1.841 0
M  V30 276 N 25.1277 -0.289203 -1.54924 0
M  V30 277 C 26.0907 0.579144 -2.21762 0
M  V30 278 C 27.0907 1.07047 -1.1999 0
M  V30 279 O 28.2807 0.968384 -1.44803 0
M  V30 280 C 25.4127 1.80055 -2.8947 0
M  V30 281 H 26.6057 -0.00464908 -2.999 0
M  V30 282 H 24.1587 -0.0399306 -1.56249 0
M  V30 283 H 24.8937 2.42449 -2.15381 0
M  V30 284 H 24.6787 1.45602 -3.64064 0
M  V30 285 H 26.1687 2.41773 -3.40493 0
M  V30 286 N 26.6058 1.57591 -0.0167156 0
M  V30 287 C 27.5528 2.09462 0.969251 0
M  V30 288 C 28.5228 0.99381 1.33089 0
M  V30 289 O 29.7078 1.26726 1.42636 0
M  V30 290 C 26.8478 2.61622 2.25051 0
M  V30 291 C 25.9608 3.85666 1.94642 0
M  V30 292 C 25.0958 4.26266 3.16972 0
M  V30 293 C 24.1348 5.43101 2.82326 0
M  V30 294 N 23.2718 5.78915 3.97243 0
M  V30 295 H 28.1118 2.93428 0.519997 0
M  V30 296 H 25.6488 1.45044 0.245087 0
M  V30 297 H 27.6068 2.89949 2.99976 0
M  V30 298 H 26.2368 1.80505 2.67615 0
M  V30 299 H 25.2888 3.64145 1.10013 0
M  V30 300 H 26.6008 4.70678 1.65117 0
M  V30 301 H 25.7548 4.55963 4.00228 0
M  V30 302 H 24.4938 3.39996 3.49648 0
M  V30 303 H 23.4988 5.1311 1.97479 0
M  V30 304 H 24.7238 6.3106 2.50879 0
M  V30 305 H 22.6698 4.95602 4.29785 0
M  V30 306 H 22.5868 6.58539 3.71299 0
M  V30 307 H 23.8548 6.13212 4.81239 0
M  V30 308 N 28.0839 -0.256276 1.55502 0
M  V30 309 C 29.3089 -1.00766 1.81276 0
M  V30 310 C 29.7339 -1.78524 0.59252 0
M  V30 311 O 29.0919 -1.75413 -0.45827 0
M  V30 312 C 29.1399 -1.92869 3.04687 0
M  V30 313 O 28.2439 -3.019 2.80945 0
M  V30 314 H 27.5849 -0.287224 0.598664 0
M  V30 315 H 30.1149 -0.280109 2.02674 0
M  V30 316 H 30.1249 -2.34511 3.33869 0
M  V30 317 H 28.7999 -1.35689 3.93143 0
M  V30 318 H 27.3769 -2.64454 2.62904 0
M  V30 319 N 29.562 -1.4872 -0.521534 0
M  V30 320 C 30.811 -1.56419 -1.27341 0
M  V30 321 C 31.124 -0.246805 -1.94037 0
M  V30 322 O 32.33 -0.202122 -2.70747 0
M  V30 323 C 30.786 -2.75896 -2.31105 0
M  V30 324 C 30.394 -4.14311 -1.70441 0
M  V30 325 C 32.138 -2.92913 -3.07249 0
M  V30 326 C 30.045 -5.25038 -2.72194 0
M  V30 327 H 28.975 -0.582344 -0.478949 0
M  V30 328 H 31.626 -1.75071 -0.549779 0
M  V30 329 H 30.008 -2.50697 -3.06541 0
M  V30 330 H 31.182 -4.49564 -1.01136 0
M  V30 331 H 29.497 -4.02482 -1.06759 0
M  V30 332 H 32.094 -3.72805 -3.83302 0
M  V30 333 H 32.437 -2.02689 -3.63625 0
M  V30 334 H 32.97 -3.18054 -2.38928 0
M  V30 335 H 29.709 -6.17255 -2.20627 0
M  V30 336 H 29.229 -4.94263 -3.39801 0
M  V30 337 H 30.908 -5.53508 -3.35019 0
M  V30 338 N 31.0401 0.771051 -1.3745 0
M  V30 339 C 32.2651 1.56529 -1.36065 0
M  V30 340 C 32.6901 1.88029 0.0515859 0
M  V30 341 O 32.0481 1.49282 1.02882 0
M  V30 342 C 32.0961 2.85187 -2.20683 0
M  V30 343 O 31.2001 3.79593 -1.61193 0
M  V30 344 H 30.5411 0.47411 -0.464883 0
M  V30 345 H 33.0711 0.954269 -1.80983 0
M  V30 346 H 33.0811 3.34283 -2.33921 0
M  V30 347 H 31.7561 2.61588 -3.23334 0
M  V30 348 H 30.3331 3.38239 -1.56999 0
M  V30 349 N 32.5182 1.22032 0.997298 0
M  V30 350 C 33.7432 1.06921 1.77715 0
M  V30 351 C 34.1682 -0.376226 1.84299 0
M  V30 352 O 33.5262 -1.27165 1.29223 0
M  V30 353 C 33.5742 1.67996 3.19076 0
M  V30 354 O 32.6782 0.930653 4.01762 0
M  V30 355 H 32.0192 0.375814 0.547412 0
M  V30 356 H 34.5492 1.61737 1.25309 0
M  V30 357 H 34.5592 1.72538 3.69723 0
M  V30 358 H 33.2342 2.73182 3.13599 0
M  V30 359 H 31.8112 0.960917 3.60307 0
M  V30 360 N 33.9963 -1.19345 1.0293 0
M  V30 361 C 35.2453 -1.88363 0.721256 0
M  V30 362 C 35.5583 -1.80514 -0.753254 0
M  V30 363 O 36.7643 -2.44788 -1.17436 0
M  V30 364 C 35.2203 -3.37872 1.23978 0
M  V30 365 C 34.8283 -3.54278 2.74211 0
M  V30 366 C 36.5723 -4.12365 1.00775 0
M  V30 367 C 34.4793 -4.97682 3.19479 0
M  V30 368 H 33.4093 -0.705484 0.266098 0
M  V30 369 H 36.0603 -1.34928 1.24365 0
M  V30 370 H 34.4423 -3.90707 0.6453 0
M  V30 371 H 35.6163 -3.11769 3.39318 0
M  V30 372 H 33.9313 -2.93174 2.95699 0
M  V30 373 H 36.5283 -5.18119 1.32123 0
M  V30 374 H 36.8713 -4.16263 -0.0554308 0
M  V30 375 H 37.4043 -3.65668 1.56625 0
M  V30 376 H 34.1433 -4.98945 4.25128 0
M  V30 377 H 33.6633 -5.4095 2.591 0
M  V30 378 H 35.3423 -5.66337 3.12845 0
M  V30 379 N 35.4744 -0.807222 -1.35358 0
M  V30 380 C 36.4044 -0.232509 -2.3234 0
M  V30 381 C 37.3854 0.642386 -1.57504 0
M  V30 382 O 38.5704 0.572526 -1.85569 0
M  V30 383 C 35.7004 0.619238 -3.41735 0
M  V30 384 C 34.6544 -0.157215 -4.27711 0
M  V30 385 C 33.9804 0.816273 -5.28433 0
M  V30 386 C 35.2804 -1.35656 -5.04376 0
M  V30 387 H 36.9744 -1.04276 -2.80654 0
M  V30 388 H 34.5204 -0.50288 -1.34934 0
M  V30 389 H 36.4734 1.03137 -4.08584 0
M  V30 390 H 35.1974 1.46239 -2.92031 0
M  V30 391 H 33.8564 -0.550525 -3.62443 0
M  V30 392 H 33.5044 1.65494 -4.74996 0
M  V30 393 H 33.2044 0.301067 -5.86828 0
M  V30 394 H 34.7284 1.22659 -5.98153 0
M  V30 395 H 36.1424 -1.01927 -5.64166 0
M  V30 396 H 34.5394 -1.8063 -5.7227 0
M  V30 397 H 35.6094 -2.14288 -4.34981 0
M  V30 398 N 36.9525 1.47285 -0.560781 0
M  V30 399 C 38.1775 2.07359 -0.0410566 0
M  V30 400 C 38.6025 1.41017 1.24483 0
M  V30 401 O 37.9605 0.486368 1.74654 0
M  V30 402 C 38.0085 3.6035 0.134123 0
M  V30 403 O 37.1125 3.94681 1.19587 0
M  V30 404 H 36.4535 0.661887 -0.0529291 0
M  V30 405 H 38.9835 1.89252 -0.777482 0
M  V30 406 H 38.9935 4.0652 0.347207 0
M  V30 407 H 37.6685 4.08034 -0.805047 0
M  V30 408 H 36.2455 3.60251 0.962987 0
M  V30 409 N 38.4306 0.297415 1.54768 0
M  V30 410 C 39.3626 -0.613881 2.20826 0
M  V30 411 C 40.3756 -1.10032 1.19987 0
M  V30 412 O 41.5646 -1.01839 1.46598 0
M  V30 413 C 38.6646 -1.852 2.83821 0
M  V30 414 C 37.8376 -1.50865 4.10559 0
M  V30 415 C 36.8966 -2.60154 4.57391 0
M  V30 416 O 35.9226 -2.25398 5.2267 0
M  V30 417 N 37.1246 -3.90629 4.29406 0
M  V30 418 H 39.8896 -0.048389 2.99661 0
M  V30 419 H 37.4506 0.11946 1.61459 0
M  V30 420 H 39.4426 -2.57652 3.12086 0
M  V30 421 H 38.0126 -2.32597 2.08847 0
M  V30 422 H 37.2326 -0.616925 3.89343 0
M  V30 423 H 38.5206 -1.25458 4.9309 0
M  V30 424 H 37.9186 -4.21677 3.77101 0
M  V30 425 H 36.4756 -4.59391 4.62388 0
M  V30 426 N 39.9087 -1.5758 0.0250728 0
M  V30 427 C 41.1367 -1.9593 -0.664747 0
M  V30 428 C 41.5517 -0.901352 -1.65895 0
M  V30 429 O 40.9087 0.117255 -1.82123 0
M  V30 430 C 40.9597 -3.34342 -1.37468 0
M  V30 431 O 40.6807 -4.36079 -0.420324 0
M  V30 432 C 42.1817 -3.873 -2.1567 0
M  V30 433 H 39.4017 -0.645405 -0.183557 0
M  V30 434 H 41.9457 -2.04329 0.0836372 0
M  V30 435 H 40.1007 -3.27175 -2.0745 0
M  V30 436 H 40.5147 -5.16297 -0.923991 0
M  V30 437 H 41.9887 -4.86504 -2.60803 0
M  V30 438 H 42.4657 -3.21331 -2.99405 0
M  V30 439 H 43.0717 -3.97723 -1.50654 0
M  V30 440 N 41.3868 0.248026 -1.55636 0
M  V30 441 C 42.6338 0.976224 -1.77415 0
M  V30 442 C 42.9618 1.85361 -0.589193 0
M  V30 443 O 42.2168 1.90973 0.427529 0
M  V30 444 C 42.5158 1.86819 -3.04686 0
M  V30 445 C 42.1818 1.14625 -4.36087 0
M  V30 446 C 40.8438 0.946723 -4.71795 0
M  V30 447 C 43.1958 0.634463 -5.17324 0
M  V30 448 C 40.5238 0.223091 -5.86276 0
M  V30 449 C 42.8758 -0.0756959 -6.32555 0
M  V30 450 C 41.5398 -0.286711 -6.66884 0
M  V30 451 H 40.8098 0.357226 -0.649208 0
M  V30 452 H 43.4568 0.246415 -1.89908 0
M  V30 453 H 41.7618 2.66502 -2.872 0
M  V30 454 H 43.4588 2.43329 -3.18735 0
M  V30 455 H 40.0488 1.3117 -4.08035 0
M  V30 456 H 44.2328 0.77616 -4.90193 0
M  V30 457 H 39.4888 0.0491185 -6.1138 0
M  V30 458 H 43.6628 -0.479899 -6.94745 0
M  V30 459 H 41.2898 -0.849389 -7.5544 0
M  V30 460 N 42.8649 1.48995 0.513639 0
M  V30 461 C 44.0899 1.61792 1.29762 0
M  V30 462 C 44.5149 0.284475 1.85936 0
M  V30 463 O 43.8729 -0.746185 1.65232 0
M  V30 464 C 43.9209 2.67993 2.41272 0
M  V30 465 O 43.0249 2.26287 3.44772 0
M  V30 466 H 42.3659 0.541963 0.38363 0
M  V30 467 H 44.8959 1.95097 0.616307 0
M  V30 468 H 44.9059 2.89772 2.87221 0
M  V30 469 H 43.5809 3.64791 1.9975 0
M  V30 470 H 42.1579 2.14788 3.04829 0
M  V30 471 N 44.343 -0.763751 1.37857 0
M  V30 472 C 45.62 -1.51244 1.24035 0
M  V30 473 C 46 -2.10472 -0.162649 0
M  V30 474 O 45.348 -1.96206 -1.17112 0
M  V30 475 C 45.558 -2.58694 2.34261 0
M  V30 476 C 46.906 -3.25878 2.72193 0
M  V30 477 O 47.93 -2.68993 2.33497 0
M  V30 478 O 46.789 -4.2874 3.38887 0
M  V30 479 H 43.883 -0.670243 0.484462 0
M  V30 480 H 46.429 -0.800031 1.49658 0
M  V30 481 H 45.201 -2.13105 3.2818 0
M  V30 482 H 44.824 -3.37527 2.10146 0
M  V30 483 N 45.8211 -1.22559 -0.990812 0
M  V30 484 C 47.0681 -1.05141 -1.73065 0
M  V30 485 C 47.3961 0.413191 -1.9006 0
M  V30 486 O 46.6511 1.32257 -1.44245 0
M  V30 487 C 46.9501 -1.71011 -3.13831 0
M  V30 488 C 46.6161 -3.20911 -3.16745 0
M  V30 489 C 45.2781 -3.61812 -3.17247 0
M  V30 490 C 47.6301 -4.16846 -3.12872 0
M  V30 491 C 44.9581 -4.97127 -3.1158 0
M  V30 492 C 47.3101 -5.5214 -3.08746 0
M  V30 493 C 45.9741 -5.92419 -3.07565 0
M  V30 494 H 45.2441 -0.384738 -0.633291 0
M  V30 495 H 47.8911 -1.5235 -1.16025 0
M  V30 496 H 46.1961 -1.16133 -3.74193 0
M  V30 497 H 47.8931 -1.55023 -3.69823 0
M  V30 498 H 44.4831 -2.88344 -3.17105 0
M  V30 499 H 48.6671 -3.86263 -3.11632 0
M  V30 500 H 43.9231 -5.27562 -3.09012 0
M  V30 501 H 48.0971 -6.26201 -3.04705 0
M  V30 502 H 45.7241 -6.97236 -3.02929 0
M  V30 503 N 47.2992 1.18797 -1.03562 0
M  V30 504 C 48.2092 2.25913 -0.632505 0
M  V30 505 C 49.2252 1.70668 0.338882 0
M  V30 506 O 50.4012 2.00453 0.195076 0
M  V30 507 C 47.4662 3.467 0.00350942 0
M  V30 508 C 46.5272 4.17098 -1.01624 0
M  V30 509 C 45.7602 5.32119 -0.410478 0
M  V30 510 O 45.9832 5.64976 0.784725 0
M  V30 511 O 44.9172 5.9107 -1.13667 0
M  V30 512 H 48.7432 2.62648 -1.52478 0
M  V30 513 H 46.3282 1.25781 -0.806195 0
M  V30 514 H 48.2102 4.19878 0.35781 0
M  V30 515 H 46.8852 3.11798 0.869686 0
M  V30 516 H 45.7922 3.4601 -1.42224 0
M  V30 517 H 47.1252 4.55987 -1.85301 0
M  V30 518 N 48.7773 0.814389 1.34928 0
M  V30 519 C 49.7073 0.244827 2.32213 0
M  V30 520 C 50.6883 -0.634024 1.57842 0
M  V30 521 O 51.8733 -0.562676 1.8587 0
M  V30 522 C 49.0033 -0.601106 3.42058 0
M  V30 523 C 47.9573 0.179896 4.27622 0
M  V30 524 C 47.2833 -0.788237 5.28858 0
M  V30 525 C 48.5833 1.38329 5.03649 0
M  V30 526 H 50.2773 1.05763 2.80097 0
M  V30 527 H 47.8233 0.510029 1.34665 0
M  V30 528 H 49.7763 -1.00968 4.09125 0
M  V30 529 H 48.5003 -1.44688 2.92802 0
M  V30 530 H 47.1593 0.569739 3.62146 0
M  V30 531 H 46.8073 -1.62973 4.75866 0
M  V30 532 H 46.5073 -0.269942 5.8698 0
M  V30 533 H 48.0313 -1.19485 5.98795 0
M  V30 534 H 49.4453 1.04918 5.63618 0
M  V30 535 H 47.8423 1.83662 5.71304 0
M  V30 536 H 48.9123 2.16592 4.33839 0
M  V30 537 N 50.2554 -1.46986 0.568584 0
M  V30 538 C 51.5024 -2.02441 0.0487986 0
M  V30 539 C 51.8304 -1.44169 -1.30559 0
M  V30 540 O 51.0854 -0.591213 -1.86556 0
M  V30 541 C 51.3844 -3.57306 -0.081836 0
M  V30 542 C 51.0504 -4.34552 1.20313 0
M  V30 543 C 49.7124 -4.55376 1.5552 0
M  V30 544 C 52.0644 -4.79016 2.05411 0
M  V30 545 C 49.3924 -5.17913 2.7565 0
M  V30 546 C 51.7444 -5.42879 3.24754 0
M  V30 547 C 50.4084 -5.61933 3.60261 0
M  V30 548 H 49.6784 -0.740785 0.0178567 0
M  V30 549 H 52.3254 -1.76525 0.742384 0
M  V30 550 H 50.6304 -3.8228 -0.858463 0
M  V30 551 H 52.3274 -3.97876 -0.499546 0
M  V30 552 H 48.9174 -4.18631 0.919014 0
M  V30 553 H 53.1014 -4.62696 1.79516 0
M  V30 554 H 48.3574 -5.30858 3.03315 0
M  V30 555 H 52.5314 -5.76293 3.90973 0
M  V30 556 H 50.1584 -6.10161 4.53439 0
M  V30 557 N 51.7335 -0.305618 -1.54608 0
M  V30 558 C 52.9825 0.303098 -1.9941 0
M  V30 559 C 53.2955 1.54648 -1.19764 0
M  V30 560 O 54.5015 2.23007 -1.54855 0
M  V30 561 C 52.9575 0.590588 -3.55021 0
M  V30 562 C 52.5655 -0.634719 -4.43481 0
M  V30 563 C 54.3095 1.16025 -4.08336 0
M  V30 564 C 52.2165 -0.320126 -5.90533 0
M  V30 565 H 51.1465 0.117031 -0.744862 0
M  V30 566 H 53.7975 -0.415045 -1.78745 0
M  V30 567 H 52.1795 1.36845 -3.71604 0
M  V30 568 H 53.3535 -1.41079 -4.38672 0
M  V30 569 H 51.6685 -1.12333 -4.00962 0
M  V30 570 H 54.2655 1.40994 -5.15776 0
M  V30 571 H 54.6085 2.10397 -3.5922 0
M  V30 572 H 55.1415 0.443985 -3.95315 0
M  V30 573 H 51.8805 -1.23254 -6.43808 0
M  V30 574 H 51.4005 0.418579 -5.98338 0
M  V30 575 H 53.0795 0.0766241 -6.46955 0
M  V30 576 N 53.2116 1.57565 -0.0334293 0
M  V30 577 C 54.1446 2.05997 0.981866 0
M  V30 578 C 55.1226 0.956647 1.3148 0
M  V30 579 O 56.3066 1.22729 1.43073 0
M  V30 580 C 53.4336 2.48564 2.30074 0
M  V30 581 C 52.4796 3.69958 2.12211 0
M  V30 582 S 53.3126 5.16414 1.41692 0
M  V30 583 C 54.4686 5.6228 2.7494 0
M  V30 584 H 54.7016 2.91792 0.569612 0
M  V30 585 H 52.2346 1.53366 0.178376 0
M  V30 586 H 54.1926 2.73753 3.05892 0
M  V30 587 H 52.8536 1.63106 2.68431 0
M  V30 588 H 52.0466 3.97603 3.09722 0
M  V30 589 H 51.6486 3.44943 1.44535 0
M  V30 590 H 53.9406 5.66783 3.71165 0
M  V30 591 H 54.8836 6.61759 2.51953 0
M  V30 592 H 55.2916 4.89944 2.80384 0
M  V30 593 N 54.6897 -0.239769 1.55765 0
M  V30 594 C 55.9667 -0.990056 1.68693 0
M  V30 595 C 56.3467 -2.03107 0.5754 0
M  V30 596 O 55.6947 -2.24604 -0.42017 0
M  V30 597 C 55.9047 -1.61696 3.09282 0
M  V30 598 C 57.2527 -2.11613 3.6811 0
M  V30 599 O 58.2767 -1.71624 3.12127 0
M  V30 600 O 57.1357 -2.85057 4.66267 0
M  V30 601 H 54.2297 -0.461299 0.686391 0
M  V30 602 H 56.7757 -0.232991 1.68093 0
M  V30 603 H 55.5477 -0.864357 3.81634 0
M  V30 604 H 55.1707 -2.44005 3.13923 0
M  V30 605 N 56.1678 -1.49265 -0.50573 0
M  V30 606 C 57.4448 -1.49012 -1.26707 0
M  V30 607 C 57.8248 -0.215205 -2.1 0
M  V30 608 O 57.1728 0.802547 -2.13943 0
M  V30 609 C 57.3828 -2.7663 -2.12783 0
M  V30 610 C 58.7308 -3.25932 -2.72127 0
M  V30 611 O 59.7548 -2.77715 -2.23054 0
M  V30 612 O 58.6138 -4.09897 -3.61451 0
M  V30 613 H 55.7078 -0.596197 -0.57313 0
M  V30 614 H 58.2538 -1.61524 -0.52039 0
M  V30 615 H 57.0258 -3.60916 -1.5118 0
M  V30 616 H 56.6488 -2.66956 -2.94653 0
M  V30 617 N 57.6459 0.756429 -1.3826 0
M  V30 618 C 58.5939 1.89149 -1.35372 0
M  V30 619 C 59.5879 1.67691 -0.24004 0
M  V30 620 O 60.7939 1.75294 -0.408919 0
M  V30 621 H 57.1689 0.622271 -0.422236 0
M  V30 622 H 59.1399 1.88701 -2.31159 0
M  V30 623 C 57.8889 3.26599 -1.19284 0
M  V30 624 H 57.2119 3.43695 -2.0424 0
M  V30 625 H 58.6519 4.06274 -1.21316 0
M  V30 626 C 57.1109 3.3675 0.100454 0
M  V30 627 O 57.6409 3.86951 1.07851 0
M  V30 628 N 55.8469 2.90179 0.15633 0
M  V30 629 H 55.3939 2.49517 -0.640253 0
M  V30 630 H 55.3519 2.97352 1.02123 0
M  V30 631 N 59.124 1.23083 0.984299 0
M  V30 632 C 60.349 1.088 1.76571 0
M  V30 633 C 60.774 -0.356657 1.84688 0
M  V30 634 O 60.132 -1.25788 1.30565 0
M  V30 635 C 60.18 1.71371 3.17277 0
M  V30 636 O 59.284 0.973213 4.00752 0
M  V30 637 H 58.625 0.381599 0.543395 0
M  V30 638 H 61.155 1.63057 1.23587 0
M  V30 639 H 61.165 1.76449 3.67872 0
M  V30 640 H 59.84 2.76493 3.10684 0
M  V30 641 H 58.417 0.999078 3.59267 0
M  V30 642 N 60.6021 -1.18246 1.0419 0
M  V30 643 C 61.5501 -2.23968 0.627792 0
M  V30 644 C 62.5441 -1.65828 -0.346019 0
M  V30 645 O 63.7501 -1.78733 -0.213175 0
M  V30 646 H 60.1251 -0.728939 0.184802 0
M  V30 647 H 62.0961 -2.56202 1.52981 0
M  V30 648 C 60.8451 -3.47699 0.00796591 0
M  V30 649 H 60.1681 -3.92734 0.748347 0
M  V30 650 H 61.6081 -4.23294 -0.24455 0
M  V30 651 C 60.0671 -3.13153 -1.24246 0
M  V30 652 O 60.5971 -3.27003 -2.33307 0
M  V30 653 N 58.8031 -2.67467 -1.13622 0
M  V30 654 H 58.3501 -2.56396 -0.248734 0
M  V30 655 H 58.3081 -2.44724 -1.97377 0
M  V30 656 N 62.0802 -0.821533 -1.34494 0
M  V30 657 C 62.9902 -0.244355 -2.33324 0
M  V30 658 C 64.0062 0.620527 -1.62559 0
M  V30 659 O 65.1822 0.528754 -1.94335 0
M  V30 660 C 62.2472 0.585368 -3.41723 0
M  V30 661 C 61.3082 -0.301752 -4.28238 0
M  V30 662 C 60.5412 0.488466 -5.3146 0
M  V30 663 O 60.7642 1.72186 -5.4379 0
M  V30 664 O 59.6982 -0.12848 -6.01763 0
M  V30 665 H 63.5242 -1.06231 -2.84515 0
M  V30 666 H 61.1092 -0.583645 -1.37528 0
M  V30 667 H 62.9912 1.05747 -4.07916 0
M  V30 668 H 61.6662 1.38068 -2.92778 0
M  V30 669 H 60.5732 -0.821315 -3.64973 0
M  V30 670 H 61.9062 -1.06138 -4.8062 0
M  V30 671 N 63.5583 1.46682 -0.576371 0
M  V30 672 C 64.4683 2.34032 0.163141 0
M  V30 673 C 65.4843 1.49367 0.892501 0
M  V30 674 O 66.6603 1.82252 0.857106 0
M  V30 675 C 63.7253 3.26435 1.16795 0
M  V30 676 C 62.7863 4.26998 0.443944 0
M  V30 677 C 62.0193 5.14986 1.40088 0
M  V30 678 O 62.2423 5.05785 2.637 0
M  V30 679 O 61.1763 5.94906 0.914917 0
M  V30 680 H 65.0023 2.98607 -0.55388 0
M  V30 681 H 62.5873 1.45554 -0.336821 0
M  V30 682 H 64.4693 3.83459 1.74748 0
M  V30 683 H 63.1443 2.64465 1.86655 0
M  V30 684 H 62.0513 3.7368 -0.177271 0
M  V30 685 H 63.3843 4.91736 -0.213566 0
M  V30 686 N 65.0364 0.313813 1.54444 0
M  V30 687 C 66.2644 -0.293918 2.04802 0
M  V30 688 C 66.6794 -1.46537 1.19047 0
M  V30 689 O 66.0364 -1.81182 0.218939 0
M  V30 690 C 66.0874 -0.737806 3.53891 0
M  V30 691 O 65.8084 0.387038 4.36387 0
M  V30 692 C 67.3094 -1.40936 4.203 0
M  V30 693 H 64.5294 -0.0620057 0.668129 0
M  V30 694 H 67.0734 0.457169 1.99324 0
M  V30 695 H 65.2284 -1.43889 3.59687 0
M  V30 696 H 65.6424 0.0391274 5.24485 0
M  V30 697 H 67.1164 -1.67099 5.26101 0
M  V30 698 H 67.5934 -2.35355 3.70816 0
M  V30 699 H 68.1994 -0.751117 4.18615 0
M  V30 700 N 66.5145 -1.57545 0.0417849 0
M  V30 701 C 67.4445 -2.14009 -0.933929 0
M  V30 702 C 68.4255 -1.05938 -1.33083 0
M  V30 703 O 69.6105 -1.33833 -1.40721 0
M  V30 704 C 66.7405 -2.67747 -2.21199 0
M  V30 705 C 65.6945 -3.80718 -1.95544 0
M  V30 706 C 65.0205 -4.20935 -3.29724 0
M  V30 707 C 66.3205 -5.06258 -1.28452 0
M  V30 708 H 68.0145 -2.95788 -0.463645 0
M  V30 709 H 65.5605 -1.42285 -0.221573 0
M  V30 710 H 67.5135 -3.05886 -2.89848 0
M  V30 711 H 66.2375 -1.83147 -2.70416 0
M  V30 712 H 64.8965 -3.43037 -1.2931 0
M  V30 713 H 64.5445 -3.33298 -3.76724 0
M  V30 714 H 64.2445 -4.9707 -3.13361 0
M  V30 715 H 65.7685 -4.61666 -3.9962 0
M  V30 716 H 67.1825 -5.41903 -1.8712 0
M  V30 717 H 65.5795 -5.87475 -1.22445 0
M  V30 718 H 66.6495 -4.84207 -0.259219 0
M  V30 719 N 67.9926 0.231505 -1.5589 0
M  V30 720 C 68.9406 1.30649 -1.92441 0
M  V30 721 C 69.9346 1.49037 -0.805254 0
M  V30 722 O 71.1406 1.50329 -0.990007 0
M  V30 723 H 67.5156 0.437812 -0.611412 0
M  V30 724 H 69.4866 0.970973 -2.82161 0
M  V30 725 C 68.2356 2.65179 -2.24889 0
M  V30 726 H 67.5586 2.51835 -3.10514 0
M  V30 727 H 68.9986 3.39234 -2.54355 0
M  V30 728 C 67.4576 3.19439 -1.07054 0
M  V30 729 O 67.9876 4.00371 -0.326499 0
M  V30 730 N 66.1936 2.77675 -0.85703 0
M  V30 731 H 65.7406 2.11969 -1.46379 0
M  V30 732 H 65.6986 3.14321 -0.0703223 0
M  V30 733 N 69.4707 1.49531 0.497807 0
M  V30 734 C 70.7167 1.59415 1.25358 0
M  V30 735 C 71.0497 0.281422 1.9215 0
M  V30 736 O 70.3247 -0.715249 1.80871 0
M  V30 737 C 70.6077 2.75566 2.3181 0
M  V30 738 C 70.4607 4.16642 1.69498 0
M  V30 739 C 71.7797 2.87347 3.33346 0
M  V30 740 H 68.8987 0.580244 0.454408 0
M  V30 741 H 71.5407 1.81827 0.551262 0
M  V30 742 H 69.6907 2.56587 2.91711 0
M  V30 743 H 71.3627 4.47145 1.13399 0
M  V30 744 H 69.6057 4.22141 0.998978 0
M  V30 745 H 70.2767 4.93792 2.46725 0
M  V30 746 H 72.7527 3.04634 2.83438 0
M  V30 747 H 71.6287 3.70289 4.05188 0
M  V30 748 H 71.8897 1.96834 3.95865 0
M  V30 749 N 70.9488 -0.749086 1.3866 0
M  V30 750 C 72.1978 -1.50371 1.3443 0
M  V30 751 C 72.5108 -1.95503 -0.0616397 0
M  V30 752 O 73.7168 -2.70554 -0.226489 0
M  V30 753 C 72.1728 -2.71644 2.36088 0
M  V30 754 C 71.7808 -2.3352 3.82325 0
M  V30 755 C 73.5248 -3.49518 2.40909 0
M  V30 756 C 71.4318 -3.51431 4.75658 0
M  V30 757 H 70.3618 -0.564628 0.499712 0
M  V30 758 H 73.0128 -0.818449 1.64237 0
M  V30 759 H 71.3948 -3.42175 1.9933 0
M  V30 760 H 72.5688 -1.70627 4.28046 0
M  V30 761 H 70.8838 -1.6877 3.80665 0
M  V30 762 H 73.4808 -4.37197 3.07836 0
M  V30 763 H 73.8238 -3.90992 1.42937 0
M  V30 764 H 74.3568 -2.86005 2.76489 0
M  V30 765 H 71.0958 -3.15019 5.74842 0
M  V30 766 H 70.6158 -4.13352 4.34627 0
M  V30 767 H 72.2948 -4.17953 4.93887 0
M  V30 768 N 72.4269 -1.23603 -0.977757 0
M  V30 769 C 73.8429 -0.999251 -1.24447 0
M  V30 770 C 74.0429 0.298053 -1.99283 0
M  V30 771 O 73.0989 1.01681 -2.31122 0
M  V30 772 C 74.4119 -2.20784 -2.04144 0
M  V30 773 C 75.9599 -2.25303 -2.17273 0
M  V30 774 C 76.4349 -3.45755 -3.00362 0
M  V30 775 N 77.9259 -3.4601 -3.07947 0
M  V30 776 C 78.6609 -4.35868 -3.72568 0
M  V30 777 N 78.1569 -5.35966 -4.38991 0
M  V30 778 N 79.9499 -4.23605 -3.6948 0
M  V30 779 H 72.1009 -2.06986 -0.476483 0
M  V30 780 H 74.3639 -0.907801 -0.273134 0
M  V30 781 H 74.0699 -3.14945 -1.56533 0
M  V30 782 H 73.9439 -2.22085 -3.04891 0
M  V30 783 H 76.3309 -1.3168 -2.64092 0
M  V30 784 H 76.4119 -2.28033 -1.15907 0
M  V30 785 H 76.0559 -4.39687 -2.5424 0
M  V30 786 H 75.9859 -3.40266 -4.01904 0
M  V30 787 H 78.4769 -2.73588 -2.60688 0
M  V30 788 H 78.7899 -6.00783 -4.86086 0
M  V30 789 H 77.1349 -5.39863 -4.37691 0
M  V30 790 H 80.3259 -3.44647 -3.16759 0
M  V30 791 H 80.4989 -4.93836 -4.1956 0
M  V30 792 N 73.905 1.17692 -1.04816 0
M  V30 793 C 75.316 1.69501 -0.782698 0
M  V30 794 C 75.667 1.83456 0.695577 0
M  V30 795 O 74.792 1.51942 1.54086 0
M  V30 796 C 75.387 3.07874 -1.41419 0
M  V30 797 C 73.946 3.56864 -1.19686 0
M  V30 798 C 73.093 2.3322 -1.50012 0
M  V30 799 H 76.044 1.02262 -1.2136 0
M  V30 800 H 76.065 3.71528 -0.821428 0
M  V30 801 H 75.577 2.97685 -2.49009 0
M  V30 802 H 73.678 3.72337 -0.140043 0
M  V30 803 H 73.791 4.39851 -1.89916 0
M  V30 804 H 72.155 2.37501 -0.920071 0
M  V30 805 H 72.938 2.25644 -2.58727 0
M  V30 806 N 75.3831 0.828654 1.34056 0
M  V30 807 C 76.6301 0.419458 1.98108 0
M  V30 808 C 76.9581 -1.01886 1.65679 0
M  V30 809 O 76.2131 -1.72539 0.923512 0
M  V30 810 C 76.5121 0.575226 3.52741 0
M  V30 811 C 76.1781 1.98012 4.05095 0
M  V30 812 C 74.8401 2.36442 4.19104 0
M  V30 813 C 77.1921 2.89824 4.33188 0
M  V30 814 C 74.5201 3.66009 4.58535 0
M  V30 815 C 76.8721 4.1886 4.74066 0
M  V30 816 C 75.5361 4.5726 4.86281 0
M  V30 817 H 74.8061 0.153491 0.724929 0
M  V30 818 H 77.4531 1.05371 1.59904 0
M  V30 819 H 75.7581 -0.142385 3.91541 0
M  V30 820 H 77.4551 0.239057 4.00287 0
M  V30 821 H 74.0451 1.67162 3.94658 0
M  V30 822 H 78.2291 2.61375 4.21897 0
M  V30 823 H 73.4851 3.95579 4.66184 0
M  V30 824 H 77.6591 4.90086 4.94761 0
M  V30 825 H 75.2861 5.57707 5.16592 0
M  V30 826 N 76.8612 -1.46375 0.584142 0
M  V30 827 C 77.7912 -2.33103 -0.136037 0
M  V30 828 C 78.7722 -1.45431 -0.882255 0
M  V30 829 O 79.9572 -1.74246 -0.857434 0
M  V30 830 C 77.0872 -3.27731 -1.14933 0
M  V30 831 C 76.0412 -4.24855 -0.517862 0
M  V30 832 C 75.3672 -5.09001 -1.63773 0
M  V30 833 C 76.6672 -5.19439 0.545886 0
M  V30 834 H 78.3612 -2.93568 0.588086 0
M  V30 835 H 75.9072 -1.41166 0.284259 0
M  V30 836 H 77.8602 -3.87261 -1.66153 0
M  V30 837 H 76.5842 -2.65377 -1.90375 0
M  V30 838 H 75.2432 -3.6659 -0.0267361 0
M  V30 839 H 74.8912 -4.43031 -2.38185 0
M  V30 840 H 74.5912 -5.74777 -1.22085 0
M  V30 841 H 76.1152 -5.71396 -2.15266 0
M  V30 842 H 77.5292 -5.73177 0.118704 0
M  V30 843 H 75.9262 -5.93566 0.88317 0
M  V30 844 H 76.9962 -4.63285 1.43162 0
M  V30 845 N 78.3393 -0.321999 -1.54275 0
M  V30 846 C 79.2873 0.560206 -2.25753 0
M  V30 847 C 80.2813 1.11984 -1.27106 0
M  V30 848 O 81.4873 1.06806 -1.44888 0
M  V30 849 H 77.8623 0.199304 -0.725108 0
M  V30 850 H 79.8333 -0.0649365 -2.98329 0
M  V30 851 C 78.5823 1.71023 -3.02731 0
M  V30 852 H 77.9053 1.28885 -3.78456 0
M  V30 853 H 79.3453 2.30314 -3.55993 0
M  V30 854 C 77.8043 2.62692 -2.10938 0
M  V30 855 O 78.3343 3.64364 -1.6912 0
M  V30 856 N 76.5403 2.30891 -1.76459 0
M  V30 857 H 76.0873 1.48253 -2.10663 0
M  V30 858 H 76.0453 2.92487 -1.1532 0
M  V30 859 N 79.8174 1.5752 -0.0501392 0
M  V30 860 C 81.0944 1.83996 0.663685 0
M  V30 861 C 81.4744 0.938339 1.89099 0
M  V30 862 O 80.8224 -0.00087759 2.285 0
M  V30 863 C 81.0324 3.33702 1.02196 0
M  V30 864 C 82.3804 4.00691 1.40469 0
M  V30 865 O 83.4044 3.38321 1.11433 0
M  V30 866 O 82.2634 5.10658 1.94654 0
M  V30 867 H 79.3574 0.759385 0.32751 0
M  V30 868 H 81.9034 1.69514 -0.0794238 0
M  V30 869 H 80.6754 3.91015 0.149364 0
M  V30 870 H 80.2984 3.53368 1.82255 0
M  V30 871 N 81.2955 -0.223234 1.56011 0
M  V30 872 C 82.2435 -1.29627 1.93131 0
M  V30 873 C 83.2375 -1.48608 0.813146 0
M  V30 874 O 84.4435 -1.49802 0.997966 0
M  V30 875 H 80.8185 -0.434563 0.613726 0
M  V30 876 H 82.7895 -0.955995 2.82672 0
M  V30 877 C 81.5385 -2.63983 2.26292 0
M  V30 878 H 80.8615 -2.50185 3.11846 0
M  V30 879 H 82.3015 -3.3788 2.56151 0
M  V30 880 C 80.7605 -3.18866 1.08747 0
M  V30 881 O 81.2905 -4.00192 0.347727 0
M  V30 882 N 79.4965 -2.77217 0.871743 0
M  V30 883 H 79.0435 -2.1119 1.47501 0
M  V30 884 H 79.0015 -3.1428 0.0869905 0
M  V30 885 N 82.7736 -1.49793 -0.48987 0
M  V30 886 C 84.1896 -1.36803 -0.822022 0
M  V30 887 C 84.3896 -0.409652 -1.97292 0
M  V30 888 O 83.4456 0.154614 -2.52026 0
M  V30 889 C 84.7586 -2.77768 -1.15175 0
M  V30 890 C 86.3066 -2.86549 -1.25931 0
M  V30 891 C 86.7816 -4.28306 -1.62228 0
M  V30 892 N 88.2726 -4.31169 -1.69256 0
M  V30 893 C 89.0076 -5.37832 -1.98807 0
M  V30 894 N 88.5036 -6.54726 -2.26507 0
M  V30 895 N 90.2966 -5.25258 -2.00152 0
M  V30 896 H 82.4476 -2.10691 0.268881 0
M  V30 897 H 84.7106 -0.946241 0.057728 0
M  V30 898 H 84.4166 -3.49648 -0.379335 0
M  V30 899 H 84.2906 -3.13836 -2.09253 0
M  V30 900 H 86.6776 -2.14899 -2.02243 0
M  V30 901 H 86.7586 -2.54049 -0.298776 0
M  V30 902 H 86.4026 -5.00486 -0.864622 0
M  V30 903 H 86.3326 -4.58279 -2.594 0
M  V30 904 H 88.8236 -3.4687 -1.49965 0
M  V30 905 H 89.1366 -7.31833 -2.48276 0
M  V30 906 H 87.4816 -6.57933 -2.23939 0
M  V30 907 H 90.6726 -4.32938 -1.77996 0
M  V30 908 H 90.8456 -6.08476 -2.22848 0
M  V30 909 N 84.2517 0.741722 -1.39055 0
M  V30 910 C 85.4977 1.50336 -1.36113 0
M  V30 911 C 85.8307 1.94148 0.0450796 0
M  V30 912 O 85.1057 1.66301 1.00868 0
M  V30 913 C 85.3887 2.74773 -2.32749 0
M  V30 914 C 85.2417 2.37023 -3.82283 0
M  V30 915 C 86.5607 3.76846 -2.27322 0
M  V30 916 H 83.6797 0.545351 -0.495743 0
M  V30 917 H 86.3217 0.848624 -1.69995 0
M  V30 918 H 84.4717 3.30639 -2.03986 0
M  V30 919 H 86.1437 1.8684 -4.21768 0
M  V30 920 H 84.3867 1.69334 -3.99385 0
M  V30 921 H 85.0577 3.26104 -4.45376 0
M  V30 922 H 87.5337 3.30548 -2.5274 0
M  V30 923 H 86.4097 4.6159 -2.97028 0
M  V30 924 H 86.6707 4.23286 -1.27599 0
M  V30 925 N 85.7298 1.2412 0.971189 0
M  V30 926 C 87.1458 1.00584 1.23916 0
M  V30 927 C 87.3458 -0.287481 1.99439 0
M  V30 928 O 86.4018 -1.00454 2.31658 0
M  V30 929 C 87.7148 2.21864 2.0297 0
M  V30 930 C 89.2628 2.26452 2.16076 0
M  V30 931 C 89.7378 3.47343 2.98524 0
M  V30 932 N 91.2288 3.47639 3.06107 0
M  V30 933 C 91.9638 4.37837 3.70251 0
M  V30 934 N 91.4598 5.38286 4.36142 0
M  V30 935 N 93.2528 4.25558 3.67228 0
M  V30 936 H 85.4038 2.07236 0.465499 0
M  V30 937 H 87.6668 0.909236 0.268315 0
M  V30 938 H 87.3728 3.15771 1.54861 0
M  V30 939 H 87.2468 2.23698 3.03709 0
M  V30 940 H 89.6338 1.33078 2.6339 0
M  V30 941 H 89.7148 2.28645 1.14696 0
M  V30 942 H 89.3588 4.41029 2.51905 0
M  V30 943 H 89.2888 3.42393 4.00093 0
M  V30 944 H 91.7798 2.74966 2.59233 0
M  V30 945 H 92.0928 6.03352 4.82894 0
M  V30 946 H 90.4378 5.42176 4.34822 0
M  V30 947 H 93.6288 3.46322 3.14927 0
M  V30 948 H 93.8018 4.96054 4.16935 0
M  V30 949 N 87.2079 -1.17134 1.05439 0
M  V30 950 C 88.4549 -1.87456 0.765942 0
M  V30 951 C 88.7829 -1.81189 -0.707153 0
M  V30 952 O 88.0379 -1.21633 -1.5331 0
M  V30 953 C 88.3369 -3.36833 1.19491 0
M  V30 954 C 88.0029 -3.63301 2.67063 0
M  V30 955 C 86.6649 -3.70234 3.07376 0
M  V30 956 C 89.0169 -3.74575 3.62413 0
M  V30 957 C 86.3449 -3.85933 4.41896 0
M  V30 958 C 88.6969 -3.91793 4.9667 0
M  V30 959 C 87.3609 -3.96966 5.36633 0
M  V30 960 H 86.6309 -0.685948 0.280278 0
M  V30 961 H 89.2779 -1.38556 1.32192 0
M  V30 962 H 87.5829 -3.87807 0.557969 0
M  V30 963 H 89.2799 -3.89611 0.948893 0
M  V30 964 H 85.8699 -3.58532 2.34846 0
M  V30 965 H 90.0539 -3.68537 3.32406 0
M  V30 966 H 85.3099 -3.88187 4.72357 0
M  V30 967 H 89.4839 -3.99458 5.70444 0
M  V30 968 H 87.1109 -4.08883 6.40874 0
M  V30 969 N 88.686 -0.835752 -1.33615 0
M  V30 970 C 89.916 -0.442701 -2.01801 0
M  V30 971 C 90.324 0.959807 -1.63047 0
M  V30 972 O 89.667 1.63468 -0.838088 0
M  V30 973 C 89.729 -0.480125 -3.56279 0
M  V30 974 C 89.393 -1.8382 -4.18401 0
M  V30 975 C 90.39 -2.80097 -4.37998 0
M  V30 976 C 88.075 -2.13019 -4.54894 0
M  V30 977 C 90.069 -4.03736 -4.9323 0
M  V30 978 C 87.756 -3.36916 -5.09834 0
M  V30 979 C 88.754 -4.32091 -5.28948 0
M  V30 980 O 88.442 -5.53797 -5.82721 0
M  V30 981 H 88.174 -0.17441 -0.653114 0
M  V30 982 H 90.728 -1.129 -1.71589 0
M  V30 983 H 88.958 0.262931 -3.85805 0
M  V30 984 H 90.647 -0.105335 -4.05763 0
M  V30 985 H 91.413 -2.58838 -4.10156 0
M  V30 986 H 87.292 -1.39733 -4.39313 0
M  V30 987 H 90.836 -4.78034 -5.08064 0
M  V30 988 H 86.733 -3.58033 -5.37106 0
M  V30 989 H 87.501 -5.55494 -6.0114 0
M  V30 990 N 90.1641 1.46063 -0.591896 0
M  V30 991 C 91.0961 2.28539 0.174001 0
M  V30 992 C 92.1091 1.39047 0.846753 0
M  V30 993 O 93.2981 1.63564 0.714774 0
M  V30 994 C 90.3981 3.14347 1.26645 0
M  V30 995 C 89.5711 4.32021 0.683856 0
M  V30 996 C 88.6301 4.99157 1.66518 0
M  V30 997 O 87.6561 5.56458 1.19763 0
M  V30 998 N 88.8581 4.97005 2.99943 0
M  V30 999 H 91.6231 2.94911 -0.533633 0
M  V30 1000 H 89.1841 1.56077 -0.430294 0
M  V30 1001 H 91.1761 3.56125 1.92242 0
M  V30 1002 H 89.7461 2.49988 1.87682 0
M  V30 1003 H 88.9661 3.93915 -0.1498 0
M  V30 1004 H 90.2541 5.08059 0.274567 0
M  V30 1005 H 89.6521 4.51714 3.40545 0
M  V30 1006 H 88.2091 5.42696 3.61004 0
M  V30 1007 N 91.6422 0.330177 1.54103 0
M  V30 1008 C 92.8672 -0.274893 2.0557 0
M  V30 1009 C 93.2922 -1.44487 1.20437 0
M  V30 1010 O 92.6502 -1.80021 0.214991 0
M  V30 1011 C 92.6982 -0.68079 3.54115 0
M  V30 1012 O 91.8022 -1.7824 3.71893 0
M  V30 1013 H 91.1432 -0.0483849 0.662235 0
M  V30 1014 H 93.6732 0.480508 1.98878 0
M  V30 1015 H 93.6832 -0.961635 3.96505 0
M  V30 1016 H 92.3582 0.174903 4.15532 0
M  V30 1017 H 90.9352 -1.49985 3.41407 0
M  V30 1018 N 93.1203 -1.57491 0.0584922 0
M  V30 1019 C 94.3973 -1.84346 -0.653918 0
M  V30 1020 C 94.7773 -0.948355 -1.88599 0
M  V30 1021 O 94.1253 -0.0112403 -2.28497 0
M  V30 1022 C 94.3353 -3.34239 -1.00425 0
M  V30 1023 C 95.6833 -4.01431 -1.38342 0
M  V30 1024 O 96.7073 -3.38907 -1.09637 0
M  V30 1025 O 95.5663 -5.11683 -1.91943 0
M  V30 1026 H 92.6603 -0.761112 -0.323478 0
M  V30 1027 H 95.2063 -1.6947 0.0884125 0
M  V30 1028 H 93.9783 -3.91089 -0.128625 0
M  V30 1029 H 93.6013 -3.54329 -1.80378 0
M  V30 1030 N 94.5984 0.214957 -1.56127 0
M  V30 1031 C 95.8474 0.936451 -1.78643 0
M  V30 1032 C 96.1604 1.85237 -0.628229 0
M  V30 1033 O 97.3664 2.613 -0.737186 0
M  V30 1034 C 95.8224 1.7154 -3.16389 0
M  V30 1035 C 95.4304 0.845299 -4.39953 0
M  V30 1036 C 97.1744 2.42772 -3.48227 0
M  V30 1037 C 95.0814 1.62198 -5.68723 0
M  V30 1038 H 94.0114 0.353401 -0.666051 0
M  V30 1039 H 96.6624 0.190169 -1.82512 0
M  V30 1040 H 95.0444 2.50484 -3.06715 0
M  V30 1041 H 96.2184 0.0959353 -4.607 0
M  V30 1042 H 94.5334 0.244789 -4.1568 0
M  V30 1043 H 97.1304 3.01394 -4.41663 0
M  V30 1044 H 97.4734 3.15984 -2.71035 0
M  V30 1045 H 98.0064 1.70813 -3.5926 0
M  V30 1046 H 94.7454 0.933011 -6.48826 0
M  V30 1047 H 94.2654 2.34579 -5.52026 0
M  V30 1048 H 95.9444 2.18095 -6.09133 0
M  V30 1049 N 96.0765 1.50051 0.48192 0
M  V30 1050 C 97.3015 1.64508 1.26301 0
M  V30 1051 C 97.7265 0.323851 1.85291 0
M  V30 1052 O 97.0845 -0.710969 1.66778 0
M  V30 1053 C 97.1325 2.7305 2.35533 0
M  V30 1054 O 96.2365 2.3355 3.39895 0
M  V30 1055 H 95.5775 0.549978 0.372048 0
M  V30 1056 H 98.1075 1.9636 0.574786 0
M  V30 1057 H 98.1175 2.95799 2.8101 0
M  V30 1058 H 96.7925 3.68946 1.91967 0
M  V30 1059 H 95.3695 2.21205 3.00204 0
M  V30 1060 N 97.5546 -0.734337 1.39446 0
M  V30 1061 C 98.8026 -1.49096 1.36436 0
M  V30 1062 C 99.1236 -1.94961 -0.0388255 0
M  V30 1063 O 98.3936 -1.69033 -0.990191 0
M  V30 1064 H 96.9736 -0.5531 0.502085 0
M  V30 1065 H 99.6356 -0.871725 1.74319 0
M  V30 1066 H 98.7316 -2.37276 2.02747 0
M  V30 1067 N 99.0327 -1.24633 -0.964593 0
M  V30 1068 C 100.279 -1.08949 -1.71049 0
M  V30 1069 C 100.612 0.370302 -1.90637 0
M  V30 1070 O 99.8867 1.27349 -1.47011 0
M  V30 1071 C 100.17 -1.83329 -3.0994 0
M  V30 1072 C 100.023 -3.37077 -2.97824 0
M  V30 1073 C 101.342 -1.60846 -4.09654 0
M  V30 1074 H 98.4607 -0.397178 -0.620821 0
M  V30 1075 H 101.103 -1.5334 -1.12191 0
M  V30 1076 H 99.2527 -1.45597 -3.60186 0
M  V30 1077 H 100.925 -3.84425 -2.5498 0
M  V30 1078 H 99.1677 -3.65298 -2.33965 0
M  V30 1079 H 99.8387 -3.84324 -3.96231 0
M  V30 1080 H 102.315 -1.93674 -3.68279 0
M  V30 1081 H 101.191 -2.1534 -5.04896 0
M  V30 1082 H 101.452 -0.547434 -4.38698 0
M  V30 1083 N 100.511 1.16574 -1.06058 0
M  V30 1084 C 101.458 2.20883 -0.669263 0
M  V30 1085 C 102.428 1.62729 0.332918 0
M  V30 1086 O 103.613 1.895 0.222346 0
M  V30 1087 C 100.753 3.45049 -0.0593572 0
M  V30 1088 C 99.8658 4.17458 -1.11143 0
M  V30 1089 C 99.0008 5.29135 -0.467916 0
M  V30 1090 C 98.0398 5.93343 -1.50369 0
M  V30 1091 N 97.1768 6.96516 -0.883706 0
M  V30 1092 H 102.017 2.53709 -1.5632 0
M  V30 1093 H 99.5538 1.24616 -0.781625 0
M  V30 1094 H 101.512 4.16033 0.311771 0
M  V30 1095 H 100.142 3.12781 0.797992 0
M  V30 1096 H 99.1938 3.45101 -1.60029 0
M  V30 1097 H 100.506 4.61307 -1.89731 0
M  V30 1098 H 99.6598 6.06684 -0.0436871 0
M  V30 1099 H 98.3988 4.86443 0.349864 0
M  V30 1100 H 97.4038 5.14517 -1.93784 0
M  V30 1101 H 98.6288 6.38114 -2.32352 0
M  V30 1102 H 96.5748 6.55943 -0.086595 0
M  V30 1103 H 96.4918 7.38723 -1.607 0
M  V30 1104 H 97.7598 7.77993 -0.484543 0
M  V30 1105 N 101.989 0.842826 1.3317 0
M  V30 1106 C 102.899 0.281444 2.32906 0
M  V30 1107 C 103.915 -0.594587 1.63526 0
M  V30 1108 O 105.091 -0.49777 1.95152 0
M  V30 1109 C 102.156 -0.530929 3.42611 0
M  V30 1110 C 101.217 0.369843 4.27704 0
M  V30 1111 C 100.45 -0.403853 5.3217 0
M  V30 1112 O 100.673 -1.63513 5.46461 0
M  V30 1113 O 99.6069 0.224199 6.01482 0
M  V30 1114 H 103.433 1.10744 2.82789 0
M  V30 1115 H 101.018 0.60545 1.36582 0
M  V30 1116 H 102.9 -0.992437 4.09547 0
M  V30 1117 H 101.575 -1.33392 2.94938 0
M  V30 1118 H 100.482 0.879275 3.6362 0
M  V30 1119 H 101.815 1.13771 4.78871 0
M  V30 1120 N 103.467 -1.45747 0.599634 0
M  V30 1121 C 104.883 -1.57424 0.26264 0
M  V30 1122 C 105.083 -1.59222 -1.23493 0
M  V30 1123 O 104.139 -1.51825 -2.01756 0
M  V30 1124 C 105.452 -2.86061 0.926795 0
M  V30 1125 C 107 -2.99722 0.901967 0
M  V30 1126 C 107.475 -4.31119 1.54598 0
M  V30 1127 N 108.966 -4.37858 1.5111 0
M  V30 1128 C 109.701 -5.3818 1.97863 0
M  V30 1129 N 109.197 -6.45083 2.52666 0
M  V30 1130 N 110.99 -5.29487 1.88679 0
M  V30 1131 H 103.141 -1.42823 1.57211 0
M  V30 1132 H 105.404 -0.68235 0.658105 0
M  V30 1133 H 105.11 -2.90605 1.98095 0
M  V30 1134 H 104.984 -3.74563 0.445238 0
M  V30 1135 H 107.371 -2.9475 -0.143617 0
M  V30 1136 H 107.452 -2.12652 1.42171 0
M  V30 1137 H 107.096 -4.36849 2.59085 0
M  V30 1138 H 107.026 -5.16992 1.00132 0
M  V30 1139 H 109.517 -3.61209 1.11068 0
M  V30 1140 H 109.83 -7.17869 2.86155 0
M  V30 1141 H 108.175 -6.45856 2.56701 0
M  V30 1142 H 111.366 -4.44877 1.4561 0
M  V30 1143 H 111.539 -6.07524 2.25429 0
M  V30 1144 N 104.945 -0.338344 -1.53925 0
M  V30 1145 C 106.173 0.261298 -2.05243 0
M  V30 1146 C 106.588 1.44625 -1.21363 0
M  V30 1147 O 105.945 1.80811 -0.247736 0
M  V30 1148 C 105.996 0.681412 -3.5502 0
M  V30 1149 O 105.717 -0.456414 -4.35716 0
M  V30 1150 C 107.218 1.34232 -4.22489 0
M  V30 1151 H 104.438 0.0513685 -0.669031 0
M  V30 1152 H 106.982 -0.488822 -1.98572 0
M  V30 1153 H 105.137 1.38148 -3.61931 0
M  V30 1154 H 105.551 -0.122564 -5.24357 0
M  V30 1155 H 107.025 1.58708 -5.28693 0
M  V30 1156 H 107.502 2.29426 -3.74514 0
M  V30 1157 H 108.108 0.684424 -4.19757 0
M  V30 1158 N 106.423 1.57458 -0.0668435 0
M  V30 1159 C 107.333 2.15937 0.916975 0
M  V30 1160 C 108.349 1.12123 1.33058 0
M  V30 1161 O 109.525 1.44366 1.40429 0
M  V30 1162 C 106.59 2.70547 2.16807 0
M  V30 1163 C 105.651 3.89215 1.81135 0
M  V30 1164 C 104.884 4.41211 3.0028 0
M  V30 1165 O 105.107 3.92225 4.14144 0
M  V30 1166 O 104.041 5.32605 2.80384 0
M  V30 1167 H 107.867 3.00354 0.449561 0
M  V30 1168 H 105.452 1.48584 0.155949 0
M  V30 1169 H 107.334 3.0557 2.90181 0
M  V30 1170 H 106.009 1.89192 2.62656 0
M  V30 1171 H 104.916 3.59054 1.05028 0
M  V30 1172 H 106.249 4.71848 1.40073 0
M  V30 1173 N 107.901 -0.206675 1.56239 0
M  V30 1174 C 108.848 -1.25617 1.93621 0
M  V30 1175 C 109.818 -1.45824 0.795274 0
M  V30 1176 O 111.003 -1.59148 1.05245 0
M  V30 1177 C 108.143 -2.59839 2.27107 0
M  V30 1178 C 107.256 -2.47308 3.54207 0
M  V30 1179 C 106.391 -3.74155 3.7707 0
M  V30 1180 C 105.43 -3.56407 4.97635 0
M  V30 1181 N 104.567 -4.75238 5.1681 0
M  V30 1182 H 109.407 -0.930383 2.83104 0
M  V30 1183 H 106.944 -0.448065 1.4011 0
M  V30 1184 H 108.902 -3.38021 2.44535 0
M  V30 1185 H 107.532 -2.90485 1.40778 0
M  V30 1186 H 106.584 -1.60483 3.4489 0
M  V30 1187 H 107.896 -2.30122 4.42544 0
M  V30 1188 H 107.05 -4.60778 3.94675 0
M  V30 1189 H 105.789 -3.94282 2.87042 0
M  V30 1190 H 104.794 -2.68168 4.79964 0
M  V30 1191 H 106.019 -3.37736 5.89161 0
M  V30 1192 H 103.965 -4.95651 4.29728 0
M  V30 1193 H 103.882 -4.60835 5.99306 0
M  V30 1194 H 105.15 -5.63246 5.38864 0
M  V30 1195 N 109.379 -1.50304 -0.473955 0
M  V30 1196 C 110.607 -1.64902 -1.24959 0
M  V30 1197 C 111.022 -0.331198 -1.85872 0
M  V30 1198 O 110.379 0.68652 -1.69095 0
M  V30 1199 C 110.43 -2.73803 -2.36038 0
M  V30 1200 O 110.151 -4.00477 -1.77624 0
M  V30 1201 C 111.652 -2.99349 -3.26964 0
M  V30 1202 H 108.872 -0.554383 -0.378022 0
M  V30 1203 H 111.416 -1.9651 -0.566054 0
M  V30 1204 H 109.571 -2.44898 -3.00173 0
M  V30 1205 H 109.985 -4.60678 -2.5075 0
M  V30 1206 H 111.459 -3.79217 -4.01121 0
M  V30 1207 H 111.936 -2.10307 -3.85574 0
M  V30 1208 H 112.542 -3.29774 -2.68569 0
M  V30 1209 N 110.857 0.726932 -1.39834 0
M  V30 1210 C 112.273 1.03354 -1.21615 0
M  V30 1211 C 112.473 2.01327 -0.08338 0
M  V30 1212 O 111.529 2.46158 0.56238 0
M  V30 1213 C 112.842 1.58811 -2.55342 0
M  V30 1214 C 114.39 1.70851 -2.62257 0
M  V30 1215 C 114.865 2.29716 -3.96225 0
M  V30 1216 N 116.356 2.37116 -3.97907 0
M  V30 1217 C 117.091 2.83619 -4.98345 0
M  V30 1218 N 116.587 3.29958 -6.09179 0
M  V30 1219 N 118.38 2.82901 -4.8572 0
M  V30 1220 H 110.531 0.0773069 -2.12259 0
M  V30 1221 H 112.794 0.0969102 -0.943034 0
M  V30 1222 H 112.5 0.942855 -3.38826 0
M  V30 1223 H 112.374 2.57502 -2.75632 0
M  V30 1224 H 114.761 2.34497 -1.79152 0
M  V30 1225 H 114.842 0.707913 -2.45809 0
M  V30 1226 H 114.486 1.66696 -4.79765 0
M  V30 1227 H 114.416 3.30469 -4.09997 0
M  V30 1228 H 116.907 2.04374 -3.17868 0
M  V30 1229 H 117.22 3.63976 -6.8172 0
M  V30 1230 H 115.565 3.27946 -6.12761 0
M  V30 1231 H 118.756 2.46027 -3.98231 0
M  V30 1232 H 118.929 3.18827 -5.6414 0
M  V30 1233 N 112.336 1.25143 0.95797 0
M  V30 1234 C 113.566 1.12261 1.73439 0
M  V30 1235 C 113.974 -0.326715 1.86358 0
M  V30 1236 O 113.317 -1.2367 1.35836 0
M  V30 1237 C 113.379 1.69966 3.16784 0
M  V30 1238 C 113.043 3.18936 3.27305 0
M  V30 1239 C 114.04 4.15968 3.11877 0
M  V30 1240 C 111.725 3.59083 3.51234 0
M  V30 1241 C 113.719 5.51126 3.20217 0
M  V30 1242 C 111.406 4.9438 3.5921 0
M  V30 1243 C 112.404 5.90211 3.43716 0
M  V30 1244 O 112.092 7.23046 3.51368 0
M  V30 1245 H 111.824 0.392476 0.550399 0
M  V30 1246 H 114.378 1.65927 1.21068 0
M  V30 1247 H 112.608 1.10744 3.70503 0
M  V30 1248 H 114.297 1.52232 3.76272 0
M  V30 1249 H 115.063 3.86292 2.93264 0
M  V30 1250 H 110.942 2.84989 3.62356 0
M  V30 1251 H 114.486 6.25905 3.0804 0
M  V30 1252 H 110.383 5.23723 3.77339 0
M  V30 1253 H 111.151 7.31097 3.6802 0
M  V30 1254 N 113.814 -1.1601 1.06675 0
M  V30 1255 C 114.777 -2.18724 0.685001 0
M  V30 1256 C 115.777 -1.58496 -0.271246 0
M  V30 1257 O 116.967 -1.74119 -0.0531156 0
M  V30 1258 C 114.099 -3.40899 0.00853648 0
M  V30 1259 H 115.292 -2.54011 1.59431 0
M  V30 1260 H 112.845 -1.30352 0.862441 0
M  V30 1261 H 113.58 -3.11173 -0.913337 0
M  V30 1262 H 113.365 -3.8587 0.696204 0
M  V30 1263 H 114.855 -4.16886 -0.24414 0
M  V30 1264 N 115.292 -0.849877 -1.32721 0
M  V30 1265 C 116.255 -0.296122 -2.27279 0
M  V30 1266 C 117.255 0.541458 -1.5141 0
M  V30 1267 O 118.445 0.353658 -1.70572 0
M  V30 1268 C 115.577 0.581579 -3.35902 0
M  V30 1269 H 116.77 -1.13064 -2.77771 0
M  V30 1270 H 114.323 -0.62383 -1.43311 0
M  V30 1271 H 115.058 1.43809 -2.9067 0
M  V30 1272 H 114.843 -0.0178814 -3.92096 0
M  V30 1273 H 116.333 0.961951 -4.0637 0
M  V30 1274 N 116.77 1.45427 -0.607355 0
M  V30 1275 C 117.7 2.3329 0.0989352 0
M  V30 1276 C 118.681 1.46816 0.859007 0
M  V30 1277 O 119.866 1.75588 0.829604 0
M  V30 1278 C 116.996 3.29518 1.09705 0
M  V30 1279 C 115.95 4.25626 0.450206 0
M  V30 1280 C 115.276 5.11542 1.55655 0
M  V30 1281 C 116.576 5.18505 -0.628455 0
M  V30 1282 H 118.27 2.92595 -0.634716 0
M  V30 1283 H 115.816 1.40696 -0.306681 0
M  V30 1284 H 117.769 3.89855 1.59971 0
M  V30 1285 H 116.493 2.68372 1.86129 0
M  V30 1286 H 115.152 3.66586 -0.0315886 0
M  V30 1287 H 114.8 4.46765 2.31107 0
M  V30 1288 H 114.5 5.76647 1.12925 0
M  V30 1289 H 116.024 5.74748 2.06148 0
M  V30 1290 H 117.438 5.72916 -0.209877 0
M  V30 1291 H 115.835 5.92085 -0.977489 0
M  V30 1292 H 116.905 4.60948 -1.50514 0
M  V30 1293 N 118.248 0.346503 1.53744 0
M  V30 1294 C 119.497 -0.250122 2.00143 0
M  V30 1295 C 119.81 -1.51418 1.23822 0
M  V30 1296 O 121.016 -2.18823 1.60713 0
M  V30 1297 C 119.472 -0.496252 3.56462 0
M  V30 1298 C 119.08 0.752077 4.41642 0
M  V30 1299 C 120.824 -1.05157 4.11269 0
M  V30 1300 C 118.731 0.476583 5.89477 0
M  V30 1301 H 117.661 -0.0972409 0.747703 0
M  V30 1302 H 120.312 0.46229 1.77581 0
M  V30 1303 H 118.694 -1.26944 3.75102 0
M  V30 1304 H 119.868 1.5266 4.34778 0
M  V30 1305 H 118.183 1.22925 3.97842 0
M  V30 1306 H 120.78 -1.27269 5.19333 0
M  V30 1307 H 121.123 -2.00799 3.64672 0
M  V30 1308 H 121.656 -0.339019 3.96353 0
M  V30 1309 H 118.395 1.4028 6.40314 0
M  V30 1310 H 117.915 -0.259794 5.99237 0
M  V30 1311 H 119.594 0.0949315 6.4693 0
M  V30 1312 N 119.726 -1.57421 0.075193 0
M  V30 1313 C 120.674 -2.14124 -0.908508 0
M  V30 1314 C 121.668 -1.07898 -1.30592 0
M  V30 1315 O 122.874 -1.26273 -1.28277 0
M  V30 1316 H 119.249 -0.684707 -0.310935 0
M  V30 1317 H 121.22 -2.95634 -0.405374 0
M  V30 1318 C 119.969 -2.72044 -2.16535 0
M  V30 1319 H 119.292 -3.53456 -1.86839 0
M  V30 1320 H 120.732 -3.15311 -2.83469 0
M  V30 1321 C 119.191 -1.66968 -2.92615 0
M  V30 1322 O 119.721 -1.0967 -3.86439 0
M  V30 1323 N 117.927 -1.37923 -2.55784 0
M  V30 1324 H 117.474 -1.84706 -1.79559 0
M  V30 1325 H 117.432 -0.67852 -3.06991 0
M  V30 1326 N 121.204 0.198386 -1.56346 0
M  V30 1327 C 122.136 1.26987 -1.90806 0
M  V30 1328 C 123.149 1.41877 -0.798419 0
M  V30 1329 O 124.338 1.42362 -1.07682 0
M  V30 1330 C 121.438 2.64246 -2.12196 0
M  V30 1331 C 120.611 2.71007 -3.43328 0
M  V30 1332 C 119.67 3.89439 -3.5387 0
M  V30 1333 O 118.696 3.76695 -4.26719 0
M  V30 1334 N 119.898 5.04752 -2.86715 0
M  V30 1335 H 122.663 0.977433 -2.83313 0
M  V30 1336 H 120.224 0.388322 -1.57174 0
M  V30 1337 H 122.216 3.41896 -2.1654 0
M  V30 1338 H 120.786 2.85992 -1.26204 0
M  V30 1339 H 120.006 1.79657 -3.50881 0
M  V30 1340 H 121.294 2.72512 -4.29668 0
M  V30 1341 H 120.692 5.18004 -2.2735 0
M  V30 1342 H 119.249 5.8036 -2.96691 0
M  V30 1343 N 122.682 1.50554 0.465978 0
M  V30 1344 C 123.645 1.69233 1.54574 0
M  V30 1345 C 124.645 0.562901 1.50626 0
M  V30 1346 O 125.835 0.830016 1.53155 0
M  V30 1347 C 122.967 1.7223 2.94193 0
M  V30 1348 H 124.16 2.65571 1.39327 0
M  V30 1349 H 121.713 1.40111 0.692711 0
M  V30 1350 H 122.448 0.77603 3.14878 0
M  V30 1351 H 122.233 2.54285 2.98466 0
M  V30 1352 H 123.723 1.88618 3.72576 0
M  V30 1353 N 124.16 -0.719506 1.40217 0
M  V30 1354 C 125.409 -1.47486 1.37589 0
M  V30 1355 C 125.722 -1.9559 -0.0201568 0
M  V30 1356 O 126.928 -2.70973 -0.169049 0
M  V30 1357 C 125.384 -2.66575 2.41796 0
M  V30 1358 C 124.992 -2.25358 3.87192 0
M  V30 1359 C 126.736 -3.4433 2.48269 0
M  V30 1360 C 124.643 -3.41262 4.83005 0
M  V30 1361 H 123.573 -0.553901 0.511576 0
M  V30 1362 H 126.224 -0.783427 1.65936 0
M  V30 1363 H 124.606 -3.3787 2.06543 0
M  V30 1364 H 125.78 -1.61509 4.31569 0
M  V30 1365 H 124.095 -1.60657 3.84159 0
M  V30 1366 H 126.692 -4.30569 3.17041 0
M  V30 1367 H 127.035 -3.87872 1.51198 0
M  V30 1368 H 127.568 -2.80076 2.82493 0
M  V30 1369 H 124.307 -3.02755 5.81394 0
M  V30 1370 H 123.827 -4.0404 4.43297 0
M  V30 1371 H 125.506 -4.07383 5.02641 0
M  V30 1372 N 125.638 -1.25649 -0.95132 0
M  V30 1373 C 126.548 -1.08073 -2.08224 0
M  V30 1374 C 127.564 -0.0169666 -1.73992 0
M  V30 1375 O 128.74 -0.218593 -2.0021 0
M  V30 1376 C 125.805 -0.704922 -3.39458 0
M  V30 1377 C 124.866 -1.84699 -3.87537 0
M  V30 1378 C 124.099 -1.48902 -5.12508 0
M  V30 1379 O 124.322 -0.386156 -5.69091 0
M  V30 1380 O 123.256 -2.32033 -5.55378 0
M  V30 1381 H 127.082 -2.02924 -2.25954 0
M  V30 1382 H 124.667 -1.04618 -1.06656 0
M  V30 1383 H 126.549 -0.507609 -4.18332 0
M  V30 1384 H 125.224 0.214291 -3.2299 0
M  V30 1385 H 124.131 -2.09919 -3.09653 0
M  V30 1386 H 125.464 -2.74557 -4.08509 0
M  V30 1387 N 127.117 1.15442 -1.07289 0
M  V30 1388 C 128.05 2.19135 -0.636798 0
M  V30 1389 C 129.028 1.58884 0.34562 0
M  V30 1390 O 130.212 1.86805 0.252195 0
M  V30 1391 C 127.339 3.38638 0.0650014 0
M  V30 1392 C 126.385 4.17412 -0.87576 0
M  V30 1393 S 127.218 4.79882 -2.37642 0
M  V30 1394 C 128.374 6.02753 -1.6864 0
M  V30 1395 H 128.607 2.55787 -1.51526 0
M  V30 1396 H 126.14 1.26394 -0.886793 0
M  V30 1397 H 128.098 4.07873 0.463664 0
M  V30 1398 H 126.759 3.00331 0.919801 0
M  V30 1399 H 125.952 5.02909 -0.33143 0
M  V30 1400 H 125.554 3.53722 -1.21478 0
M  V30 1401 H 127.846 6.70113 -0.997753 0
M  V30 1402 H 128.789 6.61754 -2.51967 0
M  V30 1403 H 129.197 5.52355 -1.16465 0
M  V30 1404 N 128.595 0.856903 1.32268 0
M  V30 1405 C 129.558 0.308171 2.27119 0
M  V30 1406 C 130.558 -0.533421 1.51695 0
M  V30 1407 O 131.748 -0.344607 1.70757 0
M  V30 1408 C 128.88 -0.563757 3.36206 0
M  V30 1409 H 130.073 1.14535 2.77167 0
M  V30 1410 H 127.626 0.631421 1.42978 0
M  V30 1411 H 128.361 -1.42266 2.91429 0
M  V30 1412 H 128.146 0.0386749 3.92081 0
M  V30 1413 H 129.636 -0.940386 4.06874 0
M  V30 1414 N 130.073 -1.45103 0.615059 0
M  V30 1415 C 130.983 -2.34382 -0.101034 0
M  V30 1416 C 131.999 -1.51681 -0.852585 0
M  V30 1417 O 133.175 -1.8446 -0.808484 0
M  V30 1418 C 130.24 -3.29417 -1.08099 0
M  V30 1419 C 129.301 -4.28025 -0.330577 0
M  V30 1420 C 128.534 -5.1852 -1.26385 0
M  V30 1421 O 128.757 -5.12598 -2.50198 0
M  V30 1422 O 127.691 -5.97122 -0.756866 0
M  V30 1423 H 131.517 -2.97033 0.632855 0
M  V30 1424 H 129.102 -1.4461 0.375293 0
M  V30 1425 H 130.984 -3.87958 -1.6452 0
M  V30 1426 H 129.659 -2.69321 -1.79577 0
M  V30 1427 H 128.566 -3.73078 0.276283 0
M  V30 1428 H 129.899 -4.90997 0.343866 0
M  V30 1429 N 131.551 -0.354651 -1.53558 0
M  V30 1430 C 132.799 0.237972 -2.00694 0
M  V30 1431 C 133.12 1.50173 -1.24391 0
M  V30 1432 O 132.39 1.92673 -0.354135 0
M  V30 1433 H 130.97 0.0909256 -0.741446 0
M  V30 1434 H 133.632 -0.478368 -1.88938 0
M  V30 1435 H 132.728 0.47264 -3.085 0
M  V30 1436 N 133.029 1.57378 -0.0835403 0
M  V30 1437 C 133.939 2.16897 0.894021 0
M  V30 1438 C 134.955 1.13528 1.31861 0
M  V30 1439 O 136.131 1.45848 1.3889 0
M  V30 1440 C 133.196 2.72831 2.13925 0
M  V30 1441 C 132.257 3.91115 1.76997 0
M  V30 1442 C 131.49 4.44371 2.95584 0
M  V30 1443 O 131.713 3.96596 4.09961 0
M  V30 1444 O 130.647 5.35549 2.74719 0
M  V30 1445 H 134.473 3.00814 0.417679 0
M  V30 1446 H 132.058 1.48741 0.140181 0
M  V30 1447 H 133.94 3.0863 2.86924 0
M  V30 1448 H 132.615 1.91967 2.60635 0
M  V30 1449 H 131.522 3.60148 1.01214 0
M  V30 1450 H 132.855 4.73307 1.3506 0
M  V30 1451 N 134.507 -0.190092 1.56449 0
M  V30 1452 C 135.737 -0.92443 1.84764 0
M  V30 1453 C 136.145 -1.77146 0.664529 0
M  V30 1454 O 135.488 -1.79812 -0.375957 0
M  V30 1455 C 135.55 -1.86651 3.07248 0
M  V30 1456 C 135.214 -1.20094 4.40938 0
M  V30 1457 C 136.211 -0.575445 5.16706 0
M  V30 1458 C 133.896 -1.2033 4.87674 0
M  V30 1459 C 135.89 0.0388111 6.37388 0
M  V30 1460 C 133.577 -0.585214 6.08291 0
M  V30 1461 C 134.575 0.0347578 6.82991 0
M  V30 1462 O 134.263 0.643147 8.01323 0
M  V30 1463 H 133.995 -0.274974 0.617548 0
M  V30 1464 H 136.549 -0.200788 2.04416 0
M  V30 1465 H 134.779 -2.62998 2.83494 0
M  V30 1466 H 136.468 -2.46907 3.22167 0
M  V30 1467 H 137.234 -0.565728 4.81689 0
M  V30 1468 H 133.113 -1.67526 4.29484 0
M  V30 1469 H 136.657 0.523329 6.95634 0
M  V30 1470 H 132.554 -0.592451 6.42775 0
M  V30 1471 H 133.322 0.540545 8.16713 0
M  V30 1472 N 135.985 -1.50799 -0.457987 0
M  V30 1473 C 137.234 -1.6168 -1.20593 0
M  V30 1474 C 137.547 -0.32888 -1.92815 0
M  V30 1475 O 138.753 -0.316773 -2.69646 0
M  V30 1476 C 137.209 -2.8545 -2.19195 0
M  V30 1477 C 136.817 -4.21168 -1.52715 0
M  V30 1478 C 138.561 -3.05681 -2.94549 0
M  V30 1479 C 136.468 -5.3611 -2.4968 0
M  V30 1480 H 135.398 -0.602134 -0.453818 0
M  V30 1481 H 138.049 -1.77245 -0.475031 0
M  V30 1482 H 136.431 -2.63472 -2.95632 0
M  V30 1483 H 137.605 -4.53449 -0.819775 0
M  V30 1484 H 135.92 -4.06648 -0.895922 0
M  V30 1485 H 138.517 -3.88727 -3.67145 0
M  V30 1486 H 138.86 -2.17929 -3.54701 0
M  V30 1487 H 139.393 -3.27901 -2.25223 0
M  V30 1488 H 136.132 -6.26057 -1.94249 0
M  V30 1489 H 135.652 -5.0823 -3.18532 0
M  V30 1490 H 137.331 -5.6722 -3.11241 0
M  V30 1491 N 137.463 0.71206 -1.40597 0
M  V30 1492 C 138.691 1.50111 -1.42388 0
M  V30 1493 C 139.106 1.88784 -0.0245395 0
M  V30 1494 O 138.463 1.55681 0.952351 0
M  V30 1495 C 138.514 2.7742 -2.31776 0
M  V30 1496 O 138.235 2.40382 -3.66262 0
M  V30 1497 C 139.736 3.7129 -2.42196 0
M  V30 1498 H 136.956 0.46314 -0.485533 0
M  V30 1499 H 139.5 0.878068 -1.8469 0
M  V30 1500 H 137.655 3.36001 -1.92827 0
M  V30 1501 H 138.069 3.22324 -4.13772 0
M  V30 1502 H 139.543 4.57448 -3.08943 0
M  V30 1503 H 140.02 4.14641 -1.44809 0
M  V30 1504 H 140.626 3.18619 -2.81712 0
M  V30 1505 N 138.941 1.26152 0.944643 0
M  V30 1506 C 140.171 1.14094 1.72239 0
M  V30 1507 C 140.579 -0.306931 1.86694 0
M  V30 1508 O 139.922 -1.22222 1.3714 0
M  V30 1509 C 139.984 1.73316 3.14963 0
M  V30 1510 C 139.648 3.2239 3.23904 0
M  V30 1511 C 140.645 4.19252 3.07447 0
M  V30 1512 C 138.33 3.62788 3.47405 0
M  V30 1513 C 140.324 5.54491 3.14353 0
M  V30 1514 C 138.011 4.98162 3.53947 0
M  V30 1515 C 139.009 5.93823 3.37436 0
M  V30 1516 O 138.697 7.26732 3.43679 0
M  V30 1517 H 138.429 0.398292 0.546205 0
M  V30 1518 H 140.983 1.67201 1.19301 0
M  V30 1519 H 139.213 1.14667 3.69308 0
M  V30 1520 H 140.902 1.56214 3.74636 0
M  V30 1521 H 141.668 3.8938 2.8915 0
M  V30 1522 H 137.547 2.88816 3.59313 0
M  V30 1523 H 141.091 6.29137 3.01384 0
M  V30 1524 H 136.988 5.27695 3.71763 0
M  V30 1525 H 137.756 7.3496 3.60245 0
M  V30 1526 N 140.419 -1.14872 1.07899 0
M  V30 1527 C 141.382 -2.17986 0.708161 0
M  V30 1528 C 142.382 -1.58775 -0.25442 0
M  V30 1529 O 143.572 -1.74166 -0.034645 0
M  V30 1530 C 140.704 -3.40871 0.0446929 0
M  V30 1531 H 141.897 -2.52306 1.62116 0
M  V30 1532 H 139.45 -1.2943 0.876218 0
M  V30 1533 H 140.185 -3.12124 -0.880281 0
M  V30 1534 H 139.97 -3.8511 0.737091 0
M  V30 1535 H 141.46 -4.17121 -0.19991 0
M  V30 1536 N 141.898 -0.863906 -1.31812 0
M  V30 1537 C 143.126 -0.486111 -2.01108 0
M  V30 1538 C 143.541 0.919755 -1.64882 0
M  V30 1539 O 142.898 1.60162 -0.874893 0
M  V30 1540 C 142.949 -0.626435 -3.56031 0
M  V30 1541 O 142.67 -1.97693 -3.90959 0
M  V30 1542 C 144.171 -0.248857 -4.42601 0
M  V30 1543 H 141.391 -0.190052 -0.643523 0
M  V30 1544 H 143.935 -1.1634 -1.68182 0
M  V30 1545 H 142.09 0.00322717 -3.874 0
M  V30 1546 H 142.504 -1.98034 -4.85678 0
M  V30 1547 H 143.978 -0.398016 -5.50563 0
M  V30 1548 H 144.455 0.811489 -4.31638 0
M  V30 1549 H 145.061 -0.853971 -4.16638 0
M  V30 1550 N 143.376 1.44774 -0.622745 0
M  V30 1551 C 144.653 1.95522 -0.0551974 0
M  V30 1552 C 145.033 1.5649 1.41683 0
M  V30 1553 O 144.381 0.834848 2.12703 0
M  V30 1554 C 144.591 3.4796 -0.269242 0
M  V30 1555 C 145.939 4.24306 -0.158014 0
M  V30 1556 O 146.963 3.55637 -0.200162 0
M  V30 1557 O 145.822 5.46471 -0.0558693 0
M  V30 1558 H 142.916 0.826556 0.0271015 0
M  V30 1559 H 145.462 1.54866 -0.693864 0
M  V30 1560 H 144.234 3.6939 -1.29099 0
M  V30 1561 H 143.857 3.95543 0.403966 0
M  V30 1562 N 144.854 0.36279 1.53368 0
M  V30 1563 C 146.131 -0.284021 1.93527 0
M  V30 1564 C 146.511 -1.66628 1.29608 0
M  V30 1565 O 145.859 -2.23942 0.45413 0
M  V30 1566 C 146.069 -0.337028 3.47369 0
M  V30 1567 C 147.417 -0.578708 4.20638 0
M  V30 1568 O 148.441 -0.418352 3.53735 0
M  V30 1569 O 147.3 -0.89074 5.39192 0
M  V30 1570 H 144.394 -0.169743 0.809393 0
M  V30 1571 H 146.94 0.41537 1.64538 0
M  V30 1572 H 145.712 0.632217 3.86159 0
M  V30 1573 H 145.335 -1.08243 3.82582 0
M  V30 1574 N 146.332 -1.57332 0.0918853 0
M  V30 1575 C 147.28 -2.15075 -0.885747 0
M  V30 1576 C 148.274 -1.09277 -1.29441 0
M  V30 1577 O 149.48 -1.27627 -1.26931 0
M  V30 1578 H 145.855 -0.687966 -0.303656 0
M  V30 1579 H 147.826 -2.96047 -0.373995 0
M  V30 1580 C 146.575 -2.74325 -2.13638 0
M  V30 1581 H 145.898 -3.55418 -1.8308 0
M  V30 1582 H 147.338 -3.183 -2.80109 0
M  V30 1583 C 145.797 -1.70062 -2.90827 0
M  V30 1584 O 146.327 -1.13763 -3.85254 0
M  V30 1585 N 144.533 -1.40628 -2.54307 0
M  V30 1586 H 144.08 -1.866 -1.7759 0
M  V30 1587 H 144.038 -0.711043 -3.06254 0
M  V30 1588 N 147.81 0.181792 -1.56548 0
M  V30 1589 C 149.059 0.898348 -1.8059 0
M  V30 1590 C 149.372 1.83862 -0.667379 0
M  V30 1591 O 150.578 2.59678 -0.792446 0
M  V30 1592 C 149.034 1.64791 -3.19956 0
M  V30 1593 C 148.642 0.751789 -4.41647 0
M  V30 1594 C 150.386 2.35331 -3.53298 0
M  V30 1595 C 148.293 1.50098 -5.72035 0
M  V30 1596 H 147.223 0.339194 -0.673397 0
M  V30 1597 H 149.874 0.151413 -1.82874 0
M  V30 1598 H 148.256 2.43921 -3.11959 0
M  V30 1599 H 149.43 -0.0018076 -4.608 0
M  V30 1600 H 147.745 0.156562 -4.16106 0
M  V30 1601 H 150.342 2.91958 -4.47956 0
M  V30 1602 H 150.685 3.10164 -2.77676 0
M  V30 1603 H 151.218 1.63154 -3.62803 0
M  V30 1604 H 147.957 0.795175 -6.50659 0
M  V30 1605 H 147.477 2.22817 -5.56878 0
M  V30 1606 H 149.156 2.05125 -6.13622 0
M  V30 1607 N 149.288 1.51039 0.449983 0
M  V30 1608 C 150.518 1.66627 1.22143 0
M  V30 1609 C 150.926 0.357776 1.85786 0
M  V30 1610 O 150.269 -0.672424 1.70951 0
M  V30 1611 C 150.331 2.71562 2.35573 0
M  V30 1612 C 149.995 4.14526 1.92399 0
M  V30 1613 C 150.992 4.99717 1.43453 0
M  V30 1614 C 148.677 4.60559 2.00475 0
M  V30 1615 C 150.671 6.28998 1.03155 0
M  V30 1616 C 148.358 5.8984 1.59788 0
M  V30 1617 C 149.356 6.73886 1.11208 0
M  V30 1618 O 149.044 8.0075 0.710935 0
M  V30 1619 H 148.776 0.562635 0.374724 0
M  V30 1620 H 151.33 1.98146 0.541036 0
M  V30 1621 H 149.56 2.3533 3.06849 0
M  V30 1622 H 151.249 2.76156 2.97478 0
M  V30 1623 H 152.015 4.65361 1.36618 0
M  V30 1624 H 147.894 3.95273 2.37235 0
M  V30 1625 H 151.438 6.9455 0.651663 0
M  V30 1626 H 147.335 6.23713 1.66289 0
M  V30 1627 H 148.103 8.142 0.837913 0
M  V30 1628 N 150.766 -0.704594 1.40972 0
M  V30 1629 C 151.699 -1.82861 1.36518 0
M  V30 1630 C 152.677 -1.6091 0.23382 0
M  V30 1631 O 153.861 -1.83778 0.419271 0
M  V30 1632 C 150.988 -3.1939 1.12729 0
M  V30 1633 C 150.034 -3.60148 2.28463 0
M  V30 1634 S 150.867 -3.65994 3.90907 0
M  V30 1635 C 152.023 -5.05264 3.69403 0
M  V30 1636 H 152.256 -1.86361 2.3164 0
M  V30 1637 H 149.789 -0.872439 1.27389 0
M  V30 1638 H 151.747 -3.98211 0.996893 0
M  V30 1639 H 150.408 -3.1351 0.192427 0
M  V30 1640 H 149.601 -4.59309 2.07489 0
M  V30 1641 H 149.203 -2.88612 2.37863 0
M  V30 1642 H 151.495 -5.92504 3.28551 0
M  V30 1643 H 152.438 -5.31278 4.68134 0
M  V30 1644 H 152.846 -4.76377 3.02862 0
M  V30 1645 N 152.244 -1.26651 -0.937939 0
M  V30 1646 C 153.655 -1.1125 -1.49934 0
M  V30 1647 C 154.006 0.306077 -1.93798 0
M  V30 1648 O 153.131 1.19792 -1.80219 0
M  V30 1649 C 153.726 -2.01339 -2.72485 0
M  V30 1650 C 152.285 -1.90074 -3.24883 0
M  V30 1651 C 151.432 -1.94498 -1.97651 0
M  V30 1652 H 154.383 -1.39693 -0.753091 0
M  V30 1653 H 154.404 -1.56319 -3.46907 0
M  V30 1654 H 153.916 -3.04577 -2.40529 0
M  V30 1655 H 152.017 -0.897827 -3.61621 0
M  V30 1656 H 152.13 -2.75778 -3.9177 0
M  V30 1657 H 150.494 -1.38591 -2.13693 0
M  V30 1658 H 151.277 -2.99372 -1.68022 0
M  V30 1659 N 153.722 1.14298 -1.08507 0
M  V30 1660 C 154.999 1.81544 -0.728088 0
M  V30 1661 C 155.379 1.95838 0.78808 0
M  V30 1662 O 154.727 1.51904 1.70697 0
M  V30 1663 C 154.937 3.17169 -1.45619 0
M  V30 1664 C 156.285 3.9265 -1.61591 0
M  V30 1665 O 157.309 3.26762 -1.41793 0
M  V30 1666 O 156.168 5.10807 -1.94263 0
M  V30 1667 H 153.262 0.78491 -0.260471 0
M  V30 1668 H 155.808 1.21307 -1.18671 0
M  V30 1669 H 154.58 3.01934 -2.489 0
M  V30 1670 H 154.203 3.851 -0.989124 0
M  V30 1671 N 155.201 0.870884 1.31352 0
M  V30 1672 C 156.617 0.562932 1.49343 0
M  V30 1673 C 156.817 -0.902725 1.80148 0
M  V30 1674 O 155.873 -1.68484 1.88067 0
M  V30 1675 C 157.186 1.46393 2.62659 0
M  V30 1676 C 158.734 1.46607 2.76542 0
M  V30 1677 C 159.209 2.35266 3.92955 0
M  V30 1678 N 160.7 2.33151 4.00243 0
M  V30 1679 C 161.435 2.98471 4.89594 0
M  V30 1680 N 160.931 3.72964 5.8384 0
M  V30 1681 N 162.724 2.87775 4.82848 0
M  V30 1682 H 154.875 1.81923 1.09626 0
M  V30 1683 H 157.138 0.777934 0.541777 0
M  V30 1684 H 156.844 2.50689 2.46674 0
M  V30 1685 H 156.718 1.16314 3.58819 0
M  V30 1686 H 159.105 0.43069 2.9194 0
M  V30 1687 H 159.186 1.8071 1.81046 0
M  V30 1688 H 158.83 3.38881 3.78315 0
M  V30 1689 H 158.76 1.98487 4.87761 0
M  V30 1690 H 161.251 1.79006 3.32814 0
M  V30 1691 H 161.564 4.19932 6.4875 0
M  V30 1692 H 159.909 3.77073 5.83816 0
M  V30 1693 H 163.1 2.29116 4.08195 0
M  V30 1694 H 163.273 3.38961 5.52277 0
M  V30 1695 N 156.679 -1.44442 0.630414 0
M  V30 1696 C 157.609 -2.33418 -0.0618083 0
M  V30 1697 C 158.59 -1.48165 -0.835541 0
M  V30 1698 O 159.775 -1.76886 -0.801564 0
M  V30 1699 C 156.905 -3.31222 -1.04449 0
M  V30 1700 C 155.859 -4.26288 -0.382436 0
M  V30 1701 C 155.185 -5.13954 -1.47497 0
M  V30 1702 C 156.485 -5.1744 0.710865 0
M  V30 1703 H 158.179 -2.91548 0.681184 0
M  V30 1704 H 155.725 -1.40191 0.329026 0
M  V30 1705 H 157.678 -3.92351 -1.53748 0
M  V30 1706 H 156.402 -2.71299 -1.81836 0
M  V30 1707 H 155.061 -3.6649 0.0899054 0
M  V30 1708 H 154.709 -4.50385 -2.2397 0
M  V30 1709 H 154.409 -5.7837 -1.03737 0
M  V30 1710 H 155.933 -5.77955 -1.96979 0
M  V30 1711 H 157.347 -5.72509 0.300996 0
M  V30 1712 H 155.744 -5.90455 1.07156 0
M  V30 1713 H 156.814 -4.58496 1.57829 0
M  V30 1714 N 158.157 -0.370918 -1.53173 0
M  V30 1715 C 159.087 0.464847 -2.28826 0
M  V30 1716 C 160.068 1.07936 -1.31468 0
M  V30 1717 O 161.253 1.0956 -1.60344 0
M  V30 1718 C 158.383 1.60196 -3.08147 0
M  V30 1719 C 157.337 1.11443 -4.13237 0
M  V30 1720 C 156.663 2.3422 -4.80672 0
M  V30 1721 C 157.963 0.195384 -5.21934 0
M  V30 1722 H 159.657 -0.166329 -2.98938 0
M  V30 1723 H 157.203 -0.0814359 -1.4377 0
M  V30 1724 H 159.156 2.19332 -3.59822 0
M  V30 1725 H 157.88 2.26045 -2.35735 0
M  V30 1726 H 156.539 0.545727 -3.62515 0
M  V30 1727 H 156.187 2.98537 -4.04827 0
M  V30 1728 H 155.887 2.02269 -5.51689 0
M  V30 1729 H 157.411 2.94032 -5.35143 0
M  V30 1730 H 158.825 0.694375 -5.69079 0
M  V30 1731 H 157.222 -0.0335027 -6.00091 0
M  V30 1732 H 158.292 -0.760961 -4.78892 0
M  V30 1733 N 159.635 1.57281 -0.100228 0
M  V30 1734 C 160.582 2.14305 0.856858 0
M  V30 1735 C 161.552 1.06296 1.27634 0
M  V30 1736 O 162.737 1.34109 1.35718 0
M  V30 1737 C 159.877 2.73184 2.10866 0
M  V30 1738 C 158.99 3.95442 1.73925 0
M  V30 1739 C 158.125 4.42468 2.93931 0
M  V30 1740 C 157.164 5.57303 2.5314 0
M  V30 1741 N 156.301 5.99158 3.65997 0
M  V30 1742 H 161.141 2.95772 0.363726 0
M  V30 1743 H 158.678 1.46139 0.167858 0
M  V30 1744 H 160.636 3.05442 2.84185 0
M  V30 1745 H 159.266 1.94437 2.57671 0
M  V30 1746 H 158.318 3.69464 0.905554 0
M  V30 1747 H 159.63 4.78769 1.39935 0
M  V30 1748 H 158.784 4.76537 3.75496 0
M  V30 1749 H 157.523 3.58052 3.31134 0
M  V30 1750 H 156.528 5.22857 1.70003 0
M  V30 1751 H 157.753 6.43471 2.17075 0
M  V30 1752 H 155.699 5.17687 4.02909 0
M  V30 1753 H 155.616 6.77295 3.35869 0
M  V30 1754 H 156.884 6.3786 4.48057 0
M  V30 1755 N 161.113 -0.173488 1.56642 0
M  V30 1756 C 162.046 -1.24353 1.91342 0
M  V30 1757 C 163.024 -1.4289 0.775965 0
M  V30 1758 O 164.208 -1.57932 1.02907 0
M  V30 1759 C 161.335 -2.60683 2.16245 0
M  V30 1760 C 160.381 -2.58894 3.38934 0
M  V30 1761 S 161.214 -2.0819 4.93373 0
M  V30 1762 C 162.37 -3.46302 5.21369 0
M  V30 1763 H 162.603 -0.947345 2.81803 0
M  V30 1764 H 160.136 -0.377958 1.49703 0
M  V30 1765 H 162.094 -3.39149 2.31275 0
M  V30 1766 H 160.755 -2.87502 1.26496 0
M  V30 1767 H 159.948 -3.59188 3.53553 0
M  V30 1768 H 159.55 -1.88522 3.2301 0
M  V30 1769 H 161.842 -4.42287 5.13214 0
M  V30 1770 H 162.785 -3.3656 6.23003 0
M  V30 1771 H 163.193 -3.42214 4.48943 0
M  V30 1772 N 162.591 -1.51276 -0.441967 0
M  V30 1773 C 163.837 -1.63958 -1.19355 0
M  V30 1774 C 164.17 -0.352543 -1.90973 0
M  V30 1775 O 163.445 0.647627 -1.83401 0
M  V30 1776 C 163.728 -2.83979 -2.21422 0
M  V30 1777 C 163.581 -4.22646 -1.53918 0
M  V30 1778 C 164.9 -2.99521 -3.22451 0
M  V30 1779 H 162.019 -0.596709 -0.432559 0
M  V30 1780 H 164.661 -1.83748 -0.483398 0
M  V30 1781 H 162.811 -2.67237 -2.81987 0
M  V30 1782 H 164.483 -4.51045 -0.967256 0
M  V30 1783 H 162.726 -4.25558 -0.841615 0
M  V30 1784 H 163.397 -5.02609 -2.28229 0
M  V30 1785 H 165.873 -3.14944 -2.71937 0
M  V30 1786 H 164.749 -3.85072 -3.91166 0
M  V30 1787 H 165.01 -2.11391 -3.88287 0
M  V30 1788 N 164.069 0.697108 -1.41344 0
M  V30 1789 C 165.485 1.00751 -1.2378 0
M  V30 1790 C 165.685 2.01105 -0.126066 0
M  V30 1791 O 164.741 2.47295 0.51004 0
M  V30 1792 C 166.054 1.53359 -2.58653 0
M  V30 1793 C 167.602 1.6525 -2.65822 0
M  V30 1794 C 168.077 2.2126 -4.01009 0
M  V30 1795 N 169.568 2.28622 -4.02847 0
M  V30 1796 C 170.303 2.72984 -5.04249 0
M  V30 1797 N 169.799 3.16962 -6.16041 0
M  V30 1798 N 171.592 2.72534 -4.91611 0
M  V30 1799 H 163.743 0.0322662 -2.12375 0
M  V30 1800 H 166.006 0.0768853 -0.944877 0
M  V30 1801 H 165.712 0.870773 -3.4075 0
M  V30 1802 H 165.586 2.51597 -2.81032 0
M  V30 1803 H 167.973 2.30644 -1.84086 0
M  V30 1804 H 168.054 0.655614 -2.47256 0
M  V30 1805 H 167.698 1.56482 -4.83193 0
M  V30 1806 H 167.628 3.21698 -4.16915 0
M  V30 1807 H 170.119 1.97585 -3.22131 0
M  V30 1808 H 170.432 3.49434 -6.89287 0
M  V30 1809 H 168.777 3.14875 -6.1958 0
M  V30 1810 H 171.968 2.37525 -4.0336 0
M  V30 1811 H 172.141 3.06789 -5.70775 0
M  V30 1812 N 165.547 1.27147 0.931209 0
M  V30 1813 C 166.457 1.11372 2.06478 0
M  V30 1814 C 167.473 0.044645 1.73943 0
M  V30 1815 O 168.649 0.250417 1.99837 0
M  V30 1816 C 165.714 0.758838 3.38294 0
M  V30 1817 C 164.775 1.90841 3.84549 0
M  V30 1818 C 164.008 1.57036 5.10074 0
M  V30 1819 O 164.231 0.476645 5.68405 0
M  V30 1820 O 163.165 2.40839 5.51616 0
M  V30 1821 H 166.991 2.06493 2.22698 0
M  V30 1822 H 164.576 1.06301 1.04978 0
M  V30 1823 H 166.458 0.574098 4.17471 0
M  V30 1824 H 165.133 -0.162879 3.2329 0
M  V30 1825 H 164.04 2.14819 3.06274 0
M  V30 1826 H 165.373 2.81021 4.04089 0
M  V30 1827 N 167.025 -1.13721 1.09112 0
M  V30 1828 C 167.955 -2.21148 0.749385 0
M  V30 1829 C 168.936 -1.6792 -0.271475 0
M  V30 1830 O 170.121 -1.93693 -0.140251 0
M  V30 1831 C 167.251 -3.46905 0.165659 0
M  V30 1832 C 166.205 -4.13203 1.11567 0
M  V30 1833 C 165.531 -5.33248 0.393809 0
M  V30 1834 C 166.831 -4.60912 2.45678 0
M  V30 1835 H 168.525 -2.4999 1.64758 0
M  V30 1836 H 166.071 -1.20156 0.793626 0
M  V30 1837 H 168.024 -4.21313 -0.085466 0
M  V30 1838 H 166.748 -3.17449 -0.767714 0
M  V30 1839 H 165.407 -3.40758 1.35202 0
M  V30 1840 H 165.055 -5.00054 -0.543599 0
M  V30 1841 H 164.755 -5.78552 1.02721 0
M  V30 1842 H 166.279 -6.10413 0.150908 0
M  V30 1843 H 167.693 -5.26759 2.26269 0
M  V30 1844 H 166.09 -5.16944 3.04776 0
M  V30 1845 H 167.16 -3.75603 3.06677 0
M  V30 1846 N 168.503 -0.877838 -1.30888 0
M  V30 1847 C 169.78 -0.413052 -1.91189 0
M  V30 1848 C 170.16 1.1056 -1.79832 0
M  V30 1849 O 169.508 1.93771 -1.21099 0
M  V30 1850 C 169.718 -0.903191 -3.3711 0
M  V30 1851 C 171.066 -0.93395 -4.14201 0
M  V30 1852 O 172.09 -0.849373 -3.45925 0
M  V30 1853 O 170.949 -1.05772 -5.36167 0
M  V30 1854 H 168.043 -0.125035 -0.817493 0
M  V30 1855 H 170.589 -0.966269 -1.39504 0
M  V30 1856 H 169.361 -1.94692 -3.39427 0
M  V30 1857 H 168.984 -0.328732 -3.96239 0
M  V30 1858 N 169.982 1.44106 -0.638065 0
M  V30 1859 C 171.21 2.06336 -0.152615 0
M  V30 1860 C 171.625 1.47731 1.17563 0
M  V30 1861 O 170.982 0.602806 1.72257 0
M  V30 1862 C 171.033 3.61479 -0.0391491 0
M  V30 1863 O 170.754 4.17903 -1.31487 0
M  V30 1864 C 172.255 4.40757 0.474176 0
M  V30 1865 H 169.475 0.665862 -0.0828776 0
M  V30 1866 H 172.019 1.84862 -0.87443 0
M  V30 1867 H 170.174 3.82191 0.633142 0
M  V30 1868 H 170.588 5.11416 -1.16421 0
M  V30 1869 H 172.062 5.49707 0.502562 0
M  V30 1870 H 172.539 4.12697 1.50258 0
M  V30 1871 H 173.145 4.24979 -0.165102 0
M  V30 1872 N 171.46 0.379036 1.52974 0
M  V30 1873 C 172.41 -0.477772 2.22938 0
M  V30 1874 C 173.394 -1.03792 1.22948 0
M  V30 1875 O 174.586 -0.965725 1.48333 0
M  V30 1876 C 171.715 -1.60994 3.03209 0
M  V30 1877 C 170.801 -1.06203 4.10587 0
M  V30 1878 N 171.192 -0.238214 5.05239 0
M  V30 1879 C 169.49 -1.33554 4.25534 0
M  V30 1880 C 170.191 0.0633235 5.81666 0
M  V30 1881 N 169.167 -0.537901 5.40932 0
M  V30 1882 H 172.969 0.158295 2.93473 0
M  V30 1883 H 170.483 0.187778 1.61311 0
M  V30 1884 H 172.48 -2.23607 3.5186 0
M  V30 1885 H 171.14 -2.24893 2.34207 0
M  V30 1886 H 172.151 0.123695 5.17752 0
M  V30 1887 H 168.828 -1.97632 3.6776 0
M  V30 1888 H 170.218 0.730161 6.67921 0
M  V30 1889 N 172.938 -1.57226 0.108567 0
M  V30 1890 C 174.349 -1.8195 -0.418464 0
M  V30 1891 C 174.7 -1.02508 -1.67292 0
M  V30 1892 O 173.825 -0.258496 -2.14851 0
M  V30 1893 C 174.42 -3.30028 -0.765979 0
M  V30 1894 C 172.979 -3.55469 -1.23769 0
M  V30 1895 C 172.126 -2.7625 -0.241106 0
M  V30 1896 H 175.077 -1.55149 0.33384 0
M  V30 1897 H 175.098 -3.44086 -1.62434 0
M  V30 1898 H 174.61 -3.87821 0.147219 0
M  V30 1899 H 172.711 -3.03022 -2.16814 0
M  V30 1900 H 172.824 -4.6408 -1.19022 0
M  V30 1901 H 171.188 -2.44133 -0.72602 0
M  V30 1902 H 171.971 -3.36797 0.665007 0
M  V30 1903 N 174.416 0.165178 -1.56732 0
M  V30 1904 C 175.326 1.22423 -2.00125 0
M  V30 1905 C 176.342 1.48084 -0.913619 0
M  V30 1906 O 177.518 1.60112 -1.22172 0
M  V30 1907 C 174.583 2.54197 -2.35764 0
M  V30 1908 C 173.644 2.36343 -3.58386 0
M  V30 1909 C 172.877 3.61834 -3.92316 0
M  V30 1910 O 173.1 4.67267 -3.27135 0
M  V30 1911 O 172.034 3.55579 -4.85641 0
M  V30 1912 H 175.86 0.885886 -2.90492 0
M  V30 1913 H 173.445 0.372518 -1.44681 0
M  V30 1914 H 175.327 3.3192 -2.59629 0
M  V30 1915 H 174.002 2.87598 -1.48557 0
M  V30 1916 H 172.909 1.56632 -3.39731 0
M  V30 1917 H 174.242 2.07865 -4.46154 0
M  V30 1918 N 175.894 1.51508 0.433938 0
M  V30 1919 C 176.841 1.73068 1.52696 0
M  V30 1920 C 177.811 0.572441 1.55924 0
M  V30 1921 O 178.996 0.807253 1.72882 0
M  V30 1922 C 176.136 1.86474 2.90381 0
M  V30 1923 C 175.249 3.14037 2.96656 0
M  V30 1924 C 174.384 3.18019 4.25485 0
M  V30 1925 C 173.423 4.39882 4.2564 0
M  V30 1926 N 172.56 4.41394 5.45999 0
M  V30 1927 H 177.4 2.66366 1.33615 0
M  V30 1928 H 174.937 1.32008 0.649018 0
M  V30 1929 H 176.895 1.92229 3.70275 0
M  V30 1930 H 175.525 0.965809 3.08013 0
M  V30 1931 H 174.577 3.17575 2.09404 0
M  V30 1932 H 175.889 4.0394 2.92633 0
M  V30 1933 H 175.043 3.22708 5.13755 0
M  V30 1934 H 173.782 2.2601 4.3217 0
M  V30 1935 H 172.787 4.35366 3.35763 0
M  V30 1936 H 174.012 5.33159 4.20617 0
M  V30 1937 H 171.958 3.52258 5.53399 0
M  V30 1938 H 171.875 5.25111 5.4387 0
M  V30 1939 H 173.143 4.50281 6.36292 0
M  V30 1940 N 177.372 -0.689602 1.41712 0
M  V30 1941 C 178.335 -1.78521 1.43746 0
M  V30 1942 C 179.335 -1.57436 0.327191 0
M  V30 1943 O 180.525 -1.64 0.587348 0
M  V30 1944 C 177.657 -3.16971 1.25467 0
M  V30 1945 H 178.85 -1.78108 2.41283 0
M  V30 1946 H 176.403 -0.89781 1.27942 0
M  V30 1947 H 177.138 -3.23019 0.287948 0
M  V30 1948 H 176.923 -3.33678 2.05917 0
M  V30 1949 H 178.413 -3.96935 1.2974 0
M  V30 1950 N 178.85 -1.27639 -0.924453 0
M  V30 1951 C 180.096 -1.14336 -1.67497 0
M  V30 1952 C 180.429 0.309465 -1.91718 0
M  V30 1953 O 179.704 1.22608 -1.50989 0
M  V30 1954 C 179.987 -1.93096 -3.0395 0
M  V30 1955 C 179.84 -3.46381 -2.8695 0
M  V30 1956 C 181.159 -1.73798 -4.0433 0
M  V30 1957 H 178.278 -0.416728 -0.607871 0
M  V30 1958 H 180.92 -1.56832 -1.07256 0
M  V30 1959 H 179.07 -1.56982 -3.55372 0
M  V30 1960 H 180.742 -3.92343 -2.42621 0
M  V30 1961 H 178.985 -3.72557 -2.22225 0
M  V30 1962 H 179.656 -3.96735 -3.83804 0
M  V30 1963 H 182.132 -2.05293 -3.61931 0
M  V30 1964 H 181.008 -2.31294 -4.97789 0
M  V30 1965 H 181.269 -0.686725 -4.36734 0
M  V30 1966 N 180.328 1.1314 -1.09713 0
M  V30 1967 C 181.577 1.83838 -0.829851 0
M  V30 1968 C 181.89 1.84599 0.646728 0
M  V30 1969 O 183.096 2.51218 1.02965 0
M  V30 1970 C 181.552 3.30069 -1.43466 0
M  V30 1971 C 181.16 3.37688 -2.94399 0
M  V30 1972 C 182.904 4.05788 -1.24645 0
M  V30 1973 C 180.811 4.78209 -3.47952 0
M  V30 1974 H 179.741 0.68877 -0.306777 0
M  V30 1975 H 182.392 1.27448 -1.3202 0
M  V30 1976 H 180.774 3.8628 -0.871996 0
M  V30 1977 H 181.948 2.91456 -3.56918 0
M  V30 1978 H 180.263 2.75436 -3.12289 0
M  V30 1979 H 182.86 5.09535 -1.62107 0
M  V30 1980 H 183.203 4.15878 -0.187357 0
M  V30 1981 H 183.736 3.55915 -1.77678 0
M  V30 1982 H 180.475 4.73311 -4.53495 0
M  V30 1983 H 179.995 5.24924 -2.90198 0
M  V30 1984 H 181.674 5.47133 -3.45332 0
M  V30 1985 N 181.806 0.884767 1.30421 0
M  V30 1986 C 183.036 0.517293 2.00019 0
M  V30 1987 C 183.444 -0.898632 1.66497 0
M  V30 1988 O 182.787 -1.60245 0.898181 0
M  V30 1989 C 182.849 0.612025 3.54252 0
M  V30 1990 C 182.513 1.99222 4.1129 0
M  V30 1991 C 183.51 2.9616 4.273 0
M  V30 1992 C 181.195 2.29755 4.46674 0
M  V30 1993 C 183.189 4.21764 4.77906 0
M  V30 1994 C 180.876 3.55606 4.96979 0
M  V30 1995 C 181.874 4.51425 5.12547 0
M  V30 1996 O 181.562 5.75043 5.61766 0
M  V30 1997 H 181.294 0.198529 0.64619 0
M  V30 1998 H 183.848 1.1919 1.67281 0
M  V30 1999 H 182.078 -0.119561 3.86515 0
M  V30 2000 H 183.767 0.255859 4.05093 0
M  V30 2001 H 184.533 2.73882 4.00267 0
M  V30 2002 H 180.412 1.55942 4.33824 0
M  V30 2003 H 183.956 4.96561 4.89972 0
M  V30 2004 H 179.853 3.7772 5.23448 0
M  V30 2005 H 180.621 5.77422 5.80109 0
M  V30 2006 N 183.284 -1.43765 0.645699 0
M  V30 2007 C 184.509 -2.06767 0.161883 0
M  V30 2008 C 184.934 -1.48034 -1.16049 0
M  V30 2009 O 184.292 -0.587369 -1.71522 0
M  V30 2010 C 184.34 -3.60519 0.0762003 0
M  V30 2011 O 183.444 -4.00982 -0.963721 0
M  V30 2012 H 182.785 -0.657675 0.091429 0
M  V30 2013 H 185.315 -1.84397 0.886499 0
M  V30 2014 H 185.325 -4.07853 -0.109604 0
M  V30 2015 H 184 -4.02646 1.04157 0
M  V30 2016 H 182.577 -3.65253 -0.751312 0
M  V30 2017 N 184.763 -0.387143 -1.52771 0
M  V30 2018 C 185.726 0.436939 -2.24997 0
M  V30 2019 C 186.726 0.991991 -1.26555 0
M  V30 2020 O 187.916 0.874335 -1.50669 0
M  V30 2021 C 185.048 1.61281 -3.00335 0
M  V30 2022 H 186.241 -0.195365 -2.99263 0
M  V30 2023 H 183.794 -0.139218 -1.55679 0
M  V30 2024 H 184.529 2.2826 -2.30364 0
M  V30 2025 H 184.314 1.22154 -3.72587 0
M  V30 2026 H 185.804 2.19629 -3.5518 0
M  V30 2027 N 186.241 1.57166 -0.116904 0
M  V30 2028 C 187.466 1.999 0.55271 0
M  V30 2029 C 187.891 0.996039 1.59564 0
M  V30 2030 O 187.249 -0.032556 1.81271 0
M  V30 2031 C 187.297 3.4152 1.15742 0
M  V30 2032 O 186.401 3.44106 2.27299 0
M  V30 2033 H 185.742 0.649447 0.138258 0
M  V30 2034 H 188.272 2.03573 -0.204759 0
M  V30 2035 H 188.282 3.79684 1.49346 0
M  V30 2036 H 186.957 4.14034 0.393493 0
M  V30 2037 H 185.534 3.17759 1.9515 0
M  V30 2038 N 187.719 -0.156864 1.56817 0
M  V30 2039 C 188.666 -1.19394 1.97519 0
M  V30 2040 C 189.636 -1.4322 0.841265 0
M  V30 2041 O 190.821 -1.55719 1.10255 0
M  V30 2042 C 187.961 -2.52483 2.35258 0
M  V30 2043 C 187.074 -2.35914 3.61896 0
M  V30 2044 C 186.209 -3.61969 3.88782 0
M  V30 2045 C 185.248 -3.40395 5.08722 0
M  V30 2046 N 184.385 -4.58556 5.31668 0
M  V30 2047 H 189.225 -0.839845 2.85921 0
M  V30 2048 H 186.762 -0.403264 1.41464 0
M  V30 2049 H 188.72 -3.30071 2.55165 0
M  V30 2050 H 187.35 -2.85859 1.49949 0
M  V30 2051 H 186.402 -1.49429 3.49821 0
M  V30 2052 H 187.714 -2.15926 4.49641 0
M  V30 2053 H 186.868 -4.47989 4.09135 0
M  V30 2054 H 185.607 -3.84951 2.9944 0
M  V30 2055 H 184.612 -2.52763 4.88253 0
M  V30 2056 H 185.837 -3.18822 5.99608 0
M  V30 2057 H 183.783 -4.81729 4.45279 0
M  V30 2058 H 183.7 -4.41535 6.13664 0
M  V30 2059 H 184.968 -5.45817 5.5651 0
M  V30 2060 N 189.197 -1.51736 -0.425897 0
M  V30 2061 C 190.425 -1.68794 -1.1965 0
M  V30 2062 C 190.84 -0.390164 -1.84725 0
M  V30 2063 O 190.197 0.632376 -1.71194 0
M  V30 2064 C 190.248 -2.81174 -2.27208 0
M  V30 2065 O 189.969 -4.05925 -1.64793 0
M  V30 2066 C 191.47 -3.09599 -3.17275 0
M  V30 2067 H 188.69 -0.566128 -0.360194 0
M  V30 2068 H 191.234 -1.98211 -0.503249 0
M  V30 2069 H 189.389 -2.54324 -2.9223 0
M  V30 2070 H 189.803 -4.68423 -2.35967 0
M  V30 2071 H 191.277 -3.91786 -3.88854 0
M  V30 2072 H 191.754 -2.22468 -3.78688 0
M  V30 2073 H 192.36 -3.38151 -2.57941 0
M  V30 2074 N 190.675 0.682077 -1.42076 0
M  V30 2075 C 191.905 1.46844 -1.45329 0
M  V30 2076 C 192.313 1.89102 -0.0609328 0
M  V30 2077 O 191.656 1.58238 0.933082 0
M  V30 2078 C 191.718 2.75375 -2.31104 0
M  V30 2079 C 191.382 2.55238 -3.79081 0
M  V30 2080 C 192.379 2.20309 -4.70914 0
M  V30 2081 C 190.064 2.70459 -4.2327 0
M  V30 2082 C 192.058 2.00859 -6.04925 0
M  V30 2083 C 189.745 2.50624 -5.57343 0
M  V30 2084 C 190.743 2.15876 -6.47986 0
M  V30 2085 O 190.431 1.96227 -7.79583 0
M  V30 2086 H 190.163 0.4586 -0.496651 0
M  V30 2087 H 192.717 0.846131 -1.87162 0
M  V30 2088 H 190.947 3.40061 -1.84107 0
M  V30 2089 H 192.636 3.37231 -2.25898 0
M  V30 2090 H 193.402 2.08153 -4.38061 0
M  V30 2091 H 189.281 2.96485 -3.53012 0
M  V30 2092 H 192.825 1.7366 -6.75639 0
M  V30 2093 H 188.722 2.62375 -5.89771 0
M  V30 2094 H 189.49 2.10883 -7.90867 0
M  V30 2095 N 192.153 1.28127 0.917671 0
M  V30 2096 C 193.103 1.08361 2.00604 0
M  V30 2097 C 194.087 0.00847518 1.60898 0
M  V30 2098 O 195.279 0.228167 1.75523 0
M  V30 2099 C 192.408 0.743376 3.35155 0
M  V30 2100 C 191.494 1.85716 3.81275 0
M  V30 2101 N 191.885 3.09822 3.99805 0
M  V30 2102 C 190.183 1.74612 4.10398 0
M  V30 2103 C 190.884 3.82368 4.38372 0
M  V30 2104 N 189.86 3.10192 4.4641 0
M  V30 2105 H 193.662 2.02531 2.12975 0
M  V30 2106 H 191.176 1.18989 1.10523 0
M  V30 2107 H 193.173 0.582859 4.12805 0
M  V30 2108 H 191.833 -0.190595 3.2414 0
M  V30 2109 H 192.844 3.45475 3.85833 0
M  V30 2110 H 189.521 0.883657 4.08041 0
M  V30 2111 H 190.911 4.89082 4.60704 0
M  V30 2112 N 193.631 -1.12557 1.10312 0
M  V30 2113 C 194.561 -2.20341 0.772798 0
M  V30 2114 C 195.542 -1.68198 -0.25365 0
M  V30 2115 O 196.727 -1.93831 -0.119699 0
M  V30 2116 C 193.857 -3.46709 0.202443 0
M  V30 2117 C 192.811 -4.11996 1.15943 0
M  V30 2118 C 192.137 -5.328 0.450345 0
M  V30 2119 C 193.437 -4.5828 2.50552 0
M  V30 2120 H 195.131 -2.48229 1.674 0
M  V30 2121 H 192.677 -1.19308 0.806326 0
M  V30 2122 H 194.63 -4.2138 -0.0407752 0
M  V30 2123 H 193.354 -3.18245 -0.734001 0
M  V30 2124 H 192.013 -3.39305 1.38808 0
M  V30 2125 H 191.661 -5.00602 -0.490531 0
M  V30 2126 H 191.361 -5.7743 1.08851 0
M  V30 2127 H 192.885 -6.10219 0.215642 0
M  V30 2128 H 194.299 -5.2433 2.31843 0
M  V30 2129 H 192.696 -5.13683 3.10242 0
M  V30 2130 H 193.766 -3.72329 3.10643 0
M  V30 2131 N 195.109 -0.891671 -1.2995 0
M  V30 2132 C 196.057 -0.353066 -2.29905 0
M  V30 2133 C 197.051 0.543509 -1.60444 0
M  V30 2134 O 198.257 0.4272 -1.74857 0
M  V30 2135 H 194.632 -0.095531 -0.745907 0
M  V30 2136 H 196.603 -1.20961 -2.72784 0
M  V30 2137 C 195.352 0.411475 -3.45257 0
M  V30 2138 H 194.675 -0.269182 -3.98893 0
M  V30 2139 H 196.115 0.753328 -4.17254 0
M  V30 2140 C 194.574 1.6111 -2.9588 0
M  V30 2141 O 195.104 2.71045 -2.96475 0
M  V30 2142 N 193.31 1.45054 -2.51809 0
M  V30 2143 H 192.857 0.556175 -2.51524 0
M  V30 2144 H 192.815 2.25453 -2.1913 0
M  V30 2145 N 196.587 1.43421 -0.653314 0
M  V30 2146 C 197.497 2.34568 0.0388565 0
M  V30 2147 C 198.513 1.53888 0.81207 0
M  V30 2148 O 199.689 1.86539 0.759294 0
M  V30 2149 C 196.754 3.32167 0.993269 0
M  V30 2150 C 195.815 4.28751 0.216977 0
M  V30 2151 C 195.048 5.21688 1.12593 0
M  V30 2152 O 195.271 5.19052 2.36519 0
M  V30 2153 O 194.205 5.98919 0.598284 0
M  V30 2154 H 198.031 2.95251 -0.711386 0
M  V30 2155 H 195.616 1.43564 -0.413502 0
M  V30 2156 H 197.498 3.92183 1.54176 0
M  V30 2157 H 196.173 2.73987 1.72374 0
M  V30 2158 H 195.08 3.72215 -0.375101 0
M  V30 2159 H 196.413 4.89913 -0.473924 0
M  V30 2160 N 198.065 0.39524 1.52563 0
M  V30 2161 C 199.013 -0.451859 2.28169 0
M  V30 2162 C 200.007 -1.05792 1.32304 0
M  V30 2163 O 201.213 -0.997718 1.49818 0
M  V30 2164 H 197.588 -0.164481 0.733792 0
M  V30 2165 H 199.559 0.207199 2.9768 0
M  V30 2166 C 198.308 -1.56385 3.10546 0
M  V30 2167 H 197.631 -1.10682 3.84174 0
M  V30 2168 H 199.071 -2.13067 3.66577 0
M  V30 2169 C 197.53 -2.52328 2.23231 0
M  V30 2170 O 198.06 -3.5588 1.86312 0
M  V30 2171 N 196.266 -2.22209 1.87274 0
M  V30 2172 H 195.813 -1.38033 2.17496 0
M  V30 2173 H 195.771 -2.86652 1.29143 0
M  V30 2174 N 199.544 -1.57102 0.125237 0
M  V30 2175 C 200.96 -1.57915 -0.231322 0
M  V30 2176 C 201.16 -1.13833 -1.66266 0
M  V30 2177 O 200.216 -0.828581 -2.38518 0
M  V30 2178 C 201.529 -3.00699 0.00766489 0
M  V30 2179 C 203.077 -3.12947 -0.0577483 0
M  V30 2180 C 203.552 -4.57742 0.153626 0
M  V30 2181 N 205.043 -4.63092 0.0998073 0
M  V30 2182 C 205.778 -5.72905 0.238174 0
M  V30 2183 N 205.274 -6.91445 0.433057 0
M  V30 2184 N 207.067 -5.6182 0.177308 0
M  V30 2185 H 199.218 -1.84055 1.06007 0
M  V30 2186 H 201.481 -0.850905 0.417929 0
M  V30 2187 H 201.187 -3.3726 0.997431 0
M  V30 2188 H 201.061 -3.70236 -0.721452 0
M  V30 2189 H 203.448 -2.7624 -1.03804 0
M  V30 2190 H 203.529 -2.4594 0.70335 0
M  V30 2191 H 203.173 -4.95149 1.13092 0
M  V30 2192 H 203.103 -5.22848 -0.627534 0
M  V30 2193 H 205.594 -3.77871 -0.047051 0
M  V30 2194 H 205.907 -7.70985 0.529332 0
M  V30 2195 H 204.252 -6.93415 0.469109 0
M  V30 2196 H 207.443 -4.68093 0.0259748 0
M  V30 2197 H 207.616 -6.47357 0.288582 0
M  V30 2198 N 201.022 0.148545 -1.56898 0
M  V30 2199 C 202.299 0.890019 -1.74178 0
M  V30 2200 C 202.679 1.99407 -0.692839 0
M  V30 2201 O 202.027 2.26671 0.288505 0
M  V30 2202 C 202.237 1.43389 -3.18183 0
M  V30 2203 C 203.585 1.89791 -3.79822 0
M  V30 2204 O 204.609 1.53134 -3.21603 0
M  V30 2205 O 203.468 2.57387 -4.82093 0
M  V30 2206 H 200.562 0.420496 -0.712118 0
M  V30 2207 H 203.108 0.134591 -1.69165 0
M  V30 2208 H 201.88 0.640383 -3.86024 0
M  V30 2209 H 201.503 2.25287 -3.27615 0
M  V30 2210 N 202.5 1.5196 0.417844 0
M  V30 2211 C 203.749 1.6482 1.16264 0
M  V30 2212 C 204.062 0.379886 1.91876 0
M  V30 2213 O 205.268 0.388154 2.68711 0
M  V30 2214 C 203.724 2.91161 2.1155 0
M  V30 2215 C 203.332 4.25068 1.41495 0
M  V30 2216 C 205.076 3.13383 2.86341 0
M  V30 2217 C 202.983 5.42541 2.35379 0
M  V30 2218 H 201.913 0.613954 0.437694 0
M  V30 2219 H 204.564 1.78442 0.427871 0
M  V30 2220 H 202.946 2.71218 2.88543 0
M  V30 2221 H 204.12 4.55463 0.699263 0
M  V30 2222 H 202.435 4.0888 0.787792 0
M  V30 2223 H 205.032 3.98324 3.5671 0
M  V30 2224 H 205.375 2.27256 3.48798 0
M  V30 2225 H 205.908 3.33757 2.1645 0
M  V30 2226 H 202.647 6.30987 1.77582 0
M  V30 2227 H 202.167 5.16497 3.04945 0
M  V30 2228 H 203.846 5.75272 2.96093 0
M  V30 2229 N 203.978 -0.674533 1.42435 0
M  V30 2230 C 205.224 -1.43671 1.43131 0
M  V30 2231 C 205.557 -1.94142 0.0476021 0
M  V30 2232 O 204.832 -1.70924 -0.928188 0
M  V30 2233 C 205.115 -2.63355 2.45594 0
M  V30 2234 C 204.968 -2.18514 3.93156 0
M  V30 2235 C 206.287 -3.65571 2.45043 0
M  V30 2236 H 203.406 -0.521077 0.521198 0
M  V30 2237 H 206.048 -0.766551 1.7385 0
M  V30 2238 H 204.198 -3.2053 2.19528 0
M  V30 2239 H 205.87 -1.66504 4.30202 0
M  V30 2240 H 204.113 -1.50086 4.07009 0
M  V30 2241 H 204.784 -3.04484 4.60428 0
M  V30 2242 H 207.26 -3.18113 2.68223 0
M  V30 2243 H 206.136 -4.46893 3.18713 0
M  V30 2244 H 206.397 -4.16716 1.47649 0
M  V30 2245 N 205.456 -1.28612 -0.910864 0
M  V30 2246 C 206.403 -1.12786 -2.01365 0
M  V30 2247 C 207.373 -0.024201 -1.66082 0
M  V30 2248 O 208.558 -0.189667 -1.89855 0
M  V30 2249 C 205.698 -0.798743 -3.35729 0
M  V30 2250 C 204.811 -1.98173 -3.83864 0
M  V30 2251 C 203.946 -1.59298 -5.06752 0
M  V30 2252 C 202.985 -2.74245 -5.47226 0
M  V30 2253 N 202.122 -2.35842 -6.61304 0
M  V30 2254 H 206.962 -2.07142 -2.14234 0
M  V30 2255 H 204.499 -1.03093 -1.0493 0
M  V30 2256 H 206.457 -0.588662 -4.13026 0
M  V30 2257 H 205.087 0.10789 -3.2262 0
M  V30 2258 H 204.139 -2.30386 -3.02699 0
M  V30 2259 H 205.451 -2.84343 -4.09818 0
M  V30 2260 H 204.605 -1.34513 -5.916 0
M  V30 2261 H 203.344 -0.702618 -4.82612 0
M  V30 2262 H 202.349 -2.99725 -4.60918 0
M  V30 2263 H 203.574 -3.63928 -5.73353 0
M  V30 2264 H 201.52 -1.49279 -6.38789 0
M  V30 2265 H 201.437 -3.15546 -6.86998 0
M  V30 2266 H 202.705 -2.14348 -7.4945 0
M  V30 2267 N 206.934 1.1197 -1.10907 0
M  V30 2268 C 207.844 2.21433 -0.774896 0
M  V30 2269 C 208.86 1.72478 0.229657 0
M  V30 2270 O 210.036 2.01288 0.0672008 0
M  V30 2271 C 207.101 3.4602 -0.216986 0
M  V30 2272 C 206.162 4.09791 -1.27944 0
M  V30 2273 C 205.395 5.28431 -0.748055 0
M  V30 2274 O 205.618 5.68823 0.423833 0
M  V30 2275 O 204.552 5.82644 -1.51027 0
M  V30 2276 H 208.378 2.5242 -1.68873 0
M  V30 2277 H 205.963 1.20399 -0.884555 0
M  V30 2278 H 207.845 4.21304 0.090059 0
M  V30 2279 H 206.52 3.16698 0.669633 0
M  V30 2280 H 205.427 3.36265 -1.63941 0
M  V30 2281 H 206.76 4.4328 -2.13925 0
M  V30 2282 N 208.412 0.89855 1.29475 0
M  V30 2283 C 209.64 0.539261 1.99749 0
M  V30 2284 C 210.055 -0.875716 1.67262 0
M  V30 2285 O 209.412 -1.57786 0.917049 0
M  V30 2286 C 209.463 0.72061 3.54245 0
M  V30 2287 O 209.184 2.07989 3.8558 0
M  V30 2288 C 210.685 0.366118 4.41786 0
M  V30 2289 H 207.905 0.207047 0.638258 0
M  V30 2290 H 210.449 1.20758 1.65039 0
M  V30 2291 H 208.604 0.0994862 3.87272 0
M  V30 2292 H 209.018 2.10841 4.80257 0
M  V30 2293 H 210.492 0.543848 5.49314 0
M  V30 2294 H 210.969 -0.696763 4.33638 0
M  V30 2295 H 211.575 0.964135 4.14228 0
M  V30 2296 N 209.89 -1.43072 0.660911 0
M  V30 2297 C 211.136 -2.0202 0.177708 0
M  V30 2298 C 211.469 -1.52066 -1.20787 0
M  V30 2299 O 210.744 -0.716987 -1.80802 0
M  V30 2300 C 211.027 -3.59561 0.197019 0
M  V30 2301 C 210.88 -4.19727 1.61706 0
M  V30 2302 C 212.199 -4.37664 -0.462396 0
M  V30 2303 H 209.318 -0.734034 0.0660494 0
M  V30 2304 H 211.96 -1.70272 0.843058 0
M  V30 2305 H 210.11 -3.86739 -0.369527 0
M  V30 2306 H 211.782 -4.03553 2.23479 0
M  V30 2307 H 210.025 -3.76084 2.16201 0
M  V30 2308 H 210.696 -5.28834 1.58237 0
M  V30 2309 H 213.172 -4.16095 0.0197215 0
M  V30 2310 H 212.048 -5.47305 -0.418188 0
M  V30 2311 H 212.309 -4.14493 -1.53778 0
M  V30 2312 N 211.368 -0.403325 -1.52352 0
M  V30 2313 C 212.784 -0.0539281 -1.59509 0
M  V30 2314 C 212.984 1.43307 -1.41652 0
M  V30 2315 O 212.04 2.19924 -1.24056 0
M  V30 2316 C 213.353 -0.543654 -2.95745 0
M  V30 2317 C 214.901 -0.501125 -3.08962 0
M  V30 2318 C 215.376 -0.967267 -4.47669 0
M  V30 2319 N 216.867 -0.923849 -4.53893 0
M  V30 2320 C 217.602 -1.25578 -5.5948 0
M  V30 2321 N 217.098 -1.65889 -6.72646 0
M  V30 2322 N 218.891 -1.17613 -5.49658 0
M  V30 2323 H 211.042 -1.37123 -1.62206 0
M  V30 2324 H 213.305 -0.56294 -0.76276 0
M  V30 2325 H 213.011 -1.58275 -3.14073 0
M  V30 2326 H 212.885 0.0498042 -3.77167 0
M  V30 2327 H 215.272 0.528909 -2.90321 0
M  V30 2328 H 215.353 -1.13056 -2.2946 0
M  V30 2329 H 214.997 -1.9956 -4.67053 0
M  V30 2330 H 214.927 -0.314698 -5.25659 0
M  V30 2331 H 217.418 -0.627403 -3.72655 0
M  V30 2332 H 217.731 -1.89543 -7.49195 0
M  V30 2333 H 216.076 -1.69787 -6.73942 0
M  V30 2334 H 219.267 -0.860115 -4.6013 0
M  V30 2335 H 219.44 -1.43812 -6.3184 0
M  V30 2336 N 212.846 1.57033 -0.133567 0
M  V30 2337 C 214.257 1.82593 0.389464 0
M  V30 2338 C 214.608 1.05156 1.6564 0
M  V30 2339 O 213.733 0.292644 2.14412 0
M  V30 2340 C 214.328 3.31204 0.713377 0
M  V30 2341 C 212.887 3.57393 1.18098 0
M  V30 2342 C 212.034 2.76598 0.197126 0
M  V30 2343 H 214.985 1.54598 -0.358481 0
M  V30 2344 H 215.006 3.46627 1.56939 0
M  V30 2345 H 214.518 3.87537 -0.2089 0
M  V30 2346 H 212.619 3.06433 2.11966 0
M  V30 2347 H 212.732 4.65915 1.11624 0
M  V30 2348 H 211.096 2.45257 0.687088 0
M  V30 2349 H 211.879 3.35697 -0.718504 0
M  V30 2350 N 214.325 -0.140222 1.56975 0
M  V30 2351 C 215.288 -1.15689 1.97861 0
M  V30 2352 C 216.288 -1.3549 0.865974 0
M  V30 2353 O 217.478 -1.32367 1.13246 0
M  V30 2354 C 214.61 -2.51582 2.30042 0
M  V30 2355 H 215.803 -0.805971 2.88867 0
M  V30 2356 H 213.356 -0.383801 1.51515 0
M  V30 2357 H 214.091 -2.91632 1.41849 0
M  V30 2358 H 213.876 -2.38569 3.11171 0
M  V30 2359 H 215.366 -3.24792 2.62488 0
M  V30 2360 N 215.803 -1.52179 -0.40978 0
M  V30 2361 C 216.766 -1.74853 -1.48186 0
M  V30 2362 C 217.766 -0.618417 -1.48433 0
M  V30 2363 O 218.956 -0.886286 -1.49969 0
M  V30 2364 C 216.088 -1.8303 -2.87598 0
M  V30 2365 H 217.281 -2.70559 -1.29374 0
M  V30 2366 H 214.834 -1.42586 -0.640233 0
M  V30 2367 H 215.569 -0.89236 -3.11781 0
M  V30 2368 H 215.354 -2.65187 -2.88822 0
M  V30 2369 H 216.844 -2.02316 -3.65319 0
M  V30 2370 N 217.281 0.66697 -1.42791 0
M  V30 2371 C 218.213 1.7925 -1.42836 0
M  V30 2372 C 219.226 1.59496 -0.326333 0
M  V30 2373 O 220.415 1.6847 -0.589916 0
M  V30 2374 C 217.515 3.16476 -1.21229 0
M  V30 2375 C 216.688 3.63011 -2.44013 0
M  V30 2376 C 215.747 4.78993 -2.17834 0
M  V30 2377 O 214.773 4.89137 -2.91091 0
M  V30 2378 N 215.975 5.68248 -1.18635 0
M  V30 2379 H 218.74 1.79695 -2.39854 0
M  V30 2380 H 216.301 0.850338 -1.37771 0
M  V30 2381 H 218.293 3.91734 -1.01621 0
M  V30 2382 H 216.863 3.10884 -0.32706 0
M  V30 2383 H 216.083 2.78346 -2.79137 0
M  V30 2384 H 217.371 3.90845 -3.25757 0
M  V30 2385 H 216.769 5.62712 -0.580615 0
M  V30 2386 H 215.326 6.43285 -1.05013 0
M  V30 2387 N 218.759 1.29093 0.90403 0
M  V30 2388 C 220.005 1.16986 1.65656 0
M  V30 2389 C 220.338 -0.278925 1.92186 0
M  V30 2390 O 219.613 -1.2019 1.5292 0
M  V30 2391 C 219.896 1.97908 3.0084 0
M  V30 2392 C 219.749 3.50903 2.81403 0
M  V30 2393 C 221.068 1.80208 4.01513 0
M  V30 2394 H 218.187 0.426346 0.601164 0
M  V30 2395 H 220.829 1.58518 1.04747 0
M  V30 2396 H 218.979 1.62616 3.52829 0
M  V30 2397 H 220.651 3.96153 2.36348 0
M  V30 2398 H 218.894 3.76045 2.1627 0
M  V30 2399 H 219.565 4.02791 3.77443 0
M  V30 2400 H 222.041 2.11025 3.58619 0
M  V30 2401 H 220.917 2.39184 4.94047 0
M  V30 2402 H 221.178 0.756119 4.35586 0
M  V30 2403 N 220.237 -1.11381 1.11499 0
M  V30 2404 C 221.465 -1.86934 0.88675 0
M  V30 2405 C 221.88 -1.80195 -0.563476 0
M  V30 2406 O 221.237 -1.18367 -1.38908 0
M  V30 2407 C 221.288 -3.35722 1.34064 0
M  V30 2408 O 221.009 -3.4232 2.73401 0
M  V30 2409 C 222.51 -4.2818 1.14791 0
M  V30 2410 H 219.73 -0.591117 0.317523 0
M  V30 2411 H 222.274 -1.40865 1.48248 0
M  V30 2412 H 220.429 -3.79294 0.788355 0
M  V30 2413 H 220.843 -4.34971 2.93087 0
M  V30 2414 H 222.317 -5.30817 1.5145 0
M  V30 2415 H 222.794 -4.39113 0.0875279 0
M  V30 2416 H 223.4 -3.90402 1.68721 0
M  V30 2417 N 221.715 -0.905404 -1.28997 0
M  V30 2418 C 222.961 -0.544465 -1.95977 0
M  V30 2419 C 223.316 0.90041 -1.70031 0
M  V30 2420 O 222.609 1.63064 -1.00601 0
M  V30 2421 C 222.803 -0.779906 -3.48787 0
M  V30 2422 C 222.632 -2.24612 -3.89589 0
M  V30 2423 C 221.402 -2.89464 -4.14172 0
M  V30 2424 C 223.6 -3.22182 -4.00878 0
M  V30 2425 N 221.582 -4.26469 -4.41585 0
M  V30 2426 C 222.953 -4.44323 -4.32409 0
M  V30 2427 C 225.008 -3.17694 -3.83373 0
M  V30 2428 C 223.711 -5.62546 -4.48258 0
M  V30 2429 C 225.737 -4.35208 -4.00435 0
M  V30 2430 C 225.099 -5.56121 -4.3233 0
M  V30 2431 H 221.198 -0.248948 -0.741316 0
M  V30 2432 H 223.782 -1.1674 -1.5582 0
M  V30 2433 H 221.953 -0.186308 -3.87953 0
M  V30 2434 H 223.685 -0.383833 -4.02876 0
M  V30 2435 H 220.44 -2.40232 -4.08149 0
M  V30 2436 H 220.864 -4.97283 -4.5939 0
M  V30 2437 H 225.506 -2.25297 -3.57773 0
M  V30 2438 H 223.224 -6.55429 -4.72692 0
M  V30 2439 H 226.81 -4.33228 -3.88336 0
M  V30 2440 H 225.69 -6.45537 -4.45255 0
M  V30 2441 N 223.193 1.4272 -0.668489 0
M  V30 2442 C 224.141 2.32586 0.0254857 0
M  V30 2443 C 225.135 1.49471 0.797176 0
M  V30 2444 O 226.341 1.65583 0.705853 0
M  V30 2445 H 222.716 0.751514 0.0270339 0
M  V30 2446 H 224.687 2.88823 -0.749936 0
M  V30 2447 C 223.436 3.3397 0.967427 0
M  V30 2448 H 222.759 3.97961 0.383048 0
M  V30 2449 H 224.199 3.9945 1.42181 0
M  V30 2450 C 222.658 2.65744 2.0708 0
M  V30 2451 O 223.188 2.48454 3.15648 0
M  V30 2452 N 221.394 2.2487 1.8407 0
M  V30 2453 H 220.941 2.39132 0.95778 0
M  V30 2454 H 220.899 1.79552 2.58086 0
M  V30 2455 N 224.671 0.411399 1.52136 0
M  V30 2456 C 225.634 -0.401089 2.25663 0
M  V30 2457 C 226.634 -0.971732 1.28117 0
M  V30 2458 O 227.824 -0.850254 1.52041 0
M  V30 2459 C 224.956 -1.56483 3.02863 0
M  V30 2460 H 226.149 0.24295 2.98914 0
M  V30 2461 H 223.702 0.163968 1.55438 0
M  V30 2462 H 224.437 -2.24567 2.33967 0
M  V30 2463 H 224.222 -1.16211 3.74483 0
M  V30 2464 H 225.712 -2.13951 3.58629 0
M  V30 2465 N 226.149 -1.5696 0.141893 0
M  V30 2466 C 227.56 -1.82797 -0.379776 0
M  V30 2467 C 227.911 -1.06033 -1.6508 0
M  V30 2468 O 227.036 -0.304011 -2.14254 0
M  V30 2469 C 227.631 -3.31578 -0.695802 0
M  V30 2470 C 226.19 -3.58014 -1.16201 0
M  V30 2471 C 225.337 -2.76699 -0.182455 0
M  V30 2472 H 228.288 -1.54406 0.366675 0
M  V30 2473 H 228.309 -3.47454 -1.55099 0
M  V30 2474 H 227.821 -3.87421 0.229449 0
M  V30 2475 H 225.922 -3.07553 -2.10338 0
M  V30 2476 H 226.035 -4.66501 -1.09151 0
M  V30 2477 H 224.399 -2.45618 -0.674072 0
M  V30 2478 H 225.182 -3.35311 0.736297 0
M  V30 2479 N 227.627 0.131896 -1.57047 0
M  V30 2480 C 228.867 0.847972 -1.85981 0
M  V30 2481 C 229.231 1.77655 -0.7282 0
M  V30 2482 O 230.432 2.53322 -0.898968 0
M  V30 2483 C 228.703 1.58919 -3.20124 0
M  V30 2484 S 230.262 2.34862 -3.70655 0
M  V30 2485 H 227.08 0.283273 -0.652133 0
M  V30 2486 H 229.682 0.107057 -1.95207 0
M  V30 2487 H 228.386 0.898771 -4.00438 0
M  V30 2488 H 227.917 2.37073 -3.13942 0
M  V30 2489 H 229.932 3.60344 -3.41126 0
M  V30 2490 N 229.106 1.52395 0.401703 0
M  V30 2491 C 230.069 1.75636 1.47257 0
M  V30 2492 C 231.069 0.62628 1.48103 0
M  V30 2493 O 232.259 0.894227 1.49497 0
M  V30 2494 C 229.391 1.84553 2.86624 0
M  V30 2495 H 230.584 2.71241 1.27938 0
M  V30 2496 H 228.137 1.42923 0.632662 0
M  V30 2497 H 228.872 0.908882 3.11303 0
M  V30 2498 H 228.657 2.66715 2.87412 0
M  V30 2499 H 230.147 2.04251 3.64241 0
M  V30 2500 N 230.584 -0.659388 1.43143 0
M  V30 2501 C 231.833 -1.41518 1.43721 0
M  V30 2502 C 232.146 -1.95499 0.0628176 0
M  V30 2503 O 233.352 -2.71446 -0.0539683 0
M  V30 2504 C 231.808 -2.5608 2.52885 0
M  V30 2505 C 231.416 -2.08733 3.96402 0
M  V30 2506 C 233.16 -3.3349 2.62649 0
M  V30 2507 C 231.067 -3.20469 4.97045 0
M  V30 2508 H 229.997 -0.531705 0.534608 0
M  V30 2509 H 232.648 -0.712343 1.69109 0
M  V30 2510 H 231.03 -3.28805 2.20688 0
M  V30 2511 H 232.204 -1.43059 4.3803 0
M  V30 2512 H 230.519 -1.44219 3.90627 0
M  V30 2513 H 233.116 -4.16734 3.35017 0
M  V30 2514 H 233.459 -3.8111 1.67513 0
M  V30 2515 H 233.992 -2.67842 2.94118 0
M  V30 2516 H 230.731 -2.77824 5.93712 0
M  V30 2517 H 230.251 -3.84874 4.60034 0
M  V30 2518 H 231.93 -3.85698 5.19467 0
M  V30 2519 N 232.062 -1.29571 -0.897171 0
M  V30 2520 C 233.339 -1.08365 -1.62839 0
M  V30 2521 C 233.719 0.371331 -2.07808 0
M  V30 2522 O 233.067 1.3606 -1.83576 0
M  V30 2523 C 233.277 -2.0735 -2.80726 0
M  V30 2524 C 234.625 -2.38406 -3.51351 0
M  V30 2525 O 235.649 -2.05564 -2.90898 0
M  V30 2526 O 234.508 -2.9453 -4.60341 0
M  V30 2527 H 231.602 -0.415345 -0.715134 0
M  V30 2528 H 234.148 -1.40952 -0.945018 0
M  V30 2529 H 232.92 -3.05339 -2.44711 0
M  V30 2530 H 232.543 -1.75507 -3.56767 0
M  V30 2531 N 233.54 1.10788 -1.12088 0
M  V30 2532 C 234.49 2.15158 -0.754401 0
M  V30 2533 C 235.474 1.59026 0.244846 0
M  V30 2534 O 236.666 1.76927 0.0509097 0
M  V30 2535 C 233.795 3.42677 -0.206657 0
M  V30 2536 C 232.881 4.05751 -1.23398 0
M  V30 2537 N 233.272 4.43582 -2.43041 0
M  V30 2538 C 231.57 4.32764 -1.07848 0
M  V30 2539 C 232.271 4.93085 -3.08613 0
M  V30 2540 N 231.247 4.89664 -2.36072 0
M  V30 2541 H 235.049 2.42195 -1.6649 0
M  V30 2542 H 232.563 1.27872 -1.00112 0
M  V30 2543 H 234.56 4.16834 0.0740646 0
M  V30 2544 H 233.22 3.17101 0.698342 0
M  V30 2545 H 234.231 4.35395 -2.80449 0
M  V30 2546 H 230.908 4.16863 -0.230483 0
M  V30 2547 H 232.298 5.31933 -4.10483 0
M  V30 2548 N 235.018 0.912232 1.28515 0
M  V30 2549 C 236.258 0.551677 1.96814 0
M  V30 2550 C 236.622 -0.887825 1.7024 0
M  V30 2551 O 237.823 -1.35588 2.32098 0
M  V30 2552 C 236.094 0.850555 3.47132 0
M  V30 2553 S 237.653 0.59619 4.34731 0
M  V30 2554 H 234.471 0.204191 0.681049 0
M  V30 2555 H 237.073 1.17736 1.56072 0
M  V30 2556 H 235.777 1.8962 3.63968 0
M  V30 2557 H 235.308 0.213471 3.9282 0
M  V30 2558 H 237.323 -0.553154 4.93107 0
M  V30 2559 N 236.496 -1.42363 0.676048 0
M  V30 2560 C 237.721 -2.06377 0.205705 0
M  V30 2561 C 238.146 -1.50463 -1.12883 0
M  V30 2562 O 237.504 -0.623619 -1.70237 0
M  V30 2563 C 237.552 -3.60277 0.152655 0
M  V30 2564 O 236.656 -4.02935 -0.87845 0
M  V30 2565 H 235.997 -0.655588 0.105359 0
M  V30 2566 H 238.527 -1.82475 0.925412 0
M  V30 2567 H 238.537 -4.07993 -0.0230675 0
M  V30 2568 H 237.212 -4.00346 1.12675 0
M  V30 2569 H 235.789 -3.66764 -0.673668 0
M  V30 2570 N 237.974 -0.419461 -1.51915 0
M  V30 2571 C 239.22 0.153166 -2.02221 0
M  V30 2572 C 239.553 1.43907 -1.30401 0
M  V30 2573 O 238.828 1.90055 -0.413438 0
M  V30 2574 C 239.111 0.390291 -3.57979 0
M  V30 2575 C 238.964 -0.913014 -4.40436 0
M  V30 2576 C 240.283 1.16794 -4.2432 0
M  V30 2577 H 237.402 0.0541924 -0.735005 0
M  V30 2578 H 240.044 -0.554955 -1.81715 0
M  V30 2579 H 238.194 0.993491 -3.75582 0
M  V30 2580 H 239.866 -1.54882 -4.34522 0
M  V30 2581 H 238.109 -1.52168 -4.06236 0
M  V30 2582 H 238.78 -0.701361 -5.47526 0
M  V30 2583 H 241.256 0.657161 -4.10878 0
M  V30 2584 H 240.132 1.3026 -5.3322 0
M  V30 2585 H 240.393 2.19132 -3.83971 0
M  V30 2586 N 239.452 1.56882 -0.150215 0
M  V30 2587 C 240.385 2.12712 0.826358 0
M  V30 2588 C 241.363 1.05154 1.24022 0
M  V30 2589 O 242.547 1.33004 1.33575 0
M  V30 2590 C 239.674 2.64945 2.11002 0
M  V30 2591 C 238.72 3.8468 1.84183 0
M  V30 2592 S 239.553 5.25502 1.02995 0
M  V30 2593 C 240.709 5.81125 2.32474 0
M  V30 2594 H 240.942 2.95214 0.351598 0
M  V30 2595 H 238.475 1.54267 0.0641211 0
M  V30 2596 H 240.433 2.95689 2.84742 0
M  V30 2597 H 239.094 1.82568 2.55593 0
M  V30 2598 H 238.287 4.19482 2.79375 0
M  V30 2599 H 237.889 3.54714 1.1855 0
M  V30 2600 H 240.181 5.92753 3.281 0
M  V30 2601 H 241.124 6.78625 2.02171 0
M  V30 2602 H 241.532 5.09392 2.43269 0
M  V30 2603 N 240.93 -0.123565 1.57115 0
M  V30 2604 C 241.88 -1.1575 1.96433 0
M  V30 2605 C 242.864 -1.37313 0.838686 0
M  V30 2606 O 244.056 -1.38482 1.10235 0
M  V30 2607 C 241.185 -2.48526 2.36833 0
M  V30 2608 C 240.271 -2.30457 3.5602 0
M  V30 2609 N 240.662 -1.8219 4.71848 0
M  V30 2610 C 238.96 -2.61129 3.61563 0
M  V30 2611 C 239.661 -1.77721 5.53886 0
M  V30 2612 N 238.637 -2.21899 4.96248 0
M  V30 2613 H 242.439 -0.776797 2.83449 0
M  V30 2614 H 239.953 -0.331364 1.58983 0
M  V30 2615 H 241.95 -3.233 2.63216 0
M  V30 2616 H 240.61 -2.87358 1.5118 0
M  V30 2617 H 241.621 -1.51805 4.95152 0
M  V30 2618 H 238.298 -3.03678 2.86507 0
M  V30 2619 H 239.688 -1.41697 6.56789 0
M  V30 2620 N 242.408 -1.52605 -0.393616 0
M  V30 2621 C 243.824 -1.41753 -0.733357 0
M  V30 2622 C 244.024 -0.534293 -1.94287 0
M  V30 2623 O 243.08 -0.0059787 -2.52499 0
M  V30 2624 C 244.393 -2.84531 -0.972772 0
M  V30 2625 C 245.941 -2.93978 -1.07453 0
M  V30 2626 C 246.416 -4.37756 -1.3466 0
M  V30 2627 N 247.907 -4.4106 -1.41492 0
M  V30 2628 C 248.642 -5.49387 -1.642 0
M  V30 2629 N 248.138 -6.67806 -1.8441 0
M  V30 2630 N 249.931 -5.36923 -1.66342 0
M  V30 2631 H 242.082 -2.08555 0.402328 0
M  V30 2632 H 244.345 -0.940654 0.117789 0
M  V30 2633 H 244.051 -3.51353 -0.156204 0
M  V30 2634 H 243.925 -3.26508 -1.88871 0
M  V30 2635 H 246.312 -2.27326 -1.88167 0
M  V30 2636 H 246.393 -2.55435 -0.136605 0
M  V30 2637 H 246.037 -5.04972 -0.544581 0
M  V30 2638 H 245.967 -4.73848 -2.2973 0
M  V30 2639 H 248.458 -3.55705 -1.27601 0
M  V30 2640 H 248.771 -7.46141 -2.01231 0
M  V30 2641 H 247.116 -6.70843 -1.81644 0
M  V30 2642 H 250.307 -4.43381 -1.50102 0
M  V30 2643 H 250.48 -6.21416 -1.837 0
M  V30 2644 N 243.887 0.651787 -1.4349 0
M  V30 2645 C 245.117 1.43728 -1.48411 0
M  V30 2646 C 245.525 1.8893 -0.10103 0
M  V30 2647 O 244.868 1.60182 0.899307 0
M  V30 2648 C 244.93 2.70411 -2.36893 0
M  V30 2649 C 244.594 2.4714 -3.8441 0
M  V30 2650 C 245.591 2.10271 -4.75481 0
M  V30 2651 C 243.276 2.6142 -4.28912 0
M  V30 2652 C 245.27 1.87982 -6.0905 0
M  V30 2653 C 242.957 2.38746 -5.62533 0
M  V30 2654 C 243.955 2.02083 -6.5242 0
M  V30 2655 O 243.643 1.79647 -7.8357 0
M  V30 2656 H 243.375 0.447962 -0.506267 0
M  V30 2657 H 245.929 0.80624 -1.88915 0
M  V30 2658 H 244.159 3.36079 -1.91278 0
M  V30 2659 H 245.848 3.32364 -2.33 0
M  V30 2660 H 246.614 1.98814 -4.42378 0
M  V30 2661 H 242.493 2.88931 -3.59222 0
M  V30 2662 H 246.037 1.5929 -6.7917 0
M  V30 2663 H 241.934 2.49806 -5.95203 0
M  V30 2664 H 242.702 1.9406 -7.95162 0
M  V30 2665 N 245.365 1.30045 0.890287 0
M  V30 2666 C 246.59 1.21598 1.68014 0
M  V30 2667 C 247.015 -0.218678 1.86825 0
M  V30 2668 O 246.373 -1.15756 1.39536 0
M  V30 2669 C 246.421 1.94434 3.03691 0
M  V30 2670 O 245.525 1.2678 3.92429 0
M  V30 2671 H 244.866 0.420856 0.513592 0
M  V30 2672 H 247.396 1.71775 1.11151 0
M  V30 2673 H 247.406 2.03251 3.5377 0
M  V30 2674 H 246.081 2.98777 2.89318 0
M  V30 2675 H 244.658 1.26282 3.50866 0
M  V30 2676 N 246.843 -1.10192 1.12674 0
M  V30 2677 C 248.089 -1.82475 0.884915 0
M  V30 2678 C 248.422 -1.85093 -0.58773 0
M  V30 2679 O 247.697 -1.3134 -1.43457 0
M  V30 2680 C 247.98 -3.29018 1.46353 0
M  V30 2681 C 247.833 -3.34718 3.00473 0
M  V30 2682 C 249.152 -4.25473 1.12519 0
M  V30 2683 H 246.271 -0.662492 0.322915 0
M  V30 2684 H 248.913 -1.2913 1.39375 0
M  V30 2685 H 247.063 -3.74576 1.03077 0
M  V30 2686 H 248.735 -2.97622 3.52447 0
M  V30 2687 H 246.978 -2.74541 3.35872 0
M  V30 2688 H 247.649 -4.37918 3.36053 0
M  V30 2689 H 250.125 -3.88161 1.499 0
M  V30 2690 H 249.001 -5.26365 1.55663 0
M  V30 2691 H 249.262 -4.42084 0.0377407 0
M  V30 2692 N 248.321 -0.919034 -1.28029 0
M  V30 2693 C 249.251 -0.428581 -2.29533 0
M  V30 2694 C 250.232 0.50659 -1.62381 0
M  V30 2695 O 251.417 0.413195 -1.89753 0
M  V30 2696 C 248.547 0.327388 -3.45753 0
M  V30 2697 C 247.501 -0.519137 -4.2484 0
M  V30 2698 C 246.827 0.365486 -5.33449 0
M  V30 2699 C 248.127 -1.77914 -4.91064 0
M  V30 2700 H 249.821 -1.27687 -2.70807 0
M  V30 2701 H 247.367 -0.615428 -1.30186 0
M  V30 2702 H 249.32 0.681378 -4.15855 0
M  V30 2703 H 248.044 1.20963 -3.03374 0
M  V30 2704 H 246.703 -0.855717 -3.56473 0
M  V30 2705 H 246.351 1.24642 -4.87312 0
M  V30 2706 H 246.051 -0.197356 -5.87268 0
M  V30 2707 H 247.575 0.715241 -6.06396 0
M  V30 2708 H 248.989 -1.49374 -5.53498 0
M  V30 2709 H 247.386 -2.2848 -5.54903 0
M  V30 2710 H 248.456 -2.50382 -4.15255 0
M  V30 2711 N 249.799 1.42003 -0.683588 0
M  V30 2712 C 250.709 2.34597 -0.0109075 0
M  V30 2713 C 251.725 1.55576 0.779245 0
M  V30 2714 O 252.901 1.88107 0.719555 0
M  V30 2715 C 249.966 3.34199 0.922588 0
M  V30 2716 C 249.027 4.29115 0.125984 0
M  V30 2717 C 248.26 5.23959 1.01502 0
M  V30 2718 O 248.483 5.23952 2.25456 0
M  V30 2719 O 247.417 6.00053 0.47111 0
M  V30 2720 H 251.243 2.93675 -0.773853 0
M  V30 2721 H 248.828 1.42654 -0.443861 0
M  V30 2722 H 250.71 3.95365 1.45823 0
M  V30 2723 H 249.385 2.77582 1.66523 0
M  V30 2724 H 248.292 3.71335 -0.453969 0
M  V30 2725 H 249.625 4.88798 -0.577736 0
M  V30 2726 N 251.277 0.427512 1.51691 0
M  V30 2727 C 252.224 -0.388867 2.275 0
M  V30 2728 C 253.194 -1.02532 1.30677 0
M  V30 2729 O 254.379 -1.0461 1.59566 0
M  V30 2730 C 251.519 -1.48954 3.11298 0
M  V30 2731 C 250.632 -0.872194 4.23104 0
M  V30 2732 C 249.767 -1.94709 4.94228 0
M  V30 2733 C 248.806 -1.30766 5.97969 0
M  V30 2734 N 247.943 -2.32349 6.62539 0
M  V30 2735 H 252.783 0.263997 2.96828 0
M  V30 2736 H 250.32 0.142033 1.46413 0
M  V30 2737 H 252.278 -2.13887 3.58201 0
M  V30 2738 H 250.908 -2.11217 2.44105 0
M  V30 2739 H 249.96 -0.111419 3.80237 0
M  V30 2740 H 251.272 -0.365264 4.97461 0
M  V30 2741 H 250.426 -2.67327 5.44629 0
M  V30 2742 H 249.165 -2.48773 4.1948 0
M  V30 2743 H 248.17 -0.566902 5.4687 0
M  V30 2744 H 249.395 -0.774483 6.74669 0
M  V30 2745 H 247.341 -2.85511 5.90609 0
M  V30 2746 H 247.258 -1.8652 7.3263 0
M  V30 2747 H 248.526 -3.04481 7.17574 0
M  V30 2748 N 252.755 -1.56801 0.158532 0
M  V30 2749 C 254.001 -1.96781 -0.490405 0
M  V30 2750 C 254.334 -1.04397 -1.63753 0
M  V30 2751 O 253.609 -0.0885805 -1.94298 0
M  V30 2752 C 253.892 -3.4635 -0.985594 0
M  V30 2753 C 253.745 -4.49512 0.160824 0
M  V30 2754 C 255.064 -3.98697 -1.86355 0
M  V30 2755 H 252.183 -0.715482 -0.176788 0
M  V30 2756 H 254.825 -1.88451 0.242088 0
M  V30 2757 H 252.975 -3.53579 -1.60978 0
M  V30 2758 H 254.647 -4.54353 0.797537 0
M  V30 2759 H 252.89 -4.26013 0.818256 0
M  V30 2760 H 253.561 -5.51531 -0.227569 0
M  V30 2761 H 256.037 -3.94019 -1.33746 0
M  V30 2762 H 254.913 -5.03792 -2.17909 0
M  V30 2763 H 255.174 -3.41744 -2.8047 0
M  V30 2764 N 254.233 0.115231 -1.57178 0
M  V30 2765 C 255.18 1.14115 -2.00615 0
M  V30 2766 C 256.15 1.40939 -0.878941 0
M  V30 2767 O 257.335 1.52741 -1.14345 0
M  V30 2768 C 254.475 2.46156 -2.4187 0
M  V30 2769 C 253.588 2.26236 -3.68024 0
M  V30 2770 C 252.723 3.51534 -3.98243 0
M  V30 2771 C 251.762 3.26787 -5.17568 0
M  V30 2772 N 250.899 4.44298 -5.43639 0
M  V30 2773 H 255.739 0.763743 -2.88047 0
M  V30 2774 H 253.276 0.365615 -1.42484 0
M  V30 2775 H 255.234 3.23189 -2.63827 0
M  V30 2776 H 253.864 2.81783 -1.57475 0
M  V30 2777 H 252.916 1.40102 -3.5366 0
M  V30 2778 H 254.228 2.03929 -4.55208 0
M  V30 2779 H 253.382 4.36984 -4.20868 0
M  V30 2780 H 252.121 3.76876 -3.09541 0
M  V30 2781 H 251.126 2.39729 -4.94783 0
M  V30 2782 H 252.351 3.02812 -6.0785 0
M  V30 2783 H 250.297 4.69754 -4.57895 0
M  V30 2784 H 250.214 4.25109 -6.25154 0
M  V30 2785 H 251.482 5.3087 -5.70786 0
M  V30 2786 N 255.711 1.52812 0.385517 0
M  V30 2787 C 256.621 1.80766 1.49535 0
M  V30 2788 C 257.637 0.694651 1.59532 0
M  V30 2789 O 258.813 0.982611 1.75803 0
M  V30 2790 C 255.878 1.97381 2.85029 0
M  V30 2791 C 254.939 3.21295 2.84724 0
M  V30 2792 C 254.172 3.37108 4.13756 0
M  V30 2793 O 254.395 2.5765 5.08893 0
M  V30 2794 O 253.329 4.30378 4.20783 0
M  V30 2795 H 257.155 2.75015 1.28842 0
M  V30 2796 H 254.74 1.37946 0.573697 0
M  V30 2797 H 256.622 2.09996 3.65349 0
M  V30 2798 H 255.297 1.06322 3.05741 0
M  V30 2799 H 254.204 3.1412 2.03174 0
M  V30 2800 H 255.537 4.12212 2.68965 0
M  V30 2801 N 257.189 -0.644168 1.43834 0
M  V30 2802 C 258.136 -1.75671 1.49694 0
M  V30 2803 C 259.106 -1.6246 0.345809 0
M  V30 2804 O 260.291 -1.82573 0.554234 0
M  V30 2805 C 257.431 -3.13867 1.43463 0
M  V30 2806 C 256.544 -3.38147 2.6885 0
M  V30 2807 C 255.679 -4.66241 2.54544 0
M  V30 2808 C 254.718 -4.83657 3.75157 0
M  V30 2809 N 253.855 -6.03016 3.59605 0
M  V30 2810 H 258.695 -1.69998 2.44754 0
M  V30 2811 H 256.232 -0.829458 1.21484 0
M  V30 2812 H 258.19 -3.9377 1.37843 0
M  V30 2813 H 256.82 -3.18588 0.519783 0
M  V30 2814 H 255.872 -2.52276 2.84712 0
M  V30 2815 H 257.184 -3.46899 3.58417 0
M  V30 2816 H 256.338 -5.54285 2.46683 0
M  V30 2817 H 255.077 -4.59826 1.62516 0
M  V30 2818 H 254.082 -3.94046 3.83416 0
M  V30 2819 H 255.307 -4.91896 4.68204 0
M  V30 2820 H 253.253 -5.97715 2.7032 0
M  V30 2821 H 253.17 -6.12766 4.42779 0
M  V30 2822 H 254.438 -6.93657 3.55613 0
M  V30 2823 N 258.668 -1.30515 -0.883378 0
M  V30 2824 C 259.915 -1.1943 -1.63532 0
M  V30 2825 C 260.243 0.250627 -1.92878 0
M  V30 2826 O 259.498 1.19556 -1.54935 0
M  V30 2827 C 259.797 -1.96994 -2.98209 0
M  V30 2828 C 259.463 -3.466 -2.88408 0
M  V30 2829 C 258.125 -3.87397 -2.85442 0
M  V30 2830 C 260.477 -4.41863 -2.76418 0
M  V30 2831 C 257.805 -5.21745 -2.68327 0
M  V30 2832 C 260.157 -5.7632 -2.60841 0
M  V30 2833 C 258.821 -6.16354 -2.56251 0
M  V30 2834 H 258.091 -0.437025 -0.598406 0
M  V30 2835 H 260.738 -1.61635 -1.02696 0
M  V30 2836 H 259.043 -1.47429 -3.63004 0
M  V30 2837 H 260.74 -1.85808 -3.55354 0
M  V30 2838 H 257.33 -3.14182 -2.91527 0
M  V30 2839 H 261.514 -4.11285 -2.77775 0
M  V30 2840 H 256.77 -5.51853 -2.63189 0
M  V30 2841 H 260.944 -6.49772 -2.50538 0
M  V30 2842 H 258.571 -7.20401 -2.42748 0
M  V30 2843 N 260.146 1.09593 -1.13257 0
M  V30 2844 C 261.394 1.81375 -0.891492 0
M  V30 2845 C 261.715 1.86049 0.584009 0
M  V30 2846 O 260.985 1.34481 1.42449 0
M  V30 2847 H 259.565 0.671708 -0.326828 0
M  V30 2848 H 262.227 1.3256 -1.42877 0
M  V30 2849 H 261.323 2.84612 -1.28071 0
M  V30 2850 N 261.624 0.925811 1.2754 0
M  V30 2851 C 262.849 0.580924 1.99098 0
M  V30 2852 C 263.274 -0.833555 1.68622 0
M  V30 2853 O 262.632 -1.55903 0.925422 0
M  V30 2854 C 262.68 0.811186 3.51358 0
M  V30 2855 O 261.784 -0.124129 4.12213 0
M  V30 2856 H 261.125 0.223873 0.625122 0
M  V30 2857 H 263.655 1.24455 1.62395 0
M  V30 2858 H 263.665 0.72601 4.01489 0
M  V30 2859 H 262.34 1.84227 3.72872 0
M  V30 2860 H 260.917 0.0108006 3.72898 0
M  V30 2861 N 263.102 -1.41638 0.69111 0
M  V30 2862 C 264.332 -2.0533 0.228758 0
M  V30 2863 C 264.74 -1.52089 -1.12541 0
M  V30 2864 O 264.083 -0.662145 -1.71351 0
M  V30 2865 C 264.145 -3.59349 0.10407 0
M  V30 2866 C 263.809 -4.35362 1.38956 0
M  V30 2867 C 264.806 -4.64942 2.32648 0
M  V30 2868 C 262.491 -4.74714 1.64169 0
M  V30 2869 C 264.485 -5.32828 3.49818 0
M  V30 2870 C 262.172 -5.42338 2.81625 0
M  V30 2871 C 263.17 -5.71322 3.74273 0
M  V30 2872 O 262.858 -6.37554 4.89673 0
M  V30 2873 H 262.59 -0.667796 0.104997 0
M  V30 2874 H 265.144 -1.82477 0.942938 0
M  V30 2875 H 263.374 -3.80924 -0.665839 0
M  V30 2876 H 265.063 -4.04633 -0.320519 0
M  V30 2877 H 265.829 -4.35025 2.14425 0
M  V30 2878 H 261.708 -4.51538 0.929202 0
M  V30 2879 H 265.252 -5.55368 4.22152 0
M  V30 2880 H 261.149 -5.71673 2.99768 0
M  V30 2881 H 261.917 -6.56049 4.8943 0
M  V30 2882 N 264.58 -0.43555 -1.51462 0
M  V30 2883 C 265.826 0.123979 -2.03022 0
M  V30 2884 C 266.181 1.4054 -1.31401 0
M  V30 2885 O 265.474 1.86948 -0.419634 0
M  V30 2886 C 265.668 0.39942 -3.55161 0
M  V30 2887 C 265.497 -0.853754 -4.41521 0
M  V30 2888 C 264.267 -1.38675 -4.85898 0
M  V30 2889 C 266.465 -1.73939 -4.83994 0
M  V30 2890 N 264.447 -2.59265 -5.56466 0
M  V30 2891 C 265.818 -2.79135 -5.5361 0
M  V30 2892 C 267.873 -1.75402 -4.65981 0
M  V30 2893 C 266.576 -3.85737 -6.07124 0
M  V30 2894 C 268.602 -2.80938 -5.20411 0
M  V30 2895 C 267.964 -3.84854 -5.89972 0
M  V30 2896 H 264.063 0.00624887 -0.781975 0
M  V30 2897 H 266.647 -0.59582 -1.85359 0
M  V30 2898 H 264.818 1.08825 -3.72843 0
M  V30 2899 H 266.55 0.95015 -3.93388 0
M  V30 2900 H 263.305 -0.94094 -4.64159 0
M  V30 2901 H 263.729 -3.2041 -5.96378 0
M  V30 2902 H 268.371 -0.963926 -4.11665 0
M  V30 2903 H 266.089 -4.65586 -6.60496 0
M  V30 2904 H 269.675 -2.8301 -5.08327 0
M  V30 2905 H 268.555 -4.65176 -6.31333 0
M  V30 2906 N 266.058 1.56714 -0.166846 0
M  V30 2907 C 267.335 1.88412 0.525373 0
M  V30 2908 C 267.715 1.07602 1.81618 0
M  V30 2909 O 267.063 0.168621 2.27877 0
M  V30 2910 C 267.273 3.40363 0.771613 0
M  V30 2911 C 268.621 4.10007 1.1036 0
M  V30 2912 O 269.645 3.45655 0.860304 0
M  V30 2913 O 268.504 5.2369 1.56239 0
M  V30 2914 H 265.598 0.781587 0.270278 0
M  V30 2915 H 268.144 1.68458 -0.204946 0
M  V30 2916 H 266.916 3.91046 -0.141093 0
M  V30 2917 H 266.539 3.65914 1.55541 0
M  V30 2918 N 267.536 -0.106894 1.57237 0
M  V30 2919 C 268.446 -1.14911 2.0453 0
M  V30 2920 C 269.462 -1.44592 0.96795 0
M  V30 2921 O 270.638 -1.55468 1.2803 0
M  V30 2922 C 267.703 -2.45272 2.45036 0
M  V30 2923 C 266.764 -2.22879 3.66911 0
M  V30 2924 C 265.997 -3.47024 4.05475 0
M  V30 2925 O 266.22 -4.54804 3.44252 0
M  V30 2926 O 265.154 -3.3731 4.98504 0
M  V30 2927 H 268.98 -0.777461 2.9358 0
M  V30 2928 H 266.565 -0.318563 1.45964 0
M  V30 2929 H 268.447 -3.22055 2.71769 0
M  V30 2930 H 267.122 -2.81886 1.59129 0
M  V30 2931 H 266.029 -1.43915 3.45311 0
M  V30 2932 H 267.362 -1.91163 4.53561 0
M  V30 2933 N 269.014 -1.53014 -0.377408 0
M  V30 2934 C 270.239 -1.72818 -1.14668 0
M  V30 2935 C 270.664 -0.450725 -1.8262 0
M  V30 2936 O 270.022 0.59439 -1.7128 0
M  V30 2937 C 270.07 -2.88627 -2.16164 0
M  V30 2938 O 269.174 -2.56409 -3.22998 0
M  V30 2939 H 268.515 -0.574301 -0.333278 0
M  V30 2940 H 271.045 -1.99853 -0.438152 0
M  V30 2941 H 271.055 -3.14455 -2.59966 0
M  V30 2942 H 269.73 -3.81294 -1.66095 0
M  V30 2943 H 268.307 -2.4136 -2.84253 0
M  V30 2944 N 270.492 0.636531 -1.44174 0
M  V30 2945 C 271.903 1.21806 -1.41493 0
M  V30 2946 C 272.254 1.95785 -0.1275 0
M  V30 2947 O 271.379 2.02147 0.772376 0
M  V30 2948 C 271.974 2.21551 -2.56321 0
M  V30 2949 C 270.533 2.75143 -2.56853 0
M  V30 2950 C 269.68 1.50052 -2.33195 0
M  V30 2951 H 272.631 0.427531 -1.52833 0
M  V30 2952 H 272.652 3.0405 -2.28765 0
M  V30 2953 H 272.164 1.67679 -3.50008 0
M  V30 2954 H 270.265 3.33033 -1.67093 0
M  V30 2955 H 270.378 3.2155 -3.55165 0
M  V30 2956 H 268.742 1.77993 -1.82183 0
M  V30 2957 H 269.525 0.980903 -3.28988 0
M  V30 2958 N 271.97 1.30982 0.876444 0
M  V30 2959 C 272.933 1.18054 1.96459 0
M  V30 2960 C 273.933 0.109399 1.60427 0
M  V30 2961 O 275.123 0.358173 1.70478 0
M  V30 2962 C 272.255 0.810616 3.31122 0
M  V30 2963 H 273.448 2.14735 2.09354 0
M  V30 2964 H 271.001 1.145 1.06392 0
M  V30 2965 H 271.736 -0.155322 3.23928 0
M  V30 2966 H 271.521 1.58481 3.58645 0
M  V30 2967 H 273.011 0.743876 4.10921 0
M  V30 2968 N 273.449 -1.08991 1.13837 0
M  V30 2969 C 274.696 -1.81258 0.902882 0
M  V30 2970 C 275.024 -1.85936 -0.570803 0
M  V30 2971 O 274.279 -1.3267 -1.43865 0
M  V30 2972 C 274.578 -3.27042 1.44147 0
M  V30 2973 C 274.244 -3.4249 2.93276 0
M  V30 2974 C 272.906 -3.46414 3.33992 0
M  V30 2975 C 275.258 -3.4666 3.892 0
M  V30 2976 C 272.586 -3.52091 4.69307 0
M  V30 2977 C 274.938 -3.53872 5.24364 0
M  V30 2978 C 273.602 -3.56066 5.646 0
M  V30 2979 H 272.872 -0.663268 0.330388 0
M  V30 2980 H 275.519 -1.28368 1.42105 0
M  V30 2981 H 273.824 -3.82599 0.844097 0
M  V30 2982 H 275.521 -3.81499 1.23528 0
M  V30 2983 H 272.111 -3.40124 2.60794 0
M  V30 2984 H 276.295 -3.42865 3.58828 0
M  V30 2985 H 271.551 -3.52079 4.9985 0
M  V30 2986 H 275.725 -3.56043 5.98503 0
M  V30 2987 H 273.352 -3.60218 6.69438 0
M  V30 2988 N 274.927 -0.932562 -1.27047 0
M  V30 2989 C 276.157 -0.591173 -1.97961 0
M  V30 2990 C 276.565 0.836219 -1.69717 0
M  V30 2991 O 275.908 1.56801 -0.957036 0
M  V30 2992 C 275.97 -0.743082 -3.51736 0
M  V30 2993 C 275.634 -2.1435 -4.03613 0
M  V30 2994 C 276.631 -3.11815 -4.16014 0
M  V30 2995 C 274.316 -2.46175 -4.37839 0
M  V30 2996 C 276.31 -4.39211 -4.61923 0
M  V30 2997 C 273.997 -3.73806 -4.83438 0
M  V30 2998 C 274.995 -4.70137 -4.95439 0
M  V30 2999 O 274.683 -5.95496 -5.40037 0
M  V30 3000 H 274.415 -0.222375 -0.638377 0
M  V30 3001 H 276.969 -1.25317 -1.62742 0
M  V30 3002 H 275.199 -0.0239739 -3.86693 0
M  V30 3003 H 276.888 -0.40603 -4.03864 0
M  V30 3004 H 277.654 -2.88549 -3.89826 0
M  V30 3005 H 273.533 -1.71936 -4.27737 0
M  V30 3006 H 277.077 -5.14404 -4.71205 0
M  V30 3007 H 272.974 -3.96888 -5.09068 0
M  V30 3008 H 273.742 -5.98554 -5.58279 0
M  V30 3009 N 276.405 1.4127 -0.698611 0
M  V30 3010 C 277.821 1.55241 -0.370462 0
M  V30 3011 C 278.021 1.67351 1.12231 0
M  V30 3012 O 277.077 1.65363 1.90818 0
M  V30 3013 C 278.39 2.78997 -1.12165 0
M  V30 3014 C 279.938 2.92797 -1.1063 0
M  V30 3015 C 280.413 4.19445 -1.8393 0
M  V30 3016 N 281.904 4.26409 -1.80914 0
M  V30 3017 C 282.639 5.23271 -2.34467 0
M  V30 3018 N 282.135 6.26145 -2.96504 0
M  V30 3019 N 283.928 5.15232 -2.24706 0
M  V30 3020 H 276.079 1.31654 -1.66676 0
M  V30 3021 H 278.342 0.635393 -0.703548 0
M  V30 3022 H 278.048 2.76268 -2.17644 0
M  V30 3023 H 277.922 3.70606 -0.702209 0
M  V30 3024 H 280.309 2.95039 -0.0597713 0
M  V30 3025 H 280.39 2.02353 -1.56483 0
M  V30 3026 H 280.034 4.17964 -2.88563 0
M  V30 3027 H 279.964 5.08866 -1.35509 0
M  V30 3028 H 282.455 3.527 -1.35687 0
M  V30 3029 H 282.768 6.96451 -3.34927 0
M  V30 3030 H 281.113 6.26638 -3.00583 0
M  V30 3031 H 284.304 4.33789 -1.7591 0
M  V30 3032 H 284.477 5.90552 -2.66745 0
M  V30 3033 N 277.883 0.443576 1.51229 0
M  V30 3034 C 279.132 -0.122332 2.01329 0
M  V30 3035 C 279.445 -1.43237 1.33201 0
M  V30 3036 O 280.651 -2.0816 1.74304 0
M  V30 3037 C 279.107 -0.268551 3.58897 0
M  V30 3038 C 278.715 1.03142 4.35965 0
M  V30 3039 C 280.459 -0.787894 4.17124 0
M  V30 3040 C 278.366 0.850504 5.85252 0
M  V30 3041 H 277.296 -0.0494929 0.752374 0
M  V30 3042 H 279.947 0.574289 1.74282 0
M  V30 3043 H 278.329 -1.02832 3.82415 0
M  V30 3044 H 279.503 1.80001 4.24189 0
M  V30 3045 H 277.818 1.47977 3.89219 0
M  V30 3046 H 280.415 -0.939841 5.26375 0
M  V30 3047 H 280.758 -1.77201 3.76703 0
M  V30 3048 H 281.291 -0.0862669 3.97706 0
M  V30 3049 H 278.03 1.80718 6.30096 0
M  V30 3050 H 277.55 0.121825 5.99676 0
M  V30 3051 H 279.229 0.506163 6.45017 0
M  V30 3052 N 279.361 -1.56624 0.175154 0
M  V30 3053 C 280.609 -1.96609 -0.467885 0
M  V30 3054 C 280.93 -1.06238 -1.63519 0
M  V30 3055 O 280.2 -0.129523 -1.95471 0
M  V30 3056 H 278.78 -0.726008 -0.175845 0
M  V30 3057 H 281.442 -1.93195 0.257234 0
M  V30 3058 H 280.538 -3.00989 -0.825342 0
M  V30 3059 N 280.839 0.0985539 -1.57292 0
M  V30 3060 C 282.116 0.834155 -1.76921 0
M  V30 3061 C 282.496 1.97101 -0.755928 0
M  V30 3062 O 281.844 2.27474 0.216245 0
M  V30 3063 C 282.054 1.33194 -3.22584 0
M  V30 3064 C 283.402 1.77611 -3.85668 0
M  V30 3065 O 284.426 1.42825 -3.26312 0
M  V30 3066 O 283.285 2.4192 -4.90038 0
M  V30 3067 H 280.379 0.397628 -0.725135 0
M  V30 3068 H 282.925 0.0807044 -1.69508 0
M  V30 3069 H 281.697 0.517248 -3.87866 0
M  V30 3070 H 281.32 2.1475 -3.34616 0
M  V30 3071 N 282.317 1.53212 0.369288 0
M  V30 3072 C 283.28 1.7872 1.43498 0
M  V30 3073 C 284.28 0.657554 1.46741 0
M  V30 3074 O 285.47 0.925736 1.47566 0
M  V30 3075 C 282.602 1.90591 2.82645 0
M  V30 3076 H 283.795 2.73894 1.22156 0
M  V30 3077 H 281.348 1.44233 0.602203 0
M  V30 3078 H 282.083 0.974709 3.09306 0
M  V30 3079 H 281.868 2.72751 2.8169 0
M  V30 3080 H 283.358 2.11931 3.59826 0
M  V30 3081 N 283.795 -0.628877 1.44509 0
M  V30 3082 C 285.211 -0.947305 1.28446 0
M  V30 3083 C 285.411 -2.00275 0.221872 0
M  V30 3084 O 284.467 -2.49447 -0.391471 0
M  V30 3085 C 285.78 -1.40843 2.65676 0
M  V30 3086 C 287.328 -1.52379 2.73404 0
M  V30 3087 C 287.803 -2.01875 4.11109 0
M  V30 3088 N 289.294 -2.09142 4.13296 0
M  V30 3089 C 290.029 -2.48615 5.16699 0
M  V30 3090 N 289.525 -2.87209 6.30462 0
M  V30 3091 N 291.318 -2.48768 5.04054 0
M  V30 3092 H 283.469 0.0690977 2.12288 0
M  V30 3093 H 285.732 -0.0317164 0.947469 0
M  V30 3094 H 285.438 -0.707206 3.44516 0
M  V30 3095 H 285.312 -2.37902 2.92716 0
M  V30 3096 H 287.699 -2.21598 1.9488 0
M  V30 3097 H 287.78 -0.536898 2.50102 0
M  V30 3098 H 287.424 -1.3325 4.90109 0
M  V30 3099 H 287.354 -3.0144 4.31789 0
M  V30 3100 H 289.845 -1.81991 3.31191 0
M  V30 3101 H 290.158 -3.16149 7.05174 0
M  V30 3102 H 288.503 -2.84955 6.33897 0
M  V30 3103 H 291.694 -2.18009 4.14234 0
M  V30 3104 H 291.867 -2.79207 5.84763 0
M  V30 3105 N 285.273 -1.31445 -0.869486 0
M  V30 3106 C 286.52 -1.21158 -1.62256 0
M  V30 3107 C 286.848 0.230155 -1.93133 0
M  V30 3108 O 286.103 1.17906 -1.56194 0
M  V30 3109 C 286.402 -2.00145 -2.96102 0
M  V30 3110 C 286.068 -3.4964 -2.84715 0
M  V30 3111 C 284.73 -3.90403 -2.81317 0
M  V30 3112 C 287.082 -4.44769 -2.71716 0
M  V30 3113 C 284.41 -5.24561 -2.62778 0
M  V30 3114 C 286.762 -5.79054 -2.54714 0
M  V30 3115 C 285.426 -6.19037 -2.49699 0
M  V30 3116 H 284.696 -0.443348 -0.593737 0
M  V30 3117 H 287.343 -1.62715 -1.00976 0
M  V30 3118 H 285.648 -1.5127 -3.6142 0
M  V30 3119 H 287.345 -1.89566 -3.53363 0
M  V30 3120 H 283.935 -3.17256 -2.88178 0
M  V30 3121 H 288.119 -4.14208 -2.73397 0
M  V30 3122 H 283.375 -5.54613 -2.57321 0
M  V30 3123 H 287.549 -6.52393 -2.43632 0
M  V30 3124 H 285.176 -7.22935 -2.35093 0
M  V30 3125 N 286.751 1.08385 -1.14413 0
M  V30 3126 C 287.998 1.80776 -0.912482 0
M  V30 3127 C 288.326 1.86236 0.560934 0
M  V30 3128 O 287.581 1.33431 1.43159 0
M  V30 3129 C 287.88 3.26273 -1.45879 0
M  V30 3130 C 287.546 3.4093 -2.95089 0
M  V30 3131 C 286.208 3.44638 -3.35824 0
M  V30 3132 C 288.56 3.44591 -3.91033 0
M  V30 3133 C 285.888 3.49597 -4.71167 0
M  V30 3134 C 288.24 3.51086 -5.26233 0
M  V30 3135 C 286.904 3.53067 -5.6648 0
M  V30 3136 H 286.174 0.661507 -0.333901 0
M  V30 3137 H 288.821 1.27613 -1.42784 0
M  V30 3138 H 287.126 3.82146 -0.864376 0
M  V30 3139 H 288.823 3.80839 -1.2555 0
M  V30 3140 H 285.413 3.38736 -2.62594 0
M  V30 3141 H 289.597 3.40957 -3.60641 0
M  V30 3142 H 284.853 3.49424 -5.0171 0
M  V30 3143 H 289.027 3.52864 -6.00383 0
M  V30 3144 H 286.654 3.56662 -6.71339 0
M  V30 3145 N 288.23 0.939286 1.26551 0
M  V30 3146 C 289.476 0.596234 1.94465 0
M  V30 3147 C 289.831 -0.855013 1.72358 0
M  V30 3148 O 289.124 -1.6034 1.04889 0
M  V30 3149 C 289.318 0.872106 3.46596 0
M  V30 3150 C 289.147 2.34862 3.83497 0
M  V30 3151 C 287.917 3.00344 4.06352 0
M  V30 3152 C 290.115 3.32697 3.92195 0
M  V30 3153 N 288.097 4.38027 4.30123 0
M  V30 3154 C 289.468 4.55631 4.20476 0
M  V30 3155 C 291.523 3.27747 3.74815 0
M  V30 3156 C 290.226 5.74233 4.33185 0
M  V30 3157 C 292.252 4.45672 3.88755 0
M  V30 3158 C 291.614 5.67388 4.17433 0
M  V30 3159 H 287.713 0.268515 0.734455 0
M  V30 3160 H 290.297 1.2083 1.5267 0
M  V30 3161 H 288.468 0.289102 3.87323 0
M  V30 3162 H 290.2 0.490513 4.01716 0
M  V30 3163 H 286.955 2.50969 4.01636 0
M  V30 3164 H 287.379 5.09288 4.46044 0
M  V30 3165 H 292.021 2.34703 3.51673 0
M  V30 3166 H 289.739 6.67731 4.55149 0
M  V30 3167 H 293.325 4.43372 3.76713 0
M  V30 3168 H 292.205 6.57115 4.27983 0
M  V30 3169 N 289.708 -1.40897 0.706093 0
M  V30 3170 C 291.124 -1.55042 0.37869 0
M  V30 3171 C 291.324 -1.67944 -1.11342 0
M  V30 3172 O 290.38 -1.66372 -1.89938 0
M  V30 3173 C 291.693 -2.78398 1.13643 0
M  V30 3174 C 293.241 -2.92206 1.12181 0
M  V30 3175 C 293.716 -4.18463 1.86152 0
M  V30 3176 N 295.207 -4.25443 1.83173 0
M  V30 3177 C 295.942 -5.2202 2.37239 0
M  V30 3178 N 295.438 -6.24563 2.99821 0
M  V30 3179 N 297.231 -5.14033 2.27435 0
M  V30 3180 H 289.382 -1.30769 1.67372 0
M  V30 3181 H 291.645 -0.631653 0.706907 0
M  V30 3182 H 291.351 -2.7511 2.19106 0
M  V30 3183 H 291.225 -3.70228 0.721853 0
M  V30 3184 H 293.612 -2.95004 0.0754171 0
M  V30 3185 H 293.693 -2.01521 1.57554 0
M  V30 3186 H 293.337 -4.16427 2.90776 0
M  V30 3187 H 293.267 -5.08141 1.38206 0
M  V30 3188 H 295.758 -3.51976 1.37556 0
M  V30 3189 H 296.071 -6.94665 3.38616 0
M  V30 3190 H 294.416 -6.25035 3.03902 0
M  V30 3191 H 297.607 -4.3285 1.78208 0
M  V30 3192 H 297.78 -5.89129 2.69873 0
M  V30 3193 N 291.186 -0.45159 -1.50991 0
M  V30 3194 C 292.432 0.110237 -2.025 0
M  V30 3195 C 292.765 1.41109 -1.33424 0
M  V30 3196 O 292.04 1.89135 -0.453659 0
M  V30 3197 C 292.323 0.314271 -3.58726 0
M  V30 3198 C 292.176 -1.00623 -4.38401 0
M  V30 3199 C 293.495 1.07767 -4.26702 0
M  V30 3200 H 290.614 0.0385897 -0.735989 0
M  V30 3201 H 293.256 -0.593374 -1.80497 0
M  V30 3202 H 291.406 0.913601 -3.77605 0
M  V30 3203 H 293.078 -1.64064 -4.31139 0
M  V30 3204 H 291.321 -1.6075 -4.02917 0
M  V30 3205 H 291.992 -0.817341 -5.45915 0
M  V30 3206 H 294.468 0.56986 -4.12179 0
M  V30 3207 H 293.344 1.18921 -5.35863 0
M  V30 3208 H 293.605 2.10939 -3.88532 0
M  V30 3209 N 292.664 1.56529 -0.183458 0
M  V30 3210 C 293.612 2.19873 0.758845 0
M  V30 3211 C 294.606 1.16638 1.22849 0
M  V30 3212 O 295.812 1.3481 1.19274 0
M  V30 3213 H 292.187 0.7045 0.263029 0
M  V30 3214 H 294.158 2.97724 0.200755 0
M  V30 3215 C 292.907 2.86314 1.9728 0
M  V30 3216 H 292.23 3.65487 1.62047 0
M  V30 3217 H 293.67 3.3409 2.61075 0
M  V30 3218 C 292.129 1.86729 2.80418 0
M  V30 3219 O 292.659 1.36031 3.77966 0
M  V30 3220 N 290.865 1.55216 2.45675 0
M  V30 3221 H 290.412 1.96636 1.66409 0
M  V30 3222 H 290.37 0.888388 3.01588 0
M  V30 3223 N 294.142 -0.090211 1.57342 0
M  V30 3224 C 295.092 -1.11557 1.98844 0
M  V30 3225 C 296.076 -1.35503 0.867624 0
M  V30 3226 O 297.268 -1.36113 1.13148 0
M  V30 3227 C 294.397 -2.43446 2.42051 0
M  V30 3228 C 293.483 -2.22853 3.60828 0
M  V30 3229 N 293.874 -1.72141 4.75606 0
M  V30 3230 C 292.172 -2.53401 3.67021 0
M  V30 3231 C 292.873 -1.65932 5.57531 0
M  V30 3232 N 291.849 -2.11323 5.00843 0
M  V30 3233 H 295.651 -0.716499 2.85032 0
M  V30 3234 H 293.165 -0.297567 1.59651 0
M  V30 3235 H 295.162 -3.17644 2.70014 0
M  V30 3236 H 293.822 -2.84087 1.57241 0
M  V30 3237 H 294.833 -1.41268 4.98261 0
M  V30 3238 H 291.51 -2.97532 2.92884 0
M  V30 3239 H 292.9 -1.27733 6.59647 0
M  V30 3240 N 295.62 -1.53406 -0.361157 0
M  V30 3241 C 296.867 -1.69802 -1.10333 0
M  V30 3242 C 297.195 -0.452087 -1.89173 0
M  V30 3243 O 296.45 0.566017 -1.87336 0
M  V30 3244 C 296.749 -2.90211 -2.08596 0
M  V30 3245 C 296.415 -4.26539 -1.46203 0
M  V30 3246 C 295.077 -4.6361 -1.28915 0
M  V30 3247 C 297.429 -5.113 -1.01101 0
M  V30 3248 C 294.757 -5.83075 -0.651157 0
M  V30 3249 C 297.109 -6.31415 -0.387007 0
M  V30 3250 C 295.773 -6.67195 -0.201657 0
M  V30 3251 H 295.043 -0.621351 -0.403737 0
M  V30 3252 H 297.69 -1.87598 -0.384609 0
M  V30 3253 H 295.995 -2.66946 -2.86788 0
M  V30 3254 H 297.692 -3.00091 -2.65982 0
M  V30 3255 H 294.282 -3.97352 -1.60653 0
M  V30 3256 H 298.466 -4.83206 -1.13249 0
M  V30 3257 H 293.722 -6.09385 -0.496006 0
M  V30 3258 H 297.896 -6.96394 -0.0293563 0
M  V30 3259 H 295.523 -7.59628 0.294766 0
M  V30 3260 N 297.098 0.621204 -1.44841 0
M  V30 3261 C 298.328 1.40548 -1.51426 0
M  V30 3262 C 298.736 1.88673 -0.141083 0
M  V30 3263 O 298.079 1.62053 0.865128 0
M  V30 3264 C 298.141 2.65325 -2.42576 0
M  V30 3265 C 297.805 2.3893 -3.89566 0
M  V30 3266 C 298.802 2.00138 -4.79834 0
M  V30 3267 C 296.487 2.52263 -4.3436 0
M  V30 3268 C 298.481 1.75021 -6.129 0
M  V30 3269 C 296.168 2.2676 -5.67471 0
M  V30 3270 C 297.166 1.88199 -6.56559 0
M  V30 3271 O 296.854 1.62986 -7.87204 0
M  V30 3272 H 296.586 0.437122 -0.515655 0
M  V30 3273 H 299.14 0.765987 -1.90583 0
M  V30 3274 H 297.37 3.31947 -1.98364 0
M  V30 3275 H 299.059 3.27347 -2.39998 0
M  V30 3276 H 299.825 1.89386 -4.46495 0
M  V30 3277 H 295.704 2.81246 -3.65269 0
M  V30 3278 H 299.248 1.44848 -6.82396 0
M  V30 3279 H 295.145 2.37125 -6.00368 0
M  V30 3280 H 295.913 1.7715 -7.991 0
M  V30 3281 N 298.576 1.31904 0.862503 0
M  V30 3282 C 299.987 1.19803 1.43193 0
M  V30 3283 C 300.338 -0.192567 1.95253 0
M  V30 3284 O 299.463 -1.09081 1.86896 0
M  V30 3285 C 300.058 2.16883 2.60283 0
M  V30 3286 C 298.617 2.08692 3.13248 0
M  V30 3287 C 297.764 2.05691 1.85975 0
M  V30 3288 H 300.715 1.43846 0.670365 0
M  V30 3289 H 300.736 1.76278 3.37204 0
M  V30 3290 H 300.248 3.18083 2.22363 0
M  V30 3291 H 298.349 1.10713 3.55771 0
M  V30 3292 H 298.462 2.9815 3.75025 0
M  V30 3293 H 296.826 1.50814 2.05249 0
M  V30 3294 H 297.609 3.08659 1.50282 0
M  V30 3295 N 300.054 -1.07777 1.14986 0
M  V30 3296 C 301.301 -1.8029 0.922056 0
M  V30 3297 C 301.629 -1.86531 -0.55105 0
M  V30 3298 O 300.884 -1.34189 -1.42449 0
M  V30 3299 C 301.183 -3.25495 1.47608 0
M  V30 3300 C 300.849 -3.39361 2.96893 0
M  V30 3301 C 299.511 -3.42852 3.37647 0
M  V30 3302 C 301.863 -3.42512 3.92854 0
M  V30 3303 C 299.191 -3.47094 4.73015 0
M  V30 3304 C 301.543 -3.4829 5.28088 0
M  V30 3305 C 300.207 -3.50058 5.68345 0
M  V30 3306 H 299.477 -0.659727 0.337404 0
M  V30 3307 H 302.124 -1.26854 1.43459 0
M  V30 3308 H 300.429 -3.81683 0.88463 0
M  V30 3309 H 302.126 -3.80168 1.27568 0
M  V30 3310 H 298.716 -3.37339 2.64387 0
M  V30 3311 H 302.9 -3.3904 3.62444 0
M  V30 3312 H 298.156 -3.46758 5.03556 0
M  V30 3313 H 302.33 -3.49675 6.02246 0
M  V30 3314 H 299.957 -3.53097 6.73221 0
M  V30 3315 N 301.532 -0.945985 -1.26051 0
M  V30 3316 C 302.762 -0.612136 -1.97323 0
M  V30 3317 C 303.17 0.818171 -1.70595 0
M  V30 3318 O 302.513 1.55777 -0.973613 0
M  V30 3319 C 302.575 -0.780347 -3.50929 0
M  V30 3320 C 302.239 -2.18619 -4.01317 0
M  V30 3321 C 303.236 -3.16209 -4.12683 0
M  V30 3322 C 300.921 -2.50805 -4.35203 0
M  V30 3323 C 302.915 -4.44085 -4.57238 0
M  V30 3324 C 300.602 -3.78912 -4.79446 0
M  V30 3325 C 301.6 -4.75365 -4.90425 0
M  V30 3326 O 301.288 -6.01191 -5.3369 0
M  V30 3327 H 301.02 -0.229134 -0.635982 0
M  V30 3328 H 303.574 -1.27036 -1.61404 0
M  V30 3329 H 301.804 -0.0649864 -3.86645 0
M  V30 3330 H 303.493 -0.448842 -4.03411 0
M  V30 3331 H 304.259 -2.92668 -3.86744 0
M  V30 3332 H 300.138 -1.76463 -4.2589 0
M  V30 3333 H 303.682 -5.19373 -4.65723 0
M  V30 3334 H 299.579 -4.02265 -5.0483 0
M  V30 3335 H 300.347 -6.04442 -5.51899 0
M  V30 3336 N 303.011 1.40521 -0.713556 0
M  V30 3337 C 304.422 1.83853 -0.324807 0
M  V30 3338 C 304.773 1.59667 1.14021 0
M  V30 3339 O 303.898 1.07649 1.87725 0
M  V30 3340 C 304.493 3.33751 -0.582746 0
M  V30 3341 C 303.052 3.75584 -0.247727 0
M  V30 3342 C 302.199 2.63753 -0.856121 0
M  V30 3343 H 305.15 1.29817 -0.91286 0
M  V30 3344 H 305.171 3.80194 0.152682 0
M  V30 3345 H 304.683 3.51322 -1.64908 0
M  V30 3346 H 302.784 3.63608 0.813624 0
M  V30 3347 H 302.897 4.7373 -0.715307 0
M  V30 3348 H 301.261 2.53108 -0.28432 0
M  V30 3349 H 302.044 2.84137 -1.92668 0
M  V30 3350 N 304.489 0.459591 1.5075 0
M  V30 3351 C 305.419 -0.330644 2.31147 0
M  V30 3352 C 306.4 -1.00087 1.37538 0
M  V30 3353 O 307.585 -1.00025 1.66459 0
M  V30 3354 C 304.715 -1.41958 3.16962 0
M  V30 3355 C 303.669 -0.871608 4.19031 0
M  V30 3356 C 302.995 -2.05797 4.9351 0
M  V30 3357 C 304.295 0.109251 5.22186 0
M  V30 3358 H 305.989 0.340336 2.97459 0
M  V30 3359 H 303.535 0.165119 1.4305 0
M  V30 3360 H 305.488 -1.9798 3.71997 0
M  V30 3361 H 304.212 -2.11917 2.48513 0
M  V30 3362 H 302.871 -0.333442 3.6508 0
M  V30 3363 H 302.519 -2.74427 4.21544 0
M  V30 3364 H 302.219 -1.6976 5.62544 0
M  V30 3365 H 303.743 -2.62331 5.51375 0
M  V30 3366 H 305.157 -0.361405 5.7216 0
M  V30 3367 H 303.554 0.383316 5.98875 0
M  V30 3368 H 304.624 1.03887 4.73641 0
M  V30 3369 N 305.967 -1.56429 0.191757 0
M  V30 3370 C 307.244 -1.89224 -0.495332 0
M  V30 3371 C 307.624 -1.10478 -1.79883 0
M  V30 3372 O 306.972 -0.204852 -2.2758 0
M  V30 3373 C 307.182 -3.41548 -0.717367 0
M  V30 3374 C 308.53 -4.11711 -1.03823 0
M  V30 3375 O 309.554 -3.4698 -0.805204 0
M  V30 3376 O 308.413 -5.2611 -1.47887 0
M  V30 3377 H 305.507 -0.785788 -0.25781 0
M  V30 3378 H 308.053 -1.68111 0.231721 0
M  V30 3379 H 306.825 -3.90772 0.203287 0
M  V30 3380 H 306.448 -3.68342 -1.497 0
M  V30 3381 N 307.445 0.0818655 -1.57387 0
M  V30 3382 C 308.355 1.11642 -2.06333 0
M  V30 3383 C 309.371 1.43033 -0.99083 0
M  V30 3384 O 310.547 1.53411 -1.30488 0
M  V30 3385 C 307.612 2.41342 -2.48907 0
M  V30 3386 C 306.673 2.17014 -3.7041 0
M  V30 3387 C 305.906 3.4053 -4.10944 0
M  V30 3388 O 306.129 4.4927 -3.51444 0
M  V30 3389 O 305.063 3.29336 -5.03807 0
M  V30 3390 H 308.889 0.730657 -2.9478 0
M  V30 3391 H 306.474 0.295301 -1.46452 0
M  V30 3392 H 308.356 3.17691 -2.76858 0
M  V30 3393 H 307.031 2.79319 -1.63593 0
M  V30 3394 H 305.938 1.38403 -3.47556 0
M  V30 3395 H 307.271 1.83923 -4.56545 0
M  V30 3396 N 308.923 1.53595 0.353017 0
M  V30 3397 C 309.833 1.83897 1.45667 0
M  V30 3398 C 310.849 0.728334 1.58023 0
M  V30 3399 O 312.025 1.01968 1.73679 0
M  V30 3400 C 309.09 2.03383 2.80778 0
M  V30 3401 C 308.151 3.27262 2.77845 0
M  V30 3402 C 307.384 3.45809 4.06512 0
M  V30 3403 O 307.607 2.68387 5.03314 0
M  V30 3404 O 306.541 4.39207 4.11559 0
M  V30 3405 H 310.367 2.77686 1.2298 0
M  V30 3406 H 307.952 1.39132 0.544308 0
M  V30 3407 H 309.834 2.17698 3.60812 0
M  V30 3408 H 308.509 1.12783 3.03417 0
M  V30 3409 H 307.416 3.18359 1.96465 0
M  V30 3410 H 308.749 4.17824 2.60161 0
M  V30 3411 N 310.401 -0.613514 1.45168 0
M  V30 3412 C 311.331 -1.7354 1.56225 0
M  V30 3413 C 312.312 -1.64981 0.41414 0
M  V30 3414 O 313.497 -1.83472 0.636526 0
M  V30 3415 C 310.627 -3.12128 1.52295 0
M  V30 3416 C 309.581 -3.35491 2.65762 0
M  V30 3417 C 308.907 -4.74291 2.46885 0
M  V30 3418 C 310.207 -3.26325 4.0781 0
M  V30 3419 H 311.901 -1.64543 2.50132 0
M  V30 3420 H 309.447 -0.790185 1.20383 0
M  V30 3421 H 311.4 -3.90404 1.58628 0
M  V30 3422 H 310.124 -3.2195 0.549139 0
M  V30 3423 H 308.783 -2.59603 2.58847 0
M  V30 3424 H 308.431 -4.80839 1.47657 0
M  V30 3425 H 308.131 -4.9088 3.22972 0
M  V30 3426 H 309.655 -5.54775 2.55063 0
M  V30 3427 H 311.069 -3.94483 4.16 0
M  V30 3428 H 309.466 -3.54445 4.8424 0
M  V30 3429 H 310.536 -2.23855 4.30136 0
M  V30 3430 N 311.879 -1.3236 -0.855495 0
M  V30 3431 C 313.156 -1.13491 -1.59309 0
M  V30 3432 C 313.536 0.30503 -2.08885 0
M  V30 3433 O 312.884 1.30151 -1.87811 0
M  V30 3434 C 313.094 -2.16176 -2.73987 0
M  V30 3435 C 314.442 -2.49463 -3.43589 0
M  V30 3436 O 315.466 -2.14715 -2.84211 0
M  V30 3437 O 314.325 -3.09027 -4.50738 0
M  V30 3438 H 311.419 -0.437887 -0.701559 0
M  V30 3439 H 313.965 -1.43887 -0.899696 0
M  V30 3440 H 312.737 -3.1297 -2.34873 0
M  V30 3441 H 312.36 -1.86769 -3.51003 0
M  V30 3442 N 313.357 1.07166 -1.15556 0
M  V30 3443 C 314.287 2.16403 -0.877046 0
M  V30 3444 C 315.268 1.69217 0.173111 0
M  V30 3445 O 316.453 1.94181 0.027084 0
M  V30 3446 C 313.583 3.45349 -0.367632 0
M  V30 3447 C 312.537 4.05995 -1.35468 0
M  V30 3448 C 311.863 5.30045 -0.704038 0
M  V30 3449 C 313.163 4.45804 -2.72132 0
M  V30 3450 H 314.857 2.39959 -1.79053 0
M  V30 3451 H 312.403 1.15325 -0.862331 0
M  V30 3452 H 314.356 4.21095 -0.160317 0
M  V30 3453 H 313.08 3.21385 0.581326 0
M  V30 3454 H 311.739 3.32296 -1.54839 0
M  V30 3455 H 311.387 5.02373 0.251128 0
M  V30 3456 H 311.087 5.71579 -1.36277 0
M  V30 3457 H 312.611 6.08495 -0.50654 0
M  V30 3458 H 314.025 5.12671 -2.56595 0
M  V30 3459 H 312.422 4.98296 -3.34397 0
M  V30 3460 H 313.492 3.57083 -3.28054 0
M  V30 3461 N 314.835 0.952656 1.25548 0
M  V30 3462 C 315.783 0.462354 2.27958 0
M  V30 3463 C 316.777 -0.46634 1.62855 0
M  V30 3464 O 317.983 -0.343287 1.76696 0
M  V30 3465 H 314.358 0.13101 0.7405 0
M  V30 3466 H 316.329 1.33839 2.66702 0
M  V30 3467 C 315.078 -0.24628 3.46827 0
M  V30 3468 H 314.401 0.459192 3.97154 0
M  V30 3469 H 315.841 -0.553393 4.20373 0
M  V30 3470 C 314.3 -1.4681 3.0323 0
M  V30 3471 O 314.83 -2.56591 3.09069 0
M  V30 3472 N 313.036 -1.32874 2.58443 0
M  V30 3473 H 312.583 -0.435536 2.53891 0
M  V30 3474 H 312.541 -2.14742 2.29637 0
M  V30 3475 N 316.313 -1.40141 0.720998 0
M  V30 3476 C 317.543 -2.04798 0.27226 0
M  V30 3477 C 317.951 -1.54442 -1.09289 0
M  V30 3478 O 317.294 -0.698342 -1.69908 0
M  V30 3479 C 317.356 -3.59048 0.18027 0
M  V30 3480 C 317.02 -4.32317 1.48159 0
M  V30 3481 C 318.017 -4.59902 2.42458 0
M  V30 3482 C 315.702 -4.71125 1.74202 0
M  V30 3483 C 317.696 -5.25288 3.61042 0
M  V30 3484 C 315.383 -5.36242 2.93066 0
M  V30 3485 C 316.381 -5.63254 3.86308 0
M  V30 3486 O 316.069 -6.27024 5.03086 0
M  V30 3487 H 315.801 -0.665419 0.119139 0
M  V30 3488 H 318.355 -1.80436 0.981432 0
M  V30 3489 H 316.585 -3.82251 -0.58489 0
M  V30 3490 H 318.274 -4.05221 -0.234618 0
M  V30 3491 H 319.04 -4.30379 2.23604 0
M  V30 3492 H 314.919 -4.49466 1.02477 0
M  V30 3493 H 318.463 -5.46289 4.33837 0
M  V30 3494 H 314.36 -5.65185 3.11826 0
M  V30 3495 H 315.128 -6.4552 5.03235 0
M  V30 3496 N 317.792 -0.46758 -1.50504 0
M  V30 3497 C 319.041 0.0902868 -2.01498 0
M  V30 3498 C 319.354 1.411 -1.35463 0
M  V30 3499 O 320.56 2.0536 -1.77594 0
M  V30 3500 C 319.016 0.21142 -3.59278 0
M  V30 3501 C 318.624 -1.10065 -4.34269 0
M  V30 3502 C 320.368 0.721433 -4.18325 0
M  V30 3503 C 318.275 -0.943505 -5.83825 0
M  V30 3504 H 317.205 0.037517 -0.753066 0
M  V30 3505 H 319.856 -0.601943 -1.73346 0
M  V30 3506 H 318.238 0.967352 -3.84003 0
M  V30 3507 H 319.412 -1.86726 -4.21272 0
M  V30 3508 H 317.727 -1.5415 -3.86816 0
M  V30 3509 H 320.324 0.85598 -5.27804 0
M  V30 3510 H 320.667 1.71186 -3.79475 0
M  V30 3511 H 321.2 0.0229843 -3.97793 0
M  V30 3512 H 317.939 -1.90719 -6.27141 0
M  V30 3513 H 317.459 -0.217213 -5.99407 0
M  V30 3514 H 319.138 -0.608715 -6.4413 0
M  V30 3515 N 319.27 1.56325 -0.20005 0
M  V30 3516 C 320.498 2.02105 0.442874 0
M  V30 3517 C 320.913 1.08014 1.5485 0
M  V30 3518 O 320.27 0.0858797 1.82298 0
M  V30 3519 C 320.321 3.47549 0.994583 0
M  V30 3520 O 320.042 4.38049 -0.0669322 0
M  V30 3521 C 321.543 4.0887 1.7129 0
M  V30 3522 H 318.763 0.661807 0.110691 0
M  V30 3523 H 321.307 2.02134 -0.310207 0
M  V30 3524 H 319.462 3.48204 1.69803 0
M  V30 3525 H 319.876 5.23368 0.344462 0
M  V30 3526 H 321.35 5.12475 2.05118 0
M  V30 3527 H 321.827 3.52615 2.61838 0
M  V30 3528 H 322.433 4.12002 1.05518 0
M  V30 3529 N 320.748 -0.0735177 1.57428 0
M  V30 3530 C 322.025 -0.805903 1.78226 0
M  V30 3531 C 322.405 -1.95874 0.787189 0
M  V30 3532 O 321.753 -2.2779 -0.180029 0
M  V30 3533 C 321.963 -1.28045 3.24662 0
M  V30 3534 C 323.311 -1.71453 3.88444 0
M  V30 3535 O 324.335 -1.37616 3.28543 0
M  V30 3536 O 323.194 -2.34093 4.93825 0
M  V30 3537 H 320.288 -0.386041 0.73137 0
M  V30 3538 H 322.834 -0.0537269 1.69615 0
M  V30 3539 H 321.606 -0.455476 3.8864 0
M  V30 3540 H 321.229 -2.094 3.37991 0
M  V30 3541 N 322.226 -1.5378 -0.344866 0
M  V30 3542 C 323.158 -1.77988 -1.44406 0
M  V30 3543 C 324.171 -0.661138 -1.48771 0
M  V30 3544 O 325.36 -0.937842 -1.51877 0
M  V30 3545 C 322.46 -1.86345 -2.8307 0
M  V30 3546 C 321.633 -3.16256 -3.0216 0
M  V30 3547 C 320.692 -3.15588 -4.21059 0
M  V30 3548 O 319.718 -3.89314 -4.15239 0
M  V30 3549 N 320.92 -2.37864 -5.29529 0
M  V30 3550 H 323.685 -2.72839 -1.24012 0
M  V30 3551 H 321.246 -1.52814 -0.534737 0
M  V30 3552 H 323.238 -1.83351 -3.60783 0
M  V30 3553 H 321.808 -0.986858 -2.96614 0
M  V30 3554 H 321.028 -3.32385 -2.11929 0
M  V30 3555 H 322.316 -4.0207 -3.11797 0
M  V30 3556 H 321.714 -1.77514 -5.37127 0
M  V30 3557 H 320.271 -2.40668 -6.05741 0
M  V30 3558 N 323.704 0.605807 -1.45491 0
M  V30 3559 C 324.929 1.39625 -1.53361 0
M  V30 3560 C 325.354 1.87351 -0.167645 0
M  V30 3561 O 324.712 1.60243 0.848051 0
M  V30 3562 C 324.76 2.57559 -2.5238 0
M  V30 3563 O 323.864 3.58248 -2.04285 0
M  V30 3564 H 323.205 0.416771 -0.516912 0
M  V30 3565 H 325.735 0.737103 -1.90861 0
M  V30 3566 H 325.745 3.0478 -2.71244 0
M  V30 3567 H 324.42 2.22171 -3.51586 0
M  V30 3568 H 322.997 3.17664 -1.95305 0
M  V30 3569 N 325.182 1.32811 0.848464 0
M  V30 3570 C 326.431 1.23075 1.59798 0
M  V30 3571 C 326.744 -0.204419 1.94529 0
M  V30 3572 O 327.95 -0.423701 2.68173 0
M  V30 3573 C 326.406 2.15594 2.88179 0
M  V30 3574 C 326.014 3.64228 2.60849 0
M  V30 3575 C 327.758 2.14709 3.66197 0
M  V30 3576 C 325.665 4.48689 3.85269 0
M  V30 3577 H 324.595 0.457091 0.599653 0
M  V30 3578 H 327.246 1.57813 0.936342 0
M  V30 3579 H 325.628 1.73778 3.55833 0
M  V30 3580 H 326.802 4.14424 2.01467 0
M  V30 3581 H 325.117 3.67306 1.96151 0
M  V30 3582 H 327.714 2.75046 4.58534 0
M  V30 3583 H 328.057 1.13966 4.00397 0
M  V30 3584 H 328.59 2.54837 3.05455 0
M  V30 3585 H 325.329 5.5027 3.56207 0
M  V30 3586 H 324.849 4.03241 4.44024 0
M  V30 3587 H 326.528 4.62006 4.52946 0
M  V30 3588 N 326.66 -1.06551 1.16123 0
M  V30 3589 C 327.61 -2.12209 0.833736 0
M  V30 3590 C 328.594 -1.59825 -0.185656 0
M  V30 3591 O 329.786 -1.76994 0.0147906 0
M  V30 3592 C 326.915 -3.41674 0.333697 0
M  V30 3593 C 326.001 -4.00892 1.38372 0
M  V30 3594 N 326.392 -4.34256 2.59337 0
M  V30 3595 C 324.69 -4.28463 1.23836 0
M  V30 3596 C 325.391 -4.81291 3.26701 0
M  V30 3597 N 324.367 -4.80565 2.54083 0
M  V30 3598 H 328.169 -2.35849 1.75364 0
M  V30 3599 H 325.683 -1.24068 1.04789 0
M  V30 3600 H 327.68 -4.16822 0.0806918 0
M  V30 3601 H 326.34 -3.19475 -0.58017 0
M  V30 3602 H 327.351 -4.24687 2.96415 0
M  V30 3603 H 324.028 -4.15721 0.38504 0
M  V30 3604 H 325.418 -5.16332 4.29943 0
M  V30 3605 N 328.138 -0.959301 -1.25041 0
M  V30 3606 C 329.385 -0.616611 -1.92884 0
M  V30 3607 C 329.713 0.847036 -1.75087 0
M  V30 3608 O 328.968 1.62374 -1.09239 0
M  V30 3609 C 329.267 -0.927136 -3.45165 0
M  V30 3610 C 328.933 -2.37757 -3.83122 0
M  V30 3611 C 327.595 -2.77402 -3.93194 0
M  V30 3612 C 329.947 -3.31929 -4.01836 0
M  V30 3613 C 327.275 -4.10277 -4.19392 0
M  V30 3614 C 329.627 -4.64423 -4.29528 0
M  V30 3615 C 328.291 -5.03857 -4.37818 0
M  V30 3616 H 327.561 -0.225634 -0.705812 0
M  V30 3617 H 330.208 -1.20921 -1.48493 0
M  V30 3618 H 328.513 -0.252195 -3.90987 0
M  V30 3619 H 330.21 -0.6405 -3.95852 0
M  V30 3620 H 326.8 -2.06013 -3.75841 0
M  V30 3621 H 330.984 -3.02488 -3.93465 0
M  V30 3622 H 326.24 -4.40467 -4.24027 0
M  V30 3623 H 330.414 -5.37369 -4.42953 0
M  V30 3624 H 328.041 -6.06843 -4.57871 0
M  V30 3625 N 329.616 1.39756 -0.72842 0
M  V30 3626 C 330.548 2.29157 -0.0446202 0
M  V30 3627 C 331.561 1.46484 0.710367 0
M  V30 3628 O 332.75 1.69632 0.55562 0
M  V30 3629 C 329.85 3.24987 0.961071 0
M  V30 3630 C 329.023 4.36572 0.268967 0
M  V30 3631 C 328.082 5.12756 1.18184 0
M  V30 3632 O 327.108 5.6534 0.661794 0
M  V30 3633 N 328.31 5.23331 2.51206 0
M  V30 3634 H 331.075 2.88482 -0.812295 0
M  V30 3635 H 328.636 1.51265 -0.577098 0
M  V30 3636 H 330.628 3.72827 1.57423 0
M  V30 3637 H 329.198 2.66739 1.63 0
M  V30 3638 H 328.418 3.90694 -0.524574 0
M  V30 3639 H 329.706 5.08363 -0.210934 0
M  V30 3640 H 329.104 4.82116 2.9594 0
M  V30 3641 H 327.661 5.74634 3.07634 0
M  V30 3642 N 331.094 0.475555 1.50254 0
M  V30 3643 C 332.024 -0.30611 2.31485 0
M  V30 3644 C 333.005 -0.986228 1.38591 0
M  V30 3645 O 334.19 -0.982541 1.67511 0
M  V30 3646 C 331.32 -1.38588 3.1845 0
M  V30 3647 C 330.274 -0.827115 4.19932 0
M  V30 3648 C 329.6 -2.00551 4.95665 0
M  V30 3649 C 330.9 0.16463 5.2204 0
M  V30 3650 H 332.594 0.371866 2.97082 0
M  V30 3651 H 330.14 0.180282 1.42867 0
M  V30 3652 H 332.093 -1.94023 3.74076 0
M  V30 3653 H 330.817 -2.09269 2.50747 0
M  V30 3654 H 329.476 -0.294702 3.65414 0
M  V30 3655 H 329.124 -2.6994 4.2443 0
M  V30 3656 H 328.824 -1.63784 5.64313 0
M  V30 3657 H 330.348 -2.56468 5.54127 0
M  V30 3658 H 331.762 -0.300699 5.72511 0
M  V30 3659 H 330.159 0.446813 5.98434 0
M  V30 3660 H 331.229 1.08905 4.72512 0
M  V30 3661 N 332.573 -1.56217 0.208337 0
M  V30 3662 C 333.82 -1.97949 -0.42692 0
M  V30 3663 C 334.148 -1.09562 -1.60706 0
M  V30 3664 O 333.403 -0.137616 -1.95216 0
M  V30 3665 C 333.702 -3.45441 -0.916797 0
M  V30 3666 C 333.368 -4.50646 0.151391 0
M  V30 3667 C 332.03 -4.79139 0.444867 0
M  V30 3668 C 334.382 -5.13811 0.874492 0
M  V30 3669 C 331.71 -5.68084 1.46619 0
M  V30 3670 C 334.062 -6.03861 1.88506 0
M  V30 3671 C 332.726 -6.30704 2.18559 0
M  V30 3672 H 331.996 -0.724345 -0.156221 0
M  V30 3673 H 334.643 -1.89006 0.308084 0
M  V30 3674 H 332.948 -3.51521 -1.73032 0
M  V30 3675 H 334.645 -3.75094 -1.41794 0
M  V30 3676 H 331.235 -4.28511 -0.0875068 0
M  V30 3677 H 335.419 -4.91879 0.660996 0
M  V30 3678 H 330.675 -5.87151 1.7048 0
M  V30 3679 H 334.849 -6.51861 2.45051 0
M  V30 3680 H 332.476 -6.99424 2.97843 0
M  V30 3681 N 334.051 0.0651679 -1.57465 0
M  V30 3682 C 334.961 1.09448 -2.07505 0
M  V30 3683 C 335.977 1.41974 -1.00595 0
M  V30 3684 O 337.153 1.52018 -1.32107 0
M  V30 3685 C 334.218 2.38689 -2.51453 0
M  V30 3686 C 333.279 2.13073 -3.72691 0
M  V30 3687 C 332.512 3.36152 -4.14533 0
M  V30 3688 O 332.735 4.45517 -3.56189 0
M  V30 3689 O 331.669 3.23974 -5.07272 0
M  V30 3690 H 335.495 0.69935 -2.95538 0
M  V30 3691 H 333.08 0.279752 -1.46757 0
M  V30 3692 H 334.962 3.14736 -2.80212 0
M  V30 3693 H 333.637 2.77568 -1.66546 0
M  V30 3694 H 332.544 1.34709 -3.49005 0
M  V30 3695 H 333.877 1.79071 -4.5847 0
M  V30 3696 N 335.529 1.53961 0.336706 0
M  V30 3697 C 336.459 1.85417 1.41925 0
M  V30 3698 C 337.44 0.709856 1.5458 0
M  V30 3699 O 338.625 0.962396 1.68676 0
M  V30 3700 C 335.755 2.06985 2.78881 0
M  V30 3701 C 334.709 3.22813 2.81026 0
M  V30 3702 C 334.035 3.29727 4.20932 0
M  V30 3703 C 335.335 4.60767 2.45949 0
M  V30 3704 H 337.029 2.76079 1.15848 0
M  V30 3705 H 334.575 1.32839 0.555859 0
M  V30 3706 H 336.528 2.27575 3.54665 0
M  V30 3707 H 335.252 1.13061 3.06406 0
M  V30 3708 H 333.911 3.0209 2.07695 0
M  V30 3709 H 333.559 2.33385 4.45579 0
M  V30 3710 H 333.259 4.07566 4.23277 0
M  V30 3711 H 334.783 3.52536 4.98549 0
M  V30 3712 H 336.197 4.81325 3.11446 0
M  V30 3713 H 334.594 5.4106 2.59566 0
M  V30 3714 H 335.664 4.6391 1.41122 0
M  V30 3715 N 337.007 -0.598083 1.45811 0
M  V30 3716 C 337.917 -1.73632 1.57763 0
M  V30 3717 C 338.933 -1.67763 0.461676 0
M  V30 3718 O 340.109 -1.87949 0.723685 0
M  V30 3719 C 337.174 -3.10114 1.55018 0
M  V30 3720 C 336.235 -3.27364 2.77726 0
M  V30 3721 C 335.468 -4.57334 2.75102 0
M  V30 3722 O 335.691 -5.40258 1.8297 0
M  V30 3723 O 334.625 -4.77502 3.66437 0
M  V30 3724 H 338.451 -1.66498 2.53992 0
M  V30 3725 H 336.036 -0.763308 1.28429 0
M  V30 3726 H 337.918 -3.9141 1.56129 0
M  V30 3727 H 336.593 -3.17718 0.619431 0
M  V30 3728 H 335.5 -2.45619 2.82174 0
M  V30 3729 H 336.833 -3.24641 3.69958 0
M  V30 3730 N 338.485 -1.33259 -0.841409 0
M  V30 3731 C 339.432 -1.23302 -1.95103 0
M  V30 3732 C 340.402 -0.112204 -1.65721 0
M  V30 3733 O 341.587 -0.290038 -1.88583 0
M  V30 3734 C 338.727 -0.975583 -3.31023 0
M  V30 3735 C 337.84 -2.18243 -3.72819 0
M  V30 3736 C 336.975 -1.85936 -4.97595 0
M  V30 3737 C 336.014 -3.02866 -5.3192 0
M  V30 3738 N 335.151 -2.70565 -6.47873 0
M  V30 3739 H 339.991 -2.18207 -2.02952 0
M  V30 3740 H 337.528 -1.0851 -0.993173 0
M  V30 3741 H 339.486 -0.80677 -4.09325 0
M  V30 3742 H 338.116 -0.0632755 -3.22738 0
M  V30 3743 H 337.168 -2.46107 -2.90061 0
M  V30 3744 H 338.48 -3.05666 -3.94169 0
M  V30 3745 H 337.634 -1.65684 -5.83638 0
M  V30 3746 H 336.373 -0.957452 -4.78209 0
M  V30 3747 H 335.378 -3.23736 -4.44382 0
M  V30 3748 H 336.603 -3.93809 -5.53255 0
M  V30 3749 H 334.549 -1.8293 -6.29978 0
M  V30 3750 H 334.466 -3.51519 -6.69306 0
M  V30 3751 H 335.734 -2.53774 -7.37034 0
M  V30 3752 N 339.963 1.05934 -1.16686 0
M  V30 3753 C 340.911 2.15603 -0.872817 0
M  V30 3754 C 341.905 1.68647 0.159576 0
M  V30 3755 O 343.111 1.79995 0.0132125 0
M  V30 3756 H 339.486 0.703885 -0.264671 0
M  V30 3757 H 341.457 2.37613 -1.80507 0
M  V30 3758 C 340.206 3.45457 -0.394344 0
M  V30 3759 H 339.529 3.81984 -1.18019 0
M  V30 3760 H 340.969 4.2339 -0.227408 0
M  V30 3761 C 339.428 3.25021 0.88673 0
M  V30 3762 O 339.958 3.50906 1.95519 0
M  V30 3763 N 338.164 2.78437 0.831925 0
M  V30 3764 H 337.711 2.57572 -0.0377619 0
M  V30 3765 H 337.669 2.65144 1.68956 0
M  V30 3766 N 341.441 0.965919 1.2453 0
M  V30 3767 C 342.351 0.502154 2.29163 0
M  V30 3768 C 343.367 -0.436017 1.68448 0
M  V30 3769 O 344.543 -0.309497 1.99008 0
M  V30 3770 C 341.608 -0.201956 3.46111 0
M  V30 3771 C 340.669 0.775821 4.22232 0
M  V30 3772 C 339.902 0.105217 5.33596 0
M  V30 3773 O 340.125 -1.10683 5.59558 0
M  V30 3774 O 339.059 0.796475 5.96607 0
M  V30 3775 H 342.885 1.37194 2.70946 0
M  V30 3776 H 340.47 0.732875 1.30189 0
M  V30 3777 H 342.352 -0.597564 4.17142 0
M  V30 3778 H 341.027 -1.04673 3.06309 0
M  V30 3779 H 339.934 1.22185 3.53584 0
M  V30 3780 H 341.267 1.58896 4.65846 0
M  V30 3781 N 342.919 -1.39368 0.735821 0
M  V30 3782 C 344.166 -2.00497 0.284123 0
M  V30 3783 C 344.494 -1.58387 -1.12889 0
M  V30 3784 O 343.749 -0.804359 -1.78406 0
M  V30 3785 C 344.048 -3.5583 0.334651 0
M  V30 3786 C 343.714 -4.17593 1.7008 0
M  V30 3787 C 342.376 -4.34176 2.07472 0
M  V30 3788 C 344.728 -4.51848 2.59775 0
M  V30 3789 C 342.056 -4.82304 3.34065 0
M  V30 3790 C 344.408 -5.01384 3.85741 0
M  V30 3791 C 343.072 -5.16175 4.23225 0
M  V30 3792 H 342.342 -0.73367 0.103968 0
M  V30 3793 H 344.989 -1.66683 0.942825 0
M  V30 3794 H 343.294 -3.89674 -0.407625 0
M  V30 3795 H 344.991 -4.00986 -0.0329927 0
M  V30 3796 H 341.581 -4.05087 1.40008 0
M  V30 3797 H 345.765 -4.38653 2.32157 0
M  V30 3798 H 341.021 -4.91941 3.63049 0
M  V30 3799 H 345.195 -5.26863 4.55399 0
M  V30 3800 H 342.822 -5.5323 5.21384 0
M  V30 3801 N 344.397 -0.483516 -1.5 0
M  V30 3802 C 345.643 0.0672592 -2.02688 0
M  V30 3803 C 345.976 1.38247 -1.36387 0
M  V30 3804 O 345.251 1.88131 -0.493675 0
M  V30 3805 C 345.534 0.238109 -3.59312 0
M  V30 3806 C 345.387 -1.099 -4.36168 0
M  V30 3807 C 346.706 0.986916 -4.28892 0
M  V30 3808 H 343.825 0.0229696 -0.736642 0
M  V30 3809 H 346.467 -0.631527 -1.79197 0
M  V30 3810 H 344.617 0.8333 -3.79458 0
M  V30 3811 H 346.289 -1.73172 -4.27562 0
M  V30 3812 H 344.532 -1.69261 -3.99416 0
M  V30 3813 H 345.203 -0.932954 -5.44059 0
M  V30 3814 H 347.679 0.482302 -4.13295 0
M  V30 3815 H 346.555 1.07527 -5.38265 0
M  V30 3816 H 346.816 2.0265 -3.92919 0
M  V30 3817 N 345.875 1.56104 -0.216619 0
M  V30 3818 C 347.291 1.58995 0.13886 0
M  V30 3819 C 347.491 1.23333 1.59346 0
M  V30 3820 O 346.547 0.966234 2.33281 0
M  V30 3821 C 347.86 3.00143 -0.182968 0
M  V30 3822 C 349.408 3.12751 -0.124807 0
M  V30 3823 C 349.883 4.56068 -0.420241 0
M  V30 3824 N 351.374 4.61723 -0.369634 0
M  V30 3825 C 352.109 5.70542 -0.571789 0
M  V30 3826 N 351.605 6.87744 -0.835453 0
M  V30 3827 N 353.398 5.59831 -0.504563 0
M  V30 3828 H 345.549 1.77562 -1.16557 0
M  V30 3829 H 347.812 0.825091 -0.466828 0
M  V30 3830 H 347.518 3.30871 -1.19237 0
M  V30 3831 H 347.392 3.73813 0.504367 0
M  V30 3832 H 349.779 2.81822 0.875223 0
M  V30 3833 H 349.86 2.41421 -0.845544 0
M  V30 3834 H 349.504 4.87713 -1.41769 0
M  V30 3835 H 349.434 5.25617 0.321631 0
M  V30 3836 H 351.925 3.77502 -0.173338 0
M  V30 3837 H 352.238 7.66587 -0.977938 0
M  V30 3838 H 350.583 6.895 -0.872592 0
M  V30 3839 H 353.774 4.67145 -0.298842 0
M  V30 3840 H 353.947 6.44573 -0.665519 0
M  V30 3841 N 347.353 -0.0568162 1.57498 0
M  V30 3842 C 348.301 -1.08452 2.05769 0
M  V30 3843 C 349.295 -1.39164 0.965903 0
M  V30 3844 O 350.501 -1.38395 1.15095 0
M  V30 3845 H 346.876 -0.367148 0.656282 0
M  V30 3846 H 348.847 -0.651368 2.91204 0
M  V30 3847 C 347.596 -2.38543 2.52968 0
M  V30 3848 H 346.919 -2.15765 3.36579 0
M  V30 3849 H 348.359 -3.08863 2.90481 0
M  V30 3850 C 346.818 -3.05562 1.41893 0
M  V30 3851 O 347.348 -3.94262 0.769442 0
M  V30 3852 N 345.554 -2.6643 1.16032 0
M  V30 3853 H 345.101 -1.94387 1.6903 0
M  V30 3854 H 345.059 -3.11593 0.419219 0
M  V30 3855 N 348.832 -1.54138 -0.328536 0
M  V30 3856 C 349.762 -1.86167 -1.40939 0
M  V30 3857 C 350.743 -0.718044 -1.54202 0
M  V30 3858 O 351.928 -0.971328 -1.68163 0
M  V30 3859 C 349.058 -2.08461 -2.77779 0
M  V30 3860 C 348.012 -3.24299 -2.7931 0
M  V30 3861 C 347.338 -3.31955 -4.19178 0
M  V30 3862 C 348.638 -4.62065 -2.43502 0
M  V30 3863 H 350.332 -2.76689 -1.14383 0
M  V30 3864 H 347.878 -1.33132 -0.548806 0
M  V30 3865 H 349.831 -2.29453 -3.53454 0
M  V30 3866 H 348.555 -1.14684 -3.05802 0
M  V30 3867 H 347.214 -3.03187 -2.0609 0
M  V30 3868 H 346.862 -2.35745 -4.44335 0
M  V30 3869 H 346.562 -4.09805 -4.2111 0
M  V30 3870 H 348.086 -3.55175 -4.96672 0
M  V30 3871 H 349.5 -4.8297 -3.08889 0
M  V30 3872 H 347.897 -5.42429 -2.56693 0
M  V30 3873 H 348.967 -4.64652 -1.38659 0
M  V30 3874 N 350.31 0.590341 -1.46126 0
M  V30 3875 C 351.721 1.17243 -1.45296 0
M  V30 3876 C 352.072 1.95281 -0.189723 0
M  V30 3877 O 351.197 2.04502 0.707674 0
M  V30 3878 C 351.792 2.13284 -2.6324 0
M  V30 3879 C 350.351 2.66832 -2.65476 0
M  V30 3880 C 349.498 1.42557 -2.3785 0
M  V30 3881 H 352.449 0.378692 -1.54116 0
M  V30 3882 H 352.47 2.96619 -2.38323 0
M  V30 3883 H 351.982 1.56459 -3.55165 0
M  V30 3884 H 350.083 3.27548 -1.77603 0
M  V30 3885 H 350.196 3.10088 -3.65215 0
M  V30 3886 H 348.56 1.72107 -1.87753 0
M  V30 3887 H 349.343 0.875741 -3.31942 0
M  V30 3888 N 351.788 1.33704 0.83433 0
M  V30 3889 C 353.199 1.22813 1.4062 0
M  V30 3890 C 353.55 -0.151107 1.95617 0
M  V30 3891 O 352.675 -1.05092 1.89168 0
M  V30 3892 C 353.27 2.22355 2.55624 0
M  V30 3893 C 351.829 2.1529 3.08751 0
M  V30 3894 C 350.976 2.09589 1.8157 0
M  V30 3895 H 353.927 1.45236 0.639702 0
M  V30 3896 H 353.948 1.83391 3.33389 0
M  V30 3897 H 353.46 3.22728 2.15566 0
M  V30 3898 H 351.561 1.18235 3.53343 0
M  V30 3899 H 351.674 3.06038 3.68616 0
M  V30 3900 H 350.038 1.55134 2.02004 0
M  V30 3901 H 350.821 3.11777 1.43701 0
M  V30 3902 N 353.266 -1.05314 1.17247 0
M  V30 3903 C 354.198 -2.13023 0.845812 0
M  V30 3904 C 355.211 -1.62096 -0.151246 0
M  V30 3905 O 356.4 -1.78343 0.0748818 0
M  V30 3906 C 353.5 -3.38047 0.240292 0
M  V30 3907 C 352.673 -4.18255 1.27991 0
M  V30 3908 C 351.732 -5.21625 0.692375 0
M  V30 3909 O 350.758 -5.52619 1.36385 0
M  V30 3910 N 351.96 -5.78201 -0.516178 0
M  V30 3911 H 354.725 -2.41642 1.77283 0
M  V30 3912 H 352.286 -1.21401 1.07115 0
M  V30 3913 H 354.278 -4.04359 -0.16603 0
M  V30 3914 H 352.848 -3.06972 -0.590487 0
M  V30 3915 H 352.068 -3.47451 1.86203 0
M  V30 3916 H 353.356 -4.68643 1.98119 0
M  V30 3917 H 352.754 -5.55301 -1.07969 0
M  V30 3918 H 351.311 -6.4604 -0.86458 0
M  V30 3919 N 354.744 -0.972509 -1.24016 0
M  V30 3920 C 356.16 -0.679827 -1.44397 0
M  V30 3921 C 356.36 0.756716 -1.86751 0
M  V30 3922 O 355.416 1.53007 -2.00861 0
M  V30 3923 C 356.729 -1.66803 -2.50195 0
M  V30 3924 C 358.277 -1.68119 -2.64017 0
M  V30 3925 C 358.752 -2.65748 -3.73017 0
M  V30 3926 N 360.243 -2.64219 -3.8045 0
M  V30 3927 C 360.978 -3.36433 -4.64328 0
M  V30 3928 N 360.474 -4.1818 -5.52356 0
M  V30 3929 N 362.267 -3.25235 -4.58453 0
M  V30 3930 H 354.418 -1.90059 -0.948228 0
M  V30 3931 H 356.681 -0.818527 -0.478245 0
M  V30 3932 H 356.387 -2.69498 -2.25973 0
M  V30 3933 H 356.261 -1.4446 -3.48441 0
M  V30 3934 H 358.648 -0.661319 -2.87594 0
M  V30 3935 H 358.729 -1.94525 -1.66113 0
M  V30 3936 H 358.373 -3.67872 -3.50189 0
M  V30 3937 H 358.303 -2.36619 -4.70446 0
M  V30 3938 H 360.794 -2.04887 -3.17537 0
M  V30 3939 H 361.107 -4.70157 -6.13329 0
M  V30 3940 H 359.452 -4.22273 -5.52006 0
M  V30 3941 H 362.643 -2.60829 -3.88698 0
M  V30 3942 H 362.816 -3.81776 -5.23594 0
M  V30 3943 N 356.222 1.38976 -0.743202 0
M  V30 3944 C 357.17 2.32394 -0.0978389 0
M  V30 3945 C 358.164 1.53486 0.716824 0
M  V30 3946 O 359.37 1.69092 0.617088 0
M  V30 3947 H 355.745 0.75189 -0.0128402 0
M  V30 3948 H 357.716 2.84441 -0.901981 0
M  V30 3949 C 356.465 3.38629 0.789036 0
M  V30 3950 H 355.788 3.99432 0.171559 0
M  V30 3951 H 357.228 4.06426 1.20807 0
M  V30 3952 C 355.687 2.76347 1.92702 0
M  V30 3953 O 356.217 2.64836 3.02034 0
M  V30 3954 N 354.423 2.34311 1.71891 0
M  V30 3955 H 353.97 2.43873 0.829675 0
M  V30 3956 H 353.928 1.9298 2.48205 0
M  V30 3957 N 357.7 0.491464 1.49741 0
M  V30 3958 C 358.94 -0.0549118 2.04326 0
M  V30 3959 C 359.304 -1.35148 1.36378 0
M  V30 3960 O 360.505 -1.9815 1.81631 0
M  V30 3961 C 358.776 -0.213841 3.5676 0
M  V30 3962 S 360.335 -0.715839 4.32922 0
M  V30 3963 H 357.153 -0.00630513 0.710972 0
M  V30 3964 H 359.755 0.663257 1.83905 0
M  V30 3965 H 358.459 0.73527 4.0376 0
M  V30 3966 H 357.99 -0.957529 3.81569 0
M  V30 3967 H 360.005 -1.9864 4.54705 0
M  V30 3968 N 359.178 -1.55987 0.224894 0
M  V30 3969 C 360.594 -1.59066 -0.130426 0
M  V30 3970 C 360.794 -1.24176 -1.5869 0
M  V30 3971 O 359.85 -0.978592 -2.32766 0
M  V30 3972 C 361.163 -3.00042 0.198883 0
M  V30 3973 C 362.711 -3.1268 0.141391 0
M  V30 3974 C 363.186 -4.55839 0.444422 0
M  V30 3975 N 364.677 -4.6152 0.394115 0
M  V30 3976 C 365.412 -5.70231 0.602038 0
M  V30 3977 N 364.908 -6.87291 0.871914 0
M  V30 3978 N 366.701 -5.59555 0.534245 0
M  V30 3979 H 358.852 -1.76941 1.17497 0
M  V30 3980 H 361.115 -0.822604 0.471197 0
M  V30 3981 H 360.821 -3.30234 1.2099 0
M  V30 3982 H 360.695 -3.74075 -0.484535 0
M  V30 3983 H 363.082 -2.82283 -0.860265 0
M  V30 3984 H 363.163 -2.40969 0.858335 0
M  V30 3985 H 362.807 -4.86954 1.44353 0
M  V30 3986 H 362.737 -5.2578 -0.293752 0
M  V30 3987 H 365.228 -3.77405 0.193356 0
M  V30 3988 H 365.541 -7.66058 1.01858 0
M  V30 3989 H 363.886 -6.89028 0.909145 0
M  V30 3990 H 367.077 -4.6698 0.323612 0
M  V30 3991 H 367.25 -6.44211 0.699693 0
M  V30 3992 N 360.656 0.0484629 -1.57525 0
M  V30 3993 C 361.566 1.07241 -2.08654 0
M  V30 3994 C 362.582 1.409 -1.02095 0
M  V30 3995 O 363.758 1.50609 -1.33712 0
M  V30 3996 C 360.823 2.36008 -2.5397 0
M  V30 3997 C 359.884 2.09108 -3.7493 0
M  V30 3998 C 359.117 3.31736 -4.18075 0
M  V30 3999 O 359.34 4.41714 -3.60895 0
M  V30 4000 O 358.274 3.18576 -5.10679 0
M  V30 4001 H 362.1 0.667965 -2.96263 0
M  V30 4002 H 359.685 0.26417 -1.47046 0
M  V30 4003 H 361.567 3.11747 -2.83535 0
M  V30 4004 H 360.242 2.75786 -1.69481 0
M  V30 4005 H 359.149 1.31 -3.50414 0
M  V30 4006 H 360.482 1.74198 -4.60343 0
M  V30 4007 N 362.134 1.5431 0.320358 0
M  V30 4008 C 363.064 1.86912 1.3995 0
M  V30 4009 C 364.045 0.726211 1.53819 0
M  V30 4010 O 365.23 0.980233 1.67646 0
M  V30 4011 C 362.36 2.09932 2.7667 0
M  V30 4012 C 361.314 3.25776 2.77586 0
M  V30 4013 C 360.64 3.34173 4.17412 0
M  V30 4014 C 361.94 4.6335 2.41048 0
M  V30 4015 H 363.634 2.77292 1.12914 0
M  V30 4016 H 361.18 1.33421 0.541738 0
M  V30 4017 H 363.133 2.31324 3.52232 0
M  V30 4018 H 361.857 1.16304 3.0519 0
M  V30 4019 H 360.516 3.04276 2.04479 0
M  V30 4020 H 360.164 2.38098 4.43078 0
M  V30 4021 H 359.864 4.12033 4.18931 0
M  V30 4022 H 361.388 3.57803 4.94782 0
M  V30 4023 H 362.802 4.84602 3.06324 0
M  V30 4024 H 361.199 5.43782 2.53813 0
M  V30 4025 H 362.269 4.65381 1.36193 0
M  V30 4026 N 363.613 -0.582584 1.46437 0
M  V30 4027 C 365.029 -0.905962 1.31394 0
M  V30 4028 C 365.229 -1.99468 0.285476 0
M  V30 4029 O 364.285 -2.50566 -0.311914 0
M  V30 4030 C 365.598 -1.3232 2.70022 0
M  V30 4031 C 367.146 -1.43604 2.78113 0
M  V30 4032 C 367.621 -1.88694 4.17323 0
M  V30 4033 N 369.112 -1.95887 4.19741 0
M  V30 4034 C 369.847 -2.32051 5.24347 0
M  V30 4035 N 369.343 -2.67006 6.39281 0
M  V30 4036 N 371.136 -2.32606 5.11713 0
M  V30 4037 H 363.287 0.1366 2.1196 0
M  V30 4038 H 365.55 -0.00155736 0.947999 0
M  V30 4039 H 365.256 -0.597242 3.46592 0
M  V30 4040 H 365.13 -2.28469 3.00136 0
M  V30 4041 H 367.517 -2.15286 2.01832 0
M  V30 4042 H 367.598 -0.457059 2.51684 0
M  V30 4043 H 367.242 -1.1759 4.941 0
M  V30 4044 H 367.172 -2.8755 4.4116 0
M  V30 4045 H 369.663 -1.71362 3.36814 0
M  V30 4046 H 369.976 -2.93554 7.14875 0
M  V30 4047 H 368.321 -2.64644 6.42642 0
M  V30 4048 H 371.512 -2.04721 4.2096 0
M  V30 4049 H 371.685 -2.60462 5.93349 0
M  V30 4050 N 365.091 -1.34144 -0.827227 0
M  V30 4051 C 366.001 -1.27428 -1.96975 0
M  V30 4052 C 367.017 -0.182728 -1.73038 0
M  V30 4053 O 368.193 -0.408426 -1.97215 0
M  V30 4054 C 365.258 -1.02526 -3.31194 0
M  V30 4055 C 364.319 -2.20796 -3.68168 0
M  V30 4056 C 363.552 -1.97073 -4.95982 0
M  V30 4057 O 363.775 -0.926822 -5.6282 0
M  V30 4058 O 362.709 -2.83912 -5.30733 0
M  V30 4059 H 366.535 -2.23537 -2.05584 0
M  V30 4060 H 364.12 -1.14307 -0.961989 0
M  V30 4061 H 366.002 -0.904026 -4.11589 0
M  V30 4062 H 364.677 -0.0945389 -3.23562 0
M  V30 4063 H 363.584 -2.38477 -2.88235 0
M  V30 4064 H 364.917 -3.12243 -3.8048 0
M  V30 4065 N 366.569 1.04691 -1.17803 0
M  V30 4066 C 367.794 1.81984 -0.994813 0
M  V30 4067 C 368.219 1.82586 0.452112 0
M  V30 4068 O 367.577 1.23854 1.324 0
M  V30 4069 C 367.625 3.2575 -1.54659 0
M  V30 4070 O 366.729 4.05267 -0.763728 0
M  V30 4071 H 366.07 0.562483 -0.352857 0
M  V30 4072 H 368.6 1.3189 -1.56417 0
M  V30 4073 H 368.61 3.76541 -1.57102 0
M  V30 4074 H 367.285 3.24627 -2.59981 0
M  V30 4075 H 365.862 3.63972 -0.811108 0
M  V30 4076 N 368.047 0.979072 1.23499 0
M  V30 4077 C 368.977 0.537606 2.27227 0
M  V30 4078 C 369.958 -0.428539 1.64613 0
M  V30 4079 O 371.143 -0.322191 1.91509 0
M  V30 4080 C 368.273 -0.162052 3.46922 0
M  V30 4081 C 367.227 0.721242 4.21879 0
M  V30 4082 C 366.553 -0.110555 5.34586 0
M  V30 4083 C 367.853 2.01141 4.82016 0
M  V30 4084 H 369.547 1.40462 2.64406 0
M  V30 4085 H 367.093 0.67684 1.27102 0
M  V30 4086 H 369.046 -0.482192 4.18632 0
M  V30 4087 H 367.77 -1.06351 3.08799 0
M  V30 4088 H 366.429 1.02482 3.51984 0
M  V30 4089 H 366.077 -1.0125 4.92704 0
M  V30 4090 H 365.777 0.477325 5.85658 0
M  V30 4091 H 367.301 -0.425107 6.09118 0
M  V30 4092 H 368.715 1.75612 5.45741 0
M  V30 4093 H 367.112 2.54695 5.43369 0
M  V30 4094 H 368.182 2.69909 4.02836 0
M  V30 4095 N 369.525 -1.3858 0.750561 0
M  V30 4096 C 370.472 -2.30483 0.120835 0
M  V30 4097 C 371.442 -1.50022 -0.712923 0
M  V30 4098 O 372.627 -1.78662 -0.669676 0
M  V30 4099 C 369.767 -3.36431 -0.768666 0
M  V30 4100 C 368.88 -4.31927 0.0793922 0
M  V30 4101 C 368.015 -5.24944 -0.81283 0
M  V30 4102 C 367.054 -6.12088 0.0390447 0
M  V30 4103 N 366.191 -6.97412 -0.809969 0
M  V30 4104 H 371.031 -2.83761 0.91015 0
M  V30 4105 H 368.568 -1.39707 0.460463 0
M  V30 4106 H 370.526 -3.96462 -1.29898 0
M  V30 4107 H 369.156 -2.8457 -1.5238 0
M  V30 4108 H 368.208 -3.73382 0.727303 0
M  V30 4109 H 369.52 -4.93319 0.737401 0
M  V30 4110 H 368.674 -5.90078 -1.41042 0
M  V30 4111 H 367.413 -4.63911 -1.50458 0
M  V30 4112 H 366.418 -5.45952 0.649328 0
M  V30 4113 H 367.643 -6.75189 0.727809 0
M  V30 4114 H 365.589 -6.38931 -1.48672 0
M  V30 4115 H 365.506 -7.55712 -0.208789 0
M  V30 4116 H 366.774 -7.66959 -1.39263 0
M  V30 4117 N 371.003 -0.499398 -1.49478 0
M  V30 4118 C 371.95 0.279881 -2.29097 0
M  V30 4119 C 372.92 0.961805 -1.3542 0
M  V30 4120 O 374.105 0.968777 -1.64376 0
M  V30 4121 C 371.245 1.33932 -3.18051 0
M  V30 4122 C 370.358 0.669333 -4.26783 0
M  V30 4123 C 369.493 1.70907 -5.02955 0
M  V30 4124 C 368.532 1.02087 -6.03527 0
M  V30 4125 N 367.669 2.00474 -6.7287 0
M  V30 4126 H 372.509 -0.405317 -2.95231 0
M  V30 4127 H 370.046 -0.211726 -1.45568 0
M  V30 4128 H 372.004 1.96553 -3.67998 0
M  V30 4129 H 370.634 1.9933 -2.53904 0
M  V30 4130 H 369.686 -0.0701234 -3.80335 0
M  V30 4131 H 370.998 0.127503 -4.98637 0
M  V30 4132 H 370.152 2.41037 -5.56764 0
M  V30 4133 H 368.891 2.28476 -4.30871 0
M  V30 4134 H 367.896 0.305338 -5.48951 0
M  V30 4135 H 369.121 0.451708 -6.77596 0
M  V30 4136 H 367.067 2.57007 -6.03559 0
M  V30 4137 H 366.984 1.51353 -7.40694 0
M  V30 4138 H 368.252 2.69897 -7.31284 0
M  V30 4139 N 372.481 1.55866 -0.233164 0
M  V30 4140 C 373.411 2.23783 0.666599 0
M  V30 4141 C 374.392 1.21343 1.19205 0
M  V30 4142 O 375.577 1.4996 1.23392 0
M  V30 4143 C 372.707 2.92671 1.86978 0
M  V30 4144 C 371.661 4.01682 1.47768 0
M  V30 4145 C 370.987 4.57926 2.76058 0
M  V30 4146 C 372.287 5.18126 0.658993 0
M  V30 4147 H 373.981 2.99232 0.100306 0
M  V30 4148 H 371.527 1.43924 0.046804 0
M  V30 4149 H 373.48 3.3888 2.50476 0
M  V30 4150 H 372.204 2.14688 2.46123 0
M  V30 4151 H 370.863 3.56222 0.866106 0
M  V30 4152 H 370.511 3.76659 3.33372 0
M  V30 4153 H 370.211 5.31505 2.50552 0
M  V30 4154 H 371.735 5.06859 3.40479 0
M  V30 4155 H 373.149 5.60644 1.19795 0
M  V30 4156 H 371.546 5.98009 0.500552 0
M  V30 4157 H 372.616 4.83763 -0.331856 0
M  V30 4158 N 373.959 -0.0401083 1.57549 0
M  V30 4159 C 375.207 -0.731677 1.8839 0
M  V30 4160 C 375.528 -1.76481 0.829425 0
M  V30 4161 O 374.798 -1.95411 -0.1383 0
M  V30 4162 H 373.378 -0.273225 0.695239 0
M  V30 4163 H 376.04 -0.00867725 1.94898 0
M  V30 4164 H 375.136 -1.22816 2.86919 0
M  V30 4165 N 375.437 -1.54477 -0.31217 0
M  V30 4166 C 376.37 -1.79519 -1.40884 0
M  V30 4167 C 377.348 -0.645753 -1.49227 0
M  V30 4168 O 378.532 -0.884468 -1.66461 0
M  V30 4169 C 375.659 -1.92194 -2.78889 0
M  V30 4170 C 374.705 -3.14555 -2.88023 0
M  V30 4171 S 375.538 -4.72893 -2.51262 0
M  V30 4172 C 376.694 -4.8849 -3.91317 0
M  V30 4173 H 376.927 -2.72256 -1.19432 0
M  V30 4174 H 374.46 -1.45746 -0.509654 0
M  V30 4175 H 376.418 -2.00182 -3.58382 0
M  V30 4176 H 375.079 -1.00414 -2.97617 0
M  V30 4177 H 374.272 -3.20193 -3.89221 0
M  V30 4178 H 373.874 -3.04955 -2.16514 0
M  V30 4179 H 376.166 -4.71826 -4.86196 0
M  V30 4180 H 377.109 -5.90588 -3.90656 0
M  V30 4181 H 377.517 -4.16715 -3.80801 0
M  V30 4182 N 376.915 0.57481 -1.46744 0
M  V30 4183 C 378.163 1.33009 -1.52161 0
M  V30 4184 C 378.484 1.94185 -0.178092 0
M  V30 4185 O 377.754 1.7899 0.796196 0
M  V30 4186 H 376.334 0.493873 -0.560445 0
M  V30 4187 H 378.996 0.672589 -1.82927 0
M  V30 4188 H 378.092 2.13273 -2.27862 0
M  V30 4189 O 378.432 1.44602 0.719209 0
M  V30 4190 H 379.123 1.36947 1.36986 0
M  V30 END ATOM
M  V30 BEGIN BOND
M  V30 END BOND
M  V30 END CTAB
M  END
$$$$
