drugbank_target|P62330 ADP-ribosylation factor 6 (DB01864; DB04315; DB08231)
 OpenBabel12092120493D

  0  0  0     0  0            999 V3000
M  V30 BEGIN CTAB
M  V30 COUNTS 2846 2873 0 0 0
M  V30 BEGIN ATOM
M  V30 1 H -0.908 1.98254 -0.117106 0
M  V30 2 N 0 1.576 0 0
M  V30 3 C 0.933 2.03868 1.02534 0
M  V30 4 C 1.911 0.928543 1.3348 0
M  V30 5 O 3.095 1.19667 1.45644 0
M  V30 6 C 0.222 2.43627 2.35294 0
M  V30 7 C -0.732 3.65373 2.2001 0
M  V30 8 S 0.101 5.13292 1.52614 0
M  V30 9 C 1.257 5.56322 2.86805 0
M  V30 10 H 1.49 2.90518 0.631377 0
M  V30 11 H -0.977 1.52953 0.210867 0
M  V30 12 H 0.981 2.67203 3.11629 0
M  V30 13 H -0.358 1.57376 2.7183 0
M  V30 14 H -1.165 3.90944 3.18086 0
M  V30 15 H -1.563 3.418 1.51819 0
M  V30 16 H 0.729 5.58782 3.83104 0
M  V30 17 H 1.672 6.56266 2.65933 0
M  V30 18 H 2.08 4.83886 2.90714 0
M  V30 19 N 1.4781 -0.272755 1.55222 0
M  V30 20 C 2.7261 -1.00234 1.75492 0
M  V30 21 C 3.0471 -1.8681 0.5592 0
M  V30 22 O 2.3171 -1.91215 -0.425882 0
M  V30 23 H 0.8971 -0.373076 0.647166 0
M  V30 24 H 3.5591 -0.296926 1.92625 0
M  V30 25 H 2.6551 -1.63913 2.65592 0
M  V30 26 N 2.9562 -1.48159 -0.537278 0
M  V30 27 C 3.9032 -1.62138 -1.64256 0
M  V30 28 C 4.8732 -0.463668 -1.59497 0
M  V30 29 O 6.0582 -0.686241 -1.78032 0
M  V30 30 C 3.1982 -1.66028 -3.02537 0
M  V30 31 C 2.3112 -2.92855 -3.17585 0
M  V30 32 C 1.4462 -2.87952 -4.46382 0
M  V30 33 C 0.4852 -4.09516 -4.54932 0
M  V30 34 N -0.3778 -4.02733 -5.75109 0
M  V30 35 H 4.4622 -2.56529 -1.51647 0
M  V30 36 H 1.9992 -1.27224 -0.738414 0
M  V30 37 H 3.9572 -1.66265 -3.82638 0
M  V30 38 H 2.5872 -0.751331 -3.13934 0
M  V30 39 H 1.6392 -3.02395 -2.30784 0
M  V30 40 H 2.9512 -3.82822 -3.19764 0
M  V30 41 H 2.1052 -2.8655 -5.34765 0
M  V30 42 H 0.8442 -1.95702 -4.46712 0
M  V30 43 H -0.1508 -4.11201 -3.64957 0
M  V30 44 H 1.0742 -5.02917 -4.56346 0
M  V30 45 H -0.9798 -3.13299 -5.76351 0
M  V30 46 H -1.0628 -4.86397 -5.78752 0
M  V30 47 H 0.2052 -4.05379 -6.65799 0
M  V30 48 N 4.4343 0.785586 -1.36625 0
M  V30 49 C 5.6803 1.54591 -1.31261 0
M  V30 50 C 6.0133 1.93906 0.106823 0
M  V30 51 O 5.2883 1.63007 1.06108 0
M  V30 52 C 5.5713 2.82038 -2.23889 0
M  V30 53 C 5.4243 2.49066 -3.74548 0
M  V30 54 C 6.7433 3.83887 -2.15217 0
M  V30 55 H 3.8623 0.560846 -0.478143 0
M  V30 56 H 6.5043 0.902278 -1.67209 0
M  V30 57 H 4.6543 3.36961 -1.93363 0
M  V30 58 H 6.3263 2.00164 -4.15611 0
M  V30 59 H 4.5693 1.81954 -3.93796 0
M  V30 60 H 5.2403 3.40109 -4.34776 0
M  V30 61 H 7.7163 3.38421 -2.42096 0
M  V30 62 H 6.5923 4.70806 -2.82193 0
M  V30 63 H 6.8533 4.27131 -1.14068 0
M  V30 64 N 5.9124 1.20967 1.01018 0
M  V30 65 C 6.8424 0.988272 2.11555 0
M  V30 66 C 7.8234 -0.0849778 1.69888 0
M  V30 67 O 9.0084 0.0738202 1.9406 0
M  V30 68 C 6.1384 0.546528 3.42973 0
M  V30 69 C 5.0924 1.56375 3.9841 0
M  V30 70 C 4.4184 0.97842 5.25672 0
M  V30 71 C 5.7184 2.94922 4.31066 0
M  V30 72 H 7.4124 1.91276 2.30334 0
M  V30 73 H 4.9584 0.921073 1.1069 0
M  V30 74 H 6.9114 0.378839 4.19694 0
M  V30 75 H 5.6354 -0.413598 3.23971 0
M  V30 76 H 4.2944 1.71891 3.23804 0
M  V30 77 H 3.9424 0.0101688 5.02999 0
M  V30 78 H 3.6424 1.65784 5.63728 0
M  V30 79 H 5.1664 0.821939 6.05043 0
M  V30 80 H 6.5804 2.8288 4.9865 0
M  V30 81 H 4.9774 3.5983 4.80253 0
M  V30 82 H 6.0474 3.4616 3.39561 0
M  V30 83 N 7.3905 -1.2043 1.01659 0
M  V30 84 C 8.6155 -1.94318 0.724942 0
M  V30 85 C 9.0405 -1.74266 -0.708034 0
M  V30 86 O 8.3985 -1.03694 -1.48719 0
M  V30 87 C 8.4465 -3.44486 1.06591 0
M  V30 88 O 7.5505 -4.12017 0.177599 0
M  V30 89 H 6.8915 -0.60708 0.26898 0
M  V30 90 H 9.4215 -1.52861 1.35995 0
M  V30 91 H 9.4315 -3.95106 1.01762 0
M  V30 92 H 8.1065 -3.58404 2.10997 0
M  V30 93 H 6.6835 -3.71821 0.283421 0
M  V30 94 N 8.8686 -0.792821 -1.36206 0
M  V30 95 C 9.8156 -0.191653 -2.30003 0
M  V30 96 C 10.7856 0.666453 -1.52143 0
M  V30 97 O 11.9706 0.61442 -1.80636 0
M  V30 98 C 9.1106 0.664848 -3.38635 0
M  V30 99 C 8.2236 -0.212175 -4.31479 0
M  V30 100 C 7.3586 0.651022 -5.27196 0
M  V30 101 C 6.3976 -0.227247 -6.11678 0
M  V30 102 N 5.5346 0.595127 -6.99573 0
M  V30 103 H 10.3746 -0.996978 -2.80828 0
M  V30 104 H 7.9116 -0.503206 -1.38225 0
M  V30 105 H 9.8696 1.17645 -4.00269 0
M  V30 106 H 8.4996 1.43557 -2.89122 0
M  V30 107 H 7.5516 -0.841777 -3.70969 0
M  V30 108 H 8.8636 -0.888751 -4.90818 0
M  V30 109 H 8.0176 1.2283 -5.94136 0
M  V30 110 H 6.7566 1.36121 -4.68319 0
M  V30 111 H 5.7616 -0.816904 -5.43697 0
M  V30 112 H 6.9866 -0.93509 -6.72631 0
M  V30 113 H 4.9326 1.28955 -6.432 0
M  V30 114 H 4.8496 -0.0236952 -7.55996 0
M  V30 115 H 6.1176 1.15613 -7.70879 0
M  V30 116 N 10.3467 1.47872 -0.545128 0
M  V30 117 C 11.5957 2.01695 -0.0145033 0
M  V30 118 C 11.9087 1.42609 1.33873 0
M  V30 119 O 13.1147 1.88021 1.95858 0
M  V30 120 C 11.5707 3.59892 0.0245068 0
M  V30 121 C 11.1787 4.27966 -1.32475 0
M  V30 122 C 12.9227 4.21507 0.50316 0
M  V30 123 C 10.8297 5.78136 -1.2455 0
M  V30 124 H 9.7597 0.753998 -0.00165172 0
M  V30 125 H 12.4107 1.69985 -0.691175 0
M  V30 126 H 10.7927 3.88509 0.766575 0
M  V30 127 H 11.9667 4.11003 -2.08357 0
M  V30 128 H 10.2817 3.78286 -1.74036 0
M  V30 129 H 12.8787 5.31538 0.580656 0
M  V30 130 H 13.2217 3.87855 1.51243 0
M  V30 131 H 13.7547 3.97376 -0.183681 0
M  V30 132 H 10.4937 6.16388 -2.23039 0
M  V30 133 H 10.0137 5.97469 -0.528282 0
M  V30 134 H 11.6927 6.40099 -0.942488 0
M  V30 135 N 11.8248 0.280983 1.55075 0
M  V30 136 C 13.0718 -0.334115 1.99725 0
M  V30 137 C 13.3998 -1.5542 1.1694 0
M  V30 138 O 12.6548 -1.94361 0.228531 0
M  V30 139 C 12.9538 -0.754656 3.49342 0
M  V30 140 C 12.6198 0.361445 4.49449 0
M  V30 141 C 11.2818 0.667893 4.76542 0
M  V30 142 C 13.6338 1.11322 5.09173 0
M  V30 143 C 10.9618 1.7296 5.60626 0
M  V30 144 C 13.3138 2.1647 5.9441 0
M  V30 145 C 11.9778 2.47742 6.19822 0
M  V30 146 H 11.2478 -0.122261 0.730844 0
M  V30 147 H 13.8948 0.395917 1.87363 0
M  V30 148 H 12.1998 -1.56446 3.5921 0
M  V30 149 H 13.8968 -1.24142 3.813 0
M  V30 150 H 10.4868 0.112481 4.28452 0
M  V30 151 H 14.6708 0.88973 4.8826 0
M  V30 152 H 9.9268 1.97684 5.78559 0
M  V30 153 H 14.1008 2.75193 6.3972 0
M  V30 154 H 11.7278 3.30145 6.84769 0
M  V30 155 N 13.3029 -1.57598 0.00835791 0
M  V30 156 C 14.5509 -1.90551 -0.6734 0
M  V30 157 C 14.8719 -0.883301 -1.73847 0
M  V30 158 O 14.1419 0.0781442 -1.95744 0
M  V30 159 H 12.7219 -0.703312 -0.251717 0
M  V30 160 H 15.3839 -1.94833 0.0512592 0
M  V30 161 H 14.4799 -2.9056 -1.13935 0
M  V30 162 N 14.781 0.264519 -1.55364 0
M  V30 163 C 15.729 1.34702 -1.89626 0
M  V30 164 C 16.723 1.50712 -0.773459 0
M  V30 165 O 17.929 1.52395 -0.957897 0
M  V30 166 H 14.304 0.450682 -0.601988 0
M  V30 167 H 16.275 1.0306 -2.80038 0
M  V30 168 C 15.024 2.6989 -2.19214 0
M  V30 169 H 14.347 2.58365 -3.05103 0
M  V30 170 H 15.787 3.44553 -2.47102 0
M  V30 171 C 14.246 3.21637 -1.00254 0
M  V30 172 O 14.776 4.00973 -0.241501 0
M  V30 173 N 12.982 2.7943 -0.797938 0
M  V30 174 H 12.529 2.15026 -1.4185 0
M  V30 175 H 12.487 3.144 -0.00363422 0
M  V30 176 N 16.2591 1.48442 0.529413 0
M  V30 177 C 17.2061 1.63007 1.63394 0
M  V30 178 C 18.1761 0.47212 1.59249 0
M  V30 179 O 19.3611 0.695673 1.77666 0
M  V30 180 C 16.5011 1.6763 3.01653 0
M  V30 181 C 15.6141 2.94535 3.16027 0
M  V30 182 C 14.7491 2.90316 4.44849 0
M  V30 183 C 13.7881 4.11923 4.52754 0
M  V30 184 N 12.9251 4.05777 5.72965 0
M  V30 185 H 17.7651 2.5733 1.50285 0
M  V30 186 H 15.3021 1.27613 0.731656 0
M  V30 187 H 17.2601 1.68292 3.81751 0
M  V30 188 H 15.8901 0.76797 3.13532 0
M  V30 189 H 14.9421 3.03615 2.29177 0
M  V30 190 H 16.2541 3.84512 3.17729 0
M  V30 191 H 15.4081 2.89382 5.33238 0
M  V30 192 H 14.1471 1.98068 4.45668 0
M  V30 193 H 13.1521 4.13131 3.62771 0
M  V30 194 H 14.3771 5.0533 4.53672 0
M  V30 195 H 12.3231 3.16351 5.74681 0
M  V30 196 H 12.2401 4.8946 5.76164 0
M  V30 197 H 13.5081 4.08904 6.6364 0
M  V30 198 N 17.7372 -0.778329 1.37039 0
M  V30 199 C 18.6472 -1.92253 1.34446 0
M  V30 200 C 19.6632 -1.72267 0.244991 0
M  V30 201 O 20.8392 -1.95615 0.479258 0
M  V30 202 C 17.9042 -3.27282 1.144 0
M  V30 203 C 16.9652 -3.59969 2.33925 0
M  V30 204 C 16.1982 -4.88555 2.14825 0
M  V30 205 O 16.4212 -5.59113 1.12912 0
M  V30 206 O 15.3552 -5.20153 3.02861 0
M  V30 207 H 19.1812 -1.97392 2.30803 0
M  V30 208 H 16.7662 -0.920154 1.17701 0
M  V30 209 H 18.6482 -4.08062 1.05182 0
M  V30 210 H 17.3232 -3.23011 0.211124 0
M  V30 211 H 16.2302 -2.7945 2.48714 0
M  V30 212 H 17.5632 -3.68976 3.25757 0
M  V30 213 N 19.2153 -1.21501 -1.00376 0
M  V30 214 C 20.1483 -0.918669 -2.08892 0
M  V30 215 C 21.1263 0.134277 -1.62045 0
M  V30 216 O 22.3103 0.00504255 -1.88499 0
M  V30 217 C 19.4373 -0.379645 -3.36566 0
M  V30 218 C 18.4833 -1.41559 -4.02323 0
M  V30 219 S 19.3163 -2.98521 -4.44574 0
M  V30 220 C 20.4723 -2.46228 -5.75433 0
M  V30 221 H 20.7053 -1.83761 -2.33707 0
M  V30 222 H 18.2383 -1.04489 -1.13673 0
M  V30 223 H 20.1963 -0.0752195 -4.10431 0
M  V30 224 H 18.8573 0.518008 -3.09799 0
M  V30 225 H 18.0503 -0.988076 -4.9422 0
M  V30 226 H 17.6523 -1.66815 -3.34737 0
M  V30 227 H 19.9443 -1.86791 -6.51241 0
M  V30 228 H 20.8873 -3.36572 -6.22997 0
M  V30 229 H 21.2953 -1.87894 -5.32312 0
M  V30 230 N 20.6934 1.19889 -1.02296 0
M  V30 231 C 22.1094 1.41462 -0.738954 0
M  V30 232 C 22.3094 1.89721 0.678846 0
M  V30 233 O 21.3654 2.07016 1.4457 0
M  V30 234 C 22.6784 2.43083 -1.77005 0
M  V30 235 C 24.2264 2.5684 -1.78892 0
M  V30 236 C 24.7014 3.61709 -2.80945 0
M  V30 237 N 26.1924 3.69199 -2.79725 0
M  V30 238 C 26.9274 4.50019 -3.55345 0
M  V30 239 N 26.4234 5.34592 -4.40662 0
M  V30 240 N 28.2164 4.44612 -3.43914 0
M  V30 241 H 20.3674 0.868827 -1.93817 0
M  V30 242 H 22.6304 0.44399 -0.837602 0
M  V30 243 H 22.3364 2.14636 -2.78612 0
M  V30 244 H 22.2104 3.4217 -1.58744 0
M  V30 245 H 24.5974 2.84614 -0.779674 0
M  V30 246 H 24.6784 1.57927 -2.01228 0
M  V30 247 H 24.3224 3.34678 -3.82038 0
M  V30 248 H 24.2524 4.60259 -2.5587 0
M  V30 249 H 26.7434 3.08794 -2.17842 0
M  V30 250 H 27.0564 5.93363 -4.95116 0
M  V30 251 H 25.4014 5.34073 -4.44737 0
M  V30 252 H 28.5924 3.7758 -2.76679 0
M  V30 253 H 28.7654 5.0736 -4.031 0
M  V30 254 N 22.1715 0.800033 1.35784 0
M  V30 255 C 23.4205 0.37387 1.98205 0
M  V30 256 C 23.7335 -1.06302 1.64193 0
M  V30 257 O 24.9395 -1.59198 2.19928 0
M  V30 258 C 23.3955 0.617532 3.54562 0
M  V30 259 C 23.0035 2.06654 3.9749 0
M  V30 260 C 24.7475 0.256401 4.23725 0
M  V30 261 C 22.6545 2.2563 5.46667 0
M  V30 262 H 21.5845 0.136055 0.741623 0
M  V30 263 H 24.2355 0.983166 1.54939 0
M  V30 264 H 22.6175 -0.0616248 3.95952 0
M  V30 265 H 23.7915 2.78296 3.67271 0
M  V30 266 H 22.1065 2.38691 3.41197 0
M  V30 267 H 24.7035 0.376318 5.33374 0
M  V30 268 H 25.0465 -0.796692 4.08606 0
M  V30 269 H 25.5795 0.889214 3.87734 0
M  V30 270 H 22.3185 3.2936 5.66747 0
M  V30 271 H 21.8385 1.58504 5.78478 0
M  V30 272 H 23.5175 2.06861 6.1304 0
M  V30 273 N 23.6496 -1.47581 0.552962 0
M  V30 274 C 24.5796 -2.32762 -0.185451 0
M  V30 275 C 25.5606 -1.43527 -0.912905 0
M  V30 276 O 26.7456 -1.72388 -0.894201 0
M  V30 277 C 23.8756 -3.25219 -1.21859 0
M  V30 278 C 22.8296 -4.23661 -0.607864 0
M  V30 279 C 22.1556 -5.05413 -1.74533 0
M  V30 280 C 23.4556 -5.20481 0.435582 0
M  V30 281 H 25.1496 -2.94749 0.525684 0
M  V30 282 H 22.6956 -1.41738 0.254251 0
M  V30 283 H 24.6486 -3.8365 -1.7433 0
M  V30 284 H 23.3726 -2.61279 -1.95961 0
M  V30 285 H 22.0316 -3.66451 -0.104489 0
M  V30 286 H 21.6796 -4.3788 -2.47529 0
M  V30 287 H 21.3796 -5.72059 -1.34249 0
M  V30 288 H 22.9036 -5.66701 -2.27338 0
M  V30 289 H 24.3176 -5.733 -0.00290157 0
M  V30 290 H 22.7146 -5.95305 0.757067 0
M  V30 291 H 23.7846 -4.66217 1.33303 0
M  V30 292 N 25.1277 -0.289203 -1.54924 0
M  V30 293 C 26.0607 0.633823 -2.19221 0
M  V30 294 C 27.0387 1.14174 -1.15772 0
M  V30 295 O 28.2227 1.21211 -1.44361 0
M  V30 296 C 25.3497 1.86592 -2.82668 0
M  V30 297 C 24.3957 1.49227 -3.99542 0
M  V30 298 S 25.2287 0.558312 -5.32582 0
M  V30 299 C 26.3847 1.79847 -5.99505 0
M  V30 300 H 26.6177 0.0875416 -2.97171 0
M  V30 301 H 24.1507 -0.0733899 -1.54225 0
M  V30 302 H 26.1087 2.57305 -3.19851 0
M  V30 303 H 24.7697 2.38335 -2.04585 0
M  V30 304 H 23.9627 2.40945 -4.42676 0
M  V30 305 H 23.5647 0.865193 -3.63855 0
M  V30 306 H 25.8567 2.7406 -6.19595 0
M  V30 307 H 26.7997 1.4099 -6.93922 0
M  V30 308 H 27.2077 1.96982 -5.29016 0
M  V30 309 N 26.6058 1.57591 -0.0167156 0
M  V30 310 C 27.5358 2.12496 0.967858 0
M  V30 311 C 28.5168 1.03807 1.34752 0
M  V30 312 O 29.7018 1.31577 1.42833 0
M  V30 313 C 26.8318 2.64194 2.25431 0
M  V30 314 C 25.7858 3.77559 2.01576 0
M  V30 315 C 25.1118 4.15636 3.36379 0
M  V30 316 C 26.4118 5.04151 1.36489 0
M  V30 317 H 28.1058 2.95013 0.510643 0
M  V30 318 H 25.6518 1.41915 0.244181 0
M  V30 319 H 27.6048 3.01236 2.94678 0
M  V30 320 H 26.3288 1.78821 2.73296 0
M  V30 321 H 24.9878 3.40937 1.34751 0
M  V30 322 H 24.6358 3.27263 3.81979 0
M  V30 323 H 24.3358 4.92022 3.21229 0
M  V30 324 H 25.8598 4.5525 4.06915 0
M  V30 325 H 27.2738 5.38857 1.95718 0
M  V30 326 H 25.6708 5.85453 1.31776 0
M  V30 327 H 26.7408 4.83733 0.336219 0
M  V30 328 N 28.0839 -0.256276 1.55502 0
M  V30 329 C 29.3319 -0.983672 1.76545 0
M  V30 330 C 29.6529 -1.86206 0.578982 0
M  V30 331 O 28.9229 -1.91656 -0.405577 0
M  V30 332 H 27.5029 -0.366191 0.651086 0
M  V30 333 H 30.1649 -0.276479 1.92929 0
M  V30 334 H 29.2609 -1.61087 2.67315 0
M  V30 335 N 29.562 -1.4872 -0.521534 0
M  V30 336 C 30.492 -1.66771 -1.63431 0
M  V30 337 C 31.473 -0.516499 -1.62069 0
M  V30 338 O 32.658 -0.750013 -1.79132 0
M  V30 339 C 29.788 -1.71515 -3.01993 0
M  V30 340 C 28.742 -2.86222 -3.18216 0
M  V30 341 C 28.068 -2.76061 -4.57924 0
M  V30 342 C 29.368 -4.27419 -3.00184 0
M  V30 343 H 31.062 -2.59932 -1.48579 0
M  V30 344 H 28.608 -1.25089 -0.713358 0
M  V30 345 H 30.561 -1.82731 -3.7972 0
M  V30 346 H 29.285 -0.749393 -3.17886 0
M  V30 347 H 27.944 -2.74575 -2.42908 0
M  V30 348 H 27.592 -1.77437 -4.70665 0
M  V30 349 H 27.292 -3.53037 -4.69722 0
M  V30 350 H 28.816 -2.89256 -5.37739 0
M  V30 351 H 30.23 -4.39855 -3.67697 0
M  V30 352 H 28.627 -5.05458 -3.2347 0
M  V30 353 H 29.697 -4.43293 -1.96518 0
M  V30 354 N 31.0401 0.771051 -1.3745 0
M  V30 355 C 32.3171 1.519 -1.23231 0
M  V30 356 C 32.6971 2.10383 0.173809 0
M  V30 357 O 32.0451 1.95583 1.18151 0
M  V30 358 C 32.2551 2.59933 -2.32886 0
M  V30 359 C 33.6031 3.27316 -2.70461 0
M  V30 360 O 34.6271 2.70228 -2.32068 0
M  V30 361 O 33.4861 4.30531 -3.36608 0
M  V30 362 H 30.5801 0.672803 -0.480901 0
M  V30 363 H 33.1261 0.807957 -1.49232 0
M  V30 364 H 31.8981 2.14842 -3.27045 0
M  V30 365 H 31.5211 3.38637 -2.08353 0
M  V30 366 N 32.5182 1.22032 0.997298 0
M  V30 367 C 33.4812 0.987909 2.06816 0
M  V30 368 C 34.4812 -0.0440084 1.6074 0
M  V30 369 O 35.6712 0.194053 1.73116 0
M  V30 370 C 32.8032 0.49132 3.37341 0
M  V30 371 H 33.9962 1.93803 2.28868 0
M  V30 372 H 31.5492 1.03838 1.16822 0
M  V30 373 H 32.2842 -0.463364 3.20973 0
M  V30 374 H 32.0692 1.23575 3.72118 0
M  V30 375 H 33.5592 0.348824 4.16141 0
M  V30 376 N 33.9963 -1.19345 1.0293 0
M  V30 377 C 34.9593 -2.20793 0.615069 0
M  V30 378 C 35.9593 -1.57553 -0.321533 0
M  V30 379 O 37.1493 -1.73862 -0.108483 0
M  V30 380 C 34.2813 -3.40754 -0.0999222 0
M  V30 381 H 35.4743 -2.58955 1.51269 0
M  V30 382 H 33.0273 -1.3303 0.820534 0
M  V30 383 H 33.7623 -3.0811 -1.01187 0
M  V30 384 H 33.5473 -3.87889 0.57309 0
M  V30 385 H 35.0373 -4.15898 -0.376645 0
M  V30 386 N 35.4744 -0.807222 -1.35358 0
M  V30 387 C 36.7224 -0.387122 -1.98358 0
M  V30 388 C 37.0434 1.04942 -1.64354 0
M  V30 389 O 36.3134 1.72615 -0.926339 0
M  V30 390 H 34.8934 -0.140154 -0.733734 0
M  V30 391 H 37.5554 -1.0332 -1.6526 0
M  V30 392 H 36.6514 -0.493352 -3.08176 0
M  V30 393 N 36.9525 1.47285 -0.560781 0
M  V30 394 C 37.8995 2.30058 0.18491 0
M  V30 395 C 38.8695 1.39281 0.904986 0
M  V30 396 O 40.0545 1.68241 0.899979 0
M  V30 397 C 37.1945 3.23317 1.20666 0
M  V30 398 C 36.3075 4.29186 0.492285 0
M  V30 399 C 35.4425 5.09592 1.49964 0
M  V30 400 C 34.4815 6.07232 0.770439 0
M  V30 401 N 33.6185 6.80584 1.72479 0
M  V30 402 H 38.4585 2.93302 -0.527048 0
M  V30 403 H 35.9955 1.44568 -0.271738 0
M  V30 404 H 37.9535 3.75811 1.81168 0
M  V30 405 H 36.5835 2.61929 1.88661 0
M  V30 406 H 35.6355 3.7972 -0.227333 0
M  V30 407 H 36.9475 4.98738 -0.0787929 0
M  V30 408 H 36.1015 5.66254 2.17809 0
M  V30 409 H 34.8405 4.3995 2.10464 0
M  V30 410 H 33.8455 5.49745 0.0780846 0
M  V30 411 H 35.0705 6.78884 0.171134 0
M  V30 412 H 33.0165 6.1367 2.3183 0
M  V30 413 H 32.9335 7.46319 1.20596 0
M  V30 414 H 34.2015 7.41818 2.39428 0
M  V30 415 N 38.4306 0.297415 1.54768 0
M  V30 416 C 39.6586 -0.315623 2.04478 0
M  V30 417 C 40.0736 -1.47792 1.17486 0
M  V30 418 O 39.4306 -1.81404 0.19971 0
M  V30 419 C 39.4816 -0.7753 3.53088 0
M  V30 420 O 39.2026 0.340732 4.36773 0
M  V30 421 C 40.7036 -1.45386 4.18781 0
M  V30 422 H 37.9236 -0.0690887 0.667434 0
M  V30 423 H 40.4676 0.436003 1.99798 0
M  V30 424 H 38.6226 -1.47696 3.58141 0
M  V30 425 H 39.0366 -0.0165035 5.24497 0
M  V30 426 H 40.5106 -1.72669 5.24299 0
M  V30 427 H 40.9876 -2.39275 3.68299 0
M  V30 428 H 41.5936 -0.795475 4.17795 0
M  V30 429 N 39.9087 -1.5758 0.0250728 0
M  V30 430 C 41.1367 -1.9593 -0.664747 0
M  V30 431 C 41.5517 -0.901352 -1.65895 0
M  V30 432 O 40.9087 0.117255 -1.82123 0
M  V30 433 C 40.9597 -3.34342 -1.37468 0
M  V30 434 O 40.6807 -4.36079 -0.420324 0
M  V30 435 C 42.1817 -3.873 -2.1567 0
M  V30 436 H 39.4017 -0.645405 -0.183557 0
M  V30 437 H 41.9457 -2.04329 0.0836372 0
M  V30 438 H 40.1007 -3.27175 -2.0745 0
M  V30 439 H 40.5147 -5.16297 -0.923991 0
M  V30 440 H 41.9887 -4.86504 -2.60803 0
M  V30 441 H 42.4657 -3.21331 -2.99405 0
M  V30 442 H 43.0717 -3.97723 -1.50654 0
M  V30 443 N 41.3868 0.248026 -1.55636 0
M  V30 444 C 42.6358 0.974134 -1.76617 0
M  V30 445 C 42.9488 1.86528 -0.588796 0
M  V30 446 O 44.1548 2.62805 -0.681594 0
M  V30 447 C 42.6108 1.78213 -3.12679 0
M  V30 448 C 42.2188 0.93843 -4.38061 0
M  V30 449 C 43.9628 2.50104 -3.42999 0
M  V30 450 C 41.8698 1.74225 -5.65155 0
M  V30 451 H 40.7998 0.36745 -0.658405 0
M  V30 452 H 43.4508 0.22884 -1.82067 0
M  V30 453 H 41.8328 2.56933 -3.01333 0
M  V30 454 H 43.0068 0.193635 -4.60393 0
M  V30 455 H 41.3218 0.332905 -4.15067 0
M  V30 456 H 43.9188 3.10694 -4.3517 0
M  V30 457 H 44.2618 3.21662 -2.64271 0
M  V30 458 H 44.7948 1.78395 -3.55556 0
M  V30 459 H 41.5338 1.07043 -6.46701 0
M  V30 460 H 41.0538 2.46235 -5.46926 0
M  V30 461 H 42.7328 2.30967 -6.0437 0
M  V30 462 N 42.8649 1.48995 0.513639 0
M  V30 463 C 43.7949 1.67636 1.62544 0
M  V30 464 C 44.7759 0.525087 1.61793 0
M  V30 465 O 45.9609 0.759502 1.78732 0
M  V30 466 C 43.0909 1.73114 3.01079 0
M  V30 467 C 42.0449 2.87905 3.16693 0
M  V30 468 C 41.3709 2.78486 4.56453 0
M  V30 469 C 42.6709 4.29005 2.97913 0
M  V30 470 H 44.3649 2.60716 1.47198 0
M  V30 471 H 41.9109 1.25465 0.706714 0
M  V30 472 H 43.8639 1.84742 3.78746 0
M  V30 473 H 42.5879 0.766241 3.17484 0
M  V30 474 H 41.2469 2.75859 2.41448 0
M  V30 475 H 40.8949 1.7993 4.69717 0
M  V30 476 H 40.5949 3.55523 4.67843 0
M  V30 477 H 42.1189 2.92104 5.36197 0
M  V30 478 H 43.5329 4.41798 3.65359 0
M  V30 479 H 41.9299 5.07166 3.20785 0
M  V30 480 H 42.9999 4.44329 1.94165 0
M  V30 481 N 44.343 -0.763751 1.37857 0
M  V30 482 C 45.573 -1.55067 1.3652 0
M  V30 483 C 45.981 -1.89135 -0.0494227 0
M  V30 484 O 45.324 -1.52529 -1.02375 0
M  V30 485 C 45.386 -2.8838 2.14656 0
M  V30 486 C 45.05 -2.76905 3.63555 0
M  V30 487 C 46.047 -2.4739 4.57268 0
M  V30 488 C 43.732 -2.94676 4.06781 0
M  V30 489 C 45.726 -2.35786 5.92186 0
M  V30 490 C 43.413 -2.82692 5.41782 0
M  V30 491 C 44.411 -2.53289 6.34298 0
M  V30 492 O 44.099 -2.41345 7.66817 0
M  V30 493 H 43.831 -0.486776 0.469069 0
M  V30 494 H 46.385 -0.953812 1.81911 0
M  V30 495 H 44.615 -3.50217 1.63967 0
M  V30 496 H 46.304 -3.49828 2.05852 0
M  V30 497 H 47.07 -2.33339 4.2518 0
M  V30 498 H 42.949 -3.16563 3.35126 0
M  V30 499 H 46.493 -2.12757 6.64365 0
M  V30 500 H 42.39 -2.96314 5.7347 0
M  V30 501 H 43.158 -2.56634 7.77226 0
M  V30 502 N 45.8211 -1.22559 -0.990812 0
M  V30 503 C 46.7681 -0.997519 -2.0813 0
M  V30 504 C 47.7381 0.0814702 -1.659 0
M  V30 505 O 48.9231 -0.0685424 -1.90677 0
M  V30 506 C 46.0631 -0.583615 -3.40129 0
M  V30 507 C 45.1761 -1.7336 -3.9569 0
M  V30 508 C 44.3111 -1.26748 -5.15857 0
M  V30 509 C 43.3501 -2.38888 -5.63559 0
M  V30 510 N 42.4871 -1.93308 -6.74964 0
M  V30 511 H 47.3271 -1.93099 -2.26973 0
M  V30 512 H 44.8641 -0.962114 -1.11273 0
M  V30 513 H 46.8221 -0.324801 -4.15934 0
M  V30 514 H 45.4521 0.312845 -3.2128 0
M  V30 515 H 44.5041 -2.10669 -3.16738 0
M  V30 516 H 45.8161 -2.57704 -4.27071 0
M  V30 517 H 44.9701 -0.966173 -5.98957 0
M  V30 518 H 43.7091 -0.394272 -4.86104 0
M  V30 519 H 42.7141 -2.69805 -4.79046 0
M  V30 520 H 43.9391 -3.26728 -5.95336 0
M  V30 521 H 41.8851 -1.08352 -6.4699 0
M  V30 522 H 41.8021 -2.71217 -7.05675 0
M  V30 523 H 43.0701 -1.66252 -7.61564 0
M  V30 524 N 47.2992 1.18797 -1.03562 0
M  V30 525 C 48.2292 2.24472 -0.643019 0
M  V30 526 C 49.2102 1.66433 0.351283 0
M  V30 527 O 50.3952 1.92803 0.232505 0
M  V30 528 C 47.5252 3.473 4.24935e-05 0
M  V30 529 C 46.4792 4.18055 -0.917257 0
M  V30 530 C 45.8052 5.34519 -0.138941 0
M  V30 531 C 47.1052 4.72109 -2.23407 0
M  V30 532 H 48.7992 2.57566 -1.52643 0
M  V30 533 H 46.3452 1.23806 -0.735394 0
M  V30 534 H 48.2982 4.20426 0.286383 0
M  V30 535 H 47.0222 3.13424 0.918299 0
M  V30 536 H 45.6812 3.46821 -1.1879 0
M  V30 537 H 45.3292 4.96891 0.781562 0
M  V30 538 H 45.0292 5.82794 -0.750005 0
M  V30 539 H 46.5532 6.10438 0.1405 0
M  V30 540 H 47.9672 5.36955 -2.00879 0
M  V30 541 H 46.3642 5.30897 -2.79765 0
M  V30 542 H 47.4342 3.89807 -2.88407 0
M  V30 543 N 48.7773 0.814389 1.34928 0
M  V30 544 C 49.7243 0.22822 2.29669 0
M  V30 545 C 50.6943 -0.642164 1.53184 0
M  V30 546 O 51.8793 -0.585605 1.81591 0
M  V30 547 C 49.0193 -0.61089 3.3965 0
M  V30 548 C 48.1323 0.280792 4.31086 0
M  V30 549 C 47.2673 -0.567067 5.28165 0
M  V30 550 C 46.3063 0.324531 6.11239 0
M  V30 551 N 45.4433 -0.483756 7.00431 0
M  V30 552 H 50.2833 1.04153 2.79206 0
M  V30 553 H 47.8203 0.525133 1.37407 0
M  V30 554 H 49.7783 -1.11263 4.0209 0
M  V30 555 H 48.4083 -1.38939 2.91369 0
M  V30 556 H 47.4603 0.900688 3.69583 0
M  V30 557 H 48.7723 0.966723 4.89342 0
M  V30 558 H 47.9263 -1.13363 5.96015 0
M  V30 559 H 46.6653 -1.28654 4.70425 0
M  V30 560 H 45.6703 0.903298 5.42329 0
M  V30 561 H 46.8953 1.04198 6.71059 0
M  V30 562 H 44.8413 -1.18706 6.45171 0
M  V30 563 H 44.7583 0.143965 7.55863 0
M  V30 564 H 46.0263 -1.03334 7.7262 0
M  V30 565 N 50.2554 -1.46986 0.568584 0
M  V30 566 C 51.1854 -2.32946 -0.160753 0
M  V30 567 C 52.1664 -1.44487 -0.897631 0
M  V30 568 O 53.3514 -1.73327 -0.875867 0
M  V30 569 C 50.4814 -3.26494 -1.18403 0
M  V30 570 C 49.4354 -4.24282 -0.562895 0
M  V30 571 C 48.7614 -5.07236 -1.69163 0
M  V30 572 C 50.0614 -5.19989 0.490761 0
M  V30 573 H 51.7554 -2.94175 0.556916 0
M  V30 574 H 49.3014 -1.4146 0.26927 0
M  V30 575 H 51.2544 -3.85477 -1.70251 0
M  V30 576 H 49.9784 -2.63343 -1.93179 0
M  V30 577 H 48.6374 -3.66541 -0.0656164 0
M  V30 578 H 48.2854 -4.4048 -2.42871 0
M  V30 579 H 47.9854 -5.7345 -1.28174 0
M  V30 580 H 49.5094 -5.6908 -2.21314 0
M  V30 581 H 50.9234 -5.73271 0.0579047 0
M  V30 582 H 49.3204 -5.94469 0.820165 0
M  V30 583 H 50.3904 -4.64777 1.3824 0
M  V30 584 N 51.7335 -0.305618 -1.54608 0
M  V30 585 C 52.9815 0.301701 -1.99835 0
M  V30 586 C 53.3025 1.54054 -1.19551 0
M  V30 587 O 52.5725 1.93702 -0.292658 0
M  V30 588 H 51.1525 0.114468 -0.738178 0
M  V30 589 H 53.8145 -0.418016 -1.90364 0
M  V30 590 H 52.9105 0.570548 -3.06841 0
M  V30 591 N 53.2116 1.57565 -0.0334293 0
M  V30 592 C 54.1436 2.0739 0.975811 0
M  V30 593 C 55.1566 0.998166 1.2861 0
M  V30 594 O 56.3456 1.27426 1.25 0
M  V30 595 C 53.4456 2.4871 2.30209 0
M  V30 596 C 52.6186 3.79413 2.17634 0
M  V30 597 C 51.6776 4.07237 3.33233 0
M  V30 598 O 50.7036 4.77425 3.09927 0
M  V30 599 N 51.9056 3.5775 4.5716 0
M  V30 600 H 54.6706 2.94598 0.55066 0
M  V30 601 H 52.2316 1.61173 0.15323 0
M  V30 602 H 54.2236 2.64413 3.06378 0
M  V30 603 H 52.7936 1.66845 2.64351 0
M  V30 604 H 52.0136 3.73465 1.26165 0
M  V30 605 H 53.3016 4.65038 2.0644 0
M  V30 606 H 52.6996 3.00976 4.78989 0
M  V30 607 H 51.2566 3.78724 5.30482 0
M  V30 608 N 54.6897 -0.239769 1.55765 0
M  V30 609 C 55.9147 -0.988373 1.82335 0
M  V30 610 C 56.3397 -1.77886 0.611421 0
M  V30 611 O 55.6977 -1.75889 -0.439639 0
M  V30 612 C 55.7457 -1.89627 3.06715 0
M  V30 613 O 54.8497 -2.98904 2.84131 0
M  V30 614 H 54.1907 -0.280858 0.601677 0
M  V30 615 H 56.7207 -0.258597 2.02959 0
M  V30 616 H 56.7307 -2.30957 3.36338 0
M  V30 617 H 55.4057 -1.31511 3.9456 0
M  V30 618 H 53.9827 -2.61651 2.65694 0
M  V30 619 N 56.1678 -1.49265 -0.50573 0
M  V30 620 C 57.4138 -1.58748 -1.26202 0
M  V30 621 C 57.7468 -0.271227 -1.92297 0
M  V30 622 O 57.0218 0.724831 -1.80489 0
M  V30 623 C 57.3048 -2.74332 -2.33268 0
M  V30 624 C 57.1578 -4.15737 -1.71705 0
M  V30 625 C 58.4768 -2.85576 -3.34865 0
M  V30 626 H 55.5958 -0.577826 -0.457478 0
M  V30 627 H 58.2378 -1.81532 -0.560897 0
M  V30 628 H 56.3878 -2.55036 -2.93068 0
M  V30 629 H 58.0598 -4.46537 -1.15769 0
M  V30 630 H 56.3028 -4.21605 -1.02135 0
M  V30 631 H 56.9738 -4.92477 -2.49341 0
M  V30 632 H 59.4498 -3.03127 -2.8505 0
M  V30 633 H 58.3258 -3.68135 -4.07146 0
M  V30 634 H 58.5868 -1.94732 -3.96903 0
M  V30 635 N 57.6459 0.756429 -1.3826 0
M  V30 636 C 58.8739 1.54565 -1.3754 0
M  V30 637 C 59.2889 1.88767 0.0355331 0
M  V30 638 O 58.6459 1.52572 1.0014 0
M  V30 639 C 58.6969 2.84654 -2.22833 0
M  V30 640 O 58.4179 2.51912 -3.5843 0
M  V30 641 C 59.9189 3.78807 -2.30261 0
M  V30 642 H 57.1389 0.478353 -0.470553 0
M  V30 643 H 59.6829 0.936381 -1.81803 0
M  V30 644 H 57.8379 3.41965 -1.8204 0
M  V30 645 H 58.2519 3.35325 -4.03308 0
M  V30 646 H 59.7259 4.67045 -2.94233 0
M  V30 647 H 60.2029 4.19038 -1.31545 0
M  V30 648 H 60.8089 3.2742 -2.71433 0
M  V30 649 N 59.124 1.23083 0.984299 0
M  V30 650 C 60.352 1.08714 1.76037 0
M  V30 651 C 60.767 -0.361691 1.85303 0
M  V30 652 O 60.124 -1.25034 1.32939 0
M  V30 653 C 60.175 1.70206 3.18923 0
M  V30 654 O 59.896 3.09423 3.10144 0
M  V30 655 C 61.397 1.61227 4.12941 0
M  V30 656 H 58.617 0.380664 0.552572 0
M  V30 657 H 61.161 1.62853 1.23689 0
M  V30 658 H 59.316 1.20109 3.6831 0
M  V30 659 H 59.73 3.39188 4.00065 0
M  V30 660 H 61.204 2.08962 5.10919 0
M  V30 661 H 61.681 0.570375 4.35481 0
M  V30 662 H 62.287 2.10671 3.69456 0
M  V30 663 N 60.6021 -1.18246 1.0419 0
M  V30 664 C 61.8511 -1.87588 0.741194 0
M  V30 665 C 62.1641 -1.81303 -0.734066 0
M  V30 666 O 63.3701 -2.46019 -1.14834 0
M  V30 667 C 61.8261 -3.36538 1.27555 0
M  V30 668 C 61.4341 -3.51349 2.77953 0
M  V30 669 C 63.1781 -4.11273 1.05143 0
M  V30 670 C 61.0851 -4.94265 3.2474 0
M  V30 671 H 60.0151 -0.702622 0.273565 0
M  V30 672 H 62.6661 -1.33601 1.25789 0
M  V30 673 H 61.0481 -3.9 0.686703 0
M  V30 674 H 62.2221 -3.08153 3.42605 0
M  V30 675 H 60.5371 -2.90022 2.98791 0
M  V30 676 H 63.1341 -5.16689 1.37611 0
M  V30 677 H 63.4771 -4.16298 -0.0112774 0
M  V30 678 H 64.0101 -3.63987 1.60495 0
M  V30 679 H 60.7491 -4.94408 4.30396 0
M  V30 680 H 60.2691 -5.38172 2.64823 0
M  V30 681 H 61.9481 -5.62987 3.18834 0
M  V30 682 N 62.0802 -0.821533 -1.34494 0
M  V30 683 C 63.4912 -0.467956 -1.8074 0
M  V30 684 C 63.8422 1.01151 -1.68116 0
M  V30 685 O 62.9672 1.78707 -1.22036 0
M  V30 686 C 63.5622 -0.842627 -3.28154 0
M  V30 687 C 62.1212 -0.541439 -3.72485 0
M  V30 688 C 61.2682 -1.06028 -2.56229 0
M  V30 689 H 64.2192 -1.01183 -1.22261 0
M  V30 690 H 64.2402 -0.145876 -3.8022 0
M  V30 691 H 63.7522 -1.91945 -3.37311 0
M  V30 692 H 61.8532 0.526034 -3.68868 0
M  V30 693 H 61.9662 -1.08453 -4.66663 0
M  V30 694 H 60.3302 -0.481892 -2.501 0
M  V30 695 H 61.1132 -2.14352 -2.68157 0
M  V30 696 N 63.5583 1.46682 -0.576371 0
M  V30 697 C 64.7863 2.06798 -0.0649635 0
M  V30 698 C 65.2013 1.42612 1.23723 0
M  V30 699 O 64.5583 0.529203 1.74659 0
M  V30 700 C 64.6093 3.6132 0.114202 0
M  V30 701 O 64.3303 4.23104 -1.13644 0
M  V30 702 C 65.8313 4.38349 0.66069 0
M  V30 703 H 63.0513 0.668778 -0.0545616 0
M  V30 704 H 65.5953 1.88404 -0.795237 0
M  V30 705 H 63.7503 3.79162 0.794673 0
M  V30 706 H 64.1643 5.15894 -0.946253 0
M  V30 707 H 65.6383 5.47081 0.73526 0
M  V30 708 H 66.1153 4.05953 1.67627 0
M  V30 709 H 66.7213 4.25297 0.0152951 0
M  V30 710 N 65.0364 0.313813 1.54444 0
M  V30 711 C 66.2824 -0.292108 2.00685 0
M  V30 712 C 66.6154 -1.52548 1.20177 0
M  V30 713 O 65.8904 -1.92452 0.281531 0
M  V30 714 C 66.1734 -0.635968 3.5444 0
M  V30 715 C 66.0264 0.607437 4.4568 0
M  V30 716 C 67.3454 -1.45747 4.15266 0
M  V30 717 H 64.4644 -0.104697 0.729526 0
M  V30 718 H 67.1064 0.428457 1.85106 0
M  V30 719 H 65.2564 -1.24986 3.67846 0
M  V30 720 H 66.9284 1.24581 4.44159 0
M  V30 721 H 65.1714 1.23822 4.15753 0
M  V30 722 H 65.8424 0.322515 5.51057 0
M  V30 723 H 68.3184 -0.938645 4.05375 0
M  V30 724 H 67.1944 -1.66683 5.2298 0
M  V30 725 H 67.4554 -2.45063 3.67963 0
M  V30 726 N 66.5145 -1.57545 0.0417849 0
M  V30 727 C 67.7625 -1.91937 -0.632829 0
M  V30 728 C 68.0835 -0.919978 -1.71934 0
M  V30 729 O 67.3535 0.0366064 -1.95866 0
M  V30 730 H 65.9335 -0.708493 -0.236742 0
M  V30 731 H 68.5955 -1.9468 0.0925745 0
M  V30 732 H 67.6915 -2.92912 -1.07746 0
M  V30 733 N 67.9926 0.231505 -1.5589 0
M  V30 734 C 69.2396 0.957352 -1.78441 0
M  V30 735 C 69.5676 1.84726 -0.60882 0
M  V30 736 O 68.8226 1.91416 0.40725 0
M  V30 737 C 69.1216 1.83577 -3.0665 0
M  V30 738 C 68.7876 1.09993 -4.37278 0
M  V30 739 C 67.4496 0.896629 -4.72773 0
M  V30 740 C 69.8016 0.579558 -5.17968 0
M  V30 741 C 67.1296 0.160896 -5.86479 0
M  V30 742 C 69.4816 -0.142783 -6.32439 0
M  V30 743 C 68.1456 -0.357427 -6.66542 0
M  V30 744 H 67.4156 0.35032 -0.65296 0
M  V30 745 H 70.0626 0.226259 -1.90159 0
M  V30 746 H 68.3676 2.63441 -2.90011 0
M  V30 747 H 70.0646 2.39934 -3.21298 0
M  V30 748 H 66.6546 1.26835 -4.09403 0
M  V30 749 H 70.8386 0.724125 -4.90989 0
M  V30 750 H 66.0946 -0.0157293 -6.11398 0
M  V30 751 H 70.2686 -0.553559 -6.94196 0
M  V30 752 H 67.8956 -0.929466 -7.54497 0
M  V30 753 N 69.4707 1.49531 0.497807 0
M  V30 754 C 70.4187 1.66926 1.61983 0
M  V30 755 C 71.4127 0.535167 1.60724 0
M  V30 756 O 72.6187 0.714896 1.65195 0
M  V30 757 H 68.9937 0.526415 0.537021 0
M  V30 758 H 70.9647 2.61098 1.44465 0
M  V30 759 C 69.7137 1.75602 3.00099 0
M  V30 760 H 69.0367 2.62244 3.01775 0
M  V30 761 H 70.4767 1.91807 3.78135 0
M  V30 762 C 68.9357 0.501543 3.33146 0
M  V30 763 O 69.4657 -0.371342 3.9998 0
M  V30 764 N 67.6717 0.363531 2.88317 0
M  V30 765 H 67.2187 1.07485 2.34104 0
M  V30 766 H 67.1767 -0.474728 3.10795 0
M  V30 767 N 70.9488 -0.749086 1.3866 0
M  V30 768 C 72.1948 -1.51056 1.35314 0
M  V30 769 C 72.5278 -1.94121 -0.0553751 0
M  V30 770 O 71.8028 -1.65763 -1.01749 0
M  V30 771 C 72.0858 -2.76003 2.31288 0
M  V30 772 C 71.9388 -2.39047 3.8102 0
M  V30 773 C 73.2578 -3.78046 2.2532 0
M  V30 774 H 70.3768 -0.547972 0.492844 0
M  V30 775 H 73.0188 -0.857628 1.69543 0
M  V30 776 H 71.1688 -3.31716 2.02229 0
M  V30 777 H 72.8408 -1.89074 4.20771 0
M  V30 778 H 71.0838 -1.71449 3.98482 0
M  V30 779 H 71.7548 -3.28462 4.4364 0
M  V30 780 H 74.2308 -3.31884 2.50983 0
M  V30 781 H 73.1068 -4.63159 2.94576 0
M  V30 782 H 73.3678 -4.23957 1.25352 0
M  V30 783 N 72.4269 -1.23603 -0.977757 0
M  V30 784 C 73.3369 -1.03632 -2.1047 0
M  V30 785 C 74.3529 0.0199435 -1.73989 0
M  V30 786 O 75.5289 -0.176076 -2.00629 0
M  V30 787 C 72.5939 -0.63276 -3.40877 0
M  V30 788 C 71.6549 -1.76437 -3.91367 0
M  V30 789 C 70.8879 -1.37997 -5.15551 0
M  V30 790 O 71.1109 -0.265357 -5.69782 0
M  V30 791 O 70.0449 -2.20201 -5.60174 0
M  V30 792 H 73.8709 -1.98086 -2.30208 0
M  V30 793 H 71.4559 -1.02332 -1.08851 0
M  V30 794 H 73.3379 -0.418761 -4.19314 0
M  V30 795 H 72.0129 0.282754 -3.22463 0
M  V30 796 H 70.9199 -2.03304 -3.14036 0
M  V30 797 H 72.2529 -2.6583 -4.14241 0
M  V30 798 N 73.905 1.17692 -1.04816 0
M  V30 799 C 75.133 1.91786 -0.776254 0
M  V30 800 C 75.548 1.76604 0.667577 0
M  V30 801 O 74.905 1.10067 1.45573 0
M  V30 802 C 74.956 3.42967 -1.14263 0
M  V30 803 O 74.677 3.57678 -2.52978 0
M  V30 804 C 76.178 4.34144 -0.896311 0
M  V30 805 H 73.398 0.608624 -0.282519 0
M  V30 806 H 75.942 1.49268 -1.39783 0
M  V30 807 H 74.097 3.83245 -0.565874 0
M  V30 808 H 74.511 4.51319 -2.67229 0
M  V30 809 H 75.985 5.38744 -1.20244 0
M  V30 810 H 76.462 4.38876 0.168636 0
M  V30 811 H 77.068 3.99574 -1.45672 0
M  V30 812 N 75.3831 0.828654 1.34056 0
M  V30 813 C 76.6291 0.42008 1.98402 0
M  V30 814 C 76.9621 -1.01564 1.65525 0
M  V30 815 O 76.2371 -1.70834 0.929831 0
M  V30 816 C 76.5201 0.62927 3.54559 0
M  V30 817 C 76.3731 2.11152 3.97159 0
M  V30 818 C 77.6921 0.0688756 4.40046 0
M  V30 819 H 74.8111 0.154104 0.720709 0
M  V30 820 H 77.4531 1.04228 1.5886 0
M  V30 821 H 75.6031 0.0996418 3.88372 0
M  V30 822 H 77.2751 2.70522 3.73651 0
M  V30 823 H 75.5181 2.59985 3.47261 0
M  V30 824 H 76.1891 2.20868 5.05887 0
M  V30 825 H 78.6651 0.521458 4.1282 0
M  V30 826 H 77.5411 0.245006 5.48353 0
M  V30 827 H 77.8021 -1.0266 4.30015 0
M  V30 828 N 76.8612 -1.46375 0.584142 0
M  V30 829 C 78.0892 -2.06761 0.0759296 0
M  V30 830 C 78.5042 -1.43266 -1.22965 0
M  V30 831 O 77.8612 -0.538458 -1.74376 0
M  V30 832 C 77.9122 -3.61375 -0.0950384 0
M  V30 833 O 77.6332 -4.22495 1.15887 0
M  V30 834 C 79.1342 -4.38693 -0.637434 0
M  V30 835 H 76.3542 -0.668479 0.0581075 0
M  V30 836 H 78.8982 -1.8798 0.805218 0
M  V30 837 H 77.0532 -3.79578 -0.774554 0
M  V30 838 H 77.4672 -5.15385 0.973598 0
M  V30 839 H 78.9412 -5.47464 -0.706237 0
M  V30 840 H 79.4182 -4.06836 -1.65472 0
M  V30 841 H 80.0242 -4.25299 0.00725967 0
M  V30 842 N 78.3393 -0.321999 -1.54275 0
M  V30 843 C 79.5693 0.282642 -2.04658 0
M  V30 844 C 79.9773 1.46453 -1.19784 0
M  V30 845 O 79.3203 1.82367 -0.220932 0
M  V30 846 C 79.3823 0.781857 -3.50895 0
M  V30 847 C 79.0463 -0.277517 -4.56157 0
M  V30 848 C 80.0433 -1.11307 -5.07845 0
M  V30 849 C 77.7283 -0.425256 -5.00497 0
M  V30 850 C 79.7223 -2.08211 -6.02434 0
M  V30 851 C 77.4093 -1.39771 -5.94901 0
M  V30 852 C 78.4073 -2.2246 -6.45756 0
M  V30 853 O 78.0953 -3.18054 -7.38307 0
M  V30 854 H 77.8273 0.0622636 -0.673126 0
M  V30 855 H 80.3813 -0.465792 -2.00049 0
M  V30 856 H 78.6113 1.58118 -3.52896 0
M  V30 857 H 80.3003 1.30467 -3.84361 0
M  V30 858 H 81.0663 -1.00991 -4.74369 0
M  V30 859 H 76.9453 0.20847 -4.60528 0
M  V30 860 H 80.4893 -2.72791 -6.42052 0
M  V30 861 H 76.3863 -1.50152 -6.27794 0
M  V30 862 H 77.1543 -3.13275 -7.56175 0
M  V30 863 N 79.8174 1.5752 -0.0501392 0
M  V30 864 C 80.7644 2.1147 0.924603 0
M  V30 865 C 81.7344 1.02182 1.30951 0
M  V30 866 O 82.9194 1.29723 1.39916 0
M  V30 867 C 80.0594 2.66337 2.19451 0
M  V30 868 C 79.1724 3.89708 1.86418 0
M  V30 869 C 78.3074 4.32893 3.07859 0
M  V30 870 C 77.3464 5.48967 2.70742 0
M  V30 871 N 76.4834 5.87211 3.84874 0
M  V30 872 H 81.3234 2.94465 0.457639 0
M  V30 873 H 78.8604 1.45531 0.214266 0
M  V30 874 H 80.8184 2.96247 2.93758 0
M  V30 875 H 79.4484 1.86141 2.63726 0
M  V30 876 H 78.5004 3.66396 1.02264 0
M  V30 877 H 79.8124 4.74074 1.55096 0
M  V30 878 H 78.9664 4.6435 3.90466 0
M  V30 879 H 77.7054 3.47336 3.42358 0
M  V30 880 H 76.7104 5.17183 1.86551 0
M  V30 881 H 77.9354 6.3624 2.37436 0
M  V30 882 H 75.8814 5.04607 4.19175 0
M  V30 883 H 75.7984 6.66266 3.57247 0
M  V30 884 H 77.0664 6.23282 4.68123 0
M  V30 885 N 81.2955 -0.223234 1.56011 0
M  V30 886 C 82.2435 -1.29627 1.93131 0
M  V30 887 C 83.2375 -1.48608 0.813146 0
M  V30 888 O 84.4435 -1.49802 0.997966 0
M  V30 889 H 80.8185 -0.434563 0.613726 0
M  V30 890 H 82.7895 -0.955995 2.82672 0
M  V30 891 C 81.5385 -2.63983 2.26292 0
M  V30 892 H 80.8615 -2.50185 3.11846 0
M  V30 893 H 82.3015 -3.3788 2.56151 0
M  V30 894 C 80.7605 -3.18866 1.08747 0
M  V30 895 O 81.2905 -4.00192 0.347727 0
M  V30 896 N 79.4965 -2.77217 0.871743 0
M  V30 897 H 79.0435 -2.1119 1.47501 0
M  V30 898 H 79.0015 -3.1428 0.0869905 0
M  V30 899 N 82.7736 -1.49793 -0.48987 0
M  V30 900 C 84.0196 -1.60078 -1.24511 0
M  V30 901 C 84.3526 -0.291608 -1.91998 0
M  V30 902 O 83.6276 0.705647 -1.81248 0
M  V30 903 C 83.9106 -2.76791 -2.30345 0
M  V30 904 C 83.7636 -4.17535 -1.67286 0
M  V30 905 C 85.0826 -2.89111 -3.31817 0
M  V30 906 H 82.2016 -0.582645 -0.451324 0
M  V30 907 H 84.8436 -1.82117 -0.541612 0
M  V30 908 H 82.9936 -2.5813 -2.90346 0
M  V30 909 H 84.6656 -4.4774 -1.11026 0
M  V30 910 H 82.9086 -4.22665 -0.976577 0
M  V30 911 H 83.5796 -4.95094 -2.44103 0
M  V30 912 H 86.0556 -3.06133 -2.81819 0
M  V30 913 H 84.9316 -3.72433 -4.03219 0
M  V30 914 H 85.1926 -1.9893 -3.94815 0
M  V30 915 N 84.2517 0.741722 -1.39055 0
M  V30 916 C 85.1987 1.85566 -1.37237 0
M  V30 917 C 86.1687 1.64457 -0.233072 0
M  V30 918 O 87.3537 1.85957 -0.427147 0
M  V30 919 C 84.4937 3.23004 -1.215 0
M  V30 920 C 83.6067 3.55864 -2.44918 0
M  V30 921 C 82.7417 4.82669 -2.21821 0
M  V30 922 C 81.7807 5.08351 -3.40948 0
M  V30 923 N 80.9177 6.26356 -3.17211 0
M  V30 924 H 85.7577 1.86455 -2.32462 0
M  V30 925 H 83.2947 0.911176 -1.15482 0
M  V30 926 H 85.2527 4.02331 -1.10389 0
M  V30 927 H 83.8827 3.21411 -0.29908 0
M  V30 928 H 82.9347 2.7129 -2.66657 0
M  V30 929 H 84.2467 3.70765 -3.33668 0
M  V30 930 H 83.4007 5.69962 -2.07914 0
M  V30 931 H 82.1397 4.69929 -1.30454 0
M  V30 932 H 81.1447 4.19522 -3.55361 0
M  V30 933 H 82.3697 5.22981 -4.33207 0
M  V30 934 H 80.3157 6.14917 -2.28502 0
M  V30 935 H 80.2327 6.41813 -3.99515 0
M  V30 936 H 81.5007 7.16506 -3.06984 0
M  V30 937 N 85.7298 1.2412 0.971189 0
M  V30 938 C 86.9768 1.07881 1.71371 0
M  V30 939 C 87.3048 -0.382901 1.90694 0
M  V30 940 O 86.5598 -1.29945 1.46331 0
M  V30 941 C 86.8588 1.75983 3.11071 0
M  V30 942 C 86.5248 3.25909 3.11599 0
M  V30 943 C 85.1868 3.66813 3.11451 0
M  V30 944 C 87.5388 4.21771 3.062 0
M  V30 945 C 84.8668 5.02021 3.03631 0
M  V30 946 C 87.2188 5.56982 2.99923 0
M  V30 947 C 85.8828 5.97237 2.98102 0
M  V30 948 H 85.1528 0.394764 0.62709 0
M  V30 949 H 87.7998 1.54176 1.13587 0
M  V30 950 H 86.1048 1.22072 3.72298 0
M  V30 951 H 87.8018 1.60887 3.6731 0
M  V30 952 H 84.3918 2.93353 3.12477 0
M  V30 953 H 88.5758 3.91172 3.05447 0
M  V30 954 H 83.8318 5.32411 3.0058 0
M  V30 955 H 88.0058 6.30969 2.94704 0
M  V30 956 H 85.6328 7.01967 2.91798 0
M  V30 957 N 87.2079 -1.17134 1.05439 0
M  V30 958 C 88.1559 -2.23289 0.651511 0
M  V30 959 C 89.1499 -1.66186 -0.328411 0
M  V30 960 O 90.3559 -1.78949 -0.194206 0
M  V30 961 H 86.7309 -0.726938 0.192523 0
M  V30 962 H 88.7019 -2.54565 1.55689 0
M  V30 963 C 87.4509 -3.47671 0.0448436 0
M  V30 964 H 86.7739 -3.91918 0.78996 0
M  V30 965 H 88.2139 -4.2353 -0.19964 0
M  V30 966 C 86.6729 -3.14453 -1.20918 0
M  V30 967 O 87.2029 -3.29459 -2.29825 0
M  V30 968 N 85.4089 -2.68657 -1.10779 0
M  V30 969 H 84.9559 -2.56646 -0.221526 0
M  V30 970 H 84.9139 -2.46804 -1.9477 0
M  V30 971 N 88.686 -0.835752 -1.33615 0
M  V30 972 C 89.932 -0.430596 -1.98176 0
M  V30 973 C 90.265 1.00684 -1.66061 0
M  V30 974 O 89.54 1.70339 -0.938877 0
M  V30 975 C 89.823 -0.648065 -3.5422 0
M  V30 976 C 89.676 -2.13255 -3.96033 0
M  V30 977 C 90.995 -0.0922113 -4.40003 0
M  V30 978 H 88.114 -0.157924 -0.719881 0
M  V30 979 H 90.756 -1.05069 -1.58305 0
M  V30 980 H 88.906 -0.120237 -3.88314 0
M  V30 981 H 90.578 -2.725 -3.72211 0
M  V30 982 H 88.821 -2.61823 -3.45878 0
M  V30 983 H 89.492 -2.23547 -5.04708 0
M  V30 984 H 91.968 -0.543343 -4.12537 0
M  V30 985 H 90.844 -0.274083 -5.48215 0
M  V30 986 H 91.105 1.00378 -4.30554 0
M  V30 987 N 90.1641 1.46063 -0.591896 0
M  V30 988 C 91.4101 2.03203 -0.0894879 0
M  V30 989 C 91.7651 1.45407 1.25994 0
M  V30 990 O 91.0581 0.61326 1.8152 0
M  V30 991 C 91.2521 3.57391 0.0249813 0
M  V30 992 C 91.0811 4.30142 -1.3118 0
M  V30 993 C 89.8511 4.68688 -1.88838 0
M  V30 994 C 92.0491 4.63098 -2.23708 0
M  V30 995 N 90.0311 5.26228 -3.1616 0
M  V30 996 C 91.4021 5.21305 -3.3562 0
M  V30 997 C 93.4571 4.45031 -2.23274 0
M  V30 998 C 92.1601 5.63351 -4.47245 0
M  V30 999 C 94.1861 4.881 -3.33935 0
M  V30 1000 C 93.5481 5.46386 -4.44569 0
M  V30 1001 H 89.6471 0.778323 -0.0757431 0
M  V30 1002 H 92.2311 1.78094 -0.78681 0
M  V30 1003 H 90.4021 3.82195 0.69149 0
M  V30 1004 H 92.1341 4.0118 0.532613 0
M  V30 1005 H 88.8891 4.5174 -1.42223 0
M  V30 1006 H 89.3131 5.59512 -3.8115 0
M  V30 1007 H 93.9551 3.99295 -1.39008 0
M  V30 1008 H 91.6731 6.08061 -5.32247 0
M  V30 1009 H 95.2591 4.75866 -3.34728 0
M  V30 1010 H 94.1391 5.79102 -5.28782 0
M  V30 1011 N 91.6422 0.330177 1.54103 0
M  V30 1012 C 92.9192 -0.325007 1.92881 0
M  V30 1013 C 93.2992 -1.6934 1.26045 0
M  V30 1014 O 92.6472 -2.24855 0.406526 0
M  V30 1015 C 92.8572 -0.410634 3.46576 0
M  V30 1016 C 94.2052 -0.667801 4.19316 0
M  V30 1017 O 95.2292 -0.49329 3.52768 0
M  V30 1018 O 94.0882 -1.00491 5.37181 0
M  V30 1019 H 91.1822 -0.186873 0.80561 0
M  V30 1020 H 93.7282 0.380376 1.65382 0
M  V30 1021 H 92.5002 0.550164 3.87413 0
M  V30 1022 H 92.1232 -1.16333 3.802 0
M  V30 1023 N 93.1203 -1.57491 0.0584922 0
M  V30 1024 C 94.3663 -1.93264 -0.614558 0
M  V30 1025 C 94.6993 -0.937717 -1.7006 0
M  V30 1026 O 93.9743 0.0351652 -1.94468 0
M  V30 1027 C 94.2573 -3.3938 -1.20386 0
M  V30 1028 C 94.1103 -4.49625 -0.125375 0
M  V30 1029 C 95.4293 -3.86039 -2.11334 0
M  V30 1030 H 92.5483 -0.702791 -0.221933 0
M  V30 1031 H 95.1903 -1.8961 0.12175 0
M  V30 1032 H 93.3403 -3.42626 -1.83139 0
M  V30 1033 H 95.0123 -4.58506 0.506971 0
M  V30 1034 H 93.2553 -4.30354 0.545672 0
M  V30 1035 H 93.9263 -5.48967 -0.577861 0
M  V30 1036 H 96.4023 -3.84716 -1.58534 0
M  V30 1037 H 95.2783 -4.88914 -2.49507 0
M  V30 1038 H 95.5393 -3.23215 -3.01636 0
M  V30 1039 N 94.5984 0.214957 -1.56127 0
M  V30 1040 C 95.8464 0.936518 -1.79091 0
M  V30 1041 C 96.1674 1.84606 -0.628148 0
M  V30 1042 O 95.4374 1.92664 0.35462 0
M  V30 1043 H 94.0174 0.3488 -0.660566 0
M  V30 1044 H 96.6794 0.22523 -1.93594 0
M  V30 1045 H 95.7754 1.53943 -2.71492 0
M  V30 1046 N 96.0765 1.50051 0.48192 0
M  V30 1047 C 97.3245 1.60181 1.23234 0
M  V30 1048 C 97.6455 0.299176 1.92691 0
M  V30 1049 O 96.9155 -0.682708 1.83619 0
M  V30 1050 H 95.4955 0.590232 0.457859 0
M  V30 1051 H 98.1575 1.86775 0.556881 0
M  V30 1052 H 97.2535 2.40753 1.98607 0
M  V30 1053 N 97.5546 -0.734337 1.39446 0
M  V30 1054 C 98.4866 -1.85861 1.34121 0
M  V30 1055 C 99.4996 -1.60871 0.249864 0
M  V30 1056 O 100.689 -1.71093 0.508865 0
M  V30 1057 C 97.7886 -3.21899 1.05991 0
M  V30 1058 C 96.9616 -3.74239 2.26415 0
M  V30 1059 C 96.0206 -4.88841 1.94733 0
M  V30 1060 O 95.0466 -5.02468 2.67422 0
M  V30 1061 N 96.2486 -5.73261 0.913884 0
M  V30 1062 H 99.0136 -1.90934 2.31007 0
M  V30 1063 H 96.5746 -0.915102 1.33557 0
M  V30 1064 H 98.5666 -3.96136 0.828147 0
M  V30 1065 H 97.1366 -3.12091 0.178361 0
M  V30 1066 H 96.3566 -2.91347 2.65539 0
M  V30 1067 H 97.6446 -4.05942 3.06738 0
M  V30 1068 H 97.0426 -5.64842 0.311476 0
M  V30 1069 H 95.5996 -6.47563 0.742015 0
M  V30 1070 N 99.0327 -1.24633 -0.964593 0
M  V30 1071 C 100.31 -0.995809 -1.68354 0
M  V30 1072 C 100.69 0.480964 -2.05548 0
M  V30 1073 O 100.038 1.45599 -1.76105 0
M  V30 1074 C 100.248 -1.92177 -2.91323 0
M  V30 1075 C 101.596 -2.19446 -3.63495 0
M  V30 1076 O 102.62 -1.89855 -3.01386 0
M  V30 1077 O 101.479 -2.69714 -4.75307 0
M  V30 1078 H 98.5727 -0.376854 -0.736146 0
M  V30 1079 H 101.119 -1.35745 -1.0184 0
M  V30 1080 H 99.8907 -2.91938 -2.60553 0
M  V30 1081 H 99.5137 -1.56349 -3.65569 0
M  V30 1082 N 100.511 1.16574 -1.06058 0
M  V30 1083 C 101.458 2.20883 -0.669263 0
M  V30 1084 C 102.428 1.62729 0.332918 0
M  V30 1085 O 103.613 1.895 0.222346 0
M  V30 1086 C 100.753 3.45049 -0.0593572 0
M  V30 1087 C 99.8658 4.17458 -1.11143 0
M  V30 1088 C 99.0008 5.29135 -0.467916 0
M  V30 1089 C 98.0398 5.93343 -1.50369 0
M  V30 1090 N 97.1768 6.96516 -0.883706 0
M  V30 1091 H 102.017 2.53709 -1.5632 0
M  V30 1092 H 99.5538 1.24616 -0.781625 0
M  V30 1093 H 101.512 4.16033 0.311771 0
M  V30 1094 H 100.142 3.12781 0.797992 0
M  V30 1095 H 99.1938 3.45101 -1.60029 0
M  V30 1096 H 100.506 4.61307 -1.89731 0
M  V30 1097 H 99.6598 6.06684 -0.0436871 0
M  V30 1098 H 98.3988 4.86443 0.349864 0
M  V30 1099 H 97.4038 5.14517 -1.93784 0
M  V30 1100 H 98.6288 6.38114 -2.32352 0
M  V30 1101 H 96.5748 6.55943 -0.086595 0
M  V30 1102 H 96.4918 7.38723 -1.607 0
M  V30 1103 H 97.7598 7.77993 -0.484543 0
M  V30 1104 N 101.989 0.842826 1.3317 0
M  V30 1105 C 103.238 0.436738 1.96915 0
M  V30 1106 C 103.551 -1.01025 1.67491 0
M  V30 1107 O 104.757 -1.5212 2.24881 0
M  V30 1108 C 103.213 0.730021 3.52418 0
M  V30 1109 C 102.821 2.19195 3.90714 0
M  V30 1110 C 104.565 0.391076 4.22695 0
M  V30 1111 C 102.472 2.42907 5.39212 0
M  V30 1112 H 101.402 0.15958 0.736919 0
M  V30 1113 H 104.053 1.03196 1.51733 0
M  V30 1114 H 102.435 0.0643755 3.95948 0
M  V30 1115 H 103.609 2.8984 3.58231 0
M  V30 1116 H 101.924 2.49425 3.33431 0
M  V30 1117 H 104.521 0.545817 5.31907 0
M  V30 1118 H 104.864 -0.666294 4.10933 0
M  V30 1119 H 105.397 1.01212 3.84709 0
M  V30 1120 H 102.136 3.47224 5.55982 0
M  V30 1121 H 101.656 1.76827 5.73142 0
M  V30 1122 H 103.335 2.2626 6.06148 0
M  V30 1123 N 103.467 -1.45747 0.599634 0
M  V30 1124 C 104.883 -1.57424 0.26264 0
M  V30 1125 C 105.083 -1.59222 -1.23493 0
M  V30 1126 O 104.139 -1.51825 -2.01756 0
M  V30 1127 C 105.452 -2.86061 0.926795 0
M  V30 1128 C 107 -2.99722 0.901967 0
M  V30 1129 C 107.475 -4.31119 1.54598 0
M  V30 1130 N 108.966 -4.37858 1.5111 0
M  V30 1131 C 109.701 -5.3818 1.97863 0
M  V30 1132 N 109.197 -6.45083 2.52666 0
M  V30 1133 N 110.99 -5.29487 1.88679 0
M  V30 1134 H 103.141 -1.42823 1.57211 0
M  V30 1135 H 105.404 -0.68235 0.658105 0
M  V30 1136 H 105.11 -2.90605 1.98095 0
M  V30 1137 H 104.984 -3.74563 0.445238 0
M  V30 1138 H 107.371 -2.9475 -0.143617 0
M  V30 1139 H 107.452 -2.12652 1.42171 0
M  V30 1140 H 107.096 -4.36849 2.59085 0
M  V30 1141 H 107.026 -5.16992 1.00132 0
M  V30 1142 H 109.517 -3.61209 1.11068 0
M  V30 1143 H 109.83 -7.17869 2.86155 0
M  V30 1144 H 108.175 -6.45856 2.56701 0
M  V30 1145 H 111.366 -4.44877 1.4561 0
M  V30 1146 H 111.539 -6.07524 2.25429 0
M  V30 1147 N 104.945 -0.338344 -1.53925 0
M  V30 1148 C 106.356 0.146651 -1.86123 0
M  V30 1149 C 106.707 1.5042 -1.2597 0
M  V30 1150 O 105.832 2.08723 -0.571294 0
M  V30 1151 C 106.427 0.272879 -3.37699 0
M  V30 1152 C 104.986 0.702103 -3.69794 0
M  V30 1153 C 104.133 -0.167304 -2.76795 0
M  V30 1154 H 107.084 -0.558123 -1.48562 0
M  V30 1155 H 107.105 1.10128 -3.64214 0
M  V30 1156 H 106.617 -0.715307 -3.81451 0
M  V30 1157 H 104.718 1.6995 -3.31584 0
M  V30 1158 H 104.831 0.495604 -4.7653 0
M  V30 1159 H 103.195 0.359527 -2.5215 0
M  V30 1160 H 103.978 -1.15253 -3.23375 0
M  V30 1161 N 106.423 1.57458 -0.0668435 0
M  V30 1162 C 107.353 2.15468 0.899764 0
M  V30 1163 C 108.334 1.08042 1.31381 0
M  V30 1164 O 109.519 1.36054 1.38574 0
M  V30 1165 C 106.649 2.71232 2.16911 0
M  V30 1166 C 105.603 3.83781 1.89463 0
M  V30 1167 C 104.929 4.26127 3.22986 0
M  V30 1168 C 106.229 5.08238 1.20381 0
M  V30 1169 H 107.923 2.96488 0.416529 0
M  V30 1170 H 105.469 1.4262 0.198908 0
M  V30 1171 H 107.422 3.10458 2.84945 0
M  V30 1172 H 106.146 1.87426 2.67468 0
M  V30 1173 H 104.805 3.45051 1.23836 0
M  V30 1174 H 104.453 3.39249 3.71374 0
M  V30 1175 H 104.153 5.01993 3.05413 0
M  V30 1176 H 105.677 4.67966 3.92225 0
M  V30 1177 H 107.091 5.44811 1.78475 0
M  V30 1178 H 105.488 5.89349 1.13083 0
M  V30 1179 H 106.558 4.84558 0.182153 0
M  V30 1180 N 107.901 -0.206675 1.56239 0
M  V30 1181 C 109.147 -0.925733 1.81113 0
M  V30 1182 C 109.502 -1.81368 0.642135 0
M  V30 1183 O 108.795 -1.88126 -0.363211 0
M  V30 1184 C 108.989 -1.78675 3.09532 0
M  V30 1185 C 108.818 -0.98365 4.3881 0
M  V30 1186 C 107.588 -0.672661 5.00803 0
M  V30 1187 C 109.786 -0.341847 5.13163 0
M  V30 1188 N 107.768 0.150283 6.13716 0
M  V30 1189 C 109.139 0.343815 6.19046 0
M  V30 1190 C 111.194 -0.256392 4.97239 0
M  V30 1191 C 109.897 1.10678 7.10734 0
M  V30 1192 C 111.923 0.493142 5.8934 0
M  V30 1193 C 111.285 1.16729 6.94661 0
M  V30 1194 H 107.384 -0.318524 0.714189 0
M  V30 1195 H 109.968 -0.195378 1.93717 0
M  V30 1196 H 108.139 -2.4888 2.98183 0
M  V30 1197 H 109.871 -2.44441 3.22538 0
M  V30 1198 H 106.626 -0.994294 4.63045 0
M  V30 1199 H 107.05 0.551026 6.74754 0
M  V30 1200 H 111.692 -0.763249 4.15854 0
M  V30 1201 H 109.41 1.6251 7.91591 0
M  V30 1202 H 112.996 0.560465 5.79094 0
M  V30 1203 H 111.876 1.738 7.64698 0
M  V30 1204 N 109.379 -1.50304 -0.473955 0
M  V30 1205 C 110.795 -1.37667 -0.807466 0
M  V30 1206 C 110.995 -0.430555 -1.96846 0
M  V30 1207 O 110.051 0.127874 -2.52176 0
M  V30 1208 C 111.364 -2.78974 -1.12223 0
M  V30 1209 C 112.912 -2.87868 -1.22885 0
M  V30 1210 C 113.387 -4.30003 -1.57676 0
M  V30 1211 N 114.878 -4.3294 -1.64673 0
M  V30 1212 C 115.613 -5.3991 -1.93091 0
M  V30 1213 N 115.109 -6.57092 -2.1955 0
M  V30 1214 N 116.902 -5.27351 -1.94569 0
M  V30 1215 H 109.053 -2.10394 0.291212 0
M  V30 1216 H 111.316 -0.945575 0.0677609 0
M  V30 1217 H 111.022 -3.50031 -0.342229 0
M  V30 1218 H 110.896 -3.16038 -2.05913 0
M  V30 1219 H 113.283 -2.17032 -1.99953 0
M  V30 1220 H 113.364 -2.54352 -0.271814 0
M  V30 1221 H 113.008 -5.01375 -0.81149 0
M  V30 1222 H 112.938 -4.61004 -2.54525 0
M  V30 1223 H 115.429 -3.48441 -1.46277 0
M  V30 1224 H 115.742 -7.34425 -2.405 0
M  V30 1225 H 114.087 -6.60272 -2.16948 0
M  V30 1226 H 117.278 -4.34801 -1.73394 0
M  V30 1227 H 117.451 -6.10805 -2.16381 0
M  V30 1228 N 110.857 0.726932 -1.39834 0
M  V30 1229 C 111.807 1.83232 -1.35683 0
M  V30 1230 C 112.791 1.59155 -0.236295 0
M  V30 1231 O 113.983 1.70522 -0.474488 0
M  V30 1232 C 111.112 3.21246 -1.21062 0
M  V30 1233 C 110.198 3.51125 -2.37849 0
M  V30 1234 N 110.589 3.51889 -3.63329 0
M  V30 1235 C 108.887 3.81527 -2.30982 0
M  V30 1236 C 109.588 3.79791 -4.40606 0
M  V30 1237 N 108.564 3.97971 -3.70297 0
M  V30 1238 H 112.366 1.8214 -2.30656 0
M  V30 1239 H 109.88 0.925545 -1.33444 0
M  V30 1240 H 111.877 4.00387 -1.16171 0
M  V30 1241 H 110.537 3.23572 -0.270458 0
M  V30 1242 H 111.548 3.33008 -3.96643 0
M  V30 1243 H 108.225 3.91411 -1.45272 0
M  V30 1244 H 109.615 3.86783 -5.49408 0
M  V30 1245 N 112.336 1.25143 0.95797 0
M  V30 1246 C 113.566 1.12261 1.73439 0
M  V30 1247 C 113.974 -0.326715 1.86358 0
M  V30 1248 O 113.317 -1.2367 1.35836 0
M  V30 1249 C 113.379 1.69966 3.16784 0
M  V30 1250 C 113.043 3.18936 3.27305 0
M  V30 1251 C 114.04 4.15968 3.11877 0
M  V30 1252 C 111.725 3.59083 3.51234 0
M  V30 1253 C 113.719 5.51126 3.20217 0
M  V30 1254 C 111.406 4.9438 3.5921 0
M  V30 1255 C 112.404 5.90211 3.43716 0
M  V30 1256 O 112.092 7.23046 3.51368 0
M  V30 1257 H 111.824 0.392476 0.550399 0
M  V30 1258 H 114.378 1.65927 1.21068 0
M  V30 1259 H 112.608 1.10744 3.70503 0
M  V30 1260 H 114.297 1.52232 3.76272 0
M  V30 1261 H 115.063 3.86292 2.93264 0
M  V30 1262 H 110.942 2.84989 3.62356 0
M  V30 1263 H 114.486 6.25905 3.0804 0
M  V30 1264 H 110.383 5.23723 3.77339 0
M  V30 1265 H 111.151 7.31097 3.6802 0
M  V30 1266 N 113.814 -1.1601 1.06675 0
M  V30 1267 C 115.044 -1.90251 0.805497 0
M  V30 1268 C 115.452 -1.77891 -0.64431 0
M  V30 1269 O 114.795 -1.12383 -1.45313 0
M  V30 1270 C 114.857 -3.41419 1.12576 0
M  V30 1271 C 114.521 -3.77564 2.57477 0
M  V30 1272 C 115.518 -3.79161 3.55715 0
M  V30 1273 C 113.203 -4.08079 2.92877 0
M  V30 1274 C 115.197 -4.10767 4.8739 0
M  V30 1275 C 112.884 -4.39351 4.24751 0
M  V30 1276 C 113.882 -4.40675 5.21818 0
M  V30 1277 O 113.57 -4.71202 6.51325 0
M  V30 1278 H 113.302 -0.610018 0.291297 0
M  V30 1279 H 115.856 -1.47958 1.4247 0
M  V30 1280 H 114.086 -3.84079 0.449503 0
M  V30 1281 H 115.775 -3.9694 0.84814 0
M  V30 1282 H 116.541 -3.55693 3.29708 0
M  V30 1283 H 112.42 -4.06211 2.17976 0
M  V30 1284 H 115.964 -4.11715 5.63148 0
M  V30 1285 H 111.861 -4.62285 4.50514 0
M  V30 1286 H 112.629 -4.88996 6.56373 0
M  V30 1287 N 115.292 -0.849877 -1.32721 0
M  V30 1288 C 116.52 -0.464754 -2.01613 0
M  V30 1289 C 116.935 0.937191 -1.63897 0
M  V30 1290 O 116.292 1.61081 -0.857856 0
M  V30 1291 C 116.343 -0.588638 -3.56675 0
M  V30 1292 O 116.064 -1.93535 -3.93034 0
M  V30 1293 C 117.565 -0.2019 -4.4284 0
M  V30 1294 H 114.785 -0.183215 -0.645502 0
M  V30 1295 H 117.329 -1.1455 -1.69407 0
M  V30 1296 H 115.484 0.0443159 -3.87375 0
M  V30 1297 H 115.898 -1.92871 -4.87751 0
M  V30 1298 H 117.372 -0.339599 -5.50954 0
M  V30 1299 H 117.849 0.857224 -4.30753 0
M  V30 1300 H 118.455 -0.809733 -4.17521 0
M  V30 1301 N 116.77 1.45427 -0.607355 0
M  V30 1302 C 118.018 2.01841 -0.102253 0
M  V30 1303 C 118.339 1.47832 1.27164 0
M  V30 1304 O 117.609 0.672497 1.83995 0
M  V30 1305 H 116.189 0.746188 -0.0348101 0
M  V30 1306 H 118.851 1.78229 -0.7887 0
M  V30 1307 H 117.947 3.12057 -0.0518585 0
M  V30 1308 N 118.248 0.346503 1.53744 0
M  V30 1309 C 119.476 -0.25041 2.05379 0
M  V30 1310 C 119.891 -1.43979 1.22129 0
M  V30 1311 O 119.248 -1.80677 0.257321 0
M  V30 1312 C 119.299 -0.662575 3.55376 0
M  V30 1313 O 119.02 0.479515 4.35468 0
M  V30 1314 C 120.521 -1.31989 4.23195 0
M  V30 1315 H 117.741 -0.0478198 0.669294 0
M  V30 1316 H 120.285 0.499346 1.9831 0
M  V30 1317 H 118.44 -1.36227 3.62658 0
M  V30 1318 H 118.854 0.15037 5.24284 0
M  V30 1319 H 120.328 -1.55902 5.29527 0
M  V30 1320 H 120.805 -2.27436 3.75725 0
M  V30 1321 H 121.411 -0.662154 4.20114 0
M  V30 1322 N 119.726 -1.57421 0.075193 0
M  V30 1323 C 120.658 -2.09904 -0.920483 0
M  V30 1324 C 121.671 -1.03191 -1.25918 0
M  V30 1325 O 122.86 -1.30695 -1.21577 0
M  V30 1326 C 119.96 -2.54726 -2.23534 0
M  V30 1327 C 119.133 -3.8505 -2.07498 0
M  V30 1328 C 118.192 -4.15929 -3.22319 0
M  V30 1329 O 117.218 -4.85474 -2.9716 0
M  V30 1330 N 118.42 -3.69745 -4.47514 0
M  V30 1331 H 121.185 -2.95954 -0.472359 0
M  V30 1332 H 118.746 -1.61523 -0.110444 0
M  V30 1333 H 120.738 -2.72443 -2.9926 0
M  V30 1334 H 119.308 -1.73795 -2.59835 0
M  V30 1335 H 118.528 -3.76679 -1.16219 0
M  V30 1336 H 119.816 -4.70348 -1.94038 0
M  V30 1337 H 119.214 -3.13569 -4.7084 0
M  V30 1338 H 117.771 -3.92655 -5.20255 0
M  V30 1339 N 121.204 0.198386 -1.56346 0
M  V30 1340 C 122.452 0.91747 -1.80075 0
M  V30 1341 C 122.773 1.83929 -0.647692 0
M  V30 1342 O 122.043 1.93029 0.334166 0
M  V30 1343 H 120.623 0.341774 -0.664228 0
M  V30 1344 H 123.285 0.204684 -1.93822 0
M  V30 1345 H 122.381 1.51055 -2.7311 0
M  V30 1346 N 122.682 1.50554 0.465978 0
M  V30 1347 C 123.612 1.72722 1.57128 0
M  V30 1348 C 124.593 0.576294 1.6004 0
M  V30 1349 O 125.778 0.81598 1.76225 0
M  V30 1350 C 122.908 1.82605 2.95419 0
M  V30 1351 C 121.862 2.97835 3.07373 0
M  V30 1352 C 121.188 2.92867 4.47363 0
M  V30 1353 C 122.488 4.38265 2.84114 0
M  V30 1354 H 124.182 2.65267 1.38829 0
M  V30 1355 H 121.728 1.2765 0.666441 0
M  V30 1356 H 123.681 1.96698 3.72677 0
M  V30 1357 H 122.405 0.866858 3.14886 0
M  V30 1358 H 121.064 2.83401 2.3255 0
M  V30 1359 H 120.712 1.94783 4.63755 0
M  V30 1360 H 120.412 3.70227 4.56296 0
M  V30 1361 H 121.936 3.09015 5.26633 0
M  V30 1362 H 123.35 4.53198 3.51118 0
M  V30 1363 H 121.747 5.17115 3.04487 0
M  V30 1364 H 122.817 4.50281 1.7993 0
M  V30 1365 N 124.16 -0.719506 1.40217 0
M  V30 1366 C 125.409 -1.47486 1.37589 0
M  V30 1367 C 125.722 -1.9559 -0.0201568 0
M  V30 1368 O 126.928 -2.70973 -0.169049 0
M  V30 1369 C 125.384 -2.66575 2.41796 0
M  V30 1370 C 124.992 -2.25358 3.87192 0
M  V30 1371 C 126.736 -3.4433 2.48269 0
M  V30 1372 C 124.643 -3.41262 4.83005 0
M  V30 1373 H 123.573 -0.553901 0.511576 0
M  V30 1374 H 126.224 -0.783427 1.65936 0
M  V30 1375 H 124.606 -3.3787 2.06543 0
M  V30 1376 H 125.78 -1.61509 4.31569 0
M  V30 1377 H 124.095 -1.60657 3.84159 0
M  V30 1378 H 126.692 -4.30569 3.17041 0
M  V30 1379 H 127.035 -3.87872 1.51198 0
M  V30 1380 H 127.568 -2.80076 2.82493 0
M  V30 1381 H 124.307 -3.02755 5.81394 0
M  V30 1382 H 123.827 -4.0404 4.43297 0
M  V30 1383 H 125.506 -4.07383 5.02641 0
M  V30 1384 N 125.638 -1.25649 -0.95132 0
M  V30 1385 C 126.885 -1.10594 -1.69633 0
M  V30 1386 C 127.213 0.352515 -1.91279 0
M  V30 1387 O 126.468 1.27601 -1.4838 0
M  V30 1388 C 126.767 -1.80909 -3.08231 0
M  V30 1389 C 126.433 -3.30825 -3.06375 0
M  V30 1390 C 125.095 -3.71722 -3.05576 0
M  V30 1391 C 127.447 -4.26589 -2.99452 0
M  V30 1392 C 124.775 -5.06788 -2.95606 0
M  V30 1393 C 127.127 -5.61683 -2.91024 0
M  V30 1394 C 125.791 -6.01904 -2.88562 0
M  V30 1395 H 125.061 -0.404691 -0.620731 0
M  V30 1396 H 127.708 -1.55964 -1.11119 0
M  V30 1397 H 126.013 -1.27979 -3.70309 0
M  V30 1398 H 127.71 -1.6671 -3.64704 0
M  V30 1399 H 124.3 -2.98287 -3.07771 0
M  V30 1400 H 128.484 -3.95982 -2.99185 0
M  V30 1401 H 123.74 -5.37126 -2.92071 0
M  V30 1402 H 127.914 -6.35578 -2.84629 0
M  V30 1403 H 125.541 -7.06521 -2.80593 0
M  V30 1404 N 127.117 1.15442 -1.07289 0
M  V30 1405 C 128.363 1.86489 -0.796846 0
M  V30 1406 C 128.696 1.82078 0.675371 0
M  V30 1407 O 127.971 1.24346 1.4956 0
M  V30 1408 C 128.254 3.35626 -1.30489 0
M  V30 1409 C 128.107 3.48673 -2.84161 0
M  V30 1410 C 129.426 4.30357 -0.920907 0
M  V30 1411 H 126.545 0.677144 -0.290939 0
M  V30 1412 H 129.187 1.35633 -1.33056 0
M  V30 1413 H 127.337 3.79068 -0.850883 0
M  V30 1414 H 129.009 3.14099 -3.37846 0
M  V30 1415 H 127.252 2.90253 -3.22391 0
M  V30 1416 H 127.923 4.53453 -3.14777 0
M  V30 1417 H 130.399 3.94871 -1.3121 0
M  V30 1418 H 129.275 5.33193 -1.30372 0
M  V30 1419 H 129.536 4.4176 0.173226 0
M  V30 1420 N 128.595 0.856903 1.32268 0
M  V30 1421 C 129.841 0.462069 1.97466 0
M  V30 1422 C 130.174 -0.980298 1.67642 0
M  V30 1423 O 129.449 -1.68824 0.965858 0
M  V30 1424 C 129.732 0.704336 3.53145 0
M  V30 1425 C 129.585 2.19529 3.9259 0
M  V30 1426 C 130.904 0.1622 4.39801 0
M  V30 1427 H 128.023 0.169357 0.717278 0
M  V30 1428 H 130.665 1.07574 1.56614 0
M  V30 1429 H 128.815 0.181999 3.88073 0
M  V30 1430 H 130.487 2.78387 3.67829 0
M  V30 1431 H 128.73 2.67292 3.41668 0
M  V30 1432 H 129.401 2.31549 5.01088 0
M  V30 1433 H 131.877 0.608905 4.11621 0
M  V30 1434 H 130.753 0.361265 5.4771 0
M  V30 1435 H 131.014 -0.935158 4.32096 0
M  V30 1436 N 130.073 -1.45103 0.615059 0
M  V30 1437 C 131.35 -1.95549 0.0448276 0
M  V30 1438 C 131.73 -1.55737 -1.4251 0
M  V30 1439 O 131.078 -0.823556 -2.13143 0
M  V30 1440 C 131.288 -3.48098 0.250785 0
M  V30 1441 C 132.636 -4.24384 0.135509 0
M  V30 1442 O 133.66 -3.55738 0.181299 0
M  V30 1443 O 132.519 -5.46493 0.0268878 0
M  V30 1444 H 129.613 -0.8264 -0.0314845 0
M  V30 1445 H 132.159 -1.55232 0.685642 0
M  V30 1446 H 130.931 -3.7007 1.27139 0
M  V30 1447 H 130.554 -3.95323 -0.424937 0
M  V30 1448 N 131.551 -0.354651 -1.53558 0
M  V30 1449 C 132.791 0.238651 -2.03002 0
M  V30 1450 C 133.155 1.46878 -1.23656 0
M  V30 1451 O 134.356 2.13699 -1.63053 0
M  V30 1452 C 132.627 0.534175 -3.53386 0
M  V30 1453 S 134.186 1.10271 -4.24719 0
M  V30 1454 H 131.004 0.0702908 -0.707517 0
M  V30 1455 H 133.606 -0.494987 -1.8913 0
M  V30 1456 H 132.31 -0.368765 -4.0874 0
M  V30 1457 H 131.841 1.29718 -3.71398 0
M  V30 1458 H 133.856 2.38772 -4.34974 0
M  V30 1459 N 133.029 1.57378 -0.0835403 0
M  V30 1460 C 133.992 2.12252 0.864959 0
M  V30 1461 C 134.992 1.04916 1.21858 0
M  V30 1462 O 136.182 1.30853 1.14991 0
M  V30 1463 C 133.314 2.63358 2.16461 0
M  V30 1464 H 134.507 2.97371 0.388676 0
M  V30 1465 H 132.06 1.55423 0.165317 0
M  V30 1466 H 132.795 1.81727 2.686 0
M  V30 1467 H 132.58 3.41826 1.92087 0
M  V30 1468 H 134.07 3.05847 2.84337 0
M  V30 1469 N 134.507 -0.190092 1.56449 0
M  V30 1470 C 135.784 -0.935886 1.71757 0
M  V30 1471 C 136.164 -2.01173 0.639726 0
M  V30 1472 O 135.512 -2.25827 -0.348502 0
M  V30 1473 C 135.722 -1.51775 3.1427 0
M  V30 1474 C 137.07 -1.99794 3.74656 0
M  V30 1475 O 138.094 -1.61607 3.1743 0
M  V30 1476 O 136.953 -2.70079 4.751 0
M  V30 1477 H 134.047 -0.439229 0.700719 0
M  V30 1478 H 136.593 -0.179395 1.68749 0
M  V30 1479 H 135.365 -0.742505 3.84191 0
M  V30 1480 H 134.988 -2.33894 3.21527 0
M  V30 1481 N 135.985 -1.50799 -0.457987 0
M  V30 1482 C 137.401 -1.38515 -0.792819 0
M  V30 1483 C 137.601 -0.451409 -1.96379 0
M  V30 1484 O 136.657 0.10112 -2.52297 0
M  V30 1485 C 137.97 -2.80149 -1.09258 0
M  V30 1486 C 139.518 -2.89156 -1.19825 0
M  V30 1487 C 139.993 -4.31651 -1.53106 0
M  V30 1488 N 141.484 -4.34662 -1.60072 0
M  V30 1489 C 142.219 -5.41928 -1.87354 0
M  V30 1490 N 141.715 -6.59384 -2.12568 0
M  V30 1491 N 143.508 -5.29385 -1.88965 0
M  V30 1492 H 135.659 -2.10073 0.313511 0
M  V30 1493 H 137.922 -0.944803 0.0777862 0
M  V30 1494 H 137.628 -3.50374 -0.305084 0
M  V30 1495 H 137.502 -3.18204 -2.02549 0
M  V30 1496 H 139.889 -2.19141 -1.97639 0
M  V30 1497 H 139.97 -2.54626 -0.244821 0
M  V30 1498 H 139.614 -5.02208 -0.758266 0
M  V30 1499 H 139.544 -4.63678 -2.49621 0
M  V30 1500 H 142.035 -3.49973 -1.42573 0
M  V30 1501 H 142.348 -7.36934 -2.32696 0
M  V30 1502 H 140.693 -6.62535 -2.09933 0
M  V30 1503 H 143.884 -4.36616 -1.68772 0
M  V30 1504 H 144.057 -6.13066 -2.09891 0
M  V30 1505 N 137.463 0.71206 -1.40597 0
M  V30 1506 C 138.74 1.46536 -1.29563 0
M  V30 1507 C 139.12 2.10931 0.0844217 0
M  V30 1508 O 138.468 2.00418 1.0975 0
M  V30 1509 C 138.678 2.49821 -2.43701 0
M  V30 1510 C 140.026 3.15551 -2.841 0
M  V30 1511 O 141.05 2.60142 -2.4332 0
M  V30 1512 O 139.909 4.15867 -3.54566 0
M  V30 1513 H 137.003 0.651801 -0.509004 0
M  V30 1514 H 139.549 0.743935 -1.52524 0
M  V30 1515 H 138.321 2.00778 -3.35863 0
M  V30 1516 H 137.944 3.29495 -2.22528 0
M  V30 1517 N 138.941 1.26152 0.944643 0
M  V30 1518 C 140.357 1.03189 1.21754 0
M  V30 1519 C 140.557 -0.245112 2.00004 0
M  V30 1520 O 139.613 -0.955176 2.33736 0
M  V30 1521 C 140.926 2.26119 1.98219 0
M  V30 1522 C 142.474 2.30984 2.11224 0
M  V30 1523 C 142.949 3.53597 2.91089 0
M  V30 1524 N 144.44 3.54053 2.98664 0
M  V30 1525 C 145.175 4.45593 3.60881 0
M  V30 1526 N 144.671 5.47416 4.24626 0
M  V30 1527 N 146.464 4.33252 3.58119 0
M  V30 1528 H 138.615 2.08177 0.421437 0
M  V30 1529 H 140.878 0.914723 0.248969 0
M  V30 1530 H 140.584 3.18984 1.48128 0
M  V30 1531 H 140.458 2.3009 2.98895 0
M  V30 1532 H 142.845 1.38635 2.60508 0
M  V30 1533 H 142.926 2.31026 1.09821 0
M  V30 1534 H 142.57 4.46273 2.42493 0
M  V30 1535 H 142.5 3.50802 3.92741 0
M  V30 1536 H 144.991 2.80403 2.53343 0
M  V30 1537 H 145.304 6.13459 4.69987 0
M  V30 1538 H 143.649 5.51278 4.23223 0
M  V30 1539 H 146.84 3.52924 3.0751 0
M  V30 1540 H 147.013 5.04786 4.06319 0
M  V30 1541 N 140.419 -1.14872 1.07899 0
M  V30 1542 C 141.668 -1.85135 0.800499 0
M  V30 1543 C 141.981 -1.83547 -0.676014 0
M  V30 1544 O 143.187 -2.49548 -1.06948 0
M  V30 1545 C 141.643 -3.3231 1.38197 0
M  V30 1546 C 141.251 -3.42329 2.8899 0
M  V30 1547 C 142.995 -4.0772 1.18174 0
M  V30 1548 C 140.902 -4.83684 3.403 0
M  V30 1549 H 139.832 -0.693563 0.29578 0
M  V30 1550 H 142.483 -1.29532 1.29976 0
M  V30 1551 H 140.865 -3.87618 0.810431 0
M  V30 1552 H 142.039 -2.97097 3.52236 0
M  V30 1553 H 140.354 -2.80369 3.07867 0
M  V30 1554 H 142.951 -5.12049 1.5398 0
M  V30 1555 H 143.294 -4.16124 0.12117 0
M  V30 1556 H 143.827 -3.58696 1.71994 0
M  V30 1557 H 140.566 -4.80465 4.45907 0
M  V30 1558 H 140.086 -5.29474 2.81811 0
M  V30 1559 H 141.765 -5.52558 3.36584 0
M  V30 1560 N 141.898 -0.863906 -1.31812 0
M  V30 1561 C 143.175 -0.39275 -1.91616 0
M  V30 1562 C 143.555 1.12461 -1.7865 0
M  V30 1563 O 142.903 1.95045 -1.19037 0
M  V30 1564 C 143.113 -0.867385 -3.38049 0
M  V30 1565 C 144.461 -0.889966 -4.15168 0
M  V30 1566 O 145.485 -0.812635 -3.46806 0
M  V30 1567 O 144.344 -1.00079 -5.37258 0
M  V30 1568 H 141.438 -0.116358 -0.818773 0
M  V30 1569 H 143.984 -0.951418 -1.40521 0
M  V30 1570 H 142.756 -1.91081 -3.41473 0
M  V30 1571 H 142.379 -0.286687 -3.96565 0
M  V30 1572 N 143.376 1.44774 -0.622745 0
M  V30 1573 C 144.286 2.34433 0.0886031 0
M  V30 1574 C 145.302 1.52131 0.844529 0
M  V30 1575 O 146.478 1.84886 0.798691 0
M  V30 1576 C 143.543 3.29986 1.0635 0
M  V30 1577 C 142.604 4.28195 0.307873 0
M  V30 1578 C 141.837 5.19183 1.23633 0
M  V30 1579 O 142.06 5.13918 2.47476 0
M  V30 1580 O 140.994 5.97515 0.725189 0
M  V30 1581 H 144.82 2.96693 -0.648599 0
M  V30 1582 H 142.405 1.44408 -0.382957 0
M  V30 1583 H 144.287 3.88825 1.6246 0
M  V30 1584 H 142.962 2.70269 1.78146 0
M  V30 1585 H 141.869 3.72927 -0.296064 0
M  V30 1586 H 143.202 4.90808 -0.3699 0
M  V30 1587 N 144.854 0.36279 1.53368 0
M  V30 1588 C 145.817 -0.472679 2.24273 0
M  V30 1589 C 146.817 -1.012 1.24961 0
M  V30 1590 O 148.007 -0.898194 1.49259 0
M  V30 1591 C 145.139 -1.66039 2.97731 0
M  V30 1592 H 146.332 0.14773 2.99536 0
M  V30 1593 H 143.885 0.114434 1.55881 0
M  V30 1594 H 144.62 -2.31896 2.26704 0
M  V30 1595 H 144.405 -1.28066 3.70596 0
M  V30 1596 H 145.895 -2.25252 3.51641 0
M  V30 1597 N 146.332 -1.57332 0.0918853 0
M  V30 1598 C 147.748 -1.57389 -0.264766 0
M  V30 1599 C 147.948 -1.10281 -1.68643 0
M  V30 1600 O 147.004 -0.777801 -2.40222 0
M  V30 1601 C 148.317 -3.00648 -0.0561195 0
M  V30 1602 C 149.865 -3.12754 -0.124116 0
M  V30 1603 C 150.34 -4.57965 0.0564972 0
M  V30 1604 N 151.831 -4.632 0.00155611 0
M  V30 1605 C 152.566 -5.73281 0.116598 0
M  V30 1606 N 152.062 -6.92208 0.286294 0
M  V30 1607 N 153.855 -5.6207 0.0580973 0
M  V30 1608 H 146.006 -1.86262 1.02079 0
M  V30 1609 H 148.269 -0.859579 0.399786 0
M  V30 1610 H 147.975 -3.393 0.925669 0
M  V30 1611 H 147.849 -3.68623 -0.799823 0
M  V30 1612 H 150.236 -2.73976 -1.09641 0
M  V30 1613 H 150.317 -2.47377 0.651024 0
M  V30 1614 H 149.961 -4.97436 1.02564 0
M  V30 1615 H 149.891 -5.21399 -0.738297 0
M  V30 1616 H 152.382 -3.77686 -0.127192 0
M  V30 1617 H 152.695 -7.71934 0.365676 0
M  V30 1618 H 151.04 -6.94254 0.32192 0
M  V30 1619 H 154.231 -4.68043 -0.0733204 0
M  V30 1620 H 154.404 -6.47824 0.151203 0
M  V30 1621 N 147.81 0.181792 -1.56548 0
M  V30 1622 C 148.742 1.24956 -1.92142 0
M  V30 1623 C 149.755 1.41022 -0.813422 0
M  V30 1624 O 150.944 1.41212 -1.09186 0
M  V30 1625 C 148.044 2.61981 -2.14987 0
M  V30 1626 C 147.217 2.6735 -3.46183 0
M  V30 1627 C 146.276 3.85664 -3.5798 0
M  V30 1628 O 145.302 3.72148 -4.30691 0
M  V30 1629 N 146.504 5.01683 -2.92053 0
M  V30 1630 H 149.269 0.947329 -2.84334 0
M  V30 1631 H 146.83 0.371629 -1.57577 0
M  V30 1632 H 148.822 3.3958 -2.20154 0
M  V30 1633 H 147.392 2.84637 -1.2923 0
M  V30 1634 H 146.612 1.75925 -3.52766 0
M  V30 1635 H 147.9 2.67939 -4.32534 0
M  V30 1636 H 147.298 5.15564 -2.32832 0
M  V30 1637 H 145.855 5.77181 -3.0283 0
M  V30 1638 N 149.288 1.51039 0.449983 0
M  V30 1639 C 150.198 1.74261 1.57067 0
M  V30 1640 C 151.214 0.626363 1.62335 0
M  V30 1641 O 152.39 0.907162 1.79812 0
M  V30 1642 C 149.455 1.85114 2.93144 0
M  V30 1643 C 148.516 3.0893 2.98095 0
M  V30 1644 C 147.749 3.19256 4.27681 0
M  V30 1645 O 147.972 2.35835 5.19363 0
M  V30 1646 O 146.906 4.12144 4.38658 0
M  V30 1647 H 150.732 2.69303 1.40391 0
M  V30 1648 H 148.317 1.35389 0.631688 0
M  V30 1649 H 150.199 1.94311 3.73926 0
M  V30 1650 H 148.874 0.932588 3.09975 0
M  V30 1651 H 147.781 3.0522 2.16314 0
M  V30 1652 H 149.114 4.00433 2.86206 0
M  V30 1653 N 150.766 -0.704594 1.40972 0
M  V30 1654 C 151.696 -1.83124 1.44872 0
M  V30 1655 C 152.677 -1.67281 0.30838 0
M  V30 1656 O 153.862 -1.87149 0.518556 0
M  V30 1657 C 150.992 -3.21181 1.32136 0
M  V30 1658 C 149.946 -3.51714 2.43888 0
M  V30 1659 C 149.272 -4.89032 2.16222 0
M  V30 1660 C 150.572 -3.516 3.86232 0
M  V30 1661 H 152.266 -1.80117 2.39161 0
M  V30 1662 H 149.812 -0.865145 1.15114 0
M  V30 1663 H 151.765 -3.99702 1.33479 0
M  V30 1664 H 150.489 -3.24791 0.343279 0
M  V30 1665 H 149.148 -2.75539 2.41813 0
M  V30 1666 H 148.796 -4.89256 1.16778 0
M  V30 1667 H 148.496 -5.10426 2.911 0
M  V30 1668 H 150.02 -5.69873 2.19265 0
M  V30 1669 H 151.434 -4.2014 3.9007 0
M  V30 1670 H 149.831 -3.84523 4.60719 0
M  V30 1671 H 150.901 -2.50757 4.15029 0
M  V30 1672 N 152.244 -1.26651 -0.937939 0
M  V30 1673 C 153.194 -1.05156 -2.02302 0
M  V30 1674 C 154.178 0.0171233 -1.60891 0
M  V30 1675 O 155.37 -0.200213 -1.75864 0
M  V30 1676 C 152.499 -0.689962 -3.36295 0
M  V30 1677 C 151.585 -1.79626 -3.84181 0
M  V30 1678 N 151.976 -3.03422 -4.04684 0
M  V30 1679 C 150.274 -1.6806 -4.13124 0
M  V30 1680 C 150.975 -3.75345 -4.444 0
M  V30 1681 N 149.951 -3.03051 -4.51288 0
M  V30 1682 H 153.753 -1.99117 -2.1617 0
M  V30 1683 H 151.267 -1.17216 -1.12402 0
M  V30 1684 H 153.264 -0.517112 -4.13681 0
M  V30 1685 H 151.924 0.242139 -3.23796 0
M  V30 1686 H 152.935 -3.39293 -3.91281 0
M  V30 1687 H 149.612 -0.818629 -4.09396 0
M  V30 1688 H 151.002 -4.81691 -4.68427 0
M  V30 1689 N 153.722 1.14298 -1.08507 0
M  V30 1690 C 155.138 1.37347 -0.812901 0
M  V30 1691 C 155.338 1.93052 0.577325 0
M  V30 1692 O 154.394 2.14389 1.33393 0
M  V30 1693 C 155.707 2.33359 -1.89642 0
M  V30 1694 C 157.255 2.46996 -1.92255 0
M  V30 1695 C 157.73 3.46309 -2.99724 0
M  V30 1696 N 159.221 3.53853 -2.98902 0
M  V30 1697 C 159.956 4.3055 -3.787 0
M  V30 1698 N 159.452 5.10482 -4.6838 0
M  V30 1699 N 161.245 4.25757 -3.66998 0
M  V30 1700 H 153.396 0.764867 -1.9815 0
M  V30 1701 H 155.659 0.398966 -0.859959 0
M  V30 1702 H 155.365 1.99565 -2.89597 0
M  V30 1703 H 155.239 3.33274 -1.76659 0
M  V30 1704 H 157.626 2.80081 -0.929445 0
M  V30 1705 H 157.707 1.47039 -2.09316 0
M  V30 1706 H 157.351 3.13957 -3.99241 0
M  V30 1707 H 157.281 4.46049 -2.79907 0
M  V30 1708 H 159.772 2.96812 -2.33904 0
M  V30 1709 H 160.085 5.66284 -5.25873 0
M  V30 1710 H 158.43 5.09747 -4.72422 0
M  V30 1711 H 161.621 3.62383 -2.96304 0
M  V30 1712 H 161.794 4.85279 -4.29427 0
M  V30 1713 N 155.201 0.870884 1.31352 0
M  V30 1714 C 156.45 0.478408 1.95944 0
M  V30 1715 C 156.763 -0.974493 1.69597 0
M  V30 1716 O 157.969 -1.47316 2.28058 0
M  V30 1717 C 156.425 0.804609 3.50791 0
M  V30 1718 C 156.033 2.27433 3.85977 0
M  V30 1719 C 157.777 0.480648 4.2177 0
M  V30 1720 C 155.684 2.5429 5.33939 0
M  V30 1721 H 154.614 0.175175 0.733369 0
M  V30 1722 H 157.265 1.06391 1.4951 0
M  V30 1723 H 155.647 0.148347 3.95722 0
M  V30 1724 H 156.821 2.97373 3.52002 0
M  V30 1725 H 155.136 2.56442 3.28065 0
M  V30 1726 H 157.733 0.658519 5.30629 0
M  V30 1727 H 158.076 -0.578979 4.12254 0
M  V30 1728 H 158.609 1.09349 3.82476 0
M  V30 1729 H 155.348 3.58939 5.48491 0
M  V30 1730 H 154.868 1.88945 5.69263 0
M  V30 1731 H 156.547 2.39066 6.01212 0
M  V30 1732 N 156.679 -1.44442 0.630414 0
M  V30 1733 C 157.928 -2.01267 0.132073 0
M  V30 1734 C 158.241 -1.50172 -1.25331 0
M  V30 1735 O 159.447 -1.9912 -1.84562 0
M  V30 1736 C 157.903 -3.59422 0.185362 0
M  V30 1737 C 157.511 -4.19514 1.57201 0
M  V30 1738 C 159.255 -4.23724 -0.256553 0
M  V30 1739 C 157.162 -5.69891 1.58045 0
M  V30 1740 H 156.092 -0.752619 0.0456092 0
M  V30 1741 H 158.743 -1.65666 0.789106 0
M  V30 1742 H 157.125 -3.92318 -0.538759 0
M  V30 1743 H 158.299 -3.98156 2.31966 0
M  V30 1744 H 156.614 -3.67496 1.95795 0
M  V30 1745 H 159.211 -5.34019 -0.269767 0
M  V30 1746 H 159.554 -3.96013 -1.28372 0
M  V30 1747 H 160.087 -3.95629 0.41505 0
M  V30 1748 H 156.826 -6.02336 2.58597 0
M  V30 1749 H 156.346 -5.93373 0.875725 0
M  V30 1750 H 158.025 -6.33515 1.31408 0
M  V30 1751 N 158.157 -0.370918 -1.53173 0
M  V30 1752 C 159.105 0.488101 -2.27421 0
M  V30 1753 C 160.099 1.07884 -1.30604 0
M  V30 1754 O 161.305 1.02143 -1.48212 0
M  V30 1755 H 157.68 0.176134 -0.731082 0
M  V30 1756 H 159.651 -0.159815 -2.97972 0
M  V30 1757 C 158.4 1.61306 -3.08019 0
M  V30 1758 H 157.723 1.1678 -3.82364 0
M  V30 1759 H 159.163 2.18872 -3.63141 0
M  V30 1760 C 157.622 2.55848 -2.19188 0
M  V30 1761 O 158.152 3.58799 -1.80626 0
M  V30 1762 N 156.358 2.2516 -1.83715 0
M  V30 1763 H 155.905 1.41476 -2.15273 0
M  V30 1764 H 155.863 2.8867 -1.24567 0
M  V30 1765 N 159.635 1.57281 -0.100228 0
M  V30 1766 C 160.912 1.86014 0.604812 0
M  V30 1767 C 161.292 0.998025 1.86018 0
M  V30 1768 O 160.64 0.0718184 2.28387 0
M  V30 1769 C 160.85 3.36784 0.915278 0
M  V30 1770 C 162.198 4.04957 1.27651 0
M  V30 1771 O 163.222 3.41695 1.00613 0
M  V30 1772 O 162.081 5.16593 1.7831 0
M  V30 1773 H 159.175 0.76942 0.303185 0
M  V30 1774 H 161.721 1.69176 -0.133313 0
M  V30 1775 H 160.493 3.91292 0.0248896 0
M  V30 1776 H 160.116 3.58987 1.70921 0
M  V30 1777 N 161.113 -0.173488 1.56642 0
M  V30 1778 C 162.529 -0.525174 1.50712 0
M  V30 1779 C 162.729 -1.8476 0.804107 0
M  V30 1780 O 161.785 -2.49869 0.363574 0
M  V30 1781 C 163.098 -0.559937 2.95441 0
M  V30 1782 C 164.646 -0.647288 3.06234 0
M  V30 1783 C 165.121 -0.712963 4.52417 0
M  V30 1784 N 166.612 -0.775911 4.56655 0
M  V30 1785 C 167.347 -0.847264 5.67106 0
M  V30 1786 N 166.843 -0.879585 6.87194 0
M  V30 1787 N 168.636 -0.886117 5.55071 0
M  V30 1788 H 160.787 0.693681 2.00753 0
M  V30 1789 H 163.05 0.249841 0.914485 0
M  V30 1790 H 162.756 0.343049 3.50023 0
M  V30 1791 H 162.63 -1.40718 3.49969 0
M  V30 1792 H 165.017 -1.5407 2.51687 0
M  V30 1793 H 165.098 0.226586 2.54794 0
M  V30 1794 H 164.742 0.176183 5.07594 0
M  V30 1795 H 164.672 -1.60295 5.0161 0
M  V30 1796 H 167.163 -0.759304 3.70193 0
M  V30 1797 H 167.476 -0.935144 7.67121 0
M  V30 1798 H 165.821 -0.847898 6.89808 0
M  V30 1799 H 169.012 -0.857853 4.60172 0
M  V30 1800 H 169.185 -0.938263 6.41171 0
M  V30 1801 N 162.591 -1.51276 -0.441967 0
M  V30 1802 C 163.501 -1.75092 -1.56141 0
M  V30 1803 C 164.517 -0.634963 -1.62001 0
M  V30 1804 O 165.693 -0.916686 -1.79329 0
M  V30 1805 C 162.758 -1.86666 -2.92158 0
M  V30 1806 C 161.819 -3.10506 -2.96453 0
M  V30 1807 C 161.052 -3.21519 -4.25982 0
M  V30 1808 O 161.275 -2.38586 -5.18105 0
M  V30 1809 O 160.209 -4.14465 -4.36466 0
M  V30 1810 H 164.035 -2.70044 -1.38961 0
M  V30 1811 H 161.62 -1.35722 -0.624499 0
M  V30 1812 H 163.502 -1.96292 -3.72891 0
M  V30 1813 H 162.177 -0.949014 -3.09476 0
M  V30 1814 H 161.084 -3.06363 -2.14692 0
M  V30 1815 H 162.417 -4.01945 -2.84079 0
M  V30 1816 N 164.069 0.697108 -1.41344 0
M  V30 1817 C 165.002 1.82134 -1.37486 0
M  V30 1818 C 165.98 1.60784 -0.242351 0
M  V30 1819 O 167.164 1.83553 -0.429012 0
M  V30 1820 C 164.291 3.18788 -1.14421 0
M  V30 1821 C 163.337 3.58932 -2.3037 0
M  V30 1822 S 164.17 3.63916 -3.92843 0
M  V30 1823 C 165.326 5.03298 -3.72078 0
M  V30 1824 H 165.559 1.85129 -2.32625 0
M  V30 1825 H 163.092 0.865671 -1.2785 0
M  V30 1826 H 165.05 3.97677 -1.018 0
M  V30 1827 H 163.711 3.13404 -0.20905 0
M  V30 1828 H 162.904 4.58202 -2.09922 0
M  V30 1829 H 162.506 2.87347 -2.39391 0
M  V30 1830 H 164.798 5.90753 -3.31688 0
M  V30 1831 H 165.741 5.28788 -4.70945 0
M  V30 1832 H 166.149 4.74764 -3.05384 0
M  V30 1833 N 165.547 1.27147 0.931209 0
M  V30 1834 C 166.963 1.04475 1.20653 0
M  V30 1835 C 167.163 -0.223885 2.00252 0
M  V30 1836 O 166.219 -0.930332 2.34736 0
M  V30 1837 C 167.532 2.28209 1.95809 0
M  V30 1838 C 169.08 2.33211 2.08762 0
M  V30 1839 C 169.555 3.56665 2.87323 0
M  V30 1840 N 171.046 3.57201 2.94892 0
M  V30 1841 C 171.781 4.49395 3.56134 0
M  V30 1842 N 171.277 5.51889 4.18796 0
M  V30 1843 N 173.07 4.37026 3.53504 0
M  V30 1844 H 165.221 2.08612 0.399333 0
M  V30 1845 H 167.484 0.917312 0.239253 0
M  V30 1846 H 167.19 3.20538 1.44736 0
M  V30 1847 H 167.064 2.33247 2.96438 0
M  V30 1848 H 169.451 1.41391 2.59023 0
M  V30 1849 H 169.532 2.32178 1.07364 0
M  V30 1850 H 169.176 4.4882 2.37746 0
M  V30 1851 H 169.106 3.54948 3.88998 0
M  V30 1852 H 171.597 2.83074 2.50354 0
M  V30 1853 H 171.91 6.18409 4.63454 0
M  V30 1854 H 170.255 5.55735 4.17353 0
M  V30 1855 H 173.446 3.56166 3.03749 0
M  V30 1856 H 173.619 5.09067 4.00942 0
M  V30 1857 N 167.025 -1.13721 1.09112 0
M  V30 1858 C 168.302 -1.81155 0.737706 0
M  V30 1859 C 168.682 -1.96253 -0.777683 0
M  V30 1860 O 168.03 -1.52807 -1.69889 0
M  V30 1861 C 168.24 -3.16392 1.47299 0
M  V30 1862 C 169.588 -3.91787 1.63671 0
M  V30 1863 O 170.612 -3.26005 1.43524 0
M  V30 1864 O 169.471 -5.0977 1.96969 0
M  V30 1865 H 166.565 -0.783518 0.26463 0
M  V30 1866 H 169.111 -1.20676 1.19312 0
M  V30 1867 H 167.883 -3.0061 2.50498 0
M  V30 1868 H 167.506 -3.8457 1.00953 0
M  V30 1869 N 168.503 -0.877838 -1.30888 0
M  V30 1870 C 169.466 -0.344265 -2.266 0
M  V30 1871 C 170.466 0.50922 -1.52524 0
M  V30 1872 O 171.656 0.317398 -1.71284 0
M  V30 1873 C 168.788 0.510198 -3.37061 0
M  V30 1874 H 169.981 -1.1893 -2.7531 0
M  V30 1875 H 167.534 -0.654088 -1.41956 0
M  V30 1876 H 168.269 1.37612 -2.93655 0
M  V30 1877 H 168.054 -0.101047 -3.9197 0
M  V30 1878 H 169.544 0.875537 -4.08319 0
M  V30 1879 N 169.982 1.44106 -0.638065 0
M  V30 1880 C 171.231 2.01194 -0.142744 0
M  V30 1881 C 171.544 1.50835 1.24532 0
M  V30 1882 O 172.75 2.00096 1.83504 0
M  V30 1883 C 171.206 3.59319 -0.20442 0
M  V30 1884 C 170.814 4.18674 -1.59423 0
M  V30 1885 C 172.558 4.23854 0.234079 0
M  V30 1886 C 170.465 5.69045 -1.61065 0
M  V30 1887 H 169.395 0.752367 -0.0495998 0
M  V30 1888 H 172.046 1.65246 -0.797881 0
M  V30 1889 H 170.428 3.92598 0.517946 0
M  V30 1890 H 171.602 3.96921 -2.34074 0
M  V30 1891 H 169.917 3.66453 -1.97741 0
M  V30 1892 H 172.514 5.34155 0.241443 0
M  V30 1893 H 172.857 3.96688 1.2627 0
M  V30 1894 H 173.39 3.95403 -0.436025 0
M  V30 1895 H 170.129 6.00956 -2.61787 0
M  V30 1896 H 169.649 5.929 -0.90718 0
M  V30 1897 H 171.328 6.32809 -1.34766 0
M  V30 1898 N 171.46 0.379036 1.52974 0
M  V30 1899 C 172.709 -0.207612 2.00629 0
M  V30 1900 C 173.022 -1.48758 1.27006 0
M  V30 1901 O 174.228 -2.15365 1.65318 0
M  V30 1902 C 172.684 -0.42053 3.57435 0
M  V30 1903 C 172.292 0.845587 4.39948 0
M  V30 1904 C 174.036 -0.964102 4.13407 0
M  V30 1905 C 171.943 0.601513 5.88333 0
M  V30 1906 H 170.873 -0.0813591 0.749598 0
M  V30 1907 H 173.524 0.499853 1.76561 0
M  V30 1908 H 171.906 -1.18959 3.7771 0
M  V30 1909 H 173.08 1.61848 4.31442 0
M  V30 1910 H 171.395 1.31336 3.95145 0
M  V30 1911 H 173.992 -1.16225 5.21916 0
M  V30 1912 H 174.335 -1.93019 3.68849 0
M  V30 1913 H 174.868 -0.25487 3.96983 0
M  V30 1914 H 171.607 1.53831 6.37194 0
M  V30 1915 H 171.127 -0.132628 5.99653 0
M  V30 1916 H 172.806 0.232134 6.46583 0
M  V30 1917 N 172.938 -1.57226 0.108567 0
M  V30 1918 C 173.868 -2.17778 -0.84232 0
M  V30 1919 C 174.849 -1.11487 -1.2847 0
M  V30 1920 O 176.034 -1.39681 -1.34918 0
M  V30 1921 C 173.164 -2.76888 -2.09644 0
M  V30 1922 C 172.118 -3.88669 -1.79221 0
M  V30 1923 C 171.444 -4.34541 -3.11574 0
M  V30 1924 C 172.744 -5.11251 -1.06864 0
M  V30 1925 H 174.438 -2.97489 -0.337774 0
M  V30 1926 H 171.984 -1.43097 -0.161025 0
M  V30 1927 H 173.937 -3.17904 -2.76614 0
M  V30 1928 H 172.661 -1.94451 -2.62405 0
M  V30 1929 H 171.32 -3.48213 -1.14644 0
M  V30 1930 H 170.968 -3.48977 -3.62249 0
M  V30 1931 H 170.668 -5.09914 -2.91996 0
M  V30 1932 H 172.192 -4.782 -3.7968 0
M  V30 1933 H 173.606 -5.49352 -1.63968 0
M  V30 1934 H 172.003 -5.9214 -0.974178 0
M  V30 1935 H 173.073 -4.8487 -0.0536168 0
M  V30 1936 N 174.416 0.165178 -1.56732 0
M  V30 1937 C 175.665 0.879143 -1.81532 0
M  V30 1938 C 175.978 1.83144 -0.686842 0
M  V30 1939 O 177.184 2.58823 -0.819944 0
M  V30 1940 C 175.64 1.61388 -3.21686 0
M  V30 1941 C 175.248 0.704904 -4.4242 0
M  V30 1942 C 176.992 2.3157 -3.55774 0
M  V30 1943 C 174.899 1.44022 -5.73595 0
M  V30 1944 H 173.829 0.332033 -0.676957 0
M  V30 1945 H 176.48 0.132008 -1.83025 0
M  V30 1946 H 174.862 2.40599 -3.14529 0
M  V30 1947 H 176.036 -0.0506815 -4.60772 0
M  V30 1948 H 174.351 0.112419 -4.16248 0
M  V30 1949 H 176.948 2.8719 -4.51028 0
M  V30 1950 H 177.291 3.07201 -2.8095 0
M  V30 1951 H 177.824 1.59297 -3.64513 0
M  V30 1952 H 174.563 0.72612 -6.51466 0
M  V30 1953 H 174.083 2.16898 -5.5921 0
M  V30 1954 H 175.762 1.98606 -6.15764 0
M  V30 1955 N 175.894 1.51508 0.433938 0
M  V30 1956 C 177.141 1.64345 1.18309 0
M  V30 1957 C 177.469 0.361315 1.91115 0
M  V30 1958 O 176.724 -0.654753 1.84422 0
M  V30 1959 C 177.023 2.79928 2.22205 0
M  V30 1960 C 176.689 4.19078 1.66387 0
M  V30 1961 C 175.351 4.56932 1.50887 0
M  V30 1962 C 177.703 5.05894 1.25381 0
M  V30 1963 C 175.031 5.79305 0.928608 0
M  V30 1964 C 177.383 6.2885 0.687823 0
M  V30 1965 C 176.047 6.65473 0.519755 0
M  V30 1966 H 175.317 0.601381 0.432923 0
M  V30 1967 H 177.964 1.85549 0.473676 0
M  V30 1968 H 176.269 2.52959 2.99197 0
M  V30 1969 H 177.966 2.87059 2.79997 0
M  V30 1970 H 174.556 3.89234 1.79428 0
M  V30 1971 H 178.74 4.77253 1.36175 0
M  V30 1972 H 173.996 6.06324 0.786186 0
M  V30 1973 H 178.17 6.95461 0.361581 0
M  V30 1974 H 175.797 7.6017 0.0679979 0
M  V30 1975 N 177.372 -0.689602 1.41712 0
M  V30 1976 C 178.335 -1.78521 1.43746 0
M  V30 1977 C 179.335 -1.57436 0.327191 0
M  V30 1978 O 180.525 -1.64 0.587348 0
M  V30 1979 C 177.657 -3.16971 1.25467 0
M  V30 1980 H 178.85 -1.78108 2.41283 0
M  V30 1981 H 176.403 -0.89781 1.27942 0
M  V30 1982 H 177.138 -3.23019 0.287948 0
M  V30 1983 H 176.923 -3.33678 2.05917 0
M  V30 1984 H 178.413 -3.96935 1.2974 0
M  V30 1985 N 178.85 -1.27639 -0.924453 0
M  V30 1986 C 179.798 -1.10485 -2.04685 0
M  V30 1987 C 180.792 -0.0270421 -1.69378 0
M  V30 1988 O 181.998 -0.185008 -1.79047 0
M  V30 1989 H 178.373 -0.340546 -0.670472 0
M  V30 1990 H 180.344 -2.05566 -2.16298 0
M  V30 1991 C 179.093 -0.772229 -3.39016 0
M  V30 1992 H 178.416 -1.59351 -3.66671 0
M  V30 1993 H 179.856 -0.692097 -4.18313 0
M  V30 1994 C 178.315 0.523554 -3.32807 0
M  V30 1995 O 178.845 1.55702 -3.70297 0
M  V30 1996 N 177.051 0.520363 -2.85903 0
M  V30 1997 H 176.598 -0.32107 -2.55591 0
M  V30 1998 H 176.556 1.38742 -2.82131 0
M  V30 1999 N 180.328 1.1314 -1.09713 0
M  V30 2000 C 181.275 2.18642 -0.739196 0
M  V30 2001 C 182.245 1.63706 0.280978 0
M  V30 2002 O 183.43 1.90111 0.161946 0
M  V30 2003 C 180.57 3.44685 -0.169102 0
M  V30 2004 C 179.683 4.13711 -1.24367 0
M  V30 2005 C 178.818 5.27379 -0.636019 0
M  V30 2006 C 177.857 5.88259 -1.69169 0
M  V30 2007 N 176.994 6.93352 -1.10485 0
M  V30 2008 H 181.834 2.48607 -1.64312 0
M  V30 2009 H 179.371 1.22066 -0.820875 0
M  V30 2010 H 181.329 4.16815 0.179256 0
M  V30 2011 H 179.959 3.15161 0.698079 0
M  V30 2012 H 179.011 3.39835 -1.70927 0
M  V30 2013 H 180.323 4.55037 -2.04311 0
M  V30 2014 H 179.477 6.06238 -0.236677 0
M  V30 2015 H 178.216 4.8731 0.194928 0
M  V30 2016 H 177.221 5.08092 -2.10055 0
M  V30 2017 H 178.446 6.30399 -2.52536 0
M  V30 2018 H 176.392 6.55335 -0.295234 0
M  V30 2019 H 176.309 7.33236 -1.84121 0
M  V30 2020 H 177.577 7.76057 -0.73181 0
M  V30 2021 N 181.806 0.884767 1.30421 0
M  V30 2022 C 182.738 0.308655 2.27112 0
M  V30 2023 C 183.751 -0.536655 1.53701 0
M  V30 2024 O 184.94 -0.35624 1.74909 0
M  V30 2025 C 182.04 -0.579782 3.33904 0
M  V30 2026 C 181.213 0.236417 4.36761 0
M  V30 2027 C 180.272 -0.582482 5.22966 0
M  V30 2028 O 179.298 -0.00525502 5.692 0
M  V30 2029 N 180.5 -1.89163 5.48815 0
M  V30 2030 H 183.265 1.13964 2.77186 0
M  V30 2031 H 180.826 0.747731 1.43599 0
M  V30 2032 H 182.818 -1.13366 3.88497 0
M  V30 2033 H 181.388 -1.31144 2.83761 0
M  V30 2034 H 180.608 0.97174 3.82035 0
M  V30 2035 H 181.896 0.795924 5.02536 0
M  V30 2036 H 181.294 -2.38352 5.13035 0
M  V30 2037 H 179.851 -2.39296 6.06284 0
M  V30 2038 N 183.284 -1.43765 0.645699 0
M  V30 2039 C 184.561 -1.9541 0.0862963 0
M  V30 2040 C 184.941 -1.58725 -1.39175 0
M  V30 2041 O 184.289 -0.868581 -2.11348 0
M  V30 2042 C 184.499 -3.47488 0.324565 0
M  V30 2043 C 185.847 -4.24001 0.225497 0
M  V30 2044 O 186.871 -3.55274 0.256715 0
M  V30 2045 O 185.73 -5.46313 0.142801 0
M  V30 2046 H 182.824 -0.826882 -0.0139483 0
M  V30 2047 H 185.37 -1.53743 0.718415 0
M  V30 2048 H 184.142 -3.67289 1.3496 0
M  V30 2049 H 183.765 -3.96135 -0.340987 0
M  V30 2050 N 184.763 -0.387143 -1.52771 0
M  V30 2051 C 185.693 0.440551 -2.29306 0
M  V30 2052 C 186.674 1.06535 -1.32606 0
M  V30 2053 O 187.859 1.07853 -1.61497 0
M  V30 2054 C 184.989 1.56919 -3.09829 0
M  V30 2055 C 183.943 1.07054 -4.14395 0
M  V30 2056 C 183.269 2.29109 -4.83129 0
M  V30 2057 C 184.569 0.140015 -5.22112 0
M  V30 2058 H 186.263 -0.198026 -2.98744 0
M  V30 2059 H 183.809 -0.09668 -1.43675 0
M  V30 2060 H 185.762 2.15503 -3.62128 0
M  V30 2061 H 184.486 2.23532 -2.3812 0
M  V30 2062 H 183.145 0.507247 -3.63074 0
M  V30 2063 H 182.793 2.94227 -4.0797 0
M  V30 2064 H 182.493 1.96406 -5.53804 0
M  V30 2065 H 184.017 2.88339 -5.38231 0
M  V30 2066 H 185.431 0.633978 -5.69784 0
M  V30 2067 H 183.828 -0.0971485 -6.00021 0
M  V30 2068 H 184.898 -0.811711 -4.78058 0
M  V30 2069 N 186.241 1.57166 -0.116904 0
M  V30 2070 C 187.652 1.82169 0.408809 0
M  V30 2071 C 188.003 1.03393 1.66746 0
M  V30 2072 O 187.128 0.269886 2.1471 0
M  V30 2073 C 187.723 3.30429 0.748466 0
M  V30 2074 C 186.282 3.5612 1.21882 0
M  V30 2075 C 185.429 2.76374 0.226452 0
M  V30 2076 H 188.38 1.5497 -0.342063 0
M  V30 2077 H 188.401 3.44943 1.60607 0
M  V30 2078 H 187.913 3.87737 -0.167784 0
M  V30 2079 H 186.014 3.04168 2.15204 0
M  V30 2080 H 186.127 4.64705 1.16559 0
M  V30 2081 H 184.491 2.44515 0.713063 0
M  V30 2082 H 185.274 3.3644 -0.682859 0
M  V30 2083 N 187.719 -0.156864 1.56817 0
M  V30 2084 C 188.996 -0.899244 1.73704 0
M  V30 2085 C 189.376 -1.99771 0.682254 0
M  V30 2086 O 188.724 -2.26515 -0.300522 0
M  V30 2087 C 188.934 -1.45075 3.17418 0
M  V30 2088 C 190.282 -1.91802 3.7881 0
M  V30 2089 O 191.306 -1.54838 3.20786 0
M  V30 2090 O 190.165 -2.5994 4.80722 0
M  V30 2091 H 187.259 -0.424267 0.709878 0
M  V30 2092 H 189.805 -0.143561 1.69092 0
M  V30 2093 H 188.577 -0.660846 3.85679 0
M  V30 2094 H 188.2 -2.27021 3.26416 0
M  V30 2095 N 189.197 -1.51736 -0.425897 0
M  V30 2096 C 190.16 -1.73271 -1.50032 0
M  V30 2097 C 191.16 -0.602639 -1.4908 0
M  V30 2098 O 192.35 -0.87033 -1.509 0
M  V30 2099 C 189.482 -1.79969 -2.89523 0
M  V30 2100 H 190.675 -2.69172 -1.32237 0
M  V30 2101 H 188.228 -1.41899 -0.65532 0
M  V30 2102 H 188.963 -0.859241 -3.1271 0
M  V30 2103 H 188.748 -2.62109 -2.91619 0
M  V30 2104 H 190.238 -1.9843 -3.67444 0
M  V30 2105 N 190.675 0.682077 -1.42076 0
M  V30 2106 C 191.608 1.80666 -1.3941 0
M  V30 2107 C 192.586 1.60518 -0.25939 0
M  V30 2108 O 193.77 1.83088 -0.448456 0
M  V30 2109 C 190.897 3.17556 -1.17796 0
M  V30 2110 C 189.943 3.56468 -2.34164 0
M  V30 2111 S 190.776 3.59729 -3.96681 0
M  V30 2112 C 191.932 4.99323 -3.77395 0
M  V30 2113 H 192.165 1.82652 -2.34575 0
M  V30 2114 H 189.698 0.852062 -1.2876 0
M  V30 2115 H 191.656 3.96575 -1.06012 0
M  V30 2116 H 190.317 3.13164 -0.242279 0
M  V30 2117 H 189.51 4.5595 -2.1477 0
M  V30 2118 H 189.112 2.84792 -2.42425 0
M  V30 2119 H 191.404 5.87202 -3.37935 0
M  V30 2120 H 192.347 5.23763 -4.76527 0
M  V30 2121 H 192.755 4.71498 -3.10403 0
M  V30 2122 N 192.153 1.28127 0.917671 0
M  V30 2123 C 193.1 1.11717 2.0196 0
M  V30 2124 C 194.07 0.0153929 1.66093 0
M  V30 2125 O 195.255 0.179596 1.89953 0
M  V30 2126 C 192.395 0.780927 3.36148 0
M  V30 2127 C 191.508 1.96135 3.84909 0
M  V30 2128 C 190.643 1.56609 5.0759 0
M  V30 2129 C 189.682 2.71339 5.48673 0
M  V30 2130 N 188.819 2.32332 6.62545 0
M  V30 2131 H 193.659 2.06003 2.15329 0
M  V30 2132 H 191.196 1.02535 1.05475 0
M  V30 2133 H 193.154 0.56675 4.13333 0
M  V30 2134 H 191.784 -0.124998 3.22558 0
M  V30 2135 H 190.836 2.28777 3.03916 0
M  V30 2136 H 192.148 2.82165 4.1132 0
M  V30 2137 H 191.302 1.31374 5.92305 0
M  V30 2138 H 190.041 0.677014 4.82978 0
M  V30 2139 H 189.046 2.97276 4.62501 0
M  V30 2140 H 190.271 3.60882 5.75274 0
M  V30 2141 H 188.217 1.45889 6.39572 0
M  V30 2142 H 188.134 3.11899 6.88662 0
M  V30 2143 H 189.402 2.10371 7.50576 0
M  V30 2144 N 193.631 -1.12557 1.10312 0
M  V30 2145 C 195.042 -1.65574 0.862678 0
M  V30 2146 C 195.393 -1.86566 -0.607256 0
M  V30 2147 O 194.518 -1.59121 -1.46662 0
M  V30 2148 C 195.113 -3.00776 1.55947 0
M  V30 2149 C 193.672 -3.50748 1.36576 0
M  V30 2150 C 192.819 -2.25797 1.60968 0
M  V30 2151 H 195.77 -0.963552 1.26101 0
M  V30 2152 H 195.791 -3.67185 0.997753 0
M  V30 2153 H 195.303 -2.85465 2.62928 0
M  V30 2154 H 193.404 -3.71245 0.317531 0
M  V30 2155 H 193.517 -4.30289 2.10686 0
M  V30 2156 H 191.881 -2.32841 1.03234 0
M  V30 2157 H 192.664 -2.13043 2.69198 0
M  V30 2158 N 195.109 -0.891671 -1.2995 0
M  V30 2159 C 196.059 -0.334811 -2.25528 0
M  V30 2160 C 197.043 0.540553 -1.51548 0
M  V30 2161 O 198.235 0.383882 -1.72787 0
M  V30 2162 C 195.364 0.44374 -3.4042 0
M  V30 2163 C 194.45 -0.44609 -4.21747 0
M  V30 2164 N 194.841 -1.54963 -4.81477 0
M  V30 2165 C 193.139 -0.242415 -4.45341 0
M  V30 2166 C 193.84 -2.10015 -5.42465 0
M  V30 2167 N 192.816 -1.39423 -5.25416 0
M  V30 2168 H 196.618 -1.17792 -2.69262 0
M  V30 2169 H 194.132 -0.741822 -1.44467 0
M  V30 2170 H 196.129 0.859362 -4.07947 0
M  V30 2171 H 194.789 1.28421 -2.98225 0
M  V30 2172 H 195.8 -1.93244 -4.80497 0
M  V30 2173 H 192.477 0.560342 -4.13723 0
M  V30 2174 H 193.867 -3.02724 -5.9984 0
M  V30 2175 N 196.587 1.43421 -0.653314 0
M  V30 2176 C 197.497 2.34568 0.0388565 0
M  V30 2177 C 198.513 1.53888 0.81207 0
M  V30 2178 O 199.689 1.86539 0.759294 0
M  V30 2179 C 196.754 3.32167 0.993269 0
M  V30 2180 C 195.815 4.28751 0.216977 0
M  V30 2181 C 195.048 5.21688 1.12593 0
M  V30 2182 O 195.271 5.19052 2.36519 0
M  V30 2183 O 194.205 5.98919 0.598284 0
M  V30 2184 H 198.031 2.95251 -0.711386 0
M  V30 2185 H 195.616 1.43564 -0.413502 0
M  V30 2186 H 197.498 3.92183 1.54176 0
M  V30 2187 H 196.173 2.73987 1.72374 0
M  V30 2188 H 195.08 3.72215 -0.375101 0
M  V30 2189 H 196.413 4.89913 -0.473924 0
M  V30 2190 N 198.065 0.39524 1.52563 0
M  V30 2191 C 199.314 -0.186321 2.00838 0
M  V30 2192 C 199.627 -1.47402 1.28577 0
M  V30 2193 O 200.833 -2.13599 1.67593 0
M  V30 2194 C 199.289 -0.382595 3.57861 0
M  V30 2195 C 198.897 0.892202 4.39026 0
M  V30 2196 C 200.641 -0.9202 4.14406 0
M  V30 2197 C 198.548 0.66388 5.87662 0
M  V30 2198 H 197.478 -0.0734041 0.750418 0
M  V30 2199 H 200.129 0.518552 1.76021 0
M  V30 2200 H 198.511 -1.14946 3.7895 0
M  V30 2201 H 199.685 1.66414 4.29701 0
M  V30 2202 H 198 1.35519 3.9373 0
M  V30 2203 H 200.597 -1.10683 5.23119 0
M  V30 2204 H 200.94 -1.89096 3.70875 0
M  V30 2205 H 201.473 -0.212751 3.97231 0
M  V30 2206 H 198.212 1.6058 6.35527 0
M  V30 2207 H 197.732 -0.0690193 5.9976 0
M  V30 2208 H 199.411 0.300699 6.46301 0
M  V30 2209 N 199.544 -1.57102 0.125237 0
M  V30 2210 C 200.476 -2.12726 -0.853237 0
M  V30 2211 C 201.489 -1.07145 -1.22571 0
M  V30 2212 O 202.678 -1.34497 -1.17358 0
M  V30 2213 C 199.778 -2.61709 -2.15317 0
M  V30 2214 C 198.951 -3.91456 -1.95143 0
M  V30 2215 C 198.01 -4.25973 -3.08923 0
M  V30 2216 O 197.036 -4.94682 -2.81564 0
M  V30 2217 N 198.238 -3.83795 -4.35524 0
M  V30 2218 H 201.003 -2.97307 -0.377964 0
M  V30 2219 H 198.564 -1.61792 -0.0590011 0
M  V30 2220 H 200.556 -2.81826 -2.90441 0
M  V30 2221 H 199.126 -1.81974 -2.54174 0
M  V30 2222 H 198.346 -3.80185 -1.04177 0
M  V30 2223 H 199.634 -4.76283 -1.78976 0
M  V30 2224 H 199.032 -3.2839 -4.60626 0
M  V30 2225 H 197.589 -4.09008 -5.07499 0
M  V30 2226 N 201.022 0.148545 -1.56898 0
M  V30 2227 C 201.932 1.20293 -2.01412 0
M  V30 2228 C 202.948 1.47107 -0.929273 0
M  V30 2229 O 204.124 1.58807 -1.23863 0
M  V30 2230 C 201.189 2.51682 -2.38447 0
M  V30 2231 C 200.25 2.32529 -3.60872 0
M  V30 2232 C 199.483 3.57653 -3.96132 0
M  V30 2233 O 199.706 4.63771 -3.32073 0
M  V30 2234 O 198.64 3.50408 -4.89385 0
M  V30 2235 H 202.466 0.855025 -2.91416 0
M  V30 2236 H 200.051 0.357151 -1.45068 0
M  V30 2237 H 201.933 3.29147 -2.63135 0
M  V30 2238 H 200.608 2.86006 -1.51599 0
M  V30 2239 H 199.515 1.53019 -3.41373 0
M  V30 2240 H 200.848 2.03121 -4.48333 0
M  V30 2241 N 202.5 1.5196 0.417844 0
M  V30 2242 C 203.447 1.74678 1.50852 0
M  V30 2243 C 204.417 0.588947 1.55308 0
M  V30 2244 O 205.602 0.825544 1.72016 0
M  V30 2245 C 202.742 1.89544 2.88387 0
M  V30 2246 C 201.855 3.17166 2.93309 0
M  V30 2247 C 200.99 3.22513 4.22088 0
M  V30 2248 C 200.029 4.44372 4.20951 0
M  V30 2249 N 199.166 4.47161 5.41287 0
M  V30 2250 H 204.006 2.67768 1.30783 0
M  V30 2251 H 201.543 1.32689 0.63498 0
M  V30 2252 H 203.501 1.96146 3.68216 0
M  V30 2253 H 202.131 0.998424 3.06971 0
M  V30 2254 H 201.183 3.19778 2.06024 0
M  V30 2255 H 202.495 4.07021 2.88332 0
M  V30 2256 H 201.649 3.28139 5.10303 0
M  V30 2257 H 200.388 2.30581 4.29748 0
M  V30 2258 H 199.393 4.38902 3.31127 0
M  V30 2259 H 200.618 5.3759 4.14938 0
M  V30 2260 H 198.564 3.58108 5.49632 0
M  V30 2261 H 198.481 5.3085 5.3827 0
M  V30 2262 H 199.749 4.57005 6.3148 0
M  V30 2263 N 203.978 -0.674533 1.42435 0
M  V30 2264 C 204.908 -1.80009 1.48724 0
M  V30 2265 C 205.889 -1.6659 0.343793 0
M  V30 2266 O 207.074 -1.86007 0.558137 0
M  V30 2267 C 204.204 -3.18306 1.38919 0
M  V30 2268 C 203.158 -3.46461 2.51294 0
M  V30 2269 C 202.484 -4.84335 2.26547 0
M  V30 2270 C 203.784 -3.43328 3.93603 0
M  V30 2271 H 205.478 -1.75004 2.42928 0
M  V30 2272 H 203.024 -0.840533 1.16923 0
M  V30 2273 H 204.977 -3.9678 1.41927 0
M  V30 2274 H 203.701 -3.2399 0.412094 0
M  V30 2275 H 202.36 -2.70348 2.47604 0
M  V30 2276 H 202.008 -4.86669 1.2713 0
M  V30 2277 H 201.708 -5.04136 3.01861 0
M  V30 2278 H 203.232 -5.65094 2.31304 0
M  V30 2279 H 204.646 -4.11772 3.98894 0
M  V30 2280 H 203.043 -3.74664 4.68771 0
M  V30 2281 H 204.113 -2.41897 4.20255 0
M  V30 2282 N 205.456 -1.28612 -0.910864 0
M  V30 2283 C 206.704 -1.15705 -1.65701 0
M  V30 2284 C 207.025 0.29416 -1.92769 0
M  V30 2285 O 206.295 1.20331 -1.54588 0
M  V30 2286 H 204.875 -0.425216 -0.614167 0
M  V30 2287 H 207.537 -1.61381 -1.0928 0
M  V30 2288 H 206.633 -1.6988 -2.61815 0
M  V30 2289 N 206.934 1.1197 -1.10907 0
M  V30 2290 C 207.864 2.19928 -0.784473 0
M  V30 2291 C 208.845 1.6833 0.244726 0
M  V30 2292 O 210.03 1.93892 0.109418 0
M  V30 2293 C 207.16 3.46597 -0.220827 0
M  V30 2294 C 206.114 4.11376 -1.18127 0
M  V30 2295 C 205.44 5.32554 -0.478594 0
M  V30 2296 C 206.74 4.56945 -2.52979 0
M  V30 2297 H 208.434 2.47337 -1.68715 0
M  V30 2298 H 205.98 1.18879 -0.812642 0
M  V30 2299 H 207.933 4.21396 0.0184278 0
M  V30 2300 H 206.657 3.1863 0.717113 0
M  V30 2301 H 205.316 3.38564 -1.40606 0
M  V30 2302 H 204.964 5.00856 0.463976 0
M  V30 2303 H 204.664 5.76844 -1.11912 0
M  V30 2304 H 206.188 6.10096 -0.248 0
M  V30 2305 H 207.602 5.23093 -2.3462 0
M  V30 2306 H 205.999 5.1203 -3.12962 0
M  V30 2307 H 207.069 3.70676 -3.12614 0
M  V30 2308 N 208.412 0.89855 1.29475 0
M  V30 2309 C 209.64 0.539261 1.99749 0
M  V30 2310 C 210.055 -0.875716 1.67262 0
M  V30 2311 O 209.412 -1.57786 0.917049 0
M  V30 2312 C 209.463 0.72061 3.54245 0
M  V30 2313 O 209.184 2.07989 3.8558 0
M  V30 2314 C 210.685 0.366118 4.41786 0
M  V30 2315 H 207.905 0.207047 0.638258 0
M  V30 2316 H 210.449 1.20758 1.65039 0
M  V30 2317 H 208.604 0.0994862 3.87272 0
M  V30 2318 H 209.018 2.10841 4.80257 0
M  V30 2319 H 210.492 0.543848 5.49314 0
M  V30 2320 H 210.969 -0.696763 4.33638 0
M  V30 2321 H 211.575 0.964135 4.14228 0
M  V30 2322 N 209.89 -1.43072 0.660911 0
M  V30 2323 C 211.306 -1.56169 0.329173 0
M  V30 2324 C 211.506 -1.64317 -1.16629 0
M  V30 2325 O 210.562 -1.60245 -1.95135 0
M  V30 2326 C 211.875 -2.81873 1.04729 0
M  V30 2327 C 213.423 -2.95627 1.02828 0
M  V30 2328 C 213.898 -4.24174 1.72744 0
M  V30 2329 N 215.389 -4.31055 1.69545 0
M  V30 2330 C 216.124 -5.29304 2.20511 0
M  V30 2331 N 215.62 -6.33786 2.79799 0
M  V30 2332 N 217.413 -5.21008 2.10966 0
M  V30 2333 H 209.564 -1.36027 1.63127 0
M  V30 2334 H 211.827 -0.653823 0.686454 0
M  V30 2335 H 211.533 -2.81942 2.10242 0
M  V30 2336 H 211.407 -3.72338 0.603702 0
M  V30 2337 H 213.794 -2.95094 -0.0184742 0
M  V30 2338 H 213.875 -2.06431 1.51063 0
M  V30 2339 H 213.519 -4.25467 2.7738 0
M  V30 2340 H 213.449 -5.1228 1.2197 0
M  V30 2341 H 215.94 -3.56174 1.26288 0
M  V30 2342 H 216.253 -7.05086 3.16344 0
M  V30 2343 H 214.598 -6.34387 2.83863 0
M  V30 2344 H 217.789 -4.38301 1.64347 0
M  V30 2345 H 217.962 -5.97416 2.50993 0
M  V30 2346 N 211.368 -0.403325 -1.52352 0
M  V30 2347 C 212.617 0.175668 -2.00934 0
M  V30 2348 C 212.93 1.46718 -1.29356 0
M  V30 2349 O 214.136 2.12708 -1.68724 0
M  V30 2350 C 212.592 0.363612 -3.58058 0
M  V30 2351 C 212.2 -0.915472 -4.38547 0
M  V30 2352 C 213.944 0.89821 -4.14888 0
M  V30 2353 C 211.851 -0.695035 -5.87302 0
M  V30 2354 H 210.781 0.0694234 -0.750797 0
M  V30 2355 H 213.432 -0.527879 -1.75743 0
M  V30 2356 H 211.814 1.12935 -3.79555 0
M  V30 2357 H 212.988 -1.68691 -4.28812 0
M  V30 2358 H 211.303 -1.37606 -3.93006 0
M  V30 2359 H 213.9 1.07907 -5.23699 0
M  V30 2360 H 214.243 1.87126 -3.71873 0
M  V30 2361 H 214.776 0.191681 -3.97338 0
M  V30 2362 H 211.515 -1.63948 -6.34666 0
M  V30 2363 H 211.035 0.0372116 -5.99788 0
M  V30 2364 H 212.714 -0.33497 -6.46132 0
M  V30 2365 N 212.846 1.57033 -0.133567 0
M  V30 2366 C 214.262 1.58035 0.222944 0
M  V30 2367 C 214.462 1.14713 1.6566 0
M  V30 2368 O 213.518 0.841218 2.38075 0
M  V30 2369 C 214.831 3.00691 -0.0236116 0
M  V30 2370 C 216.379 3.12973 0.0411512 0
M  V30 2371 C 216.854 4.57654 -0.177899 0
M  V30 2372 N 218.345 4.63033 -0.124365 0
M  V30 2373 C 219.08 5.72771 -0.268553 0
M  V30 2374 N 218.576 6.91206 -0.46972 0
M  V30 2375 N 220.369 5.61718 -0.2071 0
M  V30 2376 H 212.52 1.8349 -1.06981 0
M  V30 2377 H 214.783 0.848677 -0.422436 0
M  V30 2378 H 214.489 3.36726 -1.0153 0
M  V30 2379 H 214.363 3.70614 0.701808 0
M  V30 2380 H 216.75 2.76787 1.02338 0
M  V30 2381 H 216.831 2.45564 -0.716383 0
M  V30 2382 H 216.475 4.94542 -1.15717 0
M  V30 2383 H 216.405 5.23173 0.599797 0
M  V30 2384 H 218.896 3.7789 0.027011 0
M  V30 2385 H 219.209 7.70693 -0.570212 0
M  V30 2386 H 217.554 6.93156 -0.505876 0
M  V30 2387 H 220.745 4.68072 -0.0507986 0
M  V30 2388 H 220.918 6.47195 -0.322909 0
M  V30 2389 N 214.325 -0.140222 1.56975 0
M  V30 2390 C 215.602 -0.880769 1.74648 0
M  V30 2391 C 215.982 -1.99036 0.703404 0
M  V30 2392 O 215.33 -2.26821 -0.27648 0
M  V30 2393 C 215.54 -1.417 3.18939 0
M  V30 2394 C 216.888 -1.87774 3.80823 0
M  V30 2395 O 217.912 -1.51427 3.2241 0
M  V30 2396 O 216.771 -2.54827 4.83452 0
M  V30 2397 H 213.865 -0.416713 0.714338 0
M  V30 2398 H 216.411 -0.125618 1.69234 0
M  V30 2399 H 215.183 -0.619902 3.86359 0
M  V30 2400 H 214.806 -2.23546 3.28805 0
M  V30 2401 N 215.803 -1.52179 -0.40978 0
M  V30 2402 C 217.219 -1.40968 -0.74835 0
M  V30 2403 C 217.419 -0.513657 -1.94843 0
M  V30 2404 O 216.475 0.0208026 -2.52491 0
M  V30 2405 C 217.788 -2.83483 -1.0029 0
M  V30 2406 C 219.336 -2.92821 -1.10565 0
M  V30 2407 C 219.811 -4.36303 -1.39296 0
M  V30 2408 N 221.302 -4.39535 -1.46162 0
M  V30 2409 C 222.037 -5.47614 -1.70018 0
M  V30 2410 N 221.533 -6.65812 -1.91483 0
M  V30 2411 N 223.326 -5.35129 -1.72027 0
M  V30 2412 H 215.477 -2.0897 0.380186 0
M  V30 2413 H 217.74 -0.94185 0.107805 0
M  V30 2414 H 217.446 -3.51168 -0.193461 0
M  V30 2415 H 217.32 -3.24487 -1.92323 0
M  V30 2416 H 219.707 -2.25318 -1.90568 0
M  V30 2417 H 219.788 -2.55276 -0.16369 0
M  V30 2418 H 219.432 -5.04366 -0.598109 0
M  V30 2419 H 219.362 -4.71385 -2.34743 0
M  V30 2420 H 221.853 -3.54332 -1.31367 0
M  V30 2421 H 222.166 -7.43964 -2.09134 0
M  V30 2422 H 220.511 -6.68879 -1.88749 0
M  V30 2423 H 223.702 -4.41764 -1.54796 0
M  V30 2424 H 223.875 -6.19433 -1.9028 0
M  V30 2425 N 217.281 0.66697 -1.42791 0
M  V30 2426 C 218.229 1.80157 -1.47127 0
M  V30 2427 C 219.223 1.65825 -0.346199 0
M  V30 2428 O 220.429 1.72338 -0.519572 0
M  V30 2429 H 216.804 0.594158 -0.460956 0
M  V30 2430 H 218.775 1.73619 -2.42692 0
M  V30 2431 C 217.524 3.18351 -1.39813 0
M  V30 2432 H 216.847 3.3001 -2.25684 0
M  V30 2433 H 218.287 3.97736 -1.46908 0
M  V30 2434 C 216.746 3.36707 -0.11391 0
M  V30 2435 O 217.276 3.93027 0.830241 0
M  V30 2436 N 215.482 2.90586 -0.0285295 0
M  V30 2437 H 215.029 2.4494 -0.79764 0
M  V30 2438 H 214.987 3.03245 0.830063 0
M  V30 2439 N 218.759 1.29093 0.90403 0
M  V30 2440 C 220.005 1.17996 1.65676 0
M  V30 2441 C 220.36 -0.266816 1.90541 0
M  V30 2442 O 219.653 -1.19 1.50165 0
M  V30 2443 C 219.847 1.92224 3.01305 0
M  V30 2444 C 219.676 3.43972 2.89678 0
M  V30 2445 C 218.446 4.1332 2.90679 0
M  V30 2446 C 220.644 4.39546 2.67028 0
M  V30 2447 N 218.626 5.51463 2.69743 0
M  V30 2448 C 219.997 5.65119 2.5503 0
M  V30 2449 C 222.052 4.29359 2.52101 0
M  V30 2450 C 220.755 6.81663 2.29626 0
M  V30 2451 C 222.781 5.4565 2.28079 0
M  V30 2452 C 222.143 6.70193 2.16843 0
M  V30 2453 H 218.242 0.486759 0.612037 0
M  V30 2454 H 220.826 1.62868 1.06688 0
M  V30 2455 H 218.997 1.49773 3.58361 0
M  V30 2456 H 220.729 1.73429 3.65656 0
M  V30 2457 H 217.484 3.64984 3.01801 0
M  V30 2458 H 217.908 6.24105 2.6234 0
M  V30 2459 H 222.55 3.33769 2.59534 0
M  V30 2460 H 220.268 7.77313 2.20932 0
M  V30 2461 H 223.854 5.39664 2.1738 0
M  V30 2462 H 222.734 7.58659 1.98511 0
M  V30 2463 N 220.237 -1.11381 1.11499 0
M  V30 2464 C 221.467 -1.86663 0.885464 0
M  V30 2465 C 221.875 -1.80464 -0.568281 0
M  V30 2466 O 221.218 -1.18445 -1.40415 0
M  V30 2467 C 221.28 -3.36337 1.26956 0
M  V30 2468 C 220.944 -3.66304 2.73259 0
M  V30 2469 C 221.941 -3.63733 3.71476 0
M  V30 2470 C 219.626 -3.9529 3.09921 0
M  V30 2471 C 221.62 -3.89725 5.04374 0
M  V30 2472 C 219.307 -4.20941 4.43004 0
M  V30 2473 C 220.305 -4.18147 5.40039 0
M  V30 2474 O 219.993 -4.43153 6.70724 0
M  V30 2475 H 219.725 -0.597114 0.316908 0
M  V30 2476 H 222.279 -1.41782 1.48617 0
M  V30 2477 H 220.509 -3.81826 0.611999 0
M  V30 2478 H 222.198 -3.92986 1.01573 0
M  V30 2479 H 222.964 -3.41389 3.44498 0
M  V30 2480 H 218.843 -3.966 2.35009 0
M  V30 2481 H 222.387 -3.8746 5.80104 0
M  V30 2482 H 218.284 -4.42761 4.69716 0
M  V30 2483 H 219.052 -4.60717 6.76522 0
M  V30 2484 N 221.715 -0.905404 -1.28997 0
M  V30 2485 C 222.961 -0.535039 -1.95615 0
M  V30 2486 C 223.294 0.917404 -1.71165 0
M  V30 2487 O 222.569 1.65123 -1.02785 0
M  V30 2488 C 222.852 -0.834918 -3.50287 0
M  V30 2489 C 222.705 -2.33948 -3.84172 0
M  V30 2490 C 224.024 -0.325318 -4.38896 0
M  V30 2491 H 221.143 -0.195861 -0.710498 0
M  V30 2492 H 223.785 -1.13313 -1.52513 0
M  V30 2493 H 221.935 -0.325904 -3.87131 0
M  V30 2494 H 223.607 -2.91847 -3.57243 0
M  V30 2495 H 221.85 -2.79789 -3.31513 0
M  V30 2496 H 222.521 -2.49987 -4.92149 0
M  V30 2497 H 224.997 -0.761256 -4.09077 0
M  V30 2498 H 223.873 -0.564295 -5.45992 0
M  V30 2499 H 224.134 0.774144 -4.35269 0
M  V30 2500 N 223.193 1.4272 -0.668489 0
M  V30 2501 C 224.125 2.2914 0.052613 0
M  V30 2502 C 225.138 1.43339 0.771857 0
M  V30 2503 O 226.327 1.67123 0.627067 0
M  V30 2504 C 223.427 3.20618 1.09804 0
M  V30 2505 C 222.6 4.35039 0.45389 0
M  V30 2506 C 221.659 5.07282 1.39825 0
M  V30 2507 O 220.685 5.62024 0.900978 0
M  V30 2508 N 221.887 5.12206 2.73176 0
M  V30 2509 H 224.652 2.91668 -0.689209 0
M  V30 2510 H 222.213 1.53577 -0.512422 0
M  V30 2511 H 224.205 3.65815 1.73094 0
M  V30 2512 H 222.775 2.59585 1.74167 0
M  V30 2513 H 221.995 3.92567 -0.358396 0
M  V30 2514 H 223.283 5.088 0.00486972 0
M  V30 2515 H 222.681 4.6913 3.16122 0
M  V30 2516 H 221.238 5.61069 3.31729 0
M  V30 2517 N 224.671 0.411399 1.52136 0
M  V30 2518 C 226.082 -0.0576826 1.86611 0
M  V30 2519 C 226.433 -1.44238 1.33003 0
M  V30 2520 O 225.558 -2.05759 0.670228 0
M  V30 2521 C 226.153 -0.111448 3.38617 0
M  V30 2522 C 224.712 -0.52487 3.72723 0
M  V30 2523 C 223.859 0.299176 2.75681 0
M  V30 2524 H 226.81 0.628368 1.4573 0
M  V30 2525 H 226.831 -0.926252 3.69054 0
M  V30 2526 H 226.343 0.896488 3.77604 0
M  V30 2527 H 224.444 -1.53936 3.39315 0
M  V30 2528 H 224.557 -0.267681 4.78352 0
M  V30 2529 H 222.921 -0.238814 2.53578 0
M  V30 2530 H 223.704 1.3055 3.17508 0
M  V30 2531 N 226.149 -1.5696 0.141893 0
M  V30 2532 C 227.374 -2.00754 -0.520838 0
M  V30 2533 C 227.799 -1.0213 -1.57959 0
M  V30 2534 O 227.157 0.00371324 -1.813 0
M  V30 2535 C 227.205 -3.43318 -1.10294 0
M  V30 2536 O 226.309 -3.47679 -2.21795 0
M  V30 2537 H 225.65 -0.651564 -0.127908 0
M  V30 2538 H 228.18 -2.03221 0.23712 0
M  V30 2539 H 228.19 -3.82012 -1.43287 0
M  V30 2540 H 226.865 -4.14608 -0.327574 0
M  V30 2541 H 225.442 -3.20824 -1.9007 0
M  V30 2542 N 227.627 0.131896 -1.57047 0
M  V30 2543 C 228.867 0.847972 -1.85981 0
M  V30 2544 C 229.231 1.77655 -0.7282 0
M  V30 2545 O 230.432 2.53322 -0.898968 0
M  V30 2546 C 228.703 1.58919 -3.20124 0
M  V30 2547 S 230.262 2.34862 -3.70655 0
M  V30 2548 H 227.08 0.283273 -0.652133 0
M  V30 2549 H 229.682 0.107057 -1.95207 0
M  V30 2550 H 228.386 0.898771 -4.00438 0
M  V30 2551 H 227.917 2.37073 -3.13942 0
M  V30 2552 H 229.932 3.60344 -3.41126 0
M  V30 2553 N 229.106 1.52395 0.401703 0
M  V30 2554 C 230.069 1.75636 1.47257 0
M  V30 2555 C 231.069 0.62628 1.48103 0
M  V30 2556 O 232.259 0.894227 1.49497 0
M  V30 2557 C 229.391 1.84553 2.86624 0
M  V30 2558 H 230.584 2.71241 1.27938 0
M  V30 2559 H 228.137 1.42923 0.632662 0
M  V30 2560 H 228.872 0.908882 3.11303 0
M  V30 2561 H 228.657 2.66715 2.87412 0
M  V30 2562 H 230.147 2.04251 3.64241 0
M  V30 2563 N 230.584 -0.659388 1.43143 0
M  V30 2564 C 231.812 -1.44723 1.47861 0
M  V30 2565 C 232.227 -1.88563 0.0945886 0
M  V30 2566 O 231.584 -1.59108 -0.893915 0
M  V30 2567 C 231.635 -2.68627 2.41913 0
M  V30 2568 O 231.356 -2.26623 3.74932 0
M  V30 2569 C 232.857 -3.62045 2.55809 0
M  V30 2570 H 230.077 -0.444801 0.502387 0
M  V30 2571 H 232.621 -0.808916 1.87821 0
M  V30 2572 H 230.776 -3.28613 2.05164 0
M  V30 2573 H 231.19 -3.06745 4.2545 0
M  V30 2574 H 232.664 -4.45666 3.25708 0
M  V30 2575 H 233.141 -4.08981 1.60099 0
M  V30 2576 H 233.747 -3.07944 2.93344 0
M  V30 2577 N 232.062 -1.29571 -0.897171 0
M  V30 2578 C 233.287 -1.20705 -1.68656 0
M  V30 2579 C 233.712 0.228582 -1.86706 0
M  V30 2580 O 233.07 1.16494 -1.3892 0
M  V30 2581 C 233.118 -1.9282 -3.04717 0
M  V30 2582 O 232.222 -1.24697 -3.93096 0
M  V30 2583 H 231.563 -0.418126 -0.515816 0
M  V30 2584 H 234.093 -1.71183 -1.12061 0
M  V30 2585 H 234.103 -2.01372 -3.54843 0
M  V30 2586 H 232.778 -2.97239 -2.90899 0
M  V30 2587 H 231.355 -1.2442 -3.51531 0
M  V30 2588 N 233.54 1.10788 -1.12088 0
M  V30 2589 C 234.788 1.8231 -0.872205 0
M  V30 2590 C 235.109 1.85419 0.603709 0
M  V30 2591 O 234.379 1.32963 1.43867 0
M  V30 2592 H 232.959 0.675137 -0.319686 0
M  V30 2593 H 235.621 1.34068 -1.41463 0
M  V30 2594 H 234.717 2.85955 -1.25045 0
M  V30 2595 N 235.018 0.912232 1.28515 0
M  V30 2596 C 236.295 0.463597 1.90027 0
M  V30 2597 C 236.675 -1.05753 1.82701 0
M  V30 2598 O 236.023 -1.90492 1.26194 0
M  V30 2599 C 236.233 0.992253 3.34597 0
M  V30 2600 C 237.581 1.04344 4.11579 0
M  V30 2601 O 238.605 0.94079 3.43551 0
M  V30 2602 O 237.464 1.1995 5.33174 0
M  V30 2603 H 234.558 0.146666 0.813891 0
M  V30 2604 H 237.104 1.00292 1.36893 0
M  V30 2605 H 235.876 2.03623 3.34146 0
M  V30 2606 H 235.499 0.433672 3.95228 0
M  V30 2607 N 236.496 -1.42363 0.676048 0
M  V30 2608 C 237.744 -2.01123 0.198437 0
M  V30 2609 C 238.065 -1.53731 -1.19966 0
M  V30 2610 O 237.335 -0.759518 -1.80577 0
M  V30 2611 H 235.915 -0.743678 0.0703721 0
M  V30 2612 H 238.577 -1.74263 0.872837 0
M  V30 2613 H 237.673 -3.11454 0.200686 0
M  V30 2614 N 237.974 -0.419461 -1.51915 0
M  V30 2615 C 238.904 0.391813 -2.30189 0
M  V30 2616 C 239.885 1.03699 -1.34836 0
M  V30 2617 O 241.07 1.04403 -1.63748 0
M  V30 2618 C 238.2 1.50312 -3.13087 0
M  V30 2619 C 237.154 0.9824 -4.16573 0
M  V30 2620 C 236.48 2.18809 -4.8788 0
M  V30 2621 C 237.78 0.0292356 -5.22292 0
M  V30 2622 H 239.474 -0.26135 -2.98257 0
M  V30 2623 H 237.02 -0.127134 -1.43438 0
M  V30 2624 H 238.973 2.07773 -3.66617 0
M  V30 2625 H 237.697 2.18431 -2.42807 0
M  V30 2626 H 236.356 0.430119 -3.64068 0
M  V30 2627 H 236.004 2.85507 -4.14119 0
M  V30 2628 H 235.704 1.84615 -5.57845 0
M  V30 2629 H 237.228 2.76858 -5.44226 0
M  V30 2630 H 238.642 0.512976 -5.71 0
M  V30 2631 H 237.039 -0.2244 -5.9968 0
M  V30 2632 H 238.109 -0.912931 -4.76228 0
M  V30 2633 N 239.452 1.56882 -0.150215 0
M  V30 2634 C 240.682 2.00302 0.506213 0
M  V30 2635 C 241.09 1.02934 1.58749 0
M  V30 2636 O 240.433 0.0188384 1.8369 0
M  V30 2637 C 240.495 3.40156 1.16337 0
M  V30 2638 C 240.159 4.56439 0.226311 0
M  V30 2639 C 241.156 5.17012 -0.547265 0
M  V30 2640 C 238.841 5.02136 0.128279 0
M  V30 2641 C 240.835 6.21693 -1.40629 0
M  V30 2642 C 238.522 6.06672 -0.734345 0
M  V30 2643 C 239.52 6.6632 -1.50023 0
M  V30 2644 O 239.208 7.68831 -2.34848 0
M  V30 2645 H 238.94 0.662182 0.135984 0
M  V30 2646 H 241.494 2.03961 -0.242746 0
M  V30 2647 H 239.724 3.33346 1.96004 0
M  V30 2648 H 241.413 3.67663 1.71985 0
M  V30 2649 H 242.179 4.82603 -0.48158 0
M  V30 2650 H 238.058 4.55435 0.714157 0
M  V30 2651 H 241.602 6.68179 -2.00455 0
M  V30 2652 H 237.499 6.40507 -0.801309 0
M  V30 2653 H 238.267 7.86065 -2.28131 0
M  V30 2654 N 240.93 -0.123565 1.57115 0
M  V30 2655 C 241.84 -1.17074 2.033 0
M  V30 2656 C 242.856 -1.4561 0.952559 0
M  V30 2657 O 244.032 -1.56817 1.26374 0
M  V30 2658 C 241.097 -2.47857 2.42421 0
M  V30 2659 C 240.158 -2.26758 3.64526 0
M  V30 2660 C 239.391 -3.51305 4.01771 0
M  V30 2661 O 239.614 -4.5843 3.39409 0
M  V30 2662 O 238.548 -3.42578 4.94898 0
M  V30 2663 H 242.374 -0.808555 2.92739 0
M  V30 2664 H 239.959 -0.334027 1.45618 0
M  V30 2665 H 241.841 -3.2492 2.68338 0
M  V30 2666 H 240.516 -2.83558 1.5613 0
M  V30 2667 H 239.423 -1.47569 3.43765 0
M  V30 2668 H 240.756 -1.95963 4.51508 0
M  V30 2669 N 242.408 -1.52605 -0.393616 0
M  V30 2670 C 243.656 -1.67093 -1.13685 0
M  V30 2671 C 243.977 -0.411011 -1.90619 0
M  V30 2672 O 243.247 0.574491 -1.87287 0
M  V30 2673 H 241.827 -0.615923 -0.422668 0
M  V30 2674 H 244.489 -1.89704 -0.447039 0
M  V30 2675 H 243.585 -2.51922 -1.84232 0
M  V30 2676 N 243.887 0.651787 -1.4349 0
M  V30 2677 C 244.817 1.77621 -1.51569 0
M  V30 2678 C 245.798 1.66022 -0.370253 0
M  V30 2679 O 246.983 1.85095 -0.587658 0
M  V30 2680 C 244.113 3.16056 -1.43966 0
M  V30 2681 C 243.067 3.4242 -2.56774 0
M  V30 2682 C 242.393 4.8067 -2.34223 0
M  V30 2683 C 243.693 3.37023 -3.99015 0
M  V30 2684 H 245.387 1.71117 -2.45681 0
M  V30 2685 H 242.933 0.821825 -1.18246 0
M  V30 2686 H 244.886 3.94472 -1.48221 0
M  V30 2687 H 243.61 3.23293 -0.463586 0
M  V30 2688 H 242.269 2.66375 -2.51873 0
M  V30 2689 H 241.917 4.84585 -1.34856 0
M  V30 2690 H 241.617 4.9927 -3.09844 0
M  V30 2691 H 243.141 5.61342 -2.40265 0
M  V30 2692 H 244.555 4.05374 -4.05395 0
M  V30 2693 H 242.952 3.67159 -4.74673 0
M  V30 2694 H 244.022 2.3518 -4.2405 0
M  V30 2695 N 245.365 1.30045 0.890287 0
M  V30 2696 C 246.593 1.21472 1.67487 0
M  V30 2697 C 247.008 -0.223241 1.87476 0
M  V30 2698 O 246.365 -1.14828 1.41847 0
M  V30 2699 C 246.416 1.93394 3.05419 0
M  V30 2700 O 246.137 3.31576 2.86337 0
M  V30 2701 C 247.638 1.91414 3.99844 0
M  V30 2702 H 244.858 0.420604 0.522813 0
M  V30 2703 H 247.402 1.7158 1.11268 0
M  V30 2704 H 245.557 1.47099 3.58386 0
M  V30 2705 H 245.971 3.67929 3.73802 0
M  V30 2706 H 247.445 2.46285 4.94012 0
M  V30 2707 H 247.922 0.891833 4.3005 0
M  V30 2708 H 248.528 2.37496 3.52811 0
M  V30 2709 N 246.843 -1.10192 1.12674 0
M  V30 2710 C 248.089 -1.82658 0.894847 0
M  V30 2711 C 248.444 -1.83666 -0.573107 0
M  V30 2712 O 247.737 -1.28816 -1.41835 0
M  V30 2713 C 247.931 -3.28552 1.4067 0
M  V30 2714 C 247.76 -3.41756 2.92289 0
M  V30 2715 C 246.53 -3.54021 3.60551 0
M  V30 2716 C 248.728 -3.34949 3.90274 0
M  V30 2717 N 246.71 -3.55827 5.0026 0
M  V30 2718 C 248.081 -3.43531 5.16127 0
M  V30 2719 C 250.136 -3.18565 3.8265 0
M  V30 2720 C 248.839 -3.37416 6.3525 0
M  V30 2721 C 250.865 -3.13772 5.01299 0
M  V30 2722 C 250.227 -3.22938 6.26012 0
M  V30 2723 H 246.326 -0.683044 0.380756 0
M  V30 2724 H 248.91 -1.31752 1.43351 0
M  V30 2725 H 247.081 -3.77946 0.895055 0
M  V30 2726 H 248.813 -3.88991 1.11661 0
M  V30 2727 H 245.568 -3.57135 3.1105 0
M  V30 2728 H 245.992 -3.60335 5.73138 0
M  V30 2729 H 250.634 -3.10354 2.87124 0
M  V30 2730 H 248.352 -3.44391 7.3104 0
M  V30 2731 H 251.938 -3.02242 4.97133 0
M  V30 2732 H 250.818 -3.19235 7.16281 0
M  V30 2733 N 248.321 -0.919034 -1.28029 0
M  V30 2734 C 249.251 -0.428581 -2.29533 0
M  V30 2735 C 250.232 0.50659 -1.62381 0
M  V30 2736 O 251.417 0.413195 -1.89753 0
M  V30 2737 C 248.547 0.327388 -3.45753 0
M  V30 2738 C 247.501 -0.519137 -4.2484 0
M  V30 2739 C 246.827 0.365486 -5.33449 0
M  V30 2740 C 248.127 -1.77914 -4.91064 0
M  V30 2741 H 249.821 -1.27687 -2.70807 0
M  V30 2742 H 247.367 -0.615428 -1.30186 0
M  V30 2743 H 249.32 0.681378 -4.15855 0
M  V30 2744 H 248.044 1.20963 -3.03374 0
M  V30 2745 H 246.703 -0.855717 -3.56473 0
M  V30 2746 H 246.351 1.24642 -4.87312 0
M  V30 2747 H 246.051 -0.197356 -5.87268 0
M  V30 2748 H 247.575 0.715241 -6.06396 0
M  V30 2749 H 248.989 -1.49374 -5.53498 0
M  V30 2750 H 247.386 -2.2848 -5.54903 0
M  V30 2751 H 248.456 -2.50382 -4.15255 0
M  V30 2752 N 249.799 1.42003 -0.683588 0
M  V30 2753 C 251.027 2.05746 -0.218182 0
M  V30 2754 C 251.442 1.51396 1.12804 0
M  V30 2755 O 250.799 0.657303 1.70252 0
M  V30 2756 C 250.85 3.61171 -0.154131 0
M  V30 2757 O 250.571 4.13508 -1.44716 0
M  V30 2758 C 252.072 4.42042 0.333713 0
M  V30 2759 H 249.292 0.662888 -0.10402 0
M  V30 2760 H 251.836 1.81987 -0.9328 0
M  V30 2761 H 249.991 3.84012 0.511231 0
M  V30 2762 H 250.405 5.07453 -1.32632 0
M  V30 2763 H 251.879 5.51028 0.327423 0
M  V30 2764 H 252.356 4.17269 1.37053 0
M  V30 2765 H 252.962 4.24239 -0.300222 0
M  V30 2766 N 251.277 0.427512 1.51691 0
M  V30 2767 C 252.502 -0.143601 2.06902 0
M  V30 2768 C 252.927 -1.36536 1.29382 0
M  V30 2769 O 252.285 -1.78289 0.329043 0
M  V30 2770 C 252.333 -0.454207 3.57728 0
M  V30 2771 O 251.437 -1.54228 3.82475 0
M  V30 2772 H 250.778 -0.00617128 0.663971 0
M  V30 2773 H 253.308 0.606014 1.95419 0
M  V30 2774 H 253.318 -0.707525 4.01818 0
M  V30 2775 H 251.993 0.438812 4.13579 0
M  V30 2776 H 250.57 -1.2797 3.50254 0
M  V30 2777 N 252.755 -1.56801 0.158532 0
M  V30 2778 C 253.703 -2.18638 -0.793729 0
M  V30 2779 C 254.697 -1.14669 -1.24689 0
M  V30 2780 O 255.903 -1.32895 -1.21403 0
M  V30 2781 H 252.278 -0.700226 -0.274204 0
M  V30 2782 H 254.249 -2.97367 -0.248095 0
M  V30 2783 C 252.998 -2.83139 -2.0181 0
M  V30 2784 H 252.321 -3.62863 -1.67841 0
M  V30 2785 H 253.761 -3.29894 -2.66357 0
M  V30 2786 C 252.22 -1.82244 -2.83353 0
M  V30 2787 O 252.75 -1.3 -3.80083 0
M  V30 2788 N 250.956 -1.51288 -2.48114 0
M  V30 2789 H 250.503 -1.93964 -1.69516 0
M  V30 2790 H 250.461 -0.840296 -3.02963 0
M  V30 2791 N 254.233 0.115231 -1.57178 0
M  V30 2792 C 255.463 0.835224 -1.88964 0
M  V30 2793 C 255.871 1.73774 -0.74829 0
M  V30 2794 O 255.214 1.81401 0.289739 0
M  V30 2795 C 255.276 1.7178 -3.15804 0
M  V30 2796 C 254.94 0.989198 -4.46166 0
M  V30 2797 C 255.937 0.328263 -5.18863 0
M  V30 2798 C 253.622 0.969256 -4.9286 0
M  V30 2799 C 255.616 -0.342873 -6.36477 0
M  V30 2800 C 253.303 0.294324 -6.10391 0
M  V30 2801 C 254.301 -0.360582 -6.82048 0
M  V30 2802 O 253.989 -1.02474 -7.97342 0
M  V30 2803 H 253.721 0.245197 -0.629964 0
M  V30 2804 H 256.275 0.10303 -2.05141 0
M  V30 2805 H 254.505 2.49173 -2.95719 0
M  V30 2806 H 256.194 2.31255 -3.33581 0
M  V30 2807 H 256.96 0.335263 -4.8384 0
M  V30 2808 H 252.839 1.46844 -4.36987 0
M  V30 2809 H 256.383 -0.854629 -6.92345 0
M  V30 2810 H 252.28 0.285099 -6.4487 0
M  V30 2811 H 253.048 -0.929594 -8.13204 0
M  V30 2812 N 255.711 1.52812 0.385517 0
M  V30 2813 C 256.658 1.77838 1.47113 0
M  V30 2814 C 257.628 0.621757 1.54024 0
M  V30 2815 O 258.813 0.861846 1.70226 0
M  V30 2816 C 255.953 1.95618 2.84302 0
M  V30 2817 C 255.066 3.23316 2.86515 0
M  V30 2818 C 254.201 3.31394 4.15152 0
M  V30 2819 C 253.24 4.53201 4.1143 0
M  V30 2820 N 252.377 4.58542 5.3168 0
M  V30 2821 H 257.217 2.70482 1.25073 0
M  V30 2822 H 254.754 1.34006 0.606692 0
M  V30 2823 H 256.712 2.03912 3.63972 0
M  V30 2824 H 255.342 1.06331 3.04784 0
M  V30 2825 H 254.394 3.24076 1.99195 0
M  V30 2826 H 255.706 4.13045 2.79634 0
M  V30 2827 H 254.86 3.3889 5.03228 0
M  V30 2828 H 253.599 2.39645 4.24761 0
M  V30 2829 H 252.604 4.45827 3.21742 0
M  V30 2830 H 253.829 5.46271 4.03442 0
M  V30 2831 H 251.775 3.69686 5.41912 0
M  V30 2832 H 251.692 5.42148 5.26889 0
M  V30 2833 H 252.96 4.70296 6.21644 0
M  V30 2834 N 257.189 -0.644168 1.43834 0
M  V30 2835 C 258.414 -1.43642 1.49605 0
M  V30 2836 C 258.839 -1.8773 0.117913 0
M  V30 2837 O 258.197 -1.57938 -0.890239 0
M  V30 2838 C 258.245 -2.6416 2.45463 0
M  V30 2839 O 257.349 -3.63538 1.94714 0
M  V30 2840 H 256.69 -0.430329 0.50568 0
M  V30 2841 H 259.22 -0.787448 1.8884 0
M  V30 2842 H 259.23 -3.11864 2.63068 0
M  V30 2843 H 257.905 -2.31414 3.45572 0
M  V30 2844 H 256.482 -3.2273 1.86814 0
M  V30 2845 O 258.706 -1.41006 -0.787381 0
M  V30 2846 H 259.397 -1.30255 -1.43364 0
M  V30 END ATOM
M  V30 BEGIN BOND
M  V30 END BOND
M  V30 END CTAB
M  END
$$$$
