drugbank_target|P37173 TGF-beta receptor type-2 (DB10770; DB10772; DB12010)
 OpenBabel12092120013D

  0  0  0     0  0            999 V3000
M  V30 BEGIN CTAB
M  V30 COUNTS 8978 9073 0 0 0
M  V30 BEGIN ATOM
M  V30 1 H -0.908 1.98254 -0.117106 0
M  V30 2 N 0 1.576 0 0
M  V30 3 C 0.933 2.03868 1.02534 0
M  V30 4 C 1.911 0.928543 1.3348 0
M  V30 5 O 3.095 1.19667 1.45644 0
M  V30 6 C 0.222 2.43627 2.35294 0
M  V30 7 C -0.732 3.65373 2.2001 0
M  V30 8 S 0.101 5.13292 1.52614 0
M  V30 9 C 1.257 5.56322 2.86805 0
M  V30 10 H 1.49 2.90518 0.631377 0
M  V30 11 H -0.977 1.52953 0.210867 0
M  V30 12 H 0.981 2.67203 3.11629 0
M  V30 13 H -0.358 1.57376 2.7183 0
M  V30 14 H -1.165 3.90944 3.18086 0
M  V30 15 H -1.563 3.418 1.51819 0
M  V30 16 H 0.729 5.58782 3.83104 0
M  V30 17 H 1.672 6.56266 2.65933 0
M  V30 18 H 2.08 4.83886 2.90714 0
M  V30 19 N 1.4781 -0.272755 1.55222 0
M  V30 20 C 2.7261 -1.00234 1.75492 0
M  V30 21 C 3.0471 -1.8681 0.5592 0
M  V30 22 O 2.3171 -1.91215 -0.425882 0
M  V30 23 H 0.8971 -0.373076 0.647166 0
M  V30 24 H 3.5591 -0.296926 1.92625 0
M  V30 25 H 2.6551 -1.63913 2.65592 0
M  V30 26 N 2.9562 -1.48159 -0.537278 0
M  V30 27 C 4.3722 -1.34118 -0.865129 0
M  V30 28 C 4.5722 -0.346678 -1.98495 0
M  V30 29 O 3.6282 0.234715 -2.51407 0
M  V30 30 C 4.9412 -2.73963 -1.23954 0
M  V30 31 C 6.4892 -2.82397 -1.34984 0
M  V30 32 C 6.9642 -4.22928 -1.75772 0
M  V30 33 N 8.4552 -4.25566 -1.82887 0
M  V30 34 C 9.1902 -5.31235 -2.15817 0
M  V30 35 N 8.6862 -6.47189 -2.47222 0
M  V30 36 N 10.4792 -5.18624 -2.16761 0
M  V30 37 H 2.6302 -2.1144 0.201715 0
M  V30 38 H 4.8932 -0.947598 0.0275949 0
M  V30 39 H 4.5992 -3.48264 -0.490381 0
M  V30 40 H 4.4732 -3.0702 -2.19132 0
M  V30 41 H 6.8602 -2.08356 -2.08978 0
M  V30 42 H 6.9412 -2.5297 -0.379448 0
M  V30 43 H 6.5852 -4.97482 -1.02341 0
M  V30 44 H 6.5152 -4.49794 -2.73848 0
M  V30 45 H 9.0062 -3.41924 -1.60924 0
M  V30 46 H 9.3192 -7.23564 -2.71433 0
M  V30 47 H 7.6642 -6.50476 -2.44757 0
M  V30 48 H 10.8552 -4.27056 -1.91679 0
M  V30 49 H 11.0282 -6.01078 -2.42093 0
M  V30 50 N 4.4343 0.785586 -1.36625 0
M  V30 51 C 5.6823 1.54057 -1.30808 0
M  V30 52 C 6.0033 1.94683 0.111157 0
M  V30 53 O 5.2733 1.65241 1.05224 0
M  V30 54 H 3.8533 0.571354 -0.481211 0
M  V30 55 H 6.5153 0.935821 -1.70963 0
M  V30 56 H 5.6113 2.44637 -1.93801 0
M  V30 57 N 5.9124 1.20967 1.01018 0
M  V30 58 C 6.8424 0.988272 2.11555 0
M  V30 59 C 7.8234 -0.0849778 1.69888 0
M  V30 60 O 9.0084 0.0738202 1.9406 0
M  V30 61 C 6.1384 0.546528 3.42973 0
M  V30 62 C 5.0924 1.56375 3.9841 0
M  V30 63 C 4.4184 0.97842 5.25672 0
M  V30 64 C 5.7184 2.94922 4.31066 0
M  V30 65 H 7.4124 1.91276 2.30334 0
M  V30 66 H 4.9584 0.921073 1.1069 0
M  V30 67 H 6.9114 0.378839 4.19694 0
M  V30 68 H 5.6354 -0.413598 3.23971 0
M  V30 69 H 4.2944 1.71891 3.23804 0
M  V30 70 H 3.9424 0.0101688 5.02999 0
M  V30 71 H 3.6424 1.65784 5.63728 0
M  V30 72 H 5.1664 0.821939 6.05043 0
M  V30 73 H 6.5804 2.8288 4.9865 0
M  V30 74 H 4.9774 3.5983 4.80253 0
M  V30 75 H 6.0474 3.4616 3.39561 0
M  V30 76 N 7.3905 -1.2043 1.01659 0
M  V30 77 C 8.3205 -2.25466 0.607226 0
M  V30 78 C 9.3015 -1.65853 -0.377716 0
M  V30 79 O 10.4865 -1.92409 -0.263149 0
M  V30 80 C 7.6165 -3.47256 -0.0552949 0
M  V30 81 C 6.5705 -4.19462 0.850632 0
M  V30 82 C 5.8965 -5.34673 0.0538859 0
M  V30 83 C 7.1965 -4.75603 2.15868 0
M  V30 84 H 8.8905 -2.59962 1.48526 0
M  V30 85 H 6.4365 -1.2496 0.715605 0
M  V30 86 H 8.3895 -4.19917 -0.353233 0
M  V30 87 H 7.1135 -3.11924 -0.968045 0
M  V30 88 H 5.7725 -3.48667 1.13257 0
M  V30 89 H 5.4205 -4.95585 -0.860514 0
M  V30 90 H 5.1205 -5.83913 0.657192 0
M  V30 91 H 6.6445 -6.10138 -0.237598 0
M  V30 92 H 8.0585 -5.40083 1.92311 0
M  V30 93 H 6.4555 -5.3528 2.71284 0
M  V30 94 H 7.5255 -3.94346 2.82169 0
M  V30 95 N 8.8686 -0.792821 -1.36206 0
M  V30 96 C 10.2846 -0.474903 -1.52371 0
M  V30 97 C 10.4846 1.00622 -1.74578 0
M  V30 98 O 9.5406 1.79162 -1.77924 0
M  V30 99 C 10.8536 -1.3083 -2.70747 0
M  V30 100 C 12.4016 -1.30234 -2.84619 0
M  V30 101 C 12.8766 -2.11956 -4.06004 0
M  V30 102 N 14.3676 -2.09419 -4.13156 0
M  V30 103 C 15.1026 -2.69419 -5.06163 0
M  V30 104 N 14.5986 -3.3829 -6.04592 0
M  V30 105 N 16.3916 -2.59134 -4.98804 0
M  V30 106 H 8.5426 -1.75222 -1.20046 0
M  V30 107 H 10.8056 -0.745024 -0.586211 0
M  V30 108 H 10.5116 -2.35881 -2.6087 0
M  V30 109 H 10.3856 -0.95196 -3.6499 0
M  V30 110 H 12.7726 -0.259748 -2.93955 0
M  V30 111 H 12.8536 -1.69847 -1.91274 0
M  V30 112 H 12.4976 -3.16248 -3.97429 0
M  V30 113 H 12.4276 -1.69711 -4.98503 0
M  V30 114 H 14.9186 -1.59297 -3.42685 0
M  V30 115 H 15.2316 -3.81394 -6.7213 0
M  V30 116 H 13.5766 -3.42393 -6.04807 0
M  V30 117 H 16.7676 -2.04927 -4.20859 0
M  V30 118 H 16.9406 -3.06185 -5.711 0
M  V30 119 N 10.3467 1.47872 -0.545128 0
M  V30 120 C 11.5947 2.02093 -0.016553 0
M  V30 121 C 11.9157 1.42305 1.3332 0
M  V30 122 O 11.1857 0.593853 1.86682 0
M  V30 123 H 9.7657 0.746993 -0.00313038 0
M  V30 124 H 12.4277 1.81414 -0.712397 0
M  V30 125 H 11.5237 3.11996 0.0805422 0
M  V30 126 N 11.8248 0.280983 1.55075 0
M  V30 127 C 12.7548 -0.597469 2.25727 0
M  V30 128 C 13.7358 -1.15417 1.24952 0
M  V30 129 O 14.9208 -1.18722 1.53684 0
M  V30 130 C 12.0508 -1.7789 2.98283 0
M  V30 131 C 11.0048 -1.35347 4.06036 0
M  V30 132 C 10.3308 -2.61846 4.66198 0
M  V30 133 C 11.6308 -0.499354 5.19907 0
M  V30 134 H 13.3248 -0.00824265 2.99399 0
M  V30 135 H 10.8708 -0.0025244 1.44 0
M  V30 136 H 12.8238 -2.39937 3.46422 0
M  V30 137 H 11.5478 -2.39405 2.22155 0
M  V30 138 H 10.2068 -0.756156 3.58717 0
M  V30 139 H 9.8548 -3.21632 3.86732 0
M  V30 140 H 9.5548 -2.3409 5.38958 0
M  V30 141 H 11.0788 -3.24732 5.1709 0
M  V30 142 H 12.4928 -1.02498 5.64063 0
M  V30 143 H 10.8898 -0.316424 5.99265 0
M  V30 144 H 11.9598 0.480459 4.82514 0
M  V30 145 N 13.3029 -1.57598 0.00835791 0
M  V30 146 C 14.5489 -1.92046 -0.670055 0
M  V30 147 C 14.9039 -0.88351 -1.70915 0
M  V30 148 O 14.1969 0.103223 -1.91322 0
M  V30 149 C 14.3909 -3.3101 -1.34787 0
M  V30 150 C 14.2199 -4.48126 -0.375945 0
M  V30 151 C 12.9899 -5.05297 0.0166914 0
M  V30 152 C 15.1879 -5.1303 0.361272 0
M  V30 153 N 13.1699 -6.05931 0.985952 0
M  V30 154 C 14.5409 -6.08571 1.18495 0
M  V30 155 C 16.5959 -4.9609 0.42421 0
M  V30 156 C 15.2989 -6.88996 2.06584 0
M  V30 157 C 17.3249 -5.77107 1.29236 0
M  V30 158 C 16.6869 -6.72248 2.10386 0
M  V30 159 H 12.7859 -0.75096 -0.218136 0
M  V30 160 H 15.3699 -1.94572 0.0706669 0
M  V30 161 H 13.5409 -3.29342 -2.05884 0
M  V30 162 H 15.2729 -3.52864 -1.98164 0
M  V30 163 H 12.0279 -4.72279 -0.353435 0
M  V30 164 H 12.4519 -6.60932 1.4662 0
M  V30 165 H 17.0939 -4.22378 -0.188915 0
M  V30 166 H 14.8119 -7.62028 2.6896 0
M  V30 167 H 18.3979 -5.66038 1.34508 0
M  V30 168 H 17.2779 -7.33846 2.76476 0
M  V30 169 N 14.781 0.264519 -1.55364 0
M  V30 170 C 16.192 0.834936 -1.6699 0
M  V30 171 C 16.543 1.86718 -0.602552 0
M  V30 172 O 15.668 2.14899 0.254425 0
M  V30 173 C 16.263 1.5212 -3.02729 0
M  V30 174 C 14.822 2.03954 -3.16354 0
M  V30 175 C 13.969 0.884498 -2.62815 0
M  V30 176 H 16.92 0.0406869 -1.58648 0
M  V30 177 H 16.941 2.38853 -2.96191 0
M  V30 178 H 16.453 0.769668 -3.80392 0
M  V30 179 H 14.554 2.82041 -2.43482 0
M  V30 180 H 14.667 2.24902 -4.23032 0
M  V30 181 H 13.031 1.2802 -2.20188 0
M  V30 182 H 13.814 0.14634 -3.42988 0
M  V30 183 N 16.2591 1.48442 0.529413 0
M  V30 184 C 17.1891 1.65902 1.64313 0
M  V30 185 C 18.1701 0.507897 1.6234 0
M  V30 186 O 19.3551 0.740503 1.79528 0
M  V30 187 C 16.4851 1.69911 3.02898 0
M  V30 188 C 15.4391 2.8453 3.19729 0
M  V30 189 C 14.7651 2.73629 4.59381 0
M  V30 190 C 16.0651 4.25821 3.02447 0
M  V30 191 H 17.7591 2.5914 1.49955 0
M  V30 192 H 15.3051 1.24709 0.719982 0
M  V30 193 H 17.2581 1.80715 3.80684 0
M  V30 194 H 15.9821 0.732524 3.18279 0
M  V30 195 H 14.6411 2.73283 2.44361 0
M  V30 196 H 14.2891 1.74938 4.71599 0
M  V30 197 H 13.9891 3.50541 4.71588 0
M  V30 198 H 15.5131 2.86401 5.39265 0
M  V30 199 H 16.9271 4.37898 3.70024 0
M  V30 200 H 15.3241 5.03735 3.26146 0
M  V30 201 H 16.3941 4.42244 1.98867 0
M  V30 202 N 17.7372 -0.778329 1.37039 0
M  V30 203 C 18.6872 -1.88142 1.28789 0
M  V30 204 C 19.6712 -1.59923 0.177063 0
M  V30 205 O 20.8632 -1.72165 0.410873 0
M  V30 206 C 17.9922 -3.25518 1.09055 0
M  V30 207 C 17.0782 -3.5971 2.24654 0
M  V30 208 N 17.4692 -3.65131 3.50018 0
M  V30 209 C 15.7672 -3.89837 2.16663 0
M  V30 210 C 16.4682 -3.95882 4.26207 0
M  V30 211 N 15.4442 -4.11441 3.55271 0
M  V30 212 H 19.2462 -1.90575 2.23737 0
M  V30 213 H 16.7602 -0.974435 1.29917 0
M  V30 214 H 18.7572 -4.04423 1.0123 0
M  V30 215 H 17.4172 -3.24353 0.15018 0
M  V30 216 H 18.4282 -3.475 3.84011 0
M  V30 217 H 15.1052 -3.96533 1.30645 0
M  V30 218 H 16.4952 -4.06907 5.34674 0
M  V30 219 N 19.2153 -1.21501 -1.00376 0
M  V30 220 C 20.4643 -1.02718 -1.73586 0
M  V30 221 C 20.7773 0.439589 -1.90596 0
M  V30 222 O 21.9833 0.746848 -2.61026 0
M  V30 223 C 20.4393 -1.78929 -3.1227 0
M  V30 224 C 20.0473 -3.29783 -3.03228 0
M  V30 225 C 21.7913 -1.68557 -3.89601 0
M  V30 226 C 19.6983 -3.98479 -4.36999 0
M  V30 227 H 18.6283 -0.380733 -0.650814 0
M  V30 228 H 21.2793 -1.45248 -1.1214 0
M  V30 229 H 19.6613 -1.29192 -3.74333 0
M  V30 230 H 20.8353 -3.86832 -2.50395 0
M  V30 231 H 19.1503 -3.40711 -2.39385 0
M  V30 232 H 21.7473 -2.17211 -4.88593 0
M  V30 233 H 22.0903 -0.644021 -4.11288 0
M  V30 234 H 22.6233 -2.15778 -3.34193 0
M  V30 235 H 19.3623 -5.02841 -4.20513 0
M  V30 236 H 18.8823 -3.46219 -4.89788 0
M  V30 237 H 20.5613 -4.03462 -5.05794 0
M  V30 238 N 20.6934 1.19889 -1.02296 0
M  V30 239 C 21.9394 1.89701 -0.717033 0
M  V30 240 C 22.2724 1.7905 0.751989 0
M  V30 241 O 21.5474 1.17891 1.547 0
M  V30 242 C 21.8304 3.40858 -1.16136 0
M  V30 243 C 21.6834 3.60411 -2.69117 0
M  V30 244 C 23.0024 4.33876 -0.737549 0
M  V30 245 H 20.1214 0.688874 -0.261957 0
M  V30 246 H 22.7634 1.41154 -1.27183 0
M  V30 247 H 20.9134 3.82335 -0.689342 0
M  V30 248 H 22.5854 3.28145 -3.2422 0
M  V30 249 H 20.8284 3.03665 -3.0979 0
M  V30 250 H 21.4994 4.66396 -2.95261 0
M  V30 251 H 23.9754 4.00081 -1.14344 0
M  V30 252 H 22.8514 5.38242 -1.0764 0
M  V30 253 H 23.1124 4.40628 0.360436 0
M  V30 254 N 22.1715 0.800033 1.35784 0
M  V30 255 C 23.1015 0.220184 2.3246 0
M  V30 256 C 24.0825 -0.65073 1.57161 0
M  V30 257 O 25.2675 -0.582359 1.85263 0
M  V30 258 C 22.3975 -0.637353 3.41402 0
M  V30 259 C 21.3515 0.134531 4.27789 0
M  V30 260 C 20.6775 -0.844285 5.27992 0
M  V30 261 C 21.9775 1.32979 5.05088 0
M  V30 262 H 23.6715 1.02787 2.81203 0
M  V30 263 H 21.2175 0.495717 1.35199 0
M  V30 264 H 23.1705 -1.05302 4.08031 0
M  V30 265 H 21.8945 -1.47785 2.91251 0
M  V30 266 H 20.5535 0.531296 3.6273 0
M  V30 267 H 20.2015 -1.68011 4.74111 0
M  V30 268 H 19.9015 -0.332184 5.8666 0
M  V30 269 H 21.4255 -1.2583 5.97494 0
M  V30 270 H 22.8395 0.98934 5.64699 0
M  V30 271 H 21.2365 1.77593 5.7322 0
M  V30 272 H 22.3065 2.11978 4.36111 0
M  V30 273 N 23.6496 -1.47581 0.552962 0
M  V30 274 C 24.8956 -2.03369 0.0355807 0
M  V30 275 C 25.2506 -1.42016 -1.29805 0
M  V30 276 O 24.5436 -0.564917 -1.83083 0
M  V30 277 C 24.7376 -3.57199 -0.119728 0
M  V30 278 C 24.5666 -4.33468 1.1973 0
M  V30 279 C 23.3366 -4.7353 1.76345 0
M  V30 280 C 25.5346 -4.68866 2.11351 0
M  V30 281 N 23.5166 -5.34426 3.02097 0
M  V30 282 C 24.8876 -5.3002 3.21681 0
M  V30 283 C 26.9426 -4.50795 2.11397 0
M  V30 284 C 25.6456 -5.75011 4.32151 0
M  V30 285 C 27.6716 -4.96782 3.20876 0
M  V30 286 C 27.0336 -5.57981 4.29926 0
M  V30 287 H 23.1326 -0.780058 0.0550806 0
M  V30 288 H 25.7166 -1.80117 0.739315 0
M  V30 289 H 23.8876 -3.80227 -0.792579 0
M  V30 290 H 25.6196 -3.99627 -0.638792 0
M  V30 291 H 22.3746 -4.55352 1.30196 0
M  V30 292 H 22.7986 -5.69421 3.66182 0
M  V30 293 H 27.4406 -4.0284 1.28372 0
M  V30 294 H 25.1586 -6.21959 5.15938 0
M  V30 295 H 28.7446 -4.84573 3.21994 0
M  V30 296 H 27.6246 -5.92918 5.13243 0
M  V30 297 N 25.1277 -0.289203 -1.54924 0
M  V30 298 C 26.3557 0.326463 -2.04308 0
M  V30 299 C 26.7707 1.48413 -1.16701 0
M  V30 300 O 26.1277 1.81507 -0.190087 0
M  V30 301 C 26.1787 0.794014 -3.52672 0
M  V30 302 O 25.8997 -0.317564 -4.36948 0
M  V30 303 C 27.4007 1.47605 -4.18004 0
M  V30 304 H 24.6207 0.0726272 -0.667058 0
M  V30 305 H 27.1647 -0.425401 -2.00026 0
M  V30 306 H 25.3197 1.49593 -3.57352 0
M  V30 307 H 25.7337 0.0443186 -5.24481 0
M  V30 308 H 27.2077 1.75447 -5.23376 0
M  V30 309 H 27.6847 2.41224 -3.67025 0
M  V30 310 H 28.2907 0.81762 -4.17367 0
M  V30 311 N 26.6058 1.57591 -0.0167156 0
M  V30 312 C 28.0218 1.55946 0.339557 0
M  V30 313 C 28.2218 1.02109 1.73713 0
M  V30 314 O 27.2778 0.662303 2.43659 0
M  V30 315 C 28.5908 3.00037 0.199499 0
M  V30 316 C 30.1388 3.11805 0.273193 0
M  V30 317 C 30.6138 4.57713 0.162068 0
M  V30 318 N 32.1048 4.6268 0.219444 0
M  V30 319 C 32.8398 5.73185 0.157054 0
M  V30 320 N 32.3358 6.92786 0.0442936 0
M  V30 321 N 34.1288 5.61707 0.21014 0
M  V30 322 H 26.2798 1.90921 -0.930758 0
M  V30 323 H 28.5428 0.877674 -0.358319 0
M  V30 324 H 28.2488 3.4333 -0.76273 0
M  V30 325 H 28.1228 3.64387 0.974786 0
M  V30 326 H 30.5098 2.68433 1.22587 0
M  V30 327 H 30.5908 2.50201 -0.532256 0
M  V30 328 H 30.2348 5.01763 -0.78714 0
M  V30 329 H 30.1648 5.17283 0.986222 0
M  V30 330 H 32.6558 3.76649 0.307246 0
M  V30 331 H 32.9688 7.728 0.00304069 0
M  V30 332 H 31.3138 6.94999 0.00968457 0
M  V30 333 H 34.5048 4.6716 0.296546 0
M  V30 334 H 34.6778 6.47807 0.158054 0
M  V30 335 N 28.0839 -0.256276 1.55502 0
M  V30 336 C 29.3329 -0.983486 1.76098 0
M  V30 337 C 29.6459 -1.86837 0.578896 0
M  V30 338 O 30.8519 -2.63163 0.667648 0
M  V30 339 C 29.3079 -1.79868 3.1173 0
M  V30 340 C 28.9159 -0.961648 4.37557 0
M  V30 341 C 30.6599 -2.51919 3.41668 0
M  V30 342 C 28.5669 -1.77219 5.64223 0
M  V30 343 H 27.4969 -0.370936 0.656447 0
M  V30 344 H 30.1479 -0.238492 1.81944 0
M  V30 345 H 28.5299 -2.58527 2.99966 0
M  V30 346 H 29.7039 -0.218048 4.60284 0
M  V30 347 H 28.0189 -0.354913 4.14885 0
M  V30 348 H 30.6159 -3.12998 4.33516 0
M  V30 349 H 30.9589 -3.23059 2.62562 0
M  V30 350 H 31.4919 -1.80278 3.54605 0
M  V30 351 H 28.2309 -1.10471 6.46124 0
M  V30 352 H 27.7509 -2.49132 5.45613 0
M  V30 353 H 29.4299 -2.34169 6.03137 0
M  V30 354 N 29.562 -1.4872 -0.521534 0
M  V30 355 C 30.525 -1.63379 -1.60748 0
M  V30 356 C 31.525 -0.50661 -1.52611 0
M  V30 357 O 32.715 -0.772601 -1.5613 0
M  V30 358 C 29.847 -1.61192 -3.00383 0
M  V30 359 H 31.04 -2.60217 -1.49087 0
M  V30 360 H 28.593 -1.37444 -0.744235 0
M  V30 361 H 29.328 -0.65863 -3.17541 0
M  V30 362 H 29.113 -2.43032 -3.07698 0
M  V30 363 H 30.603 -1.7466 -3.7932 0
M  V30 364 N 31.0401 0.771051 -1.3745 0
M  V30 365 C 32.2651 1.56529 -1.36065 0
M  V30 366 C 32.6901 1.88029 0.0515859 0
M  V30 367 O 32.0481 1.49282 1.02882 0
M  V30 368 C 32.0961 2.85187 -2.20683 0
M  V30 369 O 31.2001 3.79593 -1.61193 0
M  V30 370 H 30.5411 0.47411 -0.464883 0
M  V30 371 H 33.0711 0.954269 -1.80983 0
M  V30 372 H 33.0811 3.34283 -2.33921 0
M  V30 373 H 31.7561 2.61588 -3.23334 0
M  V30 374 H 30.3331 3.38239 -1.56999 0
M  V30 375 N 32.5182 1.22032 0.997298 0
M  V30 376 C 33.7462 1.06841 1.7718 0
M  V30 377 C 34.1612 -0.381325 1.84909 0
M  V30 378 O 33.5182 -1.26437 1.31605 0
M  V30 379 C 33.5692 1.66814 3.20711 0
M  V30 380 O 33.2902 3.06116 3.13408 0
M  V30 381 C 34.7912 1.56838 4.14628 0
M  V30 382 H 32.0112 0.374782 0.556578 0
M  V30 383 H 34.5552 1.61532 1.2541 0
M  V30 384 H 32.7102 1.16196 3.69564 0
M  V30 385 H 33.1242 3.34926 4.0364 0
M  V30 386 H 34.5982 2.03532 5.13107 0
M  V30 387 H 35.0752 0.524155 4.36061 0
M  V30 388 H 35.6812 2.06741 3.7167 0
M  V30 389 N 33.9963 -1.19345 1.0293 0
M  V30 390 C 35.2453 -1.88363 0.721256 0
M  V30 391 C 35.5583 -1.80514 -0.753254 0
M  V30 392 O 36.7643 -2.44788 -1.17436 0
M  V30 393 C 35.2203 -3.37872 1.23978 0
M  V30 394 C 34.8283 -3.54278 2.74211 0
M  V30 395 C 36.5723 -4.12365 1.00775 0
M  V30 396 C 34.4793 -4.97682 3.19479 0
M  V30 397 H 33.4093 -0.705484 0.266098 0
M  V30 398 H 36.0603 -1.34928 1.24365 0
M  V30 399 H 34.4423 -3.90707 0.6453 0
M  V30 400 H 35.6163 -3.11769 3.39318 0
M  V30 401 H 33.9313 -2.93174 2.95699 0
M  V30 402 H 36.5283 -5.18119 1.32123 0
M  V30 403 H 36.8713 -4.16263 -0.0554308 0
M  V30 404 H 37.4043 -3.65668 1.56625 0
M  V30 405 H 34.1433 -4.98945 4.25128 0
M  V30 406 H 33.6633 -5.4095 2.591 0
M  V30 407 H 35.3423 -5.66337 3.12845 0
M  V30 408 N 35.4744 -0.807222 -1.35358 0
M  V30 409 C 36.8854 -0.44876 -1.81226 0
M  V30 410 C 37.2364 1.02929 -1.67033 0
M  V30 411 O 36.3614 1.79991 -1.20133 0
M  V30 412 C 36.9564 -0.807774 -3.2903 0
M  V30 413 C 35.5154 -0.501901 -3.73039 0
M  V30 414 C 34.6624 -1.03304 -2.57339 0
M  V30 415 H 37.6134 -0.998808 -1.23327 0
M  V30 416 H 37.6344 -0.10554 -3.80354 0
M  V30 417 H 37.1464 -1.88357 -3.39328 0
M  V30 418 H 35.2474 0.565128 -3.68289 0
M  V30 419 H 35.3604 -1.03497 -4.67787 0
M  V30 420 H 33.7244 -0.455339 -2.50597 0
M  V30 421 H 34.5074 -2.11496 -2.70415 0
M  V30 422 N 36.9525 1.47285 -0.560781 0
M  V30 423 C 38.3635 1.86258 -0.128343 0
M  V30 424 C 38.7145 1.46699 1.30284 0
M  V30 425 O 37.8395 0.871698 1.98067 0
M  V30 426 C 38.4345 3.38044 -0.22614 0
M  V30 427 C 36.9935 3.76096 0.151283 0
M  V30 428 C 36.1405 2.71335 -0.572084 0
M  V30 429 H 39.0915 1.38752 -0.770297 0
M  V30 430 H 39.1125 3.76441 0.554322 0
M  V30 431 H 38.6245 3.66806 -1.26788 0
M  V30 432 H 36.7255 3.52951 1.19399 0
M  V30 433 H 36.8385 4.78641 -0.209765 0
M  V30 434 H 35.2025 2.54696 -0.0147653 0
M  V30 435 H 35.9855 3.02938 -1.61504 0
M  V30 436 N 38.4306 0.297415 1.54768 0
M  V30 437 C 39.3806 -0.595275 2.20092 0
M  V30 438 C 40.3646 -1.10163 1.17273 0
M  V30 439 O 41.5566 -1.043 1.43006 0
M  V30 440 C 38.6856 -1.7684 2.94249 0
M  V30 441 C 37.7716 -1.27818 4.0438 0
M  V30 442 N 38.1626 -0.505695 5.03266 0
M  V30 443 C 36.4606 -1.55923 4.17857 0
M  V30 444 C 37.1616 -0.245094 5.81183 0
M  V30 445 N 36.1376 -0.823881 5.3732 0
M  V30 446 H 39.9396 0.00250837 2.939 0
M  V30 447 H 37.4536 0.102007 1.62079 0
M  V30 448 H 39.4506 -2.41944 3.39513 0
M  V30 449 H 38.1106 -2.36992 2.21957 0
M  V30 450 H 39.1216 -0.150928 5.1768 0
M  V30 451 H 35.7986 -2.16849 3.56767 0
M  V30 452 H 37.1886 0.375084 6.70852 0
M  V30 453 N 39.9087 -1.5758 0.0250728 0
M  V30 454 C 41.1547 -1.91917 -0.655413 0
M  V30 455 C 41.4877 -0.901433 -1.72011 0
M  V30 456 O 40.7627 0.0764069 -1.9435 0
M  V30 457 C 41.0457 -3.36751 -1.27558 0
M  V30 458 C 40.8987 -4.49258 -0.220719 0
M  V30 459 C 42.2177 -3.81469 -2.19475 0
M  V30 460 H 39.3367 -0.697925 -0.23679 0
M  V30 461 H 41.9787 -1.89825 0.0815036 0
M  V30 462 H 40.1287 -3.38664 -1.90365 0
M  V30 463 H 41.8007 -4.59478 0.409601 0
M  V30 464 H 40.0437 -4.31415 0.454264 0
M  V30 465 H 40.7147 -5.47618 -0.694175 0
M  V30 466 H 43.1907 -3.81266 -1.66659 0
M  V30 467 H 42.0667 -4.83512 -2.59822 0
M  V30 468 H 42.3277 -3.16744 -3.08424 0
M  V30 469 N 41.3868 0.248026 -1.55636 0
M  V30 470 C 42.3188 1.32993 -1.8667 0
M  V30 471 C 43.3318 1.44345 -0.752877 0
M  V30 472 O 44.5208 1.45715 -1.03098 0
M  V30 473 C 41.6208 2.70863 -2.03682 0
M  V30 474 C 40.7938 2.81792 -3.34532 0
M  V30 475 C 39.8528 4.005 -3.41301 0
M  V30 476 O 38.8788 3.9008 -4.14519 0
M  V30 477 N 40.0808 5.13618 -2.70512 0
M  V30 478 H 42.8458 1.06707 -2.8006 0
M  V30 479 H 40.4068 0.438129 -1.55859 0
M  V30 480 H 42.3988 3.48612 -2.05553 0
M  V30 481 H 40.9688 2.89862 -1.17041 0
M  V30 482 H 40.1888 1.90729 -3.44987 0
M  V30 483 H 41.4768 2.86043 -4.20781 0
M  V30 484 H 40.8748 5.24975 -2.10755 0
M  V30 485 H 39.4318 5.89505 -2.78077 0
M  V30 486 N 42.8649 1.48995 0.513639 0
M  V30 487 C 43.8119 1.6473 1.61656 0
M  V30 488 C 44.7819 0.488984 1.58739 0
M  V30 489 O 45.9669 0.714478 1.76918 0
M  V30 490 C 43.1069 1.7082 2.99858 0
M  V30 491 C 42.2199 2.9787 3.12885 0
M  V30 492 C 41.3549 2.95017 4.41744 0
M  V30 493 C 40.3939 4.16702 4.48359 0
M  V30 494 N 39.5309 4.11832 5.68629 0
M  V30 495 H 44.3709 2.58909 1.47547 0
M  V30 496 H 41.9079 1.28382 0.71808 0
M  V30 497 H 43.8659 1.72331 3.79944 0
M  V30 498 H 42.4959 0.801181 3.12699 0
M  V30 499 H 41.5479 3.06029 2.25944 0
M  V30 500 H 42.8599 3.8786 3.13633 0
M  V30 501 H 42.0139 2.95021 5.30139 0
M  V30 502 H 40.7529 2.02784 4.43542 0
M  V30 503 H 39.7579 4.16955 3.58369 0
M  V30 504 H 40.9829 5.10113 4.48287 0
M  V30 505 H 38.9289 3.22428 5.71293 0
M  V30 506 H 38.8459 4.95543 5.7094 0
M  V30 507 H 40.1139 4.1592 6.59266 0
M  V30 508 N 44.343 -0.763751 1.37857 0
M  V30 509 C 45.568 -1.55805 1.36893 0
M  V30 510 C 45.993 -1.88054 -0.0416135 0
M  V30 511 O 45.351 -1.49825 -1.02089 0
M  V30 512 C 45.399 -2.84012 2.22192 0
M  V30 513 O 44.503 -3.78732 1.63204 0
M  V30 514 H 43.844 -0.471638 0.46739 0
M  V30 515 H 46.374 -0.944657 1.81487 0
M  V30 516 H 46.384 -3.33037 2.35691 0
M  V30 517 H 45.059 -2.59869 3.24716 0
M  V30 518 H 43.636 -3.37402 1.58791 0
M  V30 519 N 45.8211 -1.22559 -0.990812 0
M  V30 520 C 47.0671 -1.05297 -1.73322 0
M  V30 521 C 47.4001 0.410655 -1.89808 0
M  V30 522 O 46.6751 1.30439 -1.44277 0
M  V30 523 C 46.9581 -1.76713 -3.13759 0
M  V30 524 C 46.8111 -3.30684 -3.04907 0
M  V30 525 C 48.1301 -1.52121 -4.12974 0
M  V30 526 H 45.2491 -0.38392 -0.629106 0
M  V30 527 H 47.8911 -1.50926 -1.15418 0
M  V30 528 H 46.0411 -1.37924 -3.63193 0
M  V30 529 H 47.7131 -3.7893 -2.63077 0
M  V30 530 H 45.9561 -3.60253 -2.41661 0
M  V30 531 H 46.6271 -3.75833 -4.04294 0
M  V30 532 H 49.1031 -1.85819 -3.72304 0
M  V30 533 H 47.9791 -2.04582 -5.0935 0
M  V30 534 H 48.2401 -0.454257 -4.3976 0
M  V30 535 N 47.2992 1.18797 -1.03562 0
M  V30 536 C 48.2472 2.24297 -0.615905 0
M  V30 537 C 49.2412 1.65643 0.354808 0
M  V30 538 O 50.4472 1.78618 0.22265 0
M  V30 539 H 46.8222 0.729909 -0.180934 0
M  V30 540 H 48.7932 2.5701 -1.5162 0
M  V30 541 C 47.5422 3.47698 0.0104735 0
M  V30 542 H 46.8652 3.93125 -0.727509 0
M  V30 543 H 48.3052 4.23159 0.266995 0
M  V30 544 C 46.7642 3.12489 1.25905 0
M  V30 545 O 47.2942 3.25761 2.35038 0
M  V30 546 N 45.5002 2.6686 1.15039 0
M  V30 547 H 45.0472 2.56261 0.262328 0
M  V30 548 H 45.0052 2.43674 1.98672 0
M  V30 549 N 48.7773 0.814389 1.34928 0
M  V30 550 C 49.7253 0.218424 2.31572 0
M  V30 551 C 50.7193 -0.636128 1.57002 0
M  V30 552 O 51.9253 -0.52842 1.72069 0
M  V30 553 H 48.3003 0.0518799 0.750208 0
M  V30 554 H 50.2713 1.04852 2.79372 0
M  V30 555 C 49.0203 -0.61207 3.4227 0
M  V30 556 H 48.3433 0.0361578 3.99784 0
M  V30 557 H 49.7833 -0.995317 4.12152 0
M  V30 558 C 48.2423 -1.78087 2.85984 0
M  V30 559 O 48.7723 -2.8787 2.80168 0
M  V30 560 N 46.9783 -1.59488 2.42924 0
M  V30 561 H 46.5253 -0.701874 2.47854 0
M  V30 562 H 46.4833 -2.37846 2.05613 0
M  V30 563 N 50.2554 -1.46986 0.568584 0
M  V30 564 C 51.5324 -1.95592 -0.0174074 0
M  V30 565 C 51.9124 -1.51124 -1.47393 0
M  V30 566 O 51.2604 -0.755329 -2.15655 0
M  V30 567 C 51.4704 -3.48719 0.139913 0
M  V30 568 C 52.8184 -4.246 0.000426376 0
M  V30 569 O 53.8424 -3.56135 0.0680316 0
M  V30 570 O 52.7014 -5.46302 -0.146988 0
M  V30 571 H 49.7954 -0.82498 -0.0577599 0
M  V30 572 H 52.3414 -1.57335 0.635909 0
M  V30 573 H 51.1134 -3.73927 1.15301 0
M  V30 574 H 50.7364 -3.93771 -0.550491 0
M  V30 575 N 51.7335 -0.305618 -1.54608 0
M  V30 576 C 52.6665 0.610536 -2.19881 0
M  V30 577 C 53.6445 1.1294 -1.16976 0
M  V30 578 O 54.8285 1.19673 -1.45638 0
M  V30 579 C 51.9555 1.83583 -2.84631 0
M  V30 580 C 51.0015 1.4498 -4.01102 0
M  V30 581 S 51.8345 0.501793 -5.33144 0
M  V30 582 C 52.9905 1.73478 -6.01379 0
M  V30 583 H 53.2235 0.0560177 -2.97247 0
M  V30 584 H 50.7565 -0.0897434 -1.54139 0
M  V30 585 H 52.7145 2.53898 -3.22562 0
M  V30 586 H 51.3755 2.36152 -2.07102 0
M  V30 587 H 50.5685 2.36236 -4.45206 0
M  V30 588 H 50.1705 0.826553 -3.64752 0
M  V30 589 H 52.4625 2.67473 -6.22467 0
M  V30 590 H 53.4055 1.33622 -6.95378 0
M  V30 591 H 53.8135 1.9136 -5.31076 0
M  V30 592 N 53.2116 1.57565 -0.0334293 0
M  V30 593 C 54.4606 1.91155 0.643639 0
M  V30 594 C 54.7736 0.91192 1.73042 0
M  V30 595 O 55.9796 1.13923 2.46442 0
M  V30 596 C 54.4356 3.39443 1.1961 0
M  V30 597 C 54.0436 4.47774 0.142381 0
M  V30 598 C 55.7876 3.82094 1.84944 0
M  V30 599 C 53.6946 5.87162 0.706727 0
M  V30 600 H 52.6246 0.713368 0.244176 0
M  V30 601 H 55.2756 1.8323 -0.0994323 0
M  V30 602 H 53.6576 3.42313 1.99092 0
M  V30 603 H 54.8316 4.56469 -0.630296 0
M  V30 604 H 53.1466 4.14352 -0.412446 0
M  V30 605 H 55.7436 4.83591 2.2813 0
M  V30 606 H 56.0866 3.17386 2.69392 0
M  V30 607 H 56.6196 3.81665 1.12145 0
M  V30 608 H 53.3586 6.55424 -0.0997178 0
M  V30 609 H 52.8786 5.82064 1.44779 0
M  V30 610 H 54.5576 6.35866 1.19514 0
M  V30 611 N 54.6897 -0.239769 1.55765 0
M  V30 612 C 55.9357 -0.968234 1.78194 0
M  V30 613 C 56.2687 -1.84701 0.599938 0
M  V30 614 O 55.5437 -1.9031 -0.401524 0
M  V30 615 C 55.8267 -1.8227 3.10564 0
M  V30 616 C 55.6797 -0.971633 4.3918 0
M  V30 617 C 56.9987 -2.80388 3.39221 0
M  V30 618 H 54.1177 -0.350572 0.648281 0
M  V30 619 H 56.7597 -0.238259 1.885 0
M  V30 620 H 54.9097 -2.44507 3.01908 0
M  V30 621 H 56.5817 -0.367408 4.59835 0
M  V30 622 H 54.8247 -0.276276 4.32919 0
M  V30 623 H 55.4957 -1.60346 5.28198 0
M  V30 624 H 57.9717 -2.28287 3.47885 0
M  V30 625 H 56.8477 -3.3729 4.33044 0
M  V30 626 H 57.1087 -3.57212 2.60484 0
M  V30 627 N 56.1678 -1.49265 -0.50573 0
M  V30 628 C 57.3958 -1.62215 -1.28429 0
M  V30 629 C 57.8108 -0.291697 -1.86533 0
M  V30 630 O 57.1678 0.722233 -1.67601 0
M  V30 631 C 57.2188 -2.68735 -2.41793 0
M  V30 632 O 56.9398 -3.96619 -1.86078 0
M  V30 633 C 58.4408 -2.92346 -3.3324 0
M  V30 634 H 55.6608 -0.546239 -0.389697 0
M  V30 635 H 58.2048 -1.95265 -0.607609 0
M  V30 636 H 56.3598 -2.38476 -3.053 0
M  V30 637 H 56.7738 -4.55256 -2.60465 0
M  V30 638 H 58.2478 -3.70623 -4.09075 0
M  V30 639 H 58.7248 -2.02081 -3.89948 0
M  V30 640 H 59.3308 -3.24003 -2.75503 0
M  V30 641 N 57.6459 0.756429 -1.3826 0
M  V30 642 C 58.9229 1.50584 -1.24835 0
M  V30 643 C 59.3029 2.10556 0.151485 0
M  V30 644 O 58.6509 1.96825 1.1607 0
M  V30 645 C 58.8609 2.57448 -2.3563 0
M  V30 646 C 60.2089 3.24429 -2.73917 0
M  V30 647 O 61.2329 2.67751 -2.34921 0
M  V30 648 O 60.0919 4.26937 -3.41156 0
M  V30 649 H 57.1859 0.667664 -0.48801 0
M  V30 650 H 59.7319 0.792083 -1.5008 0
M  V30 651 H 58.5039 2.11362 -3.29305 0
M  V30 652 H 58.1269 3.36408 -2.11933 0
M  V30 653 N 59.124 1.23083 0.984299 0
M  V30 654 C 60.072 1.00593 2.09723 0
M  V30 655 C 61.066 -0.0538014 1.69315 0
M  V30 656 O 62.272 0.0993719 1.79725 0
M  V30 657 H 58.647 0.30817 0.685956 0
M  V30 658 H 60.618 1.95012 2.2586 0
M  V30 659 C 59.367 0.609601 3.42314 0
M  V30 660 H 58.69 1.41675 3.73856 0
M  V30 661 H 60.13 0.491726 4.21139 0
M  V30 662 C 58.589 -0.681745 3.2993 0
M  V30 663 O 59.119 -1.73192 3.62446 0
M  V30 664 N 57.325 -0.656178 2.83095 0
M  V30 665 H 56.872 0.198759 2.56832 0
M  V30 666 H 56.83 -1.52044 2.75191 0
M  V30 667 N 60.6021 -1.18246 1.0419 0
M  V30 668 C 61.5501 -2.23968 0.627792 0
M  V30 669 C 62.5441 -1.65828 -0.346019 0
M  V30 670 O 63.7501 -1.78733 -0.213175 0
M  V30 671 H 60.1251 -0.728939 0.184802 0
M  V30 672 H 62.0961 -2.56202 1.52981 0
M  V30 673 C 60.8451 -3.47699 0.00796591 0
M  V30 674 H 60.1681 -3.92734 0.748347 0
M  V30 675 H 61.6081 -4.23294 -0.24455 0
M  V30 676 C 60.0671 -3.13153 -1.24246 0
M  V30 677 O 60.5971 -3.27003 -2.33307 0
M  V30 678 N 58.8031 -2.67467 -1.13622 0
M  V30 679 H 58.3501 -2.56396 -0.248734 0
M  V30 680 H 58.3081 -2.44724 -1.97377 0
M  V30 681 N 62.0802 -0.821533 -1.34494 0
M  V30 682 C 63.3282 -0.408139 -1.97936 0
M  V30 683 C 63.6492 1.03193 -1.65457 0
M  V30 684 O 62.9192 1.71622 -0.944595 0
M  V30 685 H 61.4992 -0.147928 -0.732206 0
M  V30 686 H 64.1612 -1.05067 -1.64155 0
M  V30 687 H 63.2572 -0.52601 -3.07635 0
M  V30 688 N 63.5583 1.46682 -0.576371 0
M  V30 689 C 64.5213 2.28707 0.150239 0
M  V30 690 C 65.5213 1.38035 0.824794 0
M  V30 691 O 66.7113 1.60476 0.677719 0
M  V30 692 C 63.8433 3.18248 1.22192 0
M  V30 693 H 65.0363 2.94423 -0.570521 0
M  V30 694 H 62.5893 1.52688 -0.334078 0
M  V30 695 H 63.3243 2.57265 1.97447 0
M  V30 696 H 63.1093 3.85 0.742812 0
M  V30 697 H 64.5993 3.80001 1.73172 0
M  V30 698 N 65.0364 0.313813 1.54444 0
M  V30 699 C 66.2824 -0.292108 2.00685 0
M  V30 700 C 66.6154 -1.52548 1.20177 0
M  V30 701 O 65.8904 -1.92452 0.281531 0
M  V30 702 C 66.1734 -0.635968 3.5444 0
M  V30 703 C 66.0264 0.607437 4.4568 0
M  V30 704 C 67.3454 -1.45747 4.15266 0
M  V30 705 H 64.4644 -0.104697 0.729526 0
M  V30 706 H 67.1064 0.428457 1.85106 0
M  V30 707 H 65.2564 -1.24986 3.67846 0
M  V30 708 H 66.9284 1.24581 4.44159 0
M  V30 709 H 65.1714 1.23822 4.15753 0
M  V30 710 H 65.8424 0.322515 5.51057 0
M  V30 711 H 68.3184 -0.938645 4.05375 0
M  V30 712 H 67.1944 -1.66683 5.2298 0
M  V30 713 H 67.4554 -2.45063 3.67963 0
M  V30 714 N 66.5145 -1.57545 0.0417849 0
M  V30 715 C 67.4615 -2.10977 -0.935805 0
M  V30 716 C 68.4315 -1.01486 -1.31491 0
M  V30 717 O 69.6165 -1.2898 -1.40602 0
M  V30 718 C 66.7565 -2.65169 -2.2086 0
M  V30 719 C 65.8695 -3.88714 -1.88482 0
M  V30 720 C 65.0045 -4.31254 -3.1015 0
M  V30 721 C 64.0435 -5.47524 -2.7365 0
M  V30 722 N 63.1805 -5.85162 -3.87982 0
M  V30 723 H 68.0205 -2.94218 -0.473249 0
M  V30 724 H 65.5575 -1.45415 -0.221981 0
M  V30 725 H 67.5155 -2.94685 -2.95325 0
M  V30 726 H 66.1455 -1.8474 -2.64709 0
M  V30 727 H 65.1975 -3.65849 -1.04205 0
M  V30 728 H 66.5095 -4.73245 -1.57608 0
M  V30 729 H 65.6635 -4.62273 -3.92923 0
M  V30 730 H 64.4025 -3.45516 -3.44195 0
M  V30 731 H 63.4075 -5.16187 -1.89291 0
M  V30 732 H 64.6325 -6.34971 -2.40807 0
M  V30 733 H 62.5785 -5.02377 -4.21846 0
M  V30 734 H 62.4955 -6.64362 -3.60775 0
M  V30 735 H 63.7635 -6.20791 -4.71422 0
M  V30 736 N 67.9926 0.231505 -1.5589 0
M  V30 737 C 69.2396 0.957352 -1.78441 0
M  V30 738 C 69.5676 1.84726 -0.60882 0
M  V30 739 O 68.8226 1.91416 0.40725 0
M  V30 740 C 69.1216 1.83577 -3.0665 0
M  V30 741 C 68.7876 1.09993 -4.37278 0
M  V30 742 C 67.4496 0.896629 -4.72773 0
M  V30 743 C 69.8016 0.579558 -5.17968 0
M  V30 744 C 67.1296 0.160896 -5.86479 0
M  V30 745 C 69.4816 -0.142783 -6.32439 0
M  V30 746 C 68.1456 -0.357427 -6.66542 0
M  V30 747 H 67.4156 0.35032 -0.65296 0
M  V30 748 H 70.0626 0.226259 -1.90159 0
M  V30 749 H 68.3676 2.63441 -2.90011 0
M  V30 750 H 70.0646 2.39934 -3.21298 0
M  V30 751 H 66.6546 1.26835 -4.09403 0
M  V30 752 H 70.8386 0.724125 -4.90989 0
M  V30 753 H 66.0946 -0.0157293 -6.11398 0
M  V30 754 H 70.2686 -0.553559 -6.94196 0
M  V30 755 H 67.8956 -0.929466 -7.54497 0
M  V30 756 N 69.4707 1.49531 0.497807 0
M  V30 757 C 70.8817 1.52344 1.07927 0
M  V30 758 C 71.2327 0.311469 1.93712 0
M  V30 759 O 70.3577 -0.578405 2.08527 0
M  V30 760 C 70.9527 2.76062 1.96405 0
M  V30 761 C 69.5117 2.81643 2.49709 0
M  V30 762 C 68.6587 2.46299 1.27404 0
M  V30 763 H 71.6097 1.56182 0.281576 0
M  V30 764 H 71.6307 2.56405 2.81135 0
M  V30 765 H 71.1427 3.64254 1.33943 0
M  V30 766 H 69.2437 1.97739 3.15801 0
M  V30 767 H 69.3567 3.83891 2.86643 0
M  V30 768 H 67.7207 1.98148 1.60029 0
M  V30 769 H 68.5037 3.36769 0.66645 0
M  V30 770 N 70.9488 -0.749086 1.3866 0
M  V30 771 C 71.8808 -1.87273 1.32142 0
M  V30 772 C 72.8938 -1.61127 0.232787 0
M  V30 773 O 74.0828 -1.71623 0.49069 0
M  V30 774 C 71.1828 -3.23005 1.02571 0
M  V30 775 C 70.3558 -3.7662 2.22433 0
M  V30 776 C 69.4148 -4.90879 1.89537 0
M  V30 777 O 68.4408 -5.05276 2.62078 0
M  V30 778 N 69.6428 -5.74198 0.853031 0
M  V30 779 H 72.4078 -1.93373 2.28969 0
M  V30 780 H 69.9688 -0.929216 1.32579 0
M  V30 781 H 71.9608 -3.96992 0.786085 0
M  V30 782 H 70.5308 -3.12262 0.145249 0
M  V30 783 H 69.7508 -2.94147 2.62434 0
M  V30 784 H 71.0388 -4.09173 3.02415 0
M  V30 785 H 70.4368 -5.6514 0.25155 0
M  V30 786 H 68.9938 -6.48313 0.67329 0
M  V30 787 N 72.4269 -1.23603 -0.977757 0
M  V30 788 C 73.3569 -1.04401 -2.0886 0
M  V30 789 C 74.3379 0.0399052 -1.70053 0
M  V30 790 O 75.5229 -0.125246 -1.93796 0
M  V30 791 C 72.6529 -0.637269 -3.41403 0
M  V30 792 C 71.6069 -1.66883 -3.94124 0
M  V30 793 C 70.9329 -1.11745 -5.22893 0
M  V30 794 C 72.2329 -3.06247 -4.23096 0
M  V30 795 H 73.9269 -1.97316 -2.25182 0
M  V30 796 H 71.4729 -0.950096 -1.08209 0
M  V30 797 H 73.4259 -0.48998 -4.18542 0
M  V30 798 H 72.1499 0.327557 -3.24953 0
M  V30 799 H 70.8089 -1.80416 -3.19133 0
M  V30 800 H 70.4569 -0.143527 -5.02795 0
M  V30 801 H 70.1569 -1.80672 -5.59134 0
M  V30 802 H 71.6809 -0.982067 -6.02651 0
M  V30 803 H 73.0949 -2.96001 -4.90975 0
M  V30 804 H 71.4919 -3.72436 -4.70544 0
M  V30 805 H 72.5619 -3.55041 -3.30263 0
M  V30 806 N 73.905 1.17692 -1.04816 0
M  V30 807 C 75.145 1.89545 -0.764979 0
M  V30 808 C 75.509 1.78979 0.695028 0
M  V30 809 O 76.71 2.45613 1.09215 0
M  V30 810 C 74.981 3.35659 -1.22751 0
M  V30 811 S 76.54 4.25526 -1.07112 0
M  V30 812 H 73.358 0.654432 -0.27792 0
M  V30 813 H 75.96 1.42163 -1.34201 0
M  V30 814 H 74.664 3.40882 -2.28533 0
M  V30 815 H 74.195 3.88083 -0.644594 0
M  V30 816 H 76.21 4.962 0.00697508 0
M  V30 817 N 75.3831 0.828654 1.34056 0
M  V30 818 C 76.3301 0.252567 2.29414 0
M  V30 819 C 77.3001 -0.62588 1.53857 0
M  V30 820 O 78.4851 -0.566312 1.82202 0
M  V30 821 C 75.6251 -0.574831 3.40279 0
M  V30 822 C 74.7381 0.326499 4.30764 0
M  V30 823 C 73.8731 -0.511016 5.28736 0
M  V30 824 C 72.9121 0.389342 6.1086 0
M  V30 825 N 72.0491 -0.409439 7.00905 0
M  V30 826 H 76.8891 1.07108 2.78086 0
M  V30 827 H 74.4261 0.539677 1.36843 0
M  V30 828 H 76.3841 -1.06992 4.03248 0
M  V30 829 H 75.0141 -1.35841 2.92826 0
M  V30 830 H 74.0661 0.939837 3.68607 0
M  V30 831 H 75.3781 1.01857 4.88289 0
M  V30 832 H 74.5321 -1.07035 5.97184 0
M  V30 833 H 73.2711 -1.23657 4.71763 0
M  V30 834 H 72.2761 0.960769 5.4134 0
M  V30 835 H 73.5011 1.1131 6.69916 0
M  V30 836 H 71.4471 -1.11856 6.46393 0
M  V30 837 H 71.3641 0.224126 7.55668 0
M  V30 838 H 72.6321 -0.951336 7.73673 0
M  V30 839 N 76.8612 -1.46375 0.584142 0
M  V30 840 C 78.1082 -2.02378 0.0702675 0
M  V30 841 C 78.4362 -1.45545 -1.29023 0
M  V30 842 O 77.6912 -0.610967 -1.85918 0
M  V30 843 C 77.9902 -3.57373 -0.0439342 0
M  V30 844 C 77.6562 -4.33252 1.24915 0
M  V30 845 C 76.3182 -4.53701 1.60341 0
M  V30 846 C 78.6702 -4.7681 2.1048 0
M  V30 847 C 75.9982 -5.1496 2.81128 0
M  V30 848 C 78.3502 -5.39404 3.30494 0
M  V30 849 C 77.0142 -5.5808 3.66201 0
M  V30 850 H 76.2842 -0.740554 0.0257127 0
M  V30 851 H 78.9312 -1.75727 0.761065 0
M  V30 852 H 77.2362 -3.83169 -0.817869 0
M  V30 853 H 78.9332 -3.98384 -0.457318 0
M  V30 854 H 75.5232 -4.17633 0.963364 0
M  V30 855 H 79.7072 -4.60766 1.84414 0
M  V30 856 H 74.9632 -5.27611 3.08928 0
M  V30 857 H 79.1372 -5.72114 3.97063 0
M  V30 858 H 76.7642 -6.05318 4.59885 0
M  V30 859 N 78.3393 -0.321999 -1.54275 0
M  V30 860 C 79.5793 0.281657 -2.0245 0
M  V30 861 C 79.9433 1.49468 -1.20513 0
M  V30 862 O 81.1443 2.17109 -1.58484 0
M  V30 863 C 79.4153 0.609014 -3.52173 0
M  V30 864 S 80.9743 1.19255 -4.22284 0
M  V30 865 H 77.7923 0.0852825 -0.705867 0
M  V30 866 H 80.3943 -0.454758 -1.90137 0
M  V30 867 H 79.0983 -0.281982 -4.0943 0
M  V30 868 H 78.6293 1.37567 -3.68563 0
M  V30 869 H 80.6443 2.47944 -4.29812 0
M  V30 870 N 79.8174 1.5752 -0.0501392 0
M  V30 871 C 81.0944 1.83996 0.663685 0
M  V30 872 C 81.4744 0.938339 1.89099 0
M  V30 873 O 80.8224 -0.00087759 2.285 0
M  V30 874 C 81.0324 3.33702 1.02196 0
M  V30 875 C 82.3804 4.00691 1.40469 0
M  V30 876 O 83.4044 3.38321 1.11433 0
M  V30 877 O 82.2634 5.10658 1.94654 0
M  V30 878 H 79.3574 0.759385 0.32751 0
M  V30 879 H 81.9034 1.69514 -0.0794238 0
M  V30 880 H 80.6754 3.91015 0.149364 0
M  V30 881 H 80.2984 3.53368 1.82255 0
M  V30 882 N 81.2955 -0.223234 1.56011 0
M  V30 883 C 82.5415 -0.949279 1.79211 0
M  V30 884 C 82.8745 -1.84054 0.619494 0
M  V30 885 O 82.1495 -1.90726 -0.381317 0
M  V30 886 C 82.4325 -1.78965 3.12479 0
M  V30 887 C 82.2855 -0.924997 4.40186 0
M  V30 888 C 83.6045 -2.76774 3.42175 0
M  V30 889 H 80.7235 -0.343676 0.651963 0
M  V30 890 H 83.3655 -0.218253 1.88742 0
M  V30 891 H 81.5155 -2.41291 3.04485 0
M  V30 892 H 83.1875 -0.318615 4.60198 0
M  V30 893 H 81.4305 -0.230344 4.33188 0
M  V30 894 H 82.1015 -1.54735 5.29869 0
M  V30 895 H 84.5775 -2.24584 3.50287 0
M  V30 896 H 83.4535 -3.32678 4.36597 0
M  V30 897 H 83.7145 -3.54429 2.64258 0
M  V30 898 N 82.7736 -1.49793 -0.48987 0
M  V30 899 C 84.1896 -1.36803 -0.822022 0
M  V30 900 C 84.3896 -0.409652 -1.97292 0
M  V30 901 O 83.4456 0.154614 -2.52026 0
M  V30 902 C 84.7586 -2.77768 -1.15175 0
M  V30 903 C 86.3066 -2.86549 -1.25931 0
M  V30 904 C 86.7816 -4.28306 -1.62228 0
M  V30 905 N 88.2726 -4.31169 -1.69256 0
M  V30 906 C 89.0076 -5.37832 -1.98807 0
M  V30 907 N 88.5036 -6.54726 -2.26507 0
M  V30 908 N 90.2966 -5.25258 -2.00152 0
M  V30 909 H 82.4476 -2.10691 0.268881 0
M  V30 910 H 84.7106 -0.946241 0.057728 0
M  V30 911 H 84.4166 -3.49648 -0.379335 0
M  V30 912 H 84.2906 -3.13836 -2.09253 0
M  V30 913 H 86.6776 -2.14899 -2.02243 0
M  V30 914 H 86.7586 -2.54049 -0.298776 0
M  V30 915 H 86.4026 -5.00486 -0.864622 0
M  V30 916 H 86.3326 -4.58279 -2.594 0
M  V30 917 H 88.8236 -3.4687 -1.49965 0
M  V30 918 H 89.1366 -7.31833 -2.48276 0
M  V30 919 H 87.4816 -6.57933 -2.23939 0
M  V30 920 H 90.6726 -4.32938 -1.77996 0
M  V30 921 H 90.8456 -6.08476 -2.22848 0
M  V30 922 N 84.2517 0.741722 -1.39055 0
M  V30 923 C 85.4987 1.50114 -1.35912 0
M  V30 924 C 85.8267 1.94443 0.0470937 0
M  V30 925 O 85.0817 1.66612 1.02659 0
M  V30 926 C 85.3807 2.7592 -2.27163 0
M  V30 927 C 85.0467 2.50493 -3.74919 0
M  V30 928 C 83.7087 2.43267 -4.1518 0
M  V30 929 C 86.0607 2.28585 -4.684 0
M  V30 930 C 83.3887 2.12166 -5.46994 0
M  V30 931 C 85.7407 1.99002 -6.00484 0
M  V30 932 C 84.4047 1.90241 -6.39816 0
M  V30 933 H 83.6747 0.549306 -0.497336 0
M  V30 934 H 86.3217 0.851896 -1.71508 0
M  V30 935 H 84.6267 3.45553 -1.84663 0
M  V30 936 H 86.3237 3.33923 -2.22028 0
M  V30 937 H 82.9137 2.56992 -3.43006 0
M  V30 938 H 87.0977 2.33139 -4.38132 0
M  V30 939 H 82.3537 2.03901 -5.76398 0
M  V30 940 H 86.5277 1.81057 -6.72452 0
M  V30 941 H 84.1547 1.65907 -7.41875 0
M  V30 942 N 85.7298 1.2412 0.971189 0
M  V30 943 C 86.9548 1.10667 1.75407 0
M  V30 944 C 87.3798 -0.337048 1.85056 0
M  V30 945 O 86.7378 -1.24396 1.31892 0
M  V30 946 C 86.7858 1.74726 3.15441 0
M  V30 947 O 85.8898 1.01566 3.99697 0
M  V30 948 H 85.2308 0.387341 0.539317 0
M  V30 949 H 87.7608 1.64358 1.2185 0
M  V30 950 H 87.7708 1.80341 3.6598 0
M  V30 951 H 86.4458 2.79773 3.07734 0
M  V30 952 H 85.0228 1.03713 3.58187 0
M  V30 953 N 87.2079 -1.17134 1.05439 0
M  V30 954 C 88.4359 -1.91372 0.786414 0
M  V30 955 C 88.8509 -1.76955 -0.658202 0
M  V30 956 O 88.2079 -1.10838 -1.44987 0
M  V30 957 C 88.2589 -3.42356 1.1608 0
M  V30 958 O 87.9799 -3.56332 2.54871 0
M  V30 959 C 89.4809 -4.33663 0.919322 0
M  V30 960 H 86.7009 -0.607118 0.285743 0
M  V30 961 H 89.2449 -1.48525 1.40572 0
M  V30 962 H 87.3999 -3.82939 0.586191 0
M  V30 963 H 87.8139 -4.49896 2.69618 0
M  V30 964 H 89.2879 -5.38099 1.231 0
M  V30 965 H 89.7649 -4.38959 -0.145359 0
M  V30 966 H 90.3709 -3.98796 1.47789 0
M  V30 967 N 88.686 -0.835752 -1.33615 0
M  V30 968 C 89.926 -0.43599 -1.99696 0
M  V30 969 C 90.29 0.98557 -1.64774 0
M  V30 970 O 91.491 1.48889 -2.23798 0
M  V30 971 C 89.762 -0.646721 -3.515 0
M  V30 972 S 91.321 -0.341715 -4.37467 0
M  V30 973 H 88.139 -0.164136 -0.691795 0
M  V30 974 H 90.741 -1.08436 -1.62671 0
M  V30 975 H 89.445 -1.68077 -3.74404 0
M  V30 976 H 88.976 0.0159173 -3.93397 0
M  V30 977 H 90.991 0.839708 -4.89043 0
M  V30 978 N 90.1641 1.46063 -0.591896 0
M  V30 979 C 91.4411 1.95595 -0.0137119 0
M  V30 980 C 91.8211 1.5345 1.4497 0
M  V30 981 O 91.1691 0.789543 2.14426 0
M  V30 982 C 91.3791 3.48453 -0.195373 0
M  V30 983 C 92.7271 4.24546 -0.0679765 0
M  V30 984 O 93.7511 3.55982 -0.124681 0
M  V30 985 O 92.6101 5.46467 0.0600579 0
M  V30 986 H 89.7041 0.825795 0.0446279 0
M  V30 987 H 92.2501 1.56303 -0.660859 0
M  V30 988 H 91.0221 3.72045 -1.21235 0
M  V30 989 H 90.6451 3.94597 0.487775 0
M  V30 990 N 91.6422 0.330177 1.54103 0
M  V30 991 C 92.5902 -0.548226 2.26047 0
M  V30 992 C 93.5842 -1.11309 1.27698 0
M  V30 993 O 94.7902 -1.06036 1.45452 0
M  V30 994 H 91.1652 -0.195456 0.726155 0
M  V30 995 H 93.1362 0.0807567 2.98291 0
M  V30 996 C 91.8852 -1.69415 3.03634 0
M  V30 997 H 91.2082 -1.26876 3.79134 0
M  V30 998 H 92.6482 -2.28423 3.5721 0
M  V30 999 C 91.1072 -2.61569 2.12328 0
M  V30 1000 O 91.6372 -3.63462 1.7105 0
M  V30 1001 N 89.8432 -2.29952 1.77681 0
M  V30 1002 H 89.3902 -1.47134 2.11446 0
M  V30 1003 H 89.3482 -2.91871 1.16869 0
M  V30 1004 N 93.1203 -1.57491 0.0584922 0
M  V30 1005 C 94.0523 -2.08916 -0.942694 0
M  V30 1006 C 95.0653 -1.0185 -1.27006 0
M  V30 1007 O 96.2543 -1.29398 -1.22957 0
M  V30 1008 C 93.3543 -2.52341 -2.26224 0
M  V30 1009 C 92.5273 -3.82827 -2.1157 0
M  V30 1010 C 91.5863 -4.12487 -3.26712 0
M  V30 1011 O 90.6123 -4.82295 -3.02292 0
M  V30 1012 N 91.8143 -3.64978 -4.5141 0
M  V30 1013 H 94.5793 -2.95437 -0.503722 0
M  V30 1014 H 92.1403 -1.61397 -0.12757 0
M  V30 1015 H 94.1323 -2.69254 -3.02133 0
M  V30 1016 H 92.7023 -1.7103 -2.61663 0
M  V30 1017 H 91.9223 -3.75425 -1.20208 0
M  V30 1018 H 93.2103 -4.68263 -1.99015 0
M  V30 1019 H 92.6083 -3.08558 -4.7414 0
M  V30 1020 H 91.1653 -3.87115 -5.2439 0
M  V30 1021 N 94.5984 0.214957 -1.56127 0
M  V30 1022 C 95.5454 1.26642 -1.92952 0
M  V30 1023 C 96.5154 1.46244 -0.78753 0
M  V30 1024 O 97.7004 1.59704 -1.04399 0
M  V30 1025 C 94.8404 2.6104 -2.25726 0
M  V30 1026 C 93.9534 2.49183 -3.52891 0
M  V30 1027 C 93.0884 3.76149 -3.7508 0
M  V30 1028 C 92.1274 3.59041 -4.95738 0
M  V30 1029 N 91.2644 4.77972 -5.14283 0
M  V30 1030 H 96.1044 0.945384 -2.82607 0
M  V30 1031 H 93.6414 0.455489 -1.3987 0
M  V30 1032 H 95.5994 3.39313 -2.42739 0
M  V30 1033 H 94.2294 2.91227 -1.39236 0
M  V30 1034 H 93.2814 1.6231 -3.44034 0
M  V30 1035 H 94.5934 2.32466 -4.41318 0
M  V30 1036 H 93.7474 4.62865 -3.92226 0
M  V30 1037 H 92.4864 3.95799 -2.84947 0
M  V30 1038 H 91.4914 2.7071 -4.78535 0
M  V30 1039 H 92.7164 3.40856 -5.87362 0
M  V30 1040 H 90.6624 4.97923 -4.27093 0
M  V30 1041 H 90.5794 4.64006 -5.96853 0
M  V30 1042 H 91.8474 5.66096 -5.35869 0
M  V30 1043 N 96.0765 1.50051 0.48192 0
M  V30 1044 C 97.3015 1.64508 1.26301 0
M  V30 1045 C 97.7265 0.323851 1.85291 0
M  V30 1046 O 97.0845 -0.710969 1.66778 0
M  V30 1047 C 97.1325 2.7305 2.35533 0
M  V30 1048 O 96.2365 2.3355 3.39895 0
M  V30 1049 H 95.5775 0.549978 0.372048 0
M  V30 1050 H 98.1075 1.9636 0.574786 0
M  V30 1051 H 98.1175 2.95799 2.8101 0
M  V30 1052 H 96.7925 3.68946 1.91967 0
M  V30 1053 H 95.3695 2.21205 3.00204 0
M  V30 1054 N 97.5546 -0.734337 1.39446 0
M  V30 1055 C 98.7946 -1.50655 1.38139 0
M  V30 1056 C 99.1586 -1.91986 -0.0228701 0
M  V30 1057 O 100.36 -2.68318 -0.160947 0
M  V30 1058 C 98.6306 -2.71251 2.32718 0
M  V30 1059 S 100.19 -3.60892 2.49605 0
M  V30 1060 H 97.0076 -0.515315 0.489869 0
M  V30 1061 H 99.6096 -0.860392 1.75549 0
M  V30 1062 H 98.3136 -2.39027 3.33608 0
M  V30 1063 H 97.8446 -3.40795 1.96526 0
M  V30 1064 H 99.8596 -4.64899 1.73446 0
M  V30 1065 N 99.0327 -1.24633 -0.964593 0
M  V30 1066 C 99.9657 -0.984662 -2.05863 0
M  V30 1067 C 100.944 0.0826554 -1.6239 0
M  V30 1068 O 102.128 -0.0549296 -1.8842 0
M  V30 1069 C 99.2547 -0.486529 -3.35187 0
M  V30 1070 C 98.3007 -1.54286 -3.97615 0
M  V30 1071 S 99.1337 -3.12513 -4.34851 0
M  V30 1072 C 100.29 -2.6441 -5.67308 0
M  V30 1073 H 100.523 -1.91104 -2.27743 0
M  V30 1074 H 98.0557 -1.08052 -1.10291 0
M  V30 1075 H 100.014 -0.205757 -4.09984 0
M  V30 1076 H 98.6747 0.419186 -3.1129 0
M  V30 1077 H 97.8677 -1.14481 -4.90826 0
M  V30 1078 H 97.4697 -1.7738 -3.2926 0
M  V30 1079 H 99.7617 -2.07416 -6.44969 0
M  V30 1080 H 100.705 -3.56222 -6.11973 0
M  V30 1081 H 101.113 -2.04734 -5.26065 0
M  V30 1082 N 100.511 1.16574 -1.06058 0
M  V30 1083 C 101.736 1.91493 -0.796562 0
M  V30 1084 C 102.161 1.76773 0.642868 0
M  V30 1085 O 101.519 1.09142 1.44768 0
M  V30 1086 C 101.567 3.40293 -1.19303 0
M  V30 1087 O 100.671 4.11074 -0.330394 0
M  V30 1088 H 100.012 0.596678 -0.291326 0
M  V30 1089 H 102.542 1.47708 -1.41575 0
M  V30 1090 H 102.552 3.91057 -1.16356 0
M  V30 1091 H 101.227 3.50326 -2.24153 0
M  V30 1092 H 99.8038 3.70513 -0.421225 0
M  V30 1093 N 101.989 0.842826 1.3317 0
M  V30 1094 C 102.937 0.267495 2.31057 0
M  V30 1095 C 103.931 -0.602682 1.58316 0
M  V30 1096 O 105.137 -0.491803 1.73151 0
M  V30 1097 H 101.512 0.0677813 0.748939 0
M  V30 1098 H 103.483 1.10754 2.77085 0
M  V30 1099 C 102.232 -0.539331 3.43492 0
M  V30 1100 H 101.555 0.12095 3.99617 0
M  V30 1101 H 102.995 -0.90767 4.14171 0
M  V30 1102 C 101.454 -1.71981 2.89697 0
M  V30 1103 O 101.984 -2.81862 2.86211 0
M  V30 1104 N 100.19 -1.54299 2.46252 0
M  V30 1105 H 99.7369 -0.649143 2.49287 0
M  V30 1106 H 99.6949 -2.33431 2.10612 0
M  V30 1107 N 103.467 -1.45747 0.599634 0
M  V30 1108 C 104.707 -2.04181 0.0946309 0
M  V30 1109 C 105.071 -1.45895 -1.24815 0
M  V30 1110 O 106.272 -1.95633 -1.8434 0
M  V30 1111 C 104.543 -3.57368 0.047581 0
M  V30 1112 S 106.102 -4.36997 -0.397387 0
M  V30 1113 H 102.92 -0.70953 0.0456954 0
M  V30 1114 H 105.522 -1.78564 0.795946 0
M  V30 1115 H 104.226 -3.97303 1.02852 0
M  V30 1116 H 103.757 -3.87549 -0.675977 0
M  V30 1117 H 105.772 -4.68012 -1.64862 0
M  V30 1118 N 104.945 -0.338344 -1.53925 0
M  V30 1119 C 106.17 0.263987 -2.05713 0
M  V30 1120 C 106.595 1.43847 -1.21201 0
M  V30 1121 O 105.953 1.79904 -0.224535 0
M  V30 1122 C 106.001 0.662 -3.54471 0
M  V30 1123 O 105.105 1.76265 -3.72833 0
M  V30 1124 H 104.446 0.0448722 -0.662482 0
M  V30 1125 H 106.976 -0.491048 -1.9862 0
M  V30 1126 H 106.986 0.940594 -3.9701 0
M  V30 1127 H 105.661 -0.196937 -4.15433 0
M  V30 1128 H 104.238 1.48173 -3.42198 0
M  V30 1129 N 106.423 1.57458 -0.0668435 0
M  V30 1130 C 107.672 1.92477 0.602947 0
M  V30 1131 C 107.985 0.948419 1.71068 0
M  V30 1132 O 109.191 1.19124 2.43971 0
M  V30 1133 C 107.647 3.41903 1.12383 0
M  V30 1134 C 107.255 4.47975 0.04737 0
M  V30 1135 C 108.999 3.85931 1.76797 0
M  V30 1136 C 106.906 5.88529 0.582022 0
M  V30 1137 H 105.836 0.718387 0.22899 0
M  V30 1138 H 108.487 1.82978 -0.138276 0
M  V30 1139 H 106.869 3.46459 1.91787 0
M  V30 1140 H 108.043 4.55029 -0.726978 0
M  V30 1141 H 106.358 4.13384 -0.500243 0
M  V30 1142 H 108.955 4.88322 2.17821 0
M  V30 1143 H 109.298 3.23029 2.62599 0
M  V30 1144 H 109.831 3.83958 1.04024 0
M  V30 1145 H 106.57 6.55065 -0.238721 0
M  V30 1146 H 106.09 5.85004 1.324 0
M  V30 1147 H 107.769 6.38258 1.05999 0
M  V30 1148 N 107.901 -0.206675 1.56239 0
M  V30 1149 C 109.129 -0.945345 1.8404 0
M  V30 1150 C 109.544 -1.77336 0.647885 0
M  V30 1151 O 108.901 -1.78425 -0.383511 0
M  V30 1152 C 108.952 -1.8509 3.10522 0
M  V30 1153 O 108.673 -1.05634 4.25174 0
M  V30 1154 C 110.174 -2.70222 3.51418 0
M  V30 1155 H 107.394 -0.276372 0.61144 0
M  V30 1156 H 109.938 -0.217417 2.03341 0
M  V30 1157 H 108.093 -2.53259 2.93153 0
M  V30 1158 H 108.507 -1.67238 4.97124 0
M  V30 1159 H 109.981 -3.29438 4.42916 0
M  V30 1160 H 110.458 -3.43358 2.73864 0
M  V30 1161 H 111.064 -2.07443 3.71278 0
M  V30 1162 N 109.379 -1.50304 -0.473955 0
M  V30 1163 C 110.604 -1.65175 -1.25427 0
M  V30 1164 C 111.029 -0.333673 -1.85117 0
M  V30 1165 O 110.387 0.702114 -1.67153 0
M  V30 1166 C 110.435 -2.74295 -2.34082 0
M  V30 1167 O 109.539 -2.35349 -3.38651 0
M  V30 1168 H 108.88 -0.551944 -0.369126 0
M  V30 1169 H 111.41 -1.96662 -0.564364 0
M  V30 1170 H 111.42 -2.97285 -2.79438 0
M  V30 1171 H 110.095 -3.69959 -1.90008 0
M  V30 1172 H 108.672 -2.22794 -2.99027 0
M  V30 1173 N 110.857 0.726932 -1.39834 0
M  V30 1174 C 112.106 1.48214 -1.36805 0
M  V30 1175 C 112.419 1.95576 0.0305291 0
M  V30 1176 O 113.625 2.7088 0.183417 0
M  V30 1177 C 112.081 2.67854 -2.40379 0
M  V30 1178 C 111.689 2.27408 -3.85992 0
M  V30 1179 C 113.433 3.45641 -2.46439 0
M  V30 1180 C 111.34 3.43819 -4.81189 0
M  V30 1181 H 110.27 0.556606 -0.508631 0
M  V30 1182 H 112.921 0.792216 -1.65518 0
M  V30 1183 H 111.303 3.3896 -2.04749 0
M  V30 1184 H 112.477 1.63795 -4.30706 0
M  V30 1185 H 110.792 1.62692 -3.83302 0
M  V30 1186 H 113.389 4.32244 -3.14753 0
M  V30 1187 H 113.732 3.88669 -1.49139 0
M  V30 1188 H 114.265 2.8157 -2.81004 0
M  V30 1189 H 111.004 3.05834 -5.79781 0
M  V30 1190 H 110.524 4.06385 -4.41148 0
M  V30 1191 H 112.203 4.10043 -5.00474 0
M  V30 1192 N 112.336 1.25143 0.95797 0
M  V30 1193 C 113.576 1.10893 1.71703 0
M  V30 1194 C 113.94 -0.34478 1.88879 0
M  V30 1195 O 115.141 -0.609014 2.6181 0
M  V30 1196 C 113.412 1.83889 3.06463 0
M  V30 1197 S 114.971 1.85491 3.97666 0
M  V30 1198 H 111.789 0.396428 0.590226 0
M  V30 1199 H 114.391 1.58618 1.14283 0
M  V30 1200 H 113.095 2.88756 2.9163 0
M  V30 1201 H 112.626 1.36538 3.68946 0
M  V30 1202 H 114.641 0.929553 4.87415 0
M  V30 1203 N 113.814 -1.1601 1.06675 0
M  V30 1204 C 114.724 -2.24156 0.692179 0
M  V30 1205 C 115.74 -1.71507 -0.293513 0
M  V30 1206 O 116.916 -2.009 -0.141861 0
M  V30 1207 C 113.981 -3.46587 0.0884131 0
M  V30 1208 C 113.042 -4.14257 1.12646 0
M  V30 1209 C 112.275 -5.30844 0.551416 0
M  V30 1210 O 112.498 -5.66858 -0.634656 0
M  V30 1211 O 111.432 -5.87848 1.29298 0
M  V30 1212 H 115.258 -2.58513 1.59388 0
M  V30 1213 H 112.843 -1.23599 0.83926 0
M  V30 1214 H 114.725 -4.20679 -0.246361 0
M  V30 1215 H 113.4 -3.13994 -0.786712 0
M  V30 1216 H 112.307 -3.42118 1.51348 0
M  V30 1217 H 113.64 -4.50914 1.97325 0
M  V30 1218 N 115.292 -0.849877 -1.32721 0
M  V30 1219 C 116.239 -0.289033 -2.28983 0
M  V30 1220 C 117.209 0.601324 -1.54833 0
M  V30 1221 O 118.394 0.537253 -1.8308 0
M  V30 1222 C 115.534 0.520623 -3.4115 0
M  V30 1223 C 114.647 -0.394989 -4.3019 0
M  V30 1224 C 113.782 0.426834 -5.29482 0
M  V30 1225 C 112.821 -0.486476 -6.10164 0
M  V30 1226 N 111.958 0.297879 -7.01468 0
M  V30 1227 H 116.798 -1.11519 -2.76347 0
M  V30 1228 H 114.335 -0.56138 -1.35967 0
M  V30 1229 H 116.293 1.00563 -4.04899 0
M  V30 1230 H 114.923 1.31165 -2.9495 0
M  V30 1231 H 113.975 -0.99836 -3.67065 0
M  V30 1232 H 115.287 -1.09612 -4.86607 0
M  V30 1233 H 114.441 0.975205 -5.98811 0
M  V30 1234 H 113.18 1.16136 -4.73671 0
M  V30 1235 H 112.185 -1.04677 -5.39743 0
M  V30 1236 H 113.41 -1.21953 -6.6806 0
M  V30 1237 H 111.356 1.01558 -6.48091 0
M  V30 1238 H 111.273 -0.344318 -7.55216 0
M  V30 1239 H 112.541 0.828131 -7.75089 0
M  V30 1240 N 116.77 1.45427 -0.607355 0
M  V30 1241 C 118.181 1.85756 -0.187535 0
M  V30 1242 C 118.532 1.5077 1.25551 0
M  V30 1243 O 117.657 0.93427 1.95193 0
M  V30 1244 C 118.252 3.37154 -0.333572 0
M  V30 1245 C 116.811 3.76387 0.0315542 0
M  V30 1246 C 115.958 2.69377 -0.658117 0
M  V30 1247 H 118.909 1.36231 -0.81405 0
M  V30 1248 H 118.93 3.78014 0.43428 0
M  V30 1249 H 118.442 3.62586 -1.38393 0
M  V30 1250 H 116.543 3.56571 1.0811 0
M  V30 1251 H 116.656 4.77731 -0.361935 0
M  V30 1252 H 115.02 2.5452 -0.0957873 0
M  V30 1253 H 115.803 2.97646 -1.7106 0
M  V30 1254 N 118.248 0.346503 1.53744 0
M  V30 1255 C 119.18 -0.543316 2.22667 0
M  V30 1256 C 120.193 -1.06159 1.23427 0
M  V30 1257 O 121.382 -0.971235 1.49764 0
M  V30 1258 C 118.482 -1.76076 2.89569 0
M  V30 1259 C 117.655 -1.37727 4.15151 0
M  V30 1260 C 116.714 -2.45471 4.65436 0
M  V30 1261 O 115.74 -2.08655 5.29577 0
M  V30 1262 N 116.942 -3.7677 4.41616 0
M  V30 1263 H 119.707 0.0469703 2.99663 0
M  V30 1264 H 117.268 0.170766 1.60997 0
M  V30 1265 H 119.26 -2.47593 3.20125 0
M  V30 1266 H 117.83 -2.25835 2.16142 0
M  V30 1267 H 117.05 -0.492746 3.91108 0
M  V30 1268 H 118.338 -1.09708 4.96832 0
M  V30 1269 H 117.736 -4.09467 3.90325 0
M  V30 1270 H 116.293 -4.44448 4.7677 0
M  V30 1271 N 119.726 -1.57421 0.075193 0
M  V30 1272 C 120.636 -2.1642 -0.905511 0
M  V30 1273 C 121.652 -1.12828 -1.32461 0
M  V30 1274 O 122.828 -1.45109 -1.39661 0
M  V30 1275 C 119.893 -2.71693 -2.15369 0
M  V30 1276 C 118.954 -3.90171 -1.79068 0
M  V30 1277 C 118.187 -4.42798 -2.97936 0
M  V30 1278 O 118.41 -3.94416 -4.12058 0
M  V30 1279 O 117.344 -5.34085 -2.77555 0
M  V30 1280 H 121.17 -3.00588 -0.433626 0
M  V30 1281 H 118.755 -1.48664 -0.148067 0
M  V30 1282 H 120.637 -3.07104 -2.88557 0
M  V30 1283 H 119.312 -1.90582 -2.61649 0
M  V30 1284 H 118.219 -3.59606 -1.03122 0
M  V30 1285 H 119.552 -4.72584 -1.37569 0
M  V30 1286 N 121.204 0.198386 -1.56346 0
M  V30 1287 C 122.45 0.920648 -1.80698 0
M  V30 1288 C 122.783 1.83045 -0.648697 0
M  V30 1289 O 122.058 1.91308 0.350925 0
M  V30 1290 C 122.341 1.73971 -3.15287 0
M  V30 1291 C 122.194 0.85485 -4.41602 0
M  V30 1292 C 123.513 2.71296 -3.46535 0
M  V30 1293 H 120.632 0.333261 -0.657348 0
M  V30 1294 H 123.274 0.188198 -1.89066 0
M  V30 1295 H 121.424 2.36416 -3.08285 0
M  V30 1296 H 123.096 0.245362 -4.60647 0
M  V30 1297 H 121.339 0.161398 -4.335 0
M  V30 1298 H 122.01 1.46286 -5.32264 0
M  V30 1299 H 124.486 2.18983 -3.53816 0
M  V30 1300 H 123.362 3.2569 -4.41834 0
M  V30 1301 H 123.623 3.5018 -2.69864 0
M  V30 1302 N 122.682 1.50554 0.465978 0
M  V30 1303 C 123.922 1.63439 1.22747 0
M  V30 1304 C 124.286 0.329822 1.89146 0
M  V30 1305 O 125.487 0.334161 2.66715 0
M  V30 1306 C 123.758 2.78542 2.2394 0
M  V30 1307 S 125.317 3.11591 3.0896 0
M  V30 1308 H 122.135 0.576113 0.416672 0
M  V30 1309 H 124.737 1.88357 0.523641 0
M  V30 1310 H 123.441 3.71805 1.7375 0
M  V30 1311 H 122.972 2.55726 2.98944 0
M  V30 1312 H 124.987 2.55811 4.25176 0
M  V30 1313 N 124.16 -0.719506 1.40217 0
M  V30 1314 C 125.406 -1.48152 1.38488 0
M  V30 1315 C 125.739 -1.94195 -0.0141867 0
M  V30 1316 O 125.014 -1.67884 -0.982096 0
M  V30 1317 C 125.297 -2.71035 2.37091 0
M  V30 1318 C 125.15 -2.30912 3.86005 0
M  V30 1319 C 126.469 -3.73182 2.33288 0
M  V30 1320 H 123.588 -0.537395 0.504357 0
M  V30 1321 H 126.23 -0.821472 1.71324 0
M  V30 1322 H 124.38 -3.27352 2.0922 0
M  V30 1323 H 126.052 -1.80107 4.24687 0
M  V30 1324 H 124.295 -1.62958 4.02029 0
M  V30 1325 H 124.966 -3.18978 4.50508 0
M  V30 1326 H 127.442 -3.26485 2.57966 0
M  V30 1327 H 126.318 -4.56806 3.04334 0
M  V30 1328 H 126.579 -4.21202 1.34317 0
M  V30 1329 N 125.638 -1.25649 -0.95132 0
M  V30 1330 C 126.601 -1.06399 -2.03007 0
M  V30 1331 C 127.601 -0.0156794 -1.60792 0
M  V30 1332 O 128.791 -0.25817 -1.72276 0
M  V30 1333 C 125.923 -0.616184 -3.35285 0
M  V30 1334 H 127.116 -2.02164 -2.21517 0
M  V30 1335 H 124.669 -1.08103 -1.12887 0
M  V30 1336 H 125.404 0.343917 -3.22471 0
M  V30 1337 H 125.189 -1.37301 -3.67275 0
M  V30 1338 H 126.679 -0.503032 -4.14559 0
M  V30 1339 N 127.117 1.15442 -1.07289 0
M  V30 1340 C 128.363 1.86489 -0.796846 0
M  V30 1341 C 128.696 1.82078 0.675371 0
M  V30 1342 O 127.971 1.24346 1.4956 0
M  V30 1343 C 128.254 3.35626 -1.30489 0
M  V30 1344 C 128.107 3.48673 -2.84161 0
M  V30 1345 C 129.426 4.30357 -0.920907 0
M  V30 1346 H 126.545 0.677144 -0.290939 0
M  V30 1347 H 129.187 1.35633 -1.33056 0
M  V30 1348 H 127.337 3.79068 -0.850883 0
M  V30 1349 H 129.009 3.14099 -3.37846 0
M  V30 1350 H 127.252 2.90253 -3.22391 0
M  V30 1351 H 127.923 4.53453 -3.14777 0
M  V30 1352 H 130.399 3.94871 -1.3121 0
M  V30 1353 H 129.275 5.33193 -1.30372 0
M  V30 1354 H 129.536 4.4176 0.173226 0
M  V30 1355 N 128.595 0.856903 1.32268 0
M  V30 1356 C 129.841 0.471355 1.97863 0
M  V30 1357 C 130.196 -0.962896 1.66572 0
M  V30 1358 O 129.489 -1.66686 0.944797 0
M  V30 1359 C 129.683 0.649919 3.51441 0
M  V30 1360 C 129.512 2.09997 3.97657 0
M  V30 1361 C 128.282 2.73893 4.2463 0
M  V30 1362 C 130.48 3.07081 4.1256 0
M  V30 1363 N 128.462 4.09786 4.57109 0
M  V30 1364 C 129.833 4.27968 4.48602 0
M  V30 1365 C 131.888 3.03247 3.949 0
M  V30 1366 C 130.591 5.45521 4.68827 0
M  V30 1367 C 132.617 4.20046 4.16311 0
M  V30 1368 C 131.979 5.39692 4.52672 0
M  V30 1369 H 128.078 0.221263 0.750044 0
M  V30 1370 H 130.662 1.10876 1.60045 0
M  V30 1371 H 128.833 0.0421938 3.88377 0
M  V30 1372 H 130.565 0.234044 4.04023 0
M  V30 1373 H 127.32 2.24918 4.16784 0
M  V30 1374 H 127.744 4.7989 4.7753 0
M  V30 1375 H 132.386 2.11863 3.65888 0
M  V30 1376 H 130.104 6.37434 4.96693 0
M  V30 1377 H 133.69 4.18517 4.04147 0
M  V30 1378 H 132.57 6.28566 4.68907 0
M  V30 1379 N 130.073 -1.45103 0.615059 0
M  V30 1380 C 131.489 -1.57137 0.279322 0
M  V30 1381 C 131.689 -1.60523 -1.21797 0
M  V30 1382 O 130.745 -1.53956 -2.00134 0
M  V30 1383 C 132.058 -2.85062 0.957083 0
M  V30 1384 C 133.606 -2.98749 0.933706 0
M  V30 1385 C 134.081 -4.29455 1.59162 0
M  V30 1386 N 135.572 -4.36231 1.55746 0
M  V30 1387 C 136.307 -5.36051 2.0356 0
M  V30 1388 N 135.803 -6.42367 2.59494 0
M  V30 1389 N 137.596 -5.27456 1.94284 0
M  V30 1390 H 129.747 -1.41148 1.58717 0
M  V30 1391 H 132.01 -0.675331 0.665306 0
M  V30 1392 H 131.716 -2.88488 2.01166 0
M  V30 1393 H 131.59 -3.7407 0.48494 0
M  V30 1394 H 133.977 -2.94886 -0.112347 0
M  V30 1395 H 134.058 -2.11132 1.44419 0
M  V30 1396 H 133.702 -4.34077 2.63704 0
M  V30 1397 H 133.632 -5.15901 1.0561 0
M  V30 1398 H 136.123 -3.60011 1.14893 0
M  V30 1399 H 136.436 -7.14793 2.93752 0
M  V30 1400 H 134.781 -6.43097 2.63537 0
M  V30 1401 H 137.972 -4.43308 1.5032 0
M  V30 1402 H 138.145 -6.05099 2.3186 0
M  V30 1403 N 131.551 -0.354651 -1.53558 0
M  V30 1404 C 132.498 0.496968 -2.25386 0
M  V30 1405 C 133.468 1.0865 -1.25636 0
M  V30 1406 O 134.653 1.12104 -1.54394 0
M  V30 1407 C 131.793 1.63637 -3.03837 0
M  V30 1408 C 130.906 1.07307 -4.18461 0
M  V30 1409 C 130.041 2.18068 -4.84376 0
M  V30 1410 C 129.08 1.59147 -5.91049 0
M  V30 1411 N 128.217 2.63695 -6.50699 0
M  V30 1412 H 133.057 -0.122075 -2.9775 0
M  V30 1413 H 130.594 -0.0720154 -1.46924 0
M  V30 1414 H 132.552 2.30734 -3.47589 0
M  V30 1415 H 131.182 2.22623 -2.33749 0
M  V30 1416 H 130.234 0.292708 -3.79272 0
M  V30 1417 H 131.546 0.602193 -4.95152 0
M  V30 1418 H 130.7 2.93007 -5.31255 0
M  V30 1419 H 129.439 2.68504 -4.07133 0
M  V30 1420 H 128.444 0.827175 -5.43542 0
M  V30 1421 H 129.669 1.09549 -6.70206 0
M  V30 1422 H 127.615 3.13365 -5.76315 0
M  V30 1423 H 127.532 2.21263 -7.22896 0
M  V30 1424 H 128.8 3.3837 -7.02229 0
M  V30 1425 N 133.029 1.57378 -0.0835403 0
M  V30 1426 C 133.977 2.14602 0.89714 0
M  V30 1427 C 134.971 1.08589 1.30018 0
M  V30 1428 O 136.177 1.26952 1.27606 0
M  V30 1429 H 132.552 0.686346 0.3073 0
M  V30 1430 H 134.523 2.95845 0.38969 0
M  V30 1431 C 133.272 2.73188 2.15089 0
M  V30 1432 H 132.595 3.54442 1.84962 0
M  V30 1433 H 134.035 3.1681 2.81793 0
M  V30 1434 C 132.494 1.68517 2.91725 0
M  V30 1435 O 133.024 1.11718 3.85852 0
M  V30 1436 N 131.23 1.39277 2.55049 0
M  V30 1437 H 130.777 1.85655 1.78577 0
M  V30 1438 H 130.735 0.694791 3.06627 0
M  V30 1439 N 134.507 -0.190092 1.56449 0
M  V30 1440 C 135.784 -0.935886 1.71757 0
M  V30 1441 C 136.164 -2.01173 0.639726 0
M  V30 1442 O 135.512 -2.25827 -0.348502 0
M  V30 1443 C 135.722 -1.51775 3.1427 0
M  V30 1444 C 137.07 -1.99794 3.74656 0
M  V30 1445 O 138.094 -1.61607 3.1743 0
M  V30 1446 O 136.953 -2.70079 4.751 0
M  V30 1447 H 134.047 -0.439229 0.700719 0
M  V30 1448 H 136.593 -0.179395 1.68749 0
M  V30 1449 H 135.365 -0.742505 3.84191 0
M  V30 1450 H 134.988 -2.33894 3.21527 0
M  V30 1451 N 135.985 -1.50799 -0.457987 0
M  V30 1452 C 136.895 -1.73426 -1.57989 0
M  V30 1453 C 137.911 -0.617745 -1.62665 0
M  V30 1454 O 139.087 -0.897614 -1.80291 0
M  V30 1455 C 136.152 -1.83557 -2.94122 0
M  V30 1456 C 135.213 -3.07345 -2.99729 0
M  V30 1457 C 134.446 -3.16983 -4.29368 0
M  V30 1458 O 134.669 -2.33077 -5.20607 0
M  V30 1459 O 133.603 -4.09812 -4.40837 0
M  V30 1460 H 137.429 -2.68555 -1.41817 0
M  V30 1461 H 135.014 -1.35052 -0.638859 0
M  V30 1462 H 136.896 -1.92326 -3.74952 0
M  V30 1463 H 135.571 -0.916137 -3.10465 0
M  V30 1464 H 134.478 -3.04068 -2.1793 0
M  V30 1465 H 135.811 -3.9891 -2.88326 0
M  V30 1466 N 137.463 0.71206 -1.40597 0
M  V30 1467 C 138.411 1.84746 -1.41321 0
M  V30 1468 C 139.405 1.66842 -0.293268 0
M  V30 1469 O 140.611 1.73904 -0.464481 0
M  V30 1470 H 136.986 0.608522 -0.441819 0
M  V30 1471 H 138.957 1.81252 -2.37045 0
M  V30 1472 C 137.706 3.22638 -1.29614 0
M  V30 1473 H 137.029 3.37023 -2.15071 0
M  V30 1474 H 138.469 4.02209 -1.3418 0
M  V30 1475 C 136.928 3.36899 -0.00673121 0
M  V30 1476 O 137.458 3.90186 0.954859 0
M  V30 1477 N 135.664 2.9053 0.0639327 0
M  V30 1478 H 135.211 2.47353 -0.719311 0
M  V30 1479 H 135.169 3.0045 0.926118 0
M  V30 1480 N 138.941 1.26152 0.944643 0
M  V30 1481 C 140.19 1.10883 1.68487 0
M  V30 1482 C 140.503 -0.348153 1.92477 0
M  V30 1483 O 141.709 -0.621459 2.64292 0
M  V30 1484 C 140.165 1.93624 3.03377 0
M  V30 1485 C 139.773 3.43875 2.87148 0
M  V30 1486 C 141.517 1.86954 3.81115 0
M  V30 1487 C 139.424 4.18875 4.1749 0
M  V30 1488 H 138.354 0.41135 0.631907 0
M  V30 1489 H 141.005 1.50433 1.05082 0
M  V30 1490 H 139.387 1.46904 3.67743 0
M  V30 1491 H 140.561 3.98338 2.31653 0
M  V30 1492 H 138.876 3.51744 2.22856 0
M  V30 1493 H 141.473 2.40275 4.77673 0
M  V30 1494 H 141.816 0.839518 4.07747 0
M  V30 1495 H 142.349 2.31477 3.23517 0
M  V30 1496 H 139.088 5.22332 3.96043 0
M  V30 1497 H 138.608 3.69193 4.72712 0
M  V30 1498 H 140.287 4.27134 4.85968 0
M  V30 1499 N 140.419 -1.14872 1.07899 0
M  V30 1500 C 141.647 -1.89661 0.82683 0
M  V30 1501 C 142.062 -1.78312 -0.620519 0
M  V30 1502 O 141.419 -1.13888 -1.42604 0
M  V30 1503 C 141.47 -3.39817 1.23316 0
M  V30 1504 O 141.191 -3.50845 2.62372 0
M  V30 1505 C 142.692 -4.31615 1.0111 0
M  V30 1506 H 139.912 -0.60092 0.298557 0
M  V30 1507 H 142.456 -1.4551 1.43691 0
M  V30 1508 H 140.611 -3.8161 0.667286 0
M  V30 1509 H 141.025 -4.44076 2.79101 0
M  V30 1510 H 142.499 -5.35367 1.34486 0
M  V30 1511 H 142.976 -4.39169 -0.0522168 0
M  V30 1512 H 143.582 -3.95572 1.56215 0
M  V30 1513 N 141.898 -0.863906 -1.31812 0
M  V30 1514 C 142.828 -0.330843 -2.31144 0
M  V30 1515 C 143.809 0.575005 -1.60087 0
M  V30 1516 O 144.994 0.493304 -1.8783 0
M  V30 1517 C 142.124 0.47374 -3.44054 0
M  V30 1518 C 141.078 -0.338481 -4.26659 0
M  V30 1519 C 140.404 0.591412 -5.31419 0
M  V30 1520 C 141.704 -1.56926 -4.98168 0
M  V30 1521 H 143.398 -1.16086 -2.75979 0
M  V30 1522 H 140.944 -0.559657 -1.32679 0
M  V30 1523 H 142.897 0.857143 -4.12591 0
M  V30 1524 H 141.621 1.33721 -2.9797 0
M  V30 1525 H 140.28 -0.703754 -3.59782 0
M  V30 1526 H 139.928 1.45199 -4.81587 0
M  V30 1527 H 139.628 0.0519022 -5.87577 0
M  V30 1528 H 141.152 0.97179 -6.02817 0
M  V30 1529 H 142.566 -1.25764 -5.59336 0
M  V30 1530 H 140.963 -2.04739 -5.64094 0
M  V30 1531 H 142.033 -2.32544 -4.25501 0
M  V30 1532 N 143.376 1.44774 -0.622745 0
M  V30 1533 C 144.286 2.34433 0.0886031 0
M  V30 1534 C 145.302 1.52131 0.844529 0
M  V30 1535 O 146.478 1.84886 0.798691 0
M  V30 1536 C 143.543 3.29986 1.0635 0
M  V30 1537 C 142.604 4.28195 0.307873 0
M  V30 1538 C 141.837 5.19183 1.23633 0
M  V30 1539 O 142.06 5.13918 2.47476 0
M  V30 1540 O 140.994 5.97515 0.725189 0
M  V30 1541 H 144.82 2.96693 -0.648599 0
M  V30 1542 H 142.405 1.44408 -0.382957 0
M  V30 1543 H 144.287 3.88825 1.6246 0
M  V30 1544 H 142.962 2.70269 1.78146 0
M  V30 1545 H 141.869 3.72927 -0.296064 0
M  V30 1546 H 143.202 4.90808 -0.3699 0
M  V30 1547 N 144.854 0.36279 1.53368 0
M  V30 1548 C 146.082 -0.228613 2.05633 0
M  V30 1549 C 146.497 -1.42676 1.23649 0
M  V30 1550 O 145.854 -1.80394 0.27647 0
M  V30 1551 C 145.905 -0.624845 3.56059 0
M  V30 1552 O 145.626 0.525675 4.34935 0
M  V30 1553 C 147.127 -1.27493 4.24571 0
M  V30 1554 H 144.347 -0.0407183 0.669763 0
M  V30 1555 H 146.891 0.520352 1.97769 0
M  V30 1556 H 145.046 -1.32373 3.64083 0
M  V30 1557 H 145.46 0.205969 5.24095 0
M  V30 1558 H 146.934 -1.50277 5.31151 0
M  V30 1559 H 147.411 -2.23439 3.78116 0
M  V30 1560 H 148.017 -0.617558 4.20792 0
M  V30 1561 N 146.332 -1.57332 0.0918853 0
M  V30 1562 C 147.578 -1.94524 -0.573425 0
M  V30 1563 C 147.911 -0.973578 -1.68033 0
M  V30 1564 O 147.186 -0.00609226 -1.94499 0
M  V30 1565 C 147.469 -3.41858 -1.13161 0
M  V30 1566 C 147.322 -4.4979 -0.0299747 0
M  V30 1567 C 148.641 -3.90435 -2.03098 0
M  V30 1568 H 145.76 -0.70734 -0.206975 0
M  V30 1569 H 148.402 -1.89309 0.161942 0
M  V30 1570 H 146.552 -3.46433 -1.7583 0
M  V30 1571 H 148.224 -4.57327 0.604112 0
M  V30 1572 H 146.467 -4.291 0.636833 0
M  V30 1573 H 147.138 -5.50069 -0.461287 0
M  V30 1574 H 149.614 -3.87992 -1.50338 0
M  V30 1575 H 148.49 -4.94097 -2.39081 0
M  V30 1576 H 148.751 -3.29541 -2.94712 0
M  V30 1577 N 147.81 0.181792 -1.56548 0
M  V30 1578 C 149.05 0.906711 -1.83189 0
M  V30 1579 C 149.414 1.79882 -0.671312 0
M  V30 1580 O 150.615 2.56054 -0.81792 0
M  V30 1581 C 148.886 1.69023 -3.14906 0
M  V30 1582 S 150.445 2.46535 -3.62996 0
M  V30 1583 H 147.263 0.303877 -0.642791 0
M  V30 1584 H 149.865 0.169107 -1.94767 0
M  V30 1585 H 148.569 1.02571 -3.97376 0
M  V30 1586 H 148.1 2.46941 -3.06241 0
M  V30 1587 H 150.115 3.71014 -3.29489 0
M  V30 1588 N 149.288 1.51039 0.449983 0
M  V30 1589 C 150.238 1.67824 1.54335 0
M  V30 1590 C 151.222 0.5324 1.51836 0
M  V30 1591 O 152.414 0.787762 1.58503 0
M  V30 1592 C 149.543 1.7951 2.92628 0
M  V30 1593 C 148.629 2.99838 2.9993 0
M  V30 1594 N 149.02 4.23207 2.77001 0
M  V30 1595 C 147.318 2.98832 3.31082 0
M  V30 1596 C 148.019 5.04361 2.89818 0
M  V30 1597 N 146.995 4.38746 3.2094 0
M  V30 1598 H 150.797 2.60884 1.35339 0
M  V30 1599 H 148.311 1.48513 0.657085 0
M  V30 1600 H 150.308 1.89642 3.7127 0
M  V30 1601 H 148.968 0.876227 3.12654 0
M  V30 1602 H 149.979 4.5236 2.52172 0
M  V30 1603 H 146.656 2.16527 3.56963 0
M  V30 1604 H 148.046 6.12528 2.76151 0
M  V30 1605 N 150.766 -0.704594 1.40972 0
M  V30 1606 C 152.043 -1.45847 1.30338 0
M  V30 1607 C 152.423 -2.10973 -0.0732344 0
M  V30 1608 O 151.771 -2.00997 -1.08685 0
M  V30 1609 C 151.981 -2.48525 2.45023 0
M  V30 1610 C 153.329 -3.1404 2.8577 0
M  V30 1611 O 154.353 -2.58848 2.44696 0
M  V30 1612 O 153.212 -4.13981 3.56766 0
M  V30 1613 H 150.306 -0.649092 0.512454 0
M  V30 1614 H 152.852 -0.735836 1.52917 0
M  V30 1615 H 151.624 -1.98994 3.36923 0
M  V30 1616 H 151.247 -3.2831 2.24272 0
M  V30 1617 N 152.244 -1.26651 -0.937939 0
M  V30 1618 C 153.655 -1.1125 -1.49934 0
M  V30 1619 C 154.006 0.306077 -1.93798 0
M  V30 1620 O 153.131 1.19792 -1.80219 0
M  V30 1621 C 153.726 -2.01339 -2.72485 0
M  V30 1622 C 152.285 -1.90074 -3.24883 0
M  V30 1623 C 151.432 -1.94498 -1.97651 0
M  V30 1624 H 154.383 -1.39693 -0.753091 0
M  V30 1625 H 154.404 -1.56319 -3.46907 0
M  V30 1626 H 153.916 -3.04577 -2.40529 0
M  V30 1627 H 152.017 -0.897827 -3.61621 0
M  V30 1628 H 152.13 -2.75778 -3.9177 0
M  V30 1629 H 150.494 -1.38591 -2.13693 0
M  V30 1630 H 151.277 -2.99372 -1.68022 0
M  V30 1631 N 153.722 1.14298 -1.08507 0
M  V30 1632 C 154.669 2.19414 -0.715965 0
M  V30 1633 C 155.639 1.63399 0.298326 0
M  V30 1634 O 156.824 1.89929 0.182101 0
M  V30 1635 C 153.964 3.44845 -0.132534 0
M  V30 1636 C 153.077 4.15007 -1.19973 0
M  V30 1637 C 152.212 5.28024 -0.580048 0
M  V30 1638 C 151.251 5.9002 -1.62921 0
M  V30 1639 N 150.388 6.94485 -1.03125 0
M  V30 1640 H 155.228 2.50336 -1.61666 0
M  V30 1641 H 152.765 1.2293 -0.807882 0
M  V30 1642 H 154.723 4.16601 0.223454 0
M  V30 1643 H 153.353 3.14403 0.731467 0
M  V30 1644 H 152.405 3.41629 -1.67313 0
M  V30 1645 H 153.717 4.57178 -1.99473 0
M  V30 1646 H 152.871 6.06455 -0.172364 0
M  V30 1647 H 151.61 4.87076 0.246603 0
M  V30 1648 H 150.615 5.10291 -2.04654 0
M  V30 1649 H 151.84 6.33042 -2.45835 0
M  V30 1650 H 149.786 6.55612 -0.225711 0
M  V30 1651 H 149.703 7.35148 -1.76334 0
M  V30 1652 H 150.971 7.7679 -0.649458 0
M  V30 1653 N 155.201 0.870884 1.31352 0
M  V30 1654 C 156.131 0.343096 2.30966 0
M  V30 1655 C 157.112 -0.566507 1.60389 0
M  V30 1656 O 158.297 -0.483336 1.88089 0
M  V30 1657 C 155.427 -0.455487 3.443 0
M  V30 1658 C 154.381 0.361103 4.26474 0
M  V30 1659 C 153.707 -0.563221 5.31725 0
M  V30 1660 C 155.007 1.59566 4.97329 0
M  V30 1661 H 156.701 1.17548 2.75359 0
M  V30 1662 H 154.247 0.566686 1.32381 0
M  V30 1663 H 156.2 -0.83525 4.13039 0
M  V30 1664 H 154.924 -1.32139 2.98675 0
M  V30 1665 H 153.583 0.722825 3.59403 0
M  V30 1666 H 153.231 -1.42643 4.82351 0
M  V30 1667 H 152.931 -0.0207409 5.87596 0
M  V30 1668 H 154.455 -0.939808 6.03324 0
M  V30 1669 H 155.869 1.28728 5.58661 0
M  V30 1670 H 154.266 2.07728 5.63 0
M  V30 1671 H 155.336 2.34798 4.24262 0
M  V30 1672 N 156.679 -1.44442 0.630414 0
M  V30 1673 C 158.09 -1.85434 0.217063 0
M  V30 1674 C 158.441 -1.52748 -1.23136 0
M  V30 1675 O 157.566 -0.965205 -1.93682 0
M  V30 1676 C 158.161 -3.36581 0.387168 0
M  V30 1677 C 156.72 -3.76389 0.0283297 0
M  V30 1678 C 155.867 -2.68296 0.700889 0
M  V30 1679 H 158.818 -1.34919 0.83562 0
M  V30 1680 H 158.839 -3.78657 -0.374086 0
M  V30 1681 H 158.351 -3.60339 1.44144 0
M  V30 1682 H 156.452 -3.58246 -1.02423 0
M  V30 1683 H 156.565 -4.77095 0.437892 0
M  V30 1684 H 154.929 -2.54335 0.136267 0
M  V30 1685 H 155.712 -2.94887 1.75774 0
M  V30 1686 N 158.157 -0.370918 -1.53173 0
M  V30 1687 C 159.387 0.217389 -2.05453 0
M  V30 1688 C 159.795 1.42568 -1.24382 0
M  V30 1689 O 159.138 1.81571 -0.278839 0
M  V30 1690 C 159.2 0.669827 -3.53205 0
M  V30 1691 C 158.864 -0.4225 -4.55043 0
M  V30 1692 C 159.861 -1.27407 -5.04047 0
M  V30 1693 C 157.546 -0.58427 -4.9889 0
M  V30 1694 C 159.54 -2.27271 -5.95505 0
M  V30 1695 C 157.227 -1.58627 -5.90153 0
M  V30 1696 C 158.225 -2.42892 -6.38351 0
M  V30 1697 O 157.913 -3.41382 -7.27814 0
M  V30 1698 H 157.645 0.0408171 -0.674767 0
M  V30 1699 H 160.199 -0.5292 -1.98466 0
M  V30 1700 H 158.429 1.4681 -3.57748 0
M  V30 1701 H 160.118 1.18173 -3.88317 0
M  V30 1702 H 160.884 -1.16031 -4.70916 0
M  V30 1703 H 156.763 0.061851 -4.60959 0
M  V30 1704 H 160.307 -2.93079 -6.33049 0
M  V30 1705 H 156.204 -1.70048 -6.22699 0
M  V30 1706 H 156.972 -3.37173 -7.45826 0
M  V30 1707 N 159.635 1.57281 -0.100228 0
M  V30 1708 C 160.585 2.10848 0.86759 0
M  V30 1709 C 161.569 1.02473 1.24049 0
M  V30 1710 O 162.761 1.28739 1.21471 0
M  V30 1711 C 159.89 2.69648 2.12474 0
M  V30 1712 C 158.976 3.85074 1.77704 0
M  V30 1713 N 159.367 4.92897 1.13518 0
M  V30 1714 C 157.665 3.94905 2.07282 0
M  V30 1715 C 158.366 5.73475 0.974735 0
M  V30 1716 N 157.342 5.22675 1.4937 0
M  V30 1717 H 161.144 2.91594 0.367471 0
M  V30 1718 H 158.658 1.62074 0.102829 0
M  V30 1719 H 160.655 3.06356 2.82757 0
M  V30 1720 H 159.315 1.90359 2.63047 0
M  V30 1721 H 160.326 5.11662 0.801381 0
M  V30 1722 H 157.003 3.26633 2.60033 0
M  V30 1723 H 158.393 6.70238 0.472364 0
M  V30 1724 N 161.113 -0.173488 1.56642 0
M  V30 1725 C 162.39 -0.917617 1.7274 0
M  V30 1726 C 162.77 -2.00484 0.661027 0
M  V30 1727 O 162.118 -2.26184 -0.32453 0
M  V30 1728 C 162.328 -1.48433 3.15862 0
M  V30 1729 C 163.676 -1.95809 3.76754 0
M  V30 1730 O 164.7 -1.58231 3.19126 0
M  V30 1731 O 163.559 -2.65024 4.77938 0
M  V30 1732 H 160.653 -0.431772 0.705338 0
M  V30 1733 H 163.199 -0.161487 1.6893 0
M  V30 1734 H 161.971 -0.701715 3.84957 0
M  V30 1735 H 161.594 -2.30471 3.23989 0
M  V30 1736 N 162.591 -1.51276 -0.441967 0
M  V30 1737 C 163.838 -1.63715 -1.19179 0
M  V30 1738 C 164.166 -0.351175 -1.91303 0
M  V30 1739 O 163.421 0.664524 -1.84072 0
M  V30 1740 C 163.72 -2.78746 -2.23686 0
M  V30 1741 C 163.386 -4.18189 -1.68607 0
M  V30 1742 C 162.048 -4.56125 -1.53308 0
M  V30 1743 C 164.4 -5.05222 -1.28062 0
M  V30 1744 C 161.728 -5.78804 -0.959317 0
M  V30 1745 C 164.08 -6.28476 -0.721162 0
M  V30 1746 C 162.744 -6.65188 -0.55504 0
M  V30 1747 H 162.014 -0.599076 -0.436106 0
M  V30 1748 H 164.661 -1.85296 -0.48351 0
M  V30 1749 H 162.966 -2.51369 -3.00535 0
M  V30 1750 H 164.663 -2.8557 -2.81515 0
M  V30 1751 H 161.253 -3.88277 -1.8149 0
M  V30 1752 H 165.437 -4.76524 -1.38704 0
M  V30 1753 H 160.693 -6.05899 -0.81833 0
M  V30 1754 H 164.867 -6.95259 -0.398458 0
M  V30 1755 H 162.494 -7.60123 -0.108311 0
M  V30 1756 N 164.069 0.697108 -1.41344 0
M  V30 1757 C 165.318 1.45279 -1.39918 0
M  V30 1758 C 165.631 1.95597 -0.0109624 0
M  V30 1759 O 166.837 2.71208 0.125919 0
M  V30 1760 C 165.293 2.62695 -2.46007 0
M  V30 1761 C 164.901 2.19169 -3.90729 0
M  V30 1762 C 166.645 3.40336 -2.53715 0
M  V30 1763 C 164.552 3.33535 -4.88373 0
M  V30 1764 H 163.482 0.545692 -0.520323 0
M  V30 1765 H 166.133 0.756929 -1.67161 0
M  V30 1766 H 164.515 3.34541 -2.11892 0
M  V30 1767 H 165.689 1.54623 -4.34083 0
M  V30 1768 H 164.004 1.54525 -3.86666 0
M  V30 1769 H 166.601 4.2547 -3.2385 0
M  V30 1770 H 166.944 3.85418 -1.5735 0
M  V30 1771 H 167.477 2.75546 -2.86913 0
M  V30 1772 H 164.216 2.93468 -5.86137 0
M  V30 1773 H 163.736 3.96936 -4.49668 0
M  V30 1774 H 165.415 3.99335 -5.09059 0
M  V30 1775 N 165.547 1.27147 0.931209 0
M  V30 1776 C 166.477 1.12081 2.04842 0
M  V30 1777 C 167.458 0.0232364 1.70084 0
M  V30 1778 O 168.643 0.197085 1.93197 0
M  V30 1779 C 165.773 0.76354 3.38803 0
M  V30 1780 C 164.727 1.81396 3.87659 0
M  V30 1781 C 164.053 1.31075 5.18385 0
M  V30 1782 C 165.353 3.21739 4.11438 0
M  V30 1783 H 167.047 2.05537 2.17703 0
M  V30 1784 H 164.593 0.989603 1.04608 0
M  V30 1785 H 166.546 0.644982 4.16435 0
M  V30 1786 H 165.27 -0.206727 3.25945 0
M  V30 1787 H 163.929 1.92136 3.12217 0
M  V30 1788 H 163.577 0.330037 5.01916 0
M  V30 1789 H 163.277 2.013 5.52044 0
M  V30 1790 H 164.801 1.20506 5.98591 0
M  V30 1791 H 166.215 3.14019 4.79651 0
M  V30 1792 H 164.612 3.89644 4.56397 0
M  V30 1793 H 165.682 3.67054 3.16859 0
M  V30 1794 N 167.025 -1.13721 1.09112 0
M  V30 1795 C 167.935 -2.22638 0.73957 0
M  V30 1796 C 168.951 -1.72091 -0.257068 0
M  V30 1797 O 170.127 -2.01155 -0.0992154 0
M  V30 1798 C 167.192 -3.46322 0.16191 0
M  V30 1799 C 166.253 -4.11775 1.21408 0
M  V30 1800 C 165.486 -5.29555 0.663891 0
M  V30 1801 O 165.709 -5.68077 -0.514274 0
M  V30 1802 O 164.643 -5.84973 1.41738 0
M  V30 1803 H 168.469 -2.55074 1.64836 0
M  V30 1804 H 166.054 -1.21791 0.865289 0
M  V30 1805 H 167.936 -4.21107 -0.157073 0
M  V30 1806 H 166.611 -3.15593 -0.719932 0
M  V30 1807 H 165.518 -3.3883 1.58571 0
M  V30 1808 H 166.851 -4.46627 2.06845 0
M  V30 1809 N 168.503 -0.877838 -1.30888 0
M  V30 1810 C 169.78 -0.413052 -1.91189 0
M  V30 1811 C 170.16 1.1056 -1.79832 0
M  V30 1812 O 169.508 1.93771 -1.21099 0
M  V30 1813 C 169.718 -0.903191 -3.3711 0
M  V30 1814 C 171.066 -0.93395 -4.14201 0
M  V30 1815 O 172.09 -0.849373 -3.45925 0
M  V30 1816 O 170.949 -1.05772 -5.36167 0
M  V30 1817 H 168.043 -0.125035 -0.817493 0
M  V30 1818 H 170.589 -0.966269 -1.39504 0
M  V30 1819 H 169.361 -1.94692 -3.39427 0
M  V30 1820 H 168.984 -0.328732 -3.96239 0
M  V30 1821 N 169.982 1.44106 -0.638065 0
M  V30 1822 C 170.945 2.29138 0.0531013 0
M  V30 1823 C 171.945 1.41409 0.765506 0
M  V30 1824 O 173.135 1.63206 0.609046 0
M  V30 1825 C 170.267 3.23144 1.08584 0
M  V30 1826 H 171.46 2.91739 -0.694883 0
M  V30 1827 H 169.013 1.51134 -0.398538 0
M  V30 1828 H 169.748 2.65408 1.86357 0
M  V30 1829 H 169.533 3.87804 0.578852 0
M  V30 1830 H 171.023 3.87004 1.56899 0
M  V30 1831 N 171.46 0.379036 1.52974 0
M  V30 1832 C 172.423 -0.448865 2.24762 0
M  V30 1833 C 173.423 -0.998689 1.26027 0
M  V30 1834 O 174.613 -0.882313 1.50203 0
M  V30 1835 C 171.745 -1.62872 2.99476 0
M  V30 1836 H 172.938 0.179491 2.99362 0
M  V30 1837 H 170.491 0.13096 1.5575 0
M  V30 1838 H 171.226 -2.29479 2.29151 0
M  V30 1839 H 171.011 -1.24128 3.71934 0
M  V30 1840 H 172.501 -2.2151 3.5401 0
M  V30 1841 N 172.938 -1.57226 0.108567 0
M  V30 1842 C 174.163 -1.99604 -0.563303 0
M  V30 1843 C 174.588 -0.987563 -1.6009 0
M  V30 1844 O 173.946 0.0421687 -1.81251 0
M  V30 1845 C 173.994 -3.40902 -1.17552 0
M  V30 1846 O 173.098 -3.42896 -2.2912 0
M  V30 1847 H 172.439 -0.648704 -0.1417 0
M  V30 1848 H 174.969 -2.03679 0.193961 0
M  V30 1849 H 174.979 -3.78886 -1.51357 0
M  V30 1850 H 173.654 -4.1382 -0.415445 0
M  V30 1851 H 172.231 -3.1672 -1.96832 0
M  V30 1852 N 174.416 0.165178 -1.56732 0
M  V30 1853 C 175.827 0.727046 -1.71962 0
M  V30 1854 C 176.178 1.82508 -0.720078 0
M  V30 1855 O 175.303 2.16082 0.117242 0
M  V30 1856 C 175.898 1.32559 -3.11791 0
M  V30 1857 C 174.457 1.83422 -3.28684 0
M  V30 1858 C 173.604 0.715567 -2.67908 0
M  V30 1859 H 176.555 -0.0602896 -1.58585 0
M  V30 1860 H 176.576 2.19533 -3.10782 0
M  V30 1861 H 176.088 0.526195 -3.84516 0
M  V30 1862 H 174.189 2.65986 -2.60926 0
M  V30 1863 H 174.302 1.97543 -4.36478 0
M  V30 1864 H 172.666 1.13758 -2.27884 0
M  V30 1865 H 173.449 -0.0720836 -3.43224 0
M  V30 1866 N 175.894 1.51508 0.433938 0
M  V30 1867 C 176.841 1.73068 1.52696 0
M  V30 1868 C 177.811 0.572441 1.55924 0
M  V30 1869 O 178.996 0.807253 1.72882 0
M  V30 1870 C 176.136 1.86474 2.90381 0
M  V30 1871 C 175.249 3.14037 2.96656 0
M  V30 1872 C 174.384 3.18019 4.25485 0
M  V30 1873 C 173.423 4.39882 4.2564 0
M  V30 1874 N 172.56 4.41394 5.45999 0
M  V30 1875 H 177.4 2.66366 1.33615 0
M  V30 1876 H 174.937 1.32008 0.649018 0
M  V30 1877 H 176.895 1.92229 3.70275 0
M  V30 1878 H 175.525 0.965809 3.08013 0
M  V30 1879 H 174.577 3.17575 2.09404 0
M  V30 1880 H 175.889 4.0394 2.92633 0
M  V30 1881 H 175.043 3.22708 5.13755 0
M  V30 1882 H 173.782 2.2601 4.3217 0
M  V30 1883 H 172.787 4.35366 3.35763 0
M  V30 1884 H 174.012 5.33159 4.20617 0
M  V30 1885 H 171.958 3.52258 5.53399 0
M  V30 1886 H 171.875 5.25111 5.4387 0
M  V30 1887 H 173.143 4.50281 6.36292 0
M  V30 1888 N 177.372 -0.689602 1.41712 0
M  V30 1889 C 178.612 -1.46184 1.42862 0
M  V30 1890 C 178.976 -1.91962 0.0382204 0
M  V30 1891 O 180.177 -2.68694 -0.0755019 0
M  V30 1892 C 178.448 -2.6371 2.4123 0
M  V30 1893 S 180.007 -3.52768 2.6096 0
M  V30 1894 H 176.825 -0.49947 0.506015 0
M  V30 1895 H 179.427 -0.804107 1.78198 0
M  V30 1896 H 178.131 -2.28293 3.41044 0
M  V30 1897 H 177.662 -3.3437 2.07269 0
M  V30 1898 H 179.677 -4.59146 1.88148 0
M  V30 1899 N 178.85 -1.27639 -0.924453 0
M  V30 1900 C 180.099 -1.13549 -1.66702 0
M  V30 1901 C 180.412 0.317487 -1.93006 0
M  V30 1902 O 181.618 0.579333 -2.65247 0
M  V30 1903 C 180.074 -1.98426 -3.00259 0
M  V30 1904 C 179.682 -3.484 -2.81641 0
M  V30 1905 C 181.426 -1.92993 -3.78092 0
M  V30 1906 C 179.333 -4.25464 -4.10773 0
M  V30 1907 H 178.263 -0.421351 -0.625283 0
M  V30 1908 H 180.914 -1.52085 -1.02676 0
M  V30 1909 H 179.296 -1.52736 -3.6536 0
M  V30 1910 H 180.47 -4.01973 -2.25287 0
M  V30 1911 H 178.785 -3.55245 -2.17232 0
M  V30 1912 H 181.382 -2.47844 -4.7379 0
M  V30 1913 H 181.725 -0.904281 -4.0636 0
M  V30 1914 H 182.258 -2.36595 -3.19793 0
M  V30 1915 H 178.997 -5.28566 -3.87683 0
M  V30 1916 H 178.517 -3.76667 -4.66779 0
M  V30 1917 H 180.196 -4.34812 -4.79111 0
M  V30 1918 N 180.328 1.1314 -1.09713 0
M  V30 1919 C 181.261 2.17735 -0.683137 0
M  V30 1920 C 182.239 1.59582 0.311841 0
M  V30 1921 O 183.423 1.87298 0.212514 0
M  V30 1922 C 180.55 3.38699 -0.00684324 0
M  V30 1923 C 179.596 4.1546 -0.964102 0
M  V30 1924 S 180.429 4.74733 -2.47767 0
M  V30 1925 C 181.585 5.9904 -1.81387 0
M  V30 1926 H 181.818 2.52515 -1.56918 0
M  V30 1927 H 179.351 1.24484 -0.913404 0
M  V30 1928 H 181.309 4.08765 0.377044 0
M  V30 1929 H 179.97 3.02214 0.85589 0
M  V30 1930 H 179.163 5.02093 -0.43803 0
M  V30 1931 H 178.765 3.51066 -1.28953 0
M  V30 1932 H 181.057 6.67846 -1.13967 0
M  V30 1933 H 182 6.56261 -2.65947 0
M  V30 1934 H 182.408 5.4976 -1.28155 0
M  V30 1935 N 181.806 0.884767 1.30421 0
M  V30 1936 C 182.753 0.349642 2.28136 0
M  V30 1937 C 183.723 -0.560061 1.56373 0
M  V30 1938 O 184.908 -0.488524 1.8444 0
M  V30 1939 C 182.048 -0.42999 3.42411 0
M  V30 1940 C 181.161 0.508907 4.28992 0
M  V30 1941 C 180.296 -0.286301 5.30428 0
M  V30 1942 C 179.335 0.648079 6.08659 0
M  V30 1943 N 178.472 -0.111792 7.02011 0
M  V30 1944 H 183.312 1.18807 2.73293 0
M  V30 1945 H 180.849 0.597231 1.3443 0
M  V30 1946 H 182.807 -0.897923 4.07423 0
M  V30 1947 H 181.437 -1.23299 2.98324 0
M  V30 1948 H 180.489 1.09533 3.64289 0
M  V30 1949 H 181.801 1.22475 4.8353 0
M  V30 1950 H 180.955 -0.816098 6.01186 0
M  V30 1951 H 179.694 -1.03536 4.76583 0
M  V30 1952 H 178.699 1.18951 5.36778 0
M  V30 1953 H 179.924 1.39623 6.64592 0
M  V30 1954 H 177.87 -0.843395 6.50556 0
M  V30 1955 H 177.787 0.544429 7.54037 0
M  V30 1956 H 179.055 -0.622339 7.77012 0
M  V30 1957 N 183.284 -1.43765 0.645699 0
M  V30 1958 C 184.194 -2.34544 -0.0512957 0
M  V30 1959 C 185.21 -1.53455 -0.82022 0
M  V30 1960 O 186.386 -1.86133 -0.769176 0
M  V30 1961 C 183.451 -3.31636 -1.01087 0
M  V30 1962 C 182.512 -4.2863 -0.239712 0
M  V30 1963 C 181.745 -5.21084 -1.15358 0
M  V30 1964 O 181.968 -5.1779 -2.39269 0
M  V30 1965 O 180.902 -5.98593 -0.630038 0
M  V30 1966 H 184.728 -2.95624 0.695718 0
M  V30 1967 H 182.313 -1.43781 0.405882 0
M  V30 1968 H 184.195 -3.9136 -1.56254 0
M  V30 1969 H 182.87 -2.73069 -1.73824 0
M  V30 1970 H 181.777 -3.72408 0.355356 0
M  V30 1971 H 183.11 -4.90157 0.447936 0
M  V30 1972 N 184.763 -0.387143 -1.52771 0
M  V30 1973 C 185.71 0.449048 -2.26389 0
M  V30 1974 C 186.68 1.05961 -1.27912 0
M  V30 1975 O 187.865 1.08804 -1.56737 0
M  V30 1976 C 185.005 1.57155 -3.0724 0
M  V30 1977 C 184.118 0.984066 -4.20643 0
M  V30 1978 C 183.253 2.07745 -4.88892 0
M  V30 1979 C 182.292 1.46574 -5.94292 0
M  V30 1980 N 181.429 2.49834 -6.56146 0
M  V30 1981 H 186.269 -0.185205 -2.97424 0
M  V30 1982 H 183.806 -0.103164 -1.46738 0
M  V30 1983 H 185.764 2.23309 -3.52405 0
M  V30 1984 H 184.394 2.17615 -2.38419 0
M  V30 1985 H 183.446 0.212193 -3.79808 0
M  V30 1986 H 184.758 0.497029 -4.96318 0
M  V30 1987 H 183.912 2.81673 -5.3735 0
M  V30 1988 H 182.651 2.59807 -4.12737 0
M  V30 1989 H 181.656 0.711696 -5.45174 0
M  V30 1990 H 182.881 0.953088 -6.72379 0
M  V30 1991 H 180.827 3.0107 -5.82832 0
M  V30 1992 H 180.744 2.05879 -7.27427 0
M  V30 1993 H 182.012 3.23399 -7.09249 0
M  V30 1994 N 186.241 1.57166 -0.116904 0
M  V30 1995 C 187.188 2.15202 0.83408 0
M  V30 1996 C 188.158 1.07644 1.26499 0
M  V30 1997 O 189.343 1.35541 1.34288 0
M  V30 1998 C 186.483 2.75405 2.07957 0
M  V30 1999 C 185.596 3.97264 1.69721 0
M  V30 2000 C 184.731 4.45561 2.89221 0
M  V30 2001 C 183.77 5.59956 2.47215 0
M  V30 2002 N 182.907 6.03006 3.59622 0
M  V30 2003 H 187.747 2.96141 0.332335 0
M  V30 2004 H 185.284 1.46309 0.152349 0
M  V30 2005 H 187.242 3.08439 2.80929 0
M  V30 2006 H 185.872 1.97159 2.55594 0
M  V30 2007 H 184.924 3.70404 0.866316 0
M  V30 2008 H 186.236 4.80226 1.34849 0
M  V30 2009 H 185.39 4.80493 3.7042 0
M  V30 2010 H 184.129 3.61544 3.27318 0
M  V30 2011 H 183.134 5.2463 1.64448 0
M  V30 2012 H 184.359 6.45738 2.10238 0
M  V30 2013 H 182.305 5.21931 3.97396 0
M  V30 2014 H 182.222 6.80819 3.28667 0
M  V30 2015 H 183.49 6.42576 4.41267 0
M  V30 2016 N 187.719 -0.156864 1.56817 0
M  V30 2017 C 188.666 -1.19394 1.97519 0
M  V30 2018 C 189.636 -1.4322 0.841265 0
M  V30 2019 O 190.821 -1.55719 1.10255 0
M  V30 2020 C 187.961 -2.52483 2.35258 0
M  V30 2021 C 187.074 -2.35914 3.61896 0
M  V30 2022 C 186.209 -3.61969 3.88782 0
M  V30 2023 C 185.248 -3.40395 5.08722 0
M  V30 2024 N 184.385 -4.58556 5.31668 0
M  V30 2025 H 189.225 -0.839845 2.85921 0
M  V30 2026 H 186.762 -0.403264 1.41464 0
M  V30 2027 H 188.72 -3.30071 2.55165 0
M  V30 2028 H 187.35 -2.85859 1.49949 0
M  V30 2029 H 186.402 -1.49429 3.49821 0
M  V30 2030 H 187.714 -2.15926 4.49641 0
M  V30 2031 H 186.868 -4.47989 4.09135 0
M  V30 2032 H 185.607 -3.84951 2.9944 0
M  V30 2033 H 184.612 -2.52763 4.88253 0
M  V30 2034 H 185.837 -3.18822 5.99608 0
M  V30 2035 H 183.783 -4.81729 4.45279 0
M  V30 2036 H 183.7 -4.41535 6.13664 0
M  V30 2037 H 184.968 -5.45817 5.5651 0
M  V30 2038 N 189.197 -1.51736 -0.425897 0
M  V30 2039 C 190.608 -1.5732 -1.00536 0
M  V30 2040 C 190.959 -0.403537 -1.92005 0
M  V30 2041 O 190.084 0.478256 -2.11049 0
M  V30 2042 C 190.679 -2.85119 -1.8301 0
M  V30 2043 C 189.238 -2.93236 -2.35987 0
M  V30 2044 C 188.385 -2.52098 -1.15508 0
M  V30 2045 H 191.336 -1.57348 -0.206739 0
M  V30 2046 H 191.357 -2.69526 -2.68581 0
M  V30 2047 H 190.869 -3.7023 -1.16411 0
M  V30 2048 H 188.97 -2.12581 -3.06007 0
M  V30 2049 H 189.083 -3.9713 -2.68001 0
M  V30 2050 H 187.447 -2.05558 -1.50393 0
M  V30 2051 H 188.23 -3.39565 -0.505014 0
M  V30 2052 N 190.675 0.682077 -1.42076 0
M  V30 2053 C 191.923 1.4393 -1.41876 0
M  V30 2054 C 192.244 1.94971 -0.0335599 0
M  V30 2055 O 191.514 1.72591 0.926773 0
M  V30 2056 H 190.094 0.534085 -0.522267 0
M  V30 2057 H 192.756 0.806427 -1.77434 0
M  V30 2058 H 191.852 2.29588 -2.11414 0
M  V30 2059 N 192.153 1.28127 0.917671 0
M  V30 2060 C 193.063 1.13556 2.05286 0
M  V30 2061 C 194.079 0.0630914 1.73886 0
M  V30 2062 O 195.255 0.271598 1.9956 0
M  V30 2063 C 192.32 0.794676 3.3747 0
M  V30 2064 C 191.381 1.94909 3.82504 0
M  V30 2065 C 190.614 1.62437 5.0838 0
M  V30 2066 O 190.837 0.536905 5.67867 0
M  V30 2067 O 189.771 2.46677 5.4903 0
M  V30 2068 H 193.597 2.08844 2.20495 0
M  V30 2069 H 191.182 1.07409 1.03845 0
M  V30 2070 H 193.064 0.618344 4.16839 0
M  V30 2071 H 191.739 -0.128581 3.23445 0
M  V30 2072 H 190.646 2.18055 3.03978 0
M  V30 2073 H 191.979 2.85291 4.01086 0
M  V30 2074 N 193.631 -1.12557 1.10312 0
M  V30 2075 C 194.859 -1.87864 0.866873 0
M  V30 2076 C 195.274 -1.79588 -0.582557 0
M  V30 2077 O 194.631 -1.16887 -1.40156 0
M  V30 2078 C 194.682 -3.37125 1.30496 0
M  V30 2079 O 194.403 -3.45201 2.69755 0
M  V30 2080 C 195.904 -4.29373 1.10243 0
M  V30 2081 H 193.124 -0.594452 0.311236 0
M  V30 2082 H 195.668 -1.42429 1.46745 0
M  V30 2083 H 193.823 -3.80109 0.748081 0
M  V30 2084 H 194.237 -4.38056 2.88457 0
M  V30 2085 H 195.711 -5.32394 1.45811 0
M  V30 2086 H 196.188 -4.39181 0.0409492 0
M  V30 2087 H 196.794 -3.92169 1.64571 0
M  V30 2088 N 195.109 -0.891671 -1.2995 0
M  V30 2089 C 196.356 -0.513501 -1.95881 0
M  V30 2090 C 196.684 0.938655 -1.70351 0
M  V30 2091 O 195.939 1.67936 -1.00478 0
M  V30 2092 C 196.238 -0.742868 -3.49594 0
M  V30 2093 C 195.904 -2.17114 -3.95186 0
M  V30 2094 C 194.566 -2.56169 -4.07346 0
M  V30 2095 C 196.918 -3.10162 -4.18866 0
M  V30 2096 C 194.246 -3.87469 -4.4055 0
M  V30 2097 C 196.598 -4.41001 -4.53542 0
M  V30 2098 C 195.262 -4.79941 -4.63911 0
M  V30 2099 H 194.532 -0.187903 -0.71678 0
M  V30 2100 H 197.179 -1.1288 -1.54694 0
M  V30 2101 H 195.484 -0.044586 -3.91775 0
M  V30 2102 H 197.181 -0.429767 -3.9869 0
M  V30 2103 H 193.771 -1.85801 -3.86233 0
M  V30 2104 H 197.955 -2.81206 -4.08946 0
M  V30 2105 H 193.211 -4.17371 -4.46779 0
M  V30 2106 H 197.385 -5.13133 -4.70815 0
M  V30 2107 H 195.012 -5.81719 -4.89395 0
M  V30 2108 N 196.587 1.43421 -0.653314 0
M  V30 2109 C 197.834 2.01812 -0.166745 0
M  V30 2110 C 198.162 1.51535 1.21931 0
M  V30 2111 O 197.417 0.698975 1.82792 0
M  V30 2112 C 197.716 3.57176 -0.126623 0
M  V30 2113 C 197.382 4.26798 -1.45444 0
M  V30 2114 C 196.044 4.45534 -1.81805 0
M  V30 2115 C 198.396 4.66225 -2.32989 0
M  V30 2116 C 195.724 5.00961 -3.05377 0
M  V30 2117 C 198.076 5.23021 -3.55853 0
M  V30 2118 C 196.74 5.39973 -3.9241 0
M  V30 2119 H 196.01 0.738484 -0.0610162 0
M  V30 2120 H 198.657 1.71896 -0.84404 0
M  V30 2121 H 196.962 3.86634 0.634123 0
M  V30 2122 H 198.659 4.00112 0.266723 0
M  V30 2123 H 195.249 4.12561 -1.16153 0
M  V30 2124 H 199.433 4.51443 -2.06187 0
M  V30 2125 H 194.689 5.12271 -3.3375 0
M  V30 2126 H 198.863 5.52518 -4.23907 0
M  V30 2127 H 196.49 5.82687 -4.88242 0
M  V30 2128 N 198.065 0.39524 1.52563 0
M  V30 2129 C 198.998 -0.4813 2.23067 0
M  V30 2130 C 199.976 -1.05927 1.23362 0
M  V30 2131 O 201.16 -1.10979 1.52368 0
M  V30 2132 C 198.287 -1.66676 2.9485 0
M  V30 2133 C 197.333 -1.21348 4.08873 0
M  V30 2134 S 198.166 -0.190102 5.35162 0
M  V30 2135 C 199.322 -1.38121 6.1047 0
M  V30 2136 H 199.555 0.117381 2.97068 0
M  V30 2137 H 197.088 0.179458 1.53354 0
M  V30 2138 H 199.046 -2.3466 3.36816 0
M  V30 2139 H 197.707 -2.23676 2.20518 0
M  V30 2140 H 196.9 -2.09877 4.58222 0
M  V30 2141 H 196.502 -0.612486 3.68951 0
M  V30 2142 H 198.794 -2.30726 6.37002 0
M  V30 2143 H 199.737 -0.928521 7.01986 0
M  V30 2144 H 200.145 -1.60071 5.41329 0
M  V30 2145 N 199.544 -1.57102 0.125237 0
M  V30 2146 C 200.784 -1.97294 -0.534259 0
M  V30 2147 C 201.148 -1.0074 -1.63449 0
M  V30 2148 O 202.349 -1.29893 -2.35332 0
M  V30 2149 C 200.62 -3.41705 -1.04748 0
M  V30 2150 S 202.179 -4.03913 -1.71463 0
M  V30 2151 H 198.997 -0.689517 -0.173458 0
M  V30 2152 H 201.599 -1.94349 0.211797 0
M  V30 2153 H 200.303 -4.09723 -0.235649 0
M  V30 2154 H 199.834 -3.48315 -1.82867 0
M  V30 2155 H 201.849 -3.95182 -3.00077 0
M  V30 2156 N 201.022 0.148545 -1.56898 0
M  V30 2157 C 202.247 0.880385 -1.87787 0
M  V30 2158 C 202.672 1.74018 -0.714093 0
M  V30 2159 O 202.03 1.78153 0.336343 0
M  V30 2160 C 202.078 1.71422 -3.17249 0
M  V30 2161 O 201.182 2.8183 -3.01074 0
M  V30 2162 H 200.523 0.245301 -0.617028 0
M  V30 2163 H 203.053 0.139826 -2.04122 0
M  V30 2164 H 203.063 2.10954 -3.49231 0
M  V30 2165 H 201.738 1.08284 -4.01556 0
M  V30 2166 H 200.315 2.45715 -2.80497 0
M  V30 2167 N 202.5 1.5196 0.417844 0
M  V30 2168 C 203.74 1.67262 1.17486 0
M  V30 2169 C 204.104 0.38983 1.88001 0
M  V30 2170 O 205.305 0.418845 2.65517 0
M  V30 2171 C 203.576 2.85526 2.14965 0
M  V30 2172 S 205.135 3.21263 2.98891 0
M  V30 2173 H 201.953 0.589077 0.398132 0
M  V30 2174 H 204.555 1.89927 0.463452 0
M  V30 2175 H 203.259 3.77145 1.61833 0
M  V30 2176 H 202.79 2.65107 2.90657 0
M  V30 2177 H 204.805 2.69208 4.16823 0
M  V30 2178 N 203.978 -0.674533 1.42435 0
M  V30 2179 C 205.203 -1.46784 1.46524 0
M  V30 2180 C 205.628 -1.87938 0.078066 0
M  V30 2181 O 204.986 -1.56014 -0.92354 0
M  V30 2182 C 205.034 -2.69307 2.39805 0
M  V30 2183 O 204.138 -3.67587 1.86959 0
M  V30 2184 H 203.479 -0.440959 0.496439 0
M  V30 2185 H 206.009 -0.827326 1.87127 0
M  V30 2186 H 206.019 -3.17374 2.56393 0
M  V30 2187 H 204.694 -2.38692 3.40586 0
M  V30 2188 H 203.271 -3.2662 1.79927 0
M  V30 2189 N 205.456 -1.28612 -0.910864 0
M  V30 2190 C 206.681 -1.1891 -1.69927 0
M  V30 2191 C 207.106 0.248372 -1.86453 0
M  V30 2192 O 206.464 1.17961 -1.37676 0
M  V30 2193 C 206.512 -1.89578 -3.06745 0
M  V30 2194 O 205.616 -1.20521 -3.94396 0
M  V30 2195 H 204.957 -0.412632 -0.520222 0
M  V30 2196 H 207.487 -1.69985 -1.1387 0
M  V30 2197 H 207.497 -1.97597 -3.56958 0
M  V30 2198 H 206.172 -2.94136 -2.94035 0
M  V30 2199 H 204.749 -1.20684 -3.52831 0
M  V30 2200 N 206.934 1.1197 -1.10907 0
M  V30 2201 C 208.211 1.79959 -0.766432 0
M  V30 2202 C 208.591 1.97466 0.746363 0
M  V30 2203 O 207.939 1.55491 1.67436 0
M  V30 2204 C 208.149 3.14009 -1.52314 0
M  V30 2205 C 209.497 3.89134 -1.69883 0
M  V30 2206 O 210.521 3.2368 -1.48692 0
M  V30 2207 O 209.38 5.06572 -2.05054 0
M  V30 2208 H 206.474 0.779208 -0.277062 0
M  V30 2209 H 209.02 1.18762 -1.21217 0
M  V30 2210 H 207.792 2.96587 -2.55249 0
M  V30 2211 H 207.415 3.82915 -1.07059 0
M  V30 2212 N 208.412 0.89855 1.29475 0
M  V30 2213 C 209.322 0.379974 2.31502 0
M  V30 2214 C 210.338 -0.524695 1.659 0
M  V30 2215 O 211.514 -0.414551 1.97087 0
M  V30 2216 C 208.579 -0.385138 3.44554 0
M  V30 2217 C 207.64 0.550914 4.2575 0
M  V30 2218 C 206.873 -0.177778 5.33404 0
M  V30 2219 O 207.096 -1.40189 5.52904 0
M  V30 2220 O 206.03 0.479106 5.9999 0
M  V30 2221 H 209.856 1.22639 2.77837 0
M  V30 2222 H 207.441 0.662834 1.33891 0
M  V30 2223 H 209.323 -0.817841 4.13388 0
M  V30 2224 H 207.998 -1.20763 3.0033 0
M  V30 2225 H 206.905 1.03271 3.59564 0
M  V30 2226 H 208.238 1.33979 4.73614 0
M  V30 2227 N 209.89 -1.43072 0.660911 0
M  V30 2228 C 211.13 -2.03596 0.181146 0
M  V30 2229 C 211.494 -1.51057 -1.18515 0
M  V30 2230 O 212.695 -2.03275 -1.75877 0
M  V30 2231 C 210.966 -3.56845 0.19911 0
M  V30 2232 S 212.525 -4.38289 -0.211684 0
M  V30 2233 H 209.343 -0.706954 0.0757479 0
M  V30 2234 H 211.945 -1.75027 0.870965 0
M  V30 2235 H 210.649 -3.92583 1.1961 0
M  V30 2236 H 210.18 -3.90067 -0.510996 0
M  V30 2237 H 212.195 -4.74583 -1.44863 0
M  V30 2238 N 211.368 -0.403325 -1.52352 0
M  V30 2239 C 212.316 0.439752 -2.28405 0
M  V30 2240 C 213.31 1.05089 -1.32863 0
M  V30 2241 O 214.516 0.989759 -1.50345 0
M  V30 2242 H 210.891 0.160587 -0.734653 0
M  V30 2243 H 212.862 -0.222983 -2.97566 0
M  V30 2244 C 211.611 1.54736 -3.11371 0
M  V30 2245 H 210.934 1.08643 -3.84755 0
M  V30 2246 H 212.374 2.1112 -3.67701 0
M  V30 2247 C 210.833 2.51141 -2.24566 0
M  V30 2248 O 211.363 3.54887 -1.88196 0
M  V30 2249 N 209.569 2.21213 -1.8845 0
M  V30 2250 H 209.116 1.36878 -2.18225 0
M  V30 2251 H 209.074 2.85963 -1.30662 0
M  V30 2252 N 212.846 1.57033 -0.133567 0
M  V30 2253 C 214.123 1.87256 0.56522 0
M  V30 2254 C 214.503 1.03726 1.83859 0
M  V30 2255 O 213.851 0.120247 2.28183 0
M  V30 2256 C 214.061 3.3865 0.843636 0
M  V30 2257 C 215.409 4.07574 1.19032 0
M  V30 2258 O 216.433 3.43752 0.933429 0
M  V30 2259 O 215.292 5.20259 1.67312 0
M  V30 2260 H 212.386 0.775678 0.286796 0
M  V30 2261 H 214.932 1.68855 -0.169168 0
M  V30 2262 H 213.704 3.91257 -0.0581149 0
M  V30 2263 H 213.327 3.62532 1.63268 0
M  V30 2264 N 214.325 -0.140222 1.56975 0
M  V30 2265 C 215.273 -1.19207 1.99731 0
M  V30 2266 C 216.267 -1.44089 0.890777 0
M  V30 2267 O 217.473 -1.44301 1.07597 0
M  V30 2268 H 213.848 -0.40142 0.635898 0
M  V30 2269 H 215.819 -0.804813 2.87342 0
M  V30 2270 C 214.568 -2.51617 2.39967 0
M  V30 2271 H 213.891 -2.33303 3.24669 0
M  V30 2272 H 215.331 -3.23827 2.73701 0
M  V30 2273 C 213.79 -3.12654 1.25496 0
M  V30 2274 O 214.32 -3.97786 0.559371 0
M  V30 2275 N 212.526 -2.72206 1.01746 0
M  V30 2276 H 212.073 -2.03074 1.58489 0
M  V30 2277 H 212.031 -3.13377 0.253461 0
M  V30 2278 N 215.803 -1.52179 -0.40978 0
M  V30 2279 C 217.052 -1.65434 -1.15388 0
M  V30 2280 C 217.365 -0.390056 -1.91671 0
M  V30 2281 O 218.571 -0.402399 -2.68501 0
M  V30 2282 C 217.027 -2.92279 -2.10003 0
M  V30 2283 C 216.635 -4.25813 -1.39239 0
M  V30 2284 C 218.379 -3.14897 -2.84675 0
M  V30 2285 C 216.286 -5.43782 -2.32498 0
M  V30 2286 H 215.216 -0.616267 -0.434432 0
M  V30 2287 H 217.867 -1.78666 -0.418401 0
M  V30 2288 H 216.249 -2.72744 -2.871 0
M  V30 2289 H 217.423 -4.55828 -0.675099 0
M  V30 2290 H 215.738 -4.09292 -0.766097 0
M  V30 2291 H 218.335 -4.0021 -3.54593 0
M  V30 2292 H 218.678 -2.29103 -3.47588 0
M  V30 2293 H 219.211 -3.34901 -2.14677 0
M  V30 2294 H 215.95 -6.3192 -1.74233 0
M  V30 2295 H 215.47 -5.18106 -3.02201 0
M  V30 2296 H 217.149 -5.76834 -2.93038 0
M  V30 2297 N 217.281 0.66697 -1.42791 0
M  V30 2298 C 218.53 1.42278 -1.42968 0
M  V30 2299 C 218.843 1.9553 -0.0524489 0
M  V30 2300 O 220.049 2.71414 0.068363 0
M  V30 2301 C 218.505 2.57418 -2.51524 0
M  V30 2302 C 218.113 2.10832 -3.9529 0
M  V30 2303 C 219.857 3.34878 -2.60877 0
M  V30 2304 C 217.764 3.23101 -4.95338 0
M  V30 2305 H 216.694 0.534533 -0.531781 0
M  V30 2306 H 219.345 0.721302 -1.68729 0
M  V30 2307 H 217.727 3.29971 -2.18941 0
M  V30 2308 H 218.901 1.4538 -4.37266 0
M  V30 2309 H 217.216 1.46289 -3.89857 0
M  V30 2310 H 219.813 4.18505 -3.32802 0
M  V30 2311 H 220.156 3.81993 -1.6549 0
M  V30 2312 H 220.689 2.69398 -2.92693 0
M  V30 2313 H 217.428 2.80969 -5.9223 0
M  V30 2314 H 216.948 3.87309 -4.57987 0
M  V30 2315 H 218.627 3.88447 -5.17415 0
M  V30 2316 N 218.759 1.29093 0.90403 0
M  V30 2317 C 220.006 1.16813 1.65411 0
M  V30 2318 C 220.334 -0.28128 1.92455 0
M  V30 2319 O 219.589 -1.22006 1.53013 0
M  V30 2320 C 219.888 1.92224 3.01305 0
M  V30 2321 C 219.554 3.41968 2.93885 0
M  V30 2322 C 218.216 3.82807 2.91569 0
M  V30 2323 C 220.568 4.37409 2.83413 0
M  V30 2324 C 217.896 5.1741 2.76594 0
M  V30 2325 C 220.248 5.72097 2.69977 0
M  V30 2326 C 218.912 6.12199 2.66024 0
M  V30 2327 H 218.182 0.42745 0.605283 0
M  V30 2328 H 220.829 1.59981 1.05254 0
M  V30 2329 H 219.134 1.41635 3.65304 0
M  V30 2330 H 220.831 1.80131 3.58265 0
M  V30 2331 H 217.421 3.09504 2.96488 0
M  V30 2332 H 221.605 4.06813 2.84283 0
M  V30 2333 H 216.861 5.47596 2.71935 0
M  V30 2334 H 221.035 6.45704 2.60844 0
M  V30 2335 H 218.662 7.16448 2.54178 0
M  V30 2336 N 220.237 -1.11381 1.11499 0
M  V30 2337 C 221.462 -1.87475 0.887019 0
M  V30 2338 C 221.887 -1.79639 -0.557796 0
M  V30 2339 O 221.245 -1.15924 -1.39396 0
M  V30 2340 C 221.293 -3.34213 1.35403 0
M  V30 2341 O 220.397 -4.0903 0.526146 0
M  V30 2342 H 219.738 -0.582099 0.319463 0
M  V30 2343 H 222.268 -1.40785 1.48461 0
M  V30 2344 H 222.278 -3.8506 1.34881 0
M  V30 2345 H 220.953 -3.39232 2.40612 0
M  V30 2346 H 219.53 -3.68082 0.597522 0
M  V30 2347 N 221.715 -0.905404 -1.28997 0
M  V30 2348 C 222.625 -0.392246 -2.31298 0
M  V30 2349 C 223.641 0.515889 -1.66176 0
M  V30 2350 O 224.817 0.404093 -1.97304 0
M  V30 2351 C 221.882 0.36686 -3.44754 0
M  V30 2352 C 220.943 -0.573485 -4.25452 0
M  V30 2353 C 220.176 0.149488 -5.33491 0
M  V30 2354 O 220.399 1.37255 -5.5364 0
M  V30 2355 O 219.333 -0.510919 -5.99728 0
M  V30 2356 H 223.159 -1.2411 -2.77183 0
M  V30 2357 H 220.744 -0.669926 -1.33538 0
M  V30 2358 H 222.626 0.795907 -4.13816 0
M  V30 2359 H 221.301 1.19169 -3.00966 0
M  V30 2360 H 220.208 -1.05176 -3.59011 0
M  V30 2361 H 221.541 -1.36489 -4.72897 0
M  V30 2362 N 223.193 1.4272 -0.668489 0
M  V30 2363 C 224.103 2.34596 0.0139753 0
M  V30 2364 C 225.119 1.5474 0.795703 0
M  V30 2365 O 226.295 1.87334 0.739466 0
M  V30 2366 C 223.36 3.33202 0.957982 0
M  V30 2367 C 222.421 4.28957 0.17149 0
M  V30 2368 C 221.654 5.22853 1.07053 0
M  V30 2369 O 221.877 5.21531 2.31001 0
M  V30 2370 O 220.811 5.9952 0.534727 0
M  V30 2371 H 224.637 2.9448 -0.742661 0
M  V30 2372 H 222.222 1.43117 -0.428705 0
M  V30 2373 H 224.104 3.93796 1.50008 0
M  V30 2374 H 222.779 2.758 1.69458 0
M  V30 2375 H 221.686 3.71796 -0.414558 0
M  V30 2376 H 223.019 4.89383 -0.52586 0
M  V30 2377 N 224.671 0.411399 1.52136 0
M  V30 2378 C 225.901 -0.16284 2.05957 0
M  V30 2379 C 226.309 -1.3922 1.28119 0
M  V30 2380 O 225.652 -1.80768 0.326881 0
M  V30 2381 C 225.714 -0.575946 3.54856 0
M  V30 2382 C 225.378 0.542998 4.53763 0
M  V30 2383 C 226.375 1.40726 5.00492 0
M  V30 2384 C 224.06 0.716337 4.97166 0
M  V30 2385 C 226.054 2.4298 5.8927 0
M  V30 2386 C 223.741 1.74218 5.8574 0
M  V30 2387 C 224.739 2.59731 6.31687 0
M  V30 2388 O 224.427 3.60558 7.18507 0
M  V30 2389 H 224.159 -0.0229125 0.675612 0
M  V30 2390 H 226.713 0.581634 1.96993 0
M  V30 2391 H 224.943 -1.37274 3.61515 0
M  V30 2392 H 226.632 -1.07836 3.91313 0
M  V30 2393 H 227.398 1.28476 4.67674 0
M  V30 2394 H 223.277 0.0603857 4.6096 0
M  V30 2395 H 226.821 3.0976 6.25055 0
M  V30 2396 H 222.718 1.86498 6.17971 0
M  V30 2397 H 223.486 3.56829 7.36624 0
M  V30 2398 N 226.149 -1.5696 0.141893 0
M  V30 2399 C 227.097 -2.17784 -0.816874 0
M  V30 2400 C 228.091 -1.1334 -1.25899 0
M  V30 2401 O 229.297 -1.316 -1.22806 0
M  V30 2402 H 225.672 -0.697278 -0.281615 0
M  V30 2403 H 227.643 -2.97087 -0.279621 0
M  V30 2404 C 226.392 -2.80983 -2.04802 0
M  V30 2405 H 225.715 -3.61062 -1.7168 0
M  V30 2406 H 227.155 -3.2705 -2.69841 0
M  V30 2407 C 225.614 -1.79228 -2.8527 0
M  V30 2408 O 226.144 -1.25962 -3.8144 0
M  V30 2409 N 224.35 -1.48647 -2.49704 0
M  V30 2410 H 223.897 -1.92155 -1.71564 0
M  V30 2411 H 223.855 -0.808115 -3.03837 0
M  V30 2412 N 227.627 0.131896 -1.57047 0
M  V30 2413 C 228.855 0.856461 -1.88341 0
M  V30 2414 C 229.27 1.74042 -0.731757 0
M  V30 2415 O 228.627 1.80051 0.297945 0
M  V30 2416 C 228.678 1.70064 -3.18999 0
M  V30 2417 O 228.399 0.852278 -4.2973 0
M  V30 2418 C 229.9 2.53148 -3.63911 0
M  V30 2419 H 227.12 0.246885 -0.62393 0
M  V30 2420 H 229.664 0.120152 -2.04147 0
M  V30 2421 H 227.819 2.38984 -3.04902 0
M  V30 2422 H 228.233 1.43329 -5.04537 0
M  V30 2423 H 229.707 3.07931 -4.58129 0
M  V30 2424 H 230.184 3.29901 -2.89935 0
M  V30 2425 H 230.79 1.89492 -3.80753 0
M  V30 2426 N 229.106 1.52395 0.401703 0
M  V30 2427 C 230.331 1.70972 1.17403 0
M  V30 2428 C 230.756 0.421615 1.83314 0
M  V30 2429 O 230.114 -0.621564 1.70312 0
M  V30 2430 C 230.162 2.85151 2.20728 0
M  V30 2431 O 229.266 2.51238 3.27037 0
M  V30 2432 H 228.607 0.568927 0.342372 0
M  V30 2433 H 231.137 1.99131 0.469891 0
M  V30 2434 H 231.147 3.10279 2.64936 0
M  V30 2435 H 229.822 3.78603 1.7214 0
M  V30 2436 H 228.399 2.36808 2.88057 0
M  V30 2437 N 230.584 -0.659388 1.43143 0
M  V30 2438 C 231.532 -1.79374 1.4808 0
M  V30 2439 C 232.526 -1.65639 0.354988 0
M  V30 2440 O 233.732 -1.7206 0.528704 0
M  V30 2441 H 230.107 -0.591705 0.4641 0
M  V30 2442 H 232.078 -1.72329 2.43609 0
M  V30 2443 C 230.827 -3.17606 1.41499 0
M  V30 2444 H 230.15 -3.28809 2.27431 0
M  V30 2445 H 231.59 -3.96951 1.49015 0
M  V30 2446 C 230.049 -3.36642 0.131765 0
M  V30 2447 O 230.579 -3.93461 -0.809386 0
M  V30 2448 N 228.785 -2.90567 0.0439396 0
M  V30 2449 H 228.332 -2.44513 0.810619 0
M  V30 2450 H 228.29 -3.03681 -0.813969 0
M  V30 2451 N 232.062 -1.29571 -0.897171 0
M  V30 2452 C 233.473 -1.15964 -1.46319 0
M  V30 2453 C 233.824 0.244267 -1.94674 0
M  V30 2454 O 232.949 1.13998 -1.83939 0
M  V30 2455 C 233.544 -2.09906 -2.65942 0
M  V30 2456 C 232.103 -2.00314 -3.18671 0
M  V30 2457 C 231.25 -2.00687 -1.91363 0
M  V30 2458 H 234.201 -1.42019 -0.708268 0
M  V30 2459 H 234.222 -1.67276 -3.41759 0
M  V30 2460 H 233.734 -3.12075 -2.30718 0
M  V30 2461 H 231.835 -1.01242 -3.58582 0
M  V30 2462 H 231.948 -2.88102 -3.82798 0
M  V30 2463 H 230.312 -1.45319 -2.09175 0
M  V30 2464 H 231.095 -3.04566 -1.58413 0
M  V30 2465 N 233.54 1.10788 -1.12088 0
M  V30 2466 C 234.817 1.79136 -0.785476 0
M  V30 2467 C 235.197 1.98246 0.725377 0
M  V30 2468 O 234.545 1.57258 1.65778 0
M  V30 2469 C 234.755 3.12375 -1.55636 0
M  V30 2470 C 236.103 3.8731 -1.74001 0
M  V30 2471 O 237.127 3.22085 -1.52117 0
M  V30 2472 O 235.986 5.04369 -2.10415 0
M  V30 2473 H 233.08 0.776226 -0.285311 0
M  V30 2474 H 235.626 1.1747 -1.2247 0
M  V30 2475 H 234.398 2.93863 -2.5838 0
M  V30 2476 H 234.021 3.81758 -1.11114 0
M  V30 2477 N 235.018 0.912232 1.28515 0
M  V30 2478 C 235.948 0.416403 2.29757 0
M  V30 2479 C 236.929 -0.515194 1.6211 0
M  V30 2480 O 238.114 -0.423253 1.89532 0
M  V30 2481 C 235.244 -0.34572 3.45575 0
M  V30 2482 C 234.198 0.496599 4.25109 0
M  V30 2483 C 233.524 -0.393771 5.33248 0
M  V30 2484 C 234.824 1.75307 4.92001 0
M  V30 2485 H 236.518 1.26249 2.7148 0
M  V30 2486 H 234.064 0.608515 1.30511 0
M  V30 2487 H 236.017 -0.703422 4.15488 0
M  V30 2488 H 234.741 -1.2257 3.02728 0
M  V30 2489 H 233.4 0.8368 3.56922 0
M  V30 2490 H 233.048 -1.27225 4.86644 0
M  V30 2491 H 232.748 0.166209 5.87365 0
M  V30 2492 H 234.272 -0.747389 6.06009 0
M  V30 2493 H 235.686 1.46437 5.54283 0
M  V30 2494 H 234.083 2.25534 5.56106 0
M  V30 2495 H 235.153 2.48176 4.16577 0
M  V30 2496 N 236.496 -1.42363 0.676048 0
M  V30 2497 C 237.426 -2.33497 0.0124832 0
M  V30 2498 C 238.407 -1.50748 -0.787981 0
M  V30 2499 O 239.592 -1.79346 -0.744884 0
M  V30 2500 C 236.722 -3.34377 -0.938582 0
M  V30 2501 C 235.676 -4.27289 -0.246622 0
M  V30 2502 C 235.002 -5.18386 -1.31071 0
M  V30 2503 C 236.302 -5.14916 0.875125 0
M  V30 2504 H 237.996 -2.89233 0.773593 0
M  V30 2505 H 235.542 -1.39073 0.37346 0
M  V30 2506 H 237.495 -3.97044 -1.41188 0
M  V30 2507 H 236.219 -2.76947 -1.73113 0
M  V30 2508 H 234.878 -3.66018 0.206456 0
M  V30 2509 H 234.526 -4.57282 -2.09528 0
M  V30 2510 H 234.226 -5.81378 -0.852839 0
M  V30 2511 H 235.75 -5.83929 -1.78492 0
M  V30 2512 H 237.164 -5.71262 0.482983 0
M  V30 2513 H 235.561 -5.86747 1.25887 0
M  V30 2514 H 236.631 -4.53242 1.72335 0
M  V30 2515 N 237.974 -0.419461 -1.51915 0
M  V30 2516 C 238.904 0.391813 -2.30189 0
M  V30 2517 C 239.885 1.03699 -1.34836 0
M  V30 2518 O 241.07 1.04403 -1.63748 0
M  V30 2519 C 238.2 1.50312 -3.13087 0
M  V30 2520 C 237.154 0.9824 -4.16573 0
M  V30 2521 C 236.48 2.18809 -4.8788 0
M  V30 2522 C 237.78 0.0292356 -5.22292 0
M  V30 2523 H 239.474 -0.26135 -2.98257 0
M  V30 2524 H 237.02 -0.127134 -1.43438 0
M  V30 2525 H 238.973 2.07773 -3.66617 0
M  V30 2526 H 237.697 2.18431 -2.42807 0
M  V30 2527 H 236.356 0.430119 -3.64068 0
M  V30 2528 H 236.004 2.85507 -4.14119 0
M  V30 2529 H 235.704 1.84615 -5.57845 0
M  V30 2530 H 237.228 2.76858 -5.44226 0
M  V30 2531 H 238.642 0.512976 -5.71 0
M  V30 2532 H 237.039 -0.2244 -5.9968 0
M  V30 2533 H 238.109 -0.912931 -4.76228 0
M  V30 2534 N 239.452 1.56882 -0.150215 0
M  V30 2535 C 240.698 1.96518 0.500834 0
M  V30 2536 C 241.031 1.03527 1.64304 0
M  V30 2537 O 240.306 0.0782751 1.94342 0
M  V30 2538 C 240.589 3.45822 1.00395 0
M  V30 2539 C 240.442 4.49591 -0.136983 0
M  V30 2540 C 241.761 3.97704 1.88467 0
M  V30 2541 H 238.88 0.714535 0.18058 0
M  V30 2542 H 241.522 1.88577 -0.232091 0
M  V30 2543 H 239.672 3.5272 1.62851 0
M  V30 2544 H 241.344 4.5477 -0.77343 0
M  V30 2545 H 239.587 4.26441 -0.795652 0
M  V30 2546 H 240.258 5.51402 0.256815 0
M  V30 2547 H 242.734 3.93304 1.35834 0
M  V30 2548 H 241.61 5.0263 2.20578 0
M  V30 2549 H 241.871 3.40252 2.82279 0
M  V30 2550 N 240.93 -0.123565 1.57115 0
M  V30 2551 C 242.179 -0.830704 1.83799 0
M  V30 2552 C 242.492 -1.81259 0.735158 0
M  V30 2553 O 243.698 -2.56558 0.888278 0
M  V30 2554 C 242.154 -1.52802 3.25852 0
M  V30 2555 C 241.762 -0.587356 4.44133 0
M  V30 2556 C 243.506 -2.22056 3.61789 0
M  V30 2557 C 241.413 -1.28764 5.77212 0
M  V30 2558 H 240.343 -0.313967 0.685522 0
M  V30 2559 H 242.994 -0.0834359 1.8331 0
M  V30 2560 H 241.376 -2.32175 3.20797 0
M  V30 2561 H 242.55 0.172829 4.60476 0
M  V30 2562 H 240.865 -0.00201892 4.164 0
M  V30 2563 H 243.462 -2.75131 4.58483 0
M  V30 2564 H 243.805 -2.99644 2.88997 0
M  V30 2565 H 244.338 -1.49576 3.68608 0
M  V30 2566 H 241.077 -0.55314 6.53162 0
M  V30 2567 H 240.597 -2.01995 5.64764 0
M  V30 2568 H 242.276 -1.8221 6.20813 0
M  V30 2569 N 242.408 -1.52605 -0.393616 0
M  V30 2570 C 243.655 -1.67424 -1.1391 0
M  V30 2571 C 243.983 -0.411859 -1.90089 0
M  V30 2572 O 243.238 0.605626 -1.86093 0
M  V30 2573 C 243.537 -2.85721 -2.14705 0
M  V30 2574 C 243.203 -4.23342 -1.55218 0
M  V30 2575 C 241.865 -4.60771 -1.3872 0
M  V30 2576 C 244.217 -5.09041 -1.11924 0
M  V30 2577 C 241.545 -5.81563 -0.774689 0
M  V30 2578 C 243.897 -6.30452 -0.520853 0
M  V30 2579 C 242.561 -6.66617 -0.343134 0
M  V30 2580 H 241.831 -0.612648 -0.416826 0
M  V30 2581 H 244.478 -1.8674 -0.424315 0
M  V30 2582 H 242.783 -2.60803 -2.92385 0
M  V30 2583 H 244.48 -2.94382 -2.72288 0
M  V30 2584 H 241.07 -3.93855 -1.69045 0
M  V30 2585 H 245.254 -4.80695 -1.23473 0
M  V30 2586 H 240.51 -6.08196 -0.625154 0
M  V30 2587 H 244.684 -6.96175 -0.177065 0
M  V30 2588 H 242.311 -7.60083 0.133571 0
M  V30 2589 N 243.887 0.651787 -1.4349 0
M  V30 2590 C 244.819 1.77725 -1.44729 0
M  V30 2591 C 245.832 1.59141 -0.343231 0
M  V30 2592 O 247.021 1.67835 -0.607751 0
M  V30 2593 C 244.121 3.15172 -1.24579 0
M  V30 2594 C 243.294 3.60402 -2.47849 0
M  V30 2595 C 242.353 4.76656 -2.22902 0
M  V30 2596 O 241.379 4.86022 -2.96263 0
M  V30 2597 N 242.581 5.66958 -1.24656 0
M  V30 2598 H 245.346 1.77141 -2.41746 0
M  V30 2599 H 242.907 0.835678 -1.38665 0
M  V30 2600 H 244.899 3.90634 -1.0577 0
M  V30 2601 H 243.469 3.1052 -0.360015 0
M  V30 2602 H 242.689 2.75369 -2.82073 0
M  V30 2603 H 243.977 3.87368 -3.29884 0
M  V30 2604 H 243.375 5.62065 -0.640265 0
M  V30 2605 H 241.932 6.42135 -1.1183 0
M  V30 2606 N 245.365 1.30045 0.890287 0
M  V30 2607 C 246.611 1.18737 1.64406 0
M  V30 2608 C 246.944 -0.258525 1.92472 0
M  V30 2609 O 246.219 -1.18562 1.54186 0
M  V30 2610 C 246.502 2.01087 2.98724 0
M  V30 2611 C 246.355 3.53867 2.77665 0
M  V30 2612 C 247.674 1.84457 3.9958 0
M  V30 2613 H 244.793 0.432698 0.596608 0
M  V30 2614 H 247.435 1.5962 1.0306 0
M  V30 2615 H 245.585 1.66349 3.51084 0
M  V30 2616 H 247.257 3.98637 2.32133 0
M  V30 2617 H 245.5 3.78318 2.12269 0
M  V30 2618 H 246.171 4.06772 3.7315 0
M  V30 2619 H 248.647 2.14817 3.56361 0
M  V30 2620 H 247.523 2.44411 4.91482 0
M  V30 2621 H 247.784 0.802276 4.3476 0
M  V30 2622 N 246.843 -1.10192 1.12674 0
M  V30 2623 C 248.071 -1.85983 0.906527 0
M  V30 2624 C 248.486 -1.80783 -0.544333 0
M  V30 2625 O 247.843 -1.19834 -1.37645 0
M  V30 2626 C 247.894 -3.34281 1.37618 0
M  V30 2627 O 247.615 -3.39401 2.77017 0
M  V30 2628 C 249.116 -4.26938 1.19325 0
M  V30 2629 H 246.336 -0.587716 0.323775 0
M  V30 2630 H 248.88 -1.39284 1.49734 0
M  V30 2631 H 247.035 -3.78436 0.828539 0
M  V30 2632 H 247.449 -4.31838 2.97684 0
M  V30 2633 H 248.923 -5.29181 1.57071 0
M  V30 2634 H 249.4 -4.38995 0.134097 0
M  V30 2635 H 250.006 -3.8859 1.72852 0
M  V30 2636 N 248.321 -0.919034 -1.28029 0
M  V30 2637 C 249.569 -0.553838 -1.94363 0
M  V30 2638 C 249.89 0.906357 -1.72656 0
M  V30 2639 O 249.16 1.64143 -1.0693 0
M  V30 2640 H 247.74 -0.201834 -0.719216 0
M  V30 2641 H 250.402 -1.16954 -1.55909 0
M  V30 2642 H 249.498 -0.752758 -3.02886 0
M  V30 2643 N 249.799 1.42003 -0.683588 0
M  V30 2644 C 251.048 2.00638 -0.206681 0
M  V30 2645 C 251.361 1.5472 1.19671 0
M  V30 2646 O 252.567 2.05833 1.77045 0
M  V30 2647 C 251.023 3.58487 -0.318632 0
M  V30 2648 C 250.631 4.1339 -1.72663 0
M  V30 2649 C 252.375 4.24384 0.0991141 0
M  V30 2650 C 250.282 5.63633 -1.79087 0
M  V30 2651 H 249.212 0.750408 -0.0735107 0
M  V30 2652 H 251.863 1.62624 -0.850048 0
M  V30 2653 H 250.245 3.94047 0.392781 0
M  V30 2654 H 251.419 3.89273 -2.46583 0
M  V30 2655 H 249.734 3.59976 -2.09299 0
M  V30 2656 H 252.331 5.34652 0.0713833 0
M  V30 2657 H 252.674 4.00505 1.13586 0
M  V30 2658 H 253.207 3.93816 -0.561599 0
M  V30 2659 H 249.946 5.92323 -2.80774 0
M  V30 2660 H 249.466 5.89714 -1.09535 0
M  V30 2661 H 251.145 6.28201 -1.5483 0
M  V30 2662 N 251.277 0.427512 1.51691 0
M  V30 2663 C 252.502 -0.143601 2.06902 0
M  V30 2664 C 252.927 -1.36536 1.29382 0
M  V30 2665 O 252.285 -1.78289 0.329043 0
M  V30 2666 C 252.333 -0.454207 3.57728 0
M  V30 2667 O 251.437 -1.54228 3.82475 0
M  V30 2668 H 250.778 -0.00617128 0.663971 0
M  V30 2669 H 253.308 0.606014 1.95419 0
M  V30 2670 H 253.318 -0.707525 4.01818 0
M  V30 2671 H 251.993 0.438812 4.13579 0
M  V30 2672 H 250.57 -1.2797 3.50254 0
M  V30 2673 N 252.755 -1.56801 0.158532 0
M  V30 2674 C 253.685 -2.20347 -0.772609 0
M  V30 2675 C 254.666 -1.15518 -1.24859 0
M  V30 2676 O 255.851 -1.43902 -1.30406 0
M  V30 2677 C 252.981 -2.83417 -2.00729 0
M  V30 2678 C 251.935 -3.94174 -1.66765 0
M  V30 2679 C 251.261 -4.44233 -2.97592 0
M  V30 2680 C 252.561 -5.14392 -0.905447 0
M  V30 2681 H 254.255 -2.98413 -0.242959 0
M  V30 2682 H 251.801 -1.43537 -0.115419 0
M  V30 2683 H 253.754 -3.26543 -2.6636 0
M  V30 2684 H 252.478 -2.02701 -2.56086 0
M  V30 2685 H 251.137 -3.51684 -1.03508 0
M  V30 2686 H 250.785 -3.60325 -3.50963 0
M  V30 2687 H 250.485 -5.18945 -2.75626 0
M  V30 2688 H 252.009 -4.90037 -3.64274 0
M  V30 2689 H 253.423 -5.5429 -1.46408 0
M  V30 2690 H 251.82 -5.9494 -0.7853 0
M  V30 2691 H 252.89 -4.84795 0.100668 0
M  V30 2692 N 254.233 0.115231 -1.57178 0
M  V30 2693 C 255.163 1.1423 -2.03651 0
M  V30 2694 C 256.144 1.42967 -0.921655 0
M  V30 2695 O 257.329 1.53343 -1.19162 0
M  V30 2696 C 254.459 2.4675 -2.44401 0
M  V30 2697 C 253.413 2.32467 -3.59365 0
M  V30 2698 C 252.739 3.69984 -3.86026 0
M  V30 2699 C 254.039 1.78203 -4.90959 0
M  V30 2700 H 255.733 0.755749 -2.89705 0
M  V30 2701 H 253.279 0.362093 -1.39373 0
M  V30 2702 H 255.232 3.18854 -2.75517 0
M  V30 2703 H 253.956 2.87302 -1.55322 0
M  V30 2704 H 252.615 1.62811 -3.28463 0
M  V30 2705 H 252.263 4.08028 -2.94147 0
M  V30 2706 H 251.963 3.61279 -4.63412 0
M  V30 2707 H 253.487 4.43587 -4.19599 0
M  V30 2708 H 254.901 2.40128 -5.20587 0
M  V30 2709 H 253.298 1.8031 -5.72371 0
M  V30 2710 H 254.368 0.739876 -4.79222 0
M  V30 2711 N 255.711 1.52812 0.385517 0
M  V30 2712 C 257.122 1.5993 0.963293 0
M  V30 2713 C 257.473 0.454302 1.90868 0
M  V30 2714 O 256.598 -0.422132 2.12243 0
M  V30 2715 C 257.193 2.89871 1.75387 0
M  V30 2716 C 255.752 2.99389 2.28129 0
M  V30 2717 C 254.899 2.55071 1.08783 0
M  V30 2718 H 257.85 1.5784 0.164948 0
M  V30 2719 H 257.871 2.76553 2.61341 0
M  V30 2720 H 257.383 3.73186 1.06554 0
M  V30 2721 H 255.484 2.20619 3.00263 0
M  V30 2722 H 255.597 4.04096 2.57377 0
M  V30 2723 H 253.961 2.09473 1.4489 0
M  V30 2724 H 254.744 3.40785 0.414807 0
M  V30 2725 N 257.189 -0.644168 1.43834 0
M  V30 2726 C 258.6 -1.22554 1.40845 0
M  V30 2727 C 258.951 -1.9585 0.117115 0
M  V30 2728 O 258.076 -2.01734 -0.783086 0
M  V30 2729 C 258.671 -2.22907 2.55143 0
M  V30 2730 C 257.23 -2.76501 2.5539 0
M  V30 2731 C 256.377 -1.51287 2.32396 0
M  V30 2732 H 259.328 -0.43563 1.52604 0
M  V30 2733 H 259.349 -3.05259 2.2715 0
M  V30 2734 H 258.861 -1.69533 3.49114 0
M  V30 2735 H 256.962 -3.33914 1.65324 0
M  V30 2736 H 257.075 -3.23429 3.53455 0
M  V30 2737 H 255.439 -1.78957 1.81236 0
M  V30 2738 H 256.222 -0.998336 3.28463 0
M  V30 2739 N 258.668 -1.30515 -0.883378 0
M  V30 2740 C 259.598 -1.19607 -2.00541 0
M  V30 2741 C 260.579 -0.086346 -1.69881 0
M  V30 2742 O 261.764 -0.268654 -1.92333 0
M  V30 2743 C 258.894 -0.888758 -3.35736 0
M  V30 2744 C 257.848 -1.95659 -3.8066 0
M  V30 2745 C 257.174 -1.50224 -5.13164 0
M  V30 2746 C 258.474 -3.36788 -3.99213 0
M  V30 2747 H 260.168 -2.13476 -2.09925 0
M  V30 2748 H 257.714 -1.02775 -1.00863 0
M  V30 2749 H 259.667 -0.799094 -4.13754 0
M  V30 2750 H 258.391 0.0856125 -3.26488 0
M  V30 2751 H 257.05 -2.03591 -3.04871 0
M  V30 2752 H 256.698 -0.516092 -5.00345 0
M  V30 2753 H 256.398 -2.2165 -5.44192 0
M  V30 2754 H 257.922 -1.42639 -5.93706 0
M  V30 2755 H 259.336 -3.31605 -4.67665 0
M  V30 2756 H 257.733 -4.06314 -4.41621 0
M  V30 2757 H 258.803 -3.78561 -3.03017 0
M  V30 2758 N 260.146 1.09593 -1.13257 0
M  V30 2759 C 261.394 1.81375 -0.891492 0
M  V30 2760 C 261.715 1.86049 0.584009 0
M  V30 2761 O 260.985 1.34481 1.42449 0
M  V30 2762 H 259.565 0.671708 -0.326828 0
M  V30 2763 H 262.227 1.3256 -1.42877 0
M  V30 2764 H 261.323 2.84612 -1.28071 0
M  V30 2765 N 261.624 0.925811 1.2754 0
M  V30 2766 C 262.87 0.566092 1.94739 0
M  V30 2767 C 263.203 -0.890057 1.72603 0
M  V30 2768 O 262.478 -1.63467 1.05399 0
M  V30 2769 C 262.761 0.89054 3.48915 0
M  V30 2770 C 262.614 2.4003 3.80402 0
M  V30 2771 C 263.933 0.395101 4.38323 0
M  V30 2772 H 261.052 0.20714 0.707292 0
M  V30 2773 H 263.694 1.15725 1.50691 0
M  V30 2774 H 261.844 0.387452 3.86563 0
M  V30 2775 H 263.516 2.97494 3.52555 0
M  V30 2776 H 261.759 2.85028 3.2702 0
M  V30 2777 H 262.43 2.57785 4.8811 0
M  V30 2778 H 264.906 0.826241 4.07814 0
M  V30 2779 H 263.782 0.651086 5.45025 0
M  V30 2780 H 264.043 -0.704798 4.36446 0
M  V30 2781 N 263.102 -1.41638 0.69111 0
M  V30 2782 C 264.065 -2.29178 0.0319786 0
M  V30 2783 C 265.065 -1.44153 -0.712496 0
M  V30 2784 O 266.255 -1.65354 -0.548053 0
M  V30 2785 C 263.387 -3.26952 -0.965161 0
M  V30 2786 H 264.58 -2.88959 0.802681 0
M  V30 2787 H 262.133 -1.4955 0.454356 0
M  V30 2788 H 262.868 -2.72142 -1.76378 0
M  V30 2789 H 262.653 -3.89685 -0.434522 0
M  V30 2790 H 264.143 -3.92561 -1.42428 0
M  V30 2791 N 264.58 -0.43555 -1.51462 0
M  V30 2792 C 265.829 0.133007 -2.01261 0
M  V30 2793 C 266.142 1.43942 -1.32439 0
M  V30 2794 O 267.348 2.09081 -1.73198 0
M  V30 2795 C 265.804 0.287581 -3.58749 0
M  V30 2796 C 265.412 -1.00829 -4.36506 0
M  V30 2797 C 267.156 0.810004 -4.167 0
M  V30 2798 C 265.063 -0.819454 -5.85695 0
M  V30 2799 H 263.993 0.0534822 -0.752101 0
M  V30 2800 H 266.644 -0.565038 -1.74584 0
M  V30 2801 H 265.026 1.04859 -3.81865 0
M  V30 2802 H 266.2 -1.77749 -4.25138 0
M  V30 2803 H 264.515 -1.45911 -3.89999 0
M  V30 2804 H 267.112 0.967743 -5.2587 0
M  V30 2805 H 267.455 1.79196 -3.75758 0
M  V30 2806 H 267.988 0.107357 -3.97655 0
M  V30 2807 H 264.727 -1.77374 -6.31046 0
M  V30 2808 H 264.247 -0.0900208 -5.99732 0
M  V30 2809 H 265.926 -0.471949 -6.45276 0
M  V30 2810 N 266.058 1.56714 -0.166846 0
M  V30 2811 C 267.283 2.01557 0.488833 0
M  V30 2812 C 267.708 1.0463 1.56314 0
M  V30 2813 O 267.066 0.0251304 1.81283 0
M  V30 2814 C 267.114 3.4503 1.04818 0
M  V30 2815 O 266.218 3.51163 2.16236 0
M  V30 2816 H 265.559 0.653516 0.117526 0
M  V30 2817 H 268.089 2.02818 -0.269421 0
M  V30 2818 H 268.099 3.84243 1.37191 0
M  V30 2819 H 266.774 4.15077 0.261572 0
M  V30 2820 H 265.351 3.23807 1.84942 0
M  V30 2821 N 267.536 -0.106894 1.57237 0
M  V30 2822 C 268.782 -0.81373 1.85759 0
M  V30 2823 C 269.115 -1.78952 0.754315 0
M  V30 2824 O 268.39 -1.93029 -0.23879 0
M  V30 2825 C 268.673 -1.55293 3.24894 0
M  V30 2826 C 268.526 -0.595929 4.45835 0
M  V30 2827 C 269.845 -2.5063 3.61763 0
M  V30 2828 H 266.964 -0.294369 0.67566 0
M  V30 2829 H 269.606 -0.0776472 1.89841 0
M  V30 2830 H 267.756 -2.1804 3.21544 0
M  V30 2831 H 269.428 0.0236262 4.61294 0
M  V30 2832 H 267.671 0.0916191 4.33703 0
M  V30 2833 H 268.342 -1.15004 5.39887 0
M  V30 2834 H 270.818 -1.97982 3.65981 0
M  V30 2835 H 269.694 -2.99376 4.60071 0
M  V30 2836 H 269.955 -3.3385 2.89821 0
M  V30 2837 N 269.014 -1.53014 -0.377408 0
M  V30 2838 C 270.263 -1.67845 -1.11853 0
M  V30 2839 C 270.576 -0.430625 -1.90801 0
M  V30 2840 O 271.782 -0.459261 -2.67587 0
M  V30 2841 C 270.238 -2.96668 -2.03756 0
M  V30 2842 C 269.846 -4.28671 -1.30175 0
M  V30 2843 C 271.59 -3.20865 -2.77932 0
M  V30 2844 C 269.497 -5.48591 -2.20911 0
M  V30 2845 H 268.427 -0.625343 -0.421263 0
M  V30 2846 H 271.078 -1.79514 -0.380409 0
M  V30 2847 H 269.46 -2.78773 -2.8125 0
M  V30 2848 H 270.634 -4.57157 -0.578259 0
M  V30 2849 H 268.949 -4.10825 -0.679108 0
M  V30 2850 H 271.546 -4.07642 -3.46024 0
M  V30 2851 H 271.889 -2.36424 -3.4265 0
M  V30 2852 H 272.422 -3.39379 -2.07525 0
M  V30 2853 H 269.161 -6.35474 -1.6079 0
M  V30 2854 H 268.681 -5.244 -2.91144 0
M  V30 2855 H 270.36 -5.8292 -2.80736 0
M  V30 2856 N 270.492 0.636531 -1.44174 0
M  V30 2857 C 271.741 1.39213 -1.45954 0
M  V30 2858 C 272.054 1.95374 -0.0939119 0
M  V30 2859 O 273.26 2.71498 0.0107767 0
M  V30 2860 C 271.716 2.52025 -2.56927 0
M  V30 2861 C 271.324 2.024 -3.99673 0
M  V30 2862 C 273.068 3.29269 -2.67922 0
M  V30 2863 C 270.975 3.12521 -5.0208 0
M  V30 2864 H 269.905 0.523132 -0.542999 0
M  V30 2865 H 272.556 0.685349 -1.70221 0
M  V30 2866 H 270.938 3.25253 -2.25891 0
M  V30 2867 H 272.112 1.36073 -4.40251 0
M  V30 2868 H 270.427 1.37987 -3.92872 0
M  V30 2869 H 273.024 4.11352 -3.41605 0
M  V30 2870 H 273.367 3.78397 -1.73555 0
M  V30 2871 H 273.9 2.63129 -2.98342 0
M  V30 2872 H 270.639 2.68343 -5.98057 0
M  V30 2873 H 270.159 3.77507 -4.66099 0
M  V30 2874 H 271.838 3.77385 -5.25538 0
M  V30 2875 N 271.97 1.30982 0.876444 0
M  V30 2876 C 273.219 1.19658 1.62373 0
M  V30 2877 C 273.532 -0.245636 1.94052 0
M  V30 2878 O 274.738 -0.48049 2.67214 0
M  V30 2879 C 273.194 2.09433 2.92687 0
M  V30 2880 C 272.802 3.58613 2.68516 0
M  V30 2881 C 274.546 2.06893 3.70669 0
M  V30 2882 C 272.453 4.40416 3.94699 0
M  V30 2883 H 271.383 0.444268 0.609214 0
M  V30 2884 H 274.034 1.55791 0.969605 0
M  V30 2885 H 272.416 1.66191 3.59439 0
M  V30 2886 H 273.59 4.10058 2.10212 0
M  V30 2887 H 271.905 3.63063 2.03898 0
M  V30 2888 H 274.502 2.65258 4.64265 0
M  V30 2889 H 274.845 1.05448 4.02724 0
M  V30 2890 H 275.378 2.48301 3.10792 0
M  V30 2891 H 272.117 5.42591 3.67798 0
M  V30 2892 H 271.637 3.93731 4.52477 0
M  V30 2893 H 273.316 4.52294 4.62644 0
M  V30 2894 N 273.449 -1.08991 1.13837 0
M  V30 2895 C 274.696 -1.81258 0.902882 0
M  V30 2896 C 275.024 -1.85936 -0.570803 0
M  V30 2897 O 274.279 -1.3267 -1.43865 0
M  V30 2898 C 274.578 -3.27042 1.44147 0
M  V30 2899 C 274.244 -3.4249 2.93276 0
M  V30 2900 C 272.906 -3.46414 3.33992 0
M  V30 2901 C 275.258 -3.4666 3.892 0
M  V30 2902 C 272.586 -3.52091 4.69307 0
M  V30 2903 C 274.938 -3.53872 5.24364 0
M  V30 2904 C 273.602 -3.56066 5.646 0
M  V30 2905 H 272.872 -0.663268 0.330388 0
M  V30 2906 H 275.519 -1.28368 1.42105 0
M  V30 2907 H 273.824 -3.82599 0.844097 0
M  V30 2908 H 275.521 -3.81499 1.23528 0
M  V30 2909 H 272.111 -3.40124 2.60794 0
M  V30 2910 H 276.295 -3.42865 3.58828 0
M  V30 2911 H 271.551 -3.52079 4.9985 0
M  V30 2912 H 275.725 -3.56043 5.98503 0
M  V30 2913 H 273.352 -3.60218 6.69438 0
M  V30 2914 N 274.927 -0.932562 -1.27047 0
M  V30 2915 C 276.157 -0.591173 -1.97961 0
M  V30 2916 C 276.565 0.836219 -1.69717 0
M  V30 2917 O 275.908 1.56801 -0.957036 0
M  V30 2918 C 275.97 -0.743082 -3.51736 0
M  V30 2919 C 275.634 -2.1435 -4.03613 0
M  V30 2920 C 276.631 -3.11815 -4.16014 0
M  V30 2921 C 274.316 -2.46175 -4.37839 0
M  V30 2922 C 276.31 -4.39211 -4.61923 0
M  V30 2923 C 273.997 -3.73806 -4.83438 0
M  V30 2924 C 274.995 -4.70137 -4.95439 0
M  V30 2925 O 274.683 -5.95496 -5.40037 0
M  V30 2926 H 274.415 -0.222375 -0.638377 0
M  V30 2927 H 276.969 -1.25317 -1.62742 0
M  V30 2928 H 275.199 -0.0239739 -3.86693 0
M  V30 2929 H 276.888 -0.40603 -4.03864 0
M  V30 2930 H 277.654 -2.88549 -3.89826 0
M  V30 2931 H 273.533 -1.71936 -4.27737 0
M  V30 2932 H 277.077 -5.14404 -4.71205 0
M  V30 2933 H 272.974 -3.96888 -5.09068 0
M  V30 2934 H 273.742 -5.98554 -5.58279 0
M  V30 2935 N 276.405 1.4127 -0.698611 0
M  V30 2936 C 277.645 2.03044 -0.235062 0
M  V30 2937 C 278.009 1.54146 1.14468 0
M  V30 2938 O 279.21 2.07867 1.70425 0
M  V30 2939 C 277.481 3.56192 -0.293651 0
M  V30 2940 S 279.04 4.38696 0.0954053 0
M  V30 2941 H 275.858 0.704697 -0.0944648 0
M  V30 2942 H 278.46 1.72656 -0.917064 0
M  V30 2943 H 277.164 3.89274 -1.29977 0
M  V30 2944 H 276.695 3.91285 0.407397 0
M  V30 2945 H 278.71 4.78257 1.3223 0
M  V30 2946 N 277.883 0.443576 1.51229 0
M  V30 2947 C 279.113 -0.119117 2.06256 0
M  V30 2948 C 279.521 -1.36471 1.31043 0
M  V30 2949 O 278.864 -1.80034 0.365151 0
M  V30 2950 C 278.926 -0.500546 3.55998 0
M  V30 2951 C 278.59 0.639125 4.52509 0
M  V30 2952 C 279.587 1.51311 4.97394 0
M  V30 2953 C 277.272 0.821632 4.95535 0
M  V30 2954 C 279.266 2.55425 5.83984 0
M  V30 2955 C 276.953 1.86603 5.81913 0
M  V30 2956 C 277.951 2.73072 6.26036 0
M  V30 2957 O 277.639 3.75718 7.10698 0
M  V30 2958 H 277.371 -0.00857665 0.675946 0
M  V30 2959 H 279.925 0.623288 1.95715 0
M  V30 2960 H 278.155 -1.29575 3.64345 0
M  V30 2961 H 279.844 -0.995116 3.93513 0
M  V30 2962 H 280.61 1.38367 4.64844 0
M  V30 2963 H 276.489 0.158149 4.60729 0
M  V30 2964 H 280.033 3.22949 6.18344 0
M  V30 2965 H 275.93 1.99564 6.13876 0
M  V30 2966 H 276.698 3.72374 7.2889 0
M  V30 2967 N 279.361 -1.56624 0.175154 0
M  V30 2968 C 280.777 -1.58571 -0.180966 0
M  V30 2969 C 280.977 -1.19065 -1.6256 0
M  V30 2970 O 280.033 -0.904044 -2.35761 0
M  V30 2971 C 281.346 -3.00522 0.103326 0
M  V30 2972 C 282.894 -3.12972 0.0418426 0
M  V30 2973 C 283.369 -4.57022 0.299175 0
M  V30 2974 N 284.86 -4.62541 0.247086 0
M  V30 2975 C 285.595 -5.71857 0.420318 0
M  V30 2976 N 285.091 -6.89717 0.652816 0
M  V30 2977 N 286.884 -5.60972 0.355957 0
M  V30 2978 H 279.035 -1.80589 1.11809 0
M  V30 2979 H 281.298 -0.837178 0.444788 0
M  V30 2980 H 281.004 -3.33916 1.10422 0
M  V30 2981 H 280.878 -3.72344 -0.603299 0
M  V30 2982 H 283.265 -2.79403 -0.949636 0
M  V30 2983 H 283.346 -2.43578 0.781238 0
M  V30 2984 H 282.99 -4.913 1.28788 0
M  V30 2985 H 282.92 -5.24579 -0.460876 0
M  V30 2986 H 285.411 -3.77829 0.0731895 0
M  V30 2987 H 285.724 -7.68911 0.774347 0
M  V30 2988 H 284.069 -6.91572 0.689476 0
M  V30 2989 H 287.26 -4.67773 0.174882 0
M  V30 2990 H 287.433 -6.46111 0.494388 0
M  V30 2991 N 280.839 0.0985539 -1.57292 0
M  V30 2992 C 282.085 0.803867 -1.86188 0
M  V30 2993 C 282.418 1.78549 -0.763794 0
M  V30 2994 O 281.693 1.93153 0.22855 0
M  V30 2995 C 281.976 1.53568 -3.25713 0
M  V30 2996 C 281.829 0.572277 -4.46145 0
M  V30 2997 C 283.148 2.48708 -3.63087 0
M  V30 2998 H 280.267 0.290781 -0.677211 0
M  V30 2999 H 282.909 0.0675783 -1.8988 0
M  V30 3000 H 281.059 2.16332 -3.22696 0
M  V30 3001 H 282.731 -0.0480894 -4.61275 0
M  V30 3002 H 280.974 -0.114618 -4.33649 0
M  V30 3003 H 281.645 1.12139 -5.40489 0
M  V30 3004 H 284.121 1.96039 -3.67026 0
M  V30 3005 H 282.997 2.96932 -4.61652 0
M  V30 3006 H 283.258 3.32309 -2.91588 0
M  V30 3007 N 282.317 1.53212 0.369288 0
M  V30 3008 C 283.265 1.80054 1.47253 0
M  V30 3009 C 284.259 0.669456 1.55611 0
M  V30 3010 O 285.465 0.852328 1.58541 0
M  V30 3011 H 281.84 0.570034 0.490475 0
M  V30 3012 H 283.811 2.72403 1.21817 0
M  V30 3013 C 282.56 2.00403 2.84137 0
M  V30 3014 H 281.883 2.86876 2.78464 0
M  V30 3015 H 283.323 2.23164 3.60519 0
M  V30 3016 C 281.782 0.782081 3.27697 0
M  V30 3017 O 282.312 -0.0310205 4.01688 0
M  V30 3018 N 280.518 0.606573 2.84199 0
M  V30 3019 H 280.065 1.26939 2.24152 0
M  V30 3020 H 280.023 -0.20962 3.137 0
M  V30 3021 N 283.795 -0.628877 1.44509 0
M  V30 3022 C 285.211 -0.947305 1.28446 0
M  V30 3023 C 285.411 -2.00275 0.221872 0
M  V30 3024 O 284.467 -2.49447 -0.391471 0
M  V30 3025 C 285.78 -1.40843 2.65676 0
M  V30 3026 C 287.328 -1.52379 2.73404 0
M  V30 3027 C 287.803 -2.01875 4.11109 0
M  V30 3028 N 289.294 -2.09142 4.13296 0
M  V30 3029 C 290.029 -2.48615 5.16699 0
M  V30 3030 N 289.525 -2.87209 6.30462 0
M  V30 3031 N 291.318 -2.48768 5.04054 0
M  V30 3032 H 283.469 0.0690977 2.12288 0
M  V30 3033 H 285.732 -0.0317164 0.947469 0
M  V30 3034 H 285.438 -0.707206 3.44516 0
M  V30 3035 H 285.312 -2.37902 2.92716 0
M  V30 3036 H 287.699 -2.21598 1.9488 0
M  V30 3037 H 287.78 -0.536898 2.50102 0
M  V30 3038 H 287.424 -1.3325 4.90109 0
M  V30 3039 H 287.354 -3.0144 4.31789 0
M  V30 3040 H 289.845 -1.81991 3.31191 0
M  V30 3041 H 290.158 -3.16149 7.05174 0
M  V30 3042 H 288.503 -2.84955 6.33897 0
M  V30 3043 H 291.694 -2.18009 4.14234 0
M  V30 3044 H 291.867 -2.79207 5.84763 0
M  V30 3045 N 285.273 -1.31445 -0.869486 0
M  V30 3046 C 286.205 -1.14955 -1.98287 0
M  V30 3047 C 287.218 -0.0885037 -1.62559 0
M  V30 3048 O 288.407 -0.336044 -1.75308 0
M  V30 3049 C 285.507 -0.734255 -3.3085 0
M  V30 3050 C 284.68 -1.88042 -3.94917 0
M  V30 3051 C 283.739 -1.4511 -5.05796 0
M  V30 3052 O 282.765 -2.16082 -5.2659 0
M  V30 3053 N 283.967 -0.338763 -5.79511 0
M  V30 3054 H 286.732 -2.10856 -2.12979 0
M  V30 3055 H 284.293 -1.23786 -1.04349 0
M  V30 3056 H 286.285 -0.42975 -4.02412 0
M  V30 3057 H 284.855 0.133158 -3.12316 0
M  V30 3058 H 284.075 -2.35222 -3.1633 0
M  V30 3059 H 285.363 -2.6481 -4.34457 0
M  V30 3060 H 284.761 0.252274 -5.65137 0
M  V30 3061 H 283.318 -0.0937925 -6.51733 0
M  V30 3062 N 286.751 1.08385 -1.14413 0
M  V30 3063 C 287.683 2.1519 -0.789036 0
M  V30 3064 C 288.696 1.61638 0.19417 0
M  V30 3065 O 289.885 1.78479 -0.0275711 0
M  V30 3066 C 286.985 3.38565 -0.15058 0
M  V30 3067 C 286.158 4.21501 -1.16857 0
M  V30 3068 C 285.217 5.23277 -0.553832 0
M  V30 3069 O 284.243 5.56041 -1.21686 0
M  V30 3070 N 285.445 5.76629 0.669296 0
M  V30 3071 H 288.21 2.46257 -1.70814 0
M  V30 3072 H 285.771 1.24198 -1.03858 0
M  V30 3073 H 287.763 4.03777 0.273181 0
M  V30 3074 H 286.333 3.05299 0.671667 0
M  V30 3075 H 285.553 3.52265 -1.76926 0
M  V30 3076 H 286.841 4.73731 -1.85624 0
M  V30 3077 H 286.239 5.52243 1.22654 0
M  V30 3078 H 284.796 6.43521 1.03556 0
M  V30 3079 N 288.23 0.939286 1.26551 0
M  V30 3080 C 289.177 0.446088 2.26448 0
M  V30 3081 C 290.147 -0.493234 1.58608 0
M  V30 3082 O 291.332 -0.409857 1.86346 0
M  V30 3083 C 288.472 -0.284375 3.43926 0
M  V30 3084 C 287.585 0.690399 4.26448 0
M  V30 3085 C 286.72 -0.0610712 5.31165 0
M  V30 3086 C 285.759 0.905649 6.05363 0
M  V30 3087 N 284.896 0.186055 7.01853 0
M  V30 3088 H 289.736 1.30291 2.68008 0
M  V30 3089 H 287.273 0.65371 1.31776 0
M  V30 3090 H 289.231 -0.724313 4.10864 0
M  V30 3091 H 287.861 -1.10535 3.03285 0
M  V30 3092 H 286.913 1.24885 3.59316 0
M  V30 3093 H 288.225 1.42873 4.779 0
M  V30 3094 H 287.379 -0.56038 6.04106 0
M  V30 3095 H 286.118 -0.832297 4.80546 0
M  V30 3096 H 285.123 1.4161 5.3125 0
M  V30 3097 H 286.348 1.67685 6.58072 0
M  V30 3098 H 284.294 -0.566714 6.53548 0
M  V30 3099 H 284.211 0.863752 7.51049 0
M  V30 3100 H 285.479 -0.292221 7.78952 0
M  V30 3101 N 289.708 -1.40897 0.706093 0
M  V30 3102 C 290.638 -2.33418 0.0620085 0
M  V30 3103 C 291.619 -1.52385 -0.755827 0
M  V30 3104 O 292.804 -1.80886 -0.706674 0
M  V30 3105 C 289.934 -3.36293 -0.867445 0
M  V30 3106 C 288.888 -4.27716 -0.155932 0
M  V30 3107 C 288.214 -5.2105 -1.20046 0
M  V30 3108 C 289.514 -5.12944 0.984149 0
M  V30 3109 H 291.208 -2.87527 0.83477 0
M  V30 3110 H 288.754 -1.38249 0.402875 0
M  V30 3111 H 290.707 -3.99949 -1.32735 0
M  V30 3112 H 289.431 -2.80556 -1.67199 0
M  V30 3113 H 288.09 -3.65498 0.284047 0
M  V30 3114 H 287.738 -4.61624 -1.99781 0
M  V30 3115 H 287.438 -5.83056 -0.729328 0
M  V30 3116 H 288.962 -5.87584 -1.66066 0
M  V30 3117 H 290.376 -5.70109 0.604048 0
M  V30 3118 H 288.773 -5.83945 1.38304 0
M  V30 3119 H 289.843 -4.49485 1.81911 0
M  V30 3120 N 291.186 -0.45159 -1.50991 0
M  V30 3121 C 292.411 0.110667 -2.07105 0
M  V30 3122 C 292.836 1.3446 -1.31538 0
M  V30 3123 O 292.194 1.77743 -0.357365 0
M  V30 3124 C 292.242 0.397238 -3.58405 0
M  V30 3125 O 291.346 1.48124 -3.84881 0
M  V30 3126 H 290.687 -0.00439271 -0.663985 0
M  V30 3127 H 293.217 -0.637026 -1.9443 0
M  V30 3128 H 293.227 0.64351 -4.02893 0
M  V30 3129 H 291.902 -0.504553 -4.12828 0
M  V30 3130 H 290.479 1.22381 -3.52246 0
M  V30 3131 N 292.664 1.56529 -0.183458 0
M  V30 3132 C 293.889 2.02064 0.467428 0
M  V30 3133 C 294.314 1.06282 1.55196 0
M  V30 3134 O 293.672 0.0443565 1.81246 0
M  V30 3135 C 293.72 3.46122 1.01153 0
M  V30 3136 O 292.824 3.53437 2.12499 0
M  V30 3137 H 292.165 0.654726 0.110588 0
M  V30 3138 H 294.695 2.02521 -0.290917 0
M  V30 3139 H 294.705 3.85676 1.33108 0
M  V30 3140 H 293.38 4.15331 0.217533 0
M  V30 3141 H 291.957 3.2575 1.81497 0
M  V30 3142 N 294.142 -0.090211 1.57342 0
M  V30 3143 C 295.37 -0.806224 1.90546 0
M  V30 3144 C 295.785 -1.72041 0.777644 0
M  V30 3145 O 295.142 -1.80778 -0.250103 0
M  V30 3146 C 295.193 -1.61546 3.23396 0
M  V30 3147 O 294.914 -0.738043 4.31839 0
M  V30 3148 C 296.415 -2.4341 3.70495 0
M  V30 3149 H 293.635 -0.230256 0.630257 0
M  V30 3150 H 296.179 -0.0659843 2.04394 0
M  V30 3151 H 294.334 -2.30816 3.11131 0
M  V30 3152 H 294.748 -1.29901 5.08159 0
M  V30 3153 H 296.222 -2.95676 4.66133 0
M  V30 3154 H 296.699 -3.22098 2.98579 0
M  V30 3155 H 297.305 -1.79331 3.85643 0
M  V30 3156 N 295.62 -1.53406 -0.361157 0
M  V30 3157 C 296.866 -1.70999 -1.1014 0
M  V30 3158 C 297.221 -0.458425 -1.86859 0
M  V30 3159 O 296.514 0.548654 -1.83577 0
M  V30 3160 C 296.708 -2.90211 -2.08596 0
M  V30 3161 C 296.537 -4.26841 -1.41553 0
M  V30 3162 C 295.307 -4.91621 -1.16778 0
M  V30 3163 C 297.505 -5.07212 -0.850915 0
M  V30 3164 N 295.487 -6.12164 -0.461312 0
M  V30 3165 C 296.858 -6.19394 -0.274046 0
M  V30 3166 C 298.913 -4.92218 -0.750036 0
M  V30 3167 C 297.616 -7.18221 0.393868 0
M  V30 3168 C 299.642 -5.91322 -0.095894 0
M  V30 3169 C 299.004 -7.0283 0.470081 0
M  V30 3170 H 295.103 -0.678939 -0.388028 0
M  V30 3171 H 297.687 -1.90811 -0.38722 0
M  V30 3172 H 295.858 -2.71931 -2.77323 0
M  V30 3173 H 297.59 -2.96606 -2.7533 0
M  V30 3174 H 294.345 -4.50849 -1.45024 0
M  V30 3175 H 294.769 -6.76888 -0.123312 0
M  V30 3176 H 299.411 -4.06192 -1.17337 0
M  V30 3177 H 297.129 -8.03835 0.82914 0
M  V30 3178 H 300.715 -5.81797 -0.0187075 0
M  V30 3179 H 299.595 -7.782 0.968241 0
M  V30 3180 N 297.098 0.621204 -1.44841 0
M  V30 3181 C 298.008 1.7612 -1.5498 0
M  V30 3182 C 299.024 1.68477 -0.434927 0
M  V30 3183 O 300.2 1.89076 -0.693693 0
M  V30 3184 C 297.265 3.1254 -1.50065 0
M  V30 3185 C 296.326 3.31741 -2.72482 0
M  V30 3186 C 295.559 4.61653 -2.67792 0
M  V30 3187 O 295.782 5.431 -1.74352 0
M  V30 3188 O 294.716 4.83271 -3.58794 0
M  V30 3189 H 298.542 1.70518 -2.51311 0
M  V30 3190 H 296.127 0.783643 -1.27198 0
M  V30 3191 H 298.009 3.93844 -1.49882 0
M  V30 3192 H 296.684 3.18663 -0.568806 0
M  V30 3193 H 295.591 2.50077 -2.7823 0
M  V30 3194 H 296.924 3.30486 -3.64746 0
M  V30 3195 N 298.576 1.31904 0.862503 0
M  V30 3196 C 299.804 1.24998 1.64873 0
M  V30 3197 C 300.219 -0.183425 1.87907 0
M  V30 3198 O 299.576 -1.11794 1.44251 0
M  V30 3199 C 299.627 1.99829 3.01248 0
M  V30 3200 O 299.348 3.37575 2.79239 0
M  V30 3201 C 300.849 1.99852 3.95694 0
M  V30 3202 H 298.069 0.431599 0.513773 0
M  V30 3203 H 300.613 1.73901 1.07604 0
M  V30 3204 H 298.768 1.54668 3.55185 0
M  V30 3205 H 299.182 3.75776 3.65914 0
M  V30 3206 H 300.656 2.56709 4.88676 0
M  V30 3207 H 301.133 0.982852 4.28062 0
M  V30 3208 H 301.739 2.44926 3.47694 0
M  V30 3209 N 300.054 -1.07777 1.14986 0
M  V30 3210 C 301.302 -1.79934 0.920235 0
M  V30 3211 C 301.623 -1.86955 -0.554336 0
M  V30 3212 O 300.893 -1.36731 -1.40291 0
M  V30 3213 H 299.473 -0.666424 0.337473 0
M  V30 3214 H 302.135 -1.3027 1.44968 0
M  V30 3215 H 301.231 -2.82539 1.32583 0
M  V30 3216 N 301.532 -0.945985 -1.26051 0
M  V30 3217 C 302.479 -0.45809 -2.26208 0
M  V30 3218 C 303.449 0.484816 -1.58867 0
M  V30 3219 O 304.634 0.399969 -1.86561 0
M  V30 3220 C 301.774 0.266131 -3.44072 0
M  V30 3221 C 300.887 -0.713005 -4.26075 0
M  V30 3222 C 300.022 0.0329013 -5.3119 0
M  V30 3223 C 299.061 -0.93774 -6.04874 0
M  V30 3224 N 298.198 -0.223274 -7.01745 0
M  V30 3225 H 303.038 -1.3171 -2.67313 0
M  V30 3226 H 300.575 -0.66069 -1.31428 0
M  V30 3227 H 302.533 0.702514 -4.11243 0
M  V30 3228 H 301.163 1.08925 -3.03867 0
M  V30 3229 H 300.215 -1.26789 -3.58648 0
M  V30 3230 H 301.527 -1.45406 -4.77136 0
M  V30 3231 H 300.681 0.528335 -6.04395 0
M  V30 3232 H 299.42 0.806801 -4.8098 0
M  V30 3233 H 298.425 -1.44425 -5.30492 0
M  V30 3234 H 299.65 -1.71172 -6.57173 0
M  V30 3235 H 297.596 0.532046 -6.53839 0
M  V30 3236 H 297.513 -0.90357 -7.50581 0
M  V30 3237 H 298.781 0.250907 -7.79096 0
M  V30 3238 N 303.011 1.40521 -0.713556 0
M  V30 3239 C 304.239 2.05237 -0.261775 0
M  V30 3240 C 304.654 1.53755 1.09567 0
M  V30 3241 O 304.011 0.693268 1.6882 0
M  V30 3242 C 304.062 3.60763 -0.230706 0
M  V30 3243 O 303.783 4.10345 -1.53455 0
M  V30 3244 C 305.284 4.42651 0.239874 0
M  V30 3245 H 302.504 0.660533 -0.118057 0
M  V30 3246 H 305.048 1.79967 -0.971192 0
M  V30 3247 H 303.203 3.8501 0.429661 0
M  V30 3248 H 303.617 5.04526 -1.43366 0
M  V30 3249 H 305.091 5.51599 0.210468 0
M  V30 3250 H 305.568 4.20082 1.28171 0
M  V30 3251 H 306.174 4.23507 -0.390142 0
M  V30 3252 N 304.489 0.459591 1.5075 0
M  V30 3253 C 305.905 0.113092 1.59199 0
M  V30 3254 C 306.105 -1.37951 1.46874 0
M  V30 3255 O 305.161 -2.15168 1.32132 0
M  V30 3256 C 306.474 0.653043 2.93523 0
M  V30 3257 C 308.022 0.615449 3.0689 0
M  V30 3258 C 308.497 1.13275 4.43771 0
M  V30 3259 N 309.988 1.09167 4.50152 0
M  V30 3260 C 310.723 1.46256 5.54434 0
M  V30 3261 N 310.219 1.90739 6.66026 0
M  V30 3262 N 312.012 1.37932 5.44914 0
M  V30 3263 H 304.163 1.43049 1.57005 0
M  V30 3264 H 306.426 0.590861 0.741341 0
M  V30 3265 H 306.132 1.69822 3.07983 0
M  V30 3266 H 306.006 0.0902132 3.77092 0
M  V30 3267 H 308.393 -0.420793 2.92084 0
M  V30 3268 H 308.474 1.21495 2.25106 0
M  V30 3269 H 308.118 2.16757 4.59324 0
M  V30 3270 H 308.048 0.509576 5.24129 0
M  V30 3271 H 310.539 0.76528 3.7007 0
M  V30 3272 H 310.852 2.17218 7.41644 0
M  V30 3273 H 309.197 1.94683 6.67176 0
M  V30 3274 H 312.388 1.0303 4.56621 0
M  V30 3275 H 312.561 1.67164 6.26067 0
M  V30 3276 N 305.967 -1.56429 0.191757 0
M  V30 3277 C 306.914 -2.18936 -0.730454 0
M  V30 3278 C 307.884 -1.13557 -1.21219 0
M  V30 3279 O 309.069 -1.41794 -1.27668 0
M  V30 3280 C 306.209 -2.85013 -1.9458 0
M  V30 3281 C 305.322 -4.04909 -1.50574 0
M  V30 3282 C 304.457 -4.58853 -2.67634 0
M  V30 3283 C 303.496 -5.71114 -2.20217 0
M  V30 3284 N 302.633 -6.19478 -3.30442 0
M  V30 3285 H 307.473 -2.97389 -0.190664 0
M  V30 3286 H 305.01 -1.46869 -0.0823694 0
M  V30 3287 H 306.968 -3.21492 -2.65893 0
M  V30 3288 H 305.598 -2.09129 -2.45896 0
M  V30 3289 H 304.65 -3.74115 -0.688605 0
M  V30 3290 H 305.962 -4.86113 -1.11784 0
M  V30 3291 H 305.116 -4.97619 -3.47074 0
M  V30 3292 H 303.855 -3.76749 -3.09696 0
M  V30 3293 H 302.86 -5.31879 -1.3923 0
M  V30 3294 H 304.085 -6.55033 -1.79189 0
M  V30 3295 H 302.031 -5.40297 -3.72041 0
M  V30 3296 H 301.948 -6.95725 -2.9581 0
M  V30 3297 H 303.216 -6.62898 -4.10106 0
M  V30 3298 N 307.445 0.0818655 -1.57387 0
M  V30 3299 C 308.375 1.09885 -2.06028 0
M  V30 3300 C 309.356 1.4098 -0.951774 0
M  V30 3301 O 310.541 1.50781 -1.22387 0
M  V30 3302 C 307.671 2.4151 -2.4958 0
M  V30 3303 C 306.625 2.24792 -3.64215 0
M  V30 3304 C 305.951 3.61712 -3.93787 0
M  V30 3305 C 307.251 1.67749 -4.94629 0
M  V30 3306 H 308.945 0.694128 -2.91243 0
M  V30 3307 H 306.491 0.332448 -1.4011 0
M  V30 3308 H 308.444 3.12939 -2.82219 0
M  V30 3309 H 307.168 2.83943 -1.61381 0
M  V30 3310 H 305.827 1.55807 -3.31843 0
M  V30 3311 H 305.475 4.01697 -3.02735 0
M  V30 3312 H 305.175 3.51368 -4.70971 0
M  V30 3313 H 306.699 4.34587 -4.28913 0
M  V30 3314 H 308.113 2.29032 -5.25564 0
M  V30 3315 H 306.51 1.68128 -5.76067 0
M  V30 3316 H 307.58 0.638059 -4.80684 0
M  V30 3317 N 308.923 1.53595 0.353017 0
M  V30 3318 C 309.856 1.7572 1.45594 0
M  V30 3319 C 310.834 0.605961 1.50887 0
M  V30 3320 O 312.018 0.840023 1.68748 0
M  V30 3321 C 309.145 1.84732 2.83887 0
M  V30 3322 C 308.191 3.06808 2.96262 0
M  V30 3323 S 309.024 4.66065 2.63711 0
M  V30 3324 C 310.18 4.77943 4.04131 0
M  V30 3325 H 310.413 2.68994 1.26608 0
M  V30 3326 H 307.946 1.44343 0.548117 0
M  V30 3327 H 309.904 1.9061 3.63563 0
M  V30 3328 H 308.565 0.92488 3.00175 0
M  V30 3329 H 307.758 3.09761 3.97573 0
M  V30 3330 H 307.36 2.99108 2.24523 0
M  V30 3331 H 309.652 4.5877 4.98534 0
M  V30 3332 H 310.595 5.80022 4.06177 0
M  V30 3333 H 311.003 4.06472 3.91715 0
M  V30 3334 N 310.401 -0.613514 1.45168 0
M  V30 3335 C 311.311 -1.75296 1.55912 0
M  V30 3336 C 312.327 -1.68244 0.443856 0
M  V30 3337 O 313.503 -1.88706 0.70371 0
M  V30 3338 C 310.568 -3.1174 1.5172 0
M  V30 3339 C 309.629 -3.30291 2.74238 0
M  V30 3340 C 308.862 -4.60226 2.70236 0
M  V30 3341 O 309.085 -5.42168 1.77229 0
M  V30 3342 O 308.019 -4.81361 3.61352 0
M  V30 3343 H 311.845 -1.69183 2.52212 0
M  V30 3344 H 309.43 -0.776886 1.27612 0
M  V30 3345 H 311.312 -3.93044 1.51968 0
M  V30 3346 H 309.987 -3.18357 0.585697 0
M  V30 3347 H 308.894 -2.48598 2.79553 0
M  V30 3348 H 310.227 -3.28547 3.66494 0
M  V30 3349 N 311.879 -1.3236 -0.855495 0
M  V30 3350 C 313.126 -1.22872 -1.60962 0
M  V30 3351 C 313.454 0.209658 -1.93367 0
M  V30 3352 O 312.709 1.16243 -1.57436 0
M  V30 3353 C 313.008 -2.03275 -2.93963 0
M  V30 3354 C 312.674 -3.5264 -2.80991 0
M  V30 3355 C 311.336 -3.93364 -2.7716 0
M  V30 3356 C 313.688 -4.47626 -2.66983 0
M  V30 3357 C 311.016 -5.27319 -2.572 0
M  V30 3358 C 313.368 -5.81723 -2.48558 0
M  V30 3359 C 312.032 -6.2165 -2.4312 0
M  V30 3360 H 311.302 -0.44962 -0.589001 0
M  V30 3361 H 313.949 -1.63777 -0.992442 0
M  V30 3362 H 312.254 -1.55095 -3.59795 0
M  V30 3363 H 313.951 -1.93303 -3.51333 0
M  V30 3364 H 310.541 -3.20295 -2.84797 0
M  V30 3365 H 314.725 -4.17084 -2.68988 0
M  V30 3366 H 309.981 -5.57311 -2.51424 0
M  V30 3367 H 314.155 -6.5494 -2.36699 0
M  V30 3368 H 311.782 -7.25388 -2.27412 0
M  V30 3369 N 313.357 1.07166 -1.15556 0
M  V30 3370 C 314.582 1.84053 -0.955988 0
M  V30 3371 C 315.007 1.81586 0.490739 0
M  V30 3372 O 314.365 1.21018 1.34997 0
M  V30 3373 C 314.413 3.28957 -1.47714 0
M  V30 3374 O 313.517 4.06795 -0.677593 0
M  V30 3375 H 312.858 0.569842 -0.340847 0
M  V30 3376 H 315.388 1.35178 -1.53584 0
M  V30 3377 H 315.398 3.79788 -1.4908 0
M  V30 3378 H 314.073 3.30068 -2.53037 0
M  V30 3379 H 312.65 3.6561 -0.733721 0
M  V30 3380 N 314.835 0.952656 1.25548 0
M  V30 3381 C 315.745 0.47782 2.29682 0
M  V30 3382 C 316.761 -0.453859 1.67977 0
M  V30 3383 O 317.937 -0.330587 1.98668 0
M  V30 3384 C 315.002 -0.238655 3.45878 0
M  V30 3385 C 314.063 0.730994 4.23031 0
M  V30 3386 C 313.296 0.0486165 5.33678 0
M  V30 3387 O 313.519 -1.16612 5.58353 0
M  V30 3388 O 312.453 0.733152 5.97418 0
M  V30 3389 H 316.279 1.34312 2.72386 0
M  V30 3390 H 313.864 0.719026 1.30959 0
M  V30 3391 H 315.746 -0.641774 4.16484 0
M  V30 3392 H 314.421 -1.07916 3.05181 0
M  V30 3393 H 313.328 1.18428 3.5486 0
M  V30 3394 H 314.661 1.53946 4.67506 0
M  V30 3395 N 316.313 -1.40141 0.720998 0
M  V30 3396 C 317.263 -2.27949 0.0482544 0
M  V30 3397 C 318.247 -1.43538 -0.727021 0
M  V30 3398 O 319.439 -1.6658 -0.598332 0
M  V30 3399 C 316.568 -3.32126 -0.868729 0
M  V30 3400 C 315.654 -4.24008 -0.0883515 0
M  V30 3401 N 316.045 -4.97154 0.931226 0
M  V30 3402 C 314.343 -4.4485 -0.320105 0
M  V30 3403 C 315.044 -5.64587 1.4006 0
M  V30 3404 N 314.02 -5.38787 0.721752 0
M  V30 3405 H 317.822 -2.81948 0.829609 0
M  V30 3406 H 315.336 -1.52656 0.554067 0
M  V30 3407 H 317.333 -3.93884 -1.36605 0
M  V30 3408 H 315.993 -2.79687 -1.6494 0
M  V30 3409 H 317.004 -5.01 1.31222 0
M  V30 3410 H 313.681 -4.03378 -1.07668 0
M  V30 3411 H 315.071 -6.33175 2.24808 0
M  V30 3412 N 317.792 -0.46758 -1.50504 0
M  V30 3413 C 319.032 0.0874114 -2.04213 0
M  V30 3414 C 319.396 1.37301 -1.34211 0
M  V30 3415 O 320.597 2.01015 -1.78456 0
M  V30 3416 C 318.868 0.270571 -3.56374 0
M  V30 3417 S 320.427 0.784623 -4.31728 0
M  V30 3418 H 317.245 0.0176153 -0.710782 0
M  V30 3419 H 319.847 -0.633915 -1.84937 0
M  V30 3420 H 318.551 -0.670942 -4.04878 0
M  V30 3421 H 318.082 1.01811 -3.79997 0
M  V30 3422 H 320.097 2.05849 -4.51487 0
M  V30 3423 N 319.27 1.56325 -0.20005 0
M  V30 3424 C 320.233 2.18084 0.705132 0
M  V30 3425 C 321.233 1.13666 1.1374 0
M  V30 3426 O 322.423 1.39023 1.04968 0
M  V30 3427 C 319.555 2.78689 1.96329 0
M  V30 3428 H 320.748 2.99435 0.167023 0
M  V30 3429 H 318.301 1.56221 0.0495725 0
M  V30 3430 H 319.036 2.0115 2.5438 0
M  V30 3431 H 318.821 3.55133 1.66202 0
M  V30 3432 H 320.311 3.26096 2.60866 0
M  V30 3433 N 320.748 -0.0735177 1.57428 0
M  V30 3434 C 321.997 -0.771809 1.86349 0
M  V30 3435 C 322.31 -1.78828 0.792452 0
M  V30 3436 O 323.516 -2.53602 0.96945 0
M  V30 3437 C 321.972 -1.42358 3.30548 0
M  V30 3438 C 321.58 -0.445761 4.45777 0
M  V30 3439 C 323.324 -2.10434 3.6867 0
M  V30 3440 C 321.231 -1.10335 5.81016 0
M  V30 3441 H 320.161 -0.291999 0.695164 0
M  V30 3442 H 322.812 -0.0250749 1.83483 0
M  V30 3443 H 321.194 -2.21852 3.28021 0
M  V30 3444 H 322.368 0.319239 4.59693 0
M  V30 3445 H 320.683 0.130457 4.16196 0
M  V30 3446 H 323.28 -2.60405 4.67004 0
M  V30 3447 H 323.623 -2.90298 2.98383 0
M  V30 3448 H 324.156 -1.37773 3.7318 0
M  V30 3449 H 320.895 -0.345061 6.54591 0
M  V30 3450 H 320.415 -1.83925 5.70904 0
M  V30 3451 H 322.094 -1.62367 6.26295 0
M  V30 3452 N 322.226 -1.5378 -0.344866 0
M  V30 3453 C 323.475 -1.7018 -1.08267 0
M  V30 3454 C 323.788 -0.471 -1.89845 0
M  V30 3455 O 324.994 -0.515917 -2.66553 0
M  V30 3456 C 323.45 -3.00923 -1.97417 0
M  V30 3457 C 323.058 -4.31335 -1.21053 0
M  V30 3458 C 324.802 -3.26688 -2.71063 0
M  V30 3459 C 322.709 -5.53153 -2.09225 0
M  V30 3460 H 321.639 -0.634138 -0.407903 0
M  V30 3461 H 324.29 -1.8028 -0.342246 0
M  V30 3462 H 322.672 -2.84676 -2.75274 0
M  V30 3463 H 323.846 -4.58281 -0.481159 0
M  V30 3464 H 322.161 -4.12173 -0.591813 0
M  V30 3465 H 324.758 -4.1489 -3.37299 0
M  V30 3466 H 325.101 -2.43639 -3.37558 0
M  V30 3467 H 325.634 -3.43705 -2.0028 0
M  V30 3468 H 322.373 -6.38741 -1.47274 0
M  V30 3469 H 321.893 -5.30458 -2.79955 0
M  V30 3470 H 323.572 -5.88744 -2.68308 0
M  V30 3471 N 323.704 0.605807 -1.45491 0
M  V30 3472 C 324.634 1.72709 -1.57143 0
M  V30 3473 C 325.615 1.6476 -0.422884 0
M  V30 3474 O 326.8 1.83132 -0.646247 0
M  V30 3475 C 323.93 3.11316 -1.53948 0
M  V30 3476 C 322.884 3.34077 -2.67537 0
M  V30 3477 C 322.21 4.72975 -2.49397 0
M  V30 3478 C 323.51 3.24158 -4.09535 0
M  V30 3479 H 325.204 1.63214 -2.51001 0
M  V30 3480 H 322.75 0.78379 -1.208 0
M  V30 3481 H 324.703 3.89557 -1.60696 0
M  V30 3482 H 323.427 3.21655 -0.566205 0
M  V30 3483 H 322.086 2.58227 -2.6022 0
M  V30 3484 H 321.734 4.8005 -1.50205 0
M  V30 3485 H 321.434 4.8916 -3.25571 0
M  V30 3486 H 322.958 5.53414 -2.58002 0
M  V30 3487 H 324.372 3.92271 -4.18086 0
M  V30 3488 H 322.769 3.51872 -4.86113 0
M  V30 3489 H 323.839 2.2157 -4.31317 0
M  V30 3490 N 325.182 1.32811 0.848464 0
M  V30 3491 C 326.092 1.24278 1.98978 0
M  V30 3492 C 327.108 0.155176 1.73307 0
M  V30 3493 O 328.284 0.376999 1.9784 0
M  V30 3494 C 325.349 0.972444 3.32783 0
M  V30 3495 C 324.41 2.14911 3.71634 0
M  V30 3496 C 323.643 1.89157 4.99054 0
M  V30 3497 O 323.866 0.837165 5.64223 0
M  V30 3498 O 322.8 2.75433 5.35183 0
M  V30 3499 H 326.626 2.20238 2.09115 0
M  V30 3500 H 324.211 1.12762 0.980052 0
M  V30 3501 H 326.093 0.838432 4.12975 0
M  V30 3502 H 324.768 0.043051 3.23671 0
M  V30 3503 H 323.675 2.33862 2.91992 0
M  V30 3504 H 325.008 3.06151 3.85399 0
M  V30 3505 N 326.66 -1.06551 1.16123 0
M  V30 3506 C 327.937 -1.76097 0.85142 0
M  V30 3507 C 328.317 -2.00802 -0.6513 0
M  V30 3508 O 327.665 -1.63302 -1.59827 0
M  V30 3509 C 327.875 -3.06384 1.67122 0
M  V30 3510 C 329.223 -3.80585 1.88255 0
M  V30 3511 O 330.247 -3.16218 1.63966 0
M  V30 3512 O 329.106 -4.96212 2.2899 0
M  V30 3513 H 326.2 -0.765102 0.313923 0
M  V30 3514 H 328.746 -1.12844 1.26745 0
M  V30 3515 H 327.518 -2.84071 2.69108 0
M  V30 3516 H 327.141 -3.77371 1.25206 0
M  V30 3517 N 328.138 -0.959301 -1.25041 0
M  V30 3518 C 329.415 -0.533805 -1.88175 0
M  V30 3519 C 329.795 0.988994 -1.865 0
M  V30 3520 O 329.143 1.85677 -1.33177 0
M  V30 3521 C 329.353 -1.11575 -3.30684 0
M  V30 3522 C 330.701 -1.19548 -4.07423 0
M  V30 3523 O 331.725 -1.06765 -3.39823 0
M  V30 3524 O 330.584 -1.39656 -5.28354 0
M  V30 3525 H 327.678 -0.176772 -0.807887 0
M  V30 3526 H 330.224 -1.05303 -1.33076 0
M  V30 3527 H 328.996 -2.15884 -3.26358 0
M  V30 3528 H 328.619 -0.580059 -3.93346 0
M  V30 3529 N 329.616 1.39756 -0.72842 0
M  V30 3530 C 331.032 1.5442 -0.403308 0
M  V30 3531 C 331.232 1.69694 1.08656 0
M  V30 3532 O 330.288 1.69373 1.87267 0
M  V30 3533 C 331.601 2.76555 -1.18058 0
M  V30 3534 C 333.149 2.90384 -1.16815 0
M  V30 3535 C 333.624 4.15449 -1.92785 0
M  V30 3536 N 335.115 4.22475 -1.89918 0
M  V30 3537 C 335.85 5.1818 -2.45514 0
M  V30 3538 N 335.346 6.19714 -3.09719 0
M  V30 3539 N 337.139 5.1035 -2.35584 0
M  V30 3540 H 329.29 1.28089 -1.69431 0
M  V30 3541 H 331.553 0.620327 -0.716867 0
M  V30 3542 H 331.259 2.7159 -2.23455 0
M  V30 3543 H 331.133 3.69033 -0.780662 0
M  V30 3544 H 333.52 2.94846 -0.12234 0
M  V30 3545 H 333.601 1.98988 -1.6074 0
M  V30 3546 H 333.245 4.11749 -2.97364 0
M  V30 3547 H 333.175 5.05877 -1.46272 0
M  V30 3548 H 335.666 3.49743 -1.43138 0
M  V30 3549 H 335.979 6.8919 -3.49625 0
M  V30 3550 H 334.324 6.20121 -3.13807 0
M  V30 3551 H 337.515 4.2996 -1.85072 0
M  V30 3552 H 337.688 5.84761 -2.79211 0
M  V30 3553 N 331.094 0.475555 1.50254 0
M  V30 3554 C 332.319 -0.0777042 2.07254 0
M  V30 3555 C 332.744 -1.3235 1.3366 0
M  V30 3556 O 332.102 -1.77152 0.385597 0
M  V30 3557 C 332.15 -0.340169 3.58992 0
M  V30 3558 O 331.254 -1.41982 3.87188 0
M  V30 3559 H 330.595 0.0149556 0.663832 0
M  V30 3560 H 333.125 0.667878 1.93392 0
M  V30 3561 H 333.135 -0.579332 4.03866 0
M  V30 3562 H 331.81 0.570167 4.11973 0
M  V30 3563 H 330.387 -1.16762 3.54148 0
M  V30 3564 N 332.573 -1.56217 0.208337 0
M  V30 3565 C 333.85 -1.89739 -0.475234 0
M  V30 3566 C 334.23 -1.1238 -1.78701 0
M  V30 3567 O 333.578 -0.228979 -2.2735 0
M  V30 3568 C 333.788 -3.42289 -0.681101 0
M  V30 3569 C 335.136 -4.12789 -0.994507 0
M  V30 3570 O 336.16 -3.47814 -0.768357 0
M  V30 3571 O 335.019 -5.27649 -1.42299 0
M  V30 3572 H 332.113 -0.788478 -0.249461 0
M  V30 3573 H 334.659 -1.67855 0.249538 0
M  V30 3574 H 333.431 -3.90534 0.244722 0
M  V30 3575 H 333.054 -3.69909 -1.45785 0
M  V30 3576 N 334.051 0.0651679 -1.57465 0
M  V30 3577 C 335.3 0.761916 -1.86756 0
M  V30 3578 C 335.613 1.78406 -0.801925 0
M  V30 3579 O 336.819 2.53084 -0.982885 0
M  V30 3580 C 335.275 1.40603 -3.31299 0
M  V30 3581 C 334.883 0.422115 -4.46007 0
M  V30 3582 C 336.627 2.08476 -3.69781 0
M  V30 3583 C 334.534 1.07252 -5.81593 0
M  V30 3584 H 333.464 0.288308 -0.696702 0
M  V30 3585 H 336.115 0.015344 -1.83494 0
M  V30 3586 H 334.497 2.20109 -3.29193 0
M  V30 3587 H 335.671 -0.343613 -4.59517 0
M  V30 3588 H 333.986 -0.152527 -4.16121 0
M  V30 3589 H 336.583 2.57925 -4.68379 0
M  V30 3590 H 336.926 2.88712 -2.99919 0
M  V30 3591 H 337.459 1.35792 -3.73905 0
M  V30 3592 H 334.198 0.310342 -6.54765 0
M  V30 3593 H 333.718 1.80895 -5.71872 0
M  V30 3594 H 335.397 1.59043 -6.27148 0
M  V30 3595 N 335.529 1.53961 0.336706 0
M  V30 3596 C 336.754 1.75797 1.10046 0
M  V30 3597 C 337.179 0.498985 1.81361 0
M  V30 3598 O 336.537 -0.548769 1.72795 0
M  V30 3599 C 336.585 2.94257 2.08436 0
M  V30 3600 O 335.689 2.64883 3.16087 0
M  V30 3601 H 335.03 0.582936 0.317934 0
M  V30 3602 H 337.56 2.00945 0.38501 0
M  V30 3603 H 337.57 3.21237 2.51537 0
M  V30 3604 H 336.245 3.85564 1.55927 0
M  V30 3605 H 334.822 2.48812 2.77753 0
M  V30 3606 N 337.007 -0.598083 1.45811 0
M  V30 3607 C 338.232 -1.3881 1.54099 0
M  V30 3608 C 338.657 -1.8726 0.177578 0
M  V30 3609 O 338.015 -1.6069 -0.839541 0
M  V30 3610 C 338.063 -2.56217 2.53743 0
M  V30 3611 O 337.167 -3.5716 2.06182 0
M  V30 3612 H 336.508 -0.414024 0.519115 0
M  V30 3613 H 339.038 -0.726971 1.91249 0
M  V30 3614 H 339.048 -3.03337 2.72856 0
M  V30 3615 H 337.723 -2.20303 3.5276 0
M  V30 3616 H 336.3 -3.16624 1.96987 0
M  V30 3617 N 338.485 -1.33259 -0.841409 0
M  V30 3618 C 339.713 -1.27605 -1.62864 0
M  V30 3619 C 340.128 0.153507 -1.88175 0
M  V30 3620 O 339.485 1.09485 -1.46011 0
M  V30 3621 C 339.536 -2.04596 -2.98031 0
M  V30 3622 O 339.257 -3.41975 -2.73834 0
M  V30 3623 C 340.758 -2.06122 -3.92465 0
M  V30 3624 H 337.978 -0.439718 -0.506842 0
M  V30 3625 H 340.522 -1.75591 -1.04824 0
M  V30 3626 H 338.677 -1.60299 -3.5268 0
M  V30 3627 H 339.091 -3.81549 -3.59889 0
M  V30 3628 H 340.565 -2.64451 -4.84531 0
M  V30 3629 H 341.042 -1.05083 -4.26444 0
M  V30 3630 H 341.648 -2.50427 -3.43753 0
M  V30 3631 N 339.963 1.05934 -1.16686 0
M  V30 3632 C 341.203 1.80382 -0.961345 0
M  V30 3633 C 341.567 1.85331 0.501643 0
M  V30 3634 O 342.768 2.55795 0.825986 0
M  V30 3635 C 341.039 3.20777 -1.57596 0
M  V30 3636 S 342.598 4.11795 -1.51559 0
M  V30 3637 H 339.416 0.621332 -0.345641 0
M  V30 3638 H 342.018 1.27157 -1.48497 0
M  V30 3639 H 340.722 3.14773 -2.63337 0
M  V30 3640 H 340.253 3.79078 -1.05182 0
M  V30 3641 H 342.268 4.93485 -0.518374 0
M  V30 3642 N 341.441 0.965919 1.2453 0
M  V30 3643 C 342.404 0.499547 2.2369 0
M  V30 3644 C 343.404 -0.40294 1.5567 0
M  V30 3645 O 344.594 -0.19865 1.73064 0
M  V30 3646 C 341.726 -0.276792 3.39774 0
M  V30 3647 H 342.919 1.37613 2.66463 0
M  V30 3648 H 340.472 0.750324 1.37112 0
M  V30 3649 H 341.207 -1.17055 3.02438 0
M  V30 3650 H 340.992 0.370826 3.90343 0
M  V30 3651 H 342.482 -0.592175 4.1338 0
M  V30 3652 N 342.919 -1.39368 0.735821 0
M  V30 3653 C 343.867 -2.32443 0.0855131 0
M  V30 3654 C 344.861 -1.53104 -0.724954 0
M  V30 3655 O 346.067 -1.68762 -0.626047 0
M  V30 3656 H 342.442 -0.751948 0.00885257 0
M  V30 3657 H 344.413 -2.84916 0.886883 0
M  V30 3658 C 343.162 -3.38206 -0.806983 0
M  V30 3659 H 342.485 -3.99335 -0.19274 0
M  V30 3660 H 343.925 -4.05779 -1.2296 0
M  V30 3661 C 342.384 -2.75321 -1.94165 0
M  V30 3662 O 342.914 -2.63231 -3.03435 0
M  V30 3663 N 341.12 -2.33396 -1.73132 0
M  V30 3664 H 340.667 -2.4343 -0.842596 0
M  V30 3665 H 340.625 -1.91661 -2.49225 0
M  V30 3666 N 344.397 -0.483516 -1.5 0
M  V30 3667 C 345.345 0.318061 -2.30415 0
M  V30 3668 C 346.339 0.978988 -1.38247 0
M  V30 3669 O 347.545 0.908673 -1.55381 0
M  V30 3670 H 343.92 0.121419 -0.742133 0
M  V30 3671 H 345.891 -0.380403 -2.95965 0
M  V30 3672 C 344.64 1.38013 -3.19136 0
M  V30 3673 H 343.963 0.880952 -3.89973 0
M  V30 3674 H 345.403 1.91332 -3.78375 0
M  V30 3675 C 343.862 2.38884 -2.37563 0
M  V30 3676 O 344.392 3.44412 -2.06744 0
M  V30 3677 N 342.598 2.10912 -1.99911 0
M  V30 3678 H 342.145 1.25118 -2.25174 0
M  V30 3679 H 342.103 2.78635 -1.45636 0
M  V30 3680 N 345.875 1.56104 -0.216619 0
M  V30 3681 C 347.124 1.97348 0.416744 0
M  V30 3682 C 347.437 1.10715 1.6125 0
M  V30 3683 O 348.643 1.41836 2.31506 0
M  V30 3684 C 347.099 3.51059 0.792835 0
M  V30 3685 C 346.707 4.46387 -0.379828 0
M  V30 3686 C 348.451 4.01026 1.39208 0
M  V30 3687 C 346.358 5.91397 0.0184223 0
M  V30 3688 H 345.288 0.736942 0.159475 0
M  V30 3689 H 347.939 1.80827 -0.31205 0
M  V30 3690 H 346.321 3.63162 1.57891 0
M  V30 3691 H 347.495 4.46029 -1.15737 0
M  V30 3692 H 345.81 4.06734 -0.891979 0
M  V30 3693 H 348.407 5.0686 1.70286 0
M  V30 3694 H 348.75 3.46587 2.30614 0
M  V30 3695 H 349.283 3.92125 0.669537 0
M  V30 3696 H 346.022 6.49807 -0.862002 0
M  V30 3697 H 345.542 5.94961 0.760384 0
M  V30 3698 H 347.221 6.45455 0.446818 0
M  V30 3699 N 347.353 -0.0568162 1.57498 0
M  V30 3700 C 348.301 -1.08452 2.05769 0
M  V30 3701 C 349.295 -1.39164 0.965903 0
M  V30 3702 O 350.501 -1.38395 1.15095 0
M  V30 3703 H 346.876 -0.367148 0.656282 0
M  V30 3704 H 348.847 -0.651368 2.91204 0
M  V30 3705 C 347.596 -2.38543 2.52968 0
M  V30 3706 H 346.919 -2.15765 3.36579 0
M  V30 3707 H 348.359 -3.08863 2.90481 0
M  V30 3708 C 346.818 -3.05562 1.41893 0
M  V30 3709 O 347.348 -3.94262 0.769442 0
M  V30 3710 N 345.554 -2.6643 1.16032 0
M  V30 3711 H 345.101 -1.94387 1.6903 0
M  V30 3712 H 345.059 -3.11593 0.419219 0
M  V30 3713 N 348.832 -1.54138 -0.328536 0
M  V30 3714 C 349.782 -1.79557 -1.4051 0
M  V30 3715 C 350.766 -0.651373 -1.47126 0
M  V30 3716 O 351.958 -0.911226 -1.51742 0
M  V30 3717 C 349.087 -2.02196 -2.77438 0
M  V30 3718 C 348.173 -3.22724 -2.75155 0
M  V30 3719 N 348.564 -4.43881 -2.42494 0
M  V30 3720 C 346.862 -3.24196 -3.06289 0
M  V30 3721 C 347.563 -5.25797 -2.48822 0
M  V30 3722 N 346.539 -4.62862 -2.8506 0
M  V30 3723 H 350.341 -2.70814 -1.1418 0
M  V30 3724 H 347.855 -1.53265 -0.536991 0
M  V30 3725 H 349.852 -2.18546 -3.55026 0
M  V30 3726 H 348.512 -1.12191 -3.04702 0
M  V30 3727 H 349.523 -4.70969 -2.15428 0
M  V30 3728 H 346.2 -2.44208 -3.38627 0
M  V30 3729 H 347.59 -6.32535 -2.26603 0
M  V30 3730 N 350.31 0.590341 -1.46126 0
M  V30 3731 C 351.258 1.72105 -1.5647 0
M  V30 3732 C 352.252 1.63756 -0.433612 0
M  V30 3733 O 353.458 1.69342 -0.610194 0
M  V30 3734 H 349.833 0.568889 -0.491802 0
M  V30 3735 H 351.804 1.6051 -2.51553 0
M  V30 3736 C 350.553 3.10493 -1.56491 0
M  V30 3737 H 349.876 3.17583 -2.4286 0
M  V30 3738 H 351.316 3.8939 -1.67785 0
M  V30 3739 C 349.775 3.3563 -0.292231 0
M  V30 3740 O 350.305 3.96875 0.620739 0
M  V30 3741 N 348.511 2.90026 -0.182523 0
M  V30 3742 H 348.058 2.40367 -0.926356 0
M  V30 3743 H 348.016 3.07218 0.668152 0
M  V30 3744 N 351.788 1.33704 0.83433 0
M  V30 3745 C 353.016 1.28467 1.62185 0
M  V30 3746 C 353.431 -0.143526 1.88254 0
M  V30 3747 O 352.788 -1.08709 1.4659 0
M  V30 3748 C 352.839 2.06174 2.96942 0
M  V30 3749 O 352.56 3.43422 2.72016 0
M  V30 3750 C 354.061 2.08201 3.91366 0
M  V30 3751 H 351.281 0.4424 0.504503 0
M  V30 3752 H 353.825 1.76145 1.03891 0
M  V30 3753 H 351.98 1.62167 3.51825 0
M  V30 3754 H 352.394 3.83453 3.57861 0
M  V30 3755 H 353.868 2.67017 4.83121 0
M  V30 3756 H 354.345 1.07343 4.2588 0
M  V30 3757 H 354.951 2.52246 3.42421 0
M  V30 3758 N 353.266 -1.05314 1.17247 0
M  V30 3759 C 354.176 -2.16538 0.90268 0
M  V30 3760 C 355.192 -1.73523 -0.128707 0
M  V30 3761 O 356.368 -2.01337 0.0502701 0
M  V30 3762 C 353.433 -3.44167 0.418356 0
M  V30 3763 C 352.494 -4.01635 1.51618 0
M  V30 3764 C 351.727 -5.23171 1.05487 0
M  V30 3765 O 351.95 -5.70327 -0.0914715 0
M  V30 3766 O 350.884 -5.72848 1.8474 0
M  V30 3767 H 354.71 -2.42145 1.83302 0
M  V30 3768 H 352.295 -1.15037 0.953246 0
M  V30 3769 H 354.177 -4.21112 0.155726 0
M  V30 3770 H 352.852 -3.20063 -0.48385 0
M  V30 3771 H 351.759 -3.26135 1.83268 0
M  V30 3772 H 353.092 -4.30053 2.39405 0
M  V30 3773 N 354.744 -0.972509 -1.24016 0
M  V30 3774 C 355.674 -0.525548 -2.27509 0
M  V30 3775 C 356.655 0.437262 -1.64384 0
M  V30 3776 O 357.84 0.332343 -1.91335 0
M  V30 3777 C 354.97 0.180448 -3.46831 0
M  V30 3778 C 353.924 -0.698859 -4.22256 0
M  V30 3779 C 353.25 0.138903 -5.3452 0
M  V30 3780 C 354.55 -1.98582 -4.83076 0
M  V30 3781 H 356.244 -1.39058 -2.65148 0
M  V30 3782 H 353.79 -0.67009 -1.27459 0
M  V30 3783 H 355.743 0.504387 -4.18371 0
M  V30 3784 H 354.467 1.07987 -3.08231 0
M  V30 3785 H 353.126 -1.00614 -3.52523 0
M  V30 3786 H 352.774 1.03862 -4.9216 0
M  V30 3787 H 352.474 -0.446259 -5.85903 0
M  V30 3788 H 353.998 0.457404 -6.08884 0
M  V30 3789 H 355.412 -1.72715 -5.46665 0
M  V30 3790 H 353.809 -2.5181 -5.44713 0
M  V30 3791 H 354.879 -2.67769 -4.04262 0
M  V30 3792 N 356.222 1.38976 -0.743202 0
M  V30 3793 C 357.152 2.33171 -0.123873 0
M  V30 3794 C 358.133 1.54336 0.71516 0
M  V30 3795 O 359.318 1.82696 0.658467 0
M  V30 3796 C 356.448 3.38474 0.777978 0
M  V30 3797 C 355.402 4.27979 0.0424758 0
M  V30 3798 C 354.728 5.2405 1.06189 0
M  V30 3799 C 356.028 5.10155 -1.1198 0
M  V30 3800 H 357.722 2.85213 -0.910709 0
M  V30 3801 H 355.268 1.37133 -0.439388 0
M  V30 3802 H 357.221 4.03328 1.22084 0
M  V30 3803 H 355.945 2.84891 1.59702 0
M  V30 3804 H 354.604 3.64616 -0.380853 0
M  V30 3805 H 354.252 4.66758 1.87472 0
M  V30 3806 H 353.952 5.84785 0.574485 0
M  V30 3807 H 355.476 5.9178 1.50428 0
M  V30 3808 H 356.89 5.68307 -0.75499 0
M  V30 3809 H 355.287 5.80073 -1.53738 0
M  V30 3810 H 356.357 4.44504 -1.93764 0
M  V30 3811 N 357.7 0.491464 1.49741 0
M  V30 3812 C 359.111 0.0413169 1.86654 0
M  V30 3813 C 359.462 -1.36985 1.40462 0
M  V30 3814 O 358.587 -2.01917 0.778354 0
M  V30 3815 C 359.182 0.0682023 3.38731 0
M  V30 3816 C 357.741 -0.32656 3.74981 0
M  V30 3817 C 356.888 0.444888 2.73708 0
M  V30 3818 H 359.839 0.704733 1.42194 0
M  V30 3819 H 359.86 -0.729322 3.73445 0
M  V30 3820 H 359.372 1.09539 3.72321 0
M  V30 3821 H 357.473 -1.35734 3.46997 0
M  V30 3822 H 357.586 -0.013741 4.79098 0
M  V30 3823 H 355.95 -0.104062 2.54487 0
M  V30 3824 H 356.733 1.47197 3.10142 0
M  V30 3825 N 359.178 -1.55987 0.224894 0
M  V30 3826 C 360.427 -1.97566 -0.406273 0
M  V30 3827 C 360.74 -1.11569 -1.6066 0
M  V30 3828 O 361.946 -1.43062 -2.3075 0
M  V30 3829 C 360.402 -3.51474 -0.774207 0
M  V30 3830 C 360.01 -4.46179 0.403496 0
M  V30 3831 C 361.754 -4.01758 -1.37079 0
M  V30 3832 C 359.661 -5.91399 0.0129412 0
M  V30 3833 H 358.591 -0.737777 -0.155565 0
M  V30 3834 H 361.242 -1.80659 0.321635 0
M  V30 3835 H 359.624 -3.63994 -1.55963 0
M  V30 3836 H 360.798 -4.45409 1.18101 0
M  V30 3837 H 359.113 -4.06255 0.913536 0
M  V30 3838 H 361.71 -5.07756 -1.67596 0
M  V30 3839 H 362.053 -3.47805 -2.28773 0
M  V30 3840 H 362.586 -3.92475 -0.648733 0
M  V30 3841 H 359.325 -6.49341 0.896451 0
M  V30 3842 H 358.845 -5.95356 -0.728821 0
M  V30 3843 H 360.524 -6.45683 -0.412582 0
M  V30 3844 N 360.656 0.0484629 -1.57525 0
M  V30 3845 C 361.566 1.07241 -2.08654 0
M  V30 3846 C 362.582 1.409 -1.02095 0
M  V30 3847 O 363.758 1.50609 -1.33712 0
M  V30 3848 C 360.823 2.36008 -2.5397 0
M  V30 3849 C 359.884 2.09108 -3.7493 0
M  V30 3850 C 359.117 3.31736 -4.18075 0
M  V30 3851 O 359.34 4.41714 -3.60895 0
M  V30 3852 O 358.274 3.18576 -5.10679 0
M  V30 3853 H 362.1 0.667965 -2.96263 0
M  V30 3854 H 359.685 0.26417 -1.47046 0
M  V30 3855 H 361.567 3.11747 -2.83535 0
M  V30 3856 H 360.242 2.75786 -1.69481 0
M  V30 3857 H 359.149 1.31 -3.50414 0
M  V30 3858 H 360.482 1.74198 -4.60343 0
M  V30 3859 N 362.134 1.5431 0.320358 0
M  V30 3860 C 363.064 1.86912 1.3995 0
M  V30 3861 C 364.045 0.726211 1.53819 0
M  V30 3862 O 365.23 0.980233 1.67646 0
M  V30 3863 C 362.36 2.09932 2.7667 0
M  V30 3864 C 361.314 3.25776 2.77586 0
M  V30 3865 C 360.64 3.34173 4.17412 0
M  V30 3866 C 361.94 4.6335 2.41048 0
M  V30 3867 H 363.634 2.77292 1.12914 0
M  V30 3868 H 361.18 1.33421 0.541738 0
M  V30 3869 H 363.133 2.31324 3.52232 0
M  V30 3870 H 361.857 1.16304 3.0519 0
M  V30 3871 H 360.516 3.04276 2.04479 0
M  V30 3872 H 360.164 2.38098 4.43078 0
M  V30 3873 H 359.864 4.12033 4.18931 0
M  V30 3874 H 361.388 3.57803 4.94782 0
M  V30 3875 H 362.802 4.84602 3.06324 0
M  V30 3876 H 361.199 5.43782 2.53813 0
M  V30 3877 H 362.269 4.65381 1.36193 0
M  V30 3878 N 363.613 -0.582584 1.46437 0
M  V30 3879 C 364.89 -1.34276 1.4223 0
M  V30 3880 C 365.27 -2.10835 0.10583 0
M  V30 3881 O 364.618 -2.09485 -0.912596 0
M  V30 3882 C 364.828 -2.26865 2.65204 0
M  V30 3883 C 366.176 -2.88691 3.11356 0
M  V30 3884 O 367.2 -2.37178 2.65753 0
M  V30 3885 O 366.059 -3.82255 3.90568 0
M  V30 3886 H 363.153 -0.603326 0.565621 0
M  V30 3887 H 365.699 -0.603591 1.58603 0
M  V30 3888 H 364.471 -1.69724 3.52576 0
M  V30 3889 H 364.094 -3.08122 2.5129 0
M  V30 3890 N 365.091 -1.34144 -0.827227 0
M  V30 3891 C 366.319 -1.29325 -1.61501 0
M  V30 3892 C 366.734 0.13354 -1.88327 0
M  V30 3893 O 366.091 1.0793 -1.47164 0
M  V30 3894 C 366.142 -2.07746 -2.95844 0
M  V30 3895 O 365.863 -3.4486 -2.70191 0
M  V30 3896 C 367.364 -2.10273 -3.90256 0
M  V30 3897 H 364.584 -0.445069 -0.50215 0
M  V30 3898 H 367.128 -1.76693 -1.02955 0
M  V30 3899 H 365.283 -1.6403 -3.5096 0
M  V30 3900 H 365.697 -3.85345 -3.55822 0
M  V30 3901 H 367.171 -2.69575 -4.81698 0
M  V30 3902 H 367.648 -1.096 -4.25305 0
M  V30 3903 H 368.254 -2.54059 -3.41078 0
M  V30 3904 N 366.569 1.04691 -1.17803 0
M  V30 3905 C 367.499 2.14494 -0.92275 0
M  V30 3906 C 368.48 1.69546 0.137179 0
M  V30 3907 O 369.665 1.94195 -0.0141108 0
M  V30 3908 C 366.795 3.44491 -0.440803 0
M  V30 3909 C 365.749 4.03031 -1.4405 0
M  V30 3910 C 365.075 5.28432 -0.81631 0
M  V30 3911 C 366.375 4.39932 -2.81527 0
M  V30 3912 H 368.069 2.36107 -1.84103 0
M  V30 3913 H 365.615 1.1347 -0.886599 0
M  V30 3914 H 367.568 4.2066 -0.249602 0
M  V30 3915 H 366.292 3.22546 0.513025 0
M  V30 3916 H 364.951 3.28937 -1.61853 0
M  V30 3917 H 364.599 5.02792 0.144511 0
M  V30 3918 H 364.299 5.68559 -1.48371 0
M  V30 3919 H 365.823 6.07284 -0.635496 0
M  V30 3920 H 367.237 5.07113 -2.67412 0
M  V30 3921 H 365.634 4.9109 -3.44892 0
M  V30 3922 H 366.704 3.50045 -3.35554 0
M  V30 3923 N 368.047 0.979072 1.23499 0
M  V30 3924 C 369.293 0.648178 1.92163 0
M  V30 3925 C 369.626 -0.816049 1.76222 0
M  V30 3926 O 368.901 -1.58849 1.12237 0
M  V30 3927 C 369.184 1.03773 3.44824 0
M  V30 3928 C 369.037 2.55948 3.69879 0
M  V30 3929 C 370.356 0.580653 4.36253 0
M  V30 3930 H 367.475 0.236952 0.69787 0
M  V30 3931 H 370.117 1.22012 1.45647 0
M  V30 3932 H 368.267 0.551058 3.84572 0
M  V30 3933 H 369.939 3.12179 3.3962 0
M  V30 3934 H 368.182 2.98641 3.14636 0
M  V30 3935 H 368.853 2.78255 4.76737 0
M  V30 3936 H 371.329 0.998465 4.03943 0
M  V30 3937 H 370.205 0.881663 5.41773 0
M  V30 3938 H 370.466 -0.519052 4.39042 0
M  V30 3939 N 369.525 -1.3858 0.750561 0
M  V30 3940 C 370.773 -1.99789 0.30477 0
M  V30 3941 C 371.094 -1.59874 -1.11649 0
M  V30 3942 O 370.364 -0.85417 -1.76297 0
M  V30 3943 H 368.944 -0.738902 0.109694 0
M  V30 3944 H 371.606 -1.69391 0.963983 0
M  V30 3945 H 370.702 -3.09952 0.365499 0
M  V30 3946 N 371.003 -0.499398 -1.49478 0
M  V30 3947 C 371.95 0.279881 -2.29097 0
M  V30 3948 C 372.92 0.961805 -1.3542 0
M  V30 3949 O 374.105 0.968777 -1.64376 0
M  V30 3950 C 371.245 1.33932 -3.18051 0
M  V30 3951 C 370.358 0.669333 -4.26783 0
M  V30 3952 C 369.493 1.70907 -5.02955 0
M  V30 3953 C 368.532 1.02087 -6.03527 0
M  V30 3954 N 367.669 2.00474 -6.7287 0
M  V30 3955 H 372.509 -0.405317 -2.95231 0
M  V30 3956 H 370.046 -0.211726 -1.45568 0
M  V30 3957 H 372.004 1.96553 -3.67998 0
M  V30 3958 H 370.634 1.9933 -2.53904 0
M  V30 3959 H 369.686 -0.0701234 -3.80335 0
M  V30 3960 H 370.998 0.127503 -4.98637 0
M  V30 3961 H 370.152 2.41037 -5.56764 0
M  V30 3962 H 368.891 2.28476 -4.30871 0
M  V30 3963 H 367.896 0.305338 -5.48951 0
M  V30 3964 H 369.121 0.451708 -6.77596 0
M  V30 3965 H 367.067 2.57007 -6.03559 0
M  V30 3966 H 366.984 1.51353 -7.40694 0
M  V30 3967 H 368.252 2.69897 -7.31284 0
M  V30 3968 N 372.481 1.55866 -0.233164 0
M  V30 3969 C 373.729 1.9821 0.394593 0
M  V30 3970 C 374.05 1.12234 1.59463 0
M  V30 3971 O 373.32 0.201981 1.94856 0
M  V30 3972 H 371.9 0.732034 0.148778 0
M  V30 3973 H 374.562 1.92107 -0.32876 0
M  V30 3974 H 373.658 3.03845 0.713063 0
M  V30 3975 N 373.959 -0.0401083 1.57549 0
M  V30 3976 C 375.375 -0.395556 1.54621 0
M  V30 3977 C 375.575 -1.77281 0.957799 0
M  V30 3978 O 374.631 -2.45888 0.574031 0
M  V30 3979 C 375.944 -0.307535 2.99123 0
M  V30 3980 C 377.492 -0.385425 3.10618 0
M  V30 3981 C 377.967 -0.326973 4.56831 0
M  V30 3982 N 379.458 -0.386102 4.61588 0
M  V30 3983 C 380.193 -0.363591 5.72246 0
M  V30 3984 N 379.689 -0.29402 6.92176 0
M  V30 3985 N 381.482 -0.412503 5.60584 0
M  V30 3986 H 373.633 0.861325 1.94152 0
M  V30 3987 H 375.896 0.326445 0.890021 0
M  V30 3988 H 375.602 0.638461 3.45856 0
M  V30 3989 H 375.476 -1.10552 3.60636 0
M  V30 3990 H 377.863 -1.32185 2.63839 0
M  V30 3991 H 377.944 0.44171 2.51957 0
M  V30 3992 H 377.588 0.605738 5.04275 0
M  V30 3993 H 377.518 -1.17207 5.13391 0
M  V30 3994 H 380.009 -0.442832 3.75296 0
M  V30 3995 H 380.322 -0.28164 7.72287 0
M  V30 3996 H 378.667 -0.260232 6.94513 0
M  V30 3997 H 381.858 -0.464769 4.65787 0
M  V30 3998 H 382.031 -0.391492 6.46816 0
M  V30 3999 N 375.437 -1.54477 -0.31217 0
M  V30 4000 C 376.684 -1.73227 -1.04875 0
M  V30 4001 C 377.012 -0.512042 -1.87639 0
M  V30 4002 O 376.267 0.506131 -1.89042 0
M  V30 4003 C 376.566 -2.967 -1.99258 0
M  V30 4004 C 376.232 -4.30974 -1.32559 0
M  V30 4005 C 374.894 -4.67477 -1.141 0
M  V30 4006 C 377.246 -5.14258 -0.847835 0
M  V30 4007 C 374.574 -5.84852 -0.465326 0
M  V30 4008 C 376.926 -6.32327 -0.185931 0
M  V30 4009 C 375.59 -6.67499 0.0107077 0
M  V30 4010 H 374.86 -0.633881 -0.383765 0
M  V30 4011 H 377.507 -1.88727 -0.324731 0
M  V30 4012 H 375.812 -2.75935 -2.7815 0
M  V30 4013 H 377.509 -3.08401 -2.563 0
M  V30 4014 H 374.099 -4.02262 -1.4793 0
M  V30 4015 H 378.283 -4.86565 -0.978192 0
M  V30 4016 H 373.539 -6.10654 -0.301883 0
M  V30 4017 H 377.713 -6.96135 0.192211 0
M  V30 4018 H 375.34 -7.58306 0.536287 0
M  V30 4019 N 376.915 0.57481 -1.46744 0
M  V30 4020 C 377.878 1.66533 -1.57478 0
M  V30 4021 C 378.878 1.54338 -0.451263 0
M  V30 4022 O 380.068 1.58814 -0.715813 0
M  V30 4023 C 377.2 3.05999 -1.50259 0
M  V30 4024 H 378.393 1.58372 -2.54673 0
M  V30 4025 H 375.946 0.793301 -1.34672 0
M  V30 4026 H 376.681 3.19709 -0.543725 0
M  V30 4027 H 376.466 3.16259 -2.31781 0
M  V30 4028 H 377.956 3.8537 -1.60872 0
M  V30 4029 N 378.394 1.34581 0.820102 0
M  V30 4030 C 379.304 1.28471 1.96297 0
M  V30 4031 C 380.32 0.191902 1.72939 0
M  V30 4032 O 381.496 0.418879 1.96996 0
M  V30 4033 C 378.561 1.04281 3.30645 0
M  V30 4034 C 377.622 2.22745 3.66992 0
M  V30 4035 C 376.855 1.997 4.9493 0
M  V30 4036 O 377.078 0.956656 5.6232 0
M  V30 4037 O 376.012 2.86723 5.2922 0
M  V30 4038 H 379.838 2.24624 2.04396 0
M  V30 4039 H 377.423 1.14816 0.955913 0
M  V30 4040 H 379.305 0.925841 4.11104 0
M  V30 4041 H 377.98 0.111697 3.23507 0
M  V30 4042 H 376.887 2.40003 2.86966 0
M  V30 4043 H 378.22 3.14257 3.78819 0
M  V30 4044 N 379.872 -1.04064 1.18357 0
M  V30 4045 C 381.118 -1.77528 0.980397 0
M  V30 4046 C 381.451 -1.87948 -0.48879 0
M  V30 4047 O 380.726 -1.3876 -1.36293 0
M  V30 4048 C 381.009 -3.20797 1.63588 0
M  V30 4049 C 380.862 -3.1832 3.17793 0
M  V30 4050 C 382.181 -4.18911 1.34914 0
M  V30 4051 H 379.3 -0.644443 0.357578 0
M  V30 4052 H 381.942 -1.2156 1.46024 0
M  V30 4053 H 380.092 -3.68586 1.22788 0
M  V30 4054 H 381.764 -2.78521 3.67728 0
M  V30 4055 H 380.007 -2.56351 3.49952 0
M  V30 4056 H 380.678 -4.19489 3.58794 0
M  V30 4057 H 383.154 -3.7967 1.70265 0
M  V30 4058 H 382.03 -5.17374 1.83346 0
M  V30 4059 H 382.291 -4.41262 0.272027 0
M  V30 4060 N 381.35 -0.985608 -1.22978 0
M  V30 4061 C 382.58 -0.674603 -1.95276 0
M  V30 4062 C 382.988 0.763483 -1.73111 0
M  V30 4063 O 382.331 1.52601 -1.02268 0
M  V30 4064 C 382.393 -0.891597 -3.48268 0
M  V30 4065 C 382.057 -2.31275 -3.94158 0
M  V30 4066 C 383.054 -3.29179 -4.02415 0
M  V30 4067 C 380.739 -2.64524 -4.27004 0
M  V30 4068 C 382.733 -4.58407 -4.42879 0
M  V30 4069 C 380.42 -3.93974 -4.67149 0
M  V30 4070 C 381.418 -4.90727 -4.75053 0
M  V30 4071 O 381.106 -6.17865 -5.14294 0
M  V30 4072 H 380.838 -0.249251 -0.628371 0
M  V30 4073 H 383.392 -1.32106 -1.5728 0
M  V30 4074 H 381.622 -0.187962 -3.86243 0
M  V30 4075 H 383.311 -0.576957 -4.01779 0
M  V30 4076 H 384.077 -3.04823 -3.77237 0
M  V30 4077 H 379.956 -1.89923 -4.2006 0
M  V30 4078 H 383.5 -5.33926 -4.48964 0
M  V30 4079 H 379.397 -4.18122 -4.91777 0
M  V30 4080 H 380.165 -6.21694 -5.32389 0
M  V30 4081 N 382.828 1.3818 -0.7579 0
M  V30 4082 C 383.775 2.30416 -0.133057 0
M  V30 4083 C 384.745 1.50398 0.704957 0
M  V30 4084 O 385.93 1.79014 0.660192 0
M  V30 4085 C 383.07 3.36834 0.750813 0
M  V30 4086 C 382.183 4.31879 -0.102297 0
M  V30 4087 C 381.318 5.25368 0.784979 0
M  V30 4088 C 380.357 6.12058 -0.0715046 0
M  V30 4089 N 379.494 6.97832 0.772972 0
M  V30 4090 H 384.334 2.83274 -0.925186 0
M  V30 4091 H 381.871 1.39461 -0.467866 0
M  V30 4092 H 383.829 3.97145 1.27794 0
M  V30 4093 H 382.459 2.85374 1.50868 0
M  V30 4094 H 381.511 3.72991 -0.747095 0
M  V30 4095 H 382.823 4.92921 -0.763552 0
M  V30 4096 H 381.977 5.90818 1.37911 0
M  V30 4097 H 380.716 4.64703 1.47996 0
M  V30 4098 H 379.721 5.456 -0.678272 0
M  V30 4099 H 380.946 6.74793 -0.763606 0
M  V30 4100 H 378.892 6.3971 1.45282 0
M  V30 4101 H 378.809 7.55812 0.168709 0
M  V30 4102 H 380.077 7.67687 1.35194 0
M  V30 4103 N 384.306 0.507319 1.49211 0
M  V30 4104 C 385.269 -0.256763 2.27757 0
M  V30 4105 C 386.269 -0.888287 1.34038 0
M  V30 4106 O 387.459 -0.751841 1.5714 0
M  V30 4107 C 384.591 -1.36905 3.12202 0
M  V30 4108 H 385.784 0.432557 2.96764 0
M  V30 4109 H 383.337 0.262488 1.5408 0
M  V30 4110 H 384.072 -2.09233 2.47775 0
M  V30 4111 H 383.857 -0.921599 3.81115 0
M  V30 4112 H 385.347 -1.9071 3.7151 0
M  V30 4113 N 385.784 -1.5574 0.241426 0
M  V30 4114 C 386.731 -2.21149 -0.660432 0
M  V30 4115 C 387.701 -1.17356 -1.17545 0
M  V30 4116 O 388.886 -1.45784 -1.23093 0
M  V30 4117 C 386.026 -2.91059 -1.85414 0
M  V30 4118 C 385.139 -4.09495 -1.37616 0
M  V30 4119 C 384.274 -4.67135 -2.529 0
M  V30 4120 C 383.313 -5.77831 -2.01936 0
M  V30 4121 N 382.45 -6.29677 -3.10566 0
M  V30 4122 H 387.29 -2.97845 -0.095955 0
M  V30 4123 H 384.827 -1.47057 -0.0356024 0
M  V30 4124 H 386.785 -3.29788 -2.5553 0
M  V30 4125 H 385.415 -2.16846 -2.39118 0
M  V30 4126 H 384.467 -3.76117 -0.569235 0
M  V30 4127 H 385.779 -4.89423 -0.962618 0
M  V30 4128 H 384.933 -5.08409 -3.31067 0
M  V30 4129 H 383.672 -3.86411 -2.97553 0
M  V30 4130 H 382.677 -5.36039 -1.22238 0
M  V30 4131 H 383.902 -6.60402 -1.58259 0
M  V30 4132 H 381.848 -5.5186 -3.54664 0
M  V30 4133 H 381.765 -7.04783 -2.73526 0
M  V30 4134 H 383.033 -6.75609 -3.88809 0
M  V30 4135 N 387.262 0.0317525 -1.57568 0
M  V30 4136 C 388.192 1.03274 -2.0942 0
M  V30 4137 C 389.173 1.3788 -0.996143 0
M  V30 4138 O 390.358 1.46811 -1.27122 0
M  V30 4139 C 387.488 2.33448 -2.57137 0
M  V30 4140 C 386.442 2.13091 -3.71182 0
M  V30 4141 C 385.768 3.49001 -4.05095 0
M  V30 4142 C 387.068 1.51928 -4.99715 0
M  V30 4143 H 388.762 0.60112 -2.93303 0
M  V30 4144 H 386.308 0.287705 -1.41097 0
M  V30 4145 H 388.261 3.03802 -2.92032 0
M  V30 4146 H 386.985 2.78665 -1.70333 0
M  V30 4147 H 385.644 1.45171 -3.36632 0
M  V30 4148 H 385.292 3.91862 -3.15362 0
M  V30 4149 H 384.992 3.36207 -4.81911 0
M  V30 4150 H 386.516 4.20721 -4.42522 0
M  V30 4151 H 387.93 2.12196 -5.32584 0
M  V30 4152 H 386.327 1.49716 -5.81124 0
M  V30 4153 H 387.397 0.484811 -4.8247 0
M  V30 4154 N 388.74 1.54641 0.303973 0
M  V30 4155 C 389.687 1.85386 1.37479 0
M  V30 4156 C 390.657 0.702528 1.50512 0
M  V30 4157 O 391.842 0.950867 1.65418 0
M  V30 4158 C 388.982 2.10413 2.73533 0
M  V30 4159 C 388.095 3.38049 2.68974 0
M  V30 4160 C 387.23 3.52934 3.97002 0
M  V30 4161 C 386.269 4.74373 3.86829 0
M  V30 4162 N 385.406 4.8608 5.06627 0
M  V30 4163 H 390.246 2.76732 1.1056 0
M  V30 4164 H 387.783 1.37034 0.534805 0
M  V30 4165 H 389.741 2.22919 3.52652 0
M  V30 4166 H 388.371 1.22338 2.98719 0
M  V30 4167 H 387.423 3.3418 1.81736 0
M  V30 4168 H 388.735 4.27288 2.57346 0
M  V30 4169 H 387.889 3.65088 4.84557 0
M  V30 4170 H 386.628 2.61824 4.1146 0
M  V30 4171 H 385.633 4.62255 2.97658 0
M  V30 4172 H 386.858 5.66888 3.73918 0
M  V30 4173 H 384.804 3.97891 5.21554 0
M  V30 4174 H 384.721 5.69315 4.9741 0
M  V30 4175 H 385.989 5.02587 5.95841 0
M  V30 4176 N 390.218 -0.567019 1.47046 0
M  V30 4177 C 391.15 -1.68985 1.54844 0
M  V30 4178 C 392.163 -1.56869 0.435431 0
M  V30 4179 O 393.352 -1.64006 0.70457 0
M  V30 4180 C 390.452 -3.07373 1.42742 0
M  V30 4181 C 389.625 -3.45339 2.6844 0
M  V30 4182 C 388.684 -4.62849 2.50314 0
M  V30 4183 O 387.71 -4.67922 3.24095 0
M  V30 4184 N 388.912 -5.58726 1.57499 0
M  V30 4185 H 391.677 -1.62745 2.51663 0
M  V30 4186 H 389.238 -0.753411 1.43302 0
M  V30 4187 H 391.23 -3.83803 1.28365 0
M  V30 4188 H 389.8 -3.07893 0.540445 0
M  V30 4189 H 389.02 -2.58455 2.97648 0
M  V30 4190 H 390.308 -3.67476 3.51907 0
M  V30 4191 H 389.706 -5.57376 0.966876 0
M  V30 4192 H 388.263 -6.34523 1.49078 0
M  V30 4193 N 391.696 -1.35014 -0.812953 0
M  V30 4194 C 392.644 -1.27435 -1.94585 0
M  V30 4195 C 393.638 -0.170494 -1.6854 0
M  V30 4196 O 394.844 -0.336085 -1.76835 0
M  V30 4197 H 391.219 -0.396144 -0.639198 0
M  V30 4198 H 393.19 -2.23158 -1.98098 0
M  V30 4199 C 391.939 -1.05677 -3.31252 0
M  V30 4200 H 391.262 -1.89853 -3.51846 0
M  V30 4201 H 392.702 -1.04413 -4.10943 0
M  V30 4202 C 391.161 0.239615 -3.36047 0
M  V30 4203 O 391.691 1.23759 -3.8216 0
M  V30 4204 N 389.897 0.276186 -2.89285 0
M  V30 4205 H 389.444 -0.53653 -2.51951 0
M  V30 4206 H 389.402 1.14332 -2.92875 0
M  V30 4207 N 393.175 1.03435 -1.18907 0
M  V30 4208 C 394.403 1.80381 -1.01342 0
M  V30 4209 C 394.818 1.83649 0.438005 0
M  V30 4210 O 394.175 1.27655 1.30424 0
M  V30 4211 C 394.226 3.25689 -1.56873 0
M  V30 4212 O 393.947 3.22673 -2.96334 0
M  V30 4213 C 395.448 4.19255 -1.44014 0
M  V30 4214 H 392.668 0.56784 -0.35749 0
M  V30 4215 H 395.212 1.30317 -1.576 0
M  V30 4216 H 393.367 3.72962 -1.04777 0
M  V30 4217 H 393.781 4.13748 -3.22355 0
M  V30 4218 H 395.255 5.19123 -1.87657 0
M  V30 4219 H 395.732 4.37467 -0.389815 0
M  V30 4220 H 396.338 3.77851 -1.95214 0
M  V30 4221 N 394.653 0.992116 1.22453 0
M  V30 4222 C 395.878 0.685644 1.95739 0
M  V30 4223 C 396.303 -0.743 1.72804 0
M  V30 4224 O 395.661 -1.50778 1.00676 0
M  V30 4225 C 395.709 0.996293 3.46564 0
M  V30 4226 O 394.813 0.0945512 4.12292 0
M  V30 4227 H 394.154 0.256694 0.612376 0
M  V30 4228 H 396.684 1.32888 1.5557 0
M  V30 4229 H 396.694 0.93781 3.97076 0
M  V30 4230 H 395.369 2.03733 3.62582 0
M  V30 4231 H 393.946 0.208451 3.72317 0
M  V30 4232 N 396.131 -1.37776 0.765217 0
M  V30 4233 C 397.041 -2.34135 0.147666 0
M  V30 4234 C 398.057 -1.59854 -0.687215 0
M  V30 4235 O 399.233 -1.91983 -0.608659 0
M  V30 4236 C 396.298 -3.3901 -0.72617 0
M  V30 4237 C 395.359 -4.2912 0.124417 0
M  V30 4238 C 394.592 -5.28986 -0.707807 0
M  V30 4239 O 394.815 -5.36205 -1.94525 0
M  V30 4240 O 393.749 -6.01779 -0.12046 0
M  V30 4241 H 397.575 -2.88664 0.943758 0
M  V30 4242 H 395.16 -1.39824 0.526277 0
M  V30 4243 H 397.042 -4.03195 -1.22524 0
M  V30 4244 H 395.717 -2.86819 -1.50056 0
M  V30 4245 H 394.624 -3.68057 0.669696 0
M  V30 4246 H 395.957 -4.84598 0.861736 0
M  V30 4247 N 397.609 -0.515225 -1.4894 0
M  V30 4248 C 398.541 0.292481 -2.27326 0
M  V30 4249 C 399.554 0.917838 -1.3446 0
M  V30 4250 O 400.743 0.798772 -1.5963 0
M  V30 4251 C 397.843 1.42803 -3.07344 0
M  V30 4252 C 397.016 0.907347 -4.27885 0
M  V30 4253 C 396.075 1.92222 -4.89834 0
M  V30 4254 O 395.101 1.48506 -5.49486 0
M  V30 4255 N 396.303 3.25355 -4.80754 0
M  V30 4256 H 399.068 -0.379721 -2.97285 0
M  V30 4257 H 396.629 -0.348638 -1.58102 0
M  V30 4258 H 398.621 2.10481 -3.45658 0
M  V30 4259 H 397.191 2.00414 -2.39902 0
M  V30 4260 H 396.411 0.0550218 -3.94162 0
M  V30 4261 H 397.699 0.538108 -5.05946 0
M  V30 4262 H 397.097 3.6355 -4.33414 0
M  V30 4263 H 395.654 3.88707 -5.23211 0
M  V30 4264 N 399.087 1.5561 -0.249682 0
M  V30 4265 C 400.334 1.99011 0.374287 0
M  V30 4266 C 400.662 1.13785 1.57744 0
M  V30 4267 O 399.917 0.189326 1.94782 0
M  V30 4268 C 400.216 3.4775 0.824887 0
M  V30 4269 C 399.882 4.50086 -0.270819 0
M  V30 4270 C 398.544 4.77791 -0.571746 0
M  V30 4271 C 400.896 5.11312 -1.01041 0
M  V30 4272 C 398.224 5.63997 -1.61629 0
M  V30 4273 C 400.576 5.98651 -2.0445 0
M  V30 4274 C 399.24 6.24688 -2.35204 0
M  V30 4275 H 398.51 0.728233 0.136961 0
M  V30 4276 H 401.157 1.88122 -0.358087 0
M  V30 4277 H 399.462 3.55985 1.63651 0
M  V30 4278 H 401.159 3.78721 1.31799 0
M  V30 4279 H 397.749 4.28592 -0.026136 0
M  V30 4280 H 401.933 4.89953 -0.791177 0
M  V30 4281 H 397.189 5.82425 -1.85988 0
M  V30 4282 H 401.363 6.45135 -2.62248 0
M  V30 4283 H 398.99 6.91281 -3.16282 0
M  V30 4284 N 400.565 -0.0233959 1.57583 0
M  V30 4285 C 401.475 -1.03907 2.10334 0
M  V30 4286 C 402.491 -1.39257 1.04323 0
M  V30 4287 O 403.667 -1.48462 1.36091 0
M  V30 4288 C 400.732 -2.31938 2.57693 0
M  V30 4289 C 399.793 -2.03117 3.78209 0
M  V30 4290 C 399.026 -3.25043 4.233 0
M  V30 4291 O 399.249 -4.35916 3.67876 0
M  V30 4292 O 398.183 -3.10411 5.15683 0
M  V30 4293 H 402.009 -0.620748 2.97288 0
M  V30 4294 H 399.594 -0.240743 1.47448 0
M  V30 4295 H 401.476 -3.07196 2.88458 0
M  V30 4296 H 400.151 -2.73055 1.73847 0
M  V30 4297 H 399.058 -1.25408 3.52454 0
M  V30 4298 H 400.391 -1.66852 4.63056 0
M  V30 4299 N 402.043 -1.548 -0.295768 0
M  V30 4300 C 403.271 -1.78327 -1.04914 0
M  V30 4301 C 403.686 -0.545316 -1.80753 0
M  V30 4302 O 403.043 0.485013 -1.75937 0
M  V30 4303 C 403.094 -2.99418 -2.02561 0
M  V30 4304 O 402.815 -4.18431 -1.29798 0
M  V30 4305 C 404.316 -3.35375 -2.89895 0
M  V30 4306 H 401.536 -0.594618 -0.310918 0
M  V30 4307 H 404.08 -2.01763 -0.333454 0
M  V30 4308 H 402.235 -2.78175 -2.69624 0
M  V30 4309 H 402.649 -4.86736 -1.95419 0
M  V30 4310 H 404.123 -4.23332 -3.54251 0
M  V30 4311 H 404.6 -2.53761 -3.58472 0
M  V30 4312 H 405.206 -3.58796 -2.28355 0
M  V30 4313 N 403.521 0.559213 -1.47345 0
M  V30 4314 C 404.767 1.31843 -1.54095 0
M  V30 4315 C 405.1 1.93149 -0.201726 0
M  V30 4316 O 404.375 1.77759 0.789428 0
M  V30 4317 C 404.658 2.43006 -2.65744 0
M  V30 4318 C 404.511 1.86581 -4.09277 0
M  V30 4319 C 405.83 3.44943 -2.73318 0
M  V30 4320 H 402.949 0.478012 -0.560957 0
M  V30 4321 H 405.591 0.625977 -1.79392 0
M  V30 4322 H 403.741 3.02072 -2.44305 0
M  V30 4323 H 405.413 1.31792 -4.42073 0
M  V30 4324 H 403.656 1.17268 -4.17649 0
M  V30 4325 H 404.327 2.66933 -4.83168 0
M  V30 4326 H 406.803 2.95793 -2.92653 0
M  V30 4327 H 405.679 4.20153 -3.53218 0
M  V30 4328 H 405.94 4.03665 -1.80296 0
M  V30 4329 N 404.999 1.35443 0.805782 0
M  V30 4330 C 405.962 1.28301 1.89925 0
M  V30 4331 C 406.962 0.194285 1.59622 0
M  V30 4332 O 408.152 0.448036 1.6834 0
M  V30 4333 C 405.284 0.984997 3.2636 0
M  V30 4334 H 406.477 2.2553 1.97677 0
M  V30 4335 H 404.03 1.19979 1.00173 0
M  V30 4336 H 404.765 0.016603 3.24296 0
M  V30 4337 H 404.55 1.77269 3.4974 0
M  V30 4338 H 406.04 0.960651 4.064 0
M  V30 4339 N 406.477 -1.02803 1.19454 0
M  V30 4340 C 407.723 -1.76478 0.999171 0
M  V30 4341 C 408.056 -1.88456 -0.468828 0
M  V30 4342 O 407.331 -1.40198 -1.34814 0
M  V30 4343 C 407.614 -3.19044 1.66981 0
M  V30 4344 C 407.467 -3.14932 3.21151 0
M  V30 4345 C 408.786 -4.17456 1.39349 0
M  V30 4346 H 405.905 -0.640614 0.364393 0
M  V30 4347 H 408.547 -1.20005 1.47305 0
M  V30 4348 H 406.697 -3.67263 1.2669 0
M  V30 4349 H 408.369 -2.74605 3.70661 0
M  V30 4350 H 406.612 -2.52625 3.52652 0
M  V30 4351 H 407.283 -4.1566 3.63223 0
M  V30 4352 H 409.759 -3.77842 1.74283 0
M  V30 4353 H 408.635 -5.154 1.88823 0
M  V30 4354 H 408.896 -4.40949 0.318813 0
M  V30 4355 N 407.956 -0.998596 -1.21925 0
M  V30 4356 C 408.903 -0.553621 -2.24062 0
M  V30 4357 C 409.873 0.416999 -1.6078 0
M  V30 4358 O 411.058 0.320482 -1.88089 0
M  V30 4359 C 408.198 0.119959 -3.44891 0
M  V30 4360 C 407.311 -0.893077 -4.22668 0
M  V30 4361 C 406.446 -0.192424 -5.30851 0
M  V30 4362 C 405.485 -1.19344 -6.00353 0
M  V30 4363 N 404.622 -0.520707 -7.00166 0
M  V30 4364 H 409.462 -1.4293 -2.61486 0
M  V30 4365 H 406.999 -0.715838 -1.28507 0
M  V30 4366 H 408.957 0.527459 -4.13852 0
M  V30 4367 H 407.587 0.959389 -3.08214 0
M  V30 4368 H 406.639 -1.41886 -3.52948 0
M  V30 4369 H 407.951 -1.65512 -4.70539 0
M  V30 4370 H 407.105 0.271515 -6.06092 0
M  V30 4371 H 405.844 0.602075 -4.83969 0
M  V30 4372 H 404.849 -1.66795 -5.23889 0
M  V30 4373 H 406.074 -1.98891 -6.49322 0
M  V30 4374 H 404.02 0.254252 -6.55507 0
M  V30 4375 H 403.937 -1.2211 -7.46073 0
M  V30 4376 H 405.205 -0.0797596 -7.79459 0
M  V30 4377 N 409.434 1.37368 -0.772513 0
M  V30 4378 C 410.683 1.98918 -0.333861 0
M  V30 4379 C 410.996 1.62017 1.09589 0
M  V30 4380 O 412.202 2.16676 1.63596 0
M  V30 4381 C 410.658 3.55735 -0.545971 0
M  V30 4382 C 410.266 4.01573 -1.98603 0
M  V30 4383 C 412.01 4.24156 -0.170979 0
M  V30 4384 C 409.917 5.51102 -2.1457 0
M  V30 4385 H 408.847 0.744214 -0.121085 0
M  V30 4386 H 411.498 1.56888 -0.95175 0
M  V30 4387 H 409.88 3.95748 0.141387 0
M  V30 4388 H 411.054 3.72803 -2.7084 0
M  V30 4389 H 409.369 3.45937 -2.31769 0
M  V30 4390 H 411.966 5.34024 -0.26878 0
M  V30 4391 H 412.309 4.06917 0.878855 0
M  V30 4392 H 412.842 3.89447 -0.810914 0
M  V30 4393 H 409.581 5.73268 -3.17875 0
M  V30 4394 H 409.101 5.81554 -1.46817 0
M  V30 4395 H 410.78 6.17083 -1.94468 0
M  V30 4396 N 410.912 0.523116 1.48665 0
M  V30 4397 C 412.159 -0.0134763 2.02496 0
M  V30 4398 C 412.487 -1.3493 1.40086 0
M  V30 4399 O 411.742 -1.88286 0.533567 0
M  V30 4400 C 412.041 -0.191671 3.56886 0
M  V30 4401 C 411.707 1.06893 4.38046 0
M  V30 4402 C 410.369 1.41443 4.59943 0
M  V30 4403 C 412.721 1.90584 4.85106 0
M  V30 4404 C 410.049 2.59594 5.26144 0
M  V30 4405 C 412.401 3.07907 5.52609 0
M  V30 4406 C 411.065 3.42811 5.72745 0
M  V30 4407 H 410.335 -0.00493133 0.740984 0
M  V30 4408 H 412.982 0.687751 1.78724 0
M  V30 4409 H 411.287 -0.97561 3.79459 0
M  V30 4410 H 412.984 -0.621659 3.96152 0
M  V30 4411 H 409.574 0.789848 4.21259 0
M  V30 4412 H 413.758 1.65203 4.67997 0
M  V30 4413 H 409.014 2.86847 5.39934 0
M  V30 4414 H 413.188 3.73066 5.88043 0
M  V30 4415 H 410.815 4.34462 6.23816 0
M  V30 4416 N 412.39 -1.55475 0.257931 0
M  V30 4417 C 413.801 -1.8511 -0.243135 0
M  V30 4418 C 414.152 -1.17986 -1.5676 0
M  V30 4419 O 413.277 -0.462102 -2.11409 0
M  V30 4420 C 413.872 -3.35826 -0.447929 0
M  V30 4421 C 412.431 -3.65647 -0.893245 0
M  V30 4422 C 411.578 -2.7729 0.0232965 0
M  V30 4423 H 414.529 -1.51261 0.480199 0
M  V30 4424 H 414.55 -3.58002 -1.28898 0
M  V30 4425 H 414.062 -3.84652 0.516196 0
M  V30 4426 H 412.163 -3.22308 -1.86945 0
M  V30 4427 H 412.276 -4.73312 -0.742469 0
M  V30 4428 H 410.64 -2.49942 -0.490021 0
M  V30 4429 H 411.423 -3.28926 0.982994 0
M  V30 4430 N 413.868 0.0150385 -1.57593 0
M  V30 4431 C 415.098 0.713359 -1.93894 0
M  V30 4432 C 415.506 1.68663 -0.857289 0
M  V30 4433 O 414.849 1.82876 0.173788 0
M  V30 4434 C 414.911 1.51348 -3.26089 0
M  V30 4435 C 414.575 0.703451 -4.51554 0
M  V30 4436 C 415.572 -0.00237924 -5.199 0
M  V30 4437 C 413.257 0.653854 -4.98026 0
M  V30 4438 C 415.251 -0.746955 -6.33008 0
M  V30 4439 C 412.938 -0.0944578 -6.11027 0
M  V30 4440 C 413.936 -0.793609 -6.78374 0
M  V30 4441 O 413.624 -1.52974 -7.89211 0
M  V30 4442 H 413.356 0.204637 -0.644282 0
M  V30 4443 H 415.91 -0.0276411 -2.05381 0
M  V30 4444 H 414.14 2.29862 -3.10967 0
M  V30 4445 H 415.829 2.09572 -3.47612 0
M  V30 4446 H 416.595 0.0268803 -4.84993 0
M  V30 4447 H 412.474 1.18756 -4.45441 0
M  V30 4448 H 416.018 -1.2932 -6.85509 0
M  V30 4449 H 411.915 -0.125591 -6.45378 0
M  V30 4450 H 412.683 -1.44488 -8.05646 0
M  V30 4451 N 415.346 1.54954 0.287554 0
M  V30 4452 C 416.256 1.8991 1.37736 0
M  V30 4453 C 417.272 0.794701 1.54792 0
M  V30 4454 O 418.448 1.09243 1.69198 0
M  V30 4455 C 415.513 2.15108 2.71899 0
M  V30 4456 C 414.574 3.38752 2.63715 0
M  V30 4457 C 413.807 3.62739 3.91479 0
M  V30 4458 O 414.03 2.89492 4.91478 0
M  V30 4459 O 412.964 4.56267 3.92561 0
M  V30 4460 H 416.79 2.82652 1.11092 0
M  V30 4461 H 414.375 1.41315 0.484807 0
M  V30 4462 H 416.257 2.32806 3.51254 0
M  V30 4463 H 414.932 1.25551 2.9836 0
M  V30 4464 H 413.839 3.26405 1.82786 0
M  V30 4465 H 415.172 4.28483 2.42205 0
M  V30 4466 N 416.824 -0.551391 1.4764 0
M  V30 4467 C 417.734 -1.68525 1.63207 0
M  V30 4468 C 418.75 -1.6621 0.514815 0
M  V30 4469 O 419.926 -1.85551 0.783113 0
M  V30 4470 C 416.991 -3.05025 1.64805 0
M  V30 4471 C 416.052 -3.18362 2.88 0
M  V30 4472 C 415.285 -4.4835 2.89513 0
M  V30 4473 O 415.508 -5.34163 2.00065 0
M  V30 4474 O 414.442 -4.65602 3.81443 0
M  V30 4475 H 418.268 -1.58333 2.59161 0
M  V30 4476 H 415.853 -0.722063 1.30792 0
M  V30 4477 H 417.735 -3.86245 1.68502 0
M  V30 4478 H 416.41 -3.15587 0.720197 0
M  V30 4479 H 415.317 -2.36518 2.89845 0
M  V30 4480 H 416.65 -3.12707 3.80099 0
M  V30 4481 N 418.302 -1.35869 -0.798587 0
M  V30 4482 C 419.532 -1.32529 -1.58491 0
M  V30 4483 C 419.94 0.0975405 -1.88948 0
M  V30 4484 O 419.283 1.06224 -1.49874 0
M  V30 4485 C 419.345 -2.07247 -2.9375 0
M  V30 4486 C 419.009 -3.56391 -2.86068 0
M  V30 4487 C 420.006 -4.50824 -2.58947 0
M  V30 4488 C 417.691 -3.9915 -3.04933 0
M  V30 4489 C 419.685 -5.85993 -2.5078 0
M  V30 4490 C 417.372 -5.34413 -2.96389 0
M  V30 4491 C 418.37 -6.27646 -2.69349 0
M  V30 4492 O 418.058 -7.60426 -2.60782 0
M  V30 4493 H 417.79 -0.456529 -0.498556 0
M  V30 4494 H 420.344 -1.79425 -0.999799 0
M  V30 4495 H 418.574 -1.55001 -3.54276 0
M  V30 4496 H 420.263 -1.96883 -3.54954 0
M  V30 4497 H 421.029 -4.19104 -2.44084 0
M  V30 4498 H 416.908 -3.26961 -3.24989 0
M  V30 4499 H 420.452 -6.58735 -2.29595 0
M  V30 4500 H 416.349 -5.65743 -3.10813 0
M  V30 4501 H 417.117 -7.70444 -2.76331 0
M  V30 4502 N 419.78 1.02168 -1.19998 0
M  V30 4503 C 420.743 2.08765 -0.94604 0
M  V30 4504 C 421.743 1.60618 0.0763846 0
M  V30 4505 O 422.933 1.73472 -0.159135 0
M  V30 4506 C 420.065 3.38262 -0.423255 0
M  V30 4507 H 421.258 2.32726 -1.89153 0
M  V30 4508 H 418.811 1.1889 -1.01464 0
M  V30 4509 H 419.546 3.19974 0.527938 0
M  V30 4510 H 419.331 3.74532 -1.16053 0
M  V30 4511 H 420.821 4.16759 -0.264911 0
M  V30 4512 N 421.258 1.00505 1.21394 0
M  V30 4513 C 422.483 0.706367 1.95001 0
M  V30 4514 C 422.908 -0.72463 1.73582 0
M  V30 4515 O 422.266 -1.49702 1.0227 0
M  V30 4516 C 422.314 1.03299 3.45487 0
M  V30 4517 O 421.418 0.138275 4.12168 0
M  V30 4518 H 420.759 0.263175 0.609619 0
M  V30 4519 H 423.289 1.34531 1.54151 0
M  V30 4520 H 423.299 0.979872 3.96059 0
M  V30 4521 H 421.974 2.07567 3.60401 0
M  V30 4522 H 420.551 0.247928 3.72075 0
M  V30 4523 N 422.737 -1.36956 0.779787 0
M  V30 4524 C 423.983 -2.00237 0.357324 0
M  V30 4525 C 424.338 -1.60787 -1.05666 0
M  V30 4526 O 423.631 -0.847836 -1.71821 0
M  V30 4527 C 423.825 -3.54585 0.447686 0
M  V30 4528 C 423.654 -4.09025 1.86891 0
M  V30 4529 C 422.424 -4.39612 2.49138 0
M  V30 4530 C 424.622 -4.29461 2.82963 0
M  V30 4531 N 422.604 -4.79816 3.82949 0
M  V30 4532 C 423.975 -4.72363 4.01588 0
M  V30 4533 C 426.03 -4.1161 2.80145 0
M  V30 4534 C 424.733 -4.99284 5.17791 0
M  V30 4535 C 426.759 -4.39672 3.95528 0
M  V30 4536 C 426.121 -4.82822 5.12896 0
M  V30 4537 H 422.22 -0.76148 0.177968 0
M  V30 4538 H 424.804 -1.6613 1.01533 0
M  V30 4539 H 422.975 -3.87982 -0.180184 0
M  V30 4540 H 424.707 -4.047 0.0023955 0
M  V30 4541 H 421.462 -4.28975 2.00693 0
M  V30 4542 H 421.886 -5.04216 4.51769 0
M  V30 4543 H 426.528 -3.77415 1.90572 0
M  V30 4544 H 424.246 -5.32365 6.07958 0
M  V30 4545 H 427.832 -4.27441 3.94697 0
M  V30 4546 H 426.712 -5.04118 6.00695 0
M  V30 4547 N 424.215 -0.530993 -1.48385 0
M  V30 4548 C 425.162 0.231223 -2.29639 0
M  V30 4549 C 426.132 0.932864 -1.37429 0
M  V30 4550 O 427.317 0.933692 -1.66394 0
M  V30 4551 C 424.457 1.27155 -3.2082 0
M  V30 4552 C 423.57 0.578655 -4.28107 0
M  V30 4553 C 422.705 1.602 -5.06467 0
M  V30 4554 C 421.744 0.892625 -6.05556 0
M  V30 4555 N 420.881 1.86157 -6.76971 0
M  V30 4556 H 425.721 -0.467848 -2.94305 0
M  V30 4557 H 423.258 -0.242556 -1.45086 0
M  V30 4558 H 425.216 1.88703 -3.72085 0
M  V30 4559 H 423.846 1.939 -2.58075 0
M  V30 4560 H 422.898 -0.150782 -3.80101 0
M  V30 4561 H 424.21 0.0217065 -4.98795 0
M  V30 4562 H 423.364 2.29173 -5.61751 0
M  V30 4563 H 422.103 2.19285 -4.35621 0
M  V30 4564 H 421.108 0.188829 -5.49476 0
M  V30 4565 H 422.333 0.307878 -6.78402 0
M  V30 4566 H 420.279 2.44147 -6.08875 0
M  V30 4567 H 420.196 1.35608 -7.43738 0
M  V30 4568 H 421.464 2.54325 -7.36844 0
M  V30 4569 N 425.693 1.55336 -0.266172 0
M  V30 4570 C 426.921 2.03801 0.356756 0
M  V30 4571 C 427.336 1.14485 1.50129 0
M  V30 4572 O 426.693 0.163121 1.8177 0
M  V30 4573 C 426.744 3.51455 0.846281 0
M  V30 4574 O 426.465 4.37371 -0.252663 0
M  V30 4575 C 427.966 4.15767 1.53794 0
M  V30 4576 H 425.186 0.665906 0.0825218 0
M  V30 4577 H 427.73 2.00636 -0.39566 0
M  V30 4578 H 425.885 3.55092 1.54881 0
M  V30 4579 H 426.299 5.24358 0.122173 0
M  V30 4580 H 427.773 5.20714 1.83198 0
M  V30 4581 H 428.25 3.63404 2.46646 0
M  V30 4582 H 428.856 4.16107 0.879488 0
M  V30 4583 N 427.171 -0.0066808 1.57599 0
M  V30 4584 C 428.081 -1.01671 2.11424 0
M  V30 4585 C 429.097 -1.38143 1.05795 0
M  V30 4586 O 430.273 -1.47011 1.37658 0
M  V30 4587 C 427.338 -2.29192 2.60139 0
M  V30 4588 C 426.399 -1.99094 3.80342 0
M  V30 4589 C 425.632 -3.20535 4.26724 0
M  V30 4590 O 425.855 -4.3199 3.72479 0
M  V30 4591 O 424.789 -3.04924 5.18946 0
M  V30 4592 H 428.615 -0.589181 2.9793 0
M  V30 4593 H 426.2 -0.225091 1.47695 0
M  V30 4594 H 428.082 -3.0412 2.917 0
M  V30 4595 H 426.757 -2.71195 1.76733 0
M  V30 4596 H 425.664 -1.21663 3.53764 0
M  V30 4597 H 426.997 -1.61931 4.648 0
M  V30 4598 N 428.649 -1.55105 -0.279332 0
M  V30 4599 C 429.596 -1.8755 -1.34513 0
M  V30 4600 C 430.566 -0.726384 -1.49375 0
M  V30 4601 O 431.751 -0.977063 -1.63884 0
M  V30 4602 C 428.891 -2.14738 -2.70151 0
M  V30 4603 C 428.004 -3.42285 -2.63562 0
M  V30 4604 C 427.139 -3.59206 -3.91337 0
M  V30 4605 C 426.178 -4.80467 -3.79233 0
M  V30 4606 N 425.315 -4.94079 -4.98829 0
M  V30 4607 H 430.155 -2.78456 -1.06143 0
M  V30 4608 H 427.692 -1.37867 -0.512936 0
M  V30 4609 H 429.65 -2.28501 -3.49061 0
M  V30 4610 H 428.28 -1.27075 -2.96735 0
M  V30 4611 H 427.332 -3.37029 -1.76397 0
M  V30 4612 H 428.644 -4.31328 -2.50515 0
M  V30 4613 H 427.798 -3.72751 -4.78687 0
M  V30 4614 H 426.537 -2.68337 -4.07243 0
M  V30 4615 H 425.542 -4.66932 -2.90266 0
M  V30 4616 H 426.767 -5.72765 -3.64852 0
M  V30 4617 H 424.713 -4.06139 -5.15158 0
M  V30 4618 H 424.63 -5.77156 -4.8829 0
M  V30 4619 H 425.898 -5.12003 -5.8777 0
M  V30 4620 N 430.127 0.543554 -1.4793 0
M  V30 4621 C 431.404 1.30458 -1.4574 0
M  V30 4622 C 431.784 2.1048 -0.161692 0
M  V30 4623 O 431.132 2.11831 0.856734 0
M  V30 4624 C 431.342 2.19754 -2.71126 0
M  V30 4625 C 432.69 2.80334 -3.18901 0
M  V30 4626 O 433.714 2.30049 -2.71948 0
M  V30 4627 O 432.573 3.71766 -4.00565 0
M  V30 4628 H 429.667 0.588117 -0.581418 0
M  V30 4629 H 432.213 0.561328 -1.60147 0
M  V30 4630 H 430.985 1.60316 -3.56952 0
M  V30 4631 H 430.608 3.01351 -2.59371 0
M  V30 4632 N 431.605 1.3629 0.791371 0
M  V30 4633 C 432.854 1.29742 1.54434 0
M  V30 4634 C 433.167 -0.121729 1.95221 0
M  V30 4635 O 434.373 -0.309579 2.69729 0
M  V30 4636 C 432.829 2.27623 2.78776 0
M  V30 4637 C 432.437 3.74963 2.45166 0
M  V30 4638 C 434.181 2.30047 3.56761 0
M  V30 4639 C 432.088 4.64626 3.65891 0
M  V30 4640 H 431.018 0.482113 0.579727 0
M  V30 4641 H 433.669 1.61642 0.868565 0
M  V30 4642 H 432.051 1.88714 3.48142 0
M  V30 4643 H 433.225 4.22596 1.83709 0
M  V30 4644 H 431.54 3.75295 1.80396 0
M  V30 4645 H 434.137 2.94247 4.46456 0
M  V30 4646 H 434.48 1.30846 3.95203 0
M  V30 4647 H 435.013 2.67563 2.94372 0
M  V30 4648 H 431.752 5.64883 3.32547 0
M  V30 4649 H 431.272 4.2171 4.26521 0
M  V30 4650 H 432.951 4.80801 4.32943 0
M  V30 4651 N 433.083 -1.0153 1.20538 0
M  V30 4652 C 434.33 -1.75149 1.01633 0
M  V30 4653 C 434.658 -1.89189 -0.451399 0
M  V30 4654 O 433.913 -1.41551 -1.35136 0
M  V30 4655 C 434.212 -3.17213 1.64654 0
M  V30 4656 C 433.878 -3.23146 3.14464 0
M  V30 4657 C 432.54 -3.24472 3.55347 0
M  V30 4658 C 434.892 -3.21207 4.10458 0
M  V30 4659 C 432.22 -3.21532 4.90748 0
M  V30 4660 C 434.572 -3.19808 5.45807 0
M  V30 4661 C 433.236 -3.19439 5.86102 0
M  V30 4662 H 432.506 -0.640914 0.3719 0
M  V30 4663 H 435.153 -1.19071 1.49981 0
M  V30 4664 H 433.458 -3.76457 1.08571 0
M  V30 4665 H 435.155 -3.72871 1.4754 0
M  V30 4666 H 431.745 -3.2285 2.81897 0
M  V30 4667 H 435.929 -3.19351 3.79906 0
M  V30 4668 H 431.185 -3.19578 5.21229 0
M  V30 4669 H 435.359 -3.1726 6.19935 0
M  V30 4670 H 432.986 -3.16915 6.90991 0
M  V30 4671 N 434.561 -1.01147 -1.20859 0
M  V30 4672 C 435.786 -0.716698 -1.94623 0
M  V30 4673 C 436.211 0.715415 -1.73964 0
M  V30 4674 O 435.569 1.49157 -1.03062 0
M  V30 4675 C 435.617 -1.0513 -3.44935 0
M  V30 4676 O 434.721 -0.160131 -4.12089 0
M  V30 4677 H 434.062 -0.266404 -0.608214 0
M  V30 4678 H 436.592 -1.35346 -1.53436 0
M  V30 4679 H 436.602 -1.00086 -3.95533 0
M  V30 4680 H 435.277 -2.09475 -3.59295 0
M  V30 4681 H 433.854 -0.267657 -3.71938 0
M  V30 4682 N 436.039 1.36541 -0.78704 0
M  V30 4683 C 437.316 1.9355 -0.282424 0
M  V30 4684 C 437.696 1.71919 1.22503 0
M  V30 4685 O 437.044 1.07677 2.01539 0
M  V30 4686 C 437.254 3.4246 -0.672462 0
M  V30 4687 C 438.602 4.19582 -0.650863 0
M  V30 4688 O 439.626 3.50889 -0.612789 0
M  V30 4689 O 438.485 5.42106 -0.691623 0
M  V30 4690 H 435.579 0.824091 -0.0693 0
M  V30 4691 H 438.125 1.45736 -0.869423 0
M  V30 4692 H 436.897 3.51851 -1.71221 0
M  V30 4693 H 436.52 3.97556 -0.0592211 0
M  V30 4694 N 437.518 0.538854 1.48102 0
M  V30 4695 C 438.767 0.0059532 2.01699 0
M  V30 4696 C 439.08 -1.34476 1.42041 0
M  V30 4697 O 440.286 -1.96653 1.87189 0
M  V30 4698 C 438.742 -0.0397627 3.59878 0
M  V30 4699 C 438.35 1.30659 4.28523 0
M  V30 4700 C 440.094 -0.521024 4.2129 0
M  V30 4701 C 438.001 1.22098 5.78659 0
M  V30 4702 H 436.931 -0.00154456 0.753998 0
M  V30 4703 H 439.582 0.683963 1.70277 0
M  V30 4704 H 437.964 -0.783037 3.88181 0
M  V30 4705 H 439.138 2.06613 4.11883 0
M  V30 4706 H 437.453 1.7243 3.79021 0
M  V30 4707 H 440.05 -0.603184 5.31287 0
M  V30 4708 H 440.393 -1.52885 3.8721 0
M  V30 4709 H 440.926 0.166834 3.9745 0
M  V30 4710 H 437.665 2.20424 6.17328 0
M  V30 4711 H 437.185 0.50295 5.97688 0
M  V30 4712 H 438.864 0.915345 6.40492 0
M  V30 4713 N 438.996 -1.55193 0.274407 0
M  V30 4714 C 439.944 -2.23924 -0.629362 0
M  V30 4715 C 440.938 -1.23602 -1.1584 0
M  V30 4716 O 442.144 -1.41535 -1.11211 0
M  V30 4717 H 438.519 -0.718637 -0.221507 0
M  V30 4718 H 440.49 -2.98388 -0.0268322 0
M  V30 4719 C 439.239 -2.97329 -1.80252 0
M  V30 4720 H 438.562 -3.74313 -1.40462 0
M  V30 4721 H 440.002 -3.48743 -2.41152 0
M  V30 4722 C 438.461 -2.0276 -2.69054 0
M  V30 4723 O 438.991 -1.57836 -3.69392 0
M  V30 4724 N 437.197 -1.69275 -2.36208 0
M  V30 4725 H 436.744 -2.06004 -1.54661 0
M  V30 4726 H 436.702 -1.06271 -2.95895 0
M  V30 4727 N 440.474 -0.00167713 -1.576 0
M  V30 4728 C 441.404 0.988091 -2.11563 0
M  V30 4729 C 442.385 1.35736 -1.02517 0
M  V30 4730 O 443.57 1.44082 -1.30208 0
M  V30 4731 C 440.7 2.27941 -2.62031 0
M  V30 4732 C 439.654 2.0517 -3.75619 0
M  V30 4733 C 438.98 3.4033 -4.12407 0
M  V30 4734 C 440.28 1.41294 -5.02825 0
M  V30 4735 H 441.974 0.538771 -2.94513 0
M  V30 4736 H 439.52 0.257712 -1.41675 0
M  V30 4737 H 441.473 2.97539 -2.9841 0
M  V30 4738 H 440.197 2.74989 -1.76205 0
M  V30 4739 H 438.856 1.37998 -3.39635 0
M  V30 4740 H 438.504 3.85085 -3.23603 0
M  V30 4741 H 438.204 3.25909 -4.88935 0
M  V30 4742 H 439.728 4.1124 -4.51347 0
M  V30 4743 H 441.142 2.00851 -5.36965 0
M  V30 4744 H 439.539 1.37356 -5.84169 0
M  V30 4745 H 440.609 0.382362 -4.8339 0
M  V30 4746 N 441.952 1.55251 0.271103 0
M  V30 4747 C 442.899 1.88261 1.33516 0
M  V30 4748 C 443.869 0.734296 1.48988 0
M  V30 4749 O 445.054 0.985741 1.63364 0
M  V30 4750 C 442.194 2.16168 2.69008 0
M  V30 4751 C 441.307 3.43678 2.61743 0
M  V30 4752 C 440.442 3.61276 3.89427 0
M  V30 4753 C 439.481 4.82472 3.7668 0
M  V30 4754 N 438.618 4.96717 4.96202 0
M  V30 4755 H 443.458 2.79015 1.04665 0
M  V30 4756 H 440.995 1.38137 0.505618 0
M  V30 4757 H 442.953 2.30349 3.47844 0
M  V30 4758 H 441.583 1.28646 2.96057 0
M  V30 4759 H 440.635 3.37959 1.74607 0
M  V30 4760 H 441.947 4.3265 2.48224 0
M  V30 4761 H 441.101 3.75284 4.76704 0
M  V30 4762 H 439.84 2.70492 4.05814 0
M  V30 4763 H 438.845 4.68465 2.87786 0
M  V30 4764 H 440.07 5.74692 3.61809 0
M  V30 4765 H 438.016 4.08865 5.12997 0
M  V30 4766 H 437.933 5.79738 4.85222 0
M  V30 4767 H 439.201 5.15113 5.85046 0
M  V30 4768 N 443.43 -0.535701 1.48216 0
M  V30 4769 C 444.38 -1.63688 1.58714 0
M  V30 4770 C 445.364 -1.54635 0.444615 0
M  V30 4771 O 446.556 -1.62753 0.695742 0
M  V30 4772 C 443.685 -3.02423 1.62466 0
M  V30 4773 C 442.771 -3.16601 2.82178 0
M  V30 4774 N 443.162 -3.00771 4.06658 0
M  V30 4775 C 441.46 -3.47645 2.79391 0
M  V30 4776 C 442.161 -3.18213 4.86945 0
M  V30 4777 N 441.137 -3.45528 4.19656 0
M  V30 4778 H 444.939 -1.5005 2.5271 0
M  V30 4779 H 442.453 -0.741018 1.44508 0
M  V30 4780 H 444.45 -3.81517 1.6808 0
M  V30 4781 H 443.11 -3.17157 0.695826 0
M  V30 4782 H 444.121 -2.77652 4.37184 0
M  V30 4783 H 440.798 -3.68771 1.95739 0
M  V30 4784 H 442.188 -3.1076 5.95716 0
M  V30 4785 N 444.908 -1.36708 -0.784132 0
M  V30 4786 C 445.818 -1.3363 -1.92822 0
M  V30 4787 C 446.834 -0.237686 -1.72369 0
M  V30 4788 O 448.01 -0.470962 -1.95816 0
M  V30 4789 C 445.075 -1.13011 -3.27764 0
M  V30 4790 C 444.136 -2.32397 -3.60957 0
M  V30 4791 C 443.369 -2.12752 -4.89461 0
M  V30 4792 O 443.592 -1.10541 -5.59586 0
M  V30 4793 O 442.526 -3.00653 -5.21432 0
M  V30 4794 H 446.352 -2.29964 -1.98369 0
M  V30 4795 H 443.937 -1.1731 -0.925136 0
M  V30 4796 H 445.819 -1.03451 -4.08504 0
M  V30 4797 H 444.494 -0.19743 -3.23097 0
M  V30 4798 H 443.401 -2.47527 -2.80502 0
M  V30 4799 H 444.734 -3.2419 -3.70354 0
M  V30 4800 N 446.386 1.0089 -1.21074 0
M  V30 4801 C 447.334 2.11707 -0.963476 0
M  V30 4802 C 448.328 1.69172 0.0879032 0
M  V30 4803 O 449.534 1.79889 -0.0631415 0
M  V30 4804 H 445.909 0.692026 -0.294287 0
M  V30 4805 H 447.88 2.29743 -1.90422 0
M  V30 4806 C 446.629 3.43473 -0.540509 0
M  V30 4807 H 445.952 3.76634 -1.34114 0
M  V30 4808 H 447.392 4.22044 -0.406777 0
M  V30 4809 C 445.851 3.2849 0.748079 0
M  V30 4810 O 446.381 3.58883 1.8046 0
M  V30 4811 N 444.587 2.81715 0.713081 0
M  V30 4812 H 444.134 2.5718 -0.146973 0
M  V30 4813 H 444.092 2.72071 1.57558 0
M  V30 4814 N 447.864 1.01787 1.20321 0
M  V30 4815 C 449.113 0.703249 1.89043 0
M  V30 4816 C 449.426 -0.770445 1.79787 0
M  V30 4817 O 450.632 -1.19767 2.43656 0
M  V30 4818 C 449.088 1.20749 3.3904 0
M  V30 4819 C 448.696 2.70817 3.56878 0
M  V30 4820 C 450.44 0.968352 4.13308 0
M  V30 4821 C 448.347 3.14716 5.00708 0
M  V30 4822 H 447.277 0.259354 0.707991 0
M  V30 4823 H 449.928 1.23072 1.36108 0
M  V30 4824 H 448.31 0.607989 3.91305 0
M  V30 4825 H 449.484 3.36327 3.14993 0
M  V30 4826 H 447.799 2.92888 2.95983 0
M  V30 4827 H 450.396 1.27173 5.19356 0
M  V30 4828 H 450.739 -0.095149 4.16191 0
M  V30 4829 H 451.272 1.53129 3.67146 0
M  V30 4830 H 448.011 4.20347 5.02979 0
M  V30 4831 H 447.531 2.53927 5.43398 0
M  V30 4832 H 449.21 3.07426 5.69296 0
M  V30 4833 N 449.342 -1.36122 0.79427 0
M  V30 4834 C 450.272 -2.32551 0.210328 0
M  V30 4835 C 451.253 -1.56884 -0.657386 0
M  V30 4836 O 452.438 -1.85014 -0.590207 0
M  V30 4837 C 449.568 -3.41128 -0.651819 0
M  V30 4838 C 448.522 -4.27842 0.116395 0
M  V30 4839 C 447.848 -5.2763 -0.86666 0
M  V30 4840 C 449.148 -5.05647 1.30837 0
M  V30 4841 H 450.842 -2.81636 1.01594 0
M  V30 4842 H 448.388 -1.35407 0.489981 0
M  V30 4843 H 450.341 -4.07581 -1.07031 0
M  V30 4844 H 449.065 -2.90622 -1.49019 0
M  V30 4845 H 447.724 -3.62952 0.515915 0
M  V30 4846 H 447.372 -4.73395 -1.70019 0
M  V30 4847 H 447.072 -5.86514 -0.35705 0
M  V30 4848 H 448.596 -5.96955 -1.28361 0
M  V30 4849 H 450.01 -5.65113 0.965393 0
M  V30 4850 H 448.407 -5.73967 1.75161 0
M  V30 4851 H 449.477 -4.37006 2.10128 0
M  V30 4852 N 450.82 -0.546701 -1.47814 0
M  V30 4853 C 451.752 0.244196 -2.27895 0
M  V30 4854 C 452.765 0.88911 -1.36377 0
M  V30 4855 O 453.954 0.764733 -1.61289 0
M  V30 4856 C 451.054 1.36252 -3.10304 0
M  V30 4857 C 450.227 0.816382 -4.29714 0
M  V30 4858 C 449.286 1.81789 -4.93801 0
M  V30 4859 O 448.312 1.36818 -5.52512 0
M  V30 4860 N 449.514 3.15085 -4.87547 0
M  V30 4861 H 452.279 -0.442694 -2.96412 0
M  V30 4862 H 449.84 -0.382095 -1.57327 0
M  V30 4863 H 451.832 2.03102 -3.50045 0
M  V30 4864 H 450.402 1.95281 -2.44099 0
M  V30 4865 H 449.622 -0.0285981 -3.9419 0
M  V30 4866 H 450.91 0.430668 -5.06974 0
M  V30 4867 H 450.308 3.54275 -4.41028 0
M  V30 4868 H 448.865 3.77522 -5.31339 0
M  V30 4869 N 452.299 1.55045 -0.282633 0
M  V30 4870 C 453.546 1.9976 0.33199 0
M  V30 4871 C 453.874 1.17105 1.55295 0
M  V30 4872 O 453.129 0.230599 1.94337 0
M  V30 4873 C 453.428 3.49422 0.750938 0
M  V30 4874 C 453.094 4.4941 -0.366228 0
M  V30 4875 C 451.756 4.76471 -0.672964 0
M  V30 4876 C 454.108 5.09054 -1.11864 0
M  V30 4877 C 451.436 5.60442 -1.73556 0
M  V30 4878 C 453.788 5.9418 -2.17102 0
M  V30 4879 C 452.452 6.19558 -2.48402 0
M  V30 4880 H 451.722 0.730974 0.121484 0
M  V30 4881 H 454.369 1.8732 -0.39791 0
M  V30 4882 H 452.674 3.59377 1.56063 0
M  V30 4883 H 454.371 3.81432 1.23736 0
M  V30 4884 H 450.961 4.2844 -0.117041 0
M  V30 4885 H 455.145 4.88165 -0.894925 0
M  V30 4886 H 450.401 5.78349 -1.983 0
M  V30 4887 H 454.575 6.39427 -2.75873 0
M  V30 4888 H 452.202 6.84417 -3.30874 0
M  V30 4889 N 453.777 0.010035 1.57597 0
M  V30 4890 C 454.707 -0.976857 2.12084 0
M  V30 4891 C 455.688 -1.35191 1.03235 0
M  V30 4892 O 456.873 -1.43389 1.3097 0
M  V30 4893 C 454.003 -2.26548 2.63236 0
M  V30 4894 C 452.957 -2.03175 3.76701 0
M  V30 4895 C 452.283 -3.38138 4.14206 0
M  V30 4896 C 453.583 -1.38625 5.03568 0
M  V30 4897 H 455.277 -0.523145 2.94794 0
M  V30 4898 H 452.823 -0.250195 1.4181 0
M  V30 4899 H 454.776 -2.95952 2.99984 0
M  V30 4900 H 453.5 -2.74051 1.77661 0
M  V30 4901 H 452.159 -1.36195 3.40362 0
M  V30 4902 H 451.807 -3.83363 3.25641 0
M  V30 4903 H 451.507 -3.23312 4.90656 0
M  V30 4904 H 453.031 -4.08841 4.53521 0
M  V30 4905 H 454.445 -1.98 5.38023 0
M  V30 4906 H 452.842 -1.34256 5.84889 0
M  V30 4907 H 453.912 -0.356722 4.83586 0
M  V30 4908 N 455.255 -1.55392 -0.262866 0
M  V30 4909 C 456.483 -1.80513 -1.01108 0
M  V30 4910 C 456.898 -0.583533 -1.79556 0
M  V30 4911 O 456.255 0.447585 -1.76926 0
M  V30 4912 C 456.306 -3.03648 -1.96164 0
M  V30 4913 O 456.027 -4.2109 -1.20893 0
M  V30 4914 C 457.528 -3.41448 -2.82715 0
M  V30 4915 H 454.748 -0.601079 -0.298236 0
M  V30 4916 H 457.292 -2.02425 -0.290582 0
M  V30 4917 H 455.447 -2.83832 -2.63663 0
M  V30 4918 H 455.861 -4.90771 -1.85051 0
M  V30 4919 H 457.335 -4.30751 -3.45192 0
M  V30 4920 H 457.812 -2.61308 -3.53008 0
M  V30 4921 H 458.418 -3.63559 -2.20693 0
M  V30 4922 N 456.733 0.527833 -1.48498 0
M  V30 4923 C 457.696 1.61439 -1.62696 0
M  V30 4924 C 458.696 1.52824 -0.500136 0
M  V30 4925 O 459.886 1.56456 -0.765976 0
M  V30 4926 C 457.018 3.01063 -1.59918 0
M  V30 4927 H 458.211 1.50189 -2.59583 0
M  V30 4928 H 455.764 0.750055 -1.37127 0
M  V30 4929 H 456.499 3.17818 -0.645163 0
M  V30 4930 H 456.284 3.08725 -2.41726 0
M  V30 4931 H 457.774 3.80057 -1.73051 0
M  V30 4932 N 458.211 1.37122 0.776871 0
M  V30 4933 C 459.121 1.34651 1.9211 0
M  V30 4934 C 460.137 0.246824 1.7224 0
M  V30 4935 O 461.313 0.48134 1.95563 0
M  V30 4936 C 458.378 1.14748 3.2716 0
M  V30 4937 C 457.439 2.34308 3.5972 0
M  V30 4938 C 456.672 2.15345 4.88326 0
M  V30 4939 O 456.895 1.13507 5.58992 0
M  V30 4940 O 455.829 3.03414 5.1983 0
M  V30 4941 H 459.655 2.31013 1.97146 0
M  V30 4942 H 457.24 1.17799 0.918901 0
M  V30 4943 H 459.122 1.05616 4.0795 0
M  V30 4944 H 457.797 0.214562 3.22988 0
M  V30 4945 H 456.704 2.49011 2.79185 0
M  V30 4946 H 458.037 3.26149 3.68629 0
M  V30 4947 N 459.689 -1.00246 1.21608 0
M  V30 4948 C 460.599 -2.12515 0.993709 0
M  V30 4949 C 461.615 -1.73913 -0.0549939 0
M  V30 4950 O 462.791 -2.00943 0.135619 0
M  V30 4951 C 459.856 -3.42083 0.563953 0
M  V30 4952 C 458.917 -3.94843 1.68516 0
M  V30 4953 C 458.15 -5.18226 1.27582 0
M  V30 4954 O 458.373 -5.70201 0.150506 0
M  V30 4955 O 457.307 -5.64497 2.0887 0
M  V30 4956 H 461.133 -2.34152 1.93407 0
M  V30 4957 H 458.718 -1.10891 1.00118 0
M  V30 4958 H 460.6 -4.20073 0.334194 0
M  V30 4959 H 459.275 -3.21828 -0.347665 0
M  V30 4960 H 458.182 -3.18068 1.96935 0
M  V30 4961 H 459.515 -4.19512 2.5743 0
M  V30 4962 N 461.167 -1.02423 -1.1978 0
M  V30 4963 C 462.583 -0.740459 -1.41384 0
M  V30 4964 C 462.783 0.676827 -1.89793 0
M  V30 4965 O 461.839 1.4435 -2.0717 0
M  V30 4966 C 463.152 -1.77264 -2.42895 0
M  V30 4967 C 464.7 -1.79165 -2.56649 0
M  V30 4968 C 465.175 -2.8133 -3.6141 0
M  V30 4969 N 466.666 -2.80118 -3.68901 0
M  V30 4970 C 467.401 -3.55824 -4.49641 0
M  V30 4971 N 466.897 -4.41231 -5.34123 0
M  V30 4972 N 468.69 -3.44387 -4.44246 0
M  V30 4973 H 460.841 -1.9391 -0.866764 0
M  V30 4974 H 463.104 -0.838074 -0.443098 0
M  V30 4975 H 462.81 -2.7884 -2.14339 0
M  V30 4976 H 462.684 -1.59108 -3.42001 0
M  V30 4977 H 465.071 -0.782702 -2.84531 0
M  V30 4978 H 465.152 -2.01396 -1.57713 0
M  V30 4979 H 464.796 -3.82394 -3.34271 0
M  V30 4980 H 464.726 -2.56359 -4.59986 0
M  V30 4981 H 467.217 -2.1817 -3.08562 0
M  V30 4982 H 467.53 -4.95747 -5.92836 0
M  V30 4983 H 465.875 -4.45306 -5.33599 0
M  V30 4984 H 469.066 -2.7708 -3.77285 0
M  V30 4985 H 469.239 -4.0364 -5.06931 0
M  V30 4986 N 462.645 1.35699 -0.801477 0
M  V30 4987 C 463.592 2.29876 -0.206294 0
M  V30 4988 C 464.562 1.52565 0.656752 0
M  V30 4989 O 465.747 1.81024 0.602906 0
M  V30 4990 C 462.887 3.39052 0.643272 0
M  V30 4991 C 462 4.31335 -0.239644 0
M  V30 4992 C 461.135 5.27599 0.61744 0
M  V30 4993 C 460.174 6.11521 -0.26619 0
M  V30 4994 N 459.311 6.99938 0.550571 0
M  V30 4995 H 464.151 2.80187 -1.01484 0
M  V30 4996 H 461.688 1.37902 -0.511997 0
M  V30 4997 H 463.646 4.0101 1.15094 0
M  V30 4998 H 462.276 2.9003 1.41713 0
M  V30 4999 H 461.328 3.70426 -0.865381 0
M  V30 5000 H 462.64 4.90243 -0.919985 0
M  V30 5001 H 461.794 5.94906 1.19045 0
M  V30 5002 H 460.533 4.69176 1.33137 0
M  V30 5003 H 459.538 5.43166 -0.851507 0
M  V30 5004 H 460.763 6.72022 -0.9779 0
M  V30 5005 H 458.709 6.44008 1.24856 0
M  V30 5006 H 458.626 7.55966 -0.071832 0
M  V30 5007 H 459.894 7.71599 1.10702 0
M  V30 5008 N 464.123 0.554532 1.47522 0
M  V30 5009 C 465.351 0.034257 2.06872 0
M  V30 5010 C 465.766 -1.25826 1.40759 0
M  V30 5011 O 465.123 -1.75425 0.503217 0
M  V30 5012 C 465.174 -0.167827 3.6111 0
M  V30 5013 O 464.895 1.07351 4.24744 0
M  V30 5014 C 466.396 -0.72569 4.3732 0
M  V30 5015 H 463.616 0.0446275 0.669514 0
M  V30 5016 H 466.16 0.767181 1.89564 0
M  V30 5017 H 464.315 -0.850872 3.7794 0
M  V30 5018 H 464.729 0.869563 5.17242 0
M  V30 5019 H 466.203 -0.816394 5.45929 0
M  V30 5020 H 466.68 -1.73635 4.0342 0
M  V30 5021 H 467.286 -0.0784292 4.25228 0
M  V30 5022 N 465.601 -1.54893 0.290851 0
M  V30 5023 C 466.511 -2.26812 -0.59945 0
M  V30 5024 C 467.527 -1.29963 -1.15696 0
M  V30 5025 O 468.703 -1.62928 -1.18391 0
M  V30 5026 C 465.768 -2.98716 -1.75982 0
M  V30 5027 C 464.829 -4.1108 -1.2374 0
M  V30 5028 C 464.062 -4.79546 -2.34246 0
M  V30 5029 O 464.285 -4.47309 -3.53936 0
M  V30 5030 O 463.219 -5.67165 -2.01512 0
M  V30 5031 H 467.045 -3.03696 -0.0163561 0
M  V30 5032 H 464.63 -1.49289 0.0576755 0
M  V30 5033 H 466.512 -3.43851 -2.43607 0
M  V30 5034 H 465.187 -2.24737 -2.3297 0
M  V30 5035 H 464.094 -3.70367 -0.527163 0
M  V30 5036 H 465.427 -4.87007 -0.71307 0
M  V30 5037 N 467.08 -0.0183926 -1.57589 0
M  V30 5038 C 468.01 0.965596 -2.12599 0
M  V30 5039 C 468.991 1.34641 -1.0395 0
M  V30 5040 O 470.176 1.42693 -1.31729 0
M  V30 5041 C 467.306 2.25149 -2.64434 0
M  V30 5042 C 466.26 2.01175 -3.77773 0
M  V30 5043 C 465.586 3.35937 -4.15994 0
M  V30 5044 C 466.886 1.35953 -5.04296 0
M  V30 5045 H 468.58 0.507504 -2.95067 0
M  V30 5046 H 466.126 0.242671 -1.41941 0
M  V30 5047 H 468.079 2.94357 -3.01549 0
M  V30 5048 H 466.803 2.73105 -1.79112 0
M  V30 5049 H 465.462 1.34388 -3.4108 0
M  V30 5050 H 465.11 3.81631 -3.27669 0
M  V30 5051 H 464.81 3.20705 -4.92364 0
M  V30 5052 H 466.334 4.0643 -4.55683 0
M  V30 5053 H 467.748 1.95144 -5.39065 0
M  V30 5054 H 466.145 1.31152 -5.85593 0
M  V30 5055 H 467.215 0.331071 -4.83768 0
M  V30 5056 N 468.558 1.5553 0.254621 0
M  V30 5057 C 469.806 1.7665 0.981793 0
M  V30 5058 C 470.127 0.580963 1.86145 0
M  V30 5059 O 469.397 -0.403537 1.91699 0
M  V30 5060 H 467.977 0.651475 0.365498 0
M  V30 5061 H 470.639 1.92958 0.274426 0
M  V30 5062 H 469.735 2.67486 1.60802 0
M  V30 5063 N 470.036 -0.519951 1.48776 0
M  V30 5064 C 470.983 -1.62352 1.64044 0
M  V30 5065 C 471.953 -1.58945 0.482251 0
M  V30 5066 O 473.138 -1.77219 0.706971 0
M  V30 5067 C 470.278 -3.00579 1.69547 0
M  V30 5068 C 469.391 -3.14145 2.96541 0
M  V30 5069 C 468.526 -4.42991 2.93142 0
M  V30 5070 C 467.565 -4.50122 4.14797 0
M  V30 5071 N 466.702 -5.7037 4.09418 0
M  V30 5072 H 471.542 -1.48643 2.58281 0
M  V30 5073 H 469.079 -0.723516 1.28077 0
M  V30 5074 H 471.037 -3.80671 1.70719 0
M  V30 5075 H 469.667 -3.13036 0.787918 0
M  V30 5076 H 468.719 -2.27239 3.05068 0
M  V30 5077 H 470.031 -3.15275 3.86527 0
M  V30 5078 H 469.185 -5.31385 2.92772 0
M  V30 5079 H 467.924 -4.44398 2.00902 0
M  V30 5080 H 466.929 -3.60133 4.15433 0
M  V30 5081 H 468.154 -4.50445 5.08208 0
M  V30 5082 H 466.1 -5.72655 3.20004 0
M  V30 5083 H 466.017 -5.73036 4.93119 0
M  V30 5084 H 467.285 -6.61023 4.13121 0
M  V30 5085 N 471.514 -1.37532 -0.769588 0
M  V30 5086 C 472.446 -1.29347 -1.89214 0
M  V30 5087 C 473.459 -0.208842 -1.61455 0
M  V30 5088 O 474.648 -0.465158 -1.72333 0
M  V30 5089 C 471.748 -0.977649 -3.24492 0
M  V30 5090 C 470.921 -2.16817 -3.7988 0
M  V30 5091 C 469.98 -1.82229 -4.93639 0
M  V30 5092 O 469.006 -2.54548 -5.09111 0
M  V30 5093 N 470.208 -0.767696 -5.75401 0
M  V30 5094 H 472.973 -2.26073 -1.96751 0
M  V30 5095 H 470.534 -1.31185 -0.948795 0
M  V30 5096 H 472.526 -0.727065 -3.98115 0
M  V30 5097 H 471.096 -0.0988777 -3.12444 0
M  V30 5098 H 470.316 -2.58038 -2.9801 0
M  V30 5099 H 471.604 -2.96308 -4.13617 0
M  V30 5100 H 471.002 -0.167626 -5.65452 0
M  V30 5101 H 469.559 -0.576973 -6.49241 0
M  V30 5102 N 472.992 0.995999 -1.22138 0
M  V30 5103 C 474.222 1.76809 -1.06874 0
M  V30 5104 C 474.63 1.85265 0.383866 0
M  V30 5105 O 473.973 1.31969 1.27789 0
M  V30 5106 C 474.035 3.2186 -1.60144 0
M  V30 5107 C 473.699 3.36958 -3.0872 0
M  V30 5108 C 474.696 3.2452 -4.0618 0
M  V30 5109 C 472.381 3.62109 -3.48112 0
M  V30 5110 C 474.375 3.37013 -5.41019 0
M  V30 5111 C 472.062 3.74243 -4.831 0
M  V30 5112 C 473.06 3.61702 -5.79362 0
M  V30 5113 O 472.748 3.73436 -7.119 0
M  V30 5114 H 472.48 0.562207 -0.375365 0
M  V30 5115 H 475.034 1.26113 -1.62125 0
M  V30 5116 H 473.264 3.73734 -0.992981 0
M  V30 5117 H 474.953 3.80775 -1.40589 0
M  V30 5118 H 475.719 3.05004 -3.77091 0
M  V30 5119 H 471.598 3.70949 -2.73712 0
M  V30 5120 H 475.142 3.27141 -6.16137 0
M  V30 5121 H 471.039 3.93266 -5.11872 0
M  V30 5122 H 471.807 3.90328 -7.19435 0
M  V30 5123 N 474.47 1.03057 1.19235 0
M  V30 5124 C 475.716 0.738841 1.89506 0
M  V30 5125 C 476.071 -0.724807 1.78225 0
M  V30 5126 O 475.364 -1.52118 1.16494 0
M  V30 5127 C 475.558 1.1268 3.39172 0
M  V30 5128 C 475.387 2.62662 3.65019 0
M  V30 5129 C 474.157 3.29658 3.82954 0
M  V30 5130 C 476.355 3.60873 3.66436 0
M  V30 5131 N 474.337 4.68726 3.96446 0
M  V30 5132 C 475.708 4.85566 3.8552 0
M  V30 5133 C 477.763 3.54647 3.49471 0
M  V30 5134 C 476.466 6.04783 3.89397 0
M  V30 5135 C 478.492 4.73281 3.54625 0
M  V30 5136 C 477.854 5.96789 3.74196 0
M  V30 5137 H 473.953 0.322256 0.712513 0
M  V30 5138 H 476.537 1.31822 1.43287 0
M  V30 5139 H 474.708 0.575612 3.84111 0
M  V30 5140 H 476.44 0.787145 3.96971 0
M  V30 5141 H 473.195 2.8007 3.81913 0
M  V30 5142 H 473.619 5.40971 4.07037 0
M  V30 5143 H 478.261 2.60143 3.33295 0
M  V30 5144 H 475.979 6.99654 4.04364 0
M  V30 5145 H 479.565 4.70094 3.42787 0
M  V30 5146 H 478.445 6.87051 3.78061 0
M  V30 5147 N 475.948 -1.35272 0.808662 0
M  V30 5148 C 476.878 -2.32315 0.234981 0
M  V30 5149 C 477.859 -1.57572 -0.64071 0
M  V30 5150 O 479.044 -1.8563 -0.570551 0
M  V30 5151 C 476.174 -3.41801 -0.615601 0
M  V30 5152 C 475.128 -4.27694 0.161767 0
M  V30 5153 C 474.454 -5.28519 -0.810649 0
M  V30 5154 C 475.754 -5.04231 1.36193 0
M  V30 5155 H 477.448 -2.80543 1.04575 0
M  V30 5156 H 474.994 -1.3488 0.504315 0
M  V30 5157 H 476.947 -4.08693 -1.02702 0
M  V30 5158 H 475.671 -2.92186 -1.45928 0
M  V30 5159 H 474.33 -3.62384 0.554382 0
M  V30 5160 H 473.978 -4.75171 -1.64988 0
M  V30 5161 H 473.678 -5.8686 -0.294822 0
M  V30 5162 H 475.202 -5.98283 -1.22023 0
M  V30 5163 H 476.616 -5.64058 1.02528 0
M  V30 5164 H 475.013 -5.72077 1.81239 0
M  V30 5165 H 476.083 -4.34753 2.14751 0
M  V30 5166 N 477.426 -0.562348 -1.47226 0
M  V30 5167 C 478.675 -0.038041 -2.01664 0
M  V30 5168 C 478.988 1.32199 -1.44162 0
M  V30 5169 O 480.194 1.9365 -1.90294 0
M  V30 5170 C 478.65 -0.0174958 -3.59896 0
M  V30 5171 C 478.258 -1.3746 -4.2639 0
M  V30 5172 C 480.002 0.453934 -4.22066 0
M  V30 5173 C 477.909 -1.31289 -5.76643 0
M  V30 5174 H 476.839 -0.0104511 -0.753928 0
M  V30 5175 H 479.49 -0.710966 -1.69167 0
M  V30 5176 H 477.872 0.721182 -3.89378 0
M  V30 5177 H 479.046 -2.1314 -4.08544 0
M  V30 5178 H 477.361 -1.78438 -3.7623 0
M  V30 5179 H 479.958 0.518584 -5.32179 0
M  V30 5180 H 480.301 1.46706 -3.89594 0
M  V30 5181 H 480.834 -0.230044 -3.97134 0
M  V30 5182 H 477.573 -2.30217 -6.13743 0
M  V30 5183 H 477.093 -0.597973 -5.96812 0
M  V30 5184 H 478.772 -1.01713 -6.38955 0
M  V30 5185 N 478.904 1.54736 -0.299062 0
M  V30 5186 C 480.132 2.04512 0.313447 0
M  V30 5187 C 480.547 1.17643 1.47667 0
M  V30 5188 O 479.904 0.20164 1.81383 0
M  V30 5189 C 479.955 3.53171 0.771542 0
M  V30 5190 O 479.676 4.36736 -0.345379 0
M  V30 5191 C 481.177 4.18936 1.4494 0
M  V30 5192 H 478.397 0.667507 0.0683784 0
M  V30 5193 H 480.941 1.99752 -0.438129 0
M  V30 5194 H 479.096 3.58298 1.47314 0
M  V30 5195 H 479.51 5.24499 0.0109219 0
M  V30 5196 H 480.984 5.24482 1.72111 0
M  V30 5197 H 481.461 3.68554 2.38883 0
M  V30 5198 H 482.067 4.17879 0.791028 0
M  V30 5199 N 480.382 0.0267497 1.57577 0
M  V30 5200 C 481.345 -0.940916 2.08996 0
M  V30 5201 C 482.345 -1.25561 1.00455 0
M  V30 5202 O 483.535 -1.19634 1.26623 0
M  V30 5203 C 480.667 -2.25814 2.55384 0
M  V30 5204 H 481.86 -0.495628 2.95776 0
M  V30 5205 H 479.413 -0.221241 1.54726 0
M  V30 5206 H 480.148 -2.74976 1.71926 0
M  V30 5207 H 479.933 -2.04285 3.34679 0
M  V30 5208 H 481.423 -2.95178 2.95398 0
M  V30 5209 N 481.861 -1.55662 -0.24637 0
M  V30 5210 C 483.108 -1.77519 -0.974335 0
M  V30 5211 C 483.436 -0.591165 -1.85298 0
M  V30 5212 O 482.691 0.425497 -1.91018 0
M  V30 5213 C 482.99 -3.04885 -1.86494 0
M  V30 5214 C 482.656 -4.36209 -1.14161 0
M  V30 5215 C 481.318 -4.71896 -0.941701 0
M  V30 5216 C 483.67 -5.17391 -0.628957 0
M  V30 5217 C 480.998 -5.86299 -0.216852 0
M  V30 5218 C 483.35 -6.32546 0.0824273 0
M  V30 5219 C 482.014 -6.66853 0.293807 0
M  V30 5220 H 481.284 -0.649588 -0.356535 0
M  V30 5221 H 483.931 -1.89934 -0.244394 0
M  V30 5222 H 482.236 -2.87484 -2.66196 0
M  V30 5223 H 483.933 -3.18994 -2.42989 0
M  V30 5224 H 480.523 -4.08174 -1.30736 0
M  V30 5225 H 484.707 -4.90276 -0.770943 0
M  V30 5226 H 479.963 -6.11385 -0.0426124 0
M  V30 5227 H 484.137 -6.94693 0.487292 0
M  V30 5228 H 481.764 -7.55349 0.857428 0
M  V30 5229 N 483.339 0.512053 -1.4905 0
M  V30 5230 C 484.289 1.61142 -1.61298 0
M  V30 5231 C 485.273 1.53908 -0.46916 0
M  V30 5232 O 486.465 1.61625 -0.721547 0
M  V30 5233 C 483.594 2.998 -1.67256 0
M  V30 5234 C 482.68 3.12072 -2.87179 0
M  V30 5235 N 483.071 2.94263 -4.11391 0
M  V30 5236 C 481.369 3.43156 -2.84886 0
M  V30 5237 C 482.07 3.10426 -4.91946 0
M  V30 5238 N 481.046 3.38808 -4.251 0
M  V30 5239 H 484.848 1.46011 -2.55065 0
M  V30 5240 H 482.362 0.717934 -1.45669 0
M  V30 5241 H 484.359 3.78794 -1.74128 0
M  V30 5242 H 483.019 3.1601 -0.746195 0
M  V30 5243 H 484.03 2.70661 -4.41546 0
M  V30 5244 H 480.707 3.65611 -2.01581 0
M  V30 5245 H 482.097 3.01243 -6.00585 0
M  V30 5246 N 484.817 1.37938 0.762283 0
M  V30 5247 C 485.78 1.34279 1.85747 0
M  V30 5248 C 486.78 0.244969 1.58923 0
M  V30 5249 O 487.97 0.501365 1.66829 0
M  V30 5250 C 485.102 1.08833 3.23061 0
M  V30 5251 H 486.295 2.31705 1.90401 0
M  V30 5252 H 483.848 1.23105 0.963057 0
M  V30 5253 H 484.583 0.119767 3.24079 0
M  V30 5254 H 484.368 1.88306 3.43923 0
M  V30 5255 H 485.858 1.08946 4.03138 0
M  V30 5256 N 486.295 -0.989507 1.22664 0
M  V30 5257 C 487.242 -2.08024 0.999733 0
M  V30 5258 C 488.212 -1.65909 -0.0797047 0
M  V30 5259 O 489.397 -1.90669 0.0705715 0
M  V30 5260 C 486.537 -3.40067 0.587234 0
M  V30 5261 C 485.65 -3.95505 1.73781 0
M  V30 5262 C 484.785 -5.15722 1.27297 0
M  V30 5263 C 483.824 -5.63305 2.39488 0
M  V30 5264 N 482.961 -6.74758 1.94026 0
M  V30 5265 H 487.801 -2.26768 1.9334 0
M  V30 5266 H 485.338 -1.11171 0.963297 0
M  V30 5267 H 487.296 -4.15899 0.329227 0
M  V30 5268 H 485.926 -3.21314 -0.309426 0
M  V30 5269 H 484.978 -3.16513 2.11006 0
M  V30 5270 H 486.29 -4.26797 2.58158 0
M  V30 5271 H 485.444 -5.98854 0.972546 0
M  V30 5272 H 484.183 -4.86061 0.399445 0
M  V30 5273 H 483.188 -4.78759 2.70315 0
M  V30 5274 H 484.413 -5.94988 3.27362 0
M  V30 5275 H 482.359 -6.46874 1.09041 0
M  V30 5276 H 482.276 -7.05386 2.71968 0
M  V30 5277 H 483.544 -7.61387 1.67062 0
M  V30 5278 N 487.773 -1.03688 -1.18687 0
M  V30 5279 C 489.021 -0.736572 -1.88199 0
M  V30 5280 C 489.342 0.737665 -1.80509 0
M  V30 5281 O 488.612 1.53204 -1.22088 0
M  V30 5282 H 487.192 -0.269466 -0.696704 0
M  V30 5283 H 489.854 -1.31282 -1.44052 0
M  V30 5284 H 488.95 -1.03802 -2.94332 0
M  V30 5285 N 489.251 1.34841 -0.815825 0
M  V30 5286 C 490.199 2.31549 -0.220888 0
M  V30 5287 C 491.193 1.5707 0.634457 0
M  V30 5288 O 492.399 1.72125 0.526589 0
M  V30 5289 H 488.774 0.750153 -0.0526782 0
M  V30 5290 H 490.745 2.7926 -1.05149 0
M  V30 5291 C 489.494 3.42335 0.608427 0
M  V30 5292 H 488.817 3.9978 -0.0404121 0
M  V30 5293 H 490.257 4.12258 0.990931 0
M  V30 5294 C 488.716 2.86173 1.77782 0
M  V30 5295 O 489.246 2.80474 2.87571 0
M  V30 5296 N 487.452 2.43093 1.59229 0
M  V30 5297 H 486.999 2.47928 0.699237 0
M  V30 5298 H 486.957 2.05866 2.37627 0
M  V30 5299 N 490.729 0.570148 1.46925 0
M  V30 5300 C 491.659 -0.158274 2.32963 0
M  V30 5301 C 492.64 -0.896093 1.44583 0
M  V30 5302 O 493.825 -0.874022 1.7342 0
M  V30 5303 C 490.955 -1.18055 3.26619 0
M  V30 5304 C 489.909 -0.558379 4.24342 0
M  V30 5305 C 489.235 -1.68623 5.07415 0
M  V30 5306 C 490.535 0.496295 5.19937 0
M  V30 5307 H 492.229 0.560046 2.94115 0
M  V30 5308 H 489.775 0.270775 1.41431 0
M  V30 5309 H 491.728 -1.69841 3.85658 0
M  V30 5310 H 490.452 -1.92899 2.63548 0
M  V30 5311 H 489.111 -0.0617157 3.66548 0
M  V30 5312 H 488.759 -2.42402 4.40738 0
M  V30 5313 H 488.459 -1.27564 5.73586 0
M  V30 5314 H 489.983 -2.20709 5.69315 0
M  V30 5315 H 491.397 0.0640052 5.73264 0
M  V30 5316 H 489.794 0.82649 5.94381 0
M  V30 5317 H 490.864 1.38735 4.6463 0
M  V30 5318 N 492.207 -1.54576 0.307264 0
M  V30 5319 C 493.139 -2.21212 -0.599807 0
M  V30 5320 C 494.152 -1.20685 -1.09266 0
M  V30 5321 O 495.341 -1.47244 -1.00903 0
M  V30 5322 C 492.441 -2.84994 -1.83389 0
M  V30 5323 C 491.614 -4.11511 -1.48248 0
M  V30 5324 C 490.673 -4.59038 -2.57237 0
M  V30 5325 O 489.699 -5.24095 -2.22065 0
M  V30 5326 N 490.901 -4.31884 -3.87887 0
M  V30 5327 H 493.666 -2.99686 -0.0293075 0
M  V30 5328 H 491.227 -1.61379 0.129738 0
M  V30 5329 H 493.219 -3.1372 -2.5566 0
M  V30 5330 H 491.789 -2.10324 -2.31263 0
M  V30 5331 H 491.009 -3.89728 -0.592122 0
M  V30 5332 H 492.297 -4.93879 -1.22316 0
M  V30 5333 H 491.695 -3.79778 -4.19268 0
M  V30 5334 H 490.252 -4.65304 -4.56438 0
M  V30 5335 N 493.685 -0.035106 -1.57561 0
M  V30 5336 C 494.595 0.960295 -2.14046 0
M  V30 5337 C 495.611 1.3529 -1.0942 0
M  V30 5338 O 496.787 1.43309 -1.41508 0
M  V30 5339 C 493.852 2.22214 -2.66124 0
M  V30 5340 C 492.913 1.8894 -3.85487 0
M  V30 5341 C 492.146 3.09109 -4.35072 0
M  V30 5342 O 492.369 4.21963 -3.83802 0
M  V30 5343 O 491.303 2.91058 -5.26848 0
M  V30 5344 H 495.129 0.509983 -2.99387 0
M  V30 5345 H 492.714 0.185853 -1.48239 0
M  V30 5346 H 494.596 2.96279 -2.99661 0
M  V30 5347 H 493.271 2.66414 -1.83862 0
M  V30 5348 H 492.178 1.12241 -3.56865 0
M  V30 5349 H 493.511 1.49551 -4.6893 0
M  V30 5350 N 495.163 1.55791 0.238111 0
M  V30 5351 C 496.393 1.81834 0.980809 0
M  V30 5352 C 496.801 0.609741 1.79106 0
M  V30 5353 O 496.144 -0.431073 1.78571 0
M  V30 5354 C 496.206 3.01363 1.96011 0
M  V30 5355 C 495.87 4.37037 1.33597 0
M  V30 5356 C 496.867 5.14692 0.734063 0
M  V30 5357 C 494.552 4.83743 1.3527 0
M  V30 5358 C 496.546 6.37206 0.157208 0
M  V30 5359 C 494.233 6.06204 0.77199 0
M  V30 5360 C 495.231 6.82775 0.175282 0
M  V30 5361 O 494.919 8.02922 -0.396432 0
M  V30 5362 H 494.651 0.6088 0.293834 0
M  V30 5363 H 497.205 2.03702 0.263552 0
M  V30 5364 H 495.435 2.75273 2.71591 0
M  V30 5365 H 497.124 3.14422 2.56697 0
M  V30 5366 H 497.89 4.79722 0.713582 0
M  V30 5367 H 493.769 4.24129 1.80653 0
M  V30 5368 H 497.313 6.96915 -0.30917 0
M  V30 5369 H 493.21 6.4065 0.789828 0
M  V30 5370 H 493.978 8.17989 -0.289145 0
M  V30 5371 N 496.642 -0.504142 1.49319 0
M  V30 5372 C 497.572 -1.61473 1.68667 0
M  V30 5373 C 498.553 -1.61455 0.535378 0
M  V30 5374 O 499.738 -1.78245 0.770868 0
M  V30 5375 C 496.868 -2.99971 1.75028 0
M  V30 5376 C 495.822 -3.14854 2.89916 0
M  V30 5377 C 495.148 -4.54671 2.81387 0
M  V30 5378 C 496.448 -2.95176 4.30893 0
M  V30 5379 H 498.142 -1.45535 2.61648 0
M  V30 5380 H 495.688 -0.698711 1.25913 0
M  V30 5381 H 497.641 -3.77562 1.8715 0
M  V30 5382 H 496.365 -3.1699 0.786441 0
M  V30 5383 H 495.024 -2.39687 2.77391 0
M  V30 5384 H 494.672 -4.68562 1.82917 0
M  V30 5385 H 494.372 -4.6557 3.58494 0
M  V30 5386 H 495.896 -5.34327 2.95512 0
M  V30 5387 H 497.31 -3.62538 4.44116 0
M  V30 5388 H 495.707 -3.17549 5.09198 0
M  V30 5389 H 496.777 -1.91332 4.45556 0
M  V30 5390 N 498.12 -1.38341 -0.754957 0
M  V30 5391 C 499.348 -1.37704 -1.54419 0
M  V30 5392 C 499.763 0.0335243 -1.8877 0
M  V30 5393 O 499.12 0.999773 -1.52679 0
M  V30 5394 C 499.171 -2.23136 -2.84416 0
M  V30 5395 O 498.892 -3.58697 -2.51531 0
M  V30 5396 C 500.393 -2.30664 -3.78562 0
M  V30 5397 H 497.613 -0.471061 -0.477852 0
M  V30 5398 H 500.157 -1.81902 -0.934446 0
M  V30 5399 H 498.312 -1.82403 -3.41772 0
M  V30 5400 H 498.726 -4.03665 -3.34896 0
M  V30 5401 H 500.2 -2.9473 -4.66732 0
M  V30 5402 H 500.677 -1.3199 -4.18898 0
M  V30 5403 H 501.283 -2.71781 -3.27131 0
M  V30 5404 N 499.598 0.982988 -1.23187 0
M  V30 5405 C 501.014 1.2487 -0.993967 0
M  V30 5406 C 501.214 1.99155 0.306498 0
M  V30 5407 O 500.27 2.30688 1.0266 0
M  V30 5408 C 501.583 2.05078 -2.19917 0
M  V30 5409 C 503.131 2.18227 -2.2438 0
M  V30 5410 C 503.606 3.01825 -3.44479 0
M  V30 5411 N 505.097 3.09411 -3.44702 0
M  V30 5412 C 505.832 3.74412 -4.34285 0
M  V30 5413 N 505.328 4.41259 -5.341 0
M  V30 5414 N 507.121 3.71273 -4.22035 0
M  V30 5415 H 499.272 0.485253 -2.06783 0
M  V30 5416 H 501.535 0.276979 -0.906635 0
M  V30 5417 H 501.241 1.57867 -3.14279 0
M  V30 5418 H 501.115 3.05829 -2.2079 0
M  V30 5419 H 503.502 2.64648 -1.30559 0
M  V30 5420 H 503.583 1.16873 -2.2754 0
M  V30 5421 H 503.227 2.56102 -4.38605 0
M  V30 5422 H 503.157 4.03342 -3.38559 0
M  V30 5423 H 505.648 2.61845 -2.7248 0
M  V30 5424 H 505.961 4.88629 -5.98717 0
M  V30 5425 H 504.306 4.39975 -5.38002 0
M  V30 5426 H 507.497 3.18217 -3.43301 0
M  V30 5427 H 507.67 4.21649 -4.92053 0
M  V30 5428 N 501.076 1.04316 1.18135 0
M  V30 5429 C 502.026 0.606731 2.19779 0
M  V30 5430 C 503.01 -0.352144 1.56999 0
M  V30 5431 O 504.202 -0.170795 1.76174 0
M  V30 5432 C 501.331 -0.0262443 3.4329 0
M  V30 5433 C 500.417 0.955928 4.13186 0
M  V30 5434 N 500.808 2.12395 4.59045 0
M  V30 5435 C 499.106 0.782473 4.39082 0
M  V30 5436 C 499.807 2.74458 5.12882 0
M  V30 5437 N 498.783 2.02316 5.04548 0
M  V30 5438 H 502.585 1.49679 2.5293 0
M  V30 5439 H 500.099 0.912088 1.34368 0
M  V30 5440 H 502.096 -0.356617 4.15372 0
M  V30 5441 H 500.756 -0.911811 3.11635 0
M  V30 5442 H 501.767 2.50272 4.53414 0
M  V30 5443 H 498.444 -0.0527906 4.17467 0
M  V30 5444 H 499.834 3.73459 5.5855 0
M  V30 5445 N 502.554 -1.34406 0.822964 0
M  V30 5446 C 503.8 -1.98578 0.411666 0
M  V30 5447 C 504.133 -1.65093 -1.02264 0
M  V30 5448 O 503.408 -0.92258 -1.71227 0
M  V30 5449 C 503.691 -3.54823 0.614235 0
M  V30 5450 C 503.544 -3.9805 2.09466 0
M  V30 5451 C 504.863 -4.40071 0.050221 0
M  V30 5452 H 501.982 -0.721355 0.151047 0
M  V30 5453 H 504.624 -1.59301 1.03554 0
M  V30 5454 H 502.774 -3.88411 0.0831774 0
M  V30 5455 H 504.446 -3.74795 2.68936 0
M  V30 5456 H 502.689 -3.4836 2.5851 0
M  V30 5457 H 503.36 -5.06819 2.18721 0
M  V30 5458 H 505.836 -4.13037 0.503953 0
M  V30 5459 H 504.712 -5.48452 0.221759 0
M  V30 5460 H 504.973 -4.29576 -1.04482 0
M  V30 5461 N 504.032 -0.577932 -1.46621 0
M  V30 5462 C 505.281 -0.0594281 -2.01612 0
M  V30 5463 C 505.594 1.30663 -1.45556 0
M  V30 5464 O 506.8 1.91621 -1.92337 0
M  V30 5465 C 505.256 -0.0556666 -3.59857 0
M  V30 5466 C 504.864 -1.41975 -4.24908 0
M  V30 5467 C 506.608 0.409143 -4.22524 0
M  V30 5468 C 504.515 -1.37397 -5.75218 0
M  V30 5469 H 503.445 -0.0184469 -0.753774 0
M  V30 5470 H 506.096 -0.728869 -1.68404 0
M  V30 5471 H 504.478 0.679843 -3.90121 0
M  V30 5472 H 505.652 -2.17461 -4.0626 0
M  V30 5473 H 503.967 -1.82419 -3.74316 0
M  V30 5474 H 506.564 0.46211 -5.32699 0
M  V30 5475 H 506.907 1.42565 -3.91128 0
M  V30 5476 H 507.44 -0.272152 -3.96868 0
M  V30 5477 H 504.179 -2.36714 -6.11267 0
M  V30 5478 H 503.699 -0.661239 -5.96144 0
M  V30 5479 H 505.378 -1.08484 -6.3784 0
M  V30 5480 N 505.51 1.54411 -0.315457 0
M  V30 5481 C 506.735 2.05299 0.294496 0
M  V30 5482 C 507.16 1.19052 1.4563 0
M  V30 5483 O 506.518 0.197804 1.80218 0
M  V30 5484 C 506.566 3.5345 0.714549 0
M  V30 5485 O 505.67 3.70175 1.81781 0
M  V30 5486 H 505.011 0.661743 0.0547019 0
M  V30 5487 H 507.541 1.99327 -0.461508 0
M  V30 5488 H 507.551 3.9557 0.999426 0
M  V30 5489 H 506.226 4.1568 -0.135244 0
M  V30 5490 H 504.803 3.3996 1.53236 0
M  V30 5491 N 506.988 0.0434614 1.5754 0
M  V30 5492 C 508.234 -0.627109 1.93491 0
M  V30 5493 C 508.589 -1.68904 0.921362 0
M  V30 5494 O 507.882 -1.91504 -0.0605799 0
M  V30 5495 C 508.076 -1.2738 3.3393 0
M  V30 5496 C 507.905 -0.27603 4.48852 0
M  V30 5497 C 506.675 0.129244 5.05135 0
M  V30 5498 C 508.873 0.475462 5.12098 0
M  V30 5499 N 506.855 1.12068 6.03584 0
M  V30 5500 C 508.226 1.32021 6.05781 0
M  V30 5501 C 510.281 0.534611 4.95022 0
M  V30 5502 C 508.984 2.2188 6.84223 0
M  V30 5503 C 511.01 1.42059 5.74085 0
M  V30 5504 C 510.372 2.25309 6.67394 0
M  V30 5505 H 506.471 -0.201354 0.755633 0
M  V30 5506 H 509.055 0.113991 1.94366 0
M  V30 5507 H 507.226 -1.98496 3.33847 0
M  V30 5508 H 508.958 -1.90255 3.57191 0
M  V30 5509 H 505.713 -0.248145 4.72949 0
M  V30 5510 H 506.137 1.61306 6.57502 0
M  V30 5511 H 510.779 -0.0947817 4.22694 0
M  V30 5512 H 508.497 2.85868 7.55847 0
M  V30 5513 H 512.083 1.47083 5.62901 0
M  V30 5514 H 510.963 2.92754 7.27506 0
M  V30 5515 N 508.466 -1.55915 -0.229846 0
M  V30 5516 C 509.376 -1.94891 -1.30593 0
M  V30 5517 C 510.392 -0.851604 -1.51736 0
M  V30 5518 O 511.568 -1.15447 -1.65027 0
M  V30 5519 C 508.633 -2.25052 -2.63728 0
M  V30 5520 C 507.694 -3.48306 -2.5096 0
M  V30 5521 C 506.927 -3.77019 -3.77747 0
M  V30 5522 O 507.15 -3.07534 -4.80395 0
M  V30 5523 O 506.084 -4.70523 -3.75356 0
M  V30 5524 H 509.91 -2.86581 -1.00525 0
M  V30 5525 H 507.495 -1.43017 -0.432025 0
M  V30 5526 H 509.377 -2.45682 -3.42372 0
M  V30 5527 H 508.052 -1.36538 -2.93495 0
M  V30 5528 H 506.959 -3.32964 -1.70546 0
M  V30 5529 H 508.292 -4.37177 -2.26136 0
M  V30 5530 N 509.944 0.496216 -1.49584 0
M  V30 5531 C 511.221 1.25755 -1.49816 0
M  V30 5532 C 511.601 2.09859 -0.228572 0
M  V30 5533 O 510.949 2.14449 0.788908 0
M  V30 5534 C 511.159 2.11017 -2.7798 0
M  V30 5535 C 512.507 2.70047 -3.27658 0
M  V30 5536 O 513.531 2.21281 -2.79129 0
M  V30 5537 O 512.39 3.58834 -4.1219 0
M  V30 5538 H 509.484 0.569322 -0.599834 0
M  V30 5539 H 512.03 0.510094 -1.61852 0
M  V30 5540 H 510.802 1.48879 -3.61871 0
M  V30 5541 H 510.425 2.92947 -2.68827 0
M  V30 5542 N 511.423 1.38739 0.74761 0
M  V30 5543 C 512.353 1.39173 1.87492 0
M  V30 5544 C 513.334 0.256794 1.6815 0
M  V30 5545 O 514.519 0.460762 1.88655 0
M  V30 5546 C 511.649 1.22197 3.25093 0
M  V30 5547 C 510.603 2.32957 3.59047 0
M  V30 5548 C 509.929 2.01082 4.95449 0
M  V30 5549 C 511.229 3.75237 3.6331 0
M  V30 5550 H 512.923 2.3351 1.87386 0
M  V30 5551 H 510.469 1.12399 0.900134 0
M  V30 5552 H 512.422 1.21124 4.03617 0
M  V30 5553 H 511.146 0.243241 3.25693 0
M  V30 5554 H 509.805 2.33226 2.82845 0
M  V30 5555 H 509.453 1.01678 4.92616 0
M  V30 5556 H 509.153 2.75267 5.19136 0
M  V30 5557 H 510.677 2.01638 5.76346 0
M  V30 5558 H 512.091 3.76966 4.31937 0
M  V30 5559 H 510.488 4.48677 3.98509 0
M  V30 5560 H 511.558 4.07122 2.634 0
M  V30 5561 N 512.901 -0.976442 1.23707 0
M  V30 5562 C 514.317 -1.24341 1.00058 0
M  V30 5563 C 514.517 -1.99315 -0.295932 0
M  V30 5564 O 513.573 -2.3123 -1.01435 0
M  V30 5565 C 514.886 -2.03909 2.21001 0
M  V30 5566 C 516.434 -2.17034 2.25534 0
M  V30 5567 C 516.909 -2.99994 3.46075 0
M  V30 5568 N 518.4 -3.07578 3.46338 0
M  V30 5569 C 519.135 -3.72104 4.36264 0
M  V30 5570 N 518.631 -4.3842 5.36432 0
M  V30 5571 N 520.424 -3.69029 4.23998 0
M  V30 5572 H 512.575 -0.47428 2.07037 0
M  V30 5573 H 514.838 -0.272167 0.908091 0
M  V30 5574 H 514.544 -1.56198 3.15111 0
M  V30 5575 H 514.418 -3.04654 2.22409 0
M  V30 5576 H 516.805 -2.63951 1.31961 0
M  V30 5577 H 516.886 -1.15664 2.28156 0
M  V30 5578 H 516.53 -2.53772 4.39957 0
M  V30 5579 H 516.46 -4.01541 3.40694 0
M  V30 5580 H 518.951 -2.60397 2.73865 0
M  V30 5581 H 519.264 -4.85447 6.013 0
M  V30 5582 H 517.609 -4.37116 5.40328 0
M  V30 5583 H 520.8 -3.16392 3.44984 0
M  V30 5584 H 520.973 -4.19034 4.94282 0
M  V30 5585 N 514.379 -1.04941 -1.1758 0
M  V30 5586 C 515.326 -0.648155 -2.21512 0
M  V30 5587 C 516.296 0.348431 -1.62404 0
M  V30 5588 O 517.481 0.240419 -1.89279 0
M  V30 5589 C 514.621 -0.0264291 -3.4509 0
M  V30 5590 C 513.734 -1.07154 -4.185 0
M  V30 5591 C 512.869 -0.417403 -5.29558 0
M  V30 5592 C 511.908 -1.447 -5.94751 0
M  V30 5593 N 511.045 -0.817203 -6.97328 0
M  V30 5594 H 515.885 -1.53891 -2.55189 0
M  V30 5595 H 513.422 -0.769699 -1.25356 0
M  V30 5596 H 515.38 0.351456 -4.15717 0
M  V30 5597 H 514.01 0.827802 -3.12005 0
M  V30 5598 H 513.062 -1.56728 -3.46613 0
M  V30 5599 H 514.374 -1.8532 -4.63096 0
M  V30 5600 H 513.528 0.0142061 -6.06698 0
M  V30 5601 H 512.267 0.396265 -4.86087 0
M  V30 5602 H 511.272 -1.88865 -5.16343 0
M  V30 5603 H 512.497 -2.26252 -6.40302 0
M  V30 5604 H 510.443 -0.0239995 -6.55996 0
M  V30 5605 H 510.36 -1.53644 -7.40223 0
M  V30 5606 H 511.628 -0.410283 -7.7842 0
M  V30 5607 N 515.857 1.33968 -0.830081 0
M  V30 5608 C 516.787 2.31911 -0.271911 0
M  V30 5609 C 517.768 1.58571 0.61556 0
M  V30 5610 O 518.953 1.86514 0.540946 0
M  V30 5611 C 516.083 3.42737 0.561146 0
M  V30 5612 C 515.037 4.27383 -0.229789 0
M  V30 5613 C 514.363 5.29742 0.726463 0
M  V30 5614 C 515.663 5.02 -1.44197 0
M  V30 5615 H 517.357 2.78844 -1.09025 0
M  V30 5616 H 514.903 1.34061 -0.52571 0
M  V30 5617 H 516.856 4.10276 0.961867 0
M  V30 5618 H 515.58 2.94471 1.41261 0
M  V30 5619 H 514.239 3.61456 -0.611964 0
M  V30 5620 H 513.887 4.77736 1.57408 0
M  V30 5621 H 513.587 5.87255 0.20142 0
M  V30 5622 H 515.111 6.00149 1.12489 0
M  V30 5623 H 516.525 5.62355 -1.11488 0
M  V30 5624 H 514.922 5.69122 -1.90317 0
M  V30 5625 H 515.992 4.31281 -2.2164 0
M  V30 5626 N 517.335 0.585699 1.46312 0
M  V30 5627 C 518.583 0.072278 2.01971 0
M  V30 5628 C 518.904 -1.29345 1.45928 0
M  V30 5629 O 518.174 -1.84973 0.645109 0
M  V30 5630 H 516.754 0.023729 0.746623 0
M  V30 5631 H 519.416 0.762155 1.7938 0
M  V30 5632 H 518.512 0.00552767 3.121 0
M  V30 5633 N 518.813 -1.54241 0.323641 0
M  V30 5634 C 520.038 -2.05452 -0.283605 0
M  V30 5635 C 520.463 -1.19823 -1.44997 0
M  V30 5636 O 519.821 -0.207358 -1.8011 0
M  V30 5637 C 519.869 -3.53823 -0.695795 0
M  V30 5638 O 518.973 -3.71134 -1.79815 0
M  V30 5639 H 518.314 -0.662024 -0.0511917 0
M  V30 5640 H 520.844 -1.99079 0.472073 0
M  V30 5641 H 520.854 -3.96094 -0.978434 0
M  V30 5642 H 519.529 -4.15602 0.157287 0
M  V30 5643 H 518.106 -3.40768 -1.51431 0
M  V30 5644 N 520.291 -0.0518155 -1.57515 0
M  V30 5645 C 521.516 0.634896 -1.97443 0
M  V30 5646 C 521.941 1.63546 -0.929207 0
M  V30 5647 O 521.299 1.80981 0.107484 0
M  V30 5648 C 521.347 1.29765 -3.36442 0
M  V30 5649 O 520.451 2.41333 -3.34413 0
M  V30 5650 H 519.792 0.164994 -0.643174 0
M  V30 5651 H 522.322 -0.120407 -2.04245 0
M  V30 5652 H 522.332 1.64918 -3.73184 0
M  V30 5653 H 521.007 0.564361 -4.12053 0
M  V30 5654 H 519.584 2.08122 -3.09418 0
M  V30 5655 N 521.769 1.56035 0.221574 0
M  V30 5656 C 522.699 1.95434 1.2778 0
M  V30 5657 C 523.68 0.822564 1.48889 0
M  V30 5658 O 524.865 1.08486 1.61072 0
M  V30 5659 C 521.995 2.27102 2.62759 0
M  V30 5660 C 520.949 3.4277 2.56306 0
M  V30 5661 C 520.275 3.60043 3.95314 0
M  V30 5662 C 521.575 4.77742 2.11093 0
M  V30 5663 H 523.269 2.83912 0.950504 0
M  V30 5664 H 520.815 1.36596 0.455791 0
M  V30 5665 H 522.768 2.53256 3.36807 0
M  V30 5666 H 521.492 1.35478 2.97176 0
M  V30 5667 H 520.151 3.16664 1.84715 0
M  V30 5668 H 519.799 2.65794 4.27039 0
M  V30 5669 H 519.499 4.37841 3.91879 0
M  V30 5670 H 521.023 3.88545 4.71025 0
M  V30 5671 H 522.437 5.03102 2.74885 0
M  V30 5672 H 520.834 5.58823 2.18716 0
M  V30 5673 H 521.904 4.731 1.06321 0
M  V30 5674 N 523.247 -0.488276 1.49845 0
M  V30 5675 C 524.21 -1.57069 1.66919 0
M  V30 5676 C 525.21 -1.51445 0.540479 0
M  V30 5677 O 526.4 -1.5437 0.807188 0
M  V30 5678 C 523.532 -2.96718 1.67844 0
M  V30 5679 H 524.725 -1.43254 2.63474 0
M  V30 5680 H 522.278 -0.713435 1.39068 0
M  V30 5681 H 523.013 -3.15996 0.7292 0
M  V30 5682 H 522.798 -3.02208 2.49826 0
M  V30 5683 H 524.288 -3.75335 1.83066 0
M  V30 5684 N 524.725 -1.39134 -0.740242 0
M  V30 5685 C 526.141 -1.20623 -1.0451 0
M  V30 5686 C 526.341 -0.0641651 -2.01398 0
M  V30 5687 O 525.397 0.585843 -2.4561 0
M  V30 5688 C 526.71 -2.53815 -1.6124 0
M  V30 5689 C 528.258 -2.60615 -1.73346 0
M  V30 5690 C 528.733 -3.94015 -2.33486 0
M  V30 5691 N 530.224 -3.95627 -2.40902 0
M  V30 5692 C 530.959 -4.95616 -2.88361 0
M  V30 5693 N 530.455 -6.06003 -3.35756 0
M  V30 5694 N 532.248 -4.82998 -2.87523 0
M  V30 5695 H 524.399 -2.12176 -0.0975576 0
M  V30 5696 H 526.662 -0.942066 -0.105904 0
M  V30 5697 H 526.368 -3.37911 -0.975144 0
M  V30 5698 H 526.242 -2.73162 -2.6012 0
M  V30 5699 H 528.629 -1.76906 -2.36195 0
M  V30 5700 H 528.71 -2.45123 -0.731336 0
M  V30 5701 H 528.354 -4.78153 -1.71267 0
M  V30 5702 H 528.284 -4.06825 -3.34366 0
M  V30 5703 H 530.775 -3.15903 -2.07398 0
M  V30 5704 H 531.088 -6.78215 -3.70464 0
M  V30 5705 H 529.433 -6.09604 -3.33778 0
M  V30 5706 H 532.624 -3.95866 -2.49816 0
M  V30 5707 H 532.797 -5.61072 -3.24196 0
M  V30 5708 N 526.204 0.969867 -1.24223 0
M  V30 5709 C 527.452 1.70918 -1.0785 0
M  V30 5710 C 527.773 1.91186 0.383763 0
M  V30 5711 O 527.043 1.48806 1.27411 0
M  V30 5712 H 525.623 0.633334 -0.396103 0
M  V30 5713 H 528.285 1.16689 -1.56108 0
M  V30 5714 H 527.381 2.69455 -1.57482 0
M  V30 5715 N 527.682 1.05563 1.17022 0
M  V30 5716 C 528.931 0.763036 1.8671 0
M  V30 5717 C 529.244 -0.712857 1.82147 0
M  V30 5718 O 530.45 -1.11955 2.47343 0
M  V30 5719 C 528.906 1.31474 3.35026 0
M  V30 5720 C 528.514 2.82034 3.48081 0
M  V30 5721 C 530.258 1.09935 4.10018 0
M  V30 5722 C 528.165 3.30486 4.90442 0
M  V30 5723 H 527.095 0.281747 0.699382 0
M  V30 5724 H 529.746 1.2734 1.32124 0
M  V30 5725 H 528.128 0.732171 3.89173 0
M  V30 5726 H 529.302 3.46178 3.04133 0
M  V30 5727 H 527.617 3.02156 2.86515 0
M  V30 5728 H 530.214 1.43632 5.15048 0
M  V30 5729 H 530.557 0.0373072 4.16283 0
M  V30 5730 H 531.09 1.64732 3.62089 0
M  V30 5731 H 527.829 4.36137 4.89352 0
M  V30 5732 H 527.349 2.71086 5.35044 0
M  V30 5733 H 529.028 3.25382 5.59227 0
M  V30 5734 N 529.16 -1.33526 0.837174 0
M  V30 5735 C 530.123 -2.27551 0.274421 0
M  V30 5736 C 531.123 -1.50886 -0.555881 0
M  V30 5737 O 532.313 -1.70227 -0.369918 0
M  V30 5738 C 529.445 -3.35332 -0.613605 0
M  V30 5739 H 530.638 -2.78837 1.10408 0
M  V30 5740 H 528.191 -1.439 0.610126 0
M  V30 5741 H 528.926 -2.89285 -1.46577 0
M  V30 5742 H 528.711 -3.92095 -0.0195341 0
M  V30 5743 H 530.201 -4.05433 -1.00068 0
M  V30 5744 N 530.638 -0.59345 -1.46 0
M  V30 5745 C 531.588 0.154751 -2.27474 0
M  V30 5746 C 532.572 0.851849 -1.365 0
M  V30 5747 O 533.764 0.744171 -1.60596 0
M  V30 5748 C 530.893 1.16079 -3.2308 0
M  V30 5749 C 529.979 0.465256 -4.2154 0
M  V30 5750 N 530.37 -0.485197 -5.03467 0
M  V30 5751 C 528.668 0.714634 -4.40237 0
M  V30 5752 C 529.369 -0.892709 -5.74809 0
M  V30 5753 N 528.345 -0.239511 -5.43072 0
M  V30 5754 H 532.147 -0.57546 -2.88211 0
M  V30 5755 H 529.661 -0.416046 -1.5698 0
M  V30 5756 H 531.658 1.71108 -3.80168 0
M  V30 5757 H 530.318 1.89171 -2.63903 0
M  V30 5758 H 531.329 -0.861258 -5.10689 0
M  V30 5759 H 528.006 1.43131 -3.92199 0
M  V30 5760 H 529.396 -1.67581 -6.50666 0
M  V30 5761 N 532.116 1.54067 -0.331816 0
M  V30 5762 C 533.046 2.27569 0.522932 0
M  V30 5763 C 534.027 1.28679 1.11247 0
M  V30 5764 O 535.212 1.57504 1.13605 0
M  V30 5765 C 532.342 3.0397 1.67987 0
M  V30 5766 C 531.296 4.10267 1.21924 0
M  V30 5767 C 530.622 4.74555 2.46377 0
M  V30 5768 C 531.922 5.21268 0.32815 0
M  V30 5769 H 533.616 2.99264 -0.0901977 0
M  V30 5770 H 531.162 1.4393 -0.044821 0
M  V30 5771 H 533.115 3.54123 2.28418 0
M  V30 5772 H 531.839 2.29906 2.31971 0
M  V30 5773 H 530.498 3.61009 0.637809 0
M  V30 5774 H 530.146 3.97098 3.08743 0
M  V30 5775 H 529.846 5.46363 2.16243 0
M  V30 5776 H 531.37 5.27487 3.07555 0
M  V30 5777 H 532.784 5.67128 0.838978 0
M  V30 5778 H 531.181 5.99982 0.119228 0
M  V30 5779 H 532.251 4.80673 -0.638839 0
M  V30 5780 N 533.594 0.0601682 1.57485 0
M  V30 5781 C 534.544 -0.920969 2.08572 0
M  V30 5782 C 535.528 -1.26617 0.992827 0
M  V30 5783 O 536.72 -1.24708 1.25606 0
M  V30 5784 C 533.849 -2.19267 2.64153 0
M  V30 5785 C 532.935 -1.87447 3.80427 0
M  V30 5786 N 533.326 -1.26025 4.89848 0
M  V30 5787 C 531.624 -2.17265 3.89502 0
M  V30 5788 C 532.325 -1.12036 5.70809 0
M  V30 5789 N 531.301 -1.62624 5.18705 0
M  V30 5790 H 535.103 -0.441561 2.90564 0
M  V30 5791 H 532.617 -0.144043 1.6176 0
M  V30 5792 H 534.614 -2.90462 2.99061 0
M  V30 5793 H 533.274 -2.67806 1.83603 0
M  V30 5794 H 534.285 -0.931336 5.09457 0
M  V30 5795 H 530.962 -2.68262 3.19909 0
M  V30 5796 H 532.352 -0.642783 6.68818 0
M  V30 5797 N 535.072 -1.5615 -0.213296 0
M  V30 5798 C 536.297 -1.83986 -0.957282 0
M  V30 5799 C 536.722 -0.641526 -1.76822 0
M  V30 5800 O 536.08 0.409722 -1.7661 0
M  V30 5801 C 536.128 -3.09889 -1.84393 0
M  V30 5802 O 535.232 -2.89163 -2.94038 0
M  V30 5803 H 534.573 -0.606357 -0.270605 0
M  V30 5804 H 537.103 -2.03369 -0.224111 0
M  V30 5805 H 537.113 -3.40209 -2.25215 0
M  V30 5806 H 535.788 -3.96735 -1.24795 0
M  V30 5807 H 534.365 -2.70097 -2.57103 0
M  V30 5808 N 536.55 0.480323 -1.50102 0
M  V30 5809 C 537.827 1.24159 -1.51142 0
M  V30 5810 C 538.207 2.09605 -0.250818 0
M  V30 5811 O 537.555 2.15274 0.766118 0
M  V30 5812 C 537.765 2.08057 -2.80202 0
M  V30 5813 C 539.113 2.66556 -3.30504 0
M  V30 5814 O 540.137 2.18308 -2.81461 0
M  V30 5815 O 538.996 3.54442 -4.15973 0
M  V30 5816 H 536.09 0.562928 -0.605839 0
M  V30 5817 H 538.636 0.492899 -1.62384 0
M  V30 5818 H 537.408 1.45032 -3.6343 0
M  V30 5819 H 537.031 2.90079 -2.71919 0
M  V30 5820 N 538.028 1.39524 0.732853 0
M  V30 5821 C 538.978 1.34905 1.83806 0
M  V30 5822 C 539.962 0.229546 1.59254 0
M  V30 5823 O 541.154 0.467255 1.70721 0
M  V30 5824 C 538.283 1.19699 3.21756 0
M  V30 5825 C 537.369 2.36359 3.5213 0
M  V30 5826 N 537.76 3.61834 3.53426 0
M  V30 5827 C 536.058 2.29363 3.82503 0
M  V30 5828 C 536.759 4.38992 3.81655 0
M  V30 5829 N 535.735 3.68606 3.99538 0
M  V30 5830 H 539.537 2.29882 1.83116 0
M  V30 5831 H 537.051 1.33051 0.931194 0
M  V30 5832 H 539.048 1.14472 4.00876 0
M  V30 5833 H 537.708 0.256739 3.23683 0
M  V30 5834 H 538.719 3.95228 3.34686 0
M  V30 5835 H 535.396 1.43612 3.92023 0
M  V30 5836 H 536.786 5.47763 3.89108 0
M  V30 5837 N 539.506 -0.963266 1.24736 0
M  V30 5838 C 540.734 -1.74166 1.11686 0
M  V30 5839 C 541.149 -1.8589 -0.330187 0
M  V30 5840 O 540.506 -1.35042 -1.2276 0
M  V30 5841 C 540.557 -3.15989 1.75595 0
M  V30 5842 O 540.278 -3.04847 3.14642 0
M  V30 5843 C 541.779 -4.10145 1.68213 0
M  V30 5844 H 538.999 -0.546031 0.389989 0
M  V30 5845 H 541.543 -1.20907 1.64929 0
M  V30 5846 H 539.698 -3.66219 1.26343 0
M  V30 5847 H 540.112 -3.9425 3.4593 0
M  V30 5848 H 541.586 -5.07299 2.17604 0
M  V30 5849 H 542.063 -4.3445 0.644208 0
M  V30 5850 H 542.669 -3.65827 2.16912 0
M  V30 5851 N 540.985 -1.06182 -1.16461 0
M  V30 5852 C 542.396 -0.802426 -1.68576 0
M  V30 5853 C 542.747 0.67412 -1.84255 0
M  V30 5854 O 541.872 1.52303 -1.5373 0
M  V30 5855 C 542.467 -1.45002 -3.06202 0
M  V30 5856 C 541.026 -1.23843 -3.55443 0
M  V30 5857 C 540.173 -1.52724 -2.31454 0
M  V30 5858 H 543.124 -1.22545 -1.00839 0
M  V30 5859 H 543.145 -0.864731 -3.70544 0
M  V30 5860 H 542.657 -2.52466 -2.94759 0
M  V30 5861 H 540.758 -0.183487 -3.72148 0
M  V30 5862 H 540.871 -1.95036 -4.37604 0
M  V30 5863 H 539.235 -0.947726 -2.36411 0
M  V30 5864 H 540.018 -2.61343 -2.22609 0
M  V30 5865 N 542.463 1.3308 -0.844243 0
M  V30 5866 C 543.703 1.99414 -0.448697 0
M  V30 5867 C 544.067 1.65398 0.975058 0
M  V30 5868 O 545.268 2.24741 1.47461 0
M  V30 5869 C 543.539 3.51081 -0.669089 0
M  V30 5870 S 545.098 4.37241 -0.369564 0
M  V30 5871 H 541.916 0.690736 -0.168538 0
M  V30 5872 H 544.518 1.61977 -1.0947 0
M  V30 5873 H 543.222 3.73326 -1.70457 0
M  V30 5874 H 542.753 3.93399 -0.00913211 0
M  V30 5875 H 544.768 4.89568 0.808552 0
M  V30 5876 N 543.941 0.601185 1.45683 0
M  V30 5877 C 545.189 0.0936957 2.01883 0
M  V30 5878 C 545.51 -1.2779 1.47291 0
M  V30 5879 O 544.78 -1.84279 0.664691 0
M  V30 5880 H 543.36 0.0316466 0.746329 0
M  V30 5881 H 546.022 0.781137 1.78562 0
M  V30 5882 H 545.118 0.0386297 3.12076 0
M  V30 5883 N 545.419 -1.53889 0.339982 0
M  V30 5884 C 546.835 -1.59595 -0.0120752 0
M  V30 5885 C 547.035 -1.35605 -1.49042 0
M  V30 5886 O 546.091 -1.14856 -2.24865 0
M  V30 5887 C 547.404 -2.9774 0.420898 0
M  V30 5888 C 548.952 -3.1077 0.37294 0
M  V30 5889 C 549.427 -4.51286 0.781327 0
M  V30 5890 N 550.918 -4.57325 0.735374 0
M  V30 5891 C 551.653 -5.64194 1.02336 0
M  V30 5892 N 551.149 -6.7893 1.37933 0
M  V30 5893 N 552.942 -5.54051 0.947838 0
M  V30 5894 H 545.093 -1.67738 1.30299 0
M  V30 5895 H 547.356 -0.785385 0.530918 0
M  V30 5896 H 547.062 -3.20349 1.45152 0
M  V30 5897 H 546.936 -3.76639 -0.205721 0
M  V30 5898 H 549.323 -2.87886 -0.648505 0
M  V30 5899 H 549.404 -2.33939 1.03472 0
M  V30 5900 H 549.048 -4.74905 1.80077 0
M  V30 5901 H 548.978 -5.26511 0.0970679 0
M  V30 5902 H 551.469 -3.74931 0.472773 0
M  V30 5903 H 551.782 -7.56392 1.58402 0
M  V30 5904 H 550.127 -6.80386 1.41774 0
M  V30 5905 H 553.318 -4.63293 0.669115 0
M  V30 5906 H 553.491 -6.37246 1.17563 0
M  V30 5907 N 546.897 -0.0685191 -1.57451 0
M  V30 5908 C 548.308 0.464634 -1.80826 0
M  V30 5909 C 548.659 1.69847 -0.982169 0
M  V30 5910 O 547.784 2.15439 -0.203734 0
M  V30 5911 C 548.379 0.849721 -3.27971 0
M  V30 5912 C 546.938 1.32776 -3.52204 0
M  V30 5913 C 546.085 0.311332 -2.75547 0
M  V30 5914 H 549.036 -0.294248 -1.55948 0
M  V30 5915 H 549.057 1.71138 -3.39841 0
M  V30 5916 H 548.569 -0.0484736 -3.8807 0
M  V30 5917 H 546.67 2.24456 -2.97406 0
M  V30 5918 H 546.783 1.30794 -4.60901 0
M  V30 5919 H 545.147 0.787915 -2.42206 0
M  V30 5920 H 545.93 -0.579078 -3.38381 0
M  V30 5921 N 548.375 1.56261 0.205012 0
M  V30 5922 C 549.322 1.93754 1.25411 0
M  V30 5923 C 550.292 0.796826 1.45739 0
M  V30 5924 O 551.477 1.05414 1.59036 0
M  V30 5925 C 548.617 2.27383 2.59598 0
M  V30 5926 C 547.73 3.5447 2.46931 0
M  V30 5927 C 546.865 3.77468 3.73753 0
M  V30 5928 C 545.904 4.98014 3.55877 0
M  V30 5929 N 545.041 5.17316 4.74688 0
M  V30 5930 H 549.881 2.83203 0.92737 0
M  V30 5931 H 547.418 1.40158 0.446574 0
M  V30 5932 H 549.376 2.44895 3.37761 0
M  V30 5933 H 548.006 1.41088 2.90335 0
M  V30 5934 H 547.058 3.45061 1.60116 0
M  V30 5935 H 548.37 4.42789 2.29651 0
M  V30 5936 H 547.524 3.95165 4.60358 0
M  V30 5937 H 546.263 2.87461 3.93976 0
M  V30 5938 H 545.268 4.80249 2.67657 0
M  V30 5939 H 546.493 5.8952 3.37109 0
M  V30 5940 H 544.439 4.30255 4.95194 0
M  V30 5941 H 544.356 5.99796 4.60197 0
M  V30 5942 H 545.624 5.39463 5.62672 0
M  V30 5943 N 549.853 -0.472356 1.50355 0
M  V30 5944 C 550.786 -1.58923 1.63764 0
M  V30 5945 C 551.764 -1.55173 0.485793 0
M  V30 5946 O 552.948 -1.74815 0.705132 0
M  V30 5947 C 550.075 -2.97497 1.61905 0
M  V30 5948 C 549.121 -3.19405 2.82635 0
M  V30 5949 S 549.954 -2.99441 4.43954 0
M  V30 5950 C 551.11 -4.40359 4.44786 0
M  V30 5951 H 551.343 -1.47309 2.58239 0
M  V30 5952 H 548.876 -0.659601 1.39602 0
M  V30 5953 H 550.834 -3.77389 1.61518 0
M  V30 5954 H 549.495 -3.06502 0.686683 0
M  V30 5955 H 548.688 -4.20636 2.77636 0
M  V30 5956 H 548.29 -2.47283 2.80583 0
M  V30 5957 H 550.582 -5.32969 4.1827 0
M  V30 5958 H 551.525 -4.50403 5.46391 0
M  V30 5959 H 551.933 -4.22378 3.74509 0
M  V30 5960 N 551.331 -1.39911 -0.725443 0
M  V30 5961 C 552.742 -1.33599 -1.30415 0
M  V30 5962 C 553.093 -0.00481792 -1.96199 0
M  V30 5963 O 552.218 0.897275 -1.96921 0
M  V30 5964 C 552.813 -2.41965 -2.37146 0
M  V30 5965 C 551.372 -2.39144 -2.90667 0
M  V30 5966 C 550.519 -2.23355 -1.64341 0
M  V30 5967 H 553.47 -1.4986 -0.522267 0
M  V30 5968 H 553.491 -2.09304 -3.17761 0
M  V30 5969 H 553.003 -3.38837 -1.89238 0
M  V30 5970 H 551.104 -1.4594 -3.4283 0
M  V30 5971 H 551.217 -3.34362 -3.43131 0
M  V30 5972 H 549.581 -1.70696 -1.89037 0
M  V30 5973 H 550.364 -3.2221 -1.18471 0
M  V30 5974 N 552.809 0.956637 -1.25245 0
M  V30 5975 C 554.058 1.69537 -1.0927 0
M  V30 5976 C 554.371 1.92136 0.366503 0
M  V30 5977 O 555.577 2.63687 0.64665 0
M  V30 5978 C 554.033 3.05211 -1.9072 0
M  V30 5979 C 553.641 2.90416 -3.41119 0
M  V30 5980 C 555.385 3.82882 -1.83308 0
M  V30 5981 C 553.292 4.21468 -4.14872 0
M  V30 5982 H 552.222 0.635804 -0.405302 0
M  V30 5983 H 554.873 1.06513 -1.49423 0
M  V30 5984 H 553.255 3.69128 -1.43389 0
M  V30 5985 H 554.429 2.35444 -3.9611 0
M  V30 5986 H 552.744 2.26203 -3.49602 0
M  V30 5987 H 555.341 4.79944 -2.35706 0
M  V30 5988 H 555.684 4.0853 -0.800572 0
M  V30 5989 H 556.217 3.25711 -2.28379 0
M  V30 5990 H 552.956 4.01009 -5.18529 0
M  V30 5991 H 552.476 4.76213 -3.64665 0
M  V30 5992 H 554.155 4.90022 -4.22478 0
M  V30 5993 N 554.287 1.06798 1.15896 0
M  V30 5994 C 555.533 0.788934 1.86825 0
M  V30 5995 C 555.866 -0.683084 1.8179 0
M  V30 5996 O 555.141 -1.50086 1.23711 0
M  V30 5997 C 555.424 1.29065 3.36176 0
M  V30 5998 C 555.277 2.8268 3.49874 0
M  V30 5999 C 556.596 0.902655 4.30744 0
M  V30 6000 H 553.715 0.288066 0.678371 0
M  V30 6001 H 556.357 1.32479 1.36195 0
M  V30 6002 H 554.507 0.834806 3.79425 0
M  V30 6003 H 556.179 3.36511 3.15528 0
M  V30 6004 H 554.422 3.21157 2.91617 0
M  V30 6005 H 555.093 3.12852 4.54783 0
M  V30 6006 H 557.569 1.29535 3.95424 0
M  V30 6007 H 556.445 1.28111 5.3374 0
M  V30 6008 H 556.706 -0.191951 4.41683 0
M  V30 6009 N 555.766 -1.3263 0.851289 0
M  V30 6010 C 556.716 -2.26451 0.265302 0
M  V30 6011 C 557.7 -1.49814 -0.586899 0
M  V30 6012 O 558.892 -1.71525 -0.436834 0
M  V30 6013 C 556.021 -3.38895 -0.548212 0
M  V30 6014 C 555.107 -4.2292 0.316189 0
M  V30 6015 N 555.498 -4.86014 1.40084 0
M  V30 6016 C 553.796 -4.45876 0.105356 0
M  V30 6017 C 554.497 -5.48667 1.93235 0
M  V30 6018 N 553.473 -5.29455 1.232 0
M  V30 6019 H 557.275 -2.72757 1.09457 0
M  V30 6020 H 554.789 -1.4668 0.697047 0
M  V30 6021 H 556.786 -4.05111 -0.984402 0
M  V30 6022 H 555.446 -2.94135 -1.37531 0
M  V30 6023 H 556.457 -4.86212 1.78377 0
M  V30 6024 H 553.134 -4.11804 -0.687299 0
M  V30 6025 H 554.524 -6.08865 2.84135 0
M  V30 6026 N 557.244 -0.608902 -1.45362 0
M  V30 6027 C 558.66 -0.272659 -1.57254 0
M  V30 6028 C 558.86 1.22477 -1.60005 0
M  V30 6029 O 557.916 2.00785 -1.53106 0
M  V30 6030 C 559.229 -0.944991 -2.85465 0
M  V30 6031 C 560.777 -0.921033 -2.99142 0
M  V30 6032 C 561.252 -1.5734 -4.30126 0
M  V30 6033 N 562.743 -1.53895 -4.36887 0
M  V30 6034 C 563.478 -2.01286 -5.36909 0
M  V30 6035 N 562.974 -2.56768 -6.43461 0
M  V30 6036 N 564.767 -1.92046 -5.28275 0
M  V30 6037 H 556.918 -1.58117 -1.4182 0
M  V30 6038 H 559.181 -0.662437 -0.678146 0
M  V30 6039 H 558.887 -1.99941 -2.89338 0
M  V30 6040 H 558.761 -0.469079 -3.74272 0
M  V30 6041 H 561.148 0.124846 -2.94836 0
M  V30 6042 H 561.229 -1.43522 -2.11743 0
M  V30 6043 H 560.873 -2.61862 -4.35191 0
M  V30 6044 H 560.803 -1.03422 -5.16344 0
M  V30 6045 H 563.294 -1.13366 -3.60495 0
M  V30 6046 H 563.607 -2.9072 -7.16032 0
M  V30 6047 H 561.952 -2.60808 -6.44208 0
M  V30 6048 H 565.143 -1.48439 -4.43941 0
M  V30 6049 H 565.316 -2.29293 -6.06077 0
M  V30 6050 N 558.722 1.53707 -0.348139 0
M  V30 6051 C 559.999 1.93247 0.302475 0
M  V30 6052 C 560.379 1.28012 1.67857 0
M  V30 6053 O 559.727 0.43274 2.24365 0
M  V30 6054 C 559.937 3.47031 0.370159 0
M  V30 6055 C 561.285 4.20066 0.61882 0
M  V30 6056 O 562.309 3.53319 0.452087 0
M  V30 6057 O 561.168 5.38318 0.94215 0
M  V30 6058 H 558.262 0.807736 0.177458 0
M  V30 6059 H 560.808 1.64927 -0.399651 0
M  V30 6060 H 559.58 3.86745 -0.59534 0
M  V30 6061 H 559.203 3.81532 1.11888 0
M  V30 6062 N 560.2 0.0768682 1.57412 0
M  V30 6063 C 561.13 -0.886026 2.16037 0
M  V30 6064 C 562.111 -1.30691 1.08876 0
M  V30 6065 O 563.296 -1.37705 1.36934 0
M  V30 6066 C 560.426 -2.1518 2.72608 0
M  V30 6067 C 559.38 -1.87015 3.8498 0
M  V30 6068 C 558.706 -3.20266 4.28175 0
M  V30 6069 C 560.006 -1.17143 5.08994 0
M  V30 6070 H 561.7 -0.397642 2.96748 0
M  V30 6071 H 559.246 -0.189823 1.42743 0
M  V30 6072 H 561.199 -2.82962 3.12266 0
M  V30 6073 H 559.923 -2.66269 1.89125 0
M  V30 6074 H 558.582 -1.21636 3.45833 0
M  V30 6075 H 558.23 -3.69207 3.41607 0
M  V30 6076 H 557.93 -3.0221 5.03927 0
M  V30 6077 H 559.454 -3.89237 4.70454 0
M  V30 6078 H 560.868 -1.75003 5.45937 0
M  V30 6079 H 559.265 -1.09328 5.90057 0
M  V30 6080 H 560.335 -0.151295 4.84664 0
M  V30 6081 N 561.678 -1.56367 -0.196722 0
M  V30 6082 C 562.625 -1.94417 -1.24382 0
M  V30 6083 C 563.595 -0.804543 -1.45315 0
M  V30 6084 O 564.78 -1.06256 -1.58475 0
M  V30 6085 C 561.92 -2.28757 -2.58388 0
M  V30 6086 C 561.033 -3.55775 -2.45047 0
M  V30 6087 C 560.168 -3.79445 -3.71746 0
M  V30 6088 C 559.207 -4.99894 -3.53231 0
M  V30 6089 N 558.344 -5.19826 -4.71938 0
M  V30 6090 H 563.184 -2.83691 -0.912338 0
M  V30 6091 H 560.721 -1.40392 -0.439135 0
M  V30 6092 H 562.679 -2.46682 -3.36457 0
M  V30 6093 H 561.309 -1.42625 -2.89582 0
M  V30 6094 H 560.361 -3.45905 -1.58284 0
M  V30 6095 H 561.673 -4.44 -2.27299 0
M  V30 6096 H 560.827 -3.97601 -4.58256 0
M  V30 6097 H 559.566 -2.89546 -3.92446 0
M  V30 6098 H 558.571 -4.81662 -2.65107 0
M  V30 6099 H 559.796 -5.913 -3.33978 0
M  V30 6100 H 557.742 -4.32875 -4.92905 0
M  V30 6101 H 557.659 -6.02228 -4.57009 0
M  V30 6102 H 558.927 -5.42439 -5.59803 0
M  V30 6103 N 563.156 0.464375 -1.50603 0
M  V30 6104 C 564.381 1.24372 -1.65971 0
M  V30 6105 C 564.806 1.84901 -0.345453 0
M  V30 6106 O 564.164 1.67596 0.691457 0
M  V30 6107 C 564.212 2.32331 -2.7578 0
M  V30 6108 O 563.316 3.37146 -2.375 0
M  V30 6109 H 562.657 0.365604 -0.554283 0
M  V30 6110 H 565.187 0.55183 -1.97018 0
M  V30 6111 H 565.197 2.77539 -2.99059 0
M  V30 6112 H 563.872 1.87648 -3.71162 0
M  V30 6113 H 562.449 2.97602 -2.24694 0
M  V30 6114 N 564.634 1.40294 0.718013 0
M  V30 6115 C 565.859 1.41941 1.5122 0
M  V30 6116 C 566.284 0.0202371 1.88089 0
M  V30 6117 O 565.642 -0.971078 1.53101 0
M  V30 6118 C 565.69 2.3141 2.76554 0
M  V30 6119 O 564.794 1.75567 3.73162 0
M  V30 6120 H 564.135 0.482644 0.456016 0
M  V30 6121 H 566.665 1.84494 0.884478 0
M  V30 6122 H 566.675 2.46513 3.25108 0
M  V30 6123 H 565.35 3.33085 2.49053 0
M  V30 6124 H 563.927 1.69798 3.31999 0
M  V30 6125 N 566.112 -0.949982 1.2575 0
M  V30 6126 C 567.06 -2.06869 1.06339 0
M  V30 6127 C 568.054 -1.69399 -0.00708901 0
M  V30 6128 O 569.26 -1.79383 0.148897 0
M  V30 6129 H 565.635 -0.677197 0.326969 0
M  V30 6130 H 567.606 -2.20396 2.01167 0
M  V30 6131 C 566.355 -3.40503 0.703769 0
M  V30 6132 H 565.678 -3.69807 1.51931 0
M  V30 6133 H 567.118 -4.19623 0.607677 0
M  V30 6134 C 565.577 -3.31685 -0.5905 0
M  V30 6135 O 566.107 -3.67085 -1.63131 0
M  V30 6136 N 564.313 -2.84797 -0.577859 0
M  V30 6137 H 563.86 -2.56186 0.26951 0
M  V30 6138 H 563.818 -2.79279 -1.44398 0
M  V30 6139 N 567.59 -1.07411 -1.15328 0
M  V30 6140 C 568.839 -0.792643 -1.85473 0
M  V30 6141 C 569.152 0.683789 -1.83259 0
M  V30 6142 O 570.358 1.08005 -2.49093 0
M  V30 6143 C 568.814 -1.36787 -3.32892 0
M  V30 6144 C 568.422 -2.87536 -3.43551 0
M  V30 6145 C 570.166 -1.16444 -4.08217 0
M  V30 6146 C 568.073 -3.38247 -4.85122 0
M  V30 6147 H 567.003 -0.292838 -0.694811 0
M  V30 6148 H 569.654 -1.29426 -1.30082 0
M  V30 6149 H 568.036 -0.793993 -3.87958 0
M  V30 6150 H 569.21 -3.50973 -2.98588 0
M  V30 6151 H 567.525 -3.06676 -2.81672 0
M  V30 6152 H 570.122 -1.51808 -5.12697 0
M  V30 6153 H 570.465 -0.10353 -4.16171 0
M  V30 6154 H 570.998 -1.70472 -3.59422 0
M  V30 6155 H 567.737 -4.43866 -4.82351 0
M  V30 6156 H 567.257 -2.79564 -5.30664 0
M  V30 6157 H 568.936 -3.34238 -5.5398 0
M  V30 6158 N 569.068 1.32177 -0.85831 0
M  V30 6159 C 569.998 2.31282 -0.321041 0
M  V30 6160 C 570.979 1.59841 0.581786 0
M  V30 6161 O 572.164 1.87619 0.501262 0
M  V30 6162 C 569.294 3.4385 0.48832 0
M  V30 6163 C 568.248 4.26799 -0.320391 0
M  V30 6164 C 567.574 5.31164 0.613934 0
M  V30 6165 C 568.874 4.98829 -1.54813 0
M  V30 6166 H 570.568 2.76469 -1.14915 0
M  V30 6167 H 568.114 1.32916 -0.554028 0
M  V30 6168 H 570.067 4.12224 0.874626 0
M  V30 6169 H 568.791 2.97401 1.34983 0
M  V30 6170 H 567.45 3.60077 -0.688497 0
M  V30 6171 H 567.098 4.80967 1.47239 0
M  V30 6172 H 566.798 5.8755 0.0768097 0
M  V30 6173 H 568.322 6.024 0.997336 0
M  V30 6174 H 569.736 5.59864 -1.23392 0
M  V30 6175 H 568.133 5.64957 -2.02346 0
M  V30 6176 H 569.203 4.26483 -2.30739 0
M  V30 6177 N 570.547 0.616602 1.45037 0
M  V30 6178 C 571.793 0.115501 2.02471 0
M  V30 6179 C 572.126 -1.25406 1.4828 0
M  V30 6180 O 571.401 -1.82922 0.661051 0
M  V30 6181 C 571.684 0.0863588 3.59996 0
M  V30 6182 C 571.537 1.48723 4.24501 0
M  V30 6183 C 572.856 -0.596762 4.36035 0
M  V30 6184 H 569.975 0.0434461 0.735718 0
M  V30 6185 H 572.617 0.7903 1.72784 0
M  V30 6186 H 570.767 -0.488277 3.85419 0
M  V30 6187 H 572.439 2.10964 4.10234 0
M  V30 6188 H 570.682 2.04534 3.82555 0
M  V30 6189 H 571.353 1.419 5.3345 0
M  V30 6190 H 573.829 -0.10824 4.15959 0
M  V30 6191 H 572.705 -0.586289 5.4576 0
M  V30 6192 H 572.966 -1.66451 4.09569 0
M  V30 6193 N 572.025 -1.5352 0.356285 0
M  V30 6194 C 572.972 -2.25439 -0.494569 0
M  V30 6195 C 573.942 -1.25752 -1.08516 0
M  V30 6196 O 575.127 -1.54513 -1.1194 0
M  V30 6197 C 572.267 -3.04011 -1.63313 0
M  V30 6198 C 571.38 -4.18574 -1.06862 0
M  V30 6199 C 570.515 -4.84607 -2.17552 0
M  V30 6200 C 569.554 -5.91218 -1.58518 0
M  V30 6201 N 568.691 -6.50979 -2.63003 0
M  V30 6202 H 573.531 -2.97737 0.125244 0
M  V30 6203 H 571.068 -1.46916 0.0735789 0
M  V30 6204 H 573.026 -3.47834 -2.30363 0
M  V30 6205 H 571.656 -2.33986 -2.22374 0
M  V30 6206 H 570.708 -3.79303 -0.288672 0
M  V30 6207 H 572.02 -4.95215 -0.596924 0
M  V30 6208 H 571.174 -5.31566 -2.92442 0
M  V30 6209 H 569.913 -4.07418 -2.6807 0
M  V30 6210 H 568.918 -5.4363 -0.821391 0
M  V30 6211 H 570.143 -6.70322 -1.08836 0
M  V30 6212 H 568.089 -5.76648 -3.12751 0
M  V30 6213 H 568.006 -7.23131 -2.20493 0
M  V30 6214 H 569.274 -7.02589 -3.37623 0
M  V30 6215 N 573.503 -0.0852151 -1.57369 0
M  V30 6216 C 574.451 0.894856 -2.14698 0
M  V30 6217 C 575.445 1.29903 -1.08727 0
M  V30 6218 O 576.651 1.27471 -1.27088 0
M  V30 6219 H 573.026 0.306569 -0.686673 0
M  V30 6220 H 574.997 0.386542 -2.95886 0
M  V30 6221 C 573.746 2.14798 -2.73417 0
M  V30 6222 H 573.069 1.84585 -3.54638 0
M  V30 6223 H 574.509 2.81456 -3.1711 0
M  V30 6224 C 572.968 2.91546 -1.68828 0
M  V30 6225 O 573.498 3.85733 -1.12129 0
M  V30 6226 N 571.704 2.54901 -1.39549 0
M  V30 6227 H 571.251 1.7838 -1.85845 0
M  V30 6228 H 571.209 3.06553 -0.698054 0
M  V30 6229 N 574.981 1.5647 0.188427 0
M  V30 6230 C 576.258 1.71857 0.934058 0
M  V30 6231 C 576.638 0.641867 2.01105 0
M  V30 6232 O 575.986 -0.346098 2.25864 0
M  V30 6233 C 576.196 3.14431 1.5144 0
M  V30 6234 C 577.544 3.74869 1.99396 0
M  V30 6235 O 578.568 3.17601 1.61269 0
M  V30 6236 O 577.427 4.75387 2.69573 0
M  V30 6237 H 574.521 0.701186 0.438483 0
M  V30 6238 H 577.067 1.68768 0.177599 0
M  V30 6239 H 575.839 3.8427 0.738416 0
M  V30 6240 H 575.462 3.21775 2.33552 0
M  V30 6241 N 576.459 -0.456382 1.50847 0
M  V30 6242 C 577.389 -1.56025 1.73719 0
M  V30 6243 C 578.37 -1.5967 0.586473 0
M  V30 6244 O 579.555 -1.75702 0.827185 0
M  V30 6245 C 576.685 -2.94251 1.84483 0
M  V30 6246 C 575.639 -3.05471 2.99786 0
M  V30 6247 C 574.965 -4.45489 2.95709 0
M  V30 6248 C 576.265 -2.81318 4.40065 0
M  V30 6249 H 577.959 -1.37138 2.66146 0
M  V30 6250 H 575.505 -0.658299 1.28072 0
M  V30 6251 H 577.458 -3.71417 1.99067 0
M  V30 6252 H 576.182 -3.14328 0.886891 0
M  V30 6253 H 574.841 -2.30741 2.84876 0
M  V30 6254 H 574.489 -4.62505 1.97732 0
M  V30 6255 H 574.189 -4.53929 3.73125 0
M  V30 6256 H 575.713 -5.24655 3.12362 0
M  V30 6257 H 577.127 -3.48226 4.55425 0
M  V30 6258 H 575.524 -3.01188 5.19043 0
M  V30 6259 H 576.594 -1.7706 4.51418 0
M  V30 6260 N 577.937 -1.40673 -0.710563 0
M  V30 6261 C 579.165 -1.42547 -1.4996 0
M  V30 6262 C 579.58 -0.0265485 -1.88781 0
M  V30 6263 O 578.937 0.950694 -1.55782 0
M  V30 6264 C 578.988 -2.32071 -2.77173 0
M  V30 6265 O 578.709 -3.66518 -2.39992 0
M  V30 6266 C 580.21 -2.42591 -3.71032 0
M  V30 6267 H 577.43 -0.486025 -0.462623 0
M  V30 6268 H 579.974 -1.84783 -0.876102 0
M  V30 6269 H 578.129 -1.93184 -3.35795 0
M  V30 6270 H 578.543 -4.14115 -3.21884 0
M  V30 6271 H 580.017 -3.09429 -4.57119 0
M  V30 6272 H 580.494 -1.4525 -4.14486 0
M  V30 6273 H 581.1 -2.82051 -3.18319 0
M  V30 6274 N 579.415 0.9433 -1.26252 0
M  V30 6275 C 580.655 1.70397 -1.1289 0
M  V30 6276 C 581.019 1.89268 0.322713 0
M  V30 6277 O 582.22 2.62503 0.578418 0
M  V30 6278 C 580.491 3.04296 -1.87453 0
M  V30 6279 S 582.05 3.95475 -1.90119 0
M  V30 6280 H 578.868 0.585559 -0.403289 0
M  V30 6281 H 581.47 1.12424 -1.59941 0
M  V30 6282 H 580.174 2.8824 -2.9214 0
M  V30 6283 H 579.705 3.67327 -1.40835 0
M  V30 6284 H 581.72 4.86297 -0.986373 0
M  V30 6285 N 580.893 1.08022 1.14757 0
M  V30 6286 C 582.133 0.816959 1.87364 0
M  V30 6287 C 582.497 -0.645407 1.80827 0
M  V30 6288 O 583.698 -1.024 2.48531 0
M  V30 6289 C 581.969 1.31961 3.32146 0
M  V30 6290 S 583.528 1.18806 4.2241 0
M  V30 6291 H 580.346 0.295862 0.646519 0
M  V30 6292 H 582.948 1.3807 1.38408 0
M  V30 6293 H 581.652 2.37847 3.3445 0
M  V30 6294 H 581.183 0.751371 3.86158 0
M  V30 6295 H 583.198 0.129865 4.9603 0
M  V30 6296 N 582.371 -1.3172 0.865308 0
M  V30 6297 C 583.301 -2.31109 0.333302 0
M  V30 6298 C 584.282 -1.60148 -0.573301 0
M  V30 6299 O 585.467 -1.87882 -0.491305 0
M  V30 6300 C 582.597 -3.44104 -0.470078 0
M  V30 6301 C 581.551 -4.26623 0.343021 0
M  V30 6302 C 580.877 -5.31482 -0.585756 0
M  V30 6303 C 582.177 -4.98001 1.57456 0
M  V30 6304 H 583.871 -2.75855 1.1638 0
M  V30 6305 H 581.417 -1.3262 0.561069 0
M  V30 6306 H 583.37 -4.12682 -0.852752 0
M  V30 6307 H 582.094 -2.98112 -1.33404 0
M  V30 6308 H 580.753 -3.59707 0.707583 0
M  V30 6309 H 580.401 -4.81741 -1.44686 0
M  V30 6310 H 580.101 -5.87582 -0.0456494 0
M  V30 6311 H 581.625 -6.0292 -0.965375 0
M  V30 6312 H 583.039 -5.59201 1.26359 0
M  V30 6313 H 581.436 -5.63876 2.05339 0
M  V30 6314 H 582.506 -4.25253 2.32997 0
M  V30 6315 N 583.85 -0.624285 -1.44708 0
M  V30 6316 C 585.09 -0.129273 -2.03991 0
M  V30 6317 C 585.454 1.22321 -1.47992 0
M  V30 6318 O 586.654 1.80993 -1.98734 0
M  V30 6319 C 584.926 -0.108231 -3.57236 0
M  V30 6320 S 586.485 0.323158 -4.37608 0
M  V30 6321 H 583.303 -0.0577318 -0.708652 0
M  V30 6322 H 585.904 -0.826139 -1.77187 0
M  V30 6323 H 584.609 -1.0958 -3.955 0
M  V30 6324 H 584.139 0.610101 -3.8864 0
M  V30 6325 H 586.154 1.56894 -4.70743 0
M  V30 6326 N 585.328 1.53329 -0.364422 0
M  V30 6327 C 586.605 1.93557 0.281962 0
M  V30 6328 C 586.985 1.29786 1.6649 0
M  V30 6329 O 586.333 0.456512 2.23893 0
M  V30 6330 C 586.543 3.47405 0.333331 0
M  V30 6331 C 587.891 4.20699 0.574231 0
M  V30 6332 O 588.915 3.53779 0.414588 0
M  V30 6333 O 587.774 5.39287 0.885002 0
M  V30 6334 H 584.868 0.809573 0.168881 0
M  V30 6335 H 587.414 1.64494 -0.417121 0
M  V30 6336 H 586.186 3.86091 -0.636326 0
M  V30 6337 H 585.809 3.82697 1.07836 0
M  V30 6338 N 586.806 0.0935595 1.57322 0
M  V30 6339 C 588.053 -0.570509 1.94297 0
M  V30 6340 C 588.381 -1.68286 0.97519 0
M  V30 6341 O 587.636 -1.95699 -0.00548655 0
M  V30 6342 C 587.935 -1.16692 3.37813 0
M  V30 6343 C 587.601 -0.178509 4.50547 0
M  V30 6344 C 586.263 0.0933475 4.81109 0
M  V30 6345 C 588.615 0.496472 5.1883 0
M  V30 6346 C 585.943 1.0469 5.77284 0
M  V30 6347 C 588.295 1.43849 6.16028 0
M  V30 6348 C 586.959 1.71859 6.44997 0
M  V30 6349 H 586.229 -0.208764 0.710984 0
M  V30 6350 H 588.876 0.169066 1.90752 0
M  V30 6351 H 587.181 -1.98271 3.37929 0
M  V30 6352 H 588.878 -1.6884 3.63722 0
M  V30 6353 H 585.468 -0.400584 4.26724 0
M  V30 6354 H 589.652 0.299584 4.95395 0
M  V30 6355 H 584.908 1.27094 5.98044 0
M  V30 6356 H 589.082 1.96734 6.68034 0
M  V30 6357 H 586.709 2.45906 7.19329 0
M  V30 6358 N 588.284 -1.56567 -0.180126 0
M  V30 6359 C 589.532 -1.81133 -0.896392 0
M  V30 6360 C 589.853 -0.669114 -1.83161 0
M  V30 6361 O 589.123 0.311616 -1.93406 0
M  V30 6362 H 587.703 -0.668172 -0.333999 0
M  V30 6363 H 590.365 -1.94048 -0.182051 0
M  V30 6364 H 589.461 -2.74854 -1.47857 0
M  V30 6365 N 589.762 0.448376 -1.51087 0
M  V30 6366 C 590.692 1.55102 -1.74544 0
M  V30 6367 C 591.673 1.59357 -0.594932 0
M  V30 6368 O 592.858 1.75261 -0.836491 0
M  V30 6369 C 589.988 2.93268 -1.86041 0
M  V30 6370 C 588.942 3.03877 -3.01402 0
M  V30 6371 C 588.268 4.43914 -2.98068 0
M  V30 6372 C 589.568 2.7898 -4.41551 0
M  V30 6373 H 591.262 1.35724 -2.66869 0
M  V30 6374 H 588.808 0.651498 -1.28419 0
M  V30 6375 H 590.761 3.70356 -2.01034 0
M  V30 6376 H 589.485 3.13853 -0.903548 0
M  V30 6377 H 588.144 2.29227 -2.86096 0
M  V30 6378 H 587.792 4.6145 -2.00182 0
M  V30 6379 H 587.492 4.51944 -3.75527 0
M  V30 6380 H 589.016 5.22991 -3.1514 0
M  V30 6381 H 590.43 3.45805 -4.57265 0
M  V30 6382 H 588.827 2.98431 -5.20633 0
M  V30 6383 H 589.897 1.74663 -4.5235 0
M  V30 6384 N 591.24 1.41047 0.703093 0
M  V30 6385 C 592.465 1.43537 1.49706 0
M  V30 6386 C 592.89 0.0401853 1.88057 0
M  V30 6387 O 592.248 -0.954785 1.54122 0
M  V30 6388 C 592.296 2.3433 2.74084 0
M  V30 6389 O 591.4 1.79515 3.71279 0
M  V30 6390 H 590.741 0.487454 0.450871 0
M  V30 6391 H 593.271 1.85422 0.86486 0
M  V30 6392 H 593.281 2.49947 3.22476 0
M  V30 6393 H 591.956 3.35708 2.45506 0
M  V30 6394 H 590.533 1.7331 3.30179 0
M  V30 6395 N 592.718 -0.936591 1.26751 0
M  V30 6396 C 593.648 -2.05315 1.11212 0
M  V30 6397 C 594.629 -1.70092 0.0160262 0
M  V30 6398 O 595.814 -1.93279 0.188894 0
M  V30 6399 C 592.944 -3.39123 0.749171 0
M  V30 6400 C 591.898 -3.88425 1.79751 0
M  V30 6401 C 591.224 -5.18936 1.28876 0
M  V30 6402 C 592.524 -4.12798 3.19992 0
M  V30 6403 H 594.218 -2.18573 2.04613 0
M  V30 6404 H 591.764 -1.05027 0.985159 0
M  V30 6405 H 593.717 -4.16704 0.627323 0
M  V30 6406 H 592.441 -3.25855 -0.220543 0
M  V30 6407 H 591.1 -3.13028 1.90811 0
M  V30 6408 H 590.748 -5.02051 0.308757 0
M  V30 6409 H 590.448 -5.52892 1.98958 0
M  V30 6410 H 591.972 -5.99096 1.17967 0
M  V30 6411 H 593.386 -4.80977 3.11983 0
M  V30 6412 H 591.783 -4.58044 3.87705 0
M  V30 6413 H 592.853 -3.18412 3.65707 0
M  V30 6414 N 594.196 -1.08629 -1.14182 0
M  V30 6415 C 595.612 -0.814363 -1.3726 0
M  V30 6416 C 595.812 0.575271 -1.93114 0
M  V30 6417 O 594.868 1.33165 -2.1453 0
M  V30 6418 C 596.181 -1.8989 -2.33157 0
M  V30 6419 C 597.729 -1.92518 -2.46791 0
M  V30 6420 C 598.204 -3.00092 -3.45989 0
M  V30 6421 N 599.695 -2.99279 -3.53534 0
M  V30 6422 C 600.43 -3.79158 -4.30147 0
M  V30 6423 N 599.926 -4.68923 -5.09983 0
M  V30 6424 N 601.719 -3.67451 -4.25366 0
M  V30 6425 H 593.87 -1.98232 -0.762758 0
M  V30 6426 H 596.133 -0.860383 -0.398051 0
M  V30 6427 H 595.839 -2.89809 -1.99257 0
M  V30 6428 H 595.713 -1.77013 -3.33086 0
M  V30 6429 H 598.1 -0.932425 -2.79982 0
M  V30 6430 H 598.181 -2.09473 -1.46816 0
M  V30 6431 H 597.825 -3.99575 -3.13532 0
M  V30 6432 H 597.755 -2.80382 -4.45751 0
M  V30 6433 H 600.246 -2.3422 -2.96563 0
M  V30 6434 H 600.559 -5.26475 -5.65724 0
M  V30 6435 H 598.904 -4.72964 -5.09244 0
M  V30 6436 H 602.095 -2.9669 -3.62067 0
M  V30 6437 H 602.268 -4.29944 -4.84822 0
M  V30 6438 N 595.674 1.31259 -0.872281 0
M  V30 6439 C 596.604 2.30929 -0.345554 0
M  V30 6440 C 597.585 1.60449 0.5648 0
M  V30 6441 O 598.77 1.8814 0.481335 0
M  V30 6442 C 595.9 3.44348 0.451823 0
M  V30 6443 C 594.854 4.26435 -0.365641 0
M  V30 6444 C 594.18 5.31785 0.557562 0
M  V30 6445 C 595.48 4.97159 -1.60095 0
M  V30 6446 H 597.174 2.75234 -1.17841 0
M  V30 6447 H 594.72 1.3232 -0.568094 0
M  V30 6448 H 596.673 4.13128 0.830854 0
M  V30 6449 H 595.397 2.98816 1.31821 0
M  V30 6450 H 594.056 3.59326 -0.726649 0
M  V30 6451 H 593.704 4.82502 1.4213 0
M  V30 6452 H 593.404 5.87598 0.0144878 0
M  V30 6453 H 594.928 6.03424 0.933387 0
M  V30 6454 H 596.342 5.58523 -1.29323 0
M  V30 6455 H 594.739 5.62779 -2.08327 0
M  V30 6456 H 595.809 4.24012 -2.35249 0
M  V30 6457 N 597.152 0.631951 1.44375 0
M  V30 6458 C 598.429 0.067646 1.95483 0
M  V30 6459 C 598.809 -1.40683 1.57389 0
M  V30 6460 O 598.157 -2.12167 0.848375 0
M  V30 6461 C 598.367 0.291392 3.47781 0
M  V30 6462 C 599.715 0.185028 4.24197 0
M  V30 6463 O 600.739 0.222803 3.55503 0
M  V30 6464 O 599.598 0.0906642 5.46425 0
M  V30 6465 H 596.692 -0.0218379 0.826712 0
M  V30 6466 H 599.238 0.703711 1.54421 0
M  V30 6467 H 598.01 1.31449 3.68561 0
M  V30 6468 H 597.633 -0.378772 3.95792 0
M  V30 6469 N 598.631 -1.53133 0.372548 0
M  V30 6470 C 600.042 -1.86404 -0.105155 0
M  V30 6471 C 600.393 -1.29289 -1.47576 0
M  V30 6472 O 599.518 -0.617646 -2.07398 0
M  V30 6473 C 600.113 -3.38223 -0.197588 0
M  V30 6474 C 598.672 -3.71266 -0.619556 0
M  V30 6475 C 597.819 -2.76353 0.228919 0
M  V30 6476 H 600.77 -1.47282 0.591077 0
M  V30 6477 H 600.791 -3.66577 -1.01987 0
M  V30 6478 H 600.303 -3.79763 0.800099 0
M  V30 6479 H 598.404 -3.35287 -1.62522 0
M  V30 6480 H 598.517 -4.77515 -0.389332 0
M  V30 6481 H 596.881 -2.52888 -0.303271 0
M  V30 6482 H 597.664 -3.20728 1.22428 0
M  V30 6483 N 600.109 -0.101901 -1.5727 0
M  V30 6484 C 601.337 0.568392 -1.98939 0
M  V30 6485 C 601.752 1.61301 -0.981194 0
M  V30 6486 O 601.109 1.82478 0.0282869 0
M  V30 6487 C 601.16 1.20997 -3.40649 0
M  V30 6488 O 600.881 0.207129 -4.3761 0
M  V30 6489 C 602.382 1.96523 -3.97358 0
M  V30 6490 H 599.602 0.15186 -0.65359 0
M  V30 6491 H 602.146 -0.183198 -2.03678 0
M  V30 6492 H 600.301 1.91245 -3.36904 0
M  V30 6493 H 600.715 0.671071 -5.20189 0
M  V30 6494 H 602.189 2.36764 -4.98645 0
M  V30 6495 H 602.666 2.83376 -3.35552 0
M  V30 6496 H 603.272 1.31076 -4.04598 0
M  V30 6497 N 601.587 1.56661 0.17182 0
M  V30 6498 C 602.517 1.99401 1.21498 0
M  V30 6499 C 603.498 0.869516 1.46197 0
M  V30 6500 O 604.683 1.13556 1.57539 0
M  V30 6501 C 601.813 2.35346 2.55401 0
M  V30 6502 C 600.767 3.5075 2.45272 0
M  V30 6503 C 600.093 3.72437 3.8366 0
M  V30 6504 C 601.393 4.84216 1.95787 0
M  V30 6505 H 603.087 2.86792 0.859699 0
M  V30 6506 H 600.633 1.37977 0.412103 0
M  V30 6507 H 602.586 2.63843 3.2858 0
M  V30 6508 H 601.31 1.44864 2.92715 0
M  V30 6509 H 599.969 3.2238 1.74547 0
M  V30 6510 H 599.617 2.79246 4.18367 0
M  V30 6511 H 599.317 4.50087 3.77751 0
M  V30 6512 H 600.841 4.03334 4.58426 0
M  V30 6513 H 602.255 5.11592 2.5874 0
M  V30 6514 H 600.652 5.65498 2.00827 0
M  V30 6515 H 601.722 4.76243 0.912159 0
M  V30 6516 N 603.065 -0.440357 1.51323 0
M  V30 6517 C 604.29 -1.21716 1.67928 0
M  V30 6518 C 604.715 -1.84328 0.374826 0
M  V30 6519 O 604.073 -1.68675 -0.664706 0
M  V30 6520 C 604.121 -2.27914 2.79442 0
M  V30 6521 O 603.225 -3.33325 2.42834 0
M  V30 6522 H 602.566 -0.35674 0.560029 0
M  V30 6523 H 605.096 -0.520417 1.97871 0
M  V30 6524 H 605.106 -2.72746 3.03436 0
M  V30 6525 H 603.781 -1.8172 3.741 0
M  V30 6526 H 602.358 -2.9399 2.294 0
M  V30 6527 N 604.543 -1.41418 -0.695603 0
M  V30 6528 C 605.789 -1.40982 -1.4578 0
M  V30 6529 C 606.122 -0.0187763 -1.94191 0
M  V30 6530 O 605.397 0.95346 -1.69527 0
M  V30 6531 C 605.68 -2.41657 -2.66972 0
M  V30 6532 C 605.533 -3.89869 -2.24327 0
M  V30 6533 C 606.852 -2.39589 -3.69168 0
M  V30 6534 H 603.971 -0.513405 -0.528757 0
M  V30 6535 H 606.613 -1.72693 -0.792275 0
M  V30 6536 H 604.763 -2.14746 -3.23754 0
M  V30 6537 H 606.435 -4.27683 -1.72872 0
M  V30 6538 H 604.678 -4.04737 -1.56111 0
M  V30 6539 H 605.349 -4.55857 -3.11285 0
M  V30 6540 H 607.825 -2.63471 -3.2206 0
M  V30 6541 H 606.701 -3.12044 -4.51575 0
M  V30 6542 H 606.962 -1.41447 -4.18862 0
M  V30 6543 N 606.021 0.929856 -1.27246 0
M  V30 6544 C 607.298 1.65544 -1.04186 0
M  V30 6545 C 607.678 2.06796 0.424097 0
M  V30 6546 O 607.026 1.80053 1.40688 0
M  V30 6547 C 607.236 2.85912 -2.00138 0
M  V30 6548 C 608.584 3.57305 -2.29387 0
M  V30 6549 O 609.608 2.96036 -1.98094 0
M  V30 6550 O 608.467 4.67688 -2.82719 0
M  V30 6551 H 605.561 0.725473 -0.397011 0
M  V30 6552 H 608.107 0.980583 -1.38501 0
M  V30 6553 H 606.879 2.52403 -2.99013 0
M  V30 6554 H 606.502 3.61118 -1.66371 0
M  V30 6555 N 607.499 1.09233 1.13605 0
M  V30 6556 C 608.776 0.739633 1.81077 0
M  V30 6557 C 609.156 -0.775595 1.96336 0
M  V30 6558 O 608.504 -1.69726 1.52988 0
M  V30 6559 C 608.714 1.47636 3.16235 0
M  V30 6560 C 610.062 1.64087 3.91613 0
M  V30 6561 O 611.086 1.43871 3.25852 0
M  V30 6562 O 609.945 1.97511 5.0956 0
M  V30 6563 H 607.039 0.265464 0.783236 0
M  V30 6564 H 609.585 1.19441 1.20549 0
M  V30 6565 H 608.357 2.50818 3.00344 0
M  V30 6566 H 607.98 1.01362 3.84462 0
M  V30 6567 N 608.977 -1.30795 0.87923 0
M  V30 6568 C 609.907 -2.30742 0.357796 0
M  V30 6569 C 610.888 -1.60747 -0.556283 0
M  V30 6570 O 612.073 -1.88393 -0.47135 0
M  V30 6571 C 609.203 -3.44583 -0.433555 0
M  V30 6572 C 608.157 -4.26235 0.388251 0
M  V30 6573 C 607.483 -5.32073 -0.529352 0
M  V30 6574 C 608.783 -4.96303 1.62729 0
M  V30 6575 H 610.477 -2.74605 1.19299 0
M  V30 6576 H 608.023 -1.32017 0.575104 0
M  V30 6577 H 609.976 -4.13563 -0.808934 0
M  V30 6578 H 608.7 -2.99511 -1.30234 0
M  V30 6579 H 607.359 -3.58936 0.745695 0
M  V30 6580 H 607.007 -4.83249 -1.39569 0
M  V30 6581 H 606.707 -5.87598 0.0166741 0
M  V30 6582 H 608.231 -6.0391 -0.901373 0
M  V30 6583 H 609.645 -5.5783 1.32283 0
M  V30 6584 H 608.042 -5.61666 2.11309 0
M  V30 6585 H 609.112 -4.22758 2.37494 0
M  V30 6586 N 610.455 -0.639598 -1.44038 0
M  V30 6587 C 611.418 0.0506628 -2.29144 0
M  V30 6588 C 612.418 0.764001 -1.41491 0
M  V30 6589 O 613.608 0.607309 -1.63271 0
M  V30 6590 C 610.74 1.0824 -3.2326 0
M  V30 6591 H 611.933 -0.697987 -2.91664 0
M  V30 6592 H 609.486 -0.400146 -1.51091 0
M  V30 6593 H 610.221 1.86075 -2.65606 0
M  V30 6594 H 610.006 0.574725 -3.87865 0
M  V30 6595 H 611.496 1.56487 -3.87171 0
M  V30 6596 N 611.933 1.52934 -0.380664 0
M  V30 6597 C 612.881 2.27727 0.47361 0
M  V30 6598 C 613.875 1.31288 1.0705 0
M  V30 6599 O 615.081 1.4886 1.01197 0
M  V30 6600 H 611.456 0.732189 0.171475 0
M  V30 6601 H 613.427 2.97864 -0.178785 0
M  V30 6602 C 612.176 3.0904 1.59341 0
M  V30 6603 H 611.499 3.831 1.14343 0
M  V30 6604 H 612.939 3.64527 2.16555 0
M  V30 6605 C 611.398 2.20813 2.54447 0
M  V30 6606 O 611.928 1.82907 3.57642 0
M  V30 6607 N 610.134 1.85145 2.23986 0
M  V30 6608 H 609.681 2.16169 1.40103 0
M  V30 6609 H 609.639 1.26402 2.87871 0
M  V30 6610 N 613.412 0.11024 1.57214 0
M  V30 6611 C 614.637 -0.561179 1.99664 0
M  V30 6612 C 615.062 -1.59985 0.989266 0
M  V30 6613 O 614.42 -1.81255 -0.0402399 0
M  V30 6614 C 614.468 -1.17189 3.41027 0
M  V30 6615 O 613.572 -2.28755 3.4314 0
M  V30 6616 H 612.913 -0.14101 0.648855 0
M  V30 6617 H 615.443 0.196128 2.03658 0
M  V30 6618 H 615.453 -1.50954 3.79047 0
M  V30 6619 H 614.128 -0.411041 4.13864 0
M  V30 6620 H 612.705 -1.96495 3.16929 0
M  V30 6621 N 614.89 -1.56749 -0.16351 0
M  V30 6622 C 616.138 -1.82074 -0.87713 0
M  V30 6623 C 616.459 -0.688503 -1.82441 0
M  V30 6624 O 615.729 0.291085 -1.93725 0
M  V30 6625 H 614.309 -0.671677 -0.326893 0
M  V30 6626 H 616.971 -1.9423 -0.161459 0
M  V30 6627 H 616.067 -2.76407 -1.44934 0
M  V30 6628 N 616.368 0.432326 -1.51554 0
M  V30 6629 C 617.3 1.54357 -1.6943 0
M  V30 6630 C 618.313 1.52311 -0.574897 0
M  V30 6631 O 619.502 1.56997 -0.849369 0
M  V30 6632 C 616.602 2.93273 -1.69836 0
M  V30 6633 C 615.775 3.19768 -2.98442 0
M  V30 6634 C 614.834 4.38433 -2.90969 0
M  V30 6635 O 613.86 4.36842 -3.64908 0
M  V30 6636 N 615.062 5.42276 -2.07163 0
M  V30 6637 H 617.827 1.39426 -2.65293 0
M  V30 6638 H 615.388 0.621331 -1.49503 0
M  V30 6639 H 617.38 3.70687 -1.62399 0
M  V30 6640 H 615.95 3.01777 -0.815456 0
M  V30 6641 H 615.17 2.30607 -3.19709 0
M  V30 6642 H 616.458 3.343 -3.83563 0
M  V30 6643 H 615.856 5.46407 -1.46477 0
M  V30 6644 H 614.413 6.18524 -2.05601 0
M  V30 6645 N 617.846 1.41785 0.688094 0
M  V30 6646 C 619.092 1.41753 1.4503 0
M  V30 6647 C 619.425 0.0290745 1.94178 0
M  V30 6648 O 618.7 -0.944456 1.7003 0
M  V30 6649 C 618.983 2.43069 2.65686 0
M  V30 6650 C 618.836 3.91053 2.22256 0
M  V30 6651 C 620.155 2.41543 3.67893 0
M  V30 6652 H 617.274 0.516202 0.526027 0
M  V30 6653 H 619.916 1.73111 0.783105 0
M  V30 6654 H 618.066 2.1646 3.2261 0
M  V30 6655 H 619.738 4.28594 1.70602 0
M  V30 6656 H 617.981 4.05559 1.53963 0
M  V30 6657 H 618.652 4.57501 3.08863 0
M  V30 6658 H 621.128 2.65175 3.20658 0
M  V30 6659 H 620.004 3.14434 4.49914 0
M  V30 6660 H 620.265 1.43666 4.18106 0
M  V30 6661 N 619.324 -0.923095 1.27737 0
M  V30 6662 C 620.572 -1.66797 1.14119 0
M  V30 6663 C 620.893 -1.92479 -0.312541 0
M  V30 6664 O 620.163 -1.53432 -1.218 0
M  V30 6665 H 618.743 -0.618196 0.419336 0
M  V30 6666 H 621.405 -1.10815 1.60331 0
M  V30 6667 H 620.501 -2.63424 1.67374 0
M  V30 6668 N 620.802 -1.09834 -1.13024 0
M  V30 6669 C 622.03 -0.858902 -1.8823 0
M  V30 6670 C 622.445 0.590164 -1.79339 0
M  V30 6671 O 621.802 1.4065 -1.16292 0
M  V30 6672 C 621.853 -1.29066 -3.37675 0
M  V30 6673 O 621.574 -2.6829 -3.46341 0
M  V30 6674 C 623.075 -1.08421 -4.29837 0
M  V30 6675 H 620.295 -0.308713 -0.595766 0
M  V30 6676 H 622.839 -1.4614 -1.4305 0
M  V30 6677 H 620.994 -0.731961 -3.80422 0
M  V30 6678 H 621.408 -2.86598 -4.39274 0
M  V30 6679 H 622.882 -1.43553 -5.33007 0
M  V30 6680 H 623.359 -0.0223315 -4.39194 0
M  V30 6681 H 623.965 -1.62907 -3.92863 0
M  V30 6682 N 622.28 1.30327 -0.886154 0
M  V30 6683 C 623.243 2.26376 -0.358687 0
M  V30 6684 C 624.243 1.52845 0.499498 0
M  V30 6685 O 625.433 1.71483 0.306485 0
M  V30 6686 C 622.565 3.37379 0.488726 0
M  V30 6687 H 623.758 2.74547 -1.20681 0
M  V30 6688 H 621.311 1.41536 -0.663113 0
M  V30 6689 H 622.046 2.94526 1.35739 0
M  V30 6690 H 621.831 3.91897 -0.126003 0
M  V30 6691 H 623.321 4.08868 0.84952 0
M  V30 6692 N 623.758 0.647228 1.43697 0
M  V30 6693 C 625.174 0.314256 1.56476 0
M  V30 6694 C 625.374 -1.18191 1.63196 0
M  V30 6695 O 624.43 -1.96655 1.58376 0
M  V30 6696 C 625.743 1.02034 2.82859 0
M  V30 6697 C 627.291 1.00002 2.96595 0
M  V30 6698 C 627.766 1.68689 4.25803 0
M  V30 6699 N 629.257 1.65424 4.32654 0
M  V30 6700 C 629.992 2.1545 5.31384 0
M  V30 6701 N 629.488 2.73738 6.36427 0
M  V30 6702 N 631.281 2.05985 5.22998 0
M  V30 6703 H 623.432 1.61821 1.37578 0
M  V30 6704 H 625.695 0.680184 0.660344 0
M  V30 6705 H 625.401 2.07542 2.83935 0
M  V30 6706 H 625.275 0.568146 3.72897 0
M  V30 6707 H 627.662 -0.0466319 2.95063 0
M  V30 6708 H 627.743 1.49086 2.07863 0
M  V30 6709 H 627.387 2.73308 4.28095 0
M  V30 6710 H 627.317 1.17076 5.13421 0
M  V30 6711 H 629.808 1.22884 3.57363 0
M  V30 6712 H 630.121 3.09602 7.08072 0
M  V30 6713 H 628.466 2.77796 6.37067 0
M  V30 6714 H 631.657 1.60157 4.39849 0
M  V30 6715 H 631.83 2.45281 5.99784 0
M  V30 6716 N 625.236 -1.5273 0.388769 0
M  V30 6717 C 626.466 -2.05693 -0.193397 0
M  V30 6718 C 626.874 -1.26038 -1.41107 0
M  V30 6719 O 626.217 -0.30001 -1.81234 0
M  V30 6720 C 626.279 -3.53962 -0.628561 0
M  V30 6721 C 625.943 -4.54519 0.475576 0
M  V30 6722 C 626.94 -5.02526 1.33281 0
M  V30 6723 C 624.625 -4.98174 0.642453 0
M  V30 6724 C 626.619 -5.92812 2.34205 0
M  V30 6725 C 624.306 -5.88262 1.65503 0
M  V30 6726 C 625.304 -6.35473 2.50325 0
M  V30 6727 O 624.992 -7.23781 3.49852 0
M  V30 6728 H 624.724 -0.675197 -0.0329395 0
M  V30 6729 H 627.278 -1.97835 0.552326 0
M  V30 6730 H 625.508 -3.59437 -1.42625 0
M  V30 6731 H 627.197 -3.89669 -1.13633 0
M  V30 6732 H 627.963 -4.6953 1.21519 0
M  V30 6733 H 623.842 -4.60999 -0.00805093 0
M  V30 6734 H 627.386 -6.29585 3.00447 0
M  V30 6735 H 623.283 -6.20672 1.77304 0
M  V30 6736 H 624.051 -7.4184 3.45855 0
M  V30 6737 N 626.714 -0.118576 -1.57153 0
M  V30 6738 C 627.647 0.869046 -2.11004 0
M  V30 6739 C 628.625 1.26115 -1.02634 0
M  V30 6740 O 629.809 1.36228 -1.30285 0
M  V30 6741 C 626.936 2.16297 -2.6064 0
M  V30 6742 C 625.982 1.91896 -3.80891 0
M  V30 6743 S 626.815 1.13562 -5.2332 0
M  V30 6744 C 627.971 2.44135 -5.76324 0
M  V30 6745 H 628.204 0.411005 -2.94445 0
M  V30 6746 H 625.737 0.0951891 -1.54106 0
M  V30 6747 H 627.695 2.90642 -2.89892 0
M  V30 6748 H 626.356 2.59219 -1.77382 0
M  V30 6749 H 625.549 2.8777 -4.13768 0
M  V30 6750 H 625.151 1.25672 -3.52253 0
M  V30 6751 H 627.443 3.39976 -5.86022 0
M  V30 6752 H 628.386 2.15803 -6.74414 0
M  V30 6753 H 628.794 2.53483 -5.04387 0
M  V30 6754 N 628.193 1.56834 0.155195 0
M  V30 6755 C 629.156 1.96748 1.17571 0
M  V30 6756 C 630.156 0.853006 1.3631 0
M  V30 6757 O 631.346 1.11978 1.33441 0
M  V30 6758 C 628.478 2.27631 2.53765 0
M  V30 6759 H 629.671 2.88085 0.833498 0
M  V30 6760 H 627.224 1.51141 0.398242 0
M  V30 6761 H 627.959 1.39059 2.92973 0
M  V30 6762 H 627.744 3.0888 2.41527 0
M  V30 6763 H 629.234 2.59377 3.27282 0
M  V30 6764 N 629.671 -0.424282 1.51781 0
M  V30 6765 C 631.082 -1.00368 1.57427 0
M  V30 6766 C 631.433 -1.91962 0.40558 0
M  V30 6767 O 630.558 -2.111 -0.47601 0
M  V30 6768 C 631.153 -1.82707 2.85313 0
M  V30 6769 C 629.712 -2.35675 2.93487 0
M  V30 6770 C 628.859 -1.1524 2.5222 0
M  V30 6771 H 631.81 -0.205064 1.5737 0
M  V30 6772 H 631.831 -2.68294 2.69812 0
M  V30 6773 H 631.343 -1.16017 3.70353 0
M  V30 6774 H 629.444 -3.05781 2.12906 0
M  V30 6775 H 629.557 -2.67578 3.97415 0
M  V30 6776 H 627.921 -1.50174 2.05718 0
M  V30 6777 H 628.704 -0.5014 3.39619 0
M  V30 6778 N 631.149 -1.42148 -0.680565 0
M  V30 6779 C 632.059 -1.47565 -1.82378 0
M  V30 6780 C 633.075 -0.36489 -1.70131 0
M  V30 6781 O 634.251 -0.614916 -1.91783 0
M  V30 6782 C 631.316 -1.37013 -3.18478 0
M  V30 6783 C 630.377 -2.58532 -3.42724 0
M  V30 6784 C 629.61 -2.48473 -4.72331 0
M  V30 6785 O 629.833 -1.51745 -5.49845 0
M  V30 6786 O 628.767 -3.38503 -4.97694 0
M  V30 6787 H 632.593 -2.44045 -1.80764 0
M  V30 6788 H 630.178 -1.23849 -0.835569 0
M  V30 6789 H 632.06 -1.33468 -3.99705 0
M  V30 6790 H 630.735 -0.436552 -3.20743 0
M  V30 6791 H 629.642 -2.67652 -2.61368 0
M  V30 6792 H 630.975 -3.50769 -3.45286 0
M  V30 6793 N 632.627 0.916307 -1.28225 0
M  V30 6794 C 633.873 1.66765 -1.154 0
M  V30 6795 C 634.206 1.91912 0.297251 0
M  V30 6796 O 633.481 1.51766 1.21644 0
M  V30 6797 C 633.764 3.02715 -1.95028 0
M  V30 6798 C 633.617 2.84738 -3.48201 0
M  V30 6799 C 634.936 4.03215 -1.76369 0
M  V30 6800 H 632.055 0.605205 -0.42059 0
M  V30 6801 H 634.697 1.06255 -1.57512 0
M  V30 6802 H 632.847 3.54365 -1.59242 0
M  V30 6803 H 634.519 2.40118 -3.9388 0
M  V30 6804 H 632.762 2.19848 -3.73964 0
M  V30 6805 H 633.433 3.8127 -3.99171 0
M  V30 6806 H 635.909 3.60617 -2.07593 0
M  V30 6807 H 634.785 4.96306 -2.34459 0
M  V30 6808 H 635.046 4.36288 -0.71452 0
M  V30 6809 N 634.105 1.10431 1.1244 0
M  V30 6810 C 635.035 0.775143 2.20258 0
M  V30 6811 C 636.016 -0.25186 1.68225 0
M  V30 6812 O 637.201 -0.117637 1.93843 0
M  V30 6813 C 634.331 0.206133 3.46688 0
M  V30 6814 C 633.285 1.16382 4.11873 0
M  V30 6815 C 632.611 0.456014 5.32752 0
M  V30 6816 C 633.911 2.5104 4.58013 0
M  V30 6817 H 635.605 1.67665 2.4805 0
M  V30 6818 H 633.151 0.807595 1.19222 0
M  V30 6819 H 635.104 -0.036291 4.21384 0
M  V30 6820 H 633.828 -0.730614 3.18323 0
M  V30 6821 H 632.487 1.39169 3.39157 0
M  V30 6822 H 632.135 -0.485203 5.00654 0
M  V30 6823 H 631.835 1.09466 5.77314 0
M  V30 6824 H 633.359 0.222135 6.10196 0
M  V30 6825 H 634.773 2.32401 5.24083 0
M  V30 6826 H 633.17 3.10789 5.13352 0
M  V30 6827 H 634.24 3.11039 3.71998 0
M  V30 6828 N 635.583 -1.29855 0.893053 0
M  V30 6829 C 636.493 -2.31661 0.370157 0
M  V30 6830 C 637.509 -1.65677 -0.531723 0
M  V30 6831 O 638.685 -1.9691 -0.422902 0
M  V30 6832 C 635.75 -3.44388 -0.399741 0
M  V30 6833 C 634.811 -4.2598 0.532861 0
M  V30 6834 C 634.044 -5.33324 -0.200388 0
M  V30 6835 O 634.267 -5.52305 -1.42531 0
M  V30 6836 O 633.201 -6.00188 0.453668 0
M  V30 6837 H 637.027 -2.78354 1.2146 0
M  V30 6838 H 634.612 -1.34171 0.657153 0
M  V30 6839 H 636.494 -4.13037 -0.835358 0
M  V30 6840 H 635.169 -2.99815 -1.22035 0
M  V30 6841 H 634.076 -3.59998 1.01746 0
M  V30 6842 H 635.409 -4.74178 1.3197 0
M  V30 6843 N 637.061 -0.65484 -1.43351 0
M  V30 6844 C 638.286 -0.175046 -2.0666 0
M  V30 6845 C 638.711 1.15104 -1.4877 0
M  V30 6846 O 638.069 1.71144 -0.598279 0
M  V30 6847 C 638.117 -0.0991544 -3.60464 0
M  V30 6848 O 637.221 0.938169 -4.01587 0
M  V30 6849 H 636.562 -0.0956148 -0.65708 0
M  V30 6850 H 639.092 -0.898222 -1.83829 0
M  V30 6851 H 639.102 0.083632 -4.07914 0
M  V30 6852 H 637.777 -1.06719 -4.01975 0
M  V30 6853 H 636.354 0.72804 -3.65724 0
M  V30 6854 N 638.539 1.52521 -0.396863 0
M  V30 6855 C 639.955 1.5953 -0.0471659 0
M  V30 6856 C 640.155 1.41044 1.43906 0
M  V30 6857 O 639.211 1.23122 2.20448 0
M  V30 6858 C 640.524 2.95972 -0.531113 0
M  V30 6859 C 642.072 3.09172 -0.488024 0
M  V30 6860 C 642.547 4.48075 -0.948281 0
M  V30 6861 N 644.038 4.54281 -0.9046 0
M  V30 6862 C 644.773 5.60007 -1.23205 0
M  V30 6863 N 644.269 6.73343 -1.63036 0
M  V30 6864 N 646.062 5.50151 -1.15282 0
M  V30 6865 H 638.213 1.62786 -1.36435 0
M  V30 6866 H 640.476 0.76514 -0.559701 0
M  V30 6867 H 640.182 3.14741 -1.56942 0
M  V30 6868 H 640.056 3.77143 0.0657922 0
M  V30 6869 H 642.443 2.90095 0.541211 0
M  V30 6870 H 642.524 2.29937 -1.12083 0
M  V30 6871 H 642.168 4.67894 -1.97578 0
M  V30 6872 H 642.098 5.25788 -0.292412 0
M  V30 6873 H 644.589 3.72918 -0.6116 0
M  V30 6874 H 644.902 7.49992 -1.86365 0
M  V30 6875 H 643.247 6.74655 -1.66929 0
M  V30 6876 H 646.438 4.6049 -0.840602 0
M  V30 6877 H 646.611 6.32444 -1.41133 0
M  V30 6878 N 640.017 0.126909 1.57088 0
M  V30 6879 C 640.95 -0.857844 2.11462 0
M  V30 6880 C 641.928 -1.25569 1.03301 0
M  V30 6881 O 643.112 -1.35535 1.31006 0
M  V30 6882 C 640.239 -2.14912 2.61784 0
M  V30 6883 C 639.285 -1.89874 3.81903 0
M  V30 6884 S 640.118 -1.10785 5.23915 0
M  V30 6885 C 641.274 -2.41075 5.7761 0
M  V30 6886 H 641.507 -0.395384 2.94659 0
M  V30 6887 H 639.04 -0.0870151 1.54155 0
M  V30 6888 H 640.998 -2.89101 2.91429 0
M  V30 6889 H 639.659 -2.58275 1.78754 0
M  V30 6890 H 638.852 -2.85572 4.15289 0
M  V30 6891 H 638.454 -1.23802 3.52915 0
M  V30 6892 H 640.746 -3.36864 5.87817 0
M  V30 6893 H 641.689 -2.12223 6.75549 0
M  V30 6894 H 642.097 -2.50804 5.05725 0
M  V30 6895 N 641.495 -1.56914 -0.146875 0
M  V30 6896 C 642.443 -1.99224 -1.20053 0
M  V30 6897 C 643.437 -0.884661 -1.44465 0
M  V30 6898 O 644.643 -1.06984 -1.44756 0
M  V30 6899 H 641.018 -0.634191 -0.404112 0
M  V30 6900 H 642.989 -2.86998 -0.816987 0
M  V30 6901 C 641.738 -2.38899 -2.52632 0
M  V30 6902 H 641.061 -3.23677 -2.34677 0
M  V30 6903 H 642.501 -2.72326 -3.24984 0
M  V30 6904 C 640.96 -1.2417 -3.13183 0
M  V30 6905 O 641.49 -0.542503 -3.9802 0
M  V30 6906 N 639.696 -1.00592 -2.72635 0
M  V30 6907 H 639.243 -1.57627 -2.03744 0
M  V30 6908 H 639.201 -0.240174 -3.13481 0
M  V30 6909 N 642.974 0.416227 -1.52004 0
M  V30 6910 C 643.904 1.51365 -1.77795 0
M  V30 6911 C 644.885 1.58059 -0.628601 0
M  V30 6912 O 646.07 1.73447 -0.873478 0
M  V30 6913 C 643.2 2.89256 -1.92219 0
M  V30 6914 C 642.154 2.97415 -3.0778 0
M  V30 6915 C 641.48 4.37492 -3.07417 0
M  V30 6916 C 642.78 2.69551 -4.47369 0
M  V30 6917 H 644.474 1.30033 -2.69688 0
M  V30 6918 H 642.02 0.624112 -1.29772 0
M  V30 6919 H 643.973 3.66008 -2.08845 0
M  V30 6920 H 642.697 3.11866 -0.969917 0
M  V30 6921 H 641.356 2.23107 -2.90893 0
M  V30 6922 H 641.004 4.571 -2.09925 0
M  V30 6923 H 640.704 4.43877 -3.85029 0
M  V30 6924 H 642.228 5.16188 -3.26162 0
M  V30 6925 H 643.642 3.36028 -4.64497 0
M  V30 6926 H 642.039 2.87321 -5.26846 0
M  V30 6927 H 643.109 1.65029 -4.55953 0
M  V30 6928 N 644.452 1.42507 0.673017 0
M  V30 6929 C 645.362 1.4853 1.81593 0
M  V30 6930 C 646.378 0.373907 1.69935 0
M  V30 6931 O 647.554 0.625078 1.91454 0
M  V30 6932 C 644.619 1.387 3.17747 0
M  V30 6933 C 643.68 2.60346 3.41348 0
M  V30 6934 C 642.913 2.50975 4.71007 0
M  V30 6935 O 643.136 1.54659 5.49033 0
M  V30 6936 O 642.07 3.41138 4.95892 0
M  V30 6937 H 645.896 2.45001 1.79467 0
M  V30 6938 H 643.481 1.2429 0.82899 0
M  V30 6939 H 645.363 1.35586 3.98992 0
M  V30 6940 H 644.038 0.453555 3.20507 0
M  V30 6941 H 642.945 2.69034 2.59945 0
M  V30 6942 H 644.278 3.52595 3.43421 0
M  V30 6943 N 645.93 -0.909495 1.28709 0
M  V30 6944 C 646.878 -2.03381 1.12866 0
M  V30 6945 C 647.872 -1.69335 0.0468074 0
M  V30 6946 O 649.078 -1.78819 0.205891 0
M  V30 6947 H 645.453 -0.666452 0.348348 0
M  V30 6948 H 647.424 -2.13885 2.08077 0
M  V30 6949 C 646.173 -3.38092 0.811742 0
M  V30 6950 H 645.496 -3.64786 1.63619 0
M  V30 6951 H 646.936 -4.17477 0.740869 0
M  V30 6952 C 645.395 -3.33395 -0.484679 0
M  V30 6953 O 645.925 -3.72089 -1.5137 0
M  V30 6954 N 644.131 -2.86491 -0.486961 0
M  V30 6955 H 643.678 -2.55199 0.350877 0
M  V30 6956 H 643.636 -2.83731 -1.3544 0
M  V30 6957 N 647.408 -1.11026 -1.11852 0
M  V30 6958 C 648.654 -0.857729 -1.83768 0
M  V30 6959 C 648.987 0.615143 -1.842 0
M  V30 6960 O 648.262 1.45391 -1.29196 0
M  V30 6961 C 648.545 -1.41453 -3.31154 0
M  V30 6962 C 648.398 -2.95471 -3.39142 0
M  V30 6963 C 649.717 -1.0619 -4.27097 0
M  V30 6964 H 646.836 -0.313044 -0.667212 0
M  V30 6965 H 649.478 -1.37443 -1.31185 0
M  V30 6966 H 647.628 -0.975052 -3.76065 0
M  V30 6967 H 649.3 -3.4799 -3.02821 0
M  V30 6968 H 647.543 -3.31759 -2.79497 0
M  V30 6969 H 648.214 -3.29515 -4.42859 0
M  V30 6970 H 650.69 -1.44122 -3.90344 0
M  V30 6971 H 649.566 -1.47832 -5.28618 0
M  V30 6972 H 649.827 0.0278912 -4.42091 0
M  V30 6973 N 648.886 1.2938 -0.899927 0
M  V30 6974 C 649.796 2.31462 -0.382437 0
M  V30 6975 C 650.812 1.65956 0.522929 0
M  V30 6976 O 651.988 1.97131 0.412454 0
M  V30 6977 C 649.053 3.44595 0.381472 0
M  V30 6978 C 648.114 4.25692 -0.555444 0
M  V30 6979 C 647.347 5.33422 0.172102 0
M  V30 6980 O 647.57 5.53053 1.396 0
M  V30 6981 O 646.504 5.99939 -0.485491 0
M  V30 6982 H 650.33 2.77706 -1.22934 0
M  V30 6983 H 647.915 1.33821 -0.664259 0
M  V30 6984 H 649.797 4.13474 0.813442 0
M  V30 6985 H 648.472 3.00458 1.20443 0
M  V30 6986 H 647.379 3.59453 -1.03653 0
M  V30 6987 H 648.712 4.73471 -1.34483 0
M  V30 6988 N 650.364 0.662433 1.43002 0
M  V30 6989 C 651.589 0.186003 2.06564 0
M  V30 6990 C 652.014 -1.14314 1.49379 0
M  V30 6991 O 651.372 -1.70824 0.607346 0
M  V30 6992 C 651.42 0.118269 3.60406 0
M  V30 6993 O 650.524 -0.916859 4.02079 0
M  V30 6994 H 649.865 0.0990981 0.656563 0
M  V30 6995 H 652.395 0.907958 1.8335 0
M  V30 6996 H 652.405 -0.0619981 4.07953 0
M  V30 6997 H 651.08 1.08849 4.01403 0
M  V30 6998 H 649.657 -0.708635 3.66105 0
M  V30 6999 N 651.842 -1.52309 0.404946 0
M  V30 7000 C 653.089 -2.01767 -0.1722 0
M  V30 7001 C 653.417 -1.29075 -1.45498 0
M  V30 7002 O 652.672 -0.3843 -1.9189 0
M  V30 7003 C 652.971 -3.54284 -0.470895 0
M  V30 7004 C 652.637 -4.45079 0.722194 0
M  V30 7005 C 651.299 -4.69617 1.04946 0
M  V30 7006 C 653.651 -4.98555 1.51962 0
M  V30 7007 C 650.979 -5.44878 2.17543 0
M  V30 7008 C 653.331 -5.75049 2.63632 0
M  V30 7009 C 651.995 -5.9786 2.9685 0
M  V30 7010 H 651.265 -0.738316 -0.0630125 0
M  V30 7011 H 653.912 -1.83566 0.545506 0
M  V30 7012 H 652.217 -3.70642 -1.27012 0
M  V30 7013 H 653.914 -3.90058 -0.930346 0
M  V30 7014 H 650.504 -4.26155 0.457131 0
M  V30 7015 H 654.688 -4.79509 1.28002 0
M  V30 7016 H 649.944 -5.60762 2.43631 0
M  V30 7017 H 654.118 -6.15483 3.25813 0
M  V30 7018 H 651.745 -6.5596 3.84215 0
M  V30 7019 N 653.32 -0.135238 -1.57019 0
M  V30 7020 C 654.267 0.808908 -2.1616 0
M  V30 7021 C 655.237 1.25234 -1.09113 0
M  V30 7022 O 656.422 1.32697 -1.37099 0
M  V30 7023 C 653.562 2.04729 -2.77813 0
M  V30 7024 C 652.675 1.65074 -3.99218 0
M  V30 7025 C 651.81 2.84002 -4.48906 0
M  V30 7026 C 650.849 2.40663 -5.62803 0
M  V30 7027 N 649.986 3.5256 -6.07162 0
M  V30 7028 H 654.826 0.297751 -2.96509 0
M  V30 7029 H 652.363 0.135264 -1.46477 0
M  V30 7030 H 654.321 2.7731 -3.11697 0
M  V30 7031 H 652.951 2.53275 -2.00128 0
M  V30 7032 H 652.003 0.823029 -3.7139 0
M  V30 7033 H 653.315 1.29236 -4.81767 0
M  V30 7034 H 652.469 3.64788 -4.84783 0
M  V30 7035 H 651.208 3.23076 -3.65339 0
M  V30 7036 H 650.213 1.58314 -5.26514 0
M  V30 7037 H 651.438 2.02687 -6.48147 0
M  V30 7038 H 649.384 3.91278 -5.26534 0
M  V30 7039 H 649.301 3.20699 -6.84608 0
M  V30 7040 H 650.569 4.33738 -6.47682 0
M  V30 7041 N 654.798 1.5699 0.138552 0
M  V30 7042 C 655.73 1.95515 1.1961 0
M  V30 7043 C 656.743 0.852002 1.38726 0
M  V30 7044 O 657.932 1.13038 1.38147 0
M  V30 7045 C 655.032 2.2213 2.55952 0
M  V30 7046 C 654.205 3.53424 2.57702 0
M  V30 7047 C 653.264 3.6848 3.75645 0
M  V30 7048 O 652.29 4.4079 3.60129 0
M  V30 7049 N 653.492 3.05777 4.93438 0
M  V30 7050 H 656.257 2.86838 0.868557 0
M  V30 7051 H 653.818 1.58542 0.328033 0
M  V30 7052 H 655.81 2.29435 3.33379 0
M  V30 7053 H 654.38 1.3703 2.80965 0
M  V30 7054 H 653.6 3.57484 1.6613 0
M  V30 7055 H 654.888 4.39759 2.55909 0
M  V30 7056 H 654.286 2.46961 5.08947 0
M  V30 7057 H 652.843 3.18631 5.6861 0
M  V30 7058 N 656.276 -0.40816 1.52223 0
M  V30 7059 C 657.504 -1.17672 1.70179 0
M  V30 7060 C 657.919 -1.84257 0.411696 0
M  V30 7061 O 657.276 -1.7192 -0.612354 0
M  V30 7062 C 657.327 -2.23911 2.83806 0
M  V30 7063 O 657.048 -1.60044 4.0782 0
M  V30 7064 C 658.549 -3.1364 3.13281 0
M  V30 7065 H 655.769 -0.353562 0.570293 0
M  V30 7066 H 658.313 -0.480083 1.98785 0
M  V30 7067 H 656.468 -2.89242 2.57717 0
M  V30 7068 H 656.882 -2.30484 4.71145 0
M  V30 7069 H 658.356 -3.84255 3.96298 0
M  V30 7070 H 658.833 -3.76066 2.26872 0
M  V30 7071 H 659.439 -2.53977 3.41139 0
M  V30 7072 N 657.755 -1.42862 -0.66545 0
M  V30 7073 C 659.032 -1.3431 -1.42197 0
M  V30 7074 C 659.412 0.0150265 -2.11095 0
M  V30 7075 O 658.76 1.03101 -2.03918 0
M  V30 7076 C 658.97 -2.51783 -2.41674 0
M  V30 7077 C 660.318 -2.94321 -3.0604 0
M  V30 7078 O 661.342 -2.51741 -2.52001 0
M  V30 7079 O 660.201 -3.68047 -4.03985 0
M  V30 7080 H 657.295 -0.530159 -0.634713 0
M  V30 7081 H 659.841 -1.54888 -0.693386 0
M  V30 7082 H 658.613 -3.42282 -1.89627 0
M  V30 7083 H 658.236 -2.33241 -3.22001 0
M  V30 7084 N 659.233 0.902656 -1.29189 0
M  V30 7085 C 660.479 1.65532 -1.17163 0
M  V30 7086 C 660.812 1.92216 0.276879 0
M  V30 7087 O 660.087 1.53048 1.20027 0
M  V30 7088 C 660.37 3.00629 -1.98228 0
M  V30 7089 C 660.223 2.81029 -3.51202 0
M  V30 7090 C 661.542 4.01321 -1.80635 0
M  V30 7091 H 658.661 0.60071 -0.426985 0
M  V30 7092 H 661.303 1.04578 -1.5863 0
M  V30 7093 H 659.453 3.52656 -1.62991 0
M  V30 7094 H 661.125 2.35927 -3.96404 0
M  V30 7095 H 659.368 2.1587 -3.76275 0
M  V30 7096 H 660.039 3.77014 -4.03192 0
M  V30 7097 H 662.515 3.58394 -2.11406 0
M  V30 7098 H 661.391 4.93792 -2.3971 0
M  V30 7099 H 661.652 4.35505 -0.760754 0
M  V30 7100 N 660.711 1.11618 1.11262 0
M  V30 7101 C 661.941 0.88745 1.86569 0
M  V30 7102 C 662.349 -0.56636 1.80524 0
M  V30 7103 O 661.692 -1.40289 1.18594 0
M  V30 7104 C 661.754 1.27313 3.36202 0
M  V30 7105 C 661.418 2.73649 3.66013 0
M  V30 7106 C 662.415 3.71863 3.63337 0
M  V30 7107 C 660.1 3.10342 3.9496 0
M  V30 7108 C 662.094 5.04788 3.89188 0
M  V30 7109 C 659.781 4.43451 4.20469 0
M  V30 7110 C 660.779 5.40484 4.17572 0
M  V30 7111 O 660.467 6.71195 4.42439 0
M  V30 7112 H 660.199 0.317543 0.596777 0
M  V30 7113 H 662.753 1.48768 1.41624 0
M  V30 7114 H 660.983 0.616062 3.81761 0
M  V30 7115 H 662.672 1.01991 3.92877 0
M  V30 7116 H 663.438 3.44861 3.41022 0
M  V30 7117 H 659.317 2.35431 3.9635 0
M  V30 7118 H 662.861 5.80516 3.86842 0
M  V30 7119 H 658.758 4.70187 4.42261 0
M  V30 7120 H 659.526 6.77012 4.59997 0
M  V30 7121 N 662.189 -1.289 0.906776 0
M  V30 7122 C 663.414 -1.99939 0.551303 0
M  V30 7123 C 663.839 -1.67366 -0.858496 0
M  V30 7124 O 663.197 -0.902176 -1.57259 0
M  V30 7125 C 663.245 -3.52523 0.758937 0
M  V30 7126 O 662.349 -4.11983 -0.185308 0
M  V30 7127 H 661.69 -0.628376 0.214568 0
M  V30 7128 H 664.22 -1.64225 1.2203 0
M  V30 7129 H 664.23 -4.02522 0.666329 0
M  V30 7130 H 662.905 -3.75566 1.78671 0
M  V30 7131 H 661.482 -3.72873 -0.0445577 0
M  V30 7132 N 663.667 -0.670007 -1.42649 0
M  V30 7133 C 664.6 0.0613623 -2.28117 0
M  V30 7134 C 665.578 0.813414 -1.40792 0
M  V30 7135 O 666.762 0.809529 -1.70232 0
M  V30 7136 C 663.889 1.09399 -3.20546 0
M  V30 7137 C 662.935 0.438064 -4.24244 0
M  V30 7138 S 663.768 -0.800808 -5.29478 0
M  V30 7139 C 664.924 0.23086 -6.25474 0
M  V30 7140 H 665.157 -0.663606 -2.89799 0
M  V30 7141 H 662.69 -0.45939 -1.47407 0
M  V30 7142 H 664.648 1.68469 -3.74337 0
M  V30 7143 H 663.309 1.79137 -2.58009 0
M  V30 7144 H 662.502 1.21707 -4.89084 0
M  V30 7145 H 662.104 -0.0789346 -3.73917 0
M  V30 7146 H 664.396 1.09204 -6.68641 0
M  V30 7147 H 665.339 -0.382945 -7.07064 0
M  V30 7148 H 665.747 0.574191 -5.61572 0
M  V30 7149 N 665.145 1.52092 -0.413018 0
M  V30 7150 C 666.108 2.25706 0.398687 0
M  V30 7151 C 667.108 1.28221 0.970368 0
M  V30 7152 O 668.298 1.52131 0.848635 0
M  V30 7153 C 665.43 3.03029 1.5616 0
M  V30 7154 H 666.623 2.98888 -0.246131 0
M  V30 7155 H 664.176 1.5542 -0.165622 0
M  V30 7156 H 664.911 2.34205 2.24317 0
M  V30 7157 H 664.696 3.74606 1.15812 0
M  V30 7158 H 666.186 3.58857 2.13569 0
M  V30 7159 N 666.623 0.143563 1.56945 0
M  V30 7160 C 667.553 -0.7936 2.196 0
M  V30 7161 C 668.534 -1.25955 1.14321 0
M  V30 7162 O 669.719 -1.31773 1.42651 0
M  V30 7163 C 666.849 -2.03424 2.81489 0
M  V30 7164 C 665.803 -1.70519 3.92565 0
M  V30 7165 C 665.129 -3.01817 4.41373 0
M  V30 7166 C 666.429 -0.95449 5.13504 0
M  V30 7167 H 668.123 -0.271423 2.98167 0
M  V30 7168 H 665.669 -0.12911 1.4342 0
M  V30 7169 H 667.622 -2.69463 3.23987 0
M  V30 7170 H 666.346 -2.58008 2.00248 0
M  V30 7171 H 665.005 -1.06859 3.5068 0
M  V30 7172 H 664.653 -3.54386 3.56959 0
M  V30 7173 H 664.353 -2.80565 5.16292 0
M  V30 7174 H 665.877 -3.68934 4.86539 0
M  V30 7175 H 667.291 -1.5169 5.52868 0
M  V30 7176 H 665.688 -0.842035 5.94163 0
M  V30 7177 H 666.758 0.0544033 4.84869 0
M  V30 7178 N 668.101 -1.57061 -0.130224 0
M  V30 7179 C 669.347 -1.8453 -0.841216 0
M  V30 7180 C 669.68 -0.727666 -1.80052 0
M  V30 7181 O 668.955 0.267419 -1.92653 0
M  V30 7182 C 669.238 -3.22553 -1.60099 0
M  V30 7183 C 669.091 -4.44901 -0.662048 0
M  V30 7184 C 670.41 -3.58003 -2.55973 0
M  V30 7185 H 667.529 -0.671215 -0.304366 0
M  V30 7186 H 670.171 -1.89705 -0.105821 0
M  V30 7187 H 668.321 -3.18272 -2.22789 0
M  V30 7188 H 669.993 -4.61278 -0.0448559 0
M  V30 7189 H 668.236 -4.33791 0.0272253 0
M  V30 7190 H 668.907 -5.3812 -1.23006 0
M  V30 7191 H 671.383 -3.63002 -2.03393 0
M  V30 7192 H 670.259 -4.55576 -3.06172 0
M  V30 7193 H 670.52 -2.84833 -3.38116 0
M  V30 7194 N 669.579 0.400081 -1.52437 0
M  V30 7195 C 670.509 1.4947 -1.7939 0
M  V30 7196 C 671.49 1.57383 -0.645329 0
M  V30 7197 O 672.675 1.72511 -0.891826 0
M  V30 7198 C 669.805 2.87201 -1.95276 0
M  V30 7199 C 668.759 2.94134 -3.10917 0
M  V30 7200 C 668.085 4.34207 -3.1204 0
M  V30 7201 C 669.385 2.64791 -4.50203 0
M  V30 7202 H 671.079 1.27165 -2.71052 0
M  V30 7203 H 668.625 0.610312 -1.30427 0
M  V30 7204 H 670.578 3.63772 -2.12715 0
M  V30 7205 H 669.302 3.10819 -1.00294 0
M  V30 7206 H 667.961 2.20009 -2.93243 0
M  V30 7207 H 667.609 4.54848 -2.14761 0
M  V30 7208 H 667.309 4.39768 -3.89715 0
M  V30 7209 H 668.833 5.127 -3.31619 0
M  V30 7210 H 670.247 3.31083 -4.68035 0
M  V30 7211 H 668.644 2.81717 -5.29864 0
M  V30 7212 H 669.714 1.60184 -4.57678 0
M  V30 7213 N 671.057 1.43213 0.657864 0
M  V30 7214 C 672.303 1.45795 1.41829 0
M  V30 7215 C 672.658 0.0792176 1.92237 0
M  V30 7216 O 671.951 -0.901406 1.69072 0
M  V30 7217 C 672.145 2.43143 2.61947 0
M  V30 7218 C 671.974 3.90345 2.23295 0
M  V30 7219 C 670.744 4.58749 2.11843 0
M  V30 7220 C 672.942 4.80308 1.83873 0
M  V30 7221 N 670.924 5.90898 1.66473 0
M  V30 7222 C 672.295 6.01693 1.49549 0
M  V30 7223 C 674.35 4.67609 1.71015 0
M  V30 7224 C 673.053 7.11792 1.03657 0
M  V30 7225 C 675.079 5.77707 1.26527 0
M  V30 7226 C 674.441 6.98215 0.931379 0
M  V30 7227 H 670.54 0.588628 0.514822 0
M  V30 7228 H 673.124 1.7936 0.7575 0
M  V30 7229 H 671.295 2.11612 3.25692 0
M  V30 7230 H 673.027 2.36193 3.28626 0
M  V30 7231 H 669.782 4.1319 2.31453 0
M  V30 7232 H 670.206 6.61034 1.46163 0
M  V30 7233 H 674.848 3.74902 1.95469 0
M  V30 7234 H 672.566 8.04332 0.779502 0
M  V30 7235 H 676.152 5.69899 1.17074 0
M  V30 7236 H 675.032 7.81959 0.592379 0
M  V30 7237 N 672.536 -0.895792 1.29666 0
M  V30 7238 C 673.446 -2.03329 1.17024 0
M  V30 7239 C 674.462 -1.73753 0.0925962 0
M  V30 7240 O 675.638 -1.99071 0.305431 0
M  V30 7241 C 672.703 -3.36072 0.851841 0
M  V30 7242 C 671.764 -3.7914 2.01373 0
M  V30 7243 C 670.997 -5.05549 1.71043 0
M  V30 7244 O 671.22 -5.66874 0.633213 0
M  V30 7245 O 670.154 -5.44764 2.5596 0
M  V30 7246 H 673.98 -2.16918 2.12556 0
M  V30 7247 H 671.565 -1.02007 1.09156 0
M  V30 7248 H 673.447 -4.15729 0.689006 0
M  V30 7249 H 672.122 -3.23616 -0.0736634 0
M  V30 7250 H 671.029 -3.00233 2.23183 0
M  V30 7251 H 672.362 -3.96186 2.92058 0
M  V30 7252 N 674.014 -1.12206 -1.10668 0
M  V30 7253 C 674.947 -0.731468 -2.16159 0
M  V30 7254 C 675.925 0.276216 -1.60237 0
M  V30 7255 O 677.109 0.17074 -1.87725 0
M  V30 7256 C 674.236 -0.0822882 -3.386 0
M  V30 7257 C 673.282 -1.05641 -4.1321 0
M  V30 7258 S 674.115 -2.58281 -4.69096 0
M  V30 7259 C 675.271 -1.94686 -5.94851 0
M  V30 7260 H 675.504 -1.62504 -2.48957 0
M  V30 7261 H 673.037 -0.940906 -1.22419 0
M  V30 7262 H 674.995 0.285896 -4.09503 0
M  V30 7263 H 673.656 0.788358 -3.04046 0
M  V30 7264 H 672.849 -0.549764 -5.00993 0
M  V30 7265 H 672.451 -1.36741 -3.48106 0
M  V30 7266 H 674.743 -1.28815 -6.65141 0
M  V30 7267 H 675.686 -2.80499 -6.50174 0
M  V30 7268 H 676.094 -1.40369 -5.46769 0
M  V30 7269 N 675.492 1.28418 -0.913599 0
M  V30 7270 C 676.72 1.99106 -0.562536 0
M  V30 7271 C 677.135 1.68273 0.856137 0
M  V30 7272 O 676.492 0.935401 1.56705 0
M  V30 7273 C 676.543 3.5338 -0.761903 0
M  V30 7274 O 676.264 3.83127 -2.12475 0
M  V30 7275 C 677.765 4.41328 -0.417651 0
M  V30 7276 H 674.985 0.635798 -0.214481 0
M  V30 7277 H 677.529 1.63618 -1.22676 0
M  V30 7278 H 675.684 3.8713 -0.144676 0
M  V30 7279 H 676.098 4.77763 -2.16431 0
M  V30 7280 H 677.572 5.48642 -0.607919 0
M  V30 7281 H 678.049 4.34422 0.646108 0
M  V30 7282 H 678.655 4.13074 -1.01241 0
M  V30 7283 N 676.97 0.677563 1.42291 0
M  V30 7284 C 678.195 0.207901 2.06355 0
M  V30 7285 C 678.62 -1.12723 1.50583 0
M  V30 7286 O 677.978 -1.70171 0.62543 0
M  V30 7287 C 678.026 0.156489 3.6026 0
M  V30 7288 O 677.13 -0.874162 4.03029 0
M  V30 7289 H 676.471 0.106056 0.655475 0
M  V30 7290 H 679.001 0.927354 1.82377 0
M  V30 7291 H 679.011 -0.0187258 4.07996 0
M  V30 7292 H 677.686 1.13101 4.00226 0
M  V30 7293 H 676.263 -0.669764 3.66836 0
M  V30 7294 N 678.448 -1.51871 0.421078 0
M  V30 7295 C 679.864 -1.59435 0.0725398 0
M  V30 7296 C 680.064 -1.43315 -1.41644 0
M  V30 7297 O 679.12 -1.26614 -2.18461 0
M  V30 7298 C 680.433 -2.9509 0.578132 0
M  V30 7299 C 681.981 -3.08356 0.537149 0
M  V30 7300 C 682.456 -4.4651 1.01945 0
M  V30 7301 N 683.947 -4.52784 0.976758 0
M  V30 7302 C 684.682 -5.57976 1.32099 0
M  V30 7303 N 684.178 -6.70664 1.73727 0
M  V30 7304 N 685.971 -5.48248 1.2402 0
M  V30 7305 H 678.122 -1.60595 1.39007 0
M  V30 7306 H 680.385 -0.756138 0.571803 0
M  V30 7307 H 680.091 -3.12205 1.61929 0
M  V30 7308 H 679.965 -3.772 -0.00578374 0
M  V30 7309 H 682.352 -2.90919 -0.494991 0
M  V30 7310 H 682.433 -2.28125 1.15727 0
M  V30 7311 H 682.077 -4.64692 2.04997 0
M  V30 7312 H 682.007 -5.25256 0.376023 0
M  V30 7313 H 684.498 -3.71898 0.670851 0
M  V30 7314 H 684.811 -7.46932 1.98274 0
M  V30 7315 H 683.156 -6.71914 1.77641 0
M  V30 7316 H 686.347 -4.59095 0.913756 0
M  V30 7317 H 686.52 -6.30119 1.51176 0
M  V30 7318 N 679.926 -0.151884 -1.56866 0
M  V30 7319 C 681.166 0.500695 -1.98173 0
M  V30 7320 C 681.53 1.61715 -1.03499 0
M  V30 7321 O 682.731 2.33093 -1.33869 0
M  V30 7322 C 681.002 0.989333 -3.43434 0
M  V30 7323 S 682.561 1.64583 -4.06765 0
M  V30 7324 H 679.379 0.16173 -0.692361 0
M  V30 7325 H 681.981 -0.244754 -1.93962 0
M  V30 7326 H 680.685 0.166072 -4.10064 0
M  V30 7327 H 680.216 1.76929 -3.51368 0
M  V30 7328 H 682.231 2.93326 -4.00218 0
M  V30 7329 N 681.404 1.57128 0.121893 0
M  V30 7330 C 682.352 2.01109 1.16868 0
M  V30 7331 C 683.346 0.907532 1.43039 0
M  V30 7332 O 684.552 1.09274 1.43036 0
M  V30 7333 H 680.927 0.640539 0.393971 0
M  V30 7334 H 682.898 2.88261 0.771224 0
M  V30 7335 C 681.647 2.42887 2.48799 0
M  V30 7336 H 680.97 3.2737 2.29498 0
M  V30 7337 H 682.41 2.77461 3.20611 0
M  V30 7338 C 680.869 1.29137 3.11168 0
M  V30 7339 O 681.399 0.605756 3.97106 0
M  V30 7340 N 679.605 1.04916 2.71 0
M  V30 7341 H 679.152 1.60848 2.01211 0
M  V30 7342 H 679.11 0.290016 3.1306 0
M  V30 7343 N 682.882 -0.391992 1.52647 0
M  V30 7344 C 683.845 -1.46135 1.7657 0
M  V30 7345 C 684.845 -1.47701 0.635698 0
M  V30 7346 O 686.035 -1.48924 0.903728 0
M  V30 7347 C 683.167 -2.85443 1.86374 0
M  V30 7348 H 684.36 -1.26208 2.72051 0
M  V30 7349 H 681.913 -0.623549 1.43323 0
M  V30 7350 H 682.648 -3.10718 0.928685 0
M  V30 7351 H 682.433 -2.85708 2.68539 0
M  V30 7352 H 683.923 -3.62933 2.06566 0
M  V30 7353 N 684.36 -1.4356 -0.65026 0
M  V30 7354 C 685.606 -1.45549 -1.41221 0
M  V30 7355 C 685.939 -0.0805472 -1.94033 0
M  V30 7356 O 685.214 0.899043 -1.72475 0
M  V30 7357 C 685.497 -2.50028 -2.59148 0
M  V30 7358 C 685.35 -3.96808 -2.1181 0
M  V30 7359 C 686.669 -2.51212 -3.61359 0
M  V30 7360 H 683.788 -0.529967 -0.512156 0
M  V30 7361 H 686.43 -1.75127 -0.736933 0
M  V30 7362 H 684.58 -2.24937 -3.16758 0
M  V30 7363 H 686.252 -4.32966 -1.59178 0
M  V30 7364 H 684.495 -4.09498 -1.43156 0
M  V30 7365 H 685.166 -4.6553 -2.96625 0
M  V30 7366 H 687.642 -2.73583 -3.13515 0
M  V30 7367 H 686.518 -3.26252 -4.41419 0
M  V30 7368 H 686.779 -1.54701 -4.1415 0
M  V30 7369 N 685.838 0.888903 -1.30139 0
M  V30 7370 C 687.086 1.63713 -1.18501 0
M  V30 7371 C 687.407 1.9324 0.261399 0
M  V30 7372 O 686.677 1.56608 1.17689 0
M  V30 7373 H 685.257 0.606861 -0.435579 0
M  V30 7374 H 687.919 1.06525 -1.63213 0
M  V30 7375 H 687.015 2.58894 -1.743 0
M  V30 7376 N 687.317 1.12792 1.10072 0
M  V30 7377 C 688.227 0.812369 2.20086 0
M  V30 7378 C 689.243 -0.200349 1.72843 0
M  V30 7379 O 690.419 -0.0330262 2.01373 0
M  V30 7380 C 687.484 0.275685 3.45602 0
M  V30 7381 C 686.545 1.34881 4.07561 0
M  V30 7382 C 685.778 0.837639 5.27086 0
M  V30 7383 O 686.001 -0.327224 5.69461 0
M  V30 7384 O 684.935 1.60894 5.79997 0
M  V30 7385 H 688.761 1.73133 2.49517 0
M  V30 7386 H 686.346 0.904863 1.18881 0
M  V30 7387 H 688.228 -0.0185375 4.21396 0
M  V30 7388 H 686.903 -0.615783 3.17789 0
M  V30 7389 H 685.81 1.69625 3.33434 0
M  V30 7390 H 687.143 2.21418 4.39585 0
M  V30 7391 N 688.795 -1.27931 0.920396 0
M  V30 7392 C 690.041 -1.94977 0.557832 0
M  V30 7393 C 690.374 -1.72224 -0.897365 0
M  V30 7394 O 689.649 -1.04705 -1.63912 0
M  V30 7395 C 689.932 -3.49289 0.875741 0
M  V30 7396 C 689.785 -3.81416 2.38416 0
M  V30 7397 C 691.104 -4.38486 0.376517 0
M  V30 7398 H 688.223 -0.708164 0.20414 0
M  V30 7399 H 690.865 -1.5118 1.15085 0
M  V30 7400 H 689.015 -3.86724 0.371062 0
M  V30 7401 H 690.687 -3.53813 2.95997 0
M  V30 7402 H 688.93 -3.28225 2.83639 0
M  V30 7403 H 689.601 -4.89198 2.55713 0
M  V30 7404 H 692.077 -4.08161 0.808945 0
M  V30 7405 H 690.953 -5.45296 0.627976 0
M  V30 7406 H 691.214 -4.36143 -0.723293 0
M  V30 7407 N 690.273 -0.685099 -1.4193 0
M  V30 7408 C 691.22 -0.0131869 -2.30796 0
M  V30 7409 C 692.19 0.782129 -1.46533 0
M  V30 7410 O 693.375 0.75229 -1.75343 0
M  V30 7411 C 690.515 0.924768 -3.32479 0
M  V30 7412 C 689.628 0.122181 -4.31827 0
M  V30 7413 C 688.763 1.05682 -5.20581 0
M  V30 7414 C 687.802 0.246526 -6.11603 0
M  V30 7415 N 686.939 1.13442 -6.92875 0
M  V30 7416 H 691.779 -0.776789 -2.87698 0
M  V30 7417 H 689.316 -0.394791 -1.41703 0
M  V30 7418 H 691.274 1.48251 -3.89971 0
M  V30 7419 H 689.904 1.65488 -2.77152 0
M  V30 7420 H 688.956 -0.552335 -3.76369 0
M  V30 7421 H 690.268 -0.506473 -4.96222 0
M  V30 7422 H 689.422 1.68415 -5.82856 0
M  V30 7423 H 688.161 1.71935 -4.56388 0
M  V30 7424 H 687.166 -0.393944 -5.48387 0
M  V30 7425 H 688.391 -0.412053 -6.77849 0
M  V30 7426 H 686.337 1.78316 -6.313 0
M  V30 7427 H 686.254 0.561089 -7.53915 0
M  V30 7428 H 687.522 1.74889 -7.59628 0
M  V30 7429 N 691.751 1.51645 -0.429126 0
M  V30 7430 C 693.028 1.94579 0.199614 0
M  V30 7431 C 693.408 1.3673 1.60836 0
M  V30 7432 O 692.756 0.551062 2.21756 0
M  V30 7433 C 692.966 3.48506 0.185685 0
M  V30 7434 C 694.314 4.22756 0.395282 0
M  V30 7435 O 695.338 3.55219 0.264165 0
M  V30 7436 O 694.197 5.42555 0.655475 0
M  V30 7437 H 691.291 0.816007 0.134393 0
M  V30 7438 H 693.837 1.62577 -0.486513 0
M  V30 7439 H 692.609 3.83045 -0.799508 0
M  V30 7440 H 692.232 3.86927 0.91507 0
M  V30 7441 N 693.229 0.160201 1.56784 0
M  V30 7442 C 694.459 -0.493449 2.00621 0
M  V30 7443 C 694.867 -1.5809 1.03943 0
M  V30 7444 O 694.21 -1.83675 0.0305343 0
M  V30 7445 C 694.272 -1.14169 3.4089 0
M  V30 7446 C 693.936 -0.197243 4.56574 0
M  V30 7447 C 694.933 0.580174 5.16653 0
M  V30 7448 C 692.618 -0.0963038 5.02208 0
M  V30 7449 C 694.612 1.44584 6.20785 0
M  V30 7450 C 692.299 0.772959 6.06192 0
M  V30 7451 C 693.297 1.54263 6.65351 0
M  V30 7452 O 692.985 2.39738 7.67321 0
M  V30 7453 H 692.717 -0.131764 0.663034 0
M  V30 7454 H 695.271 0.255728 2.03802 0
M  V30 7455 H 693.501 -1.93877 3.34587 0
M  V30 7456 H 695.19 -1.69641 3.6875 0
M  V30 7457 H 695.956 0.5123 4.82287 0
M  V30 7458 H 691.835 -0.685143 4.5588 0
M  V30 7459 H 695.379 2.04706 6.66889 0
M  V30 7460 H 691.276 0.842077 6.39984 0
M  V30 7461 H 692.044 2.33131 7.84597 0
M  V30 7462 N 694.707 -1.5719 -0.113559 0
M  V30 7463 C 695.617 -2.04041 -1.15777 0
M  V30 7464 C 696.633 -0.961812 -1.45001 0
M  V30 7465 O 697.809 -1.2737 -1.56009 0
M  V30 7466 C 694.874 -2.43994 -2.46308 0
M  V30 7467 C 693.935 -3.65962 -2.24433 0
M  V30 7468 C 693.168 -4.04 -3.4874 0
M  V30 7469 O 693.391 -3.42321 -4.56259 0
M  V30 7470 O 692.325 -4.97069 -3.3942 0
M  V30 7471 H 696.151 -2.93248 -0.789899 0
M  V30 7472 H 693.736 -1.45828 -0.324748 0
M  V30 7473 H 695.618 -2.70401 -3.23204 0
M  V30 7474 H 694.293 -1.57932 -2.82558 0
M  V30 7475 H 693.2 -3.44697 -1.45377 0
M  V30 7476 H 694.533 -4.52746 -1.93084 0
M  V30 7477 N 696.185 0.383891 -1.52853 0
M  V30 7478 C 697.596 0.961591 -1.60032 0
M  V30 7479 C 697.947 1.90819 -0.456333 0
M  V30 7480 O 697.072 2.12288 0.419873 0
M  V30 7481 C 697.667 1.75078 -2.90057 0
M  V30 7482 C 696.226 2.2781 -2.99632 0
M  V30 7483 C 695.373 1.08512 -2.55187 0
M  V30 7484 H 698.324 0.163269 -1.57858 0
M  V30 7485 H 698.345 2.61046 -2.7683 0
M  V30 7486 H 697.857 1.06157 -3.73299 0
M  V30 7487 H 695.958 3.00028 -2.20939 0
M  V30 7488 H 696.071 2.56947 -4.0437 0
M  V30 7489 H 694.435 1.44667 -2.09627 0
M  V30 7490 H 695.218 0.41118 -3.40829 0
M  V30 7491 N 697.663 1.43903 0.642637 0
M  V30 7492 C 699.074 1.40975 1.22404 0
M  V30 7493 C 699.425 0.1192 1.95838 0
M  V30 7494 O 698.55 -0.780939 2.01818 0
M  V30 7495 C 699.145 2.5538 2.22636 0
M  V30 7496 C 697.704 2.55684 2.76229 0
M  V30 7497 C 696.851 2.32556 1.51039 0
M  V30 7498 H 699.802 1.5265 0.434006 0
M  V30 7499 H 699.823 2.27474 3.05017 0
M  V30 7500 H 699.335 3.49294 1.69161 0
M  V30 7501 H 697.436 1.65679 3.33738 0
M  V30 7502 H 697.549 3.53799 3.23053 0
M  V30 7503 H 695.913 1.81427 1.78764 0
M  V30 7504 H 696.696 3.28569 0.99484 0
M  V30 7505 N 699.141 -0.881989 1.30609 0
M  V30 7506 C 700.388 -1.63405 1.19604 0
M  V30 7507 C 700.716 -1.92905 -0.248574 0
M  V30 7508 O 699.971 -1.55062 -1.19391 0
M  V30 7509 C 700.27 -2.97999 1.97311 0
M  V30 7510 C 699.936 -2.88039 3.46907 0
M  V30 7511 C 698.598 -2.85029 3.877 0
M  V30 7512 C 700.95 -2.75948 4.42156 0
M  V30 7513 C 698.278 -2.67772 5.2203 0
M  V30 7514 C 700.63 -2.60228 5.76597 0
M  V30 7515 C 699.294 -2.55595 6.16626 0
M  V30 7516 H 698.564 -0.597941 0.437662 0
M  V30 7517 H 701.211 -1.02524 1.61744 0
M  V30 7518 H 699.516 -3.62847 1.47815 0
M  V30 7519 H 701.213 -3.55156 1.86186 0
M  V30 7520 H 697.803 -2.91192 3.14492 0
M  V30 7521 H 701.987 -2.77337 4.1158 0
M  V30 7522 H 697.243 -2.62601 5.52133 0
M  V30 7523 H 701.417 -2.49847 6.50038 0
M  V30 7524 H 699.044 -2.41981 7.20659 0
M  V30 7525 N 700.619 -1.13374 -1.09472 0
M  V30 7526 C 701.867 -0.893422 -1.8128 0
M  V30 7527 C 702.188 0.582029 -1.86111 0
M  V30 7528 O 701.458 1.42305 -1.34633 0
M  V30 7529 H 700.038 -0.327543 -0.67136 0
M  V30 7530 H 702.7 -1.43018 -1.32408 0
M  V30 7531 H 701.796 -1.28374 -2.84476 0
M  V30 7532 N 702.098 1.27442 -0.927168 0
M  V30 7533 C 703.323 1.99036 -0.583042 0
M  V30 7534 C 703.748 1.68711 0.83176 0
M  V30 7535 O 703.106 0.927081 1.55804 0
M  V30 7536 C 703.154 3.51271 -0.814925 0
M  V30 7537 O 702.258 4.12226 0.119742 0
M  V30 7538 H 701.599 0.624883 -0.224538 0
M  V30 7539 H 704.129 1.62263 -1.24628 0
M  V30 7540 H 704.139 4.01411 -0.730282 0
M  V30 7541 H 702.814 3.72676 -1.84623 0
M  V30 7542 H 701.391 3.72897 -0.0147688 0
M  V30 7543 N 703.576 0.692616 1.41565 0
M  V30 7544 C 704.523 0.0254264 2.30786 0
M  V30 7545 C 705.493 -0.774347 1.46946 0
M  V30 7546 O 706.678 -0.742981 1.7574 0
M  V30 7547 C 703.818 -0.907123 3.32964 0
M  V30 7548 C 702.931 -0.0992784 4.31886 0
M  V30 7549 C 702.066 -1.0292 5.21134 0
M  V30 7550 C 701.105 -0.214088 6.11725 0
M  V30 7551 N 700.242 -1.09766 6.93467 0
M  V30 7552 H 705.082 0.792036 2.87282 0
M  V30 7553 H 702.619 0.4023 1.41492 0
M  V30 7554 H 704.577 -1.46181 3.90752 0
M  V30 7555 H 703.207 -1.64016 2.78026 0
M  V30 7556 H 702.259 0.572287 3.76071 0
M  V30 7557 H 703.571 0.532782 4.95946 0
M  V30 7558 H 702.725 -1.65321 5.83741 0
M  V30 7559 H 701.464 -1.69512 4.57293 0
M  V30 7560 H 700.469 0.42302 5.4817 0
M  V30 7561 H 701.694 0.447995 6.77621 0
M  V30 7562 H 699.64 -1.74965 6.32237 0
M  V30 7563 H 699.557 -0.521099 7.54202 0
M  V30 7564 H 700.825 -1.70858 7.60544 0
M  V30 7565 N 705.054 -1.51416 0.437162 0
M  V30 7566 C 706.3 -2.02386 -0.129555 0
M  V30 7567 C 706.633 -1.32071 -1.42376 0
M  V30 7568 O 705.908 -0.43559 -1.8956 0
M  V30 7569 C 706.191 -3.5841 -0.348487 0
M  V30 7570 C 706.044 -4.39341 0.964352 0
M  V30 7571 C 707.363 -4.25654 -1.11834 0
M  V30 7572 H 704.482 -0.735587 -0.0456109 0
M  V30 7573 H 707.124 -1.81055 0.576124 0
M  V30 7574 H 705.274 -3.76716 -0.949592 0
M  V30 7575 H 706.946 -4.32685 1.59942 0
M  V30 7576 H 705.189 -4.04432 1.56898 0
M  V30 7577 H 705.86 -5.4667 0.765212 0
M  V30 7578 H 708.336 -4.11617 -0.609165 0
M  V30 7579 H 707.212 -5.34704 -1.24029 0
M  V30 7580 H 707.473 -3.86502 -2.14636 0
M  V30 7581 N 706.532 -0.168513 -1.56696 0
M  V30 7582 C 707.948 0.187686 -1.58493 0
M  V30 7583 C 708.148 1.63063 -1.18375 0
M  V30 7584 O 707.204 2.36142 -0.894042 0
M  V30 7585 C 708.517 -0.0905858 -3.00564 0
M  V30 7586 C 710.065 -0.028575 -3.12987 0
M  V30 7587 C 710.54 -0.279799 -4.57145 0
M  V30 7588 N 712.031 -0.227476 -4.62641 0
M  V30 7589 C 712.766 -0.396073 -5.7203 0
M  V30 7590 N 712.262 -0.623572 -6.89988 0
M  V30 7591 N 714.055 -0.332173 -5.61118 0
M  V30 7592 H 706.206 -1.11042 -1.81062 0
M  V30 7593 H 708.469 -0.441235 -0.839056 0
M  V30 7594 H 708.175 -1.09006 -3.34381 0
M  V30 7595 H 708.049 0.619078 -3.72085 0
M  V30 7596 H 710.436 0.961471 -2.78998 0
M  V30 7597 H 710.517 -0.770905 -2.43907 0
M  V30 7598 H 710.161 -1.26704 -4.91842 0
M  V30 7599 H 710.091 0.48311 -5.24379 0
M  V30 7600 H 712.582 -0.0571723 -3.77857 0
M  V30 7601 H 712.895 -0.741745 -7.69232 0
M  V30 7602 H 711.24 -0.660153 -6.91858 0
M  V30 7603 H 714.431 -0.155051 -4.67843 0
M  V30 7604 H 714.604 -0.466994 -6.46315 0
M  V30 7605 N 708.01 1.57248 0.105221 0
M  V30 7606 C 708.92 2.04653 1.14693 0
M  V30 7607 C 709.936 0.969488 1.44489 0
M  V30 7608 O 711.112 1.28196 1.55331 0
M  V30 7609 C 708.177 2.45297 2.45011 0
M  V30 7610 C 707.238 3.67148 2.22489 0
M  V30 7611 C 706.471 4.05844 3.46592 0
M  V30 7612 O 706.694 3.44736 4.54437 0
M  V30 7613 O 705.628 4.98862 3.36779 0
M  V30 7614 H 709.454 2.93663 0.774336 0
M  V30 7615 H 707.039 1.45998 0.31701 0
M  V30 7616 H 708.921 2.72112 3.21766 0
M  V30 7617 H 707.596 1.59429 2.81717 0
M  V30 7618 H 706.503 3.45463 1.43547 0
M  V30 7619 H 707.836 4.53764 1.9068 0
M  V30 7620 N 709.488 -0.375779 1.53054 0
M  V30 7621 C 710.438 -1.45965 1.75152 0
M  V30 7622 C 711.422 -1.49059 0.605823 0
M  V30 7623 O 712.614 -1.54472 0.864133 0
M  V30 7624 C 709.743 -2.83524 1.93569 0
M  V30 7625 C 708.829 -2.84949 3.1411 0
M  V30 7626 N 709.22 -2.56029 4.36214 0
M  V30 7627 C 707.518 -3.16113 3.14625 0
M  V30 7628 C 708.219 -2.64873 5.17897 0
M  V30 7629 N 707.195 -2.99159 4.53878 0
M  V30 7630 H 710.997 -1.22454 2.67175 0
M  V30 7631 H 708.511 -0.583867 1.51541 0
M  V30 7632 H 710.508 -3.61578 2.07525 0
M  V30 7633 H 709.168 -3.08008 1.02768 0
M  V30 7634 H 710.179 -2.29808 4.64121 0
M  V30 7635 H 706.856 -3.45977 2.3368 0
M  V30 7636 H 708.246 -2.45947 6.25268 0
M  V30 7637 N 710.966 -1.44241 -0.634997 0
M  V30 7638 C 712.377 -1.41622 -1.21655 0
M  V30 7639 C 712.728 -0.129584 -1.95772 0
M  V30 7640 O 711.853 0.770225 -2.02229 0
M  V30 7641 C 712.448 -2.56557 -2.21278 0
M  V30 7642 C 711.007 -2.57145 -2.7487 0
M  V30 7643 C 710.154 -2.33354 -1.49804 0
M  V30 7644 H 713.105 -1.52878 -0.425905 0
M  V30 7645 H 713.126 -2.29089 -3.03807 0
M  V30 7646 H 712.638 -3.50186 -1.67306 0
M  V30 7647 H 710.739 -1.67447 -3.32855 0
M  V30 7648 H 710.852 -3.55507 -3.21172 0
M  V30 7649 H 709.216 -1.82372 -1.77799 0
M  V30 7650 H 709.999 -3.29092 -0.977402 0
M  V30 7651 N 712.444 0.87505 -1.31075 0
M  V30 7652 C 713.684 1.64174 -1.21763 0
M  V30 7653 C 714.048 1.90713 0.221933 0
M  V30 7654 O 715.249 2.652 0.438458 0
M  V30 7655 C 713.52 2.93932 -2.0332 0
M  V30 7656 S 715.079 3.84841 -2.10815 0
M  V30 7657 H 711.897 0.563358 -0.433761 0
M  V30 7658 H 714.499 1.03788 -1.65675 0
M  V30 7659 H 713.203 2.72349 -3.07009 0
M  V30 7660 H 712.734 3.59345 -1.60108 0
M  V30 7661 H 714.749 4.80385 -1.24276 0
M  V30 7662 N 713.922 1.13953 1.08869 0
M  V30 7663 C 715.168 0.906151 1.8143 0
M  V30 7664 C 715.501 -0.566089 1.85766 0
M  V30 7665 O 714.776 -1.41915 1.33006 0
M  V30 7666 C 715.059 1.50183 3.27287 0
M  V30 7667 C 714.912 3.04359 3.31189 0
M  V30 7668 C 716.231 1.17477 4.24131 0
M  V30 7669 H 713.35 0.330624 0.658678 0
M  V30 7670 H 715.992 1.40873 1.27495 0
M  V30 7671 H 714.142 1.07442 3.73348 0
M  V30 7672 H 715.814 3.55896 2.93488 0
M  V30 7673 H 714.057 3.39053 2.70602 0
M  V30 7674 H 714.728 3.41141 4.33966 0
M  V30 7675 H 717.204 1.5442 3.86385 0
M  V30 7676 H 716.08 1.61795 5.24513 0
M  V30 7677 H 716.341 0.0893312 4.4201 0
M  V30 7678 N 715.4 -1.26948 0.933913 0
M  V30 7679 C 716.31 -2.30366 0.443671 0
M  V30 7680 C 717.326 -1.67284 -0.478745 0
M  V30 7681 O 718.502 -1.98156 -0.360043 0
M  V30 7682 C 715.567 -3.45485 -0.289974 0
M  V30 7683 C 714.628 -4.24069 0.668114 0
M  V30 7684 C 713.861 -5.33691 -0.0306138 0
M  V30 7685 O 714.084 -5.5656 -1.24888 0
M  V30 7686 O 713.018 -5.98441 0.644384 0
M  V30 7687 H 716.844 -2.74349 1.30254 0
M  V30 7688 H 714.429 -1.32012 0.699506 0
M  V30 7689 H 716.311 -4.15486 -0.70353 0
M  V30 7690 H 714.986 -3.03546 -1.12435 0
M  V30 7691 H 713.893 -3.56579 1.13147 0
M  V30 7692 H 715.226 -4.69739 1.46989 0
M  V30 7693 N 716.879 -0.700114 -1.41195 0
M  V30 7694 C 718.104 -0.240704 -2.05998 0
M  V30 7695 C 718.529 1.10313 -1.52357 0
M  V30 7696 O 717.887 1.69154 -0.652424 0
M  V30 7697 C 717.935 -0.213783 -3.59966 0
M  V30 7698 O 717.039 0.809933 -4.04368 0
M  V30 7699 H 716.38 -0.116471 -0.653705 0
M  V30 7700 H 718.91 -0.956251 -1.80878 0
M  V30 7701 H 718.92 -0.0461852 -4.07974 0
M  V30 7702 H 717.595 -1.19454 -3.98376 0
M  V30 7703 H 716.172 0.611319 -3.67855 0
M  V30 7704 N 718.357 1.51182 -0.445186 0
M  V30 7705 C 719.29 2.24528 0.4077 0
M  V30 7706 C 720.268 1.26778 1.01814 0
M  V30 7707 O 721.452 1.55934 1.05909 0
M  V30 7708 C 718.579 3.00171 1.56892 0
M  V30 7709 C 717.625 4.12641 1.0784 0
M  V30 7710 S 718.458 5.35498 0.014049 0
M  V30 7711 C 719.614 6.14681 1.17975 0
M  V30 7712 H 719.847 2.96522 -0.214987 0
M  V30 7713 H 717.38 1.52681 -0.229781 0
M  V30 7714 H 719.338 3.44349 2.23459 0
M  V30 7715 H 717.999 2.27752 2.16304 0
M  V30 7716 H 717.192 4.64875 1.94698 0
M  V30 7717 H 716.794 3.70765 0.490852 0
M  V30 7718 H 719.086 6.44244 2.09658 0
M  V30 7719 H 720.029 7.04659 0.697222 0
M  V30 7720 H 720.437 5.46299 1.42187 0
M  V30 7721 N 719.835 0.176821 1.56605 0
M  V30 7722 C 720.782 -0.751312 2.18229 0
M  V30 7723 C 721.752 -1.22297 1.12395 0
M  V30 7724 O 722.937 -1.29015 1.40569 0
M  V30 7725 C 720.077 -1.97291 2.83143 0
M  V30 7726 C 719.19 -1.54431 4.03454 0
M  V30 7727 C 718.325 -2.72 4.56278 0
M  V30 7728 C 717.364 -2.25657 5.68986 0
M  V30 7729 N 716.501 -3.36338 6.16296 0
M  V30 7730 H 721.341 -0.219033 2.97194 0
M  V30 7731 H 718.878 -0.0963803 1.46784 0
M  V30 7732 H 720.836 -2.68949 3.1894 0
M  V30 7733 H 719.466 -2.4788 2.06773 0
M  V30 7734 H 718.518 -0.724273 3.73441 0
M  V30 7735 H 719.83 -1.16417 4.85024 0
M  V30 7736 H 718.984 -3.51806 4.94285 0
M  V30 7737 H 717.723 -3.13277 3.73777 0
M  V30 7738 H 716.728 -1.44299 5.30526 0
M  V30 7739 H 717.953 -1.85432 6.53293 0
M  V30 7740 H 715.899 -3.7718 5.36723 0
M  V30 7741 H 715.816 -3.02435 6.9287 0
M  V30 7742 H 717.084 -4.16413 6.58954 0
M  V30 7743 N 721.313 -1.57302 -0.09688 0
M  V30 7744 C 722.59 -1.7701 -0.832272 0
M  V30 7745 C 722.97 -0.758025 -1.97021 0
M  V30 7746 O 722.318 0.213824 -2.27497 0
M  V30 7747 C 722.528 -3.22725 -1.32851 0
M  V30 7748 C 723.876 -3.85856 -1.772 0
M  V30 7749 O 724.9 -3.26464 -1.42478 0
M  V30 7750 O 723.759 -4.90295 -2.41398 0
M  V30 7751 H 720.853 -0.725558 -0.396856 0
M  V30 7752 H 723.399 -1.69516 -0.0789005 0
M  V30 7753 H 722.171 -3.87921 -0.51312 0
M  V30 7754 H 721.794 -3.34845 -2.14394 0
M  V30 7755 N 722.791 0.367657 -1.53252 0
M  V30 7756 C 723.739 1.47061 -1.8021 0
M  V30 7757 C 724.733 1.55539 -0.671112 0
M  V30 7758 O 725.939 1.58451 -0.854014 0
M  V30 7759 H 722.314 0.489868 -0.570555 0
M  V30 7760 H 724.285 1.21527 -2.72532 0
M  V30 7761 C 723.034 2.83924 -2.00706 0
M  V30 7762 H 722.357 2.78158 -2.87172 0
M  V30 7763 H 723.797 3.60281 -2.23547 0
M  V30 7764 C 722.256 3.27613 -0.785568 0
M  V30 7765 O 722.786 4.01691 0.0267459 0
M  V30 7766 N 720.992 2.84134 -0.609597 0
M  V30 7767 H 720.539 2.24017 -1.27178 0
M  V30 7768 H 720.497 3.13723 0.206281 0
M  V30 7769 N 724.269 1.44576 0.627338 0
M  V30 7770 C 725.515 1.47777 1.38888 0
M  V30 7771 C 725.848 0.111406 1.9388 0
M  V30 7772 O 725.123 -0.87149 1.73883 0
M  V30 7773 C 725.406 2.54119 2.55138 0
M  V30 7774 C 725.259 4.00128 2.0547 0
M  V30 7775 C 726.578 2.56929 3.57317 0
M  V30 7776 H 723.697 0.538048 0.50366 0
M  V30 7777 H 726.339 1.76277 0.708978 0
M  V30 7778 H 724.489 2.29948 3.13139 0
M  V30 7779 H 726.161 4.35444 1.5227 0
M  V30 7780 H 724.404 4.11724 1.36623 0
M  V30 7781 H 725.075 4.7019 2.89181 0
M  V30 7782 H 727.551 2.78536 3.09122 0
M  V30 7783 H 726.427 3.33234 4.36173 0
M  V30 7784 H 726.688 1.6127 4.11636 0
M  V30 7785 N 725.747 -0.868086 1.31537 0
M  V30 7786 C 726.677 -1.99131 1.21939 0
M  V30 7787 C 727.658 -1.69768 0.106166 0
M  V30 7788 O 728.843 -1.92006 0.291081 0
M  V30 7789 C 725.973 -3.34676 0.927879 0
M  V30 7790 C 724.927 -3.7835 2.00088 0
M  V30 7791 C 724.253 -5.11375 1.56203 0
M  V30 7792 C 725.553 -3.95256 3.41424 0
M  V30 7793 H 727.247 -2.07419 2.15911 0
M  V30 7794 H 724.793 -0.996569 1.03945 0
M  V30 7795 H 726.746 -4.12793 0.847327 0
M  V30 7796 H 725.47 -3.26565 -0.0475042 0
M  V30 7797 H 724.129 -3.02474 2.07135 0
M  V30 7798 H 723.777 -4.99709 0.57445 0
M  V30 7799 H 723.477 -5.41568 2.27985 0
M  V30 7800 H 725.001 -5.92001 1.49558 0
M  V30 7801 H 726.415 -4.63764 3.3704 0
M  V30 7802 H 724.812 -4.36849 4.1144 0
M  V30 7803 H 725.882 -2.98579 3.82072 0
M  V30 7804 N 727.225 -1.14528 -1.08264 0
M  V30 7805 C 728.641 -0.885976 -1.3275 0
M  V30 7806 C 728.841 0.472096 -1.95892 0
M  V30 7807 O 727.897 1.21606 -2.21288 0
M  V30 7808 C 729.21 -2.01982 -2.22764 0
M  V30 7809 C 730.758 -2.05329 -2.36239 0
M  V30 7810 C 731.233 -3.1801 -3.29596 0
M  V30 7811 N 732.724 -3.17598 -3.37173 0
M  V30 7812 C 733.459 -4.01426 -4.09444 0
M  V30 7813 N 732.955 -4.95297 -4.8441 0
M  V30 7814 N 734.748 -3.89482 -4.0529 0
M  V30 7815 H 726.899 -2.01996 -0.656607 0
M  V30 7816 H 729.162 -0.880274 -0.351884 0
M  V30 7817 H 728.868 -2.99964 -1.83615 0
M  V30 7818 H 728.742 -1.94421 -3.23234 0
M  V30 7819 H 731.129 -1.07953 -2.74646 0
M  V30 7820 H 731.21 -2.1696 -1.35506 0
M  V30 7821 H 730.854 -4.15633 -2.9191 0
M  V30 7822 H 730.784 -3.03616 -4.30261 0
M  V30 7823 H 733.275 -2.4961 -2.83731 0
M  V30 7824 H 733.588 -5.55723 -5.37021 0
M  V30 7825 H 731.933 -4.99293 -4.83457 0
M  V30 7826 H 735.124 -3.15465 -3.45832 0
M  V30 7827 H 735.297 -4.55039 -4.6135 0
M  V30 7828 N 728.703 1.26451 -0.940633 0
M  V30 7829 C 729.98 1.88947 -0.505811 0
M  V30 7830 C 730.36 1.85011 1.01657 0
M  V30 7831 O 729.708 1.30406 1.87634 0
M  V30 7832 C 729.918 3.32304 -1.06654 0
M  V30 7833 C 731.266 4.09153 -1.13486 0
M  V30 7834 O 732.29 3.41371 -1.01708 0
M  V30 7835 O 731.149 5.30369 -1.31797 0
M  V30 7836 H 728.243 0.810422 -0.164759 0
M  V30 7837 H 730.789 1.34625 -1.03316 0
M  V30 7838 H 729.561 3.29527 -2.11015 0
M  V30 7839 H 729.184 3.94164 -0.521603 0
M  V30 7840 N 730.181 0.707592 1.40822 0
M  V30 7841 C 731.597 0.38034 1.55002 0
M  V30 7842 C 731.797 -1.11163 1.68062 0
M  V30 7843 O 730.853 -1.89761 1.66574 0
M  V30 7844 C 732.166 1.1394 2.78277 0
M  V30 7845 C 733.714 1.12492 2.92087 0
M  V30 7846 C 734.189 1.86597 4.18265 0
M  V30 7847 N 735.68 1.83626 4.25248 0
M  V30 7848 C 736.415 2.37794 5.21768 0
M  V30 7849 N 735.911 3.00485 6.24244 0
M  V30 7850 N 737.704 2.27982 5.13791 0
M  V30 7851 H 729.855 1.67511 1.3059 0
M  V30 7852 H 732.118 0.707579 0.630901 0
M  V30 7853 H 731.824 2.19398 2.74877 0
M  V30 7854 H 731.698 0.725793 3.70151 0
M  V30 7855 H 734.085 0.0785564 2.94995 0
M  V30 7856 H 734.166 1.57768 2.01353 0
M  V30 7857 H 733.81 2.91219 4.16118 0
M  V30 7858 H 733.74 1.38746 5.07993 0
M  V30 7859 H 736.231 1.3793 3.51829 0
M  V30 7860 H 736.544 3.39355 6.94304 0
M  V30 7861 H 734.889 3.04567 6.24711 0
M  V30 7862 H 738.08 1.78669 4.3266 0
M  V30 7863 H 738.253 2.70499 5.88841 0
M  V30 7864 N 731.66 -1.50943 0.453197 0
M  V30 7865 C 732.908 -2.01813 -0.107709 0
M  V30 7866 C 733.229 -1.33841 -1.41816 0
M  V30 7867 O 732.499 -0.477973 -1.8998 0
M  V30 7868 H 731.079 -0.745773 -0.0427948 0
M  V30 7869 H 733.741 -1.8545 0.599531 0
M  V30 7870 H 732.837 -3.10911 -0.27218 0
M  V30 7871 N 733.138 -0.185124 -1.56509 0
M  V30 7872 C 734.554 0.170865 -1.58683 0
M  V30 7873 C 734.754 1.61799 -1.20098 0
M  V30 7874 O 733.81 2.35181 -0.919038 0
M  V30 7875 C 735.123 -0.122459 -3.00451 0
M  V30 7876 C 736.671 -0.0617699 -3.12939 0
M  V30 7877 C 737.146 -0.328269 -4.56822 0
M  V30 7878 N 738.637 -0.276533 -4.62374 0
M  V30 7879 C 739.372 -0.456722 -5.71578 0
M  V30 7880 N 738.868 -0.69672 -6.89288 0
M  V30 7881 N 740.661 -0.391669 -5.60734 0
M  V30 7882 H 732.812 -1.12956 -1.79874 0
M  V30 7883 H 735.075 -0.45011 -0.834329 0
M  V30 7884 H 734.781 -1.12546 -3.33206 0
M  V30 7885 H 734.655 0.579578 -3.72721 0
M  V30 7886 H 737.042 0.931826 -2.80002 0
M  V30 7887 H 737.123 -0.796732 -2.43076 0
M  V30 7888 H 736.767 -1.31914 -4.9047 0
M  V30 7889 H 736.697 0.427465 -5.24862 0
M  V30 7890 H 739.188 -0.0972458 -3.77775 0
M  V30 7891 H 739.501 -0.823291 -7.68402 0
M  V30 7892 H 737.846 -0.733497 -6.91119 0
M  V30 7893 H 741.037 -0.204663 -4.67652 0
M  V30 7894 H 741.21 -0.535518 -6.45783 0
M  V30 7895 N 734.616 1.57351 0.0885366 0
M  V30 7896 C 736.027 1.75303 0.642308 0
M  V30 7897 C 736.378 0.808238 1.78779 0
M  V30 7898 O 735.503 -0.01171 2.16397 0
M  V30 7899 C 736.098 3.17885 1.17194 0
M  V30 7900 C 734.657 3.37239 1.67172 0
M  V30 7901 C 733.804 2.7108 0.584045 0
M  V30 7902 H 736.755 1.58103 -0.137567 0
M  V30 7903 H 736.776 3.2112 2.04114 0
M  V30 7904 H 736.288 3.86625 0.338024 0
M  V30 7905 H 734.389 2.73588 2.52943 0
M  V30 7906 H 734.502 4.45594 1.76019 0
M  V30 7907 H 732.866 2.33161 1.02508 0
M  V30 7908 H 733.649 3.42464 -0.239403 0
M  V30 7909 N 736.094 -0.359525 1.53444 0
M  V30 7910 C 737.004 -1.46445 1.83278 0
M  V30 7911 C 738.02 -1.5833 0.721629 0
M  V30 7912 O 739.196 -1.7411 1.01231 0
M  V30 7913 C 736.261 -2.81638 2.02191 0
M  V30 7914 C 735.322 -2.7923 3.26082 0
M  V30 7915 C 734.555 -4.07974 3.44082 0
M  V30 7916 O 734.778 -5.04447 2.66251 0
M  V30 7917 O 733.712 -4.13417 4.37458 0
M  V30 7918 H 737.538 -1.24156 2.77162 0
M  V30 7919 H 735.123 -0.550201 1.389 0
M  V30 7920 H 737.005 -3.61732 2.16167 0
M  V30 7921 H 735.68 -3.03892 1.11496 0
M  V30 7922 H 734.587 -1.97813 3.17523 0
M  V30 7923 H 735.92 -2.6193 4.16718 0
M  V30 7924 N 737.572 -1.44907 -0.619662 0
M  V30 7925 C 738.821 -1.47569 -1.37501 0
M  V30 7926 C 739.134 -0.116707 -1.95252 0
M  V30 7927 O 740.34 -0.020909 -2.71492 0
M  V30 7928 C 738.796 -2.59851 -2.49009 0
M  V30 7929 C 738.404 -4.02008 -1.97722 0
M  V30 7930 C 740.148 -2.71746 -3.2612 0
M  V30 7931 C 738.055 -5.05693 -3.0664 0
M  V30 7932 H 736.985 -0.549068 -0.51676 0
M  V30 7933 H 739.636 -1.71009 -0.665437 0
M  V30 7934 H 738.018 -2.29671 -3.22594 0
M  V30 7935 H 739.192 -4.41809 -1.30925 0
M  V30 7936 H 737.507 -3.94456 -1.33392 0
M  V30 7937 H 740.104 -3.46382 -4.07337 0
M  V30 7938 H 740.447 -1.77959 -3.76346 0
M  V30 7939 H 740.98 -3.01392 -2.5963 0
M  V30 7940 H 737.719 -6.01148 -2.61345 0
M  V30 7941 H 737.239 -4.70473 -3.72042 0
M  V30 7942 H 738.918 -5.29906 -3.71226 0
M  V30 7943 N 739.05 0.861098 -1.31996 0
M  V30 7944 C 740.461 1.43065 -1.19955 0
M  V30 7945 C 740.812 1.95273 0.190489 0
M  V30 7946 O 739.937 1.87012 1.08882 0
M  V30 7947 C 740.532 2.60052 -2.1716 0
M  V30 7948 C 739.091 3.13026 -2.09026 0
M  V30 7949 C 738.238 1.85756 -2.05888 0
M  V30 7950 H 741.189 0.668834 -1.43918 0
M  V30 7951 H 741.21 3.37016 -1.76637 0
M  V30 7952 H 740.722 2.22024 -3.18319 0
M  V30 7953 H 738.823 3.55653 -1.11092 0
M  V30 7954 H 738.936 3.74707 -2.98549 0
M  V30 7955 H 737.3 2.05088 -1.51033 0
M  V30 7956 H 738.083 1.49954 -3.08818 0
M  V30 7957 N 740.528 1.15101 1.07655 0
M  V30 7958 C 741.753 0.948177 1.84457 0
M  V30 7959 C 742.178 -0.498432 1.81376 0
M  V30 7960 O 741.536 -1.35509 1.20445 0
M  V30 7961 C 741.584 1.46318 3.29581 0
M  V30 7962 O 740.688 0.660342 4.07079 0
M  V30 7963 H 740.029 0.338428 0.571281 0
M  V30 7964 H 742.559 1.5301 1.35828 0
M  V30 7965 H 742.569 1.47468 3.80417 0
M  V30 7966 H 741.244 2.51635 3.31138 0
M  V30 7967 H 739.821 0.718216 3.65918 0
M  V30 7968 N 742.006 -1.2595 0.947325 0
M  V30 7969 C 743.253 -1.93463 0.598178 0
M  V30 7970 C 743.581 -1.74271 -0.863705 0
M  V30 7971 O 742.836 -1.07684 -1.63409 0
M  V30 7972 C 743.135 -3.46034 0.894158 0
M  V30 7973 C 742.801 -3.85373 2.3409 0
M  V30 7974 C 741.463 -3.95823 2.73637 0
M  V30 7975 C 743.815 -4.04986 3.2808 0
M  V30 7976 C 741.143 -4.23288 4.06257 0
M  V30 7977 C 743.495 -4.3394 4.60303 0
M  V30 7978 C 742.159 -4.42606 4.99656 0
M  V30 7979 H 741.429 -0.707933 0.218889 0
M  V30 7980 H 744.076 -1.4964 1.19499 0
M  V30 7981 H 742.381 -3.9121 0.214874 0
M  V30 7982 H 744.078 -3.96445 0.602698 0
M  V30 7983 H 740.668 -3.7779 2.02417 0
M  V30 7984 H 744.852 -3.96333 2.9872 0
M  V30 7985 H 740.108 -4.28211 4.36401 0
M  V30 7986 H 744.282 -4.48061 5.33118 0
M  V30 7987 H 741.909 -4.63641 6.02446 0
M  V30 7988 N 743.484 -0.715051 -1.40445 0
M  V30 7989 C 744.73 -0.263528 -2.01686 0
M  V30 7990 C 745.085 1.13052 -1.55683 0
M  V30 7991 O 744.378 1.75588 -0.766762 0
M  V30 7992 C 744.572 -0.281791 -3.56287 0
M  V30 7993 C 744.401 -1.67607 -4.17298 0
M  V30 7994 C 743.171 -2.2836 -4.50755 0
M  V30 7995 C 745.369 -2.62621 -4.42193 0
M  V30 7996 N 743.351 -3.6015 -4.97157 0
M  V30 7997 C 744.722 -3.79116 -4.90582 0
M  V30 7998 C 746.777 -2.60639 -4.24231 0
M  V30 7999 C 745.48 -4.93937 -5.22895 0
M  V30 8000 C 747.506 -3.74587 -4.57644 0
M  V30 8001 C 746.868 -4.89815 -5.06222 0
M  V30 8002 H 742.967 -0.142252 -0.768953 0
M  V30 8003 H 745.551 -0.936732 -1.70685 0
M  V30 8004 H 743.722 0.360975 -3.86719 0
M  V30 8005 H 745.454 0.186393 -4.04271 0
M  V30 8006 H 742.209 -1.80463 -4.3787 0
M  V30 8007 H 742.633 -4.27757 -5.24741 0
M  V30 8008 H 747.275 -1.72759 -3.85894 0
M  V30 8009 H 744.993 -5.82462 -5.60146 0
M  V30 8010 H 748.579 -3.74328 -4.45387 0
M  V30 8011 H 747.459 -5.76525 -5.3159 0
M  V30 8012 N 744.962 1.50701 -0.461195 0
M  V30 8013 C 745.892 2.31182 0.328184 0
M  V30 8014 C 746.873 1.37644 0.999408 0
M  V30 8015 O 748.058 1.66565 0.99848 0
M  V30 8016 C 745.188 3.17113 1.41621 0
M  V30 8017 C 744.142 4.19124 0.867148 0
M  V30 8018 C 743.468 4.93728 2.05272 0
M  V30 8019 C 744.768 5.22174 -0.114808 0
M  V30 8020 H 746.462 2.97423 -0.343501 0
M  V30 8021 H 744.008 1.43033 -0.166641 0
M  V30 8022 H 745.961 3.72208 1.97584 0
M  V30 8023 H 744.685 2.48739 2.11652 0
M  V30 8024 H 743.344 3.65116 0.329557 0
M  V30 8025 H 742.992 4.21835 2.73978 0
M  V30 8026 H 742.692 5.62724 1.69161 0
M  V30 8027 H 744.216 5.51654 2.61744 0
M  V30 8028 H 745.63 5.72198 0.355316 0
M  V30 8029 H 744.027 5.98833 -0.389689 0
M  V30 8030 H 745.097 4.7353 -1.04391 0
M  V30 8031 N 746.441 0.193421 1.56409 0
M  V30 8032 C 747.389 -0.744829 2.20352 0
M  V30 8033 C 748.383 -1.22104 1.17418 0
M  V30 8034 O 749.589 -1.18413 1.35567 0
M  V30 8035 H 745.964 -0.258538 0.70616 0
M  V30 8036 H 747.935 -0.181794 2.97846 0
M  V30 8037 C 746.684 -1.95453 2.87565 0
M  V30 8038 H 746.007 -1.59716 3.66512 0
M  V30 8039 H 747.447 -2.58942 3.35745 0
M  V30 8040 C 745.906 -2.79223 1.8851 0
M  V30 8041 O 746.436 -3.77093 1.38434 0
M  V30 8042 N 744.642 -2.44682 1.56777 0
M  V30 8043 H 744.189 -1.65153 1.97692 0
M  V30 8044 H 744.147 -3.01016 0.907573 0
M  V30 8045 N 747.919 -1.57396 -0.0801906 0
M  V30 8046 C 748.869 -1.9955 -1.10289 0
M  V30 8047 C 749.853 -0.876234 -1.34948 0
M  V30 8048 O 751.045 -1.14012 -1.35389 0
M  V30 8049 C 748.174 -2.43596 -2.419 0
M  V30 8050 C 747.26 -3.6224 -2.20551 0
M  V30 8051 N 747.651 -4.76693 -1.69109 0
M  V30 8052 C 745.949 -3.68627 -2.51059 0
M  V30 8053 C 746.65 -5.58577 -1.62379 0
M  V30 8054 N 745.626 -5.02178 -2.0813 0
M  V30 8055 H 749.428 -2.85483 -0.698335 0
M  V30 8056 H 746.942 -1.59837 -0.287395 0
M  V30 8057 H 748.939 -2.72031 -3.15919 0
M  V30 8058 H 747.599 -1.59047 -2.8308 0
M  V30 8059 H 748.61 -4.9915 -1.38092 0
M  V30 8060 H 745.287 -2.94772 -2.95661 0
M  V30 8061 H 746.677 -6.60447 -1.2353 0
M  V30 8062 N 749.397 0.351382 -1.53633 0
M  V30 8063 C 750.329 1.45159 -1.77374 0
M  V30 8064 C 751.342 1.4905 -0.654826 0
M  V30 8065 O 752.531 1.52274 -0.931396 0
M  V30 8066 C 749.631 2.83858 -1.85143 0
M  V30 8067 C 748.804 3.03498 -3.14972 0
M  V30 8068 C 747.863 4.22393 -3.138 0
M  V30 8069 O 746.889 4.16885 -3.87551 0
M  V30 8070 N 748.091 5.30533 -2.35617 0
M  V30 8071 H 750.856 1.25167 -2.72311 0
M  V30 8072 H 748.417 0.54121 -1.52586 0
M  V30 8073 H 750.409 3.61557 -1.8182 0
M  V30 8074 H 748.979 2.9703 -0.974275 0
M  V30 8075 H 748.199 2.13336 -3.31484 0
M  V30 8076 H 749.487 3.13498 -4.00745 0
M  V30 8077 H 748.885 5.37875 -1.75235 0
M  V30 8078 H 747.442 6.06756 -2.38098 0
M  V30 8079 N 750.875 1.45233 0.611969 0
M  V30 8080 C 752.123 1.48727 1.36838 0
M  V30 8081 C 752.444 0.128616 1.94575 0
M  V30 8082 O 751.714 -0.84149 1.76906 0
M  V30 8083 H 750.294 0.547695 0.507976 0
M  V30 8084 H 752.956 1.81156 0.718925 0
M  V30 8085 H 752.052 2.2236 2.19003 0
M  V30 8086 N 752.353 -0.854086 1.3245 0
M  V30 8087 C 753.602 -1.60318 1.22397 0
M  V30 8088 C 753.915 -1.9444 -0.212664 0
M  V30 8089 O 755.121 -2.67991 -0.435066 0
M  V30 8090 C 753.577 -2.8909 2.1437 0
M  V30 8091 C 753.185 -2.62391 3.63119 0
M  V30 8092 C 754.929 -3.67104 2.13155 0
M  V30 8093 C 752.836 -3.87167 4.47052 0
M  V30 8094 H 751.766 -0.601586 0.454544 0
M  V30 8095 H 754.417 -0.943023 1.57415 0
M  V30 8096 H 752.799 -3.56567 1.72268 0
M  V30 8097 H 753.973 -2.03222 4.13567 0
M  V30 8098 H 752.288 -1.97706 3.66471 0
M  V30 8099 H 754.885 -4.59696 2.731 0
M  V30 8100 H 755.228 -4.00876 1.12268 0
M  V30 8101 H 755.761 -3.06533 2.5354 0
M  V30 8102 H 752.5 -3.58536 5.48755 0
M  V30 8103 H 752.02 -4.45729 4.01355 0
M  V30 8104 H 753.699 -4.549 4.60081 0
M  V30 8105 N 753.831 -1.1567 -1.07043 0
M  V30 8106 C 754.763 -0.814095 -2.14255 0
M  V30 8107 C 755.776 0.175293 -1.61854 0
M  V30 8108 O 756.965 -0.0483984 -1.78434 0
M  V30 8109 C 754.065 -0.190082 -3.38367 0
M  V30 8110 C 753.238 -1.21768 -4.20109 0
M  V30 8111 C 752.297 -0.614863 -5.22595 0
M  V30 8112 O 751.323 -1.28167 -5.54583 0
M  V30 8113 N 752.525 0.601955 -5.77371 0
M  V30 8114 H 755.29 -1.73677 -2.44247 0
M  V30 8115 H 752.851 -1.05301 -1.22977 0
M  V30 8116 H 754.843 0.22604 -4.04068 0
M  V30 8117 H 753.413 0.635992 -3.06062 0
M  V30 8118 H 752.633 -1.81025 -3.50177 0
M  V30 8119 H 753.921 -1.9114 -4.71533 0
M  V30 8120 H 753.319 1.162 -5.53637 0
M  V30 8121 H 751.876 0.96039 -6.44686 0
M  V30 8122 N 755.309 1.25446 -0.953992 0
M  V30 8123 C 756.242 2.24341 -0.417912 0
M  V30 8124 C 757.22 1.54709 0.5004 0
M  V30 8125 O 758.404 1.83414 0.434923 0
M  V30 8126 C 755.531 3.36352 0.398155 0
M  V30 8127 C 754.577 4.24007 -0.460461 0
M  V30 8128 S 755.41 5.00951 -1.89231 0
M  V30 8129 C 756.566 6.1643 -1.08465 0
M  V30 8130 H 756.799 2.69465 -1.25602 0
M  V30 8131 H 754.332 1.34512 -0.758018 0
M  V30 8132 H 756.29 4.01325 0.863059 0
M  V30 8133 H 754.951 2.89813 1.21108 0
M  V30 8134 H 754.144 5.03728 0.165415 0
M  V30 8135 H 753.746 3.63965 -0.860549 0
M  V30 8136 H 756.038 6.76681 -0.333017 0
M  V30 8137 H 756.981 6.8335 -1.85577 0
M  V30 8138 H 757.389 5.61139 -0.615062 0
M  V30 8139 N 756.787 0.722489 1.40064 0
M  V30 8140 C 758.033 0.265371 2.01056 0
M  V30 8141 C 758.366 -1.14062 1.57174 0
M  V30 8142 O 757.641 -1.77514 0.794916 0
M  V30 8143 C 757.924 0.353157 3.58364 0
M  V30 8144 C 757.777 1.79802 4.123 0
M  V30 8145 C 759.096 -0.271677 4.39261 0
M  V30 8146 H 756.215 0.0979002 0.730469 0
M  V30 8147 H 758.857 0.916289 1.66446 0
M  V30 8148 H 757.007 -0.201037 3.87979 0
M  V30 8149 H 758.679 2.40813 3.93455 0
M  V30 8150 H 756.922 2.32348 3.66329 0
M  V30 8151 H 757.593 1.81079 5.21454 0
M  V30 8152 H 760.069 0.200607 4.15616 0
M  V30 8153 H 758.945 -0.179843 5.48605 0
M  V30 8154 H 759.206 -1.35611 4.20787 0
M  V30 8155 N 758.265 -1.50454 0.469181 0
M  V30 8156 C 759.505 -2.04222 -0.0852381 0
M  V30 8157 C 759.869 -1.34357 -1.37158 0
M  V30 8158 O 761.07 -1.78669 -2.00825 0
M  V30 8159 C 759.341 -3.56403 -0.266778 0
M  V30 8160 S 760.9 -4.31811 -0.780028 0
M  V30 8161 H 757.718 -0.7108 -0.0168589 0
M  V30 8162 H 760.32 -1.8487 0.635883 0
M  V30 8163 H 759.024 -4.04807 0.67525 0
M  V30 8164 H 758.555 -3.80106 -1.01407 0
M  V30 8165 H 760.57 -4.51706 -2.05368 0
M  V30 8166 N 759.743 -0.201713 -1.56304 0
M  V30 8167 C 760.653 0.728296 -2.23009 0
M  V30 8168 C 761.669 1.22945 -1.23128 0
M  V30 8169 O 762.845 1.27523 -1.55884 0
M  V30 8170 C 759.91 1.92792 -2.88153 0
M  V30 8171 C 758.971 1.47068 -4.03323 0
M  V30 8172 C 758.204 2.61312 -4.65351 0
M  V30 8173 O 758.427 3.7896 -4.26317 0
M  V30 8174 O 757.361 2.33646 -5.54701 0
M  V30 8175 H 761.187 0.190166 -3.03104 0
M  V30 8176 H 758.772 0.0278725 -1.49374 0
M  V30 8177 H 760.654 2.6289 -3.29343 0
M  V30 8178 H 759.329 2.45452 -2.11033 0
M  V30 8179 H 758.236 0.738299 -3.66742 0
M  V30 8180 H 759.569 0.990666 -4.82127 0
M  V30 8181 N 761.222 1.57436 0.0718424 0
M  V30 8182 C 762.45 1.91474 0.783932 0
M  V30 8183 C 762.865 0.797669 1.71122 0
M  V30 8184 O 762.222 -0.228989 1.81058 0
M  V30 8185 C 762.273 3.25259 1.57761 0
M  V30 8186 O 761.994 4.3267 0.687596 0
M  V30 8187 C 763.495 3.7331 2.3907 0
M  V30 8188 H 760.715 0.632901 0.222885 0
M  V30 8189 H 763.259 2.04457 0.0421262 0
M  V30 8190 H 761.414 3.13804 2.27169 0
M  V30 8191 H 761.828 5.09641 1.23962 0
M  V30 8192 H 763.302 4.69551 2.90216 0
M  V30 8193 H 763.779 3.02318 3.18591 0
M  V30 8194 H 764.385 3.8771 1.74818 0
M  V30 8195 N 762.7 -0.34323 1.53817 0
M  V30 8196 C 763.63 -1.42709 1.84814 0
M  V30 8197 C 764.611 -1.5488 0.703297 0
M  V30 8198 O 765.796 -1.69082 0.955237 0
M  V30 8199 C 762.926 -2.79756 2.05801 0
M  V30 8200 C 761.88 -2.82392 3.21619 0
M  V30 8201 C 761.206 -4.22326 3.2794 0
M  V30 8202 C 762.506 -2.479 4.59721 0
M  V30 8203 H 764.2 -1.17018 2.75585 0
M  V30 8204 H 761.746 -0.561485 1.32602 0
M  V30 8205 H 763.699 -3.55627 2.26069 0
M  V30 8206 H 762.423 -3.06883 1.11761 0
M  V30 8207 H 761.082 -2.08974 3.01207 0
M  V30 8208 H 760.73 -4.46564 2.31494 0
M  V30 8209 H 760.43 -4.25001 4.05768 0
M  V30 8210 H 761.954 -5.00039 3.50419 0
M  V30 8211 H 763.368 -3.13484 4.80001 0
M  V30 8212 H 761.765 -2.61857 5.39954 0
M  V30 8213 H 762.835 -1.43087 4.63308 0
M  V30 8214 N 764.178 -1.45556 -0.604258 0
M  V30 8215 C 765.406 -1.53278 -1.38973 0
M  V30 8216 C 765.821 -0.166509 -1.88064 0
M  V30 8217 O 765.178 0.832519 -1.62405 0
M  V30 8218 C 765.229 -2.51992 -2.59195 0
M  V30 8219 O 764.95 -3.8331 -2.12143 0
M  V30 8220 C 766.451 -2.69445 -3.52015 0
M  V30 8221 H 763.671 -0.519003 -0.425297 0
M  V30 8222 H 766.215 -1.90773 -0.736621 0
M  V30 8223 H 764.37 -2.17561 -3.2054 0
M  V30 8224 H 764.784 -4.3685 -2.90279 0
M  V30 8225 H 766.258 -3.42485 -4.32907 0
M  V30 8226 H 766.735 -1.75596 -4.0257 0
M  V30 8227 H 767.341 -3.04886 -2.9652 0
M  V30 8228 N 765.656 0.84705 -1.32902 0
M  V30 8229 C 766.566 1.98845 -1.2449 0
M  V30 8230 C 767.582 1.7329 -0.15702 0
M  V30 8231 O 768.758 1.978 -0.379104 0
M  V30 8232 C 765.823 3.32679 -0.975985 0
M  V30 8233 C 764.884 3.71405 -2.15306 0
M  V30 8234 C 764.117 4.98853 -1.89688 0
M  V30 8235 O 764.34 5.64134 -0.843168 0
M  V30 8236 O 763.274 5.34889 -2.76002 0
M  V30 8237 H 767.1 2.0888 -2.2046 0
M  V30 8238 H 764.685 0.978852 -1.12867 0
M  V30 8239 H 766.567 4.12885 -0.842826 0
M  V30 8240 H 765.242 3.23667 -0.0464954 0
M  V30 8241 H 764.149 2.91743 -2.34172 0
M  V30 8242 H 765.482 3.85073 -3.06561 0
M  V30 8243 N 767.134 1.16236 1.06428 0
M  V30 8244 C 768.374 0.95369 1.80787 0
M  V30 8245 C 768.738 -0.509495 1.85117 0
M  V30 8246 O 769.939 -0.836822 2.55442 0
M  V30 8247 C 768.21 1.56235 3.21443 0
M  V30 8248 S 769.769 1.49812 4.12434 0
M  V30 8249 H 766.587 0.343004 0.622792 0
M  V30 8250 H 769.189 1.47957 1.27785 0
M  V30 8251 H 767.893 2.62 3.15886 0
M  V30 8252 H 767.424 1.03574 3.79521 0
M  V30 8253 H 769.439 0.49745 4.937 0
M  V30 8254 N 768.612 -1.24939 0.960631 0
M  V30 8255 C 769.858 -1.93425 0.629155 0
M  V30 8256 C 770.213 -1.73784 -0.825635 0
M  V30 8257 O 769.506 -1.07595 -1.58536 0
M  V30 8258 C 769.7 -3.45066 0.930809 0
M  V30 8259 C 769.529 -3.79455 2.41337 0
M  V30 8260 C 768.299 -4.01195 3.07197 0
M  V30 8261 C 770.497 -3.86492 3.39306 0
M  V30 8262 N 768.479 -4.22626 4.45265 0
M  V30 8263 C 769.85 -4.12682 4.62702 0
M  V30 8264 C 771.905 -3.69198 3.34061 0
M  V30 8265 C 770.608 -4.23376 5.81502 0
M  V30 8266 C 772.634 -3.81135 4.52206 0
M  V30 8267 C 771.996 -4.07743 5.74391 0
M  V30 8268 H 768.095 -0.729791 0.280943 0
M  V30 8269 H 770.679 -1.50597 1.23404 0
M  V30 8270 H 768.85 -3.86776 0.354801 0
M  V30 8271 H 770.582 -4.00826 0.558627 0
M  V30 8272 H 767.337 -3.97319 2.5775 0
M  V30 8273 H 767.761 -4.37335 5.16785 0
M  V30 8274 H 772.403 -3.47639 2.40638 0
M  V30 8275 H 770.121 -4.4375 6.75361 0
M  V30 8276 H 773.707 -3.69133 4.49702 0
M  V30 8277 H 772.587 -4.16768 6.64284 0
M  V30 8278 N 770.09 -0.729906 -1.39679 0
M  V30 8279 C 771.367 -0.202149 -1.94553 0
M  V30 8280 C 771.747 1.29507 -1.66707 0
M  V30 8281 O 771.095 2.05819 -0.992517 0
M  V30 8282 C 771.305 -0.530279 -3.44948 0
M  V30 8283 C 772.653 -0.476808 -4.21914 0
M  V30 8284 O 773.677 -0.467171 -3.53123 0
M  V30 8285 O 772.536 -0.466869 -5.44502 0
M  V30 8286 H 769.63 -0.0351644 -0.826252 0
M  V30 8287 H 772.176 -0.808417 -1.49207 0
M  V30 8288 H 770.948 -1.56526 -3.5863 0
M  V30 8289 H 770.571 0.10522 -3.97461 0
M  V30 8290 N 771.568 1.50203 -0.477153 0
M  V30 8291 C 772.518 2.25561 0.332625 0
M  V30 8292 C 773.502 1.29401 0.956249 0
M  V30 8293 O 774.694 1.54267 0.867795 0
M  V30 8294 C 771.823 3.12984 1.41052 0
M  V30 8295 C 770.909 4.16595 0.79433 0
M  V30 8296 N 771.3 5.05722 -0.0889633 0
M  V30 8297 C 769.598 4.33279 1.0576 0
M  V30 8298 C 770.299 5.80039 -0.439286 0
M  V30 8299 N 769.275 5.43278 0.187018 0
M  V30 8300 H 773.077 2.91836 -0.347718 0
M  V30 8301 H 770.591 1.59759 -0.291686 0
M  V30 8302 H 772.588 3.65582 2.00388 0
M  V30 8303 H 771.248 2.48258 2.09279 0
M  V30 8304 H 772.259 5.15869 -0.458205 0
M  V30 8305 H 768.936 3.79769 1.7344 0
M  V30 8306 H 770.326 6.61802 -1.1605 0
M  V30 8307 N 773.046 0.209999 1.56195 0
M  V30 8308 C 774.323 -0.473214 1.89789 0
M  V30 8309 C 774.703 -1.78581 1.1257 0
M  V30 8310 O 774.051 -2.27325 0.231398 0
M  V30 8311 C 774.261 -0.677458 3.42362 0
M  V30 8312 C 775.609 -0.990114 4.12895 0
M  V30 8313 O 776.633 -0.764655 3.47896 0
M  V30 8314 O 775.492 -1.41737 5.278 0
M  V30 8315 H 772.586 -0.248622 0.788743 0
M  V30 8316 H 775.132 0.251324 1.67829 0
M  V30 8317 H 773.904 0.248878 3.90508 0
M  V30 8318 H 773.527 -1.45391 3.70064 0
M  V30 8319 N 774.524 -1.57472 -0.0634922 0
M  V30 8320 C 775.935 -1.76303 -0.614337 0
M  V30 8321 C 776.286 -0.836578 -1.77471 0
M  V30 8322 O 775.411 -0.0227184 -2.16388 0
M  V30 8323 C 776.006 -3.19709 -1.12122 0
M  V30 8324 C 774.565 -3.39856 -1.61786 0
M  V30 8325 C 773.712 -2.71975 -0.540845 0
M  V30 8326 H 776.663 -1.57864 0.162702 0
M  V30 8327 H 776.684 -3.24326 -1.98979 0
M  V30 8328 H 776.196 -3.87114 -0.276472 0
M  V30 8329 H 774.297 -2.77578 -2.48558 0
M  V30 8330 H 774.41 -4.48338 -1.68908 0
M  V30 8331 H 772.774 -2.34763 -0.987854 0
M  V30 8332 H 773.557 -3.4204 0.293856 0
M  V30 8333 N 776.003 0.335068 -1.53997 0
M  V30 8334 C 776.913 1.43511 -1.85585 0
M  V30 8335 C 777.929 1.57162 -0.746726 0
M  V30 8336 O 779.105 1.72477 -1.03988 0
M  V30 8337 C 776.17 2.78386 -2.06646 0
M  V30 8338 C 775.231 2.74007 -3.30483 0
M  V30 8339 C 774.464 4.02449 -3.50529 0
M  V30 8340 O 774.687 5.00147 -2.74242 0
M  V30 8341 O 773.621 4.06405 -4.4398 0
M  V30 8342 H 777.447 1.19731 -2.79102 0
M  V30 8343 H 775.032 0.528033 -1.39758 0
M  V30 8344 H 776.914 3.58247 -2.21894 0
M  V30 8345 H 775.589 3.0208 -1.16317 0
M  V30 8346 H 774.496 1.92736 -3.2063 0
M  V30 8347 H 775.829 2.55267 -4.20832 0
M  V30 8348 N 777.481 1.45874 0.596531 0
M  V30 8349 C 778.444 1.54988 1.68853 0
M  V30 8350 C 779.444 0.428302 1.54991 0
M  V30 8351 O 780.634 0.692158 1.59859 0
M  V30 8352 C 777.766 1.457 3.08195 0
M  V30 8353 H 778.959 2.52294 1.62135 0
M  V30 8354 H 776.512 1.33479 0.813206 0
M  V30 8355 H 777.247 0.496204 3.20481 0
M  V30 8356 H 777.032 2.27061 3.19665 0
M  V30 8357 H 778.522 1.55133 3.87716 0
M  V30 8358 N 778.959 -0.83999 1.33349 0
M  V30 8359 C 780.375 -1.13049 1.12659 0
M  V30 8360 C 780.575 -2.01328 -0.0832613 0
M  V30 8361 O 779.631 -2.40669 -0.763856 0
M  V30 8362 C 780.944 -1.79366 2.41347 0
M  V30 8363 C 782.492 -1.91937 2.47243 0
M  V30 8364 C 782.967 -2.6167 3.75889 0
M  V30 8365 N 784.458 -2.69184 3.76954 0
M  V30 8366 C 785.193 -3.23827 4.73206 0
M  V30 8367 N 784.689 -3.79166 5.79832 0
M  V30 8368 N 786.482 -3.22068 4.60683 0
M  V30 8369 H 778.633 -0.252432 2.10895 0
M  V30 8370 H 780.896 -0.174501 0.931801 0
M  V30 8371 H 780.602 -1.2196 3.29877 0
M  V30 8372 H 780.476 -2.79396 2.53412 0
M  V30 8373 H 782.863 -2.48498 1.59163 0
M  V30 8374 H 782.944 -0.908604 2.39119 0
M  V30 8375 H 782.588 -2.05769 4.64351 0
M  V30 8376 H 782.518 -3.63217 3.81289 0
M  V30 8377 H 785.009 -2.2994 2.99893 0
M  V30 8378 H 785.322 -4.19061 6.49313 0
M  V30 8379 H 783.667 -3.77457 5.83568 0
M  V30 8380 H 786.858 -2.78092 3.7654 0
M  V30 8381 H 787.031 -3.64351 5.35866 0
M  V30 8382 N 780.437 -1.16799 -1.0581 0
M  V30 8383 C 781.367 -0.902241 -2.15364 0
M  V30 8384 C 782.348 0.153351 -1.69407 0
M  V30 8385 O 783.533 0.00442032 -1.94199 0
M  V30 8386 C 780.663 -0.407911 -3.44896 0
M  V30 8387 C 779.617 -1.40197 -4.04387 0
M  V30 8388 C 778.943 -0.765848 -5.29187 0
M  V30 8389 C 780.243 -2.77316 -4.42598 0
M  V30 8390 H 781.937 -1.81841 -2.37853 0
M  V30 8391 H 779.483 -0.875731 -1.14311 0
M  V30 8392 H 781.436 -0.20945 -4.20879 0
M  V30 8393 H 780.16 0.54378 -3.22041 0
M  V30 8394 H 778.819 -1.58707 -3.30466 0
M  V30 8395 H 778.467 0.192482 -5.02632 0
M  V30 8396 H 778.167 -1.42939 -5.69949 0
M  V30 8397 H 779.691 -0.577519 -6.07863 0
M  V30 8398 H 781.105 -2.62561 -5.09642 0
M  V30 8399 H 779.502 -3.4019 -4.94359 0
M  V30 8400 H 780.572 -3.32199 -3.53231 0
M  V30 8401 N 781.915 1.24427 -0.967243 0
M  V30 8402 C 783.143 1.96541 -0.646477 0
M  V30 8403 C 783.558 1.71753 0.783996 0
M  V30 8404 O 782.915 1.00102 1.52597 0
M  V30 8405 C 782.966 3.4983 -0.911098 0
M  V30 8406 O 782.687 3.7377 -2.28534 0
M  V30 8407 C 784.188 4.3916 -0.604458 0
M  V30 8408 H 781.408 0.626129 -0.241255 0
M  V30 8409 H 783.952 1.58268 -1.29505 0
M  V30 8410 H 782.107 3.86168 -0.308741 0
M  V30 8411 H 782.521 4.68154 -2.365 0
M  V30 8412 H 783.995 5.4557 -0.840069 0
M  V30 8413 H 784.472 4.36771 0.461273 0
M  V30 8414 H 785.078 4.08409 -1.1867 0
M  V30 8415 N 783.393 0.737304 1.3929 0
M  V30 8416 C 784.356 0.10731 2.28949 0
M  V30 8417 C 785.356 -0.664716 1.46418 0
M  V30 8418 O 786.546 -0.493392 1.67067 0
M  V30 8419 C 783.678 -0.857145 3.29948 0
M  V30 8420 H 784.871 0.89725 2.86163 0
M  V30 8421 H 782.424 0.503279 1.47976 0
M  V30 8422 H 783.159 -1.67336 2.77794 0
M  V30 8423 H 782.944 -0.306167 3.90903 0
M  V30 8424 H 784.434 -1.29444 3.97031 0
M  V30 8425 N 784.871 -1.49948 0.485112 0
M  V30 8426 C 785.803 -2.26691 -0.338222 0
M  V30 8427 C 786.816 -1.32584 -0.944742 0
M  V30 8428 O 788.005 -1.57989 -0.830772 0
M  V30 8429 C 785.105 -3.04405 -1.48966 0
M  V30 8430 C 784.278 -4.25971 -0.993371 0
M  V30 8431 C 783.337 -4.85861 -2.02052 0
M  V30 8432 O 782.363 -5.46382 -1.59547 0
M  V30 8433 N 783.565 -4.74101 -3.34975 0
M  V30 8434 H 786.33 -2.97989 0.319748 0
M  V30 8435 H 783.891 -1.58772 0.316714 0
M  V30 8436 H 785.883 -3.41348 -2.17403 0
M  V30 8437 H 784.453 -2.35815 -2.05207 0
M  V30 8438 H 783.673 -3.93971 -0.134424 0
M  V30 8439 H 784.961 -5.0476 -0.639934 0
M  V30 8440 H 784.359 -4.26002 -3.72208 0
M  V30 8441 H 782.916 -5.15274 -3.9917 0
M  V30 8442 N 786.349 -0.21828 -1.56081 0
M  V30 8443 C 787.589 0.416193 -2.00118 0
M  V30 8444 C 787.953 1.5718 -1.10265 0
M  V30 8445 O 789.154 2.27206 -1.43635 0
M  V30 8446 C 787.425 0.842781 -3.47321 0
M  V30 8447 S 788.984 1.47182 -4.1338 0
M  V30 8448 H 785.802 0.132219 -0.698598 0
M  V30 8449 H 788.404 -0.326799 -1.92749 0
M  V30 8450 H 787.108 -0.00799925 -4.10399 0
M  V30 8451 H 786.639 1.61867 -3.58556 0
M  V30 8452 H 788.654 2.76087 -4.12299 0
M  V30 8453 N 787.827 1.57504 0.0551401 0
M  V30 8454 C 789.073 1.88334 0.752216 0
M  V30 8455 C 789.406 0.812742 1.76375 0
M  V30 8456 O 788.681 -0.175198 1.93709 0
M  V30 8457 C 788.964 3.29824 1.44528 0
M  V30 8458 C 788.817 4.47553 0.449026 0
M  V30 8459 C 790.136 3.69808 2.38601 0
M  V30 8460 H 787.255 0.684973 0.271995 0
M  V30 8461 H 789.897 1.89994 0.0151895 0
M  V30 8462 H 788.047 3.28539 2.07351 0
M  V30 8463 H 789.719 4.60967 -0.175277 0
M  V30 8464 H 787.962 4.33168 -0.234162 0
M  V30 8465 H 788.633 5.43376 0.971917 0
M  V30 8466 H 791.109 3.72293 1.85842 0
M  V30 8467 H 789.985 4.69665 2.84088 0
M  V30 8468 H 790.246 3.00641 3.24141 0
M  V30 8469 N 789.305 -0.326896 1.54172 0
M  V30 8470 C 790.268 -1.38515 1.8261 0
M  V30 8471 C 791.268 -1.44872 0.697771 0
M  V30 8472 O 792.458 -1.44957 0.966078 0
M  V30 8473 C 789.59 -2.77281 1.98313 0
M  V30 8474 H 790.783 -1.14556 2.77159 0
M  V30 8475 H 788.336 -0.562199 1.45839 0
M  V30 8476 H 789.071 -3.065 1.05964 0
M  V30 8477 H 788.856 -2.74061 2.80416 0
M  V30 8478 H 790.346 -3.53845 2.21773 0
M  V30 8479 N 790.784 -1.46188 -0.588786 0
M  V30 8480 C 791.694 -1.58865 -1.72624 0
M  V30 8481 C 792.71 -0.472348 -1.67466 0
M  V30 8482 O 793.886 -0.735638 -1.87484 0
M  V30 8483 C 790.951 -1.56989 -3.0912 0
M  V30 8484 C 790.012 -2.79804 -3.25589 0
M  V30 8485 C 789.245 -2.78009 -4.55573 0
M  V30 8486 O 789.468 -1.86406 -5.39082 0
M  V30 8487 O 788.402 -3.6947 -4.75159 0
M  V30 8488 H 792.228 -2.55047 -1.64878 0
M  V30 8489 H 789.813 -1.28912 -0.755115 0
M  V30 8490 H 791.695 -1.58618 -3.90408 0
M  V30 8491 H 790.37 -0.639648 -3.17317 0
M  V30 8492 H 789.277 -2.83732 -2.43818 0
M  V30 8493 H 790.61 -3.72017 -3.22279 0
M  V30 8494 N 792.262 0.832906 -1.33792 0
M  V30 8495 C 793.678 1.1245 -1.13257 0
M  V30 8496 C 793.878 2.01369 0.0725832 0
M  V30 8497 O 792.934 2.41071 0.751082 0
M  V30 8498 C 794.247 1.78084 -2.42294 0
M  V30 8499 C 795.795 1.90624 -2.48257 0
M  V30 8500 C 796.27 2.59673 -3.77271 0
M  V30 8501 N 797.761 2.67181 -3.78376 0
M  V30 8502 C 798.496 3.21313 -4.74916 0
M  V30 8503 N 797.992 3.76086 -5.81835 0
M  V30 8504 N 799.785 3.19621 -4.62384 0
M  V30 8505 H 791.936 0.241244 -2.11026 0
M  V30 8506 H 794.199 0.169557 -0.932713 0
M  V30 8507 H 793.905 1.20209 -3.30519 0
M  V30 8508 H 793.779 2.78049 -2.5489 0
M  V30 8509 H 796.166 2.4765 -1.60478 0
M  V30 8510 H 796.247 0.89591 -2.39598 0
M  V30 8511 H 795.891 2.03304 -4.65435 0
M  V30 8512 H 795.821 3.61189 -3.8321 0
M  V30 8513 H 798.312 2.28346 -3.01108 0
M  V30 8514 H 798.625 4.15612 -6.51526 0
M  V30 8515 H 796.97 3.74357 -5.85561 0
M  V30 8516 H 800.161 2.76091 -3.7801 0
M  V30 8517 H 800.334 3.61504 -5.37791 0
M  V30 8518 N 793.74 1.17359 1.05189 0
M  V30 8519 C 794.987 0.961987 1.78191 0
M  V30 8520 C 795.315 -0.509363 1.87712 0
M  V30 8521 O 794.57 -1.39425 1.37329 0
M  V30 8522 C 794.869 1.54821 3.22126 0
M  V30 8523 C 794.535 3.04378 3.32663 0
M  V30 8524 C 793.197 3.45201 3.35246 0
M  V30 8525 C 795.549 4.00387 3.33677 0
M  V30 8526 C 792.877 4.80629 3.36471 0
M  V30 8527 C 795.229 5.35715 3.36441 0
M  V30 8528 C 793.893 5.76002 3.37311 0
M  V30 8529 H 793.163 0.352016 0.652047 0
M  V30 8530 H 795.81 1.46249 1.23627 0
M  V30 8531 H 794.115 0.969432 3.79617 0
M  V30 8532 H 795.812 1.36004 3.77232 0
M  V30 8533 H 792.402 2.71836 3.31366 0
M  V30 8534 H 796.586 3.69906 3.30882 0
M  V30 8535 H 791.842 5.11155 3.35455 0
M  V30 8536 H 796.016 6.09886 3.36173 0
M  V30 8537 H 793.643 6.80919 3.38013 0
M  V30 8538 N 795.218 -1.23913 0.973828 0
M  V30 8539 C 796.443 -1.96735 0.656511 0
M  V30 8540 C 796.868 -1.71682 -0.768571 0
M  V30 8541 O 796.226 -0.984267 -1.52256 0
M  V30 8542 C 796.274 -3.48004 0.944735 0
M  V30 8543 O 795.378 -4.12387 0.0333357 0
M  V30 8544 H 794.719 -0.616119 0.247575 0
M  V30 8545 H 797.249 -1.57525 1.30564 0
M  V30 8546 H 797.259 -3.98424 0.87876 0
M  V30 8547 H 795.934 -3.65567 1.98328 0
M  V30 8548 H 794.511 -3.72585 0.153157 0
M  V30 8549 N 796.696 -0.74468 -1.38897 0
M  V30 8550 C 797.606 -0.112892 -2.34328 0
M  V30 8551 C 798.622 0.71087 -1.58816 0
M  V30 8552 O 799.798 0.637092 -1.91058 0
M  V30 8553 C 796.863 0.776417 -3.37894 0
M  V30 8554 C 795.924 -0.0606999 -4.29257 0
M  V30 8555 C 795.157 0.786258 -5.27877 0
M  V30 8556 O 795.38 2.02463 -5.33259 0
M  V30 8557 O 794.314 0.209781 -6.01534 0
M  V30 8558 H 798.14 -0.900801 -2.90033 0
M  V30 8559 H 795.725 -0.505462 -1.4059 0
M  V30 8560 H 797.607 1.28496 -4.01331 0
M  V30 8561 H 796.282 1.54297 -2.84559 0
M  V30 8562 H 795.189 -0.614984 -3.69011 0
M  V30 8563 H 796.522 -0.789702 -4.85824 0
M  V30 8564 N 798.174 1.49689 -0.493057 0
M  V30 8565 C 799.104 2.31826 0.279073 0
M  V30 8566 C 800.085 1.39733 0.969987 0
M  V30 8567 O 801.27 1.68646 0.962925 0
M  V30 8568 C 798.4 3.20046 1.34862 0
M  V30 8569 C 797.354 4.20869 0.77805 0
M  V30 8570 C 796.68 4.97971 1.94753 0
M  V30 8571 C 797.98 5.21813 -0.225543 0
M  V30 8572 H 799.674 2.96627 -0.406512 0
M  V30 8573 H 797.22 1.42647 -0.196943 0
M  V30 8574 H 799.173 3.76315 1.89645 0
M  V30 8575 H 797.897 2.53172 2.06328 0
M  V30 8576 H 796.556 3.65733 0.252036 0
M  V30 8577 H 796.204 4.27552 2.64969 0
M  V30 8578 H 795.904 5.66186 1.57187 0
M  V30 8579 H 797.428 5.57082 2.49984 0
M  V30 8580 H 798.842 5.72823 0.233864 0
M  V30 8581 H 797.239 5.97872 -0.516622 0
M  V30 8582 H 798.309 4.71209 -1.14412 0
M  V30 8583 N 799.652 0.226554 1.55963 0
M  V30 8584 C 800.562 -0.692725 2.24139 0
M  V30 8585 C 801.578 -1.20971 1.25068 0
M  V30 8586 O 802.754 -1.25027 1.57893 0
M  V30 8587 C 799.819 -1.88183 2.91184 0
M  V30 8588 C 798.88 -1.40633 4.05612 0
M  V30 8589 C 798.113 -2.53875 4.6945 0
M  V30 8590 O 798.336 -3.72129 4.32292 0
M  V30 8591 O 797.27 -2.24792 5.58348 0
M  V30 8592 H 801.096 -0.141921 3.03368 0
M  V30 8593 H 798.681 -0.0041049 1.49399 0
M  V30 8594 H 800.563 -2.57617 3.33484 0
M  V30 8595 H 799.238 -2.42064 2.14911 0
M  V30 8596 H 798.145 -0.67986 3.67871 0
M  V30 8597 H 799.478 -0.913838 4.83642 0
M  V30 8598 N 801.13 -1.57531 -0.0467866 0
M  V30 8599 C 802.08 -2.01845 -1.06031 0
M  V30 8600 C 803.064 -0.904662 -1.33059 0
M  V30 8601 O 804.256 -1.16858 -1.32941 0
M  V30 8602 C 801.385 -2.48673 -2.36679 0
M  V30 8603 C 800.471 -3.66837 -2.12818 0
M  V30 8604 N 800.862 -4.80172 -1.5896 0
M  V30 8605 C 799.16 -3.73869 -2.43183 0
M  V30 8606 C 799.861 -5.61895 -1.50494 0
M  V30 8607 N 798.837 -5.0648 -1.97431 0
M  V30 8608 H 802.639 -2.869 -0.637623 0
M  V30 8609 H 800.153 -1.6041 -0.253427 0
M  V30 8610 H 802.15 -2.78671 -3.10077 0
M  V30 8611 H 800.81 -1.65016 -2.79642 0
M  V30 8612 H 801.821 -5.01967 -1.27474 0
M  V30 8613 H 798.498 -3.00977 -2.89342 0
M  V30 8614 H 799.888 -6.62918 -1.09494 0
M  V30 8615 N 802.608 0.318715 -1.54344 0
M  V30 8616 C 803.538 1.39751 -1.87061 0
M  V30 8617 C 804.519 1.53741 -0.727848 0
M  V30 8618 O 805.704 1.67541 -0.982016 0
M  V30 8619 C 802.834 2.76446 -2.10226 0
M  V30 8620 C 801.788 2.77239 -3.26071 0
M  V30 8621 C 801.114 4.17056 -3.34617 0
M  V30 8622 C 802.414 2.40555 -4.63606 0
M  V30 8623 H 804.108 1.12619 -2.77412 0
M  V30 8624 H 801.654 0.540318 -1.33479 0
M  V30 8625 H 803.607 3.51985 -2.31699 0
M  V30 8626 H 802.331 3.05066 -1.16629 0
M  V30 8627 H 800.99 2.04155 -3.04493 0
M  V30 8628 H 800.638 4.42824 -2.3857 0
M  V30 8629 H 800.338 4.18492 -4.12478 0
M  V30 8630 H 801.862 4.94401 -3.5833 0
M  V30 8631 H 803.276 3.05808 -4.84927 0
M  V30 8632 H 801.673 2.53234 -5.44052 0
M  V30 8633 H 802.743 1.35698 -4.65526 0
M  V30 8634 N 804.086 1.46499 0.581025 0
M  V30 8635 C 805.363 1.42372 1.34125 0
M  V30 8636 C 805.743 0.108073 2.10823 0
M  V30 8637 O 805.091 -0.910366 2.09582 0
M  V30 8638 C 805.301 2.65445 2.26583 0
M  V30 8639 C 806.649 3.11664 2.88359 0
M  V30 8640 O 807.673 2.66006 2.36896 0
M  V30 8641 O 806.532 3.90974 3.81839 0
M  V30 8642 H 803.626 0.566262 0.602724 0
M  V30 8643 H 806.172 1.58667 0.601903 0
M  V30 8644 H 804.944 3.52756 1.69348 0
M  V30 8645 H 804.567 2.51618 3.07854 0
M  V30 8646 N 805.565 -0.825799 1.34232 0
M  V30 8647 C 806.981 -1.11848 1.13851 0
M  V30 8648 C 807.181 -2.01405 -0.0619031 0
M  V30 8649 O 806.237 -2.41465 -0.738287 0
M  V30 8650 C 807.55 -1.76797 2.43235 0
M  V30 8651 C 809.098 -1.89304 2.49265 0
M  V30 8652 C 809.573 -2.57669 3.78643 0
M  V30 8653 N 811.064 -2.65171 3.79788 0
M  V30 8654 C 811.799 -3.1879 4.76614 0
M  V30 8655 N 811.295 -3.72995 5.83821 0
M  V30 8656 N 813.088 -3.17164 4.64073 0
M  V30 8657 H 805.239 -0.230049 2.11151 0
M  V30 8658 H 807.502 -0.164609 0.9336 0
M  V30 8659 H 807.208 -1.18455 3.31152 0
M  V30 8660 H 807.082 -2.76693 2.56361 0
M  V30 8661 H 809.469 -2.46796 1.6179 0
M  V30 8662 H 809.55 -0.883191 2.4007 0
M  V30 8663 H 809.194 -2.00833 4.66507 0
M  V30 8664 H 809.124 -3.59152 3.8512 0
M  V30 8665 H 811.615 -2.26746 3.02315 0
M  V30 8666 H 811.928 -4.12151 6.53721 0
M  V30 8667 H 810.273 -3.71246 5.87538 0
M  V30 8668 H 813.464 -2.74082 3.79469 0
M  V30 8669 H 813.637 -3.58647 5.397 0
M  V30 8670 N 807.043 -1.17915 -1.04565 0
M  V30 8671 C 807.973 -0.925033 -2.14395 0
M  V30 8672 C 808.954 0.135375 -1.6956 0
M  V30 8673 O 810.139 -0.0161774 -1.94193 0
M  V30 8674 C 807.269 -0.444469 -3.44444 0
M  V30 8675 C 806.223 -1.44478 -4.02877 0
M  V30 8676 C 805.549 -0.821933 -5.28345 0
M  V30 8677 C 806.849 -2.81995 -4.39632 0
M  V30 8678 H 808.543 -1.84354 -2.35911 0
M  V30 8679 H 806.089 -0.887806 -1.13375 0
M  V30 8680 H 808.042 -0.254078 -4.20633 0
M  V30 8681 H 806.766 0.509592 -3.226 0
M  V30 8682 H 805.425 -1.62203 -3.28764 0
M  V30 8683 H 805.073 0.139161 -5.02807 0
M  V30 8684 H 804.773 -1.48976 -5.68401 0
M  V30 8685 H 806.297 -0.641959 -6.07216 0
M  V30 8686 H 807.711 -2.67952 -5.06828 0
M  V30 8687 H 806.108 -3.45414 -4.90723 0
M  V30 8688 H 807.178 -3.35927 -3.49687 0
M  V30 8689 N 808.521 1.23394 -0.980386 0
M  V30 8690 C 809.746 1.96384 -0.666935 0
M  V30 8691 C 810.171 1.72087 0.759456 0
M  V30 8692 O 809.529 0.992328 1.51732 0
M  V30 8693 C 809.577 3.47499 -0.963177 0
M  V30 8694 O 808.681 4.12363 -0.0552051 0
M  V30 8695 H 808.022 0.614797 -0.250839 0
M  V30 8696 H 810.552 1.56831 -1.31398 0
M  V30 8697 H 810.562 3.97953 -0.899877 0
M  V30 8698 H 809.237 3.6451 -2.00264 0
M  V30 8699 H 807.814 3.72499 -0.172914 0
M  V30 8700 N 809.999 0.752036 1.385 0
M  V30 8701 C 811.247 0.306895 1.99756 0
M  V30 8702 C 811.568 -1.11478 1.59992 0
M  V30 8703 O 810.838 -1.76206 0.856045 0
M  V30 8704 H 809.418 0.11048 0.738785 0
M  V30 8705 H 812.08 0.965785 1.69289 0
M  V30 8706 H 811.176 0.368797 3.09913 0
M  V30 8707 N 811.477 -1.49425 0.500989 0
M  V30 8708 C 812.893 -1.58826 0.156951 0
M  V30 8709 C 813.093 -1.50622 -1.33848 0
M  V30 8710 O 812.149 -1.38016 -2.11442 0
M  V30 8711 C 813.462 -2.91611 0.73374 0
M  V30 8712 C 815.01 -3.05076 0.699846 0
M  V30 8713 C 815.485 -4.40479 1.2547 0
M  V30 8714 N 816.976 -4.4697 1.2154 0
M  V30 8715 C 817.711 -5.50189 1.6149 0
M  V30 8716 N 817.207 -6.60512 2.09034 0
M  V30 8717 N 819 -5.40903 1.52907 0
M  V30 8718 H 811.151 -1.53001 1.47324 0
M  V30 8719 H 813.414 -0.724765 0.61108 0
M  V30 8720 H 813.12 -3.03182 1.78251 0
M  V30 8721 H 812.994 -3.767 0.19417 0
M  V30 8722 H 815.381 -2.93134 -0.340085 0
M  V30 8723 H 815.462 -2.2167 1.27656 0
M  V30 8724 H 815.106 -4.53172 2.29341 0
M  V30 8725 H 815.036 -5.22524 0.653921 0
M  V30 8726 H 817.527 -3.67819 0.867043 0
M  V30 8727 H 817.84 -7.35372 2.37588 0
M  V30 8728 H 816.185 -6.61553 2.13008 0
M  V30 8729 H 819.376 -4.53606 1.15583 0
M  V30 8730 H 819.549 -6.21219 1.84365 0
M  V30 8731 N 812.955 -0.234822 -1.55841 0
M  V30 8732 C 814.18 0.400741 -2.03492 0
M  V30 8733 C 814.605 1.51618 -1.11327 0
M  V30 8734 O 813.963 1.81002 -0.103922 0
M  V30 8735 C 814.011 0.897184 -3.49261 0
M  V30 8736 O 813.115 2.00764 -3.60233 0
M  V30 8737 H 812.456 0.0890023 -0.658008 0
M  V30 8738 H 814.986 -0.357345 -2.01455 0
M  V30 8739 H 814.996 1.20356 -3.89844 0
M  V30 8740 H 813.671 0.0808639 -4.15821 0
M  V30 8741 H 812.248 1.70689 -3.31541 0
M  V30 8742 N 814.433 1.57553 0.0384317 0
M  V30 8743 C 815.673 1.90687 0.736069 0
M  V30 8744 C 816.037 0.832381 1.73019 0
M  V30 8745 O 817.238 1.04777 2.47538 0
M  V30 8746 C 815.509 3.28994 1.39635 0
M  V30 8747 S 817.068 3.83944 2.12444 0
M  V30 8748 H 813.886 0.667799 0.244059 0
M  V30 8749 H 816.488 1.95498 -0.00901643 0
M  V30 8750 H 815.192 4.05067 0.659465 0
M  V30 8751 H 814.723 3.27463 2.18018 0
M  V30 8752 H 816.738 3.61916 3.39457 0
M  V30 8753 N 815.911 -0.310526 1.54511 0
M  V30 8754 C 817.136 -1.07046 1.7764 0
M  V30 8755 C 817.561 -1.80488 0.529696 0
M  V30 8756 O 816.919 -1.73702 -0.519361 0
M  V30 8757 C 816.967 -2.03411 2.97752 0
M  V30 8758 O 816.071 -3.11545 2.7021 0
M  V30 8759 H 815.412 -0.307994 0.588248 0
M  V30 8760 H 817.942 -0.350848 2.01569 0
M  V30 8761 H 817.952 -2.46048 3.2546 0
M  V30 8762 H 816.627 -1.49361 3.88155 0
M  V30 8763 H 815.204 -2.7349 2.53491 0
M  V30 8764 N 817.389 -1.46805 -0.573248 0
M  V30 8765 C 818.299 -1.60687 -1.70929 0
M  V30 8766 C 819.315 -0.490084 -1.66956 0
M  V30 8767 O 820.491 -0.755482 -1.86693 0
M  V30 8768 C 817.556 -1.60259 -3.07438 0
M  V30 8769 C 816.617 -2.83242 -3.22603 0
M  V30 8770 C 815.85 -2.82825 -4.52599 0
M  V30 8771 O 816.073 -1.92113 -5.37074 0
M  V30 8772 O 815.007 -3.74489 -4.71213 0
M  V30 8773 H 818.833 -2.56782 -1.62163 0
M  V30 8774 H 816.418 -1.29706 -0.741399 0
M  V30 8775 H 818.3 -1.6275 -3.88704 0
M  V30 8776 H 816.975 -0.673268 -3.16621 0
M  V30 8777 H 815.882 -2.86302 -2.40794 0
M  V30 8778 H 817.215 -3.75415 -3.18315 0
M  V30 8779 N 818.867 0.818669 -1.34668 0
M  V30 8780 C 819.777 1.9616 -1.2868 0
M  V30 8781 C 820.793 1.72918 -0.193742 0
M  V30 8782 O 821.969 1.96951 -0.420975 0
M  V30 8783 C 819.034 3.30534 -1.04633 0
M  V30 8784 C 818.095 3.66755 -2.23136 0
M  V30 8785 C 817.328 4.94717 -2.00227 0
M  V30 8786 O 817.551 5.62218 -0.96264 0
M  V30 8787 O 816.485 5.28915 -2.87286 0
M  V30 8788 H 820.311 2.04157 -2.24842 0
M  V30 8789 H 817.896 0.954691 -1.14917 0
M  V30 8790 H 819.778 4.11005 -0.930216 0
M  V30 8791 H 818.453 3.23495 -0.115139 0
M  V30 8792 H 817.36 2.8671 -2.40308 0
M  V30 8793 H 818.693 3.78484 -3.1466 0
M  V30 8794 N 820.346 1.18468 1.03938 0
M  V30 8795 C 821.293 0.912859 2.1198 0
M  V30 8796 C 822.263 -0.14824 1.65437 0
M  V30 8797 O 823.448 -0.008331 1.90798 0
M  V30 8798 C 820.588 0.446114 3.42204 0
M  V30 8799 C 819.701 1.57278 4.02353 0
M  V30 8800 C 818.836 1.05863 5.20544 0
M  V30 8801 C 817.875 2.1599 5.72726 0
M  V30 8802 N 817.012 1.65959 6.82204 0
M  V30 8803 H 821.852 1.83798 2.34569 0
M  V30 8804 H 819.389 0.916504 1.15059 0
M  V30 8805 H 821.347 0.15697 4.16905 0
M  V30 8806 H 819.977 -0.442025 3.19759 0
M  V30 8807 H 819.029 1.97737 3.24968 0
M  V30 8808 H 820.341 2.40289 4.37107 0
M  V30 8809 H 819.495 0.724087 6.02364 0
M  V30 8810 H 818.234 0.198116 4.87297 0
M  V30 8811 H 817.239 2.50287 4.89527 0
M  V30 8812 H 818.464 3.02479 6.08016 0
M  V30 8813 H 816.41 0.82199 6.5083 0
M  V30 8814 H 816.327 2.42567 7.16029 0
M  V30 8815 H 817.595 1.35436 7.67644 0
M  V30 8816 N 821.824 -1.22873 0.986916 0
M  V30 8817 C 823.073 -1.90772 0.654911 0
M  V30 8818 C 823.386 -1.77768 -0.81595 0
M  V30 8819 O 824.592 -2.40529 -1.25929 0
M  V30 8820 C 823.048 -3.42003 1.12081 0
M  V30 8821 C 822.656 -3.63655 2.61647 0
M  V30 8822 C 824.4 -4.15638 0.862854 0
M  V30 8823 C 822.307 -5.08555 3.01871 0
M  V30 8824 H 821.237 -0.714362 0.241252 0
M  V30 8825 H 823.888 -1.39196 1.19568 0
M  V30 8826 H 822.27 -3.92725 0.508207 0
M  V30 8827 H 823.444 -3.2345 3.28202 0
M  V30 8828 H 821.759 -3.03341 2.8526 0
M  V30 8829 H 824.356 -5.22425 1.13915 0
M  V30 8830 H 824.699 -4.15814 -0.201036 0
M  V30 8831 H 825.232 -3.70924 1.43736 0
M  V30 8832 H 821.971 -5.13514 4.07411 0
M  V30 8833 H 821.491 -5.49684 2.40015 0
M  V30 8834 H 823.17 -5.76936 2.92839 0
M  V30 8835 N 823.302 -0.75937 -1.38099 0
M  V30 8836 C 824.713 -0.385078 -1.82686 0
M  V30 8837 C 825.064 1.0871 -1.6333 0
M  V30 8838 O 824.189 1.84084 -1.13762 0
M  V30 8839 C 824.784 -0.692161 -3.31654 0
M  V30 8840 C 823.343 -0.371077 -3.74566 0
M  V30 8841 C 822.49 -0.942375 -2.60796 0
M  V30 8842 H 825.441 -0.955048 -1.26746 0
M  V30 8843 H 825.462 0.0276001 -3.8049 0
M  V30 8844 H 824.974 -1.76369 -3.4571 0
M  V30 8845 H 823.075 0.693637 -3.66087 0
M  V30 8846 H 823.188 -0.870672 -4.71122 0
M  V30 8847 H 821.552 -0.367383 -2.52036 0
M  V30 8848 H 822.335 -2.01905 -2.77649 0
M  V30 8849 N 824.78 1.49157 -0.508906 0
M  V30 8850 C 825.69 2.33045 0.269656 0
M  V30 8851 C 826.706 1.45143 0.959662 0
M  V30 8852 O 827.882 1.78155 0.939295 0
M  V30 8853 C 824.947 3.20772 1.31554 0
M  V30 8854 C 824.008 4.24531 0.638131 0
M  V30 8855 C 823.241 5.08065 1.63418 0
M  V30 8856 O 823.464 4.93238 2.86483 0
M  V30 8857 O 822.398 5.90117 1.18516 0
M  V30 8858 H 826.224 3.00821 -0.417183 0
M  V30 8859 H 823.809 1.46938 -0.270119 0
M  V30 8860 H 825.691 3.75095 1.92047 0
M  V30 8861 H 824.366 2.55681 1.98516 0
M  V30 8862 H 823.273 3.74099 -0.00674357 0
M  V30 8863 H 824.606 4.92199 0.0108155 0
M  V30 8864 N 826.258 0.243083 1.55714 0
M  V30 8865 C 827.535 -0.432851 1.90751 0
M  V30 8866 C 827.915 -1.76153 1.16333 0
M  V30 8867 O 827.263 -2.26783 0.279565 0
M  V30 8868 C 827.473 -0.604685 3.43722 0
M  V30 8869 C 828.821 -0.90231 4.14902 0
M  V30 8870 O 829.845 -0.690689 3.49439 0
M  V30 8871 O 828.704 -1.3051 5.30688 0
M  V30 8872 H 825.798 -0.231835 0.79384 0
M  V30 8873 H 828.344 0.286867 1.67258 0
M  V30 8874 H 827.116 0.331655 3.89892 0
M  V30 8875 H 826.739 -1.37509 3.73065 0
M  V30 8876 N 827.736 -1.57571 -0.0300757 0
M  V30 8877 C 828.984 -1.88852 -0.719666 0
M  V30 8878 C 829.305 -0.840645 -1.75949 0
M  V30 8879 O 828.575 0.125854 -1.95495 0
M  V30 8880 H 827.155 -0.696965 -0.268792 0
M  V30 8881 H 829.817 -1.949 0.00373285 0
M  V30 8882 H 828.913 -2.87695 -1.20987 0
M  V30 8883 N 829.214 0.302327 -1.54673 0
M  V30 8884 C 830.439 1.06103 -1.78205 0
M  V30 8885 C 830.864 1.80204 -0.53926 0
M  V30 8886 O 830.222 1.73975 0.510142 0
M  V30 8887 C 830.27 2.01829 -2.98827 0
M  V30 8888 O 829.374 3.10108 -2.71858 0
M  V30 8889 H 828.715 0.30487 -0.589873 0
M  V30 8890 H 831.245 0.340153 -2.01753 0
M  V30 8891 H 831.255 2.44319 -3.2676 0
M  V30 8892 H 829.93 1.473 -3.88942 0
M  V30 8893 H 828.507 2.72142 -2.54937 0
M  V30 8894 N 830.692 1.47107 0.565454 0
M  V30 8895 C 831.622 1.61846 1.68309 0
M  V30 8896 C 832.603 0.468159 1.63531 0
M  V30 8897 O 833.788 0.696504 1.8128 0
M  V30 8898 C 830.918 1.62474 3.06952 0
M  V30 8899 C 829.872 2.76649 3.26572 0
M  V30 8900 C 829.198 2.62345 4.65917 0
M  V30 8901 C 830.498 4.18319 3.12741 0
M  V30 8902 H 832.192 2.55407 1.5623 0
M  V30 8903 H 829.738 1.22916 0.750179 0
M  V30 8904 H 831.691 1.71378 3.84977 0
M  V30 8905 H 830.415 0.654692 3.19971 0
M  V30 8906 H 829.074 2.67242 2.50952 0
M  V30 8907 H 828.722 1.63386 4.75725 0
M  V30 8908 H 828.422 3.38936 4.79996 0
M  V30 8909 H 829.946 2.73165 5.46089 0
M  V30 8910 H 831.36 4.28745 3.80593 0
M  V30 8911 H 829.757 4.95632 3.38333 0
M  V30 8912 H 830.827 4.37263 2.09592 0
M  V30 8913 N 832.17 -0.811516 1.35101 0
M  V30 8914 C 833.118 -1.94449 1.27642 0
M  V30 8915 C 834.112 -1.68522 0.172287 0
M  V30 8916 O 835.318 -1.76799 0.337967 0
M  V30 8917 H 831.693 -0.638776 0.396824 0
M  V30 8918 H 833.664 -1.97861 2.23369 0
M  V30 8919 C 832.413 -3.31139 1.06029 0
M  V30 8920 H 831.736 -3.51644 1.90227 0
M  V30 8921 H 833.176 -4.10831 1.0485 0
M  V30 8922 C 831.635 -3.36072 -0.236039 0
M  V30 8923 O 832.165 -3.82292 -1.23353 0
M  V30 8924 N 830.371 -2.89314 -0.273107 0
M  V30 8925 H 829.918 -2.51893 0.539211 0
M  V30 8926 H 829.876 -2.92996 -1.1402 0
M  V30 8927 N 833.648 -1.19017 -1.03309 0
M  V30 8928 C 834.876 -1.01534 -1.80273 0
M  V30 8929 C 835.291 0.43605 -1.83696 0
M  V30 8930 O 834.648 1.30288 -1.27794 0
M  V30 8931 C 834.699 -1.5722 -3.25522 0
M  V30 8932 O 834.42 -2.96677 -3.22358 0
M  V30 8933 C 835.921 -1.4446 -4.19102 0
M  V30 8934 H 833.141 -0.358094 -0.567459 0
M  V30 8935 H 835.685 -1.57738 -1.3015 0
M  V30 8936 H 833.84 -1.05174 -3.7285 0
M  V30 8937 H 834.254 -3.22795 -4.13405 0
M  V30 8938 H 835.728 -1.88209 -5.18923 0
M  V30 8939 H 836.205 -0.394471 -4.37425 0
M  V30 8940 H 836.811 -1.95616 -3.77643 0
M  V30 8941 N 835.127 1.22348 -0.993418 0
M  V30 8942 C 836.355 1.95125 -0.688021 0
M  V30 8943 C 836.77 1.73377 0.747388 0
M  V30 8944 O 836.127 1.03317 1.50439 0
M  V30 8945 C 836.178 3.47819 -0.985097 0
M  V30 8946 O 835.899 3.68838 -2.3641 0
M  V30 8947 C 837.4 4.37779 -0.697474 0
M  V30 8948 H 834.62 0.62087 -0.254481 0
M  V30 8949 H 837.164 1.55485 -1.32833 0
M  V30 8950 H 835.319 3.85426 -0.390583 0
M  V30 8951 H 835.733 4.63032 -2.46377 0
M  V30 8952 H 837.207 5.43666 -0.955604 0
M  V30 8953 H 837.684 4.37651 0.368524 0
M  V30 8954 H 838.29 4.05799 -1.27306 0
M  V30 8955 N 836.605 0.766683 1.37694 0
M  V30 8956 C 837.552 0.147725 2.30327 0
M  V30 8957 C 838.522 -0.695366 1.50844 0
M  V30 8958 O 839.707 -0.64878 1.79431 0
M  V30 8959 C 836.847 -0.72935 3.37305 0
M  V30 8960 C 835.96 0.129795 4.31805 0
M  V30 8961 C 835.095 -0.751511 5.25857 0
M  V30 8962 C 834.134 0.110475 6.12 0
M  V30 8963 N 833.271 -0.728522 6.9831 0
M  V30 8964 H 838.111 0.943204 2.82679 0
M  V30 8965 H 835.648 0.476736 1.3916 0
M  V30 8966 H 837.606 -1.25263 3.97951 0
M  V30 8967 H 836.236 -1.49048 2.86329 0
M  V30 8968 H 835.288 0.770829 3.72508 0
M  V30 8969 H 836.6 0.794923 4.92425 0
M  V30 8970 H 835.754 -1.34146 5.91684 0
M  V30 8971 H 834.493 -1.45034 4.65636 0
M  V30 8972 H 833.498 0.712999 5.45157 0
M  V30 8973 H 834.723 0.806557 6.74293 0
M  V30 8974 H 832.669 -1.41206 6.40622 0
M  V30 8975 H 832.586 -0.12058 7.55904 0
M  V30 8976 H 833.854 -1.30303 7.68532 0
M  V30 8977 O 838.122 -1.47474 0.658306 0
M  V30 8978 H 838.813 -1.92811 0.185369 0
M  V30 END ATOM
M  V30 BEGIN BOND
M  V30 END BOND
M  V30 END CTAB
M  END
$$$$
