drugbank_target|P13299 Intron-associated endonuclease 1 (DB04272)
 OpenBabel12092120263D

  0  0  0     0  0            999 V3000
M  V30 BEGIN CTAB
M  V30 COUNTS 3988 4031 0 0 0
M  V30 BEGIN ATOM
M  V30 1 H -0.908 1.98254 -0.117106 0
M  V30 2 N 0 1.576 0 0
M  V30 3 C 0.933 2.03868 1.02534 0
M  V30 4 C 1.911 0.928543 1.3348 0
M  V30 5 O 3.095 1.19667 1.45644 0
M  V30 6 C 0.222 2.43627 2.35294 0
M  V30 7 C -0.732 3.65373 2.2001 0
M  V30 8 S 0.101 5.13292 1.52614 0
M  V30 9 C 1.257 5.56322 2.86805 0
M  V30 10 H 1.49 2.90518 0.631377 0
M  V30 11 H -0.977 1.52953 0.210867 0
M  V30 12 H 0.981 2.67203 3.11629 0
M  V30 13 H -0.358 1.57376 2.7183 0
M  V30 14 H -1.165 3.90944 3.18086 0
M  V30 15 H -1.563 3.418 1.51819 0
M  V30 16 H 0.729 5.58782 3.83104 0
M  V30 17 H 1.672 6.56266 2.65933 0
M  V30 18 H 2.08 4.83886 2.90714 0
M  V30 19 N 1.4781 -0.272755 1.55222 0
M  V30 20 C 2.4251 -1.33716 1.88119 0
M  V30 21 C 3.3951 -1.49066 0.73271 0
M  V30 22 O 4.5801 -1.63469 0.984002 0
M  V30 23 C 1.7201 -2.69238 2.15882 0
M  V30 24 C 0.8331 -2.62108 3.43399 0
M  V30 25 C -0.0319 -3.89811 3.60861 0
M  V30 26 C -0.9929 -3.77193 4.8207 0
M  V30 27 N -1.8559 -4.9673 4.96189 0
M  V30 28 H 2.9841 -1.04962 2.78903 0
M  V30 29 H 0.5211 -0.507088 1.38083 0
M  V30 30 H 2.4791 -3.48089 2.29978 0
M  V30 31 H 1.1091 -2.96194 1.28331 0
M  V30 32 H 0.1611 -1.74967 3.37773 0
M  V30 33 H 1.4731 -2.48685 4.32386 0
M  V30 34 H 0.6271 -4.77103 3.74777 0
M  V30 35 H -0.6339 -4.06102 2.7006 0
M  V30 36 H -1.6289 -2.88284 4.68159 0
M  V30 37 H -0.4039 -3.62421 5.74307 0
M  V30 38 H -2.4579 -5.13431 4.08319 0
M  V30 39 H -2.5409 -4.85839 5.79221 0
M  V30 40 H -1.2729 -5.85594 5.1449 0
M  V30 41 N 2.9562 -1.48159 -0.537278 0
M  V30 42 C 4.1812 -1.59707 -1.32319 0
M  V30 43 C 4.6062 -0.254859 -1.86365 0
M  V30 44 O 3.9642 0.772378 -1.64024 0
M  V30 45 C 4.0122 -2.6412 -2.45505 0
M  V30 46 O 3.1162 -2.20774 -3.48328 0
M  V30 47 H 2.4572 -0.535791 -0.392204 0
M  V30 48 H 4.9872 -1.94092 -0.647268 0
M  V30 49 H 4.9972 -2.85166 -2.91795 0
M  V30 50 H 3.6722 -3.61567 -2.05528 0
M  V30 51 H 2.2492 -2.09911 -3.08207 0
M  V30 52 N 4.4343 0.785586 -1.36625 0
M  V30 53 C 5.6823 1.54057 -1.30808 0
M  V30 54 C 6.0033 1.94683 0.111157 0
M  V30 55 O 5.2733 1.65241 1.05224 0
M  V30 56 H 3.8533 0.571354 -0.481211 0
M  V30 57 H 6.5153 0.935821 -1.70963 0
M  V30 58 H 5.6113 2.44637 -1.93801 0
M  V30 59 N 5.9124 1.20967 1.01018 0
M  V30 60 C 7.1614 1.01796 1.74128 0
M  V30 61 C 7.4744 -0.449691 1.90361 0
M  V30 62 O 8.6804 -0.76068 2.60626 0
M  V30 63 C 7.1364 1.7727 3.13215 0
M  V30 64 C 6.7444 3.28171 3.04972 0
M  V30 65 C 8.4884 1.66489 3.90489 0
M  V30 66 C 6.3954 3.96156 4.39107 0
M  V30 67 H 5.3254 0.377276 0.652824 0
M  V30 68 H 7.9764 1.44651 1.12909 0
M  V30 69 H 6.3584 1.27205 3.75013 0
M  V30 70 H 7.5324 3.85499 2.52443 0
M  V30 71 H 5.8474 3.39437 2.41188 0
M  V30 72 H 8.4444 2.14617 4.89738 0
M  V30 73 H 8.7874 0.6222 4.11624 0
M  V30 74 H 9.3204 2.14003 3.35332 0
M  V30 75 H 6.0594 5.00604 4.23174 0
M  V30 76 H 5.5794 3.43617 4.91617 0
M  V30 77 H 7.2584 4.00774 5.07926 0
M  V30 78 N 7.3905 -1.2043 1.01659 0
M  V30 79 C 8.6205 -1.93496 0.724081 0
M  V30 80 C 9.0285 -1.74998 -0.71918 0
M  V30 81 O 8.3715 -1.06118 -1.49949 0
M  V30 82 C 8.4335 -3.45886 0.97994 0
M  V30 83 C 8.0975 -3.88145 2.41232 0
M  V30 84 C 9.0945 -3.93907 3.39313 0
M  V30 85 C 6.7795 -4.20134 2.75305 0
M  V30 86 C 8.7735 -4.31069 4.6953 0
M  V30 87 C 6.4605 -4.56971 4.05735 0
M  V30 88 C 7.4585 -4.62411 5.02658 0
M  V30 89 O 7.1465 -4.98403 6.30754 0
M  V30 90 H 6.8785 -0.621824 0.265162 0
M  V30 91 H 9.4325 -1.53867 1.36066 0
M  V30 92 H 7.6625 -3.85639 0.286198 0
M  V30 93 H 9.3515 -4.0018 0.679021 0
M  V30 94 H 10.1175 -3.69357 3.14325 0
M  V30 95 H 5.9965 -4.1509 2.00551 0
M  V30 96 H 9.5405 -4.3523 5.45179 0
M  V30 97 H 5.4375 -4.80977 4.30502 0
M  V30 98 H 6.2055 -5.16395 6.35042 0
M  V30 99 N 8.8686 -0.792821 -1.36206 0
M  V30 100 C 9.8006 -0.151469 -2.28699 0
M  V30 101 C 10.8136 0.641262 -1.49638 0
M  V30 102 O 12.0026 0.475885 -1.72039 0
M  V30 103 C 9.1026 0.808424 -3.29117 0
M  V30 104 C 8.2756 0.0650202 -4.37352 0
M  V30 105 C 7.3346 0.941358 -5.17711 0
M  V30 106 O 6.3606 0.397352 -5.67811 0
M  V30 107 N 7.5626 2.2652 -5.3448 0
M  V30 108 H 10.3276 -0.945982 -2.84379 0
M  V30 109 H 7.8886 -0.647032 -1.48409 0
M  V30 110 H 9.8806 1.3986 -3.79765 0
M  V30 111 H 8.4506 1.5038 -2.74052 0
M  V30 112 H 7.6706 -0.706255 -3.87822 0
M  V30 113 H 8.9586 -0.447847 -5.06825 0
M  V30 114 H 8.3566 2.73128 -4.95396 0
M  V30 115 H 6.9136 2.80493 -5.88359 0
M  V30 116 N 10.3467 1.47872 -0.545128 0
M  V30 117 C 11.5957 2.01695 -0.0145033 0
M  V30 118 C 11.9087 1.42609 1.33873 0
M  V30 119 O 13.1147 1.88021 1.95858 0
M  V30 120 C 11.5707 3.59892 0.0245068 0
M  V30 121 C 11.1787 4.27966 -1.32475 0
M  V30 122 C 12.9227 4.21507 0.50316 0
M  V30 123 C 10.8297 5.78136 -1.2455 0
M  V30 124 H 9.7597 0.753998 -0.00165172 0
M  V30 125 H 12.4107 1.69985 -0.691175 0
M  V30 126 H 10.7927 3.88509 0.766575 0
M  V30 127 H 11.9667 4.11003 -2.08357 0
M  V30 128 H 10.2817 3.78286 -1.74036 0
M  V30 129 H 12.8787 5.31538 0.580656 0
M  V30 130 H 13.2217 3.87855 1.51243 0
M  V30 131 H 13.7547 3.97376 -0.183681 0
M  V30 132 H 10.4937 6.16388 -2.23039 0
M  V30 133 H 10.0137 5.97469 -0.528282 0
M  V30 134 H 11.6927 6.40099 -0.942488 0
M  V30 135 N 11.8248 0.280983 1.55075 0
M  V30 136 C 12.7718 -0.603937 2.22758 0
M  V30 137 C 13.7418 -1.1452 1.20309 0
M  V30 138 O 14.9268 -1.19343 1.48869 0
M  V30 139 C 12.0668 -1.77947 2.95684 0
M  V30 140 C 11.1798 -1.2715 4.12864 0
M  V30 141 C 10.3148 -2.4093 4.7342 0
M  V30 142 C 9.3538 -1.87165 5.82783 0
M  V30 143 N 8.4908 -2.94441 6.37377 0
M  V30 144 H 13.3308 -0.020124 2.97993 0
M  V30 145 H 10.8678 0.00183425 1.471 0
M  V30 146 H 12.8258 -2.47055 3.36184 0
M  V30 147 H 11.4558 -2.33522 2.22861 0
M  V30 148 H 10.5078 -0.473331 3.77444 0
M  V30 149 H 11.8198 -0.837751 4.91715 0
M  V30 150 H 10.9738 -3.18021 5.1667 0
M  V30 151 H 9.7128 -2.87623 3.93859 0
M  V30 152 H 8.7178 -1.08556 5.38976 0
M  V30 153 H 9.9428 -1.41401 6.64216 0
M  V30 154 H 7.8888 -3.40505 5.60707 0
M  V30 155 H 7.8058 -2.55501 7.11516 0
M  V30 156 H 9.0738 -3.71489 6.85285 0
M  V30 157 N 13.3029 -1.57598 0.00835791 0
M  V30 158 C 14.2509 -2.10078 -0.998508 0
M  V30 159 C 15.2449 -1.02262 -1.35051 0
M  V30 160 O 16.4509 -1.20719 -1.33518 0
M  V30 161 H 12.8259 -0.670903 -0.339696 0
M  V30 162 H 14.7969 -2.93648 -0.530398 0
M  V30 163 C 13.5459 -2.62615 -2.27879 0
M  V30 164 H 12.8689 -3.45213 -2.01662 0
M  V30 165 H 14.3089 -3.03004 -2.96588 0
M  V30 166 C 12.7679 -1.54407 -2.99433 0
M  V30 167 O 13.2979 -0.931812 -3.90743 0
M  V30 168 N 11.5039 -1.2695 -2.61404 0
M  V30 169 H 11.0509 -1.76924 -1.87232 0
M  V30 170 H 11.0089 -0.547704 -3.09593 0
M  V30 171 N 14.781 0.264519 -1.55364 0
M  V30 172 C 16.009 1.013 -1.80405 0
M  V30 173 C 16.424 1.79618 -0.581622 0
M  V30 174 O 15.781 1.76879 0.449468 0
M  V30 175 C 15.832 1.96487 -3.03439 0
M  V30 176 O 15.553 1.21341 -4.20961 0
M  V30 177 C 17.054 2.83079 -3.41147 0
M  V30 178 H 14.274 0.298875 -0.600762 0
M  V30 179 H 16.818 0.292736 -2.02394 0
M  V30 180 H 14.973 2.63965 -2.83551 0
M  V30 181 H 15.387 1.85573 -4.90574 0
M  V30 182 H 16.861 3.4565 -4.30384 0
M  V30 183 H 17.338 3.53286 -2.60932 0
M  V30 184 H 17.944 2.2108 -3.63323 0
M  V30 185 N 16.2591 1.48442 0.529413 0
M  V30 186 C 17.1891 1.65902 1.64313 0
M  V30 187 C 18.1701 0.507897 1.6234 0
M  V30 188 O 19.3551 0.740503 1.79528 0
M  V30 189 C 16.4851 1.69911 3.02898 0
M  V30 190 C 15.4391 2.8453 3.19729 0
M  V30 191 C 14.7651 2.73629 4.59381 0
M  V30 192 C 16.0651 4.25821 3.02447 0
M  V30 193 H 17.7591 2.5914 1.49955 0
M  V30 194 H 15.3051 1.24709 0.719982 0
M  V30 195 H 17.2581 1.80715 3.80684 0
M  V30 196 H 15.9821 0.732524 3.18279 0
M  V30 197 H 14.6411 2.73283 2.44361 0
M  V30 198 H 14.2891 1.74938 4.71599 0
M  V30 199 H 13.9891 3.50541 4.71588 0
M  V30 200 H 15.5131 2.86401 5.39265 0
M  V30 201 H 16.9271 4.37898 3.70024 0
M  V30 202 H 15.3241 5.03735 3.26146 0
M  V30 203 H 16.3941 4.42244 1.98867 0
M  V30 204 N 17.7372 -0.778329 1.37039 0
M  V30 205 C 18.6852 -1.91278 1.32345 0
M  V30 206 C 19.6792 -1.68051 0.213331 0
M  V30 207 O 20.8852 -1.75922 0.38098 0
M  V30 208 H 17.2602 -0.628909 0.412283 0
M  V30 209 H 19.2312 -1.92355 2.28127 0
M  V30 210 C 17.9802 -3.28455 1.14073 0
M  V30 211 H 17.3032 -3.46901 1.98746 0
M  V30 212 H 18.7432 -4.08152 1.14837 0
M  V30 213 C 17.2022 -3.36548 -0.154015 0
M  V30 214 O 17.7322 -3.85186 -1.13993 0
M  V30 215 N 15.9382 -2.89894 -0.202475 0
M  V30 216 H 15.4852 -2.50504 0.600476 0
M  V30 217 H 15.4432 -2.9569 -1.06841 0
M  V30 218 N 19.2153 -1.21501 -1.00376 0
M  V30 219 C 20.1633 -0.972442 -2.11297 0
M  V30 220 C 21.1573 0.080731 -1.69208 0
M  V30 221 O 22.3633 -0.0707666 -1.79861 0
M  V30 222 H 18.7383 -0.297218 -0.690772 0
M  V30 223 H 20.7093 -1.91394 -2.28934 0
M  V30 224 C 19.4583 -0.555065 -3.43241 0
M  V30 225 H 18.7813 -1.35709 -3.76062 0
M  V30 226 H 20.2213 -0.424664 -4.21868 0
M  V30 227 C 18.6803 0.734147 -3.28804 0
M  V30 228 O 19.2103 1.78937 -3.59645 0
M  V30 229 N 17.4163 0.701133 -2.82015 0
M  V30 230 H 16.9633 -0.157874 -2.57116 0
M  V30 231 H 16.9213 1.56403 -2.72737 0
M  V30 232 N 20.6934 1.19889 -1.02296 0
M  V30 233 C 21.6404 2.22901 -0.598651 0
M  V30 234 C 22.6104 1.61588 0.384521 0
M  V30 235 O 23.7954 1.88697 0.282522 0
M  V30 236 C 20.9354 3.45063 0.0504476 0
M  V30 237 C 20.0484 4.20783 -0.978053 0
M  V30 238 C 19.1834 5.30356 -0.299338 0
M  V30 239 C 18.2224 5.97826 -1.31416 0
M  V30 240 N 17.3594 6.98975 -0.661667 0
M  V30 241 H 22.1994 2.58554 -1.48169 0
M  V30 242 H 19.7364 1.27039 -0.741584 0
M  V30 243 H 21.6944 4.14831 0.443971 0
M  V30 244 H 20.3244 3.10084 0.897097 0
M  V30 245 H 19.3764 3.50018 -1.48969 0
M  V30 246 H 20.6884 4.67109 -1.74958 0
M  V30 247 H 19.8424 6.06516 0.149347 0
M  V30 248 H 18.5814 4.85084 0.504445 0
M  V30 249 H 17.5864 5.20422 -1.77317 0
M  V30 250 H 18.8114 6.45183 -2.11933 0
M  V30 251 H 16.7574 6.55886 0.122132 0
M  V30 252 H 16.6744 7.43461 -1.37117 0
M  V30 253 H 17.9424 7.7914 -0.236785 0
M  V30 254 N 22.1715 0.800033 1.35784 0
M  V30 255 C 23.4175 0.377901 1.99248 0
M  V30 256 C 23.7505 -1.05052 1.63333 0
M  V30 257 O 23.0255 -1.72768 0.893385 0
M  V30 258 C 23.3085 0.553922 3.55814 0
M  V30 259 C 23.1615 2.0268 4.01548 0
M  V30 260 C 24.4805 -0.0244802 4.40093 0
M  V30 261 H 21.5995 0.138782 0.723815 0
M  V30 262 H 24.2415 1.00835 1.61035 0
M  V30 263 H 22.3915 0.0172398 3.88496 0
M  V30 264 H 24.0635 2.62536 3.79305 0
M  V30 265 H 22.3065 2.5256 3.52698 0
M  V30 266 H 22.9775 2.10087 5.10458 0
M  V30 267 H 25.4535 0.433775 4.13833 0
M  V30 268 H 24.3295 0.128637 5.48749 0
M  V30 269 H 24.5905 -1.11758 4.27741 0
M  V30 270 N 23.6496 -1.47581 0.552962 0
M  V30 271 C 24.8796 -2.06575 0.0320091 0
M  V30 272 C 25.2876 -1.4067 -1.26525 0
M  V30 273 O 24.6306 -0.495808 -1.76883 0
M  V30 274 C 24.6926 -3.58705 -0.238913 0
M  V30 275 C 24.3566 -4.46625 0.968272 0
M  V30 276 C 25.3536 -4.85 1.87274 0
M  V30 277 C 23.0386 -4.88201 1.18175 0
M  V30 278 C 25.0326 -5.63745 2.9744 0
M  V30 279 C 22.7196 -5.66712 2.28651 0
M  V30 280 C 23.7176 -6.04394 3.18114 0
M  V30 281 O 23.4056 -6.81324 4.26676 0
M  V30 282 H 23.1376 -0.674763 0.0408689 0
M  V30 283 H 25.6916 -1.90634 0.764719 0
M  V30 284 H 23.9216 -3.72844 -1.02588 0
M  V30 285 H 25.6106 -3.99735 -0.704731 0
M  V30 286 H 26.3766 -4.53482 1.71984 0
M  V30 287 H 22.2556 -4.58339 0.494593 0
M  V30 288 H 25.7996 -5.93077 3.67296 0
M  V30 289 H 21.6966 -5.97642 2.43915 0
M  V30 290 H 22.4646 -6.99712 4.24671 0
M  V30 291 N 25.1277 -0.289203 -1.54924 0
M  V30 292 C 26.3737 0.323998 -2.00195 0
M  V30 293 C 26.7067 1.54441 -1.17735 0
M  V30 294 O 25.9817 1.92875 -0.250878 0
M  V30 295 C 26.2647 0.692276 -3.53383 0
M  V30 296 C 26.1177 -0.536457 -4.46589 0
M  V30 297 C 27.4367 1.52335 -4.12895 0
M  V30 298 H 24.5557 0.116289 -0.727768 0
M  V30 299 H 27.1977 -0.398954 -1.85764 0
M  V30 300 H 25.3477 1.30822 -3.65811 0
M  V30 301 H 27.0197 -1.17499 -4.46085 0
M  V30 302 H 25.2627 -1.17192 -4.1767 0
M  V30 303 H 25.9337 -0.234806 -5.515 0
M  V30 304 H 28.4097 1.00302 -4.0383 0
M  V30 305 H 27.2857 1.74982 -5.20262 0
M  V30 306 H 27.5467 2.50886 -3.64018 0
M  V30 307 N 26.6058 1.57591 -0.0167156 0
M  V30 308 C 27.8538 1.90906 0.663285 0
M  V30 309 C 28.1748 0.892509 1.73376 0
M  V30 310 O 27.4448 -0.0677623 1.95783 0
M  V30 311 H 26.0248 0.704637 0.247983 0
M  V30 312 H 28.6868 1.94803 -0.0615909 0
M  V30 313 H 27.7828 2.9116 1.12393 0
M  V30 314 N 28.0839 -0.256276 1.55502 0
M  V30 315 C 29.3089 -1.00766 1.81276 0
M  V30 316 C 29.7339 -1.78524 0.59252 0
M  V30 317 O 29.0919 -1.75413 -0.45827 0
M  V30 318 C 29.1399 -1.92869 3.04687 0
M  V30 319 O 28.2439 -3.019 2.80945 0
M  V30 320 H 27.5849 -0.287224 0.598664 0
M  V30 321 H 30.1149 -0.280109 2.02674 0
M  V30 322 H 30.1249 -2.34511 3.33869 0
M  V30 323 H 28.7999 -1.35689 3.93143 0
M  V30 324 H 27.3769 -2.64454 2.62904 0
M  V30 325 N 29.562 -1.4872 -0.521534 0
M  V30 326 C 30.525 -1.63379 -1.60748 0
M  V30 327 C 31.525 -0.50661 -1.52611 0
M  V30 328 O 32.715 -0.772601 -1.5613 0
M  V30 329 C 29.847 -1.61192 -3.00383 0
M  V30 330 H 31.04 -2.60217 -1.49087 0
M  V30 331 H 28.593 -1.37444 -0.744235 0
M  V30 332 H 29.328 -0.65863 -3.17541 0
M  V30 333 H 29.113 -2.43032 -3.07698 0
M  V30 334 H 30.603 -1.7466 -3.7932 0
M  V30 335 N 31.0401 0.771051 -1.3745 0
M  V30 336 C 31.9871 1.88435 -1.3327 0
M  V30 337 C 32.9571 1.64914 -0.198136 0
M  V30 338 O 34.1421 1.86821 -0.387606 0
M  V30 339 C 31.2821 3.25509 -1.14622 0
M  V30 340 C 30.3951 3.60979 -2.37314 0
M  V30 341 C 29.5301 4.87265 -2.11533 0
M  V30 342 C 28.5691 5.15469 -3.30088 0
M  V30 343 N 27.7061 6.32944 -3.03853 0
M  V30 344 H 32.5461 1.91344 -2.28455 0
M  V30 345 H 30.0831 0.935466 -1.13523 0
M  V30 346 H 32.0411 4.04582 -1.01831 0
M  V30 347 H 30.6711 3.21974 -0.230837 0
M  V30 348 H 29.7231 2.76885 -2.60842 0
M  V30 349 H 31.0351 3.77759 -3.25729 0
M  V30 350 H 30.1891 5.74244 -1.95777 0
M  V30 351 H 28.9281 4.7259 -1.20457 0
M  V30 352 H 27.9331 4.26966 -3.46382 0
M  V30 353 H 29.1581 5.32052 -4.22016 0
M  V30 354 H 27.1041 6.19625 -2.15407 0
M  V30 355 H 27.0211 6.50143 -3.85812 0
M  V30 356 H 28.2891 7.22857 -2.91716 0
M  V30 357 N 32.5182 1.22032 0.997298 0
M  V30 358 C 33.7952 0.950823 1.70935 0
M  V30 359 C 34.1752 -0.535292 2.042 0
M  V30 360 O 33.5232 -1.50217 1.72183 0
M  V30 361 C 33.7332 1.84386 2.96315 0
M  V30 362 C 35.0812 2.09732 3.69185 0
M  V30 363 O 36.1052 1.81798 3.06314 0
M  V30 364 O 34.9642 2.57018 4.82291 0
M  V30 365 H 32.0582 0.357204 0.745878 0
M  V30 366 H 34.6042 1.32997 1.05404 0
M  V30 367 H 33.3762 2.84928 2.68201 0
M  V30 368 H 32.9992 1.46602 3.69586 0
M  V30 369 N 33.9963 -1.19345 1.0293 0
M  V30 370 C 35.2433 -1.89038 0.726008 0
M  V30 371 C 35.5713 -1.79649 -0.745427 0
M  V30 372 O 34.8263 -1.18354 -1.55855 0
M  V30 373 C 35.1253 -3.39292 1.12319 0
M  V30 374 C 34.7913 -3.68885 2.59297 0
M  V30 375 C 33.4533 -3.76671 2.99453 0
M  V30 376 C 35.8053 -3.82178 3.54386 0
M  V30 377 C 33.1333 -3.9522 4.33611 0
M  V30 378 C 35.4853 -4.0224 4.88248 0
M  V30 379 C 34.1493 -4.08259 5.28092 0
M  V30 380 H 33.4193 -0.691739 0.265665 0
M  V30 381 H 36.0663 -1.41328 1.29223 0
M  V30 382 H 34.3713 -3.88903 0.475584 0
M  V30 383 H 36.0683 -3.91536 0.866037 0
M  V30 384 H 32.6583 -3.63433 2.27189 0
M  V30 385 H 36.8423 -3.75505 3.24514 0
M  V30 386 H 32.0983 -3.98119 4.64016 0
M  V30 387 H 36.2723 -4.11468 5.61843 0
M  V30 388 H 33.8993 -4.22384 6.32057 0
M  V30 389 N 35.4744 -0.807222 -1.35358 0
M  V30 390 C 36.3844 -0.219594 -2.3357 0
M  V30 391 C 37.4004 0.637734 -1.61892 0
M  V30 392 O 38.5764 0.549336 -1.93763 0
M  V30 393 C 35.6414 0.62158 -3.41083 0
M  V30 394 C 34.7024 -0.256315 -4.28534 0
M  V30 395 C 33.9354 0.544807 -5.30912 0
M  V30 396 O 34.1584 1.77944 -5.41934 0
M  V30 397 O 33.0924 -0.0646478 -6.01865 0
M  V30 398 H 36.9184 -1.03208 -2.85625 0
M  V30 399 H 34.5034 -0.569025 -1.38139 0
M  V30 400 H 36.3854 1.10067 -4.06772 0
M  V30 401 H 35.0604 1.41165 -2.91297 0
M  V30 402 H 33.9674 -0.782559 -3.65823 0
M  V30 403 H 35.3004 -1.01034 -4.81719 0
M  V30 404 N 36.9525 1.47285 -0.560781 0
M  V30 405 C 37.8995 2.30058 0.18491 0
M  V30 406 C 38.8695 1.39281 0.904986 0
M  V30 407 O 40.0545 1.68241 0.899979 0
M  V30 408 C 37.1945 3.23317 1.20666 0
M  V30 409 C 36.3075 4.29186 0.492285 0
M  V30 410 C 35.4425 5.09592 1.49964 0
M  V30 411 C 34.4815 6.07232 0.770439 0
M  V30 412 N 33.6185 6.80584 1.72479 0
M  V30 413 H 38.4585 2.93302 -0.527048 0
M  V30 414 H 35.9955 1.44568 -0.271738 0
M  V30 415 H 37.9535 3.75811 1.81168 0
M  V30 416 H 36.5835 2.61929 1.88661 0
M  V30 417 H 35.6355 3.7972 -0.227333 0
M  V30 418 H 36.9475 4.98738 -0.0787929 0
M  V30 419 H 36.1015 5.66254 2.17809 0
M  V30 420 H 34.8405 4.3995 2.10464 0
M  V30 421 H 33.8455 5.49745 0.0780846 0
M  V30 422 H 35.0705 6.78884 0.171134 0
M  V30 423 H 33.0165 6.1367 2.3183 0
M  V30 424 H 32.9335 7.46319 1.20596 0
M  V30 425 H 34.2015 7.41818 2.39428 0
M  V30 426 N 38.4306 0.297415 1.54768 0
M  V30 427 C 39.8466 -0.0560823 1.59501 0
M  V30 428 C 40.0466 -1.52725 1.31444 0
M  V30 429 O 39.1026 -2.27947 1.08611 0
M  V30 430 C 40.4156 0.338631 2.98787 0
M  V30 431 C 41.9636 0.287097 3.11681 0
M  V30 432 C 42.4386 0.656579 4.53269 0
M  V30 433 N 43.9296 0.608977 4.59179 0
M  V30 434 C 44.6646 0.867385 5.66802 0
M  V30 435 N 44.1606 1.19157 6.82476 0
M  V30 436 N 45.9536 0.794687 5.56454 0
M  V30 437 H 38.1046 1.25624 1.71267 0
M  V30 438 H 40.3676 0.509057 0.799728 0
M  V30 439 H 40.0736 1.36263 3.2423 0
M  V30 440 H 39.9476 -0.309508 3.75928 0
M  V30 441 H 42.3346 -0.727649 2.85988 0
M  V30 442 H 42.4156 0.969809 2.36703 0
M  V30 443 H 42.0596 1.66912 4.7969 0
M  V30 444 H 41.9896 -0.0481649 5.26578 0
M  V30 445 H 44.4806 0.369198 3.76092 0
M  V30 446 H 44.7936 1.37482 7.60473 0
M  V30 447 H 43.1386 1.22958 6.84037 0
M  V30 448 H 46.3296 0.541098 4.64962 0
M  V30 449 H 46.5026 0.999445 6.40246 0
M  V30 450 N 39.9087 -1.5758 0.0250728 0
M  V30 451 C 41.1547 -1.92746 -0.649648 0
M  V30 452 C 41.5097 -0.901588 -1.69968 0
M  V30 453 O 40.8027 0.0829251 -1.9142 0
M  V30 454 C 40.9967 -3.32421 -1.31268 0
M  V30 455 C 40.8257 -4.48499 -0.328394 0
M  V30 456 C 39.5957 -5.05251 0.070284 0
M  V30 457 C 41.7937 -5.12618 0.415665 0
M  V30 458 N 39.7757 -6.04851 1.05016 0
M  V30 459 C 41.1467 -6.0728 1.24943 0
M  V30 460 C 43.2017 -4.95612 0.476803 0
M  V30 461 C 41.9047 -6.86766 2.1388 0
M  V30 462 C 43.9307 -5.75703 1.3535 0
M  V30 463 C 43.2927 -6.69978 2.17504 0
M  V30 464 H 39.3917 -0.753231 -0.210159 0
M  V30 465 H 41.9757 -1.94486 0.0912999 0
M  V30 466 H 40.1467 -3.31508 -2.02379 0
M  V30 467 H 41.8787 -3.54946 -1.94411 0
M  V30 468 H 38.6337 -4.72628 -0.303323 0
M  V30 469 H 39.0577 -6.5934 1.53622 0
M  V30 470 H 43.6997 -4.22554 -0.144105 0
M  V30 471 H 41.4177 -7.59132 2.77027 0
M  V30 472 H 45.0037 -5.64579 1.40504 0
M  V30 473 H 43.8837 -7.30873 2.84244 0
M  V30 474 N 41.3868 0.248026 -1.55636 0
M  V30 475 C 42.3338 1.30707 -1.90222 0
M  V30 476 C 43.3038 1.47881 -0.756332 0
M  V30 477 O 44.4888 1.61883 -1.00988 0
M  V30 478 C 41.6288 2.65769 -2.20138 0
M  V30 479 C 40.7418 2.56612 -3.47526 0
M  V30 480 C 39.8768 3.8402 -3.67017 0
M  V30 481 C 38.9158 3.69476 -4.8801 0
M  V30 482 N 38.0528 4.88774 -5.04029 0
M  V30 483 H 42.8928 1.00512 -2.80538 0
M  V30 484 H 40.4298 0.485055 -1.38873 0
M  V30 485 H 42.3878 3.44386 -2.35487 0
M  V30 486 H 41.0178 2.94115 -1.33027 0
M  V30 487 H 40.0698 1.69571 -3.40514 0
M  V30 488 H 41.3818 2.41774 -4.36287 0
M  V30 489 H 40.5358 4.7108 -3.8232 0
M  V30 490 H 39.2748 4.01754 -2.76487 0
M  V30 491 H 38.2798 2.80799 -4.72686 0
M  V30 492 H 39.5048 3.53238 -5.8 0
M  V30 493 H 37.4508 5.0687 -4.16435 0
M  V30 494 H 37.3678 4.76562 -5.86877 0
M  V30 495 H 38.6358 5.77335 -5.23741 0
M  V30 496 N 42.8649 1.48995 0.513639 0
M  V30 497 C 44.2809 1.35478 0.843682 0
M  V30 498 C 44.4809 0.378213 1.97919 0
M  V30 499 O 43.5369 -0.194689 2.51748 0
M  V30 500 C 44.8499 2.75901 1.1958 0
M  V30 501 C 46.3979 2.84509 1.30474 0
M  V30 502 C 46.8729 4.25671 1.69021 0
M  V30 503 N 48.3639 4.28422 1.76094 0
M  V30 504 C 49.0989 5.34601 2.07338 0
M  V30 505 N 48.5949 6.5104 2.36894 0
M  V30 506 N 50.3879 5.22007 2.08483 0
M  V30 507 H 42.5389 2.11092 -0.235328 0
M  V30 508 H 44.8019 0.947039 -0.0426669 0
M  V30 509 H 44.5079 3.49001 0.434913 0
M  V30 510 H 44.3819 3.10467 2.1422 0
M  V30 511 H 46.7689 2.11655 2.05637 0
M  V30 512 H 46.8499 2.53542 0.339155 0
M  V30 513 H 46.4939 4.99048 0.944135 0
M  V30 514 H 46.4239 4.54094 2.66658 0
M  V30 515 H 48.9149 3.44441 1.55464 0
M  V30 516 H 49.2279 7.2779 2.59887 0
M  V30 517 H 47.5729 6.54287 2.34378 0
M  V30 518 H 50.7639 4.30051 1.84861 0
M  V30 519 H 50.9369 6.04854 2.325 0
M  V30 520 N 44.343 -0.763751 1.37857 0
M  V30 521 C 45.293 -1.86765 1.30777 0
M  V30 522 C 46.277 -1.59726 0.194015 0
M  V30 523 O 47.469 -1.7172 0.42911 0
M  V30 524 C 44.598 -3.24343 1.12502 0
M  V30 525 C 43.684 -3.57307 2.28456 0
M  V30 526 N 44.075 -3.61398 3.53871 0
M  V30 527 C 42.373 -3.87517 2.20786 0
M  V30 528 C 43.074 -3.91339 4.30382 0
M  V30 529 N 42.05 -4.07649 3.59615 0
M  V30 530 H 45.852 -1.88191 2.25746 0
M  V30 531 H 43.366 -0.9606 1.30944 0
M  V30 532 H 45.363 -4.03327 1.05514 0
M  V30 533 H 44.023 -3.24175 0.184574 0
M  V30 534 H 45.034 -3.43407 3.87675 0
M  V30 535 H 41.711 -3.95125 1.34844 0
M  V30 536 H 43.101 -4.01213 5.3896 0
M  V30 537 N 45.8211 -1.22559 -0.990812 0
M  V30 538 C 47.0681 -1.05141 -1.73065 0
M  V30 539 C 47.3961 0.413191 -1.9006 0
M  V30 540 O 46.6511 1.32257 -1.44245 0
M  V30 541 C 46.9501 -1.71011 -3.13831 0
M  V30 542 C 46.6161 -3.20911 -3.16745 0
M  V30 543 C 45.2781 -3.61812 -3.17247 0
M  V30 544 C 47.6301 -4.16846 -3.12872 0
M  V30 545 C 44.9581 -4.97127 -3.1158 0
M  V30 546 C 47.3101 -5.5214 -3.08746 0
M  V30 547 C 45.9741 -5.92419 -3.07565 0
M  V30 548 H 45.2441 -0.384738 -0.633291 0
M  V30 549 H 47.8911 -1.5235 -1.16025 0
M  V30 550 H 46.1961 -1.16133 -3.74193 0
M  V30 551 H 47.8931 -1.55023 -3.69823 0
M  V30 552 H 44.4831 -2.88344 -3.17105 0
M  V30 553 H 48.6671 -3.86263 -3.11632 0
M  V30 554 H 43.9231 -5.27562 -3.09012 0
M  V30 555 H 48.0971 -6.26201 -3.04705 0
M  V30 556 H 45.7241 -6.97236 -3.02929 0
M  V30 557 N 47.2992 1.18797 -1.03562 0
M  V30 558 C 48.2462 2.22253 -0.622259 0
M  V30 559 C 49.2162 1.61987 0.36736 0
M  V30 560 O 50.4012 1.88986 0.262492 0
M  V30 561 C 47.5412 3.45097 0.0138462 0
M  V30 562 C 46.6542 4.19722 -1.02263 0
M  V30 563 C 45.7892 5.30009 -0.355573 0
M  V30 564 C 44.8282 5.96399 -1.37749 0
M  V30 565 N 43.9652 6.98234 -0.735766 0
M  V30 566 H 48.8052 2.56968 -1.50903 0
M  V30 567 H 46.3422 1.26245 -0.755017 0
M  V30 568 H 48.3002 4.15279 0.399948 0
M  V30 569 H 46.9302 3.11018 0.864158 0
M  V30 570 H 45.9822 3.48418 -1.52673 0
M  V30 571 H 47.2942 4.65227 -1.79903 0
M  V30 572 H 46.4482 6.0664 0.0850095 0
M  V30 573 H 45.1872 4.85592 0.452967 0
M  V30 574 H 44.1922 5.18512 -1.82826 0
M  V30 575 H 45.4172 6.42899 -2.18764 0
M  V30 576 H 43.3632 6.55979 0.0525597 0
M  V30 577 H 43.2802 7.41965 -1.44995 0
M  V30 578 H 44.5482 7.78845 -0.31941 0
M  V30 579 N 48.7773 0.814389 1.34928 0
M  V30 580 C 50.0543 0.321363 1.92942 0
M  V30 581 C 50.4343 -1.19014 1.74353 0
M  V30 582 O 49.7823 -1.99328 1.11716 0
M  V30 583 C 49.9923 0.741323 3.41036 0
M  V30 584 C 51.3403 0.735266 4.18185 0
M  V30 585 O 52.3643 0.68336 3.49584 0
M  V30 586 O 51.2233 0.800703 5.40602 0
M  V30 587 H 48.3173 0.0858893 0.822528 0
M  V30 588 H 50.8633 0.898609 1.43955 0
M  V30 589 H 49.6353 1.78276 3.4833 0
M  V30 590 H 49.2583 0.139307 3.97356 0
M  V30 591 N 50.2554 -1.46986 0.568584 0
M  V30 592 C 51.1854 -2.32946 -0.160753 0
M  V30 593 C 52.1664 -1.44487 -0.897631 0
M  V30 594 O 53.3514 -1.73327 -0.875867 0
M  V30 595 C 50.4814 -3.26494 -1.18403 0
M  V30 596 C 49.4354 -4.24282 -0.562895 0
M  V30 597 C 48.7614 -5.07236 -1.69163 0
M  V30 598 C 50.0614 -5.19989 0.490761 0
M  V30 599 H 51.7554 -2.94175 0.556916 0
M  V30 600 H 49.3014 -1.4146 0.26927 0
M  V30 601 H 51.2544 -3.85477 -1.70251 0
M  V30 602 H 49.9784 -2.63343 -1.93179 0
M  V30 603 H 48.6374 -3.66541 -0.0656164 0
M  V30 604 H 48.2854 -4.4048 -2.42871 0
M  V30 605 H 47.9854 -5.7345 -1.28174 0
M  V30 606 H 49.5094 -5.6908 -2.21314 0
M  V30 607 H 50.9234 -5.73271 0.0579047 0
M  V30 608 H 49.3204 -5.94469 0.820165 0
M  V30 609 H 50.3904 -4.64777 1.3824 0
M  V30 610 N 51.7335 -0.305618 -1.54608 0
M  V30 611 C 52.6435 0.57778 -2.27374 0
M  V30 612 C 53.6595 1.14451 -1.31061 0
M  V30 613 O 54.8355 1.16831 -1.6405 0
M  V30 614 C 51.9005 1.73123 -3.00382 0
M  V30 615 C 50.9615 1.19812 -4.12242 0
M  V30 616 C 50.1945 2.2966 -4.81759 0
M  V30 617 O 50.4175 3.49651 -4.50666 0
M  V30 618 O 49.3515 1.96091 -5.69062 0
M  V30 619 H 53.1775 -0.012624 -3.03697 0
M  V30 620 H 50.7625 -0.0719184 -1.49227 0
M  V30 621 H 52.6445 2.40315 -3.4616 0
M  V30 622 H 51.3195 2.30815 -2.26949 0
M  V30 623 H 50.2265 0.491798 -3.70853 0
M  V30 624 H 51.5595 0.666566 -4.87666 0
M  V30 625 N 53.2116 1.57565 -0.0334293 0
M  V30 626 C 54.1586 2.10478 0.946981 0
M  V30 627 C 55.1286 1.00787 1.32027 0
M  V30 628 O 56.3136 1.28232 1.41284 0
M  V30 629 C 53.4536 2.63994 2.22263 0
M  V30 630 C 52.5666 3.87709 1.90541 0
M  V30 631 C 51.7016 4.29604 3.12433 0
M  V30 632 C 50.7406 5.46065 2.76549 0
M  V30 633 N 49.8776 5.83096 3.9108 0
M  V30 634 H 54.7176 2.93963 0.488846 0
M  V30 635 H 52.2546 1.45296 0.22969 0
M  V30 636 H 54.2126 2.93114 2.96884 0
M  V30 637 H 52.8426 1.83333 2.65685 0
M  V30 638 H 51.8946 3.65291 1.06144 0
M  V30 639 H 53.2066 4.72403 1.60116 0
M  V30 640 H 52.3606 4.60182 3.9537 0
M  V30 641 H 51.0996 3.43685 3.46023 0
M  V30 642 H 50.1046 5.15176 1.92026 0
M  V30 643 H 51.3296 6.33685 2.44171 0
M  V30 644 H 49.2756 5.00132 4.24504 0
M  V30 645 H 49.1926 6.6244 3.64293 0
M  V30 646 H 50.4606 6.18282 4.74708 0
M  V30 647 N 54.6897 -0.239769 1.55765 0
M  V30 648 C 55.9377 -0.964892 1.77579 0
M  V30 649 C 56.2587 -1.85582 0.598699 0
M  V30 650 O 55.5287 -1.92075 -0.385226 0
M  V30 651 H 54.1087 -0.359265 0.654933 0
M  V30 652 H 56.7707 -0.256001 1.93211 0
M  V30 653 H 55.8667 -1.58243 2.69009 0
M  V30 654 N 56.1678 -1.49265 -0.50573 0
M  V30 655 C 57.4078 -1.60128 -1.27038 0
M  V30 656 C 57.7718 -0.279557 -1.89954 0
M  V30 657 O 58.9728 -0.263329 -2.67507 0
M  V30 658 C 57.2438 -2.72507 -2.31246 0
M  V30 659 S 58.8028 -3.0329 -3.17113 0
M  V30 660 H 55.6208 -0.564863 -0.4318 0
M  V30 661 H 58.2228 -1.86902 -0.573397 0
M  V30 662 H 56.9268 -3.67068 -1.83546 0
M  V30 663 H 56.4578 -2.4771 -3.05619 0
M  V30 664 H 58.4728 -2.44448 -4.31809 0
M  V30 665 N 57.6459 0.756429 -1.3826 0
M  V30 666 C 58.5959 1.86069 -1.31766 0
M  V30 667 C 59.5799 1.59621 -0.202483 0
M  V30 668 O 60.7719 1.7149 -0.438211 0
M  V30 669 C 57.9009 3.23742 -1.1422 0
M  V30 670 C 56.9869 3.56091 -2.30348 0
M  V30 671 N 57.3779 3.59517 -3.55783 0
M  V30 672 C 55.6759 3.86341 -2.22838 0
M  V30 673 C 56.3769 3.89052 -4.32451 0
M  V30 674 N 55.3529 4.05736 -3.61772 0
M  V30 675 H 59.1549 1.86992 -2.26741 0
M  V30 676 H 56.6689 0.953643 -1.31451 0
M  V30 677 H 58.6659 4.02761 -1.07652 0
M  V30 678 H 57.3259 3.24073 -0.201763 0
M  V30 679 H 58.3369 3.41347 -3.89491 0
M  V30 680 H 55.0139 3.94404 -1.36937 0
M  V30 681 H 56.4039 3.98349 -5.4108 0
M  V30 682 N 59.124 1.23083 0.984299 0
M  V30 683 C 60.349 1.088 1.76571 0
M  V30 684 C 60.774 -0.356657 1.84688 0
M  V30 685 O 60.132 -1.25788 1.30565 0
M  V30 686 C 60.18 1.71371 3.17277 0
M  V30 687 O 59.284 0.973213 4.00752 0
M  V30 688 H 58.625 0.381599 0.543395 0
M  V30 689 H 61.155 1.63057 1.23587 0
M  V30 690 H 61.165 1.76449 3.67872 0
M  V30 691 H 59.84 2.76493 3.10684 0
M  V30 692 H 58.417 0.999078 3.59267 0
M  V30 693 N 60.6021 -1.18246 1.0419 0
M  V30 694 C 61.8271 -1.92736 0.765996 0
M  V30 695 C 62.2521 -1.75728 -0.67091 0
M  V30 696 O 61.6101 -1.06825 -1.46486 0
M  V30 697 C 61.6581 -3.42148 1.13875 0
M  V30 698 O 60.7621 -4.11548 0.264954 0
M  V30 699 H 60.1031 -0.601238 0.281797 0
M  V30 700 H 62.6331 -1.49942 1.39207 0
M  V30 701 H 62.6431 -3.92858 1.1012 0
M  V30 702 H 61.3181 -3.53848 2.18551 0
M  V30 703 H 59.8951 -3.71137 0.362226 0
M  V30 704 N 62.0802 -0.821533 -1.34494 0
M  V30 705 C 63.3292 -0.405355 -1.97585 0
M  V30 706 C 63.6422 1.03677 -1.65863 0
M  V30 707 O 64.8482 1.55679 -2.22433 0
M  V30 708 C 63.3042 -0.673861 -3.53535 0
M  V30 709 C 62.9122 -2.12951 -3.94152 0
M  V30 710 C 64.6562 -0.32378 -4.23263 0
M  V30 711 C 62.5632 -2.34298 -5.43009 0
M  V30 712 H 61.4932 -0.147836 -0.739365 0
M  V30 713 H 64.1442 -1.00769 -1.53355 0
M  V30 714 H 62.5262 -0.00137554 -3.96 0
M  V30 715 H 63.7002 -2.84104 -3.62797 0
M  V30 716 H 62.0152 -2.44089 -3.37356 0
M  V30 717 H 64.6122 -0.461126 -5.32708 0
M  V30 718 H 64.9552 0.731586 -4.09821 0
M  V30 719 H 65.4882 -0.950786 -3.8627 0
M  V30 720 H 62.2272 -3.38335 -5.61435 0
M  V30 721 H 61.7472 -1.67687 -5.75883 0
M  V30 722 H 63.4262 -2.16588 -6.09671 0
M  V30 723 N 63.5583 1.46682 -0.576371 0
M  V30 724 C 64.5053 2.30241 0.160499 0
M  V30 725 C 65.4753 1.40233 0.890162 0
M  V30 726 O 66.6603 1.69186 0.882084 0
M  V30 727 C 63.8003 3.24578 1.1723 0
M  V30 728 C 62.9133 4.29684 0.446736 0
M  V30 729 C 62.0483 5.11154 1.44551 0
M  V30 730 C 61.0873 6.08015 0.70599 0
M  V30 731 N 60.2243 6.82376 1.65251 0
M  V30 732 H 65.0643 2.92727 -0.558127 0
M  V30 733 H 62.6013 1.44272 -0.287056 0
M  V30 734 H 64.5593 3.77711 1.77172 0
M  V30 735 H 63.1893 2.63916 1.85872 0
M  V30 736 H 62.2413 3.79458 -0.267594 0
M  V30 737 H 63.5533 4.98626 -0.131686 0
M  V30 738 H 62.7073 5.68533 2.11791 0
M  V30 739 H 61.4463 4.42158 2.05786 0
M  V30 740 H 60.4513 5.49796 0.0197725 0
M  V30 741 H 61.6763 6.79028 0.09912 0
M  V30 742 H 59.6223 6.16094 2.25308 0
M  V30 743 H 59.5393 7.47556 1.12673 0
M  V30 744 H 60.8073 7.44316 2.31546 0
M  V30 745 N 65.0364 0.313813 1.54444 0
M  V30 746 C 65.9664 -0.549454 2.26943 0
M  V30 747 C 66.9474 -1.12741 1.27372 0
M  V30 748 O 68.1324 -1.15436 1.56167 0
M  V30 749 C 65.2624 -1.71523 3.01989 0
M  V30 750 C 64.2164 -1.26703 4.08816 0
M  V30 751 C 63.5424 -2.51898 4.71647 0
M  V30 752 C 64.8424 -0.388962 5.2085 0
M  V30 753 H 66.5364 0.0552661 2.99349 0
M  V30 754 H 64.0824 0.0280207 1.43973 0
M  V30 755 H 66.0354 -2.32535 3.51433 0
M  V30 756 H 64.7594 -2.34639 2.27183 0
M  V30 757 H 63.4184 -0.679896 3.6024 0
M  V30 758 H 63.0664 -3.13356 3.93468 0
M  V30 759 H 62.7664 -2.22605 5.43802 0
M  V30 760 H 64.2904 -3.1369 5.23861 0
M  V30 761 H 65.7044 -0.905107 5.6611 0
M  V30 762 H 64.1014 -0.18924 5.99802 0
M  V30 763 H 65.1714 0.582699 4.81386 0
M  V30 764 N 66.5145 -1.57545 0.0417849 0
M  V30 765 C 67.4465 -2.07904 -0.964799 0
M  V30 766 C 68.4595 -1.00497 -1.28079 0
M  V30 767 O 69.6485 -1.28087 -1.24322 0
M  V30 768 C 66.7485 -2.49928 -2.28887 0
M  V30 769 C 65.9215 -3.80562 -2.15619 0
M  V30 770 C 64.9805 -4.08999 -3.31069 0
M  V30 771 O 64.0065 -4.79061 -3.0739 0
M  V30 772 N 65.2085 -3.6017 -4.55256 0
M  V30 773 H 67.9735 -2.94886 -0.535029 0
M  V30 774 H 65.5345 -1.61252 -0.144681 0
M  V30 775 H 67.5265 -2.66034 -3.04972 0
M  V30 776 H 66.0965 -1.68245 -2.63463 0
M  V30 777 H 65.3165 -3.74129 -1.24183 0
M  V30 778 H 66.6045 -4.66126 -2.03971 0
M  V30 779 H 66.0025 -3.03512 -4.77386 0
M  V30 780 H 64.5595 -3.81532 -5.28466 0
M  V30 781 N 67.9926 0.231505 -1.5589 0
M  V30 782 C 69.4086 0.580748 -1.48659 0
M  V30 783 C 69.6086 1.87617 -0.73498 0
M  V30 784 O 68.6646 2.51046 -0.270586 0
M  V30 785 C 69.9776 0.669202 -2.93159 0
M  V30 786 C 71.5256 0.760499 -3.03621 0
M  V30 787 C 72.0006 0.880383 -4.49459 0
M  V30 788 N 73.4916 0.944861 -4.53461 0
M  V30 789 C 74.2266 1.05716 -5.63571 0
M  V30 790 N 73.7226 1.13403 -6.83456 0
M  V30 791 N 75.5156 1.09152 -5.514 0
M  V30 792 H 67.6666 -0.618695 -2.03189 0
M  V30 793 H 69.9296 -0.215728 -0.923128 0
M  V30 794 H 69.6356 -0.212904 -3.51055 0
M  V30 795 H 69.5096 1.5361 -3.44505 0
M  V30 796 H 71.8966 1.63305 -2.45796 0
M  V30 797 H 71.9776 -0.131864 -2.5546 0
M  V30 798 H 71.6216 0.0123284 -5.07899 0
M  V30 799 H 71.5516 1.78802 -4.95316 0
M  V30 800 H 74.0426 0.896176 -3.6712 0
M  V30 801 H 74.3556 1.21921 -7.63122 0
M  V30 802 H 72.7006 1.10333 -6.86186 0
M  V30 803 H 75.8916 1.02805 -4.56671 0
M  V30 804 H 76.0646 1.17558 -6.37247 0
M  V30 805 N 69.4707 1.49531 0.497807 0
M  V30 806 C 70.6957 1.63159 1.28039 0
M  V30 807 C 71.1207 0.30418 1.85624 0
M  V30 808 O 70.4787 -0.728618 1.66015 0
M  V30 809 C 70.5267 2.70537 2.38416 0
M  V30 810 O 69.6307 2.29931 3.42353 0
M  V30 811 H 68.9717 0.546001 0.377861 0
M  V30 812 H 71.5017 1.9574 0.59558 0
M  V30 813 H 71.5117 2.92802 2.84132 0
M  V30 814 H 70.1867 3.6689 1.95869 0
M  V30 815 H 68.7637 2.18009 3.02533 0
M  V30 816 N 70.9488 -0.749086 1.3866 0
M  V30 817 C 72.1958 -1.50833 1.35114 0
M  V30 818 C 72.5238 -1.94415 -0.0574049 0
M  V30 819 O 71.7788 -1.66065 -1.03541 0
M  V30 820 C 72.0778 -2.7712 2.25697 0
M  V30 821 C 71.7438 -2.52477 3.73585 0
M  V30 822 C 70.4058 -2.45466 4.13884 0
M  V30 823 C 72.7578 -2.31066 4.67181 0
M  V30 824 C 70.0858 -2.15064 5.45861 0
M  V30 825 C 72.4378 -2.02183 5.9942 0
M  V30 826 C 71.1018 -1.93631 6.38798 0
M  V30 827 H 70.3718 -0.551936 0.494416 0
M  V30 828 H 73.0188 -0.860979 1.71054 0
M  V30 829 H 71.3238 -3.46528 1.82827 0
M  V30 830 H 73.0208 -3.35096 2.20254 0
M  V30 831 H 69.6108 -2.58807 3.41638 0
M  V30 832 H 73.7948 -2.35459 4.3689 0
M  V30 833 H 69.0508 -2.06954 5.75308 0
M  V30 834 H 73.2248 -1.8462 6.71482 0
M  V30 835 H 70.8518 -1.69839 7.40985 0
M  V30 836 N 72.4269 -1.23603 -0.977757 0
M  V30 837 C 73.3749 -1.01704 -2.09187 0
M  V30 838 C 74.3689 0.0448214 -1.69341 0
M  V30 839 O 75.5749 -0.108902 -1.7967 0
M  V30 840 H 71.9499 -0.311803 -0.684312 0
M  V30 841 H 73.9209 -1.96207 -2.24823 0
M  V30 842 C 72.6699 -0.627746 -3.41986 0
M  V30 843 H 71.9929 -1.43656 -3.73099 0
M  V30 844 H 73.4329 -0.514053 -4.20872 0
M  V30 845 C 71.8919 0.664238 -3.30287 0
M  V30 846 O 72.4219 1.71268 -3.6336 0
M  V30 847 N 70.6279 0.641156 -2.83439 0
M  V30 848 H 70.1749 -0.212376 -2.56723 0
M  V30 849 H 70.1329 1.50583 -2.75993 0
M  V30 850 N 73.905 1.17692 -1.04816 0
M  V30 851 C 74.852 2.21581 -0.645797 0
M  V30 852 C 75.822 1.62367 0.350159 0
M  V30 853 O 77.007 1.89254 0.242433 0
M  V30 854 C 74.147 3.45092 -0.0227568 0
M  V30 855 C 73.26 4.18613 -1.06709 0
M  V30 856 C 72.395 5.29602 -0.411767 0
M  V30 857 C 71.434 5.94904 -1.44067 0
M  V30 858 N 70.571 6.97414 -0.809781 0
M  V30 859 H 75.411 2.55353 -1.5362 0
M  V30 860 H 72.948 1.25438 -0.768364 0
M  V30 861 H 74.906 4.15679 0.35588 0
M  V30 862 H 73.536 3.11917 0.831122 0
M  V30 863 H 72.588 3.46779 -1.5636 0
M  V30 864 H 73.9 4.63293 -1.84827 0
M  V30 865 H 73.054 6.06696 0.0206623 0
M  V30 866 H 71.793 4.86045 0.401438 0
M  V30 867 H 70.798 5.16544 -1.88316 0
M  V30 868 H 72.023 6.40542 -2.25571 0
M  V30 869 H 69.969 6.55998 -0.0170186 0
M  V30 870 H 69.886 7.40386 -1.52856 0
M  V30 871 H 71.154 7.78463 -0.401999 0
M  V30 872 N 75.3831 0.828654 1.34056 0
M  V30 873 C 76.3331 0.226828 2.26869 0
M  V30 874 C 77.3171 -0.612243 1.48796 0
M  V30 875 O 78.5091 -0.465884 1.70759 0
M  V30 876 C 75.6381 -0.605654 3.37915 0
M  V30 877 C 74.7241 0.244361 4.23395 0
M  V30 878 N 75.1151 1.31815 4.88322 0
M  V30 879 C 73.4131 0.0296616 4.4599 0
M  V30 880 C 74.1141 1.83895 5.51867 0
M  V30 881 N 73.0901 1.14196 5.3147 0
M  V30 882 H 76.8921 1.04811 2.74576 0
M  V30 883 H 74.4061 0.67205 1.47842 0
M  V30 884 H 76.4031 -1.05302 4.03382 0
M  V30 885 H 75.0631 -1.42504 2.91758 0
M  V30 886 H 76.0741 1.70099 4.8917 0
M  V30 887 H 72.7511 -0.757097 4.10578 0
M  V30 888 H 74.1411 2.7376 6.136 0
M  V30 889 N 76.8612 -1.46375 0.584142 0
M  V30 890 C 78.1092 -2.01978 0.0701287 0
M  V30 891 C 78.4302 -1.4579 -1.295 0
M  V30 892 O 77.7002 -0.64314 -1.85042 0
M  V30 893 H 76.2802 -0.746648 0.0229345 0
M  V30 894 H 78.9422 -1.79461 0.760245 0
M  V30 895 H 78.0382 -3.121 0.0022064 0
M  V30 896 N 78.3393 -0.321999 -1.54275 0
M  V30 897 C 79.2873 0.560206 -2.25753 0
M  V30 898 C 80.2813 1.11984 -1.27106 0
M  V30 899 O 81.4873 1.06806 -1.44888 0
M  V30 900 H 77.8623 0.199304 -0.725108 0
M  V30 901 H 79.8333 -0.0649365 -2.98329 0
M  V30 902 C 78.5823 1.71023 -3.02731 0
M  V30 903 H 77.9053 1.28885 -3.78456 0
M  V30 904 H 79.3453 2.30314 -3.55993 0
M  V30 905 C 77.8043 2.62692 -2.10938 0
M  V30 906 O 78.3343 3.64364 -1.6912 0
M  V30 907 N 76.5403 2.30891 -1.76459 0
M  V30 908 H 76.0873 1.48253 -2.10663 0
M  V30 909 H 76.0453 2.92487 -1.1532 0
M  V30 910 N 79.8174 1.5752 -0.0501392 0
M  V30 911 C 81.0634 1.92936 0.624798 0
M  V30 912 C 81.3964 0.928685 1.70555 0
M  V30 913 O 80.6714 -0.0454779 1.94447 0
M  V30 914 C 80.9544 3.38737 1.22185 0
M  V30 915 C 80.8074 4.49552 0.149218 0
M  V30 916 C 82.1264 3.84913 2.13378 0
M  V30 917 H 79.2454 0.701604 0.225657 0
M  V30 918 H 81.8874 1.89671 -0.111693 0
M  V30 919 H 80.0374 3.4165 1.84953 0
M  V30 920 H 81.7094 4.58768 -0.482648 0
M  V30 921 H 79.9524 4.30638 -0.522841 0
M  V30 922 H 80.6234 5.48653 0.606966 0
M  V30 923 H 83.0994 3.8387 1.60572 0
M  V30 924 H 81.9754 4.87584 2.52097 0
M  V30 925 H 82.2364 3.21611 3.03346 0
M  V30 926 N 81.2955 -0.223234 1.56011 0
M  V30 927 C 82.5425 -0.947875 1.78946 0
M  V30 928 C 82.8705 -1.844 0.618608 0
M  V30 929 O 82.1255 -1.91629 -0.397093 0
M  V30 930 C 82.4245 -1.81948 3.0762 0
M  V30 931 C 82.0905 -1.07672 4.37856 0
M  V30 932 C 80.7525 -0.871544 4.73242 0
M  V30 933 C 83.1045 -0.552081 5.18268 0
M  V30 934 C 80.4325 -0.129791 5.86556 0
M  V30 935 C 82.7845 0.17632 6.32354 0
M  V30 936 C 81.4485 0.39277 6.66343 0
M  V30 937 H 80.7185 -0.346852 0.654809 0
M  V30 938 H 83.3655 -0.216171 1.90276 0
M  V30 939 H 81.6705 -2.61899 2.91404 0
M  V30 940 H 83.3675 -2.38227 3.22566 0
M  V30 941 H 79.9575 -1.24662 4.1007 0
M  V30 942 H 84.1415 -0.698076 4.91366 0
M  V30 943 H 79.3975 0.048153 6.11381 0
M  V30 944 H 83.5715 0.590367 6.93893 0
M  V30 945 H 81.1985 0.969466 7.53993 0
M  V30 946 N 82.7736 -1.49793 -0.48987 0
M  V30 947 C 83.6836 -1.70036 -1.61632 0
M  V30 948 C 84.6996 -0.583102 -1.63939 0
M  V30 949 O 85.8756 -0.859169 -1.82154 0
M  V30 950 C 82.9406 -1.77277 -2.97949 0
M  V30 951 C 82.0016 -3.00918 -3.06181 0
M  V30 952 C 81.2346 -3.07804 -4.35996 0
M  V30 953 O 81.4576 -2.21982 -5.25433 0
M  V30 954 O 80.3916 -4.00369 -4.49431 0
M  V30 955 H 84.2176 -2.65486 -1.47482 0
M  V30 956 H 81.8026 -1.33666 -0.667362 0
M  V30 957 H 83.6846 -1.84329 -3.78947 0
M  V30 958 H 82.3596 -0.850076 -3.12339 0
M  V30 959 H 81.2666 -2.99377 -2.2433 0
M  V30 960 H 82.5996 -3.92704 -2.96723 0
M  V30 961 N 84.2517 0.741722 -1.39055 0
M  V30 962 C 85.4917 1.51385 -1.37338 0
M  V30 963 C 85.8557 1.91972 0.0330513 0
M  V30 964 O 87.0567 2.68229 0.175174 0
M  V30 965 C 85.3277 2.72481 -2.31276 0
M  V30 966 S 86.8867 3.62211 -2.47687 0
M  V30 967 H 83.7047 0.517906 -0.487129 0
M  V30 968 H 86.3067 0.86969 -1.7509 0
M  V30 969 H 85.0107 2.40793 -3.32336 0
M  V30 970 H 84.5417 3.41832 -1.94716 0
M  V30 971 H 86.5567 4.65812 -1.70978 0
M  V30 972 N 85.7298 1.2412 0.971189 0
M  V30 973 C 86.9548 1.10667 1.75407 0
M  V30 974 C 87.3798 -0.337048 1.85056 0
M  V30 975 O 86.7378 -1.24396 1.31892 0
M  V30 976 C 86.7858 1.74726 3.15441 0
M  V30 977 O 85.8898 1.01566 3.99697 0
M  V30 978 H 85.2308 0.387341 0.539317 0
M  V30 979 H 87.7608 1.64358 1.2185 0
M  V30 980 H 87.7708 1.80341 3.6598 0
M  V30 981 H 86.4458 2.79773 3.07734 0
M  V30 982 H 85.0228 1.03713 3.58187 0
M  V30 983 N 87.2079 -1.17134 1.05439 0
M  V30 984 C 88.4569 -1.86791 0.761049 0
M  V30 985 C 88.7699 -1.82072 -0.714795 0
M  V30 986 O 89.9759 -2.47223 -1.12218 0
M  V30 987 C 88.4319 -3.35166 1.31117 0
M  V30 988 C 88.0399 -3.48381 2.81664 0
M  V30 989 C 89.7839 -4.10134 1.09499 0
M  V30 990 C 87.6909 -4.90793 3.29964 0
M  V30 991 H 86.6209 -0.699681 0.281002 0
M  V30 992 H 89.2719 -1.3226 1.27199 0
M  V30 993 H 87.6539 -3.8925 0.72803 0
M  V30 994 H 88.8279 -3.04502 3.45855 0
M  V30 995 H 87.1429 -2.86836 3.01851 0
M  V30 996 H 89.7399 -5.152 1.43084 0
M  V30 997 H 90.0829 -4.16287 0.0328772 0
M  V30 998 H 90.6159 -3.62264 1.64346 0
M  V30 999 H 87.3549 -4.89816 4.35616 0
M  V30 1000 H 86.8749 -5.35333 2.70516 0
M  V30 1001 H 88.5539 -5.59573 3.24787 0
M  V30 1002 N 88.686 -0.835752 -1.33615 0
M  V30 1003 C 89.616 -0.281739 -2.31794 0
M  V30 1004 C 90.597 0.608833 -1.58831 0
M  V30 1005 O 91.782 0.533035 -1.86741 0
M  V30 1006 C 88.912 0.546612 -3.42971 0
M  V30 1007 C 87.866 -0.247904 -4.27281 0
M  V30 1008 C 87.192 0.704001 -5.30045 0
M  V30 1009 C 88.492 -1.46324 -5.01385 0
M  V30 1010 H 90.186 -1.10206 -2.78379 0
M  V30 1011 H 87.732 -0.531388 -1.33837 0
M  V30 1012 H 89.685 0.944467 -4.1068 0
M  V30 1013 H 88.409 1.40011 -2.95067 0
M  V30 1014 H 87.068 -0.627281 -3.61194 0
M  V30 1015 H 86.716 1.55381 -4.78399 0
M  V30 1016 H 86.416 0.176524 -5.87335 0
M  V30 1017 H 87.94 1.09944 -6.0062 0
M  V30 1018 H 89.354 -1.13871 -5.61877 0
M  V30 1019 H 87.751 -1.92728 -5.6831 0
M  V30 1020 H 88.821 -2.23467 -4.30338 0
M  V30 1021 N 90.1641 1.46063 -0.591896 0
M  V30 1022 C 91.0741 2.34192 0.13831 0
M  V30 1023 C 92.0901 1.50305 0.876608 0
M  V30 1024 O 93.2661 1.8315 0.837728 0
M  V30 1025 C 90.3311 3.27656 1.13326 0
M  V30 1026 C 89.3921 4.27445 0.39863 0
M  V30 1027 C 88.6251 5.16443 1.34618 0
M  V30 1028 O 88.8481 5.08553 2.58321 0
M  V30 1029 O 87.7821 5.95843 0.851768 0
M  V30 1030 H 91.6081 2.98002 -0.58552 0
M  V30 1031 H 89.1931 1.45188 -0.352239 0
M  V30 1032 H 91.0751 3.85291 1.70671 0
M  V30 1033 H 89.7501 2.6643 1.83839 0
M  V30 1034 H 88.6571 3.73471 -0.216895 0
M  V30 1035 H 89.9901 4.91482 -0.265709 0
M  V30 1036 N 91.6422 0.330177 1.54103 0
M  V30 1037 C 92.5522 -0.541534 2.28264 0
M  V30 1038 C 93.5682 -1.12351 1.32866 0
M  V30 1039 O 94.7442 -1.14206 1.65888 0
M  V30 1040 C 91.8092 -1.68322 3.03098 0
M  V30 1041 C 90.8702 -1.13238 4.14096 0
M  V30 1042 C 90.1032 -2.21966 4.85352 0
M  V30 1043 O 90.3262 -3.42437 4.56172 0
M  V30 1044 O 89.2602 -1.87013 5.7211 0
M  V30 1045 H 93.0862 0.060938 3.03639 0
M  V30 1046 H 90.6712 0.09565 1.49093 0
M  V30 1047 H 92.5532 -2.34777 3.49939 0
M  V30 1048 H 91.2282 -2.27176 2.30593 0
M  V30 1049 H 90.1352 -0.432736 3.71589 0
M  V30 1050 H 91.4682 -0.588898 4.88664 0
M  V30 1051 N 93.1203 -1.57491 0.0584922 0
M  V30 1052 C 94.3693 -1.92155 -0.613146 0
M  V30 1053 C 94.6823 -0.939334 -1.71569 0
M  V30 1054 O 95.8883 -1.17829 -2.44599 0
M  V30 1055 C 94.3443 -3.41303 -1.14195 0
M  V30 1056 C 93.9523 -4.47944 -0.0711265 0
M  V30 1057 C 95.6963 -3.84988 -1.78841 0
M  V30 1058 C 93.6033 -5.88212 -0.613225 0
M  V30 1059 H 92.5333 -0.717162 -0.232796 0
M  V30 1060 H 95.1843 -1.83049 0.12857 0
M  V30 1061 H 93.5663 -3.45437 -1.93621 0
M  V30 1062 H 94.7403 -4.55408 0.702836 0
M  V30 1063 H 93.0553 -4.13644 0.478313 0
M  V30 1064 H 95.6523 -4.87159 -2.20408 0
M  V30 1065 H 95.9953 -3.21632 -2.64308 0
M  V30 1066 H 96.5283 -3.83401 -1.06059 0
M  V30 1067 H 93.2673 -6.55183 0.203978 0
M  V30 1068 H 92.7873 -5.84294 -1.35501 0
M  V30 1069 H 94.4663 -6.37687 -1.09383 0
M  V30 1070 N 94.5984 0.214957 -1.56127 0
M  V30 1071 C 96.0094 0.781386 -1.69562 0
M  V30 1072 C 96.3604 1.84707 -0.66165 0
M  V30 1073 O 95.4854 2.156 0.185927 0
M  V30 1074 C 96.0804 1.42411 -3.07416 0
M  V30 1075 C 94.6394 1.93786 -3.22683 0
M  V30 1076 C 93.7864 0.800438 -2.65496 0
M  V30 1077 H 96.7374 -0.00980633 -1.58697 0
M  V30 1078 H 96.7584 2.29309 -3.0364 0
M  V30 1079 H 96.2704 0.64826 -3.82648 0
M  V30 1080 H 94.3714 2.74152 -2.52332 0
M  V30 1081 H 94.4844 2.1133 -4.29973 0
M  V30 1082 H 92.8484 1.2095 -2.2415 0
M  V30 1083 H 93.6314 0.0371471 -3.4328 0
M  V30 1084 N 96.0765 1.50051 0.48192 0
M  V30 1085 C 97.3065 1.63999 1.2565 0
M  V30 1086 C 97.7145 0.318288 1.86504 0
M  V30 1087 O 97.0575 -0.708534 1.69486 0
M  V30 1088 C 97.1195 2.66504 2.4128 0
M  V30 1089 C 96.7835 4.10352 2.01148 0
M  V30 1090 C 97.7805 4.96562 1.54021 0
M  V30 1091 C 95.4655 4.56203 2.10199 0
M  V30 1092 C 97.4595 6.26668 1.16473 0
M  V30 1093 C 95.1465 5.86318 1.72264 0
M  V30 1094 C 96.1445 6.71375 1.25477 0
M  V30 1095 O 95.8325 7.99062 0.880626 0
M  V30 1096 H 95.5645 0.55456 0.386574 0
M  V30 1097 H 98.1185 1.96954 0.582944 0
M  V30 1098 H 96.3485 2.28769 3.11772 0
M  V30 1099 H 98.0375 2.69783 3.03268 0
M  V30 1100 H 98.8035 4.62358 1.46458 0
M  V30 1101 H 94.6825 3.90152 2.45566 0
M  V30 1102 H 98.2265 6.93011 0.798841 0
M  V30 1103 H 94.1235 6.20046 1.79482 0
M  V30 1104 H 94.8915 8.12239 1.01043 0
M  V30 1105 N 97.5546 -0.734337 1.39446 0
M  V30 1106 C 98.4646 -1.87879 1.40495 0
M  V30 1107 C 99.4806 -1.714 0.299672 0
M  V30 1108 O 100.657 -1.93991 0.541249 0
M  V30 1109 C 97.7216 -3.23477 1.24754 0
M  V30 1110 C 96.7826 -3.52344 2.45259 0
M  V30 1111 C 96.0156 -4.81473 2.30259 0
M  V30 1112 O 96.2386 -5.55237 1.30643 0
M  V30 1113 O 95.1726 -5.10254 3.19256 0
M  V30 1114 H 98.9986 -1.89949 2.36966 0
M  V30 1115 H 96.5836 -0.882243 1.20569 0
M  V30 1116 H 98.4656 -4.04509 1.18111 0
M  V30 1117 H 97.1406 -3.22176 0.313781 0
M  V30 1118 H 96.0476 -2.71396 2.57478 0
M  V30 1119 H 97.3806 -3.58426 3.37331 0
M  V30 1120 N 99.0327 -1.24633 -0.964593 0
M  V30 1121 C 99.9797 -1.04144 -2.05968 0
M  V30 1122 C 100.95 0.046262 -1.66036 0
M  V30 1123 O 102.135 -0.108972 -1.90489 0
M  V30 1124 C 99.2747 -0.65563 -3.38815 0
M  V30 1125 C 98.3877 -1.81714 -3.91923 0
M  V30 1126 C 97.5227 -1.37662 -5.13052 0
M  V30 1127 C 96.5617 -2.50788 -5.58365 0
M  V30 1128 N 95.6987 -2.07582 -6.70712 0
M  V30 1129 H 100.539 -1.9787 -2.22827 0
M  V30 1130 H 98.0757 -0.9855 -1.09208 0
M  V30 1131 H 100.034 -0.412954 -4.15151 0
M  V30 1132 H 98.6637 0.244627 -3.21872 0
M  V30 1133 H 97.7157 -2.1734 -3.12198 0
M  V30 1134 H 99.0277 -2.66705 -4.21509 0
M  V30 1135 H 98.1817 -1.093 -5.96773 0
M  V30 1136 H 96.9207 -0.497293 -4.85158 0
M  V30 1137 H 95.9257 -2.79906 -4.73215 0
M  V30 1138 H 97.1507 -3.39283 -5.88272 0
M  V30 1139 H 95.0967 -1.22051 -6.44546 0
M  V30 1140 H 95.0137 -2.86125 -6.99763 0
M  V30 1141 H 96.2817 -1.82369 -7.57867 0
M  V30 1142 N 100.511 1.16574 -1.06058 0
M  V30 1143 C 101.788 1.83048 -0.689416 0
M  V30 1144 C 102.168 1.94122 0.829443 0
M  V30 1145 O 101.516 1.48249 1.7388 0
M  V30 1146 C 101.726 3.20186 -1.38859 0
M  V30 1147 C 103.074 3.95989 -1.53226 0
M  V30 1148 O 104.098 3.29696 -1.3483 0
M  V30 1149 O 102.957 5.14813 -1.83384 0
M  V30 1150 H 100.051 0.790258 -0.243764 0
M  V30 1151 H 102.597 1.23797 -1.16071 0
M  V30 1152 H 101.369 3.07146 -2.4244 0
M  V30 1153 H 100.992 3.87112 -0.907216 0
M  V30 1154 N 101.989 0.842826 1.3317 0
M  V30 1155 C 102.919 0.294028 2.31641 0
M  V30 1156 C 103.9 -0.600401 1.59151 0
M  V30 1157 O 105.085 -0.523124 1.87022 0
M  V30 1158 C 102.215 -0.528416 3.43257 0
M  V30 1159 C 101.169 0.27056 4.27144 0
M  V30 1160 C 100.495 -0.675881 5.30411 0
M  V30 1161 C 101.795 1.48981 5.00602 0
M  V30 1162 H 103.489 1.11681 2.77791 0
M  V30 1163 H 101.035 0.538478 1.33553 0
M  V30 1164 H 102.988 -0.922674 4.11175 0
M  V30 1165 H 101.712 -1.38445 2.95805 0
M  V30 1166 H 100.371 0.646427 3.60856 0
M  V30 1167 H 100.019 -1.52842 4.79216 0
M  V30 1168 H 99.7189 -0.145374 5.8742 0
M  V30 1169 H 101.243 -1.06757 6.01195 0
M  V30 1170 H 102.657 1.16849 5.61266 0
M  V30 1171 H 101.054 1.95739 5.6728 0
M  V30 1172 H 102.124 2.25746 4.29147 0
M  V30 1173 N 103.467 -1.45747 0.599634 0
M  V30 1174 C 104.716 -2.01502 0.0893511 0
M  V30 1175 C 105.029 -1.4748 -1.28488 0
M  V30 1176 O 106.235 -1.95161 -1.88745 0
M  V30 1177 C 104.691 -3.59735 0.109082 0
M  V30 1178 C 104.299 -4.22754 1.48267 0
M  V30 1179 C 106.043 -4.23085 -0.346374 0
M  V30 1180 C 103.95 -5.73115 1.45921 0
M  V30 1181 H 102.88 -0.753417 0.0296347 0
M  V30 1182 H 105.531 -1.67303 0.753788 0
M  V30 1183 H 103.913 -3.91087 -0.621854 0
M  V30 1184 H 105.087 -4.02987 2.23468 0
M  V30 1185 H 103.402 -3.71567 1.87955 0
M  V30 1186 H 105.999 -5.33327 -0.38298 0
M  V30 1187 H 106.342 -3.93201 -1.36743 0
M  V30 1188 H 106.875 -3.9642 0.331038 0
M  V30 1189 H 103.614 -6.07685 2.45762 0
M  V30 1190 H 103.134 -5.95097 0.749665 0
M  V30 1191 H 104.813 -6.3616 1.17941 0
M  V30 1192 N 104.945 -0.338344 -1.53925 0
M  V30 1193 C 106.194 0.260732 -2.00008 0
M  V30 1194 C 106.507 1.52073 -1.23017 0
M  V30 1195 O 107.713 2.19672 -1.5955 0
M  V30 1196 C 106.169 0.51515 -3.56194 0
M  V30 1197 C 105.777 -0.728645 -4.42035 0
M  V30 1198 C 107.521 1.07337 -4.10706 0
M  V30 1199 C 105.428 -0.445315 -5.89721 0
M  V30 1200 H 104.358 0.101205 -0.747177 0
M  V30 1201 H 107.009 -0.452866 -1.77824 0
M  V30 1202 H 105.391 1.28932 -3.74423 0
M  V30 1203 H 106.565 -1.50352 -4.35581 0
M  V30 1204 H 104.88 -1.20813 -3.98489 0
M  V30 1205 H 107.477 1.30022 -5.18651 0
M  V30 1206 H 107.82 2.0273 -3.63602 0
M  V30 1207 H 108.353 0.360034 -3.96167 0
M  V30 1208 H 105.092 -1.36883 -6.41049 0
M  V30 1209 H 104.612 0.291569 -5.99091 0
M  V30 1210 H 106.291 -0.0606218 -6.46972 0
M  V30 1211 N 106.423 1.57458 -0.0668435 0
M  V30 1212 C 107.333 2.15937 0.916975 0
M  V30 1213 C 108.349 1.12123 1.33058 0
M  V30 1214 O 109.525 1.44366 1.40429 0
M  V30 1215 C 106.59 2.70547 2.16807 0
M  V30 1216 C 105.651 3.89215 1.81135 0
M  V30 1217 C 104.884 4.41211 3.0028 0
M  V30 1218 O 105.107 3.92225 4.14144 0
M  V30 1219 O 104.041 5.32605 2.80384 0
M  V30 1220 H 107.867 3.00354 0.449561 0
M  V30 1221 H 105.452 1.48584 0.155949 0
M  V30 1222 H 107.334 3.0557 2.90181 0
M  V30 1223 H 106.009 1.89192 2.62656 0
M  V30 1224 H 104.916 3.59054 1.05028 0
M  V30 1225 H 106.249 4.71848 1.40073 0
M  V30 1226 N 107.901 -0.206675 1.56239 0
M  V30 1227 C 109.317 -0.557025 1.49564 0
M  V30 1228 C 109.517 -1.86424 0.764735 0
M  V30 1229 O 108.573 -2.50584 0.310491 0
M  V30 1230 C 109.886 -0.622478 2.94186 0
M  V30 1231 C 111.434 -0.712099 3.04792 0
M  V30 1232 C 111.909 -0.808767 4.50803 0
M  V30 1233 N 113.4 -0.8726 4.54907 0
M  V30 1234 C 114.135 -0.967365 5.65181 0
M  V30 1235 N 113.631 -1.02515 6.85173 0
M  V30 1236 N 115.424 -1.00366 5.53067 0
M  V30 1237 H 107.575 0.650943 2.02179 0
M  V30 1238 H 109.838 0.230387 0.919579 0
M  V30 1239 H 109.544 0.268727 3.50672 0
M  V30 1240 H 109.418 -1.4811 3.46905 0
M  V30 1241 H 111.805 -1.59374 2.48363 0
M  V30 1242 H 111.886 0.172489 2.55218 0
M  V30 1243 H 111.53 0.0684754 5.07854 0
M  V30 1244 H 111.46 -1.70899 4.98098 0
M  V30 1245 H 113.951 -0.837657 3.68499 0
M  V30 1246 H 114.264 -1.09765 7.64965 0
M  V30 1247 H 112.609 -0.994026 6.87855 0
M  V30 1248 H 115.8 -0.95527 4.58249 0
M  V30 1249 H 115.973 -1.07405 6.39037 0
M  V30 1250 N 109.379 -1.50304 -0.473955 0
M  V30 1251 C 110.289 -1.7174 -1.5982 0
M  V30 1252 C 111.305 -0.600457 -1.63311 0
M  V30 1253 O 112.481 -0.878441 -1.81233 0
M  V30 1254 C 109.546 -1.80427 -2.96052 0
M  V30 1255 C 108.607 -3.04148 -3.02972 0
M  V30 1256 C 107.84 -3.12411 -4.32706 0
M  V30 1257 O 108.063 -2.27542 -5.23049 0
M  V30 1258 O 106.997 -4.05113 -4.45159 0
M  V30 1259 H 110.823 -2.67035 -1.44657 0
M  V30 1260 H 108.408 -1.34366 -0.653148 0
M  V30 1261 H 110.29 -1.88338 -3.7697 0
M  V30 1262 H 108.965 -0.883156 -3.11419 0
M  V30 1263 H 107.872 -3.0174 -2.21142 0
M  V30 1264 H 109.205 -3.95829 -2.92541 0
M  V30 1265 N 110.857 0.726932 -1.39834 0
M  V30 1266 C 111.805 1.86235 -1.39353 0
M  V30 1267 C 112.799 1.67144 -0.275555 0
M  V30 1268 O 114.005 1.74387 -0.44601 0
M  V30 1269 H 110.38 0.613174 -0.43534 0
M  V30 1270 H 112.351 1.83756 -2.35109 0
M  V30 1271 C 111.1 3.23995 -1.26185 0
M  V30 1272 H 110.423 3.39285 -2.11484 0
M  V30 1273 H 111.863 4.03609 -1.29907 0
M  V30 1274 C 110.322 3.36888 0.0290018 0
M  V30 1275 O 110.852 3.89152 0.99619 0
M  V30 1276 N 109.058 2.90446 0.0947437 0
M  V30 1277 H 108.605 2.48102 -0.693035 0
M  V30 1278 H 108.563 2.99451 0.957932 0
M  V30 1279 N 112.336 1.25143 0.95797 0
M  V30 1280 C 113.583 1.09692 1.70217 0
M  V30 1281 C 113.911 -0.362654 1.91089 0
M  V30 1282 O 113.166 -1.28386 1.47701 0
M  V30 1283 C 113.465 1.79272 3.09187 0
M  V30 1284 C 113.131 3.29196 3.08125 0
M  V30 1285 C 111.793 3.70096 3.07543 0
M  V30 1286 C 114.145 4.24995 3.0171 0
M  V30 1287 C 111.473 5.05213 2.9829 0
M  V30 1288 C 113.825 5.60132 2.93999 0
M  V30 1289 C 112.489 6.00365 2.9175 0
M  V30 1290 H 111.759 0.401393 0.622868 0
M  V30 1291 H 114.406 1.55372 1.11945 0
M  V30 1292 H 112.711 1.26014 3.70982 0
M  V30 1293 H 114.408 1.64773 3.65583 0
M  V30 1294 H 110.998 2.96651 3.09348 0
M  V30 1295 H 115.182 3.9439 3.01281 0
M  V30 1296 H 110.438 5.35569 2.94916 0
M  V30 1297 H 114.612 6.3406 2.87996 0
M  V30 1298 H 112.239 7.05023 2.84336 0
M  V30 1299 N 113.814 -1.1601 1.06675 0
M  V30 1300 C 115.06 -1.87145 0.796766 0
M  V30 1301 C 115.415 -1.8037 -0.669658 0
M  V30 1302 O 114.708 -1.21116 -1.48463 0
M  V30 1303 C 114.902 -3.35547 1.23057 0
M  V30 1304 C 114.731 -3.56769 2.73762 0
M  V30 1305 C 113.501 -3.72635 3.41279 0
M  V30 1306 C 115.699 -3.55166 3.7197 0
M  V30 1307 N 113.681 -3.81845 4.80695 0
M  V30 1308 C 115.052 -3.70406 4.97191 0
M  V30 1309 C 117.107 -3.384 3.65226 0
M  V30 1310 C 115.81 -3.70615 6.16471 0
M  V30 1311 C 117.836 -3.39904 4.83962 0
M  V30 1312 C 117.198 -3.55667 6.08013 0
M  V30 1313 H 113.297 -0.702267 0.344014 0
M  V30 1314 H 115.881 -1.39165 1.36166 0
M  V30 1315 H 114.052 -3.82159 0.693456 0
M  V30 1316 H 115.784 -3.94363 0.908844 0
M  V30 1317 H 112.539 -3.73121 2.91681 0
M  V30 1318 H 112.963 -3.90209 5.53232 0
M  V30 1319 H 117.605 -3.25138 2.70269 0
M  V30 1320 H 115.323 -3.82658 7.11757 0
M  V30 1321 H 118.909 -3.28169 4.80413 0
M  V30 1322 H 117.789 -3.56755 6.98352 0
M  V30 1323 N 115.292 -0.849877 -1.32721 0
M  V30 1324 C 116.541 -0.447175 -1.96681 0
M  V30 1325 C 116.854 1.00135 -1.68025 0
M  V30 1326 O 118.06 1.50926 -2.25685 0
M  V30 1327 C 116.516 -0.7487 -3.52026 0
M  V30 1328 C 116.124 -2.21264 -3.89546 0
M  V30 1329 C 117.868 -0.413487 -4.22481 0
M  V30 1330 C 115.775 -2.45763 -5.37917 0
M  V30 1331 H 114.705 -0.163486 -0.736063 0
M  V30 1332 H 117.356 -1.03999 -1.51183 0
M  V30 1333 H 115.738 -0.0853727 -3.95908 0
M  V30 1334 H 116.912 -2.91736 -3.56689 0
M  V30 1335 H 115.227 -2.5119 -3.32103 0
M  V30 1336 H 117.824 -0.574017 -5.3161 0
M  V30 1337 H 118.167 0.644492 -4.11281 0
M  V30 1338 H 118.7 -1.03251 -3.84167 0
M  V30 1339 H 115.439 -3.50168 -5.54132 0
M  V30 1340 H 114.959 -1.79864 -5.72197 0
M  V30 1341 H 116.638 -2.29471 -6.0494 0
M  V30 1342 N 116.77 1.45427 -0.607355 0
M  V30 1343 C 117.717 2.3053 0.111625 0
M  V30 1344 C 118.687 1.4209 0.860216 0
M  V30 1345 O 119.872 1.71019 0.845998 0
M  V30 1346 C 117.012 3.26992 1.10319 0
M  V30 1347 C 116.125 4.30535 0.355493 0
M  V30 1348 C 115.26 5.14105 1.33676 0
M  V30 1349 C 114.299 6.09376 0.576862 0
M  V30 1350 N 113.436 6.85727 1.5074 0
M  V30 1351 H 118.276 2.91477 -0.620093 0
M  V30 1352 H 115.813 1.43631 -0.317594 0
M  V30 1353 H 117.771 3.81385 1.6912 0
M  V30 1354 H 116.401 2.67799 1.80232 0
M  V30 1355 H 115.453 3.78805 -0.348023 0
M  V30 1356 H 116.765 4.98235 -0.237423 0
M  V30 1357 H 115.919 5.72897 1.99684 0
M  V30 1358 H 114.658 4.46423 1.9636 0
M  V30 1359 H 113.663 5.49715 -0.0968519 0
M  V30 1360 H 114.888 6.79085 -0.0449341 0
M  V30 1361 H 112.834 6.20735 2.12189 0
M  V30 1362 H 112.751 7.49778 0.967913 0
M  V30 1363 H 114.019 7.4906 2.15706 0
M  V30 1364 N 118.248 0.346503 1.53744 0
M  V30 1365 C 119.158 -0.517293 2.28826 0
M  V30 1366 C 120.174 -1.10935 1.3405 0
M  V30 1367 O 121.35 -1.1244 1.6709 0
M  V30 1368 C 118.415 -1.65098 3.04866 0
M  V30 1369 C 117.476 -1.0884 4.15274 0
M  V30 1370 C 116.709 -2.16806 4.87679 0
M  V30 1371 O 116.932 -3.3758 4.59778 0
M  V30 1372 O 115.866 -1.80934 5.74061 0
M  V30 1373 H 119.692 0.0931396 3.03557 0
M  V30 1374 H 117.277 0.111458 1.48984 0
M  V30 1375 H 119.159 -2.31053 3.5241 0
M  V30 1376 H 117.834 -2.24717 2.32989 0
M  V30 1377 H 116.741 -0.3933 3.72027 0
M  V30 1378 H 118.074 -0.537036 4.89261 0
M  V30 1379 N 119.726 -1.57421 0.075193 0
M  V30 1380 C 120.656 -2.15942 -0.888324 0
M  V30 1381 C 121.637 -1.08737 -1.30806 0
M  V30 1382 O 122.822 -1.36787 -1.37851 0
M  V30 1383 C 119.952 -2.72379 -2.1547 0
M  V30 1384 C 118.906 -3.8478 -1.87425 0
M  V30 1385 C 118.232 -4.27834 -3.20721 0
M  V30 1386 C 119.532 -5.08869 -1.17684 0
M  V30 1387 H 121.226 -2.96705 -0.400799 0
M  V30 1388 H 118.772 -1.42723 -0.191342 0
M  V30 1389 H 120.725 -3.11965 -2.83295 0
M  V30 1390 H 119.449 -1.88841 -2.6647 0
M  V30 1391 H 118.108 -3.45703 -1.22004 0
M  V30 1392 H 117.756 -3.41214 -3.6957 0
M  V30 1393 H 117.456 -5.03605 -3.02746 0
M  V30 1394 H 118.98 -4.70039 -3.89738 0
M  V30 1395 H 120.394 -5.4575 -1.75584 0
M  V30 1396 H 118.791 -5.8994 -1.09956 0
M  V30 1397 H 119.861 -4.84648 -0.156453 0
M  V30 1398 N 121.204 0.198386 -1.56346 0
M  V30 1399 C 122.152 1.26538 -1.95169 0
M  V30 1400 C 123.146 1.47295 -0.836685 0
M  V30 1401 O 124.352 1.48195 -1.02167 0
M  V30 1402 H 120.727 0.424744 -0.620561 0
M  V30 1403 H 122.698 0.910904 -2.84157 0
M  V30 1404 C 121.447 2.6035 -2.30463 0
M  V30 1405 H 120.77 2.45192 -3.15786 0
M  V30 1406 H 122.21 3.33762 -2.61494 0
M  V30 1407 C 120.669 3.17096 -1.13806 0
M  V30 1408 O 121.199 3.99588 -0.41135 0
M  V30 1409 N 119.405 2.75795 -0.915736 0
M  V30 1410 H 118.952 2.08816 -1.50843 0
M  V30 1411 H 118.91 3.14101 -0.136979 0
M  V30 1412 N 122.682 1.50554 0.465978 0
M  V30 1413 C 123.907 1.65838 1.24549 0
M  V30 1414 C 124.332 0.343486 1.84937 0
M  V30 1415 O 123.69 -0.69324 1.67523 0
M  V30 1416 C 123.738 2.75533 2.32624 0
M  V30 1417 O 122.842 2.37142 3.37398 0
M  V30 1418 H 122.183 0.553893 0.366194 0
M  V30 1419 H 124.713 1.96959 0.553927 0
M  V30 1420 H 124.723 2.98763 2.77857 0
M  V30 1421 H 123.398 3.70962 1.88043 0
M  V30 1422 H 121.975 2.24377 2.97841 0
M  V30 1423 N 124.16 -0.719506 1.40217 0
M  V30 1424 C 125.107 -1.83359 1.40172 0
M  V30 1425 C 126.077 -1.64065 0.259206 0
M  V30 1426 O 127.262 -1.85254 0.456677 0
M  V30 1427 C 124.402 -3.2103 1.26624 0
M  V30 1428 C 123.515 -3.51923 2.50548 0
M  V30 1429 C 122.65 -4.79079 2.29471 0
M  V30 1430 C 121.689 -5.02863 3.48992 0
M  V30 1431 N 120.826 -6.2123 3.27135 0
M  V30 1432 H 125.666 -1.82733 2.35399 0
M  V30 1433 H 123.203 -0.892688 1.16917 0
M  V30 1434 H 125.161 -4.00524 1.16776 0
M  V30 1435 H 123.791 -3.20895 0.350176 0
M  V30 1436 H 122.843 -2.67014 2.70939 0
M  V30 1437 H 124.155 -3.6541 3.39525 0
M  V30 1438 H 123.309 -5.66582 2.16955 0
M  V30 1439 H 122.048 -4.67794 1.37913 0
M  V30 1440 H 121.053 -4.13816 3.6199 0
M  V30 1441 H 122.278 -5.16023 4.41472 0
M  V30 1442 H 120.224 -6.11204 2.38256 0
M  V30 1443 H 120.141 -6.35375 4.09675 0
M  V30 1444 H 121.409 -7.11532 3.18344 0
M  V30 1445 N 125.638 -1.25649 -0.95132 0
M  V30 1446 C 126.887 -1.09988 -1.69073 0
M  V30 1447 C 127.2 0.358355 -1.92289 0
M  V30 1448 O 128.406 0.635466 -2.63958 0
M  V30 1449 C 126.862 -1.92012 -3.044 0
M  V30 1450 C 126.47 -3.42347 -2.88968 0
M  V30 1451 C 128.214 -1.8493 -3.82101 0
M  V30 1452 C 126.121 -4.16655 -4.19705 0
M  V30 1453 H 125.051 -0.407993 -0.63408 0
M  V30 1454 H 127.702 -1.49873 -1.05879 0
M  V30 1455 H 126.084 -1.44952 -3.68517 0
M  V30 1456 H 127.258 -3.97104 -2.33762 0
M  V30 1457 H 125.573 -3.50557 -2.24719 0
M  V30 1458 H 128.17 -2.37739 -4.78941 0
M  V30 1459 H 128.513 -0.817883 -4.08187 0
M  V30 1460 H 129.046 -2.29758 -3.2474 0
M  V30 1461 H 125.785 -5.20224 -3.98807 0
M  V30 1462 H 125.305 -3.66681 -4.74663 0
M  V30 1463 H 126.984 -4.24551 -4.88227 0
M  V30 1464 N 127.117 1.15442 -1.07289 0
M  V30 1465 C 128.065 2.22225 -0.686952 0
M  V30 1466 C 129.059 1.66688 0.30193 0
M  V30 1467 O 130.265 1.79236 0.165712 0
M  V30 1468 H 126.64 0.723783 -0.204064 0
M  V30 1469 H 128.611 2.52056 -1.5972 0
M  V30 1470 C 127.36 3.47556 -0.100149 0
M  V30 1471 H 126.683 3.90612 -0.852211 0
M  V30 1472 H 128.123 4.23794 0.132235 0
M  V30 1473 C 126.582 3.16337 1.159 0
M  V30 1474 O 127.112 3.33074 2.24555 0
M  V30 1475 N 125.318 2.70385 1.06491 0
M  V30 1476 H 124.865 2.56966 0.180668 0
M  V30 1477 H 124.823 2.49871 1.90819 0
M  V30 1478 N 128.595 0.856903 1.32268 0
M  V30 1479 C 129.843 0.460474 1.96784 0
M  V30 1480 C 130.164 -0.987701 1.68135 0
M  V30 1481 O 129.434 -1.69058 0.989765 0
M  V30 1482 H 128.014 0.167289 0.728027 0
M  V30 1483 H 130.676 1.09383 1.61312 0
M  V30 1484 H 129.772 0.60739 3.06133 0
M  V30 1485 N 130.073 -1.45103 0.615059 0
M  V30 1486 C 131.303 -2.06254 0.119596 0
M  V30 1487 C 131.711 -1.4591 -1.20445 0
M  V30 1488 O 131.054 -0.570384 -1.7462 0
M  V30 1489 C 131.116 -3.59396 -0.0865591 0
M  V30 1490 C 130.78 -4.42116 1.15683 0
M  V30 1491 C 131.777 -4.7662 2.07676 0
M  V30 1492 C 129.462 -4.82749 1.38775 0
M  V30 1493 C 131.456 -5.50622 3.21082 0
M  V30 1494 C 129.143 -5.56504 2.52481 0
M  V30 1495 C 130.141 -5.90358 3.43463 0
M  V30 1496 O 129.829 -6.62615 4.55189 0
M  V30 1497 H 129.561 -0.672423 0.0694512 0
M  V30 1498 H 132.115 -1.87219 0.844885 0
M  V30 1499 H 130.345 -3.76859 -0.866823 0
M  V30 1500 H 132.034 -4.02365 -0.534555 0
M  V30 1501 H 132.8 -4.4578 1.91063 0
M  V30 1502 H 128.679 -4.55829 0.688545 0
M  V30 1503 H 132.223 -5.76965 3.92119 0
M  V30 1504 H 128.12 -5.86759 2.69043 0
M  V30 1505 H 128.888 -6.81071 4.53966 0
M  V30 1506 N 131.551 -0.354651 -1.53558 0
M  V30 1507 C 132.499 0.512195 -2.26891 0
M  V30 1508 C 133.493 1.09263 -1.29452 0
M  V30 1509 O 134.699 1.03709 -1.47121 0
M  V30 1510 H 131.074 0.183878 -0.729173 0
M  V30 1511 H 133.045 -0.128202 -2.98124 0
M  V30 1512 C 131.794 1.64563 -3.06291 0
M  V30 1513 H 131.117 1.20829 -3.81104 0
M  V30 1514 H 132.557 2.22711 -3.60799 0
M  V30 1515 C 131.016 2.58158 -2.16462 0
M  V30 1516 O 131.546 3.60695 -1.76811 0
M  V30 1517 N 129.752 2.27096 -1.81317 0
M  V30 1518 H 129.299 1.43751 -2.1376 0
M  V30 1519 H 129.257 2.89975 -1.21498 0
M  V30 1520 N 133.029 1.57378 -0.0835403 0
M  V30 1521 C 134.278 1.93106 0.582498 0
M  V30 1522 C 134.591 0.96651 1.70053 0
M  V30 1523 O 135.797 1.21705 2.42693 0
M  V30 1524 C 134.253 3.43076 1.08751 0
M  V30 1525 C 133.861 4.48 -0.000146404 0
M  V30 1526 C 135.605 3.87785 1.72694 0
M  V30 1527 C 133.512 5.89113 0.519568 0
M  V30 1528 H 132.442 0.720775 0.221358 0
M  V30 1529 H 135.093 1.82821 -0.157675 0
M  V30 1530 H 133.475 3.48474 1.88101 0
M  V30 1531 H 134.649 4.54233 -0.775199 0
M  V30 1532 H 132.964 4.1283 -0.54406 0
M  V30 1533 H 135.561 4.90604 2.1263 0
M  V30 1534 H 135.904 3.25796 2.59158 0
M  V30 1535 H 136.437 3.8504 0.999457 0
M  V30 1536 H 133.176 6.54775 -0.308186 0
M  V30 1537 H 132.696 5.86376 1.26188 0
M  V30 1538 H 134.375 6.39346 0.992237 0
M  V30 1539 N 134.507 -0.190092 1.56449 0
M  V30 1540 C 135.47 -1.21925 1.9408 0
M  V30 1541 C 136.47 -1.38176 0.822431 0
M  V30 1542 O 137.66 -1.35903 1.08977 0
M  V30 1543 C 134.792 -2.58773 2.21922 0
M  V30 1544 H 135.985 -0.897464 2.86157 0
M  V30 1545 H 133.538 -0.43181 1.50217 0
M  V30 1546 H 134.273 -2.95998 1.32499 0
M  V30 1547 H 134.058 -2.48348 3.03424 0
M  V30 1548 H 135.548 -3.32978 2.52022 0
M  V30 1549 N 135.985 -1.50799 -0.457987 0
M  V30 1550 C 137.262 -1.52968 -1.21902 0
M  V30 1551 C 137.642 -0.281906 -2.09209 0
M  V30 1552 O 136.99 0.734076 -2.16388 0
M  V30 1553 C 137.2 -2.8326 -2.03875 0
M  V30 1554 C 138.548 -3.34425 -2.6162 0
M  V30 1555 O 139.572 -2.8467 -2.14106 0
M  V30 1556 O 138.431 -4.21188 -3.48228 0
M  V30 1557 H 135.525 -0.614129 -0.553873 0
M  V30 1558 H 138.071 -1.63098 -0.468739 0
M  V30 1559 H 136.843 -3.65543 -1.39621 0
M  V30 1560 H 136.466 -2.76195 -2.8601 0
M  V30 1561 N 137.463 0.71206 -1.40597 0
M  V30 1562 C 138.426 1.80785 -1.40888 0
M  V30 1563 C 139.426 1.57937 -0.302103 0
M  V30 1564 O 140.616 1.64913 -0.561182 0
M  V30 1565 C 137.748 3.18927 -1.20409 0
M  V30 1566 H 138.941 1.81924 -2.38419 0
M  V30 1567 H 136.494 0.91805 -1.26497 0
M  V30 1568 H 137.229 3.23436 -0.236522 0
M  V30 1569 H 137.014 3.36911 -2.00582 0
M  V30 1570 H 138.504 3.98949 -1.23408 0
M  V30 1571 N 138.941 1.26152 0.944643 0
M  V30 1572 C 140.169 1.14259 1.72489 0
M  V30 1573 C 140.584 -0.302555 1.8636 0
M  V30 1574 O 139.941 -1.20741 1.36849 0
M  V30 1575 C 139.992 1.80266 3.13347 0
M  V30 1576 O 139.713 3.19133 3.00143 0
M  V30 1577 C 141.214 1.74283 4.07603 0
M  V30 1578 H 138.434 0.398051 0.540181 0
M  V30 1579 H 140.978 1.66706 1.18446 0
M  V30 1580 H 139.133 1.31766 3.64303 0
M  V30 1581 H 139.547 3.51744 3.89071 0
M  V30 1582 H 141.021 2.25111 5.04013 0
M  V30 1583 H 141.498 0.708631 4.33446 0
M  V30 1584 H 142.104 2.22319 3.62567 0
M  V30 1585 N 140.419 -1.14872 1.07899 0
M  V30 1586 C 141.666 -1.85789 0.805532 0
M  V30 1587 C 141.994 -1.82649 -0.668561 0
M  V30 1588 O 141.249 -1.24858 -1.50695 0
M  V30 1589 C 141.548 -3.34223 1.26609 0
M  V30 1590 C 141.214 -3.57555 2.74709 0
M  V30 1591 C 139.876 -3.63631 3.1516 0
M  V30 1592 C 142.228 -3.66803 3.70277 0
M  V30 1593 C 139.556 -3.76473 4.49983 0
M  V30 1594 C 141.908 -3.8117 5.04869 0
M  V30 1595 C 140.572 -3.85494 5.44932 0
M  V30 1596 H 139.842 -0.679849 0.294765 0
M  V30 1597 H 142.489 -1.3572 1.35101 0
M  V30 1598 H 140.794 -3.86536 0.640103 0
M  V30 1599 H 142.491 -3.87511 1.03132 0
M  V30 1600 H 139.081 -3.5347 2.42398 0
M  V30 1601 H 143.265 -3.61404 3.40149 0
M  V30 1602 H 138.521 -3.7808 4.80484 0
M  V30 1603 H 142.695 -3.87268 5.78789 0
M  V30 1604 H 140.322 -3.95197 6.49403 0
M  V30 1605 N 141.898 -0.863906 -1.31812 0
M  V30 1606 C 143.146 -0.470904 -1.96537 0
M  V30 1607 C 143.467 0.978771 -1.68657 0
M  V30 1608 O 142.737 1.6853 -0.998717 0
M  V30 1609 H 141.317 -0.171148 -0.72713 0
M  V30 1610 H 143.979 -1.10236 -1.60729 0
M  V30 1611 H 143.075 -0.623616 -3.05806 0
M  V30 1612 N 143.376 1.44774 -0.622745 0
M  V30 1613 C 144.653 1.95522 -0.0551974 0
M  V30 1614 C 145.033 1.5649 1.41683 0
M  V30 1615 O 144.381 0.834848 2.12703 0
M  V30 1616 C 144.591 3.4796 -0.269242 0
M  V30 1617 C 145.939 4.24306 -0.158014 0
M  V30 1618 O 146.963 3.55637 -0.200162 0
M  V30 1619 O 145.822 5.46471 -0.0558693 0
M  V30 1620 H 142.916 0.826556 0.0271015 0
M  V30 1621 H 145.462 1.54866 -0.693864 0
M  V30 1622 H 144.234 3.6939 -1.29099 0
M  V30 1623 H 143.857 3.95543 0.403966 0
M  V30 1624 N 144.854 0.36279 1.53368 0
M  V30 1625 C 146.082 -0.228613 2.05633 0
M  V30 1626 C 146.497 -1.42676 1.23649 0
M  V30 1627 O 145.854 -1.80394 0.27647 0
M  V30 1628 C 145.905 -0.624845 3.56059 0
M  V30 1629 O 145.626 0.525675 4.34935 0
M  V30 1630 C 147.127 -1.27493 4.24571 0
M  V30 1631 H 144.347 -0.0407183 0.669763 0
M  V30 1632 H 146.891 0.520352 1.97769 0
M  V30 1633 H 145.046 -1.32373 3.64083 0
M  V30 1634 H 145.46 0.205969 5.24095 0
M  V30 1635 H 146.934 -1.50277 5.31151 0
M  V30 1636 H 147.411 -2.23439 3.78116 0
M  V30 1637 H 148.017 -0.617558 4.20792 0
M  V30 1638 N 146.332 -1.57332 0.0918853 0
M  V30 1639 C 147.572 -1.96117 -0.575988 0
M  V30 1640 C 147.936 -0.972499 -1.65549 0
M  V30 1641 O 149.137 -1.24872 -2.38034 0
M  V30 1642 C 147.408 -3.39407 -1.11973 0
M  V30 1643 S 148.967 -4.00185 -1.79992 0
M  V30 1644 H 145.785 -0.685682 -0.188045 0
M  V30 1645 H 148.387 -1.94755 0.170525 0
M  V30 1646 H 147.091 -4.09131 -0.322504 0
M  V30 1647 H 146.622 -3.44358 -1.90214 0
M  V30 1648 H 148.637 -3.88728 -3.08391 0
M  V30 1649 N 147.81 0.181792 -1.56548 0
M  V30 1650 C 149.035 0.920019 -1.85877 0
M  V30 1651 C 149.46 1.75494 -0.677021 0
M  V30 1652 O 148.818 1.77399 0.374056 0
M  V30 1653 C 148.866 1.78112 -3.13542 0
M  V30 1654 O 147.97 2.88152 -2.95029 0
M  V30 1655 H 147.311 0.258334 -0.611686 0
M  V30 1656 H 149.841 0.183092 -2.03779 0
M  V30 1657 H 149.851 2.18314 -3.44678 0
M  V30 1658 H 148.526 1.16777 -3.99169 0
M  V30 1659 H 147.103 2.51609 -2.75222 0
M  V30 1660 N 149.288 1.51039 0.449983 0
M  V30 1661 C 150.516 1.66869 1.2232 0
M  V30 1662 C 150.931 0.360727 1.85322 0
M  V30 1663 O 150.288 -0.659531 1.70166 0
M  V30 1664 C 150.339 2.77524 2.31652 0
M  V30 1665 O 150.06 4.03252 1.7123 0
M  V30 1666 C 151.561 3.04512 3.2216 0
M  V30 1667 H 148.781 0.560326 0.369155 0
M  V30 1668 H 151.325 1.97385 0.534719 0
M  V30 1669 H 149.48 2.49642 2.96239 0
M  V30 1670 H 149.894 4.64609 2.43389 0
M  V30 1671 H 151.368 3.85551 3.95038 0
M  V30 1672 H 151.845 2.16415 3.8218 0
M  V30 1673 H 152.451 3.34005 2.63288 0
M  V30 1674 N 150.766 -0.704594 1.40972 0
M  V30 1675 C 151.716 -1.81051 1.38581 0
M  V30 1676 C 152.7 -1.58759 0.261585 0
M  V30 1677 O 153.892 -1.69745 0.501556 0
M  V30 1678 C 151.021 -3.19279 1.26157 0
M  V30 1679 C 150.107 -3.47296 2.43405 0
M  V30 1680 N 150.498 -3.46064 3.68881 0
M  V30 1681 C 148.796 -3.77804 2.37023 0
M  V30 1682 C 149.497 -3.72733 4.46592 0
M  V30 1683 N 148.473 -3.9203 3.76581 0
M  V30 1684 H 152.275 -1.78448 2.33525 0
M  V30 1685 H 149.789 -0.904198 1.349 0
M  V30 1686 H 151.786 -3.98488 1.22526 0
M  V30 1687 H 150.446 -3.231 0.321902 0
M  V30 1688 H 151.457 -3.26656 4.01891 0
M  V30 1689 H 148.134 -3.8905 1.51481 0
M  V30 1690 H 149.524 -3.77993 5.55492 0
M  V30 1691 N 152.244 -1.26651 -0.937939 0
M  V30 1692 C 153.655 -1.1125 -1.49934 0
M  V30 1693 C 154.006 0.306077 -1.93798 0
M  V30 1694 O 153.131 1.19792 -1.80219 0
M  V30 1695 C 153.726 -2.01339 -2.72485 0
M  V30 1696 C 152.285 -1.90074 -3.24883 0
M  V30 1697 C 151.432 -1.94498 -1.97651 0
M  V30 1698 H 154.383 -1.39693 -0.753091 0
M  V30 1699 H 154.404 -1.56319 -3.46907 0
M  V30 1700 H 153.916 -3.04577 -2.40529 0
M  V30 1701 H 152.017 -0.897827 -3.61621 0
M  V30 1702 H 152.13 -2.75778 -3.9177 0
M  V30 1703 H 150.494 -1.38591 -2.13693 0
M  V30 1704 H 151.277 -2.99372 -1.68022 0
M  V30 1705 N 153.722 1.14298 -1.08507 0
M  V30 1706 C 154.652 2.21542 -0.737646 0
M  V30 1707 C 155.633 1.67773 0.280377 0
M  V30 1708 O 156.818 1.93616 0.150521 0
M  V30 1709 C 153.948 3.46988 -0.147259 0
M  V30 1710 C 152.902 4.13789 -1.09374 0
M  V30 1711 C 152.228 5.33449 -0.365524 0
M  V30 1712 C 153.528 4.62208 -2.4323 0
M  V30 1713 H 155.222 2.5086 -1.6343 0
M  V30 1714 H 152.768 1.20576 -0.787243 0
M  V30 1715 H 154.721 4.21262 0.107808 0
M  V30 1716 H 153.445 3.17037 0.784538 0
M  V30 1717 H 152.104 3.4147 -1.33393 0
M  V30 1718 H 151.752 4.99759 0.57011 0
M  V30 1719 H 151.452 5.79088 -0.996512 0
M  V30 1720 H 152.976 6.10485 -0.118534 0
M  V30 1721 H 154.39 5.27952 -2.23472 0
M  V30 1722 H 152.787 5.18553 -3.02031 0
M  V30 1723 H 153.857 3.77224 -3.04681 0
M  V30 1724 N 155.201 0.870884 1.31352 0
M  V30 1725 C 156.148 0.325425 2.28494 0
M  V30 1726 C 157.118 -0.576615 1.5577 0
M  V30 1727 O 158.303 -0.508059 1.83911 0
M  V30 1728 C 155.443 -0.466283 3.41935 0
M  V30 1729 C 154.556 0.463378 4.29508 0
M  V30 1730 C 153.691 -0.342544 5.30094 0
M  V30 1731 C 152.73 0.583486 6.09313 0
M  V30 1732 N 151.867 -0.186244 7.01853 0
M  V30 1733 H 156.707 1.15901 2.74538 0
M  V30 1734 H 154.244 0.58294 1.35056 0
M  V30 1735 H 156.202 -0.941085 4.06447 0
M  V30 1736 H 154.832 -1.26456 2.97 0
M  V30 1737 H 153.884 1.05663 3.65431 0
M  V30 1738 H 155.196 1.1734 4.84802 0
M  V30 1739 H 154.35 -0.879816 6.00287 0
M  V30 1740 H 153.089 -1.08585 4.75458 0
M  V30 1741 H 152.094 1.13251 5.3801 0
M  V30 1742 H 153.319 1.32566 6.66035 0
M  V30 1743 H 151.265 -0.912348 6.49625 0
M  V30 1744 H 151.182 0.464422 7.54572 0
M  V30 1745 H 152.45 -0.704716 7.76308 0
M  V30 1746 N 156.679 -1.44442 0.630414 0
M  V30 1747 C 157.589 -2.34476 -0.0761693 0
M  V30 1748 C 158.605 -1.52576 -0.836449 0
M  V30 1749 O 159.781 -1.85307 -0.788874 0
M  V30 1750 C 156.846 -3.30545 -1.04599 0
M  V30 1751 C 155.907 -4.28352 -0.28516 0
M  V30 1752 C 155.14 -5.19831 -1.20878 0
M  V30 1753 O 155.363 -5.15223 -2.44747 0
M  V30 1754 O 154.297 -5.97892 -0.693491 0
M  V30 1755 H 158.123 -2.96345 0.664324 0
M  V30 1756 H 155.708 -1.44203 0.39061 0
M  V30 1757 H 157.59 -3.89681 -1.60396 0
M  V30 1758 H 156.265 -2.7121 -1.76711 0
M  V30 1759 H 155.172 -3.72764 0.315837 0
M  V30 1760 H 156.505 -4.90605 0.395924 0
M  V30 1761 N 158.157 -0.370918 -1.53173 0
M  V30 1762 C 159.067 0.480823 -2.2962 0
M  V30 1763 C 160.083 1.08789 -1.35798 0
M  V30 1764 O 161.259 1.09768 -1.68858 0
M  V30 1765 C 158.324 1.60227 -3.07454 0
M  V30 1766 C 157.385 1.0222 -4.16953 0
M  V30 1767 C 156.618 2.0902 -4.91066 0
M  V30 1768 O 156.841 3.30222 -4.65091 0
M  V30 1769 O 155.775 1.71778 -5.76867 0
M  V30 1770 H 159.601 -0.141421 -3.03371 0
M  V30 1771 H 157.186 -0.135146 -1.48787 0
M  V30 1772 H 159.068 2.25417 -3.56041 0
M  V30 1773 H 157.743 2.20982 -2.36535 0
M  V30 1774 H 156.65 0.334064 -3.72605 0
M  V30 1775 H 157.983 0.459131 -4.90054 0
M  V30 1776 N 159.635 1.57281 -0.100228 0
M  V30 1777 C 160.884 1.93713 0.561984 0
M  V30 1778 C 161.197 0.984492 1.69018 0
M  V30 1779 O 162.403 1.24273 2.41389 0
M  V30 1780 C 160.859 3.4421 1.05106 0
M  V30 1781 C 160.467 4.47975 -0.0476628 0
M  V30 1782 C 162.211 3.89595 1.68571 0
M  V30 1783 C 160.118 5.89631 0.457055 0
M  V30 1784 H 159.048 0.723082 0.2137 0
M  V30 1785 H 161.699 1.82644 -0.177057 0
M  V30 1786 H 160.081 3.50449 1.84395 0
M  V30 1787 H 161.255 4.53385 -0.823333 0
M  V30 1788 H 159.57 4.1223 -0.587816 0
M  V30 1789 H 162.167 4.92832 2.07414 0
M  V30 1790 H 162.51 3.28526 2.55688 0
M  V30 1791 H 163.043 3.86078 0.958562 0
M  V30 1792 H 159.782 6.54411 -0.377616 0
M  V30 1793 H 159.302 5.87681 1.19962 0
M  V30 1794 H 160.981 6.40363 0.92437 0
M  V30 1795 N 161.113 -0.173488 1.56642 0
M  V30 1796 C 162.362 -0.888758 1.81063 0
M  V30 1797 C 162.675 -1.83506 0.67712 0
M  V30 1798 O 163.881 -2.59254 0.806206 0
M  V30 1799 C 162.337 -1.63091 3.20826 0
M  V30 1800 C 161.945 -0.728357 4.4204 0
M  V30 1801 C 163.689 -2.33454 3.54541 0
M  V30 1802 C 161.596 -1.47062 5.72823 0
M  V30 1803 H 160.526 -0.335618 0.675186 0
M  V30 1804 H 163.177 -0.141712 1.82952 0
M  V30 1805 H 161.559 -2.42263 3.13248 0
M  V30 1806 H 162.733 0.0262449 4.60793 0
M  V30 1807 H 161.048 -0.134492 4.16183 0
M  V30 1808 H 163.645 -2.89578 4.49498 0
M  V30 1809 H 163.988 -3.08687 2.79317 0
M  V30 1810 H 164.521 -1.61227 3.63663 0
M  V30 1811 H 161.26 -0.760658 6.51072 0
M  V30 1812 H 160.78 -2.1986 5.58052 0
M  V30 1813 H 162.459 -2.01868 6.14702 0
M  V30 1814 N 162.591 -1.51276 -0.441967 0
M  V30 1815 C 163.538 -1.72256 -1.53612 0
M  V30 1816 C 164.508 -0.564164 -1.56225 0
M  V30 1817 O 165.693 -0.798074 -1.73307 0
M  V30 1818 C 162.833 -1.84932 -2.91366 0
M  V30 1819 C 161.946 -3.12459 -2.98317 0
M  V30 1820 C 161.081 -3.15758 -4.27166 0
M  V30 1821 C 160.12 -4.37619 -4.27967 0
M  V30 1822 N 159.257 -4.38493 -5.48333 0
M  V30 1823 H 164.097 -2.65654 -1.35026 0
M  V30 1824 H 161.634 -1.31662 -0.656009 0
M  V30 1825 H 163.592 -1.90263 -3.7129 0
M  V30 1826 H 162.222 -0.949461 -3.08521 0
M  V30 1827 H 161.274 -3.1646 -2.11086 0
M  V30 1828 H 162.586 -4.02382 -2.94771 0
M  V30 1829 H 161.74 -3.19979 -5.15459 0
M  V30 1830 H 160.479 -2.23715 -4.33362 0
M  V30 1831 H 159.484 -4.33579 -3.38067 0
M  V30 1832 H 160.709 -5.30921 -4.23438 0
M  V30 1833 H 158.655 -3.49318 -5.55259 0
M  V30 1834 H 158.572 -5.22219 -5.46647 0
M  V30 1835 H 159.84 -4.469 -6.38671 0
M  V30 1836 N 164.069 0.697108 -1.41344 0
M  V30 1837 C 165.016 1.81106 -1.43071 0
M  V30 1838 C 165.986 1.63632 -0.285275 0
M  V30 1839 O 167.171 1.84504 -0.486091 0
M  V30 1840 C 164.311 3.18975 -1.31715 0
M  V30 1841 C 163.424 3.47892 -2.56115 0
M  V30 1842 C 162.559 4.75367 -2.37064 0
M  V30 1843 C 161.598 4.97247 -3.56948 0
M  V30 1844 N 160.735 6.15947 -3.36977 0
M  V30 1845 H 165.575 1.78965 -2.38276 0
M  V30 1846 H 163.112 0.873975 -1.18322 0
M  V30 1847 H 165.07 3.98615 -1.23133 0
M  V30 1848 H 163.7 3.20297 -0.401183 0
M  V30 1849 H 162.752 2.62669 -2.75153 0
M  V30 1850 H 164.064 3.59962 -3.45295 0
M  V30 1851 H 163.218 5.63059 -2.25941 0
M  V30 1852 H 161.957 4.65541 -1.45338 0
M  V30 1853 H 160.962 4.08004 -3.68527 0
M  V30 1854 H 162.187 5.08934 -4.49626 0
M  V30 1855 H 160.133 6.07336 -2.47949 0
M  V30 1856 H 160.05 6.28777 -4.19732 0
M  V30 1857 H 161.318 7.06377 -3.29623 0
M  V30 1858 N 165.547 1.27147 0.931209 0
M  V30 1859 C 166.963 1.04475 1.20653 0
M  V30 1860 C 167.163 -0.223885 2.00252 0
M  V30 1861 O 166.219 -0.930332 2.34736 0
M  V30 1862 C 167.532 2.28209 1.95809 0
M  V30 1863 C 169.08 2.33211 2.08762 0
M  V30 1864 C 169.555 3.56665 2.87323 0
M  V30 1865 N 171.046 3.57201 2.94892 0
M  V30 1866 C 171.781 4.49395 3.56134 0
M  V30 1867 N 171.277 5.51889 4.18796 0
M  V30 1868 N 173.07 4.37026 3.53504 0
M  V30 1869 H 165.221 2.08612 0.399333 0
M  V30 1870 H 167.484 0.917312 0.239253 0
M  V30 1871 H 167.19 3.20538 1.44736 0
M  V30 1872 H 167.064 2.33247 2.96438 0
M  V30 1873 H 169.451 1.41391 2.59023 0
M  V30 1874 H 169.532 2.32178 1.07364 0
M  V30 1875 H 169.176 4.4882 2.37746 0
M  V30 1876 H 169.106 3.54948 3.88998 0
M  V30 1877 H 171.597 2.83074 2.50354 0
M  V30 1878 H 171.91 6.18409 4.63454 0
M  V30 1879 H 170.255 5.55735 4.17353 0
M  V30 1880 H 173.446 3.56166 3.03749 0
M  V30 1881 H 173.619 5.09067 4.00942 0
M  V30 1882 N 167.025 -1.13721 1.09112 0
M  V30 1883 C 168.25 -1.89314 0.847053 0
M  V30 1884 C 168.675 -1.78416 -0.595774 0
M  V30 1885 O 168.033 -1.12942 -1.41823 0
M  V30 1886 C 168.081 -3.3701 1.28284 0
M  V30 1887 O 167.185 -4.10054 0.439267 0
M  V30 1888 H 166.526 -0.588745 0.307044 0
M  V30 1889 H 169.056 -1.43902 1.45442 0
M  V30 1890 H 169.066 -3.87834 1.26683 0
M  V30 1891 H 167.741 -3.4426 2.33363 0
M  V30 1892 H 166.318 -3.69266 0.519312 0
M  V30 1893 N 168.503 -0.877838 -1.30888 0
M  V30 1894 C 169.413 -0.343096 -2.32078 0
M  V30 1895 C 170.429 0.551022 -1.65045 0
M  V30 1896 O 171.605 0.445854 -1.96403 0
M  V30 1897 C 168.67 0.439905 -3.43898 0
M  V30 1898 C 167.731 -0.483111 -4.26573 0
M  V30 1899 C 166.964 0.262616 -5.33053 0
M  V30 1900 O 167.187 1.48967 -5.50604 0
M  V30 1901 O 166.121 -0.383593 -6.00676 0
M  V30 1902 H 169.947 -1.18203 -2.79753 0
M  V30 1903 H 167.532 -0.64145 -1.34929 0
M  V30 1904 H 169.414 0.883504 -4.12034 0
M  V30 1905 H 168.089 1.25526 -2.98371 0
M  V30 1906 H 166.996 -0.975374 -3.61161 0
M  V30 1907 H 168.329 -1.26427 -4.75686 0
M  V30 1908 N 169.982 1.44106 -0.638065 0
M  V30 1909 C 171.21 2.06336 -0.152615 0
M  V30 1910 C 171.625 1.47731 1.17563 0
M  V30 1911 O 170.982 0.602806 1.72257 0
M  V30 1912 C 171.033 3.61479 -0.0391491 0
M  V30 1913 O 170.754 4.17903 -1.31487 0
M  V30 1914 C 172.255 4.40757 0.474176 0
M  V30 1915 H 169.475 0.665862 -0.0828776 0
M  V30 1916 H 172.019 1.84862 -0.87443 0
M  V30 1917 H 170.174 3.82191 0.633142 0
M  V30 1918 H 170.588 5.11416 -1.16421 0
M  V30 1919 H 172.062 5.49707 0.502562 0
M  V30 1920 H 172.539 4.12697 1.50258 0
M  V30 1921 H 173.145 4.24979 -0.165102 0
M  V30 1922 N 171.46 0.379036 1.52974 0
M  V30 1923 C 172.706 -0.206727 2.01744 0
M  V30 1924 C 173.039 -1.47314 1.26539 0
M  V30 1925 O 172.314 -1.91084 0.362903 0
M  V30 1926 C 172.597 -0.485066 3.56818 0
M  V30 1927 C 172.45 0.795919 4.42702 0
M  V30 1928 C 173.769 -1.28003 4.21074 0
M  V30 1929 H 170.888 -0.0736607 0.73331 0
M  V30 1930 H 173.53 0.506581 1.83122 0
M  V30 1931 H 171.68 -1.09272 3.72816 0
M  V30 1932 H 173.352 1.43307 4.38476 0
M  V30 1933 H 171.595 1.41344 4.10127 0
M  V30 1934 H 172.266 0.555947 5.49193 0
M  V30 1935 H 174.742 -0.765867 4.08991 0
M  V30 1936 H 173.618 -1.44352 5.29579 0
M  V30 1937 H 173.879 -2.29236 3.78026 0
M  V30 1938 N 172.938 -1.57226 0.108567 0
M  V30 1939 C 173.885 -2.14756 -0.845481 0
M  V30 1940 C 174.855 -1.06971 -1.27068 0
M  V30 1941 O 176.04 -1.34827 -1.35005 0
M  V30 1942 C 173.18 -2.74298 -2.09415 0
M  V30 1943 C 172.293 -3.96358 -1.71826 0
M  V30 1944 C 171.428 -4.44021 -2.9158 0
M  V30 1945 C 170.467 -5.58637 -2.50181 0
M  V30 1946 N 169.604 -6.01091 -3.62814 0
M  V30 1947 H 174.444 -2.95961 -0.348035 0
M  V30 1948 H 171.981 -1.46226 -0.160106 0
M  V30 1949 H 173.939 -3.06945 -2.82561 0
M  V30 1950 H 172.569 -1.95801 -2.56636 0
M  V30 1951 H 171.621 -3.69939 -0.885947 0
M  V30 1952 H 172.933 -4.79504 -1.37394 0
M  V30 1953 H 172.087 -4.78522 -3.72963 0
M  V30 1954 H 170.826 -3.59803 -3.29231 0
M  V30 1955 H 169.831 -5.23751 -1.67228 0
M  V30 1956 H 171.056 -6.44613 -2.13659 0
M  V30 1957 H 169.002 -5.19817 -4.00158 0
M  V30 1958 H 168.919 -6.79066 -3.32273 0
M  V30 1959 H 170.187 -6.40227 -4.44668 0
M  V30 1960 N 174.416 0.165178 -1.56732 0
M  V30 1961 C 175.379 1.18822 -1.95995 0
M  V30 1962 C 176.379 1.3685 -0.84431 0
M  V30 1963 O 177.569 1.34152 -1.11126 0
M  V30 1964 C 174.701 2.5521 -2.26011 0
M  V30 1965 H 175.894 0.851825 -2.87548 0
M  V30 1966 H 173.447 0.407857 -1.50885 0
M  V30 1967 H 174.182 2.93852 -1.37191 0
M  V30 1968 H 173.967 2.43489 -3.07336 0
M  V30 1969 H 175.457 3.28927 -2.57288 0
M  V30 1970 N 175.894 1.51508 0.433938 0
M  V30 1971 C 176.841 1.73068 1.52696 0
M  V30 1972 C 177.811 0.572441 1.55924 0
M  V30 1973 O 178.996 0.807253 1.72882 0
M  V30 1974 C 176.136 1.86474 2.90381 0
M  V30 1975 C 175.249 3.14037 2.96656 0
M  V30 1976 C 174.384 3.18019 4.25485 0
M  V30 1977 C 173.423 4.39882 4.2564 0
M  V30 1978 N 172.56 4.41394 5.45999 0
M  V30 1979 H 177.4 2.66366 1.33615 0
M  V30 1980 H 174.937 1.32008 0.649018 0
M  V30 1981 H 176.895 1.92229 3.70275 0
M  V30 1982 H 175.525 0.965809 3.08013 0
M  V30 1983 H 174.577 3.17575 2.09404 0
M  V30 1984 H 175.889 4.0394 2.92633 0
M  V30 1985 H 175.043 3.22708 5.13755 0
M  V30 1986 H 173.782 2.2601 4.3217 0
M  V30 1987 H 172.787 4.35366 3.35763 0
M  V30 1988 H 174.012 5.33159 4.20617 0
M  V30 1989 H 171.958 3.52258 5.53399 0
M  V30 1990 H 171.875 5.25111 5.4387 0
M  V30 1991 H 173.143 4.50281 6.36292 0
M  V30 1992 N 177.372 -0.689602 1.41712 0
M  V30 1993 C 178.305 -1.81403 1.3845 0
M  V30 1994 C 179.283 -1.60653 0.250874 0
M  V30 1995 O 180.467 -1.83323 0.43874 0
M  V30 1996 C 177.594 -3.18176 1.1611 0
M  V30 1997 C 176.64 -3.57705 2.3227 0
M  V30 1998 S 177.473 -3.61827 3.94767 0
M  V30 1999 C 178.629 -5.01318 3.74742 0
M  V30 2000 H 178.862 -1.83893 2.33603 0
M  V30 2001 H 176.395 -0.858878 1.28307 0
M  V30 2002 H 178.353 -3.97132 1.03907 0
M  V30 2003 H 177.014 -3.13288 0.225668 0
M  V30 2004 H 176.207 -4.57082 2.12349 0
M  V30 2005 H 175.809 -2.86073 2.40911 0
M  V30 2006 H 178.101 -5.88986 3.34817 0
M  V30 2007 H 179.044 -5.26283 4.73743 0
M  V30 2008 H 179.452 -4.73138 3.07898 0
M  V30 2009 N 178.85 -1.27639 -0.924453 0
M  V30 2010 C 179.78 -1.13166 -2.04244 0
M  V30 2011 C 180.761 -0.032256 -1.70069 0
M  V30 2012 O 181.946 -0.207328 -1.9309 0
M  V30 2013 C 179.076 -0.781496 -3.38393 0
M  V30 2014 C 178.03 -1.83449 -3.86692 0
M  V30 2015 C 177.356 -1.33822 -5.17683 0
M  V30 2016 C 178.656 -3.23917 -4.09726 0
M  V30 2017 H 180.35 -2.06689 -2.1661 0
M  V30 2018 H 177.896 -0.995136 -1.04082 0
M  V30 2019 H 179.849 -0.667057 -4.16087 0
M  V30 2020 H 178.573 0.189439 -3.2605 0
M  V30 2021 H 177.232 -1.93789 -3.11193 0
M  V30 2022 H 176.88 -0.35665 -5.01734 0
M  V30 2023 H 176.58 -2.04224 -5.50968 0
M  V30 2024 H 178.104 -1.23679 -5.97943 0
M  V30 2025 H 179.518 -3.16559 -4.77978 0
M  V30 2026 H 177.915 -3.92059 -4.54324 0
M  V30 2027 H 178.985 -3.68729 -3.14908 0
M  V30 2028 N 180.328 1.1314 -1.09713 0
M  V30 2029 C 181.275 2.18642 -0.739196 0
M  V30 2030 C 182.245 1.63706 0.280978 0
M  V30 2031 O 183.43 1.90111 0.161946 0
M  V30 2032 C 180.57 3.44685 -0.169102 0
M  V30 2033 C 179.683 4.13711 -1.24367 0
M  V30 2034 C 178.818 5.27379 -0.636019 0
M  V30 2035 C 177.857 5.88259 -1.69169 0
M  V30 2036 N 176.994 6.93352 -1.10485 0
M  V30 2037 H 181.834 2.48607 -1.64312 0
M  V30 2038 H 179.371 1.22066 -0.820875 0
M  V30 2039 H 181.329 4.16815 0.179256 0
M  V30 2040 H 179.959 3.15161 0.698079 0
M  V30 2041 H 179.011 3.39835 -1.70927 0
M  V30 2042 H 180.323 4.55037 -2.04311 0
M  V30 2043 H 179.477 6.06238 -0.236677 0
M  V30 2044 H 178.216 4.8731 0.194928 0
M  V30 2045 H 177.221 5.08092 -2.10055 0
M  V30 2046 H 178.446 6.30399 -2.52536 0
M  V30 2047 H 176.392 6.55335 -0.295234 0
M  V30 2048 H 176.309 7.33236 -1.84121 0
M  V30 2049 H 177.577 7.76057 -0.73181 0
M  V30 2050 N 181.806 0.884767 1.30421 0
M  V30 2051 C 182.736 0.367574 2.30589 0
M  V30 2052 C 183.717 -0.549464 1.60981 0
M  V30 2053 O 184.902 -0.46336 1.88591 0
M  V30 2054 C 182.032 -0.418944 3.44764 0
M  V30 2055 C 180.986 0.406316 4.26067 0
M  V30 2056 C 180.312 -0.506793 5.32293 0
M  V30 2057 C 181.612 1.64832 4.95608 0
M  V30 2058 H 183.306 1.20462 2.74097 0
M  V30 2059 H 180.852 0.580695 1.31772 0
M  V30 2060 H 182.805 -0.791395 4.13902 0
M  V30 2061 H 181.529 -1.28964 3.0006 0
M  V30 2062 H 180.188 0.760903 3.58617 0
M  V30 2063 H 179.836 -1.37519 4.83836 0
M  V30 2064 H 179.536 0.0415828 5.87585 0
M  V30 2065 H 181.06 -0.875764 6.04287 0
M  V30 2066 H 182.474 1.34646 5.57264 0
M  V30 2067 H 180.871 2.13688 5.60765 0
M  V30 2068 H 181.941 2.39284 4.21748 0
M  V30 2069 N 183.284 -1.43765 0.645699 0
M  V30 2070 C 184.532 -2.01499 0.155731 0
M  V30 2071 C 184.853 -1.51151 -1.232 0
M  V30 2072 O 184.123 -0.721044 -1.82148 0
M  V30 2073 H 182.703 -0.745003 0.0545817 0
M  V30 2074 H 185.365 -1.76075 0.835677 0
M  V30 2075 H 184.461 -3.1181 0.134577 0
M  V30 2076 N 184.763 -0.387143 -1.52771 0
M  V30 2077 C 186.174 0.0873634 -1.86495 0
M  V30 2078 C 186.525 1.46336 -1.30691 0
M  V30 2079 O 185.65 2.068 -0.637409 0
M  V30 2080 C 186.245 0.165305 -3.38396 0
M  V30 2081 C 184.804 0.584101 -3.7184 0
M  V30 2082 C 183.951 -0.255279 -2.76122 0
M  V30 2083 H 186.902 -0.605104 -1.46711 0
M  V30 2084 H 186.923 0.984848 -3.67534 0
M  V30 2085 H 186.435 -0.836301 -3.78982 0
M  V30 2086 H 184.536 1.59315 -3.36823 0
M  V30 2087 H 184.649 0.343749 -4.77865 0
M  V30 2088 H 183.013 0.279126 -2.53166 0
M  V30 2089 H 183.796 -1.25482 -3.19545 0
M  V30 2090 N 186.241 1.57166 -0.116904 0
M  V30 2091 C 187.518 1.86645 0.585049 0
M  V30 2092 C 187.898 1.0177 1.84949 0
M  V30 2093 O 187.246 0.0960379 2.28298 0
M  V30 2094 C 187.456 3.37736 0.879507 0
M  V30 2095 C 188.804 4.06289 1.23348 0
M  V30 2096 O 189.828 3.42743 0.969836 0
M  V30 2097 O 188.687 5.18455 1.7282 0
M  V30 2098 H 185.781 0.772593 0.295007 0
M  V30 2099 H 188.327 1.69025 -0.151249 0
M  V30 2100 H 187.099 3.91296 -0.0166136 0
M  V30 2101 H 186.722 3.6078 1.67103 0
M  V30 2102 N 187.719 -0.156864 1.56817 0
M  V30 2103 C 188.967 -0.869404 1.82444 0
M  V30 2104 C 189.288 -1.82147 0.69623 0
M  V30 2105 O 188.558 -1.93847 -0.28287 0
M  V30 2106 H 187.138 -0.324043 0.673056 0
M  V30 2107 H 189.8 -0.153224 1.94297 0
M  V30 2108 H 188.896 -1.43761 2.77019 0
M  V30 2109 N 189.197 -1.51736 -0.425897 0
M  V30 2110 C 190.613 -1.40166 -0.76326 0
M  V30 2111 C 190.813 -0.492962 -1.95377 0
M  V30 2112 O 189.869 0.0475815 -2.52455 0
M  V30 2113 C 191.182 -2.82403 -1.03291 0
M  V30 2114 C 192.73 -2.91632 -1.13665 0
M  V30 2115 C 193.205 -4.34801 -1.43916 0
M  V30 2116 N 194.696 -4.3796 -1.50816 0
M  V30 2117 C 195.431 -5.4578 -1.75817 0
M  V30 2118 N 194.927 -6.63744 -1.98534 0
M  V30 2119 N 196.72 -5.33274 -1.77694 0
M  V30 2120 H 188.871 -2.09361 0.358 0
M  V30 2121 H 191.134 -0.942941 0.0978094 0
M  V30 2122 H 190.84 -3.50943 -0.230696 0
M  V30 2123 H 190.714 -3.22428 -1.95754 0
M  V30 2124 H 193.101 -2.23284 -1.92947 0
M  V30 2125 H 193.182 -2.55088 -0.190756 0
M  V30 2126 H 192.826 -5.03703 -0.65157 0
M  V30 2127 H 192.756 -4.68868 -2.39729 0
M  V30 2128 H 195.247 -3.52919 -1.35118 0
M  V30 2129 H 195.56 -7.41704 -2.17013 0
M  V30 2130 H 193.905 -6.66839 -1.95832 0
M  V30 2131 H 197.096 -4.40098 -1.59473 0
M  V30 2132 H 197.269 -6.1738 -1.9684 0
M  V30 2133 N 190.675 0.682077 -1.42076 0
M  V30 2134 C 191.622 1.79578 -1.44984 0
M  V30 2135 C 192.592 1.6332 -0.302614 0
M  V30 2136 O 193.777 1.83978 -0.505633 0
M  V30 2137 C 190.917 3.1756 -1.35091 0
M  V30 2138 C 190.03 3.45156 -2.59791 0
M  V30 2139 C 189.165 4.72826 -2.42093 0
M  V30 2140 C 188.204 4.93433 -3.62202 0
M  V30 2141 N 187.341 6.12338 -3.43491 0
M  V30 2142 H 192.181 1.76427 -2.40161 0
M  V30 2143 H 189.718 0.861376 -1.19242 0
M  V30 2144 H 191.676 3.97287 -1.27354 0
M  V30 2145 H 190.306 3.19854 -0.435133 0
M  V30 2146 H 189.358 2.59736 -2.77923 0
M  V30 2147 H 190.67 3.5628 -3.49094 0
M  V30 2148 H 189.824 5.60631 -2.319 0
M  V30 2149 H 188.563 4.63973 -1.50268 0
M  V30 2150 H 187.568 4.04073 -3.72834 0
M  V30 2151 H 188.793 5.04136 -4.54998 0
M  V30 2152 H 186.739 6.04672 -2.54377 0
M  V30 2153 H 186.656 6.2429 -4.26377 0
M  V30 2154 H 187.924 7.02841 -3.37097 0
M  V30 2155 N 192.153 1.28127 0.917671 0
M  V30 2156 C 193.116 1.11744 2.00115 0
M  V30 2157 C 194.116 0.0583052 1.60694 0
M  V30 2158 O 195.306 0.303755 1.71531 0
M  V30 2159 C 192.438 0.704862 3.33533 0
M  V30 2160 H 193.631 2.07966 2.16079 0
M  V30 2161 H 191.184 1.11058 1.09981 0
M  V30 2162 H 191.919 -0.258299 3.2327 0
M  V30 2163 H 191.704 1.4699 3.63505 0
M  V30 2164 H 193.194 0.612768 4.1308 0
M  V30 2165 N 193.631 -1.12557 1.10312 0
M  V30 2166 C 194.561 -2.20341 0.772798 0
M  V30 2167 C 195.542 -1.68198 -0.25365 0
M  V30 2168 O 196.727 -1.93831 -0.119699 0
M  V30 2169 C 193.857 -3.46709 0.202443 0
M  V30 2170 C 192.811 -4.11996 1.15943 0
M  V30 2171 C 192.137 -5.328 0.450345 0
M  V30 2172 C 193.437 -4.5828 2.50552 0
M  V30 2173 H 195.131 -2.48229 1.674 0
M  V30 2174 H 192.677 -1.19308 0.806326 0
M  V30 2175 H 194.63 -4.2138 -0.0407752 0
M  V30 2176 H 193.354 -3.18245 -0.734001 0
M  V30 2177 H 192.013 -3.39305 1.38808 0
M  V30 2178 H 191.661 -5.00602 -0.490531 0
M  V30 2179 H 191.361 -5.7743 1.08851 0
M  V30 2180 H 192.885 -6.10219 0.215642 0
M  V30 2181 H 194.299 -5.2433 2.31843 0
M  V30 2182 H 192.696 -5.13683 3.10242 0
M  V30 2183 H 193.766 -3.72329 3.10643 0
M  V30 2184 N 195.109 -0.891671 -1.2995 0
M  V30 2185 C 196.339 -0.527893 -1.99742 0
M  V30 2186 C 196.747 0.88979 -1.66971 0
M  V30 2187 O 196.09 1.59766 -0.906667 0
M  V30 2188 C 196.152 -0.630804 -3.53922 0
M  V30 2189 C 195.816 -2.01401 -4.10228 0
M  V30 2190 C 196.813 -2.98422 -4.25724 0
M  V30 2191 C 194.498 -2.32121 -4.45449 0
M  V30 2192 C 196.492 -4.24293 -4.75662 0
M  V30 2193 C 194.179 -3.58237 -4.95086 0
M  V30 2194 C 195.177 -4.54137 -5.10146 0
M  V30 2195 O 194.865 -5.78014 -5.58708 0
M  V30 2196 H 194.597 -0.201953 -0.645129 0
M  V30 2197 H 197.151 -1.20076 -1.66646 0
M  V30 2198 H 195.381 0.0990616 -3.86573 0
M  V30 2199 H 197.07 -0.277338 -4.04951 0
M  V30 2200 H 197.836 -2.76001 -3.98809 0
M  V30 2201 H 193.715 -1.5824 -4.32991 0
M  V30 2202 H 197.259 -4.99153 -4.87332 0
M  V30 2203 H 193.156 -3.80491 -5.21437 0
M  V30 2204 H 193.924 -5.8049 -5.77039 0
M  V30 2205 N 196.587 1.43421 -0.653314 0
M  V30 2206 C 197.812 2.06678 -0.172846 0
M  V30 2207 C 198.237 1.48648 1.15262 0
M  V30 2208 O 197.595 0.596457 1.71208 0
M  V30 2209 C 197.643 3.60474 -0.0953184 0
M  V30 2210 O 196.747 4.01487 0.942442 0
M  V30 2211 H 196.088 0.657181 -0.0949155 0
M  V30 2212 H 198.618 1.83925 -0.896265 0
M  V30 2213 H 198.628 4.07905 0.0879728 0
M  V30 2214 H 197.303 4.02088 -1.06291 0
M  V30 2215 H 195.88 3.65646 0.731932 0
M  V30 2216 N 198.065 0.39524 1.52563 0
M  V30 2217 C 199.012 -0.437036 2.26624 0
M  V30 2218 C 199.982 -1.05281 1.28472 0
M  V30 2219 O 201.167 -1.07971 1.57311 0
M  V30 2220 C 198.307 -1.55524 3.08069 0
M  V30 2221 C 197.42 -0.961745 4.21158 0
M  V30 2222 C 196.555 -2.05149 4.89987 0
M  V30 2223 C 195.594 -1.4342 5.95061 0
M  V30 2224 N 194.731 -2.46351 6.57462 0
M  V30 2225 H 199.571 0.200976 2.97322 0
M  V30 2226 H 197.108 0.110944 1.46681 0
M  V30 2227 H 199.066 -2.21437 3.53584 0
M  V30 2228 H 197.696 -2.16348 2.3957 0
M  V30 2229 H 196.748 -0.192048 3.79915 0
M  V30 2230 H 198.06 -0.470701 4.96574 0
M  V30 2231 H 197.214 -2.78819 5.38837 0
M  V30 2232 H 195.953 -2.57615 4.14109 0
M  V30 2233 H 194.958 -0.682774 5.45544 0
M  V30 2234 H 196.183 -0.917416 6.72875 0
M  V30 2235 H 194.129 -2.97975 5.8442 0
M  V30 2236 H 194.046 -2.02019 7.28508 0
M  V30 2237 H 195.314 -3.19633 7.10954 0
M  V30 2238 N 199.544 -1.57102 0.125237 0
M  V30 2239 C 200.955 -1.82384 -0.399142 0
M  V30 2240 C 201.306 -1.04276 -1.66195 0
M  V30 2241 O 200.431 -0.281269 -2.14564 0
M  V30 2242 C 201.026 -3.30821 -0.730932 0
M  V30 2243 C 199.585 -3.56762 -1.19992 0
M  V30 2244 C 198.732 -2.7649 -0.211792 0
M  V30 2245 H 201.683 -1.54786 0.350277 0
M  V30 2246 H 201.704 -3.4579 -1.58775 0
M  V30 2247 H 201.216 -3.87643 0.188345 0
M  V30 2248 H 199.317 -3.05305 -2.13588 0
M  V30 2249 H 199.43 -4.65317 -1.14093 0
M  V30 2250 H 197.794 -2.4489 -0.700085 0
M  V30 2251 H 198.577 -3.36073 0.700691 0
M  V30 2252 N 201.022 0.148545 -1.56898 0
M  V30 2253 C 202.27 0.859717 -1.82902 0
M  V30 2254 C 202.591 1.81775 -0.70588 0
M  V30 2255 O 201.861 1.93994 0.272586 0
M  V30 2256 H 200.441 0.320469 -0.674766 0
M  V30 2257 H 203.103 0.142918 -1.94375 0
M  V30 2258 H 202.199 1.4229 -2.77777 0
M  V30 2259 N 202.5 1.5196 0.417844 0
M  V30 2260 C 203.725 1.69717 1.1921 0
M  V30 2261 C 204.15 0.402148 1.83751 0
M  V30 2262 O 203.508 -0.639593 1.69643 0
M  V30 2263 C 203.556 2.82794 2.2374 0
M  V30 2264 O 202.66 2.47756 3.29683 0
M  V30 2265 H 202.001 0.565263 0.348387 0
M  V30 2266 H 204.531 1.98621 0.490985 0
M  V30 2267 H 204.541 3.07452 2.68212 0
M  V30 2268 H 203.216 3.76756 1.76146 0
M  V30 2269 H 201.793 2.33739 2.90552 0
M  V30 2270 N 203.978 -0.674533 1.42435 0
M  V30 2271 C 204.925 -1.78807 1.45934 0
M  V30 2272 C 205.895 -1.63157 0.311271 0
M  V30 2273 O 207.08 -1.83707 0.515383 0
M  V30 2274 C 204.22 -3.16839 1.36773 0
M  V30 2275 C 203.333 -3.43774 2.61617 0
M  V30 2276 C 202.468 -4.71536 2.44597 0
M  V30 2277 C 201.507 -4.91505 3.64814 0
M  V30 2278 N 200.644 -6.10508 3.46734 0
M  V30 2279 H 205.484 -1.75151 2.41093 0
M  V30 2280 H 203.021 -0.85504 1.19697 0
M  V30 2281 H 204.979 -3.96606 1.29459 0
M  V30 2282 H 203.609 -3.19619 0.452089 0
M  V30 2283 H 202.661 -2.58259 2.79297 0
M  V30 2284 H 203.973 -3.54423 3.50978 0
M  V30 2285 H 203.127 -5.59393 2.3487 0
M  V30 2286 H 201.866 -4.6317 1.52726 0
M  V30 2287 H 200.871 -4.0209 3.74972 0
M  V30 2288 H 202.096 -5.01716 4.57665 0
M  V30 2289 H 200.042 -6.03315 2.5758 0
M  V30 2290 H 199.959 -6.2202 4.29682 0
M  V30 2291 H 201.227 -7.01044 3.40819 0
M  V30 2292 N 205.456 -1.28612 -0.910864 0
M  V30 2293 C 206.404 -1.1265 -2.03501 0
M  V30 2294 C 207.398 -0.0450054 -1.6934 0
M  V30 2295 O 208.604 -0.203988 -1.7884 0
M  V30 2296 H 204.979 -0.347639 -0.666822 0
M  V30 2297 H 206.95 -2.07849 -2.14106 0
M  V30 2298 C 205.699 -0.808143 -3.38178 0
M  V30 2299 H 205.022 -1.63231 -3.6496 0
M  V30 2300 H 206.462 -0.736426 -4.17556 0
M  V30 2301 C 204.921 0.488226 -3.33344 0
M  V30 2302 O 205.451 1.51766 -3.71927 0
M  V30 2303 N 203.657 0.490009 -2.86439 0
M  V30 2304 H 203.204 -0.348161 -2.55236 0
M  V30 2305 H 203.162 1.35741 -2.83587 0
M  V30 2306 N 206.934 1.1197 -1.10907 0
M  V30 2307 C 208.182 1.83225 -0.852819 0
M  V30 2308 C 208.503 1.84769 0.623341 0
M  V30 2309 O 207.773 1.3143 1.45269 0
M  V30 2310 H 206.353 0.67849 -0.312507 0
M  V30 2311 H 209.015 1.3556 -1.40033 0
M  V30 2312 H 208.111 2.87265 -1.22005 0
M  V30 2313 N 208.412 0.89855 1.29475 0
M  V30 2314 C 209.828 0.594483 1.48115 0
M  V30 2315 C 210.028 -0.86431 1.82022 0
M  V30 2316 O 209.084 -1.64457 1.91599 0
M  V30 2317 C 210.397 1.51932 2.59494 0
M  V30 2318 C 211.945 1.5244 2.7337 0
M  V30 2319 C 212.42 2.43548 3.87877 0
M  V30 2320 N 213.911 2.41589 3.95208 0
M  V30 2321 C 214.646 3.08789 4.83153 0
M  V30 2322 N 214.142 3.85265 5.75798 0
M  V30 2323 N 215.935 2.97952 4.76635 0
M  V30 2324 H 208.086 1.84207 1.05742 0
M  V30 2325 H 210.349 0.789251 0.525154 0
M  V30 2326 H 210.055 2.55865 2.41301 0
M  V30 2327 H 209.929 1.23899 3.56271 0
M  V30 2328 H 212.316 0.492518 2.90961 0
M  V30 2329 H 212.397 1.8451 1.77172 0
M  V30 2330 H 212.041 3.46829 3.71041 0
M  V30 2331 H 211.971 2.08788 4.83441 0
M  V30 2332 H 214.462 1.86025 3.28943 0
M  V30 2333 H 214.775 4.33598 6.39697 0
M  V30 2334 H 213.12 3.89371 5.75687 0
M  V30 2335 H 216.311 2.37723 4.03244 0
M  V30 2336 H 216.484 3.50599 5.44962 0
M  V30 2337 N 209.89 -1.43072 0.660911 0
M  V30 2338 C 211.136 -2.02545 0.186337 0
M  V30 2339 C 211.491 -1.51253 -1.18913 0
M  V30 2340 O 210.784 -0.699167 -1.78388 0
M  V30 2341 C 210.978 -3.57103 0.145563 0
M  V30 2342 C 210.807 -4.23393 1.51554 0
M  V30 2343 C 209.577 -4.59144 2.10984 0
M  V30 2344 C 211.775 -4.51897 2.45548 0
M  V30 2345 N 209.757 -5.10545 3.40907 0
M  V30 2346 C 211.128 -5.04698 3.6011 0
M  V30 2347 C 213.183 -4.33872 2.44253 0
M  V30 2348 C 211.886 -5.41371 4.73613 0
M  V30 2349 C 213.912 -4.71612 3.56842 0
M  V30 2350 C 213.274 -5.24553 4.70131 0
M  V30 2351 H 209.373 -0.773823 0.112792 0
M  V30 2352 H 211.957 -1.74137 0.870885 0
M  V30 2353 H 210.128 -3.85059 -0.508353 0
M  V30 2354 H 211.86 -4.03264 -0.340598 0
M  V30 2355 H 208.615 -4.4444 1.63615 0
M  V30 2356 H 209.039 -5.40689 4.07411 0
M  V30 2357 H 213.681 -3.92208 1.579 0
M  V30 2358 H 211.399 -5.81975 5.60652 0
M  V30 2359 H 214.985 -4.59354 3.57051 0
M  V30 2360 H 213.865 -5.53213 5.5581 0
M  V30 2361 N 211.368 -0.403325 -1.52352 0
M  V30 2362 C 212.316 0.439752 -2.28405 0
M  V30 2363 C 213.31 1.05089 -1.32863 0
M  V30 2364 O 214.516 0.989759 -1.50345 0
M  V30 2365 H 210.891 0.160587 -0.734653 0
M  V30 2366 H 212.862 -0.222983 -2.97566 0
M  V30 2367 C 211.611 1.54736 -3.11371 0
M  V30 2368 H 210.934 1.08643 -3.84755 0
M  V30 2369 H 212.374 2.1112 -3.67701 0
M  V30 2370 C 210.833 2.51141 -2.24566 0
M  V30 2371 O 211.363 3.54887 -1.88196 0
M  V30 2372 N 209.569 2.21213 -1.8845 0
M  V30 2373 H 209.116 1.36878 -2.18225 0
M  V30 2374 H 209.074 2.85963 -1.30662 0
M  V30 2375 N 212.846 1.57033 -0.133567 0
M  V30 2376 C 214.257 1.82593 0.389464 0
M  V30 2377 C 214.608 1.05156 1.6564 0
M  V30 2378 O 213.733 0.292644 2.14412 0
M  V30 2379 C 214.328 3.31204 0.713377 0
M  V30 2380 C 212.887 3.57393 1.18098 0
M  V30 2381 C 212.034 2.76598 0.197126 0
M  V30 2382 H 214.985 1.54598 -0.358481 0
M  V30 2383 H 215.006 3.46627 1.56939 0
M  V30 2384 H 214.518 3.87537 -0.2089 0
M  V30 2385 H 212.619 3.06433 2.11966 0
M  V30 2386 H 212.732 4.65915 1.11624 0
M  V30 2387 H 211.096 2.45257 0.687088 0
M  V30 2388 H 211.879 3.35697 -0.718504 0
M  V30 2389 N 214.325 -0.140222 1.56975 0
M  V30 2390 C 215.235 -1.19223 2.02047 0
M  V30 2391 C 216.251 -1.46612 0.937062 0
M  V30 2392 O 217.427 -1.58148 1.24704 0
M  V30 2393 C 214.492 -2.50414 2.39778 0
M  V30 2394 C 213.553 -2.30612 3.621 0
M  V30 2395 C 212.786 -3.55547 3.98023 0
M  V30 2396 O 213.009 -4.62004 3.34528 0
M  V30 2397 O 211.943 -3.47808 4.91237 0
M  V30 2398 H 215.769 -0.839559 2.91865 0
M  V30 2399 H 213.354 -0.349453 1.45256 0
M  V30 2400 H 215.236 -3.27747 2.64877 0
M  V30 2401 H 213.911 -2.85198 1.53114 0
M  V30 2402 H 212.818 -1.51207 3.4218 0
M  V30 2403 H 214.151 -2.00741 4.49404 0
M  V30 2404 N 215.803 -1.52179 -0.40978 0
M  V30 2405 C 217.031 -1.70054 -1.17853 0
M  V30 2406 C 217.446 -0.409735 -1.843 0
M  V30 2407 O 216.803 0.614183 -1.71855 0
M  V30 2408 C 216.854 -2.83568 -2.24213 0
M  V30 2409 O 216.575 -4.0765 -1.60478 0
M  V30 2410 C 218.076 -3.12947 -3.13973 0
M  V30 2411 H 215.296 -0.569917 -0.354169 0
M  V30 2412 H 217.84 -1.98734 -0.482198 0
M  V30 2413 H 215.995 -2.57409 -2.89516 0
M  V30 2414 H 216.409 -4.70899 -2.30986 0
M  V30 2415 H 217.883 -3.95889 -3.84677 0
M  V30 2416 H 218.36 -2.26472 -3.76307 0
M  V30 2417 H 218.966 -3.40868 -2.5434 0
M  V30 2418 N 217.281 0.66697 -1.42791 0
M  V30 2419 C 218.231 1.77313 -1.43332 0
M  V30 2420 C 219.215 1.5801 -0.303586 0
M  V30 2421 O 220.407 1.68356 -0.546385 0
M  V30 2422 C 217.536 3.15822 -1.34578 0
M  V30 2423 C 216.622 3.40721 -2.52528 0
M  V30 2424 N 217.013 3.36162 -3.77927 0
M  V30 2425 C 215.311 3.71387 -2.46956 0
M  V30 2426 C 216.012 3.60762 -4.56318 0
M  V30 2427 N 214.988 3.81908 -3.86843 0
M  V30 2428 H 218.79 1.72193 -2.38174 0
M  V30 2429 H 216.304 0.868114 -1.3725 0
M  V30 2430 H 218.301 3.951 -1.33048 0
M  V30 2431 H 216.961 3.22133 -0.407453 0
M  V30 2432 H 217.972 3.15885 -4.10411 0
M  V30 2433 H 214.649 3.84897 -1.61743 0
M  V30 2434 H 216.039 3.63132 -5.65318 0
M  V30 2435 N 218.759 1.29093 0.90403 0
M  V30 2436 C 219.706 1.13853 2.00764 0
M  V30 2437 C 220.676 0.0330084 1.66067 0
M  V30 2438 O 221.861 0.199733 1.89752 0
M  V30 2439 C 219.001 0.816537 3.35301 0
M  V30 2440 C 218.114 2.00206 3.82807 0
M  V30 2441 C 217.249 1.61983 5.059 0
M  V30 2442 C 216.288 2.77143 5.45764 0
M  V30 2443 N 215.425 2.39346 6.60044 0
M  V30 2444 H 220.265 2.08276 2.13132 0
M  V30 2445 H 217.802 1.03648 1.04381 0
M  V30 2446 H 219.76 0.610557 4.12708 0
M  V30 2447 H 218.39 -0.090779 3.22672 0
M  V30 2448 H 217.442 2.31988 3.01473 0
M  V30 2449 H 218.754 2.86512 4.08304 0
M  V30 2450 H 217.908 1.37649 5.90879 0
M  V30 2451 H 216.647 0.728202 4.82233 0
M  V30 2452 H 215.652 3.02165 4.59322 0
M  V30 2453 H 216.877 3.66964 5.71414 0
M  V30 2454 H 214.823 1.52665 6.37989 0
M  V30 2455 H 214.74 3.19185 6.85315 0
M  V30 2456 H 216.008 2.1832 7.48303 0
M  V30 2457 N 220.237 -1.11381 1.11499 0
M  V30 2458 C 221.484 -1.83132 0.864231 0
M  V30 2459 C 221.812 -1.84683 -0.610114 0
M  V30 2460 O 221.067 -1.29589 -1.46646 0
M  V30 2461 C 221.366 -3.30026 1.37177 0
M  V30 2462 C 221.032 -3.48634 2.85946 0
M  V30 2463 C 219.694 -3.53421 3.26569 0
M  V30 2464 C 222.046 -3.54837 3.81759 0
M  V30 2465 C 219.374 -3.61967 4.61733 0
M  V30 2466 C 221.726 -3.64915 5.1674 0
M  V30 2467 C 220.39 -3.67962 5.5692 0
M  V30 2468 H 219.66 -0.670127 0.316245 0
M  V30 2469 H 222.307 -1.31354 1.3935 0
M  V30 2470 H 220.612 -3.84304 0.762753 0
M  V30 2471 H 222.309 -3.84034 1.15408 0
M  V30 2472 H 218.899 -3.45579 2.53521 0
M  V30 2473 H 223.083 -3.50399 3.51474 0
M  V30 2474 H 218.339 -3.62603 4.92269 0
M  V30 2475 H 222.513 -3.68658 5.90816 0
M  V30 2476 H 220.14 -3.74336 6.61647 0
M  V30 2477 N 221.715 -0.905404 -1.28997 0
M  V30 2478 C 222.955 -0.541232 -1.97104 0
M  V30 2479 C 223.319 0.896841 -1.69767 0
M  V30 2480 O 224.52 1.36817 -2.31375 0
M  V30 2481 C 222.791 -0.832134 -3.47578 0
M  V30 2482 S 224.35 -0.573127 -4.35041 0
M  V30 2483 H 221.168 -0.200576 -0.682122 0
M  V30 2484 H 223.77 -1.16906 -1.56694 0
M  V30 2485 H 222.474 -1.87687 -3.64968 0
M  V30 2486 H 222.005 -0.192636 -3.92928 0
M  V30 2487 H 224.02 0.579297 -4.92807 0
M  V30 2488 N 223.193 1.4272 -0.668489 0
M  V30 2489 C 224.14 2.30796 0.0137489 0
M  V30 2490 C 225.11 1.4561 0.799177 0
M  V30 2491 O 226.295 1.74453 0.772702 0
M  V30 2492 C 223.435 3.31377 0.963507 0
M  V30 2493 C 222.548 4.31655 0.172569 0
M  V30 2494 C 221.683 5.19312 1.1175 0
M  V30 2495 C 220.722 6.11274 0.317886 0
M  V30 2496 N 219.859 6.91504 1.2152 0
M  V30 2497 H 224.699 2.88585 -0.743161 0
M  V30 2498 H 222.236 1.42154 -0.378226 0
M  V30 2499 H 224.194 3.88214 1.52792 0
M  V30 2500 H 222.824 2.75202 1.68712 0
M  V30 2501 H 221.876 3.76988 -0.508374 0
M  V30 2502 H 223.188 4.96779 -0.448527 0
M  V30 2503 H 222.342 5.80851 1.75206 0
M  V30 2504 H 221.081 4.5435 1.77249 0
M  V30 2505 H 220.086 5.48809 -0.329918 0
M  V30 2506 H 221.311 6.78283 -0.332917 0
M  V30 2507 H 219.257 6.29176 1.85671 0
M  V30 2508 H 219.174 7.53209 0.649036 0
M  V30 2509 H 220.442 7.57535 1.83742 0
M  V30 2510 N 224.671 0.411399 1.52136 0
M  V30 2511 C 225.911 -0.163143 2.03748 0
M  V30 2512 C 226.275 -1.42187 1.29022 0
M  V30 2513 O 227.476 -2.075 1.70872 0
M  V30 2514 C 225.747 -0.402651 3.55125 0
M  V30 2515 S 227.306 -0.944315 4.28519 0
M  V30 2516 H 224.124 -0.0439833 0.709638 0
M  V30 2517 H 226.726 0.56484 1.87163 0
M  V30 2518 H 225.43 0.520212 4.0709 0
M  V30 2519 H 224.961 -1.15844 3.75957 0
M  V30 2520 H 226.976 -2.22463 4.43536 0
M  V30 2521 N 226.149 -1.5696 0.141893 0
M  V30 2522 C 227.397 -1.95573 -0.509484 0
M  V30 2523 C 227.718 -1.02746 -1.65736 0
M  V30 2524 O 226.988 -0.0880311 -1.95702 0
M  V30 2525 H 225.568 -0.722115 -0.191205 0
M  V30 2526 H 228.23 -1.93697 0.216196 0
M  V30 2527 H 227.326 -2.99171 -0.889 0
M  V30 2528 N 227.627 0.131896 -1.57047 0
M  V30 2529 C 228.873 0.843179 -1.84441 0
M  V30 2530 C 229.206 1.80129 -0.725749 0
M  V30 2531 O 228.481 1.92624 0.269469 0
M  V30 2532 C 228.764 1.60442 -3.22382 0
M  V30 2533 C 228.617 0.666782 -4.4483 0
M  V30 2534 C 229.936 2.56354 -3.5773 0
M  V30 2535 H 227.055 0.305081 -0.670891 0
M  V30 2536 H 229.697 0.107839 -1.89694 0
M  V30 2537 H 227.847 2.23128 -3.18035 0
M  V30 2538 H 229.519 0.0497646 -4.61273 0
M  V30 2539 H 227.762 -0.022609 -4.33794 0
M  V30 2540 H 228.433 1.23579 -5.37989 0
M  V30 2541 H 230.909 2.0378 -3.62785 0
M  V30 2542 H 229.785 3.06657 -4.5525 0
M  V30 2543 H 230.046 3.38419 -2.84473 0
M  V30 2544 N 229.106 1.52395 0.401703 0
M  V30 2545 C 230.522 1.41363 0.740864 0
M  V30 2546 C 230.722 0.523982 1.94568 0
M  V30 2547 O 229.778 -0.00741204 2.52499 0
M  V30 2548 C 231.091 2.84011 0.987847 0
M  V30 2549 C 232.639 2.93404 1.09011 0
M  V30 2550 C 233.114 4.37036 1.3698 0
M  V30 2551 N 234.605 4.40304 1.43829 0
M  V30 2552 C 235.34 5.48508 1.67112 0
M  V30 2553 N 234.836 6.66819 1.87949 0
M  V30 2554 N 236.629 5.36034 1.69187 0
M  V30 2555 H 228.78 2.08765 -0.391262 0
M  V30 2556 H 231.043 0.941265 -0.112798 0
M  V30 2557 H 230.749 3.51265 0.174835 0
M  V30 2558 H 230.623 3.25502 1.906 0
M  V30 2559 H 233.01 2.26325 1.8937 0
M  V30 2560 H 233.091 2.55359 0.15015 0
M  V30 2561 H 232.735 5.04676 0.571353 0
M  V30 2562 H 232.665 4.72623 2.3224 0
M  V30 2563 H 235.156 3.55024 1.29486 0
M  V30 2564 H 235.469 7.45063 2.05185 0
M  V30 2565 H 233.814 6.6987 1.85199 0
M  V30 2566 H 237.005 4.42579 1.52451 0
M  V30 2567 H 237.178 6.20434 1.86993 0
M  V30 2568 N 230.584 -0.659388 1.43143 0
M  V30 2569 C 231.833 -1.41518 1.43721 0
M  V30 2570 C 232.146 -1.95499 0.0628176 0
M  V30 2571 O 233.352 -2.71446 -0.0539683 0
M  V30 2572 C 231.808 -2.5608 2.52885 0
M  V30 2573 C 231.416 -2.08733 3.96402 0
M  V30 2574 C 233.16 -3.3349 2.62649 0
M  V30 2575 C 231.067 -3.20469 4.97045 0
M  V30 2576 H 229.997 -0.531705 0.534608 0
M  V30 2577 H 232.648 -0.712343 1.69109 0
M  V30 2578 H 231.03 -3.28805 2.20688 0
M  V30 2579 H 232.204 -1.43059 4.3803 0
M  V30 2580 H 230.519 -1.44219 3.90627 0
M  V30 2581 H 233.116 -4.16734 3.35017 0
M  V30 2582 H 233.459 -3.8111 1.67513 0
M  V30 2583 H 233.992 -2.67842 2.94118 0
M  V30 2584 H 230.731 -2.77824 5.93712 0
M  V30 2585 H 230.251 -3.84874 4.60034 0
M  V30 2586 H 231.93 -3.85698 5.19467 0
M  V30 2587 N 232.062 -1.29571 -0.897171 0
M  V30 2588 C 232.994 -1.10724 -2.00681 0
M  V30 2589 C 234.007 -0.0540026 -1.6271 0
M  V30 2590 O 235.196 -0.298783 -1.75982 0
M  V30 2591 C 232.296 -0.663912 -3.32333 0
M  V30 2592 C 231.469 -1.79622 -3.98816 0
M  V30 2593 C 230.528 -1.34349 -5.0876 0
M  V30 2594 O 229.554 -2.04864 -5.31055 0
M  V30 2595 N 230.756 -0.215764 -5.80099 0
M  V30 2596 H 233.521 -2.06291 -2.17403 0
M  V30 2597 H 231.082 -1.21544 -1.06951 0
M  V30 2598 H 233.074 -0.344295 -4.03233 0
M  V30 2599 H 231.644 0.199375 -3.11964 0
M  V30 2600 H 230.864 -2.28459 -3.21248 0
M  V30 2601 H 232.152 -2.55535 -4.39976 0
M  V30 2602 H 231.55 0.372091 -5.64475 0
M  V30 2603 H 230.107 0.0444707 -6.51785 0
M  V30 2604 N 233.54 1.10788 -1.12088 0
M  V30 2605 C 234.768 1.86461 -0.896651 0
M  V30 2606 C 235.183 1.80492 0.553912 0
M  V30 2607 O 234.54 1.19102 1.38278 0
M  V30 2608 C 234.591 3.35006 -1.35843 0
M  V30 2609 O 234.312 3.40866 -2.75213 0
M  V30 2610 C 235.813 4.27565 -1.1706 0
M  V30 2611 H 233.033 0.589425 -0.320654 0
M  V30 2612 H 235.577 1.40076 -1.48993 0
M  V30 2613 H 233.732 3.7887 -0.808458 0
M  V30 2614 H 234.146 4.33411 -2.9539 0
M  V30 2615 H 235.62 5.30007 -1.54263 0
M  V30 2616 H 236.097 4.3906 -0.110814 0
M  V30 2617 H 236.703 3.89501 -1.70789 0
M  V30 2618 N 235.018 0.912232 1.28515 0
M  V30 2619 C 236.243 0.559774 1.99703 0
M  V30 2620 C 236.668 -0.851393 1.67729 0
M  V30 2621 O 236.026 -1.56875 0.908834 0
M  V30 2622 C 236.074 0.773874 3.52198 0
M  V30 2623 O 235.178 -0.167842 4.12058 0
M  V30 2624 H 234.519 0.21723 0.627461 0
M  V30 2625 H 237.049 1.22725 1.63706 0
M  V30 2626 H 237.059 0.683386 4.02236 0
M  V30 2627 H 235.734 1.80261 3.74805 0
M  V30 2628 H 234.311 -0.0287509 3.72889 0
M  V30 2629 N 236.496 -1.42363 0.676048 0
M  V30 2630 C 237.459 -2.29199 0.00766941 0
M  V30 2631 C 238.459 -1.43389 -0.727745 0
M  V30 2632 O 239.649 -1.64764 -0.56556 0
M  V30 2633 C 236.781 -3.2591 -0.999785 0
M  V30 2634 H 237.974 -2.89794 0.771988 0
M  V30 2635 H 235.527 -1.50024 0.438468 0
M  V30 2636 H 236.262 -2.70256 -1.79255 0
M  V30 2637 H 236.047 -3.89202 -0.475829 0
M  V30 2638 H 237.537 -3.91028 -1.46583 0
M  V30 2639 N 237.974 -0.419461 -1.51915 0
M  V30 2640 C 239.204 0.151915 -2.06041 0
M  V30 2641 C 239.612 1.38539 -1.28855 0
M  V30 2642 O 238.955 1.80592 -0.336463 0
M  V30 2643 C 239.017 0.557119 -3.55157 0
M  V30 2644 C 238.681 -0.567054 -4.53468 0
M  V30 2645 C 239.678 -1.43379 -4.99738 0
M  V30 2646 C 237.363 -0.742693 -4.96779 0
M  V30 2647 C 239.357 -2.46102 -5.87973 0
M  V30 2648 C 237.044 -1.77322 -5.84808 0
M  V30 2649 C 238.042 -2.63078 -6.30301 0
M  V30 2650 O 237.73 -3.64364 -7.16585 0
M  V30 2651 H 237.462 0.0193293 -0.675724 0
M  V30 2652 H 240.016 -0.592073 -1.96682 0
M  V30 2653 H 238.246 1.35355 -3.62238 0
M  V30 2654 H 239.935 1.05759 -3.9188 0
M  V30 2655 H 240.701 -1.30954 -4.66986 0
M  V30 2656 H 236.58 -0.0848307 -4.60922 0
M  V30 2657 H 240.124 -3.13071 -6.23404 0
M  V30 2658 H 236.021 -1.89773 -6.16974 0
M  V30 2659 H 236.789 -3.60731 -7.34721 0
M  V30 2660 N 239.452 1.56882 -0.150215 0
M  V30 2661 C 240.68 2.00593 0.506948 0
M  V30 2662 C 241.095 1.03033 1.58208 0
M  V30 2663 O 240.452 0.0278396 1.82479 0
M  V30 2664 C 240.503 3.44209 1.10465 0
M  V30 2665 O 240.224 4.3804 0.0724636 0
M  V30 2666 C 241.725 4.03214 1.84211 0
M  V30 2667 H 238.945 0.65795 0.13169 0
M  V30 2668 H 241.489 2.03018 -0.245743 0
M  V30 2669 H 239.644 3.42625 1.80795 0
M  V30 2670 H 240.058 5.22007 0.510793 0
M  V30 2671 H 241.532 5.0569 2.21318 0
M  V30 2672 H 242.009 3.44107 2.72923 0
M  V30 2673 H 242.615 4.08437 1.18572 0
M  V30 2674 N 240.93 -0.123565 1.57115 0
M  V30 2675 C 242.17 -0.838097 1.86428 0
M  V30 2676 C 242.534 -1.77266 0.737611 0
M  V30 2677 O 243.735 -2.52842 0.912389 0
M  V30 2678 C 242.006 -1.57219 3.20962 0
M  V30 2679 S 243.565 -2.32893 3.71896 0
M  V30 2680 H 240.383 -0.279811 0.653626 0
M  V30 2681 H 242.985 -0.0967034 1.95261 0
M  V30 2682 H 241.689 -0.877522 4.00909 0
M  V30 2683 H 241.22 -2.35405 3.15195 0
M  V30 2684 H 243.235 -3.5853 3.43032 0
M  V30 2685 N 242.408 -1.52605 -0.393616 0
M  V30 2686 C 243.633 -1.71592 -1.16495 0
M  V30 2687 C 244.058 -0.43133 -1.83088 0
M  V30 2688 O 243.416 0.612523 -1.7064 0
M  V30 2689 C 243.464 -2.86318 -2.19213 0
M  V30 2690 O 242.568 -2.52969 -3.257 0
M  V30 2691 H 241.909 -0.570734 -0.33935 0
M  V30 2692 H 244.439 -1.99377 -0.459324 0
M  V30 2693 H 244.449 -3.1168 -2.63286 0
M  V30 2694 H 243.124 -3.79511 -1.7013 0
M  V30 2695 H 241.701 -2.38332 -2.86797 0
M  V30 2696 N 243.887 0.651787 -1.4349 0
M  V30 2697 C 244.834 1.76462 -1.4876 0
M  V30 2698 C 245.804 1.62641 -0.337189 0
M  V30 2699 O 246.989 1.82864 -0.544544 0
M  V30 2700 C 244.129 3.14623 -1.41796 0
M  V30 2701 C 243.242 3.39568 -2.67053 0
M  V30 2702 C 242.377 4.67585 -2.52068 0
M  V30 2703 C 241.416 4.85639 -3.72587 0
M  V30 2704 N 240.553 6.04915 -3.56402 0
M  V30 2705 H 245.393 1.71293 -2.43849 0
M  V30 2706 H 242.93 0.835889 -1.21043 0
M  V30 2707 H 244.888 3.94496 -1.35753 0
M  V30 2708 H 243.518 3.18859 -0.50288 0
M  V30 2709 H 242.57 2.53783 -2.8337 0
M  V30 2710 H 243.882 3.48795 -3.56572 0
M  V30 2711 H 243.036 5.55586 -2.4374 0
M  V30 2712 H 241.775 4.60681 -1.60075 0
M  V30 2713 H 240.78 3.96073 -3.81321 0
M  V30 2714 H 242.005 4.94372 -4.65589 0
M  V30 2715 H 239.951 5.9914 -2.67146 0
M  V30 2716 H 239.868 6.15106 -4.39524 0
M  V30 2717 H 241.136 6.95533 -3.51929 0
M  V30 2718 N 245.365 1.30045 0.890287 0
M  V30 2719 C 246.605 1.19839 1.65584 0
M  V30 2720 C 246.969 -0.244175 1.90441 0
M  V30 2721 O 248.17 -0.469378 2.6467 0
M  V30 2722 C 246.441 1.99876 2.96284 0
M  V30 2723 S 248 2.06309 3.87275 0
M  V30 2724 H 244.818 0.427157 0.568382 0
M  V30 2725 H 247.42 1.64453 1.05715 0
M  V30 2726 H 246.124 3.03809 2.75913 0
M  V30 2727 H 245.655 1.55903 3.61189 0
M  V30 2728 H 247.67 1.18661 4.81803 0
M  V30 2729 N 246.843 -1.10192 1.12674 0
M  V30 2730 C 248.259 -1.34235 0.863317 0
M  V30 2731 C 248.459 -1.95062 -0.505277 0
M  V30 2732 O 247.515 -2.19192 -1.25345 0
M  V30 2733 C 248.828 -2.2616 1.98172 0
M  V30 2734 C 250.376 -2.3969 2.0129 0
M  V30 2735 C 250.851 -3.34946 3.1237 0
M  V30 2736 N 252.342 -3.42515 3.11829 0
M  V30 2737 C 253.077 -4.16199 3.94419 0
M  V30 2738 N 252.573 -4.92747 4.87004 0
M  V30 2739 N 254.366 -4.11843 3.82547 0
M  V30 2740 H 246.517 -0.690798 2.00853 0
M  V30 2741 H 248.78 -0.366774 0.874174 0
M  V30 2742 H 248.486 -1.8868 2.96804 0
M  V30 2743 H 248.36 -3.26488 1.88906 0
M  V30 2744 H 250.747 -2.76438 1.03276 0
M  V30 2745 H 250.828 -1.39169 2.14629 0
M  V30 2746 H 250.472 -2.98923 4.10619 0
M  V30 2747 H 250.402 -4.35353 2.96269 0
M  V30 2748 H 252.893 -2.87926 2.44759 0
M  V30 2749 H 253.206 -5.46376 5.46528 0
M  V30 2750 H 251.551 -4.91862 4.91016 0
M  V30 2751 H 254.742 -3.51136 3.0955 0
M  V30 2752 H 254.915 -4.69007 4.47142 0
M  V30 2753 N 248.321 -0.919034 -1.28029 0
M  V30 2754 C 249.269 -0.401753 -2.29104 0
M  V30 2755 C 250.263 0.509354 -1.61561 0
M  V30 2756 O 251.469 0.390014 -1.75724 0
M  V30 2757 H 247.844 -0.111331 -0.743713 0
M  V30 2758 H 249.815 -1.2672 -2.70156 0
M  V30 2759 C 248.564 0.338148 -3.46052 0
M  V30 2760 H 247.887 -0.353732 -3.98232 0
M  V30 2761 H 249.327 0.664653 -4.18758 0
M  V30 2762 C 247.786 1.54798 -2.99231 0
M  V30 2763 O 248.316 2.64696 -3.02157 0
M  V30 2764 N 246.522 1.3968 -2.54829 0
M  V30 2765 H 246.069 0.502698 -2.52647 0
M  V30 2766 H 246.027 2.20755 -2.23863 0
M  V30 2767 N 249.799 1.42003 -0.683588 0
M  V30 2768 C 251.215 1.55625 -0.353976 0
M  V30 2769 C 251.415 1.66151 1.14 0
M  V30 2770 O 250.471 1.63329 1.92561 0
M  V30 2771 C 251.784 2.80171 -1.092 0
M  V30 2772 C 253.332 2.93954 -1.07518 0
M  V30 2773 C 253.807 4.21372 -1.79471 0
M  V30 2774 N 255.298 4.28303 -1.76381 0
M  V30 2775 C 256.033 5.25729 -2.28904 0
M  V30 2776 N 255.529 6.29254 -2.89846 0
M  V30 2777 N 257.322 5.17586 -2.19228 0
M  V30 2778 H 249.473 1.33415 -1.6527 0
M  V30 2779 H 251.736 0.64282 -0.696769 0
M  V30 2780 H 251.442 2.78561 -2.14701 0
M  V30 2781 H 251.316 3.7133 -0.662862 0
M  V30 2782 H 253.703 2.95086 -0.028475 0
M  V30 2783 H 253.784 2.04002 -1.54328 0
M  V30 2784 H 253.428 4.21001 -2.84114 0
M  V30 2785 H 253.358 5.10275 -1.30104 0
M  V30 2786 H 255.849 3.54119 -1.31939 0
M  V30 2787 H 256.162 6.99964 -3.27522 0
M  V30 2788 H 254.507 6.29791 -2.93919 0
M  V30 2789 H 257.698 4.35631 -1.71299 0
M  V30 2790 H 257.871 5.93348 -2.60466 0
M  V30 2791 N 251.277 0.427512 1.51691 0
M  V30 2792 C 252.502 -0.143601 2.06902 0
M  V30 2793 C 252.927 -1.36536 1.29382 0
M  V30 2794 O 252.285 -1.78289 0.329043 0
M  V30 2795 C 252.333 -0.454207 3.57728 0
M  V30 2796 O 251.437 -1.54228 3.82475 0
M  V30 2797 H 250.778 -0.00617128 0.663971 0
M  V30 2798 H 253.308 0.606014 1.95419 0
M  V30 2799 H 253.318 -0.707525 4.01818 0
M  V30 2800 H 251.993 0.438812 4.13579 0
M  V30 2801 H 250.57 -1.2797 3.50254 0
M  V30 2802 N 252.755 -1.56801 0.158532 0
M  V30 2803 C 254.003 -1.96102 -0.488712 0
M  V30 2804 C 254.324 -1.04498 -1.64636 0
M  V30 2805 O 253.594 -0.108783 -1.95598 0
M  V30 2806 H 252.174 -0.724102 -0.183535 0
M  V30 2807 H 254.836 -1.93457 0.236728 0
M  V30 2808 H 253.932 -3.00097 -0.857219 0
M  V30 2809 N 254.233 0.115231 -1.57178 0
M  V30 2810 C 255.143 1.15994 -2.03918 0
M  V30 2811 C 256.159 1.45103 -0.960268 0
M  V30 2812 O 257.335 1.56144 -1.27204 0
M  V30 2813 C 254.4 2.46568 -2.43732 0
M  V30 2814 C 253.461 2.24822 -3.65723 0
M  V30 2815 C 252.694 3.4917 -4.03629 0
M  V30 2816 O 252.917 4.56623 -3.41835 0
M  V30 2817 O 251.851 3.39949 -4.96708 0
M  V30 2818 H 255.677 0.793019 -2.93164 0
M  V30 2819 H 253.262 0.3263 -1.45793 0
M  V30 2820 H 255.144 3.23492 -2.70057 0
M  V30 2821 H 253.819 2.82726 -1.57631 0
M  V30 2822 H 252.726 1.45744 -3.44542 0
M  V30 2823 H 254.059 1.93566 -4.52541 0
M  V30 2824 N 255.711 1.52812 0.385517 0
M  V30 2825 C 256.659 1.78482 1.49155 0
M  V30 2826 C 257.653 0.652914 1.56312 0
M  V30 2827 O 258.859 0.835464 1.59436 0
M  V30 2828 H 255.234 0.5648 0.496493 0
M  V30 2829 H 257.205 2.71095 1.24699 0
M  V30 2830 C 255.954 1.97378 2.86247 0
M  V30 2831 H 255.277 2.83907 2.81491 0
M  V30 2832 H 256.717 2.19327 3.62866 0
M  V30 2833 C 255.176 0.74728 3.28508 0
M  V30 2834 O 255.706 -0.0736232 4.01633 0
M  V30 2835 N 253.912 0.576396 2.84826 0
M  V30 2836 H 253.459 1.24555 2.25486 0
M  V30 2837 H 253.417 -0.24288 3.1346 0
M  V30 2838 N 257.189 -0.644168 1.43834 0
M  V30 2839 C 258.137 -1.77793 1.49974 0
M  V30 2840 C 259.131 -1.65253 0.372536 0
M  V30 2841 O 260.337 -1.7149 0.546924 0
M  V30 2842 H 256.712 -0.58675 0.47035 0
M  V30 2843 H 258.683 -1.69736 2.45423 0
M  V30 2844 C 257.432 -3.16087 1.4486 0
M  V30 2845 H 256.755 -3.26378 2.30905 0
M  V30 2846 H 258.195 -3.95349 1.53217 0
M  V30 2847 C 256.654 -3.36484 0.167463 0
M  V30 2848 O 257.184 -3.94298 -0.767609 0
M  V30 2849 N 255.39 -2.90504 0.0747556 0
M  V30 2850 H 254.937 -2.4364 0.836507 0
M  V30 2851 H 254.895 -3.04527 -0.781714 0
M  V30 2852 N 258.668 -1.30515 -0.883378 0
M  V30 2853 C 259.893 -1.22487 -1.67367 0
M  V30 2854 C 260.318 0.208767 -1.86938 0
M  V30 2855 O 259.676 1.15015 -1.40148 0
M  V30 2856 C 259.724 -1.96041 -3.02655 0
M  V30 2857 O 258.828 -1.28859 -3.91751 0
M  V30 2858 H 258.169 -0.423573 -0.511353 0
M  V30 2859 H 260.699 -1.72362 -1.10239 0
M  V30 2860 H 260.709 -2.05124 -3.52687 0
M  V30 2861 H 259.384 -3.00307 -2.8773 0
M  V30 2862 H 257.961 -1.28141 -3.50192 0
M  V30 2863 N 260.146 1.09593 -1.13257 0
M  V30 2864 C 261.393 1.81734 -0.893257 0
M  V30 2865 C 261.721 1.8563 0.580656 0
M  V30 2866 O 260.976 1.31906 1.44566 0
M  V30 2867 C 261.275 3.27802 -1.42411 0
M  V30 2868 C 260.941 3.44041 -2.91456 0
M  V30 2869 C 259.603 3.48181 -3.3215 0
M  V30 2870 C 261.955 3.48719 -3.87356 0
M  V30 2871 C 259.283 3.54575 -4.67433 0
M  V30 2872 C 261.635 3.56648 -5.2248 0
M  V30 2873 C 260.299 3.59055 -5.62704 0
M  V30 2874 H 259.569 0.665011 -0.326866 0
M  V30 2875 H 262.216 1.2912 -1.41422 0
M  V30 2876 H 260.521 3.83042 -0.823795 0
M  V30 2877 H 262.218 3.82149 -1.21503 0
M  V30 2878 H 258.808 3.41502 -2.58987 0
M  V30 2879 H 262.992 3.44763 -3.57004 0
M  V30 2880 H 258.248 3.54725 -4.97976 0
M  V30 2881 H 262.422 3.59212 -5.96607 0
M  V30 2882 H 260.049 3.63763 -6.67518 0
M  V30 2883 N 261.624 0.925811 1.2754 0
M  V30 2884 C 262.871 0.565255 1.94451 0
M  V30 2885 C 263.199 -0.89316 1.7278 0
M  V30 2886 O 262.454 -1.65213 1.04895 0
M  V30 2887 C 262.753 0.835296 3.47502 0
M  V30 2888 C 262.419 2.27515 3.89291 0
M  V30 2889 C 261.081 2.66879 4.00411 0
M  V30 2890 C 263.433 3.21158 4.10496 0
M  V30 2891 C 260.761 3.99014 4.30122 0
M  V30 2892 C 263.113 4.52871 4.4169 0
M  V30 2893 C 261.777 4.92072 4.51023 0
M  V30 2894 H 261.047 0.206841 0.711546 0
M  V30 2895 H 263.694 1.16942 1.51647 0
M  V30 2896 H 261.999 0.148442 3.91519 0
M  V30 2897 H 263.696 0.535322 3.97411 0
M  V30 2898 H 260.286 1.95976 3.81171 0
M  V30 2899 H 264.47 2.9195 4.01346 0
M  V30 2900 H 259.726 4.2907 4.35556 0
M  V30 2901 H 263.9 5.25436 4.57045 0
M  V30 2902 H 261.527 5.9449 4.738 0
M  V30 2903 N 263.102 -1.41638 0.69111 0
M  V30 2904 C 264.05 -2.32597 0.0115199 0
M  V30 2905 C 265.044 -1.5072 -0.773296 0
M  V30 2906 O 266.25 -1.66685 -0.67942 0
M  V30 2907 H 262.625 -0.751849 -0.0150746 0
M  V30 2908 H 264.596 -2.87593 0.795791 0
M  V30 2909 C 263.345 -3.35467 -0.914172 0
M  V30 2910 H 262.668 -3.9852 -0.319687 0
M  V30 2911 H 264.108 -4.01662 -1.35808 0
M  V30 2912 C 262.567 -2.69004 -2.02826 0
M  V30 2913 O 263.097 -2.53444 -3.11655 0
M  V30 2914 N 261.303 -2.2777 -1.80469 0
M  V30 2915 H 260.85 -2.40626 -0.919615 0
M  V30 2916 H 260.808 -1.83635 -2.55197 0
M  V30 2917 N 264.58 -0.43555 -1.51462 0
M  V30 2918 C 265.53 0.394701 -2.24558 0
M  V30 2919 C 266.514 0.99157 -1.26715 0
M  V30 2920 O 267.706 0.910007 -1.51815 0
M  V30 2921 C 264.835 1.4963 -3.08975 0
M  V30 2922 C 263.921 0.908912 -4.14246 0
M  V30 2923 N 264.312 0.0505335 -5.05775 0
M  V30 2924 C 262.61 1.17668 -4.30198 0
M  V30 2925 C 263.311 -0.279161 -5.8103 0
M  V30 2926 N 262.287 0.336767 -5.42556 0
M  V30 2927 H 266.089 -0.267106 -2.92684 0
M  V30 2928 H 263.603 -0.247518 -1.60503 0
M  V30 2929 H 265.6 2.10394 -3.59917 0
M  V30 2930 H 264.26 2.16046 -2.42393 0
M  V30 2931 H 265.271 -0.31577 -5.16936 0
M  V30 2932 H 261.948 1.83847 -3.74842 0
M  V30 2933 H 263.338 -0.977553 -6.64751 0
M  V30 2934 N 266.058 1.56714 -0.166846 0
M  V30 2935 C 267.005 2.17746 0.765193 0
M  V30 2936 C 267.975 1.11614 1.23011 0
M  V30 2937 O 269.16 1.39745 1.29908 0
M  V30 2938 C 266.3 2.81882 1.9909 0
M  V30 2939 C 265.413 4.02462 1.56997 0
M  V30 2940 C 264.548 4.54537 2.749 0
M  V30 2941 C 263.587 5.67538 2.29275 0
M  V30 2942 N 262.724 6.14142 3.40255 0
M  V30 2943 H 267.564 2.97048 0.237952 0
M  V30 2944 H 265.101 1.4672 0.105725 0
M  V30 2945 H 267.059 3.17221 2.70974 0
M  V30 2946 H 265.689 2.05191 2.49192 0
M  V30 2947 H 264.741 3.72973 0.748037 0
M  V30 2948 H 266.053 4.84273 1.19503 0
M  V30 2949 H 265.207 4.92035 3.54946 0
M  V30 2950 H 263.946 3.71774 3.1565 0
M  V30 2951 H 262.951 5.29597 1.47674 0
M  V30 2952 H 264.176 6.52099 1.89588 0
M  V30 2953 H 262.122 5.3431 3.8059 0
M  V30 2954 H 262.039 6.9093 3.06841 0
M  V30 2955 H 263.307 6.56289 4.206 0
M  V30 2956 N 267.536 -0.106894 1.57237 0
M  V30 2957 C 268.486 -1.1366 1.9765 0
M  V30 2958 C 269.47 -1.36416 0.853203 0
M  V30 2959 O 270.662 -1.37305 1.11697 0
M  V30 2960 C 267.791 -2.46 2.39455 0
M  V30 2961 C 266.877 -2.26668 3.58445 0
M  V30 2962 N 267.268 -1.77176 4.73754 0
M  V30 2963 C 265.566 -2.57279 3.64312 0
M  V30 2964 C 266.267 -1.71836 5.5574 0
M  V30 2965 N 265.243 -2.16623 4.98573 0
M  V30 2966 H 269.045 -0.74669 2.84256 0
M  V30 2967 H 266.559 -0.314483 1.59326 0
M  V30 2968 H 268.556 -3.2049 2.6663 0
M  V30 2969 H 267.216 -2.85738 1.54219 0
M  V30 2970 H 268.227 -1.46545 4.96734 0
M  V30 2971 H 264.904 -3.00622 2.89711 0
M  V30 2972 H 266.294 -1.34723 6.58255 0
M  V30 2973 N 269.014 -1.53014 -0.377408 0
M  V30 2974 C 270.239 -1.72818 -1.14668 0
M  V30 2975 C 270.664 -0.450725 -1.8262 0
M  V30 2976 O 270.022 0.59439 -1.7128 0
M  V30 2977 C 270.07 -2.88627 -2.16164 0
M  V30 2978 O 269.174 -2.56409 -3.22998 0
M  V30 2979 H 268.515 -0.574301 -0.333278 0
M  V30 2980 H 271.045 -1.99853 -0.438152 0
M  V30 2981 H 271.055 -3.14455 -2.59966 0
M  V30 2982 H 269.73 -3.81294 -1.66095 0
M  V30 2983 H 268.307 -2.4136 -2.84253 0
M  V30 2984 N 270.492 0.636531 -1.44174 0
M  V30 2985 C 271.769 1.39463 -1.37148 0
M  V30 2986 C 272.149 2.11082 -0.027507 0
M  V30 2987 O 271.497 2.05954 0.989716 0
M  V30 2988 C 271.707 2.36552 -2.56601 0
M  V30 2989 C 273.055 3.00048 -3.00427 0
M  V30 2990 O 274.079 2.46878 -2.56767 0
M  V30 2991 O 272.938 3.96488 -3.76111 0
M  V30 2992 H 270.032 0.623903 -0.542839 0
M  V30 2993 H 272.578 0.662039 -1.56253 0
M  V30 2994 H 271.35 1.82692 -3.46034 0
M  V30 2995 H 270.973 3.17236 -2.39681 0
M  V30 2996 N 271.97 1.30982 0.876444 0
M  V30 2997 C 273.219 1.19658 1.62373 0
M  V30 2998 C 273.532 -0.245636 1.94052 0
M  V30 2999 O 274.738 -0.48049 2.67214 0
M  V30 3000 C 273.194 2.09433 2.92687 0
M  V30 3001 C 272.802 3.58613 2.68516 0
M  V30 3002 C 274.546 2.06893 3.70669 0
M  V30 3003 C 272.453 4.40416 3.94699 0
M  V30 3004 H 271.383 0.444268 0.609214 0
M  V30 3005 H 274.034 1.55791 0.969605 0
M  V30 3006 H 272.416 1.66191 3.59439 0
M  V30 3007 H 273.59 4.10058 2.10212 0
M  V30 3008 H 271.905 3.63063 2.03898 0
M  V30 3009 H 274.502 2.65258 4.64265 0
M  V30 3010 H 274.845 1.05448 4.02724 0
M  V30 3011 H 275.378 2.48301 3.10792 0
M  V30 3012 H 272.117 5.42591 3.67798 0
M  V30 3013 H 271.637 3.93731 4.52477 0
M  V30 3014 H 273.316 4.52294 4.62644 0
M  V30 3015 N 273.449 -1.08991 1.13837 0
M  V30 3016 C 274.677 -1.85011 0.926202 0
M  V30 3017 C 275.092 -1.8135 -0.525127 0
M  V30 3018 O 274.449 -1.21287 -1.36366 0
M  V30 3019 C 274.5 -3.32802 1.41155 0
M  V30 3020 O 274.221 -3.36444 2.80601 0
M  V30 3021 C 275.722 -4.25649 1.23847 0
M  V30 3022 H 272.942 -0.584249 0.32999 0
M  V30 3023 H 275.486 -1.37688 1.51202 0
M  V30 3024 H 273.641 -3.77536 0.868631 0
M  V30 3025 H 274.055 -4.28657 3.02248 0
M  V30 3026 H 275.529 -5.27485 1.62675 0
M  V30 3027 H 276.006 -4.38828 0.18065 0
M  V30 3028 H 276.612 -3.86735 1.76964 0
M  V30 3029 N 274.927 -0.932562 -1.27047 0
M  V30 3030 C 275.874 -0.434072 -2.26681 0
M  V30 3031 C 276.844 0.501639 -1.58344 0
M  V30 3032 O 278.029 0.419734 -1.86126 0
M  V30 3033 C 275.169 0.30261 -3.43771 0
M  V30 3034 C 274.282 -0.667774 -4.26808 0
M  V30 3035 C 273.417 0.0892393 -5.31125 0
M  V30 3036 C 272.456 -0.873532 -6.05835 0
M  V30 3037 N 271.593 -0.148832 -7.01942 0
M  V30 3038 H 276.433 -1.28868 -2.68695 0
M  V30 3039 H 273.97 -0.646713 -1.32121 0
M  V30 3040 H 275.928 0.746092 -4.10474 0
M  V30 3041 H 274.558 1.12142 -3.02695 0
M  V30 3042 H 273.61 -1.22978 -3.59973 0
M  V30 3043 H 274.922 -1.40337 -4.78651 0
M  V30 3044 H 274.076 0.592409 -6.03801 0
M  V30 3045 H 272.815 0.85777 -4.80097 0
M  V30 3046 H 271.82 -1.38791 -5.31994 0
M  V30 3047 H 273.045 -1.64193 -6.58952 0
M  V30 3048 H 270.991 0.601365 -6.53238 0
M  V30 3049 H 270.908 -0.82391 -7.51497 0
M  V30 3050 H 272.176 0.333527 -7.78786 0
M  V30 3051 N 276.405 1.4127 -0.698611 0
M  V30 3052 C 277.63 2.06024 -0.238512 0
M  V30 3053 C 278.055 1.5224 1.10475 0
M  V30 3054 O 277.413 0.650623 1.69223 0
M  V30 3055 C 277.461 3.59988 -0.209952 0
M  V30 3056 O 276.565 4.04282 0.814235 0
M  V30 3057 H 275.906 0.653829 -0.115775 0
M  V30 3058 H 278.436 1.8098 -0.954326 0
M  V30 3059 H 278.446 4.07979 -0.0418436 0
M  V30 3060 H 277.121 3.98503 -1.1903 0
M  V30 3061 H 275.698 3.6779 0.615234 0
M  V30 3062 N 277.883 0.443576 1.51229 0
M  V30 3063 C 278.83 -0.364716 2.279 0
M  V30 3064 C 279.8 -1.0114 1.31757 0
M  V30 3065 O 280.985 -1.02912 1.60667 0
M  V30 3066 C 278.125 -1.45644 3.12861 0
M  V30 3067 C 277.238 -0.827269 4.24005 0
M  V30 3068 C 276.373 -1.89456 4.96266 0
M  V30 3069 C 275.412 -1.24416 5.99322 0
M  V30 3070 N 274.549 -2.25309 6.64966 0
M  V30 3071 H 279.389 0.295464 2.96532 0
M  V30 3072 H 276.926 0.157554 1.46254 0
M  V30 3073 H 278.884 -2.10076 3.6045 0
M  V30 3074 H 277.514 -2.08616 2.46331 0
M  V30 3075 H 276.566 -0.0710839 3.80334 0
M  V30 3076 H 277.878 -0.312481 4.9782 0
M  V30 3077 H 277.032 -2.61535 5.47434 0
M  V30 3078 H 275.771 -2.4431 4.22095 0
M  V30 3079 H 274.776 -0.508868 5.4744 0
M  V30 3080 H 276.001 -0.702882 6.75453 0
M  V30 3081 H 273.947 -2.79231 5.93604 0
M  V30 3082 H 273.864 -1.78739 7.34567 0
M  V30 3083 H 275.132 -2.96853 7.20763 0
M  V30 3084 N 279.361 -1.56624 0.175154 0
M  V30 3085 C 280.61 -1.96173 -0.468921 0
M  V30 3086 C 280.923 -1.06401 -1.64128 0
M  V30 3087 O 282.129 -1.35648 -2.35185 0
M  V30 3088 C 280.585 -3.48833 -0.885633 0
M  V30 3089 C 280.193 -4.47237 0.261343 0
M  V30 3090 C 281.937 -3.97194 -1.49791 0
M  V30 3091 C 279.844 -5.9114 -0.175214 0
M  V30 3092 H 278.774 -0.732455 -0.178958 0
M  V30 3093 H 281.425 -1.81591 0.263997 0
M  V30 3094 H 279.807 -3.58848 -1.67464 0
M  V30 3095 H 280.981 -4.4894 1.03871 0
M  V30 3096 H 279.296 -4.08956 0.783827 0
M  V30 3097 H 281.893 -5.02167 -1.83665 0
M  V30 3098 H 282.236 -3.40351 -2.39722 0
M  V30 3099 H 282.769 -3.90212 -0.773267 0
M  V30 3100 H 279.508 -6.51865 0.689414 0
M  V30 3101 H 279.028 -5.92735 -0.91786 0
M  V30 3102 H 280.707 -6.44044 -0.617792 0
M  V30 3103 N 280.839 0.0985539 -1.57292 0
M  V30 3104 C 282.064 0.820196 -1.90493 0
M  V30 3105 C 282.489 1.71658 -0.769094 0
M  V30 3106 O 281.847 1.79133 0.279495 0
M  V30 3107 C 281.895 1.61242 -3.22542 0
M  V30 3108 O 280.999 2.72108 -3.09888 0
M  V30 3109 H 280.34 0.225547 -0.62452 0
M  V30 3110 H 282.87 0.0748159 -2.04463 0
M  V30 3111 H 282.88 1.99737 -3.55766 0
M  V30 3112 H 281.555 0.954535 -4.04798 0
M  V30 3113 H 280.132 2.36667 -2.88172 0
M  V30 3114 N 282.317 1.53212 0.369288 0
M  V30 3115 C 283.227 1.82342 1.47609 0
M  V30 3116 C 284.243 0.711532 1.58787 0
M  V30 3117 O 285.419 1.0012 1.74751 0
M  V30 3118 C 282.484 2.00393 2.8292 0
M  V30 3119 C 281.545 3.24297 2.81301 0
M  V30 3120 C 280.778 3.41478 4.10157 0
M  V30 3121 O 281.001 2.63033 5.06132 0
M  V30 3122 O 279.935 4.34817 4.16194 0
M  V30 3123 H 283.761 2.76366 1.25918 0
M  V30 3124 H 281.346 1.38547 0.559034 0
M  V30 3125 H 283.228 2.13859 3.63101 0
M  V30 3126 H 281.903 1.09559 3.04596 0
M  V30 3127 H 280.81 3.16257 1.99831 0
M  V30 3128 H 282.143 4.15041 2.64578 0
M  V30 3129 N 283.795 -0.628877 1.44509 0
M  V30 3130 C 284.742 -1.74074 1.51549 0
M  V30 3131 C 285.712 -1.62084 0.363021 0
M  V30 3132 O 286.897 -1.81975 0.573567 0
M  V30 3133 C 284.037 -3.12328 1.46784 0
M  V30 3134 C 283.15 -3.35277 2.72422 0
M  V30 3135 C 282.285 -4.63515 2.59475 0
M  V30 3136 C 281.324 -4.7965 3.80266 0
M  V30 3137 N 280.461 -5.99168 3.65981 0
M  V30 3138 H 285.301 -1.67392 2.46544 0
M  V30 3139 H 282.838 -0.816527 1.22357 0
M  V30 3140 H 284.796 -3.92286 1.42012 0
M  V30 3141 H 283.426 -3.18018 0.553544 0
M  V30 3142 H 282.478 -2.49242 2.87372 0
M  V30 3143 H 283.79 -3.43078 3.62076 0
M  V30 3144 H 282.944 -5.51638 2.52548 0
M  V30 3145 H 281.683 -4.58076 1.67384 0
M  V30 3146 H 280.688 -3.89957 3.87574 0
M  V30 3147 H 281.913 -4.86902 4.73395 0
M  V30 3148 H 279.859 -5.94814 2.76644 0
M  V30 3149 H 279.776 -6.08035 4.49254 0
M  V30 3150 H 281.044 -6.89846 3.6295 0
M  V30 3151 N 285.273 -1.31445 -0.869486 0
M  V30 3152 C 286.206 -1.13465 -1.97992 0
M  V30 3153 C 287.184 -0.0380291 -1.62556 0
M  V30 3154 O 288.368 -0.194544 -1.87493 0
M  V30 3155 C 285.495 -0.733822 -3.30655 0
M  V30 3156 C 284.541 -1.83356 -3.85075 0
M  V30 3157 S 285.374 -3.43909 -4.10472 0
M  V30 3158 C 286.53 -3.05763 -5.46132 0
M  V30 3159 H 286.763 -2.07471 -2.1294 0
M  V30 3160 H 284.296 -1.15936 -1.01972 0
M  V30 3161 H 286.254 -0.509306 -4.07328 0
M  V30 3162 H 284.915 0.187123 -3.13542 0
M  V30 3163 H 284.108 -1.50574 -4.80982 0
M  V30 3164 H 283.71 -2.01315 -3.15195 0
M  V30 3165 H 286.002 -2.54686 -6.27807 0
M  V30 3166 H 286.945 -4.00635 -5.83864 0
M  V30 3167 H 287.353 -2.43192 -5.09429 0
M  V30 3168 N 286.751 1.08385 -1.14413 0
M  V30 3169 C 287.698 2.15311 -0.831265 0
M  V30 3170 C 288.668 1.64751 0.211292 0
M  V30 3171 O 289.853 1.90627 0.0811674 0
M  V30 3172 C 286.993 3.43658 -0.315143 0
M  V30 3173 C 286.106 4.08064 -1.41802 0
M  V30 3174 C 285.241 5.24207 -0.859126 0
M  V30 3175 C 284.28 5.80554 -1.93967 0
M  V30 3176 N 283.417 6.88042 -1.39793 0
M  V30 3177 H 288.257 2.41415 -1.74708 0
M  V30 3178 H 285.794 1.18474 -0.871909 0
M  V30 3179 H 287.752 4.172 0.00230884 0
M  V30 3180 H 286.382 3.17839 0.56378 0
M  V30 3181 H 285.434 3.3228 -1.85187 0
M  V30 3182 H 286.746 4.45962 -2.23427 0
M  V30 3183 H 285.9 6.04689 -0.49359 0
M  V30 3184 H 284.639 4.87699 -0.011932 0
M  V30 3185 H 283.644 4.98725 -2.31415 0
M  V30 3186 H 284.869 6.19121 -2.79046 0
M  V30 3187 H 282.815 6.53493 -0.572919 0
M  V30 3188 H 282.732 7.24767 -2.15054 0
M  V30 3189 H 284 7.72255 -1.0603 0
M  V30 3190 N 288.23 0.939286 1.26551 0
M  V30 3191 C 289.478 0.58469 1.93457 0
M  V30 3192 C 289.799 -0.878774 1.74076 0
M  V30 3193 O 289.069 -1.62421 1.09528 0
M  V30 3194 H 287.649 0.21325 0.715914 0
M  V30 3195 H 290.311 1.1942 1.54029 0
M  V30 3196 H 289.407 0.800849 3.0165 0
M  V30 3197 N 289.708 -1.40897 0.706093 0
M  V30 3198 C 290.655 -2.30751 0.0474474 0
M  V30 3199 C 291.625 -1.47678 -0.76029 0
M  V30 3200 O 292.81 -1.76441 -0.726177 0
M  V30 3201 C 289.95 -3.33815 -0.875309 0
M  V30 3202 C 289.063 -4.31961 -0.0580623 0
M  V30 3203 C 288.198 -5.22093 -0.979425 0
M  V30 3204 C 287.237 -6.11902 -0.155706 0
M  V30 3205 N 286.374 -6.94482 -1.03144 0
M  V30 3206 H 291.214 -2.86513 0.819413 0
M  V30 3207 H 288.751 -1.41102 0.415783 0
M  V30 3208 H 290.709 -3.92129 -1.42446 0
M  V30 3209 H 289.339 -2.79579 -1.61356 0
M  V30 3210 H 288.391 -3.75507 0.608147 0
M  V30 3211 H 289.703 -4.95415 0.580082 0
M  V30 3212 H 288.857 -5.85292 -1.59744 0
M  V30 3213 H 287.596 -4.5889 -1.65141 0
M  V30 3214 H 286.601 -5.47742 0.475309 0
M  V30 3215 H 287.826 -6.77162 0.512635 0
M  V30 3216 H 285.772 -6.33877 -1.68924 0
M  V30 3217 H 285.689 -7.54665 -0.449108 0
M  V30 3218 H 286.957 -7.6214 -1.63593 0
M  V30 3219 N 291.186 -0.45159 -1.50991 0
M  V30 3220 C 292.133 0.352625 -2.2809 0
M  V30 3221 C 293.103 1.0044 -1.32291 0
M  V30 3222 O 294.288 1.02058 -1.6121 0
M  V30 3223 C 291.428 1.43983 -3.13629 0
M  V30 3224 C 290.541 0.804772 -4.24438 0
M  V30 3225 C 289.676 1.86822 -4.97263 0
M  V30 3226 C 288.715 1.21236 -5.99973 0
M  V30 3227 N 287.852 2.2178 -6.66152 0
M  V30 3228 H 292.692 -0.311186 -2.96371 0
M  V30 3229 H 290.229 -0.165308 -1.46168 0
M  V30 3230 H 292.187 2.08161 -3.61559 0
M  V30 3231 H 290.817 2.07307 -2.47434 0
M  V30 3232 H 289.869 0.0509129 -3.80366 0
M  V30 3233 H 291.181 0.286076 -4.97979 0
M  V30 3234 H 290.335 2.58628 -5.48813 0
M  V30 3235 H 289.074 2.42068 -4.23385 0
M  V30 3236 H 288.079 0.479828 -5.47702 0
M  V30 3237 H 289.304 0.667051 -6.75816 0
M  V30 3238 H 287.25 2.76079 -5.95077 0
M  V30 3239 H 287.167 1.74841 -7.35504 0
M  V30 3240 H 288.435 2.93026 -7.22327 0
M  V30 3241 N 292.664 1.56529 -0.183458 0
M  V30 3242 C 294.075 1.83739 0.331177 0
M  V30 3243 C 294.426 1.10373 1.62211 0
M  V30 3244 O 293.551 0.36071 2.13373 0
M  V30 3245 C 294.146 3.33306 0.607646 0
M  V30 3246 C 292.705 3.60969 1.06668 0
M  V30 3247 C 291.852 2.77086 0.109029 0
M  V30 3248 H 294.803 1.53379 -0.407484 0
M  V30 3249 H 294.824 3.51444 1.45832 0
M  V30 3250 H 294.336 3.86677 -0.332086 0
M  V30 3251 H 292.437 3.13021 2.0211 0
M  V30 3252 H 292.55 4.69231 0.967447 0
M  V30 3253 H 290.914 2.47319 0.608714 0
M  V30 3254 H 291.697 3.33241 -0.82494 0
M  V30 3255 N 294.142 -0.090211 1.57342 0
M  V30 3256 C 295.367 -0.810082 1.90925 0
M  V30 3257 C 295.792 -1.71248 0.778187 0
M  V30 3258 O 295.15 -1.79278 -0.269991 0
M  V30 3259 C 295.198 -1.59529 3.23393 0
M  V30 3260 O 294.302 -2.70461 3.11327 0
M  V30 3261 H 293.643 -0.222231 0.625707 0
M  V30 3262 H 296.173 -0.0639716 2.045 0
M  V30 3263 H 296.183 -1.97847 3.5682 0
M  V30 3264 H 294.858 -0.933055 4.05299 0
M  V30 3265 H 293.435 -2.35135 2.89423 0
M  V30 3266 N 295.62 -1.53406 -0.361157 0
M  V30 3267 C 296.568 -1.80832 -1.46296 0
M  V30 3268 C 297.562 -0.677699 -1.55253 0
M  V30 3269 O 298.768 -0.860723 -1.58087 0
M  V30 3270 H 295.143 -0.572627 -0.487445 0
M  V30 3271 H 297.114 -2.73045 -1.20371 0
M  V30 3272 C 295.863 -2.01907 -2.8307 0
M  V30 3273 H 295.186 -2.88349 -2.76938 0
M  V30 3274 H 296.626 -2.25072 -3.59331 0
M  V30 3275 C 295.085 -0.799449 -3.27277 0
M  V30 3276 O 295.615 0.00971761 -4.01699 0
M  V30 3277 N 293.821 -0.621637 -2.83873 0
M  V30 3278 H 293.368 -1.28126 -2.23476 0
M  V30 3279 H 293.326 0.19298 -3.13807 0
M  V30 3280 N 297.098 0.621204 -1.44841 0
M  V30 3281 C 298.347 1.37658 -1.47422 0
M  V30 3282 C 298.66 1.95264 -0.114629 0
M  V30 3283 O 299.866 2.71494 -0.0180199 0
M  V30 3284 C 298.322 2.49285 -2.59586 0
M  V30 3285 C 297.93 1.98149 -4.01797 0
M  V30 3286 C 299.674 3.26409 -2.71399 0
M  V30 3287 C 297.581 3.07178 -5.05367 0
M  V30 3288 H 296.511 0.517344 -0.548517 0
M  V30 3289 H 299.162 0.667257 -1.70938 0
M  V30 3290 H 297.544 3.22839 -2.29328 0
M  V30 3291 H 298.718 1.31395 -4.41669 0
M  V30 3292 H 297.033 1.33812 -3.94314 0
M  V30 3293 H 299.63 4.07706 -3.45948 0
M  V30 3294 H 299.973 3.76535 -1.77559 0
M  V30 3295 H 300.506 2.5995 -3.01116 0
M  V30 3296 H 297.245 2.61985 -6.00869 0
M  V30 3297 H 296.765 3.72542 -4.70077 0
M  V30 3298 H 298.444 3.71789 -5.29511 0
M  V30 3299 N 298.576 1.31904 0.862503 0
M  V30 3300 C 299.523 1.20182 1.9704 0
M  V30 3301 C 300.493 0.0858247 1.65878 0
M  V30 3302 O 301.678 0.26 1.8902 0
M  V30 3303 C 298.818 0.922797 3.32533 0
M  V30 3304 C 297.931 2.12284 3.76244 0
M  V30 3305 C 297.066 1.77996 5.00491 0
M  V30 3306 C 296.105 2.94366 5.36671 0
M  V30 3307 N 295.242 2.60223 6.52095 0
M  V30 3308 H 300.082 2.14951 2.06398 0
M  V30 3309 H 297.619 1.06917 1.01031 0
M  V30 3310 H 299.577 0.741548 4.10557 0
M  V30 3311 H 298.207 0.0119227 3.22798 0
M  V30 3312 H 297.259 2.41461 2.9394 0
M  V30 3313 H 298.571 2.99357 3.98982 0
M  V30 3314 H 297.725 1.56377 5.862 0
M  V30 3315 H 296.464 0.881252 4.79672 0
M  V30 3316 H 295.469 3.16625 4.49476 0
M  V30 3317 H 296.694 3.84957 5.59451 0
M  V30 3318 H 294.64 1.72884 6.32809 0
M  V30 3319 H 294.557 3.40827 6.74814 0
M  V30 3320 H 295.825 2.42016 7.40978 0
M  V30 3321 N 300.054 -1.07777 1.14986 0
M  V30 3322 C 301.001 -2.14867 0.842672 0
M  V30 3323 C 301.971 -1.6486 -0.202552 0
M  V30 3324 O 303.156 -1.90668 -0.0710568 0
M  V30 3325 C 300.296 -3.43486 0.333363 0
M  V30 3326 C 299.409 -4.07306 1.43965 0
M  V30 3327 C 298.544 -5.23744 0.886914 0
M  V30 3328 C 297.583 -5.79517 1.97043 0
M  V30 3329 N 296.72 -6.87291 1.4344 0
M  V30 3330 H 301.56 -2.40485 1.75986 0
M  V30 3331 H 299.097 -1.1801 0.878179 0
M  V30 3332 H 301.055 -4.17195 0.0198163 0
M  V30 3333 H 299.685 -3.18133 -0.546916 0
M  V30 3334 H 298.737 -3.31293 1.86946 0
M  V30 3335 H 300.049 -4.44771 2.25788 0
M  V30 3336 H 299.203 -6.04419 0.525651 0
M  V30 3337 H 297.942 -4.87685 0.0377957 0
M  V30 3338 H 296.947 -4.97491 2.34057 0
M  V30 3339 H 298.172 -6.17632 2.82325 0
M  V30 3340 H 296.118 -6.5318 0.607567 0
M  V30 3341 H 296.035 -7.23617 2.18895 0
M  V30 3342 H 297.303 -7.71682 1.10124 0
M  V30 3343 N 301.532 -0.945985 -1.26051 0
M  V30 3344 C 302.781 -0.591836 -1.92822 0
M  V30 3345 C 303.094 0.873956 -1.7499 0
M  V30 3346 O 304.3 1.33769 -2.36259 0
M  V30 3347 C 302.756 -1.00776 -3.45503 0
M  V30 3348 C 302.364 -2.4955 -3.7206 0
M  V30 3349 C 304.108 -0.725735 -4.1825 0
M  V30 3350 C 302.015 -2.84988 -5.18205 0
M  V30 3351 H 300.945 -0.217635 -0.721908 0
M  V30 3352 H 303.596 -1.14927 -1.43052 0
M  V30 3353 H 301.978 -0.378812 -3.94184 0
M  V30 3354 H 303.152 -3.1739 -3.34066 0
M  V30 3355 H 301.467 -2.75133 -3.12555 0
M  V30 3356 H 304.064 -0.966771 -5.25887 0
M  V30 3357 H 304.407 0.337639 -4.14929 0
M  V30 3358 H 304.94 -1.31463 -3.7545 0
M  V30 3359 H 301.679 -3.90307 -5.26631 0
M  V30 3360 H 301.199 -2.21813 -5.57278 0
M  V30 3361 H 302.878 -2.73712 -5.86252 0
M  V30 3362 N 303.011 1.40521 -0.713556 0
M  V30 3363 C 304.236 2.05759 -0.26035 0
M  V30 3364 C 304.661 1.53403 1.08854 0
M  V30 3365 O 304.019 0.668535 1.68524 0
M  V30 3366 C 304.067 3.59745 -0.248122 0
M  V30 3367 O 303.171 4.05123 0.77131 0
M  V30 3368 H 302.512 0.652564 -0.122703 0
M  V30 3369 H 305.042 1.79958 -0.973467 0
M  V30 3370 H 305.052 4.07911 -0.0851129 0
M  V30 3371 H 303.727 3.97218 -1.2325 0
M  V30 3372 H 302.304 3.68422 0.57619 0
M  V30 3373 N 304.489 0.459591 1.5075 0
M  V30 3374 C 305.729 -0.09824 2.04164 0
M  V30 3375 C 306.093 -1.3801 1.33481 0
M  V30 3376 O 307.294 -2.01959 1.77387 0
M  V30 3377 C 305.565 -0.289467 3.56226 0
M  V30 3378 S 307.124 -0.807507 4.31306 0
M  V30 3379 H 303.942 -0.0213845 0.710678 0
M  V30 3380 H 306.544 0.624098 1.85271 0
M  V30 3381 H 305.248 0.649461 4.05229 0
M  V30 3382 H 304.779 -1.03825 3.79452 0
M  V30 3383 H 306.794 -2.0824 4.50389 0
M  V30 3384 N 305.967 -1.56429 0.191757 0
M  V30 3385 C 307.244 -1.89224 -0.495332 0
M  V30 3386 C 307.624 -1.10478 -1.79883 0
M  V30 3387 O 306.972 -0.204852 -2.2758 0
M  V30 3388 C 307.182 -3.41548 -0.717367 0
M  V30 3389 C 308.53 -4.11711 -1.03823 0
M  V30 3390 O 309.554 -3.4698 -0.805204 0
M  V30 3391 O 308.413 -5.2611 -1.47887 0
M  V30 3392 H 305.507 -0.785788 -0.25781 0
M  V30 3393 H 308.053 -1.68111 0.231721 0
M  V30 3394 H 306.825 -3.90772 0.203287 0
M  V30 3395 H 306.448 -3.68342 -1.497 0
M  V30 3396 N 307.445 0.0818655 -1.57387 0
M  V30 3397 C 308.693 0.781368 -1.86384 0
M  V30 3398 C 309.014 1.78618 -0.782342 0
M  V30 3399 O 308.284 1.94976 0.190061 0
M  V30 3400 H 306.864 0.291562 -0.687751 0
M  V30 3401 H 309.526 0.060348 -1.94807 0
M  V30 3402 H 308.622 1.3038 -2.83562 0
M  V30 3403 N 308.923 1.53595 0.353017 0
M  V30 3404 C 310.169 1.70638 1.09593 0
M  V30 3405 C 310.502 0.463286 1.88593 0
M  V30 3406 O 309.777 -0.539597 1.86865 0
M  V30 3407 C 310.06 2.96406 2.04489 0
M  V30 3408 C 309.913 4.30901 1.29014 0
M  V30 3409 C 311.232 3.17812 3.0444 0
M  V30 3410 H 308.351 0.620913 0.397034 0
M  V30 3411 H 310.993 1.86254 0.375446 0
M  V30 3412 H 309.143 2.83223 2.65927 0
M  V30 3413 H 310.815 4.55917 0.702638 0
M  V30 3414 H 309.058 4.29741 0.592071 0
M  V30 3415 H 309.729 5.1506 1.98537 0
M  V30 3416 H 312.205 3.30263 2.53112 0
M  V30 3417 H 311.081 4.07223 3.6805 0
M  V30 3418 H 311.342 2.33669 3.75301 0
M  V30 3419 N 310.401 -0.613514 1.45168 0
M  V30 3420 C 311.65 -1.36874 1.4815 0
M  V30 3421 C 311.963 -1.952 0.124982 0
M  V30 3422 O 313.169 -2.71481 0.0324176 0
M  V30 3423 C 311.625 -2.47905 2.60904 0
M  V30 3424 C 311.233 -1.96016 4.02842 0
M  V30 3425 C 312.977 -3.24965 2.73126 0
M  V30 3426 C 310.884 -3.04494 5.06988 0
M  V30 3427 H 309.814 -0.514428 0.551253 0
M  V30 3428 H 312.465 -0.658182 1.7129 0
M  V30 3429 H 310.847 -3.21618 2.31037 0
M  V30 3430 H 312.021 -1.29051 4.4236 0
M  V30 3431 H 310.336 -1.31719 3.95018 0
M  V30 3432 H 312.933 -4.05865 3.48106 0
M  V30 3433 H 313.276 -3.75588 1.79553 0
M  V30 3434 H 313.809 -2.5835 3.0249 0
M  V30 3435 H 310.548 -2.58795 6.0225 0
M  V30 3436 H 310.068 -3.70044 4.72046 0
M  V30 3437 H 311.747 -3.68976 5.31475 0
M  V30 3438 N 311.879 -1.3236 -0.855495 0
M  V30 3439 C 313.126 -1.22872 -1.60962 0
M  V30 3440 C 313.454 0.209658 -1.93367 0
M  V30 3441 O 312.709 1.16243 -1.57436 0
M  V30 3442 C 313.008 -2.03275 -2.93963 0
M  V30 3443 C 312.674 -3.5264 -2.80991 0
M  V30 3444 C 311.336 -3.93364 -2.7716 0
M  V30 3445 C 313.688 -4.47626 -2.66983 0
M  V30 3446 C 311.016 -5.27319 -2.572 0
M  V30 3447 C 313.368 -5.81723 -2.48558 0
M  V30 3448 C 312.032 -6.2165 -2.4312 0
M  V30 3449 H 311.302 -0.44962 -0.589001 0
M  V30 3450 H 313.949 -1.63777 -0.992442 0
M  V30 3451 H 312.254 -1.55095 -3.59795 0
M  V30 3452 H 313.951 -1.93303 -3.51333 0
M  V30 3453 H 310.541 -3.20295 -2.84797 0
M  V30 3454 H 314.725 -4.17084 -2.68988 0
M  V30 3455 H 309.981 -5.57311 -2.51424 0
M  V30 3456 H 314.155 -6.5494 -2.36699 0
M  V30 3457 H 311.782 -7.25388 -2.27412 0
M  V30 3458 N 313.357 1.07166 -1.15556 0
M  V30 3459 C 314.634 1.76546 -0.842069 0
M  V30 3460 C 315.014 2.00453 0.661939 0
M  V30 3461 O 314.362 1.62452 1.60691 0
M  V30 3462 C 314.572 3.07266 -1.65495 0
M  V30 3463 C 315.92 3.81578 -1.86234 0
M  V30 3464 O 316.944 3.17083 -1.62287 0
M  V30 3465 O 315.803 4.97419 -2.26355 0
M  V30 3466 H 312.897 0.766756 -0.309862 0
M  V30 3467 H 315.443 1.13514 -1.26145 0
M  V30 3468 H 314.215 2.85494 -2.67598 0
M  V30 3469 H 313.838 3.7803 -1.23203 0
M  V30 3470 N 314.835 0.952656 1.25548 0
M  V30 3471 C 316.075 0.614013 1.9496 0
M  V30 3472 C 316.439 -0.833215 1.72978 0
M  V30 3473 O 317.64 -1.28135 2.36294 0
M  V30 3474 C 315.911 0.960562 3.4425 0
M  V30 3475 S 317.47 0.734195 4.32614 0
M  V30 3476 H 314.288 0.225754 0.674208 0
M  V30 3477 H 316.89 1.22641 1.52248 0
M  V30 3478 H 315.594 2.01103 3.57751 0
M  V30 3479 H 315.125 0.338336 3.91942 0
M  V30 3480 H 317.14 -0.395995 4.94617 0
M  V30 3481 N 316.313 -1.40141 0.720998 0
M  V30 3482 C 317.276 -2.29058 0.0805834 0
M  V30 3483 C 318.276 -1.45632 -0.681758 0
M  V30 3484 O 319.466 -1.6648 -0.512856 0
M  V30 3485 C 316.598 -3.28925 -0.895593 0
M  V30 3486 H 317.791 -2.87191 0.863793 0
M  V30 3487 H 315.344 -1.48553 0.485975 0
M  V30 3488 H 316.079 -2.75822 -1.70566 0
M  V30 3489 H 315.864 -3.90519 -0.351766 0
M  V30 3490 H 317.354 -3.95494 -1.34069 0
M  V30 3491 N 317.792 -0.46758 -1.50504 0
M  V30 3492 C 318.755 0.317059 -2.26996 0
M  V30 3493 C 319.755 0.923513 -1.31635 0
M  V30 3494 O 320.945 0.793239 -1.55091 0
M  V30 3495 C 318.077 1.45134 -3.08462 0
M  V30 3496 H 319.27 -0.353723 -2.97807 0
M  V30 3497 H 316.823 -0.221545 -1.54722 0
M  V30 3498 H 317.558 2.15728 -2.4214 0
M  V30 3499 H 317.343 1.02232 -3.78538 0
M  V30 3500 H 318.833 2.00493 -3.66323 0
M  V30 3501 N 319.27 1.56325 -0.20005 0
M  V30 3502 C 320.547 1.89484 0.48529 0
M  V30 3503 C 320.927 1.1143 1.79294 0
M  V30 3504 O 320.275 0.216919 2.27468 0
M  V30 3505 C 320.485 3.41923 0.699243 0
M  V30 3506 C 321.833 4.12256 1.01638 0
M  V30 3507 O 322.857 3.47402 0.786792 0
M  V30 3508 O 321.716 5.26887 1.45095 0
M  V30 3509 H 318.81 0.787144 0.253639 0
M  V30 3510 H 321.356 1.67985 -0.240633 0
M  V30 3511 H 320.128 3.90658 -0.224008 0
M  V30 3512 H 319.751 3.69131 1.47744 0
M  V30 3513 N 320.748 -0.0735177 1.57428 0
M  V30 3514 C 321.711 -1.07192 2.02589 0
M  V30 3515 C 322.711 -1.31695 0.922661 0
M  V30 3516 O 323.901 -1.27445 1.18758 0
M  V30 3517 C 321.033 -2.41599 2.40506 0
M  V30 3518 H 322.226 -0.682727 2.92025 0
M  V30 3519 H 319.779 -0.319193 1.53006 0
M  V30 3520 H 320.514 -2.85354 1.5409 0
M  V30 3521 H 320.299 -2.25156 3.21009 0
M  V30 3522 H 321.789 -3.13367 2.76027 0
M  V30 3523 N 322.226 -1.5378 -0.344866 0
M  V30 3524 C 323.189 -1.80981 -1.40637 0
M  V30 3525 C 324.189 -0.680816 -1.45676 0
M  V30 3526 O 325.379 -0.949095 -1.46075 0
M  V30 3527 C 322.511 -1.95063 -2.79577 0
M  V30 3528 H 323.704 -2.75803 -1.17783 0
M  V30 3529 H 321.257 -1.45173 -0.579181 0
M  V30 3530 H 321.992 -1.02379 -3.07716 0
M  V30 3531 H 321.777 -2.77198 -2.77315 0
M  V30 3532 H 323.267 -2.17629 -3.56409 0
M  V30 3533 N 323.704 0.605807 -1.45491 0
M  V30 3534 C 325.12 0.926751 -1.29936 0
M  V30 3535 C 325.32 1.99896 -0.253706 0
M  V30 3536 O 324.376 2.50038 0.351737 0
M  V30 3537 C 325.689 1.36599 -2.67883 0
M  V30 3538 C 327.237 1.4801 -2.75793 0
M  V30 3539 C 327.712 1.95309 -4.14268 0
M  V30 3540 N 329.203 2.0254 -4.16571 0
M  V30 3541 C 329.938 2.40363 -5.20589 0
M  V30 3542 N 329.434 2.77143 -6.34952 0
M  V30 3543 N 331.227 2.40718 -5.07948 0
M  V30 3544 H 323.378 -0.102862 -2.12151 0
M  V30 3545 H 325.641 0.016639 -0.947854 0
M  V30 3546 H 325.347 0.652306 -3.45598 0
M  V30 3547 H 325.221 2.33215 -2.96463 0
M  V30 3548 H 327.608 2.1847 -1.98381 0
M  V30 3549 H 327.689 0.497041 -2.50925 0
M  V30 3550 H 327.333 1.25436 -4.92167 0
M  V30 3551 H 327.263 2.94532 -4.3653 0
M  V30 3552 H 329.754 1.76699 -3.34045 0
M  V30 3553 H 330.067 3.0489 -7.10114 0
M  V30 3554 H 328.412 2.74834 -6.3835 0
M  V30 3555 H 331.603 2.11392 -4.1765 0
M  V30 3556 H 331.776 2.69869 -5.89131 0
M  V30 3557 N 325.182 1.32811 0.848464 0
M  V30 3558 C 326.132 1.18842 1.94578 0
M  V30 3559 C 327.116 0.0937517 1.60627 0
M  V30 3560 O 328.308 0.320887 1.74067 0
M  V30 3561 C 325.437 0.91999 3.30743 0
M  V30 3562 C 324.523 2.05665 3.70894 0
M  V30 3563 N 324.914 3.30579 3.8282 0
M  V30 3564 C 323.212 1.9612 4.00566 0
M  V30 3565 C 323.913 4.05067 4.17487 0
M  V30 3566 N 322.889 3.33419 4.2934 0
M  V30 3567 H 326.691 2.13536 2.0194 0
M  V30 3568 H 324.205 1.2468 1.0406 0
M  V30 3569 H 326.202 0.800859 4.09136 0
M  V30 3570 H 324.862 -0.0185076 3.24695 0
M  V30 3571 H 325.873 3.65441 3.66978 0
M  V30 3572 H 322.55 1.09871 4.02784 0
M  V30 3573 H 323.94 5.12815 4.34131 0
M  V30 3574 N 326.66 -1.06551 1.16123 0
M  V30 3575 C 327.907 -1.79302 0.941126 0
M  V30 3576 C 328.235 -1.87105 -0.531235 0
M  V30 3577 O 327.49 -1.35692 -1.41018 0
M  V30 3578 C 327.789 -3.23911 1.51052 0
M  V30 3579 C 327.455 -3.36193 3.00475 0
M  V30 3580 C 326.117 -3.39252 3.41265 0
M  V30 3581 C 328.469 -3.38326 3.96465 0
M  V30 3582 C 325.797 -3.42057 4.76669 0
M  V30 3583 C 328.149 -3.4267 5.31752 0
M  V30 3584 C 326.813 -3.4401 5.72026 0
M  V30 3585 H 326.083 -0.656111 0.344382 0
M  V30 3586 H 328.73 -1.25325 1.44796 0
M  V30 3587 H 327.035 -3.80723 0.925063 0
M  V30 3588 H 328.732 -3.78793 1.31593 0
M  V30 3589 H 325.322 -3.34516 2.6795 0
M  V30 3590 H 329.506 -3.35176 3.6602 0
M  V30 3591 H 324.762 -3.41398 5.07206 0
M  V30 3592 H 328.936 -3.43268 6.05921 0
M  V30 3593 H 326.563 -3.45937 6.76928 0
M  V30 3594 N 328.138 -0.959301 -1.25041 0
M  V30 3595 C 329.085 -0.482057 -2.2571 0
M  V30 3596 C 330.055 0.467939 -1.59372 0
M  V30 3597 O 331.24 0.380159 -1.86974 0
M  V30 3598 C 328.38 0.229623 -3.44335 0
M  V30 3599 C 327.493 -0.758156 -4.25295 0
M  V30 3600 C 326.628 -0.0234403 -5.31195 0
M  V30 3601 C 325.667 -1.00184 -6.03846 0
M  V30 3602 N 324.804 -0.29769 -7.01469 0
M  V30 3603 H 329.644 -1.34538 -2.65901 0
M  V30 3604 H 327.181 -0.674592 -1.3072 0
M  V30 3605 H 329.139 0.658856 -4.11965 0
M  V30 3606 H 327.769 1.05696 -3.05005 0
M  V30 3607 H 326.821 -1.30586 -3.57284 0
M  V30 3608 H 328.133 -1.50458 -4.75567 0
M  V30 3609 H 327.287 0.464201 -6.04922 0
M  V30 3610 H 326.026 0.755741 -4.81809 0
M  V30 3611 H 325.031 -1.50044 -5.2893 0
M  V30 3612 H 326.256 -1.78133 -6.55321 0
M  V30 3613 H 324.202 0.462668 -6.54366 0
M  V30 3614 H 324.119 -0.983128 -7.4958 0
M  V30 3615 H 325.387 0.16826 -7.79318 0
M  V30 3616 N 329.616 1.39756 -0.72842 0
M  V30 3617 C 330.865 1.99879 -0.270407 0
M  V30 3618 C 331.178 1.58449 1.14688 0
M  V30 3619 O 332.384 2.11362 1.70407 0
M  V30 3620 C 330.84 3.57292 -0.43252 0
M  V30 3621 C 330.448 4.07688 -1.85727 0
M  V30 3622 C 332.192 4.24485 -0.0359507 0
M  V30 3623 C 330.099 5.5765 -1.96928 0
M  V30 3624 H 329.029 0.747689 -0.0973472 0
M  V30 3625 H 331.68 1.59837 -0.901355 0
M  V30 3626 H 330.062 3.95097 0.267219 0
M  V30 3627 H 331.236 3.81231 -2.58843 0
M  V30 3628 H 329.551 3.53135 -2.20646 0
M  V30 3629 H 332.148 5.34609 -0.0987484 0
M  V30 3630 H 332.491 4.03915 1.00787 0
M  V30 3631 H 333.024 3.9183 -0.686604 0
M  V30 3632 H 329.763 5.8309 -2.99476 0
M  V30 3633 H 329.283 5.8593 -1.28241 0
M  V30 3634 H 330.962 6.22957 -1.74737 0
M  V30 3635 N 331.094 0.475555 1.50254 0
M  V30 3636 C 332.319 -0.0777042 2.07254 0
M  V30 3637 C 332.744 -1.3235 1.3366 0
M  V30 3638 O 332.102 -1.77152 0.385597 0
M  V30 3639 C 332.15 -0.340169 3.58992 0
M  V30 3640 O 331.254 -1.41982 3.87188 0
M  V30 3641 H 330.595 0.0149556 0.663832 0
M  V30 3642 H 333.125 0.667878 1.93392 0
M  V30 3643 H 333.135 -0.579332 4.03866 0
M  V30 3644 H 331.81 0.570167 4.11973 0
M  V30 3645 H 330.387 -1.16762 3.54148 0
M  V30 3646 N 332.573 -1.56217 0.208337 0
M  V30 3647 C 333.798 -2.02782 -0.435222 0
M  V30 3648 C 334.223 -1.08738 -1.53485 0
M  V30 3649 O 333.581 -0.0731855 -1.81152 0
M  V30 3650 C 333.629 -3.47687 -0.956335 0
M  V30 3651 O 332.733 -3.56773 -2.06849 0
M  V30 3652 H 332.074 -0.656403 -0.100158 0
M  V30 3653 H 334.604 -2.02033 0.3231 0
M  V30 3654 H 334.614 -3.87745 -1.26955 0
M  V30 3655 H 333.289 -4.15624 -0.15143 0
M  V30 3656 H 331.866 -3.28597 -1.76292 0
M  V30 3657 N 334.051 0.0651679 -1.57465 0
M  V30 3658 C 335.299 0.761555 -1.87202 0
M  V30 3659 C 335.62 1.77778 -0.801243 0
M  V30 3660 O 334.89 1.95166 0.16937 0
M  V30 3661 H 333.47 0.284251 -0.690804 0
M  V30 3662 H 336.132 0.0396827 -1.9486 0
M  V30 3663 H 335.228 1.27365 -2.84929 0
M  V30 3664 N 335.529 1.53961 0.336706 0
M  V30 3665 C 336.459 1.85417 1.41925 0
M  V30 3666 C 337.44 0.709856 1.5458 0
M  V30 3667 O 338.625 0.962396 1.68676 0
M  V30 3668 C 335.755 2.06985 2.78881 0
M  V30 3669 C 334.709 3.22813 2.81026 0
M  V30 3670 C 334.035 3.29727 4.20932 0
M  V30 3671 C 335.335 4.60767 2.45949 0
M  V30 3672 H 337.029 2.76079 1.15848 0
M  V30 3673 H 334.575 1.32839 0.555859 0
M  V30 3674 H 336.528 2.27575 3.54665 0
M  V30 3675 H 335.252 1.13061 3.06406 0
M  V30 3676 H 333.911 3.0209 2.07695 0
M  V30 3677 H 333.559 2.33385 4.45579 0
M  V30 3678 H 333.259 4.07566 4.23277 0
M  V30 3679 H 334.783 3.52536 4.98549 0
M  V30 3680 H 336.197 4.81325 3.11446 0
M  V30 3681 H 334.594 5.4106 2.59566 0
M  V30 3682 H 335.664 4.6391 1.41122 0
M  V30 3683 N 337.007 -0.598083 1.45811 0
M  V30 3684 C 338.253 -1.35882 1.50545 0
M  V30 3685 C 338.586 -1.93616 0.150445 0
M  V30 3686 O 337.861 -1.75604 -0.83628 0
M  V30 3687 C 338.144 -2.49966 2.59208 0
M  V30 3688 C 337.997 -1.97367 4.04186 0
M  V30 3689 C 339.316 -3.52068 2.64076 0
M  V30 3690 H 336.435 -0.492717 0.548087 0
M  V30 3691 H 339.077 -0.673319 1.77669 0
M  V30 3692 H 337.227 -3.08443 2.3621 0
M  V30 3693 H 338.899 -1.43466 4.38423 0
M  V30 3694 H 337.142 -1.283 4.14393 0
M  V30 3695 H 337.813 -2.79649 4.75921 0
M  V30 3696 H 340.289 -3.03448 2.84708 0
M  V30 3697 H 339.165 -4.2937 3.41954 0
M  V30 3698 H 339.426 -4.08304 1.69531 0
M  V30 3699 N 338.485 -1.33259 -0.841409 0
M  V30 3700 C 339.713 -1.27605 -1.62864 0
M  V30 3701 C 340.128 0.153507 -1.88175 0
M  V30 3702 O 339.485 1.09485 -1.46011 0
M  V30 3703 C 339.536 -2.04596 -2.98031 0
M  V30 3704 O 339.257 -3.41975 -2.73834 0
M  V30 3705 C 340.758 -2.06122 -3.92465 0
M  V30 3706 H 337.978 -0.439718 -0.506842 0
M  V30 3707 H 340.522 -1.75591 -1.04824 0
M  V30 3708 H 338.677 -1.60299 -3.5268 0
M  V30 3709 H 339.091 -3.81549 -3.59889 0
M  V30 3710 H 340.565 -2.64451 -4.84531 0
M  V30 3711 H 341.042 -1.05083 -4.26444 0
M  V30 3712 H 341.648 -2.50427 -3.43753 0
M  V30 3713 N 339.963 1.05934 -1.16686 0
M  V30 3714 C 341.193 1.82226 -0.973515 0
M  V30 3715 C 341.601 1.8297 0.481532 0
M  V30 3716 O 340.944 1.25009 1.34604 0
M  V30 3717 C 341.006 3.29897 -1.42858 0
M  V30 3718 C 340.67 3.52849 -2.90425 0
M  V30 3719 C 341.667 3.45595 -3.88407 0
M  V30 3720 C 339.352 3.80053 -3.28428 0
M  V30 3721 C 341.346 3.65217 -5.22394 0
M  V30 3722 C 339.033 3.99325 -4.62583 0
M  V30 3723 C 340.031 3.91905 -5.59374 0
M  V30 3724 O 339.719 4.10647 -6.91104 0
M  V30 3725 H 339.451 0.581314 -0.345036 0
M  V30 3726 H 342.005 1.3453 -1.55212 0
M  V30 3727 H 340.235 3.78472 -0.793477 0
M  V30 3728 H 341.924 3.87692 -1.20207 0
M  V30 3729 H 342.69 3.24564 -3.60393 0
M  V30 3730 H 338.569 3.84936 -2.53664 0
M  V30 3731 H 342.113 3.59341 -5.9793 0
M  V30 3732 H 338.01 4.19846 -4.90306 0
M  V30 3733 H 338.778 4.27915 -6.97733 0
M  V30 3734 N 341.441 0.965919 1.2453 0
M  V30 3735 C 342.857 0.67216 1.44756 0
M  V30 3736 C 343.057 -0.766609 1.86347 0
M  V30 3737 O 342.113 -1.5407 2.00047 0
M  V30 3738 C 343.426 1.65473 2.51076 0
M  V30 3739 C 344.974 1.66716 2.64905 0
M  V30 3740 C 345.449 2.63766 3.74421 0
M  V30 3741 N 346.94 2.62198 3.81846 0
M  V30 3742 C 347.675 3.33966 4.66106 0
M  V30 3743 N 347.171 4.15245 5.54566 0
M  V30 3744 N 348.964 3.22799 4.60171 0
M  V30 3745 H 341.115 1.89553 0.958293 0
M  V30 3746 H 343.378 0.815979 0.482579 0
M  V30 3747 H 343.084 2.68296 2.27399 0
M  V30 3748 H 342.958 1.4261 3.49202 0
M  V30 3749 H 345.345 0.646057 2.87941 0
M  V30 3750 H 345.426 1.93642 1.67142 0
M  V30 3751 H 345.07 3.6601 3.52135 0
M  V30 3752 H 345 2.34121 4.71694 0
M  V30 3753 H 347.491 2.032 3.18619 0
M  V30 3754 H 347.804 4.66898 6.15814 0
M  V30 3755 H 346.149 4.1934 5.54237 0
M  V30 3756 H 349.34 2.58764 3.90075 0
M  V30 3757 H 349.513 3.78994 5.25612 0
M  V30 3758 N 342.919 -1.39368 0.735821 0
M  V30 3759 C 344.165 -2.00794 0.284544 0
M  V30 3760 C 344.498 -1.58255 -1.12557 0
M  V30 3761 O 343.773 -0.811819 -1.76748 0
M  V30 3762 C 344.056 -3.58011 0.387337 0
M  V30 3763 C 343.909 -4.10566 1.83728 0
M  V30 3764 C 345.228 -4.395 -0.22975 0
M  V30 3765 H 342.347 -0.729501 0.104866 0
M  V30 3766 H 344.989 -1.65564 0.93213 0
M  V30 3767 H 343.139 -3.88154 -0.164006 0
M  V30 3768 H 344.811 -3.91139 2.44556 0
M  V30 3769 H 343.054 -3.64095 2.35833 0
M  V30 3770 H 343.725 -5.19702 1.86047 0
M  V30 3771 H 346.201 -4.15406 0.240257 0
M  V30 3772 H 345.077 -5.48752 -0.127485 0
M  V30 3773 H 345.338 -4.22062 -1.3159 0
M  V30 3774 N 344.397 -0.483516 -1.5 0
M  V30 3775 C 345.344 0.304164 -2.28787 0
M  V30 3776 C 346.314 0.976114 -1.34392 0
M  V30 3777 O 347.499 0.986156 -1.63339 0
M  V30 3778 C 344.639 1.37298 -3.16612 0
M  V30 3779 C 343.752 0.714561 -4.26049 0
M  V30 3780 C 342.887 1.76232 -5.01114 0
M  V30 3781 C 341.926 1.08483 -6.0241 0
M  V30 3782 N 341.063 2.076 -6.70706 0
M  V30 3783 H 345.903 -0.373981 -2.95644 0
M  V30 3784 H 343.44 -0.196275 -1.45785 0
M  V30 3785 H 345.398 2.00445 -3.65893 0
M  V30 3786 H 344.028 2.02012 -2.51776 0
M  V30 3787 H 343.08 -0.0297798 -3.80388 0
M  V30 3788 H 344.392 0.180383 -4.98474 0
M  V30 3789 H 343.546 2.46929 -5.54176 0
M  V30 3790 H 342.285 2.33033 -4.28424 0
M  V30 3791 H 341.29 0.363545 -5.48597 0
M  V30 3792 H 342.515 0.523551 -6.77079 0
M  V30 3793 H 340.461 2.63394 -6.00799 0
M  V30 3794 H 340.378 1.59201 -7.39047 0
M  V30 3795 H 341.646 2.77639 -7.2838 0
M  V30 3796 N 345.875 1.56104 -0.216619 0
M  V30 3797 C 347.1 2.0301 0.424462 0
M  V30 3798 C 347.525 1.0955 1.52907 0
M  V30 3799 O 346.883 0.0827914 1.81111 0
M  V30 3800 C 346.931 3.4819 0.937883 0
M  V30 3801 O 346.035 3.57865 2.04955 0
M  V30 3802 H 345.376 0.656925 0.0966755 0
M  V30 3803 H 347.906 2.01859 -0.33381 0
M  V30 3804 H 347.916 3.88413 1.24897 0
M  V30 3805 H 346.591 4.15699 0.129387 0
M  V30 3806 H 345.168 3.29527 1.74546 0
M  V30 3807 N 347.353 -0.0568162 1.57498 0
M  V30 3808 C 348.63 -0.786954 1.79071 0
M  V30 3809 C 349.01 -1.95028 0.80792 0
M  V30 3810 O 348.358 -2.27968 -0.155858 0
M  V30 3811 C 348.568 -1.24594 3.26002 0
M  V30 3812 C 349.916 -1.67323 3.90241 0
M  V30 3813 O 350.94 -1.34124 3.29984 0
M  V30 3814 O 349.799 -2.28842 4.9628 0
M  V30 3815 H 346.893 -0.378262 0.735423 0
M  V30 3816 H 349.439 -0.035734 1.69662 0
M  V30 3817 H 348.211 -0.41423 3.89101 0
M  V30 3818 H 347.834 -2.05803 3.40192 0
M  V30 3819 N 348.832 -1.54138 -0.328536 0
M  V30 3820 C 349.779 -1.83176 -1.40411 0
M  V30 3821 C 350.749 -0.678494 -1.5161 0
M  V30 3822 O 351.934 -0.92443 -1.6691 0
M  V30 3823 C 349.074 -2.06035 -2.76846 0
M  V30 3824 C 348.187 -3.33727 -2.74318 0
M  V30 3825 C 347.322 -3.46574 -4.02567 0
M  V30 3826 C 346.361 -4.68159 -3.94327 0
M  V30 3827 N 345.498 -4.77959 -5.14296 0
M  V30 3828 H 350.338 -2.74938 -1.14948 0
M  V30 3829 H 347.875 -1.36166 -0.556538 0
M  V30 3830 H 349.833 -2.1728 -3.56153 0
M  V30 3831 H 348.463 -1.1757 -3.00628 0
M  V30 3832 H 347.515 -3.31246 -1.8703 0
M  V30 3833 H 348.827 -4.23139 -2.64111 0
M  V30 3834 H 347.981 -3.57333 -4.90304 0
M  V30 3835 H 346.72 -2.55245 -4.15574 0
M  V30 3836 H 345.725 -4.57461 -3.04974 0
M  V30 3837 H 346.95 -5.60868 -3.82889 0
M  V30 3838 H 344.896 -3.89544 -5.27818 0
M  V30 3839 H 344.813 -5.6133 -5.06404 0
M  V30 3840 H 346.081 -4.93044 -6.03761 0
M  V30 3841 N 350.31 0.590341 -1.46126 0
M  V30 3842 C 351.556 1.34874 -1.52252 0
M  V30 3843 C 351.911 1.91658 -0.168807 0
M  V30 3844 O 351.204 1.73093 0.821556 0
M  V30 3845 C 351.398 2.5032 -2.55097 0
M  V30 3846 C 351.227 2.04843 -4.00337 0
M  V30 3847 C 349.997 1.90213 -4.68132 0
M  V30 3848 C 352.195 1.61267 -4.88362 0
M  V30 3849 N 350.177 1.38727 -5.9802 0
M  V30 3850 C 351.548 1.21319 -6.08015 0
M  V30 3851 C 353.603 1.49015 -4.75078 0
M  V30 3852 C 352.306 0.7034 -7.15852 0
M  V30 3853 C 354.332 0.994401 -5.8298 0
M  V30 3854 C 353.694 0.604659 -7.018 0
M  V30 3855 H 349.793 0.486803 -0.612002 0
M  V30 3856 H 352.377 0.673007 -1.82698 0
M  V30 3857 H 350.548 3.15466 -2.26574 0
M  V30 3858 H 352.28 3.1725 -2.51266 0
M  V30 3859 H 349.035 2.11927 -4.23537 0
M  V30 3860 H 349.459 1.15168 -6.67132 0
M  V30 3861 H 354.101 1.77768 -3.83612 0
M  V30 3862 H 351.819 0.403446 -8.07092 0
M  V30 3863 H 355.405 0.903621 -5.7474 0
M  V30 3864 H 354.285 0.226963 -7.83871 0
M  V30 3865 N 351.788 1.33704 0.83433 0
M  V30 3866 C 352.736 1.24323 1.96587 0
M  V30 3867 C 353.73 0.143659 1.6879 0
M  V30 3868 O 354.936 0.30791 1.77347 0
M  V30 3869 H 351.311 0.385925 0.645419 0
M  V30 3870 H 353.282 2.19978 2.01624 0
M  V30 3871 C 352.031 1.00394 3.32891 0
M  V30 3872 H 351.354 1.84231 3.54822 0
M  V30 3873 H 352.794 0.97862 4.12552 0
M  V30 3874 C 351.253 -0.293047 3.35623 0
M  V30 3875 O 351.783 -1.29823 3.80143 0
M  V30 3876 N 349.989 -0.322174 2.88809 0
M  V30 3877 H 349.536 0.496379 2.52772 0
M  V30 3878 H 349.494 -1.18977 2.91019 0
M  V30 3879 N 353.266 -1.05314 1.17247 0
M  V30 3880 C 354.512 -1.78699 0.971513 0
M  V30 3881 C 354.867 -1.85932 -0.494692 0
M  V30 3882 O 354.16 -1.34716 -1.36243 0
M  V30 3883 C 354.354 -3.2229 1.54479 0
M  V30 3884 C 354.183 -3.29052 3.06521 0
M  V30 3885 C 352.953 -3.3841 3.75242 0
M  V30 3886 C 355.151 -3.18095 4.04129 0
M  V30 3887 N 353.133 -3.34289 5.14902 0
M  V30 3888 C 354.504 -3.21331 5.30232 0
M  V30 3889 C 356.559 -3.02049 3.95817 0
M  V30 3890 C 355.262 -3.10169 6.4899 0
M  V30 3891 C 357.288 -2.92228 5.14156 0
M  V30 3892 C 356.65 -2.96096 6.39145 0
M  V30 3893 H 352.749 -0.66628 0.409383 0
M  V30 3894 H 355.333 -1.25553 1.4881 0
M  V30 3895 H 353.504 -3.7381 1.05455 0
M  V30 3896 H 355.236 -3.83905 1.28059 0
M  V30 3897 H 351.991 -3.43621 3.25917 0
M  V30 3898 H 352.415 -3.35702 5.87906 0
M  V30 3899 H 357.057 -2.97897 3.00029 0
M  V30 3900 H 354.775 -3.13076 7.44989 0
M  V30 3901 H 358.361 -2.80885 5.09505 0
M  V30 3902 H 357.241 -2.88568 7.29176 0
M  V30 3903 N 354.744 -0.972509 -1.24016 0
M  V30 3904 C 355.991 -0.637034 -1.92219 0
M  V30 3905 C 356.319 0.828418 -1.75976 0
M  V30 3906 O 355.574 1.61206 -1.10955 0
M  V30 3907 C 355.873 -0.963694 -3.44162 0
M  V30 3908 C 355.539 -2.41807 -3.80579 0
M  V30 3909 C 354.201 -2.81556 -3.9023 0
M  V30 3910 C 356.553 -3.36172 -3.98293 0
M  V30 3911 C 353.881 -4.14702 -4.15017 0
M  V30 3912 C 356.233 -4.68952 -4.24578 0
M  V30 3913 C 354.897 -5.08472 -4.32449 0
M  V30 3914 H 354.167 -0.233107 -0.703379 0
M  V30 3915 H 356.814 -1.2249 -1.47202 0
M  V30 3916 H 355.119 -0.29365 -3.90698 0
M  V30 3917 H 356.816 -0.682449 -3.9515 0
M  V30 3918 H 353.406 -2.09988 -3.73635 0
M  V30 3919 H 357.59 -3.06644 -3.90234 0
M  V30 3920 H 352.846 -4.4494 -4.19331 0
M  V30 3921 H 357.02 -5.42037 -4.37229 0
M  V30 3922 H 354.647 -6.11665 -4.51409 0
M  V30 3923 N 356.222 1.38976 -0.743202 0
M  V30 3924 C 357.452 2.04339 -0.304807 0
M  V30 3925 C 357.86 1.56162 1.06819 0
M  V30 3926 O 357.203 0.725284 1.68776 0
M  V30 3927 C 357.265 3.58716 -0.237369 0
M  V30 3928 C 356.929 4.29905 -1.55018 0
M  V30 3929 C 357.926 4.55987 -2.49744 0
M  V30 3930 C 355.611 4.68294 -1.81675 0
M  V30 3931 C 357.605 5.19478 -3.69353 0
M  V30 3932 C 355.292 5.31512 -3.0156 0
M  V30 3933 C 356.29 5.57037 -3.9522 0
M  V30 3934 O 355.978 6.18941 -5.12998 0
M  V30 3935 H 355.71 0.663439 -0.12971 0
M  V30 3936 H 358.264 1.78852 -1.01001 0
M  V30 3937 H 356.494 3.83133 0.524003 0
M  V30 3938 H 358.183 4.05543 0.170121 0
M  V30 3939 H 358.949 4.26767 -2.30423 0
M  V30 3940 H 354.828 4.47779 -1.09615 0
M  V30 3941 H 358.372 5.39318 -4.42473 0
M  V30 3942 H 354.269 5.60153 -3.20778 0
M  V30 3943 H 355.037 6.37433 -5.13441 0
M  V30 3944 N 357.7 0.491464 1.49741 0
M  V30 3945 C 358.949 -0.0582189 2.01616 0
M  V30 3946 C 359.262 -1.38927 1.3769 0
M  V30 3947 O 360.468 -2.02509 1.80838 0
M  V30 3948 C 358.924 -0.154235 3.59569 0
M  V30 3949 C 358.532 1.1696 4.32463 0
M  V30 3950 C 360.276 -0.65479 4.1942 0
M  V30 3951 C 358.183 1.03627 5.8225 0
M  V30 3952 H 357.113 -0.0255317 0.753568 0
M  V30 3953 H 359.764 0.629445 1.72367 0
M  V30 3954 H 358.146 -0.906138 3.85493 0
M  V30 3955 H 359.32 1.93405 4.18248 0
M  V30 3956 H 357.635 1.60285 3.84315 0
M  V30 3957 H 360.232 -0.771903 5.29099 0
M  V30 3958 H 360.575 -1.65127 3.8215 0
M  V30 3959 H 361.108 0.040304 3.9778 0
M  V30 3960 H 357.847 2.00672 6.24028 0
M  V30 3961 H 357.367 0.312546 5.98985 0
M  V30 3962 H 359.046 0.711114 6.4308 0
M  V30 3963 N 359.178 -1.55987 0.224894 0
M  V30 3964 C 360.126 -2.21808 -0.700283 0
M  V30 3965 C 361.12 -1.19854 -1.19714 0
M  V30 3966 O 362.326 -1.37925 -1.15658 0
M  V30 3967 H 358.701 -0.711226 -0.244258 0
M  V30 3968 H 360.672 -2.98152 -0.121749 0
M  V30 3969 C 359.421 -2.91444 -1.8962 0
M  V30 3970 H 358.744 -3.69655 -1.52299 0
M  V30 3971 H 360.184 -3.40894 -2.52125 0
M  V30 3972 C 358.643 -1.94098 -2.75368 0
M  V30 3973 O 359.173 -1.46004 -3.74227 0
M  V30 3974 N 357.379 -1.61675 -2.41474 0
M  V30 3975 H 356.926 -2.00979 -1.61137 0
M  V30 3976 H 356.884 -0.968036 -2.99126 0
M  V30 3977 N 360.656 0.0484629 -1.57525 0
M  V30 3978 C 361.619 1.03956 -2.04269 0
M  V30 3979 C 362.619 1.30211 -0.943496 0
M  V30 3980 O 363.809 1.25539 -1.20771 0
M  V30 3981 C 360.941 2.37742 -2.44319 0
M  V30 3982 H 362.134 0.636182 -2.93075 0
M  V30 3983 H 359.687 0.294811 -1.53494 0
M  V30 3984 H 360.422 2.82866 -1.5861 0
M  V30 3985 H 360.207 2.20021 -3.24551 0
M  V30 3986 H 361.697 3.08936 -2.80978 0
M  V30 3987 O 362.173 1.60359 0.191666 0
M  V30 3988 H 362.864 1.75005 0.830227 0
M  V30 END ATOM
M  V30 BEGIN BOND
M  V30 END BOND
M  V30 END CTAB
M  END
$$$$
