drugbank_target|P77150 Pyridoxamine kinase (DB02153)
 OpenBabel12092119543D

  0  0  0     0  0            999 V3000
M  V30 BEGIN CTAB
M  V30 COUNTS 4412 4460 0 0 0
M  V30 BEGIN ATOM
M  V30 1 H -0.908 1.98254 -0.117106 0
M  V30 2 N 0 1.576 0 0
M  V30 3 C 0.933 2.03868 1.02534 0
M  V30 4 C 1.911 0.928543 1.3348 0
M  V30 5 O 3.095 1.19667 1.45644 0
M  V30 6 C 0.222 2.43627 2.35294 0
M  V30 7 C -0.732 3.65373 2.2001 0
M  V30 8 S 0.101 5.13292 1.52614 0
M  V30 9 C 1.257 5.56322 2.86805 0
M  V30 10 H 1.49 2.90518 0.631377 0
M  V30 11 H -0.977 1.52953 0.210867 0
M  V30 12 H 0.981 2.67203 3.11629 0
M  V30 13 H -0.358 1.57376 2.7183 0
M  V30 14 H -1.165 3.90944 3.18086 0
M  V30 15 H -1.563 3.418 1.51819 0
M  V30 16 H 0.729 5.58782 3.83104 0
M  V30 17 H 1.672 6.56266 2.65933 0
M  V30 18 H 2.08 4.83886 2.90714 0
M  V30 19 N 1.4781 -0.272755 1.55222 0
M  V30 20 C 2.4111 -1.3627 1.83046 0
M  V30 21 C 3.3891 -1.47536 0.683521 0
M  V30 22 O 4.5731 -1.64157 0.926545 0
M  V30 23 C 1.7001 -2.73908 1.99229 0
M  V30 24 C 0.7461 -2.79925 3.21783 0
M  V30 25 S 1.5791 -2.39146 4.79134 0
M  V30 26 C 2.7351 -3.78758 4.9829 0
M  V30 27 H 2.9681 -1.12464 2.75207 0
M  V30 28 H 0.5011 -0.472398 1.46996 0
M  V30 29 H 2.4591 -3.53171 2.09238 0
M  V30 30 H 1.1201 -2.94965 1.07956 0
M  V30 31 H 0.3131 -3.80946 3.29994 0
M  V30 32 H -0.0849 -2.08683 3.10367 0
M  V30 33 H 2.2071 -4.7403 4.84047 0
M  V30 34 H 3.1501 -3.75499 6.00338 0
M  V30 35 H 3.5581 -3.70072 4.26271 0
M  V30 36 N 2.9562 -1.48159 -0.537278 0
M  V30 37 C 3.9032 -1.62138 -1.64256 0
M  V30 38 C 4.8732 -0.463668 -1.59497 0
M  V30 39 O 6.0582 -0.686241 -1.78032 0
M  V30 40 C 3.1982 -1.66028 -3.02537 0
M  V30 41 C 2.3112 -2.92855 -3.17585 0
M  V30 42 C 1.4462 -2.87952 -4.46382 0
M  V30 43 C 0.4852 -4.09516 -4.54932 0
M  V30 44 N -0.3778 -4.02733 -5.75109 0
M  V30 45 H 4.4622 -2.56529 -1.51647 0
M  V30 46 H 1.9992 -1.27224 -0.738414 0
M  V30 47 H 3.9572 -1.66265 -3.82638 0
M  V30 48 H 2.5872 -0.751331 -3.13934 0
M  V30 49 H 1.6392 -3.02395 -2.30784 0
M  V30 50 H 2.9512 -3.82822 -3.19764 0
M  V30 51 H 2.1052 -2.8655 -5.34765 0
M  V30 52 H 0.8442 -1.95702 -4.46712 0
M  V30 53 H -0.1508 -4.11201 -3.64957 0
M  V30 54 H 1.0742 -5.02917 -4.56346 0
M  V30 55 H -0.9798 -3.13299 -5.76351 0
M  V30 56 H -1.0628 -4.86397 -5.78752 0
M  V30 57 H 0.2052 -4.05379 -6.65799 0
M  V30 58 N 4.4343 0.785586 -1.36625 0
M  V30 59 C 5.3823 1.91978 -1.31329 0
M  V30 60 C 6.3763 1.68162 -0.204416 0
M  V30 61 O 7.5823 1.76122 -0.371645 0
M  V30 62 H 3.9573 0.631087 -0.408942 0
M  V30 63 H 5.9283 1.93562 -2.27104 0
M  V30 64 C 4.6773 3.29055 -1.12329 0
M  V30 65 H 4.0003 3.4795 -1.96903 0
M  V30 66 H 5.4403 4.08756 -1.12671 0
M  V30 67 C 3.8993 3.36461 0.171861 0
M  V30 68 O 4.4293 3.84576 1.16035 0
M  V30 69 N 2.6353 2.89782 0.217846 0
M  V30 70 H 2.1823 2.50819 -0.587183 0
M  V30 71 H 2.1403 2.95119 1.08408 0
M  V30 72 N 5.9124 1.20967 1.01018 0
M  V30 73 C 7.1614 1.01796 1.74128 0
M  V30 74 C 7.4744 -0.449691 1.90361 0
M  V30 75 O 8.6804 -0.76068 2.60626 0
M  V30 76 C 7.1364 1.7727 3.13215 0
M  V30 77 C 6.7444 3.28171 3.04972 0
M  V30 78 C 8.4884 1.66489 3.90489 0
M  V30 79 C 6.3954 3.96156 4.39107 0
M  V30 80 H 5.3254 0.377276 0.652824 0
M  V30 81 H 7.9764 1.44651 1.12909 0
M  V30 82 H 6.3584 1.27205 3.75013 0
M  V30 83 H 7.5324 3.85499 2.52443 0
M  V30 84 H 5.8474 3.39437 2.41188 0
M  V30 85 H 8.4444 2.14617 4.89738 0
M  V30 86 H 8.7874 0.6222 4.11624 0
M  V30 87 H 9.3204 2.14003 3.35332 0
M  V30 88 H 6.0594 5.00604 4.23174 0
M  V30 89 H 5.5794 3.43617 4.91617 0
M  V30 90 H 7.2584 4.00774 5.07926 0
M  V30 91 N 7.3905 -1.2043 1.01659 0
M  V30 92 C 8.3205 -2.25466 0.607226 0
M  V30 93 C 9.3015 -1.65853 -0.377716 0
M  V30 94 O 10.4865 -1.92409 -0.263149 0
M  V30 95 C 7.6165 -3.47256 -0.0552949 0
M  V30 96 C 6.5705 -4.19462 0.850632 0
M  V30 97 C 5.8965 -5.34673 0.0538859 0
M  V30 98 C 7.1965 -4.75603 2.15868 0
M  V30 99 H 8.8905 -2.59962 1.48526 0
M  V30 100 H 6.4365 -1.2496 0.715605 0
M  V30 101 H 8.3895 -4.19917 -0.353233 0
M  V30 102 H 7.1135 -3.11924 -0.968045 0
M  V30 103 H 5.7725 -3.48667 1.13257 0
M  V30 104 H 5.4205 -4.95585 -0.860514 0
M  V30 105 H 5.1205 -5.83913 0.657192 0
M  V30 106 H 6.6445 -6.10138 -0.237598 0
M  V30 107 H 8.0585 -5.40083 1.92311 0
M  V30 108 H 6.4555 -5.3528 2.71284 0
M  V30 109 H 7.5255 -3.94346 2.82169 0
M  V30 110 N 8.8686 -0.792821 -1.36206 0
M  V30 111 C 9.8316 -0.199459 -2.2833 0
M  V30 112 C 10.8316 0.605189 -1.48977 0
M  V30 113 O 12.0216 0.425685 -1.68919 0
M  V30 114 C 9.1536 0.723523 -3.33134 0
M  V30 115 H 10.3466 -1.01181 -2.82316 0
M  V30 116 H 7.8996 -0.562485 -1.45828 0
M  V30 117 H 8.6346 1.56008 -2.84309 0
M  V30 118 H 8.4196 0.148436 -3.91819 0
M  V30 119 H 9.9096 1.13344 -4.01924 0
M  V30 120 N 10.3467 1.47872 -0.545128 0
M  V30 121 C 11.5957 2.01695 -0.0145033 0
M  V30 122 C 11.9087 1.42609 1.33873 0
M  V30 123 O 13.1147 1.88021 1.95858 0
M  V30 124 C 11.5707 3.59892 0.0245068 0
M  V30 125 C 11.1787 4.27966 -1.32475 0
M  V30 126 C 12.9227 4.21507 0.50316 0
M  V30 127 C 10.8297 5.78136 -1.2455 0
M  V30 128 H 9.7597 0.753998 -0.00165172 0
M  V30 129 H 12.4107 1.69985 -0.691175 0
M  V30 130 H 10.7927 3.88509 0.766575 0
M  V30 131 H 11.9667 4.11003 -2.08357 0
M  V30 132 H 10.2817 3.78286 -1.74036 0
M  V30 133 H 12.8787 5.31538 0.580656 0
M  V30 134 H 13.2217 3.87855 1.51243 0
M  V30 135 H 13.7547 3.97376 -0.183681 0
M  V30 136 H 10.4937 6.16388 -2.23039 0
M  V30 137 H 10.0137 5.97469 -0.528282 0
M  V30 138 H 11.6927 6.40099 -0.942488 0
M  V30 139 N 11.8248 0.280983 1.55075 0
M  V30 140 C 12.7568 -0.637268 2.20163 0
M  V30 141 C 13.7698 -1.11298 1.18813 0
M  V30 142 O 14.9588 -1.03388 1.4551 0
M  V30 143 C 12.0588 -1.88199 2.81841 0
M  V30 144 C 11.2318 -1.55211 4.08936 0
M  V30 145 C 10.2908 -2.64991 4.54606 0
M  V30 146 O 9.3168 -2.30929 5.2025 0
M  V30 147 N 10.5188 -3.95161 4.25238 0
M  V30 148 H 13.2838 -0.0801694 2.99593 0
M  V30 149 H 10.8448 0.102329 1.61576 0
M  V30 150 H 12.8368 -2.60948 3.09335 0
M  V30 151 H 11.4068 -2.34799 2.06369 0
M  V30 152 H 10.6268 -0.658185 3.88666 0
M  V30 153 H 11.9148 -1.30681 4.91732 0
M  V30 154 H 11.3128 -4.25653 3.72607 0
M  V30 155 H 9.8698 -4.6427 4.5749 0
M  V30 156 N 13.3029 -1.57598 0.00835791 0
M  V30 157 C 14.5279 -1.95617 -0.689103 0
M  V30 158 C 14.9529 -0.883753 -1.66046 0
M  V30 159 O 14.3109 0.157352 -1.80616 0
M  V30 160 C 14.3589 -3.32736 -1.38994 0
M  V30 161 O 13.4629 -3.27631 -2.50463 0
M  V30 162 H 12.8039 -0.638379 -0.182668 0
M  V30 163 H 15.3339 -2.045 0.064036 0
M  V30 164 H 15.3439 -3.68494 -1.75147 0
M  V30 165 H 14.0189 -4.1034 -0.677778 0
M  V30 166 H 12.5959 -3.03561 -2.16576 0
M  V30 167 N 14.781 0.264519 -1.55364 0
M  V30 168 C 15.731 1.32966 -1.85214 0
M  V30 169 C 16.715 1.44306 -0.711653 0
M  V30 170 O 17.907 1.47844 -0.973192 0
M  V30 171 C 15.036 2.68839 -2.13495 0
M  V30 172 C 14.122 2.61575 -3.33825 0
M  V30 173 N 14.513 2.23933 -4.53528 0
M  V30 174 C 12.811 2.92621 -3.36584 0
M  V30 175 C 13.512 2.26868 -5.35636 0
M  V30 176 N 12.488 2.65677 -4.74254 0
M  V30 177 H 16.29 1.02884 -2.75304 0
M  V30 178 H 13.804 0.473157 -1.55354 0
M  V30 179 H 15.801 3.45685 -2.33039 0
M  V30 180 H 14.461 2.99802 -1.24694 0
M  V30 181 H 15.472 1.95769 -4.79474 0
M  V30 182 H 12.149 3.2824 -2.58002 0
M  V30 183 H 13.539 2.00254 -6.41364 0
M  V30 184 N 16.2591 1.48442 0.529413 0
M  V30 185 C 17.5051 1.5672 1.28711 0
M  V30 186 C 17.8381 0.2406 1.92704 0
M  V30 187 O 17.1131 -0.753454 1.79313 0
M  V30 188 C 17.3961 2.70587 2.37603 0
M  V30 189 C 17.2491 4.12953 1.78297 0
M  V30 190 C 18.5681 2.80212 3.39366 0
M  V30 191 H 15.6871 0.570474 0.466613 0
M  V30 192 H 18.3291 1.80617 0.589706 0
M  V30 193 H 16.4791 2.50342 2.97088 0
M  V30 194 H 18.1511 4.44639 1.22858 0
M  V30 195 H 16.3941 4.19927 1.0883 0
M  V30 196 H 17.0651 4.88448 2.57144 0
M  V30 197 H 19.5411 2.98553 2.89836 0
M  V30 198 H 18.4171 3.61611 4.12951 0
M  V30 199 H 18.6781 1.88393 3.99951 0
M  V30 200 N 17.7372 -0.778329 1.37039 0
M  V30 201 C 18.9832 -1.53892 1.32079 0
M  V30 202 C 19.3162 -1.9396 -0.0965386 0
M  V30 203 O 18.5912 -1.63568 -1.05242 0
M  V30 204 C 18.8742 -2.80847 2.25382 0
M  V30 205 C 18.7272 -2.47076 3.75864 0
M  V30 206 C 20.0462 -3.82741 2.1725 0
M  V30 207 H 17.1652 -0.558303 0.48111 0
M  V30 208 H 19.8072 -0.893397 1.67685 0
M  V30 209 H 17.9572 -3.35931 1.95148 0
M  V30 210 H 19.6292 -1.97957 4.16666 0
M  V30 211 H 17.8722 -1.79863 3.94755 0
M  V30 212 H 18.5432 -3.37798 4.36574 0
M  V30 213 H 21.0192 -3.37133 2.43887 0
M  V30 214 H 19.8952 -4.69303 2.84686 0
M  V30 215 H 20.1562 -4.2652 1.16331 0
M  V30 216 N 19.2153 -1.21501 -1.00376 0
M  V30 217 C 20.4453 -1.05746 -1.77486 0
M  V30 218 C 20.8533 0.395655 -1.85017 0
M  V30 219 O 20.1963 1.28626 -1.31152 0
M  V30 220 C 20.2583 -1.58092 -3.22873 0
M  V30 221 C 19.9223 -3.06568 -3.38917 0
M  V30 222 C 20.9193 -4.04106 -3.271 0
M  V30 223 C 18.6043 -3.45799 -3.64319 0
M  V30 224 C 20.5983 -5.38862 -3.40451 0
M  V30 225 C 18.2853 -4.80707 -3.77311 0
M  V30 226 C 19.2833 -5.77047 -3.65384 0
M  V30 227 O 18.9713 -7.09507 -3.77961 0
M  V30 228 H 18.7033 -0.371778 -0.564586 0
M  V30 229 H 21.2573 -1.61319 -1.27143 0
M  V30 230 H 19.4873 -0.969163 -3.74358 0
M  V30 231 H 21.1763 -1.38162 -3.81662 0
M  V30 232 H 21.9423 -3.75141 -3.07399 0
M  V30 233 H 17.8213 -2.71344 -3.72684 0
M  V30 234 H 21.3653 -6.14041 -3.31058 0
M  V30 235 H 17.2623 -5.09357 -3.96517 0
M  V30 236 H 18.0303 -7.16935 -3.94901 0
M  V30 237 N 20.6934 1.19889 -1.02296 0
M  V30 238 C 21.9414 1.89046 -0.714558 0
M  V30 239 C 22.2624 1.79636 0.758681 0
M  V30 240 O 21.5324 1.20292 1.54618 0
M  V30 241 H 20.1124 0.699802 -0.261317 0
M  V30 242 H 22.7744 1.45574 -1.29592 0
M  V30 243 H 21.8704 2.95524 -1.0036 0
M  V30 244 N 22.1715 0.800033 1.35784 0
M  V30 245 C 23.1215 0.178654 2.27299 0
M  V30 246 C 24.1055 -0.643667 1.47464 0
M  V30 247 O 25.2975 -0.502 1.69732 0
M  V30 248 C 22.4265 -0.677194 3.36555 0
M  V30 249 C 21.5125 0.154497 4.23818 0
M  V30 250 N 21.9035 1.21427 4.91008 0
M  V30 251 C 20.2015 -0.0649462 4.45953 0
M  V30 252 C 20.9025 1.72147 5.55644 0
M  V30 253 N 19.8785 1.02897 5.33773 0
M  V30 254 H 23.6805 0.989637 2.76737 0
M  V30 255 H 21.1945 0.64054 1.49234 0
M  V30 256 H 23.1915 -1.13835 4.01058 0
M  V30 257 H 21.8515 -1.4866 2.8867 0
M  V30 258 H 22.8625 1.59684 4.92668 0
M  V30 259 H 19.5395 -0.844016 4.0888 0
M  V30 260 H 20.9295 2.60683 6.19269 0
M  V30 261 N 23.6496 -1.47581 0.552962 0
M  V30 262 C 24.6126 -2.28439 -0.186605 0
M  V30 263 C 25.6126 -1.36706 -0.84665 0
M  V30 264 O 26.8026 -1.59378 -0.703164 0
M  V30 265 C 23.9346 -3.16264 -1.2724 0
M  V30 266 H 25.1276 -2.95294 0.523609 0
M  V30 267 H 22.6806 -1.532 0.309745 0
M  V30 268 H 23.4156 -2.54091 -2.01514 0
M  V30 269 H 23.2006 -3.83769 -0.803968 0
M  V30 270 H 24.6906 -3.77198 -1.79196 0
M  V30 271 N 25.1277 -0.289203 -1.54924 0
M  V30 272 C 26.3757 0.322879 -1.99504 0
M  V30 273 C 26.6967 1.55313 -1.1791 0
M  V30 274 O 25.9667 1.94001 -0.272097 0
M  V30 275 H 24.5467 0.122291 -0.736922 0
M  V30 276 H 27.2087 -0.397802 -1.90797 0
M  V30 277 H 26.3047 0.603061 -3.06218 0
M  V30 278 N 26.6058 1.57591 -0.0167156 0
M  V30 279 C 27.5538 2.10604 0.987353 0
M  V30 280 C 28.5478 1.02977 1.34507 0
M  V30 281 O 29.7538 1.21425 1.32875 0
M  V30 282 H 26.1288 0.672695 0.336134 0
M  V30 283 H 28.0998 2.93925 0.514817 0
M  V30 284 C 26.8488 2.6382 2.26483 0
M  V30 285 H 26.1718 3.46278 1.99829 0
M  V30 286 H 27.6118 3.04573 2.94977 0
M  V30 287 C 26.0708 1.55992 2.9861 0
M  V30 288 O 26.6008 0.952521 3.90243 0
M  V30 289 N 24.8068 1.28335 2.60727 0
M  V30 290 H 24.3538 1.77914 1.86291 0
M  V30 291 H 24.3118 0.564115 3.09298 0
M  V30 292 N 28.0839 -0.256276 1.55502 0
M  V30 293 C 29.3089 -1.00766 1.81276 0
M  V30 294 C 29.7339 -1.78524 0.59252 0
M  V30 295 O 29.0919 -1.75413 -0.45827 0
M  V30 296 C 29.1399 -1.92869 3.04687 0
M  V30 297 O 28.2439 -3.019 2.80945 0
M  V30 298 H 27.5849 -0.287224 0.598664 0
M  V30 299 H 30.1149 -0.280109 2.02674 0
M  V30 300 H 30.1249 -2.34511 3.33869 0
M  V30 301 H 28.7999 -1.35689 3.93143 0
M  V30 302 H 27.3769 -2.64454 2.62904 0
M  V30 303 N 29.562 -1.4872 -0.521534 0
M  V30 304 C 30.525 -1.63379 -1.60748 0
M  V30 305 C 31.525 -0.50661 -1.52611 0
M  V30 306 O 32.715 -0.772601 -1.5613 0
M  V30 307 C 29.847 -1.61192 -3.00383 0
M  V30 308 H 31.04 -2.60217 -1.49087 0
M  V30 309 H 28.593 -1.37444 -0.744235 0
M  V30 310 H 29.328 -0.65863 -3.17541 0
M  V30 311 H 29.113 -2.43032 -3.07698 0
M  V30 312 H 30.603 -1.7466 -3.7932 0
M  V30 313 N 31.0401 0.771051 -1.3745 0
M  V30 314 C 32.0031 1.86598 -1.33093 0
M  V30 315 C 33.0031 1.59076 -0.234845 0
M  V30 316 O 34.1931 1.67145 -0.490732 0
M  V30 317 C 31.3251 3.23747 -1.06773 0
M  V30 318 H 32.5181 1.91873 -2.30488 0
M  V30 319 H 30.0711 0.970876 -1.2249 0
M  V30 320 H 30.8061 3.24148 -0.099129 0
M  V30 321 H 30.5911 3.45115 -1.86112 0
M  V30 322 H 32.0811 4.03824 -1.06377 0
M  V30 323 N 32.5182 1.22032 0.997298 0
M  V30 324 C 33.4282 1.00271 2.12092 0
M  V30 325 C 34.4442 -0.047621 1.73935 0
M  V30 326 O 35.6202 0.144136 2.00884 0
M  V30 327 C 32.6852 0.578449 3.4184 0
M  V30 328 C 31.7462 1.70189 3.94125 0
M  V30 329 C 30.9792 1.29778 5.17681 0
M  V30 330 O 31.2022 0.174676 5.70132 0
M  V30 331 O 30.1362 2.11261 5.63607 0
M  V30 332 H 33.9622 1.94398 2.3333 0
M  V30 333 H 31.5472 1.00587 1.10465 0
M  V30 334 H 33.4292 0.351998 4.19927 0
M  V30 335 H 32.1042 -0.334019 3.21972 0
M  V30 336 H 31.0112 1.98282 3.1723 0
M  V30 337 H 32.3442 2.59206 4.18417 0
M  V30 338 N 33.9963 -1.19345 1.0293 0
M  V30 339 C 35.2433 -1.89038 0.726008 0
M  V30 340 C 35.5713 -1.79649 -0.745427 0
M  V30 341 O 34.8263 -1.18354 -1.55855 0
M  V30 342 C 35.1253 -3.39292 1.12319 0
M  V30 343 C 34.7913 -3.68885 2.59297 0
M  V30 344 C 33.4533 -3.76671 2.99453 0
M  V30 345 C 35.8053 -3.82178 3.54386 0
M  V30 346 C 33.1333 -3.9522 4.33611 0
M  V30 347 C 35.4853 -4.0224 4.88248 0
M  V30 348 C 34.1493 -4.08259 5.28092 0
M  V30 349 H 33.4193 -0.691739 0.265665 0
M  V30 350 H 36.0663 -1.41328 1.29223 0
M  V30 351 H 34.3713 -3.88903 0.475584 0
M  V30 352 H 36.0683 -3.91536 0.866037 0
M  V30 353 H 32.6583 -3.63433 2.27189 0
M  V30 354 H 36.8423 -3.75505 3.24514 0
M  V30 355 H 32.0983 -3.98119 4.64016 0
M  V30 356 H 36.2723 -4.11468 5.61843 0
M  V30 357 H 33.8993 -4.22384 6.32057 0
M  V30 358 N 35.4744 -0.807222 -1.35358 0
M  V30 359 C 36.8854 -0.44876 -1.81226 0
M  V30 360 C 37.2364 1.02929 -1.67033 0
M  V30 361 O 36.3614 1.79991 -1.20133 0
M  V30 362 C 36.9564 -0.807774 -3.2903 0
M  V30 363 C 35.5154 -0.501901 -3.73039 0
M  V30 364 C 34.6624 -1.03304 -2.57339 0
M  V30 365 H 37.6134 -0.998808 -1.23327 0
M  V30 366 H 37.6344 -0.10554 -3.80354 0
M  V30 367 H 37.1464 -1.88357 -3.39328 0
M  V30 368 H 35.2474 0.565128 -3.68289 0
M  V30 369 H 35.3604 -1.03497 -4.67787 0
M  V30 370 H 33.7244 -0.455339 -2.50597 0
M  V30 371 H 34.5074 -2.11496 -2.70415 0
M  V30 372 N 36.9525 1.47285 -0.560781 0
M  V30 373 C 37.8855 2.27009 0.232821 0
M  V30 374 C 38.8635 1.34273 0.917039 0
M  V30 375 O 40.0475 1.63659 0.935315 0
M  V30 376 C 37.1745 3.11406 1.33206 0
M  V30 377 C 36.2205 4.19746 0.756019 0
M  V30 378 S 37.0535 5.34003 -0.400165 0
M  V30 379 C 38.2095 6.21964 0.700805 0
M  V30 380 H 38.4425 2.93971 -0.443683 0
M  V30 381 H 35.9755 1.50446 -0.347181 0
M  V30 382 H 37.9335 3.60601 1.96156 0
M  V30 383 H 36.5945 2.438 1.98041 0
M  V30 384 H 35.7875 4.78541 1.5816 0
M  V30 385 H 35.3895 3.73451 0.202619 0
M  V30 386 H 37.6815 6.58529 1.59202 0
M  V30 387 H 38.6245 7.07941 0.150126 0
M  V30 388 H 39.0325 5.5566 0.995083 0
M  V30 389 N 38.4306 0.297415 1.54768 0
M  V30 390 C 39.8466 -0.0560823 1.59501 0
M  V30 391 C 40.0466 -1.52725 1.31444 0
M  V30 392 O 39.1026 -2.27947 1.08611 0
M  V30 393 C 40.4156 0.338631 2.98787 0
M  V30 394 C 41.9636 0.287097 3.11681 0
M  V30 395 C 42.4386 0.656579 4.53269 0
M  V30 396 N 43.9296 0.608977 4.59179 0
M  V30 397 C 44.6646 0.867385 5.66802 0
M  V30 398 N 44.1606 1.19157 6.82476 0
M  V30 399 N 45.9536 0.794687 5.56454 0
M  V30 400 H 38.1046 1.25624 1.71267 0
M  V30 401 H 40.3676 0.509057 0.799728 0
M  V30 402 H 40.0736 1.36263 3.2423 0
M  V30 403 H 39.9476 -0.309508 3.75928 0
M  V30 404 H 42.3346 -0.727649 2.85988 0
M  V30 405 H 42.4156 0.969809 2.36703 0
M  V30 406 H 42.0596 1.66912 4.7969 0
M  V30 407 H 41.9896 -0.0481649 5.26578 0
M  V30 408 H 44.4806 0.369198 3.76092 0
M  V30 409 H 44.7936 1.37482 7.60473 0
M  V30 410 H 43.1386 1.22958 6.84037 0
M  V30 411 H 46.3296 0.541098 4.64962 0
M  V30 412 H 46.5026 0.999445 6.40246 0
M  V30 413 N 39.9087 -1.5758 0.0250728 0
M  V30 414 C 41.3247 -1.56124 -0.331282 0
M  V30 415 C 41.5247 -1.03029 -1.73169 0
M  V30 416 O 40.5807 -0.675215 -2.43305 0
M  V30 417 C 41.8937 -3.00139 -0.183584 0
M  V30 418 C 43.4417 -3.11946 -0.256654 0
M  V30 419 C 43.9167 -4.57793 -0.137792 0
M  V30 420 N 45.4077 -4.6279 -0.194904 0
M  V30 421 C 46.1427 -5.7326 -0.126655 0
M  V30 422 N 45.6387 -6.928 -0.00755288 0
M  V30 423 N 47.4317 -5.61811 -0.180348 0
M  V30 424 H 39.5827 -1.90424 0.94087 0
M  V30 425 H 41.8457 -0.875761 0.362968 0
M  V30 426 H 41.5517 -3.4292 0.780927 0
M  V30 427 H 41.4257 -3.64899 -0.955448 0
M  V30 428 H 43.8127 -2.69079 -1.21162 0
M  V30 429 H 43.8937 -2.49915 0.545517 0
M  V30 430 H 43.5377 -5.01339 0.813739 0
M  V30 431 H 43.4677 -5.17798 -0.958775 0
M  V30 432 H 45.9587 -3.76807 -0.287267 0
M  V30 433 H 46.2717 -7.72791 0.0379428 0
M  V30 434 H 44.6167 -6.94995 0.0271731 0
M  V30 435 H 47.8077 -4.6731 -0.271767 0
M  V30 436 H 47.9807 -6.47882 -0.123697 0
M  V30 437 N 41.3868 0.248026 -1.55636 0
M  V30 438 C 42.3168 1.31079 -1.93237 0
M  V30 439 C 43.2978 1.50264 -0.797174 0
M  V30 440 O 44.4828 1.62891 -1.05737 0
M  V30 441 C 41.6128 2.66575 -2.22609 0
M  V30 442 C 40.5668 2.62087 -3.3837 0
M  V30 443 C 39.8928 4.01369 -3.53281 0
M  V30 444 C 41.1928 2.19171 -4.7409 0
M  V30 445 H 42.8868 0.998556 -2.82257 0
M  V30 446 H 40.4328 0.47891 -1.35803 0
M  V30 447 H 42.3858 3.41057 -2.47503 0
M  V30 448 H 41.1098 2.99432 -1.30414 0
M  V30 449 H 39.7688 1.90063 -3.13483 0
M  V30 450 H 39.4168 4.31489 -2.58508 0
M  V30 451 H 39.1168 3.99254 -4.31127 0
M  V30 452 H 40.6408 4.77552 -3.80495 0
M  V30 453 H 42.0548 2.83384 -4.98363 0
M  V30 454 H 40.4518 2.2817 -5.5503 0
M  V30 455 H 41.5218 1.14336 -4.71227 0
M  V30 456 N 42.8649 1.48995 0.513639 0
M  V30 457 C 44.1129 1.57531 1.26604 0
M  V30 458 C 44.4339 0.258236 1.93283 0
M  V30 459 O 43.7039 -0.721502 1.8213 0
M  V30 460 H 42.2839 0.580387 0.470276 0
M  V30 461 H 44.9459 1.85552 0.596373 0
M  V30 462 H 44.0419 2.36486 2.03669 0
M  V30 463 N 44.343 -0.763751 1.37857 0
M  V30 464 C 45.306 -1.85889 1.34081 0
M  V30 465 C 46.306 -1.58949 0.243277 0
M  V30 466 O 47.496 -1.66882 0.499589 0
M  V30 467 C 44.628 -3.23176 1.08489 0
M  V30 468 H 45.821 -1.90648 2.31502 0
M  V30 469 H 43.374 -0.964367 1.23003 0
M  V30 470 H 44.109 -3.24091 0.116318 0
M  V30 471 H 43.894 -3.44124 1.8794 0
M  V30 472 H 45.384 -4.03254 1.08517 0
M  V30 473 N 45.8211 -1.22559 -0.990812 0
M  V30 474 C 46.7691 -0.994798 -2.10253 0
M  V30 475 C 47.7631 0.0627798 -1.69284 0
M  V30 476 O 48.9691 -0.0898392 -1.79776 0
M  V30 477 H 45.3441 -0.304527 -0.687581 0
M  V30 478 H 47.3151 -1.93812 -2.26891 0
M  V30 479 C 46.0641 -0.591439 -3.42633 0
M  V30 480 H 45.3871 -1.3969 -3.74602 0
M  V30 481 H 46.8271 -0.469385 -4.21394 0
M  V30 482 C 45.2861 0.699232 -3.29564 0
M  V30 483 O 45.8161 1.75112 -3.61523 0
M  V30 484 N 44.0221 0.671182 -2.82743 0
M  V30 485 H 43.5691 -0.185136 -2.56934 0
M  V30 486 H 43.5271 1.53502 -2.7438 0
M  V30 487 N 47.2992 1.18797 -1.03562 0
M  V30 488 C 48.5452 1.8893 -0.737113 0
M  V30 489 C 48.8782 1.79837 0.732956 0
M  V30 490 O 48.1532 1.19525 1.5344 0
M  V30 491 C 48.4362 3.39607 -1.19745 0
M  V30 492 C 48.2892 3.57537 -2.72924 0
M  V30 493 C 49.6082 4.33069 -0.783526 0
M  V30 494 H 46.7272 0.686057 -0.269249 0
M  V30 495 H 49.3692 1.39797 -1.28673 0
M  V30 496 H 47.5192 3.81583 -0.729855 0
M  V30 497 H 49.1912 3.24688 -3.27682 0
M  V30 498 H 47.4342 3.00363 -3.12993 0
M  V30 499 H 48.1052 4.63238 -3.00191 0
M  V30 500 H 50.5812 3.98846 -1.18581 0
M  V30 501 H 49.4572 5.3707 -1.13343 0
M  V30 502 H 49.7182 4.40986 0.313681 0
M  V30 503 N 48.7773 0.814389 1.34928 0
M  V30 504 C 50.0233 0.408167 1.99263 0
M  V30 505 C 50.3783 -1.0154 1.63424 0
M  V30 506 O 49.6713 -1.69607 0.891289 0
M  V30 507 C 49.8653 0.537781 3.53331 0
M  V30 508 C 49.6943 1.9724 4.04137 0
M  V30 509 C 48.4643 2.60245 4.33129 0
M  V30 510 C 50.6623 2.93801 4.2212 0
M  V30 511 N 48.6443 3.95036 4.69914 0
M  V30 512 C 50.0153 4.1348 4.6199 0
M  V30 513 C 52.0703 2.9053 4.04348 0
M  V30 514 C 50.7733 5.3033 4.85945 0
M  V30 515 C 52.7993 4.06589 4.29464 0
M  V30 516 C 52.1613 5.25017 4.69613 0
M  V30 517 H 48.2603 0.197289 0.756704 0
M  V30 518 H 50.8443 1.05728 1.63492 0
M  V30 519 H 49.0153 -0.0813868 3.88315 0
M  V30 520 H 50.7473 0.105389 4.04563 0
M  V30 521 H 47.5023 2.11545 4.23728 0
M  V30 522 H 47.9263 4.64455 4.92555 0
M  V30 523 H 52.5683 2.00115 3.72443 0
M  V30 524 H 50.2863 6.21309 5.16721 0
M  V30 525 H 53.8723 4.05447 4.17257 0
M  V30 526 H 52.7523 6.1333 4.88667 0
M  V30 527 N 50.2554 -1.46986 0.568584 0
M  V30 528 C 51.6664 -1.86188 0.138219 0
M  V30 529 C 52.0174 -1.47388 -1.29504 0
M  V30 530 O 51.1424 -0.88219 -1.97602 0
M  V30 531 C 51.7374 -3.3792 0.244065 0
M  V30 532 C 50.2964 -3.76171 -0.131335 0
M  V30 533 C 49.4434 -2.71027 0.586465 0
M  V30 534 H 52.3944 -1.38342 0.777645 0
M  V30 535 H 52.4154 -3.76729 -0.534351 0
M  V30 536 H 51.9274 -3.66128 1.28731 0
M  V30 537 H 50.0284 -3.5358 -1.17526 0
M  V30 538 H 50.1414 -4.78523 0.235146 0
M  V30 539 H 48.5054 -2.54684 0.0282722 0
M  V30 540 H 49.2884 -3.02077 1.63109 0
M  V30 541 N 51.7335 -0.305618 -1.54608 0
M  V30 542 C 52.6635 0.561482 -2.26649 0
M  V30 543 C 53.6445 1.13415 -1.26772 0
M  V30 544 O 54.8295 1.16262 -1.55553 0
M  V30 545 C 51.9595 1.73122 -3.01075 0
M  V30 546 C 50.9135 1.2887 -4.08138 0
M  V30 547 C 50.2395 2.54396 -4.70305 0
M  V30 548 C 51.5395 0.416578 -5.20636 0
M  V30 549 H 53.2335 -0.0393902 -2.99374 0
M  V30 550 H 50.7795 -0.020385 -1.43986 0
M  V30 551 H 52.7325 2.34396 -3.50195 0
M  V30 552 H 51.4565 2.3584 -2.25936 0
M  V30 553 H 50.1155 0.698991 -3.59875 0
M  V30 554 H 49.7635 3.15439 -3.918 0
M  V30 555 H 49.4635 2.25486 -5.42614 0
M  V30 556 H 50.9875 3.16464 -5.2219 0
M  V30 557 H 52.4015 0.935116 -5.65622 0
M  V30 558 H 50.7985 0.221046 -5.99693 0
M  V30 559 H 51.8685 -0.557162 -4.81688 0
M  V30 560 N 53.2116 1.57565 -0.0334293 0
M  V30 561 C 54.1596 2.1164 0.96496 0
M  V30 562 C 55.1536 1.04398 1.33407 0
M  V30 563 O 56.3596 1.22828 1.3158 0
M  V30 564 H 52.7346 0.676222 0.32898 0
M  V30 565 H 54.7056 2.94455 0.483614 0
M  V30 566 C 53.4546 2.66207 2.23672 0
M  V30 567 H 52.7776 3.48378 1.96145 0
M  V30 568 H 54.2176 3.07685 2.9173 0
M  V30 569 C 52.6766 1.59151 2.96939 0
M  V30 570 O 53.2066 0.993858 3.89211 0
M  V30 571 N 51.4126 1.31093 2.59351 0
M  V30 572 H 50.9596 1.7988 1.84393 0
M  V30 573 H 50.9176 0.596889 3.08682 0
M  V30 574 N 54.6897 -0.239769 1.55765 0
M  V30 575 C 55.9177 -0.98417 1.81994 0
M  V30 576 C 56.3327 -1.7867 0.610124 0
M  V30 577 O 55.6897 -1.77571 -0.421271 0
M  V30 578 C 55.7407 -1.91635 3.06526 0
M  V30 579 O 55.4617 -1.14629 4.22838 0
M  V30 580 C 56.9627 -2.77616 3.45607 0
M  V30 581 H 54.1827 -0.28928 0.605441 0
M  V30 582 H 56.7267 -0.260499 2.02834 0
M  V30 583 H 54.8817 -2.5942 2.87715 0
M  V30 584 H 55.2957 -1.77745 4.93464 0
M  V30 585 H 56.7697 -3.38759 4.35828 0
M  V30 586 H 57.2467 -3.4909 2.6652 0
M  V30 587 H 57.8527 -2.15271 3.66795 0
M  V30 588 N 56.1678 -1.49265 -0.50573 0
M  V30 589 C 57.4138 -1.58748 -1.26202 0
M  V30 590 C 57.7468 -0.271227 -1.92297 0
M  V30 591 O 57.0218 0.724831 -1.80489 0
M  V30 592 C 57.3048 -2.74332 -2.33268 0
M  V30 593 C 57.1578 -4.15737 -1.71705 0
M  V30 594 C 58.4768 -2.85576 -3.34865 0
M  V30 595 H 55.5958 -0.577826 -0.457478 0
M  V30 596 H 58.2378 -1.81532 -0.560897 0
M  V30 597 H 56.3878 -2.55036 -2.93068 0
M  V30 598 H 58.0598 -4.46537 -1.15769 0
M  V30 599 H 56.3028 -4.21605 -1.02135 0
M  V30 600 H 56.9738 -4.92477 -2.49341 0
M  V30 601 H 59.4498 -3.03127 -2.8505 0
M  V30 602 H 58.3258 -3.68135 -4.07146 0
M  V30 603 H 58.5868 -1.94732 -3.96903 0
M  V30 604 N 57.6459 0.756429 -1.3826 0
M  V30 605 C 58.5779 1.87971 -1.31147 0
M  V30 606 C 59.5909 1.61248 -0.224239 0
M  V30 607 O 60.7799 1.71881 -0.481581 0
M  V30 608 C 57.8799 3.23545 -1.00857 0
M  V30 609 C 57.0529 3.77794 -2.20432 0
M  V30 610 C 56.1119 4.91877 -1.86931 0
M  V30 611 O 55.1379 5.06659 -2.59395 0
M  V30 612 N 56.3399 5.74643 -0.822568 0
M  V30 613 H 59.1049 1.94585 -2.2794 0
M  V30 614 H 56.6659 0.936234 -1.32084 0
M  V30 615 H 58.6579 3.97403 -0.765021 0
M  V30 616 H 57.2279 3.12335 -0.128687 0
M  V30 617 H 56.4479 2.95534 -2.6087 0
M  V30 618 H 57.7359 4.10771 -3.00241 0
M  V30 619 H 57.1339 5.65266 -0.221575 0
M  V30 620 H 55.6909 6.48661 -0.638899 0
M  V30 621 N 59.124 1.23083 0.984299 0
M  V30 622 C 60.371 1.06057 1.72505 0
M  V30 623 C 60.699 -0.403105 1.90277 0
M  V30 624 O 59.954 -1.3149 1.44944 0
M  V30 625 C 60.253 1.72673 3.1292 0
M  V30 626 C 59.919 3.22586 3.15038 0
M  V30 627 C 58.581 3.63489 3.15324 0
M  V30 628 C 60.933 4.185 3.10657 0
M  V30 629 C 58.261 4.98772 3.08939 0
M  V30 630 C 60.613 5.53769 3.05814 0
M  V30 631 C 59.277 5.94041 3.04419 0
M  V30 632 H 58.547 0.388091 0.631242 0
M  V30 633 H 61.194 1.52963 1.15215 0
M  V30 634 H 59.499 1.18116 3.73572 0
M  V30 635 H 61.196 1.56982 3.68996 0
M  V30 636 H 57.786 2.90022 3.15571 0
M  V30 637 H 61.97 3.87911 3.09579 0
M  V30 638 H 57.226 5.29193 3.0621 0
M  V30 639 H 61.4 6.27808 3.0138 0
M  V30 640 H 59.027 6.98833 2.99227 0
M  V30 641 N 60.6021 -1.18246 1.0419 0
M  V30 642 C 61.8271 -1.92736 0.765996 0
M  V30 643 C 62.2521 -1.75728 -0.67091 0
M  V30 644 O 61.6101 -1.06825 -1.46486 0
M  V30 645 C 61.6581 -3.42148 1.13875 0
M  V30 646 O 60.7621 -4.11548 0.264954 0
M  V30 647 H 60.1031 -0.601238 0.281797 0
M  V30 648 H 62.6331 -1.49942 1.39207 0
M  V30 649 H 62.6431 -3.92858 1.1012 0
M  V30 650 H 61.3181 -3.53848 2.18551 0
M  V30 651 H 59.8951 -3.71137 0.362226 0
M  V30 652 N 62.0802 -0.821533 -1.34494 0
M  V30 653 C 63.0282 -0.230702 -2.31453 0
M  V30 654 C 64.0222 0.627793 -1.57338 0
M  V30 655 O 65.2282 0.519288 -1.72347 0
M  V30 656 H 61.6032 -0.0558577 -0.749923 0
M  V30 657 H 63.5742 -1.06332 -2.78812 0
M  V30 658 C 62.3232 0.59391 -3.4259 0
M  V30 659 H 61.6462 -0.0573588 -3.99759 0
M  V30 660 H 63.0862 0.973446 -4.12674 0
M  V30 661 C 61.5452 1.76568 -2.86924 0
M  V30 662 O 62.0752 2.8638 -2.81691 0
M  V30 663 N 60.2812 1.58198 -2.43766 0
M  V30 664 H 59.8282 0.68872 -2.48222 0
M  V30 665 H 59.7862 2.36752 -2.06871 0
M  V30 666 N 63.5583 1.46682 -0.576371 0
M  V30 667 C 64.5083 2.27278 0.181288 0
M  V30 668 C 65.4923 1.35497 0.867721 0
M  V30 669 O 66.6843 1.59717 0.762863 0
M  V30 670 C 63.8133 3.21703 1.19841 0
M  V30 671 C 62.8993 4.20969 0.51442 0
M  V30 672 N 63.2903 5.03999 -0.426407 0
M  V30 673 C 61.5883 4.39373 0.765963 0
M  V30 674 C 62.2893 5.75812 -0.825565 0
M  V30 675 N 61.2653 5.43315 -0.176116 0
M  V30 676 H 65.0673 2.88863 -0.541785 0
M  V30 677 H 62.5813 1.57455 -0.397697 0
M  V30 678 H 64.5783 3.78145 1.75533 0
M  V30 679 H 63.2383 2.61677 1.92238 0
M  V30 680 H 64.2493 5.11659 -0.8016 0
M  V30 681 H 60.9263 3.90502 1.47698 0
M  V30 682 H 62.3163 6.52577 -1.59976 0
M  V30 683 N 65.0364 0.313813 1.54444 0
M  V30 684 C 66.2644 -0.293918 2.04802 0
M  V30 685 C 66.6794 -1.46537 1.19047 0
M  V30 686 O 66.0364 -1.81182 0.218939 0
M  V30 687 C 66.0874 -0.737806 3.53891 0
M  V30 688 O 65.8084 0.387038 4.36387 0
M  V30 689 C 67.3094 -1.40936 4.203 0
M  V30 690 H 64.5294 -0.0620057 0.668129 0
M  V30 691 H 67.0734 0.457169 1.99324 0
M  V30 692 H 65.2284 -1.43889 3.59687 0
M  V30 693 H 65.6424 0.0391274 5.24485 0
M  V30 694 H 67.1164 -1.67099 5.26101 0
M  V30 695 H 67.5934 -2.35355 3.70816 0
M  V30 696 H 68.1994 -0.751117 4.18615 0
M  V30 697 N 66.5145 -1.57545 0.0417849 0
M  V30 698 C 67.4465 -2.07904 -0.964799 0
M  V30 699 C 68.4595 -1.00497 -1.28079 0
M  V30 700 O 69.6485 -1.28087 -1.24322 0
M  V30 701 C 66.7485 -2.49928 -2.28887 0
M  V30 702 C 65.9215 -3.80562 -2.15619 0
M  V30 703 C 64.9805 -4.08999 -3.31069 0
M  V30 704 O 64.0065 -4.79061 -3.0739 0
M  V30 705 N 65.2085 -3.6017 -4.55256 0
M  V30 706 H 67.9735 -2.94886 -0.535029 0
M  V30 707 H 65.5345 -1.61252 -0.144681 0
M  V30 708 H 67.5265 -2.66034 -3.04972 0
M  V30 709 H 66.0965 -1.68245 -2.63463 0
M  V30 710 H 65.3165 -3.74129 -1.24183 0
M  V30 711 H 66.6045 -4.66126 -2.03971 0
M  V30 712 H 66.0025 -3.03512 -4.77386 0
M  V30 713 H 64.5595 -3.81532 -5.28466 0
M  V30 714 N 67.9926 0.231505 -1.5589 0
M  V30 715 C 69.2226 0.973092 -1.82248 0
M  V30 716 C 69.6306 1.78845 -0.617328 0
M  V30 717 O 68.9736 1.78752 0.423499 0
M  V30 718 C 69.0356 1.94732 -3.02192 0
M  V30 719 C 68.6996 1.31743 -4.37599 0
M  V30 720 C 69.6966 0.712238 -5.14998 0
M  V30 721 C 67.3816 1.33218 -4.84312 0
M  V30 722 C 69.3756 0.130195 -6.37267 0
M  V30 723 C 67.0626 0.746286 -6.06526 0
M  V30 724 C 68.0606 0.146337 -6.82843 0
M  V30 725 O 67.7486 -0.430465 -8.02747 0
M  V30 726 H 67.4806 0.29125 -0.61004 0
M  V30 727 H 70.0346 0.254915 -2.03812 0
M  V30 728 H 68.2646 2.70422 -2.76422 0
M  V30 729 H 69.9536 2.55362 -3.15508 0
M  V30 730 H 70.7196 0.69324 -4.8002 0
M  V30 731 H 66.5986 1.78854 -4.24891 0
M  V30 732 H 70.1426 -0.33871 -6.96777 0
M  V30 733 H 66.0396 0.762663 -6.40979 0
M  V30 734 H 66.8076 -0.323818 -8.17859 0
M  V30 735 N 69.4707 1.49531 0.497807 0
M  V30 736 C 70.7187 1.58865 1.24926 0
M  V30 737 C 71.0397 0.278721 1.92998 0
M  V30 738 O 70.3097 -0.702144 1.82885 0
M  V30 739 H 68.8897 0.585343 0.464094 0
M  V30 740 H 71.5517 1.86174 0.57666 0
M  V30 741 H 70.6477 2.38633 2.01149 0
M  V30 742 N 70.9488 -0.749086 1.3866 0
M  V30 743 C 71.8958 -1.86291 1.36251 0
M  V30 744 C 72.8658 -1.64578 0.224347 0
M  V30 745 O 74.0508 -1.86181 0.417279 0
M  V30 746 C 71.1908 -3.23644 1.19786 0
M  V30 747 C 70.3038 -3.57158 2.43027 0
M  V30 748 C 69.4388 -4.83838 2.19258 0
M  V30 749 C 68.4778 -5.10152 3.38247 0
M  V30 750 N 67.6148 -6.28029 3.13884 0
M  V30 751 H 72.4548 -1.87685 2.3147 0
M  V30 752 H 69.9918 -0.917287 1.14997 0
M  V30 753 H 71.9498 -4.0291 1.08254 0
M  V30 754 H 70.5798 -3.21566 0.282031 0
M  V30 755 H 69.6318 -2.72701 2.65214 0
M  V30 756 H 70.9438 -3.7253 3.31697 0
M  V30 757 H 70.0978 -5.71057 2.04888 0
M  V30 758 H 68.8368 -4.70614 1.2796 0
M  V30 759 H 67.8418 -4.21401 3.53131 0
M  V30 760 H 69.0668 -5.25271 4.30427 0
M  V30 761 H 67.0128 -6.1612 2.25238 0
M  V30 762 H 66.9298 -6.43922 3.96106 0
M  V30 763 H 68.1978 -7.18124 3.03179 0
M  V30 764 N 72.4269 -1.23603 -0.977757 0
M  V30 765 C 73.6729 -1.08136 -1.72274 0
M  V30 766 C 74.0279 0.377453 -1.88661 0
M  V30 767 O 73.3209 1.27552 -1.42972 0
M  V30 768 C 73.5149 -1.7433 -3.11999 0
M  V30 769 C 73.3439 -3.26498 -3.0924 0
M  V30 770 C 72.1139 -3.9567 -3.14282 0
M  V30 771 C 74.3119 -4.2323 -2.92201 0
M  V30 772 N 72.2939 -5.34799 -3.01436 0
M  V30 773 C 73.6649 -5.49289 -2.87544 0
M  V30 774 C 75.7199 -4.13931 -2.76705 0
M  V30 775 C 74.4229 -6.67116 -2.68978 0
M  V30 776 C 76.4489 -5.31424 -2.59504 0
M  V30 777 C 75.8109 -6.5641 -2.55548 0
M  V30 778 H 71.9099 -0.450247 -0.639376 0
M  V30 779 H 74.4939 -1.5637 -1.16002 0
M  V30 780 H 72.6649 -1.28624 -3.66484 0
M  V30 781 H 74.3969 -1.51815 -3.75146 0
M  V30 782 H 71.1519 -3.46767 -3.22567 0
M  V30 783 H 71.5759 -6.07748 -2.98281 0
M  V30 784 H 76.2179 -3.1807 -2.78552 0
M  V30 785 H 73.9359 -7.63109 -2.65876 0
M  V30 786 H 77.5219 -5.26072 -2.48474 0
M  V30 787 H 76.4019 -7.45795 -2.42405 0
M  V30 788 N 73.905 1.17692 -1.04816 0
M  V30 789 C 75.133 1.91786 -0.776254 0
M  V30 790 C 75.548 1.76604 0.667577 0
M  V30 791 O 74.905 1.10067 1.45573 0
M  V30 792 C 74.956 3.42967 -1.14263 0
M  V30 793 O 74.677 3.57678 -2.52978 0
M  V30 794 C 76.178 4.34144 -0.896311 0
M  V30 795 H 73.398 0.608624 -0.282519 0
M  V30 796 H 75.942 1.49268 -1.39783 0
M  V30 797 H 74.097 3.83245 -0.565874 0
M  V30 798 H 74.511 4.51319 -2.67229 0
M  V30 799 H 75.985 5.38744 -1.20244 0
M  V30 800 H 76.462 4.38876 0.168636 0
M  V30 801 H 77.068 3.99574 -1.45672 0
M  V30 802 N 75.3831 0.828654 1.34056 0
M  V30 803 C 76.6311 0.41863 1.97717 0
M  V30 804 C 76.9521 -1.02314 1.66002 0
M  V30 805 O 76.2221 -1.71119 0.953683 0
M  V30 806 H 74.8021 0.151809 0.731412 0
M  V30 807 H 77.4641 1.05936 1.63596 0
M  V30 808 H 76.5601 0.542318 3.07352 0
M  V30 809 N 76.8612 -1.46375 0.584142 0
M  V30 810 C 78.1012 -2.0427 0.0729695 0
M  V30 811 C 78.4652 -1.44563 -1.26355 0
M  V30 812 O 79.6662 -1.93667 -1.86405 0
M  V30 813 C 77.9372 -3.57399 0.00967464 0
M  V30 814 S 79.4962 -4.36551 -0.443714 0
M  V30 815 H 76.3142 -0.709975 0.0381673 0
M  V30 816 H 78.9162 -1.79398 0.776962 0
M  V30 817 H 77.6202 -3.98372 0.986319 0
M  V30 818 H 77.1512 -3.8681 -0.717044 0
M  V30 819 H 79.1662 -4.66237 -1.69816 0
M  V30 820 N 78.3393 -0.321999 -1.54275 0
M  V30 821 C 79.5853 0.281461 -2.00837 0
M  V30 822 C 79.9183 1.51909 -1.20985 0
M  V30 823 O 79.1933 1.923 -0.291733 0
M  V30 824 C 79.4763 0.617162 -3.54772 0
M  V30 825 C 79.3293 -0.631064 -4.45351 0
M  V30 826 C 80.6483 1.43542 -4.16033 0
M  V30 827 H 77.7673 0.100826 -0.730071 0
M  V30 828 H 80.4093 -0.438268 -1.84876 0
M  V30 829 H 78.5593 1.23034 -3.68504 0
M  V30 830 H 80.2313 -1.26934 -4.43492 0
M  V30 831 H 78.4743 -1.26025 -4.15091 0
M  V30 832 H 79.1453 -0.351735 -5.50878 0
M  V30 833 H 81.6213 0.917134 -4.05867 0
M  V30 834 H 80.4973 1.63907 -5.23856 0
M  V30 835 H 80.7583 2.43108 -3.69257 0
M  V30 836 N 79.8174 1.5752 -0.0501392 0
M  V30 837 C 80.7504 2.07026 0.959962 0
M  V30 838 C 81.7284 0.970539 1.30458 0
M  V30 839 O 82.9124 1.2424 1.41763 0
M  V30 840 C 80.0394 2.5099 2.27424 0
M  V30 841 C 79.0854 3.72188 2.08275 0
M  V30 842 S 79.9184 5.17888 1.36207 0
M  V30 843 C 81.0744 5.65165 2.6896 0
M  V30 844 H 81.3074 2.9238 0.538631 0
M  V30 845 H 78.8404 1.53547 0.162099 0
M  V30 846 H 80.7984 2.76982 3.02971 0
M  V30 847 H 79.4594 1.65944 2.66686 0
M  V30 848 H 78.6524 4.00866 3.05487 0
M  V30 849 H 78.2544 3.46457 1.40868 0
M  V30 850 H 80.5464 5.70687 3.65133 0
M  V30 851 H 81.4894 6.64394 2.4492 0
M  V30 852 H 81.8974 4.9289 2.75172 0
M  V30 853 N 81.2955 -0.223234 1.56011 0
M  V30 854 C 82.7065 -0.790368 1.69145 0
M  V30 855 C 83.0575 -1.85055 0.651845 0
M  V30 856 O 82.1825 -2.15498 -0.197359 0
M  V30 857 C 82.7775 -1.4404 3.06656 0
M  V30 858 C 81.3365 -1.95494 3.2165 0
M  V30 859 C 80.4835 -0.814506 2.65068 0
M  V30 860 H 83.4345 0.00139011 1.587 0
M  V30 861 H 83.4555 -2.30916 3.0242 0
M  V30 862 H 82.9675 -0.668543 3.82298 0
M  V30 863 H 81.0685 -2.75487 2.50874 0
M  V30 864 H 81.1815 -2.13607 4.28846 0
M  V30 865 H 79.5455 -1.22137 2.23505 0
M  V30 866 H 80.3285 -0.0553515 3.43255 0
M  V30 867 N 82.7736 -1.49793 -0.48987 0
M  V30 868 C 84.1846 -1.52914 -1.07118 0
M  V30 869 C 84.5356 -0.321738 -1.93544 0
M  V30 870 O 83.6606 0.567338 -2.08831 0
M  V30 871 C 84.2556 -2.771 -1.94938 0
M  V30 872 C 82.8146 -2.82963 -2.48212 0
M  V30 873 C 81.9616 -2.46972 -1.26096 0
M  V30 874 H 84.9126 -1.56329 -0.273289 0
M  V30 875 H 84.9336 -2.57892 -2.79771 0
M  V30 876 H 84.4456 -3.64959 -1.32009 0
M  V30 877 H 82.5466 -1.99411 -3.14748 0
M  V30 878 H 82.6596 -3.85406 -2.84603 0
M  V30 879 H 81.0236 -1.98994 -1.58976 0
M  V30 880 H 81.8066 -3.37118 -0.648581 0
M  V30 881 N 84.2517 0.741722 -1.39055 0
M  V30 882 C 85.4767 1.53607 -1.39354 0
M  V30 883 C 85.9017 1.88096 0.0116905 0
M  V30 884 O 85.2597 1.5143 0.996924 0
M  V30 885 C 85.3077 2.80441 -2.26682 0
M  V30 886 O 84.4117 3.76088 -1.69208 0
M  V30 887 H 83.7527 0.464142 -0.474835 0
M  V30 888 H 86.2827 0.915665 -1.82967 0
M  V30 889 H 86.2927 3.29246 -2.40959 0
M  V30 890 H 84.9677 2.5467 -3.2881 0
M  V30 891 H 83.5447 3.34833 -1.64138 0
M  V30 892 N 85.7298 1.2412 0.971189 0
M  V30 893 C 86.6798 0.997551 2.05019 0
M  V30 894 C 87.6638 -0.0597747 1.60789 0
M  V30 895 O 88.8558 0.153516 1.76333 0
M  V30 896 C 85.9848 0.600557 3.38006 0
M  V30 897 C 85.0708 1.69377 3.88809 0
M  V30 898 N 85.4618 2.92586 4.12586 0
M  V30 899 C 83.7598 1.57048 4.17435 0
M  V30 900 C 84.4608 3.63431 4.54195 0
M  V30 901 N 83.4368 2.90979 4.59165 0
M  V30 902 H 87.2388 1.93316 2.21374 0
M  V30 903 H 84.7528 1.14194 1.1547 0
M  V30 904 H 86.7498 0.40725 4.14906 0
M  V30 905 H 85.4098 -0.327903 3.2304 0
M  V30 906 H 86.4208 3.288 4.00139 0
M  V30 907 H 83.0978 0.709798 4.11422 0
M  V30 908 H 84.4878 4.69102 4.81033 0
M  V30 909 N 87.2079 -1.17134 1.05439 0
M  V30 910 C 88.1379 -2.2342 0.678649 0
M  V30 911 C 89.1189 -1.66971 -0.32476 0
M  V30 912 O 90.3039 -1.93149 -0.201802 0
M  V30 913 C 87.4339 -3.47256 0.0552099 0
M  V30 914 C 86.3879 -4.16543 0.98365 0
M  V30 915 C 85.7139 -5.34231 0.223961 0
M  V30 916 C 87.0139 -4.68495 2.3089 0
M  V30 917 H 88.7079 -2.55105 1.56722 0
M  V30 918 H 86.2539 -1.2262 0.754998 0
M  V30 919 H 88.2069 -4.20828 -0.21946 0
M  V30 920 H 86.9309 -3.14846 -0.868319 0
M  V30 921 H 85.5899 -3.44887 1.24293 0
M  V30 922 H 85.2379 -4.98071 -0.702412 0
M  V30 923 H 84.9379 -5.81527 0.842627 0
M  V30 924 H 86.4619 -6.10585 -0.0433671 0
M  V30 925 H 87.8759 -5.33691 2.09396 0
M  V30 926 H 86.2729 -5.26379 2.88176 0
M  V30 927 H 87.3429 -3.85169 2.94572 0
M  V30 928 N 88.686 -0.835752 -1.33615 0
M  V30 929 C 89.914 -0.443344 -2.02094 0
M  V30 930 C 90.329 0.954522 -1.62894 0
M  V30 931 O 89.686 1.61982 -0.840723 0
M  V30 932 C 89.737 -0.550775 -3.5728 0
M  V30 933 O 89.458 -1.89356 -3.95065 0
M  V30 934 C 90.959 -0.154919 -4.43029 0
M  V30 935 H 88.179 -0.176359 -0.647409 0
M  V30 936 H 90.723 -1.12746 -1.70612 0
M  V30 937 H 88.878 0.0853997 -3.87306 0
M  V30 938 H 89.292 -1.87687 -4.89769 0
M  V30 939 H 90.766 -0.281144 -5.51284 0
M  V30 940 H 91.243 0.902863 -4.2982 0
M  V30 941 H 91.849 -0.765404 -4.18356 0
M  V30 942 N 90.1641 1.46063 -0.591896 0
M  V30 943 C 91.0741 2.34192 0.13831 0
M  V30 944 C 92.0901 1.50305 0.876608 0
M  V30 945 O 93.2661 1.8315 0.837728 0
M  V30 946 C 90.3311 3.27656 1.13326 0
M  V30 947 C 89.3921 4.27445 0.39863 0
M  V30 948 C 88.6251 5.16443 1.34618 0
M  V30 949 O 88.8481 5.08553 2.58321 0
M  V30 950 O 87.7821 5.95843 0.851768 0
M  V30 951 H 91.6081 2.98002 -0.58552 0
M  V30 952 H 89.1931 1.45188 -0.352239 0
M  V30 953 H 91.0751 3.85291 1.70671 0
M  V30 954 H 89.7501 2.6643 1.83839 0
M  V30 955 H 88.6571 3.73471 -0.216895 0
M  V30 956 H 89.9901 4.91482 -0.265709 0
M  V30 957 N 91.6422 0.330177 1.54103 0
M  V30 958 C 92.8912 -0.271336 1.99867 0
M  V30 959 C 93.2042 -1.52723 1.22209 0
M  V30 960 O 94.4102 -2.20515 1.58383 0
M  V30 961 C 92.8662 -0.534032 3.55916 0
M  V30 962 C 92.4742 0.705193 4.42415 0
M  V30 963 C 94.2182 -1.09514 4.1013 0
M  V30 964 C 92.1252 0.414035 5.89949 0
M  V30 965 H 91.0552 -0.105166 0.74663 0
M  V30 966 H 93.7062 0.443429 1.78062 0
M  V30 967 H 92.0882 -1.30915 3.73734 0
M  V30 968 H 93.2622 1.4804 4.36372 0
M  V30 969 H 91.5772 1.18698 3.99124 0
M  V30 970 H 94.1742 -1.3277 5.17954 0
M  V30 971 H 94.5172 -2.04656 3.62521 0
M  V30 972 H 95.0502 -0.381038 3.95971 0
M  V30 973 H 91.7892 1.33481 6.41766 0
M  V30 974 H 91.3092 -0.323336 5.98928 0
M  V30 975 H 92.9882 0.0263105 6.46995 0
M  V30 976 N 93.1203 -1.57491 0.0584922 0
M  V30 977 C 94.3663 -1.93264 -0.614558 0
M  V30 978 C 94.6993 -0.937717 -1.7006 0
M  V30 979 O 93.9743 0.0351652 -1.94468 0
M  V30 980 C 94.2573 -3.3938 -1.20386 0
M  V30 981 C 94.1103 -4.49625 -0.125375 0
M  V30 982 C 95.4293 -3.86039 -2.11334 0
M  V30 983 H 92.5483 -0.702791 -0.221933 0
M  V30 984 H 95.1903 -1.8961 0.12175 0
M  V30 985 H 93.3403 -3.42626 -1.83139 0
M  V30 986 H 95.0123 -4.58506 0.506971 0
M  V30 987 H 93.2553 -4.30354 0.545672 0
M  V30 988 H 93.9263 -5.48967 -0.577861 0
M  V30 989 H 96.4023 -3.84716 -1.58534 0
M  V30 990 H 95.2783 -4.88914 -2.49507 0
M  V30 991 H 95.5393 -3.23215 -3.01636 0
M  V30 992 N 94.5984 0.214957 -1.56127 0
M  V30 993 C 95.5304 1.29004 -1.89448 0
M  V30 994 C 96.5434 1.42716 -0.783326 0
M  V30 995 O 97.7324 1.43496 -1.06166 0
M  V30 996 C 94.8324 2.66482 -2.09381 0
M  V30 997 C 94.0054 2.74633 -3.40434 0
M  V30 998 C 93.0644 3.9317 -3.49719 0
M  V30 999 O 92.0904 3.812 -4.227 0
M  V30 1000 N 93.2924 5.07765 -2.81346 0
M  V30 1001 H 96.0574 1.00743 -2.82261 0
M  V30 1002 H 93.6184 0.40497 -1.56753 0
M  V30 1003 H 95.6104 3.44173 -2.12901 0
M  V30 1004 H 94.1804 2.87314 -1.23163 0
M  V30 1005 H 93.4004 1.83368 -3.48955 0
M  V30 1006 H 94.6884 2.77054 -4.26754 0
M  V30 1007 H 94.0864 5.20386 -2.21843 0
M  V30 1008 H 92.6434 5.83474 -2.90519 0
M  V30 1009 N 96.0765 1.50051 0.48192 0
M  V30 1010 C 97.3245 1.60181 1.23234 0
M  V30 1011 C 97.6455 0.299176 1.92691 0
M  V30 1012 O 96.9155 -0.682708 1.83619 0
M  V30 1013 H 95.4955 0.590232 0.457859 0
M  V30 1014 H 98.1575 1.86775 0.556881 0
M  V30 1015 H 97.2535 2.40753 1.98607 0
M  V30 1016 N 97.5546 -0.734337 1.39446 0
M  V30 1017 C 98.8036 -1.48937 1.36017 0
M  V30 1018 C 99.1166 -1.95557 -0.0409005 0
M  V30 1019 O 100.323 -2.70779 -0.19778 0
M  V30 1020 C 98.7786 -2.69125 2.38955 0
M  V30 1021 C 98.3866 -2.29452 3.8478 0
M  V30 1022 C 100.131 -3.46944 2.44603 0
M  V30 1023 C 98.0376 -3.46366 4.79358 0
M  V30 1024 H 96.9676 -0.559296 0.505672 0
M  V30 1025 H 99.6186 -0.800983 1.65095 0
M  V30 1026 H 98.0006 -3.40041 2.02948 0
M  V30 1027 H 99.1746 -1.66077 4.29831 0
M  V30 1028 H 97.4896 -1.64723 3.82433 0
M  V30 1029 H 100.087 -4.33907 3.12456 0
M  V30 1030 H 100.43 -3.89454 1.47076 0
M  V30 1031 H 100.963 -2.83056 2.79507 0
M  V30 1032 H 97.7016 -3.08905 5.78151 0
M  V30 1033 H 97.2216 -4.08719 4.38986 0
M  V30 1034 H 98.9006 -4.12691 4.98292 0
M  V30 1035 N 99.0327 -1.24633 -0.964593 0
M  V30 1036 C 99.9957 -1.0424 -2.04124 0
M  V30 1037 C 100.996 0.00137563 -1.608 0
M  V30 1038 O 102.186 -0.239883 -1.7254 0
M  V30 1039 C 99.3177 -0.580588 -3.3592 0
M  V30 1040 H 100.511 -1.99803 -2.23649 0
M  V30 1041 H 98.0637 -1.06899 -1.14027 0
M  V30 1042 H 98.7987 0.3781 -3.22088 0
M  V30 1043 H 98.5837 -1.33398 -3.6871 0
M  V30 1044 H 100.074 -0.459034 -4.15069 0
M  V30 1045 N 100.511 1.16574 -1.06058 0
M  V30 1046 C 101.474 2.19085 -0.673392 0
M  V30 1047 C 102.474 1.5835 0.279648 0
M  V30 1048 O 103.664 1.74088 0.0623488 0
M  V30 1049 C 100.796 3.40899 0.00954234 0
M  V30 1050 H 101.989 2.54853 -1.58081 0
M  V30 1051 H 99.5418 1.30808 -0.855516 0
M  V30 1052 H 100.277 3.10684 0.929826 0
M  V30 1053 H 100.062 3.86233 -0.67573 0
M  V30 1054 H 101.552 4.1675 0.266245 0
M  V30 1055 N 101.989 0.842826 1.3317 0
M  V30 1056 C 103.238 0.436738 1.96915 0
M  V30 1057 C 103.551 -1.01025 1.67491 0
M  V30 1058 O 104.757 -1.5212 2.24881 0
M  V30 1059 C 103.213 0.730021 3.52418 0
M  V30 1060 C 102.821 2.19195 3.90714 0
M  V30 1061 C 104.565 0.391076 4.22695 0
M  V30 1062 C 102.472 2.42907 5.39212 0
M  V30 1063 H 101.402 0.15958 0.736919 0
M  V30 1064 H 104.053 1.03196 1.51733 0
M  V30 1065 H 102.435 0.0643755 3.95948 0
M  V30 1066 H 103.609 2.8984 3.58231 0
M  V30 1067 H 101.924 2.49425 3.33431 0
M  V30 1068 H 104.521 0.545817 5.31907 0
M  V30 1069 H 104.864 -0.666294 4.10933 0
M  V30 1070 H 105.397 1.01212 3.84709 0
M  V30 1071 H 102.136 3.47224 5.55982 0
M  V30 1072 H 101.656 1.76827 5.73142 0
M  V30 1073 H 103.335 2.2626 6.06148 0
M  V30 1074 N 103.467 -1.45747 0.599634 0
M  V30 1075 C 104.744 -1.95585 0.0240846 0
M  V30 1076 C 105.124 -1.54217 -1.44154 0
M  V30 1077 O 104.472 -0.800903 -2.14004 0
M  V30 1078 C 104.682 -3.48344 0.21385 0
M  V30 1079 C 106.03 -4.24504 0.0904902 0
M  V30 1080 O 107.054 -3.55911 0.143558 0
M  V30 1081 O 105.913 -5.46491 -0.0310766 0
M  V30 1082 H 103.007 -0.82602 -0.0402478 0
M  V30 1083 H 105.553 -1.55951 0.669139 0
M  V30 1084 H 104.325 -3.71397 1.23206 0
M  V30 1085 H 103.948 -3.9485 -0.466842 0
M  V30 1086 N 104.945 -0.338344 -1.53925 0
M  V30 1087 C 105.892 0.520845 -2.24846 0
M  V30 1088 C 106.862 1.09976 -1.24477 0
M  V30 1089 O 108.047 1.13735 -1.53196 0
M  V30 1090 C 105.187 1.6685 -3.02084 0
M  V30 1091 C 104.3 1.11739 -4.17299 0
M  V30 1092 C 103.435 2.23193 -4.82036 0
M  V30 1093 C 102.474 1.65407 -5.89328 0
M  V30 1094 N 101.611 2.70582 -6.47866 0
M  V30 1095 H 106.451 -0.0904881 -2.97863 0
M  V30 1096 H 103.988 -0.0564282 -1.46992 0
M  V30 1097 H 105.946 2.34407 -3.45122 0
M  V30 1098 H 104.576 2.2509 -2.31375 0
M  V30 1099 H 103.628 0.332919 -3.7894 0
M  V30 1100 H 104.94 0.654677 -4.94485 0
M  V30 1101 H 104.094 2.98626 -5.28117 0
M  V30 1102 H 102.833 2.72807 -4.04262 0
M  V30 1103 H 101.838 0.884779 -5.42634 0
M  V30 1104 H 103.063 1.16652 -6.69006 0
M  V30 1105 H 101.009 3.1946 -5.72959 0
M  V30 1106 H 100.926 2.28917 -7.20509 0
M  V30 1107 H 102.194 3.45799 -6.98601 0
M  V30 1108 N 106.423 1.57458 -0.0668435 0
M  V30 1109 C 107.353 2.15468 0.899764 0
M  V30 1110 C 108.334 1.08042 1.31381 0
M  V30 1111 O 109.519 1.36054 1.38574 0
M  V30 1112 C 106.649 2.71232 2.16911 0
M  V30 1113 C 105.603 3.83781 1.89463 0
M  V30 1114 C 104.929 4.26127 3.22986 0
M  V30 1115 C 106.229 5.08238 1.20381 0
M  V30 1116 H 107.923 2.96488 0.416529 0
M  V30 1117 H 105.469 1.4262 0.198908 0
M  V30 1118 H 107.422 3.10458 2.84945 0
M  V30 1119 H 106.146 1.87426 2.67468 0
M  V30 1120 H 104.805 3.45051 1.23836 0
M  V30 1121 H 104.453 3.39249 3.71374 0
M  V30 1122 H 104.153 5.01993 3.05413 0
M  V30 1123 H 105.677 4.67966 3.92225 0
M  V30 1124 H 107.091 5.44811 1.78475 0
M  V30 1125 H 105.488 5.89349 1.13083 0
M  V30 1126 H 106.558 4.84558 0.182153 0
M  V30 1127 N 107.901 -0.206675 1.56239 0
M  V30 1128 C 108.851 -1.26 1.90021 0
M  V30 1129 C 109.835 -1.41566 0.764721 0
M  V30 1130 O 111.027 -1.44131 1.02739 0
M  V30 1131 C 108.156 -2.6073 2.23326 0
M  V30 1132 C 107.242 -2.49005 3.43304 0
M  V30 1133 N 107.633 -2.06946 4.61527 0
M  V30 1134 C 105.931 -2.79927 3.47213 0
M  V30 1135 C 106.632 -2.06832 5.43687 0
M  V30 1136 N 105.608 -2.47892 4.83788 0
M  V30 1137 H 109.41 -0.925955 2.78932 0
M  V30 1138 H 106.924 -0.415172 1.57003 0
M  V30 1139 H 108.921 -3.36798 2.45708 0
M  V30 1140 H 107.581 -2.94968 1.35735 0
M  V30 1141 H 108.592 -1.77839 4.86409 0
M  V30 1142 H 105.269 -3.18438 2.70006 0
M  V30 1143 H 106.659 -1.76312 6.48354 0
M  V30 1144 N 109.379 -1.50304 -0.473955 0
M  V30 1145 C 110.607 -1.64902 -1.24959 0
M  V30 1146 C 111.022 -0.331198 -1.85872 0
M  V30 1147 O 110.379 0.68652 -1.69095 0
M  V30 1148 C 110.43 -2.73803 -2.36038 0
M  V30 1149 O 110.151 -4.00477 -1.77624 0
M  V30 1150 C 111.652 -2.99349 -3.26964 0
M  V30 1151 H 108.872 -0.554383 -0.378022 0
M  V30 1152 H 111.416 -1.9651 -0.566054 0
M  V30 1153 H 109.571 -2.44898 -3.00173 0
M  V30 1154 H 109.985 -4.60678 -2.5075 0
M  V30 1155 H 111.459 -3.79217 -4.01121 0
M  V30 1156 H 111.936 -2.10307 -3.85574 0
M  V30 1157 H 112.542 -3.29774 -2.68569 0
M  V30 1158 N 110.857 0.726932 -1.39834 0
M  V30 1159 C 112.097 1.4992 -1.38936 0
M  V30 1160 C 112.461 1.91996 0.0126883 0
M  V30 1161 O 113.662 2.68399 0.146715 0
M  V30 1162 C 111.933 2.70013 -2.34153 0
M  V30 1163 S 113.492 3.59563 -2.51515 0
M  V30 1164 H 110.31 0.51271 -0.492595 0
M  V30 1165 H 112.912 0.85107 -1.76003 0
M  V30 1166 H 111.616 2.37254 -3.34871 0
M  V30 1167 H 111.147 3.39748 -1.98331 0
M  V30 1168 H 113.162 4.63973 -1.75909 0
M  V30 1169 N 112.336 1.25143 0.95797 0
M  V30 1170 C 113.613 1.00472 1.67823 0
M  V30 1171 C 113.993 -0.470056 2.058 0
M  V30 1172 O 113.341 -1.44663 1.76875 0
M  V30 1173 C 113.551 1.9372 2.90299 0
M  V30 1174 C 114.899 2.21371 3.62326 0
M  V30 1175 O 115.923 1.91451 3.00375 0
M  V30 1176 O 114.782 2.72231 4.7387 0
M  V30 1177 H 111.876 0.380752 0.734137 0
M  V30 1178 H 114.422 1.36283 1.01119 0
M  V30 1179 H 113.194 2.93316 2.59001 0
M  V30 1180 H 112.817 1.58286 3.64735 0
M  V30 1181 N 113.814 -1.1601 1.06675 0
M  V30 1182 C 114.777 -2.18724 0.685001 0
M  V30 1183 C 115.777 -1.58496 -0.271246 0
M  V30 1184 O 116.967 -1.74119 -0.0531156 0
M  V30 1185 C 114.099 -3.40899 0.00853648 0
M  V30 1186 H 115.292 -2.54011 1.59431 0
M  V30 1187 H 112.845 -1.30352 0.862441 0
M  V30 1188 H 113.58 -3.11173 -0.913337 0
M  V30 1189 H 113.365 -3.8587 0.696204 0
M  V30 1190 H 114.855 -4.16886 -0.24414 0
M  V30 1191 N 115.292 -0.849877 -1.32721 0
M  V30 1192 C 116.538 -0.451591 -1.97708 0
M  V30 1193 C 116.871 0.989175 -1.6712 0
M  V30 1194 O 116.146 1.69334 -0.956891 0
M  V30 1195 C 116.429 -0.685598 -3.53513 0
M  V30 1196 C 116.282 -2.17444 -3.93749 0
M  V30 1197 C 117.601 -0.138874 -4.39881 0
M  V30 1198 H 114.72 -0.16555 -0.718166 0
M  V30 1199 H 117.362 -1.06742 -1.57182 0
M  V30 1200 H 115.512 -0.161416 -3.88165 0
M  V30 1201 H 117.184 -2.76433 -3.693 0
M  V30 1202 H 115.427 -2.65476 -3.43081 0
M  V30 1203 H 116.098 -2.28888 -5.02309 0
M  V30 1204 H 118.574 -0.587068 -4.11938 0
M  V30 1205 H 117.45 -0.332213 -5.47894 0
M  V30 1206 H 117.711 0.95806 -4.31594 0
M  V30 1207 N 116.77 1.45427 -0.607355 0
M  V30 1208 C 117.7 2.3329 0.0989352 0
M  V30 1209 C 118.681 1.46816 0.859007 0
M  V30 1210 O 119.866 1.75588 0.829604 0
M  V30 1211 C 116.996 3.29518 1.09705 0
M  V30 1212 C 115.95 4.25626 0.450206 0
M  V30 1213 C 115.276 5.11542 1.55655 0
M  V30 1214 C 116.576 5.18505 -0.628455 0
M  V30 1215 H 118.27 2.92595 -0.634716 0
M  V30 1216 H 115.816 1.40696 -0.306681 0
M  V30 1217 H 117.769 3.89855 1.59971 0
M  V30 1218 H 116.493 2.68372 1.86129 0
M  V30 1219 H 115.152 3.66586 -0.0315886 0
M  V30 1220 H 114.8 4.46765 2.31107 0
M  V30 1221 H 114.5 5.76647 1.12925 0
M  V30 1222 H 116.024 5.74748 2.06148 0
M  V30 1223 H 117.438 5.72916 -0.209877 0
M  V30 1224 H 115.835 5.92085 -0.977489 0
M  V30 1225 H 116.905 4.60948 -1.50514 0
M  V30 1226 N 118.248 0.346503 1.53744 0
M  V30 1227 C 119.473 -0.253074 2.0585 0
M  V30 1228 C 119.898 -1.43202 1.21962 0
M  V30 1229 O 119.256 -1.79783 0.234073 0
M  V30 1230 C 119.304 -0.643193 3.54817 0
M  V30 1231 O 118.408 -1.74286 3.73762 0
M  V30 1232 H 117.749 -0.0413583 0.662711 0
M  V30 1233 H 120.279 0.501574 1.98357 0
M  V30 1234 H 120.289 -0.919526 3.97503 0
M  V30 1235 H 118.964 0.218966 4.15323 0
M  V30 1236 H 117.541 -1.46356 3.42979 0
M  V30 1237 N 119.726 -1.57421 0.075193 0
M  V30 1238 C 120.974 -1.93236 -0.591974 0
M  V30 1239 C 121.295 -0.956241 -1.69944 0
M  V30 1240 O 120.565 -0.00494792 -1.95899 0
M  V30 1241 H 119.145 -0.713355 -0.22166 0
M  V30 1242 H 121.807 -1.9444 0.133848 0
M  V30 1243 H 120.903 -2.95131 -1.01509 0
M  V30 1244 N 121.204 0.198386 -1.56346 0
M  V30 1245 C 122.434 0.934215 -1.84271 0
M  V30 1246 C 122.842 1.77496 -0.655125 0
M  V30 1247 O 122.185 1.7961 0.385488 0
M  V30 1248 C 122.247 1.88278 -3.06254 0
M  V30 1249 C 121.911 1.22431 -4.40295 0
M  V30 1250 C 122.908 0.602839 -5.16393 0
M  V30 1251 C 120.593 1.22915 -4.87029 0
M  V30 1252 C 122.587 -0.0050083 -6.374 0
M  V30 1253 C 120.274 0.617465 -6.07973 0
M  V30 1254 C 121.272 0.00146341 -6.83 0
M  V30 1255 O 120.96 -0.600642 -8.01653 0
M  V30 1256 H 120.692 0.278245 -0.616081 0
M  V30 1257 H 123.246 0.211626 -2.04307 0
M  V30 1258 H 121.476 2.64498 -2.82095 0
M  V30 1259 H 123.165 2.48612 -3.20853 0
M  V30 1260 H 123.931 0.591265 -4.81382 0
M  V30 1261 H 119.81 1.69801 -4.28589 0
M  V30 1262 H 123.354 -0.48643 -6.95902 0
M  V30 1263 H 119.251 0.62653 -6.42452 0
M  V30 1264 H 120.019 -0.497225 -8.16988 0
M  V30 1265 N 122.682 1.50554 0.465978 0
M  V30 1266 C 123.612 1.72722 1.57128 0
M  V30 1267 C 124.593 0.576294 1.6004 0
M  V30 1268 O 125.778 0.81598 1.76225 0
M  V30 1269 C 122.908 1.82605 2.95419 0
M  V30 1270 C 121.862 2.97835 3.07373 0
M  V30 1271 C 121.188 2.92867 4.47363 0
M  V30 1272 C 122.488 4.38265 2.84114 0
M  V30 1273 H 124.182 2.65267 1.38829 0
M  V30 1274 H 121.728 1.2765 0.666441 0
M  V30 1275 H 123.681 1.96698 3.72677 0
M  V30 1276 H 122.405 0.866858 3.14886 0
M  V30 1277 H 121.064 2.83401 2.3255 0
M  V30 1278 H 120.712 1.94783 4.63755 0
M  V30 1279 H 120.412 3.70227 4.56296 0
M  V30 1280 H 121.936 3.09015 5.26633 0
M  V30 1281 H 123.35 4.53198 3.51118 0
M  V30 1282 H 121.747 5.17115 3.04487 0
M  V30 1283 H 122.817 4.50281 1.7993 0
M  V30 1284 N 124.16 -0.719506 1.40217 0
M  V30 1285 C 125.408 -1.47641 1.3801 0
M  V30 1286 C 125.729 -1.94992 -0.018145 0
M  V30 1287 O 124.999 -1.70073 -0.972207 0
M  V30 1288 H 123.579 -0.547744 0.507923 0
M  V30 1289 H 126.241 -0.853187 1.75233 0
M  V30 1290 H 125.337 -2.35112 2.05253 0
M  V30 1291 N 125.638 -1.25649 -0.95132 0
M  V30 1292 C 126.863 -1.13443 -1.73624 0
M  V30 1293 C 127.288 0.307565 -1.85568 0
M  V30 1294 O 126.646 1.22282 -1.33854 0
M  V30 1295 C 126.694 -1.79723 -3.12621 0
M  V30 1296 O 125.798 -1.07912 -3.98031 0
M  V30 1297 H 125.139 -0.395872 -0.533086 0
M  V30 1298 H 127.669 -1.66276 -1.1922 0
M  V30 1299 H 127.679 -1.86141 -3.63064 0
M  V30 1300 H 126.354 -2.84633 -3.03244 0
M  V30 1301 H 124.931 -1.09398 -3.56492 0
M  V30 1302 N 127.117 1.15442 -1.07289 0
M  V30 1303 C 128.08 2.18358 -0.696591 0
M  V30 1304 C 129.08 1.58637 0.262837 0
M  V30 1305 O 130.27 1.74145 0.0438809 0
M  V30 1306 C 127.402 3.4089 -0.0266151 0
M  V30 1307 H 128.595 2.53162 -1.60776 0
M  V30 1308 H 126.148 1.29893 -0.869342 0
M  V30 1309 H 126.883 3.11653 0.896822 0
M  V30 1310 H 126.668 3.85495 -0.716657 0
M  V30 1311 H 128.158 4.17009 0.222028 0
M  V30 1312 N 128.595 0.856903 1.32268 0
M  V30 1313 C 129.505 0.306131 2.32594 0
M  V30 1314 C 130.521 -0.577209 1.64147 0
M  V30 1315 O 131.697 -0.477043 1.95669 0
M  V30 1316 C 128.762 -0.494561 3.43154 0
M  V30 1317 C 127.823 0.415186 4.27288 0
M  V30 1318 C 127.056 -0.347387 5.32568 0
M  V30 1319 O 127.279 -1.57708 5.48165 0
M  V30 1320 O 126.213 0.287982 6.01211 0
M  V30 1321 H 130.039 1.13737 2.81598 0
M  V30 1322 H 127.624 0.619902 1.35932 0
M  V30 1323 H 129.506 -0.948944 4.10576 0
M  V30 1324 H 128.181 -1.30257 2.96336 0
M  V30 1325 H 127.088 0.917793 3.62667 0
M  V30 1326 H 128.421 1.18844 4.77637 0
M  V30 1327 N 130.073 -1.45103 0.615059 0
M  V30 1328 C 131.005 -2.28786 -0.13762 0
M  V30 1329 C 132.018 -1.40376 -0.824525 0
M  V30 1330 O 133.207 -1.64681 -0.688662 0
M  V30 1331 C 130.307 -3.16322 -1.21628 0
M  V30 1332 C 129.48 -4.33054 -0.615039 0
M  V30 1333 C 128.539 -5.01743 -1.58556 0
M  V30 1334 O 127.565 -5.58293 -1.10895 0
M  V30 1335 N 128.767 -5.01714 -2.91998 0
M  V30 1336 H 131.532 -2.94025 0.580483 0
M  V30 1337 H 129.093 -1.55373 0.45507 0
M  V30 1338 H 131.085 -3.59139 -1.86552 0
M  V30 1339 H 129.655 -2.52943 -1.83681 0
M  V30 1340 H 128.875 -3.93627 0.21245 0
M  V30 1341 H 130.163 -5.08431 -0.193704 0
M  V30 1342 H 129.561 -4.57075 -3.33316 0
M  V30 1343 H 128.118 -5.48371 -3.52325 0
M  V30 1344 N 131.551 -0.354651 -1.53558 0
M  V30 1345 C 132.799 0.237972 -2.00694 0
M  V30 1346 C 133.12 1.50173 -1.24391 0
M  V30 1347 O 132.39 1.92673 -0.354135 0
M  V30 1348 H 130.97 0.0909256 -0.741446 0
M  V30 1349 H 133.632 -0.478368 -1.88938 0
M  V30 1350 H 132.728 0.47264 -3.085 0
M  V30 1351 N 133.029 1.57378 -0.0835403 0
M  V30 1352 C 133.939 2.16897 0.894021 0
M  V30 1353 C 134.955 1.13528 1.31861 0
M  V30 1354 O 136.131 1.45848 1.3889 0
M  V30 1355 C 133.196 2.72831 2.13925 0
M  V30 1356 C 132.257 3.91115 1.76997 0
M  V30 1357 C 131.49 4.44371 2.95584 0
M  V30 1358 O 131.713 3.96596 4.09961 0
M  V30 1359 O 130.647 5.35549 2.74719 0
M  V30 1360 H 134.473 3.00814 0.417679 0
M  V30 1361 H 132.058 1.48741 0.140181 0
M  V30 1362 H 133.94 3.0863 2.86924 0
M  V30 1363 H 132.615 1.91967 2.60635 0
M  V30 1364 H 131.522 3.60148 1.01214 0
M  V30 1365 H 132.855 4.73307 1.3506 0
M  V30 1366 N 134.507 -0.190092 1.56449 0
M  V30 1367 C 135.457 -1.23977 1.91347 0
M  V30 1368 C 136.441 -1.40747 0.779693 0
M  V30 1369 O 137.633 -1.43033 1.04262 0
M  V30 1370 C 134.762 -2.58347 2.26079 0
M  V30 1371 C 133.848 -2.4535 3.45925 0
M  V30 1372 N 134.239 -2.02039 4.63696 0
M  V30 1373 C 132.537 -2.76229 3.50162 0
M  V30 1374 C 133.238 -2.01053 5.4585 0
M  V30 1375 N 132.214 -2.42747 4.8639 0
M  V30 1376 H 136.016 -0.896318 2.79899 0
M  V30 1377 H 133.53 -0.398496 1.57435 0
M  V30 1378 H 135.527 -3.34173 2.49267 0
M  V30 1379 H 134.187 -2.93512 1.38856 0
M  V30 1380 H 135.198 -1.7267 4.88268 0
M  V30 1381 H 131.875 -3.15556 2.73369 0
M  V30 1382 H 133.265 -1.69426 6.50188 0
M  V30 1383 N 135.985 -1.50799 -0.457987 0
M  V30 1384 C 137.234 -1.6168 -1.20593 0
M  V30 1385 C 137.547 -0.32888 -1.92815 0
M  V30 1386 O 138.753 -0.316773 -2.69646 0
M  V30 1387 C 137.209 -2.8545 -2.19195 0
M  V30 1388 C 136.817 -4.21168 -1.52715 0
M  V30 1389 C 138.561 -3.05681 -2.94549 0
M  V30 1390 C 136.468 -5.3611 -2.4968 0
M  V30 1391 H 135.398 -0.602134 -0.453818 0
M  V30 1392 H 138.049 -1.77245 -0.475031 0
M  V30 1393 H 136.431 -2.63472 -2.95632 0
M  V30 1394 H 137.605 -4.53449 -0.819775 0
M  V30 1395 H 135.92 -4.06648 -0.895922 0
M  V30 1396 H 138.517 -3.88727 -3.67145 0
M  V30 1397 H 138.86 -2.17929 -3.54701 0
M  V30 1398 H 139.393 -3.27901 -2.25223 0
M  V30 1399 H 136.132 -6.26057 -1.94249 0
M  V30 1400 H 135.652 -5.0823 -3.18532 0
M  V30 1401 H 137.331 -5.6722 -3.11241 0
M  V30 1402 N 137.463 0.71206 -1.40597 0
M  V30 1403 C 138.393 1.83889 -1.43899 0
M  V30 1404 C 139.374 1.67442 -0.299504 0
M  V30 1405 O 140.559 1.87421 -0.508624 0
M  V30 1406 C 137.689 3.21877 -1.30431 0
M  V30 1407 C 136.643 3.53002 -2.42019 0
M  V30 1408 C 135.969 4.90172 -2.13626 0
M  V30 1409 C 137.269 3.53643 -3.84362 0
M  V30 1410 H 138.963 1.81383 -2.38203 0
M  V30 1411 H 136.509 0.871237 -1.14654 0
M  V30 1412 H 138.462 4.00404 -1.31357 0
M  V30 1413 H 137.186 3.24968 -0.326049 0
M  V30 1414 H 135.845 2.76818 -2.40349 0
M  V30 1415 H 135.493 4.89869 -1.14182 0
M  V30 1416 H 135.193 5.11962 -2.88389 0
M  V30 1417 H 136.717 5.71028 -2.1624 0
M  V30 1418 H 138.131 4.22203 -3.87837 0
M  V30 1419 H 136.528 3.86961 -4.58673 0
M  V30 1420 H 137.598 2.52954 -4.13693 0
M  V30 1421 N 138.941 1.26152 0.944643 0
M  V30 1422 C 140.189 1.11271 1.6871 0
M  V30 1423 C 140.51 -0.345166 1.91921 0
M  V30 1424 O 139.78 -1.24387 1.51343 0
M  V30 1425 H 138.36 0.408783 0.625224 0
M  V30 1426 H 141.022 1.58427 1.1352 0
M  V30 1427 H 140.118 1.62879 2.66227 0
M  V30 1428 N 140.419 -1.14872 1.07899 0
M  V30 1429 C 141.668 -1.85135 0.800499 0
M  V30 1430 C 141.981 -1.83547 -0.676014 0
M  V30 1431 O 143.187 -2.49548 -1.06948 0
M  V30 1432 C 141.643 -3.3231 1.38197 0
M  V30 1433 C 141.251 -3.42329 2.8899 0
M  V30 1434 C 142.995 -4.0772 1.18174 0
M  V30 1435 C 140.902 -4.83684 3.403 0
M  V30 1436 H 139.832 -0.693563 0.29578 0
M  V30 1437 H 142.483 -1.29532 1.29976 0
M  V30 1438 H 140.865 -3.87618 0.810431 0
M  V30 1439 H 142.039 -2.97097 3.52236 0
M  V30 1440 H 140.354 -2.80369 3.07867 0
M  V30 1441 H 142.951 -5.12049 1.5398 0
M  V30 1442 H 143.294 -4.16124 0.12117 0
M  V30 1443 H 143.827 -3.58696 1.71994 0
M  V30 1444 H 140.566 -4.80465 4.45907 0
M  V30 1445 H 140.086 -5.29474 2.81811 0
M  V30 1446 H 141.765 -5.52558 3.36584 0
M  V30 1447 N 141.898 -0.863906 -1.31812 0
M  V30 1448 C 143.144 -0.472535 -1.97218 0
M  V30 1449 C 143.477 0.971394 -1.68159 0
M  V30 1450 O 142.752 1.68309 -0.974798 0
M  V30 1451 C 143.035 -0.723054 -3.52766 0
M  V30 1452 C 142.888 -2.21608 -3.91421 0
M  V30 1453 C 144.207 -0.185522 -4.39709 0
M  V30 1454 H 141.326 -0.173158 -0.71637 0
M  V30 1455 H 143.968 -1.08403 -1.56041 0
M  V30 1456 H 142.118 -0.202577 -3.87971 0
M  V30 1457 H 143.79 -2.80334 -3.66347 0
M  V30 1458 H 142.033 -2.691 -3.40246 0
M  V30 1459 H 142.704 -2.34203 -4.99853 0
M  V30 1460 H 145.18 -0.630726 -4.11292 0
M  V30 1461 H 144.056 -0.390306 -5.47511 0
M  V30 1462 H 144.317 0.912229 -4.32586 0
M  V30 1463 N 143.376 1.44774 -0.622745 0
M  V30 1464 C 144.792 1.56986 -0.287652 0
M  V30 1465 C 144.992 1.61167 1.20944 0
M  V30 1466 O 144.048 1.55015 1.99315 0
M  V30 1467 C 145.361 2.84551 -0.972188 0
M  V30 1468 C 146.909 2.9825 -0.949536 0
M  V30 1469 C 147.384 4.28605 -1.61437 0
M  V30 1470 N 148.875 4.35399 -1.58057 0
M  V30 1471 C 149.61 5.34964 -2.064 0
M  V30 1472 N 149.106 6.40981 -2.62897 0
M  V30 1473 N 150.899 5.26419 -1.97078 0
M  V30 1474 H 143.05 1.40304 -1.59463 0
M  V30 1475 H 145.313 0.671794 -0.668878 0
M  V30 1476 H 145.019 2.87417 -2.02693 0
M  V30 1477 H 144.893 3.73807 -0.504771 0
M  V30 1478 H 147.28 2.94941 0.0967067 0
M  V30 1479 H 147.361 2.10364 -1.45536 0
M  V30 1480 H 147.005 4.32672 -2.66002 0
M  V30 1481 H 146.935 5.15334 -1.08344 0
M  V30 1482 H 149.426 3.59397 -1.16801 0
M  V30 1483 H 149.739 7.13225 -2.97539 0
M  V30 1484 H 148.084 6.4169 -2.66943 0
M  V30 1485 H 151.275 4.42504 -1.52669 0
M  V30 1486 H 151.448 6.03861 -2.35066 0
M  V30 1487 N 144.854 0.36279 1.53368 0
M  V30 1488 C 145.786 -0.519668 2.23231 0
M  V30 1489 C 146.799 -1.04844 1.24546 0
M  V30 1490 O 147.988 -0.955296 1.50786 0
M  V30 1491 C 145.088 -1.72995 2.9142 0
M  V30 1492 C 144.261 -1.33316 4.16588 0
M  V30 1493 C 143.32 -2.40521 4.68013 0
M  V30 1494 O 142.346 -2.03027 5.3176 0
M  V30 1495 N 143.548 -3.72065 4.45587 0
M  V30 1496 H 146.313 0.078751 2.99597 0
M  V30 1497 H 143.874 0.187833 1.60807 0
M  V30 1498 H 145.866 -2.44184 3.22733 0
M  V30 1499 H 144.436 -2.2353 2.18525 0
M  V30 1500 H 143.656 -0.451236 3.91609 0
M  V30 1501 H 144.944 -1.04432 4.97967 0
M  V30 1502 H 144.342 -4.05304 3.94646 0
M  V30 1503 H 142.899 -4.39366 4.81457 0
M  V30 1504 N 146.332 -1.57332 0.0918853 0
M  V30 1505 C 147.578 -1.94524 -0.573425 0
M  V30 1506 C 147.911 -0.973578 -1.68033 0
M  V30 1507 O 147.186 -0.00609226 -1.94499 0
M  V30 1508 C 147.469 -3.41858 -1.13161 0
M  V30 1509 C 147.322 -4.4979 -0.0299747 0
M  V30 1510 C 148.641 -3.90435 -2.03098 0
M  V30 1511 H 145.76 -0.70734 -0.206975 0
M  V30 1512 H 148.402 -1.89309 0.161942 0
M  V30 1513 H 146.552 -3.46433 -1.7583 0
M  V30 1514 H 148.224 -4.57327 0.604112 0
M  V30 1515 H 146.467 -4.291 0.636833 0
M  V30 1516 H 147.138 -5.50069 -0.461287 0
M  V30 1517 H 149.614 -3.87992 -1.50338 0
M  V30 1518 H 148.49 -4.94097 -2.39081 0
M  V30 1519 H 148.751 -3.29541 -2.94712 0
M  V30 1520 N 147.81 0.181792 -1.56548 0
M  V30 1521 C 148.757 1.22521 -1.95595 0
M  V30 1522 C 149.727 1.4454 -0.818373 0
M  V30 1523 O 150.912 1.57454 -1.07763 0
M  V30 1524 C 148.052 2.56193 -2.31212 0
M  V30 1525 C 147.165 2.41641 -3.58097 0
M  V30 1526 C 146.3 3.68108 -3.82975 0
M  V30 1527 C 145.339 3.48445 -5.03242 0
M  V30 1528 N 144.476 4.66956 -5.24306 0
M  V30 1529 H 149.316 0.885226 -2.84548 0
M  V30 1530 H 146.853 0.425718 -1.40805 0
M  V30 1531 H 148.811 3.34088 -2.49882 0
M  V30 1532 H 147.441 2.88208 -1.45382 0
M  V30 1533 H 146.493 1.54976 -3.474 0
M  V30 1534 H 147.805 2.23052 -4.46149 0
M  V30 1535 H 146.959 4.54441 -4.01956 0
M  V30 1536 H 145.698 3.89666 -2.93278 0
M  V30 1537 H 144.703 2.60499 -4.8417 0
M  V30 1538 H 145.928 3.2832 -5.9446 0
M  V30 1539 H 143.874 4.88752 -4.37559 0
M  V30 1540 H 143.791 4.51242 -6.06561 0
M  V30 1541 H 145.059 5.54602 -5.47756 0
M  V30 1542 N 149.288 1.51039 0.449983 0
M  V30 1543 C 150.251 1.70863 1.5277 0
M  V30 1544 C 151.251 0.578846 1.5002 0
M  V30 1545 O 152.441 0.846213 1.52266 0
M  V30 1546 C 149.573 1.75341 2.9235 0
M  V30 1547 H 150.766 2.67034 1.36502 0
M  V30 1548 H 148.319 1.40838 0.677812 0
M  V30 1549 H 149.054 0.809383 3.14037 0
M  V30 1550 H 148.839 2.57436 2.95752 0
M  V30 1551 H 150.329 1.92559 3.70555 0
M  V30 1552 N 150.766 -0.704594 1.40972 0
M  V30 1553 C 151.729 -1.80035 1.41845 0
M  V30 1554 C 152.729 -1.57774 0.310474 0
M  V30 1555 O 153.919 -1.64613 0.56992 0
M  V30 1556 C 151.051 -3.18284 1.22098 0
M  V30 1557 H 152.244 -1.80658 2.3938 0
M  V30 1558 H 149.797 -0.911329 1.26982 0
M  V30 1559 H 150.532 -3.23306 0.253672 0
M  V30 1560 H 150.317 -3.35843 2.02366 0
M  V30 1561 H 151.807 -3.98289 1.25522 0
M  V30 1562 N 152.244 -1.26651 -0.937939 0
M  V30 1563 C 153.192 -1.08308 -2.05845 0
M  V30 1564 C 154.186 -0.0090757 -1.69398 0
M  V30 1565 O 155.392 -0.166007 -1.79233 0
M  V30 1566 H 151.767 -0.333416 -0.674046 0
M  V30 1567 H 153.738 -2.03261 -2.18467 0
M  V30 1568 C 152.487 -0.736229 -3.39816 0
M  V30 1569 H 151.81 -1.55453 -3.6834 0
M  V30 1570 H 153.25 -0.64769 -4.19024 0
M  V30 1571 C 151.709 0.558824 -3.32233 0
M  V30 1572 O 152.239 1.59621 -3.68624 0
M  V30 1573 N 150.445 0.550657 -2.85335 0
M  V30 1574 H 149.992 -0.293943 -2.55917 0
M  V30 1575 H 149.95 1.41726 -2.80644 0
M  V30 1576 N 153.722 1.14298 -1.08507 0
M  V30 1577 C 155.133 1.66926 -0.836227 0
M  V30 1578 C 155.484 1.85576 0.63686 0
M  V30 1579 O 154.609 1.56767 1.49175 0
M  V30 1580 C 155.204 3.03219 -1.51142 0
M  V30 1581 C 153.763 3.52876 -1.30979 0
M  V30 1582 C 152.91 2.2833 -1.57356 0
M  V30 1583 H 155.861 0.983491 -1.24552 0
M  V30 1584 H 155.882 3.68726 -0.939211 0
M  V30 1585 H 155.394 2.89612 -2.58353 0
M  V30 1586 H 153.495 3.71703 -0.258429 0
M  V30 1587 H 153.608 4.33586 -2.03814 0
M  V30 1588 H 151.972 2.34454 -0.995164 0
M  V30 1589 H 152.755 2.17298 -2.65775 0
M  V30 1590 N 155.201 0.870884 1.31352 0
M  V30 1591 C 156.133 0.28455 2.27427 0
M  V30 1592 C 157.146 -0.552927 1.53123 0
M  V30 1593 O 158.335 -0.374771 1.74521 0
M  V30 1594 C 155.435 -0.615164 3.3327 0
M  V30 1595 C 154.608 0.190079 4.36987 0
M  V30 1596 C 153.667 -0.637917 5.22319 0
M  V30 1597 O 152.693 -0.065626 5.69162 0
M  V30 1598 N 153.895 -1.94973 5.46778 0
M  V30 1599 H 156.66 1.11017 2.7838 0
M  V30 1600 H 154.221 0.732458 1.44384 0
M  V30 1601 H 156.213 -1.1748 3.87273 0
M  V30 1602 H 154.783 -1.34146 2.82354 0
M  V30 1603 H 154.003 0.931165 3.83044 0
M  V30 1604 H 155.291 0.742579 5.03352 0
M  V30 1605 H 154.689 -2.4378 5.10478 0
M  V30 1606 H 153.246 -2.45713 6.03712 0
M  V30 1607 N 156.679 -1.44442 0.630414 0
M  V30 1608 C 157.642 -2.29107 -0.0652523 0
M  V30 1609 C 158.642 -1.41002 -0.772995 0
M  V30 1610 O 159.832 -1.62881 -0.617692 0
M  V30 1611 C 156.964 -3.22564 -1.10296 0
M  V30 1612 H 158.157 -2.92103 0.679401 0
M  V30 1613 H 155.71 -1.51343 0.390517 0
M  V30 1614 H 156.445 -2.64416 -1.87762 0
M  V30 1615 H 156.23 -3.87491 -0.59941 0
M  V30 1616 H 157.72 -3.86167 -1.5895 0
M  V30 1617 N 158.157 -0.370918 -1.53173 0
M  V30 1618 C 159.104 0.473035 -2.259 0
M  V30 1619 C 160.074 1.07311 -1.26781 0
M  V30 1620 O 161.259 1.1046 -1.55574 0
M  V30 1621 C 158.399 1.60405 -3.05556 0
M  V30 1622 C 157.512 1.02863 -4.19575 0
M  V30 1623 C 156.647 2.12918 -4.86661 0
M  V30 1624 C 155.686 1.52869 -5.92704 0
M  V30 1625 N 154.823 2.56779 -6.53459 0
M  V30 1626 H 159.663 -0.153649 -2.97604 0
M  V30 1627 H 157.2 -0.0875946 -1.46839 0
M  V30 1628 H 159.158 2.27034 -3.50016 0
M  V30 1629 H 157.788 2.20131 -2.36097 0
M  V30 1630 H 156.84 0.252465 -3.79561 0
M  V30 1631 H 158.152 0.549642 -4.95762 0
M  V30 1632 H 157.306 2.87356 -5.34333 0
M  V30 1633 H 156.045 2.6417 -4.09958 0
M  V30 1634 H 155.05 0.769479 -5.44389 0
M  V30 1635 H 156.275 1.02435 -6.7133 0
M  V30 1636 H 154.221 3.07235 -5.79606 0
M  V30 1637 H 154.138 2.13583 -7.25202 0
M  V30 1638 H 155.406 3.30903 -7.05779 0
M  V30 1639 N 159.635 1.57281 -0.100228 0
M  V30 1640 C 160.865 1.98591 0.569681 0
M  V30 1641 C 161.273 0.978315 1.61943 0
M  V30 1642 O 160.616 -0.0396108 1.83657 0
M  V30 1643 C 160.678 3.36282 1.271 0
M  V30 1644 C 160.342 4.55488 0.371409 0
M  V30 1645 C 161.339 5.18491 -0.382504 0
M  V30 1646 C 159.024 5.01474 0.287965 0
M  V30 1647 C 161.018 6.25852 -1.20779 0
M  V30 1648 C 158.705 6.08701 -0.540965 0
M  V30 1649 C 159.703 6.70755 -1.28749 0
M  V30 1650 O 159.391 7.75914 -2.10269 0
M  V30 1651 H 159.123 0.65752 0.156982 0
M  V30 1652 H 161.677 2.0463 -0.177734 0
M  V30 1653 H 159.907 3.26941 2.0651 0
M  V30 1654 H 161.596 3.62005 1.83595 0
M  V30 1655 H 162.362 4.83891 -0.3278 0
M  V30 1656 H 158.241 4.52932 0.858689 0
M  V30 1657 H 161.785 6.74218 -1.79096 0
M  V30 1658 H 157.682 6.42732 -0.597131 0
M  V30 1659 H 158.45 7.92925 -2.03007 0
M  V30 1660 N 161.113 -0.173488 1.56642 0
M  V30 1661 C 162.36 -0.890465 1.81871 0
M  V30 1662 C 162.688 -1.82339 0.67696 0
M  V30 1663 O 161.943 -1.92795 -0.335926 0
M  V30 1664 C 162.242 -1.72069 3.13252 0
M  V30 1665 C 161.908 -0.936878 4.41059 0
M  V30 1666 C 160.57 -0.720545 4.75775 0
M  V30 1667 C 162.922 -0.386919 5.19762 0
M  V30 1668 C 160.25 0.0568829 5.86672 0
M  V30 1669 C 162.602 0.37741 6.31473 0
M  V30 1670 C 161.266 0.604563 6.64757 0
M  V30 1671 H 160.536 -0.325844 0.665512 0
M  V30 1672 H 163.183 -0.155527 1.90867 0
M  V30 1673 H 161.488 -2.52496 2.99588 0
M  V30 1674 H 163.185 -2.27844 3.29982 0
M  V30 1675 H 159.775 -1.11553 4.13828 0
M  V30 1676 H 163.959 -0.541398 4.93338 0
M  V30 1677 H 159.215 0.242635 6.10918 0
M  V30 1678 H 163.389 0.810825 6.91664 0
M  V30 1679 H 161.016 1.20885 7.50527 0
M  V30 1680 N 162.591 -1.51276 -0.441967 0
M  V30 1681 C 163.831 -1.65372 -1.20132 0
M  V30 1682 C 164.195 -0.359871 -1.88597 0
M  V30 1683 O 165.396 -0.376551 -2.66149 0
M  V30 1684 C 163.667 -2.8207 -2.1948 0
M  V30 1685 S 165.226 -3.16467 -3.03964 0
M  V30 1686 H 162.044 -0.582669 -0.407453 0
M  V30 1687 H 164.646 -1.89166 -0.493609 0
M  V30 1688 H 163.35 -3.74523 -1.67812 0
M  V30 1689 H 162.881 -2.6045 -2.94838 0
M  V30 1690 H 164.896 -2.62543 -4.21053 0
M  V30 1691 N 164.069 0.697108 -1.41344 0
M  V30 1692 C 165.346 1.45154 -1.31109 0
M  V30 1693 C 165.726 2.11009 0.0620449 0
M  V30 1694 O 165.074 2.01571 1.07618 0
M  V30 1695 C 165.284 2.47223 -2.46337 0
M  V30 1696 C 166.632 3.1252 -2.87431 0
M  V30 1697 O 167.656 2.57547 -2.46065 0
M  V30 1698 O 166.515 4.12083 -3.58957 0
M  V30 1699 H 163.609 0.646365 -0.515889 0
M  V30 1700 H 166.155 0.727716 -1.53305 0
M  V30 1701 H 164.927 1.97204 -3.37974 0
M  V30 1702 H 164.55 3.27116 -2.2601 0
M  V30 1703 N 165.547 1.27147 0.931209 0
M  V30 1704 C 166.958 1.12044 1.49342 0
M  V30 1705 C 167.309 -0.295795 1.93957 0
M  V30 1706 O 166.434 -1.18835 1.80852 0
M  V30 1707 C 167.029 2.02781 2.71414 0
M  V30 1708 C 165.588 1.91794 3.2387 0
M  V30 1709 C 164.735 1.95543 1.96617 0
M  V30 1710 H 167.686 1.40091 0.745672 0
M  V30 1711 H 167.707 1.58156 3.46074 0
M  V30 1712 H 167.219 3.05848 2.38911 0
M  V30 1713 H 165.32 0.916992 3.6114 0
M  V30 1714 H 165.433 2.77852 3.90302 0
M  V30 1715 H 163.797 1.39722 2.12955 0
M  V30 1716 H 164.58 3.00259 1.66432 0
M  V30 1717 N 167.025 -1.13721 1.09112 0
M  V30 1718 C 168.271 -1.85198 0.826414 0
M  V30 1719 C 168.604 -1.83129 -0.646319 0
M  V30 1720 O 167.879 -1.2671 -1.47563 0
M  V30 1721 C 168.162 -3.33507 1.35812 0
M  V30 1722 C 168.015 -3.44108 2.89672 0
M  V30 1723 C 169.334 -4.28838 0.989256 0
M  V30 1724 H 166.453 -0.67243 0.301675 0
M  V30 1725 H 169.095 -1.33499 1.35197 0
M  V30 1726 H 167.245 -3.77666 0.911082 0
M  V30 1727 H 168.917 -3.08684 3.428 0
M  V30 1728 H 167.16 -2.85087 3.26967 0
M  V30 1729 H 167.831 -4.48388 3.21951 0
M  V30 1730 H 170.307 -3.92734 1.37475 0
M  V30 1731 H 169.183 -5.31051 1.38838 0
M  V30 1732 H 169.444 -4.4198 -0.102924 0
M  V30 1733 N 168.503 -0.877838 -1.30888 0
M  V30 1734 C 169.436 -0.283995 -2.26426 0
M  V30 1735 C 170.414 0.591361 -1.51465 0
M  V30 1736 O 171.598 0.54304 -1.80509 0
M  V30 1737 C 168.725 0.597129 -3.33395 0
M  V30 1738 C 167.771 -0.207937 -4.25993 0
M  V30 1739 S 168.604 -1.59158 -5.11301 0
M  V30 1740 C 169.76 -0.716791 -6.21782 0
M  V30 1741 H 169.993 -1.09383 -2.76446 0
M  V30 1742 H 167.526 -0.676828 -1.38775 0
M  V30 1743 H 169.484 1.09978 -3.95493 0
M  V30 1744 H 168.145 1.38099 -2.82113 0
M  V30 1745 H 167.338 0.464163 -5.01858 0
M  V30 1746 H 166.94 -0.642963 -3.68432 0
M  V30 1747 H 169.232 0.0692833 -6.77465 0
M  V30 1748 H 170.175 -1.44682 -6.93161 0
M  V30 1749 H 170.583 -0.280855 -5.63801 0
M  V30 1750 N 169.982 1.44106 -0.638065 0
M  V30 1751 C 171.23 2.01579 -0.145043 0
M  V30 1752 C 171.551 1.50496 1.24 0
M  V30 1753 O 170.821 0.711374 1.82527 0
M  V30 1754 H 169.401 0.745282 -0.05063 0
M  V30 1755 H 172.063 1.76516 -0.826327 0
M  V30 1756 H 171.159 3.11877 -0.118039 0
M  V30 1757 N 171.46 0.379036 1.52974 0
M  V30 1758 C 172.41 -0.477772 2.22938 0
M  V30 1759 C 173.394 -1.03792 1.22948 0
M  V30 1760 O 174.586 -0.965725 1.48333 0
M  V30 1761 C 171.715 -1.60994 3.03209 0
M  V30 1762 C 170.801 -1.06203 4.10587 0
M  V30 1763 N 171.192 -0.238214 5.05239 0
M  V30 1764 C 169.49 -1.33554 4.25534 0
M  V30 1765 C 170.191 0.0633235 5.81666 0
M  V30 1766 N 169.167 -0.537901 5.40932 0
M  V30 1767 H 172.969 0.158295 2.93473 0
M  V30 1768 H 170.483 0.187778 1.61311 0
M  V30 1769 H 172.48 -2.23607 3.5186 0
M  V30 1770 H 171.14 -2.24893 2.34207 0
M  V30 1771 H 172.151 0.123695 5.17752 0
M  V30 1772 H 168.828 -1.97632 3.6776 0
M  V30 1773 H 170.218 0.730161 6.67921 0
M  V30 1774 N 172.938 -1.57226 0.108567 0
M  V30 1775 C 174.349 -1.8195 -0.418464 0
M  V30 1776 C 174.7 -1.02508 -1.67292 0
M  V30 1777 O 173.825 -0.258496 -2.14851 0
M  V30 1778 C 174.42 -3.30028 -0.765979 0
M  V30 1779 C 172.979 -3.55469 -1.23769 0
M  V30 1780 C 172.126 -2.7625 -0.241106 0
M  V30 1781 H 175.077 -1.55149 0.33384 0
M  V30 1782 H 175.098 -3.44086 -1.62434 0
M  V30 1783 H 174.61 -3.87821 0.147219 0
M  V30 1784 H 172.711 -3.03022 -2.16814 0
M  V30 1785 H 172.824 -4.6408 -1.19022 0
M  V30 1786 H 171.188 -2.44133 -0.72602 0
M  V30 1787 H 171.971 -3.36797 0.665007 0
M  V30 1788 N 174.416 0.165178 -1.56732 0
M  V30 1789 C 175.326 1.22423 -2.00125 0
M  V30 1790 C 176.342 1.48084 -0.913619 0
M  V30 1791 O 177.518 1.60112 -1.22172 0
M  V30 1792 C 174.583 2.54197 -2.35764 0
M  V30 1793 C 173.644 2.36343 -3.58386 0
M  V30 1794 C 172.877 3.61834 -3.92316 0
M  V30 1795 O 173.1 4.67267 -3.27135 0
M  V30 1796 O 172.034 3.55579 -4.85641 0
M  V30 1797 H 175.86 0.885886 -2.90492 0
M  V30 1798 H 173.445 0.372518 -1.44681 0
M  V30 1799 H 175.327 3.3192 -2.59629 0
M  V30 1800 H 174.002 2.87598 -1.48557 0
M  V30 1801 H 172.909 1.56632 -3.39731 0
M  V30 1802 H 174.242 2.07865 -4.46154 0
M  V30 1803 N 175.894 1.51508 0.433938 0
M  V30 1804 C 176.841 1.73068 1.52696 0
M  V30 1805 C 177.811 0.572441 1.55924 0
M  V30 1806 O 178.996 0.807253 1.72882 0
M  V30 1807 C 176.136 1.86474 2.90381 0
M  V30 1808 C 175.249 3.14037 2.96656 0
M  V30 1809 C 174.384 3.18019 4.25485 0
M  V30 1810 C 173.423 4.39882 4.2564 0
M  V30 1811 N 172.56 4.41394 5.45999 0
M  V30 1812 H 177.4 2.66366 1.33615 0
M  V30 1813 H 174.937 1.32008 0.649018 0
M  V30 1814 H 176.895 1.92229 3.70275 0
M  V30 1815 H 175.525 0.965809 3.08013 0
M  V30 1816 H 174.577 3.17575 2.09404 0
M  V30 1817 H 175.889 4.0394 2.92633 0
M  V30 1818 H 175.043 3.22708 5.13755 0
M  V30 1819 H 173.782 2.2601 4.3217 0
M  V30 1820 H 172.787 4.35366 3.35763 0
M  V30 1821 H 174.012 5.33159 4.20617 0
M  V30 1822 H 171.958 3.52258 5.53399 0
M  V30 1823 H 171.875 5.25111 5.4387 0
M  V30 1824 H 173.143 4.50281 6.36292 0
M  V30 1825 N 177.372 -0.689602 1.41712 0
M  V30 1826 C 178.62 -1.4468 1.4111 0
M  V30 1827 C 178.941 -1.94986 0.0232196 0
M  V30 1828 O 178.211 -1.72097 -0.935913 0
M  V30 1829 H 176.791 -0.536847 0.519427 0
M  V30 1830 H 179.453 -0.815825 1.77004 0
M  V30 1831 H 178.549 -2.30706 2.10193 0
M  V30 1832 N 178.85 -1.27639 -0.924453 0
M  V30 1833 C 180.09 -1.15407 -1.68703 0
M  V30 1834 C 180.454 0.294581 -1.89727 0
M  V30 1835 O 181.655 0.539385 -2.63333 0
M  V30 1836 C 179.926 -1.9195 -3.0148 0
M  V30 1837 S 181.485 -1.95969 -3.92609 0
M  V30 1838 H 178.303 -0.411937 -0.579507 0
M  V30 1839 H 180.905 -1.61592 -1.10038 0
M  V30 1840 H 179.609 -2.96387 -2.83871 0
M  V30 1841 H 179.14 -1.46272 -3.65196 0
M  V30 1842 H 181.155 -1.05846 -4.84779 0
M  V30 1843 N 180.328 1.1314 -1.09713 0
M  V30 1844 C 181.577 1.83838 -0.829851 0
M  V30 1845 C 181.89 1.84599 0.646728 0
M  V30 1846 O 183.096 2.51218 1.02965 0
M  V30 1847 C 181.552 3.30069 -1.43466 0
M  V30 1848 C 181.16 3.37688 -2.94399 0
M  V30 1849 C 182.904 4.05788 -1.24645 0
M  V30 1850 C 180.811 4.78209 -3.47952 0
M  V30 1851 H 179.741 0.68877 -0.306777 0
M  V30 1852 H 182.392 1.27448 -1.3202 0
M  V30 1853 H 180.774 3.8628 -0.871996 0
M  V30 1854 H 181.948 2.91456 -3.56918 0
M  V30 1855 H 180.263 2.75436 -3.12289 0
M  V30 1856 H 182.86 5.09535 -1.62107 0
M  V30 1857 H 183.203 4.15878 -0.187357 0
M  V30 1858 H 183.736 3.55915 -1.77678 0
M  V30 1859 H 180.475 4.73311 -4.53495 0
M  V30 1860 H 179.995 5.24924 -2.90198 0
M  V30 1861 H 181.674 5.47133 -3.45332 0
M  V30 1862 N 181.806 0.884767 1.30421 0
M  V30 1863 C 183.052 0.503851 1.96441 0
M  V30 1864 C 183.385 -0.944518 1.69684 0
M  V30 1865 O 182.66 -1.66737 1.00145 0
M  V30 1866 C 182.943 0.779085 3.51571 0
M  V30 1867 C 182.796 2.27807 3.87846 0
M  V30 1868 C 184.115 0.255452 4.39358 0
M  V30 1869 H 181.234 0.184533 0.713524 0
M  V30 1870 H 183.876 1.10872 1.54297 0
M  V30 1871 H 182.026 0.264274 3.876 0
M  V30 1872 H 183.698 2.86127 3.61841 0
M  V30 1873 H 181.941 2.74479 3.35922 0
M  V30 1874 H 182.612 2.42125 4.96064 0
M  V30 1875 H 185.088 0.696079 4.10236 0
M  V30 1876 H 183.964 0.477361 5.4682 0
M  V30 1877 H 184.225 -0.843293 4.33983 0
M  V30 1878 N 183.284 -1.43765 0.645699 0
M  V30 1879 C 184.247 -2.29163 -0.0409488 0
M  V30 1880 C 185.247 -1.41813 -0.757996 0
M  V30 1881 O 186.437 -1.63527 -0.600382 0
M  V30 1882 C 183.569 -3.23716 -1.06869 0
M  V30 1883 H 184.762 -2.91366 0.710345 0
M  V30 1884 H 182.315 -1.5092 0.406547 0
M  V30 1885 H 183.05 -2.66393 -1.84947 0
M  V30 1886 H 182.835 -3.88105 -0.558277 0
M  V30 1887 H 184.325 -3.87831 -1.54845 0
M  V30 1888 N 184.763 -0.387143 -1.52771 0
M  V30 1889 C 186.174 0.0873634 -1.86495 0
M  V30 1890 C 186.525 1.46336 -1.30691 0
M  V30 1891 O 185.65 2.068 -0.637409 0
M  V30 1892 C 186.245 0.165305 -3.38396 0
M  V30 1893 C 184.804 0.584101 -3.7184 0
M  V30 1894 C 183.951 -0.255279 -2.76122 0
M  V30 1895 H 186.902 -0.605104 -1.46711 0
M  V30 1896 H 186.923 0.984848 -3.67534 0
M  V30 1897 H 186.435 -0.836301 -3.78982 0
M  V30 1898 H 184.536 1.59315 -3.36823 0
M  V30 1899 H 184.649 0.343749 -4.77865 0
M  V30 1900 H 183.013 0.279126 -2.53166 0
M  V30 1901 H 183.796 -1.25482 -3.19545 0
M  V30 1902 N 186.241 1.57166 -0.116904 0
M  V30 1903 C 187.489 1.94737 0.540533 0
M  V30 1904 C 187.81 1.00096 1.67349 0
M  V30 1905 O 187.08 0.0568854 1.95817 0
M  V30 1906 H 185.66 0.718981 0.202669 0
M  V30 1907 H 188.322 1.94017 -0.185353 0
M  V30 1908 H 187.418 2.97719 0.936483 0
M  V30 1909 N 187.719 -0.156864 1.56817 0
M  V30 1910 C 188.965 -0.872416 1.83076 0
M  V30 1911 C 189.298 -1.81261 0.697001 0
M  V30 1912 O 188.573 -1.92171 -0.30008 0
M  V30 1913 C 188.856 -1.65551 3.19789 0
M  V30 1914 C 188.709 -0.737467 4.43713 0
M  V30 1915 C 190.028 -2.62012 3.53606 0
M  V30 1916 H 187.147 -0.315715 0.665953 0
M  V30 1917 H 189.789 -0.138004 1.89498 0
M  V30 1918 H 187.939 -2.28159 3.14445 0
M  V30 1919 H 189.611 -0.123143 4.61136 0
M  V30 1920 H 187.854 -0.0464067 4.33775 0
M  V30 1921 H 188.525 -1.32122 5.35955 0
M  V30 1922 H 191.001 -2.09525 3.59497 0
M  V30 1923 H 189.877 -3.13861 4.50314 0
M  V30 1924 H 190.138 -3.42902 2.79053 0
M  V30 1925 N 189.197 -1.51736 -0.425897 0
M  V30 1926 C 190.16 -1.73271 -1.50032 0
M  V30 1927 C 191.16 -0.602639 -1.4908 0
M  V30 1928 O 192.35 -0.87033 -1.509 0
M  V30 1929 C 189.482 -1.79969 -2.89523 0
M  V30 1930 H 190.675 -2.69172 -1.32237 0
M  V30 1931 H 188.228 -1.41899 -0.65532 0
M  V30 1932 H 188.963 -0.859241 -3.1271 0
M  V30 1933 H 188.748 -2.62109 -2.91619 0
M  V30 1934 H 190.238 -1.9843 -3.67444 0
M  V30 1935 N 190.675 0.682077 -1.42076 0
M  V30 1936 C 191.585 1.82535 -1.47371 0
M  V30 1937 C 192.601 1.7017 -0.363079 0
M  V30 1938 O 193.777 1.91848 -0.612875 0
M  V30 1939 C 190.842 3.18624 -1.36674 0
M  V30 1940 C 189.903 3.42999 -2.58167 0
M  V30 1941 C 189.136 4.72595 -2.4797 0
M  V30 1942 O 189.359 5.50006 -1.5116 0
M  V30 1943 O 188.293 4.98054 -3.37974 0
M  V30 1944 H 192.119 1.81023 -2.43853 0
M  V30 1945 H 189.704 0.836887 -1.2376 0
M  V30 1946 H 191.586 3.99847 -1.33043 0
M  V30 1947 H 190.261 3.20789 -0.433138 0
M  V30 1948 H 189.168 2.61653 -2.67373 0
M  V30 1949 H 190.501 3.45659 -3.50401 0
M  V30 1950 N 192.153 1.28127 0.917671 0
M  V30 1951 C 193.4 1.15052 1.66641 0
M  V30 1952 C 193.728 -0.301677 1.92146 0
M  V30 1953 O 192.983 -1.23622 1.51711 0
M  V30 1954 C 193.282 1.89018 3.03327 0
M  V30 1955 C 192.948 3.38832 2.97496 0
M  V30 1956 C 191.61 3.79693 2.95613 0
M  V30 1957 C 193.962 4.34378 2.88036 0
M  V30 1958 C 191.29 5.14447 2.82066 0
M  V30 1959 C 193.642 5.69201 2.7603 0
M  V30 1960 C 192.306 6.09343 2.72502 0
M  V30 1961 H 191.576 0.421006 0.609783 0
M  V30 1962 H 194.223 1.58855 1.06945 0
M  V30 1963 H 192.528 1.37752 3.66785 0
M  V30 1964 H 194.225 1.76321 3.60156 0
M  V30 1965 H 190.815 3.06342 2.99754 0
M  V30 1966 H 194.999 4.03775 2.88581 0
M  V30 1967 H 190.255 5.44681 2.77728 0
M  V30 1968 H 194.429 6.42901 2.67678 0
M  V30 1969 H 192.056 7.13712 2.61762 0
M  V30 1970 N 193.631 -1.12557 1.10312 0
M  V30 1971 C 194.581 -2.16331 0.720076 0
M  V30 1972 C 195.565 -1.58616 -0.270115 0
M  V30 1973 O 196.757 -1.76823 -0.0790507 0
M  V30 1974 C 193.886 -3.42963 0.152113 0
M  V30 1975 C 192.972 -4.07663 1.16927 0
M  V30 1976 N 193.363 -4.47392 2.35953 0
M  V30 1977 C 191.661 -4.34425 1.0095 0
M  V30 1978 C 192.362 -4.97932 3.0073 0
M  V30 1979 N 191.338 -4.93358 2.28252 0
M  V30 1980 H 195.14 -2.44813 1.62616 0
M  V30 1981 H 192.654 -1.29449 0.980654 0
M  V30 1982 H 194.651 -4.16664 -0.14037 0
M  V30 1983 H 193.311 -3.1595 -0.748701 0
M  V30 1984 H 194.322 -4.39802 2.73486 0
M  V30 1985 H 190.999 -4.17177 0.164134 0
M  V30 1986 H 192.389 -5.38397 4.01969 0
M  V30 1987 N 195.109 -0.891671 -1.2995 0
M  V30 1988 C 196.355 -0.514261 -1.96171 0
M  V30 1989 C 196.688 0.935506 -1.70182 0
M  V30 1990 O 195.963 1.66204 -1.01028 0
M  V30 1991 C 196.246 -0.797719 -3.51153 0
M  V30 1992 C 196.099 -2.2986 -3.86632 0
M  V30 1993 C 197.418 -0.278749 -4.39216 0
M  V30 1994 H 194.537 -0.188314 -0.712535 0
M  V30 1995 H 197.179 -1.11689 -1.53706 0
M  V30 1996 H 195.329 -0.284826 -3.87455 0
M  V30 1997 H 197.001 -2.88042 -3.60319 0
M  V30 1998 H 195.244 -2.76257 -3.34462 0
M  V30 1999 H 195.915 -2.44753 -4.94773 0
M  V30 2000 H 198.391 -0.717825 -4.09862 0
M  V30 2001 H 197.267 -0.506353 -5.46559 0
M  V30 2002 H 197.528 0.820266 -4.34424 0
M  V30 2003 N 196.587 1.43421 -0.653314 0
M  V30 2004 C 198.003 1.56341 -0.320886 0
M  V30 2005 C 198.203 1.63696 1.17499 0
M  V30 2006 O 197.259 1.59208 1.95982 0
M  V30 2007 C 198.572 2.82424 -1.03233 0
M  V30 2008 C 200.12 2.96168 -1.01259 0
M  V30 2009 C 200.595 4.25084 -1.70492 0
M  V30 2010 N 202.086 4.31948 -1.67257 0
M  V30 2011 C 202.821 5.30466 -2.17701 0
M  V30 2012 N 202.317 6.35261 -2.76434 0
M  V30 2013 N 204.11 5.2212 -2.082 0
M  V30 2014 H 196.261 1.3689 -1.62403 0
M  V30 2015 H 198.524 0.657455 -0.682977 0
M  V30 2016 H 198.23 2.83053 -2.08744 0
M  V30 2017 H 198.104 3.72653 -0.583948 0
M  V30 2018 H 200.491 2.9508 0.0341235 0
M  V30 2019 H 200.572 2.07229 -1.49966 0
M  V30 2020 H 200.216 4.26932 -2.7512 0
M  V30 2021 H 200.146 5.1292 -1.19251 0
M  V30 2022 H 202.637 3.56838 -1.24398 0
M  V30 2023 H 202.95 7.06754 -3.12601 0
M  V30 2024 H 201.295 6.35884 -2.80495 0
M  V30 2025 H 204.486 4.39166 -1.62021 0
M  V30 2026 H 204.659 5.98739 -2.47822 0
M  V30 2027 N 198.065 0.39524 1.52563 0
M  V30 2028 C 199.015 -0.4541 2.23432 0
M  V30 2029 C 199.999 -1.02482 1.24042 0
M  V30 2030 O 201.191 -0.949938 1.49349 0
M  V30 2031 C 198.32 -1.57769 3.049 0
M  V30 2032 C 197.406 -1.01842 4.1169 0
M  V30 2033 N 197.797 -0.184613 5.05463 0
M  V30 2034 C 196.095 -1.29033 4.26927 0
M  V30 2035 C 196.796 0.125013 5.81566 0
M  V30 2036 N 195.772 -0.480498 5.41472 0
M  V30 2037 H 199.574 0.189413 2.93289 0
M  V30 2038 H 197.088 0.204877 1.61102 0
M  V30 2039 H 199.085 -2.19862 3.54212 0
M  V30 2040 H 197.745 -2.22397 2.36579 0
M  V30 2041 H 198.756 0.178602 5.17592 0
M  V30 2042 H 195.433 -1.93721 3.69836 0
M  V30 2043 H 196.823 0.800962 6.67109 0
M  V30 2044 N 199.544 -1.57102 0.125237 0
M  V30 2045 C 200.792 -1.95021 -0.530198 0
M  V30 2046 C 201.113 -1.00982 -1.66816 0
M  V30 2047 O 200.383 -0.0672693 -1.95784 0
M  V30 2048 H 198.963 -0.720046 -0.198853 0
M  V30 2049 H 201.625 -1.93916 0.19564 0
M  V30 2050 H 200.721 -2.98211 -0.920681 0
M  V30 2051 N 201.022 0.148545 -1.56898 0
M  V30 2052 C 201.952 1.18524 -2.01182 0
M  V30 2053 C 202.933 1.4489 -0.891123 0
M  V30 2054 O 204.118 1.55836 -1.15882 0
M  V30 2055 C 201.248 2.51879 -2.39112 0
M  V30 2056 C 200.202 2.40038 -3.54353 0
M  V30 2057 C 199.528 3.78089 -3.78091 0
M  V30 2058 C 200.828 1.88577 -4.87069 0
M  V30 2059 H 202.522 0.817029 -2.88036 0
M  V30 2060 H 200.068 0.391575 -1.38574 0
M  V30 2061 H 202.021 3.24627 -2.68692 0
M  V30 2062 H 200.745 2.90532 -1.49193 0
M  V30 2063 H 199.404 1.69742 -3.24936 0
M  V30 2064 H 199.052 4.14175 -2.85426 0
M  V30 2065 H 198.752 3.71028 -4.55645 0
M  V30 2066 H 200.276 4.52387 -4.10095 0
M  V30 2067 H 201.69 2.51117 -5.15377 0
M  V30 2068 H 200.087 1.9241 -5.68417 0
M  V30 2069 H 201.157 0.84136 -4.77545 0
M  V30 2070 N 202.5 1.5196 0.417844 0
M  V30 2071 C 203.911 1.57851 0.997 0
M  V30 2072 C 204.262 0.413714 1.91789 0
M  V30 2073 O 203.387 -0.467057 2.113 0
M  V30 2074 C 203.982 2.86085 1.81496 0
M  V30 2075 C 202.541 2.94483 2.34428 0
M  V30 2076 C 201.688 2.52707 1.14169 0
M  V30 2077 H 204.639 1.57455 0.198392 0
M  V30 2078 H 204.66 2.70947 2.67148 0
M  V30 2079 H 204.172 3.70842 1.14446 0
M  V30 2080 H 202.273 2.142 3.04875 0
M  V30 2081 H 202.386 3.98546 2.65891 0
M  V30 2082 H 200.75 2.06353 1.49301 0
M  V30 2083 H 201.533 3.39828 0.486999 0
M  V30 2084 N 203.978 -0.674533 1.42435 0
M  V30 2085 C 204.941 -1.76986 1.45632 0
M  V30 2086 C 205.941 -1.5708 0.343871 0
M  V30 2087 O 207.131 -1.63367 0.604709 0
M  V30 2088 C 204.263 -3.15623 1.28822 0
M  V30 2089 H 205.456 -1.75539 2.43158 0
M  V30 2090 H 203.009 -0.884189 1.28887 0
M  V30 2091 H 203.744 -3.22696 0.322193 0
M  V30 2092 H 203.529 -3.31475 2.09444 0
M  V30 2093 H 205.019 -3.95537 1.33942 0
M  V30 2094 N 205.456 -1.28612 -0.910864 0
M  V30 2095 C 206.681 -1.1891 -1.69927 0
M  V30 2096 C 207.106 0.248372 -1.86453 0
M  V30 2097 O 206.464 1.17961 -1.37676 0
M  V30 2098 C 206.512 -1.89578 -3.06745 0
M  V30 2099 O 205.616 -1.20521 -3.94396 0
M  V30 2100 H 204.957 -0.412632 -0.520222 0
M  V30 2101 H 207.487 -1.69985 -1.1387 0
M  V30 2102 H 207.497 -1.97597 -3.56958 0
M  V30 2103 H 206.172 -2.94136 -2.94035 0
M  V30 2104 H 204.749 -1.20684 -3.52831 0
M  V30 2105 N 206.934 1.1197 -1.10907 0
M  V30 2106 C 208.211 1.79959 -0.766432 0
M  V30 2107 C 208.591 1.97466 0.746363 0
M  V30 2108 O 207.939 1.55491 1.67436 0
M  V30 2109 C 208.149 3.14009 -1.52314 0
M  V30 2110 C 209.497 3.89134 -1.69883 0
M  V30 2111 O 210.521 3.2368 -1.48692 0
M  V30 2112 O 209.38 5.06572 -2.05054 0
M  V30 2113 H 206.474 0.779208 -0.277062 0
M  V30 2114 H 209.02 1.18762 -1.21217 0
M  V30 2115 H 207.792 2.96587 -2.55249 0
M  V30 2116 H 207.415 3.82915 -1.07059 0
M  V30 2117 N 208.412 0.89855 1.29475 0
M  V30 2118 C 209.661 0.519863 1.94885 0
M  V30 2119 C 209.974 -0.9383 1.71625 0
M  V30 2120 O 211.18 -1.42445 2.31131 0
M  V30 2121 C 209.636 0.878836 3.49005 0
M  V30 2122 C 209.244 2.35569 3.81066 0
M  V30 2123 C 210.988 0.570004 4.20656 0
M  V30 2124 C 208.895 2.65558 5.28425 0
M  V30 2125 H 207.825 0.190692 0.729488 0
M  V30 2126 H 210.476 1.09539 1.47219 0
M  V30 2127 H 208.858 0.232253 3.95318 0
M  V30 2128 H 210.032 3.04773 3.45616 0
M  V30 2129 H 208.347 2.63343 3.22552 0
M  V30 2130 H 210.944 0.770925 5.29113 0
M  V30 2131 H 211.287 -0.491404 4.1339 0
M  V30 2132 H 211.82 1.17438 3.8007 0
M  V30 2133 H 208.559 3.70493 5.40754 0
M  V30 2134 H 208.079 2.00977 5.65127 0
M  V30 2135 H 209.758 2.51765 5.96006 0
M  V30 2136 N 209.89 -1.43072 0.660911 0
M  V30 2137 C 211.139 -2.00942 0.174735 0
M  V30 2138 C 211.452 -1.52797 -1.22117 0
M  V30 2139 O 212.658 -2.02991 -1.80297 0
M  V30 2140 C 211.114 -3.58948 0.261559 0
M  V30 2141 C 210.722 -4.16085 1.66064 0
M  V30 2142 C 212.466 -4.24173 -0.166617 0
M  V30 2143 C 210.373 -5.6641 1.70098 0
M  V30 2144 H 209.303 -0.751483 0.0615631 0
M  V30 2145 H 211.954 -1.63955 0.824069 0
M  V30 2146 H 210.336 -3.93372 -0.455421 0
M  V30 2147 H 211.51 -3.93147 2.40359 0
M  V30 2148 H 209.825 -3.6326 2.03546 0
M  V30 2149 H 212.422 -5.34471 -0.156433 0
M  V30 2150 H 212.765 -3.98647 -1.19943 0
M  V30 2151 H 213.298 -3.94659 0.498875 0
M  V30 2152 H 210.037 -5.96715 2.71315 0
M  V30 2153 H 209.557 -5.91382 1.00139 0
M  V30 2154 H 211.236 -6.30585 1.44816 0
M  V30 2155 N 211.368 -0.403325 -1.52352 0
M  V30 2156 C 212.331 0.413051 -2.25447 0
M  V30 2157 C 213.331 0.978513 -1.276 0
M  V30 2158 O 214.521 0.858305 -1.51587 0
M  V30 2159 C 211.653 1.58087 -3.02029 0
M  V30 2160 H 212.846 -0.227094 -2.99039 0
M  V30 2161 H 210.399 -0.155722 -1.55522 0
M  V30 2162 H 211.134 2.25804 -2.32772 0
M  V30 2163 H 210.919 1.18195 -3.73861 0
M  V30 2164 H 212.409 2.1585 -3.57489 0
M  V30 2165 N 212.846 1.57033 -0.133567 0
M  V30 2166 C 214.257 1.82593 0.389464 0
M  V30 2167 C 214.608 1.05156 1.6564 0
M  V30 2168 O 213.733 0.292644 2.14412 0
M  V30 2169 C 214.328 3.31204 0.713377 0
M  V30 2170 C 212.887 3.57393 1.18098 0
M  V30 2171 C 212.034 2.76598 0.197126 0
M  V30 2172 H 214.985 1.54598 -0.358481 0
M  V30 2173 H 215.006 3.46627 1.56939 0
M  V30 2174 H 214.518 3.87537 -0.2089 0
M  V30 2175 H 212.619 3.06433 2.11966 0
M  V30 2176 H 212.732 4.65915 1.11624 0
M  V30 2177 H 211.096 2.45257 0.687088 0
M  V30 2178 H 211.879 3.35697 -0.718504 0
M  V30 2179 N 214.325 -0.140222 1.56975 0
M  V30 2180 C 215.273 -1.19207 1.99731 0
M  V30 2181 C 216.267 -1.44089 0.890777 0
M  V30 2182 O 217.473 -1.44301 1.07597 0
M  V30 2183 H 213.848 -0.40142 0.635898 0
M  V30 2184 H 215.819 -0.804813 2.87342 0
M  V30 2185 C 214.568 -2.51617 2.39967 0
M  V30 2186 H 213.891 -2.33303 3.24669 0
M  V30 2187 H 215.331 -3.23827 2.73701 0
M  V30 2188 C 213.79 -3.12654 1.25496 0
M  V30 2189 O 214.32 -3.97786 0.559371 0
M  V30 2190 N 212.526 -2.72206 1.01746 0
M  V30 2191 H 212.073 -2.03074 1.58489 0
M  V30 2192 H 212.031 -3.13377 0.253461 0
M  V30 2193 N 215.803 -1.52179 -0.40978 0
M  V30 2194 C 216.733 -1.78435 -1.5061 0
M  V30 2195 C 217.714 -0.635295 -1.57791 0
M  V30 2196 O 218.899 -0.880823 -1.73076 0
M  V30 2197 C 216.029 -1.93444 -2.88439 0
M  V30 2198 C 214.983 -3.09038 -2.96108 0
M  V30 2199 C 214.309 -3.09268 -4.36185 0
M  V30 2200 C 215.609 -4.48508 -2.67652 0
M  V30 2201 H 217.303 -2.70237 -1.28889 0
M  V30 2202 H 214.849 -1.30036 -0.618605 0
M  V30 2203 H 216.802 -2.10394 -3.65119 0
M  V30 2204 H 215.526 -0.983129 -3.11452 0
M  V30 2205 H 214.185 -2.91837 -2.21872 0
M  V30 2206 H 213.833 -2.11861 -4.56206 0
M  V30 2207 H 213.533 -3.86907 -4.42241 0
M  V30 2208 H 215.057 -3.28348 -5.14801 0
M  V30 2209 H 216.471 -4.65918 -3.34056 0
M  V30 2210 H 214.868 -5.28059 -2.85085 0
M  V30 2211 H 215.938 -4.56649 -1.63095 0
M  V30 2212 N 217.281 0.66697 -1.42791 0
M  V30 2213 C 218.527 1.4291 -1.43891 0
M  V30 2214 C 218.86 1.94114 -0.0578972 0
M  V30 2215 O 218.135 1.71414 0.91911 0
M  V30 2216 C 218.418 2.62049 -2.46987 0
M  V30 2217 C 218.271 2.16426 -3.94309 0
M  V30 2218 C 219.59 3.64266 -2.46978 0
M  V30 2219 H 216.709 0.518306 -0.523954 0
M  V30 2220 H 219.351 0.757321 -1.74255 0
M  V30 2221 H 217.501 3.19361 -2.21225 0
M  V30 2222 H 219.173 1.64221 -4.31079 0
M  V30 2223 H 217.416 1.47925 -4.078 0
M  V30 2224 H 218.087 3.02038 -4.62036 0
M  V30 2225 H 220.563 3.16686 -2.69906 0
M  V30 2226 H 219.439 4.45196 -3.21079 0
M  V30 2227 H 219.7 4.15927 -1.49857 0
M  V30 2228 N 218.759 1.29093 0.90403 0
M  V30 2229 C 219.669 1.15727 2.0407 0
M  V30 2230 C 220.685 0.0815308 1.73809 0
M  V30 2231 O 221.861 0.292749 1.99261 0
M  V30 2232 C 218.926 0.830424 3.36608 0
M  V30 2233 C 217.987 1.98955 3.80415 0
M  V30 2234 C 217.22 1.6782 5.06628 0
M  V30 2235 O 217.443 0.597105 5.67266 0
M  V30 2236 O 216.377 2.52486 5.46383 0
M  V30 2237 H 220.203 2.11171 2.18267 0
M  V30 2238 H 217.788 1.08504 1.027 0
M  V30 2239 H 219.67 0.662521 4.16159 0
M  V30 2240 H 218.345 -0.0942678 3.23563 0
M  V30 2241 H 217.252 2.21267 3.01648 0
M  V30 2242 H 218.585 2.89529 3.98037 0
M  V30 2243 N 220.237 -1.11381 1.11499 0
M  V30 2244 C 221.167 -2.19509 0.796125 0
M  V30 2245 C 222.148 -1.68458 -0.235796 0
M  V30 2246 O 223.333 -1.93947 -0.0991344 0
M  V30 2247 C 220.463 -3.46475 0.239205 0
M  V30 2248 C 219.417 -4.10744 1.20307 0
M  V30 2249 C 218.743 -5.32293 0.50683 0
M  V30 2250 C 220.043 -4.55597 2.55399 0
M  V30 2251 H 221.737 -2.46439 1.70024 0
M  V30 2252 H 219.283 -1.18446 0.818935 0
M  V30 2253 H 221.236 -4.214 0.00392006 0
M  V30 2254 H 219.96 -3.19006 -0.700206 0
M  V30 2255 H 218.619 -3.37813 1.42399 0
M  V30 2256 H 218.267 -5.01095 -0.437408 0
M  V30 2257 H 217.967 -5.76243 1.1497 0
M  V30 2258 H 219.491 -6.09956 0.280351 0
M  V30 2259 H 220.905 -5.21841 2.37391 0
M  V30 2260 H 219.302 -5.10363 3.15673 0
M  V30 2261 H 220.372 -3.69013 3.14575 0
M  V30 2262 N 221.715 -0.905404 -1.28997 0
M  V30 2263 C 222.625 -0.392246 -2.31298 0
M  V30 2264 C 223.641 0.515889 -1.66176 0
M  V30 2265 O 224.817 0.404093 -1.97304 0
M  V30 2266 C 221.882 0.36686 -3.44754 0
M  V30 2267 C 220.943 -0.573485 -4.25452 0
M  V30 2268 C 220.176 0.149488 -5.33491 0
M  V30 2269 O 220.399 1.37255 -5.5364 0
M  V30 2270 O 219.333 -0.510919 -5.99728 0
M  V30 2271 H 223.159 -1.2411 -2.77183 0
M  V30 2272 H 220.744 -0.669926 -1.33538 0
M  V30 2273 H 222.626 0.795907 -4.13816 0
M  V30 2274 H 221.301 1.19169 -3.00966 0
M  V30 2275 H 220.208 -1.05176 -3.59011 0
M  V30 2276 H 221.541 -1.36489 -4.72897 0
M  V30 2277 N 223.193 1.4272 -0.668489 0
M  V30 2278 C 224.442 2.00846 -0.185389 0
M  V30 2279 C 224.755 1.53442 1.21305 0
M  V30 2280 O 225.961 2.03944 1.79218 0
M  V30 2281 C 224.417 3.58805 -0.280591 0
M  V30 2282 C 224.025 4.15198 -1.68268 0
M  V30 2283 C 225.769 4.24255 0.14412 0
M  V30 2284 C 223.676 5.655 -1.73099 0
M  V30 2285 H 222.606 0.751145 -0.0655475 0
M  V30 2286 H 225.257 1.63516 -0.832752 0
M  V30 2287 H 223.639 3.93608 0.434553 0
M  V30 2288 H 224.813 3.91866 -2.42441 0
M  V30 2289 H 223.128 3.62176 -2.05469 0
M  V30 2290 H 225.725 5.34547 0.128086 0
M  V30 2291 H 226.068 3.99277 1.17827 0
M  V30 2292 H 226.601 3.94389 -0.519798 0
M  V30 2293 H 223.34 5.95268 -2.74475 0
M  V30 2294 H 222.86 5.90842 -1.03274 0
M  V30 2295 H 224.539 6.29808 -1.48158 0
M  V30 2296 N 224.671 0.411399 1.52136 0
M  V30 2297 C 225.601 -0.404015 2.29978 0
M  V30 2298 C 226.582 -1.04412 1.34284 0
M  V30 2299 O 227.767 -1.0527 1.63192 0
M  V30 2300 C 224.897 -1.5197 3.12286 0
M  V30 2301 C 223.851 -1.00448 4.16046 0
M  V30 2302 C 223.177 -2.21393 4.86712 0
M  V30 2303 C 224.477 -0.0569336 5.22269 0
M  V30 2304 H 226.171 0.245529 2.98392 0
M  V30 2305 H 223.717 0.119525 1.43503 0
M  V30 2306 H 225.67 -2.09715 3.6551 0
M  V30 2307 H 224.394 -2.19716 2.41646 0
M  V30 2308 H 223.053 -0.449421 3.63835 0
M  V30 2309 H 222.701 -2.87699 4.12599 0
M  V30 2310 H 222.401 -1.87571 5.56858 0
M  V30 2311 H 223.925 -2.7974 5.4275 0
M  V30 2312 H 225.339 -0.54325 5.7072 0
M  V30 2313 H 223.736 0.192594 5.99791 0
M  V30 2314 H 224.806 0.887663 4.76706 0
M  V30 2315 N 226.149 -1.5696 0.141893 0
M  V30 2316 C 227.389 -1.9785 -0.513304 0
M  V30 2317 C 227.753 -1.02467 -1.62371 0
M  V30 2318 O 228.954 -1.32382 -2.33941 0
M  V30 2319 C 227.225 -3.42797 -1.01118 0
M  V30 2320 S 228.784 -4.05709 -1.67169 0
M  V30 2321 H 225.602 -0.691318 -0.166135 0
M  V30 2322 H 228.204 -1.94114 0.232398 0
M  V30 2323 H 226.908 -4.0995 -0.192179 0
M  V30 2324 H 226.439 -3.50235 -1.79162 0
M  V30 2325 H 228.454 -3.98342 -2.95868 0
M  V30 2326 N 227.627 0.131896 -1.57047 0
M  V30 2327 C 228.537 1.1815 -2.02676 0
M  V30 2328 C 229.553 1.46113 -0.944824 0
M  V30 2329 O 230.729 1.57485 -1.25541 0
M  V30 2330 C 227.794 2.49139 -2.41103 0
M  V30 2331 C 226.855 2.28688 -3.63318 0
M  V30 2332 C 226.088 3.53431 -3.99903 0
M  V30 2333 O 226.311 4.60223 -3.36973 0
M  V30 2334 O 225.245 3.45198 -4.93074 0
M  V30 2335 H 229.071 0.824069 -2.92306 0
M  V30 2336 H 226.656 0.341745 -1.45439 0
M  V30 2337 H 228.538 3.26338 -2.66611 0
M  V30 2338 H 227.213 2.84382 -1.54624 0
M  V30 2339 H 226.12 1.4939 -3.42977 0
M  V30 2340 H 227.453 1.98355 -4.50462 0
M  V30 2341 N 229.106 1.52395 0.401703 0
M  V30 2342 C 230.056 1.72649 1.48917 0
M  V30 2343 C 231.04 0.580436 1.50066 0
M  V30 2344 O 232.232 0.83779 1.55917 0
M  V30 2345 C 229.361 1.88729 2.86769 0
M  V30 2346 C 228.447 3.09228 2.90239 0
M  V30 2347 N 228.838 4.31805 2.63396 0
M  V30 2348 C 227.136 3.09214 3.21408 0
M  V30 2349 C 227.837 5.13326 2.73625 0
M  V30 2350 N 226.813 4.48735 3.06819 0
M  V30 2351 H 230.615 2.65058 1.26971 0
M  V30 2352 H 228.129 1.50528 0.609504 0
M  V30 2353 H 230.126 2.01358 3.65049 0
M  V30 2354 H 228.786 0.975252 3.09708 0
M  V30 2355 H 229.797 4.60154 2.37653 0
M  V30 2356 H 226.474 2.27774 3.49893 0
M  V30 2357 H 227.864 6.21003 2.56524 0
M  V30 2358 N 230.584 -0.659388 1.43143 0
M  V30 2359 C 231.547 -1.75432 1.47501 0
M  V30 2360 C 232.547 -1.56707 0.360512 0
M  V30 2361 O 233.737 -1.62717 0.622002 0
M  V30 2362 C 230.869 -3.14239 1.32162 0
M  V30 2363 H 232.062 -1.7295 2.45006 0
M  V30 2364 H 229.615 -0.870469 1.29817 0
M  V30 2365 H 230.35 -3.22336 0.356401 0
M  V30 2366 H 230.135 -3.29235 2.12948 0
M  V30 2367 H 231.625 -3.94094 1.3813 0
M  V30 2368 N 232.062 -1.29571 -0.897171 0
M  V30 2369 C 233.308 -1.17863 -1.65034 0
M  V30 2370 C 233.641 0.268729 -1.92332 0
M  V30 2371 O 232.916 1.19378 -1.53555 0
M  V30 2372 C 233.199 -1.995 -2.99786 0
M  V30 2373 C 233.052 -3.5239 -2.79538 0
M  V30 2374 C 234.371 -1.82335 -4.00552 0
M  V30 2375 H 231.49 -0.429528 -0.598895 0
M  V30 2376 H 234.132 -1.59072 -1.03905 0
M  V30 2377 H 232.282 -1.64485 -3.51962 0
M  V30 2378 H 233.954 -3.97401 -2.34244 0
M  V30 2379 H 232.197 -3.77187 -2.14273 0
M  V30 2380 H 232.868 -4.04787 -3.75302 0
M  V30 2381 H 235.344 -2.12924 -3.57495 0
M  V30 2382 H 234.22 -2.41801 -4.92771 0
M  V30 2383 H 234.481 -0.779209 -4.35179 0
M  V30 2384 N 233.54 1.10788 -1.12088 0
M  V30 2385 C 234.488 2.19111 -0.780587 0
M  V30 2386 C 235.482 1.67818 0.230961 0
M  V30 2387 O 236.688 1.79777 0.0895427 0
M  V30 2388 H 233.063 0.714477 -0.234578 0
M  V30 2389 H 235.034 2.45055 -1.70266 0
M  V30 2390 C 233.783 3.46818 -0.24747 0
M  V30 2391 H 233.106 3.86646 -1.01712 0
M  V30 2392 H 234.546 4.23973 -0.0476291 0
M  V30 2393 C 233.005 3.20968 1.02378 0
M  V30 2394 O 233.535 3.42298 2.10226 0
M  V30 2395 N 231.741 2.74658 0.949271 0
M  V30 2396 H 231.288 2.57501 0.0715173 0
M  V30 2397 H 231.246 2.57739 1.80049 0
M  V30 2398 N 235.018 0.912232 1.28515 0
M  V30 2399 C 235.966 0.389597 2.29314 0
M  V30 2400 C 236.96 -0.517915 1.61289 0
M  V30 2401 O 238.166 -0.399328 1.75515 0
M  V30 2402 H 234.541 0.107386 0.744293 0
M  V30 2403 H 236.512 1.25286 2.70825 0
M  V30 2404 C 235.261 -0.356496 3.45868 0
M  V30 2405 H 234.584 0.332608 3.98414 0
M  V30 2406 H 236.024 -0.686851 4.184 0
M  V30 2407 C 234.483 -1.56383 2.98406 0
M  V30 2408 O 235.013 -2.66294 3.00749 0
M  V30 2409 N 233.219 -1.41029 2.54085 0
M  V30 2410 H 232.766 -0.516089 2.52377 0
M  V30 2411 H 232.724 -2.21939 2.22689 0
M  V30 2412 N 236.496 -1.42363 0.676048 0
M  V30 2413 C 237.742 -2.0182 0.199125 0
M  V30 2414 C 238.075 -1.53339 -1.19168 0
M  V30 2415 O 237.35 -0.736124 -1.80032 0
M  V30 2416 C 237.633 -3.59331 0.235144 0
M  V30 2417 C 237.486 -4.17989 1.66149 0
M  V30 2418 C 238.805 -4.3813 -0.41595 0
M  V30 2419 H 235.924 -0.733293 0.0738311 0
M  V30 2420 H 238.566 -1.69368 0.86107 0
M  V30 2421 H 236.716 -3.87109 -0.328487 0
M  V30 2422 H 238.388 -4.0116 2.27747 0
M  V30 2423 H 236.631 -3.7377 2.20178 0
M  V30 2424 H 237.302 -5.27126 1.63837 0
M  V30 2425 H 239.778 -4.16051 0.0638529 0
M  V30 2426 H 238.654 -5.47717 -0.360115 0
M  V30 2427 H 238.915 -4.16101 -1.49373 0
M  V30 2428 N 237.974 -0.419461 -1.51915 0
M  V30 2429 C 238.884 0.407528 -2.31033 0
M  V30 2430 C 239.9 1.04413 -1.3919 0
M  V30 2431 O 241.076 1.0434 -1.72265 0
M  V30 2432 C 238.141 1.50365 -3.12396 0
M  V30 2433 C 237.202 0.889029 -4.19994 0
M  V30 2434 C 236.435 1.93291 -4.97468 0
M  V30 2435 O 236.658 3.15259 -4.75361 0
M  V30 2436 O 235.592 1.53339 -5.8204 0
M  V30 2437 H 239.418 -0.237865 -3.02767 0
M  V30 2438 H 237.003 -0.182413 -1.48282 0
M  V30 2439 H 238.885 2.13975 -3.63032 0
M  V30 2440 H 237.56 2.13345 -2.43445 0
M  V30 2441 H 236.467 0.215353 -3.7348 0
M  V30 2442 H 237.8 0.302991 -4.91267 0
M  V30 2443 N 239.452 1.56882 -0.150215 0
M  V30 2444 C 240.362 2.20494 0.801222 0
M  V30 2445 C 241.378 1.19019 1.26927 0
M  V30 2446 O 242.554 1.51607 1.32579 0
M  V30 2447 C 239.619 2.81659 2.02161 0
M  V30 2448 C 238.68 3.9827 1.60249 0
M  V30 2449 C 237.913 4.56508 2.7647 0
M  V30 2450 O 238.136 4.13627 3.92771 0
M  V30 2451 O 237.07 5.46719 2.51757 0
M  V30 2452 H 240.896 3.02315 0.289717 0
M  V30 2453 H 238.481 1.49202 0.0769684 0
M  V30 2454 H 240.363 3.20522 2.73576 0
M  V30 2455 H 239.038 2.02849 2.52258 0
M  V30 2456 H 237.945 3.64117 0.858477 0
M  V30 2457 H 239.278 4.78609 1.14864 0
M  V30 2458 N 240.93 -0.123565 1.57115 0
M  V30 2459 C 241.893 -1.13583 1.99076 0
M  V30 2460 C 242.893 -1.34564 0.880296 0
M  V30 2461 O 244.083 -1.31158 1.14644 0
M  V30 2462 C 241.215 -2.49128 2.32698 0
M  V30 2463 H 242.408 -0.775287 2.89706 0
M  V30 2464 H 239.961 -0.36771 1.51913 0
M  V30 2465 H 240.696 -2.90111 1.44934 0
M  V30 2466 H 240.481 -2.35255 3.13684 0
M  V30 2467 H 241.971 -3.2199 2.65918 0
M  V30 2468 N 242.408 -1.52605 -0.393616 0
M  V30 2469 C 243.654 -1.67672 -1.14079 0
M  V30 2470 C 243.987 -0.413121 -1.89755 0
M  V30 2471 O 243.262 0.588952 -1.85369 0
M  V30 2472 C 243.545 -2.9088 -2.12276 0
M  V30 2473 C 243.398 -4.27329 -1.40394 0
M  V30 2474 C 244.717 -3.09628 -3.12759 0
M  V30 2475 H 241.836 -0.610168 -0.413356 0
M  V30 2476 H 244.478 -1.85193 -0.424696 0
M  V30 2477 H 242.628 -2.76073 -2.73342 0
M  V30 2478 H 244.3 -4.53894 -0.82327 0
M  V30 2479 H 242.543 -4.2802 -0.705801 0
M  V30 2480 H 243.214 -5.09615 -2.12123 0
M  V30 2481 H 245.69 -3.23436 -2.61779 0
M  V30 2482 H 244.566 -3.97322 -3.78717 0
M  V30 2483 H 244.827 -2.23637 -3.81365 0
M  V30 2484 N 243.887 0.651787 -1.4349 0
M  V30 2485 C 244.817 1.77621 -1.51569 0
M  V30 2486 C 245.798 1.66022 -0.370253 0
M  V30 2487 O 246.983 1.85095 -0.587658 0
M  V30 2488 C 244.113 3.16056 -1.43966 0
M  V30 2489 C 243.067 3.4242 -2.56774 0
M  V30 2490 C 242.393 4.8067 -2.34223 0
M  V30 2491 C 243.693 3.37023 -3.99015 0
M  V30 2492 H 245.387 1.71117 -2.45681 0
M  V30 2493 H 242.933 0.821825 -1.18246 0
M  V30 2494 H 244.886 3.94472 -1.48221 0
M  V30 2495 H 243.61 3.23293 -0.463586 0
M  V30 2496 H 242.269 2.66375 -2.51873 0
M  V30 2497 H 241.917 4.84585 -1.34856 0
M  V30 2498 H 241.617 4.9927 -3.09844 0
M  V30 2499 H 243.141 5.61342 -2.40265 0
M  V30 2500 H 244.555 4.05374 -4.05395 0
M  V30 2501 H 242.952 3.67159 -4.74673 0
M  V30 2502 H 244.022 2.3518 -4.2405 0
M  V30 2503 N 245.365 1.30045 0.890287 0
M  V30 2504 C 246.328 1.15963 1.977 0
M  V30 2505 C 247.328 0.0923777 1.60534 0
M  V30 2506 O 248.518 0.340071 1.70848 0
M  V30 2507 C 245.65 0.775451 3.31963 0
M  V30 2508 H 246.843 2.12502 2.11619 0
M  V30 2509 H 244.396 1.13366 1.07601 0
M  V30 2510 H 245.131 -0.189671 3.23745 0
M  V30 2511 H 244.916 1.54668 3.60306 0
M  V30 2512 H 246.406 0.700251 4.11687 0
M  V30 2513 N 246.843 -1.10192 1.12674 0
M  V30 2514 C 247.806 -2.14786 0.799979 0
M  V30 2515 C 248.806 -1.59711 -0.18685 0
M  V30 2516 O 249.996 -1.74156 0.0392558 0
M  V30 2517 C 247.128 -3.40374 0.189228 0
M  V30 2518 H 248.321 -2.45203 1.72671 0
M  V30 2519 H 245.874 -1.25597 0.930326 0
M  V30 2520 H 246.609 -3.15577 -0.747107 0
M  V30 2521 H 246.394 -3.81637 0.899766 0
M  V30 2522 H 247.884 -4.17594 -0.0228143 0
M  V30 2523 N 248.321 -0.919034 -1.28029 0
M  V30 2524 C 249.737 -0.617972 -1.4715 0
M  V30 2525 C 249.937 0.835242 -1.83374 0
M  V30 2526 O 248.993 1.61388 -1.94191 0
M  V30 2527 C 250.306 -1.56041 -2.57044 0
M  V30 2528 C 251.854 -1.56769 -2.7091 0
M  V30 2529 C 252.329 -2.49688 -3.83953 0
M  V30 2530 N 253.82 -2.47845 -3.91314 0
M  V30 2531 C 254.555 -3.16437 -4.78179 0
M  V30 2532 N 254.051 -3.94376 -5.69596 0
M  V30 2533 N 255.844 -3.05498 -4.71834 0
M  V30 2534 H 247.995 -1.85866 -1.02798 0
M  V30 2535 H 250.258 -0.797506 -0.512531 0
M  V30 2536 H 249.964 -2.59671 -2.372 0
M  V30 2537 H 249.838 -1.29551 -3.54255 0
M  V30 2538 H 252.225 -0.538745 -2.90141 0
M  V30 2539 H 252.306 -1.87305 -1.74214 0
M  V30 2540 H 251.95 -3.52688 -3.65477 0
M  V30 2541 H 251.88 -2.16453 -4.80058 0
M  V30 2542 H 254.371 -1.91234 -3.25941 0
M  V30 2543 H 254.684 -4.43721 -6.32718 0
M  V30 2544 H 253.029 -3.98481 -5.69419 0
M  V30 2545 H 256.22 -2.44108 -3.99411 0
M  V30 2546 H 256.393 -3.59225 -5.39316 0
M  V30 2547 N 249.799 1.42003 -0.683588 0
M  V30 2548 C 250.709 2.34597 -0.0109075 0
M  V30 2549 C 251.725 1.55576 0.779245 0
M  V30 2550 O 252.901 1.88107 0.719555 0
M  V30 2551 C 249.966 3.34199 0.922588 0
M  V30 2552 C 249.027 4.29115 0.125984 0
M  V30 2553 C 248.26 5.23959 1.01502 0
M  V30 2554 O 248.483 5.23952 2.25456 0
M  V30 2555 O 247.417 6.00053 0.47111 0
M  V30 2556 H 251.243 2.93675 -0.773853 0
M  V30 2557 H 248.828 1.42654 -0.443861 0
M  V30 2558 H 250.71 3.95365 1.45823 0
M  V30 2559 H 249.385 2.77582 1.66523 0
M  V30 2560 H 248.292 3.71335 -0.453969 0
M  V30 2561 H 249.625 4.88798 -0.577736 0
M  V30 2562 N 251.277 0.427512 1.51691 0
M  V30 2563 C 252.207 -0.3796 2.30394 0
M  V30 2564 C 253.188 -1.02982 1.35384 0
M  V30 2565 O 254.373 -1.03534 1.643 0
M  V30 2566 C 251.503 -1.48649 3.1388 0
M  V30 2567 C 250.457 -0.960294 4.17088 0
M  V30 2568 C 249.783 -2.16219 4.89033 0
M  V30 2569 C 251.083 -0.00153679 5.223 0
M  V30 2570 H 252.777 0.277164 2.98114 0
M  V30 2571 H 250.323 0.134739 1.43368 0
M  V30 2572 H 252.276 -2.05826 3.67714 0
M  V30 2573 H 251 -2.1714 2.43962 0
M  V30 2574 H 249.659 -0.410806 3.64291 0
M  V30 2575 H 249.307 -2.83307 4.15628 0
M  V30 2576 H 249.007 -1.81654 5.58816 0
M  V30 2577 H 250.531 -2.73968 5.45687 0
M  V30 2578 H 251.945 -0.482687 5.71264 0
M  V30 2579 H 250.342 0.256199 5.99553 0
M  V30 2580 H 251.412 0.938174 4.75738 0
M  V30 2581 N 252.755 -1.56801 0.158532 0
M  V30 2582 C 254.004 -1.95665 -0.489702 0
M  V30 2583 C 254.317 -1.04654 -1.65248 0
M  V30 2584 O 255.523 -1.33146 -2.3661 0
M  V30 2585 C 253.979 -3.47874 -0.922582 0
M  V30 2586 C 253.587 -4.47489 0.213893 0
M  V30 2587 C 255.331 -3.95583 -1.53996 0
M  V30 2588 C 253.238 -5.90921 -0.237903 0
M  V30 2589 H 252.168 -0.730516 -0.186716 0
M  V30 2590 H 254.819 -1.81861 0.244722 0
M  V30 2591 H 253.201 -3.57051 -1.71261 0
M  V30 2592 H 254.375 -4.50017 0.991036 0
M  V30 2593 H 252.69 -4.09764 0.740407 0
M  V30 2594 H 255.287 -5.0019 -1.8898 0
M  V30 2595 H 255.63 -3.37789 -2.43319 0
M  V30 2596 H 256.163 -3.8937 -0.814611 0
M  V30 2597 H 252.902 -6.52559 0.620236 0
M  V30 2598 H 252.422 -5.91729 -0.980676 0
M  V30 2599 H 254.101 -6.43352 -0.686067 0
M  V30 2600 N 254.233 0.115231 -1.57178 0
M  V30 2601 C 255.196 1.12526 -1.99676 0
M  V30 2602 C 256.196 1.34095 -0.88742 0
M  V30 2603 O 257.386 1.30548 -1.15337 0
M  V30 2604 C 254.518 2.4789 -2.34015 0
M  V30 2605 H 255.711 0.759912 -2.90113 0
M  V30 2606 H 253.264 0.359648 -1.52106 0
M  V30 2607 H 253.999 2.89339 -1.4647 0
M  V30 2608 H 253.784 2.33588 -3.14927 0
M  V30 2609 H 255.274 3.20575 -2.67622 0
M  V30 2610 N 255.711 1.52812 0.385517 0
M  V30 2611 C 256.643 1.74096 1.49074 0
M  V30 2612 C 257.656 0.621462 1.50472 0
M  V30 2613 O 258.845 0.897245 1.54311 0
M  V30 2614 C 255.945 1.78774 2.87911 0
M  V30 2615 C 255.118 3.08134 3.10439 0
M  V30 2616 C 254.177 3.04313 4.29278 0
M  V30 2617 O 253.203 3.78168 4.25415 0
M  V30 2618 N 254.405 2.23741 5.35649 0
M  V30 2619 H 257.17 2.69455 1.31202 0
M  V30 2620 H 254.731 1.51343 0.575065 0
M  V30 2621 H 256.723 1.73721 3.65518 0
M  V30 2622 H 255.293 0.907869 2.99126 0
M  V30 2623 H 254.513 3.26649 2.20667 0
M  V30 2624 H 255.801 3.93662 3.22347 0
M  V30 2625 H 255.199 1.63211 5.41645 0
M  V30 2626 H 253.756 2.24524 6.11909 0
M  V30 2627 N 257.189 -0.644168 1.43834 0
M  V30 2628 C 258.437 -1.40117 1.45642 0
M  V30 2629 C 258.758 -1.94814 0.0852413 0
M  V30 2630 O 258.028 -1.74988 -0.880688 0
M  V30 2631 H 256.608 -0.52005 0.536243 0
M  V30 2632 H 259.27 -0.7591 1.7951 0
M  V30 2633 H 258.366 -2.23902 2.17427 0
M  V30 2634 N 258.668 -1.30515 -0.883378 0
M  V30 2635 C 260.079 -1.17509 -1.45081 0
M  V30 2636 C 260.43 0.223605 -1.94922 0
M  V30 2637 O 259.555 1.12041 -1.85137 0
M  V30 2638 C 260.15 -2.12715 -2.63701 0
M  V30 2639 C 258.709 -2.03682 -3.16529 0
M  V30 2640 C 257.856 -2.02706 -1.89224 0
M  V30 2641 H 260.807 -1.42762 -0.693165 0
M  V30 2642 H 260.828 -1.70891 -3.39965 0
M  V30 2643 H 260.34 -3.14505 -2.27395 0
M  V30 2644 H 258.441 -1.05039 -3.57488 0
M  V30 2645 H 258.554 -2.92146 -3.7972 0
M  V30 2646 H 256.918 -1.4753 -2.07622 0
M  V30 2647 H 257.701 -3.06229 -1.55174 0
M  V30 2648 N 260.146 1.09593 -1.13257 0
M  V30 2649 C 261.078 2.16015 -0.766167 0
M  V30 2650 C 262.091 1.61423 0.211303 0
M  V30 2651 O 263.28 1.78498 -0.00863946 0
M  V30 2652 C 260.38 3.38706 -0.114662 0
M  V30 2653 C 259.553 4.22717 -1.12379 0
M  V30 2654 C 258.612 5.23835 -0.498301 0
M  V30 2655 O 257.638 5.573 -1.15781 0
M  V30 2656 N 258.84 5.75886 0.730417 0
M  V30 2657 H 261.605 2.48055 -1.68193 0
M  V30 2658 H 259.166 1.25292 -1.02535 0
M  V30 2659 H 261.158 4.03464 0.315991 0
M  V30 2660 H 259.728 3.04569 0.704011 0
M  V30 2661 H 258.948 3.54122 -1.73179 0
M  V30 2662 H 260.236 4.75673 -1.80589 0
M  V30 2663 H 259.634 5.50911 1.28504 0
M  V30 2664 H 258.191 6.42387 1.10376 0
M  V30 2665 N 261.624 0.925811 1.2754 0
M  V30 2666 C 262.873 0.561084 1.93739 0
M  V30 2667 C 263.186 -0.901685 1.73577 0
M  V30 2668 O 264.392 -1.37511 2.34101 0
M  V30 2669 C 262.848 0.952668 3.47062 0
M  V30 2670 C 262.456 2.43599 3.75983 0
M  V30 2671 C 264.2 0.659103 4.19352 0
M  V30 2672 C 262.107 2.76707 5.22673 0
M  V30 2673 H 261.037 0.206122 0.725279 0
M  V30 2674 H 263.688 1.12637 1.44863 0
M  V30 2675 H 262.07 0.316053 3.94737 0
M  V30 2676 H 263.244 3.12035 3.39073 0
M  V30 2677 H 261.559 2.70125 3.16893 0
M  V30 2678 H 264.156 0.882985 5.27359 0
M  V30 2679 H 264.499 -0.403607 4.14339 0
M  V30 2680 H 265.032 1.25473 3.77494 0
M  V30 2681 H 261.771 3.8188 5.32774 0
M  V30 2682 H 261.291 2.12919 5.60737 0
M  V30 2683 H 262.97 2.6435 5.90532 0
M  V30 2684 N 263.102 -1.41638 0.69111 0
M  V30 2685 C 264.348 -2.01598 0.220519 0
M  V30 2686 C 264.681 -1.54594 -1.17535 0
M  V30 2687 O 263.956 -0.755177 -1.79241 0
M  V30 2688 C 264.239 -3.59062 0.273243 0
M  V30 2689 C 264.092 -4.16203 1.70573 0
M  V30 2690 C 265.411 -4.38546 -0.369457 0
M  V30 2691 H 262.53 -0.732468 0.0816045 0
M  V30 2692 H 265.172 -1.68445 0.878986 0
M  V30 2693 H 263.322 -3.87435 -0.287411 0
M  V30 2694 H 264.994 -3.98722 2.31989 0
M  V30 2695 H 263.237 -3.71414 2.2413 0
M  V30 2696 H 263.908 -5.25358 1.69419 0
M  V30 2697 H 266.384 -4.1596 0.107977 0
M  V30 2698 H 265.26 -5.48069 -0.302002 0
M  V30 2699 H 265.521 -4.17662 -1.44951 0
M  V30 2700 N 264.58 -0.43555 -1.51462 0
M  V30 2701 C 265.51 0.367376 -2.30592 0
M  V30 2702 C 266.491 1.02263 -1.35928 0
M  V30 2703 O 267.676 1.02661 -1.64847 0
M  V30 2704 C 264.806 1.46983 -3.14664 0
M  V30 2705 C 263.76 0.938161 -4.17591 0
M  V30 2706 C 263.086 2.13622 -4.90173 0
M  V30 2707 C 264.386 -0.0261621 -5.22293 0
M  V30 2708 H 266.08 -0.292969 -2.97963 0
M  V30 2709 H 263.626 -0.14234 -1.43295 0
M  V30 2710 H 265.579 2.03873 -3.688 0
M  V30 2711 H 264.303 2.15843 -2.4511 0
M  V30 2712 H 262.962 0.391481 -3.64504 0
M  V30 2713 H 262.61 2.81098 -4.17124 0
M  V30 2714 H 262.31 1.78688 -5.59772 0
M  V30 2715 H 263.834 2.7107 -5.47132 0
M  V30 2716 H 265.248 0.452384 -5.71512 0
M  V30 2717 H 263.645 -0.287992 -5.99409 0
M  V30 2718 H 264.715 -0.963391 -4.75233 0
M  V30 2719 N 266.058 1.56714 -0.166846 0
M  V30 2720 C 267.304 1.97039 0.479962 0
M  V30 2721 C 267.637 1.05264 1.63197 0
M  V30 2722 O 266.912 0.0988833 1.94248 0
M  V30 2723 C 267.195 3.46867 0.967212 0
M  V30 2724 C 267.048 4.49421 -0.18466 0
M  V30 2725 C 268.367 3.9968 1.84238 0
M  V30 2726 H 265.486 0.71641 0.172992 0
M  V30 2727 H 268.128 1.8832 -0.252079 0
M  V30 2728 H 266.278 3.54428 1.59101 0
M  V30 2729 H 267.95 4.53924 -0.821621 0
M  V30 2730 H 266.193 4.25573 -0.840837 0
M  V30 2731 H 266.864 5.51644 0.198317 0
M  V30 2732 H 269.34 3.94723 1.31655 0
M  V30 2733 H 268.216 5.04941 2.15234 0
M  V30 2734 H 268.477 3.43226 2.78654 0
M  V30 2735 N 267.536 -0.106894 1.57237 0
M  V30 2736 C 268.483 -1.13049 2.01217 0
M  V30 2737 C 269.453 -1.40471 0.886403 0
M  V30 2738 O 270.638 -1.52133 1.15153 0
M  V30 2739 C 267.778 -2.4487 2.43172 0
M  V30 2740 C 266.891 -2.24281 3.69218 0
M  V30 2741 C 266.026 -3.49417 4.00101 0
M  V30 2742 C 265.065 -3.24038 5.19294 0
M  V30 2743 N 264.202 -4.41409 5.45988 0
M  V30 2744 H 269.042 -0.748456 2.88448 0
M  V30 2745 H 266.579 -0.358054 1.42676 0
M  V30 2746 H 268.537 -3.21786 2.65537 0
M  V30 2747 H 267.167 -2.80944 1.58967 0
M  V30 2748 H 266.219 -1.38224 3.54398 0
M  V30 2749 H 267.531 -2.01512 4.56283 0
M  V30 2750 H 266.685 -4.34746 4.2318 0
M  V30 2751 H 265.424 -3.75229 3.11535 0
M  V30 2752 H 264.429 -2.37102 4.96047 0
M  V30 2753 H 265.654 -2.99584 6.09447 0
M  V30 2754 H 263.6 -4.67319 4.60379 0
M  V30 2755 H 263.517 -4.21788 6.274 0
M  V30 2756 H 264.785 -5.27836 5.73593 0
M  V30 2757 N 269.014 -1.53014 -0.377408 0
M  V30 2758 C 269.964 -1.74996 -1.46152 0
M  V30 2759 C 270.948 -0.604236 -1.49123 0
M  V30 2760 O 272.14 -0.862489 -1.54564 0
M  V30 2761 C 269.269 -1.93267 -2.8373 0
M  V30 2762 C 268.355 -3.13807 -2.85283 0
M  V30 2763 N 268.746 -4.35941 -2.56493 0
M  V30 2764 C 267.044 -3.14288 -3.16448 0
M  V30 2765 C 267.745 -5.17615 -2.65424 0
M  V30 2766 N 266.721 -4.53559 -2.99641 0
M  V30 2767 H 270.523 -2.67044 -1.22738 0
M  V30 2768 H 268.037 -1.51479 -0.585479 0
M  V30 2769 H 270.034 -2.0714 -3.61799 0
M  V30 2770 H 268.694 -1.0244 -3.08117 0
M  V30 2771 H 269.705 -4.63876 -2.30302 0
M  V30 2772 H 266.382 -2.33312 -3.46225 0
M  V30 2773 H 267.772 -6.25006 -2.46612 0
M  V30 2774 N 270.492 0.636531 -1.44174 0
M  V30 2775 C 271.422 1.76003 -1.53444 0
M  V30 2776 C 272.403 1.65619 -0.387841 0
M  V30 2777 O 273.588 1.84461 -0.607257 0
M  V30 2778 C 270.718 3.14511 -1.4731 0
M  V30 2779 C 269.672 3.39677 -2.60391 0
M  V30 2780 C 268.998 4.78159 -2.39308 0
M  V30 2781 C 270.298 3.32772 -4.02567 0
M  V30 2782 H 271.992 1.68501 -2.47483 0
M  V30 2783 H 269.538 0.809237 -1.19111 0
M  V30 2784 H 271.491 3.92878 -1.52397 0
M  V30 2785 H 270.215 3.22783 -0.49785 0
M  V30 2786 H 268.874 2.63688 -2.54684 0
M  V30 2787 H 268.522 4.83128 -1.39988 0
M  V30 2788 H 268.222 4.95956 -3.15122 0
M  V30 2789 H 269.746 5.58762 -2.46205 0
M  V30 2790 H 271.16 4.01051 -4.09672 0
M  V30 2791 H 269.557 3.62104 -4.7854 0
M  V30 2792 H 270.627 2.30669 -4.2652 0
M  V30 2793 N 271.97 1.30982 0.876444 0
M  V30 2794 C 272.933 1.18054 1.96459 0
M  V30 2795 C 273.933 0.109399 1.60427 0
M  V30 2796 O 275.123 0.358173 1.70478 0
M  V30 2797 C 272.255 0.810616 3.31122 0
M  V30 2798 H 273.448 2.14735 2.09354 0
M  V30 2799 H 271.001 1.145 1.06392 0
M  V30 2800 H 271.736 -0.155322 3.23928 0
M  V30 2801 H 271.521 1.58481 3.58645 0
M  V30 2802 H 273.011 0.743876 4.10921 0
M  V30 2803 N 273.449 -1.08991 1.13837 0
M  V30 2804 C 274.865 -1.33312 0.877506 0
M  V30 2805 C 275.065 -1.95587 -0.48456 0
M  V30 2806 O 274.121 -2.20509 -1.23013 0
M  V30 2807 C 275.434 -2.24045 2.0056 0
M  V30 2808 C 276.982 -2.37542 2.03821 0
M  V30 2809 C 277.457 -3.31614 3.15905 0
M  V30 2810 N 278.948 -3.39189 3.15445 0
M  V30 2811 C 279.683 -4.11992 3.98811 0
M  V30 2812 N 279.179 -4.87553 4.92203 0
M  V30 2813 N 280.972 -4.07762 3.86894 0
M  V30 2814 H 273.123 -0.669456 2.01574 0
M  V30 2815 H 275.386 -0.357482 0.878015 0
M  V30 2816 H 275.092 -1.85521 2.98789 0
M  V30 2817 H 274.966 -3.24466 1.92359 0
M  V30 2818 H 277.353 -2.75327 1.06202 0
M  V30 2819 H 277.434 -1.36884 2.16093 0
M  V30 2820 H 277.078 -2.94551 4.13766 0
M  V30 2821 H 277.008 -4.32186 3.0087 0
M  V30 2822 H 279.499 -2.85314 2.47799 0
M  V30 2823 H 279.812 -5.40549 5.52292 0
M  V30 2824 H 278.157 -4.86627 4.96205 0
M  V30 2825 H 281.348 -3.47833 3.13257 0
M  V30 2826 H 281.521 -4.64238 4.52092 0
M  V30 2827 N 274.927 -0.932562 -1.27047 0
M  V30 2828 C 275.89 -0.440064 -2.24936 0
M  V30 2829 C 276.89 0.444071 -1.54547 0
M  V30 2830 O 278.08 0.244465 -1.72476 0
M  V30 2831 C 275.212 0.36678 -3.38921 0
M  V30 2832 H 276.405 -1.305 -2.70018 0
M  V30 2833 H 273.958 -0.713707 -1.39054 0
M  V30 2834 H 274.693 1.25033 -2.99228 0
M  V30 2835 H 274.478 -0.267204 -3.91188 0
M  V30 2836 H 275.968 0.701567 -4.11665 0
M  V30 2837 N 276.405 1.4127 -0.698611 0
M  V30 2838 C 277.653 2.00782 -0.230409 0
M  V30 2839 C 277.974 1.5562 1.17505 0
M  V30 2840 O 277.244 0.78815 1.79346 0
M  V30 2841 H 275.824 0.742464 -0.0821944 0
M  V30 2842 H 278.486 1.72852 -0.90045 0
M  V30 2843 H 277.582 3.11095 -0.25021 0
M  V30 2844 N 277.883 0.443576 1.51229 0
M  V30 2845 C 279.113 -0.119117 2.06256 0
M  V30 2846 C 279.521 -1.36471 1.31043 0
M  V30 2847 O 278.864 -1.80034 0.365151 0
M  V30 2848 C 278.926 -0.500546 3.55998 0
M  V30 2849 C 278.59 0.639125 4.52509 0
M  V30 2850 C 279.587 1.51311 4.97394 0
M  V30 2851 C 277.272 0.821632 4.95535 0
M  V30 2852 C 279.266 2.55425 5.83984 0
M  V30 2853 C 276.953 1.86603 5.81913 0
M  V30 2854 C 277.951 2.73072 6.26036 0
M  V30 2855 O 277.639 3.75718 7.10698 0
M  V30 2856 H 277.371 -0.00857665 0.675946 0
M  V30 2857 H 279.925 0.623288 1.95715 0
M  V30 2858 H 278.155 -1.29575 3.64345 0
M  V30 2859 H 279.844 -0.995116 3.93513 0
M  V30 2860 H 280.61 1.38367 4.64844 0
M  V30 2861 H 276.489 0.158149 4.60729 0
M  V30 2862 H 280.033 3.22949 6.18344 0
M  V30 2863 H 275.93 1.99564 6.13876 0
M  V30 2864 H 276.698 3.72374 7.2889 0
M  V30 2865 N 279.361 -1.56624 0.175154 0
M  V30 2866 C 280.586 -2.01813 -0.478137 0
M  V30 2867 C 281.011 -1.05457 -1.55757 0
M  V30 2868 O 280.369 -0.0347439 -1.81267 0
M  V30 2869 C 280.417 -3.45581 -1.02987 0
M  V30 2870 O 279.521 -3.52305 -2.14371 0
M  V30 2871 H 278.862 -0.65413 -0.114059 0
M  V30 2872 H 281.392 -2.02673 0.280173 0
M  V30 2873 H 281.402 -3.84965 -1.35151 0
M  V30 2874 H 280.077 -4.1521 -0.239556 0
M  V30 2875 H 278.654 -3.24783 -1.83222 0
M  V30 2876 N 280.839 0.0985539 -1.57292 0
M  V30 2877 C 282.255 0.45267 -1.53046 0
M  V30 2878 C 282.455 1.80713 -0.891342 0
M  V30 2879 O 281.511 2.4785 -0.482375 0
M  V30 2880 C 282.824 0.418341 -2.97776 0
M  V30 2881 C 284.372 0.500443 -3.08973 0
M  V30 2882 C 284.847 0.496297 -4.55303 0
M  V30 2883 N 286.338 0.557151 -4.59837 0
M  V30 2884 C 287.073 0.575726 -5.70502 0
M  V30 2885 N 286.569 0.550714 -6.90608 0
M  V30 2886 N 288.362 0.620277 -5.58667 0
M  V30 2887 H 280.513 -0.788673 -1.97215 0
M  V30 2888 H 282.776 -0.293188 -0.901524 0
M  V30 2889 H 282.482 -0.509659 -3.47988 0
M  V30 2890 H 282.356 1.2386 -3.56284 0
M  V30 2891 H 284.743 1.41886 -2.58751 0
M  V30 2892 H 284.824 -0.347894 -2.53423 0
M  V30 2893 H 284.468 -0.418162 -5.06176 0
M  V30 2894 H 284.398 1.3618 -5.08687 0
M  V30 2895 H 286.889 0.581816 -3.73394 0
M  V30 2896 H 287.202 0.568075 -7.70709 0
M  V30 2897 H 285.547 0.517816 -6.93068 0
M  V30 2898 H 288.738 0.637322 -4.63741 0
M  V30 2899 H 288.911 0.631283 -6.44918 0
M  V30 2900 N 282.317 1.53212 0.369288 0
M  V30 2901 C 283.594 1.59815 1.12776 0
M  V30 2902 C 283.974 0.403402 2.0721 0
M  V30 2903 O 283.322 -0.606667 2.20299 0
M  V30 2904 C 283.532 2.94664 1.87013 0
M  V30 2905 C 284.88 3.49109 2.41677 0
M  V30 2906 O 285.904 2.96669 1.97144 0
M  V30 2907 O 284.763 4.40775 3.23079 0
M  V30 2908 H 281.857 0.645376 0.517125 0
M  V30 2909 H 284.403 1.65553 0.37285 0
M  V30 2910 H 283.175 3.73061 1.18071 0
M  V30 2911 H 282.798 2.92401 2.69421 0
M  V30 2912 N 283.795 -0.628877 1.44509 0
M  V30 2913 C 285.211 -0.947305 1.28446 0
M  V30 2914 C 285.411 -2.00275 0.221872 0
M  V30 2915 O 284.467 -2.49447 -0.391471 0
M  V30 2916 C 285.78 -1.40843 2.65676 0
M  V30 2917 C 287.328 -1.52379 2.73404 0
M  V30 2918 C 287.803 -2.01875 4.11109 0
M  V30 2919 N 289.294 -2.09142 4.13296 0
M  V30 2920 C 290.029 -2.48615 5.16699 0
M  V30 2921 N 289.525 -2.87209 6.30462 0
M  V30 2922 N 291.318 -2.48768 5.04054 0
M  V30 2923 H 283.469 0.0690977 2.12288 0
M  V30 2924 H 285.732 -0.0317164 0.947469 0
M  V30 2925 H 285.438 -0.707206 3.44516 0
M  V30 2926 H 285.312 -2.37902 2.92716 0
M  V30 2927 H 287.699 -2.21598 1.9488 0
M  V30 2928 H 287.78 -0.536898 2.50102 0
M  V30 2929 H 287.424 -1.3325 4.90109 0
M  V30 2930 H 287.354 -3.0144 4.31789 0
M  V30 2931 H 289.845 -1.81991 3.31191 0
M  V30 2932 H 290.158 -3.16149 7.05174 0
M  V30 2933 H 288.503 -2.84955 6.33897 0
M  V30 2934 H 291.694 -2.18009 4.14234 0
M  V30 2935 H 291.867 -2.79207 5.84763 0
M  V30 2936 N 285.273 -1.31445 -0.869486 0
M  V30 2937 C 286.52 -1.21158 -1.62256 0
M  V30 2938 C 286.848 0.230155 -1.93133 0
M  V30 2939 O 286.103 1.17906 -1.56194 0
M  V30 2940 C 286.402 -2.00145 -2.96102 0
M  V30 2941 C 286.068 -3.4964 -2.84715 0
M  V30 2942 C 284.73 -3.90403 -2.81317 0
M  V30 2943 C 287.082 -4.44769 -2.71716 0
M  V30 2944 C 284.41 -5.24561 -2.62778 0
M  V30 2945 C 286.762 -5.79054 -2.54714 0
M  V30 2946 C 285.426 -6.19037 -2.49699 0
M  V30 2947 H 284.696 -0.443348 -0.593737 0
M  V30 2948 H 287.343 -1.62715 -1.00976 0
M  V30 2949 H 285.648 -1.5127 -3.6142 0
M  V30 2950 H 287.345 -1.89566 -3.53363 0
M  V30 2951 H 283.935 -3.17256 -2.88178 0
M  V30 2952 H 288.119 -4.14208 -2.73397 0
M  V30 2953 H 283.375 -5.54613 -2.57321 0
M  V30 2954 H 287.549 -6.52393 -2.43632 0
M  V30 2955 H 285.176 -7.22935 -2.35093 0
M  V30 2956 N 286.751 1.08385 -1.14413 0
M  V30 2957 C 287.661 2.18856 -0.844951 0
M  V30 2958 C 288.677 1.73121 0.174668 0
M  V30 2959 O 289.853 2.014 0.00312857 0
M  V30 2960 C 286.918 3.45155 -0.32696 0
M  V30 2961 C 285.979 4.05513 -1.40916 0
M  V30 2962 C 285.212 5.25784 -0.915793 0
M  V30 2963 O 285.435 5.69884 0.242651 0
M  V30 2964 O 284.369 5.77545 -1.69487 0
M  V30 2965 H 288.195 2.46919 -1.76818 0
M  V30 2966 H 285.78 1.17524 -0.922411 0
M  V30 2967 H 287.662 4.21377 -0.0440211 0
M  V30 2968 H 286.337 3.18668 0.568539 0
M  V30 2969 H 285.244 3.30879 -1.74556 0
M  V30 2970 H 286.577 4.3625 -2.27919 0
M  V30 2971 N 288.23 0.939286 1.26551 0
M  V30 2972 C 289.163 0.391702 2.24813 0
M  V30 2973 C 290.141 -0.518421 1.54114 0
M  V30 2974 O 291.325 -0.456299 1.82894 0
M  V30 2975 C 288.452 -0.437382 3.35864 0
M  V30 2976 C 287.498 0.410946 4.24516 0
M  V30 2977 S 288.331 1.83372 5.03125 0
M  V30 2978 C 289.487 1.01264 6.17654 0
M  V30 2979 H 289.72 1.22448 2.70913 0
M  V30 2980 H 287.253 0.742269 1.35387 0
M  V30 2981 H 289.211 -0.909837 4.0029 0
M  V30 2982 H 287.872 -1.24482 2.8838 0
M  V30 2983 H 287.065 -0.224191 5.03501 0
M  V30 2984 H 286.667 0.818014 3.64945 0
M  V30 2985 H 288.959 0.254023 6.77024 0
M  V30 2986 H 289.902 1.77589 6.85469 0
M  V30 2987 H 290.31 0.549532 5.61819 0
M  V30 2988 N 289.708 -1.40897 0.706093 0
M  V30 2989 C 290.638 -2.33418 0.0620085 0
M  V30 2990 C 291.619 -1.52385 -0.755827 0
M  V30 2991 O 292.804 -1.80886 -0.706674 0
M  V30 2992 C 289.934 -3.36293 -0.867445 0
M  V30 2993 C 288.888 -4.27716 -0.155932 0
M  V30 2994 C 288.214 -5.2105 -1.20046 0
M  V30 2995 C 289.514 -5.12944 0.984149 0
M  V30 2996 H 291.208 -2.87527 0.83477 0
M  V30 2997 H 288.754 -1.38249 0.402875 0
M  V30 2998 H 290.707 -3.99949 -1.32735 0
M  V30 2999 H 289.431 -2.80556 -1.67199 0
M  V30 3000 H 288.09 -3.65498 0.284047 0
M  V30 3001 H 287.738 -4.61624 -1.99781 0
M  V30 3002 H 287.438 -5.83056 -0.729328 0
M  V30 3003 H 288.962 -5.87584 -1.66066 0
M  V30 3004 H 290.376 -5.70109 0.604048 0
M  V30 3005 H 288.773 -5.83945 1.38304 0
M  V30 3006 H 289.843 -4.49485 1.81911 0
M  V30 3007 N 291.186 -0.45159 -1.50991 0
M  V30 3008 C 292.116 0.342898 -2.30969 0
M  V30 3009 C 293.097 1.00815 -1.37005 0
M  V30 3010 O 294.282 1.00907 -1.65926 0
M  V30 3011 C 291.412 1.43637 -3.16205 0
M  V30 3012 C 290.366 0.893818 -4.18563 0
M  V30 3013 C 289.692 2.08411 -4.92411 0
M  V30 3014 C 290.992 -0.0815568 -5.22236 0
M  V30 3015 H 292.686 -0.324556 -2.97636 0
M  V30 3016 H 290.232 -0.157531 -1.43136 0
M  V30 3017 H 292.185 1.9995 -3.70942 0
M  V30 3018 H 290.909 2.13232 -2.47386 0
M  V30 3019 H 289.568 0.352798 -3.64898 0
M  V30 3020 H 289.216 2.76658 -4.20082 0
M  V30 3021 H 288.916 1.72741 -5.61636 0
M  V30 3022 H 290.44 2.65251 -5.49976 0
M  V30 3023 H 291.854 0.391742 -5.7196 0
M  V30 3024 H 290.251 -0.351551 -5.99069 0
M  V30 3025 H 291.321 -1.01374 -4.74185 0
M  V30 3026 N 292.664 1.56529 -0.183458 0
M  V30 3027 C 293.91 1.97537 0.459036 0
M  V30 3028 C 294.243 1.06989 1.62071 0
M  V30 3029 O 293.518 0.11948 1.94133 0
M  V30 3030 C 293.801 3.47874 0.930368 0
M  V30 3031 C 293.654 4.492 -0.232317 0
M  V30 3032 C 294.973 4.01612 1.79989 0
M  V30 3033 H 292.092 0.718204 0.165383 0
M  V30 3034 H 294.734 1.88042 -0.272038 0
M  V30 3035 H 292.884 3.56095 1.55333 0
M  V30 3036 H 294.556 4.53027 -0.86972 0
M  V30 3037 H 292.799 4.24657 -0.885928 0
M  V30 3038 H 293.47 5.51823 0.139796 0
M  V30 3039 H 295.946 3.96097 1.27461 0
M  V30 3040 H 294.822 5.07195 2.09867 0
M  V30 3041 H 295.083 3.46163 2.74998 0
M  V30 3042 N 294.142 -0.090211 1.57342 0
M  V30 3043 C 295.37 -0.806224 1.90546 0
M  V30 3044 C 295.785 -1.72041 0.777644 0
M  V30 3045 O 295.142 -1.80778 -0.250103 0
M  V30 3046 C 295.193 -1.61546 3.23396 0
M  V30 3047 O 294.914 -0.738043 4.31839 0
M  V30 3048 C 296.415 -2.4341 3.70495 0
M  V30 3049 H 293.635 -0.230256 0.630257 0
M  V30 3050 H 296.179 -0.0659843 2.04394 0
M  V30 3051 H 294.334 -2.30816 3.11131 0
M  V30 3052 H 294.748 -1.29901 5.08159 0
M  V30 3053 H 296.222 -2.95676 4.66133 0
M  V30 3054 H 296.699 -3.22098 2.98579 0
M  V30 3055 H 297.305 -1.79331 3.85643 0
M  V30 3056 N 295.62 -1.53406 -0.361157 0
M  V30 3057 C 296.583 -1.79479 -1.42548 0
M  V30 3058 C 297.583 -0.665327 -1.4639 0
M  V30 3059 O 298.773 -0.933549 -1.47073 0
M  V30 3060 C 295.905 -1.92087 -2.8163 0
M  V30 3061 H 297.098 -2.74538 -1.20701 0
M  V30 3062 H 294.651 -1.4455 -0.594546 0
M  V30 3063 H 295.386 -0.991099 -3.08784 0
M  V30 3064 H 295.171 -2.74241 -2.80239 0
M  V30 3065 H 296.661 -2.13836 -3.58697 0
M  V30 3066 N 297.098 0.621204 -1.44841 0
M  V30 3067 C 298.375 1.38 -1.38619 0
M  V30 3068 C 298.755 2.11041 -0.0498935 0
M  V30 3069 O 298.103 2.06992 0.967816 0
M  V30 3070 C 298.313 2.33817 -2.59096 0
M  V30 3071 C 299.661 2.96844 -3.03593 0
M  V30 3072 O 300.685 2.44141 -2.59371 0
M  V30 3073 O 299.544 3.92476 -3.80296 0
M  V30 3074 H 296.638 0.61811 -0.549426 0
M  V30 3075 H 299.184 0.645429 -1.56947 0
M  V30 3076 H 297.956 1.79012 -3.47952 0
M  V30 3077 H 297.579 3.14676 -2.43032 0
M  V30 3078 N 298.576 1.31904 0.862503 0
M  V30 3079 C 299.486 1.22161 2.00285 0
M  V30 3080 C 300.502 0.136785 1.73462 0
M  V30 3081 O 301.678 0.355994 1.98229 0
M  V30 3082 C 298.743 0.937093 3.33796 0
M  V30 3083 C 297.804 2.10957 3.73893 0
M  V30 3084 C 297.037 1.83853 5.01033 0
M  V30 3085 O 297.26 0.777274 5.65079 0
M  V30 3086 O 296.194 2.69741 5.38074 0
M  V30 3087 H 300.02 2.18008 2.11439 0
M  V30 3088 H 297.605 1.11716 0.991957 0
M  V30 3089 H 299.487 0.794583 4.13841 0
M  V30 3090 H 298.162 0.00871894 3.23699 0
M  V30 3091 H 297.069 2.30752 2.94456 0
M  V30 3092 H 298.402 3.02046 3.88625 0
M  V30 3093 N 300.054 -1.07777 1.14986 0
M  V30 3094 C 301.017 -2.13041 0.845358 0
M  V30 3095 C 302.017 -1.60071 -0.152931 0
M  V30 3096 O 303.207 -1.74033 0.0761879 0
M  V30 3097 C 300.339 -3.39896 0.261383 0
M  V30 3098 H 301.532 -2.41485 1.77834 0
M  V30 3099 H 299.085 -1.23595 0.956757 0
M  V30 3100 H 299.82 -3.17091 -0.68 0
M  V30 3101 H 299.605 -3.79642 0.980514 0
M  V30 3102 H 301.095 -4.17548 0.0657687 0
M  V30 3103 N 301.532 -0.945985 -1.26051 0
M  V30 3104 C 302.778 -0.606539 -1.94146 0
M  V30 3105 C 303.133 0.84586 -1.72809 0
M  V30 3106 O 302.426 1.59781 -1.05738 0
M  V30 3107 C 302.62 -0.890475 -3.46129 0
M  V30 3108 C 302.449 -2.36892 -3.82246 0
M  V30 3109 C 301.219 -3.02494 -4.04753 0
M  V30 3110 C 303.417 -3.34772 -3.90425 0
M  V30 3111 N 301.399 -4.40302 -4.27794 0
M  V30 3112 C 302.77 -4.57855 -4.18054 0
M  V30 3113 C 304.825 -3.2973 -3.73072 0
M  V30 3114 C 303.528 -5.76522 -4.30134 0
M  V30 3115 C 305.554 -4.47727 -3.86386 0
M  V30 3116 C 304.916 -5.69593 -4.14419 0
M  V30 3117 H 301.015 -0.272407 -0.73302 0
M  V30 3118 H 303.599 -1.21638 -1.52027 0
M  V30 3119 H 301.77 -0.309638 -3.87164 0
M  V30 3120 H 303.502 -0.51181 -4.01451 0
M  V30 3121 H 300.257 -2.53095 -4.003 0
M  V30 3122 H 300.681 -5.11646 -4.43337 0
M  V30 3123 H 305.323 -2.36565 -3.50424 0
M  V30 3124 H 303.041 -6.70136 -4.51601 0
M  V30 3125 H 306.627 -4.45363 -3.74356 0
M  V30 3126 H 305.507 -6.59375 -4.24493 0
M  V30 3127 N 303.011 1.40521 -0.713556 0
M  V30 3128 C 303.961 2.27971 -0.036165 0
M  V30 3129 C 304.945 1.43151 0.734623 0
M  V30 3130 O 306.137 1.66261 0.607158 0
M  V30 3131 C 303.266 3.31661 0.886331 0
M  V30 3132 C 302.352 4.23955 0.110836 0
M  V30 3133 N 302.743 4.97641 -0.904847 0
M  V30 3134 C 301.041 4.44674 0.343692 0
M  V30 3135 C 301.742 5.65322 -1.37064 0
M  V30 3136 N 300.718 5.39162 -0.693168 0
M  V30 3137 H 304.52 2.82384 -0.814645 0
M  V30 3138 H 302.034 1.52948 -0.545963 0
M  V30 3139 H 304.031 3.93154 1.38692 0
M  V30 3140 H 302.691 2.78808 1.66421 0
M  V30 3141 H 303.702 5.01689 -1.28563 0
M  V30 3142 H 300.379 4.02801 1.09805 0
M  V30 3143 H 301.769 6.34359 -2.21447 0
M  V30 3144 N 304.489 0.459591 1.5075 0
M  V30 3145 C 305.738 -0.100971 2.01447 0
M  V30 3146 C 306.051 -1.41816 1.34713 0
M  V30 3147 O 307.257 -2.06299 1.76502 0
M  V30 3148 C 305.713 -0.23047 3.59161 0
M  V30 3149 C 305.321 1.0776 4.34847 0
M  V30 3150 C 307.065 -0.743608 4.17936 0
M  V30 3151 C 304.972 0.91253 5.84317 0
M  V30 3152 H 303.902 -0.0415102 0.752856 0
M  V30 3153 H 306.553 0.592742 1.73663 0
M  V30 3154 H 304.935 -0.987703 3.83485 0
M  V30 3155 H 306.109 1.8449 4.22256 0
M  V30 3156 H 304.424 1.52097 3.87628 0
M  V30 3157 H 307.021 -0.883959 5.27343 0
M  V30 3158 H 307.364 -1.73196 3.78562 0
M  V30 3159 H 307.897 -0.04408 3.97776 0
M  V30 3160 H 304.636 1.87391 6.28144 0
M  V30 3161 H 304.156 0.185422 5.99513 0
M  V30 3162 H 305.835 0.574547 6.44444 0
M  V30 3163 N 305.967 -1.56429 0.191757 0
M  V30 3164 C 307.192 -2.02309 -0.456706 0
M  V30 3165 C 307.617 -1.07103 -1.5463 0
M  V30 3166 O 306.975 -0.0539677 -1.8122 0
M  V30 3167 C 307.023 -3.46654 -0.993159 0
M  V30 3168 O 306.127 -3.54559 -2.10622 0
M  V30 3169 H 305.468 -0.655303 -0.107114 0
M  V30 3170 H 307.998 -2.02364 0.301653 0
M  V30 3171 H 308.008 -3.86377 -1.31061 0
M  V30 3172 H 306.683 -4.1544 -0.195504 0
M  V30 3173 H 305.26 -3.26708 -1.79767 0
M  V30 3174 N 307.445 0.0818655 -1.57387 0
M  V30 3175 C 308.861 0.436412 -1.53517 0
M  V30 3176 C 309.061 1.79758 -0.910459 0
M  V30 3177 O 308.117 2.47324 -0.508636 0
M  V30 3178 C 309.43 0.386734 -2.98203 0
M  V30 3179 C 310.978 0.467644 -3.09487 0
M  V30 3180 C 311.453 0.447978 -4.55804 0
M  V30 3181 N 312.944 0.508348 -4.60402 0
M  V30 3182 C 313.679 0.515184 -5.71081 0
M  V30 3183 N 313.175 0.477435 -6.91153 0
M  V30 3184 N 314.968 0.560988 -5.59294 0
M  V30 3185 H 307.119 -0.809546 -1.96367 0
M  V30 3186 H 309.382 -0.302733 -0.898363 0
M  V30 3187 H 309.088 -0.546539 -3.47427 0
M  V30 3188 H 308.962 1.20075 -3.57578 0
M  V30 3189 H 311.349 1.39134 -2.60242 0
M  V30 3190 H 311.43 -0.374753 -2.5304 0
M  V30 3191 H 311.074 -0.471826 -5.05704 0
M  V30 3192 H 311.004 1.30777 -5.10103 0
M  V30 3193 H 313.495 0.54218 -3.7399 0
M  V30 3194 H 313.808 0.486299 -7.71268 0
M  V30 3195 H 312.153 0.444278 -6.93579 0
M  V30 3196 H 315.344 0.5881 -4.64391 0
M  V30 3197 H 315.517 0.562846 -6.45551 0
M  V30 3198 N 308.923 1.53595 0.353017 0
M  V30 3199 C 310.334 1.61937 0.929153 0
M  V30 3200 C 310.685 0.494686 1.89861 0
M  V30 3201 O 309.81 -0.377017 2.1309 0
M  V30 3202 C 310.405 2.93526 1.69199 0
M  V30 3203 C 308.964 3.04161 2.21727 0
M  V30 3204 C 308.111 2.57322 1.03348 0
M  V30 3205 H 311.062 1.58155 0.131431 0
M  V30 3206 H 311.083 2.82034 2.55416 0
M  V30 3207 H 310.595 3.75362 0.986144 0
M  V30 3208 H 308.696 2.26938 2.95516 0
M  V30 3209 H 308.809 4.09465 2.48748 0
M  V30 3210 H 307.173 2.12499 1.40414 0
M  V30 3211 H 307.956 3.41588 0.342428 0
M  V30 3212 N 310.401 -0.613514 1.45168 0
M  V30 3213 C 311.331 -1.7354 1.56225 0
M  V30 3214 C 312.312 -1.64981 0.41414 0
M  V30 3215 O 313.497 -1.83472 0.636526 0
M  V30 3216 C 310.627 -3.12128 1.52295 0
M  V30 3217 C 309.581 -3.35491 2.65762 0
M  V30 3218 C 308.907 -4.74291 2.46885 0
M  V30 3219 C 310.207 -3.26325 4.0781 0
M  V30 3220 H 311.901 -1.64543 2.50132 0
M  V30 3221 H 309.447 -0.790185 1.20383 0
M  V30 3222 H 311.4 -3.90404 1.58628 0
M  V30 3223 H 310.124 -3.2195 0.549139 0
M  V30 3224 H 308.783 -2.59603 2.58847 0
M  V30 3225 H 308.431 -4.80839 1.47657 0
M  V30 3226 H 308.131 -4.9088 3.22972 0
M  V30 3227 H 309.655 -5.54775 2.55063 0
M  V30 3228 H 311.069 -3.94483 4.16 0
M  V30 3229 H 309.466 -3.54445 4.8424 0
M  V30 3230 H 310.536 -2.23855 4.30136 0
M  V30 3231 N 311.879 -1.3236 -0.855495 0
M  V30 3232 C 313.125 -1.23054 -1.612 0
M  V30 3233 C 313.458 0.207404 -1.93089 0
M  V30 3234 O 312.733 1.14432 -1.57275 0
M  V30 3235 C 313.016 -2.08937 -2.93287 0
M  V30 3236 C 312.869 -3.61105 -2.68185 0
M  V30 3237 C 314.188 -1.94986 -3.94549 0
M  V30 3238 H 311.307 -0.448364 -0.584926 0
M  V30 3239 H 313.949 -1.62297 -0.987917 0
M  V30 3240 H 312.099 -1.75599 -3.46551 0
M  V30 3241 H 313.771 -4.04652 -2.21483 0
M  V30 3242 H 312.014 -3.83813 -2.02164 0
M  V30 3243 H 312.685 -4.16522 -3.62234 0
M  V30 3244 H 315.161 -2.24189 -3.5054 0
M  V30 3245 H 314.037 -2.57356 -4.84829 0
M  V30 3246 H 314.298 -0.917263 -4.3248 0
M  V30 3247 N 313.357 1.07166 -1.15556 0
M  V30 3248 C 314.634 1.76546 -0.842069 0
M  V30 3249 C 315.014 2.00453 0.661939 0
M  V30 3250 O 314.362 1.62452 1.60691 0
M  V30 3251 C 314.572 3.07266 -1.65495 0
M  V30 3252 C 315.92 3.81578 -1.86234 0
M  V30 3253 O 316.944 3.17083 -1.62287 0
M  V30 3254 O 315.803 4.97419 -2.26355 0
M  V30 3255 H 312.897 0.766756 -0.309862 0
M  V30 3256 H 315.443 1.13514 -1.26145 0
M  V30 3257 H 314.215 2.85494 -2.67598 0
M  V30 3258 H 313.838 3.7803 -1.23203 0
M  V30 3259 N 314.835 0.952656 1.25548 0
M  V30 3260 C 316.082 0.606373 1.93208 0
M  V30 3261 C 316.41 -0.85631 1.74636 0
M  V30 3262 O 315.665 -1.62951 1.08376 0
M  V30 3263 C 315.964 0.908818 3.45652 0
M  V30 3264 C 315.63 2.35722 3.84378 0
M  V30 3265 C 314.292 2.75312 3.9466 0
M  V30 3266 C 316.644 3.29793 4.03591 0
M  V30 3267 C 313.972 4.08047 4.21562 0
M  V30 3268 C 316.324 4.62138 4.31985 0
M  V30 3269 C 314.988 5.01528 4.40484 0
M  V30 3270 H 314.258 0.221888 0.706998 0
M  V30 3271 H 316.905 1.20132 1.49133 0
M  V30 3272 H 315.21 0.231456 3.91116 0
M  V30 3273 H 316.907 0.619498 3.96186 0
M  V30 3274 H 313.497 2.04017 3.76928 0
M  V30 3275 H 317.681 3.00397 3.95064 0
M  V30 3276 H 312.937 4.38212 4.26357 0
M  V30 3277 H 317.111 5.35012 4.45797 0
M  V30 3278 H 314.738 6.04406 4.61083 0
M  V30 3279 N 316.313 -1.40141 0.720998 0
M  V30 3280 C 317.561 -2.0039 0.262323 0
M  V30 3281 C 317.882 -1.57469 -1.15015 0
M  V30 3282 O 317.152 -0.816582 -1.78069 0
M  V30 3283 H 315.732 -0.741063 0.093996 0
M  V30 3284 H 318.394 -1.71398 0.927835 0
M  V30 3285 H 317.49 -3.10658 0.299671 0
M  V30 3286 N 317.792 -0.46758 -1.50504 0
M  V30 3287 C 318.725 0.374324 -2.25109 0
M  V30 3288 C 319.703 0.99921 -1.28275 0
M  V30 3289 O 320.887 1.03583 -1.57489 0
M  V30 3290 C 318.014 1.52419 -3.02467 0
M  V30 3291 C 317.06 1.01702 -4.14197 0
M  V30 3292 S 317.893 -0.0654477 -5.3546 0
M  V30 3293 C 319.049 1.08837 -6.16365 0
M  V30 3294 H 319.282 -0.258983 -2.9617 0
M  V30 3295 H 316.815 -0.252421 -1.52323 0
M  V30 3296 H 318.773 2.18322 -3.47628 0
M  V30 3297 H 317.434 2.129 -2.30938 0
M  V30 3298 H 316.627 1.87776 -4.67714 0
M  V30 3299 H 316.229 0.435757 -3.71453 0
M  V30 3300 H 318.521 2.00071 -6.47285 0
M  V30 3301 H 319.464 0.592538 -7.05616 0
M  V30 3302 H 319.872 1.34061 -5.4835 0
M  V30 3303 N 319.27 1.56325 -0.20005 0
M  V30 3304 C 320.686 1.58839 0.155716 0
M  V30 3305 C 320.886 1.21636 1.60645 0
M  V30 3306 O 319.942 0.941437 2.34293 0
M  V30 3307 C 321.255 3.0032 -0.151124 0
M  V30 3308 C 322.803 3.12866 -0.0916284 0
M  V30 3309 C 323.278 4.56488 -0.371845 0
M  V30 3310 N 324.769 4.62089 -0.320641 0
M  V30 3311 C 325.504 5.71116 -0.511243 0
M  V30 3312 N 325 6.88592 -0.762461 0
M  V30 3313 N 326.793 5.60335 -0.445157 0
M  V30 3314 H 318.944 1.78788 -1.14668 0
M  V30 3315 H 321.207 0.829996 -0.458051 0
M  V30 3316 H 320.913 3.32117 -1.15721 0
M  V30 3317 H 320.787 3.73257 0.543986 0
M  V30 3318 H 323.174 2.80878 0.905065 0
M  V30 3319 H 323.255 2.42304 -0.81989 0
M  V30 3320 H 322.899 4.89189 -1.36588 0
M  V30 3321 H 322.829 5.25246 0.377362 0
M  V30 3322 H 325.32 3.77665 -0.13329 0
M  V30 3323 H 325.633 7.67581 -0.896576 0
M  V30 3324 H 323.978 6.90387 -0.799412 0
M  V30 3325 H 327.169 4.67436 -0.249278 0
M  V30 3326 H 327.342 6.45243 -0.597116 0
M  V30 3327 N 320.748 -0.0735177 1.57428 0
M  V30 3328 C 321.68 -1.11423 2.00294 0
M  V30 3329 C 322.693 -1.35084 0.908637 0
M  V30 3330 O 323.882 -1.33355 1.18654 0
M  V30 3331 C 320.982 -2.46548 2.32523 0
M  V30 3332 C 320.155 -2.42867 3.63778 0
M  V30 3333 C 319.214 -3.60087 3.83697 0
M  V30 3334 O 318.24 -3.41595 4.55304 0
M  V30 3335 N 319.442 -4.80372 3.25919 0
M  V30 3336 H 322.207 -0.749206 2.90184 0
M  V30 3337 H 319.768 -0.262195 1.59763 0
M  V30 3338 H 321.76 -3.23607 2.43024 0
M  V30 3339 H 320.33 -2.75059 1.48531 0
M  V30 3340 H 319.55 -1.51206 3.64047 0
M  V30 3341 H 320.838 -2.37506 4.49965 0
M  V30 3342 H 320.236 -4.983 2.67795 0
M  V30 3343 H 318.793 -5.54948 3.41871 0
M  V30 3344 N 322.226 -1.5378 -0.344866 0
M  V30 3345 C 323.637 -1.62428 -0.920552 0
M  V30 3346 C 323.988 -0.504747 -1.89596 0
M  V30 3347 O 323.113 0.365711 -2.13287 0
M  V30 3348 C 323.708 -2.94419 -1.67639 0
M  V30 3349 C 322.267 -3.05333 -2.20111 0
M  V30 3350 C 321.414 -2.57866 -1.01982 0
M  V30 3351 H 324.365 -1.58222 -0.123042 0
M  V30 3352 H 324.386 -2.83384 -2.53917 0
M  V30 3353 H 323.898 -3.7588 -0.966224 0
M  V30 3354 H 321.999 -2.28502 -2.94308 0
M  V30 3355 H 322.112 -4.10778 -2.46573 0
M  V30 3356 H 320.476 -2.13241 -1.39285 0
M  V30 3357 H 321.259 -3.41765 -0.324308 0
M  V30 3358 N 323.704 0.605807 -1.45491 0
M  V30 3359 C 324.95 1.36679 -1.49823 0
M  V30 3360 C 325.283 1.93693 -0.140175 0
M  V30 3361 O 324.558 1.75158 0.845581 0
M  V30 3362 C 324.841 2.51337 -2.57879 0
M  V30 3363 C 324.694 1.99508 -4.03134 0
M  V30 3364 C 326.013 3.53463 -2.62205 0
M  V30 3365 H 323.132 0.495617 -0.545466 0
M  V30 3366 H 325.774 0.682732 -1.7731 0
M  V30 3367 H 323.924 3.09691 -2.34571 0
M  V30 3368 H 325.596 1.45789 -4.37656 0
M  V30 3369 H 323.839 1.30496 -4.13707 0
M  V30 3370 H 324.51 2.82169 -4.74431 0
M  V30 3371 H 326.986 3.04953 -2.83095 0
M  V30 3372 H 325.862 4.31178 -3.39672 0
M  V30 3373 H 326.123 4.09197 -1.67363 0
M  V30 3374 N 325.182 1.32811 0.848464 0
M  V30 3375 C 326.43 1.23479 1.59991 0
M  V30 3376 C 326.751 -0.201853 1.93952 0
M  V30 3377 O 326.021 -1.12818 1.60153 0
M  V30 3378 H 324.601 0.454034 0.593179 0
M  V30 3379 H 327.263 1.66412 1.01455 0
M  V30 3380 H 326.359 1.82178 2.53412 0
M  V30 3381 N 326.66 -1.06551 1.16123 0
M  V30 3382 C 327.906 -1.79567 0.94252 0
M  V30 3383 C 328.239 -1.86869 -0.528547 0
M  V30 3384 O 327.514 -1.35838 -1.39206 0
M  V30 3385 C 327.797 -3.24195 1.56747 0
M  V30 3386 C 327.65 -3.24989 3.10969 0
M  V30 3387 C 328.969 -4.21678 1.25998 0
M  V30 3388 H 326.088 -0.651883 0.343828 0
M  V30 3389 H 328.73 -1.2463 1.43413 0
M  V30 3390 H 326.88 -3.71107 1.14942 0
M  V30 3391 H 328.552 -2.86258 3.61737 0
M  V30 3392 H 326.795 -2.63716 3.44436 0
M  V30 3393 H 327.466 -4.27005 3.49815 0
M  V30 3394 H 329.942 -3.83196 1.62174 0
M  V30 3395 H 328.818 -5.21146 1.7233 0
M  V30 3396 H 329.079 -4.4174 0.178367 0
M  V30 3397 N 328.138 -0.959301 -1.25041 0
M  V30 3398 C 329.386 -0.615393 -1.92503 0
M  V30 3399 C 329.707 0.850969 -1.75452 0
M  V30 3400 O 328.977 1.60658 -1.12098 0
M  V30 3401 H 327.557 -0.224613 -0.712431 0
M  V30 3402 H 330.219 -1.21855 -1.5211 0
M  V30 3403 H 329.315 -0.848738 -3.00338 0
M  V30 3404 N 329.616 1.39756 -0.72842 0
M  V30 3405 C 330.893 1.94574 -0.200079 0
M  V30 3406 C 331.273 1.66569 1.29684 0
M  V30 3407 O 330.621 0.990326 2.05924 0
M  V30 3408 C 330.831 3.45004 -0.526608 0
M  V30 3409 C 332.179 4.21965 -0.472318 0
M  V30 3410 O 333.203 3.53173 -0.463413 0
M  V30 3411 O 332.062 5.44552 -0.461075 0
M  V30 3412 H 329.156 0.826289 -0.0342851 0
M  V30 3413 H 331.702 1.49293 -0.806829 0
M  V30 3414 H 330.474 3.58796 -1.56144 0
M  V30 3415 H 330.097 3.97449 0.109449 0
M  V30 3416 N 331.094 0.475555 1.50254 0
M  V30 3417 C 332.34 -0.0780073 2.0265 0
M  V30 3418 C 332.673 -1.38968 1.35652 0
M  V30 3419 O 331.948 -1.8839 0.483691 0
M  V30 3420 C 332.231 -0.257161 3.59181 0
M  V30 3421 C 332.084 1.07585 4.36744 0
M  V30 3422 C 333.403 -1.00965 4.28362 0
M  V30 3423 H 330.522 -0.0268758 0.73651 0
M  V30 3424 H 333.164 0.622015 1.7953 0
M  V30 3425 H 331.314 -0.853412 3.79011 0
M  V30 3426 H 332.986 1.70902 4.28474 0
M  V30 3427 H 331.229 1.6714 4.00308 0
M  V30 3428 H 331.9 0.904088 5.44546 0
M  V30 3429 H 334.376 -0.504214 4.13034 0
M  V30 3430 H 333.252 -1.10381 5.37687 0
M  V30 3431 H 333.513 -2.04731 3.91839 0
M  V30 3432 N 332.573 -1.56217 0.208337 0
M  V30 3433 C 333.801 -2.02337 -0.43215 0
M  V30 3434 C 334.216 -1.08834 -1.54275 0
M  V30 3435 O 333.573 -0.0955462 -1.8225 0
M  V30 3436 C 333.624 -3.48072 -0.976138 0
M  V30 3437 O 333.345 -4.38007 0.0901621 0
M  V30 3438 C 334.846 -4.09773 -1.69119 0
M  V30 3439 H 332.066 -0.662385 -0.10718 0
M  V30 3440 H 334.61 -2.01966 0.320923 0
M  V30 3441 H 332.765 -3.49099 -1.67954 0
M  V30 3442 H 333.179 -5.23543 -0.316701 0
M  V30 3443 H 334.653 -5.13556 -2.02397 0
M  V30 3444 H 335.13 -3.53999 -2.59964 0
M  V30 3445 H 335.736 -4.12556 -1.03332 0
M  V30 3446 N 334.051 0.0651679 -1.57465 0
M  V30 3447 C 335.276 0.779605 -1.9219 0
M  V30 3448 C 335.701 1.69988 -0.805333 0
M  V30 3449 O 335.059 1.79685 0.241435 0
M  V30 3450 C 335.107 1.54364 -3.2589 0
M  V30 3451 O 334.211 2.65474 -3.1559 0
M  V30 3452 H 333.552 0.212249 -0.629163 0
M  V30 3453 H 336.082 0.0314294 -2.04576 0
M  V30 3454 H 336.092 1.92146 -3.59922 0
M  V30 3455 H 334.767 0.868457 -4.06732 0
M  V30 3456 H 333.344 2.30501 -2.93128 0
M  V30 3457 N 335.529 1.53961 0.336706 0
M  V30 3458 C 336.777 1.71197 1.07405 0
M  V30 3459 C 337.098 0.481475 1.88962 0
M  V30 3460 O 336.368 -0.504585 1.8929 0
M  V30 3461 H 334.948 0.631185 0.399517 0
M  V30 3462 H 337.61 1.91232 0.376323 0
M  V30 3463 H 336.706 2.58587 1.74755 0
M  V30 3464 N 337.007 -0.598083 1.45811 0
M  V30 3465 C 337.937 -1.71873 1.58057 0
M  V30 3466 C 338.918 -1.64533 0.431615 0
M  V30 3467 O 340.103 -1.82787 0.65595 0
M  V30 3468 C 337.233 -3.10495 1.55597 0
M  V30 3469 C 336.187 -3.32654 2.69305 0
M  V30 3470 C 335.513 -4.71646 2.51902 0
M  V30 3471 C 336.813 -3.21981 4.11248 0
M  V30 3472 H 338.507 -1.61881 2.51863 0
M  V30 3473 H 336.053 -0.777372 1.21214 0
M  V30 3474 H 338.006 -3.88699 1.6276 0
M  V30 3475 H 336.73 -3.2135 0.583255 0
M  V30 3476 H 335.389 -2.56843 2.61586 0
M  V30 3477 H 335.037 -4.79246 1.52748 0
M  V30 3478 H 334.737 -4.87426 3.2816 0
M  V30 3479 H 336.261 -5.52038 2.60933 0
M  V30 3480 H 337.675 -3.90049 4.20161 0
M  V30 3481 H 336.072 -3.49289 4.87972 0
M  V30 3482 H 337.142 -2.1928 4.32486 0
M  V30 3483 N 338.485 -1.33259 -0.841409 0
M  V30 3484 C 339.415 -1.25926 -1.96634 0
M  V30 3485 C 340.396 -0.140349 -1.6952 0
M  V30 3486 O 341.581 -0.329707 -1.91381 0
M  V30 3487 C 338.711 -0.99512 -3.32738 0
M  V30 3488 C 337.665 -2.0767 -3.74242 0
M  V30 3489 C 336.991 -1.66474 -5.08125 0
M  V30 3490 C 338.291 -3.49318 -3.88297 0
M  V30 3491 H 339.985 -2.20046 -2.03027 0
M  V30 3492 H 337.531 -1.05931 -0.975425 0
M  V30 3493 H 339.484 -0.930323 -4.11002 0
M  V30 3494 H 338.208 -0.0183004 -3.26595 0
M  V30 3495 H 336.867 -2.13187 -2.98239 0
M  V30 3496 H 336.515 -0.675012 -4.9845 0
M  V30 3497 H 336.215 -2.3885 -5.36865 0
M  V30 3498 H 337.739 -1.61455 -5.88867 0
M  V30 3499 H 339.153 -3.46316 -4.56879 0
M  V30 3500 H 337.55 -4.20158 -4.28471 0
M  V30 3501 H 338.62 -3.8801 -2.9082 0
M  V30 3502 N 339.963 1.05934 -1.16686 0
M  V30 3503 C 340.893 2.1546 -0.899949 0
M  V30 3504 C 341.874 1.69391 0.155154 0
M  V30 3505 O 343.059 1.94199 0.00648693 0
M  V30 3506 C 340.189 3.44939 -0.404241 0
M  V30 3507 C 339.143 4.04536 -1.39767 0
M  V30 3508 C 338.469 5.29268 -0.760216 0
M  V30 3509 C 339.769 4.42893 -2.76845 0
M  V30 3510 H 341.463 2.38046 -1.81588 0
M  V30 3511 H 339.009 1.14404 -0.874514 0
M  V30 3512 H 340.962 4.20901 -0.204971 0
M  V30 3513 H 339.686 3.21983 0.547206 0
M  V30 3514 H 338.345 3.30635 -1.58355 0
M  V30 3515 H 337.993 5.02611 0.197831 0
M  V30 3516 H 337.693 5.70101 -1.42332 0
M  V30 3517 H 339.217 6.07924 -0.57105 0
M  V30 3518 H 340.631 5.09921 -2.62019 0
M  V30 3519 H 339.028 4.94721 -3.39663 0
M  V30 3520 H 340.098 3.53584 -3.31823 0
M  V30 3521 N 341.441 0.965919 1.2453 0
M  V30 3522 C 342.687 0.62776 1.92839 0
M  V30 3523 C 343.02 -0.834694 1.75347 0
M  V30 3524 O 342.295 -1.60031 1.10546 0
M  V30 3525 C 342.578 1.00109 3.45905 0
M  V30 3526 C 342.431 2.52011 3.72573 0
M  V30 3527 C 343.75 0.53435 4.36844 0
M  V30 3528 H 340.869 0.229537 0.700344 0
M  V30 3529 H 343.511 1.2046 1.46933 0
M  V30 3530 H 341.661 0.510238 3.85135 0
M  V30 3531 H 343.333 3.08559 3.42912 0
M  V30 3532 H 341.576 2.95287 3.17786 0
M  V30 3533 H 342.247 2.73183 4.79661 0
M  V30 3534 H 344.723 0.955565 4.04979 0
M  V30 3535 H 343.599 0.824152 5.42678 0
M  V30 3536 H 343.86 -0.565589 4.38467 0
M  V30 3537 N 342.919 -1.39368 0.735821 0
M  V30 3538 C 343.866 -2.30599 0.0963825 0
M  V30 3539 C 344.836 -1.49257 -0.728794 0
M  V30 3540 O 346.021 -1.77941 -0.688588 0
M  V30 3541 C 343.161 -3.35596 -0.804305 0
M  V30 3542 C 342.274 -4.31987 0.0335761 0
M  V30 3543 C 341.409 -5.24053 -0.868461 0
M  V30 3544 C 340.448 -6.12095 -0.0258776 0
M  V30 3545 N 339.585 -6.96514 -0.883893 0
M  V30 3546 H 344.425 -2.8471 0.880002 0
M  V30 3547 H 341.962 -1.40188 0.445619 0
M  V30 3548 H 343.92 -3.95062 -1.34096 0
M  V30 3549 H 342.55 -2.82938 -1.55389 0
M  V30 3550 H 341.602 -3.74133 0.68766 0
M  V30 3551 H 342.914 -4.94074 0.685036 0
M  V30 3552 H 342.068 -5.88549 -1.47293 0
M  V30 3553 H 340.807 -4.62289 -1.5537 0
M  V30 3554 H 339.812 -5.4661 0.591386 0
M  V30 3555 H 341.037 -6.75923 0.656156 0
M  V30 3556 H 338.983 -6.37318 -1.55441 0
M  V30 3557 H 338.9 -7.55448 -0.288931 0
M  V30 3558 H 340.168 -7.65439 -1.4739 0
M  V30 3559 N 344.397 -0.483516 -1.5 0
M  V30 3560 C 345.327 0.293829 -2.31644 0
M  V30 3561 C 346.308 0.978864 -1.39112 0
M  V30 3562 O 347.493 0.973644 -1.68029 0
M  V30 3563 C 344.623 1.36897 -3.19181 0
M  V30 3564 C 343.577 0.804833 -4.20365 0
M  V30 3565 C 342.903 1.9792 -4.96721 0
M  V30 3566 C 344.203 -0.192313 -5.21946 0
M  V30 3567 H 345.897 -0.387616 -2.9688 0
M  V30 3568 H 343.443 -0.187856 -1.42769 0
M  V30 3569 H 345.396 1.92037 -3.751 0
M  V30 3570 H 344.12 2.07936 -2.51853 0
M  V30 3571 H 342.779 0.275319 -3.65565 0
M  V30 3572 H 342.427 2.67686 -4.25856 0
M  V30 3573 H 342.127 1.60789 -5.65173 0
M  V30 3574 H 343.651 2.53526 -5.55479 0
M  V30 3575 H 345.065 0.270333 -5.72662 0
M  V30 3576 H 343.462 -0.478543 -5.98189 0
M  V30 3577 H 344.532 -1.11409 -4.71928 0
M  V30 3578 N 345.875 1.56104 -0.216619 0
M  V30 3579 C 346.805 2.23063 0.690296 0
M  V30 3580 C 347.786 1.20072 1.20485 0
M  V30 3581 O 348.971 1.48643 1.24976 0
M  V30 3582 C 346.101 2.90672 1.90072 0
M  V30 3583 C 345.055 4.00092 1.5202 0
M  V30 3584 C 344.381 4.54972 2.80899 0
M  V30 3585 C 345.681 5.17398 0.71391 0
M  V30 3586 H 347.375 2.99109 0.132038 0
M  V30 3587 H 344.921 1.43866 0.0620664 0
M  V30 3588 H 346.874 3.36204 2.54057 0
M  V30 3589 H 345.598 2.12066 2.48386 0
M  V30 3590 H 344.257 3.55283 0.903839 0
M  V30 3591 H 343.905 3.73102 3.37348 0
M  V30 3592 H 343.605 5.28817 2.56176 0
M  V30 3593 H 345.129 5.0322 3.45836 0
M  V30 3594 H 346.543 5.59342 1.25735 0
M  V30 3595 H 344.94 5.97444 0.563951 0
M  V30 3596 H 346.01 4.84088 -0.280527 0
M  V30 3597 N 347.353 -0.0568162 1.57498 0
M  V30 3598 C 348.285 -1.09292 2.01464 0
M  V30 3599 C 349.298 -1.34112 0.922913 0
M  V30 3600 O 350.487 -1.32089 1.20062 0
M  V30 3601 C 347.587 -2.44068 2.35125 0
M  V30 3602 C 346.76 -2.38995 3.66333 0
M  V30 3603 C 345.819 -3.55997 3.87495 0
M  V30 3604 O 344.845 -3.36746 4.58901 0
M  V30 3605 N 346.047 -4.76888 3.30996 0
M  V30 3606 H 348.812 -0.718386 2.90963 0
M  V30 3607 H 346.373 -0.245235 1.60032 0
M  V30 3608 H 348.365 -3.21011 2.46443 0
M  V30 3609 H 346.935 -2.73468 1.5144 0
M  V30 3610 H 346.155 -1.47336 3.65631 0
M  V30 3611 H 347.443 -2.3272 4.52458 0
M  V30 3612 H 346.841 -4.95431 2.73065 0
M  V30 3613 H 345.398 -5.51291 3.47738 0
M  V30 3614 N 348.832 -1.54138 -0.328536 0
M  V30 3615 C 350.08 -1.71765 -1.06496 0
M  V30 3616 C 350.401 -0.49149 -1.88704 0
M  V30 3617 O 349.671 0.494539 -1.89555 0
M  V30 3618 H 348.251 -0.633295 -0.396164 0
M  V30 3619 H 350.913 -1.91429 -0.366176 0
M  V30 3620 H 350.009 -2.5951 -1.73381 0
M  V30 3621 N 350.31 0.590341 -1.46126 0
M  V30 3622 C 351.273 1.68194 -1.55703 0
M  V30 3623 C 352.273 1.54808 -0.434868 0
M  V30 3624 O 353.463 1.59564 -0.698928 0
M  V30 3625 C 350.595 3.07575 -1.47005 0
M  V30 3626 H 351.788 1.61064 -2.52979 0
M  V30 3627 H 349.341 0.807541 -1.33823 0
M  V30 3628 H 350.076 3.20268 -0.509785 0
M  V30 3629 H 349.861 3.187 -2.28414 0
M  V30 3630 H 351.351 3.87055 -1.56776 0
M  V30 3631 N 351.788 1.33704 0.83433 0
M  V30 3632 C 353.016 1.28467 1.62185 0
M  V30 3633 C 353.431 -0.143526 1.88254 0
M  V30 3634 O 352.788 -1.08709 1.4659 0
M  V30 3635 C 352.839 2.06174 2.96942 0
M  V30 3636 O 352.56 3.43422 2.72016 0
M  V30 3637 C 354.061 2.08201 3.91366 0
M  V30 3638 H 351.281 0.4424 0.504503 0
M  V30 3639 H 353.825 1.76145 1.03891 0
M  V30 3640 H 351.98 1.62167 3.51825 0
M  V30 3641 H 352.394 3.83453 3.57861 0
M  V30 3642 H 353.868 2.67017 4.83121 0
M  V30 3643 H 354.345 1.07343 4.2588 0
M  V30 3644 H 354.951 2.52246 3.42421 0
M  V30 3645 N 353.266 -1.05314 1.17247 0
M  V30 3646 C 354.196 -2.1498 0.911362 0
M  V30 3647 C 355.177 -1.69471 -0.146169 0
M  V30 3648 O 356.362 -1.942 0.003812 0
M  V30 3649 C 353.492 -3.4472 0.422528 0
M  V30 3650 C 352.446 -4.03789 1.4191 0
M  V30 3651 C 351.772 -5.28858 0.788274 0
M  V30 3652 C 353.072 -4.41418 2.7919 0
M  V30 3653 H 354.766 -2.3708 1.82848 0
M  V30 3654 H 352.312 -1.13938 0.880569 0
M  V30 3655 H 354.265 -4.20787 0.227289 0
M  V30 3656 H 352.989 -3.22269 -0.530123 0
M  V30 3657 H 351.648 -3.2979 1.60106 0
M  V30 3658 H 351.296 -5.02709 -0.171173 0
M  V30 3659 H 350.996 -5.69338 1.45353 0
M  V30 3660 H 352.52 -6.07612 0.603282 0
M  V30 3661 H 353.934 -5.08524 2.64719 0
M  V30 3662 H 352.331 -4.92913 3.42282 0
M  V30 3663 H 353.401 -3.51819 3.33693 0
M  V30 3664 N 354.744 -0.972509 -1.24016 0
M  V30 3665 C 355.676 -0.464375 -2.24446 0
M  V30 3666 C 356.689 0.4295 -1.57032 0
M  V30 3667 O 357.878 0.234902 -1.76948 0
M  V30 3668 C 354.978 0.348385 -3.37105 0
M  V30 3669 C 354.151 -0.53673 -4.34094 0
M  V30 3670 C 353.21 0.220838 -5.25736 0
M  V30 3671 O 352.236 -0.386867 -5.67884 0
M  V30 3672 N 353.438 1.50907 -5.60542 0
M  V30 3673 H 356.203 -1.32788 -2.68677 0
M  V30 3674 H 353.764 -0.844877 -1.38107 0
M  V30 3675 H 355.756 0.863341 -3.95384 0
M  V30 3676 H 354.326 1.11285 -2.92121 0
M  V30 3677 H 353.546 -1.23261 -3.74433 0
M  V30 3678 H 354.834 -1.14022 -4.95859 0
M  V30 3679 H 354.232 2.02444 -5.28236 0
M  V30 3680 H 352.789 1.96962 -6.21329 0
M  V30 3681 N 356.222 1.38976 -0.743202 0
M  V30 3682 C 357.132 2.3434 -0.110399 0
M  V30 3683 C 358.148 1.58741 0.712559 0
M  V30 3684 O 359.324 1.9099 0.639125 0
M  V30 3685 C 356.389 3.37812 0.780012 0
M  V30 3686 C 355.45 4.29263 -0.0561319 0
M  V30 3687 C 354.683 5.27793 0.791875 0
M  V30 3688 O 354.906 5.33043 2.03031 0
M  V30 3689 O 353.84 6.01512 0.216183 0
M  V30 3690 H 357.666 2.90129 -0.897714 0
M  V30 3691 H 355.251 1.40643 -0.503966 0
M  V30 3692 H 357.133 4.01194 1.28923 0
M  V30 3693 H 355.808 2.84395 1.546 0
M  V30 3694 H 354.715 3.69076 -0.611056 0
M  V30 3695 H 356.048 4.85907 -0.784531 0
M  V30 3696 N 357.7 0.491464 1.49741 0
M  V30 3697 C 358.663 -0.280906 2.27472 0
M  V30 3698 C 359.663 -0.902454 1.33088 0
M  V30 3699 O 360.853 -0.768465 1.56334 0
M  V30 3700 C 357.985 -1.40209 3.10732 0
M  V30 3701 H 359.178 0.401056 2.97206 0
M  V30 3702 H 356.731 0.246131 1.5435 0
M  V30 3703 H 357.466 -2.11849 2.45541 0
M  V30 3704 H 357.251 -0.961969 3.80117 0
M  V30 3705 H 358.741 -1.9464 3.69466 0
M  V30 3706 N 359.178 -1.55987 0.224894 0
M  V30 3707 C 360.108 -2.23426 -0.678457 0
M  V30 3708 C 361.089 -1.20709 -1.19847 0
M  V30 3709 O 362.274 -1.49304 -1.24186 0
M  V30 3710 C 359.404 -2.91676 -1.88527 0
M  V30 3711 C 358.358 -4.00893 -1.49896 0
M  V30 3712 C 357.684 -4.56455 -2.78483 0
M  V30 3713 C 358.984 -5.17769 -0.686461 0
M  V30 3714 H 360.678 -2.99175 -0.116173 0
M  V30 3715 H 358.224 -1.43897 -0.054436 0
M  V30 3716 H 360.177 -3.37547 -2.5227 0
M  V30 3717 H 358.901 -2.1338 -2.47258 0
M  V30 3718 H 357.56 -3.55758 -0.884985 0
M  V30 3719 H 357.208 -3.74886 -3.35365 0
M  V30 3720 H 356.908 -5.30169 -2.53368 0
M  V30 3721 H 358.432 -5.05047 -3.43162 0
M  V30 3722 H 359.846 -5.60001 -1.22767 0
M  V30 3723 H 358.243 -5.97735 -0.532259 0
M  V30 3724 H 359.313 -4.83932 0.306196 0
M  V30 3725 N 360.656 0.0484629 -1.57525 0
M  V30 3726 C 361.566 1.07241 -2.08654 0
M  V30 3727 C 362.582 1.409 -1.02095 0
M  V30 3728 O 363.758 1.50609 -1.33712 0
M  V30 3729 C 360.823 2.36008 -2.5397 0
M  V30 3730 C 359.884 2.09108 -3.7493 0
M  V30 3731 C 359.117 3.31736 -4.18075 0
M  V30 3732 O 359.34 4.41714 -3.60895 0
M  V30 3733 O 358.274 3.18576 -5.10679 0
M  V30 3734 H 362.1 0.667965 -2.96263 0
M  V30 3735 H 359.685 0.26417 -1.47046 0
M  V30 3736 H 361.567 3.11747 -2.83535 0
M  V30 3737 H 360.242 2.75786 -1.69481 0
M  V30 3738 H 359.149 1.31 -3.50414 0
M  V30 3739 H 360.482 1.74198 -4.60343 0
M  V30 3740 N 362.134 1.5431 0.320358 0
M  V30 3741 C 363.084 1.803 1.39556 0
M  V30 3742 C 364.068 0.659166 1.46778 0
M  V30 3743 O 365.26 0.91926 1.51257 0
M  V30 3744 C 362.389 2.03665 2.76361 0
M  V30 3745 C 361.475 3.24178 2.73439 0
M  V30 3746 N 361.866 4.4516 2.40137 0
M  V30 3747 C 360.164 3.25816 3.04565 0
M  V30 3748 C 360.865 5.27109 2.4603 0
M  V30 3749 N 359.841 4.64368 2.82601 0
M  V30 3750 H 363.643 2.71416 1.12742 0
M  V30 3751 H 361.157 1.53548 0.528856 0
M  V30 3752 H 363.154 2.20425 3.53862 0
M  V30 3753 H 361.814 1.13805 3.04103 0
M  V30 3754 H 362.825 4.72104 2.12927 0
M  V30 3755 H 359.502 2.46001 3.37328 0
M  V30 3756 H 360.892 6.33728 2.23246 0
M  V30 3757 N 363.613 -0.582584 1.46437 0
M  V30 3758 C 364.859 -1.34278 1.51978 0
M  V30 3759 C 365.192 -1.93446 0.170973 0
M  V30 3760 O 364.467 -1.76481 -0.817608 0
M  V30 3761 C 364.75 -2.47203 2.61845 0
M  V30 3762 C 364.603 -1.93069 4.06257 0
M  V30 3763 C 365.922 -3.49247 2.67795 0
M  V30 3764 H 363.041 -0.486876 0.553282 0
M  V30 3765 H 365.683 -0.654437 1.78374 0
M  V30 3766 H 363.833 -3.0592 2.39469 0
M  V30 3767 H 365.505 -1.38808 4.3992 0
M  V30 3768 H 363.748 -1.23898 4.1573 0
M  V30 3769 H 364.419 -2.74586 4.7886 0
M  V30 3770 H 366.895 -3.00411 2.8791 0
M  V30 3771 H 365.771 -4.25719 3.46489 0
M  V30 3772 H 366.032 -4.06482 1.73852 0
M  V30 3773 N 365.091 -1.34144 -0.827227 0
M  V30 3774 C 366.319 -1.29325 -1.61501 0
M  V30 3775 C 366.734 0.13354 -1.88327 0
M  V30 3776 O 366.091 1.0793 -1.47164 0
M  V30 3777 C 366.142 -2.07746 -2.95844 0
M  V30 3778 O 365.863 -3.4486 -2.70191 0
M  V30 3779 C 367.364 -2.10273 -3.90256 0
M  V30 3780 H 364.584 -0.445069 -0.50215 0
M  V30 3781 H 367.128 -1.76693 -1.02955 0
M  V30 3782 H 365.283 -1.6403 -3.5096 0
M  V30 3783 H 365.697 -3.85345 -3.55822 0
M  V30 3784 H 367.171 -2.69575 -4.81698 0
M  V30 3785 H 367.648 -1.096 -4.25305 0
M  V30 3786 H 368.254 -2.54059 -3.41078 0
M  V30 3787 N 366.569 1.04691 -1.17803 0
M  V30 3788 C 367.532 2.10724 -0.901545 0
M  V30 3789 C 368.532 1.6042 0.110437 0
M  V30 3790 O 369.722 1.7377 -0.122303 0
M  V30 3791 C 366.854 3.39084 -0.351409 0
M  V30 3792 H 368.047 2.36686 -1.84174 0
M  V30 3793 H 365.6 1.21015 -0.98919 0
M  V30 3794 H 366.335 3.18782 0.59569 0
M  V30 3795 H 366.12 3.76909 -1.08083 0
M  V30 3796 H 367.61 4.17227 -0.176451 0
M  V30 3797 N 368.047 0.979072 1.23499 0
M  V30 3798 C 369.01 0.523244 2.23147 0
M  V30 3799 C 370.01 -0.386406 1.56088 0
M  V30 3800 O 371.2 -0.180283 1.73265 0
M  V30 3801 C 368.332 -0.240739 3.40049 0
M  V30 3802 H 369.525 1.40432 2.64989 0
M  V30 3803 H 367.078 0.764824 1.36309 0
M  V30 3804 H 367.813 -1.13841 3.03662 0
M  V30 3805 H 367.598 0.412207 3.89927 0
M  V30 3806 H 369.088 -0.548297 4.13985 0
M  V30 3807 N 369.525 -1.3858 0.750561 0
M  V30 3808 C 370.771 -2.00481 0.305825 0
M  V30 3809 C 371.104 -1.5944 -1.10872 0
M  V30 3810 O 370.379 -0.83052 -1.75877 0
M  V30 3811 C 370.662 -3.5758 0.425287 0
M  V30 3812 C 370.515 -4.08594 1.88072 0
M  V30 3813 C 371.834 -4.39719 -0.183122 0
M  V30 3814 H 368.953 -0.728348 0.112598 0
M  V30 3815 H 371.595 -1.64566 0.949638 0
M  V30 3816 H 369.745 -3.88306 -0.122828 0
M  V30 3817 H 371.417 -3.88523 2.48691 0
M  V30 3818 H 369.66 -3.61574 2.39681 0
M  V30 3819 H 370.331 -5.177 1.91548 0
M  V30 3820 H 372.807 -4.15128 0.284303 0
M  V30 3821 H 371.683 -5.48856 -0.0692757 0
M  V30 3822 H 371.944 -4.23434 -1.27106 0
M  V30 3823 N 371.003 -0.499398 -1.49478 0
M  V30 3824 C 372.233 0.0424839 -2.06556 0
M  V30 3825 C 372.641 1.31514 -1.36018 0
M  V30 3826 O 371.984 1.78555 -0.431718 0
M  V30 3827 C 372.046 0.368074 -3.57611 0
M  V30 3828 C 371.71 -0.806631 -4.49825 0
M  V30 3829 C 372.707 -1.69667 -4.91436 0
M  V30 3830 C 370.392 -1.00498 -4.92144 0
M  V30 3831 C 372.386 -2.76923 -5.74101 0
M  V30 3832 C 370.073 -2.08072 -5.74586 0
M  V30 3833 C 371.071 -2.96119 -6.15469 0
M  V30 3834 O 370.759 -4.01836 -6.96264 0
M  V30 3835 H 370.491 -0.0165165 -0.675798 0
M  V30 3836 H 373.045 -0.695497 -1.93267 0
M  V30 3837 H 371.275 1.15963 -3.68903 0
M  V30 3838 H 372.964 0.848381 -3.96935 0
M  V30 3839 H 373.73 -1.55524 -4.59388 0
M  V30 3840 H 369.609 -0.329036 -4.59824 0
M  V30 3841 H 373.153 -3.45676 -6.05932 0
M  V30 3842 H 369.05 -2.22211 -6.06047 0
M  V30 3843 H 369.818 -3.9917 -7.14567 0
M  V30 3844 N 372.481 1.55866 -0.233164 0
M  V30 3845 C 373.391 2.24431 0.683217 0
M  V30 3846 C 374.407 1.2558 1.2044 0
M  V30 3847 O 375.583 1.58422 1.24356 0
M  V30 3848 C 372.648 2.91979 1.86947 0
M  V30 3849 C 371.709 4.06204 1.38912 0
M  V30 3850 C 370.942 4.70522 2.51883 0
M  V30 3851 O 371.165 4.33865 3.70293 0
M  V30 3852 O 370.099 5.59296 2.22423 0
M  V30 3853 H 373.925 3.03426 0.129059 0
M  V30 3854 H 371.51 1.494 -0.0022283 0
M  V30 3855 H 373.392 3.34573 2.56201 0
M  V30 3856 H 372.067 2.15935 2.41151 0
M  V30 3857 H 370.974 3.68155 0.664259 0
M  V30 3858 H 372.307 4.84025 0.893328 0
M  V30 3859 N 373.959 -0.0401083 1.57549 0
M  V30 3860 C 375.208 -0.732108 1.87944 0
M  V30 3861 C 375.521 -1.77107 0.830206 0
M  V30 3862 O 376.727 -2.51488 1.02302 0
M  V30 3863 C 375.183 -1.35315 3.33494 0
M  V30 3864 C 374.791 -0.351105 4.46622 0
M  V30 3865 C 376.535 -2.02566 3.73051 0
M  V30 3866 C 374.442 -0.979859 5.83226 0
M  V30 3867 H 373.372 -0.277188 0.701201 0
M  V30 3868 H 376.023 0.0138501 1.83495 0
M  V30 3869 H 374.405 -2.14844 3.32653 0
M  V30 3870 H 375.579 0.416674 4.58912 0
M  V30 3871 H 373.894 0.218708 4.15825 0
M  V30 3872 H 376.491 -2.50441 4.72423 0
M  V30 3873 H 376.834 -2.83904 3.04474 0
M  V30 3874 H 377.367 -1.29827 3.76018 0
M  V30 3875 H 374.106 -0.206135 6.55176 0
M  V30 3876 H 373.626 -1.71774 5.74677 0
M  V30 3877 H 375.305 -1.49046 6.29599 0
M  V30 3878 N 375.437 -1.54477 -0.31217 0
M  V30 3879 C 376.37 -1.79519 -1.40884 0
M  V30 3880 C 377.348 -0.645753 -1.49227 0
M  V30 3881 O 378.532 -0.884468 -1.66461 0
M  V30 3882 C 375.659 -1.92194 -2.78889 0
M  V30 3883 C 374.705 -3.14555 -2.88023 0
M  V30 3884 S 375.538 -4.72893 -2.51262 0
M  V30 3885 C 376.694 -4.8849 -3.91317 0
M  V30 3886 H 376.927 -2.72256 -1.19432 0
M  V30 3887 H 374.46 -1.45746 -0.509654 0
M  V30 3888 H 376.418 -2.00182 -3.58382 0
M  V30 3889 H 375.079 -1.00414 -2.97617 0
M  V30 3890 H 374.272 -3.20193 -3.89221 0
M  V30 3891 H 373.874 -3.04955 -2.16514 0
M  V30 3892 H 376.166 -4.71826 -4.86196 0
M  V30 3893 H 377.109 -5.90588 -3.90656 0
M  V30 3894 H 377.517 -4.16715 -3.80801 0
M  V30 3895 N 376.915 0.57481 -1.46744 0
M  V30 3896 C 378.161 1.3347 -1.52688 0
M  V30 3897 C 378.494 1.93353 -0.181229 0
M  V30 3898 O 377.769 1.76912 0.808237 0
M  V30 3899 C 378.052 2.45811 -2.63152 0
M  V30 3900 C 377.905 1.90912 -4.07275 0
M  V30 3901 C 379.224 3.47822 -2.69644 0
M  V30 3902 H 376.343 0.483935 -0.555856 0
M  V30 3903 H 378.985 0.644968 -1.78718 0
M  V30 3904 H 377.135 3.04646 -2.41088 0
M  V30 3905 H 378.807 1.36473 -4.4065 0
M  V30 3906 H 377.05 1.21691 -4.16382 0
M  V30 3907 H 377.721 2.72042 -4.80309 0
M  V30 3908 H 380.197 2.9888 -2.895 0
M  V30 3909 H 379.073 4.23876 -3.48742 0
M  V30 3910 H 379.334 4.05555 -1.76005 0
M  V30 3911 N 378.394 1.34581 0.820102 0
M  V30 3912 C 379.622 1.3018 1.60813 0
M  V30 3913 C 380.037 -0.123551 1.88395 0
M  V30 3914 O 379.394 -1.07148 1.47735 0
M  V30 3915 C 379.445 2.09312 2.94739 0
M  V30 3916 O 379.166 3.46288 2.68358 0
M  V30 3917 C 380.667 2.1234 3.89136 0
M  V30 3918 H 377.887 0.447726 0.499782 0
M  V30 3919 H 380.431 1.77237 1.02017 0
M  V30 3920 H 378.586 1.65889 3.50085 0
M  V30 3921 H 379 3.87227 3.53774 0
M  V30 3922 H 380.474 2.72126 4.80262 0
M  V30 3923 H 380.951 1.11854 4.24718 0
M  V30 3924 H 381.557 2.55864 3.39726 0
M  V30 3925 N 379.872 -1.04064 1.18357 0
M  V30 3926 C 381.1 -1.80916 1.00384 0
M  V30 3927 C 381.515 -1.83414 -0.447738 0
M  V30 3928 O 380.872 -1.26962 -1.31099 0
M  V30 3929 C 380.923 -3.26516 1.55144 0
M  V30 3930 O 380.644 -3.2424 2.94618 0
M  V30 3931 C 382.145 -4.20013 1.41789 0
M  V30 3932 H 379.365 -0.569728 0.354474 0
M  V30 3933 H 381.909 -1.31151 1.56906 0
M  V30 3934 H 380.064 -3.73512 1.02798 0
M  V30 3935 H 380.478 -4.15452 3.20156 0
M  V30 3936 H 381.952 -5.20111 1.84901 0
M  V30 3937 H 382.429 -4.37667 0.36661 0
M  V30 3938 H 383.035 -3.78881 1.93207 0
M  V30 3939 N 381.35 -0.985608 -1.22978 0
M  V30 3940 C 382.297 -0.529825 -2.24636 0
M  V30 3941 C 383.267 0.434028 -1.60329 0
M  V30 3942 O 384.452 0.340414 -1.87739 0
M  V30 3943 C 381.592 0.156533 -3.44745 0
M  V30 3944 C 380.705 -0.848197 -4.23591 0
M  V30 3945 C 379.84 -0.136109 -5.31026 0
M  V30 3946 C 378.879 -1.1297 -6.01585 0
M  V30 3947 N 378.016 -0.446415 -7.00679 0
M  V30 3948 H 382.856 -1.40148 -2.62988 0
M  V30 3949 H 380.393 -0.702168 -1.29259 0
M  V30 3950 H 382.351 0.571324 -4.1327 0
M  V30 3951 H 380.981 0.992025 -3.07179 0
M  V30 3952 H 380.033 -1.38135 -3.54433 0
M  V30 3953 H 381.345 -1.60512 -4.72268 0
M  V30 3954 H 380.499 0.335784 -6.0577 0
M  V30 3955 H 379.238 0.653373 -4.83304 0
M  V30 3956 H 378.243 -1.6123 -5.25628 0
M  V30 3957 H 379.468 -1.91993 -6.51395 0
M  V30 3958 H 377.414 0.323763 -6.55201 0
M  V30 3959 H 377.331 -1.1419 -7.47326 0
M  V30 3960 H 378.599 0.00291697 -7.795 0
M  V30 3961 N 382.828 1.3818 -0.7579 0
M  V30 3962 C 383.791 2.28764 -0.141286 0
M  V30 3963 C 384.791 1.47388 0.642907 0
M  V30 3964 O 385.981 1.67781 0.468536 0
M  V30 3965 C 383.113 3.31184 0.808069 0
M  V30 3966 H 384.306 2.848 -0.939633 0
M  V30 3967 H 381.859 1.47212 -0.525191 0
M  V30 3968 H 382.594 2.80247 1.63193 0
M  V30 3969 H 382.379 3.91314 0.248104 0
M  V30 3970 H 383.869 3.98909 1.23536 0
M  V30 3971 N 384.306 0.507319 1.49211 0
M  V30 3972 C 385.239 -0.314509 2.26022 0
M  V30 3973 C 386.217 -0.964849 1.30879 0
M  V30 3974 O 387.401 -0.993707 1.6018 0
M  V30 3975 C 384.528 -1.44346 3.06402 0
M  V30 3976 C 383.574 -0.90685 4.16748 0
M  V30 3977 S 384.407 0.207392 5.35098 0
M  V30 3978 C 385.563 -0.924573 6.19033 0
M  V30 3979 H 385.796 0.337416 2.95379 0
M  V30 3980 H 383.329 0.292718 1.516 0
M  V30 3981 H 385.287 -2.09029 3.53295 0
M  V30 3982 H 383.948 -2.06702 2.36502 0
M  V30 3983 H 383.141 -1.75309 4.72528 0
M  V30 3984 H 382.743 -0.33712 3.72478 0
M  V30 3985 H 385.035 -1.82839 6.52362 0
M  V30 3986 H 385.978 -0.405248 7.06939 0
M  V30 3987 H 386.386 -1.19476 5.51712 0
M  V30 3988 N 385.784 -1.5574 0.241426 0
M  V30 3989 C 386.716 -2.18469 -0.693091 0
M  V30 3990 C 387.729 -1.15942 -1.14286 0
M  V30 3991 O 388.918 -1.42832 -1.07058 0
M  V30 3992 C 386.018 -2.7696 -1.95311 0
M  V30 3993 C 385.191 -4.04853 -1.65568 0
M  V30 3994 C 384.25 -4.47715 -2.76474 0
M  V30 3995 O 383.276 -5.14205 -2.44094 0
M  V30 3996 N 384.478 -4.15044 -4.05855 0
M  V30 3997 H 387.243 -2.99292 -0.156388 0
M  V30 3998 H 384.804 -1.61784 0.0611752 0
M  V30 3999 H 386.796 -3.02594 -2.68736 0
M  V30 4000 H 385.366 -2.00326 -2.39975 0
M  V30 4001 H 384.586 -3.86865 -0.756886 0
M  V30 4002 H 385.874 -4.88246 -1.43153 0
M  V30 4003 H 385.272 -3.61654 -4.34998 0
M  V30 4004 H 383.829 -4.45526 -4.75762 0
M  V30 4005 N 387.262 0.0317525 -1.57568 0
M  V30 4006 C 388.172 1.05021 -2.0978 0
M  V30 4007 C 389.188 1.39809 -1.03583 0
M  V30 4008 O 390.364 1.49182 -1.35302 0
M  V30 4009 C 387.429 2.33301 -2.56459 0
M  V30 4010 C 386.49 2.0512 -3.77127 0
M  V30 4011 C 385.723 3.27283 -4.2157 0
M  V30 4012 O 385.946 4.37861 -3.65559 0
M  V30 4013 O 384.88 3.13141 -5.14029 0
M  V30 4014 H 388.706 0.636505 -2.96955 0
M  V30 4015 H 386.291 0.248559 -1.47318 0
M  V30 4016 H 388.173 3.08722 -2.86825 0
M  V30 4017 H 386.848 2.73973 -1.72397 0
M  V30 4018 H 385.755 1.27276 -3.51784 0
M  V30 4019 H 387.088 1.69305 -4.62165 0
M  V30 4020 N 388.74 1.54641 0.303973 0
M  V30 4021 C 389.97 1.77511 1.05705 0
M  V30 4022 C 390.378 0.533228 1.81531 0
M  V30 4023 O 389.721 -0.506423 1.76582 0
M  V30 4024 C 389.783 2.92779 2.08617 0
M  V30 4025 C 389.447 4.30977 1.52013 0
M  V30 4026 C 390.444 5.11115 0.9517 0
M  V30 4027 C 388.129 4.77571 1.55665 0
M  V30 4028 C 390.123 6.35966 0.427327 0
M  V30 4029 C 387.81 6.02384 1.02841 0
M  V30 4030 C 388.808 6.81417 0.464713 0
M  V30 4031 O 388.496 8.03881 -0.0555283 0
M  V30 4032 H 388.228 0.59579 0.319391 0
M  V30 4033 H 390.782 2.02401 0.349712 0
M  V30 4034 H 389.012 2.63506 2.83022 0
M  V30 4035 H 390.701 3.03252 2.69802 0
M  V30 4036 H 391.467 4.76264 0.916407 0
M  V30 4037 H 387.346 4.16085 1.9848 0
M  V30 4038 H 390.89 6.97599 -0.0133062 0
M  V30 4039 H 386.787 6.36723 1.06084 0
M  V30 4040 H 387.555 8.18479 0.0580522 0
M  V30 4041 N 390.218 -0.567019 1.47046 0
M  V30 4042 C 391.128 -1.70247 1.6141 0
M  V30 4043 C 392.144 -1.66746 0.497157 0
M  V30 4044 O 393.32 -1.86371 0.763389 0
M  V30 4045 C 390.385 -3.06756 1.61561 0
M  V30 4046 C 389.446 -3.21399 2.84607 0
M  V30 4047 C 388.679 -4.51396 2.84741 0
M  V30 4048 O 388.902 -5.36255 1.94388 0
M  V30 4049 O 387.836 -4.69621 3.76483 0
M  V30 4050 H 391.662 -1.61073 2.57467 0
M  V30 4051 H 389.247 -0.735894 1.30019 0
M  V30 4052 H 391.129 -3.8801 1.64396 0
M  V30 4053 H 389.804 -3.16333 0.686684 0
M  V30 4054 H 388.711 -2.39579 2.8732 0
M  V30 4055 H 390.044 -3.16721 3.76761 0
M  V30 4056 N 391.696 -1.35014 -0.812953 0
M  V30 4057 C 392.626 -1.30069 -1.93919 0
M  V30 4058 C 393.607 -0.176275 -1.69184 0
M  V30 4059 O 394.792 -0.370227 -1.90638 0
M  V30 4060 C 391.922 -1.06547 -3.30552 0
M  V30 4061 C 390.876 -2.15561 -3.69753 0
M  V30 4062 C 390.202 -1.77214 -5.04479 0
M  V30 4063 C 391.502 -3.57476 -3.808 0
M  V30 4064 H 393.196 -2.24303 -1.98314 0
M  V30 4065 H 390.742 -1.07977 -0.952736 0
M  V30 4066 H 392.695 -1.01729 -4.08937 0
M  V30 4067 H 391.419 -0.0875719 -3.26483 0
M  V30 4068 H 390.078 -2.19466 -2.9365 0
M  V30 4069 H 389.726 -0.780589 -4.96906 0
M  V30 4070 H 389.426 -2.50184 -5.31678 0
M  V30 4071 H 390.95 -1.7391 -5.8531 0
M  V30 4072 H 392.364 -3.55929 -4.4943 0
M  V30 4073 H 390.761 -4.29152 -4.19462 0
M  V30 4074 H 391.831 -3.94091 -2.82525 0
M  V30 4075 N 393.175 1.03435 -1.18907 0
M  V30 4076 C 394.107 2.1165 -0.879595 0
M  V30 4077 C 395.12 1.62316 0.125439 0
M  V30 4078 O 396.309 1.78201 -0.103245 0
M  V30 4079 C 393.409 3.37622 -0.294042 0
M  V30 4080 C 392.582 4.16166 -1.34629 0
M  V30 4081 C 391.641 5.20457 -0.775274 0
M  V30 4082 O 390.667 5.50379 -1.4516 0
M  V30 4083 N 391.869 5.78949 0.424126 0
M  V30 4084 H 394.634 2.38791 -1.81105 0
M  V30 4085 H 392.195 1.19681 -1.09032 0
M  V30 4086 H 394.187 4.04572 0.101679 0
M  V30 4087 H 392.757 3.07873 0.541575 0
M  V30 4088 H 391.977 3.44444 -1.91707 0
M  V30 4089 H 393.265 4.65432 -2.05549 0
M  V30 4090 H 392.663 5.56948 0.991209 0
M  V30 4091 H 391.22 6.47334 0.761691 0
M  V30 4092 N 394.653 0.992116 1.22453 0
M  V30 4093 C 395.899 0.668523 1.91464 0
M  V30 4094 C 396.232 -0.797313 1.77078 0
M  V30 4095 O 395.507 -1.5765 1.13916 0
M  V30 4096 C 395.79 1.07424 3.43703 0
M  V30 4097 C 395.643 2.59857 3.67143 0
M  V30 4098 C 396.962 0.626891 4.35612 0
M  V30 4099 H 394.081 0.244341 0.695318 0
M  V30 4100 H 396.723 1.2355 1.44345 0
M  V30 4101 H 394.873 0.591816 3.83966 0
M  V30 4102 H 396.545 3.15764 3.3629 0
M  V30 4103 H 394.788 3.01961 3.11451 0
M  V30 4104 H 395.459 2.83296 4.73759 0
M  V30 4105 H 397.935 1.04125 4.02861 0
M  V30 4106 H 396.811 0.939076 5.40807 0
M  V30 4107 H 397.072 -0.472457 4.39568 0
M  V30 4108 N 396.131 -1.37776 0.765217 0
M  V30 4109 C 397.377 -2.00145 0.327072 0
M  V30 4110 C 397.71 -1.60607 -1.09175 0
M  V30 4111 O 396.985 -0.849127 -1.74986 0
M  V30 4112 C 397.268 -3.57109 0.46319 0
M  V30 4113 C 397.121 -4.06576 1.92395 0
M  V30 4114 C 398.44 -4.39888 -0.136473 0
M  V30 4115 H 395.559 -0.727113 0.120316 0
M  V30 4116 H 398.201 -1.63549 0.967039 0
M  V30 4117 H 396.351 -3.88414 -0.0816358 0
M  V30 4118 H 398.023 -3.85864 2.52798 0
M  V30 4119 H 396.266 -3.59011 2.43503 0
M  V30 4120 H 396.937 -5.15639 1.97028 0
M  V30 4121 H 399.413 -4.14803 0.328317 0
M  V30 4122 H 398.289 -5.48899 -0.0110582 0
M  V30 4123 H 398.55 -4.24758 -1.22608 0
M  V30 4124 N 397.609 -0.515225 -1.4894 0
M  V30 4125 C 398.572 0.244681 -2.2789 0
M  V30 4126 C 399.572 0.881166 -1.34507 0
M  V30 4127 O 400.762 0.743497 -1.57537 0
M  V30 4128 C 397.894 1.35247 -3.12923 0
M  V30 4129 H 399.087 -0.448289 -2.96531 0
M  V30 4130 H 396.64 -0.270656 -1.53939 0
M  V30 4131 H 397.375 2.07916 -2.48881 0
M  V30 4132 H 397.16 0.901374 -3.81599 0
M  V30 4133 H 398.65 1.88737 -3.72516 0
M  V30 4134 N 399.087 1.5561 -0.249682 0
M  V30 4135 C 400.05 2.20217 0.635394 0
M  V30 4136 C 401.05 1.17227 1.10066 0
M  V30 4137 O 402.24 1.42292 1.00492 0
M  V30 4138 C 399.372 2.84794 1.87363 0
M  V30 4139 H 400.565 2.99814 0.0716752 0
M  V30 4140 H 398.118 1.563 -0.000153234 0
M  V30 4141 H 398.853 2.09142 2.47851 0
M  V30 4142 H 398.638 3.60241 1.5482 0
M  V30 4143 H 400.128 3.3423 2.5036 0
M  V30 4144 N 400.565 -0.0233959 1.57583 0
M  V30 4145 C 401.497 -1.04994 2.03737 0
M  V30 4146 C 402.51 -1.32125 0.951152 0
M  V30 4147 O 403.699 -1.29512 1.22837 0
M  V30 4148 C 400.799 -2.39026 2.40249 0
M  V30 4149 C 399.972 -2.31171 3.7132 0
M  V30 4150 C 399.031 -3.47698 3.94959 0
M  V30 4151 O 398.057 -3.26937 4.65941 0
M  V30 4152 N 399.259 -4.6976 3.41037 0
M  V30 4153 H 402.024 -0.656507 2.92421 0
M  V30 4154 H 399.585 -0.211235 1.60516 0
M  V30 4155 H 401.577 -3.15712 2.53196 0
M  V30 4156 H 400.147 -2.70194 1.57207 0
M  V30 4157 H 399.367 -1.39547 3.68674 0
M  V30 4158 H 400.655 -2.23071 4.57293 0
M  V30 4159 H 400.053 -4.89528 2.83512 0
M  V30 4160 H 398.61 -5.43791 3.59353 0
M  V30 4161 N 402.043 -1.548 -0.295768 0
M  V30 4162 C 403.32 -1.65014 -1.05023 0
M  V30 4163 C 403.7 -0.501805 -2.05049 0
M  V30 4164 O 403.048 0.500869 -2.22943 0
M  V30 4165 C 403.258 -3.03252 -1.72741 0
M  V30 4166 C 404.606 -3.60242 -2.24746 0
M  V30 4167 O 405.63 -3.05737 -1.82765 0
M  V30 4168 O 404.489 -4.55687 -3.01681 0
M  V30 4169 H 401.583 -0.669314 -0.485744 0
M  V30 4170 H 404.129 -1.67144 -0.293438 0
M  V30 4171 H 402.901 -3.7827 -1.00138 0
M  V30 4172 H 402.524 -3.04922 -2.55163 0
M  V30 4173 N 403.521 0.559213 -1.47345 0
M  V30 4174 C 404.937 0.884943 -1.32819 0
M  V30 4175 C 405.137 1.98988 -0.317173 0
M  V30 4176 O 404.193 2.51031 0.272011 0
M  V30 4177 C 405.506 1.28007 -2.72093 0
M  V30 4178 C 407.054 1.39161 -2.80363 0
M  V30 4179 C 407.529 1.82031 -4.20272 0
M  V30 4180 N 409.02 1.89185 -4.22804 0
M  V30 4181 C 409.755 2.2368 -5.27973 0
M  V30 4182 N 409.251 2.56802 -6.43447 0
M  V30 4183 N 411.044 2.24436 -5.15349 0
M  V30 4184 H 403.195 -0.170304 -2.11716 0
M  V30 4185 H 405.458 -0.0135247 -0.947904 0
M  V30 4186 H 405.164 0.542027 -3.47498 0
M  V30 4187 H 405.038 2.23665 -3.03733 0
M  V30 4188 H 407.425 2.12048 -2.05231 0
M  V30 4189 H 407.506 0.41696 -2.52379 0
M  V30 4190 H 407.15 1.09715 -4.95908 0
M  V30 4191 H 407.08 2.80495 -4.45679 0
M  V30 4192 H 409.571 1.65982 -3.39497 0
M  V30 4193 H 409.884 2.82144 -7.19454 0
M  V30 4194 H 408.229 2.54387 -6.46771 0
M  V30 4195 H 411.42 1.97998 -4.24163 0
M  V30 4196 H 411.593 2.50989 -5.97418 0
M  V30 4197 N 404.999 1.35443 0.805782 0
M  V30 4198 C 406.248 1.28097 1.55801 0
M  V30 4199 C 406.561 -0.142428 1.95081 0
M  V30 4200 O 407.767 -0.33817 2.69386 0
M  V30 4201 C 406.223 2.24653 2.81174 0
M  V30 4202 C 405.831 3.72342 2.49129 0
M  V30 4203 C 407.575 2.2625 3.59181 0
M  V30 4204 C 405.482 4.60719 3.70799 0
M  V30 4205 H 404.412 0.475937 0.584808 0
M  V30 4206 H 407.063 1.60712 0.885661 0
M  V30 4207 H 405.445 1.85011 3.50124 0
M  V30 4208 H 406.619 4.20624 1.88181 0
M  V30 4209 H 404.934 3.73361 1.84366 0
M  V30 4210 H 407.531 2.89495 4.49552 0
M  V30 4211 H 407.874 1.26647 3.96568 0
M  V30 4212 H 408.407 2.64426 2.97193 0
M  V30 4213 H 405.146 5.61324 3.3852 0
M  V30 4214 H 404.666 4.17163 4.3097 0
M  V30 4215 H 406.345 4.76182 4.38018 0
M  V30 4216 N 406.477 -1.02803 1.19454 0
M  V30 4217 C 407.44 -2.09264 0.934955 0
M  V30 4218 C 408.44 -1.60576 -0.0849015 0
M  V30 4219 O 409.63 -1.73554 0.149933 0
M  V30 4220 C 406.762 -3.38482 0.40531 0
M  V30 4221 H 407.955 -2.33726 1.87916 0
M  V30 4222 H 405.508 -1.19426 1.00832 0
M  V30 4223 H 406.243 -3.19689 -0.544899 0
M  V30 4224 H 406.028 -3.75142 1.14065 0
M  V30 4225 H 407.518 -4.16894 0.242806 0
M  V30 4226 N 407.956 -0.998596 -1.21925 0
M  V30 4227 C 408.903 -0.553621 -2.24062 0
M  V30 4228 C 409.873 0.416999 -1.6078 0
M  V30 4229 O 411.058 0.320482 -1.88089 0
M  V30 4230 C 408.198 0.119959 -3.44891 0
M  V30 4231 C 407.311 -0.893077 -4.22668 0
M  V30 4232 C 406.446 -0.192424 -5.30851 0
M  V30 4233 C 405.485 -1.19344 -6.00353 0
M  V30 4234 N 404.622 -0.520707 -7.00166 0
M  V30 4235 H 409.462 -1.4293 -2.61486 0
M  V30 4236 H 406.999 -0.715838 -1.28507 0
M  V30 4237 H 408.957 0.527459 -4.13852 0
M  V30 4238 H 407.587 0.959389 -3.08214 0
M  V30 4239 H 406.639 -1.41886 -3.52948 0
M  V30 4240 H 407.951 -1.65512 -4.70539 0
M  V30 4241 H 407.105 0.271515 -6.06092 0
M  V30 4242 H 405.844 0.602075 -4.83969 0
M  V30 4243 H 404.849 -1.66795 -5.23889 0
M  V30 4244 H 406.074 -1.98891 -6.49322 0
M  V30 4245 H 404.02 0.254252 -6.55507 0
M  V30 4246 H 403.937 -1.2211 -7.46073 0
M  V30 4247 H 405.205 -0.0797596 -7.79459 0
M  V30 4248 N 409.434 1.37368 -0.772513 0
M  V30 4249 C 410.845 1.8231 -0.402493 0
M  V30 4250 C 411.196 1.6436 1.07146 0
M  V30 4251 O 410.321 1.15514 1.82991 0
M  V30 4252 C 410.916 3.30979 -0.723776 0
M  V30 4253 C 409.475 3.74195 -0.406802 0
M  V30 4254 C 408.622 2.59885 -0.967218 0
M  V30 4255 H 411.573 1.25829 -0.967099 0
M  V30 4256 H 411.594 3.80499 -0.00870832 0
M  V30 4257 H 411.106 3.44011 -1.7966 0
M  V30 4258 H 409.207 3.66732 0.658673 0
M  V30 4259 H 409.32 4.7027 -0.915588 0
M  V30 4260 H 407.684 2.51674 -0.391416 0
M  V30 4261 H 408.467 2.7571 -2.04546 0
M  V30 4262 N 410.912 0.523116 1.48665 0
M  V30 4263 C 411.822 -0.247406 2.33292 0
M  V30 4264 C 412.838 -0.945769 1.46052 0
M  V30 4265 O 414.014 -0.922253 1.79043 0
M  V30 4266 C 411.079 -1.28487 3.22012 0
M  V30 4267 C 410.14 -0.597592 4.2512 0
M  V30 4268 C 409.373 -1.58563 5.09601 0
M  V30 4269 O 409.596 -2.81763 4.95949 0
M  V30 4270 O 408.53 -1.12879 5.91221 0
M  V30 4271 H 412.356 0.445869 3.00409 0
M  V30 4272 H 409.941 0.284128 1.46673 0
M  V30 4273 H 411.823 -1.88459 3.7691 0
M  V30 4274 H 410.498 -1.96068 2.57564 0
M  V30 4275 H 409.405 0.0424407 3.74076 0
M  V30 4276 H 410.738 0.0361517 4.92187 0
M  V30 4277 N 412.39 -1.55475 0.257931 0
M  V30 4278 C 413.34 -2.18506 -0.651094 0
M  V30 4279 C 414.324 -1.14431 -1.13112 0
M  V30 4280 O 415.516 -1.40305 -1.07905 0
M  V30 4281 C 412.645 -2.89653 -1.84272 0
M  V30 4282 C 411.731 -4.00996 -1.38068 0
M  V30 4283 N 412.122 -5.01816 -0.633609 0
M  V30 4284 C 410.42 -4.13753 -1.66506 0
M  V30 4285 C 411.121 -5.80371 -0.392922 0
M  V30 4286 N 410.097 -5.3505 -0.960359 0
M  V30 4287 H 413.899 -2.93811 -0.0722883 0
M  V30 4288 H 411.413 -1.62286 0.0607256 0
M  V30 4289 H 413.41 -3.33245 -2.50506 0
M  V30 4290 H 412.07 -2.15854 -2.42564 0
M  V30 4291 H 413.081 -5.17128 -0.282626 0
M  V30 4292 H 409.758 -3.51133 -2.25858 0
M  V30 4293 H 411.148 -6.7159 0.204235 0
M  V30 4294 N 413.868 0.0150385 -1.57593 0
M  V30 4295 C 415.098 0.713359 -1.93894 0
M  V30 4296 C 415.506 1.68663 -0.857289 0
M  V30 4297 O 414.849 1.82876 0.173788 0
M  V30 4298 C 414.911 1.51348 -3.26089 0
M  V30 4299 C 414.575 0.703451 -4.51554 0
M  V30 4300 C 415.572 -0.00237924 -5.199 0
M  V30 4301 C 413.257 0.653854 -4.98026 0
M  V30 4302 C 415.251 -0.746955 -6.33008 0
M  V30 4303 C 412.938 -0.0944578 -6.11027 0
M  V30 4304 C 413.936 -0.793609 -6.78374 0
M  V30 4305 O 413.624 -1.52974 -7.89211 0
M  V30 4306 H 413.356 0.204637 -0.644282 0
M  V30 4307 H 415.91 -0.0276411 -2.05381 0
M  V30 4308 H 414.14 2.29862 -3.10967 0
M  V30 4309 H 415.829 2.09572 -3.47612 0
M  V30 4310 H 416.595 0.0268803 -4.84993 0
M  V30 4311 H 412.474 1.18756 -4.45441 0
M  V30 4312 H 416.018 -1.2932 -6.85509 0
M  V30 4313 H 411.915 -0.125591 -6.45378 0
M  V30 4314 H 412.683 -1.44488 -8.05646 0
M  V30 4315 N 415.346 1.54954 0.287554 0
M  V30 4316 C 416.593 1.74873 1.02106 0
M  V30 4317 C 416.921 0.541829 1.86801 0
M  V30 4318 O 416.176 -0.475992 1.89823 0
M  V30 4319 C 416.475 2.99833 1.94512 0
M  V30 4320 C 416.141 4.33029 1.25686 0
M  V30 4321 C 414.803 4.69233 1.06649 0
M  V30 4322 C 417.155 5.15542 0.765913 0
M  V30 4323 C 414.483 5.85518 0.372222 0
M  V30 4324 C 416.835 6.32542 0.0853101 0
M  V30 4325 C 415.499 6.67398 -0.1169 0
M  V30 4326 H 414.769 0.639906 0.373632 0
M  V30 4327 H 417.416 1.89219 0.294665 0
M  V30 4328 H 415.721 2.80325 2.73725 0
M  V30 4329 H 417.418 3.1244 2.51361 0
M  V30 4330 H 414.008 4.04564 1.41512 0
M  V30 4331 H 418.192 4.88059 0.90066 0
M  V30 4332 H 413.448 6.11057 0.204695 0
M  V30 4333 H 417.622 6.95741 -0.302936 0
M  V30 4334 H 415.249 7.57357 -0.656859 0
M  V30 4335 N 416.824 -0.551391 1.4764 0
M  V30 4336 C 418.049 -1.33837 1.58437 0
M  V30 4337 C 418.474 -1.866 0.237063 0
M  V30 4338 O 417.832 -1.6328 -0.787994 0
M  V30 4339 C 417.88 -2.48014 2.61766 0
M  V30 4340 O 416.984 -3.50419 2.1744 0
M  V30 4341 H 416.325 -0.397299 0.532024 0
M  V30 4342 H 418.855 -0.665759 1.93465 0
M  V30 4343 H 418.865 -2.94503 2.82369 0
M  V30 4344 H 417.54 -2.08969 3.5959 0
M  V30 4345 H 416.117 -3.10196 2.06961 0
M  V30 4346 N 418.302 -1.35869 -0.798587 0
M  V30 4347 C 419.265 -1.29307 -1.89242 0
M  V30 4348 C 420.265 -0.202747 -1.59517 0
M  V30 4349 O 421.455 -0.456957 -1.681 0
M  V30 4350 C 418.587 -1.00229 -3.25833 0
M  V30 4351 H 419.78 -2.26576 -1.96478 0
M  V30 4352 H 417.333 -1.20509 -0.995358 0
M  V30 4353 H 418.068 -0.033801 -3.24282 0
M  V30 4354 H 417.853 -1.79121 -3.48795 0
M  V30 4355 H 419.343 -0.98219 -4.05885 0
M  V30 4356 N 419.78 1.02168 -1.19998 0
M  V30 4357 C 421.008 1.79296 -1.03249 0
M  V30 4358 C 421.423 1.84103 0.418502 0
M  V30 4359 O 420.78 1.29031 1.29063 0
M  V30 4360 C 420.831 3.24007 -1.60319 0
M  V30 4361 O 420.552 3.19512 -2.99739 0
M  V30 4362 C 422.053 4.17704 -1.48453 0
M  V30 4363 H 419.273 0.564016 -0.363493 0
M  V30 4364 H 421.817 1.28639 -1.58973 0
M  V30 4365 H 419.972 3.7183 -1.08727 0
M  V30 4366 H 420.386 4.10306 -3.26725 0
M  V30 4367 H 421.86 5.17104 -1.93153 0
M  V30 4368 H 422.337 4.37029 -0.436193 0
M  V30 4369 H 422.943 3.7576 -1.99211 0
M  V30 4370 N 421.258 1.00505 1.21394 0
M  V30 4371 C 422.205 0.565496 2.23765 0
M  V30 4372 C 423.175 -0.408466 1.60999 0
M  V30 4373 O 424.36 -0.310503 1.88257 0
M  V30 4374 C 421.5 -0.101667 3.4495 0
M  V30 4375 C 420.613 0.915479 4.22188 0
M  V30 4376 C 419.748 0.220574 5.30742 0
M  V30 4377 C 418.787 1.22527 5.99711 0
M  V30 4378 N 417.924 0.557831 6.9988 0
M  V30 4379 H 422.764 1.44314 2.60725 0
M  V30 4380 H 420.301 0.722643 1.28126 0
M  V30 4381 H 422.259 -0.505504 4.14126 0
M  V30 4382 H 420.889 -0.94303 3.08718 0
M  V30 4383 H 419.941 1.43756 3.52191 0
M  V30 4384 H 421.253 1.68005 4.69655 0
M  V30 4385 H 420.407 -0.239368 6.06228 0
M  V30 4386 H 419.146 -0.576401 4.84282 0
M  V30 4387 H 418.151 1.69571 5.22997 0
M  V30 4388 H 419.376 2.02332 6.48258 0
M  V30 4389 H 417.322 -0.219486 6.55633 0
M  V30 4390 H 417.239 1.26065 7.45415 0
M  V30 4391 H 418.507 0.121095 7.79406 0
M  V30 4392 N 422.737 -1.36956 0.779787 0
M  V30 4393 C 423.667 -2.32761 0.185651 0
M  V30 4394 C 424.648 -1.56177 -0.673989 0
M  V30 4395 O 425.833 -1.84378 -0.609797 0
M  V30 4396 C 422.963 -3.40418 -0.687964 0
M  V30 4397 C 421.917 -4.27941 0.0710102 0
M  V30 4398 C 421.243 -5.26681 -0.922573 0
M  V30 4399 C 422.543 -5.07006 1.25467 0
M  V30 4400 H 424.237 -2.82698 0.986008 0
M  V30 4401 H 421.783 -1.3592 0.475592 0
M  V30 4402 H 423.736 -4.06423 -1.11348 0
M  V30 4403 H 422.46 -2.89025 -1.52093 0
M  V30 4404 H 421.119 -3.63478 0.47739 0
M  V30 4405 H 420.767 -4.71565 -1.7503 0
M  V30 4406 H 420.467 -5.86103 -0.419237 0
M  V30 4407 H 421.991 -5.9556 -1.34686 0
M  V30 4408 H 423.405 -5.66105 0.905401 0
M  V30 4409 H 421.802 -5.75793 1.69063 0
M  V30 4410 H 422.872 -4.3921 2.05481 0
M  V30 4411 O 424.254 -0.672348 -1.46839 0
M  V30 4412 H 424.945 -0.203759 -1.92625 0
M  V30 END ATOM
M  V30 BEGIN BOND
M  V30 END BOND
M  V30 END CTAB
M  END
$$$$
