drugbank_target|Q9F0J6 Rubredoxin-oxygen oxidoreductase (DB03247)
 OpenBabel12092120273D

  0  0  0     0  0            999 V3000
M  V30 BEGIN CTAB
M  V30 COUNTS 6261 6342 0 0 0
M  V30 BEGIN ATOM
M  V30 1 H -0.908 1.98254 -0.117106 0
M  V30 2 N 0 1.576 0 0
M  V30 3 C 0.933 2.03868 1.02534 0
M  V30 4 C 1.911 0.928543 1.3348 0
M  V30 5 O 3.095 1.19667 1.45644 0
M  V30 6 C 0.222 2.43627 2.35294 0
M  V30 7 C -0.732 3.65373 2.2001 0
M  V30 8 S 0.101 5.13292 1.52614 0
M  V30 9 C 1.257 5.56322 2.86805 0
M  V30 10 H 1.49 2.90518 0.631377 0
M  V30 11 H -0.977 1.52953 0.210867 0
M  V30 12 H 0.981 2.67203 3.11629 0
M  V30 13 H -0.358 1.57376 2.7183 0
M  V30 14 H -1.165 3.90944 3.18086 0
M  V30 15 H -1.563 3.418 1.51819 0
M  V30 16 H 0.729 5.58782 3.83104 0
M  V30 17 H 1.672 6.56266 2.65933 0
M  V30 18 H 2.08 4.83886 2.90714 0
M  V30 19 N 1.4781 -0.272755 1.55222 0
M  V30 20 C 2.4101 -1.35946 1.8453 0
M  V30 21 C 3.4231 -1.45525 0.729818 0
M  V30 22 O 4.6121 -1.47337 1.00767 0
M  V30 23 C 1.7121 -2.74069 1.99347 0
M  V30 24 C 0.8851 -2.87079 3.30007 0
M  V30 25 C -0.0559 -4.05879 3.34886 0
M  V30 26 O -1.0299 -3.96626 4.08261 0
M  V30 27 N 0.1721 -5.17857 2.62307 0
M  V30 28 H 2.9371 -1.11149 2.78327 0
M  V30 29 H 0.4981 -0.462869 1.55142 0
M  V30 30 H 2.4901 -3.51838 1.99981 0
M  V30 31 H 1.0601 -2.91688 1.12415 0
M  V30 32 H 0.2801 -1.96193 3.41909 0
M  V30 33 H 1.5681 -2.92701 4.16177 0
M  V30 34 H 0.9661 -5.28261 2.02377 0
M  V30 35 H -0.4769 -5.93855 2.68663 0
M  V30 36 N 2.9562 -1.48159 -0.537278 0
M  V30 37 C 3.9192 -1.61665 -1.62472 0
M  V30 38 C 4.9192 -0.490395 -1.5314 0
M  V30 39 O 6.1092 -0.755998 -1.5694 0
M  V30 40 C 3.2412 -1.57997 -3.02076 0
M  V30 41 H 4.4342 -2.58621 -1.51839 0
M  V30 42 H 1.9872 -1.36647 -0.758771 0
M  V30 43 H 2.7222 -0.624913 -3.18222 0
M  V30 44 H 2.5072 -2.39755 -3.10258 0
M  V30 45 H 3.9972 -1.70627 -3.81151 0
M  V30 46 N 4.4343 0.785586 -1.36625 0
M  V30 47 C 5.6623 1.57448 -1.3423 0
M  V30 48 C 6.0773 1.88649 0.0755653 0
M  V30 49 O 5.4343 1.50414 1.03354 0
M  V30 50 C 5.4853 2.89316 -2.16745 0
M  V30 51 O 5.2063 2.59459 -3.53005 0
M  V30 52 C 6.7073 3.83606 -2.22174 0
M  V30 53 H 3.9273 0.488226 -0.4603 0
M  V30 54 H 6.4713 0.974733 -1.79775 0
M  V30 55 H 4.6263 3.4575 -1.74745 0
M  V30 56 H 5.0403 3.43804 -3.96105 0
M  V30 57 H 6.5143 4.73181 -2.8426 0
M  V30 58 H 6.9913 4.21734 -1.22627 0
M  V30 59 H 7.5973 3.33104 -2.64427 0
M  V30 60 N 5.9124 1.20967 1.01018 0
M  V30 61 C 6.8594 0.964281 2.09691 0
M  V30 62 C 7.8294 -0.107853 1.65749 0
M  V30 63 O 9.0144 0.0381987 1.90762 0
M  V30 64 C 6.1544 0.52943 3.41015 0
M  V30 65 C 5.2674 1.67043 3.98398 0
M  V30 66 C 4.4024 1.18525 5.17808 0
M  V30 67 C 3.4414 2.29892 5.67288 0
M  V30 68 N 2.5784 1.82546 6.77954 0
M  V30 69 H 7.4184 1.89463 2.30017 0
M  V30 70 H 4.9554 0.944289 1.1279 0
M  V30 71 H 6.9134 0.258588 4.16398 0
M  V30 72 H 5.5434 -0.363919 3.20742 0
M  V30 73 H 4.5954 2.05603 3.20049 0
M  V30 74 H 5.9074 2.50877 4.31117 0
M  V30 75 H 5.0614 0.870762 6.00419 0
M  V30 76 H 3.8004 0.316887 4.86669 0
M  V30 77 H 2.8054 2.6215 4.83278 0
M  V30 78 H 4.0304 3.17216 6.00459 0
M  V30 79 H 1.9764 0.980454 6.48632 0
M  V30 80 H 1.8934 2.59956 7.09901 0
M  V30 81 H 3.1614 1.54115 7.64113 0
M  V30 82 N 7.3905 -1.2043 1.01659 0
M  V30 83 C 8.6395 -1.89118 0.701237 0
M  V30 84 C 8.9525 -1.79705 -0.772358 0
M  V30 85 O 10.1585 -2.43528 -1.20026 0
M  V30 86 C 8.6145 -3.39168 1.20388 0
M  V30 87 C 8.2225 -3.57166 2.70438 0
M  V30 88 C 9.9665 -4.1341 0.963953 0
M  V30 89 C 7.8735 -5.01042 3.14183 0
M  V30 90 H 6.8035 -0.708267 0.2586 0
M  V30 91 H 9.4545 -1.36239 1.22927 0
M  V30 92 H 7.8365 -3.91369 0.603824 0
M  V30 93 H 9.0105 -3.15351 3.35992 0
M  V30 94 H 7.3255 -2.96294 2.92572 0
M  V30 95 H 9.9225 -5.19491 1.26621 0
M  V30 96 H 10.2655 -4.16181 -0.099578 0
M  V30 97 H 10.7985 -3.67309 1.52738 0
M  V30 98 H 7.5375 -5.03426 4.19812 0
M  V30 99 H 7.0575 -5.43668 2.53348 0
M  V30 100 H 8.7365 -5.69623 3.0682 0
M  V30 101 N 8.8686 -0.792821 -1.36206 0
M  V30 102 C 10.1176 -0.363353 -1.984 0
M  V30 103 C 10.4306 1.07172 -1.63626 0
M  V30 104 O 11.6366 1.60362 -2.19081 0
M  V30 105 C 10.0926 -0.59872 -3.54885 0
M  V30 106 C 9.7006 -2.04543 -3.9858 0
M  V30 107 C 11.4446 -0.233926 -4.23855 0
M  V30 108 C 9.3516 -2.22727 -5.47856 0
M  V30 109 H 8.2816 -0.13212 -0.742334 0
M  V30 110 H 10.9326 -0.974935 -1.55458 0
M  V30 111 H 9.3146 0.0826222 -3.95914 0
M  V30 112 H 10.4886 -2.76345 -3.68741 0
M  V30 113 H 8.8036 -2.36879 -3.42458 0
M  V30 114 H 11.4006 -0.348027 -5.33566 0
M  V30 115 H 11.7436 0.818351 -4.08177 0
M  V30 116 H 12.2766 -0.868639 -3.882 0
M  V30 117 H 9.0156 -3.2635 -5.68486 0
M  V30 118 H 8.5356 -1.55434 -5.7931 0
M  V30 119 H 10.2146 -2.03607 -6.14128 0
M  V30 120 N 10.3467 1.47872 -0.545128 0
M  V30 121 C 11.6237 1.9554 0.0485222 0
M  V30 122 C 12.0037 1.4876 1.49779 0
M  V30 123 O 11.3517 0.720925 2.16829 0
M  V30 124 C 11.5617 3.48898 -0.084417 0
M  V30 125 C 12.9097 4.24547 0.0671239 0
M  V30 126 O 13.9337 3.56198 -0.0113649 0
M  V30 127 O 12.7927 5.45999 0.233882 0
M  V30 128 H 9.8867 0.823957 0.0708773 0
M  V30 129 H 12.4327 1.58327 -0.610798 0
M  V30 130 H 11.2047 3.75714 -1.09337 0
M  V30 131 H 10.8277 3.92845 0.613066 0
M  V30 132 N 11.8248 0.280983 1.55075 0
M  V30 133 C 13.0728 -0.333455 1.9933 0
M  V30 134 C 13.3938 -1.55937 1.17085 0
M  V30 135 O 12.6638 -1.94143 0.261805 0
M  V30 136 H 11.2438 -0.126197 0.736263 0
M  V30 137 H 13.9058 0.387678 1.91005 0
M  V30 138 H 13.0018 -0.619292 3.05894 0
M  V30 139 N 13.3029 -1.57598 0.00835791 0
M  V30 140 C 14.5499 -1.90928 -0.674732 0
M  V30 141 C 14.8779 -0.88277 -1.73313 0
M  V30 142 O 14.1329 0.111294 -1.95383 0
M  V30 143 C 14.4319 -3.3101 -1.34787 0
M  V30 144 C 14.0979 -4.48922 -0.421861 0
M  V30 145 C 12.7599 -4.8091 -0.166927 0
M  V30 146 C 15.1119 -5.20755 0.215211 0
M  V30 147 C 12.4399 -5.821 0.733232 0
M  V30 148 C 14.7919 -6.22905 1.1033 0
M  V30 149 C 13.4559 -6.53346 1.36733 0
M  V30 150 H 12.7259 -0.698656 -0.246902 0
M  V30 151 H 15.3729 -1.91387 0.0656779 0
M  V30 152 H 13.6779 -3.26714 -2.16253 0
M  V30 153 H 15.3749 -3.54061 -1.8826 0
M  V30 154 H 11.9649 -4.23934 -0.630729 0
M  V30 155 H 16.1489 -4.9629 0.0312829 0
M  V30 156 H 11.4049 -6.04042 0.945712 0
M  V30 157 H 15.5789 -6.77694 1.60325 0
M  V30 158 H 13.2059 -7.31573 2.06652 0
M  V30 159 N 14.781 0.264519 -1.55364 0
M  V30 160 C 15.731 1.32966 -1.85214 0
M  V30 161 C 16.715 1.44306 -0.711653 0
M  V30 162 O 17.907 1.47844 -0.973192 0
M  V30 163 C 15.036 2.68839 -2.13495 0
M  V30 164 C 14.122 2.61575 -3.33825 0
M  V30 165 N 14.513 2.23933 -4.53528 0
M  V30 166 C 12.811 2.92621 -3.36584 0
M  V30 167 C 13.512 2.26868 -5.35636 0
M  V30 168 N 12.488 2.65677 -4.74254 0
M  V30 169 H 16.29 1.02884 -2.75304 0
M  V30 170 H 13.804 0.473157 -1.55354 0
M  V30 171 H 15.801 3.45685 -2.33039 0
M  V30 172 H 14.461 2.99802 -1.24694 0
M  V30 173 H 15.472 1.95769 -4.79474 0
M  V30 174 H 12.149 3.2824 -2.58002 0
M  V30 175 H 13.539 2.00254 -6.41364 0
M  V30 176 N 16.2591 1.48442 0.529413 0
M  V30 177 C 17.1891 1.65902 1.64313 0
M  V30 178 C 18.1701 0.507897 1.6234 0
M  V30 179 O 19.3551 0.740503 1.79528 0
M  V30 180 C 16.4851 1.69911 3.02898 0
M  V30 181 C 15.4391 2.8453 3.19729 0
M  V30 182 C 14.7651 2.73629 4.59381 0
M  V30 183 C 16.0651 4.25821 3.02447 0
M  V30 184 H 17.7591 2.5914 1.49955 0
M  V30 185 H 15.3051 1.24709 0.719982 0
M  V30 186 H 17.2581 1.80715 3.80684 0
M  V30 187 H 15.9821 0.732524 3.18279 0
M  V30 188 H 14.6411 2.73283 2.44361 0
M  V30 189 H 14.2891 1.74938 4.71599 0
M  V30 190 H 13.9891 3.50541 4.71588 0
M  V30 191 H 15.5131 2.86401 5.39265 0
M  V30 192 H 16.9271 4.37898 3.70024 0
M  V30 193 H 15.3241 5.03735 3.26146 0
M  V30 194 H 16.3941 4.42244 1.98867 0
M  V30 195 N 17.7372 -0.778329 1.37039 0
M  V30 196 C 18.9832 -1.53892 1.32079 0
M  V30 197 C 19.3162 -1.9396 -0.0965386 0
M  V30 198 O 18.5912 -1.63568 -1.05242 0
M  V30 199 C 18.8742 -2.80847 2.25382 0
M  V30 200 C 18.7272 -2.47076 3.75864 0
M  V30 201 C 20.0462 -3.82741 2.1725 0
M  V30 202 H 17.1652 -0.558303 0.48111 0
M  V30 203 H 19.8072 -0.893397 1.67685 0
M  V30 204 H 17.9572 -3.35931 1.95148 0
M  V30 205 H 19.6292 -1.97957 4.16666 0
M  V30 206 H 17.8722 -1.79863 3.94755 0
M  V30 207 H 18.5432 -3.37798 4.36574 0
M  V30 208 H 21.0192 -3.37133 2.43887 0
M  V30 209 H 19.8952 -4.69303 2.84686 0
M  V30 210 H 20.1562 -4.2652 1.16331 0
M  V30 211 N 19.2153 -1.21501 -1.00376 0
M  V30 212 C 20.4633 -1.03095 -1.73827 0
M  V30 213 C 20.7843 0.436341 -1.90055 0
M  V30 214 O 20.0543 1.31466 -1.45236 0
M  V30 215 H 18.6343 -0.378487 -0.644016 0
M  V30 216 H 21.2963 -1.52831 -1.20949 0
M  V30 217 H 20.3923 -1.49991 -2.73695 0
M  V30 218 N 20.6934 1.19889 -1.02296 0
M  V30 219 C 21.6564 2.21116 -0.603351 0
M  V30 220 C 22.6564 1.5738 0.329884 0
M  V30 221 O 23.8464 1.73802 0.117702 0
M  V30 222 C 20.9784 3.40696 0.117992 0
M  V30 223 H 22.1714 2.59754 -1.49893 0
M  V30 224 H 19.7244 1.33463 -0.813468 0
M  V30 225 H 20.4594 3.07569 1.0282 0
M  V30 226 H 20.2444 3.88188 -0.552511 0
M  V30 227 H 21.7344 4.15692 0.398696 0
M  V30 228 N 22.1715 0.800033 1.35784 0
M  V30 229 C 23.4205 0.37387 1.98205 0
M  V30 230 C 23.7335 -1.06302 1.64193 0
M  V30 231 O 24.9395 -1.59198 2.19928 0
M  V30 232 C 23.3955 0.617532 3.54562 0
M  V30 233 C 23.0035 2.06654 3.9749 0
M  V30 234 C 24.7475 0.256401 4.23725 0
M  V30 235 C 22.6545 2.2563 5.46667 0
M  V30 236 H 21.5845 0.136055 0.741623 0
M  V30 237 H 24.2355 0.983166 1.54939 0
M  V30 238 H 22.6175 -0.0616248 3.95952 0
M  V30 239 H 23.7915 2.78296 3.67271 0
M  V30 240 H 22.1065 2.38691 3.41197 0
M  V30 241 H 24.7035 0.376318 5.33374 0
M  V30 242 H 25.0465 -0.796692 4.08606 0
M  V30 243 H 25.5795 0.889214 3.87734 0
M  V30 244 H 22.3185 3.2936 5.66747 0
M  V30 245 H 21.8385 1.58504 5.78478 0
M  V30 246 H 23.5175 2.06861 6.1304 0
M  V30 247 N 23.6496 -1.47581 0.552962 0
M  V30 248 C 24.9266 -1.95563 -0.0381515 0
M  V30 249 C 25.3066 -1.49552 -1.48988 0
M  V30 250 O 24.6546 -0.732414 -2.16444 0
M  V30 251 C 24.8646 -3.48848 0.102919 0
M  V30 252 C 26.2126 -4.24577 -0.0446082 0
M  V30 253 O 27.2366 -3.56187 0.0302548 0
M  V30 254 O 26.0956 -5.46116 -0.204923 0
M  V30 255 H 23.1896 -0.824321 -0.0665067 0
M  V30 256 H 25.7356 -1.58001 0.619186 0
M  V30 257 H 24.5076 -3.75129 1.11328 0
M  V30 258 H 24.1306 -3.93165 -0.592224 0
M  V30 259 N 25.1277 -0.289203 -1.54924 0
M  V30 260 C 26.3737 0.316922 -2.00916 0
M  V30 261 C 26.7287 1.52424 -1.17408 0
M  V30 262 O 26.0217 1.90097 -0.239536 0
M  V30 263 C 26.2157 0.736119 -3.49737 0
M  V30 264 C 26.0447 -0.429036 -4.47649 0
M  V30 265 C 24.8147 -0.917311 -4.96904 0
M  V30 266 C 27.0127 -1.27016 -4.98369 0
M  V30 267 N 24.9947 -2.05046 -5.78644 0
M  V30 268 C 26.3657 -2.25097 -5.77695 0
M  V30 269 C 28.4207 -1.30188 -4.80578 0
M  V30 270 C 27.1237 -3.26114 -6.41126 0
M  V30 271 C 29.1497 -2.30057 -5.44819 0
M  V30 272 C 28.5117 -3.2687 -6.23968 0
M  V30 273 H 24.6107 0.0807535 -0.777819 0
M  V30 274 H 27.1947 -0.416434 -1.90194 0
M  V30 275 H 25.3657 1.43867 -3.60773 0
M  V30 276 H 27.0977 1.32078 -3.82541 0
M  V30 277 H 23.8527 -0.494248 -4.71014 0
M  V30 278 H 24.2767 -2.62108 -6.24202 0
M  V30 279 H 28.9187 -0.567163 -4.18979 0
M  V30 280 H 26.6367 -4.00512 -7.01866 0
M  V30 281 H 30.2227 -2.33271 -5.32988 0
M  V30 282 H 29.1027 -4.02883 -6.72796 0
M  V30 283 N 26.6058 1.57591 -0.0167156 0
M  V30 284 C 27.5538 2.10604 0.987353 0
M  V30 285 C 28.5478 1.02977 1.34507 0
M  V30 286 O 29.7538 1.21425 1.32875 0
M  V30 287 H 26.1288 0.672695 0.336134 0
M  V30 288 H 28.0998 2.93925 0.514817 0
M  V30 289 C 26.8488 2.6382 2.26483 0
M  V30 290 H 26.1718 3.46278 1.99829 0
M  V30 291 H 27.6118 3.04573 2.94977 0
M  V30 292 C 26.0708 1.55992 2.9861 0
M  V30 293 O 26.6008 0.952521 3.90243 0
M  V30 294 N 24.8068 1.28335 2.60727 0
M  V30 295 H 24.3538 1.77914 1.86291 0
M  V30 296 H 24.3118 0.564115 3.09298 0
M  V30 297 N 28.0839 -0.256276 1.55502 0
M  V30 298 C 29.3089 -1.00766 1.81276 0
M  V30 299 C 29.7339 -1.78524 0.59252 0
M  V30 300 O 29.0919 -1.75413 -0.45827 0
M  V30 301 C 29.1399 -1.92869 3.04687 0
M  V30 302 O 28.2439 -3.019 2.80945 0
M  V30 303 H 27.5849 -0.287224 0.598664 0
M  V30 304 H 30.1149 -0.280109 2.02674 0
M  V30 305 H 30.1249 -2.34511 3.33869 0
M  V30 306 H 28.7999 -1.35689 3.93143 0
M  V30 307 H 27.3769 -2.64454 2.62904 0
M  V30 308 N 29.562 -1.4872 -0.521534 0
M  V30 309 C 30.978 -1.35028 -0.850855 0
M  V30 310 C 31.178 -0.367712 -1.98116 0
M  V30 311 O 30.234 0.208037 -2.51642 0
M  V30 312 C 31.547 -2.75263 -1.21041 0
M  V30 313 C 33.095 -2.83813 -1.31981 0
M  V30 314 C 33.57 -4.24769 -1.71276 0
M  V30 315 N 35.061 -4.27482 -1.78363 0
M  V30 316 C 35.796 -5.33494 -2.1017 0
M  V30 317 N 35.292 -6.49775 -2.40343 0
M  V30 318 N 37.085 -5.20894 -2.11248 0
M  V30 319 H 29.236 -2.11214 0.22413 0
M  V30 320 H 31.499 -0.947252 0.0376439 0
M  V30 321 H 31.205 -3.48765 -0.453415 0
M  V30 322 H 31.079 -3.09327 -2.15863 0
M  V30 323 H 33.466 -2.10561 -2.06756 0
M  V30 324 H 33.547 -2.53358 -0.352596 0
M  V30 325 H 33.191 -4.9854 -0.970588 0
M  V30 326 H 33.121 -4.52673 -2.69062 0
M  V30 327 H 35.612 -3.43611 -1.57288 0
M  V30 328 H 35.925 -7.26402 -2.63743 0
M  V30 329 H 34.27 -6.53035 -2.37844 0
M  V30 330 H 37.461 -4.29065 -1.87139 0
M  V30 331 H 37.634 -6.03612 -2.35704 0
M  V30 332 N 31.0401 0.771051 -1.3745 0
M  V30 333 C 32.3171 1.519 -1.23231 0
M  V30 334 C 32.6971 2.10383 0.173809 0
M  V30 335 O 32.0451 1.95583 1.18151 0
M  V30 336 C 32.2551 2.59933 -2.32886 0
M  V30 337 C 33.6031 3.27316 -2.70461 0
M  V30 338 O 34.6271 2.70228 -2.32068 0
M  V30 339 O 33.4861 4.30531 -3.36608 0
M  V30 340 H 30.5801 0.672803 -0.480901 0
M  V30 341 H 33.1261 0.807957 -1.49232 0
M  V30 342 H 31.8981 2.14842 -3.27045 0
M  V30 343 H 31.5211 3.38637 -2.08353 0
M  V30 344 N 32.5182 1.22032 0.997298 0
M  V30 345 C 33.7652 1.04222 1.73621 0
M  V30 346 C 34.0932 -0.423264 1.89839 0
M  V30 347 O 33.3482 -1.3302 1.43542 0
M  V30 348 C 33.6472 1.69345 3.14733 0
M  V30 349 C 33.3132 3.19226 3.18442 0
M  V30 350 C 31.9752 3.60124 3.19161 0
M  V30 351 C 34.3272 4.15181 3.15078 0
M  V30 352 C 31.6552 4.95467 3.14212 0
M  V30 353 C 34.0072 5.50495 3.1167 0
M  V30 354 C 32.6712 5.90779 3.10703 0
M  V30 355 H 31.9412 0.381374 0.635323 0
M  V30 356 H 34.5882 1.51732 1.16831 0
M  V30 357 H 32.8932 1.14147 3.74803 0
M  V30 358 H 34.5902 1.53059 3.7064 0
M  V30 359 H 31.1802 2.86659 3.18629 0
M  V30 360 H 35.3642 3.84605 3.13676 0
M  V30 361 H 30.6202 5.25916 3.11805 0
M  V30 362 H 34.7942 6.24576 3.08022 0
M  V30 363 H 32.4212 6.9562 3.06622 0
M  V30 364 N 33.9963 -1.19345 1.0293 0
M  V30 365 C 34.9463 -2.20472 0.58104 0
M  V30 366 C 35.9303 -1.56578 -0.370442 0
M  V30 367 O 37.1223 -1.75963 -0.191344 0
M  V30 368 C 34.2513 -3.43236 -0.066306 0
M  V30 369 C 33.3373 -4.14274 0.907642 0
M  V30 370 N 33.7283 -4.61492 2.07023 0
M  V30 371 C 32.0263 -4.39966 0.731177 0
M  V30 372 C 32.7273 -5.1605 2.68454 0
M  V30 373 N 31.7033 -5.06875 1.96414 0
M  V30 374 H 35.5053 -2.54659 1.46717 0
M  V30 375 H 33.0193 -1.35423 0.896345 0
M  V30 376 H 35.0163 -4.14927 -0.405068 0
M  V30 377 H 33.6763 -3.10549 -0.948118 0
M  V30 378 H 34.6873 -4.56304 2.44963 0
M  V30 379 H 31.3643 -4.17377 -0.101507 0
M  V30 380 H 32.7543 -5.6287 3.66915 0
M  V30 381 N 35.4744 -0.807222 -1.35358 0
M  V30 382 C 36.7224 -0.387122 -1.98358 0
M  V30 383 C 37.0434 1.04942 -1.64354 0
M  V30 384 O 36.3134 1.72615 -0.926339 0
M  V30 385 H 34.8934 -0.140154 -0.733734 0
M  V30 386 H 37.5554 -1.0332 -1.6526 0
M  V30 387 H 36.6514 -0.493352 -3.08176 0
M  V30 388 N 36.9525 1.47285 -0.560781 0
M  V30 389 C 38.1825 2.06555 -0.0429638 0
M  V30 390 C 38.5905 1.41339 1.25777 0
M  V30 391 O 37.9335 0.505182 1.76617 0
M  V30 392 C 37.9955 3.58827 0.219887 0
M  V30 393 C 37.6595 4.46105 -0.991944 0
M  V30 394 C 38.6565 4.84 -1.89843 0
M  V30 395 C 36.3415 4.87567 -1.20762 0
M  V30 396 C 38.3355 5.6216 -3.00425 0
M  V30 397 C 36.0225 5.65491 -2.31653 0
M  V30 398 C 37.0205 6.02699 -3.21315 0
M  V30 399 O 36.7085 6.79052 -4.30283 0
M  V30 400 H 36.4405 0.674537 -0.0444468 0
M  V30 401 H 38.9945 1.90225 -0.774818 0
M  V30 402 H 37.2245 3.73383 1.00609 0
M  V30 403 H 38.9135 4.00103 0.683522 0
M  V30 404 H 39.6795 4.52564 -1.74387 0
M  V30 405 H 35.5585 4.5807 -0.518893 0
M  V30 406 H 39.1025 5.9112 -3.70436 0
M  V30 407 H 34.9995 5.9634 -2.47081 0
M  V30 408 H 35.7675 6.9745 -4.28376 0
M  V30 409 N 38.4306 0.297415 1.54768 0
M  V30 410 C 39.6586 -0.315623 2.04478 0
M  V30 411 C 40.0736 -1.47792 1.17486 0
M  V30 412 O 39.4306 -1.81404 0.19971 0
M  V30 413 C 39.4816 -0.7753 3.53088 0
M  V30 414 O 39.2026 0.340732 4.36773 0
M  V30 415 C 40.7036 -1.45386 4.18781 0
M  V30 416 H 37.9236 -0.0690887 0.667434 0
M  V30 417 H 40.4676 0.436003 1.99798 0
M  V30 418 H 38.6226 -1.47696 3.58141 0
M  V30 419 H 39.0366 -0.0165035 5.24497 0
M  V30 420 H 40.5106 -1.72669 5.24299 0
M  V30 421 H 40.9876 -2.39275 3.68299 0
M  V30 422 H 41.5936 -0.795475 4.17795 0
M  V30 423 N 39.9087 -1.5758 0.0250728 0
M  V30 424 C 40.8387 -2.13007 -0.956575 0
M  V30 425 C 41.8197 -1.0452 -1.342 0
M  V30 426 O 43.0047 -1.32332 -1.42133 0
M  V30 427 C 40.1347 -2.65386 -2.24026 0
M  V30 428 C 39.0887 -3.78623 -1.99571 0
M  V30 429 C 38.4147 -4.17414 -3.3417 0
M  V30 430 C 39.7147 -5.04867 -1.33814 0
M  V30 431 H 41.4087 -2.9528 -0.494991 0
M  V30 432 H 38.9547 -1.42042 -0.236651 0
M  V30 433 H 40.9077 -3.02794 -2.93076 0
M  V30 434 H 39.6317 -1.80268 -2.72343 0
M  V30 435 H 38.2907 -3.41646 -1.32941 0
M  V30 436 H 37.9387 -3.29284 -3.80238 0
M  V30 437 H 37.6387 -4.93719 -3.18615 0
M  V30 438 H 39.1627 -4.57402 -4.04495 0
M  V30 439 H 40.5767 -5.39888 -1.92857 0
M  V30 440 H 38.9737 -5.86144 -1.28669 0
M  V30 441 H 40.0437 -4.83904 -0.310561 0
M  V30 442 N 41.3868 0.248026 -1.55636 0
M  V30 443 C 42.6118 0.998028 -1.81808 0
M  V30 444 C 43.0368 1.78207 -0.601979 0
M  V30 445 O 42.3948 1.75653 0.448961 0
M  V30 446 C 42.4428 1.9125 -3.05705 0
M  V30 447 O 41.5468 3.00406 -2.82542 0
M  V30 448 H 40.8878 0.284045 -0.600179 0
M  V30 449 H 43.4178 0.269357 -2.02819 0
M  V30 450 H 43.4278 2.32737 -3.35108 0
M  V30 451 H 42.1028 1.33602 -3.93857 0
M  V30 452 H 40.6798 2.63056 -2.64303 0
M  V30 453 N 42.8649 1.48995 0.513639 0
M  V30 454 C 44.2759 1.5119 1.09537 0
M  V30 455 C 44.6269 0.290906 1.94031 0
M  V30 456 O 43.7519 -0.60049 2.07902 0
M  V30 457 C 44.3469 2.73964 1.99322 0
M  V30 458 C 42.9059 2.78978 2.52682 0
M  V30 459 C 42.0529 2.44934 1.30009 0
M  V30 460 H 45.0039 1.55875 0.298125 0
M  V30 461 H 45.0249 2.53409 2.83838 0
M  V30 462 H 44.5369 3.62813 1.37799 0
M  V30 463 H 42.6379 1.94378 3.1788 0
M  V30 464 H 42.7509 3.8083 2.90698 0
M  V30 465 H 41.1149 1.9644 1.62122 0
M  V30 466 H 41.8979 3.36043 0.702131 0
M  V30 467 N 44.343 -0.763751 1.37857 0
M  V30 468 C 45.276 -1.88486 1.28639 0
M  V30 469 C 46.254 -1.61757 0.165363 0
M  V30 470 O 47.438 -1.85391 0.340948 0
M  V30 471 C 44.565 -3.23884 0.990811 0
M  V30 472 C 43.611 -3.69514 2.12983 0
M  V30 473 S 44.444 -3.82244 3.75033 0
M  V30 474 C 45.6 -5.20477 3.47641 0
M  V30 475 H 45.833 -1.96017 2.23527 0
M  V30 476 H 43.366 -0.925684 1.23574 0
M  V30 477 H 45.324 -4.02081 0.827101 0
M  V30 478 H 43.985 -3.14044 0.0592832 0
M  V30 479 H 43.178 -4.67696 1.87821 0
M  V30 480 H 42.78 -2.98441 2.25408 0
M  V30 481 H 45.072 -6.05905 3.03125 0
M  V30 482 H 46.015 -5.50655 4.4518 0
M  V30 483 H 46.423 -4.88793 2.82385 0
M  V30 484 N 45.8211 -1.22559 -0.990812 0
M  V30 485 C 47.0691 -1.04933 -1.72724 0
M  V30 486 C 47.3901 0.416158 -1.90508 0
M  V30 487 O 46.6601 1.29918 -1.46622 0
M  V30 488 H 45.2401 -0.385296 -0.639965 0
M  V30 489 H 47.9021 -1.54105 -1.19322 0
M  V30 490 H 46.9981 -1.52886 -2.72089 0
M  V30 491 N 47.2992 1.18797 -1.03562 0
M  V30 492 C 48.5272 1.92599 -0.755869 0
M  V30 493 C 48.9422 1.75886 0.686271 0
M  V30 494 O 48.2992 1.08517 1.46732 0
M  V30 495 C 48.3502 3.44159 -1.10619 0
M  V30 496 O 48.0712 3.60341 -2.4917 0
M  V30 497 C 49.5722 4.3507 -0.850214 0
M  V30 498 H 46.7922 0.611587 -0.276048 0
M  V30 499 H 49.3362 1.50742 -1.38192 0
M  V30 500 H 47.4912 3.83823 -0.525194 0
M  V30 501 H 47.9052 4.54128 -2.62427 0
M  V30 502 H 49.3792 5.39989 -1.14523 0
M  V30 503 H 49.8562 4.38673 0.215176 0
M  V30 504 H 50.4622 4.01097 -1.41426 0
M  V30 505 N 48.7773 0.814389 1.34928 0
M  V30 506 C 50.0053 0.411136 2.02774 0
M  V30 507 C 50.4203 -0.980316 1.61354 0
M  V30 508 O 49.7773 -1.63299 0.814847 0
M  V30 509 C 49.8283 0.493865 3.58111 0
M  V30 510 O 49.5493 1.83047 3.98027 0
M  V30 511 C 51.0503 0.0844174 4.4322 0
M  V30 512 H 48.2703 0.166037 0.650133 0
M  V30 513 H 50.8143 1.10018 1.72384 0
M  V30 514 H 48.9693 -0.147006 3.87121 0
M  V30 515 H 49.3833 1.79872 4.92693 0
M  V30 516 H 50.8573 0.193404 5.51661 0
M  V30 517 H 51.3343 -0.97113 4.28329 0
M  V30 518 H 51.9403 0.69875 4.19521 0
M  V30 519 N 50.2554 -1.46986 0.568584 0
M  V30 520 C 51.4854 -2.0653 0.0539173 0
M  V30 521 C 51.8934 -1.42004 -1.25026 0
M  V30 522 O 51.2364 -0.514541 -1.76347 0
M  V30 523 C 51.2984 -3.58938 -0.200854 0
M  V30 524 C 50.9624 -4.45572 1.01559 0
M  V30 525 C 51.9594 -4.82986 1.92407 0
M  V30 526 C 49.6444 -4.8692 1.23346 0
M  V30 527 C 51.6384 -5.60559 3.03402 0
M  V30 528 C 49.3254 -5.64255 2.34649 0
M  V30 529 C 50.3234 -6.00986 3.24507 0
M  V30 530 O 50.0114 -6.76761 4.33878 0
M  V30 531 H 49.7434 -0.674292 0.0480234 0
M  V30 532 H 52.2974 -1.89812 0.784896 0
M  V30 533 H 50.5274 -3.73911 -0.986279 0
M  V30 534 H 52.2164 -4.0046 -0.662294 0
M  V30 535 H 52.9824 -4.51633 1.76785 0
M  V30 536 H 48.8614 -4.57789 0.543178 0
M  V30 537 H 52.4054 -5.89147 3.73565 0
M  V30 538 H 48.3024 -5.95021 2.5024 0
M  V30 539 H 49.0704 -6.95168 4.32068 0
M  V30 540 N 51.7335 -0.305618 -1.54608 0
M  V30 541 C 52.6815 0.584119 -2.25146 0
M  V30 542 C 53.6755 1.13326 -1.25911 0
M  V30 543 O 54.8815 1.08337 -1.43747 0
M  V30 544 H 51.2565 0.206983 -0.722954 0
M  V30 545 H 53.2275 -0.033291 -2.98381 0
M  V30 546 C 51.9765 1.74225 -3.009 0
M  V30 547 H 51.2995 1.32892 -3.77067 0
M  V30 548 H 52.7395 2.34077 -3.53531 0
M  V30 549 C 51.1985 2.64914 -2.0814 0
M  V30 550 O 51.7285 3.66137 -1.65246 0
M  V30 551 N 49.9345 2.3275 -1.74 0
M  V30 552 H 49.4815 1.50479 -2.09078 0
M  V30 553 H 49.4395 2.93694 -1.12211 0
M  V30 554 N 53.2116 1.57565 -0.0334293 0
M  V30 555 C 54.1746 2.09393 0.932048 0
M  V30 556 C 55.1746 1.00986 1.25134 0
M  V30 557 O 56.3646 1.27129 1.19096 0
M  V30 558 C 53.4966 2.56338 2.2473 0
M  V30 559 H 54.6896 2.95984 0.483085 0
M  V30 560 H 52.2426 1.54819 0.21468 0
M  V30 561 H 52.9776 1.7309 2.74245 0
M  V30 562 H 52.7626 3.35542 2.02865 0
M  V30 563 H 54.2526 2.96646 2.93923 0
M  V30 564 N 54.6897 -0.239769 1.55765 0
M  V30 565 C 55.9197 -0.982743 1.8173 0
M  V30 566 C 56.3277 -1.7917 0.607835 0
M  V30 567 O 55.6707 -1.78525 -0.432973 0
M  V30 568 C 55.7327 -1.96332 3.01155 0
M  V30 569 C 55.3967 -1.34062 4.36894 0
M  V30 570 C 56.3937 -0.739539 5.14613 0
M  V30 571 C 54.0787 -1.35784 4.83599 0
M  V30 572 C 56.0727 -0.163989 6.37189 0
M  V30 573 C 53.7597 -0.778441 6.06122 0
M  V30 574 C 54.7577 -0.182548 6.82756 0
M  V30 575 O 54.4457 0.387887 8.02964 0
M  V30 576 H 54.1777 -0.294481 0.608487 0
M  V30 577 H 56.7317 -0.26572 2.03674 0
M  V30 578 H 54.9617 -2.71884 2.74984 0
M  V30 579 H 56.6507 -2.57032 3.14149 0
M  V30 580 H 57.4167 -0.718687 4.79646 0
M  V30 581 H 53.2957 -1.81105 4.23936 0
M  V30 582 H 56.8397 0.301753 6.96947 0
M  V30 583 H 52.7367 -0.796645 6.40565 0
M  V30 584 H 53.5047 0.28044 8.18019 0
M  V30 585 N 56.1678 -1.49265 -0.50573 0
M  V30 586 C 57.0978 -1.68495 -1.61653 0
M  V30 587 C 58.0788 -0.53366 -1.61512 0
M  V30 588 O 59.2638 -0.76897 -1.78327 0
M  V30 589 C 56.3938 -1.74709 -3.00157 0
M  V30 590 C 55.3478 -2.89581 -3.15162 0
M  V30 591 C 54.6738 -2.80903 -4.5497 0
M  V30 592 C 55.9738 -4.30578 -2.95634 0
M  V30 593 H 57.6678 -2.61493 -1.45814 0
M  V30 594 H 55.2138 -1.25838 -0.70005 0
M  V30 595 H 57.1668 -1.86748 -3.77761 0
M  V30 596 H 55.8908 -0.783067 -3.17074 0
M  V30 597 H 54.5498 -2.77136 -2.39982 0
M  V30 598 H 54.1978 -1.82419 -4.68756 0
M  V30 599 H 53.8978 -3.57999 -4.65951 0
M  V30 600 H 55.4218 -2.94944 -5.34641 0
M  V30 601 H 56.8358 -4.4373 -3.63011 0
M  V30 602 H 55.2328 -5.0886 -3.18091 0
M  V30 603 H 56.3028 -4.45352 -1.91806 0
M  V30 604 N 57.6459 0.756429 -1.3826 0
M  V30 605 C 58.8919 1.51772 -1.34511 0
M  V30 606 C 59.2249 1.94089 0.0656691 0
M  V30 607 O 58.4999 1.65221 1.02626 0
M  V30 608 C 58.7829 2.77226 -2.29821 0
M  V30 609 C 58.6359 2.41065 -3.79747 0
M  V30 610 C 59.9549 3.79236 -2.23312 0
M  V30 611 H 57.0739 0.550578 -0.489931 0
M  V30 612 H 59.7159 0.866607 -1.69086 0
M  V30 613 H 57.8659 3.32784 -2.00467 0
M  V30 614 H 59.5379 1.91303 -4.19763 0
M  V30 615 H 57.7809 1.7356 -3.97567 0
M  V30 616 H 58.4519 3.3081 -4.41892 0
M  V30 617 H 60.9279 3.3321 -2.49219 0
M  V30 618 H 59.8039 4.64714 -2.92116 0
M  V30 619 H 60.0649 4.24615 -1.23102 0
M  V30 620 N 59.124 1.23083 0.984299 0
M  V30 621 C 60.034 1.02515 2.11016 0
M  V30 622 C 61.05 -0.0291702 1.73976 0
M  V30 623 O 62.226 0.165434 2.00719 0
M  V30 624 C 59.291 0.614673 3.41208 0
M  V30 625 C 58.352 1.74359 3.92297 0
M  V30 626 C 57.585 1.35261 5.16275 0
M  V30 627 O 57.808 0.235136 5.69915 0
M  V30 628 O 56.742 2.17227 5.61334 0
M  V30 629 H 60.568 1.96862 2.31255 0
M  V30 630 H 58.153 1.01753 1.09392 0
M  V30 631 H 60.035 0.396518 4.1953 0
M  V30 632 H 58.71 -0.299851 3.22308 0
M  V30 633 H 57.617 2.01635 3.1511 0
M  V30 634 H 58.95 2.63629 4.15645 0
M  V30 635 N 60.6021 -1.18246 1.0419 0
M  V30 636 C 61.8791 -1.84121 0.660208 0
M  V30 637 C 62.2591 -1.92778 -0.860221 0
M  V30 638 O 61.6071 -1.45464 -1.76217 0
M  V30 639 C 61.8171 -3.22355 1.33747 0
M  V30 640 C 63.1651 -3.98376 1.46906 0
M  V30 641 O 64.1891 -3.31799 1.29568 0
M  V30 642 O 63.0481 -5.17665 1.75171 0
M  V30 643 H 60.1421 -0.794036 0.231161 0
M  V30 644 H 62.6881 -1.25628 1.14087 0
M  V30 645 H 61.4601 -3.10964 2.37522 0
M  V30 646 H 61.0831 -3.88506 0.845515 0
M  V30 647 N 62.0802 -0.821533 -1.34494 0
M  V30 648 C 62.9902 -0.244355 -2.33324 0
M  V30 649 C 64.0062 0.620527 -1.62559 0
M  V30 650 O 65.1822 0.528754 -1.94335 0
M  V30 651 C 62.2472 0.585368 -3.41723 0
M  V30 652 C 61.3082 -0.301752 -4.28238 0
M  V30 653 C 60.5412 0.488466 -5.3146 0
M  V30 654 O 60.7642 1.72186 -5.4379 0
M  V30 655 O 59.6982 -0.12848 -6.01763 0
M  V30 656 H 63.5242 -1.06231 -2.84515 0
M  V30 657 H 61.1092 -0.583645 -1.37528 0
M  V30 658 H 62.9912 1.05747 -4.07916 0
M  V30 659 H 61.6662 1.38068 -2.92778 0
M  V30 660 H 60.5732 -0.821315 -3.64973 0
M  V30 661 H 61.9062 -1.06138 -4.8062 0
M  V30 662 N 63.5583 1.46682 -0.576371 0
M  V30 663 C 64.5053 2.30241 0.160499 0
M  V30 664 C 65.4753 1.40233 0.890162 0
M  V30 665 O 66.6603 1.69186 0.882084 0
M  V30 666 C 63.8003 3.24578 1.1723 0
M  V30 667 C 62.9133 4.29684 0.446736 0
M  V30 668 C 62.0483 5.11154 1.44551 0
M  V30 669 C 61.0873 6.08015 0.70599 0
M  V30 670 N 60.2243 6.82376 1.65251 0
M  V30 671 H 65.0643 2.92727 -0.558127 0
M  V30 672 H 62.6013 1.44272 -0.287056 0
M  V30 673 H 64.5593 3.77711 1.77172 0
M  V30 674 H 63.1893 2.63916 1.85872 0
M  V30 675 H 62.2413 3.79458 -0.267594 0
M  V30 676 H 63.5533 4.98626 -0.131686 0
M  V30 677 H 62.7073 5.68533 2.11791 0
M  V30 678 H 61.4463 4.42158 2.05786 0
M  V30 679 H 60.4513 5.49796 0.0197725 0
M  V30 680 H 61.6763 6.79028 0.09912 0
M  V30 681 H 59.6223 6.16094 2.25308 0
M  V30 682 H 59.5393 7.47556 1.12673 0
M  V30 683 H 60.8073 7.44316 2.31546 0
M  V30 684 N 65.0364 0.313813 1.54444 0
M  V30 685 C 66.2644 -0.293918 2.04802 0
M  V30 686 C 66.6794 -1.46537 1.19047 0
M  V30 687 O 66.0364 -1.81182 0.218939 0
M  V30 688 C 66.0874 -0.737806 3.53891 0
M  V30 689 O 65.8084 0.387038 4.36387 0
M  V30 690 C 67.3094 -1.40936 4.203 0
M  V30 691 H 64.5294 -0.0620057 0.668129 0
M  V30 692 H 67.0734 0.457169 1.99324 0
M  V30 693 H 65.2284 -1.43889 3.59687 0
M  V30 694 H 65.6424 0.0391274 5.24485 0
M  V30 695 H 67.1164 -1.67099 5.26101 0
M  V30 696 H 67.5934 -2.35355 3.70816 0
M  V30 697 H 68.1994 -0.751117 4.18615 0
M  V30 698 N 66.5145 -1.57545 0.0417849 0
M  V30 699 C 67.7425 -1.96624 -0.643928 0
M  V30 700 C 68.1575 -0.918897 -1.64929 0
M  V30 701 O 67.5145 0.0979323 -1.82237 0
M  V30 702 C 67.5655 -3.35781 -1.33914 0
M  V30 703 O 67.2865 -4.365 -0.374048 0
M  V30 704 C 68.7875 -3.89566 -2.1155 0
M  V30 705 H 66.0075 -0.647316 -0.176702 0
M  V30 706 H 68.5515 -2.04229 0.105304 0
M  V30 707 H 66.7065 -3.29357 -2.03968 0
M  V30 708 H 67.1205 -5.17248 -0.869179 0
M  V30 709 H 68.5945 -4.89242 -2.55628 0
M  V30 710 H 69.0715 -3.24488 -2.9598 0
M  V30 711 H 69.6775 -3.99298 -1.46427 0
M  V30 712 N 67.9926 0.231505 -1.5589 0
M  V30 713 C 68.9226 1.29022 -1.94617 0
M  V30 714 C 69.9036 1.4941 -0.813067 0
M  V30 715 O 71.0886 1.6176 -1.07459 0
M  V30 716 C 68.2186 2.64199 -2.25424 0
M  V30 717 C 67.1726 2.58484 -3.41131 0
M  V30 718 C 66.4986 3.97599 -3.57518 0
M  V30 719 C 67.7986 2.1413 -4.76388 0
M  V30 720 H 69.4926 0.968563 -2.83301 0
M  V30 721 H 67.0386 0.464479 -1.36303 0
M  V30 722 H 68.9916 3.38413 -2.51107 0
M  V30 723 H 67.7156 2.98032 -1.33583 0
M  V30 724 H 66.3746 1.86727 -3.15481 0
M  V30 725 H 66.0226 4.28723 -2.6307 0
M  V30 726 H 65.7226 3.94659 -4.35337 0
M  V30 727 H 67.2466 4.7349 -3.85538 0
M  V30 728 H 68.6606 2.78083 -5.01341 0
M  V30 729 H 67.0576 2.2227 -5.57419 0
M  V30 730 H 68.1276 1.09331 -4.72414 0
M  V30 731 N 69.4707 1.49531 0.497807 0
M  V30 732 C 70.7177 1.59179 1.25173 0
M  V30 733 C 71.0457 0.279932 1.92475 0
M  V30 734 O 70.3007 -0.732383 1.81479 0
M  V30 735 C 70.5997 2.70252 2.33878 0
M  V30 736 C 70.2657 4.11644 1.84012 0
M  V30 737 C 68.9277 4.50121 1.70132 0
M  V30 738 C 71.2797 5.00121 1.46725 0
M  V30 739 C 68.6077 5.74845 1.17348 0
M  V30 740 C 70.9597 6.25366 0.95392 0
M  V30 741 C 69.6237 6.6267 0.801538 0
M  V30 742 H 68.8937 0.582478 0.45804 0
M  V30 743 H 71.5407 1.83373 0.551948 0
M  V30 744 H 69.8457 2.40041 3.09657 0
M  V30 745 H 71.5427 2.74925 2.9192 0
M  V30 746 H 68.1327 3.81274 1.95775 0
M  V30 747 H 72.3167 4.71048 1.56294 0
M  V30 748 H 67.5727 6.02444 1.04264 0
M  V30 749 H 71.7467 6.93301 0.656225 0
M  V30 750 H 69.3737 7.59197 0.390351 0
M  V30 751 N 70.9488 -0.749086 1.3866 0
M  V30 752 C 72.2258 -1.4992 1.25632 0
M  V30 753 C 72.6058 -2.10633 -0.140317 0
M  V30 754 O 71.9538 -1.97437 -1.15025 0
M  V30 755 C 72.1638 -2.56195 2.36992 0
M  V30 756 C 73.5118 -3.22972 2.75634 0
M  V30 757 O 74.5358 -2.66502 2.36337 0
M  V30 758 O 73.3948 -4.25122 3.43415 0
M  V30 759 H 70.4888 -0.665067 0.491544 0
M  V30 760 H 73.0348 -0.784113 1.50498 0
M  V30 761 H 71.8068 -2.09612 3.30422 0
M  V30 762 H 71.4298 -3.35279 2.13714 0
M  V30 763 N 72.4269 -1.23603 -0.977757 0
M  V30 764 C 73.6549 -1.09646 -1.75458 0
M  V30 765 C 74.0699 0.351859 -1.85492 0
M  V30 766 O 73.4269 1.24327 -1.336 0
M  V30 767 C 73.4779 -1.71895 -3.18016 0
M  V30 768 O 73.1989 -3.11063 -3.08498 0
M  V30 769 C 74.6999 -1.63415 -4.12081 0
M  V30 770 H 71.9199 -0.38359 -0.550545 0
M  V30 771 H 74.4639 -1.63507 -1.22824 0
M  V30 772 H 72.6189 -1.22061 -3.67668 0
M  V30 773 H 73.0329 -3.41305 -3.9826 0
M  V30 774 H 74.5069 -2.11669 -5.09804 0
M  V30 775 H 74.9839 -0.593462 -4.35172 0
M  V30 776 H 75.5899 -2.12628 -3.68334 0
M  V30 777 N 73.905 1.17692 -1.04816 0
M  V30 778 C 75.151 1.88137 -0.75711 0
M  V30 779 C 75.484 1.80604 0.713841 0
M  V30 780 O 74.759 1.21146 1.52164 0
M  V30 781 C 75.042 3.38318 -1.2334 0
M  V30 782 C 74.895 3.54622 -2.76701 0
M  V30 783 C 76.214 4.32214 -0.829415 0
M  V30 784 H 73.333 0.683163 -0.27651 0
M  V30 785 H 75.975 1.38424 -1.30149 0
M  V30 786 H 74.125 3.80787 -0.770286 0
M  V30 787 H 75.797 3.21194 -3.31107 0
M  V30 788 H 74.04 2.97026 -3.16161 0
M  V30 789 H 74.711 4.60028 -3.05088 0
M  V30 790 H 77.187 3.97565 -1.22805 0
M  V30 791 H 76.063 5.35838 -1.19033 0
M  V30 792 H 76.324 4.41294 0.266891 0
M  V30 793 N 75.3831 0.828654 1.34056 0
M  V30 794 C 76.3301 0.252567 2.29414 0
M  V30 795 C 77.3001 -0.62588 1.53857 0
M  V30 796 O 78.4851 -0.566312 1.82202 0
M  V30 797 C 75.6251 -0.574831 3.40279 0
M  V30 798 C 74.7381 0.326499 4.30764 0
M  V30 799 C 73.8731 -0.511016 5.28736 0
M  V30 800 C 72.9121 0.389342 6.1086 0
M  V30 801 N 72.0491 -0.409439 7.00905 0
M  V30 802 H 76.8891 1.07108 2.78086 0
M  V30 803 H 74.4261 0.539677 1.36843 0
M  V30 804 H 76.3841 -1.06992 4.03248 0
M  V30 805 H 75.0141 -1.35841 2.92826 0
M  V30 806 H 74.0661 0.939837 3.68607 0
M  V30 807 H 75.3781 1.01857 4.88289 0
M  V30 808 H 74.5321 -1.07035 5.97184 0
M  V30 809 H 73.2711 -1.23657 4.71763 0
M  V30 810 H 72.2761 0.960769 5.4134 0
M  V30 811 H 73.5011 1.1131 6.69916 0
M  V30 812 H 71.4471 -1.11856 6.46393 0
M  V30 813 H 71.3641 0.224126 7.55668 0
M  V30 814 H 72.6321 -0.951336 7.73673 0
M  V30 815 N 76.8612 -1.46375 0.584142 0
M  V30 816 C 77.8242 -2.28784 -0.138108 0
M  V30 817 C 78.8242 -1.38471 -0.817462 0
M  V30 818 O 80.0142 -1.60833 -0.669199 0
M  V30 819 C 77.1462 -3.18892 -1.20503 0
M  V30 820 H 78.3392 -2.94117 0.586127 0
M  V30 821 H 75.8922 -1.52509 0.342171 0
M  V30 822 H 76.6272 -2.58309 -1.96079 0
M  V30 823 H 76.4122 -3.85388 -0.722384 0
M  V30 824 H 77.9022 -3.80914 -1.71155 0
M  V30 825 N 78.3393 -0.321999 -1.54275 0
M  V30 826 C 79.2493 0.553631 -2.27974 0
M  V30 827 C 80.2653 1.13054 -1.32268 0
M  V30 828 O 81.4413 1.15084 -1.6528 0
M  V30 829 C 78.5063 1.69927 -3.02201 0
M  V30 830 C 77.5673 1.15433 -4.1349 0
M  V30 831 C 76.8003 2.24537 -4.84168 0
M  V30 832 O 77.0233 3.44852 -4.5435 0
M  V30 833 O 75.9573 1.90044 -5.7111 0
M  V30 834 H 79.7833 -0.0448345 -3.03667 0
M  V30 835 H 77.3683 -0.0877418 -1.49142 0
M  V30 836 H 79.2503 2.3663 -3.48689 0
M  V30 837 H 77.9253 2.28395 -2.29385 0
M  V30 838 H 76.8323 0.452436 -3.71354 0
M  V30 839 H 78.1653 0.614805 -4.88345 0
M  V30 840 N 79.8174 1.5752 -0.0501392 0
M  V30 841 C 81.0474 1.96678 0.632573 0
M  V30 842 C 81.4554 0.926298 1.64974 0
M  V30 843 O 80.7984 -0.09802 1.83438 0
M  V30 844 C 80.8604 3.32068 1.37735 0
M  V30 845 C 80.5244 4.54076 0.516131 0
M  V30 846 C 81.5214 5.19445 -0.217357 0
M  V30 847 C 79.2064 5.00304 0.44736 0
M  V30 848 C 81.2004 6.29378 -1.00807 0
M  V30 849 C 78.8874 6.10114 -0.347038 0
M  V30 850 C 79.8854 6.74512 -1.07344 0
M  V30 851 O 79.5734 7.82211 -1.85477 0
M  V30 852 H 79.3054 0.652193 0.177821 0
M  V30 853 H 81.8594 2.05091 -0.112543 0
M  V30 854 H 80.0894 3.20206 2.16807 0
M  V30 855 H 81.7784 3.55981 1.95019 0
M  V30 856 H 82.5444 4.84689 -0.173688 0
M  V30 857 H 78.4234 4.49971 1.00235 0
M  V30 858 H 81.9674 6.79575 -1.57556 0
M  V30 859 H 77.8644 6.44307 -0.392349 0
M  V30 860 H 78.6324 7.98982 -1.77678 0
M  V30 861 N 81.2955 -0.223234 1.56011 0
M  V30 862 C 82.2425 -1.27664 1.92277 0
M  V30 863 C 83.2125 -1.46659 0.779763 0
M  V30 864 O 84.3975 -1.60256 1.03551 0
M  V30 865 C 81.5375 -2.62234 2.24338 0
M  V30 866 C 80.6505 -2.51051 3.51564 0
M  V30 867 C 79.7855 -3.78133 3.7308 0
M  V30 868 C 78.8245 -3.61665 4.93827 0
M  V30 869 N 77.9615 -4.80693 5.11741 0
M  V30 870 H 82.8015 -0.960358 2.82101 0
M  V30 871 H 80.3385 -0.462901 1.39627 0
M  V30 872 H 82.2965 -3.40596 2.40936 0
M  V30 873 H 80.9265 -2.91961 1.3769 0
M  V30 874 H 79.9785 -1.64132 3.43169 0
M  V30 875 H 81.2905 -2.34803 4.40079 0
M  V30 876 H 80.4445 -4.64938 3.89766 0
M  V30 877 H 79.1835 -3.97304 2.82844 0
M  V30 878 H 78.1885 -2.73244 4.77093 0
M  V30 879 H 79.4135 -3.43966 5.85546 0
M  V30 880 H 77.3595 -5.00181 4.24446 0
M  V30 881 H 77.2765 -4.67165 5.94384 0
M  V30 882 H 78.5445 -5.6893 5.3286 0
M  V30 883 N 82.7736 -1.49793 -0.48987 0
M  V30 884 C 84.0216 -1.59525 -1.24081 0
M  V30 885 C 84.3426 -0.288953 -1.92847 0
M  V30 886 O 83.6126 0.692436 -1.83254 0
M  V30 887 H 82.1926 -0.587796 -0.460983 0
M  V30 888 H 84.8546 -1.86477 -0.566778 0
M  V30 889 H 83.9506 -2.39696 -1.99881 0
M  V30 890 N 84.2517 0.741722 -1.39055 0
M  V30 891 C 85.1617 1.88621 -1.39496 0
M  V30 892 C 86.1777 1.71557 -0.290578 0
M  V30 893 O 87.3537 1.94275 -0.530954 0
M  V30 894 C 84.4187 3.24134 -1.23037 0
M  V30 895 C 83.4797 3.5364 -2.43387 0
M  V30 896 C 82.7127 4.82687 -2.27703 0
M  V30 897 O 82.9357 5.55922 -1.27696 0
M  V30 898 O 81.8697 5.1194 -3.16545 0
M  V30 899 H 85.6957 1.91203 -2.35956 0
M  V30 900 H 83.2807 0.888625 -1.20099 0
M  V30 901 H 85.1627 4.0513 -1.15964 0
M  V30 902 H 83.8377 3.22337 -0.296691 0
M  V30 903 H 82.7447 2.72758 -2.56035 0
M  V30 904 H 84.0777 3.60209 -3.35425 0
M  V30 905 N 85.7298 1.2412 0.971189 0
M  V30 906 C 86.6598 1.05508 2.08304 0
M  V30 907 C 87.6408 -0.0308864 1.70072 0
M  V30 908 O 88.8258 0.135521 1.93727 0
M  V30 909 C 85.9558 0.655365 3.4106 0
M  V30 910 C 84.9098 1.68971 3.93234 0
M  V30 911 C 84.2358 1.14516 5.22293 0
M  V30 912 C 85.5358 3.08487 4.21465 0
M  V30 913 H 87.2298 1.98507 2.24132 0
M  V30 914 H 84.7758 0.955821 1.07704 0
M  V30 915 H 86.7288 0.51217 4.18276 0
M  V30 916 H 85.4528 -0.31032 3.25122 0
M  V30 917 H 84.1118 1.82106 3.18171 0
M  V30 918 H 83.7598 0.170189 5.02712 0
M  V30 919 H 83.4598 1.83635 5.58168 0
M  V30 920 H 84.9838 1.01401 6.02121 0
M  V30 921 H 86.3978 2.98601 4.89398 0
M  V30 922 H 84.7948 3.74926 4.68562 0
M  V30 923 H 85.8648 3.56787 3.28376 0
M  V30 924 N 87.2079 -1.17134 1.05439 0
M  V30 925 C 88.1379 -2.2342 0.678649 0
M  V30 926 C 89.1189 -1.66971 -0.32476 0
M  V30 927 O 90.3039 -1.93149 -0.201802 0
M  V30 928 C 87.4339 -3.47256 0.0552099 0
M  V30 929 C 86.3879 -4.16543 0.98365 0
M  V30 930 C 85.7139 -5.34231 0.223961 0
M  V30 931 C 87.0139 -4.68495 2.3089 0
M  V30 932 H 88.7079 -2.55105 1.56722 0
M  V30 933 H 86.2539 -1.2262 0.754998 0
M  V30 934 H 88.2069 -4.20828 -0.21946 0
M  V30 935 H 86.9309 -3.14846 -0.868319 0
M  V30 936 H 85.5899 -3.44887 1.24293 0
M  V30 937 H 85.2379 -4.98071 -0.702412 0
M  V30 938 H 84.9379 -5.81527 0.842627 0
M  V30 939 H 86.4619 -6.10585 -0.0433671 0
M  V30 940 H 87.8759 -5.33691 2.09396 0
M  V30 941 H 86.2729 -5.26379 2.88176 0
M  V30 942 H 87.3429 -3.85169 2.94572 0
M  V30 943 N 88.686 -0.835752 -1.33615 0
M  V30 944 C 89.926 -0.43599 -1.99696 0
M  V30 945 C 90.29 0.98557 -1.64774 0
M  V30 946 O 91.491 1.48889 -2.23798 0
M  V30 947 C 89.762 -0.646721 -3.515 0
M  V30 948 S 91.321 -0.341715 -4.37467 0
M  V30 949 H 88.139 -0.164136 -0.691795 0
M  V30 950 H 90.741 -1.08436 -1.62671 0
M  V30 951 H 89.445 -1.68077 -3.74404 0
M  V30 952 H 88.976 0.0159173 -3.93397 0
M  V30 953 H 90.991 0.839708 -4.89043 0
M  V30 954 N 90.1641 1.46063 -0.591896 0
M  V30 955 C 91.4121 2.01938 -0.0808391 0
M  V30 956 C 91.7331 1.46475 1.28725 0
M  V30 957 O 91.0031 0.652944 1.84698 0
M  V30 958 H 89.5831 0.746516 -0.0268938 0
M  V30 959 H 92.2451 1.79055 -0.769752 0
M  V30 960 H 91.3411 3.12094 -0.0187578 0
M  V30 961 N 91.6422 0.330177 1.54103 0
M  V30 962 C 92.8912 -0.271336 1.99867 0
M  V30 963 C 93.2042 -1.52723 1.22209 0
M  V30 964 O 94.4102 -2.20515 1.58383 0
M  V30 965 C 92.8662 -0.534032 3.55916 0
M  V30 966 C 92.4742 0.705193 4.42415 0
M  V30 967 C 94.2182 -1.09514 4.1013 0
M  V30 968 C 92.1252 0.414035 5.89949 0
M  V30 969 H 91.0552 -0.105166 0.74663 0
M  V30 970 H 93.7062 0.443429 1.78062 0
M  V30 971 H 92.0882 -1.30915 3.73734 0
M  V30 972 H 93.2622 1.4804 4.36372 0
M  V30 973 H 91.5772 1.18698 3.99124 0
M  V30 974 H 94.1742 -1.3277 5.17954 0
M  V30 975 H 94.5172 -2.04656 3.62521 0
M  V30 976 H 95.0502 -0.381038 3.95971 0
M  V30 977 H 91.7892 1.33481 6.41766 0
M  V30 978 H 91.3092 -0.323336 5.98928 0
M  V30 979 H 92.9882 0.0263105 6.46995 0
M  V30 980 N 93.1203 -1.57491 0.0584922 0
M  V30 981 C 94.0833 -2.1085 -0.898617 0
M  V30 982 C 95.0833 -1.02964 -1.23511 0
M  V30 983 O 96.2733 -1.29007 -1.17059 0
M  V30 984 C 93.4053 -2.59881 -2.20623 0
M  V30 985 H 94.5983 -2.96715 -0.435936 0
M  V30 986 H 92.1513 -1.55141 -0.190023 0
M  V30 987 H 92.8863 -1.77431 -2.71457 0
M  V30 988 H 92.6713 -3.38727 -1.97501 0
M  V30 989 H 94.1613 -3.01285 -2.89166 0
M  V30 990 N 94.5984 0.214957 -1.56127 0
M  V30 991 C 95.8234 0.95924 -1.83884 0
M  V30 992 C 96.2484 1.7689 -0.639644 0
M  V30 993 O 95.6064 1.76566 0.411601 0
M  V30 994 C 95.6544 1.84723 -3.09693 0
M  V30 995 O 94.7584 2.94346 -2.8885 0
M  V30 996 H 94.0994 0.27125 -0.606069 0
M  V30 997 H 96.6294 0.226276 -2.03345 0
M  V30 998 H 96.6394 2.25576 -3.39969 0
M  V30 999 H 95.3144 1.25218 -3.96602 0
M  V30 1000 H 93.8914 2.57391 -2.69823 0
M  V30 1001 N 96.0765 1.50051 0.48192 0
M  V30 1002 C 97.3225 1.60736 1.2366 0
M  V30 1003 C 97.6555 0.301786 1.91841 0
M  V30 1004 O 96.9305 -0.696025 1.8162 0
M  V30 1005 C 97.2135 2.78009 2.28874 0
M  V30 1006 C 97.0665 4.18416 1.65069 0
M  V30 1007 C 98.3855 2.90867 3.30279 0
M  V30 1008 H 95.5045 0.585031 0.448228 0
M  V30 1009 H 98.1465 1.82402 0.531946 0
M  V30 1010 H 96.2965 2.59667 2.88973 0
M  V30 1011 H 97.9685 4.48322 1.0865 0
M  V30 1012 H 96.2115 4.23177 0.954148 0
M  V30 1013 H 96.8825 4.96381 2.41474 0
M  V30 1014 H 99.3585 3.07623 2.80191 0
M  V30 1015 H 98.2345 3.74566 4.01238 0
M  V30 1016 H 98.4955 2.01021 3.93755 0
M  V30 1017 N 97.5546 -0.734337 1.39446 0
M  V30 1018 C 98.8036 -1.48937 1.36017 0
M  V30 1019 C 99.1166 -1.95557 -0.0409005 0
M  V30 1020 O 100.323 -2.70779 -0.19778 0
M  V30 1021 C 98.7786 -2.69125 2.38955 0
M  V30 1022 C 98.3866 -2.29452 3.8478 0
M  V30 1023 C 100.131 -3.46944 2.44603 0
M  V30 1024 C 98.0376 -3.46366 4.79358 0
M  V30 1025 H 96.9676 -0.559296 0.505672 0
M  V30 1026 H 99.6186 -0.800983 1.65095 0
M  V30 1027 H 98.0006 -3.40041 2.02948 0
M  V30 1028 H 99.1746 -1.66077 4.29831 0
M  V30 1029 H 97.4896 -1.64723 3.82433 0
M  V30 1030 H 100.087 -4.33907 3.12456 0
M  V30 1031 H 100.43 -3.89454 1.47076 0
M  V30 1032 H 100.963 -2.83056 2.79507 0
M  V30 1033 H 97.7016 -3.08905 5.78151 0
M  V30 1034 H 97.2216 -4.08719 4.38986 0
M  V30 1035 H 98.9006 -4.12691 4.98292 0
M  V30 1036 N 99.0327 -1.24633 -0.964593 0
M  V30 1037 C 100.31 -0.995809 -1.68354 0
M  V30 1038 C 100.69 0.480964 -2.05548 0
M  V30 1039 O 100.038 1.45599 -1.76105 0
M  V30 1040 C 100.248 -1.92177 -2.91323 0
M  V30 1041 C 101.596 -2.19446 -3.63495 0
M  V30 1042 O 102.62 -1.89855 -3.01386 0
M  V30 1043 O 101.479 -2.69714 -4.75307 0
M  V30 1044 H 98.5727 -0.376854 -0.736146 0
M  V30 1045 H 101.119 -1.35745 -1.0184 0
M  V30 1046 H 99.8907 -2.91938 -2.60553 0
M  V30 1047 H 99.5137 -1.56349 -3.65569 0
M  V30 1048 N 100.511 1.16574 -1.06058 0
M  V30 1049 C 101.922 1.68662 -0.800632 0
M  V30 1050 C 102.273 1.84184 0.67608 0
M  V30 1051 O 101.398 1.53568 1.52466 0
M  V30 1052 C 101.993 3.06356 -1.44676 0
M  V30 1053 C 100.552 3.55575 -1.23465 0
M  V30 1054 C 99.6988 2.31616 -1.52477 0
M  V30 1055 H 102.65 1.00969 -1.22438 0
M  V30 1056 H 102.671 3.70636 -0.860788 0
M  V30 1057 H 102.183 2.95027 -2.52152 0
M  V30 1058 H 100.284 3.72167 -0.179527 0
M  V30 1059 H 100.397 4.37812 -1.94571 0
M  V30 1060 H 98.7608 2.36512 -0.945209 0
M  V30 1061 H 99.5438 2.22887 -2.61106 0
M  V30 1062 N 101.989 0.842826 1.3317 0
M  V30 1063 C 102.936 0.276885 2.29133 0
M  V30 1064 C 103.906 -0.609527 1.54512 0
M  V30 1065 O 105.091 -0.546955 1.82792 0
M  V30 1066 C 102.231 -0.538707 3.40869 0
M  V30 1067 C 101.344 0.372169 4.30394 0
M  V30 1068 C 100.479 -0.454908 5.29249 0
M  V30 1069 C 99.5179 0.45411 6.10413 0
M  V30 1070 N 98.6549 -0.335075 7.013 0
M  V30 1071 H 103.495 1.10052 2.76934 0
M  V30 1072 H 101.032 0.554161 1.36262 0
M  V30 1073 H 102.99 -1.02709 4.0436 0
M  V30 1074 H 101.62 -1.32727 2.9425 0
M  V30 1075 H 100.672 0.97888 3.6759 0
M  V30 1076 H 101.984 1.0703 4.87182 0
M  V30 1077 H 101.138 -1.00695 5.98285 0
M  V30 1078 H 99.8769 -1.18646 4.73048 0
M  V30 1079 H 98.8819 1.01813 5.40291 0
M  V30 1080 H 100.107 1.18409 6.68697 0
M  V30 1081 H 98.0529 -1.04994 6.47543 0
M  V30 1082 H 97.9699 0.304262 7.55387 0
M  V30 1083 H 99.2379 -0.869224 7.74638 0
M  V30 1084 N 103.467 -1.45747 0.599634 0
M  V30 1085 C 104.414 -2.30467 -0.123849 0
M  V30 1086 C 105.384 -1.41632 -0.86774 0
M  V30 1087 O 106.569 -1.70568 -0.855056 0
M  V30 1088 C 103.709 -3.26402 -1.12051 0
M  V30 1089 C 102.822 -4.3034 -0.37832 0
M  V30 1090 C 101.957 -5.13389 -1.364 0
M  V30 1091 C 100.996 -6.09061 -0.609171 0
M  V30 1092 N 100.133 -6.84918 -1.54374 0
M  V30 1093 H 104.973 -2.91802 0.604627 0
M  V30 1094 H 102.51 -1.43797 0.309972 0
M  V30 1095 H 104.468 -3.80482 -1.7114 0
M  V30 1096 H 103.098 -2.66839 -1.8165 0
M  V30 1097 H 102.15 -3.78984 0.327929 0
M  V30 1098 H 103.462 -4.98354 0.210997 0
M  V30 1099 H 102.616 -5.7183 -2.02719 0
M  V30 1100 H 101.355 -4.45376 -1.98725 0
M  V30 1101 H 100.36 -5.49758 0.0676979 0
M  V30 1102 H 101.585 -6.79099 0.00891991 0
M  V30 1103 H 99.531 -6.19601 -2.15478 0
M  V30 1104 H 99.448 -7.49254 -1.00766 0
M  V30 1105 H 100.716 -7.47906 -2.19676 0
M  V30 1106 N 104.945 -0.338344 -1.53925 0
M  V30 1107 C 106.194 0.260732 -2.00008 0
M  V30 1108 C 106.507 1.52073 -1.23017 0
M  V30 1109 O 107.713 2.19672 -1.5955 0
M  V30 1110 C 106.169 0.51515 -3.56194 0
M  V30 1111 C 105.777 -0.728645 -4.42035 0
M  V30 1112 C 107.521 1.07337 -4.10706 0
M  V30 1113 C 105.428 -0.445315 -5.89721 0
M  V30 1114 H 104.358 0.101205 -0.747177 0
M  V30 1115 H 107.009 -0.452866 -1.77824 0
M  V30 1116 H 105.391 1.28932 -3.74423 0
M  V30 1117 H 106.565 -1.50352 -4.35581 0
M  V30 1118 H 104.88 -1.20813 -3.98489 0
M  V30 1119 H 107.477 1.30022 -5.18651 0
M  V30 1120 H 107.82 2.0273 -3.63602 0
M  V30 1121 H 108.353 0.360034 -3.96167 0
M  V30 1122 H 105.092 -1.36883 -6.41049 0
M  V30 1123 H 104.612 0.291569 -5.99091 0
M  V30 1124 H 106.291 -0.0606218 -6.46972 0
M  V30 1125 N 106.423 1.57458 -0.0668435 0
M  V30 1126 C 107.7 1.8469 0.644132 0
M  V30 1127 C 108.08 0.958343 1.88093 0
M  V30 1128 O 107.428 0.0233579 2.28488 0
M  V30 1129 C 107.638 3.34767 0.986509 0
M  V30 1130 C 108.986 4.02159 1.36212 0
M  V30 1131 O 110.01 3.39484 1.07839 0
M  V30 1132 O 108.869 5.12694 1.89227 0
M  V30 1133 H 105.963 0.762816 0.319437 0
M  V30 1134 H 108.509 1.6942 -0.0973986 0
M  V30 1135 H 107.281 3.91151 0.107883 0
M  V30 1136 H 106.904 3.55281 1.78497 0
M  V30 1137 N 107.901 -0.206675 1.56239 0
M  V30 1138 C 109.131 -0.943975 1.83773 0
M  V30 1139 C 109.539 -1.77841 0.645703 0
M  V30 1140 O 108.882 -1.79403 -0.395008 0
M  V30 1141 C 108.944 -1.899 3.05251 0
M  V30 1142 C 108.608 -1.24764 4.39639 0
M  V30 1143 C 109.605 -0.630216 5.16066 0
M  V30 1144 C 107.29 -1.25496 4.8637 0
M  V30 1145 C 109.284 -0.0287946 6.37393 0
M  V30 1146 C 106.971 -0.649698 6.07637 0
M  V30 1147 C 107.969 -0.0376845 6.8299 0
M  V30 1148 O 107.657 0.55812 8.0196 0
M  V30 1149 H 107.389 -0.281508 0.614597 0
M  V30 1150 H 109.943 -0.222458 2.04192 0
M  V30 1151 H 108.173 -2.6599 2.80689 0
M  V30 1152 H 109.862 -2.5031 3.1953 0
M  V30 1153 H 110.628 -0.616785 4.81062 0
M  V30 1154 H 106.507 -1.72072 4.27683 0
M  V30 1155 H 110.051 0.449518 6.9615 0
M  V30 1156 H 105.948 -0.660592 6.42111 0
M  V30 1157 H 106.716 0.453891 8.17241 0
M  V30 1158 N 109.379 -1.50304 -0.473955 0
M  V30 1159 C 110.309 -1.71886 -1.58042 0
M  V30 1160 C 111.29 -0.567799 -1.60344 0
M  V30 1161 O 112.475 -0.806623 -1.76656 0
M  V30 1162 C 109.605 -1.81036 -2.96384 0
M  V30 1163 C 108.559 -2.962 -3.08949 0
M  V30 1164 C 107.885 -2.9049 -4.48909 0
M  V30 1165 C 109.185 -4.36752 -2.86434 0
M  V30 1166 H 110.879 -2.64527 -1.40234 0
M  V30 1167 H 108.425 -1.27295 -0.673201 0
M  V30 1168 H 110.378 -1.94719 -3.73714 0
M  V30 1169 H 109.102 -0.850147 -3.15341 0
M  V30 1170 H 107.761 -2.82164 -2.3405 0
M  V30 1171 H 107.409 -1.92321 -4.64781 0
M  V30 1172 H 107.109 -3.67802 -4.58253 0
M  V30 1173 H 108.633 -3.06218 -5.28264 0
M  V30 1174 H 110.047 -4.5133 -3.53517 0
M  V30 1175 H 108.444 -5.15493 -3.07225 0
M  V30 1176 H 109.514 -4.49321 -1.82316 0
M  V30 1177 N 110.857 0.726932 -1.39834 0
M  V30 1178 C 112.103 1.48884 -1.377 0
M  V30 1179 C 112.436 1.94185 0.0244852 0
M  V30 1180 O 111.711 1.67361 0.990986 0
M  V30 1181 C 111.994 2.72288 -2.3565 0
M  V30 1182 C 111.847 2.32956 -3.84775 0
M  V30 1183 C 113.166 3.74414 -2.31306 0
M  V30 1184 H 110.285 0.540062 -0.5015 0
M  V30 1185 H 112.927 0.830547 -1.70886 0
M  V30 1186 H 111.077 3.28457 -2.07481 0
M  V30 1187 H 112.749 1.82356 -4.23726 0
M  V30 1188 H 110.992 1.65088 -4.01159 0
M  V30 1189 H 111.663 3.21362 -4.4881 0
M  V30 1190 H 114.139 3.27849 -2.56231 0
M  V30 1191 H 113.015 4.58414 -3.01907 0
M  V30 1192 H 113.276 4.21909 -1.32081 0
M  V30 1193 N 112.336 1.25143 0.95797 0
M  V30 1194 C 113.585 1.0909 1.69654 0
M  V30 1195 C 113.898 -0.368548 1.92097 0
M  V30 1196 O 115.104 -0.649455 2.63618 0
M  V30 1197 C 113.56 1.90395 3.05414 0
M  V30 1198 C 113.168 3.4081 2.90779 0
M  V30 1199 C 114.912 1.82901 3.83076 0
M  V30 1200 C 112.819 4.14423 4.21909 0
M  V30 1201 H 111.749 0.404625 0.636235 0
M  V30 1202 H 114.4 1.4931 1.06672 0
M  V30 1203 H 112.782 1.42996 3.69281 0
M  V30 1204 H 113.956 3.95859 2.35865 0
M  V30 1205 H 112.271 3.49361 2.26575 0
M  V30 1206 H 114.868 2.35196 4.80195 0
M  V30 1207 H 115.211 0.796224 4.08615 0
M  V30 1208 H 115.744 2.28033 3.25954 0
M  V30 1209 H 112.483 5.18102 4.01561 0
M  V30 1210 H 112.003 3.64159 4.76601 0
M  V30 1211 H 113.682 4.21956 4.90471 0
M  V30 1212 N 113.814 -1.1601 1.06675 0
M  V30 1213 C 114.746 -2.20115 0.638921 0
M  V30 1214 C 115.759 -1.59916 -0.305057 0
M  V30 1215 O 116.948 -1.78245 -0.0954446 0
M  V30 1216 C 114.048 -3.38798 -0.0830083 0
M  V30 1217 C 113.221 -4.2855 0.875426 0
M  V30 1218 C 112.28 -5.25849 0.192042 0
M  V30 1219 O 111.306 -5.63102 0.830921 0
M  V30 1220 N 112.508 -5.70648 -1.06493 0
M  V30 1221 H 115.273 -2.57439 1.53444 0
M  V30 1222 H 112.834 -1.31057 0.950557 0
M  V30 1223 H 114.826 -4.00936 -0.550685 0
M  V30 1224 H 113.396 -2.99947 -0.880386 0
M  V30 1225 H 112.616 -3.63617 1.52238 0
M  V30 1226 H 113.904 -4.85393 1.52548 0
M  V30 1227 H 113.302 -5.42482 -1.60405 0
M  V30 1228 H 111.859 -6.34859 -1.47641 0
M  V30 1229 N 115.292 -0.849877 -1.32721 0
M  V30 1230 C 116.242 -0.262892 -2.26479 0
M  V30 1231 C 117.226 0.588493 -1.49752 0
M  V30 1232 O 118.418 0.438659 -1.71478 0
M  V30 1233 C 115.547 0.551818 -3.38836 0
M  V30 1234 C 114.633 -0.311689 -4.22953 0
M  V30 1235 N 115.024 -1.39567 -4.86163 0
M  V30 1236 C 113.322 -0.100611 -4.45887 0
M  V30 1237 C 114.023 -1.92651 -5.48872 0
M  V30 1238 N 112.999 -1.22637 -5.29586 0
M  V30 1239 H 116.801 -1.09166 -2.72873 0
M  V30 1240 H 114.315 -0.695486 -1.46754 0
M  V30 1241 H 116.312 0.988713 -4.05006 0
M  V30 1242 H 114.972 1.37844 -2.93988 0
M  V30 1243 H 115.983 -1.77859 -4.86402 0
M  V30 1244 H 112.66 0.691681 -4.11731 0
M  V30 1245 H 114.05 -2.83487 -6.09167 0
M  V30 1246 N 116.77 1.45427 -0.607355 0
M  V30 1247 C 117.7 2.3329 0.0989352 0
M  V30 1248 C 118.681 1.46816 0.859007 0
M  V30 1249 O 119.866 1.75588 0.829604 0
M  V30 1250 C 116.996 3.29518 1.09705 0
M  V30 1251 C 115.95 4.25626 0.450206 0
M  V30 1252 C 115.276 5.11542 1.55655 0
M  V30 1253 C 116.576 5.18505 -0.628455 0
M  V30 1254 H 118.27 2.92595 -0.634716 0
M  V30 1255 H 115.816 1.40696 -0.306681 0
M  V30 1256 H 117.769 3.89855 1.59971 0
M  V30 1257 H 116.493 2.68372 1.86129 0
M  V30 1258 H 115.152 3.66586 -0.0315886 0
M  V30 1259 H 114.8 4.46765 2.31107 0
M  V30 1260 H 114.5 5.76647 1.12925 0
M  V30 1261 H 116.024 5.74748 2.06148 0
M  V30 1262 H 117.438 5.72916 -0.209877 0
M  V30 1263 H 115.835 5.92085 -0.977489 0
M  V30 1264 H 116.905 4.60948 -1.50514 0
M  V30 1265 N 118.248 0.346503 1.53744 0
M  V30 1266 C 119.158 -0.517293 2.28826 0
M  V30 1267 C 120.174 -1.10935 1.3405 0
M  V30 1268 O 121.35 -1.1244 1.6709 0
M  V30 1269 C 118.415 -1.65098 3.04866 0
M  V30 1270 C 117.476 -1.0884 4.15274 0
M  V30 1271 C 116.709 -2.16806 4.87679 0
M  V30 1272 O 116.932 -3.3758 4.59778 0
M  V30 1273 O 115.866 -1.80934 5.74061 0
M  V30 1274 H 119.692 0.0931396 3.03557 0
M  V30 1275 H 117.277 0.111458 1.48984 0
M  V30 1276 H 119.159 -2.31053 3.5241 0
M  V30 1277 H 117.834 -2.24717 2.32989 0
M  V30 1278 H 116.741 -0.3933 3.72027 0
M  V30 1279 H 118.074 -0.537036 4.89261 0
M  V30 1280 N 119.726 -1.57421 0.075193 0
M  V30 1281 C 120.656 -2.15942 -0.888324 0
M  V30 1282 C 121.637 -1.08737 -1.30806 0
M  V30 1283 O 122.822 -1.36787 -1.37851 0
M  V30 1284 C 119.952 -2.72379 -2.1547 0
M  V30 1285 C 118.906 -3.8478 -1.87425 0
M  V30 1286 C 118.232 -4.27834 -3.20721 0
M  V30 1287 C 119.532 -5.08869 -1.17684 0
M  V30 1288 H 121.226 -2.96705 -0.400799 0
M  V30 1289 H 118.772 -1.42723 -0.191342 0
M  V30 1290 H 120.725 -3.11965 -2.83295 0
M  V30 1291 H 119.449 -1.88841 -2.6647 0
M  V30 1292 H 118.108 -3.45703 -1.22004 0
M  V30 1293 H 117.756 -3.41214 -3.6957 0
M  V30 1294 H 117.456 -5.03605 -3.02746 0
M  V30 1295 H 118.98 -4.70039 -3.89738 0
M  V30 1296 H 120.394 -5.4575 -1.75584 0
M  V30 1297 H 118.791 -5.8994 -1.09956 0
M  V30 1298 H 119.861 -4.84648 -0.156453 0
M  V30 1299 N 121.204 0.198386 -1.56346 0
M  V30 1300 C 122.481 0.944982 -1.71258 0
M  V30 1301 C 122.861 2.0151 -0.629048 0
M  V30 1302 O 122.209 2.25639 0.360473 0
M  V30 1303 C 122.419 1.5344 -3.1346 0
M  V30 1304 C 123.767 2.01778 -3.73591 0
M  V30 1305 O 124.791 1.63288 -3.16568 0
M  V30 1306 O 123.65 2.72594 -4.73661 0
M  V30 1307 H 120.744 0.442939 -0.69838 0
M  V30 1308 H 123.29 0.188342 -1.68652 0
M  V30 1309 H 122.062 0.762869 -3.83792 0
M  V30 1310 H 121.685 2.35596 -3.20282 0
M  V30 1311 N 122.682 1.50554 0.465978 0
M  V30 1312 C 123.632 1.66177 1.56106 0
M  V30 1313 C 124.616 0.516265 1.52393 0
M  V30 1314 O 125.808 0.770906 1.5933 0
M  V30 1315 C 122.937 1.76396 2.94515 0
M  V30 1316 C 122.023 2.9664 3.03093 0
M  V30 1317 N 122.414 4.20245 2.81474 0
M  V30 1318 C 120.712 2.95304 3.34233 0
M  V30 1319 C 121.413 5.01259 2.95151 0
M  V30 1320 N 120.389 4.35318 3.25576 0
M  V30 1321 H 124.191 2.59434 1.38099 0
M  V30 1322 H 121.705 1.47808 0.6728 0
M  V30 1323 H 123.702 1.85694 3.73261 0
M  V30 1324 H 122.362 0.843017 3.13565 0
M  V30 1325 H 123.373 4.4966 2.56956 0
M  V30 1326 H 120.05 2.12729 3.59239 0
M  V30 1327 H 121.44 6.09564 2.82632 0
M  V30 1328 N 124.16 -0.719506 1.40217 0
M  V30 1329 C 125.123 -1.8153 1.39927 0
M  V30 1330 C 126.123 -1.58095 0.293723 0
M  V30 1331 O 127.313 -1.65209 0.552429 0
M  V30 1332 C 124.445 -3.19561 1.18716 0
M  V30 1333 H 125.638 -1.83186 2.37451 0
M  V30 1334 H 123.191 -0.924746 1.26008 0
M  V30 1335 H 123.926 -3.23557 0.219366 0
M  V30 1336 H 123.711 -3.3797 1.98793 0
M  V30 1337 H 125.201 -3.99598 1.21291 0
M  V30 1338 N 125.638 -1.25649 -0.95132 0
M  V30 1339 C 126.886 -1.10375 -1.69298 0
M  V30 1340 C 127.207 0.355339 -1.91735 0
M  V30 1341 O 126.477 1.25188 -1.50681 0
M  V30 1342 H 125.057 -0.405461 -0.627384 0
M  V30 1343 H 127.719 -1.57823 -1.14358 0
M  V30 1344 H 126.815 -1.61465 -2.67087 0
M  V30 1345 N 127.117 1.15442 -1.07289 0
M  V30 1346 C 128.08 2.18358 -0.696591 0
M  V30 1347 C 129.08 1.58637 0.262837 0
M  V30 1348 O 130.27 1.74145 0.0438809 0
M  V30 1349 C 127.402 3.4089 -0.0266151 0
M  V30 1350 H 128.595 2.53162 -1.60776 0
M  V30 1351 H 126.148 1.29893 -0.869342 0
M  V30 1352 H 126.883 3.11653 0.896822 0
M  V30 1353 H 126.668 3.85495 -0.716657 0
M  V30 1354 H 128.158 4.17009 0.222028 0
M  V30 1355 N 128.595 0.856903 1.32268 0
M  V30 1356 C 129.525 0.31858 2.31316 0
M  V30 1357 C 130.506 -0.583487 1.59779 0
M  V30 1358 O 131.691 -0.503259 1.87566 0
M  V30 1359 C 128.821 -0.491979 3.43798 0
M  V30 1360 C 127.775 0.315849 4.26833 0
M  V30 1361 C 127.101 -0.619586 5.31098 0
M  V30 1362 C 128.401 1.54282 4.98993 0
M  V30 1363 H 130.095 1.14621 2.76591 0
M  V30 1364 H 127.641 0.552613 1.32974 0
M  V30 1365 H 129.594 -0.879012 4.1213 0
M  V30 1366 H 128.318 -1.35299 2.97257 0
M  V30 1367 H 126.977 0.684664 3.6015 0
M  V30 1368 H 126.625 -1.47751 4.8081 0
M  V30 1369 H 126.325 -0.0830621 5.87541 0
M  V30 1370 H 127.849 -1.00375 6.02293 0
M  V30 1371 H 129.263 1.22796 5.59995 0
M  V30 1372 H 127.66 2.01745 5.65172 0
M  V30 1373 H 128.73 2.30285 4.26728 0
M  V30 1374 N 130.073 -1.45103 0.615059 0
M  V30 1375 C 131.484 -1.85654 0.197383 0
M  V30 1376 C 131.835 -1.51433 -1.24749 0
M  V30 1377 O 130.96 -0.944608 -1.94695 0
M  V30 1378 C 131.555 -3.36972 0.351448 0
M  V30 1379 C 130.114 -3.76398 -0.011593 0
M  V30 1380 C 129.261 -2.69024 0.672394 0
M  V30 1381 H 132.212 -1.35797 0.821263 0
M  V30 1382 H 132.233 -3.78239 -0.414227 0
M  V30 1383 H 131.745 -3.61847 1.40314 0
M  V30 1384 H 129.846 -3.5714 -1.06217 0
M  V30 1385 H 129.959 -4.77532 0.387265 0
M  V30 1386 H 128.323 -2.54465 0.109284 0
M  V30 1387 H 129.106 -2.96735 1.72636 0
M  V30 1388 N 131.551 -0.354651 -1.53558 0
M  V30 1389 C 132.514 0.484566 -2.24019 0
M  V30 1390 C 133.514 1.01861 -1.24422 0
M  V30 1391 O 134.704 0.906097 -1.4878 0
M  V30 1392 C 131.836 1.67615 -2.96847 0
M  V30 1393 H 133.029 -0.131843 -2.9961 0
M  V30 1394 H 130.582 -0.106165 -1.55939 0
M  V30 1395 H 131.317 2.33095 -2.25471 0
M  V30 1396 H 131.102 1.30029 -3.69912 0
M  V30 1397 H 132.592 2.27114 -3.50441 0
M  V30 1398 N 133.029 1.57378 -0.0835403 0
M  V30 1399 C 133.959 2.1641 0.87686 0
M  V30 1400 C 134.94 1.09429 1.30228 0
M  V30 1401 O 136.125 1.37516 1.37124 0
M  V30 1402 C 133.255 2.73517 2.14022 0
M  V30 1403 C 132.209 3.85769 1.85381 0
M  V30 1404 C 131.535 4.29529 3.18448 0
M  V30 1405 C 132.835 5.09486 1.14984 0
M  V30 1406 H 134.529 2.96914 0.385059 0
M  V30 1407 H 132.075 1.42823 0.18377 0
M  V30 1408 H 134.028 3.13463 2.81636 0
M  V30 1409 H 132.752 1.90252 2.65465 0
M  V30 1410 H 131.411 3.46345 1.20169 0
M  V30 1411 H 131.059 3.43169 3.67755 0
M  V30 1412 H 130.759 5.05204 3.00071 0
M  V30 1413 H 132.283 4.72099 3.8724 0
M  V30 1414 H 133.697 5.46674 1.72687 0
M  V30 1415 H 132.094 5.90515 1.06826 0
M  V30 1416 H 133.164 4.84724 0.130749 0
M  V30 1417 N 134.507 -0.190092 1.56449 0
M  V30 1418 C 135.756 -0.907912 1.80111 0
M  V30 1419 C 136.069 -1.84214 0.657619 0
M  V30 1420 O 137.275 -2.60094 0.778663 0
M  V30 1421 C 135.731 -1.66485 3.19078 0
M  V30 1422 C 135.339 -0.7752 4.41242 0
M  V30 1423 C 137.083 -2.37201 3.52045 0
M  V30 1424 C 134.99 -1.53129 5.71231 0
M  V30 1425 H 133.92 -0.34276 0.671589 0
M  V30 1426 H 136.571 -0.161109 1.82791 0
M  V30 1427 H 134.953 -2.45572 3.10661 0
M  V30 1428 H 136.127 -0.0226298 4.60794 0
M  V30 1429 H 134.442 -0.178627 4.16017 0
M  V30 1430 H 137.039 -2.94329 4.46402 0
M  V30 1431 H 137.382 -3.11632 2.76028 0
M  V30 1432 H 137.915 -1.65075 3.61932 0
M  V30 1433 H 134.654 -0.82967 6.50228 0
M  V30 1434 H 134.174 -2.25767 5.55688 0
M  V30 1435 H 135.853 -2.08377 6.12526 0
M  V30 1436 N 135.985 -1.50799 -0.457987 0
M  V30 1437 C 136.895 -1.73426 -1.57989 0
M  V30 1438 C 137.911 -0.617745 -1.62665 0
M  V30 1439 O 139.087 -0.897614 -1.80291 0
M  V30 1440 C 136.152 -1.83557 -2.94122 0
M  V30 1441 C 135.213 -3.07345 -2.99729 0
M  V30 1442 C 134.446 -3.16983 -4.29368 0
M  V30 1443 O 134.669 -2.33077 -5.20607 0
M  V30 1444 O 133.603 -4.09812 -4.40837 0
M  V30 1445 H 137.429 -2.68555 -1.41817 0
M  V30 1446 H 135.014 -1.35052 -0.638859 0
M  V30 1447 H 136.896 -1.92326 -3.74952 0
M  V30 1448 H 135.571 -0.916137 -3.10465 0
M  V30 1449 H 134.478 -3.04068 -2.1793 0
M  V30 1450 H 135.811 -3.9891 -2.88326 0
M  V30 1451 N 137.463 0.71206 -1.40597 0
M  V30 1452 C 138.426 1.80785 -1.40888 0
M  V30 1453 C 139.426 1.57937 -0.302103 0
M  V30 1454 O 140.616 1.64913 -0.561182 0
M  V30 1455 C 137.748 3.18927 -1.20409 0
M  V30 1456 H 138.941 1.81924 -2.38419 0
M  V30 1457 H 136.494 0.91805 -1.26497 0
M  V30 1458 H 137.229 3.23436 -0.236522 0
M  V30 1459 H 137.014 3.36911 -2.00582 0
M  V30 1460 H 138.504 3.98949 -1.23408 0
M  V30 1461 N 138.941 1.26152 0.944643 0
M  V30 1462 C 140.181 1.12708 1.70517 0
M  V30 1463 C 140.545 -0.324727 1.89234 0
M  V30 1464 O 141.746 -0.581211 2.62441 0
M  V30 1465 C 140.017 1.8713 3.04495 0
M  V30 1466 S 141.576 1.89698 3.95677 0
M  V30 1467 H 138.394 0.402665 0.585988 0
M  V30 1468 H 140.996 1.59821 1.12594 0
M  V30 1469 H 139.7 2.91833 2.88551 0
M  V30 1470 H 139.231 1.40444 3.67477 0
M  V30 1471 H 141.246 0.981198 4.86402 0
M  V30 1472 N 140.419 -1.14872 1.07899 0
M  V30 1473 C 141.351 -2.19425 0.662231 0
M  V30 1474 C 142.364 -1.60231 -0.288079 0
M  V30 1475 O 143.553 -1.78336 -0.076534 0
M  V30 1476 C 140.653 -3.38867 -0.0470695 0
M  V30 1477 C 139.826 -4.27597 0.920831 0
M  V30 1478 C 138.885 -5.25616 0.247805 0
M  V30 1479 O 137.911 -5.62189 0.890599 0
M  V30 1480 N 139.113 -5.71746 -1.00435 0
M  V30 1481 H 141.878 -2.55797 1.56166 0
M  V30 1482 H 139.439 -1.30042 0.964404 0
M  V30 1483 H 141.431 -4.01497 -0.50813 0
M  V30 1484 H 140.001 -3.00864 -0.848523 0
M  V30 1485 H 139.221 -3.61982 1.56087 0
M  V30 1486 H 140.509 -4.83748 1.57688 0
M  V30 1487 H 139.907 -5.44153 -1.54642 0
M  V30 1488 H 138.464 -6.36389 -1.40899 0
M  V30 1489 N 141.898 -0.863906 -1.31812 0
M  V30 1490 C 143.309 -0.52522 -1.7916 0
M  V30 1491 C 143.66 0.957518 -1.71248 0
M  V30 1492 O 142.785 1.74734 -1.27659 0
M  V30 1493 C 143.38 -0.9466 -3.25307 0
M  V30 1494 C 141.939 -0.659668 -3.70574 0
M  V30 1495 C 141.086 -1.14126 -2.52726 0
M  V30 1496 H 144.037 -1.05022 -1.1898 0
M  V30 1497 H 144.058 -0.266766 -3.79564 0
M  V30 1498 H 143.57 -2.02579 -3.31034 0
M  V30 1499 H 141.671 0.408416 -3.70355 0
M  V30 1500 H 141.784 -1.23245 -4.62977 0
M  V30 1501 H 140.148 -0.561216 -2.4844 0
M  V30 1502 H 140.931 -2.22775 -2.61201 0
M  V30 1503 N 143.376 1.44774 -0.622745 0
M  V30 1504 C 144.286 2.34433 0.0886031 0
M  V30 1505 C 145.302 1.52131 0.844529 0
M  V30 1506 O 146.478 1.84886 0.798691 0
M  V30 1507 C 143.543 3.29986 1.0635 0
M  V30 1508 C 142.604 4.28195 0.307873 0
M  V30 1509 C 141.837 5.19183 1.23633 0
M  V30 1510 O 142.06 5.13918 2.47476 0
M  V30 1511 O 140.994 5.97515 0.725189 0
M  V30 1512 H 144.82 2.96693 -0.648599 0
M  V30 1513 H 142.405 1.44408 -0.382957 0
M  V30 1514 H 144.287 3.88825 1.6246 0
M  V30 1515 H 142.962 2.70269 1.78146 0
M  V30 1516 H 141.869 3.72927 -0.296064 0
M  V30 1517 H 143.202 4.90808 -0.3699 0
M  V30 1518 N 144.854 0.36279 1.53368 0
M  V30 1519 C 145.801 -0.485008 2.25646 0
M  V30 1520 C 146.771 -1.07982 1.2621 0
M  V30 1521 O 147.956 -1.11284 1.54986 0
M  V30 1522 C 145.096 -1.62023 3.04701 0
M  V30 1523 C 144.209 -1.05086 4.19024 0
M  V30 1524 C 143.344 -2.15496 4.85525 0
M  V30 1525 C 142.383 -1.5601 5.91884 0
M  V30 1526 N 141.52 -2.60241 6.52088 0
M  V30 1527 H 146.36 0.137864 2.97681 0
M  V30 1528 H 143.897 0.0798061 1.46883 0
M  V30 1529 H 145.855 -2.28887 3.48807 0
M  V30 1530 H 144.485 -2.2138 2.34927 0
M  V30 1531 H 143.537 -0.27259 3.79422 0
M  V30 1532 H 144.849 -0.575926 4.95464 0
M  V30 1533 H 144.003 -2.90186 5.32801 0
M  V30 1534 H 142.742 -2.66341 4.08551 0
M  V30 1535 H 141.747 -0.798338 5.43973 0
M  V30 1536 H 142.972 -1.05994 6.70777 0
M  V30 1537 H 140.918 -3.10304 5.77968 0
M  V30 1538 H 140.835 -2.17426 7.24059 0
M  V30 1539 H 142.103 -3.34641 7.04014 0
M  V30 1540 N 146.332 -1.57332 0.0918853 0
M  V30 1541 C 147.581 -1.93412 -0.572249 0
M  V30 1542 C 147.894 -0.975515 -1.69538 0
M  V30 1543 O 149.1 -1.22991 -2.42045 0
M  V30 1544 C 147.556 -3.43648 -1.0693 0
M  V30 1545 C 147.164 -4.47994 0.0239049 0
M  V30 1546 C 148.908 -3.88695 -1.70635 0
M  V30 1547 C 146.815 -5.89381 -0.488319 0
M  V30 1548 H 145.745 -0.721939 -0.217532 0
M  V30 1549 H 148.396 -1.82735 0.167369 0
M  V30 1550 H 146.778 -3.49466 -1.8625 0
M  V30 1551 H 147.952 -4.53815 0.799277 0
M  V30 1552 H 146.267 -4.12536 0.565946 0
M  V30 1553 H 148.864 -4.91725 -2.10025 0
M  V30 1554 H 149.207 -3.27166 -2.57426 0
M  V30 1555 H 149.74 -3.85564 -0.979023 0
M  V30 1556 H 146.479 -6.54602 0.342906 0
M  V30 1557 H 145.999 -5.87037 -1.23077 0
M  V30 1558 H 147.678 -6.39863 -0.958317 0
M  V30 1559 N 147.81 0.181792 -1.56548 0
M  V30 1560 C 149.057 0.900097 -1.81396 0
M  V30 1561 C 149.385 1.82695 -0.667281 0
M  V30 1562 O 148.64 1.92614 0.346146 0
M  V30 1563 C 148.939 1.73728 -3.12335 0
M  V30 1564 C 148.605 0.960255 -4.40556 0
M  V30 1565 C 147.267 0.745766 -4.75386 0
M  V30 1566 C 149.619 0.414477 -5.19549 0
M  V30 1567 C 146.947 -0.0257694 -5.86694 0
M  V30 1568 C 149.299 -0.343916 -6.31664 0
M  V30 1569 C 147.963 -0.569301 -6.65068 0
M  V30 1570 H 147.233 0.329369 -0.663775 0
M  V30 1571 H 149.88 0.165647 -1.90782 0
M  V30 1572 H 148.185 2.54081 -2.98245 0
M  V30 1573 H 149.882 2.29591 -3.28769 0
M  V30 1574 H 146.472 1.13746 -4.13231 0
M  V30 1575 H 150.656 0.567554 -4.93044 0
M  V30 1576 H 145.912 -0.210233 -6.11038 0
M  V30 1577 H 150.086 -0.774133 -6.92084 0
M  V30 1578 H 147.713 -1.16903 -7.51158 0
M  V30 1579 N 149.288 1.51039 0.449983 0
M  V30 1580 C 150.516 1.66869 1.2232 0
M  V30 1581 C 150.931 0.360727 1.85322 0
M  V30 1582 O 150.288 -0.659531 1.70166 0
M  V30 1583 C 150.339 2.77524 2.31652 0
M  V30 1584 O 150.06 4.03252 1.7123 0
M  V30 1585 C 151.561 3.04512 3.2216 0
M  V30 1586 H 148.781 0.560326 0.369155 0
M  V30 1587 H 151.325 1.97385 0.534719 0
M  V30 1588 H 149.48 2.49642 2.96239 0
M  V30 1589 H 149.894 4.64609 2.43389 0
M  V30 1590 H 151.368 3.85551 3.95038 0
M  V30 1591 H 151.845 2.16415 3.8218 0
M  V30 1592 H 152.451 3.34005 2.63288 0
M  V30 1593 N 150.766 -0.704594 1.40972 0
M  V30 1594 C 151.991 -1.49858 1.43378 0
M  V30 1595 C 152.416 -1.88061 0.038184 0
M  V30 1596 O 151.774 -1.5402 -0.956425 0
M  V30 1597 C 151.822 -2.74333 2.34038 0
M  V30 1598 O 150.926 -3.7147 1.7912 0
M  V30 1599 H 150.267 -0.45139 0.486974 0
M  V30 1600 H 152.797 -0.866832 1.8533 0
M  V30 1601 H 152.807 -3.22741 2.49604 0
M  V30 1602 H 151.482 -2.45863 3.35446 0
M  V30 1603 H 150.059 -3.30363 1.72958 0
M  V30 1604 N 152.244 -1.26651 -0.937939 0
M  V30 1605 C 153.469 -1.15279 -1.72411 0
M  V30 1606 C 153.894 0.287866 -1.85884 0
M  V30 1607 O 153.252 1.20855 -1.35143 0
M  V30 1608 C 153.3 -1.83028 -3.10698 0
M  V30 1609 O 152.404 -1.12128 -3.96864 0
M  V30 1610 H 151.745 -0.401504 -0.528858 0
M  V30 1611 H 154.275 -1.67531 -1.1745 0
M  V30 1612 H 154.285 -1.89981 -3.6107 0
M  V30 1613 H 152.96 -2.87833 -3.00208 0
M  V30 1614 H 151.537 -1.13173 -3.55312 0
M  V30 1615 N 153.722 1.14298 -1.08507 0
M  V30 1616 C 154.652 2.21542 -0.737646 0
M  V30 1617 C 155.633 1.67773 0.280377 0
M  V30 1618 O 156.818 1.93616 0.150521 0
M  V30 1619 C 153.948 3.46988 -0.147259 0
M  V30 1620 C 152.902 4.13789 -1.09374 0
M  V30 1621 C 152.228 5.33449 -0.365524 0
M  V30 1622 C 153.528 4.62208 -2.4323 0
M  V30 1623 H 155.222 2.5086 -1.6343 0
M  V30 1624 H 152.768 1.20576 -0.787243 0
M  V30 1625 H 154.721 4.21262 0.107808 0
M  V30 1626 H 153.445 3.17037 0.784538 0
M  V30 1627 H 152.104 3.4147 -1.33393 0
M  V30 1628 H 151.752 4.99759 0.57011 0
M  V30 1629 H 151.452 5.79088 -0.996512 0
M  V30 1630 H 152.976 6.10485 -0.118534 0
M  V30 1631 H 154.39 5.27952 -2.23472 0
M  V30 1632 H 152.787 5.18553 -3.02031 0
M  V30 1633 H 153.857 3.77224 -3.04681 0
M  V30 1634 N 155.201 0.870884 1.31352 0
M  V30 1635 C 156.449 0.48132 1.96285 0
M  V30 1636 C 156.77 -0.969813 1.69173 0
M  V30 1637 O 156.04 -1.67998 1.00764 0
M  V30 1638 H 154.62 0.175002 0.726212 0
M  V30 1639 H 157.282 1.11087 1.60143 0
M  V30 1640 H 156.378 0.639825 3.05471 0
M  V30 1641 N 156.679 -1.44442 0.630414 0
M  V30 1642 C 157.611 -2.2892 -0.113347 0
M  V30 1643 C 158.624 -1.41243 -0.80959 0
M  V30 1644 O 159.813 -1.65402 -0.671156 0
M  V30 1645 C 156.913 -3.17594 -1.18266 0
M  V30 1646 C 156.086 -4.33682 -0.569073 0
M  V30 1647 C 155.145 -5.03397 -1.53226 0
M  V30 1648 O 154.171 -5.59438 -1.04967 0
M  V30 1649 N 155.373 -5.04783 -2.86661 0
M  V30 1650 H 158.138 -2.93392 0.611636 0
M  V30 1651 H 155.699 -1.54881 0.471523 0
M  V30 1652 H 157.691 -3.61097 -1.82732 0
M  V30 1653 H 156.261 -2.54876 -1.80988 0
M  V30 1654 H 155.481 -3.9338 0.254187 0
M  V30 1655 H 156.769 -5.08608 -0.139767 0
M  V30 1656 H 156.167 -4.60584 -3.28449 0
M  V30 1657 H 154.724 -5.52077 -3.46489 0
M  V30 1658 N 158.157 -0.370918 -1.53173 0
M  V30 1659 C 159.104 0.473035 -2.259 0
M  V30 1660 C 160.074 1.07311 -1.26781 0
M  V30 1661 O 161.259 1.1046 -1.55574 0
M  V30 1662 C 158.399 1.60405 -3.05556 0
M  V30 1663 C 157.512 1.02863 -4.19575 0
M  V30 1664 C 156.647 2.12918 -4.86661 0
M  V30 1665 C 155.686 1.52869 -5.92704 0
M  V30 1666 N 154.823 2.56779 -6.53459 0
M  V30 1667 H 159.663 -0.153649 -2.97604 0
M  V30 1668 H 157.2 -0.0875946 -1.46839 0
M  V30 1669 H 159.158 2.27034 -3.50016 0
M  V30 1670 H 157.788 2.20131 -2.36097 0
M  V30 1671 H 156.84 0.252465 -3.79561 0
M  V30 1672 H 158.152 0.549642 -4.95762 0
M  V30 1673 H 157.306 2.87356 -5.34333 0
M  V30 1674 H 156.045 2.6417 -4.09958 0
M  V30 1675 H 155.05 0.769479 -5.44389 0
M  V30 1676 H 156.275 1.02435 -6.7133 0
M  V30 1677 H 154.221 3.07235 -5.79606 0
M  V30 1678 H 154.138 2.13583 -7.25202 0
M  V30 1679 H 155.406 3.30903 -7.05779 0
M  V30 1680 N 159.635 1.57281 -0.100228 0
M  V30 1681 C 160.598 2.13158 0.842398 0
M  V30 1682 C 161.598 1.06202 1.20738 0
M  V30 1683 O 162.788 1.32066 1.13597 0
M  V30 1684 C 159.92 2.65639 2.13655 0
M  V30 1685 H 161.113 2.97766 0.357114 0
M  V30 1686 H 158.666 1.5559 0.148823 0
M  V30 1687 H 159.401 1.84566 2.66657 0
M  V30 1688 H 159.186 3.43844 1.88451 0
M  V30 1689 H 160.676 3.08846 2.81077 0
M  V30 1690 N 161.113 -0.173488 1.56642 0
M  V30 1691 C 162.046 -1.24353 1.91342 0
M  V30 1692 C 163.024 -1.4289 0.775965 0
M  V30 1693 O 164.208 -1.57932 1.02907 0
M  V30 1694 C 161.335 -2.60683 2.16245 0
M  V30 1695 C 160.381 -2.58894 3.38934 0
M  V30 1696 S 161.214 -2.0819 4.93373 0
M  V30 1697 C 162.37 -3.46302 5.21369 0
M  V30 1698 H 162.603 -0.947345 2.81803 0
M  V30 1699 H 160.136 -0.377958 1.49703 0
M  V30 1700 H 162.094 -3.39149 2.31275 0
M  V30 1701 H 160.755 -2.87502 1.26496 0
M  V30 1702 H 159.948 -3.59188 3.53553 0
M  V30 1703 H 159.55 -1.88522 3.2301 0
M  V30 1704 H 161.842 -4.42287 5.13214 0
M  V30 1705 H 162.785 -3.3656 6.23003 0
M  V30 1706 H 163.193 -3.42214 4.48943 0
M  V30 1707 N 162.591 -1.51276 -0.441967 0
M  V30 1708 C 163.501 -1.75092 -1.56141 0
M  V30 1709 C 164.517 -0.634963 -1.62001 0
M  V30 1710 O 165.693 -0.916686 -1.79329 0
M  V30 1711 C 162.758 -1.86666 -2.92158 0
M  V30 1712 C 161.819 -3.10506 -2.96453 0
M  V30 1713 C 161.052 -3.21519 -4.25982 0
M  V30 1714 O 161.275 -2.38586 -5.18105 0
M  V30 1715 O 160.209 -4.14465 -4.36466 0
M  V30 1716 H 164.035 -2.70044 -1.38961 0
M  V30 1717 H 161.62 -1.35722 -0.624499 0
M  V30 1718 H 163.502 -1.96292 -3.72891 0
M  V30 1719 H 162.177 -0.949014 -3.09476 0
M  V30 1720 H 161.084 -3.06363 -2.14692 0
M  V30 1721 H 162.417 -4.01945 -2.84079 0
M  V30 1722 N 164.069 0.697108 -1.41344 0
M  V30 1723 C 165.294 1.49096 -1.44171 0
M  V30 1724 C 165.719 1.88038 -0.0481568 0
M  V30 1725 O 165.077 1.54525 0.948243 0
M  V30 1726 C 165.125 2.73088 -2.3549 0
M  V30 1727 O 164.229 3.70514 -1.81088 0
M  V30 1728 H 163.57 0.448801 -0.489361 0
M  V30 1729 H 166.1 0.856992 -1.85787 0
M  V30 1730 H 166.11 3.21413 -2.51312 0
M  V30 1731 H 164.785 2.44081 -3.36745 0
M  V30 1732 H 163.362 3.29441 -1.74708 0
M  V30 1733 N 165.547 1.27147 0.931209 0
M  V30 1734 C 166.497 1.06227 2.01742 0
M  V30 1735 C 167.481 -0.00859065 1.60898 0
M  V30 1736 O 168.673 0.209537 1.75755 0
M  V30 1737 C 165.802 0.707787 3.35924 0
M  V30 1738 C 164.888 1.81661 3.83223 0
M  V30 1739 N 165.279 3.05564 4.03069 0
M  V30 1740 C 163.577 1.70249 4.12227 0
M  V30 1741 C 164.278 3.77697 4.42403 0
M  V30 1742 N 163.254 3.0544 4.49675 0
M  V30 1743 H 167.056 2.00261 2.15111 0
M  V30 1744 H 164.57 1.1781 1.11779 0
M  V30 1745 H 166.567 0.539043 4.134 0
M  V30 1746 H 165.227 -0.224964 3.2392 0
M  V30 1747 H 166.238 3.41363 3.89476 0
M  V30 1748 H 162.915 0.840329 4.08956 0
M  V30 1749 H 164.305 4.84168 4.65866 0
M  V30 1750 N 167.025 -1.13721 1.09112 0
M  V30 1751 C 168.272 -1.84924 0.825192 0
M  V30 1752 C 168.6 -1.83347 -0.649151 0
M  V30 1753 O 167.855 -1.26449 -1.49362 0
M  V30 1754 C 168.154 -3.32861 1.30146 0
M  V30 1755 C 167.82 -3.54621 2.78486 0
M  V30 1756 C 166.482 -3.60268 3.18999 0
M  V30 1757 C 168.834 -3.62855 3.74146 0
M  V30 1758 C 166.162 -3.71679 4.53951 0
M  V30 1759 C 168.514 -3.75793 5.08883 0
M  V30 1760 C 167.178 -3.79692 5.4899 0
M  V30 1761 H 166.448 -0.676684 0.301959 0
M  V30 1762 H 169.095 -1.3428 1.36533 0
M  V30 1763 H 167.4 -3.85835 0.681064 0
M  V30 1764 H 169.097 -3.86395 1.07236 0
M  V30 1765 H 165.687 -3.50879 2.46134 0
M  V30 1766 H 169.871 -3.57775 3.43963 0
M  V30 1767 H 165.127 -3.72963 4.84467 0
M  V30 1768 H 169.301 -3.81107 5.82864 0
M  V30 1769 H 166.928 -3.88287 6.53558 0
M  V30 1770 N 168.503 -0.877838 -1.30888 0
M  V30 1771 C 169.453 -0.310872 -2.25871 0
M  V30 1772 C 170.437 0.556596 -1.50966 0
M  V30 1773 O 171.629 0.402187 -1.7237 0
M  V30 1774 C 168.758 0.479821 -3.3993 0
M  V30 1775 C 167.844 -0.401333 -4.22197 0
M  V30 1776 N 168.235 -1.49848 -4.83093 0
M  V30 1777 C 166.533 -0.195167 -4.45573 0
M  V30 1778 C 167.234 -2.0425 -5.44662 0
M  V30 1779 N 166.21 -1.33843 -5.26865 0
M  V30 1780 H 170.012 -1.1493 -2.70496 0
M  V30 1781 H 167.526 -0.726458 -1.45246 0
M  V30 1782 H 169.523 0.902582 -4.07012 0
M  V30 1783 H 168.183 1.31577 -2.96846 0
M  V30 1784 H 169.194 -1.88137 -4.82519 0
M  V30 1785 H 165.871 0.604192 -4.13105 0
M  V30 1786 H 167.261 -2.96345 -6.03017 0
M  V30 1787 N 169.982 1.44106 -0.638065 0
M  V30 1788 C 171.212 2.06037 -0.152394 0
M  V30 1789 C 171.62 1.47808 1.18108 0
M  V30 1790 O 170.963 0.598092 1.73691 0
M  V30 1791 C 171.025 3.59488 0.0293714 0
M  V30 1792 C 170.689 4.4022 -1.22702 0
M  V30 1793 C 171.686 4.73256 -2.15232 0
M  V30 1794 C 169.371 4.8048 -1.46437 0
M  V30 1795 C 171.365 5.45444 -3.29802 0
M  V30 1796 C 169.052 5.52417 -2.61303 0
M  V30 1797 C 170.05 5.84819 -3.52811 0
M  V30 1798 O 169.738 6.55289 -4.65673 0
M  V30 1799 H 169.47 0.671233 -0.0801401 0
M  V30 1800 H 172.024 1.85851 -0.874563 0
M  V30 1801 H 170.254 3.78191 0.806758 0
M  V30 1802 H 171.943 4.03164 0.470475 0
M  V30 1803 H 172.709 4.42684 -1.98131 0
M  V30 1804 H 168.588 4.54676 -0.760977 0
M  V30 1805 H 172.132 5.70653 -4.01249 0
M  V30 1806 H 168.029 5.82404 -2.78344 0
M  V30 1807 H 168.797 6.73762 -4.64744 0
M  V30 1808 N 171.46 0.379036 1.52974 0
M  V30 1809 C 172.407 -0.461048 2.26148 0
M  V30 1810 C 173.377 -1.06637 1.27349 0
M  V30 1811 O 174.562 -1.09633 1.56157 0
M  V30 1812 C 171.702 -1.58782 3.06402 0
M  V30 1813 C 170.815 -1.00636 4.20115 0
M  V30 1814 C 169.95 -2.10334 4.87784 0
M  V30 1815 C 168.989 -1.49724 5.93506 0
M  V30 1816 N 168.126 -2.5331 6.54812 0
M  V30 1817 H 172.966 0.169429 2.97518 0
M  V30 1818 H 170.503 0.0953806 1.4679 0
M  V30 1819 H 172.461 -2.25174 3.51215 0
M  V30 1820 H 171.091 -2.18876 2.37261 0
M  V30 1821 H 170.143 -0.232332 3.7969 0
M  V30 1822 H 171.455 -0.523343 4.96047 0
M  V30 1823 H 170.609 -2.84519 5.35849 0
M  V30 1824 H 169.348 -2.61992 4.11353 0
M  V30 1825 H 168.353 -0.740598 5.44789 0
M  V30 1826 H 169.578 -0.988732 6.71864 0
M  V30 1827 H 167.524 -3.04156 5.81227 0
M  V30 1828 H 167.441 -2.09734 7.26325 0
M  V30 1829 H 168.709 -3.27155 7.07524 0
M  V30 1830 N 172.938 -1.57226 0.108567 0
M  V30 1831 C 174.215 -1.86333 -0.594939 0
M  V30 1832 C 174.595 -1.00788 -1.85486 0
M  V30 1833 O 173.943 -0.0839293 -2.28346 0
M  V30 1834 C 174.153 -3.37265 -0.897405 0
M  V30 1835 C 175.501 -4.05629 -1.25501 0
M  V30 1836 O 176.525 -3.42224 -0.987998 0
M  V30 1837 O 175.384 -5.17531 -1.75567 0
M  V30 1838 H 172.478 -0.771018 -0.2991 0
M  V30 1839 H 175.024 -1.69102 0.142283 0
M  V30 1840 H 173.796 -3.913 -0.00413806 0
M  V30 1841 H 173.419 -3.59889 -1.69014 0
M  V30 1842 N 174.416 0.165178 -1.56732 0
M  V30 1843 C 175.662 0.877389 -1.83503 0
M  V30 1844 C 176.017 1.79602 -0.689996 0
M  V30 1845 O 175.31 1.89023 0.313205 0
M  V30 1846 C 175.504 1.70405 -3.1416 0
M  V30 1847 C 175.333 0.866961 -4.41264 0
M  V30 1848 C 174.103 0.539646 -5.0241 0
M  V30 1849 C 176.301 0.205671 -5.13889 0
M  V30 1850 N 174.283 -0.312946 -6.13102 0
M  V30 1851 C 175.654 -0.507823 -6.17917 0
M  V30 1852 C 177.709 0.124468 -4.97744 0
M  V30 1853 C 176.412 -1.29483 -7.0755 0
M  V30 1854 C 178.438 -0.649222 -5.87826 0
M  V30 1855 C 177.8 -1.35106 -6.91322 0
M  V30 1856 H 173.899 0.299477 -0.722383 0
M  V30 1857 H 176.483 0.143949 -1.94167 0
M  V30 1858 H 174.654 2.40887 -3.04677 0
M  V30 1859 H 176.386 2.35804 -3.28905 0
M  V30 1860 H 173.141 0.871176 -4.65519 0
M  V30 1861 H 173.565 -0.729731 -6.73056 0
M  V30 1862 H 178.207 0.652724 -4.17731 0
M  V30 1863 H 175.925 -1.83441 -7.87004 0
M  V30 1864 H 179.511 -0.713804 -5.77405 0
M  V30 1865 H 178.391 -1.94013 -7.59821 0
M  V30 1866 N 175.894 1.51508 0.433938 0
M  V30 1867 C 177.305 1.56784 1.01369 0
M  V30 1868 C 177.656 0.393349 1.92217 0
M  V30 1869 O 176.781 -0.489441 2.10792 0
M  V30 1870 C 177.376 2.84144 1.8452 0
M  V30 1871 C 175.935 2.9198 2.37539 0
M  V30 1872 C 175.082 2.51482 1.16843 0
M  V30 1873 H 178.033 1.57236 0.215081 0
M  V30 1874 H 178.054 2.68098 2.70007 0
M  V30 1875 H 177.566 3.69607 1.18373 0
M  V30 1876 H 175.667 2.10955 3.0713 0
M  V30 1877 H 175.78 3.95704 2.70103 0
M  V30 1878 H 174.144 2.04758 1.51481 0
M  V30 1879 H 174.927 3.39293 0.523015 0
M  V30 1880 N 177.372 -0.689602 1.41712 0
M  V30 1881 C 178.618 -1.45181 1.41599 0
M  V30 1882 C 178.951 -1.94181 0.0270081 0
M  V30 1883 O 178.226 -1.6993 -0.946265 0
M  V30 1884 C 178.509 -2.65945 2.42787 0
M  V30 1885 C 178.362 -2.22672 3.90816 0
M  V30 1886 C 179.681 -3.68149 2.41151 0
M  V30 1887 H 176.8 -0.526576 0.515642 0
M  V30 1888 H 179.442 -0.784947 1.73028 0
M  V30 1889 H 177.592 -3.2284 2.16116 0
M  V30 1890 H 179.264 -1.71058 4.28412 0
M  V30 1891 H 177.507 -1.54394 4.05395 0
M  V30 1892 H 178.178 -3.0935 4.57172 0
M  V30 1893 H 180.654 -3.2094 2.64834 0
M  V30 1894 H 179.53 -4.50248 3.13955 0
M  V30 1895 H 179.791 -4.18259 1.43221 0
M  V30 1896 N 178.85 -1.27639 -0.924453 0
M  V30 1897 C 179.782 -1.06442 -2.02985 0
M  V30 1898 C 180.795 -0.0194771 -1.62788 0
M  V30 1899 O 181.984 -0.261388 -1.76576 0
M  V30 1900 C 179.084 -0.59327 -3.33667 0
M  V30 1901 C 178.257 -1.71123 -4.02537 0
M  V30 1902 C 177.316 -1.23527 -5.11495 0
M  V30 1903 O 176.342 -1.93553 -5.35281 0
M  V30 1904 N 177.544 -0.0926678 -5.80426 0
M  V30 1905 H 180.309 -2.01633 -2.2173 0
M  V30 1906 H 177.87 -1.19248 -1.09505 0
M  V30 1907 H 179.862 -0.258686 -4.03872 0
M  V30 1908 H 178.432 0.265502 -3.1147 0
M  V30 1909 H 177.652 -2.21593 -3.26022 0
M  V30 1910 H 178.94 -2.46145 -4.45298 0
M  V30 1911 H 178.338 0.491741 -5.63559 0
M  V30 1912 H 176.895 0.182714 -6.51544 0
M  V30 1913 N 180.328 1.1314 -1.09713 0
M  V30 1914 C 181.574 1.84757 -0.836224 0
M  V30 1915 C 181.907 1.8347 0.636598 0
M  V30 1916 O 181.182 1.27491 1.46889 0
M  V30 1917 C 181.465 3.32782 -1.37578 0
M  V30 1918 C 181.318 3.42567 -2.91493 0
M  V30 1919 C 182.637 4.28307 -1.01198 0
M  V30 1920 H 179.756 0.67082 -0.305236 0
M  V30 1921 H 182.398 1.3278 -1.35903 0
M  V30 1922 H 180.548 3.77177 -0.931097 0
M  V30 1923 H 182.22 3.06862 -3.44432 0
M  V30 1924 H 180.463 2.83349 -3.28475 0
M  V30 1925 H 181.134 4.46674 -3.24324 0
M  V30 1926 H 183.61 3.91999 -1.39556 0
M  V30 1927 H 182.486 5.30307 -1.41653 0
M  V30 1928 H 182.747 4.42029 0.0794833 0
M  V30 1929 N 181.806 0.884767 1.30421 0
M  V30 1930 C 183.052 0.503851 1.96441 0
M  V30 1931 C 183.385 -0.944518 1.69684 0
M  V30 1932 O 182.66 -1.66737 1.00145 0
M  V30 1933 C 182.943 0.779085 3.51571 0
M  V30 1934 C 182.796 2.27807 3.87846 0
M  V30 1935 C 184.115 0.255452 4.39358 0
M  V30 1936 H 181.234 0.184533 0.713524 0
M  V30 1937 H 183.876 1.10872 1.54297 0
M  V30 1938 H 182.026 0.264274 3.876 0
M  V30 1939 H 183.698 2.86127 3.61841 0
M  V30 1940 H 181.941 2.74479 3.35922 0
M  V30 1941 H 182.612 2.42125 4.96064 0
M  V30 1942 H 185.088 0.696079 4.10236 0
M  V30 1943 H 183.964 0.477361 5.4682 0
M  V30 1944 H 184.225 -0.843293 4.33983 0
M  V30 1945 N 183.284 -1.43765 0.645699 0
M  V30 1946 C 184.231 -2.30745 -0.0504648 0
M  V30 1947 C 185.201 -1.4432 -0.822241 0
M  V30 1948 O 186.386 -1.73202 -0.800358 0
M  V30 1949 C 183.526 -3.29802 -1.0161 0
M  V30 1950 C 182.639 -4.31326 -0.241219 0
M  V30 1951 C 181.774 -5.17469 -1.19998 0
M  V30 1952 C 180.813 -6.10691 -0.415094 0
M  V30 1953 N 179.95 -6.89483 -1.32506 0
M  V30 1954 H 184.79 -2.8973 0.697155 0
M  V30 1955 H 182.327 -1.42738 0.355563 0
M  V30 1956 H 184.285 -3.85734 -1.58949 0
M  V30 1957 H 182.915 -2.72483 -1.73069 0
M  V30 1958 H 181.967 -3.77749 0.448334 0
M  V30 1959 H 183.279 -4.9743 0.369437 0
M  V30 1960 H 182.433 -5.7799 -1.84424 0
M  V30 1961 H 181.172 -4.51473 -1.84455 0
M  V30 1962 H 180.177 -5.49265 0.242565 0
M  V30 1963 H 181.402 -6.78727 0.224966 0
M  V30 1964 H 179.348 -6.26142 -1.95657 0
M  V30 1965 H 179.265 -7.52081 -0.768783 0
M  V30 1966 H 180.533 -7.54516 -1.9577 0
M  V30 1967 N 184.763 -0.387143 -1.52771 0
M  V30 1968 C 185.713 0.465942 -2.23188 0
M  V30 1969 C 186.697 1.03138 -1.23496 0
M  V30 1970 O 187.889 0.957845 -1.48843 0
M  V30 1971 C 185.018 1.59384 -3.04059 0
M  V30 1972 C 184.104 1.04024 -4.11144 0
M  V30 1973 N 184.495 0.211416 -5.05358 0
M  V30 1974 C 182.793 1.31295 -4.26237 0
M  V30 1975 C 183.494 -0.0941698 -5.81624 0
M  V30 1976 N 182.47 0.509207 -5.4121 0
M  V30 1977 H 186.272 -0.173856 -2.93385 0
M  V30 1978 H 183.786 -0.19633 -1.61209 0
M  V30 1979 H 185.783 2.21738 -3.53041 0
M  V30 1980 H 184.443 2.23648 -2.35397 0
M  V30 1981 H 185.454 -0.151151 -5.17679 0
M  V30 1982 H 182.131 1.95679 -3.68803 0
M  V30 1983 H 183.521 -0.765572 -6.67524 0
M  V30 1984 N 186.241 1.57166 -0.116904 0
M  V30 1985 C 187.489 1.94737 0.540533 0
M  V30 1986 C 187.81 1.00096 1.67349 0
M  V30 1987 O 187.08 0.0568854 1.95817 0
M  V30 1988 H 185.66 0.718981 0.202669 0
M  V30 1989 H 188.322 1.94017 -0.185353 0
M  V30 1990 H 187.418 2.97719 0.936483 0
M  V30 1991 N 187.719 -0.156864 1.56817 0
M  V30 1992 C 188.629 -1.2136 2.00771 0
M  V30 1993 C 189.645 -1.47598 0.921459 0
M  V30 1994 O 190.821 -1.59462 1.2302 0
M  V30 1995 C 187.886 -2.52943 2.37109 0
M  V30 1996 C 186.947 -2.34439 3.59634 0
M  V30 1997 C 186.18 -3.59748 3.94229 0
M  V30 1998 O 186.403 -4.65526 3.29609 0
M  V30 1999 O 185.337 -3.52998 4.8752 0
M  V30 2000 H 189.163 -0.870468 2.90958 0
M  V30 2001 H 186.748 -0.36484 1.44877 0
M  V30 2002 H 188.63 -3.30538 2.61386 0
M  V30 2003 H 187.305 -2.86806 1.5008 0
M  V30 2004 H 186.212 -1.54828 3.40557 0
M  V30 2005 H 187.545 -2.05496 4.4725 0
M  V30 2006 N 189.197 -1.51736 -0.425897 0
M  V30 2007 C 190.425 -1.68794 -1.1965 0
M  V30 2008 C 190.84 -0.390164 -1.84725 0
M  V30 2009 O 190.197 0.632376 -1.71194 0
M  V30 2010 C 190.248 -2.81174 -2.27208 0
M  V30 2011 O 189.969 -4.05925 -1.64793 0
M  V30 2012 C 191.47 -3.09599 -3.17275 0
M  V30 2013 H 188.69 -0.566128 -0.360194 0
M  V30 2014 H 191.234 -1.98211 -0.503249 0
M  V30 2015 H 189.389 -2.54324 -2.9223 0
M  V30 2016 H 189.803 -4.68423 -2.35967 0
M  V30 2017 H 191.277 -3.91786 -3.88854 0
M  V30 2018 H 191.754 -2.22468 -3.78688 0
M  V30 2019 H 192.36 -3.38151 -2.57941 0
M  V30 2020 N 190.675 0.682077 -1.42076 0
M  V30 2021 C 191.605 1.80796 -1.47767 0
M  V30 2022 C 192.586 1.6677 -0.334954 0
M  V30 2023 O 193.771 1.863 -0.548264 0
M  V30 2024 C 190.901 3.19038 -1.37229 0
M  V30 2025 C 189.855 3.47789 -2.49453 0
M  V30 2026 C 189.181 4.8553 -2.23975 0
M  V30 2027 C 190.481 3.45411 -3.91776 0
M  V30 2028 H 192.175 1.7629 -2.41997 0
M  V30 2029 H 189.721 0.846721 -1.16476 0
M  V30 2030 H 191.674 3.97528 -1.39821 0
M  V30 2031 H 190.398 3.24204 -0.394907 0
M  V30 2032 H 189.057 2.71657 -2.46166 0
M  V30 2033 H 188.705 4.87337 -1.24547 0
M  V30 2034 H 188.405 5.0573 -2.99184 0
M  V30 2035 H 189.929 5.66312 -2.28304 0
M  V30 2036 H 191.343 4.13882 -3.96705 0
M  V30 2037 H 189.74 3.77145 -4.66778 0
M  V30 2038 H 190.81 2.44122 -4.18966 0
M  V30 2039 N 192.153 1.28127 0.917671 0
M  V30 2040 C 193.378 1.18007 1.70555 0
M  V30 2041 C 193.803 -0.258257 1.86319 0
M  V30 2042 O 193.161 -1.1869 1.37049 0
M  V30 2043 C 193.209 1.87948 3.07746 0
M  V30 2044 O 192.313 1.18427 3.9503 0
M  V30 2045 H 191.654 0.409867 0.522403 0
M  V30 2046 H 194.184 1.69379 1.1477 0
M  V30 2047 H 194.194 1.95701 3.58001 0
M  V30 2048 H 192.869 2.92573 2.95591 0
M  V30 2049 H 191.446 1.18811 3.53466 0
M  V30 2050 N 193.631 -1.12557 1.10312 0
M  V30 2051 C 194.561 -2.20341 0.772798 0
M  V30 2052 C 195.542 -1.68198 -0.25365 0
M  V30 2053 O 196.727 -1.93831 -0.119699 0
M  V30 2054 C 193.857 -3.46709 0.202443 0
M  V30 2055 C 192.811 -4.11996 1.15943 0
M  V30 2056 C 192.137 -5.328 0.450345 0
M  V30 2057 C 193.437 -4.5828 2.50552 0
M  V30 2058 H 195.131 -2.48229 1.674 0
M  V30 2059 H 192.677 -1.19308 0.806326 0
M  V30 2060 H 194.63 -4.2138 -0.0407752 0
M  V30 2061 H 193.354 -3.18245 -0.734001 0
M  V30 2062 H 192.013 -3.39305 1.38808 0
M  V30 2063 H 191.661 -5.00602 -0.490531 0
M  V30 2064 H 191.361 -5.7743 1.08851 0
M  V30 2065 H 192.885 -6.10219 0.215642 0
M  V30 2066 H 194.299 -5.2433 2.31843 0
M  V30 2067 H 192.696 -5.13683 3.10242 0
M  V30 2068 H 193.766 -3.72329 3.10643 0
M  V30 2069 N 195.109 -0.891671 -1.2995 0
M  V30 2070 C 196.357 -0.512486 -1.95494 0
M  V30 2071 C 196.678 0.942776 -1.70695 0
M  V30 2072 O 195.948 1.66374 -1.03424 0
M  V30 2073 H 194.528 -0.186533 -0.723336 0
M  V30 2074 H 197.19 -1.13621 -1.58355 0
M  V30 2075 H 196.286 -0.688342 -3.04415 0
M  V30 2076 N 196.587 1.43421 -0.653314 0
M  V30 2077 C 197.534 2.30768 0.0382271 0
M  V30 2078 C 198.504 1.44755 0.814576 0
M  V30 2079 O 199.689 1.73624 0.791162 0
M  V30 2080 C 196.829 3.30336 0.998599 0
M  V30 2081 C 195.942 4.31448 0.218342 0
M  V30 2082 C 195.077 5.18098 1.17252 0
M  V30 2083 C 194.116 6.10902 0.382702 0
M  V30 2084 N 193.253 6.90176 1.28848 0
M  V30 2085 H 198.093 2.89357 -0.712511 0
M  V30 2086 H 195.63 1.42548 -0.363128 0
M  V30 2087 H 197.588 3.86572 1.56901 0
M  V30 2088 H 196.218 2.73397 1.71621 0
M  V30 2089 H 195.27 3.77506 -0.46836 0
M  V30 2090 H 196.582 4.97227 -0.395812 0
M  V30 2091 H 195.736 5.7896 1.81356 0
M  V30 2092 H 194.475 4.52444 1.82058 0
M  V30 2093 H 193.48 5.49128 -0.27169 0
M  V30 2094 H 194.705 6.78598 -0.260957 0
M  V30 2095 H 192.651 6.27171 1.92334 0
M  V30 2096 H 192.568 7.52478 0.728887 0
M  V30 2097 H 193.836 7.55543 1.91766 0
M  V30 2098 N 198.065 0.39524 1.52563 0
M  V30 2099 C 199.481 0.0454682 1.59535 0
M  V30 2100 C 199.681 -1.44056 1.4089 0
M  V30 2101 O 198.737 -2.20579 1.22888 0
M  V30 2102 C 200.05 0.527963 2.96029 0
M  V30 2103 C 201.598 0.484733 3.09224 0
M  V30 2104 C 202.073 0.943512 4.48176 0
M  V30 2105 N 203.564 0.899765 4.54377 0
M  V30 2106 C 204.299 1.22609 5.60138 0
M  V30 2107 N 203.795 1.62319 6.73516 0
M  V30 2108 N 205.588 1.14696 5.50274 0
M  V30 2109 H 197.739 1.36261 1.62931 0
M  V30 2110 H 200.002 0.558887 0.765735 0
M  V30 2111 H 199.708 1.56607 3.14908 0
M  V30 2112 H 199.582 -0.0698056 3.77135 0
M  V30 2113 H 201.969 -0.544298 2.90037 0
M  V30 2114 H 202.05 1.11838 2.30056 0
M  V30 2115 H 201.694 1.9708 4.68104 0
M  V30 2116 H 201.624 0.286817 5.25818 0
M  V30 2117 H 204.115 0.607632 3.72983 0
M  V30 2118 H 204.428 1.85567 7.5019 0
M  V30 2119 H 202.773 1.66211 6.74833 0
M  V30 2120 H 205.964 0.835701 4.6058 0
M  V30 2121 H 206.137 1.40459 6.32594 0
M  V30 2122 N 199.544 -1.57102 0.125237 0
M  V30 2123 C 200.772 -1.99761 -0.538797 0
M  V30 2124 C 201.187 -1.00503 -1.59827 0
M  V30 2125 O 200.544 0.00119474 -1.825 0
M  V30 2126 C 200.595 -3.42408 -1.15927 0
M  V30 2127 O 200.316 -4.37869 -0.142143 0
M  V30 2128 C 201.817 -4.00232 -1.90602 0
M  V30 2129 H 199.037 -0.655772 -0.14214 0
M  V30 2130 H 201.581 -2.03383 0.213413 0
M  V30 2131 H 199.736 -3.39706 -1.86223 0
M  V30 2132 H 200.15 -5.21128 -0.593775 0
M  V30 2133 H 201.624 -5.02105 -2.29335 0
M  V30 2134 H 202.101 -3.39721 -2.78363 0
M  V30 2135 H 202.707 -4.06499 -1.25055 0
M  V30 2136 N 201.022 0.148545 -1.56898 0
M  V30 2137 C 202.268 0.862694 -1.83536 0
M  V30 2138 C 202.601 1.80889 -0.706604 0
M  V30 2139 O 201.876 1.92328 0.289885 0
M  V30 2140 C 202.159 1.63853 -3.20662 0
M  V30 2141 C 202.012 0.713925 -4.44098 0
M  V30 2142 C 203.331 2.60133 -3.54991 0
M  V30 2143 H 200.45 0.312179 -0.667618 0
M  V30 2144 H 203.092 0.127953 -1.89569 0
M  V30 2145 H 201.242 2.26489 -3.1565 0
M  V30 2146 H 202.914 0.098686 -4.61194 0
M  V30 2147 H 201.157 0.0234019 -4.33794 0
M  V30 2148 H 201.828 1.29278 -5.36648 0
M  V30 2149 H 204.304 2.07616 -3.60603 0
M  V30 2150 H 203.18 3.11468 -4.51972 0
M  V30 2151 H 203.441 3.41417 -2.80868 0
M  V30 2152 N 202.5 1.5196 0.417844 0
M  V30 2153 C 203.728 1.69426 1.18753 0
M  V30 2154 C 204.143 0.399955 1.84515 0
M  V30 2155 O 203.5 -0.623288 1.71527 0
M  V30 2156 C 203.551 2.82375 2.25714 0
M  V30 2157 O 203.272 4.06793 1.62638 0
M  V30 2158 C 204.773 3.11277 3.15628 0
M  V30 2159 H 201.993 0.568031 0.357186 0
M  V30 2160 H 204.537 1.98475 0.49273 0
M  V30 2161 H 202.692 2.5587 2.90877 0
M  V30 2162 H 203.106 4.69667 2.3348 0
M  V30 2163 H 204.58 3.93843 3.86771 0
M  V30 2164 H 205.057 2.24473 3.77503 0
M  V30 2165 H 205.663 3.39515 2.56144 0
M  V30 2166 N 203.978 -0.674533 1.42435 0
M  V30 2167 C 205.225 -1.43459 1.42919 0
M  V30 2168 C 205.553 -1.94446 0.0457312 0
M  V30 2169 O 204.808 -1.7132 -0.94593 0
M  V30 2170 C 205.107 -2.64767 2.40069 0
M  V30 2171 C 204.773 -2.3232 3.86443 0
M  V30 2172 C 203.435 -2.23182 4.26314 0
M  V30 2173 C 205.787 -2.05977 4.78773 0
M  V30 2174 C 203.115 -1.85827 5.56494 0
M  V30 2175 C 205.467 -1.70125 6.09295 0
M  V30 2176 C 204.131 -1.59498 6.48164 0
M  V30 2177 H 203.401 -0.524952 0.522978 0
M  V30 2178 H 206.048 -0.769097 1.75377 0
M  V30 2179 H 204.353 -3.36349 2.00939 0
M  V30 2180 H 206.05 -3.22949 2.37707 0
M  V30 2181 H 202.64 -2.40334 3.54877 0
M  V30 2182 H 206.824 -2.11969 4.48757 0
M  V30 2183 H 202.08 -1.76168 5.8547 0
M  V30 2184 H 206.254 -1.48767 6.80324 0
M  V30 2185 H 203.881 -1.30322 7.48946 0
M  V30 2186 N 205.456 -1.28612 -0.910864 0
M  V30 2187 C 206.686 -1.1862 -1.69153 0
M  V30 2188 C 207.094 0.257324 -1.87442 0
M  V30 2189 O 206.437 1.18543 -1.40332 0
M  V30 2190 C 206.499 -1.81606 -3.10257 0
M  V30 2191 C 206.163 -3.30864 -3.15243 0
M  V30 2192 C 207.16 -4.27256 -2.96223 0
M  V30 2193 C 204.845 -3.71871 -3.37664 0
M  V30 2194 C 206.839 -5.62631 -2.99541 0
M  V30 2195 C 204.526 -5.07371 -3.40614 0
M  V30 2196 C 205.524 -6.02561 -3.21573 0
M  V30 2197 O 205.212 -7.35589 -3.2429 0
M  V30 2198 H 204.944 -0.412633 -0.535453 0
M  V30 2199 H 207.498 -1.70306 -1.14827 0
M  V30 2200 H 205.728 -1.24418 -3.66138 0
M  V30 2201 H 207.417 -1.66092 -3.70362 0
M  V30 2202 H 208.183 -3.9691 -2.78725 0
M  V30 2203 H 204.062 -2.98241 -3.5153 0
M  V30 2204 H 207.606 -6.36907 -2.84597 0
M  V30 2205 H 203.503 -5.37366 -3.57642 0
M  V30 2206 H 204.271 -7.44252 -3.40633 0
M  V30 2207 N 206.934 1.1197 -1.10907 0
M  V30 2208 C 207.844 2.21433 -0.774896 0
M  V30 2209 C 208.86 1.72478 0.229657 0
M  V30 2210 O 210.036 2.01288 0.0672008 0
M  V30 2211 C 207.101 3.4602 -0.216986 0
M  V30 2212 C 206.162 4.09791 -1.27944 0
M  V30 2213 C 205.395 5.28431 -0.748055 0
M  V30 2214 O 205.618 5.68823 0.423833 0
M  V30 2215 O 204.552 5.82644 -1.51027 0
M  V30 2216 H 208.378 2.5242 -1.68873 0
M  V30 2217 H 205.963 1.20399 -0.884555 0
M  V30 2218 H 207.845 4.21304 0.090059 0
M  V30 2219 H 206.52 3.16698 0.669633 0
M  V30 2220 H 205.427 3.36265 -1.63941 0
M  V30 2221 H 206.76 4.4328 -2.13925 0
M  V30 2222 N 208.412 0.89855 1.29475 0
M  V30 2223 C 209.64 0.539261 1.99749 0
M  V30 2224 C 210.055 -0.875716 1.67262 0
M  V30 2225 O 209.412 -1.57786 0.917049 0
M  V30 2226 C 209.463 0.72061 3.54245 0
M  V30 2227 O 209.184 2.07989 3.8558 0
M  V30 2228 C 210.685 0.366118 4.41786 0
M  V30 2229 H 207.905 0.207047 0.638258 0
M  V30 2230 H 210.449 1.20758 1.65039 0
M  V30 2231 H 208.604 0.0994862 3.87272 0
M  V30 2232 H 209.018 2.10841 4.80257 0
M  V30 2233 H 210.492 0.543848 5.49314 0
M  V30 2234 H 210.969 -0.696763 4.33638 0
M  V30 2235 H 211.575 0.964135 4.14228 0
M  V30 2236 N 209.89 -1.43072 0.660911 0
M  V30 2237 C 211.306 -1.56169 0.329173 0
M  V30 2238 C 211.506 -1.64317 -1.16629 0
M  V30 2239 O 210.562 -1.60245 -1.95135 0
M  V30 2240 C 211.875 -2.81873 1.04729 0
M  V30 2241 C 213.423 -2.95627 1.02828 0
M  V30 2242 C 213.898 -4.24174 1.72744 0
M  V30 2243 N 215.389 -4.31055 1.69545 0
M  V30 2244 C 216.124 -5.29304 2.20511 0
M  V30 2245 N 215.62 -6.33786 2.79799 0
M  V30 2246 N 217.413 -5.21008 2.10966 0
M  V30 2247 H 209.564 -1.36027 1.63127 0
M  V30 2248 H 211.827 -0.653823 0.686454 0
M  V30 2249 H 211.533 -2.81942 2.10242 0
M  V30 2250 H 211.407 -3.72338 0.603702 0
M  V30 2251 H 213.794 -2.95094 -0.0184742 0
M  V30 2252 H 213.875 -2.06431 1.51063 0
M  V30 2253 H 213.519 -4.25467 2.7738 0
M  V30 2254 H 213.449 -5.1228 1.2197 0
M  V30 2255 H 215.94 -3.56174 1.26288 0
M  V30 2256 H 216.253 -7.05086 3.16344 0
M  V30 2257 H 214.598 -6.34387 2.83863 0
M  V30 2258 H 217.789 -4.38301 1.64347 0
M  V30 2259 H 217.962 -5.97416 2.50993 0
M  V30 2260 N 211.368 -0.403325 -1.52352 0
M  V30 2261 C 212.301 0.469463 -2.23319 0
M  V30 2262 C 213.279 1.05272 -1.23922 0
M  V30 2263 O 214.463 1.10169 -1.52954 0
M  V30 2264 C 211.59 1.6511 -2.9573 0
M  V30 2265 C 210.636 1.19178 -4.0951 0
M  V30 2266 S 211.469 0.161718 -5.35256 0
M  V30 2267 C 212.625 1.34882 -6.11194 0
M  V30 2268 H 212.858 -0.133134 -2.97002 0
M  V30 2269 H 210.391 -0.187588 -1.53256 0
M  V30 2270 H 212.349 2.3287 -3.38056 0
M  V30 2271 H 211.01 2.22503 -2.21701 0
M  V30 2272 H 210.203 2.07444 -4.59329 0
M  V30 2273 H 209.805 0.592911 -3.6927 0
M  V30 2274 H 212.097 2.27345 -6.38217 0
M  V30 2275 H 213.04 0.89128 -7.02468 0
M  V30 2276 H 213.448 1.57198 -5.42171 0
M  V30 2277 N 212.846 1.57033 -0.133567 0
M  V30 2278 C 213.776 2.1909 0.807567 0
M  V30 2279 C 214.757 1.13517 1.26681 0
M  V30 2280 O 215.942 1.41809 1.32679 0
M  V30 2281 C 213.072 2.80188 2.05212 0
M  V30 2282 C 212.026 3.91471 1.73015 0
M  V30 2283 C 211.352 4.39443 3.04622 0
M  V30 2284 C 212.652 5.12886 0.987168 0
M  V30 2285 H 214.346 2.97988 0.290403 0
M  V30 2286 H 211.892 1.43335 0.138239 0
M  V30 2287 H 213.845 3.22264 2.71521 0
M  V30 2288 H 212.569 1.98601 2.59278 0
M  V30 2289 H 211.228 3.49993 1.0909 0
M  V30 2290 H 210.876 3.54695 3.56651 0
M  V30 2291 H 210.576 5.14495 2.83847 0
M  V30 2292 H 212.1 4.8418 3.72024 0
M  V30 2293 H 213.514 5.51891 1.55208 0
M  V30 2294 H 211.911 5.93615 0.87985 0
M  V30 2295 H 212.981 4.84894 -0.0235286 0
M  V30 2296 N 214.325 -0.140222 1.56975 0
M  V30 2297 C 215.275 -1.17827 1.95194 0
M  V30 2298 C 216.259 -1.38195 0.824075 0
M  V30 2299 O 217.451 -1.39643 1.0876 0
M  V30 2300 C 214.58 -2.51024 2.34184 0
M  V30 2301 C 213.666 -2.3422 3.53556 0
M  V30 2302 N 214.057 -1.87185 4.69889 0
M  V30 2303 C 212.355 -2.64949 3.58773 0
M  V30 2304 C 213.056 -1.83586 5.5197 0
M  V30 2305 N 212.032 -2.2715 4.93866 0
M  V30 2306 H 215.834 -0.806817 2.82609 0
M  V30 2307 H 213.348 -0.348208 1.58623 0
M  V30 2308 H 215.345 -3.26074 2.59772 0
M  V30 2309 H 214.005 -2.88945 1.48124 0
M  V30 2310 H 215.016 -1.57048 4.93514 0
M  V30 2311 H 211.693 -3.067 2.8327 0
M  V30 2312 H 213.083 -1.48655 6.55249 0
M  V30 2313 N 215.803 -1.52179 -0.40978 0
M  V30 2314 C 217.049 -1.67408 -1.15525 0
M  V30 2315 C 217.404 -0.398746 -1.88223 0
M  V30 2316 O 216.697 0.60678 -1.81738 0
M  V30 2317 C 216.891 -2.83428 -2.17723 0
M  V30 2318 C 216.72 -4.22121 -1.55061 0
M  V30 2319 C 215.49 -4.87657 -1.3236 0
M  V30 2320 C 217.688 -5.04248 -1.01185 0
M  V30 2321 N 215.67 -6.10387 -0.655834 0
M  V30 2322 C 217.041 -6.18209 -0.470963 0
M  V30 2323 C 219.096 -4.89583 -0.906252 0
M  V30 2324 C 217.799 -7.1911 0.165172 0
M  V30 2325 C 219.825 -5.90718 -0.28397 0
M  V30 2326 C 219.187 -7.03969 0.246243 0
M  V30 2327 H 215.286 -0.666251 -0.409431 0
M  V30 2328 H 217.87 -1.89482 -0.447729 0
M  V30 2329 H 216.041 -2.6297 -2.85834 0
M  V30 2330 H 217.773 -2.87697 -2.84627 0
M  V30 2331 H 214.528 -4.46007 -1.59294 0
M  V30 2332 H 214.952 -6.76153 -0.338596 0
M  V30 2333 H 219.594 -4.02253 -1.302 0
M  V30 2334 H 217.312 -8.06066 0.572986 0
M  V30 2335 H 220.898 -5.81443 -0.203792 0
M  V30 2336 H 219.778 -7.80886 0.720173 0
M  V30 2337 N 217.281 0.66697 -1.42791 0
M  V30 2338 C 218.692 1.2478 -1.38877 0
M  V30 2339 C 219.043 1.96012 -0.0859426 0
M  V30 2340 O 218.168 2.00463 0.815081 0
M  V30 2341 C 218.763 2.26938 -2.51564 0
M  V30 2342 C 217.322 2.80529 -2.50959 0
M  V30 2343 C 216.469 1.54965 -2.29959 0
M  V30 2344 H 219.42 0.459853 -1.51892 0
M  V30 2345 H 219.441 3.08834 -2.22265 0
M  V30 2346 H 218.953 1.75065 -3.46372 0
M  V30 2347 H 217.054 3.36502 -1.59991 0
M  V30 2348 H 217.167 3.29012 -3.48265 0
M  V30 2349 H 215.531 1.81817 -1.78366 0
M  V30 2350 H 216.314 1.05047 -3.26833 0
M  V30 2351 N 218.759 1.29093 0.90403 0
M  V30 2352 C 220.036 1.075 1.63411 0
M  V30 2353 C 220.416 -0.382346 2.07609 0
M  V30 2354 O 219.764 -1.37031 1.82851 0
M  V30 2355 C 219.974 2.05858 2.81822 0
M  V30 2356 C 221.322 2.36539 3.52611 0
M  V30 2357 O 222.346 2.04019 2.91984 0
M  V30 2358 O 221.205 2.92085 4.61897 0
M  V30 2359 H 218.299 0.411547 0.717327 0
M  V30 2360 H 220.845 1.40449 0.952479 0
M  V30 2361 H 219.617 3.04037 2.46327 0
M  V30 2362 H 219.24 1.73613 3.57693 0
M  V30 2363 N 220.237 -1.11381 1.11499 0
M  V30 2364 C 221.462 -1.87475 0.887019 0
M  V30 2365 C 221.887 -1.79639 -0.557796 0
M  V30 2366 O 221.245 -1.15924 -1.39396 0
M  V30 2367 C 221.293 -3.34213 1.35403 0
M  V30 2368 O 220.397 -4.0903 0.526146 0
M  V30 2369 H 219.738 -0.582099 0.319463 0
M  V30 2370 H 222.268 -1.40785 1.48461 0
M  V30 2371 H 222.278 -3.8506 1.34881 0
M  V30 2372 H 220.953 -3.39232 2.40612 0
M  V30 2373 H 219.53 -3.68082 0.597522 0
M  V30 2374 N 221.715 -0.905404 -1.28997 0
M  V30 2375 C 222.648 -0.331959 -2.25773 0
M  V30 2376 C 223.626 0.559099 -1.52685 0
M  V30 2377 O 224.81 0.50463 -1.8162 0
M  V30 2378 C 221.937 0.526276 -3.34586 0
M  V30 2379 C 220.983 -0.298249 -4.25456 0
M  V30 2380 S 221.816 -1.69968 -5.0781 0
M  V30 2381 C 222.972 -0.848519 -6.20122 0
M  V30 2382 H 223.205 -1.15222 -2.74064 0
M  V30 2383 H 220.738 -0.706112 -1.37308 0
M  V30 2384 H 222.696 1.01565 -3.97737 0
M  V30 2385 H 221.357 1.32084 -2.84978 0
M  V30 2386 H 220.55 0.357607 -5.0273 0
M  V30 2387 H 220.152 -0.720968 -3.66985 0
M  V30 2388 H 222.444 -0.0744325 -6.77459 0
M  V30 2389 H 223.387 -1.59353 -6.89937 0
M  V30 2390 H 223.795 -0.400383 -5.63078 0
M  V30 2391 N 223.193 1.4272 -0.668489 0
M  V30 2392 C 224.439 2.01923 -0.188419 0
M  V30 2393 C 224.772 1.52704 1.19979 0
M  V30 2394 O 224.047 0.726566 1.8042 0
M  V30 2395 C 224.33 3.59451 -0.216085 0
M  V30 2396 C 224.183 4.18864 -1.6393 0
M  V30 2397 C 225.502 4.37903 0.439179 0
M  V30 2398 H 222.621 0.733674 -0.0699412 0
M  V30 2399 H 225.263 1.69822 -0.852076 0
M  V30 2400 H 223.413 3.86929 0.349012 0
M  V30 2401 H 225.085 4.02362 -2.25616 0
M  V30 2402 H 223.328 3.74933 -2.18193 0
M  V30 2403 H 223.999 5.27987 -1.61039 0
M  V30 2404 H 226.475 4.16079 -0.0417878 0
M  V30 2405 H 225.351 5.47519 0.389157 0
M  V30 2406 H 225.612 4.15303 1.51577 0
M  V30 2407 N 224.671 0.411399 1.52136 0
M  V30 2408 C 225.896 -0.165538 2.06738 0
M  V30 2409 C 226.321 -1.379 1.27926 0
M  V30 2410 O 225.679 -1.78628 0.310114 0
M  V30 2411 C 225.727 -0.492124 3.57226 0
M  V30 2412 O 224.831 -1.58276 3.80818 0
M  V30 2413 H 224.172 -0.0132132 0.663869 0
M  V30 2414 H 226.702 0.585253 1.96051 0
M  V30 2415 H 226.712 -0.750104 4.01045 0
M  V30 2416 H 225.387 0.394922 4.14021 0
M  V30 2417 H 223.964 -1.31677 3.48877 0
M  V30 2418 N 226.149 -1.5696 0.141893 0
M  V30 2419 C 227.395 -1.97034 -0.504884 0
M  V30 2420 C 227.75 -1.02518 -1.62812 0
M  V30 2421 O 227.043 -0.0592943 -1.91508 0
M  V30 2422 C 227.237 -3.41242 -1.06249 0
M  V30 2423 C 227.066 -4.497 0.00519653 0
M  V30 2424 C 225.836 -5.03338 0.444873 0
M  V30 2425 C 228.034 -5.08122 0.794767 0
M  V30 2426 N 226.016 -5.95395 1.49593 0
M  V30 2427 C 227.387 -5.96339 1.69645 0
M  V30 2428 C 229.442 -4.9071 0.843122 0
M  V30 2429 C 228.145 -6.69009 2.64233 0
M  V30 2430 C 230.171 -5.64077 1.77681 0
M  V30 2431 C 229.533 -6.51999 2.66603 0
M  V30 2432 H 225.632 -0.766745 -0.153707 0
M  V30 2433 H 228.216 -1.93273 0.235313 0
M  V30 2434 H 226.387 -3.45606 -1.77231 0
M  V30 2435 H 228.119 -3.68389 -1.67546 0
M  V30 2436 H 224.874 -4.73576 0.0480959 0
M  V30 2437 H 225.298 -6.46128 2.02107 0
M  V30 2438 H 229.94 -4.22459 0.169732 0
M  V30 2439 H 227.658 -7.36492 3.32575 0
M  V30 2440 H 231.244 -5.52602 1.81996 0
M  V30 2441 H 230.124 -7.07775 3.37675 0
M  V30 2442 N 227.627 0.131896 -1.57047 0
M  V30 2443 C 228.874 0.841932 -1.84168 0
M  V30 2444 C 229.202 1.8048 -0.725066 0
M  V30 2445 O 228.457 1.93618 0.284692 0
M  V30 2446 C 228.756 1.63703 -3.17704 0
M  V30 2447 C 228.422 0.81961 -4.43388 0
M  V30 2448 C 227.084 0.594148 -4.77518 0
M  V30 2449 C 229.436 0.248977 -5.20605 0
M  V30 2450 C 226.764 -0.212409 -5.86315 0
M  V30 2451 C 229.116 -0.544701 -6.30251 0
M  V30 2452 C 227.78 -0.780599 -6.6292 0
M  V30 2453 H 227.05 0.308085 -0.673917 0
M  V30 2454 H 229.697 0.104867 -1.91213 0
M  V30 2455 H 228.002 2.44464 -3.06177 0
M  V30 2456 H 229.699 2.19015 -3.35907 0
M  V30 2457 H 226.289 1.00542 -4.16641 0
M  V30 2458 H 230.473 0.410408 -4.946 0
M  V30 2459 H 225.729 -0.404524 -6.1006 0
M  V30 2460 H 229.903 -0.993922 -6.89271 0
M  V30 2461 H 227.53 -1.40742 -7.47058 0
M  V30 2462 N 229.106 1.52395 0.401703 0
M  V30 2463 C 230.069 1.75636 1.47257 0
M  V30 2464 C 231.069 0.62628 1.48103 0
M  V30 2465 O 232.259 0.894227 1.49497 0
M  V30 2466 C 229.391 1.84553 2.86624 0
M  V30 2467 H 230.584 2.71241 1.27938 0
M  V30 2468 H 228.137 1.42923 0.632662 0
M  V30 2469 H 228.872 0.908882 3.11303 0
M  V30 2470 H 228.657 2.66715 2.87412 0
M  V30 2471 H 230.147 2.04251 3.64241 0
M  V30 2472 N 230.584 -0.659388 1.43143 0
M  V30 2473 C 231.861 -1.41627 1.34912 0
M  V30 2474 C 232.241 -2.11099 -0.00607785 0
M  V30 2475 O 231.589 -2.04353 -1.02236 0
M  V30 2476 C 231.799 -2.40604 2.52805 0
M  V30 2477 C 233.147 -3.04789 2.95616 0
M  V30 2478 O 234.171 -2.50932 2.52807 0
M  V30 2479 O 233.03 -4.02421 3.69756 0
M  V30 2480 H 230.124 -0.63246 0.532844 0
M  V30 2481 H 232.67 -0.686814 1.5518 0
M  V30 2482 H 231.442 -1.88174 3.43083 0
M  V30 2483 H 231.065 -3.21009 2.34604 0
M  V30 2484 N 232.062 -1.29571 -0.897171 0
M  V30 2485 C 232.972 -1.16808 -2.03453 0
M  V30 2486 C 233.988 -0.0907471 -1.73763 0
M  V30 2487 O 235.164 -0.303312 -1.99103 0
M  V30 2488 C 232.229 -0.848264 -3.36163 0
M  V30 2489 C 231.29 -2.0097 -3.79354 0
M  V30 2490 C 230.523 -1.70505 -5.05731 0
M  V30 2491 O 230.746 -0.62718 -5.66941 0
M  V30 2492 O 229.68 -2.5538 -5.45036 0
M  V30 2493 H 233.506 -2.12325 -2.17144 0
M  V30 2494 H 231.091 -1.09047 -1.02123 0
M  V30 2495 H 232.973 -0.684581 -4.15802 0
M  V30 2496 H 231.648 0.0771071 -3.23608 0
M  V30 2497 H 230.555 -2.22863 -3.00471 0
M  V30 2498 H 231.888 -2.91636 -3.96496 0
M  V30 2499 N 233.54 1.10788 -1.12088 0
M  V30 2500 C 234.487 2.17025 -0.785407 0
M  V30 2501 C 235.457 1.64265 0.246191 0
M  V30 2502 O 236.642 1.90412 0.121584 0
M  V30 2503 C 233.782 3.44249 -0.242177 0
M  V30 2504 C 232.895 4.1098 -1.33115 0
M  V30 2505 C 232.03 5.25911 -0.747741 0
M  V30 2506 C 231.069 5.84538 -1.81609 0
M  V30 2507 N 230.206 6.90853 -1.25167 0
M  V30 2508 H 235.046 2.45066 -1.69548 0
M  V30 2509 H 232.583 1.20297 -0.846582 0
M  V30 2510 H 234.541 4.17101 0.0908026 0
M  V30 2511 H 233.171 3.16571 0.631072 0
M  V30 2512 H 232.223 3.36133 -1.78097 0
M  V30 2513 H 233.535 4.50601 -2.13917 0
M  V30 2514 H 232.689 6.056 -0.365216 0
M  V30 2515 H 231.428 4.87614 0.0915188 0
M  V30 2516 H 230.433 5.03522 -2.20785 0
M  V30 2517 H 231.658 6.249 -2.6585 0
M  V30 2518 H 229.604 6.54562 -0.434174 0
M  V30 2519 H 229.521 7.29166 -1.99633 0
M  V30 2520 H 230.789 7.7433 -0.896259 0
M  V30 2521 N 235.018 0.912232 1.28515 0
M  V30 2522 C 236.264 0.545405 1.95328 0
M  V30 2523 C 236.597 -0.908313 1.71649 0
M  V30 2524 O 235.872 -1.64575 1.03659 0
M  V30 2525 C 236.155 0.853483 3.4984 0
M  V30 2526 C 236.008 2.35982 3.82926 0
M  V30 2527 C 237.327 0.348589 4.38717 0
M  V30 2528 H 234.446 0.199626 0.709449 0
M  V30 2529 H 237.088 1.1412 1.5191 0
M  V30 2530 H 235.238 0.34643 3.86952 0
M  V30 2531 H 236.91 2.93738 3.55691 0
M  V30 2532 H 235.153 2.81543 3.30024 0
M  V30 2533 H 235.824 2.52593 4.90816 0
M  V30 2534 H 238.3 0.78294 4.08668 0
M  V30 2535 H 237.176 0.593242 5.45685 0
M  V30 2536 H 237.437 -0.751049 4.35674 0
M  V30 2537 N 236.496 -1.42363 0.676048 0
M  V30 2538 C 237.426 -2.33497 0.0124832 0
M  V30 2539 C 238.407 -1.50748 -0.787981 0
M  V30 2540 O 239.592 -1.79346 -0.744884 0
M  V30 2541 C 236.722 -3.34377 -0.938582 0
M  V30 2542 C 235.676 -4.27289 -0.246622 0
M  V30 2543 C 235.002 -5.18386 -1.31071 0
M  V30 2544 C 236.302 -5.14916 0.875125 0
M  V30 2545 H 237.996 -2.89233 0.773593 0
M  V30 2546 H 235.542 -1.39073 0.37346 0
M  V30 2547 H 237.495 -3.97044 -1.41188 0
M  V30 2548 H 236.219 -2.76947 -1.73113 0
M  V30 2549 H 234.878 -3.66018 0.206456 0
M  V30 2550 H 234.526 -4.57282 -2.09528 0
M  V30 2551 H 234.226 -5.81378 -0.852839 0
M  V30 2552 H 235.75 -5.83929 -1.78492 0
M  V30 2553 H 237.164 -5.71262 0.482983 0
M  V30 2554 H 235.561 -5.86747 1.25887 0
M  V30 2555 H 236.631 -4.53242 1.72335 0
M  V30 2556 N 237.974 -0.419461 -1.51915 0
M  V30 2557 C 239.223 0.154346 -2.01109 0
M  V30 2558 C 239.536 1.45338 -1.30905 0
M  V30 2559 O 240.742 2.10906 -1.7097 0
M  V30 2560 C 239.198 0.325615 -3.58424 0
M  V30 2561 C 238.806 -0.961934 -4.37551 0
M  V30 2562 C 240.55 0.854155 -4.15818 0
M  V30 2563 C 238.457 -0.757287 -5.86531 0
M  V30 2564 H 237.387 0.0614563 -0.751491 0
M  V30 2565 H 240.038 -0.54649 -1.75173 0
M  V30 2566 H 238.42 1.08903 -3.80731 0
M  V30 2567 H 239.594 -1.7323 -4.26999 0
M  V30 2568 H 237.909 -1.41766 -3.91524 0
M  V30 2569 H 240.506 1.02346 -5.24814 0
M  V30 2570 H 240.849 1.83172 -3.73837 0
M  V30 2571 H 241.382 0.149528 -3.97519 0
M  V30 2572 H 238.121 -1.70671 -6.32892 0
M  V30 2573 H 237.641 -0.0264061 -5.99794 0
M  V30 2574 H 239.32 -0.403482 -6.45741 0
M  V30 2575 N 239.452 1.56882 -0.150215 0
M  V30 2576 C 240.677 2.01027 0.510184 0
M  V30 2577 C 241.102 1.02966 1.57415 0
M  V30 2578 O 240.46 0.00590158 1.81299 0
M  V30 2579 C 240.508 3.43899 1.08472 0
M  V30 2580 O 239.612 3.4885 2.19948 0
M  V30 2581 H 238.953 0.652233 0.124451 0
M  V30 2582 H 241.483 2.03093 -0.247894 0
M  V30 2583 H 241.493 3.82766 1.41259 0
M  V30 2584 H 240.168 4.14776 0.305582 0
M  V30 2585 H 238.745 3.21827 1.88366 0
M  V30 2586 N 240.93 -0.123565 1.57115 0
M  V30 2587 C 241.878 -1.17082 2.00984 0
M  V30 2588 C 242.872 -1.43136 0.906009 0
M  V30 2589 O 244.078 -1.43152 1.09121 0
M  V30 2590 H 240.453 -0.394653 0.64012 0
M  V30 2591 H 242.424 -0.774292 2.88179 0
M  V30 2592 C 241.173 -2.49057 2.42623 0
M  V30 2593 H 240.496 -2.29846 3.27125 0
M  V30 2594 H 241.936 -3.20906 2.7712 0
M  V30 2595 C 240.395 -3.11305 1.28805 0
M  V30 2596 O 240.925 -3.97171 0.60153 0
M  V30 2597 N 239.131 -2.71111 1.04628 0
M  V30 2598 H 238.678 -2.01382 1.60634 0
M  V30 2599 H 238.636 -3.1309 0.286685 0
M  V30 2600 N 242.408 -1.52605 -0.393616 0
M  V30 2601 C 243.685 -1.58001 -1.15304 0
M  V30 2602 C 244.065 -0.370385 -2.07825 0
M  V30 2603 O 243.413 0.641638 -2.19306 0
M  V30 2604 C 243.623 -2.91652 -1.91677 0
M  V30 2605 C 244.971 -3.4522 -2.47201 0
M  V30 2606 O 245.995 -2.93495 -2.01839 0
M  V30 2607 O 244.854 -4.35579 -3.3005 0
M  V30 2608 H 241.948 -0.637068 -0.527327 0
M  V30 2609 H 244.494 -1.64939 -0.399141 0
M  V30 2610 H 243.266 -3.71136 -1.23992 0
M  V30 2611 H 242.889 -2.88077 -2.74039 0
M  V30 2612 N 243.887 0.651787 -1.4349 0
M  V30 2613 C 245.136 1.40754 -1.44469 0
M  V30 2614 C 245.449 1.95463 -0.0731845 0
M  V30 2615 O 246.655 2.71471 0.0395721 0
M  V30 2616 C 245.111 2.54735 -2.5424 0
M  V30 2617 C 244.719 2.06628 -3.97504 0
M  V30 2618 C 246.463 3.32092 -2.64414 0
M  V30 2619 C 244.37 3.17829 -4.98737 0
M  V30 2620 H 243.3 0.528862 -0.53742 0
M  V30 2621 H 245.951 0.703365 -1.69485 0
M  V30 2622 H 244.333 3.2763 -2.22428 0
M  V30 2623 H 245.507 1.40734 -4.38783 0
M  V30 2624 H 243.822 1.42146 -3.91387 0
M  V30 2625 H 246.419 4.14952 -3.37223 0
M  V30 2626 H 246.762 3.80217 -1.69532 0
M  V30 2627 H 247.295 2.66279 -2.95534 0
M  V30 2628 H 244.034 2.74671 -5.95177 0
M  V30 2629 H 243.554 3.82429 -4.62069 0
M  V30 2630 H 245.233 3.82937 -5.21505 0
M  V30 2631 N 245.365 1.30045 0.890287 0
M  V30 2632 C 246.612 1.18561 1.64163 0
M  V30 2633 C 246.94 -0.260852 1.92743 0
M  V30 2634 O 246.195 -1.20376 1.54299 0
M  V30 2635 C 246.494 1.95409 2.99249 0
M  V30 2636 C 246.16 3.45066 2.90242 0
M  V30 2637 C 244.822 3.85878 2.87492 0
M  V30 2638 C 247.174 4.4039 2.78758 0
M  V30 2639 C 244.502 5.20314 2.7109 0
M  V30 2640 C 246.854 5.74928 2.63894 0
M  V30 2641 C 245.518 6.14986 2.59516 0
M  V30 2642 H 244.788 0.433846 0.600715 0
M  V30 2643 H 247.435 1.61088 1.03552 0
M  V30 2644 H 245.74 1.45501 3.63781 0
M  V30 2645 H 247.437 1.8392 3.56334 0
M  V30 2646 H 244.027 3.12631 2.93189 0
M  V30 2647 H 248.211 4.09806 2.79952 0
M  V30 2648 H 243.467 5.50449 2.66112 0
M  V30 2649 H 247.641 6.48434 2.53981 0
M  V30 2650 H 245.268 7.19104 2.46565 0
M  V30 2651 N 246.843 -1.10192 1.12674 0
M  V30 2652 C 248.091 -1.81845 0.881861 0
M  V30 2653 C 248.412 -1.85737 -0.593867 0
M  V30 2654 O 247.682 -1.33724 -1.4316 0
M  V30 2655 H 246.262 -0.673432 0.323261 0
M  V30 2656 H 248.924 -1.33316 1.42172 0
M  V30 2657 H 248.02 -2.85288 1.2656 0
M  V30 2658 N 248.321 -0.919034 -1.28029 0
M  V30 2659 C 249.253 -0.368762 -2.26214 0
M  V30 2660 C 250.266 0.495716 -1.55069 0
M  V30 2661 O 251.455 0.30974 -1.75792 0
M  V30 2662 C 248.555 0.491049 -3.35324 0
M  V30 2663 C 247.728 -0.352133 -4.3598 0
M  V30 2664 C 246.787 0.443622 -5.24327 0
M  V30 2665 O 245.813 -0.14566 -5.69014 0
M  V30 2666 N 247.015 1.74545 -5.53637 0
M  V30 2667 H 249.78 -1.21273 -2.74068 0
M  V30 2668 H 247.341 -0.785541 -1.41566 0
M  V30 2669 H 249.333 1.03026 -3.91366 0
M  V30 2670 H 247.903 1.23574 -2.87138 0
M  V30 2671 H 247.123 -1.07269 -3.79324 0
M  V30 2672 H 248.411 -0.928883 -5.00249 0
M  V30 2673 H 247.809 2.24666 -5.19174 0
M  V30 2674 H 246.366 2.23138 -6.12416 0
M  V30 2675 N 249.799 1.42003 -0.683588 0
M  V30 2676 C 250.747 2.326 0.000815408 0
M  V30 2677 C 251.741 1.50308 0.781278 0
M  V30 2678 O 252.947 1.66322 0.688251 0
M  V30 2679 H 249.322 0.751758 0.0190616 0
M  V30 2680 H 251.293 2.88011 -0.780528 0
M  V30 2681 C 250.042 3.34978 0.93195 0
M  V30 2682 H 249.365 3.98345 0.340817 0
M  V30 2683 H 250.805 4.00936 1.37936 0
M  V30 2684 C 249.264 2.67925 2.04249 0
M  V30 2685 O 249.794 2.51788 3.12995 0
M  V30 2686 N 248 2.2681 1.81675 0
M  V30 2687 H 247.547 2.40135 0.932363 0
M  V30 2688 H 247.505 1.8228 2.56167 0
M  V30 2689 N 251.277 0.427512 1.51691 0
M  V30 2690 C 252.526 -0.143679 2.01188 0
M  V30 2691 C 252.839 -1.44642 1.31674 0
M  V30 2692 O 254.045 -2.09997 1.72086 0
M  V30 2693 C 252.501 -0.306602 3.58592 0
M  V30 2694 C 252.109 0.985125 4.37035 0
M  V30 2695 C 253.853 -0.832091 4.16265 0
M  V30 2696 C 251.76 0.788382 5.86122 0
M  V30 2697 H 250.69 -0.0574701 0.751807 0
M  V30 2698 H 253.341 0.555772 1.74881 0
M  V30 2699 H 251.723 -1.06882 3.81303 0
M  V30 2700 H 252.897 1.75492 4.26074 0
M  V30 2701 H 251.212 1.4384 3.90767 0
M  V30 2702 H 253.809 -0.995617 5.25349 0
M  V30 2703 H 254.152 -1.81186 3.74803 0
M  V30 2704 H 254.685 -0.128444 3.97593 0
M  V30 2705 H 251.424 1.74025 6.31978 0
M  V30 2706 H 250.944 0.0582143 5.99772 0
M  V30 2707 H 252.623 0.437722 6.45518 0
M  V30 2708 N 252.755 -1.56801 0.158532 0
M  V30 2709 C 253.718 -2.16138 -0.762705 0
M  V30 2710 C 254.718 -1.1061 -1.16713 0
M  V30 2711 O 255.908 -1.36191 -1.08617 0
M  V30 2712 C 253.04 -2.73386 -2.03649 0
M  V30 2713 H 254.233 -2.98886 -0.246354 0
M  V30 2714 H 251.786 -1.56035 -0.0909744 0
M  V30 2715 H 252.521 -1.94335 -2.59623 0
M  V30 2716 H 252.306 -3.50601 -1.75559 0
M  V30 2717 H 253.796 -3.19065 -2.6942 0
M  V30 2718 N 254.233 0.115231 -1.57178 0
M  V30 2719 C 255.196 1.12526 -1.99676 0
M  V30 2720 C 256.196 1.34095 -0.88742 0
M  V30 2721 O 257.386 1.30548 -1.15337 0
M  V30 2722 C 254.518 2.4789 -2.34015 0
M  V30 2723 H 255.711 0.759912 -2.90113 0
M  V30 2724 H 253.264 0.359648 -1.52106 0
M  V30 2725 H 253.999 2.89339 -1.4647 0
M  V30 2726 H 253.784 2.33588 -3.14927 0
M  V30 2727 H 255.274 3.20575 -2.67622 0
M  V30 2728 N 255.711 1.52812 0.385517 0
M  V30 2729 C 256.936 1.72207 1.15583 0
M  V30 2730 C 257.361 0.441034 1.82857 0
M  V30 2731 O 256.719 -0.603465 1.70962 0
M  V30 2732 C 256.767 2.87476 2.17692 0
M  V30 2733 O 255.871 2.54693 3.24354 0
M  V30 2734 H 255.212 0.572526 0.336319 0
M  V30 2735 H 257.742 1.99618 0.448744 0
M  V30 2736 H 257.752 3.13072 2.6163 0
M  V30 2737 H 256.427 3.80408 1.68115 0
M  V30 2738 H 255.004 2.3985 2.85529 0
M  V30 2739 N 257.189 -0.644168 1.43834 0
M  V30 2740 C 258.099 -1.78563 1.52159 0
M  V30 2741 C 259.115 -1.69147 0.408069 0
M  V30 2742 O 260.291 -1.90156 0.663524 0
M  V30 2743 C 257.356 -3.14888 1.45073 0
M  V30 2744 C 256.417 -3.36034 2.6717 0
M  V30 2745 C 255.65 -4.65855 2.60413 0
M  V30 2746 O 255.873 -5.45805 1.65689 0
M  V30 2747 O 254.807 -4.88918 3.5106 0
M  V30 2748 H 258.633 -1.74494 2.48567 0
M  V30 2749 H 256.218 -0.80378 1.25935 0
M  V30 2750 H 258.1 -3.96179 1.43597 0
M  V30 2751 H 256.775 -3.19528 0.518037 0
M  V30 2752 H 255.682 -2.54472 2.74217 0
M  V30 2753 H 257.015 -3.36247 3.59442 0
M  V30 2754 N 258.668 -1.30515 -0.883378 0
M  V30 2755 C 260.084 -1.08881 -1.16692 0
M  V30 2756 C 260.284 0.149409 -2.00945 0
M  V30 2757 O 259.34 0.84257 -2.38027 0
M  V30 2758 C 260.653 -2.35319 -1.87204 0
M  V30 2759 C 262.201 -2.40799 -1.99962 0
M  V30 2760 C 262.676 -3.67083 -2.73887 0
M  V30 2761 N 264.167 -3.679 -2.81432 0
M  V30 2762 C 264.902 -4.62303 -3.3921 0
M  V30 2763 N 264.398 -5.67052 -3.98025 0
M  V30 2764 N 266.191 -4.49845 -3.3704 0
M  V30 2765 H 258.342 -2.09951 -0.321633 0
M  V30 2766 H 260.605 -0.92556 -0.205043 0
M  V30 2767 H 260.311 -3.25689 -1.3274 0
M  V30 2768 H 260.185 -2.44089 -2.87577 0
M  V30 2769 H 262.572 -1.50907 -2.53597 0
M  V30 2770 H 262.653 -2.36003 -0.98673 0
M  V30 2771 H 262.297 -4.57334 -2.20925 0
M  V30 2772 H 262.227 -3.69141 -3.75556 0
M  V30 2773 H 264.718 -2.92171 -2.39676 0
M  V30 2774 H 265.031 -6.35184 -4.40183 0
M  V30 2775 H 263.376 -5.70842 -3.96439 0
M  V30 2776 H 266.567 -3.67194 -2.90321 0
M  V30 2777 H 266.74 -5.23597 -3.81772 0
M  V30 2778 N 260.146 1.09593 -1.13257 0
M  V30 2779 C 261.393 1.81734 -0.893257 0
M  V30 2780 C 261.721 1.8563 0.580656 0
M  V30 2781 O 260.976 1.31906 1.44566 0
M  V30 2782 C 261.275 3.27802 -1.42411 0
M  V30 2783 C 260.941 3.44041 -2.91456 0
M  V30 2784 C 259.603 3.48181 -3.3215 0
M  V30 2785 C 261.955 3.48719 -3.87356 0
M  V30 2786 C 259.283 3.54575 -4.67433 0
M  V30 2787 C 261.635 3.56648 -5.2248 0
M  V30 2788 C 260.299 3.59055 -5.62704 0
M  V30 2789 H 259.569 0.665011 -0.326866 0
M  V30 2790 H 262.216 1.2912 -1.41422 0
M  V30 2791 H 260.521 3.83042 -0.823795 0
M  V30 2792 H 262.218 3.82149 -1.21503 0
M  V30 2793 H 258.808 3.41502 -2.58987 0
M  V30 2794 H 262.992 3.44763 -3.57004 0
M  V30 2795 H 258.248 3.54725 -4.97976 0
M  V30 2796 H 262.422 3.59212 -5.96607 0
M  V30 2797 H 260.049 3.63763 -6.67518 0
M  V30 2798 N 261.624 0.925811 1.2754 0
M  V30 2799 C 262.849 0.580924 1.99098 0
M  V30 2800 C 263.274 -0.833555 1.68622 0
M  V30 2801 O 262.632 -1.55903 0.925422 0
M  V30 2802 C 262.68 0.811186 3.51358 0
M  V30 2803 O 261.784 -0.124129 4.12213 0
M  V30 2804 H 261.125 0.223873 0.625122 0
M  V30 2805 H 263.655 1.24455 1.62395 0
M  V30 2806 H 263.665 0.72601 4.01489 0
M  V30 2807 H 262.34 1.84227 3.72872 0
M  V30 2808 H 260.917 0.0108006 3.72898 0
M  V30 2809 N 263.102 -1.41638 0.69111 0
M  V30 2810 C 264.379 -1.95036 0.148421 0
M  V30 2811 C 264.759 -1.63072 -1.34055 0
M  V30 2812 O 264.107 -0.93538 -2.08478 0
M  V30 2813 C 264.317 -3.46279 0.434951 0
M  V30 2814 C 265.665 -4.23069 0.360275 0
M  V30 2815 O 266.689 -3.54277 0.369613 0
M  V30 2816 O 265.548 -5.45583 0.316534 0
M  V30 2817 H 262.642 -0.826908 0.0123654 0
M  V30 2818 H 265.188 -1.5138 0.766963 0
M  V30 2819 H 263.96 -3.6281 1.46576 0
M  V30 2820 H 263.583 -3.97019 -0.214787 0
M  V30 2821 N 264.58 -0.43555 -1.51462 0
M  V30 2822 C 265.512 0.41257 -2.25456 0
M  V30 2823 C 266.525 0.987822 -1.29406 0
M  V30 2824 O 267.714 0.882266 -1.55172 0
M  V30 2825 C 264.814 1.58894 -2.99342 0
M  V30 2826 C 263.987 1.13288 -4.22474 0
M  V30 2827 C 263.046 2.17917 -4.78956 0
M  V30 2828 O 262.072 1.77425 -5.40841 0
M  V30 2829 N 263.274 3.50382 -4.62832 0
M  V30 2830 H 266.039 -0.221603 -2.9888 0
M  V30 2831 H 263.6 -0.264342 -1.59727 0
M  V30 2832 H 265.592 2.28508 -3.34015 0
M  V30 2833 H 264.162 2.12849 -2.28941 0
M  V30 2834 H 263.382 0.263881 -3.93316 0
M  V30 2835 H 264.67 0.805542 -5.02383 0
M  V30 2836 H 264.068 3.86013 -4.13534 0
M  V30 2837 H 262.625 4.15895 -5.01871 0
M  V30 2838 N 266.058 1.56714 -0.166846 0
M  V30 2839 C 267.307 1.95922 0.479318 0
M  V30 2840 C 267.62 1.05529 1.6469 0
M  V30 2841 O 268.826 1.34399 2.35901 0
M  V30 2842 C 267.282 3.48359 0.90412 0
M  V30 2843 C 266.89 4.47369 -0.237621 0
M  V30 2844 C 268.634 3.96394 1.51896 0
M  V30 2845 C 266.541 5.91039 0.206561 0
M  V30 2846 H 265.471 0.731495 0.18284 0
M  V30 2847 H 268.122 1.81728 -0.254363 0
M  V30 2848 H 266.504 3.57955 1.69365 0
M  V30 2849 H 267.678 4.49485 -1.01489 0
M  V30 2850 H 265.993 4.09366 -0.762128 0
M  V30 2851 H 268.59 5.01186 1.86325 0
M  V30 2852 H 268.933 3.39075 2.41524 0
M  V30 2853 H 269.466 3.89796 0.79395 0
M  V30 2854 H 266.205 6.52221 -0.654834 0
M  V30 2855 H 265.725 5.9224 0.949282 0
M  V30 2856 H 267.404 6.43707 0.651939 0
M  V30 2857 N 267.536 -0.106894 1.57237 0
M  V30 2858 C 268.947 -0.662723 1.74542 0
M  V30 2859 C 269.298 -1.7971 0.787319 0
M  V30 2860 O 268.423 -2.16368 -0.0369636 0
M  V30 2861 C 269.018 -1.20896 3.16496 0
M  V30 2862 C 267.577 -1.71096 3.35266 0
M  V30 2863 C 266.724 -0.615642 2.7038 0
M  V30 2864 H 269.675 0.119106 1.58252 0
M  V30 2865 H 269.696 -2.07847 3.18716 0
M  V30 2866 H 269.208 -0.383122 3.86204 0
M  V30 2867 H 267.309 -2.56119 2.70618 0
M  V30 2868 H 267.422 -1.81208 4.43509 0
M  V30 2869 H 265.786 -1.05222 2.31949 0
M  V30 2870 H 266.569 0.199419 3.4272 0
M  V30 2871 N 269.014 -1.53014 -0.377408 0
M  V30 2872 C 270.26 -1.68872 -1.12294 0
M  V30 2873 C 270.593 -0.433224 -1.89306 0
M  V30 2874 O 269.868 0.569258 -1.85983 0
M  V30 2875 C 270.151 -2.93115 -2.09179 0
M  V30 2876 C 270.004 -4.28794 -1.35853 0
M  V30 2877 C 271.323 -3.12928 -3.09458 0
M  V30 2878 H 268.442 -0.614518 -0.406862 0
M  V30 2879 H 271.084 -1.85633 -0.40503 0
M  V30 2880 H 269.234 -2.78956 -2.70399 0
M  V30 2881 H 270.906 -4.54742 -0.775082 0
M  V30 2882 H 269.149 -4.28744 -0.660364 0
M  V30 2883 H 269.82 -5.11837 -2.06706 0
M  V30 2884 H 272.296 -3.26194 -2.58334 0
M  V30 2885 H 271.172 -4.01316 -3.74482 0
M  V30 2886 H 271.433 -2.27669 -3.78971 0
M  V30 2887 N 270.492 0.636531 -1.44174 0
M  V30 2888 C 271.442 1.74233 -1.47061 0
M  V30 2889 C 272.426 1.57331 -0.337034 0
M  V30 2890 O 273.618 1.67159 -0.581973 0
M  V30 2891 C 270.747 3.12897 -1.41246 0
M  V30 2892 C 269.833 3.35288 -2.59698 0
M  V30 2893 N 270.224 3.2807 -3.84972 0
M  V30 2894 C 268.522 3.66065 -2.54778 0
M  V30 2895 C 269.223 3.51001 -4.63867 0
M  V30 2896 N 268.199 3.73616 -3.94857 0
M  V30 2897 H 272.001 1.67103 -2.41773 0
M  V30 2898 H 269.515 0.838806 -1.3906 0
M  V30 2899 H 271.512 3.92189 -1.41398 0
M  V30 2900 H 270.172 3.21197 -0.47569 0
M  V30 2901 H 271.183 3.07109 -4.17019 0
M  V30 2902 H 267.86 3.81379 -1.6987 0
M  V30 2903 H 269.25 3.51059 -5.72894 0
M  V30 2904 N 271.97 1.30982 0.876444 0
M  V30 2905 C 273.198 1.23242 1.6619 0
M  V30 2906 C 273.613 -0.203345 1.87702 0
M  V30 2907 O 272.97 -1.13317 1.43057 0
M  V30 2908 C 273.021 1.96623 3.03351 0
M  V30 2909 O 272.742 3.34594 2.82804 0
M  V30 2910 C 274.243 1.95644 3.97792 0
M  V30 2911 H 271.463 0.426126 0.518322 0
M  V30 2912 H 274.007 1.7275 1.09442 0
M  V30 2913 H 272.162 1.50892 3.56806 0
M  V30 2914 H 272.576 3.71873 3.69879 0
M  V30 2915 H 274.05 2.51511 4.91372 0
M  V30 2916 H 274.527 0.937395 4.2908 0
M  V30 2917 H 275.133 2.41225 3.50272 0
M  V30 2918 N 273.449 -1.08991 1.13837 0
M  V30 2919 C 274.379 -2.17771 0.842507 0
M  V30 2920 C 275.36 -1.6892 -0.20001 0
M  V30 2921 O 276.545 -1.94113 -0.0579731 0
M  V30 2922 C 273.675 -3.4589 0.312644 0
M  V30 2923 C 272.629 -4.08099 1.28992 0
M  V30 2924 C 271.955 -5.31098 0.619623 0
M  V30 2925 C 273.255 -4.50077 2.65005 0
M  V30 2926 H 274.949 -2.42777 1.75213 0
M  V30 2927 H 272.495 -1.16682 0.843875 0
M  V30 2928 H 274.448 -4.21297 0.0933043 0
M  V30 2929 H 273.172 -3.20419 -0.632382 0
M  V30 2930 H 271.831 -3.34717 1.49533 0
M  V30 2931 H 271.479 -5.0191 -0.33102 0
M  V30 2932 H 271.179 -5.73674 1.27167 0
M  V30 2933 H 272.703 -6.09224 0.409669 0
M  V30 2934 H 274.117 -5.16688 2.48407 0
M  V30 2935 H 272.514 -5.03553 3.26427 0
M  V30 2936 H 273.584 -3.62257 3.22332 0
M  V30 2937 N 274.927 -0.932562 -1.27047 0
M  V30 2938 C 275.837 -0.441219 -2.30414 0
M  V30 2939 C 276.853 0.480525 -1.67233 0
M  V30 2940 O 278.029 0.362151 -1.98117 0
M  V30 2941 C 275.094 0.293651 -3.45454 0
M  V30 2942 C 274.155 -0.663601 -4.2414 0
M  V30 2943 C 273.388 0.0362932 -5.33688 0
M  V30 2944 O 273.611 1.2548 -5.56427 0
M  V30 2945 O 272.545 -0.638015 -5.98509 0
M  V30 2946 H 276.371 -1.29962 -2.74488 0
M  V30 2947 H 273.956 -0.6981 -1.32087 0
M  V30 2948 H 275.838 0.707951 -4.15411 0
M  V30 2949 H 274.513 1.12758 -3.03426 0
M  V30 2950 H 273.42 -1.12768 -3.56699 0
M  V30 2951 H 274.753 -1.46489 -4.69896 0
M  V30 2952 N 276.405 1.4127 -0.698611 0
M  V30 2953 C 277.821 1.55241 -0.370462 0
M  V30 2954 C 278.021 1.67351 1.12231 0
M  V30 2955 O 277.077 1.65363 1.90818 0
M  V30 2956 C 278.39 2.78997 -1.12165 0
M  V30 2957 C 279.938 2.92797 -1.1063 0
M  V30 2958 C 280.413 4.19445 -1.8393 0
M  V30 2959 N 281.904 4.26409 -1.80914 0
M  V30 2960 C 282.639 5.23271 -2.34467 0
M  V30 2961 N 282.135 6.26145 -2.96504 0
M  V30 2962 N 283.928 5.15232 -2.24706 0
M  V30 2963 H 276.079 1.31654 -1.66676 0
M  V30 2964 H 278.342 0.635393 -0.703548 0
M  V30 2965 H 278.048 2.76268 -2.17644 0
M  V30 2966 H 277.922 3.70606 -0.702209 0
M  V30 2967 H 280.309 2.95039 -0.0597713 0
M  V30 2968 H 280.39 2.02353 -1.56483 0
M  V30 2969 H 280.034 4.17964 -2.88563 0
M  V30 2970 H 279.964 5.08866 -1.35509 0
M  V30 2971 H 282.455 3.527 -1.35687 0
M  V30 2972 H 282.768 6.96451 -3.34927 0
M  V30 2973 H 281.113 6.26638 -3.00583 0
M  V30 2974 H 284.304 4.33789 -1.7591 0
M  V30 2975 H 284.477 5.90552 -2.66745 0
M  V30 2976 N 277.883 0.443576 1.51229 0
M  V30 2977 C 278.846 -0.353132 2.26463 0
M  V30 2978 C 279.846 -0.944338 1.3015 0
M  V30 2979 O 281.036 -0.817813 1.5381 0
M  V30 2980 C 278.168 -1.50023 3.06114 0
M  V30 2981 H 279.361 0.3063 2.98332 0
M  V30 2982 H 276.914 0.196902 1.55055 0
M  V30 2983 H 277.649 -2.19553 2.38677 0
M  V30 2984 H 277.434 -1.08241 3.76864 0
M  V30 2985 H 278.924 -2.06296 3.63087 0
M  V30 2986 N 279.361 -1.56624 0.175154 0
M  V30 2987 C 280.294 -2.14 -0.792412 0
M  V30 2988 C 281.272 -1.07114 -1.22333 0
M  V30 2989 O 282.456 -1.35112 -1.31442 0
M  V30 2990 C 279.583 -2.68268 -2.0676 0
M  V30 2991 C 278.629 -3.87562 -1.7804 0
M  V30 2992 S 279.462 -5.27074 -0.946222 0
M  V30 2993 C 280.618 -5.8475 -2.23199 0
M  V30 2994 H 280.851 -2.95736 -0.304588 0
M  V30 2995 H 278.384 -1.54349 -0.0395705 0
M  V30 2996 H 280.342 -3.00182 -2.80002 0
M  V30 2997 H 279.003 -1.86612 -2.52656 0
M  V30 2998 H 278.196 -4.23874 -2.72666 0
M  V30 2999 H 277.798 -3.56555 -1.12891 0
M  V30 3000 H 280.09 -5.97898 -3.18629 0
M  V30 3001 H 281.033 -6.81756 -1.91349 0
M  V30 3002 H 281.441 -5.13198 -2.35134 0
M  V30 3003 N 280.839 0.0985539 -1.57292 0
M  V30 3004 C 282.255 0.45267 -1.53046 0
M  V30 3005 C 282.455 1.80713 -0.891342 0
M  V30 3006 O 281.511 2.4785 -0.482375 0
M  V30 3007 C 282.824 0.418341 -2.97776 0
M  V30 3008 C 284.372 0.500443 -3.08973 0
M  V30 3009 C 284.847 0.496297 -4.55303 0
M  V30 3010 N 286.338 0.557151 -4.59837 0
M  V30 3011 C 287.073 0.575726 -5.70502 0
M  V30 3012 N 286.569 0.550714 -6.90608 0
M  V30 3013 N 288.362 0.620277 -5.58667 0
M  V30 3014 H 280.513 -0.788673 -1.97215 0
M  V30 3015 H 282.776 -0.293188 -0.901524 0
M  V30 3016 H 282.482 -0.509659 -3.47988 0
M  V30 3017 H 282.356 1.2386 -3.56284 0
M  V30 3018 H 284.743 1.41886 -2.58751 0
M  V30 3019 H 284.824 -0.347894 -2.53423 0
M  V30 3020 H 284.468 -0.418162 -5.06176 0
M  V30 3021 H 284.398 1.3618 -5.08687 0
M  V30 3022 H 286.889 0.581816 -3.73394 0
M  V30 3023 H 287.202 0.568075 -7.70709 0
M  V30 3024 H 285.547 0.517816 -6.93068 0
M  V30 3025 H 288.738 0.637322 -4.63741 0
M  V30 3026 H 288.911 0.631283 -6.44918 0
M  V30 3027 N 282.317 1.53212 0.369288 0
M  V30 3028 C 283.227 1.82342 1.47609 0
M  V30 3029 C 284.243 0.711532 1.58787 0
M  V30 3030 O 285.419 1.0012 1.74751 0
M  V30 3031 C 282.484 2.00393 2.8292 0
M  V30 3032 C 281.545 3.24297 2.81301 0
M  V30 3033 C 280.778 3.41478 4.10157 0
M  V30 3034 O 281.001 2.63033 5.06132 0
M  V30 3035 O 279.935 4.34817 4.16194 0
M  V30 3036 H 283.761 2.76366 1.25918 0
M  V30 3037 H 281.346 1.38547 0.559034 0
M  V30 3038 H 283.228 2.13859 3.63101 0
M  V30 3039 H 281.903 1.09559 3.04596 0
M  V30 3040 H 280.81 3.16257 1.99831 0
M  V30 3041 H 282.143 4.15041 2.64578 0
M  V30 3042 N 283.795 -0.628877 1.44509 0
M  V30 3043 C 285.025 -1.41349 1.50678 0
M  V30 3044 C 285.433 -1.88745 0.131075 0
M  V30 3045 O 284.776 -1.61592 -0.87371 0
M  V30 3046 C 284.838 -2.66608 2.41165 0
M  V30 3047 C 284.502 -2.40993 3.88293 0
M  V30 3048 C 285.499 -2.0268 4.78766 0
M  V30 3049 C 283.184 -2.54563 4.33016 0
M  V30 3050 C 285.178 -1.78269 6.11963 0
M  V30 3051 C 282.865 -2.29766 5.6626 0
M  V30 3052 C 283.863 -1.91678 6.55552 0
M  V30 3053 O 283.551 -1.67158 7.86329 0
M  V30 3054 H 283.283 -0.439851 0.51333 0
M  V30 3055 H 285.837 -0.776084 1.90174 0
M  V30 3056 H 284.067 -3.32994 1.96601 0
M  V30 3057 H 285.756 -3.28615 2.38259 0
M  V30 3058 H 286.522 -1.91751 4.45485 0
M  V30 3059 H 282.401 -2.83179 3.63773 0
M  V30 3060 H 285.945 -1.48465 6.81619 0
M  V30 3061 H 281.842 -2.40306 5.99102 0
M  V30 3062 H 282.61 -1.81386 7.98149 0
M  V30 3063 N 285.273 -1.31445 -0.869486 0
M  V30 3064 C 286.503 -1.23942 -1.65294 0
M  V30 3065 C 286.911 0.197561 -1.88166 0
M  V30 3066 O 286.254 1.14019 -1.44033 0
M  V30 3067 C 286.316 -1.91385 -3.04322 0
M  V30 3068 C 285.98 -3.40726 -3.04557 0
M  V30 3069 C 286.977 -4.36464 -2.82481 0
M  V30 3070 C 284.662 -3.82425 -3.25663 0
M  V30 3071 C 286.656 -5.71876 -2.8149 0
M  V30 3072 C 284.343 -5.1795 -3.243 0
M  V30 3073 C 285.341 -6.12486 -3.02241 0
M  V30 3074 O 285.029 -7.45534 -3.00724 0
M  V30 3075 H 284.761 -0.429459 -0.522054 0
M  V30 3076 H 287.315 -1.73873 -1.0935 0
M  V30 3077 H 285.545 -1.36004 -3.61994 0
M  V30 3078 H 287.234 -1.77791 -3.64891 0
M  V30 3079 H 288 -4.05576 -2.65956 0
M  V30 3080 H 283.879 -3.09274 -3.41863 0
M  V30 3081 H 287.423 -6.45638 -2.64191 0
M  V30 3082 H 283.32 -5.48473 -3.40365 0
M  V30 3083 H 284.088 -7.54713 -3.16782 0
M  V30 3084 N 286.751 1.08385 -1.14413 0
M  V30 3085 C 287.714 2.13486 -0.834048 0
M  V30 3086 C 288.714 1.59988 0.161418 0
M  V30 3087 O 289.904 1.74071 -0.0669575 0
M  V30 3088 C 287.036 3.4003 -0.243354 0
M  V30 3089 H 288.229 2.42425 -1.7655 0
M  V30 3090 H 285.782 1.24101 -0.950189 0
M  V30 3091 H 286.517 3.16726 0.696807 0
M  V30 3092 H 286.302 3.80157 -0.960367 0
M  V30 3093 H 287.792 4.17577 -0.0436242 0
M  V30 3094 N 288.23 0.939286 1.26551 0
M  V30 3095 C 289.178 0.43815 2.28436 0
M  V30 3096 C 290.172 -0.483587 1.62351 0
M  V30 3097 O 291.378 -0.362009 1.76322 0
M  V30 3098 H 287.753 0.123149 0.741848 0
M  V30 3099 H 289.724 1.31002 2.68106 0
M  V30 3100 C 288.473 -0.283052 3.46546 0
M  V30 3101 H 287.796 0.417043 3.97619 0
M  V30 3102 H 289.236 -0.597948 4.19763 0
M  V30 3103 C 287.695 -1.50018 3.01656 0
M  V30 3104 O 288.225 -2.59855 3.0633 0
M  V30 3105 N 286.431 -1.35608 2.57019 0
M  V30 3106 H 285.978 -0.46244 2.53415 0
M  V30 3107 H 285.936 -2.17165 2.27347 0
M  V30 3108 N 289.708 -1.40897 0.706093 0
M  V30 3109 C 290.957 -2.00284 0.238574 0
M  V30 3110 C 291.27 -1.56604 -1.17194 0
M  V30 3111 O 292.476 -2.08624 -1.73748 0
M  V30 3112 C 290.932 -3.57934 0.375623 0
M  V30 3113 C 290.54 -4.10591 1.79217 0
M  V30 3114 C 292.284 -4.24488 -0.0315857 0
M  V30 3115 C 290.191 -5.60712 1.88032 0
M  V30 3116 H 289.121 -0.749144 0.0854398 0
M  V30 3117 H 291.772 -1.61251 0.875813 0
M  V30 3118 H 290.154 -3.94622 -0.330042 0
M  V30 3119 H 291.328 -3.85301 2.52745 0
M  V30 3120 H 289.643 -3.56601 2.15 0
M  V30 3121 H 292.24 -5.34698 0.0136842 0
M  V30 3122 H 292.583 -4.02261 -1.072 0
M  V30 3123 H 293.116 -3.92873 0.624181 0
M  V30 3124 H 289.855 -5.87781 2.90161 0
M  V30 3125 H 289.375 -5.87896 1.18903 0
M  V30 3126 H 291.054 -6.25658 1.64805 0
M  V30 3127 N 291.186 -0.45159 -1.50991 0
M  V30 3128 C 292.432 0.110237 -2.025 0
M  V30 3129 C 292.765 1.41109 -1.33424 0
M  V30 3130 O 292.04 1.89135 -0.453659 0
M  V30 3131 C 292.323 0.314271 -3.58726 0
M  V30 3132 C 292.176 -1.00623 -4.38401 0
M  V30 3133 C 293.495 1.07767 -4.26702 0
M  V30 3134 H 290.614 0.0385897 -0.735989 0
M  V30 3135 H 293.256 -0.593374 -1.80497 0
M  V30 3136 H 291.406 0.913601 -3.77605 0
M  V30 3137 H 293.078 -1.64064 -4.31139 0
M  V30 3138 H 291.321 -1.6075 -4.02917 0
M  V30 3139 H 291.992 -0.817341 -5.45915 0
M  V30 3140 H 294.468 0.56986 -4.12179 0
M  V30 3141 H 293.344 1.18921 -5.35863 0
M  V30 3142 H 293.605 2.10939 -3.88532 0
M  V30 3143 N 292.664 1.56529 -0.183458 0
M  V30 3144 C 293.612 2.19873 0.758845 0
M  V30 3145 C 294.606 1.16638 1.22849 0
M  V30 3146 O 295.812 1.3481 1.19274 0
M  V30 3147 H 292.187 0.7045 0.263029 0
M  V30 3148 H 294.158 2.97724 0.200755 0
M  V30 3149 C 292.907 2.86314 1.9728 0
M  V30 3150 H 292.23 3.65487 1.62047 0
M  V30 3151 H 293.67 3.3409 2.61075 0
M  V30 3152 C 292.129 1.86729 2.80418 0
M  V30 3153 O 292.659 1.36031 3.77966 0
M  V30 3154 N 290.865 1.55216 2.45675 0
M  V30 3155 H 290.412 1.96636 1.66409 0
M  V30 3156 H 290.37 0.888388 3.01588 0
M  V30 3157 N 294.142 -0.090211 1.57342 0
M  V30 3158 C 295.553 -0.644173 1.75235 0
M  V30 3159 C 295.904 -1.78865 0.806335 0
M  V30 3160 O 295.029 -2.16395 -0.0140128 0
M  V30 3161 C 295.624 -1.17532 3.1776 0
M  V30 3162 C 294.183 -1.67531 3.37061 0
M  V30 3163 C 293.33 -0.58693 2.71017 0
M  V30 3164 H 296.281 0.135884 1.58117 0
M  V30 3165 H 296.302 -2.04455 3.20902 0
M  V30 3166 H 295.814 -0.342138 3.86589 0
M  V30 3167 H 293.915 -2.53234 2.73319 0
M  V30 3168 H 294.028 -1.76493 4.45406 0
M  V30 3169 H 292.392 -1.02756 2.33052 0
M  V30 3170 H 293.175 0.235758 3.4249 0
M  V30 3171 N 295.62 -1.53406 -0.361157 0
M  V30 3172 C 296.85 -1.73465 -1.1222 0
M  V30 3173 C 297.258 -0.465486 -1.83384 0
M  V30 3174 O 296.601 0.571611 -1.7458 0
M  V30 3175 C 296.663 -2.84834 -2.19339 0
M  V30 3176 C 296.327 -4.25038 -1.67903 0
M  V30 3177 C 297.324 -5.07231 -1.14074 0
M  V30 3178 C 295.009 -4.71464 -1.73282 0
M  V30 3179 C 297.003 -6.33942 -0.663068 0
M  V30 3180 C 294.69 -5.98153 -1.25127 0
M  V30 3181 C 295.688 -6.79223 -0.717296 0
M  V30 3182 O 295.376 -8.03533 -0.242865 0
M  V30 3183 H 295.108 -0.583526 -0.341283 0
M  V30 3184 H 297.662 -2.00964 -0.424591 0
M  V30 3185 H 295.892 -2.5282 -2.92607 0
M  V30 3186 H 297.581 -2.9303 -2.80871 0
M  V30 3187 H 298.347 -4.72534 -1.09254 0
M  V30 3188 H 294.226 -4.08432 -2.13786 0
M  V30 3189 H 297.77 -6.97167 -0.245612 0
M  V30 3190 H 293.667 -6.32347 -1.29642 0
M  V30 3191 H 294.435 -8.177 -0.361786 0
M  V30 3192 N 297.098 0.621204 -1.44841 0
M  V30 3193 C 298.061 1.71459 -1.521 0
M  V30 3194 C 299.061 1.55696 -0.401933 0
M  V30 3195 O 300.251 1.61011 -0.664925 0
M  V30 3196 C 297.383 3.10624 -1.40447 0
M  V30 3197 H 298.576 1.66394 -2.49506 0
M  V30 3198 H 296.129 0.835745 -1.3208 0
M  V30 3199 H 296.864 3.21277 -0.441737 0
M  V30 3200 H 296.649 3.23473 -2.21602 0
M  V30 3201 H 298.139 3.90293 -1.4853 0
M  V30 3202 N 298.576 1.31904 0.862503 0
M  V30 3203 C 299.987 1.19803 1.43193 0
M  V30 3204 C 300.338 -0.192567 1.95253 0
M  V30 3205 O 299.463 -1.09081 1.86896 0
M  V30 3206 C 300.058 2.16883 2.60283 0
M  V30 3207 C 298.617 2.08692 3.13248 0
M  V30 3208 C 297.764 2.05691 1.85975 0
M  V30 3209 H 300.715 1.43846 0.670365 0
M  V30 3210 H 300.736 1.76278 3.37204 0
M  V30 3211 H 300.248 3.18083 2.22363 0
M  V30 3212 H 298.349 1.10713 3.55771 0
M  V30 3213 H 298.462 2.9815 3.75025 0
M  V30 3214 H 296.826 1.50814 2.05249 0
M  V30 3215 H 297.609 3.08659 1.50282 0
M  V30 3216 N 300.054 -1.07777 1.14986 0
M  V30 3217 C 300.986 -2.14769 0.800436 0
M  V30 3218 C 301.999 -1.61739 -0.185595 0
M  V30 3219 O 303.188 -1.78462 0.0370358 0
M  V30 3220 C 300.288 -3.38481 0.168533 0
M  V30 3221 C 299.461 -4.20876 1.1909 0
M  V30 3222 C 298.52 -5.22976 0.581575 0
M  V30 3223 O 297.546 -5.55388 1.24633 0
M  V30 3224 N 298.748 -5.76976 -0.638706 0
M  V30 3225 H 301.513 -2.45348 1.72118 0
M  V30 3226 H 299.074 -1.23645 1.04515 0
M  V30 3227 H 301.066 -4.03916 -0.251764 0
M  V30 3228 H 299.636 -3.05651 -0.655467 0
M  V30 3229 H 298.856 -3.51322 1.78791 0
M  V30 3230 H 300.144 -4.7274 1.88133 0
M  V30 3231 H 299.542 -5.52886 -1.19723 0
M  V30 3232 H 298.099 -6.44061 -1.00142 0
M  V30 3233 N 301.532 -0.945985 -1.26051 0
M  V30 3234 C 302.76 -0.613025 -1.9761 0
M  V30 3235 C 303.175 0.813035 -1.70397 0
M  V30 3236 O 302.532 1.54274 -0.974979 0
M  V30 3237 C 302.583 -0.85159 -3.51326 0
M  V30 3238 O 302.304 -2.22157 -3.77595 0
M  V30 3239 C 303.805 -0.529831 -4.40122 0
M  V30 3240 H 301.025 -0.230593 -0.630133 0
M  V30 3241 H 303.569 -1.268 -1.60443 0
M  V30 3242 H 301.724 -0.243151 -3.86636 0
M  V30 3243 H 302.138 -2.2852 -4.721 0
M  V30 3244 H 303.612 -0.747348 -5.46917 0
M  V30 3245 H 304.089 0.535341 -4.35925 0
M  V30 3246 H 304.695 -1.11721 -4.10364 0
M  V30 3247 N 303.011 1.40521 -0.713556 0
M  V30 3248 C 303.941 2.33381 -0.0743864 0
M  V30 3249 C 304.922 1.52784 0.747735 0
M  V30 3250 O 306.107 1.81258 0.697071 0
M  V30 3251 C 303.237 3.36748 0.849598 0
M  V30 3252 C 302.191 4.27793 0.133247 0
M  V30 3253 C 301.517 5.21679 1.17281 0
M  V30 3254 C 302.817 5.12415 -1.01134 0
M  V30 3255 H 304.511 2.87081 -0.850007 0
M  V30 3256 H 302.057 1.38034 -0.410201 0
M  V30 3257 H 304.01 4.00648 1.30612 0
M  V30 3258 H 302.734 2.81439 1.65709 0
M  V30 3259 H 301.393 3.65342 -0.303426 0
M  V30 3260 H 301.041 4.62677 1.9733 0
M  V30 3261 H 300.741 5.83435 0.698397 0
M  V30 3262 H 302.265 5.88456 1.62947 0
M  V30 3263 H 303.679 5.69781 -0.634274 0
M  V30 3264 H 302.076 5.83203 -1.41399 0
M  V30 3265 H 303.146 4.48514 -1.84292 0
M  V30 3266 N 304.489 0.459591 1.5075 0
M  V30 3267 C 305.436 -0.340524 2.28274 0
M  V30 3268 C 306.406 -0.997371 1.32822 0
M  V30 3269 O 307.591 -1.01202 1.61749 0
M  V30 3270 C 304.731 -1.42317 3.14388 0
M  V30 3271 C 303.844 -0.782251 4.24859 0
M  V30 3272 C 302.979 -1.84182 4.98247 0
M  V30 3273 C 302.018 -1.18053 6.00608 0
M  V30 3274 N 301.155 -2.18244 6.67319 0
M  V30 3275 H 305.995 0.326899 2.96202 0
M  V30 3276 H 303.532 0.173057 1.46078 0
M  V30 3277 H 305.49 -2.06241 3.62658 0
M  V30 3278 H 304.12 -2.05992 2.4853 0
M  V30 3279 H 303.172 -0.0307404 3.80388 0
M  V30 3280 H 304.484 -0.259663 4.98124 0
M  V30 3281 H 303.638 -2.55714 5.50177 0
M  V30 3282 H 302.377 -2.39819 4.24662 0
M  V30 3283 H 301.382 -0.450776 5.47949 0
M  V30 3284 H 302.607 -0.631202 6.7616 0
M  V30 3285 H 300.553 -2.72919 5.96533 0
M  V30 3286 H 300.47 -1.70938 7.36421 0
M  V30 3287 H 301.738 -2.89191 7.23871 0
M  V30 3288 N 305.967 -1.56429 0.191757 0
M  V30 3289 C 306.93 -2.17707 -0.716688 0
M  V30 3290 C 307.93 -1.13061 -1.14341 0
M  V30 3291 O 309.12 -1.38464 -1.05704 0
M  V30 3292 C 306.252 -2.77644 -1.97804 0
M  V30 3293 H 307.445 -2.99342 -0.1829 0
M  V30 3294 H 304.998 -1.56193 -0.0578566 0
M  V30 3295 H 305.733 -1.99799 -2.55443 0
M  V30 3296 H 305.518 -3.54246 -1.68083 0
M  V30 3297 H 307.008 -3.24708 -2.62592 0
M  V30 3298 N 307.445 0.0818655 -1.57387 0
M  V30 3299 C 308.694 0.781681 -1.85937 0
M  V30 3300 C 309.007 1.79246 -0.782957 0
M  V30 3301 O 310.213 2.54112 -0.955987 0
M  V30 3302 C 308.669 1.44109 -3.29789 0
M  V30 3303 C 308.277 0.469396 -4.45534 0
M  V30 3304 C 310.021 2.12386 -3.67549 0
M  V30 3305 C 307.928 1.13415 -5.80423 0
M  V30 3306 H 306.858 0.295682 -0.693605 0
M  V30 3307 H 309.509 0.0348051 -1.83467 0
M  V30 3308 H 307.891 2.23588 -3.2684 0
M  V30 3309 H 309.065 -0.294856 -4.59856 0
M  V30 3310 H 307.38 -0.108383 -4.16259 0
M  V30 3311 H 309.977 2.62878 -4.65617 0
M  V30 3312 H 310.32 2.91877 -2.96839 0
M  V30 3313 H 310.853 1.39751 -3.72444 0
M  V30 3314 H 307.592 0.379771 -6.54399 0
M  V30 3315 H 307.112 1.8695 -5.69921 0
M  V30 3316 H 308.791 1.65686 -6.25426 0
M  V30 3317 N 308.923 1.53595 0.353017 0
M  V30 3318 C 309.833 1.83897 1.45667 0
M  V30 3319 C 310.849 0.728334 1.58023 0
M  V30 3320 O 312.025 1.01968 1.73679 0
M  V30 3321 C 309.09 2.03383 2.80778 0
M  V30 3322 C 308.151 3.27262 2.77845 0
M  V30 3323 C 307.384 3.45809 4.06512 0
M  V30 3324 O 307.607 2.68387 5.03314 0
M  V30 3325 O 306.541 4.39207 4.11559 0
M  V30 3326 H 310.367 2.77686 1.2298 0
M  V30 3327 H 307.952 1.39132 0.544308 0
M  V30 3328 H 309.834 2.17698 3.60812 0
M  V30 3329 H 308.509 1.12783 3.03417 0
M  V30 3330 H 307.416 3.18359 1.96465 0
M  V30 3331 H 308.749 4.17824 2.60161 0
M  V30 3332 N 310.401 -0.613514 1.45168 0
M  V30 3333 C 311.629 -1.39946 1.5239 0
M  V30 3334 C 312.044 -1.88167 0.154531 0
M  V30 3335 O 311.401 -1.61872 -0.842843 0
M  V30 3336 C 311.452 -2.60795 2.50337 0
M  V30 3337 O 311.173 -2.1458 3.81952 0
M  V30 3338 C 312.674 -3.53723 2.67198 0
M  V30 3339 H 309.894 -0.428593 0.516284 0
M  V30 3340 H 312.438 -0.748753 1.903 0
M  V30 3341 H 310.593 -3.21919 2.15515 0
M  V30 3342 H 311.007 -2.93055 4.34993 0
M  V30 3343 H 312.481 -4.35079 3.39721 0
M  V30 3344 H 312.958 -4.0368 1.73029 0
M  V30 3345 H 313.564 -2.98456 3.02992 0
M  V30 3346 N 311.879 -1.3236 -0.855495 0
M  V30 3347 C 312.809 -1.23833 -1.97958 0
M  V30 3348 C 313.79 -0.122361 -1.69659 0
M  V30 3349 O 314.975 -0.30939 -1.9172 0
M  V30 3350 C 312.105 -0.959772 -3.33775 0
M  V30 3351 C 311.059 -2.03689 -3.76424 0
M  V30 3352 C 310.385 -1.61075 -5.09862 0
M  V30 3353 C 311.685 -3.4518 -3.9198 0
M  V30 3354 H 313.379 -2.1788 -2.0535 0
M  V30 3355 H 310.925 -1.04891 -0.986605 0
M  V30 3356 H 312.878 -0.886678 -4.11966 0
M  V30 3357 H 311.602 0.0163404 -3.26596 0
M  V30 3358 H 310.261 -2.10012 -3.00484 0
M  V30 3359 H 309.909 -0.622107 -4.99138 0
M  V30 3360 H 309.609 -2.33143 -5.39368 0
M  V30 3361 H 311.133 -1.55201 -5.90546 0
M  V30 3362 H 312.547 -3.4145 -4.60526 0
M  V30 3363 H 310.944 -4.1559 -4.32903 0
M  V30 3364 H 312.014 -3.84903 -2.94919 0
M  V30 3365 N 313.357 1.07166 -1.15556 0
M  V30 3366 C 314.603 1.80065 -0.932984 0
M  V30 3367 C 314.936 1.86586 0.53845 0
M  V30 3368 O 314.211 1.35098 1.39924 0
M  V30 3369 C 314.494 3.25022 -1.55025 0
M  V30 3370 C 314.347 3.26634 -3.09242 0
M  V30 3371 C 315.666 4.22341 -1.2376 0
M  V30 3372 H 312.785 0.653697 -0.340366 0
M  V30 3373 H 315.427 1.25389 -1.4275 0
M  V30 3374 H 313.577 3.71712 -1.12972 0
M  V30 3375 H 315.249 2.88173 -3.60214 0
M  V30 3376 H 313.492 2.65539 -3.43033 0
M  V30 3377 H 314.163 4.28854 -3.47546 0
M  V30 3378 H 316.639 3.8405 -1.60139 0
M  V30 3379 H 315.515 5.22053 -1.69564 0
M  V30 3380 H 315.776 4.41828 -0.154938 0
M  V30 3381 N 314.835 0.952656 1.25548 0
M  V30 3382 C 316.083 0.605176 1.92826 0
M  V30 3383 C 316.404 -0.860261 1.74999 0
M  V30 3384 O 315.674 -1.6125 1.11244 0
M  V30 3385 H 314.254 0.220832 0.713612 0
M  V30 3386 H 316.916 1.21047 1.52754 0
M  V30 3387 H 316.012 0.832798 3.00784 0
M  V30 3388 N 316.313 -1.40141 0.720998 0
M  V30 3389 C 317.276 -2.29058 0.0805834 0
M  V30 3390 C 318.276 -1.45632 -0.681758 0
M  V30 3391 O 319.466 -1.6648 -0.512856 0
M  V30 3392 C 316.598 -3.28925 -0.895593 0
M  V30 3393 H 317.791 -2.87191 0.863793 0
M  V30 3394 H 315.344 -1.48553 0.485975 0
M  V30 3395 H 316.079 -2.75822 -1.70566 0
M  V30 3396 H 315.864 -3.90519 -0.351766 0
M  V30 3397 H 317.354 -3.95494 -1.34069 0
M  V30 3398 N 317.792 -0.46758 -1.50504 0
M  V30 3399 C 319.04 0.0884469 -2.01906 0
M  V30 3400 C 319.361 1.40532 -1.35188 0
M  V30 3401 O 318.631 1.89515 -0.496079 0
M  V30 3402 H 317.211 0.0356765 -0.746148 0
M  V30 3403 H 319.873 -0.6172 -1.84869 0
M  V30 3404 H 318.969 0.2425 -3.11156 0
M  V30 3405 N 319.27 1.56325 -0.20005 0
M  V30 3406 C 320.516 1.98012 0.438059 0
M  V30 3407 C 320.849 1.08702 1.60927 0
M  V30 3408 O 320.124 0.140064 1.93995 0
M  V30 3409 C 320.407 3.48841 0.893419 0
M  V30 3410 C 320.26 4.48928 -0.279947 0
M  V30 3411 C 321.579 4.03498 1.75719 0
M  V30 3412 H 318.698 0.719918 0.157757 0
M  V30 3413 H 321.34 1.87743 -0.291968 0
M  V30 3414 H 319.49 3.57723 1.51547 0
M  V30 3415 H 321.162 4.52079 -0.91772 0
M  V30 3416 H 319.405 4.23694 -0.930919 0
M  V30 3417 H 320.076 5.5194 0.0812601 0
M  V30 3418 H 322.552 3.97427 1.23253 0
M  V30 3419 H 321.428 5.09393 2.04476 0
M  V30 3420 H 321.689 3.4906 2.71311 0
M  V30 3421 N 320.748 -0.0735177 1.57428 0
M  V30 3422 C 321.711 -1.07192 2.02589 0
M  V30 3423 C 322.711 -1.31695 0.922661 0
M  V30 3424 O 323.901 -1.27445 1.18758 0
M  V30 3425 C 321.033 -2.41599 2.40506 0
M  V30 3426 H 322.226 -0.682727 2.92025 0
M  V30 3427 H 319.779 -0.319193 1.53006 0
M  V30 3428 H 320.514 -2.85354 1.5409 0
M  V30 3429 H 320.299 -2.25156 3.21009 0
M  V30 3430 H 321.789 -3.13367 2.76027 0
M  V30 3431 N 322.226 -1.5378 -0.344866 0
M  V30 3432 C 323.637 -1.62428 -0.920552 0
M  V30 3433 C 323.988 -0.504747 -1.89596 0
M  V30 3434 O 323.113 0.365711 -2.13287 0
M  V30 3435 C 323.708 -2.94419 -1.67639 0
M  V30 3436 C 322.267 -3.05333 -2.20111 0
M  V30 3437 C 321.414 -2.57866 -1.01982 0
M  V30 3438 H 324.365 -1.58222 -0.123042 0
M  V30 3439 H 324.386 -2.83384 -2.53917 0
M  V30 3440 H 323.898 -3.7588 -0.966224 0
M  V30 3441 H 321.999 -2.28502 -2.94308 0
M  V30 3442 H 322.112 -4.10778 -2.46573 0
M  V30 3443 H 320.476 -2.13241 -1.39285 0
M  V30 3444 H 321.259 -3.41765 -0.324308 0
M  V30 3445 N 323.704 0.605807 -1.45491 0
M  V30 3446 C 324.614 1.74466 -1.56839 0
M  V30 3447 C 325.63 1.68006 -0.452772 0
M  V30 3448 O 326.806 1.8833 -0.713708 0
M  V30 3449 C 323.871 3.10931 -1.53371 0
M  V30 3450 C 322.932 3.28832 -2.75986 0
M  V30 3451 C 322.165 4.58787 -2.72673 0
M  V30 3452 O 322.388 5.4122 -1.80102 0
M  V30 3453 O 321.322 4.79438 -3.63899 0
M  V30 3454 H 325.148 1.67843 -2.53106 0
M  V30 3455 H 322.733 0.770108 -1.28022 0
M  V30 3456 H 324.615 3.92233 -1.54051 0
M  V30 3457 H 323.29 3.18042 -0.602572 0
M  V30 3458 H 322.197 2.47112 -2.80867 0
M  V30 3459 H 323.53 3.26599 -3.68231 0
M  V30 3460 N 325.182 1.32811 0.848464 0
M  V30 3461 C 326.429 1.23724 1.60308 0
M  V30 3462 C 326.757 -0.1994 1.93475 0
M  V30 3463 O 326.012 -1.15406 1.5805 0
M  V30 3464 C 326.311 2.04831 2.92881 0
M  V30 3465 C 325.977 3.54125 2.79117 0
M  V30 3466 C 324.639 3.94829 2.7507 0
M  V30 3467 C 326.991 4.49036 2.64606 0
M  V30 3468 C 324.319 5.28675 2.544 0
M  V30 3469 C 326.671 5.83033 2.4547 0
M  V30 3470 C 325.335 6.22931 2.39819 0
M  V30 3471 H 324.605 0.452737 0.586609 0
M  V30 3472 H 327.252 1.64301 0.983743 0
M  V30 3473 H 325.557 1.57001 3.58968 0
M  V30 3474 H 327.254 1.95164 3.50303 0
M  V30 3475 H 323.844 3.21801 2.83094 0
M  V30 3476 H 328.028 4.18505 2.66772 0
M  V30 3477 H 323.284 5.58637 2.48465 0
M  V30 3478 H 327.458 6.56186 2.33222 0
M  V30 3479 H 325.085 7.26584 2.23562 0
M  V30 3480 N 326.66 -1.06551 1.16123 0
M  V30 3481 C 327.909 -1.78687 0.935622 0
M  V30 3482 C 328.222 -1.88056 -0.538001 0
M  V30 3483 O 329.428 -2.56794 -0.88143 0
M  V30 3484 C 327.884 -3.21143 1.62466 0
M  V30 3485 C 327.492 -3.19949 3.13587 0
M  V30 3486 C 329.236 -3.9783 1.48092 0
M  V30 3487 C 327.143 -4.57108 3.75241 0
M  V30 3488 H 326.073 -0.669712 0.346412 0
M  V30 3489 H 328.724 -1.19534 1.39226 0
M  V30 3490 H 327.106 -3.80539 1.09572 0
M  V30 3491 H 328.28 -2.70151 3.73303 0
M  V30 3492 H 326.595 -2.5676 3.27816 0
M  V30 3493 H 329.192 -4.99217 1.91538 0
M  V30 3494 H 329.535 -4.14078 0.429507 0
M  V30 3495 H 330.068 -3.4495 1.98127 0
M  V30 3496 H 326.807 -4.46065 4.80319 0
M  V30 3497 H 326.327 -5.07111 3.20309 0
M  V30 3498 H 328.006 -5.26069 3.76644 0
M  V30 3499 N 328.138 -0.959301 -1.25041 0
M  V30 3500 C 329.378 -0.624343 -1.94631 0
M  V30 3501 C 329.742 0.82403 -1.73418 0
M  V30 3502 O 330.943 1.26881 -2.3697 0
M  V30 3503 C 329.214 -0.978805 -3.43736 0
M  V30 3504 S 330.773 -0.757127 -4.32219 0
M  V30 3505 H 327.591 -0.229327 -0.673001 0
M  V30 3506 H 330.193 -1.23447 -1.51595 0
M  V30 3507 H 328.897 -2.02997 -3.56679 0
M  V30 3508 H 328.428 -0.359117 -3.91757 0
M  V30 3509 H 330.443 0.369759 -4.9482 0
M  V30 3510 N 329.616 1.39756 -0.72842 0
M  V30 3511 C 331.027 1.83498 -0.344289 0
M  V30 3512 C 331.378 1.60868 1.12321 0
M  V30 3513 O 330.503 1.09634 1.86573 0
M  V30 3514 C 331.098 3.33114 -0.618112 0
M  V30 3515 C 329.657 3.753 -0.287549 0
M  V30 3516 C 328.804 2.62831 -0.884048 0
M  V30 3517 H 331.755 1.28842 -0.926578 0
M  V30 3518 H 331.776 3.80334 0.112349 0
M  V30 3519 H 331.288 3.49553 -1.68625 0
M  V30 3520 H 329.389 3.64451 0.775012 0
M  V30 3521 H 329.502 4.72945 -0.765512 0
M  V30 3522 H 327.866 2.52792 -0.311149 0
M  V30 3523 H 328.649 2.82078 -1.95671 0
M  V30 3524 N 331.094 0.475555 1.50254 0
M  V30 3525 C 332.371 -0.139685 1.95101 0
M  V30 3526 C 332.751 -1.56555 1.41611 0
M  V30 3527 O 332.099 -2.19956 0.618993 0
M  V30 3528 C 332.309 -0.0784298 3.48912 0
M  V30 3529 C 333.657 -0.265095 4.23772 0
M  V30 3530 O 334.681 -0.154808 3.55863 0
M  V30 3531 O 333.54 -0.488327 5.44314 0
M  V30 3532 H 330.634 -0.109236 0.819754 0
M  V30 3533 H 333.18 0.536276 1.61004 0
M  V30 3534 H 331.952 0.916918 3.80405 0
M  V30 3535 H 331.575 -0.795655 3.89558 0
M  V30 3536 N 332.573 -1.56217 0.208337 0
M  V30 3537 C 333.523 -2.16324 -0.720281 0
M  V30 3538 C 334.507 -1.10775 -1.16695 0
M  V30 3539 O 335.699 -1.36801 -1.12314 0
M  V30 3540 C 332.828 -2.83644 -1.93393 0
M  V30 3541 C 331.914 -3.96401 -1.50755 0
M  V30 3542 N 332.305 -4.99546 -0.792937 0
M  V30 3543 C 330.603 -4.08246 -1.79585 0
M  V30 3544 C 331.304 -5.78828 -0.577364 0
M  V30 3545 N 330.28 -5.31723 -1.1301 0
M  V30 3546 H 334.082 -2.93432 -0.165725 0
M  V30 3547 H 331.596 -1.62397 0.00906463 0
M  V30 3548 H 333.593 -3.25107 -2.60981 0
M  V30 3549 H 332.253 -2.08027 -2.49308 0
M  V30 3550 H 333.264 -5.15967 -0.447004 0
M  V30 3551 H 329.941 -3.4377 -2.36915 0
M  V30 3552 H 331.331 -6.71899 -0.00952956 0
M  V30 3553 N 334.051 0.0651679 -1.57465 0
M  V30 3554 C 335.299 0.761555 -1.87202 0
M  V30 3555 C 335.62 1.77778 -0.801243 0
M  V30 3556 O 334.89 1.95166 0.16937 0
M  V30 3557 H 333.47 0.284251 -0.690804 0
M  V30 3558 H 336.132 0.0396827 -1.9486 0
M  V30 3559 H 335.228 1.27365 -2.84929 0
M  V30 3560 N 335.529 1.53961 0.336706 0
M  V30 3561 C 336.775 1.7179 1.07777 0
M  V30 3562 C 337.108 0.483263 1.88091 0
M  V30 3563 O 336.383 -0.519747 1.87427 0
M  V30 3564 C 336.666 2.98558 2.01334 0
M  V30 3565 C 336.519 4.32245 1.24437 0
M  V30 3566 C 337.838 3.21023 3.01052 0
M  V30 3567 H 334.957 0.625089 0.390426 0
M  V30 3568 H 337.599 1.86641 0.35567 0
M  V30 3569 H 335.749 2.86028 2.62908 0
M  V30 3570 H 337.421 4.56637 0.654243 0
M  V30 3571 H 335.664 4.30344 0.546458 0
M  V30 3572 H 336.335 5.17137 1.93063 0
M  V30 3573 H 338.811 3.32929 2.49595 0
M  V30 3574 H 337.687 4.11104 3.6371 0
M  V30 3575 H 337.948 2.37637 3.72802 0
M  V30 3576 N 337.007 -0.598083 1.45811 0
M  V30 3577 C 338.256 -1.35295 1.49594 0
M  V30 3578 C 338.569 -1.95057 0.145679 0
M  V30 3579 O 339.775 -2.71431 0.0612099 0
M  V30 3580 C 338.231 -2.45124 2.63519 0
M  V30 3581 C 337.839 -1.91732 4.04899 0
M  V30 3582 C 339.583 -3.2205 2.76558 0
M  V30 3583 C 337.49 -2.991 5.1019 0
M  V30 3584 H 336.42 -0.508552 0.556679 0
M  V30 3585 H 339.071 -0.639977 1.71978 0
M  V30 3586 H 337.453 -3.19149 2.34435 0
M  V30 3587 H 338.627 -1.24352 4.43704 0
M  V30 3588 H 336.942 -1.27522 3.96393 0
M  V30 3589 H 339.539 -4.0215 3.52391 0
M  V30 3590 H 339.882 -3.73663 1.83526 0
M  V30 3591 H 340.415 -2.55127 3.05213 0
M  V30 3592 H 337.154 -2.52393 6.04961 0
M  V30 3593 H 336.674 -3.65017 4.75944 0
M  V30 3594 H 338.353 -3.63318 5.35359 0
M  V30 3595 N 338.485 -1.33259 -0.841409 0
M  V30 3596 C 339.732 -1.24572 -1.5965 0
M  V30 3597 C 340.06 0.189137 -1.93578 0
M  V30 3598 O 339.315 1.14566 -1.5866 0
M  V30 3599 C 339.614 -2.06381 -2.9179 0
M  V30 3600 C 339.28 -3.556 -2.77235 0
M  V30 3601 C 337.942 -3.96282 -2.72973 0
M  V30 3602 C 340.294 -4.50433 -2.62221 0
M  V30 3603 C 337.622 -5.30017 -2.51592 0
M  V30 3604 C 339.974 -5.84327 -2.42374 0
M  V30 3605 C 338.638 -6.24194 -2.36512 0
M  V30 3606 H 337.908 -0.455842 -0.5842 0
M  V30 3607 H 340.555 -1.6482 -0.975016 0
M  V30 3608 H 338.86 -1.58903 -3.5813 0
M  V30 3609 H 340.557 -1.97019 -3.49263 0
M  V30 3610 H 337.147 -3.23298 -2.81384 0
M  V30 3611 H 341.331 -4.19914 -2.64549 0
M  V30 3612 H 336.587 -5.59947 -2.45499 0
M  V30 3613 H 340.761 -6.57414 -2.29739 0
M  V30 3614 H 338.388 -7.27759 -2.19706 0
M  V30 3615 N 339.963 1.05934 -1.16686 0
M  V30 3616 C 341.379 1.30938 -0.912542 0
M  V30 3617 C 341.579 1.96803 0.432533 0
M  V30 3618 O 340.635 2.23693 1.17123 0
M  V30 3619 C 341.948 2.18649 -2.06429 0
M  V30 3620 C 343.496 2.32055 -2.10047 0
M  V30 3621 C 343.971 3.23122 -3.24586 0
M  V30 3622 N 345.462 3.30706 -3.24327 0
M  V30 3623 C 346.197 4.01273 -4.09594 0
M  V30 3624 N 345.693 4.74332 -5.04956 0
M  V30 3625 N 347.486 3.97361 -3.97569 0
M  V30 3626 H 339.637 0.615777 -2.03278 0
M  V30 3627 H 341.9 0.334077 -0.887185 0
M  V30 3628 H 341.606 1.77534 -3.03603 0
M  V30 3629 H 341.48 3.19252 -2.00894 0
M  V30 3630 H 343.867 2.72415 -1.13464 0
M  V30 3631 H 343.948 1.31107 -2.19647 0
M  V30 3632 H 343.592 2.83477 -4.2143 0
M  V30 3633 H 343.522 4.24057 -3.12223 0
M  V30 3634 H 346.013 2.78644 -2.55276 0
M  V30 3635 H 346.326 5.25716 -5.6643 0
M  V30 3636 H 344.671 4.733 -5.08933 0
M  V30 3637 H 347.862 3.39405 -3.22369 0
M  V30 3638 H 348.035 4.52089 -4.64241 0
M  V30 3639 N 341.441 0.965919 1.2453 0
M  V30 3640 C 342.689 0.625593 1.92174 0
M  V30 3641 C 343.01 -0.841652 1.75901 0
M  V30 3642 O 342.28 -1.60061 1.12948 0
M  V30 3643 H 340.86 0.228388 0.71123 0
M  V30 3644 H 343.522 1.2266 1.51461 0
M  V30 3645 H 342.618 0.864653 2.99884 0
M  V30 3646 N 342.919 -1.39368 0.735821 0
M  V30 3647 C 343.882 -2.2896 0.104874 0
M  V30 3648 C 344.882 -1.46347 -0.666274 0
M  V30 3649 O 346.072 -1.67014 -0.49517 0
M  V30 3650 C 343.204 -3.29857 -0.860656 0
M  V30 3651 H 344.397 -2.86259 0.894205 0
M  V30 3652 H 341.95 -1.48029 0.501704 0
M  V30 3653 H 342.685 -2.77615 -1.67631 0
M  V30 3654 H 342.47 -3.9087 -0.310327 0
M  V30 3655 H 343.96 -3.96893 -1.29867 0
M  V30 3656 N 344.397 -0.483516 -1.5 0
M  V30 3657 C 345.674 0.129337 -1.95172 0
M  V30 3658 C 346.054 1.55802 -1.4244 0
M  V30 3659 O 345.402 2.19625 -0.630649 0
M  V30 3660 C 345.612 0.0599251 -3.48949 0
M  V30 3661 C 346.96 0.242617 -4.23906 0
M  V30 3662 O 347.984 0.135933 -3.55941 0
M  V30 3663 O 346.843 0.459454 -5.44565 0
M  V30 3664 H 343.937 0.104887 -0.820322 0
M  V30 3665 H 346.483 -0.544807 -1.60717 0
M  V30 3666 H 345.255 -0.937079 -3.79914 0
M  V30 3667 H 344.878 0.774984 -3.89974 0
M  V30 3668 N 345.875 1.56104 -0.216619 0
M  V30 3669 C 346.807 2.17339 0.72776 0
M  V30 3670 C 347.82 1.14109 1.16116 0
M  V30 3671 O 349.009 1.4111 1.09317 0
M  V30 3672 C 346.109 2.73818 1.99693 0
M  V30 3673 C 345.282 4.02168 1.71988 0
M  V30 3674 C 344.341 4.43259 2.83562 0
M  V30 3675 O 343.367 5.10257 2.52244 0
M  V30 3676 N 344.569 4.08535 4.12407 0
M  V30 3677 H 347.334 2.99005 0.203983 0
M  V30 3678 H 344.895 1.61861 -0.0354289 0
M  V30 3679 H 346.887 2.9828 2.73516 0
M  V30 3680 H 345.457 1.96483 2.43132 0
M  V30 3681 H 344.677 3.85612 0.818337 0
M  V30 3682 H 345.965 4.85907 1.50903 0
M  V30 3683 H 345.363 3.54687 4.40696 0
M  V30 3684 H 343.92 4.37901 4.8279 0
M  V30 3685 N 347.353 -0.0568162 1.57498 0
M  V30 3686 C 348.593 -0.758273 1.89815 0
M  V30 3687 C 348.957 -1.73978 0.812132 0
M  V30 3688 O 350.158 -2.48744 1.01881 0
M  V30 3689 C 348.429 -1.43465 3.27342 0
M  V30 3690 S 349.988 -2.1691 3.81439 0
M  V30 3691 H 346.806 -0.251836 0.664906 0
M  V30 3692 H 349.408 -0.0137997 1.95495 0
M  V30 3693 H 348.112 -0.706693 4.0427 0
M  V30 3694 H 347.643 -2.21825 3.24896 0
M  V30 3695 H 349.658 -3.43658 3.5793 0
M  V30 3696 N 348.832 -1.54138 -0.328536 0
M  V30 3697 C 350.06 -1.76062 -1.08673 0
M  V30 3698 C 350.475 -0.506852 -1.81869 0
M  V30 3699 O 349.832 0.522223 -1.74869 0
M  V30 3700 C 349.883 -2.95054 -2.08866 0
M  V30 3701 O 349.604 -4.15583 -1.38644 0
M  V30 3702 C 351.105 -3.2915 -2.96943 0
M  V30 3703 H 348.325 -0.587889 -0.323461 0
M  V30 3704 H 350.869 -2.0101 -0.376175 0
M  V30 3705 H 349.024 -2.72394 -2.75464 0
M  V30 3706 H 349.438 -4.82481 -2.05699 0
M  V30 3707 H 350.912 -4.15723 -3.63151 0
M  V30 3708 H 351.389 -2.461 -3.63774 0
M  V30 3709 H 351.995 -3.53871 -2.35914 0
M  V30 3710 N 350.31 0.590341 -1.46126 0
M  V30 3711 C 351.557 1.34882 -1.5104 0
M  V30 3712 C 351.885 1.93849 -0.159021 0
M  V30 3713 O 351.14 1.76544 0.844436 0
M  V30 3714 C 351.439 2.5032 -2.55097 0
M  V30 3715 C 351.105 2.09394 -3.99331 0
M  V30 3716 C 349.767 1.97947 -4.38601 0
M  V30 3717 C 352.119 1.77712 -4.89967 0
M  V30 3718 C 349.447 1.53065 -5.66381 0
M  V30 3719 C 351.799 1.34312 -6.18177 0
M  V30 3720 C 350.463 1.21436 -6.56361 0
M  V30 3721 H 349.733 0.493568 -0.552695 0
M  V30 3722 H 352.38 0.665539 -1.79563 0
M  V30 3723 H 350.685 3.24062 -2.20207 0
M  V30 3724 H 352.382 3.08541 -2.56132 0
M  V30 3725 H 348.972 2.19235 -3.68285 0
M  V30 3726 H 353.156 1.85445 -4.60352 0
M  V30 3727 H 348.412 1.41733 -5.94745 0
M  V30 3728 H 352.586 1.08849 -6.87841 0
M  V30 3729 H 350.213 0.864345 -7.5527 0
M  V30 3730 N 351.788 1.33704 0.83433 0
M  V30 3731 C 352.751 1.24244 1.92603 0
M  V30 3732 C 353.751 0.160383 1.59998 0
M  V30 3733 O 354.941 0.412228 1.69252 0
M  V30 3734 C 352.073 0.91555 3.28376 0
M  V30 3735 H 353.266 2.21287 2.02416 0
M  V30 3736 H 350.819 1.17827 1.02696 0
M  V30 3737 H 351.554 -0.0521886 3.24258 0
M  V30 3738 H 351.339 1.69811 3.53422 0
M  V30 3739 H 352.829 0.874231 4.08347 0
M  V30 3740 N 353.266 -1.05314 1.17247 0
M  V30 3741 C 354.512 -1.78557 0.961513 0
M  V30 3742 C 354.845 -1.87419 -0.508697 0
M  V30 3743 O 354.12 -1.37307 -1.37757 0
M  V30 3744 C 354.403 -3.22514 1.60176 0
M  V30 3745 C 354.256 -3.21673 3.14399 0
M  V30 3746 C 355.575 -4.20318 1.30463 0
M  V30 3747 H 352.694 -0.6482 0.350723 0
M  V30 3748 H 355.336 -1.23102 1.44727 0
M  V30 3749 H 353.486 -3.69867 1.18871 0
M  V30 3750 H 355.158 -2.82405 3.64753 0
M  V30 3751 H 353.401 -2.60048 3.47214 0
M  V30 3752 H 354.072 -4.23271 3.54324 0
M  V30 3753 H 356.548 -3.81454 1.66229 0
M  V30 3754 H 355.424 -5.19289 1.77848 0
M  V30 3755 H 355.685 -4.41526 0.22521 0
M  V30 3756 N 354.744 -0.972509 -1.24016 0
M  V30 3757 C 355.676 -0.464375 -2.24446 0
M  V30 3758 C 356.689 0.4295 -1.57032 0
M  V30 3759 O 357.878 0.234902 -1.76948 0
M  V30 3760 C 354.978 0.348385 -3.37105 0
M  V30 3761 C 354.151 -0.53673 -4.34094 0
M  V30 3762 C 353.21 0.220838 -5.25736 0
M  V30 3763 O 352.236 -0.386867 -5.67884 0
M  V30 3764 N 353.438 1.50907 -5.60542 0
M  V30 3765 H 356.203 -1.32788 -2.68677 0
M  V30 3766 H 353.764 -0.844877 -1.38107 0
M  V30 3767 H 355.756 0.863341 -3.95384 0
M  V30 3768 H 354.326 1.11285 -2.92121 0
M  V30 3769 H 353.546 -1.23261 -3.74433 0
M  V30 3770 H 354.834 -1.14022 -4.95859 0
M  V30 3771 H 354.232 2.02444 -5.28236 0
M  V30 3772 H 352.789 1.96962 -6.21329 0
M  V30 3773 N 356.222 1.38976 -0.743202 0
M  V30 3774 C 357.169 2.30544 -0.10861 0
M  V30 3775 C 358.139 1.49642 0.720869 0
M  V30 3776 O 359.324 1.78304 0.679142 0
M  V30 3777 C 356.464 3.36018 0.786496 0
M  V30 3778 C 355.577 4.31963 -0.0564849 0
M  V30 3779 C 354.712 5.24506 0.840657 0
M  V30 3780 C 353.751 6.121 -0.00658363 0
M  V30 3781 N 352.888 6.96973 0.846943 0
M  V30 3782 H 357.728 2.8424 -0.895088 0
M  V30 3783 H 355.265 1.3995 -0.453048 0
M  V30 3784 H 357.223 3.95768 1.31999 0
M  V30 3785 H 355.853 2.83758 1.53887 0
M  V30 3786 H 354.905 3.73763 -0.707492 0
M  V30 3787 H 356.217 4.93703 -0.711229 0
M  V30 3788 H 355.371 5.89322 1.4417 0
M  V30 3789 H 354.11 4.63107 1.52916 0
M  V30 3790 H 353.115 5.46289 -0.620366 0
M  V30 3791 H 354.34 6.75565 -0.691992 0
M  V30 3792 H 352.286 6.38133 1.52059 0
M  V30 3793 H 352.203 7.5559 0.248864 0
M  V30 3794 H 353.471 7.6621 1.43328 0
M  V30 3795 N 357.7 0.491464 1.49741 0
M  V30 3796 C 358.93 -0.0534375 2.06531 0
M  V30 3797 C 359.338 -1.32233 1.35318 0
M  V30 3798 O 358.681 -1.78781 0.422243 0
M  V30 3799 C 358.743 -0.387034 3.57411 0
M  V30 3800 C 358.407 0.782764 4.50246 0
M  V30 3801 C 359.404 1.67059 4.92329 0
M  V30 3802 C 357.089 0.978866 4.9267 0
M  V30 3803 C 359.083 2.73874 5.75562 0
M  V30 3804 C 356.77 2.05022 5.75682 0
M  V30 3805 C 357.768 2.92851 6.17031 0
M  V30 3806 O 357.456 3.98138 6.98385 0
M  V30 3807 H 357.188 0.0129324 0.675876 0
M  V30 3808 H 359.742 0.685238 1.93633 0
M  V30 3809 H 357.972 -1.17918 3.68283 0
M  V30 3810 H 359.661 -0.869419 3.96479 0
M  V30 3811 H 360.427 1.53086 4.60206 0
M  V30 3812 H 356.306 0.304646 4.59992 0
M  V30 3813 H 359.85 3.42458 6.07757 0
M  V30 3814 H 355.747 2.18993 6.07217 0
M  V30 3815 H 356.515 3.95374 7.16674 0
M  V30 3816 N 359.178 -1.55987 0.224894 0
M  V30 3817 C 360.424 -1.98684 -0.406502 0
M  V30 3818 C 360.757 -1.11248 -1.59177 0
M  V30 3819 O 360.032 -0.170909 -1.93748 0
M  V30 3820 C 360.315 -3.50218 -0.837808 0
M  V30 3821 C 360.168 -4.48426 0.351332 0
M  V30 3822 C 361.487 -4.06243 -1.69278 0
M  V30 3823 H 358.606 -0.722337 -0.146283 0
M  V30 3824 H 361.248 -1.87255 0.321799 0
M  V30 3825 H 359.398 -3.60089 -1.45837 0
M  V30 3826 H 361.07 -4.50562 0.989526 0
M  V30 3827 H 359.313 -4.22159 0.998207 0
M  V30 3828 H 359.984 -5.52 0.00655905 0
M  V30 3829 H 362.46 -3.99337 -1.16914 0
M  V30 3830 H 361.336 -5.12581 -1.96346 0
M  V30 3831 H 361.597 -3.53332 -2.65723 0
M  V30 3832 N 360.656 0.0484629 -1.57525 0
M  V30 3833 C 361.566 1.07241 -2.08654 0
M  V30 3834 C 362.582 1.409 -1.02095 0
M  V30 3835 O 363.758 1.50609 -1.33712 0
M  V30 3836 C 360.823 2.36008 -2.5397 0
M  V30 3837 C 359.884 2.09108 -3.7493 0
M  V30 3838 C 359.117 3.31736 -4.18075 0
M  V30 3839 O 359.34 4.41714 -3.60895 0
M  V30 3840 O 358.274 3.18576 -5.10679 0
M  V30 3841 H 362.1 0.667965 -2.96263 0
M  V30 3842 H 359.685 0.26417 -1.47046 0
M  V30 3843 H 361.567 3.11747 -2.83535 0
M  V30 3844 H 360.242 2.75786 -1.69481 0
M  V30 3845 H 359.149 1.31 -3.50414 0
M  V30 3846 H 360.482 1.74198 -4.60343 0
M  V30 3847 N 362.134 1.5431 0.320358 0
M  V30 3848 C 363.364 1.7638 1.07582 0
M  V30 3849 C 363.772 0.513944 1.82086 0
M  V30 3850 O 363.115 -0.525123 1.76035 0
M  V30 3851 C 363.177 2.9055 2.1171 0
M  V30 3852 C 362.841 4.2934 1.56575 0
M  V30 3853 C 363.838 5.10077 1.00586 0
M  V30 3854 C 361.523 4.75893 1.60722 0
M  V30 3855 C 363.517 6.35477 0.494756 0
M  V30 3856 C 361.204 6.0126 1.09224 0
M  V30 3857 C 362.202 6.80886 0.53696 0
M  V30 3858 O 361.89 8.03894 0.0297371 0
M  V30 3859 H 361.622 0.592369 0.325692 0
M  V30 3860 H 364.176 2.02019 0.37116 0
M  V30 3861 H 362.406 2.60489 2.85801 0
M  V30 3862 H 364.095 3.00373 2.73003 0
M  V30 3863 H 364.861 4.75265 0.966869 0
M  V30 3864 H 360.74 4.13957 2.02882 0
M  V30 3865 H 364.284 6.97574 0.0606842 0
M  V30 3866 H 360.181 6.35562 1.12831 0
M  V30 3867 H 360.949 8.18372 0.14486 0
M  V30 3868 N 363.613 -0.582584 1.46437 0
M  V30 3869 C 364.576 -1.67366 1.56592 0
M  V30 3870 C 365.576 -1.54575 0.443072 0
M  V30 3871 O 366.766 -1.59191 0.707381 0
M  V30 3872 C 363.898 -3.06791 1.48634 0
M  V30 3873 H 365.091 -1.5972 2.5383 0
M  V30 3874 H 362.644 -0.800432 1.34249 0
M  V30 3875 H 363.379 -3.19993 0.526763 0
M  V30 3876 H 363.164 -3.17484 2.30101 0
M  V30 3877 H 364.654 -3.86218 1.58826 0
M  V30 3878 N 365.091 -1.34144 -0.827227 0
M  V30 3879 C 366.001 -1.27428 -1.96975 0
M  V30 3880 C 367.017 -0.182728 -1.73038 0
M  V30 3881 O 368.193 -0.408426 -1.97215 0
M  V30 3882 C 365.258 -1.02526 -3.31194 0
M  V30 3883 C 364.319 -2.20796 -3.68168 0
M  V30 3884 C 363.552 -1.97073 -4.95982 0
M  V30 3885 O 363.775 -0.926822 -5.6282 0
M  V30 3886 O 362.709 -2.83912 -5.30733 0
M  V30 3887 H 366.535 -2.23537 -2.05584 0
M  V30 3888 H 364.12 -1.14307 -0.961989 0
M  V30 3889 H 366.002 -0.904026 -4.11589 0
M  V30 3890 H 364.677 -0.0945389 -3.23562 0
M  V30 3891 H 363.584 -2.38477 -2.88235 0
M  V30 3892 H 364.917 -3.12243 -3.8048 0
M  V30 3893 N 366.569 1.04691 -1.17803 0
M  V30 3894 C 367.501 2.12571 -0.857097 0
M  V30 3895 C 368.514 1.62174 0.142647 0
M  V30 3896 O 369.703 1.78301 -0.0843387 0
M  V30 3897 C 366.803 3.37915 -0.258216 0
M  V30 3898 C 365.976 4.1757 -1.30207 0
M  V30 3899 C 365.035 5.2125 -0.720029 0
M  V30 3900 O 364.061 5.51888 -1.39314 0
M  V30 3901 N 365.263 5.78466 0.485507 0
M  V30 3902 H 368.028 2.40698 -1.78562 0
M  V30 3903 H 365.589 1.20831 -1.07757 0
M  V30 3904 H 367.581 4.04442 0.144584 0
M  V30 3905 H 366.151 3.07281 0.574199 0
M  V30 3906 H 365.371 3.46458 -1.88043 0
M  V30 3907 H 366.659 4.67586 -2.00601 0
M  V30 3908 H 366.057 5.55866 1.05022 0
M  V30 3909 H 364.614 6.4649 0.830307 0
M  V30 3910 N 368.047 0.979072 1.23499 0
M  V30 3911 C 368.994 0.517904 2.24914 0
M  V30 3912 C 369.964 -0.442525 1.60097 0
M  V30 3913 O 371.149 -0.350365 1.87556 0
M  V30 3914 C 368.289 -0.174813 3.44657 0
M  V30 3915 C 367.402 0.825721 4.24035 0
M  V30 3916 C 366.537 0.107946 5.3109 0
M  V30 3917 C 365.576 1.09778 6.02175 0
M  V30 3918 N 364.713 0.40925 7.00906 0
M  V30 3919 H 369.553 1.38751 2.63727 0
M  V30 3920 H 367.09 0.695303 1.2963 0
M  V30 3921 H 369.048 -0.593233 4.12961 0
M  V30 3922 H 367.678 -1.0083 3.06648 0
M  V30 3923 H 366.73 1.36253 3.55161 0
M  V30 3924 H 368.042 1.58005 4.73113 0
M  V30 3925 H 367.196 -0.367904 6.05583 0
M  V30 3926 H 365.935 -0.678994 4.8295 0
M  V30 3927 H 364.94 1.5844 5.26476 0
M  V30 3928 H 366.165 1.88536 6.52404 0
M  V30 3929 H 364.111 -0.358506 6.5502 0
M  V30 3930 H 364.028 1.10226 7.47921 0
M  V30 3931 H 365.296 -0.0442557 7.79487 0
M  V30 3932 N 369.525 -1.3858 0.750561 0
M  V30 3933 C 370.936 -1.82927 0.373438 0
M  V30 3934 C 371.287 -1.62634 -1.09748 0
M  V30 3935 O 370.412 -1.12588 -1.84805 0
M  V30 3936 C 371.007 -3.32088 0.671029 0
M  V30 3937 C 369.566 -3.74795 0.34722 0
M  V30 3938 C 368.713 -2.61391 0.92575 0
M  V30 3939 H 371.664 -1.27351 0.946958 0
M  V30 3940 H 371.685 -3.80465 -0.0518269 0
M  V30 3941 H 371.197 -3.46826 1.74164 0
M  V30 3942 H 369.298 -3.65638 -0.716933 0
M  V30 3943 H 369.411 -4.71667 0.840656 0
M  V30 3944 H 367.775 -2.52265 0.351327 0
M  V30 3945 H 368.558 -2.78929 2.00133 0
M  V30 3946 N 371.003 -0.499398 -1.49478 0
M  V30 3947 C 372.231 0.0425456 -2.06856 0
M  V30 3948 C 372.646 1.30964 -1.35992 0
M  V30 3949 O 372.003 1.77172 -0.437762 0
M  V30 3950 C 372.054 0.301735 -3.60239 0
M  V30 3951 O 371.775 -0.915127 -4.28436 0
M  V30 3952 C 373.276 0.887499 -4.34325 0
M  V30 3953 H 370.496 -0.0197482 -0.670709 0
M  V30 3954 H 373.04 -0.696297 -1.92281 0
M  V30 3955 H 371.195 0.990556 -3.74522 0
M  V30 3956 H 371.609 -0.676993 -5.20113 0
M  V30 3957 H 373.083 1.01845 -5.42523 0
M  V30 3958 H 373.56 1.88488 -3.96698 0
M  V30 3959 H 374.166 0.236196 -4.24644 0
M  V30 3960 N 372.481 1.55866 -0.233164 0
M  V30 3961 C 373.429 2.22176 0.68851 0
M  V30 3962 C 374.423 1.20487 1.19076 0
M  V30 3963 O 375.629 1.38536 1.14925 0
M  V30 3964 H 372.004 0.712511 0.240483 0
M  V30 3965 H 373.975 2.98212 0.105935 0
M  V30 3966 C 372.724 2.92446 1.88071 0
M  V30 3967 H 372.047 3.70458 1.50337 0
M  V30 3968 H 373.487 3.42226 2.50314 0
M  V30 3969 C 371.946 1.95555 2.74335 0
M  V30 3970 O 372.476 1.47986 3.73447 0
M  V30 3971 N 370.682 1.62953 2.40613 0
M  V30 3972 H 370.229 2.01831 1.60069 0
M  V30 3973 H 370.187 0.983886 2.98609 0
M  V30 3974 N 373.959 -0.0401083 1.57549 0
M  V30 3975 C 374.906 -1.04413 2.05831 0
M  V30 3976 C 375.876 -1.36585 0.945184 0
M  V30 3977 O 377.061 -1.47112 1.21502 0
M  V30 3978 C 374.201 -2.34336 2.53339 0
M  V30 3979 C 373.314 -2.08419 3.78398 0
M  V30 3980 C 372.449 -3.32133 4.14561 0
M  V30 3981 C 371.488 -3.01721 5.3257 0
M  V30 3982 N 370.625 -4.17855 5.64218 0
M  V30 3983 H 375.465 -0.625442 2.91363 0
M  V30 3984 H 373.002 -0.297218 1.44066 0
M  V30 3985 H 374.96 -3.10234 2.78946 0
M  V30 3986 H 373.59 -2.73948 1.7074 0
M  V30 3987 H 372.642 -1.23069 3.59942 0
M  V30 3988 H 373.954 -1.81978 4.64419 0
M  V30 3989 H 373.108 -4.16406 4.41238 0
M  V30 3990 H 371.847 -3.61678 3.2717 0
M  V30 3991 H 370.852 -2.15849 5.05657 0
M  V30 3992 H 372.077 -2.73466 6.21605 0
M  V30 3993 H 370.023 -4.47372 4.79786 0
M  V30 3994 H 369.94 -3.94798 6.44725 0
M  V30 3995 H 371.208 -5.03033 5.95465 0
M  V30 3996 N 375.437 -1.54477 -0.31217 0
M  V30 3997 C 376.683 -1.73483 -1.0503 0
M  V30 3998 C 377.016 -0.513125 -1.87298 0
M  V30 3999 O 376.291 0.489864 -1.8823 0
M  V30 4000 C 376.574 -3.01723 -1.96558 0
M  V30 4001 C 376.427 -4.3417 -1.17545 0
M  V30 4002 C 377.746 -3.25772 -2.95907 0
M  V30 4003 H 374.865 -0.631222 -0.380432 0
M  V30 4004 H 377.507 -1.87184 -0.325932 0
M  V30 4005 H 375.657 -2.90174 -2.58324 0
M  V30 4006 H 377.329 -4.5762 -0.581513 0
M  V30 4007 H 375.572 -4.31159 -0.477925 0
M  V30 4008 H 376.243 -5.20143 -1.84811 0
M  V30 4009 H 378.719 -3.36857 -2.44267 0
M  V30 4010 H 377.595 -4.16838 -3.57123 0
M  V30 4011 H 377.856 -2.43537 -3.68974 0
M  V30 4012 N 376.915 0.57481 -1.46744 0
M  V30 4013 C 378.161 1.3347 -1.52688 0
M  V30 4014 C 378.494 1.93353 -0.181229 0
M  V30 4015 O 377.769 1.76912 0.808237 0
M  V30 4016 C 378.052 2.45811 -2.63152 0
M  V30 4017 C 377.905 1.90912 -4.07275 0
M  V30 4018 C 379.224 3.47822 -2.69644 0
M  V30 4019 H 376.343 0.483935 -0.555856 0
M  V30 4020 H 378.985 0.644968 -1.78718 0
M  V30 4021 H 377.135 3.04646 -2.41088 0
M  V30 4022 H 378.807 1.36473 -4.4065 0
M  V30 4023 H 377.05 1.21691 -4.16382 0
M  V30 4024 H 377.721 2.72042 -4.80309 0
M  V30 4025 H 380.197 2.9888 -2.895 0
M  V30 4026 H 379.073 4.23876 -3.48742 0
M  V30 4027 H 379.334 4.05555 -1.76005 0
M  V30 4028 N 378.394 1.34581 0.820102 0
M  V30 4029 C 379.643 1.26437 1.57151 0
M  V30 4030 C 379.956 -0.163111 1.94919 0
M  V30 4031 O 381.162 -0.366722 2.69012 0
M  V30 4032 C 379.618 2.21658 2.83541 0
M  V30 4033 C 379.226 3.69679 2.53065 0
M  V30 4034 C 380.97 2.22428 3.61561 0
M  V30 4035 C 378.877 4.56761 3.75664 0
M  V30 4036 H 377.807 0.469707 0.589823 0
M  V30 4037 H 380.458 1.59763 0.902656 0
M  V30 4038 H 378.84 1.81287 3.52067 0
M  V30 4039 H 380.014 4.18605 1.92631 0
M  V30 4040 H 378.329 3.71384 1.88316 0
M  V30 4041 H 380.926 2.8471 4.52597 0
M  V30 4042 H 381.269 1.22434 3.97889 0
M  V30 4043 H 381.802 2.61259 2.99981 0
M  V30 4044 H 378.541 5.57702 3.44454 0
M  V30 4045 H 378.061 4.12568 4.35371 0
M  V30 4046 H 379.74 4.71509 4.43044 0
M  V30 4047 N 379.872 -1.04064 1.18357 0
M  V30 4048 C 381.119 -1.77265 0.978947 0
M  V30 4049 C 381.447 -1.88189 -0.491428 0
M  V30 4050 O 380.702 -1.38653 -1.38108 0
M  V30 4051 C 381.001 -3.20634 1.57888 0
M  V30 4052 C 380.667 -3.29743 3.07539 0
M  V30 4053 C 379.329 -3.31937 3.48384 0
M  V30 4054 C 381.681 -3.29841 4.03552 0
M  V30 4055 C 379.009 -3.3187 4.83818 0
M  V30 4056 C 381.361 -3.31313 5.38901 0
M  V30 4057 C 380.025 -3.31799 5.79194 0
M  V30 4058 H 379.295 -0.648659 0.358222 0
M  V30 4059 H 381.942 -1.22225 1.47422 0
M  V30 4060 H 380.247 -3.78675 1.00561 0
M  V30 4061 H 381.944 -3.75917 1.39598 0
M  V30 4062 H 378.534 -3.28757 2.74986 0
M  V30 4063 H 382.718 -3.27337 3.73047 0
M  V30 4064 H 377.974 -3.30562 5.14333 0
M  V30 4065 H 382.148 -3.30338 6.13066 0
M  V30 4066 H 379.775 -3.315 6.84114 0
M  V30 4067 N 381.35 -0.985608 -1.22978 0
M  V30 4068 C 382.58 -0.674603 -1.95276 0
M  V30 4069 C 382.988 0.763483 -1.73111 0
M  V30 4070 O 382.331 1.52601 -1.02268 0
M  V30 4071 C 382.393 -0.891597 -3.48268 0
M  V30 4072 C 382.057 -2.31275 -3.94158 0
M  V30 4073 C 383.054 -3.29179 -4.02415 0
M  V30 4074 C 380.739 -2.64524 -4.27004 0
M  V30 4075 C 382.733 -4.58407 -4.42879 0
M  V30 4076 C 380.42 -3.93974 -4.67149 0
M  V30 4077 C 381.418 -4.90727 -4.75053 0
M  V30 4078 O 381.106 -6.17865 -5.14294 0
M  V30 4079 H 380.838 -0.249251 -0.628371 0
M  V30 4080 H 383.392 -1.32106 -1.5728 0
M  V30 4081 H 381.622 -0.187962 -3.86243 0
M  V30 4082 H 383.311 -0.576957 -4.01779 0
M  V30 4083 H 384.077 -3.04823 -3.77237 0
M  V30 4084 H 379.956 -1.89923 -4.2006 0
M  V30 4085 H 383.5 -5.33926 -4.48964 0
M  V30 4086 H 379.397 -4.18122 -4.91777 0
M  V30 4087 H 380.165 -6.21694 -5.32389 0
M  V30 4088 N 382.828 1.3818 -0.7579 0
M  V30 4089 C 384.105 1.94106 -0.241306 0
M  V30 4090 C 384.485 1.69282 1.26122 0
M  V30 4091 O 383.833 1.03378 2.03777 0
M  V30 4092 C 384.043 3.43809 -0.59967 0
M  V30 4093 C 385.391 4.20868 -0.561717 0
M  V30 4094 O 386.415 3.5211 -0.538222 0
M  V30 4095 O 385.274 5.43451 -0.576478 0
M  V30 4096 H 382.368 0.825376 -0.0518042 0
M  V30 4097 H 384.914 1.47548 -0.838315 0
M  V30 4098 H 383.686 3.55403 -1.6372 0
M  V30 4099 H 383.309 3.97592 0.0251197 0
M  V30 4100 N 384.306 0.507319 1.49211 0
M  V30 4101 C 385.531 -0.033725 2.07373 0
M  V30 4102 C 385.956 -1.29485 1.36437 0
M  V30 4103 O 385.314 -1.76294 0.423087 0
M  V30 4104 C 385.362 -0.263945 3.59633 0
M  V30 4105 O 384.466 -1.33737 3.90113 0
M  V30 4106 H 383.807 0.0290331 0.663365 0
M  V30 4107 H 386.337 0.708749 1.91932 0
M  V30 4108 H 386.347 -0.493536 4.05004 0
M  V30 4109 H 385.022 0.657424 4.10671 0
M  V30 4110 H 383.599 -1.09224 3.56545 0
M  V30 4111 N 385.784 -1.5574 0.241426 0
M  V30 4112 C 386.717 -2.17168 -0.700935 0
M  V30 4113 C 387.695 -1.12206 -1.1768 0
M  V30 4114 O 388.879 -1.40565 -1.25593 0
M  V30 4115 C 386.006 -2.76796 -1.95196 0
M  V30 4116 C 385.052 -3.94764 -1.61442 0
M  V30 4117 S 385.885 -5.30613 -0.72182 0
M  V30 4118 C 387.041 -5.93691 -1.98197 0
M  V30 4119 H 387.274 -2.96761 -0.178882 0
M  V30 4120 H 384.807 -1.54378 0.0259299 0
M  V30 4121 H 386.765 -3.11787 -2.67019 0
M  V30 4122 H 385.426 -1.9716 -2.44514 0
M  V30 4123 H 384.619 -4.35057 -2.54443 0
M  V30 4124 H 384.221 -3.61022 -0.976672 0
M  V30 4125 H 386.513 -6.10874 -2.92983 0
M  V30 4126 H 387.456 -6.89258 -1.62262 0
M  V30 4127 H 387.864 -5.22709 -2.13156 0
M  V30 4128 N 387.262 0.0317525 -1.57568 0
M  V30 4129 C 388.508 0.718712 -1.90279 0
M  V30 4130 C 388.863 1.73108 -0.839727 0
M  V30 4131 O 388.156 1.90997 0.15188 0
M  V30 4132 C 388.35 1.43167 -3.27472 0
M  V30 4133 C 388.179 0.489869 -4.47024 0
M  V30 4134 C 386.949 0.111909 -5.05176 0
M  V30 4135 C 389.147 -0.230592 -5.13783 0
M  V30 4136 N 387.129 -0.831427 -6.08244 0
M  V30 4137 C 388.5 -1.02968 -6.1139 0
M  V30 4138 C 390.555 -0.297821 -4.97008 0
M  V30 4139 C 389.258 -1.88982 -6.9403 0
M  V30 4140 C 391.284 -1.14507 -5.80209 0
M  V30 4141 C 390.646 -1.9321 -6.77384 0
M  V30 4142 H 386.745 0.237177 -0.745165 0
M  V30 4143 H 389.329 -0.0211267 -1.94689 0
M  V30 4144 H 387.5 2.14199 -3.23996 0
M  V30 4145 H 389.232 2.0708 -3.47707 0
M  V30 4146 H 385.987 0.473513 -4.71227 0
M  V30 4147 H 386.411 -1.29752 -6.6445 0
M  V30 4148 H 391.053 0.296346 -4.2176 0
M  V30 4149 H 388.771 -2.4948 -7.68626 0
M  V30 4150 H 392.357 -1.20059 -5.69278 0
M  V30 4151 H 391.237 -2.57711 -7.40645 0
M  V30 4152 N 388.74 1.54641 0.303973 0
M  V30 4153 C 389.69 1.8177 1.37636 0
M  V30 4154 C 390.674 0.674697 1.46071 0
M  V30 4155 O 391.866 0.935251 1.50273 0
M  V30 4156 C 388.995 2.06584 2.74186 0
M  V30 4157 C 388.081 3.2706 2.69986 0
M  V30 4158 N 388.472 4.47682 2.35402 0
M  V30 4159 C 386.77 3.29028 3.01092 0
M  V30 4160 C 387.471 5.29689 2.40426 0
M  V30 4161 N 386.447 4.67339 2.7766 0
M  V30 4162 H 390.249 2.72596 1.09857 0
M  V30 4163 H 387.763 1.541 0.51254 0
M  V30 4164 H 389.76 2.24166 3.51504 0
M  V30 4165 H 388.42 1.17024 3.02879 0
M  V30 4166 H 389.431 4.74336 2.07908 0
M  V30 4167 H 386.108 2.49565 3.34699 0
M  V30 4168 H 387.498 6.3606 2.16512 0
M  V30 4169 N 390.218 -0.567019 1.47046 0
M  V30 4170 C 391.443 -1.3551 1.57009 0
M  V30 4171 C 391.868 -1.86841 0.217259 0
M  V30 4172 O 391.226 -1.62435 -0.805268 0
M  V30 4173 C 391.274 -2.50777 2.5912 0
M  V30 4174 O 390.378 -3.52706 2.13711 0
M  V30 4175 H 389.719 -0.402919 0.52778 0
M  V30 4176 H 392.249 -0.686241 1.92748 0
M  V30 4177 H 392.259 -2.97481 2.79229 0
M  V30 4178 H 390.934 -2.12771 3.57353 0
M  V30 4179 H 389.511 -3.12374 2.03659 0
M  V30 4180 N 391.696 -1.35014 -0.812953 0
M  V30 4181 C 392.924 -1.31031 -1.6012 0
M  V30 4182 C 393.339 0.113558 -1.88458 0
M  V30 4183 O 392.696 1.06363 -1.48301 0
M  V30 4184 C 392.747 -2.10872 -2.93624 0
M  V30 4185 O 392.468 -3.47706 -2.66518 0
M  V30 4186 C 393.969 -2.14401 -3.88004 0
M  V30 4187 H 391.189 -0.45037 -0.497401 0
M  V30 4188 H 393.733 -1.77775 -1.01076 0
M  V30 4189 H 391.888 -1.67744 -3.492 0
M  V30 4190 H 392.302 -3.89097 -3.51715 0
M  V30 4191 H 393.776 -2.74669 -4.78812 0
M  V30 4192 H 394.253 -1.14105 -4.24119 0
M  V30 4193 H 394.859 -2.57662 -3.38364 0
M  V30 4194 N 393.175 1.03435 -1.18907 0
M  V30 4195 C 394.085 2.15075 -0.937015 0
M  V30 4196 C 395.101 1.73706 0.101085 0
M  V30 4197 O 396.277 2.01232 -0.0822948 0
M  V30 4198 C 393.342 3.43458 -0.473057 0
M  V30 4199 C 392.403 3.99172 -1.57989 0
M  V30 4200 C 391.636 5.21427 -1.13797 0
M  V30 4201 O 391.859 5.704 0.000725941 0
M  V30 4202 O 390.793 5.69837 -1.9383 0
M  V30 4203 H 394.619 2.39198 -1.87131 0
M  V30 4204 H 392.204 1.13506 -0.971427 0
M  V30 4205 H 394.086 4.20811 -0.222702 0
M  V30 4206 H 392.761 3.20793 0.432869 0
M  V30 4207 H 391.668 3.23178 -1.88433 0
M  V30 4208 H 393.001 4.2619 -2.46217 0
M  V30 4209 N 394.653 0.992116 1.22453 0
M  V30 4210 C 395.6 0.541731 2.24352 0
M  V30 4211 C 396.57 -0.425519 1.60557 0
M  V30 4212 O 397.755 -0.330453 1.87917 0
M  V30 4213 C 394.895 -0.138248 3.44823 0
M  V30 4214 C 394.008 0.870649 4.23136 0
M  V30 4215 C 393.143 0.164269 5.30946 0
M  V30 4216 C 392.182 1.16159 6.00977 0
M  V30 4217 N 391.319 0.483568 7.00433 0
M  V30 4218 H 396.159 1.41541 2.62241 0
M  V30 4219 H 393.696 0.709013 1.28885 0
M  V30 4220 H 395.654 -0.5494 4.13567 0
M  V30 4221 H 394.284 -0.975721 3.077 0
M  V30 4222 H 393.336 1.40013 3.53696 0
M  V30 4223 H 394.648 1.63014 4.7141 0
M  V30 4224 H 393.802 -0.303653 6.0594 0
M  V30 4225 H 392.541 -0.627733 4.83643 0
M  V30 4226 H 391.546 1.64015 5.24766 0
M  V30 4227 H 392.771 1.95445 6.50368 0
M  V30 4228 H 390.717 -0.289012 6.55363 0
M  V30 4229 H 390.634 1.18152 7.4671 0
M  V30 4230 H 391.902 0.0384219 7.79491 0
M  V30 4231 N 396.131 -1.37776 0.765217 0
M  V30 4232 C 397.064 -2.28008 0.0935025 0
M  V30 4233 C 398.042 -1.45985 -0.716047 0
M  V30 4234 O 399.226 -1.75331 -0.692203 0
M  V30 4235 C 396.353 -3.27228 -0.874052 0
M  V30 4236 C 395.399 -4.26239 -0.149307 0
M  V30 4237 S 396.232 -5.22827 1.15809 0
M  V30 4238 C 397.388 -6.256 0.193906 0
M  V30 4239 H 397.621 -2.84631 0.858637 0
M  V30 4240 H 395.154 -1.43952 0.558313 0
M  V30 4241 H 397.112 -3.84902 -1.42691 0
M  V30 4242 H 395.773 -2.69565 -1.61225 0
M  V30 4243 H 394.966 -4.96213 -0.88254 0
M  V30 4244 H 394.568 -3.7252 0.332366 0
M  V30 4245 H 396.86 -6.74508 -0.636011 0
M  V30 4246 H 397.803 -7.02838 0.861638 0
M  V30 4247 H 398.211 -5.64173 -0.191975 0
M  V30 4248 N 397.609 -0.515225 -1.4894 0
M  V30 4249 C 398.572 0.244681 -2.2789 0
M  V30 4250 C 399.572 0.881166 -1.34507 0
M  V30 4251 O 400.762 0.743497 -1.57537 0
M  V30 4252 C 397.894 1.35247 -3.12923 0
M  V30 4253 H 399.087 -0.448289 -2.96531 0
M  V30 4254 H 396.64 -0.270656 -1.53939 0
M  V30 4255 H 397.375 2.07916 -2.48881 0
M  V30 4256 H 397.16 0.901374 -3.81599 0
M  V30 4257 H 398.65 1.88737 -3.72516 0
M  V30 4258 N 399.087 1.5561 -0.249682 0
M  V30 4259 C 400.503 1.59254 0.105103 0
M  V30 4260 C 400.703 1.26685 1.56694 0
M  V30 4261 O 399.759 1.0155 2.31179 0
M  V30 4262 C 401.072 2.99687 -0.246592 0
M  V30 4263 C 402.62 3.12416 -0.191118 0
M  V30 4264 C 403.095 4.55074 -0.516885 0
M  V30 4265 N 404.586 4.60835 -0.467489 0
M  V30 4266 C 405.321 5.69201 -0.69268 0
M  V30 4267 N 404.817 6.85817 -0.981146 0
M  V30 4268 N 406.61 5.58635 -0.623198 0
M  V30 4269 H 398.761 1.75049 -1.20298 0
M  V30 4270 H 401.024 0.815003 -0.484225 0
M  V30 4271 H 400.73 3.28267 -1.26228 0
M  V30 4272 H 400.604 3.74798 0.424962 0
M  V30 4273 H 402.991 2.83615 0.815247 0
M  V30 4274 H 403.072 2.39573 -0.896563 0
M  V30 4275 H 402.716 4.84596 -1.52082 0
M  V30 4276 H 402.646 5.26181 0.210068 0
M  V30 4277 H 405.137 3.7705 -0.253373 0
M  V30 4278 H 405.45 7.64341 -1.14032 0
M  V30 4279 H 403.795 6.87494 -1.01865 0
M  V30 4280 H 406.986 4.66406 -0.397863 0
M  V30 4281 H 407.159 6.43017 -0.802093 0
M  V30 4282 N 400.565 -0.0233959 1.57583 0
M  V30 4283 C 401.811 -0.714119 1.89811 0
M  V30 4284 C 402.144 -1.74702 0.848113 0
M  V30 4285 O 401.419 -1.94023 -0.136135 0
M  V30 4286 C 401.702 -1.37853 3.32669 0
M  V30 4287 C 401.555 -0.358764 4.48367 0
M  V30 4288 C 402.874 -2.31101 3.7454 0
M  V30 4289 H 399.993 -0.25814 0.690314 0
M  V30 4290 H 402.635 0.0230927 1.89986 0
M  V30 4291 H 400.785 -2.00689 3.3265 0
M  V30 4292 H 402.457 0.268115 4.6052 0
M  V30 4293 H 400.7 0.321387 4.32608 0
M  V30 4294 H 401.371 -0.862242 5.45224 0
M  V30 4295 H 403.847 -1.78304 3.75961 0
M  V30 4296 H 402.723 -2.74567 4.75294 0
M  V30 4297 H 402.984 -3.18018 3.0711 0
M  V30 4298 N 402.043 -1.548 -0.295768 0
M  V30 4299 C 402.973 -1.89115 -1.36959 0
M  V30 4300 C 403.954 -0.75059 -1.52644 0
M  V30 4301 O 405.139 -1.00678 -1.66065 0
M  V30 4302 C 402.269 -2.14307 -2.73295 0
M  V30 4303 C 401.223 -3.30151 -2.72368 0
M  V30 4304 C 400.549 -3.40772 -4.12042 0
M  V30 4305 C 401.849 -4.67126 -2.33646 0
M  V30 4306 H 403.543 -2.79053 -1.08488 0
M  V30 4307 H 401.089 -1.34266 -0.520443 0
M  V30 4308 H 403.042 -2.36898 -3.48507 0
M  V30 4309 H 401.766 -1.21145 -3.03301 0
M  V30 4310 H 400.425 -3.0749 -1.99613 0
M  V30 4311 H 400.073 -2.45117 -4.39234 0
M  V30 4312 H 399.773 -4.18645 -4.12322 0
M  V30 4313 H 401.297 -3.6563 -4.89027 0
M  V30 4314 H 402.711 -4.89414 -2.98575 0
M  V30 4315 H 401.108 -5.47751 -2.45129 0
M  V30 4316 H 402.178 -4.67489 -1.28772 0
M  V30 4317 N 403.521 0.559213 -1.47345 0
M  V30 4318 C 404.484 1.64854 -1.59235 0
M  V30 4319 C 405.484 1.53851 -0.467607 0
M  V30 4320 O 406.674 1.58045 -0.732617 0
M  V30 4321 C 403.806 3.04388 -1.53496 0
M  V30 4322 H 404.999 1.55662 -2.56339 0
M  V30 4323 H 402.552 0.778973 -1.35505 0
M  V30 4324 H 403.287 3.19115 -0.577604 0
M  V30 4325 H 403.072 3.13783 -2.35123 0
M  V30 4326 H 404.562 3.83642 -1.6495 0
M  V30 4327 N 404.999 1.35443 0.805782 0
M  V30 4328 C 405.909 1.30546 1.94923 0
M  V30 4329 C 406.925 0.210233 1.72725 0
M  V30 4330 O 408.101 0.43975 1.9654 0
M  V30 4331 C 405.166 1.07782 3.29521 0
M  V30 4332 C 404.227 2.26625 3.64609 0
M  V30 4333 C 403.46 2.04938 4.92784 0
M  V30 4334 O 403.683 1.01624 5.61274 0
M  V30 4335 O 402.617 2.9232 5.26149 0
M  V30 4336 H 406.443 2.26779 2.02002 0
M  V30 4337 H 404.028 1.15823 0.943682 0
M  V30 4338 H 405.91 0.969392 4.10098 0
M  V30 4339 H 404.585 0.146003 3.23371 0
M  V30 4340 H 403.492 2.43033 2.84404 0
M  V30 4341 H 404.825 3.18257 3.75464 0
M  V30 4342 N 406.477 -1.02803 1.19454 0
M  V30 4343 C 407.702 -1.80378 1.02364 0
M  V30 4344 C 408.127 -1.83282 -0.423007 0
M  V30 4345 O 407.485 -1.25945 -1.30413 0
M  V30 4346 C 407.533 -3.23248 1.59821 0
M  V30 4347 O 406.637 -4.04 0.828105 0
M  V30 4348 H 405.978 -0.556799 0.361761 0
M  V30 4349 H 408.508 -1.29385 1.58495 0
M  V30 4350 H 408.518 -3.73994 1.63073 0
M  V30 4351 H 407.193 -3.2045 2.65113 0
M  V30 4352 H 405.77 -3.62635 0.86891 0
M  V30 4353 N 407.956 -0.998596 -1.21925 0
M  V30 4354 C 409.203 -0.677663 -1.90824 0
M  V30 4355 C 409.531 0.790905 -1.77693 0
M  V30 4356 O 408.786 1.58817 -1.14349 0
M  V30 4357 C 409.085 -1.03648 -3.42041 0
M  V30 4358 C 408.751 -2.49825 -3.75364 0
M  V30 4359 C 407.413 -2.8977 -3.8417 0
M  V30 4360 C 409.765 -3.44545 -3.91073 0
M  V30 4361 C 407.093 -4.23412 -4.06127 0
M  V30 4362 C 409.445 -4.77853 -4.14535 0
M  V30 4363 C 408.109 -5.17531 -4.21566 0
M  V30 4364 H 407.379 -0.247975 -0.698276 0
M  V30 4365 H 410.026 -1.25584 -1.44571 0
M  V30 4366 H 408.331 -0.376457 -3.89987 0
M  V30 4367 H 410.028 -0.766113 -3.93614 0
M  V30 4368 H 406.618 -2.17866 -3.69097 0
M  V30 4369 H 410.802 -3.14853 -3.83642 0
M  V30 4370 H 406.058 -4.53734 -4.09799 0
M  V30 4371 H 410.232 -5.51189 -4.25633 0
M  V30 4372 H 407.859 -6.21102 -4.38333 0
M  V30 4373 N 409.434 1.37368 -0.772513 0
M  V30 4374 C 410.85 1.53059 -0.452231 0
M  V30 4375 C 411.05 1.73065 1.03203 0
M  V30 4376 O 410.106 1.75245 1.81784 0
M  V30 4377 C 411.419 2.72659 -1.26797 0
M  V30 4378 C 412.967 2.86521 -1.25995 0
M  V30 4379 C 413.442 4.09105 -2.05905 0
M  V30 4380 N 414.933 4.16219 -2.03263 0
M  V30 4381 C 415.668 5.10107 -2.61875 0
M  V30 4382 N 415.164 6.09547 -3.29278 0
M  V30 4383 N 416.957 5.02596 -2.51701 0
M  V30 4384 H 409.108 1.22634 -1.7342 0
M  V30 4385 H 411.371 0.597206 -0.736239 0
M  V30 4386 H 411.077 2.64343 -2.31982 0
M  V30 4387 H 410.951 3.66363 -0.897672 0
M  V30 4388 H 413.338 2.94308 -0.216081 0
M  V30 4389 H 413.419 1.93774 -1.66989 0
M  V30 4390 H 413.063 4.0208 -3.10313 0
M  V30 4391 H 412.993 5.00968 -1.62292 0
M  V30 4392 H 415.484 3.45012 -1.54192 0
M  V30 4393 H 415.797 6.77718 -3.71374 0
M  V30 4394 H 414.142 6.09824 -3.33377 0
M  V30 4395 H 417.333 4.23855 -1.98657 0
M  V30 4396 H 417.506 5.75582 -2.97673 0
M  V30 4397 N 410.912 0.523116 1.48665 0
M  V30 4398 C 412.189 -0.0775449 1.95446 0
M  V30 4399 C 412.569 -1.5197 1.4652 0
M  V30 4400 O 411.917 -2.17876 0.688657 0
M  V30 4401 C 412.127 0.0326135 3.48985 0
M  V30 4402 C 413.475 -0.130141 4.24401 0
M  V30 4403 O 414.499 -0.0415142 3.56176 0
M  V30 4404 O 413.358 -0.31491 5.45592 0
M  V30 4405 H 410.452 -0.0831012 0.822814 0
M  V30 4406 H 412.998 0.587227 1.59216 0
M  V30 4407 H 411.77 1.03748 3.77296 0
M  V30 4408 H 411.393 -0.671317 3.91892 0
M  V30 4409 N 412.39 -1.55475 0.257931 0
M  V30 4410 C 413.3 -2.2549 -0.647425 0
M  V30 4411 C 414.316 -1.2748 -1.18427 0
M  V30 4412 O 415.492 -1.6038 -1.2182 0
M  V30 4413 C 412.557 -2.94916 -1.82278 0
M  V30 4414 C 411.618 -4.08363 -1.32432 0
M  V30 4415 C 410.851 -4.74469 -2.44366 0
M  V30 4416 O 411.074 -4.39701 -3.63344 0
M  V30 4417 O 410.008 -5.62763 -2.13497 0
M  V30 4418 H 413.834 -3.03593 -0.0807707 0
M  V30 4419 H 411.419 -1.49377 0.0259962 0
M  V30 4420 H 413.301 -3.38606 -2.50846 0
M  V30 4421 H 411.976 -2.19744 -2.37685 0
M  V30 4422 H 410.883 -3.69166 -0.605605 0
M  V30 4423 H 412.216 -4.85385 -0.816211 0
M  V30 4424 N 413.868 0.0150385 -1.57593 0
M  V30 4425 C 415.116 0.701613 -1.8953 0
M  V30 4426 C 415.437 1.75139 -0.857396 0
M  V30 4427 O 414.707 1.95607 0.107194 0
M  V30 4428 H 413.287 0.26213 -0.699498 0
M  V30 4429 H 415.949 -0.0223304 -1.94887 0
M  V30 4430 H 415.045 1.18236 -2.88837 0
M  V30 4431 N 415.346 1.54954 0.287554 0
M  V30 4432 C 416.586 1.76617 1.02887 0
M  V30 4433 C 416.95 0.547759 1.84021 0
M  V30 4434 O 418.151 0.642365 2.61012 0
M  V30 4435 C 416.422 3.02717 1.89993 0
M  V30 4436 S 417.981 3.45438 2.70588 0
M  V30 4437 H 414.799 0.6207 0.346775 0
M  V30 4438 H 417.401 1.93172 0.30082 0
M  V30 4439 H 416.105 3.89503 1.29287 0
M  V30 4440 H 415.636 2.88787 2.67144 0
M  V30 4441 H 417.651 3.03566 3.92508 0
M  V30 4442 N 416.824 -0.551391 1.4764 0
M  V30 4443 C 418.052 -1.33357 1.58189 0
M  V30 4444 C 418.467 -1.87342 0.234199 0
M  V30 4445 O 417.824 -1.65301 -0.77343 0
M  V30 4446 C 417.875 -2.49942 2.61173 0
M  V30 4447 O 417.596 -1.98187 3.90709 0
M  V30 4448 C 419.097 -3.42072 2.8196 0
M  V30 4449 H 416.317 -0.40631 0.533998 0
M  V30 4450 H 418.861 -0.667367 1.93304 0
M  V30 4451 H 417.016 -3.12489 2.28975 0
M  V30 4452 H 417.43 -2.74342 4.47031 0
M  V30 4453 H 418.904 -4.20278 3.57869 0
M  V30 4454 H 419.381 -3.95978 1.89995 0
M  V30 4455 H 419.987 -2.85336 3.15378 0
M  V30 4456 N 418.302 -1.35869 -0.798587 0
M  V30 4457 C 419.548 -1.2978 -1.55836 0
M  V30 4458 C 419.881 0.125322 -1.93795 0
M  V30 4459 O 419.156 1.07658 -1.61987 0
M  V30 4460 C 419.439 -2.21188 -2.84162 0
M  V30 4461 C 419.292 -3.72155 -2.52628 0
M  V30 4462 C 420.611 -2.11545 -3.85923 0
M  V30 4463 H 417.73 -0.472769 -0.565383 0
M  V30 4464 H 420.372 -1.66341 -0.918192 0
M  V30 4465 H 418.522 -1.90139 -3.38791 0
M  V30 4466 H 420.194 -4.13682 -2.04121 0
M  V30 4467 H 418.437 -3.92042 -1.85704 0
M  V30 4468 H 419.108 -4.31511 -3.44242 0
M  V30 4469 H 421.584 -2.38855 -3.40716 0
M  V30 4470 H 420.46 -2.77688 -4.73477 0
M  V30 4471 H 420.721 -1.09987 -4.282 0
M  V30 4472 N 419.78 1.02168 -1.19998 0
M  V30 4473 C 420.727 2.10601 -0.944228 0
M  V30 4474 C 421.697 1.65639 0.123664 0
M  V30 4475 O 422.882 1.9079 -0.0199941 0
M  V30 4476 C 420.022 3.41504 -0.496865 0
M  V30 4477 C 419.135 3.99973 -1.63234 0
M  V30 4478 C 418.27 5.18915 -1.13579 0
M  V30 4479 C 417.309 5.69456 -2.24468 0
M  V30 4480 N 416.446 6.79665 -1.76068 0
M  V30 4481 H 421.286 2.31814 -1.8726 0
M  V30 4482 H 418.823 1.13686 -0.933483 0
M  V30 4483 H 420.781 4.16626 -0.218843 0
M  V30 4484 H 419.411 3.2038 0.394508 0
M  V30 4485 H 418.463 3.21997 -2.0254 0
M  V30 4486 H 419.775 4.33492 -2.46752 0
M  V30 4487 H 418.929 6.01222 -0.813429 0
M  V30 4488 H 417.668 4.8695 -0.270434 0
M  V30 4489 H 416.673 4.85757 -2.57526 0
M  V30 4490 H 417.898 6.03459 -3.11472 0
M  V30 4491 H 415.844 6.49538 -0.918516 0
M  V30 4492 H 415.761 7.12349 -2.5317 0
M  V30 4493 H 417.029 7.65549 -1.46817 0
M  V30 4494 N 421.258 1.00505 1.21394 0
M  V30 4495 C 422.188 0.585684 2.26035 0
M  V30 4496 C 423.169 -0.393525 1.65485 0
M  V30 4497 O 424.354 -0.281497 1.92149 0
M  V30 4498 C 421.484 -0.0884283 3.47187 0
M  V30 4499 C 420.438 0.810567 4.20254 0
M  V30 4500 C 419.764 0.00286382 5.347 0
M  V30 4501 C 421.064 2.1132 4.77641 0
M  V30 4502 H 422.758 1.46039 2.61368 0
M  V30 4503 H 420.304 0.703648 1.25638 0
M  V30 4504 H 422.257 -0.393286 4.19561 0
M  V30 4505 H 420.981 -0.997766 3.10986 0
M  V30 4506 H 419.64 1.09925 3.49731 0
M  V30 4507 H 419.288 -0.907765 4.94741 0
M  V30 4508 H 418.988 0.601444 5.84514 0
M  V30 4509 H 420.512 -0.295808 6.09883 0
M  V30 4510 H 421.926 1.87148 5.41893 0
M  V30 4511 H 420.323 2.66164 5.37845 0
M  V30 4512 H 421.393 2.78393 3.9702 0
M  V30 4513 N 422.737 -1.36956 0.779787 0
M  V30 4514 C 423.67 -2.27896 0.117681 0
M  V30 4515 C 424.648 -1.46736 -0.700523 0
M  V30 4516 O 425.832 -1.76055 -0.673568 0
M  V30 4517 C 422.959 -3.28136 -0.839296 0
M  V30 4518 C 422.005 -4.26373 -0.10409 0
M  V30 4519 S 422.838 -5.2157 1.21348 0
M  V30 4520 C 423.994 -6.25359 0.260249 0
M  V30 4521 H 424.227 -2.83704 0.888778 0
M  V30 4522 H 421.76 -1.43352 0.57355 0
M  V30 4523 H 423.718 -3.86394 -1.38601 0
M  V30 4524 H 422.379 -2.7126 -1.58356 0
M  V30 4525 H 421.572 -4.97121 -0.82986 0
M  V30 4526 H 421.174 -3.72147 0.371858 0
M  V30 4527 H 423.466 -6.75145 -0.564435 0
M  V30 4528 H 424.409 -7.01885 0.936135 0
M  V30 4529 H 424.817 -5.64345 -0.132127 0
M  V30 4530 N 424.215 -0.530993 -1.48385 0
M  V30 4531 C 425.461 -0.00538653 -2.03399 0
M  V30 4532 C 425.816 1.31899 -1.40073 0
M  V30 4533 O 425.109 1.83901 -0.537676 0
M  V30 4534 C 425.303 0.172742 -3.56982 0
M  V30 4535 C 425.132 -1.13282 -4.35198 0
M  V30 4536 C 423.902 -1.69296 -4.76096 0
M  V30 4537 C 426.1 -2.04367 -4.71952 0
M  V30 4538 N 424.082 -2.9413 -5.38851 0
M  V30 4539 C 425.453 -3.13777 -5.34737 0
M  V30 4540 C 427.508 -2.04681 -4.53883 0
M  V30 4541 C 426.211 -4.23567 -5.81363 0
M  V30 4542 C 428.237 -3.13466 -5.01491 0
M  V30 4543 C 427.599 -4.21595 -5.64302 0
M  V30 4544 H 423.698 -0.0434945 -0.780789 0
M  V30 4545 H 426.282 -0.712495 -1.81195 0
M  V30 4546 H 424.453 0.848937 -3.79009 0
M  V30 4547 H 426.185 0.698046 -3.98634 0
M  V30 4548 H 422.94 -1.23422 -4.57235 0
M  V30 4549 H 423.364 -3.57689 -5.74794 0
M  V30 4550 H 428.006 -1.22378 -4.04702 0
M  V30 4551 H 425.724 -5.06648 -6.2955 0
M  V30 4552 H 429.31 -3.14765 -4.893 0
M  V30 4553 H 428.19 -5.04384 -6.00472 0
M  V30 4554 N 425.693 1.55336 -0.266172 0
M  V30 4555 C 426.933 2.01303 0.354459 0
M  V30 4556 C 427.297 1.15046 1.53715 0
M  V30 4557 O 428.498 1.50554 2.22681 0
M  V30 4558 C 426.769 3.49748 0.735579 0
M  V30 4559 S 428.328 4.1771 1.34401 0
M  V30 4560 H 425.146 0.702333 0.110674 0
M  V30 4561 H 427.748 1.91653 -0.385916 0
M  V30 4562 H 426.452 4.10181 -0.134196 0
M  V30 4563 H 425.983 3.63364 1.50764 0
M  V30 4564 H 427.998 4.20594 2.63278 0
M  V30 4565 N 427.171 -0.0066808 1.57599 0
M  V30 4566 C 428.118 -1.00024 2.08 0
M  V30 4567 C 429.088 -1.34549 0.973943 0
M  V30 4568 O 430.273 -1.44502 1.24595 0
M  V30 4569 C 427.413 -2.2891 2.58252 0
M  V30 4570 C 426.526 -2.00346 3.82734 0
M  V30 4571 C 425.661 -3.23265 4.21513 0
M  V30 4572 C 424.7 -2.90357 5.3885 0
M  V30 4573 N 423.837 -4.05793 5.72954 0
M  V30 4574 H 428.677 -0.563499 2.92624 0
M  V30 4575 H 426.214 -0.266592 1.44664 0
M  V30 4576 H 428.172 -3.04247 2.85464 0
M  V30 4577 H 426.802 -2.70265 1.76512 0
M  V30 4578 H 425.854 -1.15406 3.62471 0
M  V30 4579 H 427.166 -1.72086 4.68175 0
M  V30 4580 H 426.32 -4.06953 4.49971 0
M  V30 4581 H 425.059 -3.54657 3.34768 0
M  V30 4582 H 424.064 -2.05075 5.10122 0
M  V30 4583 H 425.289 -2.60219 6.27266 0
M  V30 4584 H 423.235 -4.37094 4.89167 0
M  V30 4585 H 423.152 -3.81034 6.52954 0
M  V30 4586 H 424.42 -4.90289 6.06001 0
M  V30 4587 N 428.649 -1.55105 -0.279332 0
M  V30 4588 C 429.612 -1.86783 -1.32834 0
M  V30 4589 C 430.612 -0.74199 -1.42657 0
M  V30 4590 O 431.802 -1.0102 -1.41918 0
M  V30 4591 C 428.934 -2.06746 -2.71052 0
M  V30 4592 H 430.127 -2.8055 -1.05979 0
M  V30 4593 H 427.68 -1.47499 -0.517087 0
M  V30 4594 H 428.415 -1.15339 -3.03097 0
M  V30 4595 H 428.2 -2.88711 -2.65309 0
M  V30 4596 H 429.69 -2.32549 -3.46858 0
M  V30 4597 N 430.127 0.543554 -1.4793 0
M  V30 4598 C 431.367 1.31072 -1.56843 0
M  V30 4599 C 431.731 1.90604 -0.231124 0
M  V30 4600 O 432.932 2.68091 -0.195165 0
M  V30 4601 C 431.203 2.38106 -2.66533 0
M  V30 4602 S 432.762 3.24729 -2.95122 0
M  V30 4603 H 429.58 0.446035 -0.553691 0
M  V30 4604 H 432.182 0.620777 -1.85382 0
M  V30 4605 H 430.886 1.92828 -3.62278 0
M  V30 4606 H 430.417 3.11824 -2.39852 0
M  V30 4607 H 432.432 4.37891 -2.3338 0
M  V30 4608 N 431.605 1.3629 0.791371 0
M  V30 4609 C 432.555 1.26988 1.89362 0
M  V30 4610 C 433.539 0.161795 1.60084 0
M  V30 4611 O 434.731 0.394426 1.72549 0
M  V30 4612 C 431.86 1.05944 3.26544 0
M  V30 4613 C 430.946 2.21211 3.61838 0
M  V30 4614 N 431.337 3.46518 3.68455 0
M  V30 4615 C 429.635 2.12933 3.91887 0
M  V30 4616 C 430.336 4.2241 3.99931 0
M  V30 4617 N 429.312 3.51329 4.14812 0
M  V30 4618 H 433.114 2.21908 1.92702 0
M  V30 4619 H 430.628 1.28982 0.986787 0
M  V30 4620 H 432.625 0.973666 4.05371 0
M  V30 4621 H 431.285 0.119223 3.24481 0
M  V30 4622 H 432.296 3.80677 3.51148 0
M  V30 4623 H 428.973 1.26855 3.97761 0
M  V30 4624 H 430.363 5.30767 4.1199 0
M  V30 4625 N 433.083 -1.0153 1.20538 0
M  V30 4626 C 434.033 -2.08482 0.922991 0
M  V30 4627 C 435.017 -1.60469 -0.117702 0
M  V30 4628 O 436.209 -1.76772 0.0898465 0
M  V30 4629 C 433.338 -3.39952 0.478312 0
M  V30 4630 C 432.424 -3.94662 1.5525 0
M  V30 4631 N 432.815 -4.22866 2.77521 0
M  V30 4632 C 431.113 -4.22825 1.41897 0
M  V30 4633 C 431.814 -4.67002 3.4682 0
M  V30 4634 N 430.79 -4.69356 2.74237 0
M  V30 4635 H 434.592 -2.28199 1.85209 0
M  V30 4636 H 432.106 -1.19512 1.09957 0
M  V30 4637 H 434.103 -4.16105 0.257408 0
M  V30 4638 H 432.763 -3.21648 -0.444148 0
M  V30 4639 H 433.774 -4.11732 3.1416 0
M  V30 4640 H 430.451 -4.13714 0.561015 0
M  V30 4641 H 431.841 -4.97632 4.51455 0
M  V30 4642 N 434.561 -1.01147 -1.20859 0
M  V30 4643 C 435.786 -0.716698 -1.94623 0
M  V30 4644 C 436.211 0.715415 -1.73964 0
M  V30 4645 O 435.569 1.49157 -1.03062 0
M  V30 4646 C 435.617 -1.0513 -3.44935 0
M  V30 4647 O 434.721 -0.160131 -4.12089 0
M  V30 4648 H 434.062 -0.266404 -0.608214 0
M  V30 4649 H 436.592 -1.35346 -1.53436 0
M  V30 4650 H 436.602 -1.00086 -3.95533 0
M  V30 4651 H 435.277 -2.09475 -3.59295 0
M  V30 4652 H 433.854 -0.267657 -3.71938 0
M  V30 4653 N 436.039 1.36541 -0.78704 0
M  V30 4654 C 436.971 2.28761 -0.141773 0
M  V30 4655 C 437.984 1.49365 0.647599 0
M  V30 4656 O 439.173 1.71836 0.483173 0
M  V30 4657 C 436.273 3.28771 0.822368 0
M  V30 4658 C 435.446 4.3732 0.0835594 0
M  V30 4659 C 434.505 5.17307 0.963296 0
M  V30 4660 O 433.531 5.67638 0.421419 0
M  V30 4661 N 434.733 5.33515 2.28784 0
M  V30 4662 H 437.498 2.84777 -0.933919 0
M  V30 4663 H 435.059 1.48682 -0.640735 0
M  V30 4664 H 437.051 3.79169 1.41468 0
M  V30 4665 H 435.621 2.73412 1.5154 0
M  V30 4666 H 434.841 3.88118 -0.689809 0
M  V30 4667 H 436.129 5.0701 -0.426358 0
M  V30 4668 H 435.527 4.94234 2.75226 0
M  V30 4669 H 434.084 5.87165 2.82985 0
M  V30 4670 N 437.518 0.538854 1.48102 0
M  V30 4671 C 438.767 0.0059532 2.01699 0
M  V30 4672 C 439.08 -1.34476 1.42041 0
M  V30 4673 O 440.286 -1.96653 1.87189 0
M  V30 4674 C 438.742 -0.0397627 3.59878 0
M  V30 4675 C 438.35 1.30659 4.28523 0
M  V30 4676 C 440.094 -0.521024 4.2129 0
M  V30 4677 C 438.001 1.22098 5.78659 0
M  V30 4678 H 436.931 -0.00154456 0.753998 0
M  V30 4679 H 439.582 0.683963 1.70277 0
M  V30 4680 H 437.964 -0.783037 3.88181 0
M  V30 4681 H 439.138 2.06613 4.11883 0
M  V30 4682 H 437.453 1.7243 3.79021 0
M  V30 4683 H 440.05 -0.603184 5.31287 0
M  V30 4684 H 440.393 -1.52885 3.8721 0
M  V30 4685 H 440.926 0.166834 3.9745 0
M  V30 4686 H 437.665 2.20424 6.17328 0
M  V30 4687 H 437.185 0.50295 5.97688 0
M  V30 4688 H 438.864 0.915345 6.40492 0
M  V30 4689 N 438.996 -1.55193 0.274407 0
M  V30 4690 C 439.929 -2.18606 -0.654712 0
M  V30 4691 C 440.907 -1.14677 -1.15273 0
M  V30 4692 O 442.091 -1.43198 -1.22583 0
M  V30 4693 C 439.218 -2.80875 -1.89281 0
M  V30 4694 C 438.264 -3.981 -1.53032 0
M  V30 4695 S 439.097 -5.32025 -0.609107 0
M  V30 4696 C 440.253 -5.97761 -1.85559 0
M  V30 4697 H 440.486 -2.97074 -0.115894 0
M  V30 4698 H 438.019 -1.54288 0.05867 0
M  V30 4699 H 439.977 -3.17381 -2.60345 0
M  V30 4700 H 438.638 -2.02302 -2.40277 0
M  V30 4701 H 437.831 -4.40356 -2.45158 0
M  V30 4702 H 437.433 -3.63013 -0.899874 0
M  V30 4703 H 439.725 -6.16951 -2.7996 0
M  V30 4704 H 440.668 -6.92545 -1.47605 0
M  V30 4705 H 441.076 -5.27113 -2.02021 0
M  V30 4706 N 440.474 -0.00167713 -1.576 0
M  V30 4707 C 441.699 0.69739 -1.95323 0
M  V30 4708 C 442.124 1.6642 -0.876706 0
M  V30 4709 O 441.482 1.80548 0.165007 0
M  V30 4710 C 441.53 1.40403 -3.32144 0
M  V30 4711 O 440.634 2.5185 -3.26566 0
M  V30 4712 H 439.975 0.185373 -0.637599 0
M  V30 4713 H 442.505 -0.0553665 -2.04525 0
M  V30 4714 H 442.515 1.76707 -3.67748 0
M  V30 4715 H 441.19 0.695167 -4.10049 0
M  V30 4716 H 439.767 2.17861 -3.0264 0
M  V30 4717 N 441.952 1.55251 0.271103 0
M  V30 4718 C 442.862 1.9136 1.35714 0
M  V30 4719 C 443.878 0.811075 1.5394 0
M  V30 4720 O 445.054 1.11031 1.6803 0
M  V30 4721 C 442.119 2.1798 2.69603 0
M  V30 4722 C 441.18 3.4153 2.60107 0
M  V30 4723 C 440.413 3.66871 3.8761 0
M  V30 4724 O 440.636 2.94689 4.8838 0
M  V30 4725 O 439.57 4.60405 3.87699 0
M  V30 4726 H 443.396 2.83815 1.08088 0
M  V30 4727 H 440.981 1.41821 0.469792 0
M  V30 4728 H 442.863 2.36518 3.48765 0
M  V30 4729 H 441.538 1.28708 2.97012 0
M  V30 4730 H 440.445 3.28325 1.79314 0
M  V30 4731 H 441.778 4.31027 2.37647 0
M  V30 4732 N 443.43 -0.535701 1.48216 0
M  V30 4733 C 444.679 -1.28828 1.55197 0
M  V30 4734 C 444.992 -1.94263 0.228278 0
M  V30 4735 O 446.198 -2.70927 0.176278 0
M  V30 4736 C 444.654 -2.33727 2.73678 0
M  V30 4737 C 444.262 -1.74386 4.12666 0
M  V30 4738 C 446.006 -3.1003 2.89968 0
M  V30 4739 C 443.913 -2.77192 5.22416 0
M  V30 4740 H 442.843 -0.484484 0.577747 0
M  V30 4741 H 445.494 -0.56646 1.74538 0
M  V30 4742 H 443.876 -3.08919 2.4776 0
M  V30 4743 H 445.05 -1.05421 4.48579 0
M  V30 4744 H 443.365 -1.10595 4.01445 0
M  V30 4745 H 445.962 -3.86842 3.6913 0
M  V30 4746 H 446.305 -3.65542 1.9921 0
M  V30 4747 H 446.838 -2.41952 3.15759 0
M  V30 4748 H 443.577 -2.26507 6.15122 0
M  V30 4749 H 443.097 -3.44502 4.90998 0
M  V30 4750 H 444.776 -3.40285 5.50286 0
M  V30 4751 N 444.908 -1.36708 -0.784132 0
M  V30 4752 C 446.133 -1.34565 -1.5782 0
M  V30 4753 C 446.558 0.0695257 -1.87971 0
M  V30 4754 O 445.916 1.04302 -1.48293 0
M  V30 4755 C 445.964 -2.17952 -2.87279 0
M  V30 4756 O 445.068 -1.57563 -3.81114 0
M  V30 4757 H 444.409 -0.460337 -0.478524 0
M  V30 4758 H 446.939 -1.80064 -0.971495 0
M  V30 4759 H 446.949 -2.30721 -3.365 0
M  V30 4760 H 445.624 -3.20823 -2.64661 0
M  V30 4761 H 444.201 -1.53764 -3.39722 0
M  V30 4762 N 446.386 1.0089 -1.21074 0
M  V30 4763 C 447.663 1.71834 -0.934469 0
M  V30 4764 C 448.043 2.0368 0.554753 0
M  V30 4765 O 447.391 1.70742 1.51854 0
M  V30 4766 C 447.601 2.98061 -1.8155 0
M  V30 4767 C 448.949 3.7117 -2.06199 0
M  V30 4768 O 449.973 3.08034 -1.78867 0
M  V30 4769 O 448.832 4.84721 -2.52404 0
M  V30 4770 H 445.926 0.749253 -0.35007 0
M  V30 4771 H 448.472 1.06668 -1.31985 0
M  V30 4772 H 447.244 2.70908 -2.82355 0
M  V30 4773 H 446.867 3.70968 -1.43068 0
M  V30 4774 N 447.864 1.01787 1.20321 0
M  V30 4775 C 448.827 0.593972 2.2137 0
M  V30 4776 C 449.827 -0.336553 1.57239 0
M  V30 4777 O 451.017 -0.125069 1.7375 0
M  V30 4778 C 448.149 -0.132433 3.40643 0
M  V30 4779 H 449.342 1.48791 2.60387 0
M  V30 4780 H 446.895 0.807803 1.33807 0
M  V30 4781 H 447.63 -1.04123 3.0713 0
M  V30 4782 H 447.415 0.53605 3.88418 0
M  V30 4783 H 448.905 -0.416314 4.1552 0
M  V30 4784 N 449.342 -1.36122 0.79427 0
M  V30 4785 C 450.59 -1.98718 0.368177 0
M  V30 4786 C 450.911 -1.63345 -1.06506 0
M  V30 4787 O 450.181 -0.909825 -1.73491 0
M  V30 4788 H 448.761 -0.735038 0.133146 0
M  V30 4789 H 451.423 -1.66239 1.01739 0
M  V30 4790 H 450.519 -3.08633 0.463923 0
M  V30 4791 N 450.82 -0.546701 -1.47814 0
M  V30 4792 C 451.783 0.196287 -2.28358 0
M  V30 4793 C 452.783 0.852437 -1.36346 0
M  V30 4794 O 453.973 0.709913 -1.59078 0
M  V30 4795 C 451.105 1.28579 -3.15722 0
M  V30 4796 H 452.298 -0.511086 -2.95513 0
M  V30 4797 H 449.851 -0.303248 -1.5333 0
M  V30 4798 H 450.586 2.0259 -2.53235 0
M  V30 4799 H 450.371 0.820229 -3.83425 0
M  V30 4800 H 451.861 1.80793 -3.76435 0
M  V30 4801 N 452.299 1.55045 -0.282633 0
M  V30 4802 C 453.545 2.00056 0.332481 0
M  V30 4803 C 453.878 1.1708 1.54939 0
M  V30 4804 O 453.153 0.2427 1.9298 0
M  V30 4805 C 453.436 3.53086 0.70725 0
M  V30 4806 C 453.289 4.46813 -0.517521 0
M  V30 4807 C 454.608 4.12245 1.54084 0
M  V30 4808 H 451.727 0.727268 0.119373 0
M  V30 4809 H 454.369 1.85932 -0.391076 0
M  V30 4810 H 452.519 3.65253 1.32372 0
M  V30 4811 H 454.191 4.46579 -1.15607 0
M  V30 4812 H 452.434 4.18163 -1.1542 0
M  V30 4813 H 453.105 5.51595 -0.211426 0
M  V30 4814 H 455.581 4.03401 1.02013 0
M  V30 4815 H 454.457 5.19515 1.77186 0
M  V30 4816 H 454.718 3.62951 2.52427 0
M  V30 4817 N 453.777 0.010035 1.57597 0
M  V30 4818 C 455.026 -0.671945 1.90178 0
M  V30 4819 C 455.339 -1.74376 0.886131 0
M  V30 4820 O 456.545 -2.48107 1.10252 0
M  V30 4821 C 455.001 -1.24636 3.3763 0
M  V30 4822 C 454.609 -0.208838 4.47513 0
M  V30 4823 C 456.353 -1.90595 3.79307 0
M  V30 4824 C 454.26 -0.793814 5.86048 0
M  V30 4825 H 453.19 -0.25474 0.709665 0
M  V30 4826 H 455.841 0.0722206 1.83358 0
M  V30 4827 H 454.223 -2.04152 3.3932 0
M  V30 4828 H 455.397 0.562463 4.57354 0
M  V30 4829 H 453.712 0.350889 4.14919 0
M  V30 4830 H 456.309 -2.35284 4.80151 0
M  V30 4831 H 456.652 -2.74074 3.13352 0
M  V30 4832 H 457.185 -1.17798 3.79958 0
M  V30 4833 H 453.924 0.00240855 6.555 0
M  V30 4834 H 453.444 -1.53404 5.79851 0
M  V30 4835 H 455.123 -1.2894 6.34022 0
M  V30 4836 N 455.255 -1.55392 -0.262866 0
M  V30 4837 C 456.501 -1.76737 -0.99458 0
M  V30 4838 C 456.834 -0.572453 -1.85571 0
M  V30 4839 O 456.109 0.429732 -1.89693 0
M  V30 4840 C 456.392 -3.07824 -1.8686 0
M  V30 4841 C 456.245 -4.3769 -1.03672 0
M  V30 4842 C 457.564 -3.35021 -2.85393 0
M  V30 4843 H 454.683 -0.643005 -0.360157 0
M  V30 4844 H 457.325 -1.88126 -0.266216 0
M  V30 4845 H 455.475 -2.98245 -2.48962 0
M  V30 4846 H 457.147 -4.59238 -0.43563 0
M  V30 4847 H 455.39 -4.32461 -0.340513 0
M  V30 4848 H 456.061 -5.25759 -1.6817 0
M  V30 4849 H 458.537 -3.44458 -2.33426 0
M  V30 4850 H 457.413 -4.27989 -3.43681 0
M  V30 4851 H 457.674 -2.55153 -3.61039 0
M  V30 4852 N 456.733 0.527833 -1.48498 0
M  V30 4853 C 457.981 1.28101 -1.56316 0
M  V30 4854 C 458.302 1.9352 -0.239781 0
M  V30 4855 O 457.572 1.81433 0.738849 0
M  V30 4856 H 456.152 0.475793 -0.575873 0
M  V30 4857 H 458.814 0.614052 -1.84974 0
M  V30 4858 H 457.91 2.05916 -2.34532 0
M  V30 4859 N 458.211 1.37122 0.776871 0
M  V30 4860 C 459.436 1.354 1.57104 0
M  V30 4861 C 459.861 -0.0595562 1.88006 0
M  V30 4862 O 459.219 -1.03514 1.48844 0
M  V30 4863 C 459.267 2.19472 2.8612 0
M  V30 4864 O 458.371 1.59582 3.80273 0
M  V30 4865 H 457.712 0.462869 0.476076 0
M  V30 4866 H 460.242 1.80577 0.961932 0
M  V30 4867 H 460.252 2.32502 3.35271 0
M  V30 4868 H 458.927 3.22222 2.62956 0
M  V30 4869 H 457.504 1.55564 3.38902 0
M  V30 4870 N 459.689 -1.00246 1.21608 0
M  V30 4871 C 461.1 -1.55511 1.03312 0
M  V30 4872 C 461.451 -1.91946 -0.406332 0
M  V30 4873 O 460.576 -1.73753 -1.28992 0
M  V30 4874 C 461.171 -2.82576 1.86913 0
M  V30 4875 C 459.73 -3.34318 1.72941 0
M  V30 4876 C 458.877 -2.07487 1.83968 0
M  V30 4877 H 461.828 -0.824638 1.35593 0
M  V30 4878 H 461.849 -3.54559 1.38087 0
M  V30 4879 H 461.361 -2.56026 2.91672 0
M  V30 4880 H 459.462 -3.65797 0.70877 0
M  V30 4881 H 459.575 -4.05566 2.55055 0
M  V30 4882 H 457.939 -2.20603 1.27304 0
M  V30 4883 H 458.722 -1.83346 2.9024 0
M  V30 4884 N 461.167 -1.02423 -1.1978 0
M  V30 4885 C 462.395 -0.737456 -1.93311 0
M  V30 4886 C 462.81 0.703023 -1.75223 0
M  V30 4887 O 462.167 1.47761 -1.07112 0
M  V30 4888 C 462.218 -1.0733 -3.45199 0
M  V30 4889 O 461.939 -2.4572 -3.62702 0
M  V30 4890 C 463.44 -0.80866 -4.35862 0
M  V30 4891 H 460.66 -0.2702 -0.614193 0
M  V30 4892 H 463.204 -1.36747 -1.52054 0
M  V30 4893 H 461.359 -0.488545 -3.84307 0
M  V30 4894 H 461.773 -2.58081 -4.56612 0
M  V30 4895 H 463.247 -1.09365 -5.41057 0
M  V30 4896 H 463.724 0.257025 -4.38447 0
M  V30 4897 H 464.33 -1.37592 -4.02428 0
M  V30 4898 N 462.645 1.35699 -0.801477 0
M  V30 4899 C 463.595 2.2728 -0.181073 0
M  V30 4900 C 464.579 1.47533 0.642098 0
M  V30 4901 O 465.771 1.69785 0.500193 0
M  V30 4902 C 462.9 3.36626 0.673612 0
M  V30 4903 C 461.986 4.23802 -0.159008 0
M  V30 4904 N 462.377 4.90879 -1.2195 0
M  V30 4905 C 460.675 4.45959 0.0602005 0
M  V30 4906 C 461.376 5.5546 -1.72738 0
M  V30 4907 N 460.352 5.33663 -1.03465 0
M  V30 4908 H 464.154 2.76632 -0.992582 0
M  V30 4909 H 461.668 1.49166 -0.642127 0
M  V30 4910 H 463.665 4.01179 1.13408 0
M  V30 4911 H 462.325 2.88828 1.48353 0
M  V30 4912 H 463.336 4.92497 -1.60209 0
M  V30 4913 H 460.013 4.08969 0.839664 0
M  V30 4914 H 461.403 6.18991 -2.61342 0
M  V30 4915 N 464.123 0.554532 1.47522 0
M  V30 4916 C 465.071 -0.207765 2.3167 0
M  V30 4917 C 466.065 -0.911914 1.4276 0
M  V30 4918 O 467.271 -0.833504 1.59539 0
M  V30 4919 H 463.646 -0.0858726 0.747081 0
M  V30 4920 H 465.617 0.521178 2.93813 0
M  V30 4921 C 464.366 -1.2263 3.25357 0
M  V30 4922 H 463.689 -0.693887 3.93732 0
M  V30 4923 H 465.129 -1.73062 3.87073 0
M  V30 4924 C 463.588 -2.27278 2.4869 0
M  V30 4925 O 464.118 -3.34156 2.22941 0
M  V30 4926 N 462.324 -2.01134 2.09746 0
M  V30 4927 H 461.871 -1.14232 2.30887 0
M  V30 4928 H 461.829 -2.71369 1.58765 0
M  V30 4929 N 465.601 -1.54893 0.290851 0
M  V30 4930 C 466.549 -2.24579 -0.605576 0
M  V30 4931 C 467.543 -1.24824 -1.14522 0
M  V30 4932 O 468.749 -1.42706 -1.09704 0
M  V30 4933 H 465.124 -0.720946 -0.213872 0
M  V30 4934 H 467.095 -2.984 0.0048173 0
M  V30 4935 C 465.844 -2.99224 -1.77088 0
M  V30 4936 H 465.167 -3.75782 -1.36484 0
M  V30 4937 H 466.607 -3.51281 -2.3744 0
M  V30 4938 C 465.066 -2.05602 -2.66888 0
M  V30 4939 O 465.596 -1.61745 -3.67698 0
M  V30 4940 N 463.802 -1.71771 -2.34399 0
M  V30 4941 H 463.349 -2.07633 -1.52468 0
M  V30 4942 H 463.307 -1.09403 -2.94751 0
M  V30 4943 N 467.08 -0.0183926 -1.57589 0
M  V30 4944 C 468.328 0.661253 -1.90976 0
M  V30 4945 C 468.649 1.73281 -0.894353 0
M  V30 4946 O 467.919 1.9579 0.0656788 0
M  V30 4947 H 466.499 0.247233 -0.704901 0
M  V30 4948 H 469.161 -0.0636639 -1.94796 0
M  V30 4949 H 468.257 1.12083 -2.9128 0
M  V30 4950 N 468.558 1.5553 0.254621 0
M  V30 4951 C 469.807 1.76202 0.981612 0
M  V30 4952 C 470.12 0.580883 1.86776 0
M  V30 4953 O 471.326 0.670448 2.63092 0
M  V30 4954 C 469.782 3.11921 1.79537 0
M  V30 4955 C 469.39 4.37659 0.956991 0
M  V30 4956 C 471.134 3.41936 2.51555 0
M  V30 4957 C 469.041 5.64411 1.76619 0
M  V30 4958 H 467.971 0.656841 0.370237 0
M  V30 4959 H 470.622 1.81969 0.236556 0
M  V30 4960 H 469.004 3.00241 2.58208 0
M  V30 4961 H 470.178 4.60307 0.21315 0
M  V30 4962 H 468.493 4.14922 0.350497 0
M  V30 4963 H 471.09 4.33849 3.12536 0
M  V30 4964 H 471.433 2.62905 3.22779 0
M  V30 4965 H 471.966 3.54797 1.799 0
M  V30 4966 H 468.705 6.46241 1.09783 0
M  V30 4967 H 468.225 5.45877 2.48551 0
M  V30 4968 H 469.904 6.03386 2.33527 0
M  V30 4969 N 470.036 -0.519951 1.48776 0
M  V30 4970 C 470.966 -1.63253 1.66945 0
M  V30 4971 C 471.947 -1.62014 0.518224 0
M  V30 4972 O 473.132 -1.79053 0.751919 0
M  V30 4973 C 470.262 -3.0181 1.71836 0
M  V30 4974 C 469.216 -3.17911 2.8656 0
M  V30 4975 C 468.542 -4.5763 2.76548 0
M  V30 4976 C 469.842 -2.99729 4.27738 0
M  V30 4977 H 471.536 -1.48302 2.6009 0
M  V30 4978 H 469.082 -0.712026 1.25165 0
M  V30 4979 H 471.035 -3.79525 1.83135 0
M  V30 4980 H 469.759 -3.17806 0.752775 0
M  V30 4981 H 468.418 -2.42616 2.74833 0
M  V30 4982 H 468.066 -4.70476 1.77937 0
M  V30 4983 H 467.766 -4.69346 3.53536 0
M  V30 4984 H 469.29 -5.37431 2.89828 0
M  V30 4985 H 470.704 -3.67228 4.40246 0
M  V30 4986 H 469.101 -3.22932 5.05801 0
M  V30 4987 H 470.171 -1.96047 4.43502 0
M  V30 4988 N 471.514 -1.37532 -0.769588 0
M  V30 4989 C 472.925 -1.29382 -1.346 0
M  V30 4990 C 473.276 0.0576039 -1.96115 0
M  V30 4991 O 472.401 0.95947 -1.93967 0
M  V30 4992 C 472.996 -2.34298 -2.44724 0
M  V30 4993 C 471.555 -2.29776 -2.98128 0
M  V30 4994 C 470.702 -2.18013 -1.71364 0
M  V30 4995 H 473.653 -1.48123 -0.56968 0
M  V30 4996 H 473.674 -1.99089 -3.24259 0
M  V30 4997 H 473.186 -3.32645 -1.99922 0
M  V30 4998 H 471.287 -1.34959 -3.47299 0
M  V30 4999 H 471.4 -3.23276 -3.53595 0
M  V30 5000 H 469.764 -1.64595 -1.94372 0
M  V30 5001 H 470.547 -3.18278 -1.28662 0
M  V30 5002 N 472.992 0.995999 -1.22138 0
M  V30 5003 C 474.222 1.76809 -1.06874 0
M  V30 5004 C 474.63 1.85265 0.383866 0
M  V30 5005 O 473.973 1.31969 1.27789 0
M  V30 5006 C 474.035 3.2186 -1.60144 0
M  V30 5007 C 473.699 3.36958 -3.0872 0
M  V30 5008 C 474.696 3.2452 -4.0618 0
M  V30 5009 C 472.381 3.62109 -3.48112 0
M  V30 5010 C 474.375 3.37013 -5.41019 0
M  V30 5011 C 472.062 3.74243 -4.831 0
M  V30 5012 C 473.06 3.61702 -5.79362 0
M  V30 5013 O 472.748 3.73436 -7.119 0
M  V30 5014 H 472.48 0.562207 -0.375365 0
M  V30 5015 H 475.034 1.26113 -1.62125 0
M  V30 5016 H 473.264 3.73734 -0.992981 0
M  V30 5017 H 474.953 3.80775 -1.40589 0
M  V30 5018 H 475.719 3.05004 -3.77091 0
M  V30 5019 H 471.598 3.70949 -2.73712 0
M  V30 5020 H 475.142 3.27141 -6.16137 0
M  V30 5021 H 471.039 3.93266 -5.11872 0
M  V30 5022 H 471.807 3.90328 -7.19435 0
M  V30 5023 N 474.47 1.03057 1.19235 0
M  V30 5024 C 475.716 0.729098 1.89241 0
M  V30 5025 C 476.049 -0.740573 1.79525 0
M  V30 5026 O 475.324 -1.53946 1.18874 0
M  V30 5027 C 475.607 1.18304 3.40112 0
M  V30 5028 C 475.46 2.71406 3.5869 0
M  V30 5029 C 476.779 0.765161 4.33397 0
M  V30 5030 H 473.898 0.266338 0.687192 0
M  V30 5031 H 476.54 1.28079 1.40341 0
M  V30 5032 H 474.69 0.713672 3.81889 0
M  V30 5033 H 476.362 3.26303 3.26074 0
M  V30 5034 H 474.605 3.11717 3.01687 0
M  V30 5035 H 475.276 2.98225 4.64506 0
M  V30 5036 H 477.752 1.16889 3.99345 0
M  V30 5037 H 476.628 1.11065 5.37546 0
M  V30 5038 H 476.889 -0.332372 4.40849 0
M  V30 5039 N 475.948 -1.35272 0.808662 0
M  V30 5040 C 476.911 -2.28082 0.226093 0
M  V30 5041 C 477.911 -1.49673 -0.587762 0
M  V30 5042 O 479.101 -1.69404 -0.405943 0
M  V30 5043 C 476.233 -3.33955 -0.684596 0
M  V30 5044 H 477.426 -2.81116 1.04469 0
M  V30 5045 H 474.979 -1.45162 0.579466 0
M  V30 5046 H 475.714 -2.86111 -1.5268 0
M  V30 5047 H 475.499 -3.91965 -0.102699 0
M  V30 5048 H 476.989 -4.03219 -1.08646 0
M  V30 5049 N 477.426 -0.562348 -1.47226 0
M  V30 5050 C 478.674 -0.0401371 -2.0206 0
M  V30 5051 C 478.995 1.3165 -1.43852 0
M  V30 5052 O 478.265 1.85976 -0.615599 0
M  V30 5053 H 476.845 -0.0118479 -0.746906 0
M  V30 5054 H 479.507 -0.73352 -1.8057 0
M  V30 5055 H 478.603 0.0441254 -3.12069 0
M  V30 5056 N 478.904 1.54736 -0.299062 0
M  V30 5057 C 480.132 2.04512 0.313447 0
M  V30 5058 C 480.547 1.17643 1.47667 0
M  V30 5059 O 479.904 0.20164 1.81383 0
M  V30 5060 C 479.955 3.53171 0.771542 0
M  V30 5061 O 479.676 4.36736 -0.345379 0
M  V30 5062 C 481.177 4.18936 1.4494 0
M  V30 5063 H 478.397 0.667507 0.0683784 0
M  V30 5064 H 480.941 1.99752 -0.438129 0
M  V30 5065 H 479.096 3.58298 1.47314 0
M  V30 5066 H 479.51 5.24499 0.0109219 0
M  V30 5067 H 480.984 5.24482 1.72111 0
M  V30 5068 H 481.461 3.68554 2.38883 0
M  V30 5069 H 482.067 4.17879 0.791028 0
M  V30 5070 N 480.382 0.0267497 1.57577 0
M  V30 5071 C 481.312 -0.954308 2.13108 0
M  V30 5072 C 482.293 -1.34088 1.04663 0
M  V30 5073 O 483.478 -1.41992 1.32484 0
M  V30 5074 C 480.608 -2.23744 2.65624 0
M  V30 5075 C 479.562 -1.99168 3.78835 0
M  V30 5076 C 478.888 -3.33726 4.17769 0
M  V30 5077 C 480.188 -1.33277 5.0501 0
M  V30 5078 H 481.882 -0.491848 2.95332 0
M  V30 5079 H 479.428 -0.23514 1.42067 0
M  V30 5080 H 481.381 -2.92754 3.03106 0
M  V30 5081 H 480.105 -2.72151 1.80558 0
M  V30 5082 H 478.764 -1.32577 3.41788 0
M  V30 5083 H 478.412 -3.79888 3.29688 0
M  V30 5084 H 478.112 -3.18089 4.94058 0
M  V30 5085 H 479.636 -4.04008 4.57832 0
M  V30 5086 H 481.05 -1.92283 5.40093 0
M  V30 5087 H 479.447 -1.28045 5.8628 0
M  V30 5088 H 480.517 -0.305411 4.83937 0
M  V30 5089 N 481.861 -1.55662 -0.24637 0
M  V30 5090 C 482.793 -1.86811 -1.32794 0
M  V30 5091 C 483.806 -0.754413 -1.44265 0
M  V30 5092 O 484.995 -1.03253 -1.45606 0
M  V30 5093 C 482.095 -2.0397 -2.70646 0
M  V30 5094 C 481.268 -3.34832 -2.81436 0
M  V30 5095 C 480.327 -3.41727 -4.00136 0
M  V30 5096 O 479.353 -4.14934 -3.89639 0
M  V30 5097 N 480.555 -2.71058 -5.1333 0
M  V30 5098 H 483.32 -2.80174 -1.06409 0
M  V30 5099 H 480.881 -1.55906 -0.43647 0
M  V30 5100 H 482.873 -2.05924 -3.48393 0
M  V30 5101 H 481.443 -1.1735 -2.89738 0
M  V30 5102 H 480.663 -3.4519 -1.90361 0
M  V30 5103 H 481.951 -4.21085 -2.85595 0
M  V30 5104 H 481.349 -2.11314 -5.2475 0
M  V30 5105 H 479.906 -2.78704 -5.89209 0
M  V30 5106 N 483.339 0.512053 -1.4905 0
M  V30 5107 C 484.569 1.28928 -1.61434 0
M  V30 5108 C 484.977 1.87107 -0.280647 0
M  V30 5109 O 484.32 1.68024 0.742537 0
M  V30 5110 C 484.382 2.466 -2.61588 0
M  V30 5111 C 484.046 2.09375 -4.06216 0
M  V30 5112 C 485.043 1.63994 -4.93358 0
M  V30 5113 C 482.728 2.19348 -4.51876 0
M  V30 5114 C 484.722 1.29076 -6.24194 0
M  V30 5115 C 482.409 1.84041 -5.82728 0
M  V30 5116 C 483.407 1.38978 -6.68711 0
M  V30 5117 O 483.095 1.04144 -7.97126 0
M  V30 5118 H 482.827 0.397668 -0.546659 0
M  V30 5119 H 485.381 0.622507 -1.9574 0
M  V30 5120 H 483.611 3.16318 -2.22441 0
M  V30 5121 H 485.3 3.08642 -2.63619 0
M  V30 5122 H 486.066 1.55744 -4.59313 0
M  V30 5123 H 481.945 2.53376 -3.85125 0
M  V30 5124 H 485.489 0.938303 -6.91261 0
M  V30 5125 H 481.386 1.91938 -6.16304 0
M  V30 5126 H 482.154 1.17387 -8.10039 0
M  V30 5127 N 484.817 1.37938 0.762283 0
M  V30 5128 C 486.066 1.32989 1.51647 0
M  V30 5129 C 486.379 -0.0802922 1.95435 0
M  V30 5130 O 487.585 -0.252295 2.70325 0
M  V30 5131 C 486.041 2.33485 2.73885 0
M  V30 5132 C 485.649 3.80079 2.37157 0
M  V30 5133 C 487.393 2.37563 3.51801 0
M  V30 5134 C 485.3 4.72283 3.55954 0
M  V30 5135 H 484.23 0.494301 0.56937 0
M  V30 5136 H 486.881 1.63448 0.834083 0
M  V30 5137 H 485.263 1.96056 3.44061 0
M  V30 5138 H 486.437 4.26398 1.74704 0
M  V30 5139 H 484.752 3.79037 1.72395 0
M  V30 5140 H 487.349 3.0365 4.40114 0
M  V30 5141 H 487.692 1.39199 3.92338 0
M  V30 5142 H 488.225 2.73747 2.8863 0
M  V30 5143 H 484.964 5.7181 3.2049 0
M  V30 5144 H 484.484 4.30663 4.1748 0
M  V30 5145 H 486.163 4.89876 4.22647 0
M  V30 5146 N 486.295 -0.989507 1.22664 0
M  V30 5147 C 487.242 -2.08024 0.999733 0
M  V30 5148 C 488.212 -1.65909 -0.0797047 0
M  V30 5149 O 489.397 -1.90669 0.0705715 0
M  V30 5150 C 486.537 -3.40067 0.587234 0
M  V30 5151 C 485.65 -3.95505 1.73781 0
M  V30 5152 C 484.785 -5.15722 1.27297 0
M  V30 5153 C 483.824 -5.63305 2.39488 0
M  V30 5154 N 482.961 -6.74758 1.94026 0
M  V30 5155 H 487.801 -2.26768 1.9334 0
M  V30 5156 H 485.338 -1.11171 0.963297 0
M  V30 5157 H 487.296 -4.15899 0.329227 0
M  V30 5158 H 485.926 -3.21314 -0.309426 0
M  V30 5159 H 484.978 -3.16513 2.11006 0
M  V30 5160 H 486.29 -4.26797 2.58158 0
M  V30 5161 H 485.444 -5.98854 0.972546 0
M  V30 5162 H 484.183 -4.86061 0.399445 0
M  V30 5163 H 483.188 -4.78759 2.70315 0
M  V30 5164 H 484.413 -5.94988 3.27362 0
M  V30 5165 H 482.359 -6.46874 1.09041 0
M  V30 5166 H 482.276 -7.05386 2.71968 0
M  V30 5167 H 483.544 -7.61387 1.67062 0
M  V30 5168 N 487.773 -1.03688 -1.18687 0
M  V30 5169 C 489.021 -0.736572 -1.88199 0
M  V30 5170 C 489.342 0.737665 -1.80509 0
M  V30 5171 O 488.612 1.53204 -1.22088 0
M  V30 5172 H 487.192 -0.269466 -0.696704 0
M  V30 5173 H 489.854 -1.31282 -1.44052 0
M  V30 5174 H 488.95 -1.03802 -2.94332 0
M  V30 5175 N 489.251 1.34841 -0.815825 0
M  V30 5176 C 490.181 2.32187 -0.247298 0
M  V30 5177 C 491.162 1.5791 0.632344 0
M  V30 5178 O 492.347 1.8593 0.560698 0
M  V30 5179 C 489.477 3.42122 0.597466 0
M  V30 5180 C 488.431 4.27602 -0.184446 0
M  V30 5181 C 487.757 5.28942 0.782609 0
M  V30 5182 C 489.057 5.03502 -1.38865 0
M  V30 5183 H 490.751 2.79985 -1.06061 0
M  V30 5184 H 488.297 1.34611 -0.511461 0
M  V30 5185 H 490.25 4.09232 1.00533 0
M  V30 5186 H 488.974 2.92956 1.44376 0
M  V30 5187 H 487.633 3.62085 -0.573592 0
M  V30 5188 H 487.281 4.7604 1.62466 0
M  V30 5189 H 486.981 5.87008 0.263695 0
M  V30 5190 H 488.505 5.98922 1.18848 0
M  V30 5191 H 489.919 5.63506 -1.05518 0
M  V30 5192 H 488.316 5.71108 -1.8427 0
M  V30 5193 H 489.386 4.33608 -2.17054 0
M  V30 5194 N 490.729 0.570148 1.46925 0
M  V30 5195 C 492.145 0.23087 1.57921 0
M  V30 5196 C 492.345 -1.26676 1.56702 0
M  V30 5197 O 491.401 -2.04774 1.47729 0
M  V30 5198 C 492.714 0.868973 2.8787 0
M  V30 5199 C 494.262 0.841397 3.01479 0
M  V30 5200 C 494.737 1.45881 4.34146 0
M  V30 5201 N 496.228 1.42258 4.40814 0
M  V30 5202 C 496.963 1.8698 5.42057 0
M  V30 5203 N 496.459 2.39618 6.50042 0
M  V30 5204 N 498.252 1.77972 5.33181 0
M  V30 5205 H 490.403 1.54301 1.45962 0
M  V30 5206 H 492.666 0.644224 0.69547 0
M  V30 5207 H 492.372 1.922 2.94537 0
M  V30 5208 H 492.246 0.369682 3.75384 0
M  V30 5209 H 494.633 -0.202973 2.94401 0
M  V30 5210 H 494.714 1.37858 2.15474 0
M  V30 5211 H 494.358 2.50231 4.4198 0
M  V30 5212 H 494.288 0.896958 5.18905 0
M  V30 5213 H 496.779 1.03768 3.63374 0
M  V30 5214 H 497.092 2.71633 7.23488 0
M  V30 5215 H 495.437 2.43636 6.50897 0
M  V30 5216 H 498.628 1.36617 4.4772 0
M  V30 5217 H 498.801 2.13143 6.11943 0
M  V30 5218 N 492.207 -1.54576 0.307264 0
M  V30 5219 C 493.618 -1.8579 -0.184121 0
M  V30 5220 C 493.969 -1.22914 -1.52927 0
M  V30 5221 O 493.094 -0.529126 -2.09831 0
M  V30 5222 C 493.689 -3.37081 -0.340862 0
M  V30 5223 C 492.248 -3.68304 -0.776465 0
M  V30 5224 C 491.395 -2.77076 0.111503 0
M  V30 5225 H 494.346 -1.49656 0.528078 0
M  V30 5226 H 494.367 -3.61922 -1.17443 0
M  V30 5227 H 493.879 -3.82815 0.638309 0
M  V30 5228 H 491.98 -3.28092 -1.76596 0
M  V30 5229 H 492.093 -4.75434 -0.591512 0
M  V30 5230 H 490.457 -2.51374 -0.410256 0
M  V30 5231 H 491.24 -3.25632 1.08714 0
M  V30 5232 N 493.685 -0.035106 -1.57561 0
M  V30 5233 C 494.617 0.973604 -2.07494 0
M  V30 5234 C 495.63 1.28504 -0.999534 0
M  V30 5235 O 496.819 1.24864 -1.27559 0
M  V30 5236 C 493.919 2.29945 -2.48955 0
M  V30 5237 C 493.092 2.1723 -3.79644 0
M  V30 5238 C 492.151 3.328 -4.07592 0
M  V30 5239 O 491.177 3.09418 -4.77754 0
M  V30 5240 N 492.379 4.56779 -3.58236 0
M  V30 5241 H 495.144 0.547525 -2.94656 0
M  V30 5242 H 492.705 0.151515 -1.61189 0
M  V30 5243 H 494.697 3.06097 -2.64739 0
M  V30 5244 H 493.267 2.64173 -1.67126 0
M  V30 5245 H 492.487 1.25768 -3.73599 0
M  V30 5246 H 493.775 2.05945 -4.65257 0
M  V30 5247 H 493.173 4.78668 -3.01485 0
M  V30 5248 H 491.73 5.30079 -3.79288 0
M  V30 5249 N 495.163 1.55791 0.238111 0
M  V30 5250 C 496.111 1.91885 1.31464 0
M  V30 5251 C 497.105 0.798929 1.49377 0
M  V30 5252 O 498.311 0.983626 1.50747 0
M  V30 5253 H 494.686 0.609551 0.440399 0
M  V30 5254 H 496.657 2.81747 0.982925 0
M  V30 5255 C 495.406 2.23763 2.6613 0
M  V30 5256 H 494.729 3.09444 2.53149 0
M  V30 5257 H 496.169 2.52915 3.40309 0
M  V30 5258 C 494.628 1.05699 3.1989 0
M  V30 5259 O 495.158 0.309524 4.00506 0
M  V30 5260 N 493.364 0.845251 2.78036 0
M  V30 5261 H 492.911 1.4548 2.12588 0
M  V30 5262 H 492.869 0.0569973 3.14348 0
M  V30 5263 N 496.642 -0.504142 1.49319 0
M  V30 5264 C 497.589 -1.60603 1.65756 0
M  V30 5265 C 498.559 -1.58425 0.499082 0
M  V30 5266 O 499.744 -1.76459 0.725728 0
M  V30 5267 C 496.884 -2.98764 1.72726 0
M  V30 5268 C 495.997 -3.10982 2.99857 0
M  V30 5269 C 495.132 -4.39857 2.97824 0
M  V30 5270 C 494.171 -4.45697 4.19548 0
M  V30 5271 N 493.308 -5.65995 4.15444 0
M  V30 5272 H 498.148 -1.45895 2.59843 0
M  V30 5273 H 495.685 -0.709891 1.28837 0
M  V30 5274 H 497.643 -3.78839 1.74747 0
M  V30 5275 H 496.273 -3.12183 0.821075 0
M  V30 5276 H 495.325 -2.23991 3.07461 0
M  V30 5277 H 496.637 -3.11157 3.89849 0
M  V30 5278 H 495.791 -5.2825 2.98391 0
M  V30 5279 H 494.53 -4.42242 2.05604 0
M  V30 5280 H 493.535 -3.55707 4.19229 0
M  V30 5281 H 494.76 -4.4503 5.12957 0
M  V30 5282 H 492.706 -5.69229 3.26059 0
M  V30 5283 H 492.623 -5.67773 4.99169 0
M  V30 5284 H 493.891 -6.56604 4.20109 0
M  V30 5285 N 498.12 -1.38341 -0.754957 0
M  V30 5286 C 499.369 -1.33791 -1.5094 0
M  V30 5287 C 499.682 0.0699267 -1.95475 0
M  V30 5288 O 500.888 0.237956 -2.70455 0
M  V30 5289 C 499.344 -2.34934 -2.72643 0
M  V30 5290 C 498.952 -3.81332 -2.35138 0
M  V30 5291 C 500.696 -2.39425 -3.50536 0
M  V30 5292 C 498.603 -4.74164 -3.53444 0
M  V30 5293 H 497.533 -0.497314 -0.566741 0
M  V30 5294 H 500.184 -1.63888 -0.825403 0
M  V30 5295 H 498.566 -1.97878 -3.43017 0
M  V30 5296 H 499.74 -4.27319 -1.7244 0
M  V30 5297 H 498.055 -3.79946 -1.70382 0
M  V30 5298 H 500.652 -3.0598 -4.38498 0
M  V30 5299 H 500.995 -1.41278 -3.91594 0
M  V30 5300 H 501.528 -2.75274 -2.87174 0
M  V30 5301 H 498.267 -5.73501 -3.17453 0
M  V30 5302 H 497.787 -4.3287 -4.15191 0
M  V30 5303 H 499.466 -4.92111 -4.20043 0
M  V30 5304 N 499.598 0.982988 -1.23187 0
M  V30 5305 C 500.846 1.72052 -1.06031 0
M  V30 5306 C 501.167 1.90769 0.404019 0
M  V30 5307 O 500.437 1.47446 1.28982 0
M  V30 5308 H 499.017 0.637499 -0.389363 0
M  V30 5309 H 501.679 1.18338 -1.54862 0
M  V30 5310 H 500.775 2.7111 -1.54615 0
M  V30 5311 N 501.076 1.04316 1.18135 0
M  V30 5312 C 502.324 0.746542 1.87806 0
M  V30 5313 C 502.645 -0.728082 1.80898 0
M  V30 5314 O 501.915 -1.52554 1.22899 0
M  V30 5315 H 500.495 0.273157 0.695265 0
M  V30 5316 H 503.157 1.32044 1.43354 0
M  V30 5317 H 502.253 1.05362 2.93778 0
M  V30 5318 N 502.554 -1.34406 0.822964 0
M  V30 5319 C 503.517 -2.2783 0.250271 0
M  V30 5320 C 504.517 -1.50288 -0.571854 0
M  V30 5321 O 505.707 -1.69825 -0.387952 0
M  V30 5322 C 502.839 -3.34663 -0.649137 0
M  V30 5323 H 504.032 -2.79992 1.07444 0
M  V30 5324 H 501.585 -1.44539 0.594829 0
M  V30 5325 H 502.32 -2.87714 -1.49637 0
M  V30 5326 H 502.105 -3.92052 -0.0611199 0
M  V30 5327 H 503.595 -4.04349 -1.04363 0
M  V30 5328 N 504.032 -0.577932 -1.46621 0
M  V30 5329 C 505.279 -0.0616879 -2.02406 0
M  V30 5330 C 505.607 1.29638 -1.44997 0
M  V30 5331 O 504.862 1.86176 -0.60308 0
M  V30 5332 C 505.161 0.0590832 -3.57351 0
M  V30 5333 C 504.827 -1.23077 -4.33777 0
M  V30 5334 C 503.489 -1.58416 -4.54376 0
M  V30 5335 C 505.841 -2.08457 -4.77698 0
M  V30 5336 C 503.169 -2.78943 -5.16147 0
M  V30 5337 C 505.521 -3.28204 -5.408 0
M  V30 5338 C 504.185 -3.63832 -5.59627 0
M  V30 5339 H 503.455 -0.0225732 -0.740656 0
M  V30 5340 H 506.102 -0.753609 -1.76048 0
M  V30 5341 H 504.407 0.834104 -3.82818 0
M  V30 5342 H 506.104 0.474202 -3.98186 0
M  V30 5343 H 502.694 -0.945652 -4.18038 0
M  V30 5344 H 506.878 -1.82459 -4.61544 0
M  V30 5345 H 502.134 -3.06689 -5.28916 0
M  V30 5346 H 506.308 -3.94634 -5.73792 0
M  V30 5347 H 503.935 -4.57315 -6.07262 0
M  V30 5348 N 505.51 1.54411 -0.315457 0
M  V30 5349 C 506.758 2.00023 0.288971 0
M  V30 5350 C 507.079 1.20529 1.5329 0
M  V30 5351 O 506.349 0.304986 1.93511 0
M  V30 5352 H 504.929 0.738891 0.109766 0
M  V30 5353 H 507.591 1.90094 -0.430129 0
M  V30 5354 H 506.687 3.07198 0.550999 0
M  V30 5355 N 506.988 0.0434614 1.5754 0
M  V30 5356 C 508.213 -0.645358 1.97104 0
M  V30 5357 C 508.638 -1.64037 0.920521 0
M  V30 5358 O 507.996 -1.80922 -0.11708 0
M  V30 5359 C 508.044 -1.31547 3.35749 0
M  V30 5360 O 507.148 -2.43103 3.33129 0
M  V30 5361 H 506.489 -0.168403 0.64229 0
M  V30 5362 H 509.019 0.109573 2.04306 0
M  V30 5363 H 509.029 -1.66895 3.72304 0
M  V30 5364 H 507.704 -0.586205 4.11748 0
M  V30 5365 H 506.281 -2.0976 3.0831 0
M  V30 5366 N 508.466 -1.55915 -0.229846 0
M  V30 5367 C 509.713 -1.78542 -0.955452 0
M  V30 5368 C 510.041 -0.610785 -1.84661 0
M  V30 5369 O 509.296 0.405213 -1.91459 0
M  V30 5370 C 509.595 -3.06845 -1.8325 0
M  V30 5371 C 509.261 -4.37395 -1.09528 0
M  V30 5372 C 507.923 -4.72868 -0.891598 0
M  V30 5373 C 510.275 -5.18029 -0.574046 0
M  V30 5374 C 507.603 -5.86496 -0.154655 0
M  V30 5375 C 509.955 -6.32423 0.149513 0
M  V30 5376 C 508.619 -6.66504 0.364519 0
M  V30 5377 H 507.889 -0.653333 -0.349625 0
M  V30 5378 H 510.536 -1.90183 -0.224235 0
M  V30 5379 H 508.841 -2.90291 -2.63132 0
M  V30 5380 H 510.538 -3.21553 -2.39592 0
M  V30 5381 H 507.128 -4.09538 -1.26399 0
M  V30 5382 H 511.312 -4.91066 -0.718899 0
M  V30 5383 H 506.568 -6.11396 0.0222356 0
M  V30 5384 H 510.742 -6.94137 0.560947 0
M  V30 5385 H 508.369 -7.54397 0.937495 0
M  V30 5386 N 509.944 0.496216 -1.49584 0
M  V30 5387 C 511.192 1.24756 -1.58998 0
M  V30 5388 C 511.513 1.92968 -0.280775 0
M  V30 5389 O 510.783 1.82959 0.700198 0
M  V30 5390 H 509.363 0.463471 -0.585836 0
M  V30 5391 H 512.025 0.574678 -1.86235 0
M  V30 5392 H 511.121 2.00895 -2.38847 0
M  V30 5393 N 511.423 1.38739 0.74761 0
M  V30 5394 C 512.669 1.3648 1.50814 0
M  V30 5395 C 513.024 -0.0431982 1.92351 0
M  V30 5396 O 512.317 -1.0071 1.62997 0
M  V30 5397 C 512.511 2.25992 2.7688 0
M  V30 5398 C 512.34 3.75354 2.47668 0
M  V30 5399 C 511.11 4.44348 2.40589 0
M  V30 5400 C 513.308 4.67642 2.14046 0
M  V30 5401 N 511.29 5.79114 2.03715 0
M  V30 5402 C 512.661 5.90965 1.87512 0
M  V30 5403 C 514.716 4.55787 2.00407 0
M  V30 5404 C 513.419 7.03759 1.48714 0
M  V30 5405 C 515.445 5.68491 1.63011 0
M  V30 5406 C 514.807 6.90879 1.37353 0
M  V30 5407 H 510.906 0.554695 0.551214 0
M  V30 5408 H 513.49 1.7418 0.870033 0
M  V30 5409 H 511.661 1.9047 3.3849 0
M  V30 5410 H 513.393 2.14815 3.42982 0
M  V30 5411 H 510.148 3.97634 2.57262 0
M  V30 5412 H 510.572 6.504 1.87906 0
M  V30 5413 H 515.214 3.61712 2.18916 0
M  V30 5414 H 512.932 7.97746 1.28945 0
M  V30 5415 H 516.518 5.613 1.53081 0
M  V30 5416 H 515.398 7.76609 1.08848 0
M  V30 5417 N 512.901 -0.976442 1.23707 0
M  V30 5418 C 514.126 -1.75875 1.09922 0
M  V30 5419 C 514.551 -1.84911 -0.34489 0
M  V30 5420 O 513.909 -1.31363 -1.24954 0
M  V30 5421 C 513.957 -3.16179 1.73388 0
M  V30 5422 O 513.061 -4.00124 0.99871 0
M  V30 5423 H 512.402 -0.540954 0.385052 0
M  V30 5424 H 514.932 -1.22546 1.6384 0
M  V30 5425 H 514.942 -3.66741 1.78788 0
M  V30 5426 H 513.617 -3.08917 2.78466 0
M  V30 5427 H 512.194 -3.58624 1.02193 0
M  V30 5428 N 514.379 -1.04941 -1.1758 0
M  V30 5429 C 515.627 -0.756492 -1.87408 0
M  V30 5430 C 515.948 0.718478 -1.81281 0
M  V30 5431 O 515.218 1.519 -1.23706 0
M  V30 5432 H 513.798 -0.276841 -0.693807 0
M  V30 5433 H 516.46 -1.32803 -1.42652 0
M  V30 5434 H 515.556 -1.06918 -2.93215 0
M  V30 5435 N 515.857 1.33968 -0.830081 0
M  V30 5436 C 516.767 2.33164 -0.259207 0
M  V30 5437 C 517.783 1.62951 0.610164 0
M  V30 5438 O 518.959 1.94668 0.516369 0
M  V30 5439 C 516.024 3.42088 0.563598 0
M  V30 5440 C 515.085 4.28037 -0.329014 0
M  V30 5441 C 514.318 5.3176 0.454616 0
M  V30 5442 O 514.541 5.44876 1.6872 0
M  V30 5443 O 513.475 6.01669 -0.166794 0
M  V30 5444 H 517.301 2.83832 -1.08041 0
M  V30 5445 H 514.886 1.37154 -0.59239 0
M  V30 5446 H 516.768 4.08581 1.03147 0
M  V30 5447 H 515.443 2.93651 1.36201 0
M  V30 5448 H 514.35 3.64443 -0.844538 0
M  V30 5449 H 515.683 4.79934 -1.09196 0
M  V30 5450 N 517.335 0.585699 1.46312 0
M  V30 5451 C 518.56 0.0762461 2.0726 0
M  V30 5452 C 518.985 -1.22071 1.43109 0
M  V30 5453 O 518.343 -1.73804 0.515942 0
M  V30 5454 C 518.391 -0.0729404 3.60526 0
M  V30 5455 O 517.495 -1.1287 3.96654 0
M  V30 5456 H 516.836 0.0641558 0.660893 0
M  V30 5457 H 519.366 0.809492 1.87905 0
M  V30 5458 H 519.376 -0.278158 4.07051 0
M  V30 5459 H 518.051 0.874188 4.06609 0
M  V30 5460 H 516.628 -0.901703 3.61834 0
M  V30 5461 N 518.813 -1.54241 0.323641 0
M  V30 5462 C 520.041 -2.04985 -0.280871 0
M  V30 5463 C 520.456 -1.19978 -1.45777 0
M  V30 5464 O 519.813 -0.230471 -1.81039 0
M  V30 5465 C 519.864 -3.54353 -0.715258 0
M  V30 5466 O 519.585 -4.36132 0.414817 0
M  V30 5467 C 521.086 -4.21189 -1.38257 0
M  V30 5468 H 518.306 -0.66851 -0.0577502 0
M  V30 5469 H 520.85 -1.99029 0.469852 0
M  V30 5470 H 519.005 -3.60596 -1.41596 0
M  V30 5471 H 519.419 -5.2445 0.0725227 0
M  V30 5472 H 520.893 -5.27154 -1.63745 0
M  V30 5473 H 521.37 -3.72307 -2.32989 0
M  V30 5474 H 521.976 -4.19085 -0.724447 0
M  V30 5475 N 520.291 -0.0518155 -1.57515 0
M  V30 5476 C 521.238 0.922352 -2.11569 0
M  V30 5477 C 522.208 1.30842 -1.02321 0
M  V30 5478 O 523.393 1.39778 -1.29872 0
M  V30 5479 C 520.533 2.19167 -2.6657 0
M  V30 5480 C 519.646 1.86003 -3.89906 0
M  V30 5481 C 518.781 3.07398 -4.33221 0
M  V30 5482 C 517.82 2.70158 -5.49255 0
M  V30 5483 N 516.957 3.84248 -5.8762 0
M  V30 5484 H 521.797 0.454506 -2.94514 0
M  V30 5485 H 519.334 0.212718 -1.45554 0
M  V30 5486 H 521.292 2.93443 -2.96559 0
M  V30 5487 H 519.922 2.63528 -1.86421 0
M  V30 5488 H 518.974 1.01874 -3.66505 0
M  V30 5489 H 520.286 1.54592 -4.74239 0
M  V30 5490 H 519.44 3.89972 -4.64765 0
M  V30 5491 H 518.179 3.41988 -3.477 0
M  V30 5492 H 517.184 1.86001 -5.17382 0
M  V30 5493 H 518.409 2.36759 -6.36492 0
M  V30 5494 H 516.355 4.18638 -5.05053 0
M  V30 5495 H 516.272 3.56538 -6.66646 0
M  V30 5496 H 517.54 4.6746 -6.2378 0
M  V30 5497 N 521.769 1.56035 0.221574 0
M  V30 5498 C 523.015 1.79312 0.947372 0
M  V30 5499 C 523.348 0.621453 1.83988 0
M  V30 5500 O 522.623 -0.379287 1.90766 0
M  V30 5501 C 522.906 3.1267 1.78633 0
M  V30 5502 C 522.759 4.40284 0.920312 0
M  V30 5503 C 524.078 3.4247 2.7641 0
M  V30 5504 H 521.197 0.652328 0.342982 0
M  V30 5505 H 523.839 1.88765 0.216244 0
M  V30 5506 H 521.989 3.04741 2.40967 0
M  V30 5507 H 523.661 4.60232 0.313718 0
M  V30 5508 H 521.904 4.33212 0.225734 0
M  V30 5509 H 522.575 5.30033 1.54171 0
M  V30 5510 H 525.051 3.50526 2.24211 0
M  V30 5511 H 523.927 4.3695 3.32213 0
M  V30 5512 H 524.188 2.64635 3.54148 0
M  V30 5513 N 523.247 -0.488276 1.49845 0
M  V30 5514 C 524.177 -1.59675 1.70371 0
M  V30 5515 C 525.158 -1.60878 0.552473 0
M  V30 5516 O 526.343 -1.77417 0.78973 0
M  V30 5517 C 523.473 -2.98098 1.782 0
M  V30 5518 C 522.427 -3.11761 2.93239 0
M  V30 5519 C 521.753 -4.51661 2.86193 0
M  V30 5520 C 523.053 -2.90589 4.33999 0
M  V30 5521 H 524.747 -1.42752 2.63177 0
M  V30 5522 H 522.293 -0.685317 1.26647 0
M  V30 5523 H 524.246 -3.75555 1.91144 0
M  V30 5524 H 522.97 -3.16138 0.820018 0
M  V30 5525 H 521.629 -2.36732 2.79917 0
M  V30 5526 H 521.277 -4.66595 1.87877 0
M  V30 5527 H 520.977 -4.61742 3.63412 0
M  V30 5528 H 522.501 -5.31162 3.01163 0
M  V30 5529 H 523.915 -3.57807 4.47936 0
M  V30 5530 H 522.312 -3.1213 5.12538 0
M  V30 5531 H 523.382 -1.86595 4.4756 0
M  V30 5532 N 524.725 -1.39134 -0.740242 0
M  V30 5533 C 525.688 -1.37217 -1.83587 0
M  V30 5534 C 526.688 -0.270221 -1.58513 0
M  V30 5535 O 527.878 -0.527843 -1.6601 0
M  V30 5536 C 525.01 -1.13959 -3.21288 0
M  V30 5537 H 526.203 -2.34705 -1.86691 0
M  V30 5538 H 523.756 -1.24622 -0.94335 0
M  V30 5539 H 524.491 -0.17131 -3.23847 0
M  V30 5540 H 524.276 -1.93754 -3.40884 0
M  V30 5541 H 525.766 -1.15346 -4.01354 0
M  V30 5542 N 526.204 0.969867 -1.24223 0
M  V30 5543 C 527.114 2.09806 -1.0497 0
M  V30 5544 C 528.13 1.73998 0.00886455 0
M  V30 5545 O 529.306 2.00513 -0.188848 0
M  V30 5546 C 526.371 3.40467 -0.654452 0
M  V30 5547 C 525.432 3.90236 -1.78926 0
M  V30 5548 C 524.665 5.14662 -1.41277 0
M  V30 5549 O 524.888 5.69602 -0.301632 0
M  V30 5550 O 523.822 5.58761 -2.23763 0
M  V30 5551 H 527.648 2.28942 -1.99548 0
M  V30 5552 H 525.233 1.08197 -1.03023 0
M  V30 5553 H 527.115 4.19039 -0.445452 0
M  V30 5554 H 525.79 3.22636 0.262216 0
M  V30 5555 H 524.697 3.12735 -2.05299 0
M  V30 5556 H 526.03 4.1254 -2.68462 0
M  V30 5557 N 527.682 1.05563 1.17022 0
M  V30 5558 C 528.928 0.778872 1.87897 0
M  V30 5559 C 529.283 -0.686839 1.79723 0
M  V30 5560 O 528.576 -1.49612 1.19694 0
M  V30 5561 C 528.77 1.19849 3.36706 0
M  V30 5562 C 528.599 2.70345 3.59366 0
M  V30 5563 C 527.369 3.37707 3.75875 0
M  V30 5564 C 529.567 3.68564 3.58699 0
M  V30 5565 N 527.549 4.7703 3.86414 0
M  V30 5566 C 528.92 4.93634 3.75134 0
M  V30 5567 C 530.975 3.6198 3.4187 0
M  V30 5568 C 529.678 6.12907 3.76481 0
M  V30 5569 C 531.704 4.80697 3.44507 0
M  V30 5570 C 531.066 6.04592 3.61453 0
M  V30 5571 H 527.165 0.337297 0.705517 0
M  V30 5572 H 529.749 1.34832 1.40458 0
M  V30 5573 H 527.92 0.656958 3.82804 0
M  V30 5574 H 529.652 0.871172 3.95212 0
M  V30 5575 H 526.407 2.88108 3.75887 0
M  V30 5576 H 526.831 5.49483 3.95471 0
M  V30 5577 H 531.473 2.67154 3.27702 0
M  V30 5578 H 529.191 7.08073 3.89432 0
M  V30 5579 H 532.777 4.77259 3.32738 0
M  V30 5580 H 531.657 6.94916 3.63403 0
M  V30 5581 N 529.16 -1.33526 0.837174 0
M  V30 5582 C 530.09 -2.31764 0.284206 0
M  V30 5583 C 531.071 -1.58896 -0.607142 0
M  V30 5584 O 532.256 -1.86798 -0.531047 0
M  V30 5585 C 529.386 -3.43029 -0.542962 0
M  V30 5586 C 528.34 -4.27255 0.252451 0
M  V30 5587 C 527.666 -5.3012 -0.69836 0
M  V30 5588 C 528.966 -5.01229 1.46858 0
M  V30 5589 H 530.66 -2.78262 1.10502 0
M  V30 5590 H 528.206 -1.3378 0.532812 0
M  V30 5591 H 530.159 -4.1078 -0.940096 0
M  V30 5592 H 528.883 -2.95216 -1.39697 0
M  V30 5593 H 527.542 -3.61127 0.631124 0
M  V30 5594 H 527.19 -4.78564 -1.54872 0
M  V30 5595 H 526.89 -5.87353 -0.170274 0
M  V30 5596 H 528.414 -6.00737 -1.09305 0
M  V30 5597 H 529.828 -5.61756 1.14469 0
M  V30 5598 H 528.225 -5.68104 1.93333 0
M  V30 5599 H 529.295 -4.301 2.23924 0
M  V30 5600 N 530.638 -0.59345 -1.46 0
M  V30 5601 C 531.866 -0.0890934 -2.06708 0
M  V30 5602 C 532.281 1.2205 -1.44046 0
M  V30 5603 O 531.638 1.74029 -0.549551 0
M  V30 5604 C 531.689 0.0720263 -3.61428 0
M  V30 5605 O 531.41 -1.18574 -4.21748 0
M  V30 5606 C 532.911 0.609487 -4.3909 0
M  V30 5607 H 530.131 -0.0623628 -0.668096 0
M  V30 5608 H 532.675 -0.817171 -1.87464 0
M  V30 5609 H 530.83 0.750369 -3.80063 0
M  V30 5610 H 531.244 -1.0064 -5.14754 0
M  V30 5611 H 532.718 0.671363 -5.47902 0
M  V30 5612 H 533.195 1.62878 -4.07882 0
M  V30 5613 H 533.801 -0.03434 -4.25286 0
M  V30 5614 N 532.116 1.54067 -0.331816 0
M  V30 5615 C 533.364 2.00319 0.267739 0
M  V30 5616 C 533.685 1.22148 1.52003 0
M  V30 5617 O 532.955 0.325494 1.93177 0
M  V30 5618 H 531.535 0.740014 0.101922 0
M  V30 5619 H 534.197 1.89628 -0.450267 0
M  V30 5620 H 533.293 3.07765 0.518385 0
M  V30 5621 N 533.594 0.0601682 1.57485 0
M  V30 5622 C 534.527 -0.94676 2.07634 0
M  V30 5623 C 535.505 -1.29837 0.978826 0
M  V30 5624 O 536.689 -1.40969 1.2514 0
M  V30 5625 C 533.816 -2.25822 2.52433 0
M  V30 5626 C 532.862 -2.05901 3.73507 0
M  V30 5627 S 533.695 -1.32907 5.18745 0
M  V30 5628 C 534.851 -2.65356 5.66866 0
M  V30 5629 H 535.084 -0.520003 2.92717 0
M  V30 5630 H 532.617 -0.152319 1.53647 0
M  V30 5631 H 534.575 -3.01201 2.78905 0
M  V30 5632 H 533.236 -2.65624 1.67639 0
M  V30 5633 H 532.429 -3.02929 4.02803 0
M  V30 5634 H 532.031 -1.38659 3.47347 0
M  V30 5635 H 534.323 -3.61492 5.73001 0
M  V30 5636 H 535.266 -2.40685 6.6594 0
M  V30 5637 H 535.674 -2.72028 4.94632 0
M  V30 5638 N 535.072 -1.5615 -0.213296 0
M  V30 5639 C 536.32 -1.79191 -0.934612 0
M  V30 5640 C 536.641 -0.630112 -1.84539 0
M  V30 5641 O 535.911 0.35257 -1.92701 0
M  V30 5642 H 534.491 -0.660937 -0.348097 0
M  V30 5643 H 537.153 -1.93618 -0.22317 0
M  V30 5644 H 536.249 -2.71656 -1.53654 0
M  V30 5645 N 536.55 0.480323 -1.50102 0
M  V30 5646 C 537.797 1.23307 -1.60629 0
M  V30 5647 C 538.125 1.92135 -0.302375 0
M  V30 5648 O 537.38 1.82321 0.711154 0
M  V30 5649 C 537.679 2.30708 -2.72963 0
M  V30 5650 C 537.345 1.79195 -4.13763 0
M  V30 5651 C 536.007 1.64867 -4.52076 0
M  V30 5652 C 538.359 1.40878 -5.018 0
M  V30 5653 C 535.687 1.10631 -5.76175 0
M  V30 5654 C 538.039 0.880872 -6.26437 0
M  V30 5655 C 536.703 0.724146 -6.6356 0
M  V30 5656 H 535.973 0.451211 -0.587784 0
M  V30 5657 H 538.62 0.53051 -1.84005 0
M  V30 5658 H 536.925 3.06834 -2.43639 0
M  V30 5659 H 538.622 2.88692 -2.78313 0
M  V30 5660 H 535.212 1.91313 -3.83533 0
M  V30 5661 H 539.396 1.50786 -4.7284 0
M  V30 5662 H 534.652 0.972263 -6.0362 0
M  V30 5663 H 538.826 0.575269 -6.9402 0
M  V30 5664 H 536.453 0.301722 -7.59601 0
M  V30 5665 N 538.028 1.39524 0.732853 0
M  V30 5666 C 539.305 1.27373 1.48444 0
M  V30 5667 C 539.685 -0.115725 2.10783 0
M  V30 5668 O 539.033 -1.12713 1.98766 0
M  V30 5669 C 539.243 2.39966 2.53412 0
M  V30 5670 C 540.591 2.79384 3.19733 0
M  V30 5671 O 541.615 2.39431 2.63725 0
M  V30 5672 O 540.474 3.48353 4.21085 0
M  V30 5673 H 537.568 0.499272 0.659285 0
M  V30 5674 H 540.114 1.51403 0.766496 0
M  V30 5675 H 538.886 3.32845 2.05742 0
M  V30 5676 H 538.509 2.17612 3.32762 0
M  V30 5677 N 539.506 -0.963266 1.24736 0
M  V30 5678 C 540.439 -2.05758 0.986852 0
M  V30 5679 C 541.417 -1.62398 -0.0809272 0
M  V30 5680 O 542.601 -1.88414 0.0569347 0
M  V30 5681 C 539.728 -3.35135 0.490095 0
M  V30 5682 C 538.774 -3.97451 1.54709 0
M  V30 5683 S 539.607 -4.34519 3.12976 0
M  V30 5684 C 540.763 -5.67026 2.65014 0
M  V30 5685 H 540.996 -2.27539 1.91346 0
M  V30 5686 H 538.529 -1.10176 1.08169 0
M  V30 5687 H 540.487 -4.09962 0.21012 0
M  V30 5688 H 539.148 -3.11335 -0.415873 0
M  V30 5689 H 538.341 -4.90704 1.15003 0
M  V30 5690 H 537.943 -3.29071 1.77731 0
M  V30 5691 H 540.235 -6.44748 2.08102 0
M  V30 5692 H 541.178 -6.11594 3.56873 0
M  V30 5693 H 541.586 -5.25847 2.05294 0
M  V30 5694 N 540.985 -1.06182 -1.16461 0
M  V30 5695 C 542.396 -0.802426 -1.68576 0
M  V30 5696 C 542.747 0.67412 -1.84255 0
M  V30 5697 O 541.872 1.52303 -1.5373 0
M  V30 5698 C 542.467 -1.45002 -3.06202 0
M  V30 5699 C 541.026 -1.23843 -3.55443 0
M  V30 5700 C 540.173 -1.52724 -2.31454 0
M  V30 5701 H 543.124 -1.22545 -1.00839 0
M  V30 5702 H 543.145 -0.864731 -3.70544 0
M  V30 5703 H 542.657 -2.52466 -2.94759 0
M  V30 5704 H 540.758 -0.183487 -3.72148 0
M  V30 5705 H 540.871 -1.95036 -4.37604 0
M  V30 5706 H 539.235 -0.947726 -2.36411 0
M  V30 5707 H 540.018 -2.61343 -2.22609 0
M  V30 5708 N 542.463 1.3308 -0.844243 0
M  V30 5709 C 543.426 2.27403 -0.286485 0
M  V30 5710 C 544.426 1.51179 0.547872 0
M  V30 5711 O 545.616 1.70421 0.360886 0
M  V30 5712 C 542.748 3.35653 0.595813 0
M  V30 5713 H 543.941 2.78248 -1.11885 0
M  V30 5714 H 541.494 1.43574 -0.617749 0
M  V30 5715 H 542.229 2.90058 1.4504 0
M  V30 5716 H 542.014 3.921 -0.00125994 0
M  V30 5717 H 543.504 4.05958 0.979168 0
M  V30 5718 N 543.941 0.601185 1.45683 0
M  V30 5719 C 545.169 0.100054 2.06658 0
M  V30 5720 C 545.584 -1.21285 1.44691 0
M  V30 5721 O 544.941 -1.73735 0.558772 0
M  V30 5722 C 544.992 -0.0528579 3.61461 0
M  V30 5723 O 544.713 1.20809 4.21114 0
M  V30 5724 C 546.214 -0.586193 4.39407 0
M  V30 5725 H 543.434 0.065905 0.667756 0
M  V30 5726 H 545.978 0.827101 1.87028 0
M  V30 5727 H 544.133 -0.730203 3.80456 0
M  V30 5728 H 544.547 1.03368 5.14213 0
M  V30 5729 H 546.021 -0.642297 5.4825 0
M  V30 5730 H 546.498 -1.60713 4.0874 0
M  V30 5731 H 547.104 0.0568935 4.25262 0
M  V30 5732 N 545.419 -1.53889 0.339982 0
M  V30 5733 C 546.83 -1.86139 -0.144671 0
M  V30 5734 C 547.181 -1.2613 -1.50285 0
M  V30 5735 O 546.306 -0.573515 -2.08662 0
M  V30 5736 C 546.901 -3.37728 -0.269285 0
M  V30 5737 C 545.46 -3.69868 -0.698168 0
M  V30 5738 C 544.607 -2.76777 0.170249 0
M  V30 5739 H 547.558 -1.48503 0.559704 0
M  V30 5740 H 547.579 -3.64331 -1.0974 0
M  V30 5741 H 547.091 -3.81375 0.719366 0
M  V30 5742 H 545.192 -3.31764 -1.69597 0
M  V30 5743 H 545.305 -4.76582 -0.490533 0
M  V30 5744 H 543.669 -2.52188 -0.356844 0
M  V30 5745 H 544.452 -3.23253 1.15597 0
M  V30 5746 N 546.897 -0.0685191 -1.57451 0
M  V30 5747 C 548.143 0.602239 -1.93652 0
M  V30 5748 C 548.476 1.6946 -0.948526 0
M  V30 5749 O 547.751 1.94487 0.022782 0
M  V30 5750 C 548.034 1.18223 -3.4014 0
M  V30 5751 C 547.887 0.0967431 -4.49696 0
M  V30 5752 C 549.206 2.08872 -3.87377 0
M  V30 5753 H 546.325 0.217453 -0.70419 0
M  V30 5754 H 548.967 -0.133821 -1.89528 0
M  V30 5755 H 547.117 1.80953 -3.43785 0
M  V30 5756 H 548.789 -0.536155 -4.58174 0
M  V30 5757 H 547.032 -0.573063 -4.29998 0
M  V30 5758 H 547.703 0.542894 -5.49324 0
M  V30 5759 H 550.179 1.56081 -3.85717 0
M  V30 5760 H 549.055 2.46389 -4.90493 0
M  V30 5761 H 549.316 2.99572 -3.25129 0
M  V30 5762 N 548.375 1.56261 0.205012 0
M  V30 5763 C 549.322 1.93754 1.25411 0
M  V30 5764 C 550.292 0.796826 1.45739 0
M  V30 5765 O 551.477 1.05414 1.59036 0
M  V30 5766 C 548.617 2.27383 2.59598 0
M  V30 5767 C 547.73 3.5447 2.46931 0
M  V30 5768 C 546.865 3.77468 3.73753 0
M  V30 5769 C 545.904 4.98014 3.55877 0
M  V30 5770 N 545.041 5.17316 4.74688 0
M  V30 5771 H 549.881 2.83203 0.92737 0
M  V30 5772 H 547.418 1.40158 0.446574 0
M  V30 5773 H 549.376 2.44895 3.37761 0
M  V30 5774 H 548.006 1.41088 2.90335 0
M  V30 5775 H 547.058 3.45061 1.60116 0
M  V30 5776 H 548.37 4.42789 2.29651 0
M  V30 5777 H 547.524 3.95165 4.60358 0
M  V30 5778 H 546.263 2.87461 3.93976 0
M  V30 5779 H 545.268 4.80249 2.67657 0
M  V30 5780 H 546.493 5.8952 3.37109 0
M  V30 5781 H 544.439 4.30255 4.95194 0
M  V30 5782 H 544.356 5.99796 4.60197 0
M  V30 5783 H 545.624 5.39463 5.62672 0
M  V30 5784 N 549.853 -0.472356 1.50355 0
M  V30 5785 C 551.099 -1.22634 1.6152 0
M  V30 5786 C 551.432 -1.91645 0.313995 0
M  V30 5787 O 550.707 -1.82059 -0.684446 0
M  V30 5788 C 550.99 -2.27099 2.7946 0
M  V30 5789 C 550.843 -1.62402 4.19459 0
M  V30 5790 C 552.162 -3.28421 2.92964 0
M  V30 5791 H 549.281 -0.444494 0.587873 0
M  V30 5792 H 551.923 -0.520321 1.82737 0
M  V30 5793 H 550.073 -2.87314 2.61501 0
M  V30 5794 H 551.745 -1.05793 4.49005 0
M  V30 5795 H 549.988 -0.927184 4.23776 0
M  V30 5796 H 550.659 -2.38309 4.97909 0
M  V30 5797 H 553.135 -2.78227 3.09401 0
M  V30 5798 H 552.011 -3.98845 3.77113 0
M  V30 5799 H 552.272 -3.92467 2.03525 0
M  V30 5800 N 551.331 -1.39911 -0.725443 0
M  V30 5801 C 552.278 -1.39393 -1.83952 0
M  V30 5802 C 553.248 -0.252249 -1.64173 0
M  V30 5803 O 554.433 -0.44882 -1.85446 0
M  V30 5804 C 551.573 -1.25262 -3.21564 0
M  V30 5805 C 550.686 -2.49054 -3.52982 0
M  V30 5806 C 549.821 -2.27439 -4.80047 0
M  V30 5807 C 548.86 -3.46857 -5.04338 0
M  V30 5808 N 547.997 -3.24499 -6.22611 0
M  V30 5809 H 552.837 -2.34622 -1.83729 0
M  V30 5810 H 550.374 -1.16537 -0.897636 0
M  V30 5811 H 552.332 -1.15077 -4.01015 0
M  V30 5812 H 550.962 -0.33657 -3.21041 0
M  V30 5813 H 550.014 -2.69805 -2.6816 0
M  V30 5814 H 551.326 -3.37973 -3.66846 0
M  V30 5815 H 550.48 -2.14551 -5.67497 0
M  V30 5816 H 549.219 -1.35929 -4.68374 0
M  V30 5817 H 548.224 -3.60232 -4.15346 0
M  V30 5818 H 549.449 -4.3928 -5.17889 0
M  V30 5819 H 547.395 -2.35663 -6.12208 0
M  V30 5820 H 547.312 -4.06978 -6.37106 0
M  V30 5821 H 548.58 -3.15325 -7.12875 0
M  V30 5822 N 552.809 0.956637 -1.25245 0
M  V30 5823 C 553.757 2.0743 -1.0524 0
M  V30 5824 C 554.751 1.69392 0.0160725 0
M  V30 5825 O 555.957 1.7946 -0.139382 0
M  V30 5826 H 552.332 0.678921 -0.323373 0
M  V30 5827 H 554.303 2.2146 -1.99995 0
M  V30 5828 C 553.052 3.40872 -0.685702 0
M  V30 5829 H 552.375 3.70607 -1.49968 0
M  V30 5830 H 553.815 4.19939 -0.585415 0
M  V30 5831 C 552.274 3.31367 0.608082 0
M  V30 5832 O 552.804 3.66214 1.65076 0
M  V30 5833 N 551.01 2.84486 0.592955 0
M  V30 5834 H 550.557 2.56326 -0.25592 0
M  V30 5835 H 550.515 2.78509 1.45877 0
M  V30 5836 N 554.287 1.06798 1.15896 0
M  V30 5837 C 555.533 0.788934 1.86825 0
M  V30 5838 C 555.866 -0.683084 1.8179 0
M  V30 5839 O 555.141 -1.50086 1.23711 0
M  V30 5840 C 555.424 1.29065 3.36176 0
M  V30 5841 C 555.277 2.8268 3.49874 0
M  V30 5842 C 556.596 0.902655 4.30744 0
M  V30 5843 H 553.715 0.288066 0.678371 0
M  V30 5844 H 556.357 1.32479 1.36195 0
M  V30 5845 H 554.507 0.834806 3.79425 0
M  V30 5846 H 556.179 3.36511 3.15528 0
M  V30 5847 H 554.422 3.21157 2.91617 0
M  V30 5848 H 555.093 3.12852 4.54783 0
M  V30 5849 H 557.569 1.29535 3.95424 0
M  V30 5850 H 556.445 1.28111 5.3374 0
M  V30 5851 H 556.706 -0.191951 4.41683 0
M  V30 5852 N 555.766 -1.3263 0.851289 0
M  V30 5853 C 557.177 -1.79653 0.5081 0
M  V30 5854 C 557.528 -1.70327 -0.973815 0
M  V30 5855 O 556.653 -1.25986 -1.75944 0
M  V30 5856 C 557.248 -3.26196 0.915515 0
M  V30 5857 C 555.807 -3.71187 0.624277 0
M  V30 5858 C 554.954 -2.53804 1.11709 0
M  V30 5859 H 557.905 -1.19976 1.03882 0
M  V30 5860 H 557.926 -3.79801 0.230535 0
M  V30 5861 H 557.438 -3.32952 1.99411 0
M  V30 5862 H 555.539 -3.69948 -0.443737 0
M  V30 5863 H 555.652 -4.64132 1.18821 0
M  V30 5864 H 554.016 -2.48964 0.537484 0
M  V30 5865 H 554.799 -2.63315 2.20272 0
M  V30 5866 N 557.244 -0.608902 -1.45362 0
M  V30 5867 C 558.472 -0.111013 -2.06602 0
M  V30 5868 C 558.887 1.20516 -1.45332 0
M  V30 5869 O 558.244 1.73437 -0.567978 0
M  V30 5870 C 558.295 0.033688 -3.61484 0
M  V30 5871 O 558.016 -1.23041 -4.20467 0
M  V30 5872 C 559.517 0.562882 -4.39712 0
M  V30 5873 H 556.737 -0.0694453 -0.667397 0
M  V30 5874 H 559.281 -0.837008 -1.86586 0
M  V30 5875 H 557.436 0.710016 -3.80838 0
M  V30 5876 H 557.85 -1.06094 -5.13658 0
M  V30 5877 H 559.324 0.613213 -5.48583 0
M  V30 5878 H 559.801 1.58543 -4.09586 0
M  V30 5879 H 560.407 -0.0794454 -4.25226 0
M  V30 5880 N 558.722 1.53707 -0.348139 0
M  V30 5881 C 559.672 2.2193 0.522592 0
M  V30 5882 C 560.656 1.20831 1.06248 0
M  V30 5883 O 561.848 1.46357 0.995415 0
M  V30 5884 C 558.977 2.99904 1.6707 0
M  V30 5885 C 558.063 4.08364 1.14454 0
M  V30 5886 N 558.454 5.04656 0.339958 0
M  V30 5887 C 556.752 4.22757 1.421 0
M  V30 5888 C 557.453 5.81675 0.0538806 0
M  V30 5889 N 556.429 5.39739 0.646776 0
M  V30 5890 H 560.231 2.93733 -0.099135 0
M  V30 5891 H 557.745 1.61656 -0.15524 0
M  V30 5892 H 559.742 3.47284 2.30651 0
M  V30 5893 H 558.402 2.29629 2.29566 0
M  V30 5894 H 559.413 5.17896 -0.0193552 0
M  V30 5895 H 556.09 3.63704 2.05002 0
M  V30 5896 H 557.48 6.69256 -0.595443 0
M  V30 5897 N 560.2 0.0768682 1.57412 0
M  V30 5898 C 561.163 -0.873949 2.11884 0
M  V30 5899 C 562.163 -1.22301 1.04398 0
M  V30 5900 O 563.353 -1.15545 1.30365 0
M  V30 5901 C 560.485 -2.17575 2.62438 0
M  V30 5902 H 561.678 -0.401278 2.97203 0
M  V30 5903 H 559.231 -0.171904 1.55352 0
M  V30 5904 H 559.966 -2.69368 1.80587 0
M  V30 5905 H 559.751 -1.93534 3.41009 0
M  V30 5906 H 561.241 -2.85631 3.04639 0
M  V30 5907 N 561.678 -1.56367 -0.196722 0
M  V30 5908 C 562.955 -1.71359 -0.943159 0
M  V30 5909 C 563.335 -0.631192 -2.01443 0
M  V30 5910 O 562.683 0.358071 -2.25677 0
M  V30 5911 C 562.893 -3.13623 -1.53106 0
M  V30 5912 C 564.241 -3.73806 -2.01381 0
M  V30 5913 O 565.265 -3.16742 -1.62951 0
M  V30 5914 O 564.124 -4.73951 -2.7209 0
M  V30 5915 H 561.218 -0.698851 -0.442195 0
M  V30 5916 H 563.764 -1.68672 -0.186547 0
M  V30 5917 H 562.536 -3.83873 -0.758785 0
M  V30 5918 H 562.159 -3.20532 -2.35255 0
M  V30 5919 N 563.156 0.464375 -1.50603 0
M  V30 5920 C 564.386 1.23727 -1.65454 0
M  V30 5921 C 564.794 1.86119 -0.340032 0
M  V30 5922 O 564.137 1.70301 0.688706 0
M  V30 5923 C 564.199 2.38153 -2.69301 0
M  V30 5924 C 563.863 1.96345 -4.12671 0
M  V30 5925 C 564.86 1.48215 -4.98326 0
M  V30 5926 C 562.545 2.04861 -4.58625 0
M  V30 5927 C 564.539 1.09152 -6.27985 0
M  V30 5928 C 562.226 1.65409 -5.88288 0
M  V30 5929 C 563.224 1.17634 -6.72794 0
M  V30 5930 O 562.912 0.787312 -8.00035 0
M  V30 5931 H 562.644 0.380075 -0.559034 0
M  V30 5932 H 565.198 0.559919 -1.97621 0
M  V30 5933 H 563.428 3.09081 -2.32392 0
M  V30 5934 H 565.117 3.00099 -2.73304 0
M  V30 5935 H 565.883 1.41052 -4.64036 0
M  V30 5936 H 561.762 2.40996 -3.92991 0
M  V30 5937 H 565.306 0.717909 -6.93896 0
M  V30 5938 H 561.203 1.72233 -6.22098 0
M  V30 5939 H 561.971 0.915567 -8.13363 0
M  V30 5940 N 564.634 1.40294 0.718013 0
M  V30 5941 C 565.544 1.42678 1.86226 0
M  V30 5942 C 566.56 0.319655 1.71039 0
M  V30 5943 O 567.736 0.563852 1.93346 0
M  V30 5944 C 564.801 1.2852 3.21999 0
M  V30 5945 C 563.862 2.49354 3.49458 0
M  V30 5946 C 563.095 2.35863 4.78753 0
M  V30 5947 O 563.318 1.37114 5.53675 0
M  V30 5948 O 562.252 3.25189 5.06494 0
M  V30 5949 H 566.078 2.39167 1.87171 0
M  V30 5950 H 563.663 1.2159 0.868112 0
M  V30 5951 H 565.545 1.22824 4.03103 0
M  V30 5952 H 564.22 0.351359 3.21787 0
M  V30 5953 H 563.127 2.60628 2.68373 0
M  V30 5954 H 564.46 3.41491 3.54464 0
M  V30 5955 N 566.112 -0.949982 1.2575 0
M  V30 5956 C 567.044 -2.05088 1.02331 0
M  V30 5957 C 568.057 -1.62795 -0.0133247 0
M  V30 5958 O 569.246 -1.77067 0.225759 0
M  V30 5959 C 566.346 -3.34794 0.525924 0
M  V30 5960 C 565.519 -4.05903 1.62978 0
M  V30 5961 C 564.578 -5.1388 1.13196 0
M  V30 5962 O 563.604 -5.39072 1.82729 0
M  V30 5963 N 564.806 -5.80495 -0.0242926 0
M  V30 5964 H 567.571 -2.25747 1.97125 0
M  V30 5965 H 565.132 -1.11886 1.17018 0
M  V30 5966 H 567.124 -4.04312 0.177263 0
M  V30 5967 H 565.694 -3.10872 -0.328202 0
M  V30 5968 H 564.914 -3.3042 2.1498 0
M  V30 5969 H 566.202 -4.50166 2.37124 0
M  V30 5970 H 565.6 -5.62454 -0.605184 0
M  V30 5971 H 564.157 -6.51043 -0.313947 0
M  V30 5972 N 567.59 -1.07411 -1.15328 0
M  V30 5973 C 568.52 -0.716472 -2.22236 0
M  V30 5974 C 569.501 0.296373 -1.67498 0
M  V30 5975 O 570.686 0.168989 -1.93463 0
M  V30 5976 C 567.816 -0.114142 -3.47112 0
M  V30 5977 C 566.77 -1.05421 -4.14814 0
M  V30 5978 C 566.096 -0.314604 -5.33774 0
M  V30 5979 C 567.396 -2.38808 -4.64508 0
M  V30 5980 H 569.09 -1.61029 -2.52408 0
M  V30 5981 H 566.636 -0.775702 -1.21321 0
M  V30 5982 H 568.589 0.148001 -4.2114 0
M  V30 5983 H 567.313 0.814755 -3.16274 0
M  V30 5984 H 565.972 -1.30128 -3.42728 0
M  V30 5985 H 565.62 0.617772 -4.99192 0
M  V30 5986 H 565.32 -0.941209 -5.80013 0
M  V30 5987 H 566.844 -0.0602747 -6.1057 0
M  V30 5988 H 568.258 -2.18424 -5.3006 0
M  V30 5989 H 566.655 -2.97069 -5.21412 0
M  V30 5990 H 567.725 -3.01067 -3.80114 0
M  V30 5991 N 569.068 1.32177 -0.85831 0
M  V30 5992 C 570.015 2.28794 -0.303607 0
M  V30 5993 C 570.985 1.55213 0.591453 0
M  V30 5994 O 572.17 1.83418 0.525585 0
M  V30 5995 C 569.31 3.41475 0.49889 0
M  V30 5996 C 568.423 4.2993 -0.422373 0
M  V30 5997 C 567.558 5.29743 0.393111 0
M  V30 5998 C 566.597 6.09842 -0.525317 0
M  V30 5999 N 565.734 7.01643 0.253208 0
M  V30 6000 H 570.574 2.75631 -1.13276 0
M  V30 6001 H 568.111 1.35606 -0.570026 0
M  V30 6002 H 570.069 4.05531 0.979826 0
M  V30 6003 H 568.699 2.95779 1.29284 0
M  V30 6004 H 567.751 3.66422 -1.02171 0
M  V30 6005 H 569.063 4.85899 -1.12709 0
M  V30 6006 H 568.217 5.9942 0.937056 0
M  V30 6007 H 566.956 4.744 1.13117 0
M  V30 6008 H 565.961 5.39066 -1.08112 0
M  V30 6009 H 567.186 6.6727 -1.26205 0
M  V30 6010 H 565.132 6.48725 0.974295 0
M  V30 6011 H 565.049 7.54981 -0.392398 0
M  V30 6012 H 566.317 7.756 0.778761 0
M  V30 6013 N 570.547 0.616602 1.45037 0
M  V30 6014 C 571.775 0.121968 2.0654 0
M  V30 6015 C 572.19 -1.19743 1.45969 0
M  V30 6016 O 571.547 -1.73133 0.577168 0
M  V30 6017 C 571.598 -0.0145171 3.61497 0
M  V30 6018 O 571.319 1.25269 4.19809 0
M  V30 6019 C 572.82 -0.539555 4.40004 0
M  V30 6020 H 570.04 0.0729837 0.667019 0
M  V30 6021 H 572.584 0.846891 1.8614 0
M  V30 6022 H 570.739 -0.689809 3.81209 0
M  V30 6023 H 571.153 1.08816 5.13088 0
M  V30 6024 H 572.627 -0.584112 5.48901 0
M  V30 6025 H 573.104 -1.56368 4.10421 0
M  V30 6026 H 573.71 0.101995 4.25178 0
M  V30 6027 N 572.025 -1.5352 0.356285 0
M  V30 6028 C 572.958 -2.2177 -0.537913 0
M  V30 6029 C 573.936 -1.20626 -1.09033 0
M  V30 6030 O 575.12 -1.49494 -1.1482 0
M  V30 6031 C 572.247 -2.90513 -1.74126 0
M  V30 6032 C 571.293 -4.05652 -1.31715 0
M  V30 6033 S 572.126 -5.34505 -0.326236 0
M  V30 6034 C 573.282 -6.06757 -1.53612 0
M  V30 6035 H 573.515 -2.97271 0.0417411 0
M  V30 6036 H 571.048 -1.53761 0.140372 0
M  V30 6037 H 573.006 -3.30735 -2.43155 0
M  V30 6038 H 571.667 -2.14754 -2.29215 0
M  V30 6039 H 570.86 -4.52733 -2.21471 0
M  V30 6040 H 570.462 -3.67272 -0.706183 0
M  V30 6041 H 572.754 -6.30924 -2.46863 0
M  V30 6042 H 573.697 -6.99395 -1.10687 0
M  V30 6043 H 574.105 -5.3708 -1.73796 0
M  V30 6044 N 573.503 -0.0852151 -1.57369 0
M  V30 6045 C 574.466 0.8627 -2.12344 0
M  V30 6046 C 575.466 1.21746 -1.05046 0
M  V30 6047 O 576.656 1.14852 -1.30976 0
M  V30 6048 C 573.788 2.1618 -2.63589 0
M  V30 6049 H 574.981 0.385511 -2.97412 0
M  V30 6050 H 572.534 0.163663 -1.55441 0
M  V30 6051 H 573.269 2.68406 -1.82013 0
M  V30 6052 H 573.054 1.91723 -3.4203 0
M  V30 6053 H 574.544 2.84011 -3.06149 0
M  V30 6054 N 574.981 1.5647 0.188427 0
M  V30 6055 C 575.913 1.91611 1.25769 0
M  V30 6056 C 576.926 0.807436 1.41366 0
M  V30 6057 O 578.115 1.08586 1.41673 0
M  V30 6058 C 575.215 2.13874 2.6289 0
M  V30 6059 C 574.388 3.45047 2.68815 0
M  V30 6060 C 573.447 3.56342 3.87178 0
M  V30 6061 O 572.473 4.29109 3.73971 0
M  V30 6062 N 573.675 2.89924 5.02916 0
M  V30 6063 H 576.44 2.8393 0.959373 0
M  V30 6064 H 574.001 1.57418 0.378306 0
M  V30 6065 H 575.993 2.18713 3.4051 0
M  V30 6066 H 574.563 1.28022 2.85183 0
M  V30 6067 H 573.783 3.52017 1.77419 0
M  V30 6068 H 575.071 4.31395 2.6977 0
M  V30 6069 H 574.469 2.30644 5.16546 0
M  V30 6070 H 573.026 3.0038 5.78459 0
M  V30 6071 N 576.459 -0.456382 1.50847 0
M  V30 6072 C 577.687 -1.23026 1.66349 0
M  V30 6073 C 578.102 -1.85473 0.352868 0
M  V30 6074 O 577.459 -1.69885 -0.666739 0
M  V30 6075 C 577.51 -2.32827 2.76539 0
M  V30 6076 O 577.231 -1.72938 4.02522 0
M  V30 6077 C 578.732 -3.23448 3.03144 0
M  V30 6078 H 575.952 -0.371527 0.558756 0
M  V30 6079 H 578.496 -0.543082 1.97157 0
M  V30 6080 H 576.651 -2.97294 2.48384 0
M  V30 6081 H 577.065 -2.45357 4.63573 0
M  V30 6082 H 578.539 -3.96669 3.83872 0
M  V30 6083 H 579.016 -3.83094 2.14793 0
M  V30 6084 H 579.622 -2.64702 3.32886 0
M  V30 6085 N 577.937 -1.40673 -0.710563 0
M  V30 6086 C 579.186 -1.38525 -1.46607 0
M  V30 6087 C 579.499 0.0077024 -1.95598 0
M  V30 6088 O 580.705 0.151792 -2.71075 0
M  V30 6089 C 579.161 -2.43489 -2.6503 0
M  V30 6090 C 578.769 -3.88619 -2.22888 0
M  V30 6091 C 580.513 -2.50456 -3.42742 0
M  V30 6092 C 578.42 -4.85168 -3.3818 0
M  V30 6093 H 577.35 -0.515092 -0.550632 0
M  V30 6094 H 580.001 -1.66431 -0.772846 0
M  V30 6095 H 578.383 -2.0869 -3.36548 0
M  V30 6096 H 579.557 -4.32588 -1.58758 0
M  V30 6097 H 577.872 -3.85174 -1.58208 0
M  V30 6098 H 580.469 -3.19776 -4.28541 0
M  V30 6099 H 580.812 -1.53665 -3.86902 0
M  V30 6100 H 581.345 -2.84271 -2.78271 0
M  V30 6101 H 578.084 -5.8331 -2.99047 0
M  V30 6102 H 577.604 -4.4586 -4.01209 0
M  V30 6103 H 579.283 -5.05225 -4.04174 0
M  V30 6104 N 579.415 0.9433 -1.26252 0
M  V30 6105 C 580.378 2.02326 -1.07689 0
M  V30 6106 C 581.378 1.60779 -0.0259174 0
M  V30 6107 O 582.568 1.72108 -0.269134 0
M  V30 6108 C 579.7 3.34886 -0.63752 0
M  V30 6109 H 580.893 2.20225 -2.0357 0
M  V30 6110 H 578.446 1.12197 -1.08819 0
M  V30 6111 H 579.181 3.22684 0.323377 0
M  V30 6112 H 578.966 3.66393 -1.39637 0
M  V30 6113 H 580.456 4.14231 -0.529418 0
M  V30 6114 N 580.893 1.08022 1.14757 0
M  V30 6115 C 582.309 0.807072 1.3769 0
M  V30 6116 C 582.509 -0.585504 1.92806 0
M  V30 6117 O 581.565 -1.34301 2.13821 0
M  V30 6118 C 582.878 1.88651 2.34161 0
M  V30 6119 C 584.426 1.91206 2.47809 0
M  V30 6120 C 584.901 2.98253 3.47576 0
M  V30 6121 N 586.392 2.974 3.55117 0
M  V30 6122 C 587.127 3.76872 4.32152 0
M  V30 6123 N 586.623 4.66212 5.12463 0
M  V30 6124 N 588.416 3.6519 4.27309 0
M  V30 6125 H 580.567 1.97824 0.77326 0
M  V30 6126 H 582.83 0.85826 0.402608 0
M  V30 6127 H 582.536 2.88749 2.00791 0
M  V30 6128 H 582.41 1.75244 3.3402 0
M  V30 6129 H 584.797 0.917564 2.80472 0
M  V30 6130 H 584.878 2.08691 1.47925 0
M  V30 6131 H 584.522 3.97907 3.15646 0
M  V30 6132 H 584.452 2.78014 4.47231 0
M  V30 6133 H 586.943 2.32643 2.97801 0
M  V30 6134 H 587.256 5.23468 5.68508 0
M  V30 6135 H 585.601 4.70257 5.11745 0
M  V30 6136 H 588.792 2.94765 3.63636 0
M  V30 6137 H 588.965 4.27366 4.87095 0
M  V30 6138 N 582.371 -1.3172 0.865308 0
M  V30 6139 C 583.334 -2.26918 0.322627 0
M  V30 6140 C 584.334 -1.52031 -0.523751 0
M  V30 6141 O 585.524 -1.70973 -0.333727 0
M  V30 6142 C 582.656 -3.36558 -0.542338 0
M  V30 6143 H 583.849 -2.76432 1.16298 0
M  V30 6144 H 581.402 -1.42573 0.640512 0
M  V30 6145 H 582.137 -2.92329 -1.40407 0
M  V30 6146 H 581.922 -3.92048 0.0636395 0
M  V30 6147 H 583.412 -4.07465 -0.91446 0
M  V30 6148 N 583.85 -0.624285 -1.44708 0
M  V30 6149 C 584.779 0.0717025 -2.3339 0
M  V30 6150 C 585.76 0.841814 -1.47809 0
M  V30 6151 O 586.946 0.809056 -1.76544 0
M  V30 6152 C 584.076 1.05852 -3.30776 0
M  V30 6153 C 583.029 0.400503 -4.26122 0
M  V30 6154 C 582.356 1.49674 -5.13324 0
M  V30 6155 C 583.656 -0.688924 -5.17737 0
M  V30 6156 H 585.35 -0.668819 -2.91834 0
M  V30 6157 H 582.896 -0.32308 -1.40329 0
M  V30 6158 H 584.849 1.5541 -3.91696 0
M  V30 6159 H 583.572 1.82984 -2.70526 0
M  V30 6160 H 582.231 -0.0743687 -3.66525 0
M  V30 6161 H 581.88 2.25877 -4.49431 0
M  V30 6162 H 581.58 1.06188 -5.77926 0
M  V30 6163 H 583.104 1.99427 -5.77115 0
M  V30 6164 H 584.518 -0.276724 -5.72632 0
M  V30 6165 H 582.915 -1.04652 -5.90904 0
M  V30 6166 H 583.985 -1.55884 -4.5916 0
M  V30 6167 N 585.328 1.53329 -0.364422 0
M  V30 6168 C 586.275 2.25698 0.482607 0
M  V30 6169 C 587.245 1.26325 1.07848 0
M  V30 6170 O 588.43 1.55104 1.11119 0
M  V30 6171 C 585.57 3.04873 1.61699 0
M  V30 6172 C 584.683 4.19135 1.0464 0
M  V30 6173 C 583.818 4.85754 2.14979 0
M  V30 6174 C 582.857 5.9205 1.5538 0
M  V30 6175 N 581.994 6.52365 2.59547 0
M  V30 6176 H 586.834 2.97666 -0.141032 0
M  V30 6177 H 584.371 1.46875 -0.0813692 0
M  V30 6178 H 586.329 3.49051 2.28516 0
M  V30 6179 H 584.959 2.35162 2.2113 0
M  V30 6180 H 584.011 3.79451 0.268553 0
M  V30 6181 H 585.323 4.95525 0.570653 0
M  V30 6182 H 584.477 5.3311 2.89619 0
M  V30 6183 H 583.216 4.08834 2.65906 0
M  V30 6184 H 582.221 5.44058 0.792549 0
M  V30 6185 H 583.446 6.7089 1.0528 0
M  V30 6186 H 581.392 5.78298 3.09689 0
M  V30 6187 H 581.309 7.2429 2.16655 0
M  V30 6188 H 582.577 7.0437 3.33892 0
M  V30 6189 N 586.806 0.0935595 1.57322 0
M  V30 6190 C 587.769 -0.851426 2.12799 0
M  V30 6191 C 588.769 -1.21187 1.0569 0
M  V30 6192 O 589.959 -1.14156 1.31583 0
M  V30 6193 C 587.091 -2.14779 2.64731 0
M  V30 6194 H 588.284 -0.369733 2.97612 0
M  V30 6195 H 585.837 -0.155417 1.55525 0
M  V30 6196 H 586.572 -2.67437 1.83434 0
M  V30 6197 H 586.357 -1.89907 3.43042 0
M  V30 6198 H 587.847 -2.82383 3.07651 0
M  V30 6199 N 588.284 -1.56567 -0.180126 0
M  V30 6200 C 589.231 -1.95725 -1.22313 0
M  V30 6201 C 590.201 -0.819911 -1.44453 0
M  V30 6202 O 591.386 -1.07931 -1.57339 0
M  V30 6203 C 588.526 -2.31484 -2.55947 0
M  V30 6204 C 587.639 -3.58354 -2.4126 0
M  V30 6205 C 586.774 -3.83366 -3.67701 0
M  V30 6206 C 585.813 -5.03612 -3.47909 0
M  V30 6207 N 584.95 -5.24802 -4.66398 0
M  V30 6208 H 589.79 -2.84642 -0.882198 0
M  V30 6209 H 587.327 -1.4085 -0.42422 0
M  V30 6210 H 589.285 -2.50237 -3.33822 0
M  V30 6211 H 587.915 -1.45689 -2.88053 0
M  V30 6212 H 586.967 -3.47565 -1.54606 0
M  V30 6213 H 588.279 -4.46386 -2.22577 0
M  V30 6214 H 587.433 -4.02439 -4.54013 0
M  V30 6215 H 586.172 -2.93692 -3.89353 0
M  V30 6216 H 585.177 -4.84447 -2.59983 0
M  V30 6217 H 586.402 -5.94809 -3.27688 0
M  V30 6218 H 584.348 -4.38079 -4.88286 0
M  V30 6219 H 584.265 -6.07041 -4.50596 0
M  V30 6220 H 585.533 -5.48346 -5.54019 0
M  V30 6221 N 589.762 0.448376 -1.51087 0
M  V30 6222 C 590.692 1.55102 -1.74544 0
M  V30 6223 C 591.673 1.59357 -0.594932 0
M  V30 6224 O 592.858 1.75261 -0.836491 0
M  V30 6225 C 589.988 2.93268 -1.86041 0
M  V30 6226 C 588.942 3.03877 -3.01402 0
M  V30 6227 C 588.268 4.43914 -2.98068 0
M  V30 6228 C 589.568 2.7898 -4.41551 0
M  V30 6229 H 591.262 1.35724 -2.66869 0
M  V30 6230 H 588.808 0.651498 -1.28419 0
M  V30 6231 H 590.761 3.70356 -2.01034 0
M  V30 6232 H 589.485 3.13853 -0.903548 0
M  V30 6233 H 588.144 2.29227 -2.86096 0
M  V30 6234 H 587.792 4.6145 -2.00182 0
M  V30 6235 H 587.492 4.51944 -3.75527 0
M  V30 6236 H 589.016 5.22991 -3.1514 0
M  V30 6237 H 590.43 3.45805 -4.57265 0
M  V30 6238 H 588.827 2.98431 -5.20633 0
M  V30 6239 H 589.897 1.74663 -4.5235 0
M  V30 6240 N 591.24 1.41047 0.703093 0
M  V30 6241 C 592.203 1.42036 1.79884 0
M  V30 6242 C 593.203 0.312153 1.57741 0
M  V30 6243 O 594.393 0.571672 1.64553 0
M  V30 6244 C 591.525 1.22437 3.18154 0
M  V30 6245 H 592.718 2.39572 1.80403 0
M  V30 6246 H 590.271 1.27079 0.909977 0
M  V30 6247 H 591.006 0.257112 3.23279 0
M  V30 6248 H 590.791 2.02723 3.35627 0
M  V30 6249 H 592.281 1.25946 3.98155 0
M  V30 6250 N 592.718 -0.936591 1.26751 0
M  V30 6251 C 593.681 -2.01752 1.08761 0
M  V30 6252 C 594.681 -1.60763 0.0344435 0
M  V30 6253 O 595.871 -1.71963 0.278258 0
M  V30 6254 C 593.003 -3.34543 0.655271 0
M  V30 6255 H 594.196 -2.19143 2.04735 0
M  V30 6256 H 591.749 -1.11618 1.09413 0
M  V30 6257 H 592.484 -3.22851 -0.30626 0
M  V30 6258 H 592.269 -3.65647 1.41578 0
M  V30 6259 H 593.759 -4.13944 0.551378 0
M  V30 6260 O 594.235 -1.20928 -1.07045 0
M  V30 6261 H 594.926 -0.966183 -1.67883 0
M  V30 END ATOM
M  V30 BEGIN BOND
M  V30 END BOND
M  V30 END CTAB
M  END
$$$$
