drugbank_target|P20248 Cyclin-A2 (DB02091; DB02407; DB02833; DB02915; DB06844; DB06944; DB06948; DB07126; DB07137; DB07164; DB07203; DB07471; DB07533; DB07534; DB07538; DB07539; DB07562; DB07688; DB07852; DB08178; DB08182; DB08218; DB08219; DB08233; DB08241; DB08248; DB08285; DB08309; DB08355; DB08463; DB08527; DB08572; DB08694)
 OpenBabel12092120383D

  0  0  0     0  0            999 V3000
M  V30 BEGIN CTAB
M  V30 COUNTS 6864 6943 0 0 0
M  V30 BEGIN ATOM
M  V30 1 H -0.908 1.98254 -0.117106 0
M  V30 2 N 0 1.576 0 0
M  V30 3 C 0.933 2.03868 1.02534 0
M  V30 4 C 1.911 0.928543 1.3348 0
M  V30 5 O 3.095 1.19667 1.45644 0
M  V30 6 C 0.222 2.43627 2.35294 0
M  V30 7 C -0.732 3.65373 2.2001 0
M  V30 8 S 0.101 5.13292 1.52614 0
M  V30 9 C 1.257 5.56322 2.86805 0
M  V30 10 H 1.49 2.90518 0.631377 0
M  V30 11 H -0.977 1.52953 0.210867 0
M  V30 12 H 0.981 2.67203 3.11629 0
M  V30 13 H -0.358 1.57376 2.7183 0
M  V30 14 H -1.165 3.90944 3.18086 0
M  V30 15 H -1.563 3.418 1.51819 0
M  V30 16 H 0.729 5.58782 3.83104 0
M  V30 17 H 1.672 6.56266 2.65933 0
M  V30 18 H 2.08 4.83886 2.90714 0
M  V30 19 N 1.4781 -0.272755 1.55222 0
M  V30 20 C 2.4081 -1.34136 1.91127 0
M  V30 21 C 3.3891 -1.51513 0.773168 0
M  V30 22 O 4.5741 -1.64552 1.03132 0
M  V30 23 C 1.7041 -2.70083 2.1834 0
M  V30 24 C 0.6581 -2.67437 3.34158 0
M  V30 25 C -0.0159 -4.06938 3.46851 0
M  V30 26 C 1.2841 -2.26686 4.70543 0
M  V30 27 H 2.9781 -1.04333 2.80633 0
M  V30 28 H 0.5241 -0.500454 1.35024 0
M  V30 29 H 2.4771 -3.44952 2.42046 0
M  V30 30 H 1.2011 -3.01469 1.25634 0
M  V30 31 H -0.1399 -1.95026 3.1042 0
M  V30 32 H -0.4919 -4.35547 2.51611 0
M  V30 33 H -0.7919 -4.06062 4.2472 0
M  V30 34 H 0.7321 -4.83545 3.72849 0
M  V30 35 H 2.1461 -2.91277 4.93792 0
M  V30 36 H 0.5431 -2.36971 5.5133 0
M  V30 37 H 1.6131 -1.21818 4.69349 0
M  V30 38 N 2.9562 -1.48159 -0.537278 0
M  V30 39 C 4.2042 -1.55497 -1.29094 0
M  V30 40 C 4.5252 -0.227454 -1.93669 0
M  V30 41 O 3.7952 0.750386 -1.80959 0
M  V30 42 H 2.3752 -0.572832 -0.47945 0
M  V30 43 H 5.0372 -1.84579 -0.625818 0
M  V30 44 H 4.1332 -2.33216 -2.07405 0
M  V30 45 N 4.4343 0.785586 -1.36625 0
M  V30 46 C 5.3823 1.91978 -1.31329 0
M  V30 47 C 6.3763 1.68162 -0.204416 0
M  V30 48 O 7.5823 1.76122 -0.371645 0
M  V30 49 H 3.9573 0.631087 -0.408942 0
M  V30 50 H 5.9283 1.93562 -2.27104 0
M  V30 51 C 4.6773 3.29055 -1.12329 0
M  V30 52 H 4.0003 3.4795 -1.96903 0
M  V30 53 H 5.4403 4.08756 -1.12671 0
M  V30 54 C 3.8993 3.36461 0.171861 0
M  V30 55 O 4.4293 3.84576 1.16035 0
M  V30 56 N 2.6353 2.89782 0.217846 0
M  V30 57 H 2.1823 2.50819 -0.587183 0
M  V30 58 H 2.1403 2.95119 1.08408 0
M  V30 59 N 5.9124 1.20967 1.01018 0
M  V30 60 C 7.1374 1.0503 1.78839 0
M  V30 61 C 7.5624 -0.395752 1.8389 0
M  V30 62 O 6.9204 -1.28529 1.27867 0
M  V30 63 C 6.9684 1.64602 3.2084 0
M  V30 64 O 6.0724 0.887988 4.02726 0
M  V30 65 H 5.4134 0.369987 0.551367 0
M  V30 66 H 7.9434 1.60399 1.27018 0
M  V30 67 H 7.9534 1.68607 3.71532 0
M  V30 68 H 6.6284 2.69841 3.16479 0
M  V30 69 H 5.2054 0.922648 3.61305 0
M  V30 70 N 7.3905 -1.2043 1.01659 0
M  V30 71 C 8.3535 -2.21433 0.591616 0
M  V30 72 C 9.3535 -1.57203 -0.338226 0
M  V30 73 O 10.5435 -1.73737 -0.126918 0
M  V30 74 C 7.6755 -3.40628 -0.136058 0
M  V30 75 H 8.8685 -2.60545 1.48514 0
M  V30 76 H 6.4215 -1.33893 0.806379 0
M  V30 77 H 7.1565 -3.07019 -1.04449 0
M  V30 78 H 6.9415 -3.88475 0.531917 0
M  V30 79 H 8.4315 -4.15475 -0.420735 0
M  V30 80 N 8.8686 -0.792821 -1.36206 0
M  V30 81 C 10.2796 -0.429513 -1.81692 0
M  V30 82 C 10.6306 1.04695 -1.65932 0
M  V30 83 O 9.7556 1.81256 -1.18218 0
M  V30 84 C 10.3506 -0.772831 -3.29868 0
M  V30 85 C 8.9096 -0.462307 -3.7355 0
M  V30 86 C 8.0566 -1.00569 -2.5842 0
M  V30 87 H 11.0076 -0.985672 -1.24379 0
M  V30 88 H 11.0286 -0.0651928 -3.80444 0
M  V30 89 H 10.5406 -1.84747 -3.41307 0
M  V30 90 H 8.6416 0.604158 -3.67669 0
M  V30 91 H 8.7546 -0.985299 -4.68859 0
M  V30 92 H 7.1186 -0.428734 -2.51066 0
M  V30 93 H 7.9016 -2.08616 -2.72643 0
M  V30 94 N 10.3467 1.47872 -0.545128 0
M  V30 95 C 11.5947 2.02093 -0.016553 0
M  V30 96 C 11.9157 1.42305 1.3332 0
M  V30 97 O 11.1857 0.593853 1.86682 0
M  V30 98 H 9.7657 0.746993 -0.00313038 0
M  V30 99 H 12.4277 1.81414 -0.712397 0
M  V30 100 H 11.5237 3.11996 0.0805422 0
M  V30 101 N 11.8248 0.280983 1.55075 0
M  V30 102 C 13.2358 -0.215629 1.85451 0
M  V30 103 C 13.5868 -1.54991 1.203 0
M  V30 104 O 12.7118 -2.10699 0.493435 0
M  V30 105 C 13.3068 -0.398026 3.36454 0
M  V30 106 C 11.8658 -0.838866 3.66933 0
M  V30 107 C 11.0128 0.064458 2.77225 0
M  V30 108 H 13.9638 0.502601 1.50531 0
M  V30 109 H 13.9848 -1.23569 3.59876 0
M  V30 110 H 13.4968 0.573241 3.83843 0
M  V30 111 H 11.5978 -1.8214 3.25048 0
M  V30 112 H 11.7108 -0.672123 4.74362 0
M  V30 113 H 10.0748 -0.452863 2.50642 0
M  V30 114 H 10.8578 1.03172 3.2743 0
M  V30 115 N 13.3029 -1.57598 0.00835791 0
M  V30 116 C 14.2659 -2.07884 -0.965242 0
M  V30 117 C 15.2659 -0.989825 -1.26725 0
M  V30 118 O 16.4559 -1.25218 -1.21104 0
M  V30 119 C 13.5879 -2.52731 -2.28779 0
M  V30 120 H 14.7809 -2.95178 -0.530112 0
M  V30 121 H 12.3339 -1.54458 -0.239283 0
M  V30 122 H 13.0689 -1.68705 -2.76964 0
M  V30 123 H 12.8539 -3.32272 -2.08177 0
M  V30 124 H 14.3439 -2.91933 -2.98605 0
M  V30 125 N 14.781 0.264519 -1.55364 0
M  V30 126 C 16.009 1.013 -1.80405 0
M  V30 127 C 16.424 1.79618 -0.581622 0
M  V30 128 O 15.781 1.76879 0.449468 0
M  V30 129 C 15.832 1.96487 -3.03439 0
M  V30 130 O 15.553 1.21341 -4.20961 0
M  V30 131 C 17.054 2.83079 -3.41147 0
M  V30 132 H 14.274 0.298875 -0.600762 0
M  V30 133 H 16.818 0.292736 -2.02394 0
M  V30 134 H 14.973 2.63965 -2.83551 0
M  V30 135 H 15.387 1.85573 -4.90574 0
M  V30 136 H 16.861 3.4565 -4.30384 0
M  V30 137 H 17.338 3.53286 -2.60932 0
M  V30 138 H 17.944 2.2108 -3.63323 0
M  V30 139 N 16.2591 1.48442 0.529413 0
M  V30 140 C 17.6751 1.34575 0.858004 0
M  V30 141 C 17.8751 0.3572 1.98309 0
M  V30 142 O 16.9311 -0.221379 2.51528 0
M  V30 143 C 18.2441 2.74617 1.22499 0
M  V30 144 C 19.7921 2.83109 1.33484 0
M  V30 145 C 20.2671 4.23854 1.73526 0
M  V30 146 N 21.7581 4.2653 1.80628 0
M  V30 147 C 22.4931 5.32372 2.12997 0
M  V30 148 N 21.9891 6.48491 2.43786 0
M  V30 149 N 23.7821 5.19766 2.14008 0
M  V30 150 H 15.9331 2.1133 -0.212925 0
M  V30 151 H 18.1961 0.947439 -0.0326199 0
M  V30 152 H 17.9021 3.4852 0.471905 0
M  V30 153 H 17.7761 3.08177 2.17501 0
M  V30 154 H 20.1631 2.09462 2.0787 0
M  V30 155 H 20.2441 2.53168 0.366027 0
M  V30 156 H 19.8881 4.98018 0.997013 0
M  V30 157 H 19.8181 4.5124 2.71459 0
M  V30 158 H 22.3091 3.42772 1.59108 0
M  V30 159 H 22.6221 7.24993 2.67592 0
M  V30 160 H 20.9671 6.51765 2.41304 0
M  V30 161 H 24.1581 4.28066 1.89412 0
M  V30 162 H 24.3311 6.02354 2.38902 0
M  V30 163 N 17.7372 -0.778329 1.37039 0
M  V30 164 C 18.6472 -1.92253 1.34446 0
M  V30 165 C 19.6632 -1.72267 0.244991 0
M  V30 166 O 20.8392 -1.95615 0.479258 0
M  V30 167 C 17.9042 -3.27282 1.144 0
M  V30 168 C 16.9652 -3.59969 2.33925 0
M  V30 169 C 16.1982 -4.88555 2.14825 0
M  V30 170 O 16.4212 -5.59113 1.12912 0
M  V30 171 O 15.3552 -5.20153 3.02861 0
M  V30 172 H 19.1812 -1.97392 2.30803 0
M  V30 173 H 16.7662 -0.920154 1.17701 0
M  V30 174 H 18.6482 -4.08062 1.05182 0
M  V30 175 H 17.3232 -3.23011 0.211124 0
M  V30 176 H 16.2302 -2.7945 2.48714 0
M  V30 177 H 17.5632 -3.68976 3.25757 0
M  V30 178 N 19.2153 -1.21501 -1.00376 0
M  V30 179 C 20.1783 -0.976927 -2.07337 0
M  V30 180 C 21.1783 0.0525322 -1.60714 0
M  V30 181 O 22.3683 -0.184869 -1.73216 0
M  V30 182 C 19.5003 -0.473423 -3.37597 0
M  V30 183 H 20.6933 -1.92587 -2.29892 0
M  V30 184 H 18.2463 -1.03217 -1.17371 0
M  V30 185 H 18.9813 0.480379 -3.20722 0
M  V30 186 H 18.7663 -1.216 -3.72768 0
M  V30 187 H 20.2563 -0.32675 -4.1632 0
M  V30 188 N 20.6934 1.19889 -1.02296 0
M  V30 189 C 21.9414 1.89046 -0.714558 0
M  V30 190 C 22.2624 1.79636 0.758681 0
M  V30 191 O 21.5324 1.20292 1.54618 0
M  V30 192 H 20.1124 0.699802 -0.261317 0
M  V30 193 H 22.7744 1.45574 -1.29592 0
M  V30 194 H 21.8704 2.95524 -1.0036 0
M  V30 195 N 22.1715 0.800033 1.35784 0
M  V30 196 C 23.3965 0.388511 2.03729 0
M  V30 197 C 23.8215 -0.990481 1.5991 0
M  V30 198 O 23.1795 -1.64013 0.772612 0
M  V30 199 C 23.2275 0.4726 3.5749 0
M  V30 200 O 22.3315 -0.51646 4.09153 0
M  V30 201 H 21.6725 0.163271 0.643614 0
M  V30 202 H 24.2025 1.0841 1.73518 0
M  V30 203 H 24.2125 0.34003 4.06581 0
M  V30 204 H 22.8875 1.47848 3.88734 0
M  V30 205 H 21.4645 -0.344673 3.71304 0
M  V30 206 N 23.6496 -1.47581 0.552962 0
M  V30 207 C 24.6126 -2.28439 -0.186605 0
M  V30 208 C 25.6126 -1.36706 -0.84665 0
M  V30 209 O 26.8026 -1.59378 -0.703164 0
M  V30 210 C 23.9346 -3.16264 -1.2724 0
M  V30 211 H 25.1276 -2.95294 0.523609 0
M  V30 212 H 22.6806 -1.532 0.309745 0
M  V30 213 H 23.4156 -2.54091 -2.01514 0
M  V30 214 H 23.2006 -3.83769 -0.803968 0
M  V30 215 H 24.6906 -3.77198 -1.79196 0
M  V30 216 N 25.1277 -0.289203 -1.54924 0
M  V30 217 C 26.0577 0.58549 -2.2604 0
M  V30 218 C 27.0387 1.14753 -1.25562 0
M  V30 219 O 28.2237 1.17906 -1.54311 0
M  V30 220 C 25.3537 1.76305 -2.99222 0
M  V30 221 C 24.3077 1.33191 -4.06748 0
M  V30 222 C 23.6337 2.5937 -4.6758 0
M  V30 223 C 24.9337 0.471775 -5.20165 0
M  V30 224 H 26.6277 -0.00763532 -2.99399 0
M  V30 225 H 24.1737 -0.00511229 -1.43999 0
M  V30 226 H 26.1267 2.38097 -3.47689 0
M  V30 227 H 24.8507 2.38223 -2.23422 0
M  V30 228 H 23.5097 0.737121 -3.59113 0
M  V30 229 H 23.1577 3.19576 -3.88433 0
M  V30 230 H 22.8577 2.31228 -5.40192 0
M  V30 231 H 24.3817 3.21985 -5.18804 0
M  V30 232 H 25.7957 0.995056 -5.64599 0
M  V30 233 H 24.1927 0.284639 -5.99425 0
M  V30 234 H 25.2627 -0.506041 -4.82252 0
M  V30 235 N 26.6058 1.57591 -0.0167156 0
M  V30 236 C 27.5358 2.12496 0.967858 0
M  V30 237 C 28.5168 1.03807 1.34752 0
M  V30 238 O 29.7018 1.31577 1.42833 0
M  V30 239 C 26.8318 2.64194 2.25431 0
M  V30 240 C 25.7858 3.77559 2.01576 0
M  V30 241 C 25.1118 4.15636 3.36379 0
M  V30 242 C 26.4118 5.04151 1.36489 0
M  V30 243 H 28.1058 2.95013 0.510643 0
M  V30 244 H 25.6518 1.41915 0.244181 0
M  V30 245 H 27.6048 3.01236 2.94678 0
M  V30 246 H 26.3288 1.78821 2.73296 0
M  V30 247 H 24.9878 3.40937 1.34751 0
M  V30 248 H 24.6358 3.27263 3.81979 0
M  V30 249 H 24.3358 4.92022 3.21229 0
M  V30 250 H 25.8598 4.5525 4.06915 0
M  V30 251 H 27.2738 5.38857 1.95718 0
M  V30 252 H 25.6708 5.85453 1.31776 0
M  V30 253 H 26.7408 4.83733 0.336219 0
M  V30 254 N 28.0839 -0.256276 1.55502 0
M  V30 255 C 29.0469 -1.30047 1.88734 0
M  V30 256 C 30.0469 -1.4154 0.763086 0
M  V30 257 O 31.2369 -1.40403 1.03115 0
M  V30 258 C 28.3689 -2.67953 2.10747 0
M  V30 259 H 29.5619 -1.01802 2.82093 0
M  V30 260 H 27.1149 -0.495134 1.4825 0
M  V30 261 H 27.8499 -3.01351 1.19825 0
M  V30 262 H 27.6349 -2.60993 2.92617 0
M  V30 263 H 29.1249 -3.43368 2.37673 0
M  V30 264 N 29.562 -1.4872 -0.521534 0
M  V30 265 C 30.492 -1.66771 -1.63431 0
M  V30 266 C 31.473 -0.516499 -1.62069 0
M  V30 267 O 32.658 -0.750013 -1.79132 0
M  V30 268 C 29.788 -1.71515 -3.01993 0
M  V30 269 C 28.742 -2.86222 -3.18216 0
M  V30 270 C 28.068 -2.76061 -4.57924 0
M  V30 271 C 29.368 -4.27419 -3.00184 0
M  V30 272 H 31.062 -2.59932 -1.48579 0
M  V30 273 H 28.608 -1.25089 -0.713358 0
M  V30 274 H 30.561 -1.82731 -3.7972 0
M  V30 275 H 29.285 -0.749393 -3.17886 0
M  V30 276 H 27.944 -2.74575 -2.42908 0
M  V30 277 H 27.592 -1.77437 -4.70665 0
M  V30 278 H 27.292 -3.53037 -4.69722 0
M  V30 279 H 28.816 -2.89256 -5.37739 0
M  V30 280 H 30.23 -4.39855 -3.67697 0
M  V30 281 H 28.627 -5.05458 -3.2347 0
M  V30 282 H 29.697 -4.43293 -1.96518 0
M  V30 283 N 31.0401 0.771051 -1.3745 0
M  V30 284 C 31.9721 1.89352 -1.29146 0
M  V30 285 C 32.9851 1.61477 -0.207124 0
M  V30 286 O 34.1741 1.72382 -0.463324 0
M  V30 287 C 31.2741 3.24596 -0.974195 0
M  V30 288 C 30.4471 3.80111 -2.16413 0
M  V30 289 C 29.5061 4.93832 -1.81703 0
M  V30 290 O 28.5321 5.09382 -2.54006 0
M  V30 291 N 29.7341 5.75483 -0.761573 0
M  V30 292 H 32.4991 1.96991 -2.25864 0
M  V30 293 H 30.0601 0.950191 -1.31084 0
M  V30 294 H 32.0521 3.98193 -0.722828 0
M  V30 295 H 30.6221 3.12454 -0.0955527 0
M  V30 296 H 29.8421 2.98284 -2.57721 0
M  V30 297 H 31.1301 4.13932 -2.95867 0
M  V30 298 H 30.5281 5.65469 -0.161609 0
M  V30 299 H 29.0851 6.49302 -0.570064 0
M  V30 300 N 32.5182 1.22032 0.997298 0
M  V30 301 C 33.4502 0.944263 2.08845 0
M  V30 302 C 34.4632 -0.0754663 1.62625 0
M  V30 303 O 35.6522 0.157994 1.77799 0
M  V30 304 C 32.7522 0.397723 3.36558 0
M  V30 305 C 31.9252 1.47362 4.11829 0
M  V30 306 C 30.9842 0.934951 5.17827 0
M  V30 307 O 30.0102 1.62016 5.45655 0
M  V30 308 N 31.2122 -0.245895 5.79979 0
M  V30 309 H 33.9772 1.88363 2.33109 0
M  V30 310 H 31.5382 1.12661 1.16272 0
M  V30 311 H 33.5302 0.0227771 4.04694 0
M  V30 312 H 32.1002 -0.446646 3.09393 0
M  V30 313 H 31.3202 2.02208 3.38386 0
M  V30 314 H 32.6082 2.19764 4.58891 0
M  V30 315 H 32.0062 -0.819475 5.59733 0
M  V30 316 H 30.5632 -0.562272 6.4937 0
M  V30 317 N 33.9963 -1.19345 1.0293 0
M  V30 318 C 35.2243 -1.92997 0.745644 0
M  V30 319 C 35.6393 -1.75519 -0.695589 0
M  V30 320 O 34.9963 -1.07737 -1.47306 0
M  V30 321 C 35.0473 -3.44741 1.08792 0
M  V30 322 O 34.7683 -3.61658 2.47256 0
M  V30 323 C 36.2693 -4.35515 0.827129 0
M  V30 324 H 33.4893 -0.613042 0.272801 0
M  V30 325 H 36.0333 -1.51473 1.3739 0
M  V30 326 H 34.1883 -3.84097 0.504832 0
M  V30 327 H 34.6023 -4.55514 2.60015 0
M  V30 328 H 36.0763 -5.40589 1.11658 0
M  V30 329 H 36.5533 -4.38552 -0.238436 0
M  V30 330 H 37.1593 -4.01841 1.39297 0
M  V30 331 N 35.4744 -0.807222 -1.35358 0
M  V30 332 C 36.4374 -0.223665 -2.28106 0
M  V30 333 C 37.4374 0.589354 -1.4961 0
M  V30 334 O 38.6274 0.407745 -1.69361 0
M  V30 335 C 35.7594 0.688149 -3.33882 0
M  V30 336 H 36.9524 -1.04169 -2.81227 0
M  V30 337 H 34.5054 -0.577921 -1.45223 0
M  V30 338 H 35.2404 1.52984 -2.85948 0
M  V30 339 H 35.0254 0.10687 -3.91954 0
M  V30 340 H 36.5154 1.09075 -4.03104 0
M  V30 341 N 36.9525 1.47285 -0.560781 0
M  V30 342 C 37.8825 2.32857 0.173105 0
M  V30 343 C 38.8635 1.44009 0.905281 0
M  V30 344 O 40.0485 1.7286 0.885046 0
M  V30 345 C 37.1785 3.25861 1.20133 0
M  V30 346 C 36.1325 4.23978 0.585388 0
M  V30 347 C 35.4585 5.06332 1.7185 0
M  V30 348 C 36.7585 5.20242 -0.463178 0
M  V30 349 H 38.4525 2.94466 -0.541307 0
M  V30 350 H 35.9985 1.41601 -0.261764 0
M  V30 351 H 37.9515 3.84569 1.72293 0
M  V30 352 H 36.6755 2.62315 1.94573 0
M  V30 353 H 35.3345 3.66501 0.085054 0
M  V30 354 H 34.9825 4.39186 2.45203 0
M  V30 355 H 34.6825 5.72762 1.31213 0
M  V30 356 H 36.2065 5.67899 2.24329 0
M  V30 357 H 37.6205 5.73293 -0.027502 0
M  V30 358 H 36.0175 5.94896 -0.788627 0
M  V30 359 H 37.0875 4.65504 -1.35773 0
M  V30 360 N 38.4306 0.297415 1.54768 0
M  V30 361 C 39.3626 -0.613881 2.20826 0
M  V30 362 C 40.3756 -1.10032 1.19987 0
M  V30 363 O 41.5646 -1.01839 1.46598 0
M  V30 364 C 38.6646 -1.852 2.83821 0
M  V30 365 C 37.8376 -1.50865 4.10559 0
M  V30 366 C 36.8966 -2.60154 4.57391 0
M  V30 367 O 35.9226 -2.25398 5.2267 0
M  V30 368 N 37.1246 -3.90629 4.29406 0
M  V30 369 H 39.8896 -0.048389 2.99661 0
M  V30 370 H 37.4506 0.11946 1.61459 0
M  V30 371 H 39.4426 -2.57652 3.12086 0
M  V30 372 H 38.0126 -2.32597 2.08847 0
M  V30 373 H 37.2326 -0.616925 3.89343 0
M  V30 374 H 38.5206 -1.25458 4.9309 0
M  V30 375 H 37.9186 -4.21677 3.77101 0
M  V30 376 H 36.4756 -4.59391 4.62388 0
M  V30 377 N 39.9087 -1.5758 0.0250728 0
M  V30 378 C 40.8187 -2.1343 -0.973905 0
M  V30 379 C 41.8347 -1.08556 -1.35984 0
M  V30 380 O 43.0107 -1.40592 -1.44207 0
M  V30 381 C 40.0757 -2.64703 -2.23904 0
M  V30 382 C 39.1367 -3.84276 -1.91391 0
M  V30 383 C 38.3697 -4.33095 -3.11873 0
M  V30 384 O 38.5927 -3.81107 -4.24398 0
M  V30 385 O 37.5267 -5.24984 -2.94406 0
M  V30 386 H 41.3527 -2.99057 -0.529036 0
M  V30 387 H 38.9377 -1.48118 -0.195288 0
M  V30 388 H 40.8197 -2.97769 -2.98181 0
M  V30 389 H 39.4947 -1.82161 -2.6758 0
M  V30 390 H 38.4017 -3.56143 -1.14511 0
M  V30 391 H 39.7347 -4.67968 -1.52534 0
M  V30 392 N 41.3868 0.248026 -1.55636 0
M  V30 393 C 42.6638 0.998988 -1.68165 0
M  V30 394 C 43.0438 2.03409 -0.564621 0
M  V30 395 O 42.3918 2.24378 0.432076 0
M  V30 396 C 42.6018 1.63334 -3.0842 0
M  V30 397 C 43.9498 2.13562 -3.66983 0
M  V30 398 O 44.9738 1.73277 -3.11213 0
M  V30 399 O 43.8328 2.87526 -4.64749 0
M  V30 400 H 40.9268 0.464933 -0.683935 0
M  V30 401 H 43.4728 0.241902 -1.67967 0
M  V30 402 H 42.2448 0.884583 -3.8117 0
M  V30 403 H 41.8678 2.45666 -3.12624 0
M  V30 404 N 42.8649 1.48995 0.513639 0
M  V30 405 C 43.7969 1.60836 1.63293 0
M  V30 406 C 44.8099 0.491701 1.55197 0
M  V30 407 O 45.9989 0.763238 1.6136 0
M  V30 408 C 43.0989 1.53731 3.02027 0
M  V30 409 C 42.2719 2.80715 3.35437 0
M  V30 410 C 41.3309 2.66837 4.53525 0
M  V30 411 O 40.3569 3.40753 4.55934 0
M  V30 412 N 41.5589 1.77539 5.52684 0
M  V30 413 H 44.3239 2.57366 1.53566 0
M  V30 414 H 41.8849 1.45925 0.701259 0
M  V30 415 H 43.8769 1.42118 3.78926 0
M  V30 416 H 42.4469 0.651092 3.05744 0
M  V30 417 H 41.6669 3.06772 2.47557 0
M  V30 418 H 42.9549 3.64927 3.54551 0
M  V30 419 H 42.3529 1.16719 5.53528 0
M  V30 420 H 40.9099 1.71856 6.28736 0
M  V30 421 N 44.343 -0.763751 1.37857 0
M  V30 422 C 45.253 -1.90817 1.36478 0
M  V30 423 C 46.269 -1.71997 0.263248 0
M  V30 424 O 47.445 -1.95095 0.499979 0
M  V30 425 C 44.51 -3.2605 1.17864 0
M  V30 426 C 43.571 -3.57467 2.3773 0
M  V30 427 C 42.804 -4.86249 2.19995 0
M  V30 428 O 43.027 -5.57884 1.18836 0
M  V30 429 O 41.961 -5.16911 3.08361 0
M  V30 430 H 45.787 -1.94933 2.32884 0
M  V30 431 H 43.372 -0.907619 1.1867 0
M  V30 432 H 45.254 -4.06924 1.09504 0
M  V30 433 H 43.929 -3.22769 0.245372 0
M  V30 434 H 42.836 -2.76796 2.51664 0
M  V30 435 H 44.169 -3.655 3.29652 0
M  V30 436 N 45.8211 -1.22559 -0.990812 0
M  V30 437 C 46.7691 -0.994798 -2.10253 0
M  V30 438 C 47.7631 0.0627798 -1.69284 0
M  V30 439 O 48.9691 -0.0898392 -1.79776 0
M  V30 440 H 45.3441 -0.304527 -0.687581 0
M  V30 441 H 47.3151 -1.93812 -2.26891 0
M  V30 442 C 46.0641 -0.591439 -3.42633 0
M  V30 443 H 45.3871 -1.3969 -3.74602 0
M  V30 444 H 46.8271 -0.469385 -4.21394 0
M  V30 445 C 45.2861 0.699232 -3.29564 0
M  V30 446 O 45.8161 1.75112 -3.61523 0
M  V30 447 N 44.0221 0.671182 -2.82743 0
M  V30 448 H 43.5691 -0.185136 -2.56934 0
M  V30 449 H 43.5271 1.53502 -2.7438 0
M  V30 450 N 47.2992 1.18797 -1.03562 0
M  V30 451 C 48.5482 1.87978 -0.731235 0
M  V30 452 C 48.8612 1.80911 0.743671 0
M  V30 453 O 50.0672 2.45407 1.16137 0
M  V30 454 C 48.5232 3.3721 -1.25768 0
M  V30 455 C 48.1312 3.52818 -2.76085 0
M  V30 456 C 49.8752 4.11825 -1.0296 0
M  V30 457 C 47.7822 4.9598 -3.22114 0
M  V30 458 H 46.7122 0.704063 -0.269835 0
M  V30 459 H 49.3632 1.34266 -1.25079 0
M  V30 460 H 47.7452 3.90359 -0.666011 0
M  V30 461 H 48.9192 3.09965 -3.40966 0
M  V30 462 H 47.2342 2.91602 -2.97249 0
M  V30 463 H 49.8312 5.17411 -1.34869 0
M  V30 464 H 50.1742 4.16287 0.0333546 0
M  V30 465 H 50.7072 3.64833 -1.58562 0
M  V30 466 H 47.4462 4.96684 -4.27768 0
M  V30 467 H 46.9662 5.39569 -2.61965 0
M  V30 468 H 48.6452 5.6467 -3.15844 0
M  V30 469 N 48.7773 0.814389 1.34928 0
M  V30 470 C 49.7253 0.218424 2.31572 0
M  V30 471 C 50.7193 -0.636128 1.57002 0
M  V30 472 O 51.9253 -0.52842 1.72069 0
M  V30 473 H 48.3003 0.0518799 0.750208 0
M  V30 474 H 50.2713 1.04852 2.79372 0
M  V30 475 C 49.0203 -0.61207 3.4227 0
M  V30 476 H 48.3433 0.0361578 3.99784 0
M  V30 477 H 49.7833 -0.995317 4.12152 0
M  V30 478 C 48.2423 -1.78087 2.85984 0
M  V30 479 O 48.7723 -2.8787 2.80168 0
M  V30 480 N 46.9783 -1.59488 2.42924 0
M  V30 481 H 46.5253 -0.701874 2.47854 0
M  V30 482 H 46.4833 -2.37846 2.05613 0
M  V30 483 N 50.2554 -1.46986 0.568584 0
M  V30 484 C 51.6664 -1.86188 0.138219 0
M  V30 485 C 52.0174 -1.47388 -1.29504 0
M  V30 486 O 51.1424 -0.88219 -1.97602 0
M  V30 487 C 51.7374 -3.3792 0.244065 0
M  V30 488 C 50.2964 -3.76171 -0.131335 0
M  V30 489 C 49.4434 -2.71027 0.586465 0
M  V30 490 H 52.3944 -1.38342 0.777645 0
M  V30 491 H 52.4154 -3.76729 -0.534351 0
M  V30 492 H 51.9274 -3.66128 1.28731 0
M  V30 493 H 50.0284 -3.5358 -1.17526 0
M  V30 494 H 50.1414 -4.78523 0.235146 0
M  V30 495 H 48.5054 -2.54684 0.0282722 0
M  V30 496 H 49.2884 -3.02077 1.63109 0
M  V30 497 N 51.7335 -0.305618 -1.54608 0
M  V30 498 C 52.6435 0.57778 -2.27374 0
M  V30 499 C 53.6595 1.14451 -1.31061 0
M  V30 500 O 54.8355 1.16831 -1.6405 0
M  V30 501 C 51.9005 1.73123 -3.00382 0
M  V30 502 C 50.9615 1.19812 -4.12242 0
M  V30 503 C 50.1945 2.2966 -4.81759 0
M  V30 504 O 50.4175 3.49651 -4.50666 0
M  V30 505 O 49.3515 1.96091 -5.69062 0
M  V30 506 H 53.1775 -0.012624 -3.03697 0
M  V30 507 H 50.7625 -0.0719184 -1.49227 0
M  V30 508 H 52.6445 2.40315 -3.4616 0
M  V30 509 H 51.3195 2.30815 -2.26949 0
M  V30 510 H 50.2265 0.491798 -3.70853 0
M  V30 511 H 51.5595 0.666566 -4.87666 0
M  V30 512 N 53.2116 1.57565 -0.0334293 0
M  V30 513 C 54.1586 2.10478 0.946981 0
M  V30 514 C 55.1286 1.00787 1.32027 0
M  V30 515 O 56.3136 1.28232 1.41284 0
M  V30 516 C 53.4536 2.63994 2.22263 0
M  V30 517 C 52.5666 3.87709 1.90541 0
M  V30 518 C 51.7016 4.29604 3.12433 0
M  V30 519 C 50.7406 5.46065 2.76549 0
M  V30 520 N 49.8776 5.83096 3.9108 0
M  V30 521 H 54.7176 2.93963 0.488846 0
M  V30 522 H 52.2546 1.45296 0.22969 0
M  V30 523 H 54.2126 2.93114 2.96884 0
M  V30 524 H 52.8426 1.83333 2.65685 0
M  V30 525 H 51.8946 3.65291 1.06144 0
M  V30 526 H 53.2066 4.72403 1.60116 0
M  V30 527 H 52.3606 4.60182 3.9537 0
M  V30 528 H 51.0996 3.43685 3.46023 0
M  V30 529 H 50.1046 5.15176 1.92026 0
M  V30 530 H 51.3296 6.33685 2.44171 0
M  V30 531 H 49.2756 5.00132 4.24504 0
M  V30 532 H 49.1926 6.6244 3.64293 0
M  V30 533 H 50.4606 6.18282 4.74708 0
M  V30 534 N 54.6897 -0.239769 1.55765 0
M  V30 535 C 55.6527 -1.28038 1.90103 0
M  V30 536 C 56.6527 -1.40723 0.778055 0
M  V30 537 O 57.8427 -1.39301 1.04599 0
M  V30 538 C 54.9747 -2.65702 2.13577 0
M  V30 539 H 56.1677 -0.988048 2.83157 0
M  V30 540 H 53.7207 -0.479382 1.48767 0
M  V30 541 H 54.4557 -3.00063 1.23015 0
M  V30 542 H 54.2407 -2.57875 2.95369 0
M  V30 543 H 55.7307 -3.40828 2.41301 0
M  V30 544 N 56.1678 -1.49265 -0.50573 0
M  V30 545 C 57.1308 -1.65075 -1.59006 0
M  V30 546 C 58.1308 -0.522768 -1.52065 0
M  V30 547 O 59.3208 -0.789117 -1.55302 0
M  V30 548 C 56.4528 -1.64369 -2.98656 0
M  V30 549 H 57.6458 -2.61784 -1.46319 0
M  V30 550 H 55.1988 -1.38226 -0.729616 0
M  V30 551 H 55.9338 -0.692272 -3.16825 0
M  V30 552 H 55.7188 -2.46282 -3.05103 0
M  V30 553 H 57.2088 -1.78674 -3.77446 0
M  V30 554 N 57.6459 0.756429 -1.3826 0
M  V30 555 C 59.0569 1.33359 -1.30661 0
M  V30 556 C 59.4079 1.96161 0.0388875 0
M  V30 557 O 58.5329 1.94874 0.940918 0
M  V30 558 C 59.1279 2.42477 -2.36622 0
M  V30 559 C 57.6869 2.95922 -2.3261 0
M  V30 560 C 56.8339 1.69275 -2.19639 0
M  V30 561 H 59.7849 0.55552 -1.4866 0
M  V30 562 H 59.8059 3.22345 -2.02174 0
M  V30 563 H 59.3179 1.96739 -3.34538 0
M  V30 564 H 57.4189 3.45996 -1.38267 0
M  V30 565 H 57.5319 3.50494 -3.26636 0
M  V30 566 H 55.8959 1.92793 -1.66442 0
M  V30 567 H 56.6789 1.25619 -3.19491 0
M  V30 568 N 59.124 1.23083 0.984299 0
M  V30 569 C 60.37 1.06214 1.72761 0
M  V30 570 C 60.703 -0.400584 1.90024 0
M  V30 571 O 59.978 -1.29672 1.44967 0
M  V30 572 C 60.261 1.78375 3.12817 0
M  V30 573 C 60.114 3.32296 3.03149 0
M  V30 574 C 61.433 1.54309 4.12161 0
M  V30 575 H 58.552 0.387251 0.627061 0
M  V30 576 H 61.194 1.51536 1.14616 0
M  V30 577 H 59.344 1.39848 3.62457 0
M  V30 578 H 61.016 3.8032 2.61064 0
M  V30 579 H 59.259 3.6153 2.39747 0
M  V30 580 H 59.93 3.77972 4.02295 0
M  V30 581 H 62.406 1.87791 3.71314 0
M  V30 582 H 61.282 2.07281 5.08258 0
M  V30 583 H 61.543 0.477572 4.39513 0
M  V30 584 N 60.6021 -1.18246 1.0419 0
M  V30 585 C 61.5341 -2.2142 0.592088 0
M  V30 586 C 62.5471 -1.59233 -0.338909 0
M  V30 587 O 63.7361 -1.78002 -0.133231 0
M  V30 588 C 60.8361 -3.38546 -0.154854 0
M  V30 589 C 60.0091 -4.3031 0.784328 0
M  V30 590 C 59.0681 -5.26138 0.0804583 0
M  V30 591 O 58.0941 -5.64738 0.711292 0
M  V30 592 N 59.2961 -5.68261 -1.18574 0
M  V30 593 H 62.0611 -2.60636 1.47949 0
M  V30 594 H 59.6221 -1.33044 0.922544 0
M  V30 595 H 61.6141 -3.99678 -0.635606 0
M  V30 596 H 60.1841 -2.98012 -0.943811 0
M  V30 597 H 59.4041 -3.66764 1.44491 0
M  V30 598 H 60.6921 -4.8852 1.42218 0
M  V30 599 H 60.0901 -5.38957 -1.71876 0
M  V30 600 H 58.6471 -6.31584 -1.61074 0
M  V30 601 N 62.0802 -0.821533 -1.34494 0
M  V30 602 C 63.0122 -0.199946 -2.28326 0
M  V30 603 C 64.0252 0.609377 -1.50965 0
M  V30 604 O 65.2142 0.439285 -1.7301 0
M  V30 605 C 62.3142 0.738431 -3.30757 0
M  V30 606 C 61.4872 -0.0277632 -4.37391 0
M  V30 607 C 60.5462 0.831332 -5.19591 0
M  V30 608 O 59.5722 0.276822 -5.68526 0
M  V30 609 N 60.7742 2.15132 -5.39165 0
M  V30 610 H 63.5392 -1.00609 -2.82308 0
M  V30 611 H 61.1002 -0.678366 -1.47003 0
M  V30 612 H 63.0922 1.31773 -3.82646 0
M  V30 613 H 61.6622 1.44533 -2.7718 0
M  V30 614 H 60.8822 -0.788359 -3.86236 0
M  V30 615 H 62.1702 -0.555251 -5.05761 0
M  V30 616 H 61.5682 2.62559 -5.01078 0
M  V30 617 H 60.1252 2.6795 -5.94177 0
M  V30 618 N 63.5583 1.46682 -0.576371 0
M  V30 619 C 64.9693 1.86112 -0.148091 0
M  V30 620 C 65.3203 1.48073 1.2872 0
M  V30 621 O 64.4453 0.892656 1.97131 0
M  V30 622 C 65.0403 3.37786 -0.261982 0
M  V30 623 C 63.5993 3.76235 0.111384 0
M  V30 624 C 62.7463 2.70713 -0.60083 0
M  V30 625 H 65.6973 1.37927 -0.78497 0
M  V30 626 H 65.7183 3.77007 0.514364 0
M  V30 627 H 65.2303 3.6544 -1.30671 0
M  V30 628 H 63.3313 3.54198 1.15649 0
M  V30 629 H 63.4443 4.78391 -0.26052 0
M  V30 630 H 61.8083 2.54666 -0.0417783 0
M  V30 631 H 62.5913 3.01208 -1.64708 0
M  V30 632 N 65.0364 0.313813 1.54444 0
M  V30 633 C 66.4524 -0.0391619 1.59552 0
M  V30 634 C 66.6524 -1.51322 1.33056 0
M  V30 635 O 65.7084 -2.26782 1.11022 0
M  V30 636 C 67.0214 0.370302 2.98411 0
M  V30 637 C 68.5694 0.320139 3.11358 0
M  V30 638 C 69.0444 0.704617 4.52547 0
M  V30 639 N 70.5354 0.657645 4.58508 0
M  V30 640 C 71.2704 0.927453 5.6585 0
M  V30 641 N 70.7664 1.26389 6.81174 0
M  V30 642 N 72.5594 0.853662 5.5558 0
M  V30 643 H 64.7104 1.27433 1.69925 0
M  V30 644 H 66.9734 0.517511 0.794284 0
M  V30 645 H 66.6794 1.39694 3.22767 0
M  V30 646 H 66.5534 -0.269619 3.76235 0
M  V30 647 H 68.9404 -0.697275 2.86744 0
M  V30 648 H 69.0214 0.99486 2.35661 0
M  V30 649 H 68.6654 1.7199 4.77893 0
M  V30 650 H 68.5954 0.00768843 5.26599 0
M  V30 651 H 71.0864 0.409067 3.75679 0
M  V30 652 H 71.3994 1.4554 7.58972 0
M  V30 653 H 69.7444 1.30206 6.82694 0
M  V30 654 H 72.9354 0.590383 4.64362 0
M  V30 655 H 73.1084 1.0673 6.3915 0
M  V30 656 N 66.5145 -1.57545 0.0417849 0
M  V30 657 C 67.7425 -1.96624 -0.643928 0
M  V30 658 C 68.1575 -0.918897 -1.64929 0
M  V30 659 O 67.5145 0.0979323 -1.82237 0
M  V30 660 C 67.5655 -3.35781 -1.33914 0
M  V30 661 O 67.2865 -4.365 -0.374048 0
M  V30 662 C 68.7875 -3.89566 -2.1155 0
M  V30 663 H 66.0075 -0.647316 -0.176702 0
M  V30 664 H 68.5515 -2.04229 0.105304 0
M  V30 665 H 66.7065 -3.29357 -2.03968 0
M  V30 666 H 67.1205 -5.17248 -0.869179 0
M  V30 667 H 68.5945 -4.89242 -2.55628 0
M  V30 668 H 69.0715 -3.24488 -2.9598 0
M  V30 669 H 69.6775 -3.99298 -1.46427 0
M  V30 670 N 67.9926 0.231505 -1.5589 0
M  V30 671 C 69.4086 0.580748 -1.48659 0
M  V30 672 C 69.6086 1.87617 -0.73498 0
M  V30 673 O 68.6646 2.51046 -0.270586 0
M  V30 674 C 69.9776 0.669202 -2.93159 0
M  V30 675 C 71.5256 0.760499 -3.03621 0
M  V30 676 C 72.0006 0.880383 -4.49459 0
M  V30 677 N 73.4916 0.944861 -4.53461 0
M  V30 678 C 74.2266 1.05716 -5.63571 0
M  V30 679 N 73.7226 1.13403 -6.83456 0
M  V30 680 N 75.5156 1.09152 -5.514 0
M  V30 681 H 67.6666 -0.618695 -2.03189 0
M  V30 682 H 69.9296 -0.215728 -0.923128 0
M  V30 683 H 69.6356 -0.212904 -3.51055 0
M  V30 684 H 69.5096 1.5361 -3.44505 0
M  V30 685 H 71.8966 1.63305 -2.45796 0
M  V30 686 H 71.9776 -0.131864 -2.5546 0
M  V30 687 H 71.6216 0.0123284 -5.07899 0
M  V30 688 H 71.5516 1.78802 -4.95316 0
M  V30 689 H 74.0426 0.896176 -3.6712 0
M  V30 690 H 74.3556 1.21921 -7.63122 0
M  V30 691 H 72.7006 1.10333 -6.86186 0
M  V30 692 H 75.8916 1.02805 -4.56671 0
M  V30 693 H 76.0646 1.17558 -6.37247 0
M  V30 694 N 69.4707 1.49531 0.497807 0
M  V30 695 C 70.4337 1.65916 1.58128 0
M  V30 696 C 71.4337 0.530825 1.51786 0
M  V30 697 O 72.6237 0.797342 1.54881 0
M  V30 698 C 69.7557 1.65951 2.9778 0
M  V30 699 H 70.9487 2.62556 1.44929 0
M  V30 700 H 68.5017 1.38611 0.722275 0
M  V30 701 H 69.2367 0.709065 3.16453 0
M  V30 702 H 69.0217 2.47897 3.03792 0
M  V30 703 H 70.5117 1.80673 3.76493 0
M  V30 704 N 70.9488 -0.749086 1.3866 0
M  V30 705 C 71.9118 -1.84457 1.36045 0
M  V30 706 C 72.9118 -1.58682 0.260122 0
M  V30 707 O 74.1018 -1.66343 0.517261 0
M  V30 708 C 71.2338 -3.22008 1.11911 0
M  V30 709 H 72.4268 -1.88182 2.33512 0
M  V30 710 H 69.9798 -0.951266 1.24019 0
M  V30 711 H 70.7148 -3.2395 0.150686 0
M  V30 712 H 70.4998 -3.42111 1.91579 0
M  V30 713 H 71.9898 -4.0208 1.12788 0
M  V30 714 N 72.4269 -1.23603 -0.977757 0
M  V30 715 C 73.3569 -1.04401 -2.0886 0
M  V30 716 C 74.3379 0.0399052 -1.70053 0
M  V30 717 O 75.5229 -0.125246 -1.93796 0
M  V30 718 C 72.6529 -0.637269 -3.41403 0
M  V30 719 C 71.6069 -1.66883 -3.94124 0
M  V30 720 C 70.9329 -1.11745 -5.22893 0
M  V30 721 C 72.2329 -3.06247 -4.23096 0
M  V30 722 H 73.9269 -1.97316 -2.25182 0
M  V30 723 H 71.4729 -0.950096 -1.08209 0
M  V30 724 H 73.4259 -0.48998 -4.18542 0
M  V30 725 H 72.1499 0.327557 -3.24953 0
M  V30 726 H 70.8089 -1.80416 -3.19133 0
M  V30 727 H 70.4569 -0.143527 -5.02795 0
M  V30 728 H 70.1569 -1.80672 -5.59134 0
M  V30 729 H 71.6809 -0.982067 -6.02651 0
M  V30 730 H 73.0949 -2.96001 -4.90975 0
M  V30 731 H 71.4919 -3.72436 -4.70544 0
M  V30 732 H 72.5619 -3.55041 -3.30263 0
M  V30 733 N 73.905 1.17692 -1.04816 0
M  V30 734 C 74.868 2.19787 -0.650117 0
M  V30 735 C 75.868 1.58044 0.296427 0
M  V30 736 O 77.058 1.74012 0.0808097 0
M  V30 737 C 74.19 3.40869 0.0456987 0
M  V30 738 H 75.383 2.56516 -1.5537 0
M  V30 739 H 72.936 1.31708 -0.841594 0
M  V30 740 H 73.671 3.09681 0.962726 0
M  V30 741 H 73.456 3.86928 -0.634727 0
M  V30 742 H 74.946 4.16445 0.310432 0
M  V30 743 N 75.3831 0.828654 1.34056 0
M  V30 744 C 76.6291 0.42008 1.98402 0
M  V30 745 C 76.9621 -1.01564 1.65525 0
M  V30 746 O 76.2371 -1.70834 0.929831 0
M  V30 747 C 76.5201 0.62927 3.54559 0
M  V30 748 C 76.3731 2.11152 3.97159 0
M  V30 749 C 77.6921 0.0688756 4.40046 0
M  V30 750 H 74.8111 0.154104 0.720709 0
M  V30 751 H 77.4531 1.04228 1.5886 0
M  V30 752 H 75.6031 0.0996418 3.88372 0
M  V30 753 H 77.2751 2.70522 3.73651 0
M  V30 754 H 75.5181 2.59985 3.47261 0
M  V30 755 H 76.1891 2.20868 5.05887 0
M  V30 756 H 78.6651 0.521458 4.1282 0
M  V30 757 H 77.5411 0.245006 5.48353 0
M  V30 758 H 77.8021 -1.0266 4.30015 0
M  V30 759 N 76.8612 -1.46375 0.584142 0
M  V30 760 C 77.7912 -2.33103 -0.136037 0
M  V30 761 C 78.7722 -1.45431 -0.882255 0
M  V30 762 O 79.9572 -1.74246 -0.857434 0
M  V30 763 C 77.0872 -3.27731 -1.14933 0
M  V30 764 C 76.0412 -4.24855 -0.517862 0
M  V30 765 C 75.3672 -5.09001 -1.63773 0
M  V30 766 C 76.6672 -5.19439 0.545886 0
M  V30 767 H 78.3612 -2.93568 0.588086 0
M  V30 768 H 75.9072 -1.41166 0.284259 0
M  V30 769 H 77.8602 -3.87261 -1.66153 0
M  V30 770 H 76.5842 -2.65377 -1.90375 0
M  V30 771 H 75.2432 -3.6659 -0.0267361 0
M  V30 772 H 74.8912 -4.43031 -2.38185 0
M  V30 773 H 74.5912 -5.74777 -1.22085 0
M  V30 774 H 76.1152 -5.71396 -2.15266 0
M  V30 775 H 77.5292 -5.73177 0.118704 0
M  V30 776 H 75.9262 -5.93566 0.88317 0
M  V30 777 H 76.9962 -4.63285 1.43162 0
M  V30 778 N 78.3393 -0.321999 -1.54275 0
M  V30 779 C 79.2863 0.544664 -2.24281 0
M  V30 780 C 80.2563 1.1129 -1.23303 0
M  V30 781 O 81.4413 1.15354 -1.51981 0
M  V30 782 C 78.5813 1.70045 -3.00298 0
M  V30 783 C 77.6943 1.16159 -4.1609 0
M  V30 784 C 76.8293 2.28293 -4.79641 0
M  V30 785 C 75.8683 1.71648 -5.8754 0
M  V30 786 N 75.0053 2.77438 -6.44959 0
M  V30 787 H 79.8453 -0.0588907 -2.97942 0
M  V30 788 H 77.3823 -0.0408345 -1.47043 0
M  V30 789 H 79.3403 2.38054 -3.42616 0
M  V30 790 H 77.9703 2.27531 -2.28975 0
M  V30 791 H 77.0223 0.373092 -3.78566 0
M  V30 792 H 78.3343 0.707087 -4.93763 0
M  V30 793 H 77.4883 3.0421 -5.2492 0
M  V30 794 H 76.2273 2.77079 -4.01346 0
M  V30 795 H 75.2323 0.942282 -5.41665 0
M  V30 796 H 76.4573 1.23741 -6.67731 0
M  V30 797 H 74.4033 3.25519 -5.69538 0
M  V30 798 H 74.3203 2.36547 -7.1804 0
M  V30 799 H 75.5883 3.53189 -6.94894 0
M  V30 800 N 79.8174 1.5752 -0.0501392 0
M  V30 801 C 81.0424 1.97376 0.636997 0
M  V30 802 C 81.4674 0.927466 1.63645 0
M  V30 803 O 80.8254 -0.10941 1.8097 0
M  V30 804 C 80.8734 3.36304 1.30123 0
M  V30 805 O 79.9774 3.34156 2.41689 0
M  V30 806 H 79.3184 0.642998 0.165679 0
M  V30 807 H 81.8484 2.04258 -0.118233 0
M  V30 808 H 81.8584 3.73008 1.65315 0
M  V30 809 H 80.5334 4.11993 0.568746 0
M  V30 810 H 79.1104 3.09196 2.08451 0
M  V30 811 N 81.2955 -0.223234 1.56011 0
M  V30 812 C 82.5435 -0.946003 1.78592 0
M  V30 813 C 82.8645 -1.84936 0.618349 0
M  V30 814 O 82.1345 -1.92473 -0.364833 0
M  V30 815 H 80.7145 -0.352298 0.658707 0
M  V30 816 H 83.3765 -0.235494 1.93472 0
M  V30 817 H 82.4725 -1.55381 2.70672 0
M  V30 818 N 82.7736 -1.49793 -0.48987 0
M  V30 819 C 83.7216 -1.67783 -1.61095 0
M  V30 820 C 84.7156 -0.543683 -1.60438 0
M  V30 821 O 85.9216 -0.723647 -1.64813 0
M  V30 822 H 82.2966 -0.529255 -0.534222 0
M  V30 823 H 84.2676 -2.61861 -1.43078 0
M  V30 824 C 83.0166 -1.77191 -2.99164 0
M  V30 825 H 82.3396 -2.63841 -3.0038 0
M  V30 826 H 83.7796 -1.93809 -3.77113 0
M  V30 827 C 82.2386 -0.519203 -3.32875 0
M  V30 828 O 82.7686 0.350124 -4.00171 0
M  V30 829 N 80.9746 -0.378816 -2.8812 0
M  V30 830 H 80.5216 -1.08725 -2.33531 0
M  V30 831 H 80.4796 0.458239 -3.11043 0
M  V30 832 N 84.2517 0.741722 -1.39055 0
M  V30 833 C 85.6627 1.31966 -1.32068 0
M  V30 834 C 86.0137 1.96192 0.0180797 0
M  V30 835 O 85.1387 1.95861 0.920196 0
M  V30 836 C 85.7337 2.39954 -2.39181 0
M  V30 837 C 84.2927 2.93438 -2.35735 0
M  V30 838 C 83.4397 1.66936 -2.21422 0
M  V30 839 H 86.3907 0.539721 -1.4924 0
M  V30 840 H 86.4117 3.20182 -2.05581 0
M  V30 841 H 85.9237 1.9318 -3.36605 0
M  V30 842 H 84.0247 3.4451 -1.41929 0
M  V30 843 H 84.1377 3.4701 -3.30335 0
M  V30 844 H 82.5017 1.91016 -1.68478 0
M  V30 845 H 83.2847 1.22224 -3.20806 0
M  V30 846 N 85.7298 1.2412 0.971189 0
M  V30 847 C 87.1458 1.00584 1.23916 0
M  V30 848 C 87.3458 -0.287481 1.99439 0
M  V30 849 O 86.4018 -1.00454 2.31658 0
M  V30 850 C 87.7148 2.21864 2.0297 0
M  V30 851 C 89.2628 2.26452 2.16076 0
M  V30 852 C 89.7378 3.47343 2.98524 0
M  V30 853 N 91.2288 3.47639 3.06107 0
M  V30 854 C 91.9638 4.37837 3.70251 0
M  V30 855 N 91.4598 5.38286 4.36142 0
M  V30 856 N 93.2528 4.25558 3.67228 0
M  V30 857 H 85.4038 2.07236 0.465499 0
M  V30 858 H 87.6668 0.909236 0.268315 0
M  V30 859 H 87.3728 3.15771 1.54861 0
M  V30 860 H 87.2468 2.23698 3.03709 0
M  V30 861 H 89.6338 1.33078 2.6339 0
M  V30 862 H 89.7148 2.28645 1.14696 0
M  V30 863 H 89.3588 4.41029 2.51905 0
M  V30 864 H 89.2888 3.42393 4.00093 0
M  V30 865 H 91.7798 2.74966 2.59233 0
M  V30 866 H 92.0928 6.03352 4.82894 0
M  V30 867 H 90.4378 5.42176 4.34822 0
M  V30 868 H 93.6288 3.46322 3.14927 0
M  V30 869 H 93.8018 4.96054 4.16935 0
M  V30 870 N 87.2079 -1.17134 1.05439 0
M  V30 871 C 88.4559 -1.87085 0.764429 0
M  V30 872 C 88.7769 -1.81584 -0.710787 0
M  V30 873 O 88.0469 -1.24349 -1.51374 0
M  V30 874 H 86.6269 -0.692627 0.279779 0
M  V30 875 H 89.2889 -1.42087 1.33406 0
M  V30 876 H 88.3849 -2.92759 1.0816 0
M  V30 877 N 88.686 -0.835752 -1.33615 0
M  V30 878 C 89.616 -0.281739 -2.31794 0
M  V30 879 C 90.597 0.608833 -1.58831 0
M  V30 880 O 91.782 0.533035 -1.86741 0
M  V30 881 C 88.912 0.546612 -3.42971 0
M  V30 882 C 87.866 -0.247904 -4.27281 0
M  V30 883 C 87.192 0.704001 -5.30045 0
M  V30 884 C 88.492 -1.46324 -5.01385 0
M  V30 885 H 90.186 -1.10206 -2.78379 0
M  V30 886 H 87.732 -0.531388 -1.33837 0
M  V30 887 H 89.685 0.944467 -4.1068 0
M  V30 888 H 88.409 1.40011 -2.95067 0
M  V30 889 H 87.068 -0.627281 -3.61194 0
M  V30 890 H 86.716 1.55381 -4.78399 0
M  V30 891 H 86.416 0.176524 -5.87335 0
M  V30 892 H 87.94 1.09944 -6.0062 0
M  V30 893 H 89.354 -1.13871 -5.61877 0
M  V30 894 H 87.751 -1.92728 -5.6831 0
M  V30 895 H 88.821 -2.23467 -4.30338 0
M  V30 896 N 90.1641 1.46063 -0.591896 0
M  V30 897 C 91.1271 2.28854 0.125973 0
M  V30 898 C 92.1271 1.38903 0.810107 0
M  V30 899 O 93.3171 1.61186 0.66066 0
M  V30 900 C 90.4491 3.19526 1.1881 0
M  V30 901 H 91.6421 2.93802 -0.601717 0
M  V30 902 H 89.1951 1.52325 -0.350254 0
M  V30 903 H 89.9301 2.59345 1.94707 0
M  V30 904 H 89.7151 3.85766 0.701936 0
M  V30 905 H 91.2051 3.81817 1.69132 0
M  V30 906 N 91.6422 0.330177 1.54103 0
M  V30 907 C 92.5742 -0.566902 2.22079 0
M  V30 908 C 93.5872 -1.07462 1.22294 0
M  V30 909 O 94.7762 -0.987065 1.48726 0
M  V30 910 C 91.8762 -1.79138 2.87685 0
M  V30 911 C 91.0492 -1.42123 4.13666 0
M  V30 912 C 90.1082 -2.50394 4.62806 0
M  V30 913 O 89.1342 -2.14261 5.27334 0
M  V30 914 N 90.3362 -3.81433 4.37595 0
M  V30 915 H 93.1012 0.0151844 2.99696 0
M  V30 916 H 90.6622 0.153681 1.61169 0
M  V30 917 H 92.6542 -2.50975 3.1748 0
M  V30 918 H 91.2242 -2.28115 2.13734 0
M  V30 919 H 90.4442 -0.534201 3.90564 0
M  V30 920 H 91.7322 -1.14971 4.9564 0
M  V30 921 H 91.1302 -4.13584 3.8596 0
M  V30 922 H 89.6872 -4.4948 4.72029 0
M  V30 923 N 93.1203 -1.57491 0.0584922 0
M  V30 924 C 94.0523 -2.08916 -0.942694 0
M  V30 925 C 95.0653 -1.0185 -1.27006 0
M  V30 926 O 96.2543 -1.29398 -1.22957 0
M  V30 927 C 93.3543 -2.52341 -2.26224 0
M  V30 928 C 92.5273 -3.82827 -2.1157 0
M  V30 929 C 91.5863 -4.12487 -3.26712 0
M  V30 930 O 90.6123 -4.82295 -3.02292 0
M  V30 931 N 91.8143 -3.64978 -4.5141 0
M  V30 932 H 94.5793 -2.95437 -0.503722 0
M  V30 933 H 92.1403 -1.61397 -0.12757 0
M  V30 934 H 94.1323 -2.69254 -3.02133 0
M  V30 935 H 92.7023 -1.7103 -2.61663 0
M  V30 936 H 91.9223 -3.75425 -1.20208 0
M  V30 937 H 93.2103 -4.68263 -1.99015 0
M  V30 938 H 92.6083 -3.08558 -4.7414 0
M  V30 939 H 91.1653 -3.87115 -5.2439 0
M  V30 940 N 94.5984 0.214957 -1.56127 0
M  V30 941 C 95.5304 1.29004 -1.89448 0
M  V30 942 C 96.5434 1.42716 -0.783326 0
M  V30 943 O 97.7324 1.43496 -1.06166 0
M  V30 944 C 94.8324 2.66482 -2.09381 0
M  V30 945 C 94.0054 2.74633 -3.40434 0
M  V30 946 C 93.0644 3.9317 -3.49719 0
M  V30 947 O 92.0904 3.812 -4.227 0
M  V30 948 N 93.2924 5.07765 -2.81346 0
M  V30 949 H 96.0574 1.00743 -2.82261 0
M  V30 950 H 93.6184 0.40497 -1.56753 0
M  V30 951 H 95.6104 3.44173 -2.12901 0
M  V30 952 H 94.1804 2.87314 -1.23163 0
M  V30 953 H 93.4004 1.83368 -3.48955 0
M  V30 954 H 94.6884 2.77054 -4.26754 0
M  V30 955 H 94.0864 5.20386 -2.21843 0
M  V30 956 H 92.6434 5.83474 -2.90519 0
M  V30 957 N 96.0765 1.50051 0.48192 0
M  V30 958 C 97.4925 1.37237 0.814756 0
M  V30 959 C 97.6925 0.420109 1.97072 0
M  V30 960 O 96.7485 -0.141246 2.52105 0
M  V30 961 C 98.0615 2.78375 1.13701 0
M  V30 962 C 99.6095 2.87213 1.2441 0
M  V30 963 C 100.084 4.29161 1.59954 0
M  V30 964 N 101.575 4.32061 1.66967 0
M  V30 965 C 102.31 5.38879 1.95952 0
M  V30 966 N 101.806 6.55918 2.23031 0
M  V30 967 N 103.599 5.26312 1.97363 0
M  V30 968 H 95.7505 2.10546 -0.28005 0
M  V30 969 H 98.0135 0.945921 -0.0627454 0
M  V30 970 H 97.7195 3.49845 0.360787 0
M  V30 971 H 97.5935 3.14941 2.07586 0
M  V30 972 H 99.9805 2.15969 2.01101 0
M  V30 973 H 100.061 2.54204 0.285299 0
M  V30 974 H 99.7055 5.00938 0.838067 0
M  V30 975 H 99.6355 4.59648 2.56966 0
M  V30 976 H 102.126 3.47661 1.48123 0
M  V30 977 H 102.439 7.33139 2.44391 0
M  V30 978 H 100.784 6.59112 2.20447 0
M  V30 979 H 103.975 4.33876 1.75697 0
M  V30 980 H 104.148 6.09649 2.19618 0
M  V30 981 N 97.5546 -0.734337 1.39446 0
M  V30 982 C 98.9656 -1.31264 1.32766 0
M  V30 983 C 99.3166 -1.96198 -0.00767497 0
M  V30 984 O 98.4416 -1.96346 -0.909796 0
M  V30 985 C 99.0366 -2.38682 2.4045 0
M  V30 986 C 97.5956 -2.92184 2.37288 0
M  V30 987 C 96.7426 -1.6576 2.22304 0
M  V30 988 H 99.6936 -0.531799 1.49525 0
M  V30 989 H 99.7146 -3.19087 2.07276 0
M  V30 990 H 99.2266 -1.91392 3.37625 0
M  V30 991 H 97.3276 -3.43752 1.43754 0
M  V30 992 H 97.4406 -3.45253 3.3217 0
M  V30 993 H 95.8046 -1.9012 1.69489 0
M  V30 994 H 96.5876 -1.20521 3.21449 0
M  V30 995 N 99.0327 -1.24633 -0.964593 0
M  V30 996 C 99.9797 -1.04144 -2.05968 0
M  V30 997 C 100.95 0.046262 -1.66036 0
M  V30 998 O 102.135 -0.108972 -1.90489 0
M  V30 999 C 99.2747 -0.65563 -3.38815 0
M  V30 1000 C 98.3877 -1.81714 -3.91923 0
M  V30 1001 C 97.5227 -1.37662 -5.13052 0
M  V30 1002 C 96.5617 -2.50788 -5.58365 0
M  V30 1003 N 95.6987 -2.07582 -6.70712 0
M  V30 1004 H 100.539 -1.9787 -2.22827 0
M  V30 1005 H 98.0757 -0.9855 -1.09208 0
M  V30 1006 H 100.034 -0.412954 -4.15151 0
M  V30 1007 H 98.6637 0.244627 -3.21872 0
M  V30 1008 H 97.7157 -2.1734 -3.12198 0
M  V30 1009 H 99.0277 -2.66705 -4.21509 0
M  V30 1010 H 98.1817 -1.093 -5.96773 0
M  V30 1011 H 96.9207 -0.497293 -4.85158 0
M  V30 1012 H 95.9257 -2.79906 -4.73215 0
M  V30 1013 H 97.1507 -3.39283 -5.88272 0
M  V30 1014 H 95.0967 -1.22051 -6.44546 0
M  V30 1015 H 95.0137 -2.86125 -6.99763 0
M  V30 1016 H 96.2817 -1.82369 -7.57867 0
M  V30 1017 N 100.511 1.16574 -1.06058 0
M  V30 1018 C 101.739 1.90952 -0.796552 0
M  V30 1019 C 102.154 1.77302 0.648808 0
M  V30 1020 O 101.511 1.11605 1.44397 0
M  V30 1021 C 101.562 3.41736 -1.17894 0
M  V30 1022 O 101.283 3.54975 -2.56758 0
M  V30 1023 C 102.784 4.33169 -0.942308 0
M  V30 1024 H 100.004 0.605594 -0.288959 0
M  V30 1025 H 102.548 1.47777 -1.41358 0
M  V30 1026 H 100.703 3.82623 -0.606491 0
M  V30 1027 H 101.117 4.4846 -2.72 0
M  V30 1028 H 102.591 5.37439 -1.25952 0
M  V30 1029 H 103.068 4.3903 0.122078 0
M  V30 1030 H 103.674 3.98007 -1.49902 0
M  V30 1031 N 101.989 0.842826 1.3317 0
M  V30 1032 C 103.405 0.531128 1.50503 0
M  V30 1033 C 103.605 -0.940734 1.78192 0
M  V30 1034 O 102.661 -1.72436 1.84451 0
M  V30 1035 C 103.974 1.40789 2.65705 0
M  V30 1036 C 105.522 1.40708 2.79589 0
M  V30 1037 C 105.997 2.26878 3.97857 0
M  V30 1038 N 107.488 2.24609 4.05099 0
M  V30 1039 C 108.223 2.88019 4.95815 0
M  V30 1040 N 107.719 3.60496 5.9162 0
M  V30 1041 N 109.512 2.77469 4.88843 0
M  V30 1042 H 101.663 1.79557 1.1346 0
M  V30 1043 H 103.926 0.766267 0.558156 0
M  V30 1044 H 103.632 2.454 2.51936 0
M  V30 1045 H 103.506 1.08677 3.61205 0
M  V30 1046 H 105.893 0.368668 2.92788 0
M  V30 1047 H 105.974 1.76829 1.84838 0
M  V30 1048 H 105.618 3.3078 3.85418 0
M  V30 1049 H 105.548 1.88096 4.91861 0
M  V30 1050 H 108.039 1.71906 3.36536 0
M  V30 1051 H 108.352 4.06076 6.57512 0
M  V30 1052 H 106.697 3.64604 5.91683 0
M  V30 1053 H 109.888 2.20406 4.12963 0
M  V30 1054 H 110.061 3.2717 5.59342 0
M  V30 1055 N 103.467 -1.45747 0.599634 0
M  V30 1056 C 104.883 -1.57424 0.26264 0
M  V30 1057 C 105.083 -1.59222 -1.23493 0
M  V30 1058 O 104.139 -1.51825 -2.01756 0
M  V30 1059 C 105.452 -2.86061 0.926795 0
M  V30 1060 C 107 -2.99722 0.901967 0
M  V30 1061 C 107.475 -4.31119 1.54598 0
M  V30 1062 N 108.966 -4.37858 1.5111 0
M  V30 1063 C 109.701 -5.3818 1.97863 0
M  V30 1064 N 109.197 -6.45083 2.52666 0
M  V30 1065 N 110.99 -5.29487 1.88679 0
M  V30 1066 H 103.141 -1.42823 1.57211 0
M  V30 1067 H 105.404 -0.68235 0.658105 0
M  V30 1068 H 105.11 -2.90605 1.98095 0
M  V30 1069 H 104.984 -3.74563 0.445238 0
M  V30 1070 H 107.371 -2.9475 -0.143617 0
M  V30 1071 H 107.452 -2.12652 1.42171 0
M  V30 1072 H 107.096 -4.36849 2.59085 0
M  V30 1073 H 107.026 -5.16992 1.00132 0
M  V30 1074 H 109.517 -3.61209 1.11068 0
M  V30 1075 H 109.83 -7.17869 2.86155 0
M  V30 1076 H 108.175 -6.45856 2.56701 0
M  V30 1077 H 111.366 -4.44877 1.4561 0
M  V30 1078 H 111.539 -6.07524 2.25429 0
M  V30 1079 N 104.945 -0.338344 -1.53925 0
M  V30 1080 C 106.191 0.260143 -2.01125 0
M  V30 1081 C 106.524 1.50617 -1.22589 0
M  V30 1082 O 105.799 1.91979 -0.312113 0
M  V30 1083 C 106.082 0.579499 -3.55407 0
M  V30 1084 C 105.935 -0.678264 -4.44657 0
M  V30 1085 C 107.254 1.39122 -4.17532 0
M  V30 1086 H 104.373 0.0930772 -0.731099 0
M  V30 1087 H 107.015 -0.457852 -1.84401 0
M  V30 1088 H 105.165 1.19118 -3.69788 0
M  V30 1089 H 106.837 -1.31631 -4.42121 0
M  V30 1090 H 105.08 -1.3042 -4.13731 0
M  V30 1091 H 105.751 -0.410143 -5.50474 0
M  V30 1092 H 108.227 0.874035 -4.06817 0
M  V30 1093 H 107.103 1.58342 -5.25565 0
M  V30 1094 H 107.364 2.39178 -3.71815 0
M  V30 1095 N 106.423 1.57458 -0.0668435 0
M  V30 1096 C 107.386 2.11323 0.887422 0
M  V30 1097 C 108.386 1.03618 1.22964 0
M  V30 1098 O 109.576 1.29626 1.16373 0
M  V30 1099 C 106.708 2.61048 2.19242 0
M  V30 1100 H 107.901 2.96942 0.420194 0
M  V30 1101 H 105.454 1.55239 0.181793 0
M  V30 1102 H 106.189 1.78868 2.70512 0
M  V30 1103 H 105.974 3.39769 1.95702 0
M  V30 1104 H 107.464 3.02814 2.87565 0
M  V30 1105 N 107.901 -0.206675 1.56239 0
M  V30 1106 C 109.312 -0.772383 1.69974 0
M  V30 1107 C 109.663 -1.84353 0.671436 0
M  V30 1108 O 108.788 -2.15695 -0.174491 0
M  V30 1109 C 109.383 -1.40779 3.08167 0
M  V30 1110 C 107.942 -1.92072 3.23706 0
M  V30 1111 C 107.089 -0.786347 2.65917 0
M  V30 1112 H 110.04 0.0182223 1.5869 0
M  V30 1113 H 110.061 -2.27696 3.04852 0
M  V30 1114 H 109.573 -0.627958 3.82986 0
M  V30 1115 H 107.674 -2.7281 2.53782 0
M  V30 1116 H 107.787 -2.09046 4.31087 0
M  V30 1117 H 106.151 -1.1976 2.24788 0
M  V30 1118 H 106.934 -0.0189416 3.43295 0
M  V30 1119 N 109.379 -1.50304 -0.473955 0
M  V30 1120 C 110.309 -1.71886 -1.58042 0
M  V30 1121 C 111.29 -0.567799 -1.60344 0
M  V30 1122 O 112.475 -0.806623 -1.76656 0
M  V30 1123 C 109.605 -1.81036 -2.96384 0
M  V30 1124 C 108.559 -2.962 -3.08949 0
M  V30 1125 C 107.885 -2.9049 -4.48909 0
M  V30 1126 C 109.185 -4.36752 -2.86434 0
M  V30 1127 H 110.879 -2.64527 -1.40234 0
M  V30 1128 H 108.425 -1.27295 -0.673201 0
M  V30 1129 H 110.378 -1.94719 -3.73714 0
M  V30 1130 H 109.102 -0.850147 -3.15341 0
M  V30 1131 H 107.761 -2.82164 -2.3405 0
M  V30 1132 H 107.409 -1.92321 -4.64781 0
M  V30 1133 H 107.109 -3.67802 -4.58253 0
M  V30 1134 H 108.633 -3.06218 -5.28264 0
M  V30 1135 H 110.047 -4.5133 -3.53517 0
M  V30 1136 H 108.444 -5.15493 -3.07225 0
M  V30 1137 H 109.514 -4.49321 -1.82316 0
M  V30 1138 N 110.857 0.726932 -1.39834 0
M  V30 1139 C 111.804 1.841 -1.39197 0
M  V30 1140 C 112.774 1.642 -0.250502 0
M  V30 1141 O 113.959 1.85494 -0.446846 0
M  V30 1142 C 111.099 3.21697 -1.24919 0
M  V30 1143 C 110.212 3.53247 -2.48678 0
M  V30 1144 C 109.347 4.80289 -2.26928 0
M  V30 1145 C 108.386 5.04707 -3.4632 0
M  V30 1146 N 107.523 6.22956 -3.23836 0
M  V30 1147 H 112.363 1.83979 -2.34427 0
M  V30 1148 H 109.9 0.898876 -1.16442 0
M  V30 1149 H 111.858 4.01137 -1.1465 0
M  V30 1150 H 110.488 3.21076 -0.333153 0
M  V30 1151 H 109.54 2.68447 -2.69519 0
M  V30 1152 H 110.852 3.67205 -3.37582 0
M  V30 1153 H 110.006 5.67725 -2.13947 0
M  V30 1154 H 108.745 4.68519 -1.35431 0
M  V30 1155 H 107.75 4.1573 -3.5979 0
M  V30 1156 H 108.975 5.18357 -4.38729 0
M  V30 1157 H 106.921 6.12459 -2.35011 0
M  V30 1158 H 106.838 6.37539 -4.063 0
M  V30 1159 H 108.106 7.1321 -3.14566 0
M  V30 1160 N 112.336 1.25143 0.95797 0
M  V30 1161 C 113.613 1.00472 1.67823 0
M  V30 1162 C 113.993 -0.470056 2.058 0
M  V30 1163 O 113.341 -1.44663 1.76875 0
M  V30 1164 C 113.551 1.9372 2.90299 0
M  V30 1165 C 114.899 2.21371 3.62326 0
M  V30 1166 O 115.923 1.91451 3.00375 0
M  V30 1167 O 114.782 2.72231 4.7387 0
M  V30 1168 H 111.876 0.380752 0.734137 0
M  V30 1169 H 114.422 1.36283 1.01119 0
M  V30 1170 H 113.194 2.93316 2.59001 0
M  V30 1171 H 112.817 1.58286 3.64735 0
M  V30 1172 N 113.814 -1.1601 1.06675 0
M  V30 1173 C 114.744 -2.22688 0.702307 0
M  V30 1174 C 115.725 -1.67306 -0.307032 0
M  V30 1175 O 116.91 -1.93352 -0.181305 0
M  V30 1176 C 114.04 -3.47178 0.092038 0
M  V30 1177 C 112.994 -4.15477 1.02777 0
M  V30 1178 C 112.32 -5.33963 0.28061 0
M  V30 1179 C 113.62 -4.66019 2.35846 0
M  V30 1180 H 115.314 -2.53429 1.59419 0
M  V30 1181 H 112.86 -1.21813 0.767961 0
M  V30 1182 H 114.813 -4.21037 -0.174814 0
M  V30 1183 H 113.537 -3.15749 -0.834877 0
M  V30 1184 H 112.196 -3.43549 1.27944 0
M  V30 1185 H 111.844 -4.98788 -0.649545 0
M  V30 1186 H 111.544 -5.806 0.904258 0
M  V30 1187 H 113.068 -6.10596 0.021396 0
M  V30 1188 H 114.482 -5.3144 2.15045 0
M  V30 1189 H 112.879 -5.23293 2.93743 0
M  V30 1190 H 113.949 -3.82023 2.98641 0
M  V30 1191 N 115.292 -0.849877 -1.32721 0
M  V30 1192 C 116.703 -0.506188 -1.79707 0
M  V30 1193 C 117.054 0.975627 -1.70223 0
M  V30 1194 O 116.179 1.76078 -1.25799 0
M  V30 1195 C 116.774 -0.912044 -3.26293 0
M  V30 1196 C 115.333 -0.620326 -3.71253 0
M  V30 1197 C 114.48 -1.11439 -2.53922 0
M  V30 1198 H 117.431 -1.03754 -1.20087 0
M  V30 1199 H 117.452 -0.226493 -3.79825 0
M  V30 1200 H 116.964 -1.99057 -3.33164 0
M  V30 1201 H 115.065 0.447674 -3.69901 0
M  V30 1202 H 115.178 -1.18327 -4.64258 0
M  V30 1203 H 113.542 -0.534834 -2.49021 0
M  V30 1204 H 114.325 -2.19992 -2.6355 0
M  V30 1205 N 116.77 1.45427 -0.607355 0
M  V30 1206 C 118.016 2.0254 -0.102607 0
M  V30 1207 C 118.349 1.47478 1.26348 0
M  V30 1208 O 117.624 0.64939 1.83339 0
M  V30 1209 C 117.907 3.60044 -0.0634347 0
M  V30 1210 C 117.76 4.2544 -1.46017 0
M  V30 1211 C 119.079 4.35646 0.624514 0
M  V30 1212 H 116.198 0.73598 -0.0387607 0
M  V30 1213 H 118.84 1.73284 -0.779282 0
M  V30 1214 H 116.99 3.85101 0.512808 0
M  V30 1215 H 118.662 4.11569 -2.08347 0
M  V30 1216 H 116.905 3.83849 -2.02094 0
M  V30 1217 H 117.576 5.34342 -1.385 0
M  V30 1218 H 120.052 4.15882 0.134723 0
M  V30 1219 H 118.928 5.45376 0.621028 0
M  V30 1220 H 119.189 4.08501 1.69055 0
M  V30 1221 N 118.248 0.346503 1.53744 0
M  V30 1222 C 119.196 -0.52422 2.26616 0
M  V30 1223 C 120.19 -1.09948 1.28871 0
M  V30 1224 O 121.396 -1.04488 1.46568 0
M  V30 1225 H 117.771 -0.187743 0.728187 0
M  V30 1226 H 119.742 0.11239 2.98188 0
M  V30 1227 C 118.491 -1.66186 3.05414 0
M  V30 1228 H 117.814 -1.22848 3.80458 0
M  V30 1229 H 119.254 -2.24622 3.59612 0
M  V30 1230 C 117.713 -2.59302 2.1509 0
M  V30 1231 O 118.243 -3.61628 1.74895 0
M  V30 1232 N 116.449 -2.28055 1.8011 0
M  V30 1233 H 115.996 -1.44883 2.12994 0
M  V30 1234 H 115.954 -2.90615 1.19958 0
M  V30 1235 N 119.726 -1.57421 0.075193 0
M  V30 1236 C 121.003 -1.85029 -0.634329 0
M  V30 1237 C 121.383 -0.968305 -1.87582 0
M  V30 1238 O 120.731 -0.0354749 -2.28472 0
M  V30 1239 C 120.941 -3.35286 -0.968742 0
M  V30 1240 C 122.289 -4.02875 -1.34077 0
M  V30 1241 O 123.313 -3.40051 -1.06037 0
M  V30 1242 O 122.172 -5.13691 -1.86506 0
M  V30 1243 H 119.266 -0.7645 -0.315387 0
M  V30 1244 H 121.812 -1.69366 0.106382 0
M  V30 1245 H 120.584 -3.91203 -0.0871376 0
M  V30 1246 H 120.207 -3.56223 -1.7661 0
M  V30 1247 N 121.204 0.198386 -1.56346 0
M  V30 1248 C 122.114 1.2664 -1.97483 0
M  V30 1249 C 123.13 1.49989 -0.882002 0
M  V30 1250 O 124.306 1.62668 -1.18748 0
M  V30 1251 C 121.371 2.59141 -2.30319 0
M  V30 1252 C 120.432 2.43892 -3.53292 0
M  V30 1253 C 119.665 3.70074 -3.84553 0
M  V30 1254 O 119.888 4.74101 -3.1715 0
M  V30 1255 O 118.822 3.658 -4.7799 0
M  V30 1256 H 122.648 0.947304 -2.88548 0
M  V30 1257 H 120.233 0.403123 -1.43859 0
M  V30 1258 H 122.115 3.37352 -2.5253 0
M  V30 1259 H 120.79 2.90684 -1.42423 0
M  V30 1260 H 119.697 1.63803 -3.36332 0
M  V30 1261 H 121.03 2.17282 -4.41644 0
M  V30 1262 N 122.682 1.50554 0.465978 0
M  V30 1263 C 123.632 1.66177 1.56106 0
M  V30 1264 C 124.616 0.516265 1.52393 0
M  V30 1265 O 125.808 0.770906 1.5933 0
M  V30 1266 C 122.937 1.76396 2.94515 0
M  V30 1267 C 122.023 2.9664 3.03093 0
M  V30 1268 N 122.414 4.20245 2.81474 0
M  V30 1269 C 120.712 2.95304 3.34233 0
M  V30 1270 C 121.413 5.01259 2.95151 0
M  V30 1271 N 120.389 4.35318 3.25576 0
M  V30 1272 H 124.191 2.59434 1.38099 0
M  V30 1273 H 121.705 1.47808 0.6728 0
M  V30 1274 H 123.702 1.85694 3.73261 0
M  V30 1275 H 122.362 0.843017 3.13565 0
M  V30 1276 H 123.373 4.4966 2.56956 0
M  V30 1277 H 120.05 2.12729 3.59239 0
M  V30 1278 H 121.44 6.09564 2.82632 0
M  V30 1279 N 124.16 -0.719506 1.40217 0
M  V30 1280 C 125.406 -1.48152 1.38488 0
M  V30 1281 C 125.739 -1.94195 -0.0141867 0
M  V30 1282 O 125.014 -1.67884 -0.982096 0
M  V30 1283 C 125.297 -2.71035 2.37091 0
M  V30 1284 C 125.15 -2.30912 3.86005 0
M  V30 1285 C 126.469 -3.73182 2.33288 0
M  V30 1286 H 123.588 -0.537395 0.504357 0
M  V30 1287 H 126.23 -0.821472 1.71324 0
M  V30 1288 H 124.38 -3.27352 2.0922 0
M  V30 1289 H 126.052 -1.80107 4.24687 0
M  V30 1290 H 124.295 -1.62958 4.02029 0
M  V30 1291 H 124.966 -3.18978 4.50508 0
M  V30 1292 H 127.442 -3.26485 2.57966 0
M  V30 1293 H 126.318 -4.56806 3.04334 0
M  V30 1294 H 126.579 -4.21202 1.34317 0
M  V30 1295 N 125.638 -1.25649 -0.95132 0
M  V30 1296 C 126.866 -1.13343 -1.73092 0
M  V30 1297 C 127.281 0.312434 -1.86197 0
M  V30 1298 O 126.638 1.21465 -1.36207 0
M  V30 1299 C 126.689 -1.78602 -3.14299 0
M  V30 1300 O 126.41 -3.17537 -3.01831 0
M  V30 1301 C 127.911 -1.72119 -4.08522 0
M  V30 1302 H 125.131 -0.395181 -0.542285 0
M  V30 1303 H 127.675 -1.66076 -1.19328 0
M  V30 1304 H 125.83 -1.29832 -3.64996 0
M  V30 1305 H 126.244 -3.49676 -3.90931 0
M  V30 1306 H 127.718 -2.22435 -5.052 0
M  V30 1307 H 128.195 -0.685635 -4.33815 0
M  V30 1308 H 128.801 -2.20393 -3.63741 0
M  V30 1309 N 127.117 1.15442 -1.07289 0
M  V30 1310 C 128.363 1.86489 -0.796846 0
M  V30 1311 C 128.696 1.82078 0.675371 0
M  V30 1312 O 127.971 1.24346 1.4956 0
M  V30 1313 C 128.254 3.35626 -1.30489 0
M  V30 1314 C 128.107 3.48673 -2.84161 0
M  V30 1315 C 129.426 4.30357 -0.920907 0
M  V30 1316 H 126.545 0.677144 -0.290939 0
M  V30 1317 H 129.187 1.35633 -1.33056 0
M  V30 1318 H 127.337 3.79068 -0.850883 0
M  V30 1319 H 129.009 3.14099 -3.37846 0
M  V30 1320 H 127.252 2.90253 -3.22391 0
M  V30 1321 H 127.923 4.53453 -3.14777 0
M  V30 1322 H 130.399 3.94871 -1.3121 0
M  V30 1323 H 129.275 5.33193 -1.30372 0
M  V30 1324 H 129.536 4.4176 0.173226 0
M  V30 1325 N 128.595 0.856903 1.32268 0
M  V30 1326 C 130.006 0.515711 1.79436 0
M  V30 1327 C 130.357 -0.966586 1.70738 0
M  V30 1328 O 129.482 -1.75409 1.26731 0
M  V30 1329 C 130.077 0.929335 3.25805 0
M  V30 1330 C 128.636 0.640006 3.70919 0
M  V30 1331 C 127.783 1.12784 2.53328 0
M  V30 1332 H 130.734 1.04389 1.19535 0
M  V30 1333 H 130.755 0.246633 3.797 0
M  V30 1334 H 130.267 2.00821 3.32103 0
M  V30 1335 H 128.368 -0.428051 3.70133 0
M  V30 1336 H 128.481 1.20788 4.63624 0
M  V30 1337 H 126.845 0.548033 2.48734 0
M  V30 1338 H 127.628 2.21387 2.62379 0
M  V30 1339 N 130.073 -1.45103 0.615059 0
M  V30 1340 C 131.484 -1.85654 0.197383 0
M  V30 1341 C 131.835 -1.51433 -1.24749 0
M  V30 1342 O 130.96 -0.944608 -1.94695 0
M  V30 1343 C 131.555 -3.36972 0.351448 0
M  V30 1344 C 130.114 -3.76398 -0.011593 0
M  V30 1345 C 129.261 -2.69024 0.672394 0
M  V30 1346 H 132.212 -1.35797 0.821263 0
M  V30 1347 H 132.233 -3.78239 -0.414227 0
M  V30 1348 H 131.745 -3.61847 1.40314 0
M  V30 1349 H 129.846 -3.5714 -1.06217 0
M  V30 1350 H 129.959 -4.77532 0.387265 0
M  V30 1351 H 128.323 -2.54465 0.109284 0
M  V30 1352 H 129.106 -2.96735 1.72636 0
M  V30 1353 N 131.551 -0.354651 -1.53558 0
M  V30 1354 C 132.797 0.231422 -2.02079 0
M  V30 1355 C 133.152 1.47308 -1.23767 0
M  V30 1356 O 132.445 1.8891 -0.319947 0
M  V30 1357 C 132.639 0.587121 -3.52545 0
M  V30 1358 C 132.468 -0.618513 -4.45426 0
M  V30 1359 C 131.238 -1.12724 -4.92566 0
M  V30 1360 C 133.436 -1.48039 -4.92533 0
M  V30 1361 N 131.418 -2.29404 -5.69427 0
M  V30 1362 C 132.789 -2.49397 -5.67628 0
M  V30 1363 C 134.844 -1.50454 -4.74624 0
M  V30 1364 C 133.547 -3.53013 -6.26717 0
M  V30 1365 C 135.573 -2.52958 -5.34571 0
M  V30 1366 C 134.935 -3.5304 -6.09543 0
M  V30 1367 H 131.034 0.0476909 -0.780544 0
M  V30 1368 H 133.618 -0.496727 -1.88257 0
M  V30 1369 H 131.789 1.28436 -3.6655 0
M  V30 1370 H 133.521 1.15734 -3.87799 0
M  V30 1371 H 130.276 -0.693577 -4.68494 0
M  V30 1372 H 130.7 -2.88347 -6.12524 0
M  V30 1373 H 135.342 -0.744356 -4.16196 0
M  V30 1374 H 133.06 -4.2992 -6.84247 0
M  V30 1375 H 136.646 -2.55667 -5.22614 0
M  V30 1376 H 135.526 -4.31056 -6.55103 0
M  V30 1377 N 133.029 1.57378 -0.0835403 0
M  V30 1378 C 133.976 2.13384 0.879539 0
M  V30 1379 C 134.946 1.04936 1.28754 0
M  V30 1380 O 136.131 1.32662 1.37133 0
M  V30 1381 C 133.271 2.70932 2.13752 0
M  V30 1382 C 132.384 3.93575 1.7811 0
M  V30 1383 C 131.519 4.39326 2.98607 0
M  V30 1384 C 130.558 5.54587 2.59037 0
M  V30 1385 N 129.695 5.95243 3.72331 0
M  V30 1386 H 134.535 2.9537 0.395076 0
M  V30 1387 H 132.072 1.45953 0.183349 0
M  V30 1388 H 134.03 3.02411 2.87408 0
M  V30 1389 H 132.66 1.91693 2.59718 0
M  V30 1390 H 131.712 3.68483 0.94469 0
M  V30 1391 H 133.024 4.77258 1.45005 0
M  V30 1392 H 132.178 4.72528 3.80529 0
M  V30 1393 H 130.917 3.5452 3.34913 0
M  V30 1394 H 129.922 5.21024 1.75539 0
M  V30 1395 H 131.147 6.41133 2.23887 0
M  V30 1396 H 129.093 5.13385 4.08378 0
M  V30 1397 H 129.01 6.73694 3.43034 0
M  V30 1398 H 130.278 6.33072 4.54797 0
M  V30 1399 N 134.507 -0.190092 1.56449 0
M  V30 1400 C 135.47 -1.21925 1.9408 0
M  V30 1401 C 136.47 -1.38176 0.822431 0
M  V30 1402 O 137.66 -1.35903 1.08977 0
M  V30 1403 C 134.792 -2.58773 2.21922 0
M  V30 1404 H 135.985 -0.897464 2.86157 0
M  V30 1405 H 133.538 -0.43181 1.50217 0
M  V30 1406 H 134.273 -2.95998 1.32499 0
M  V30 1407 H 134.058 -2.48348 3.03424 0
M  V30 1408 H 135.548 -3.32978 2.52022 0
M  V30 1409 N 135.985 -1.50799 -0.457987 0
M  V30 1410 C 136.933 -1.71162 -1.575 0
M  V30 1411 C 137.927 -0.577592 -1.59249 0
M  V30 1412 O 139.133 -0.758443 -1.63241 0
M  V30 1413 H 135.508 -0.540468 -0.522875 0
M  V30 1414 H 137.479 -2.64837 -1.37492 0
M  V30 1415 C 136.228 -1.83496 -2.95338 0
M  V30 1416 H 135.551 -2.70153 -2.94716 0
M  V30 1417 H 136.991 -2.01765 -3.72917 0
M  V30 1418 C 135.45 -0.589694 -3.31699 0
M  V30 1419 O 135.98 0.265163 -4.00824 0
M  V30 1420 N 134.186 -0.439845 -2.87252 0
M  V30 1421 H 133.733 -1.13655 -2.31172 0
M  V30 1422 H 133.691 0.392159 -3.11945 0
M  V30 1423 N 137.463 0.71206 -1.40597 0
M  V30 1424 C 138.688 1.50617 -1.42581 0
M  V30 1425 C 139.113 1.88079 -0.0282102 0
M  V30 1426 O 138.471 1.53511 0.964579 0
M  V30 1427 C 138.519 2.7557 -2.3258 0
M  V30 1428 O 137.623 3.72414 -1.77148 0
M  V30 1429 H 136.964 0.453966 -0.484573 0
M  V30 1430 H 139.494 0.876649 -1.84868 0
M  V30 1431 H 139.504 3.2406 -2.47889 0
M  V30 1432 H 138.179 2.47639 -3.34138 0
M  V30 1433 H 136.756 3.31276 -1.71204 0
M  V30 1434 N 138.941 1.26152 0.944643 0
M  V30 1435 C 139.888 1.07408 2.04285 0
M  V30 1436 C 140.858 -0.0198413 1.66088 0
M  V30 1437 O 142.043 0.139264 1.90291 0
M  V30 1438 C 139.183 0.70945 3.37729 0
M  V30 1439 C 138.296 1.87926 3.88983 0
M  V30 1440 C 137.431 1.45807 5.10797 0
M  V30 1441 C 136.47 2.5964 5.54305 0
M  V30 1442 N 135.607 2.18226 6.67324 0
M  V30 1443 H 140.447 2.01389 2.1965 0
M  V30 1444 H 137.984 1.00275 1.07626 0
M  V30 1445 H 139.942 0.478948 4.14442 0
M  V30 1446 H 138.572 -0.193389 3.2222 0
M  V30 1447 H 137.624 2.22279 3.08701 0
M  V30 1448 H 138.936 2.73377 4.17213 0
M  V30 1449 H 138.09 1.18781 5.94959 0
M  V30 1450 H 136.829 0.574414 4.84305 0
M  V30 1451 H 135.834 2.87399 4.68702 0
M  V30 1452 H 137.059 3.48599 5.828 0
M  V30 1453 H 135.005 1.3229 6.42523 0
M  V30 1454 H 134.922 2.97221 6.95123 0
M  V30 1455 H 136.19 1.94403 7.54869 0
M  V30 1456 N 140.419 -1.14872 1.07899 0
M  V30 1457 C 141.351 -2.19425 0.662231 0
M  V30 1458 C 142.364 -1.60231 -0.288079 0
M  V30 1459 O 143.553 -1.78336 -0.076534 0
M  V30 1460 C 140.653 -3.38867 -0.0470695 0
M  V30 1461 C 139.826 -4.27597 0.920831 0
M  V30 1462 C 138.885 -5.25616 0.247805 0
M  V30 1463 O 137.911 -5.62189 0.890599 0
M  V30 1464 N 139.113 -5.71746 -1.00435 0
M  V30 1465 H 141.878 -2.55797 1.56166 0
M  V30 1466 H 139.439 -1.30042 0.964404 0
M  V30 1467 H 141.431 -4.01497 -0.50813 0
M  V30 1468 H 140.001 -3.00864 -0.848523 0
M  V30 1469 H 139.221 -3.61982 1.56087 0
M  V30 1470 H 140.509 -4.83748 1.57688 0
M  V30 1471 H 139.907 -5.44153 -1.54642 0
M  V30 1472 H 138.464 -6.36389 -1.40899 0
M  V30 1473 N 141.898 -0.863906 -1.31812 0
M  V30 1474 C 143.309 -0.52522 -1.7916 0
M  V30 1475 C 143.66 0.957518 -1.71248 0
M  V30 1476 O 142.785 1.74734 -1.27659 0
M  V30 1477 C 143.38 -0.9466 -3.25307 0
M  V30 1478 C 141.939 -0.659668 -3.70574 0
M  V30 1479 C 141.086 -1.14126 -2.52726 0
M  V30 1480 H 144.037 -1.05022 -1.1898 0
M  V30 1481 H 144.058 -0.266766 -3.79564 0
M  V30 1482 H 143.57 -2.02579 -3.31034 0
M  V30 1483 H 141.671 0.408416 -3.70355 0
M  V30 1484 H 141.784 -1.23245 -4.62977 0
M  V30 1485 H 140.148 -0.561216 -2.4844 0
M  V30 1486 H 140.931 -2.22775 -2.61201 0
M  V30 1487 N 143.376 1.44774 -0.622745 0
M  V30 1488 C 144.339 2.29069 0.0774015 0
M  V30 1489 C 145.339 1.4059 0.780461 0
M  V30 1490 O 146.529 1.62551 0.626322 0
M  V30 1491 C 143.661 3.21974 1.12006 0
M  V30 1492 H 144.854 2.92459 -0.663901 0
M  V30 1493 H 142.407 1.51548 -0.382486 0
M  V30 1494 H 143.142 2.63417 1.89162 0
M  V30 1495 H 142.927 3.87168 0.619951 0
M  V30 1496 H 144.417 3.85318 1.60995 0
M  V30 1497 N 144.854 0.36279 1.53368 0
M  V30 1498 C 146.101 -0.227776 2.01215 0
M  V30 1499 C 146.429 -1.49003 1.25014 0
M  V30 1500 O 145.684 -1.92876 0.331236 0
M  V30 1501 C 145.983 -0.568417 3.52851 0
M  V30 1502 C 145.649 0.59918 4.46901 0
M  V30 1503 C 144.311 0.919559 4.72332 0
M  V30 1504 C 146.663 1.38156 5.02556 0
M  V30 1505 C 143.991 2.02434 5.5067 0
M  V30 1506 C 146.343 2.47674 5.821 0
M  V30 1507 C 145.007 2.8025 6.05819 0
M  V30 1508 H 144.277 -0.083349 0.736297 0
M  V30 1509 H 146.924 0.494677 1.85001 0
M  V30 1510 H 145.229 -1.37185 3.66998 0
M  V30 1511 H 146.926 -1.03756 3.87344 0
M  V30 1512 H 143.516 0.339437 4.27254 0
M  V30 1513 H 147.7 1.14729 4.82857 0
M  V30 1514 H 142.956 2.28075 5.67267 0
M  V30 1515 H 147.13 3.08716 6.24234 0
M  V30 1516 H 144.757 3.65979 6.66306 0
M  V30 1517 N 146.332 -1.57332 0.0918853 0
M  V30 1518 C 147.56 -1.98574 -0.581048 0
M  V30 1519 C 147.975 -0.970903 -1.61923 0
M  V30 1520 O 147.332 0.0399054 -1.82456 0
M  V30 1521 C 147.383 -3.39872 -1.23164 0
M  V30 1522 O 147.104 -4.37469 -0.234989 0
M  V30 1523 C 148.605 -3.96099 -1.99049 0
M  V30 1524 H 145.825 -0.65261 -0.156018 0
M  V30 1525 H 148.369 -2.0379 0.170225 0
M  V30 1526 H 146.524 -3.35679 -1.93386 0
M  V30 1527 H 146.938 -5.19751 -0.70418 0
M  V30 1528 H 148.412 -4.97127 -2.39934 0
M  V30 1529 H 148.889 -3.3374 -2.85507 0
M  V30 1530 H 149.495 -4.03755 -1.3365 0
M  V30 1531 N 147.81 0.181792 -1.56548 0
M  V30 1532 C 149.059 0.898348 -1.8059 0
M  V30 1533 C 149.372 1.83862 -0.667379 0
M  V30 1534 O 150.578 2.59678 -0.792446 0
M  V30 1535 C 149.034 1.64791 -3.19956 0
M  V30 1536 C 148.642 0.751789 -4.41647 0
M  V30 1537 C 150.386 2.35331 -3.53298 0
M  V30 1538 C 148.293 1.50098 -5.72035 0
M  V30 1539 H 147.223 0.339194 -0.673397 0
M  V30 1540 H 149.874 0.151413 -1.82874 0
M  V30 1541 H 148.256 2.43921 -3.11959 0
M  V30 1542 H 149.43 -0.0018076 -4.608 0
M  V30 1543 H 147.745 0.156562 -4.16106 0
M  V30 1544 H 150.342 2.91958 -4.47956 0
M  V30 1545 H 150.685 3.10164 -2.77676 0
M  V30 1546 H 151.218 1.63154 -3.62803 0
M  V30 1547 H 147.957 0.795175 -6.50659 0
M  V30 1548 H 147.477 2.22817 -5.56878 0
M  V30 1549 H 149.156 2.05125 -6.13622 0
M  V30 1550 N 149.288 1.51039 0.449983 0
M  V30 1551 C 150.238 1.67824 1.54335 0
M  V30 1552 C 151.222 0.5324 1.51836 0
M  V30 1553 O 152.414 0.787762 1.58503 0
M  V30 1554 C 149.543 1.7951 2.92628 0
M  V30 1555 C 148.629 2.99838 2.9993 0
M  V30 1556 N 149.02 4.23207 2.77001 0
M  V30 1557 C 147.318 2.98832 3.31082 0
M  V30 1558 C 148.019 5.04361 2.89818 0
M  V30 1559 N 146.995 4.38746 3.2094 0
M  V30 1560 H 150.797 2.60884 1.35339 0
M  V30 1561 H 148.311 1.48513 0.657085 0
M  V30 1562 H 150.308 1.89642 3.7127 0
M  V30 1563 H 148.968 0.876227 3.12654 0
M  V30 1564 H 149.979 4.5236 2.52172 0
M  V30 1565 H 146.656 2.16527 3.56963 0
M  V30 1566 H 148.046 6.12528 2.76151 0
M  V30 1567 N 150.766 -0.704594 1.40972 0
M  V30 1568 C 152.012 -1.46675 1.40051 0
M  V30 1569 C 152.345 -1.94199 0.00641102 0
M  V30 1570 O 151.62 -1.68916 -0.964235 0
M  V30 1571 C 151.903 -2.68505 2.39952 0
M  V30 1572 C 151.756 -2.26805 3.88432 0
M  V30 1573 C 153.075 -3.70686 2.37233 0
M  V30 1574 H 150.194 -0.532015 0.510028 0
M  V30 1575 H 152.836 -0.803255 1.72185 0
M  V30 1576 H 150.986 -3.25114 2.1268 0
M  V30 1577 H 152.658 -1.75592 4.26574 0
M  V30 1578 H 150.901 -1.58685 4.03734 0
M  V30 1579 H 151.572 -3.14181 4.53866 0
M  V30 1580 H 154.048 -3.23731 2.61415 0
M  V30 1581 H 152.924 -4.53553 3.09162 0
M  V30 1582 H 153.185 -4.19754 1.38777 0
M  V30 1583 N 152.244 -1.26651 -0.937939 0
M  V30 1584 C 153.521 -1.0313 -1.66204 0
M  V30 1585 C 153.901 0.437256 -2.06522 0
M  V30 1586 O 153.249 1.41831 -1.79154 0
M  V30 1587 C 153.459 -1.98314 -2.87181 0
M  V30 1588 C 154.807 -2.27107 -3.58758 0
M  V30 1589 O 155.831 -1.96205 -2.97291 0
M  V30 1590 O 154.69 -2.79736 -4.69479 0
M  V30 1591 H 151.784 -0.392384 -0.727986 0
M  V30 1592 H 154.33 -1.37874 -0.989382 0
M  V30 1593 H 153.102 -2.97399 -2.54302 0
M  V30 1594 H 152.725 -1.64068 -3.6217 0
M  V30 1595 N 153.722 1.14298 -1.08507 0
M  V30 1596 C 154.632 2.23027 -0.727753 0
M  V30 1597 C 155.648 1.71952 0.26619 0
M  V30 1598 O 156.824 2.011 0.109882 0
M  V30 1599 C 153.889 3.46403 -0.143541 0
M  V30 1600 C 152.95 4.12413 -1.19223 0
M  V30 1601 C 152.183 5.29899 -0.635798 0
M  V30 1602 O 152.406 5.67796 0.544393 0
M  V30 1603 O 151.34 5.85717 -1.38634 0
M  V30 1604 H 155.166 2.55945 -1.63481 0
M  V30 1605 H 152.751 1.22248 -0.858817 0
M  V30 1606 H 154.633 4.21018 0.179404 0
M  V30 1607 H 153.308 3.15206 0.736659 0
M  V30 1608 H 152.215 3.39667 -1.56772 0
M  V30 1609 H 153.548 4.47718 -2.04474 0
M  V30 1610 N 155.201 0.870884 1.31352 0
M  V30 1611 C 156.164 0.332243 2.26779 0
M  V30 1612 C 157.164 -0.517302 1.52252 0
M  V30 1613 O 158.354 -0.326477 1.71113 0
M  V30 1614 C 155.486 -0.528066 3.36785 0
M  V30 1615 H 156.679 1.17469 2.75937 0
M  V30 1616 H 154.232 0.64655 1.423 0
M  V30 1617 H 154.967 -1.39167 2.92922 0
M  V30 1618 H 154.752 0.0802582 3.92018 0
M  V30 1619 H 156.242 -0.897179 4.07849 0
M  V30 1620 N 156.679 -1.44442 0.630414 0
M  V30 1621 C 157.589 -2.34476 -0.0761693 0
M  V30 1622 C 158.605 -1.52576 -0.836449 0
M  V30 1623 O 159.781 -1.85307 -0.788874 0
M  V30 1624 C 156.846 -3.30545 -1.04599 0
M  V30 1625 C 155.907 -4.28352 -0.28516 0
M  V30 1626 C 155.14 -5.19831 -1.20878 0
M  V30 1627 O 155.363 -5.15223 -2.44747 0
M  V30 1628 O 154.297 -5.97892 -0.693491 0
M  V30 1629 H 158.123 -2.96345 0.664324 0
M  V30 1630 H 155.708 -1.44203 0.39061 0
M  V30 1631 H 157.59 -3.89681 -1.60396 0
M  V30 1632 H 156.265 -2.7121 -1.76711 0
M  V30 1633 H 155.172 -3.72764 0.315837 0
M  V30 1634 H 156.505 -4.90605 0.395924 0
M  V30 1635 N 158.157 -0.370918 -1.53173 0
M  V30 1636 C 159.104 0.473035 -2.259 0
M  V30 1637 C 160.074 1.07311 -1.26781 0
M  V30 1638 O 161.259 1.1046 -1.55574 0
M  V30 1639 C 158.399 1.60405 -3.05556 0
M  V30 1640 C 157.512 1.02863 -4.19575 0
M  V30 1641 C 156.647 2.12918 -4.86661 0
M  V30 1642 C 155.686 1.52869 -5.92704 0
M  V30 1643 N 154.823 2.56779 -6.53459 0
M  V30 1644 H 159.663 -0.153649 -2.97604 0
M  V30 1645 H 157.2 -0.0875946 -1.46839 0
M  V30 1646 H 159.158 2.27034 -3.50016 0
M  V30 1647 H 157.788 2.20131 -2.36097 0
M  V30 1648 H 156.84 0.252465 -3.79561 0
M  V30 1649 H 158.152 0.549642 -4.95762 0
M  V30 1650 H 157.306 2.87356 -5.34333 0
M  V30 1651 H 156.045 2.6417 -4.09958 0
M  V30 1652 H 155.05 0.769479 -5.44389 0
M  V30 1653 H 156.275 1.02435 -6.7133 0
M  V30 1654 H 154.221 3.07235 -5.79606 0
M  V30 1655 H 154.138 2.13583 -7.25202 0
M  V30 1656 H 155.406 3.30903 -7.05779 0
M  V30 1657 N 159.635 1.57281 -0.100228 0
M  V30 1658 C 160.545 2.17833 0.870965 0
M  V30 1659 C 161.561 1.14921 1.30649 0
M  V30 1660 O 162.737 1.47313 1.37335 0
M  V30 1661 C 159.802 2.75085 2.1102 0
M  V30 1662 C 158.863 3.9297 1.72838 0
M  V30 1663 C 158.096 4.47482 2.90854 0
M  V30 1664 O 158.319 4.00922 4.05731 0
M  V30 1665 O 157.253 5.38433 2.69023 0
M  V30 1666 H 161.079 3.0124 0.38575 0
M  V30 1667 H 158.664 1.48881 0.124397 0
M  V30 1668 H 160.546 3.11656 2.83634 0
M  V30 1669 H 159.221 1.94721 2.58584 0
M  V30 1670 H 158.128 3.61201 0.973883 0
M  V30 1671 H 159.461 4.74713 1.30033 0
M  V30 1672 N 161.113 -0.173488 1.56642 0
M  V30 1673 C 162.076 -1.19859 1.95362 0
M  V30 1674 C 163.076 -1.37296 0.83704 0
M  V30 1675 O 164.266 -1.34739 1.10413 0
M  V30 1676 C 161.398 -2.56405 2.24654 0
M  V30 1677 H 162.591 -0.867062 2.87092 0
M  V30 1678 H 160.144 -0.415853 1.50666 0
M  V30 1679 H 160.879 -2.94576 1.35631 0
M  V30 1680 H 160.664 -2.45115 3.06041 0
M  V30 1681 H 162.154 -3.30287 2.5554 0
M  V30 1682 N 162.591 -1.51276 -0.441967 0
M  V30 1683 C 163.523 -1.68444 -1.55433 0
M  V30 1684 C 164.536 -0.565187 -1.52674 0
M  V30 1685 O 165.725 -0.839356 -1.57534 0
M  V30 1686 C 162.825 -1.67966 -2.94348 0
M  V30 1687 C 161.998 -2.964 -3.21661 0
M  V30 1688 C 161.057 -2.88171 -4.40277 0
M  V30 1689 O 160.083 -3.62119 -4.39157 0
M  V30 1690 N 161.285 -2.03706 -5.43584 0
M  V30 1691 H 164.05 -2.644 -1.41112 0
M  V30 1692 H 161.611 -1.49104 -0.630838 0
M  V30 1693 H 163.603 -1.60035 -3.71713 0
M  V30 1694 H 162.173 -0.796225 -3.0229 0
M  V30 1695 H 161.393 -3.18234 -2.32638 0
M  V30 1696 H 162.681 -3.81427 -3.36736 0
M  V30 1697 H 162.079 -1.42995 -5.47329 0
M  V30 1698 H 160.636 -2.01658 -6.1982 0
M  V30 1699 N 164.069 0.697108 -1.41344 0
M  V30 1700 C 165.016 1.81106 -1.43071 0
M  V30 1701 C 165.986 1.63632 -0.285275 0
M  V30 1702 O 167.171 1.84504 -0.486091 0
M  V30 1703 C 164.311 3.18975 -1.31715 0
M  V30 1704 C 163.424 3.47892 -2.56115 0
M  V30 1705 C 162.559 4.75367 -2.37064 0
M  V30 1706 C 161.598 4.97247 -3.56948 0
M  V30 1707 N 160.735 6.15947 -3.36977 0
M  V30 1708 H 165.575 1.78965 -2.38276 0
M  V30 1709 H 163.112 0.873975 -1.18322 0
M  V30 1710 H 165.07 3.98615 -1.23133 0
M  V30 1711 H 163.7 3.20297 -0.401183 0
M  V30 1712 H 162.752 2.62669 -2.75153 0
M  V30 1713 H 164.064 3.59962 -3.45295 0
M  V30 1714 H 163.218 5.63059 -2.25941 0
M  V30 1715 H 161.957 4.65541 -1.45338 0
M  V30 1716 H 160.962 4.08004 -3.68527 0
M  V30 1717 H 162.187 5.08934 -4.49626 0
M  V30 1718 H 160.133 6.07336 -2.47949 0
M  V30 1719 H 160.05 6.28777 -4.19732 0
M  V30 1720 H 161.318 7.06377 -3.29623 0
M  V30 1721 N 165.547 1.27147 0.931209 0
M  V30 1722 C 166.494 1.09568 2.03134 0
M  V30 1723 C 167.464 -0.00222433 1.661 0
M  V30 1724 O 168.649 0.159439 1.90133 0
M  V30 1725 C 165.789 0.745231 3.36957 0
M  V30 1726 C 164.902 1.92041 3.86968 0
M  V30 1727 C 164.037 1.51216 5.09222 0
M  V30 1728 C 163.076 2.65504 5.5152 0
M  V30 1729 N 162.213 2.25291 6.64972 0
M  V30 1730 H 167.053 2.03708 2.17502 0
M  V30 1731 H 164.59 1.01411 1.06556 0
M  V30 1732 H 166.548 0.522878 4.1391 0
M  V30 1733 H 165.178 -0.159202 3.22407 0
M  V30 1734 H 164.23 2.25541 3.06326 0
M  V30 1735 H 165.542 2.77787 4.1429 0
M  V30 1736 H 164.696 1.25084 5.93666 0
M  V30 1737 H 163.435 0.625749 4.83669 0
M  V30 1738 H 162.44 2.92354 4.65628 0
M  V30 1739 H 163.665 3.54761 5.7907 0
M  V30 1740 H 161.611 1.39098 6.41083 0
M  V30 1741 H 161.528 3.04577 6.91931 0
M  V30 1742 H 162.796 2.02398 7.52765 0
M  V30 1743 N 167.025 -1.13721 1.09112 0
M  V30 1744 C 168.436 -1.6648 0.845068 0
M  V30 1745 C 168.787 -1.85911 -0.62701 0
M  V30 1746 O 167.912 -1.57556 -1.48341 0
M  V30 1747 C 168.507 -3.02413 1.52748 0
M  V30 1748 C 167.066 -3.52176 1.32849 0
M  V30 1749 C 166.213 -2.27492 1.58564 0
M  V30 1750 H 169.164 -0.976872 1.25072 0
M  V30 1751 H 169.185 -3.68223 0.958752 0
M  V30 1752 H 168.697 -2.88238 2.59885 0
M  V30 1753 H 166.798 -3.7156 0.278137 0
M  V30 1754 H 166.911 -4.32499 2.0611 0
M  V30 1755 H 165.275 -2.33923 1.00758 0
M  V30 1756 H 166.058 -2.15886 2.66924 0
M  V30 1757 N 168.503 -0.877838 -1.30888 0
M  V30 1758 C 169.466 -0.344265 -2.266 0
M  V30 1759 C 170.466 0.50922 -1.52524 0
M  V30 1760 O 171.656 0.317398 -1.71284 0
M  V30 1761 C 168.788 0.510198 -3.37061 0
M  V30 1762 H 169.981 -1.1893 -2.7531 0
M  V30 1763 H 167.534 -0.654088 -1.41956 0
M  V30 1764 H 168.269 1.37612 -2.93655 0
M  V30 1765 H 168.054 -0.101047 -3.9197 0
M  V30 1766 H 169.544 0.875537 -4.08319 0
M  V30 1767 N 169.982 1.44106 -0.638065 0
M  V30 1768 C 170.892 2.34513 0.0637334 0
M  V30 1769 C 171.908 1.53018 0.828346 0
M  V30 1770 O 173.084 1.85723 0.779036 0
M  V30 1771 C 170.149 3.31095 1.02844 0
M  V30 1772 C 169.21 4.28497 0.26244 0
M  V30 1773 C 168.443 5.20465 1.1812 0
M  V30 1774 O 168.666 5.16514 2.42011 0
M  V30 1775 O 167.6 5.98251 0.661774 0
M  V30 1776 H 171.426 2.95989 -0.68003 0
M  V30 1777 H 169.011 1.43994 -0.398252 0
M  V30 1778 H 170.893 3.90526 1.58327 0
M  V30 1779 H 169.568 2.72144 1.7527 0
M  V30 1780 H 168.475 3.72592 -0.335602 0
M  V30 1781 H 169.808 4.90388 -0.421936 0
M  V30 1782 N 171.46 0.379036 1.52974 0
M  V30 1783 C 172.685 -0.209353 2.06341 0
M  V30 1784 C 173.11 -1.40583 1.24972 0
M  V30 1785 O 172.468 -1.79246 0.272155 0
M  V30 1786 C 172.516 -0.567786 3.56102 0
M  V30 1787 O 171.62 -1.66318 3.77375 0
M  V30 1788 H 170.961 -0.0272919 0.663439 0
M  V30 1789 H 173.491 0.543536 1.97248 0
M  V30 1790 H 173.501 -0.835003 3.99364 0
M  V30 1791 H 172.176 0.307013 4.14765 0
M  V30 1792 H 170.753 -1.39048 3.46006 0
M  V30 1793 N 172.938 -1.57226 0.108567 0
M  V30 1794 C 173.87 -2.11809 -0.875752 0
M  V30 1795 C 174.883 -1.05839 -1.23701 0
M  V30 1796 O 176.072 -1.33245 -1.18778 0
M  V30 1797 C 173.172 -2.59411 -2.18081 0
M  V30 1798 C 172.345 -3.89364 -1.99284 0
M  V30 1799 C 171.404 -4.22672 -3.13424 0
M  V30 1800 O 170.43 -4.91668 -2.86795 0
M  V30 1801 N 171.632 -3.79154 -4.3957 0
M  V30 1802 H 174.397 -2.9689 -0.409477 0
M  V30 1803 H 171.958 -1.61721 -0.076158 0
M  V30 1804 H 173.95 -2.7873 -2.93414 0
M  V30 1805 H 172.52 -1.79268 -2.5609 0
M  V30 1806 H 171.74 -3.79059 -1.08203 0
M  V30 1807 H 173.028 -4.74358 -1.84017 0
M  V30 1808 H 172.426 -3.23486 -4.64083 0
M  V30 1809 H 170.983 -4.03602 -5.11809 0
M  V30 1810 N 174.416 0.165178 -1.56732 0
M  V30 1811 C 175.363 1.2044 -1.96883 0
M  V30 1812 C 176.333 1.43664 -0.833657 0
M  V30 1813 O 177.518 1.56302 -1.09427 0
M  V30 1814 C 174.658 2.53727 -2.33916 0
M  V30 1815 C 173.771 2.3783 -3.6064 0
M  V30 1816 C 172.906 3.64026 -3.86857 0
M  V30 1817 C 171.945 3.43088 -5.06909 0
M  V30 1818 N 171.082 4.61369 -5.29229 0
M  V30 1819 H 175.922 0.854996 -2.85471 0
M  V30 1820 H 173.459 0.41076 -1.41249 0
M  V30 1821 H 175.417 3.31419 -2.53411 0
M  V30 1822 H 174.047 2.8665 -1.48431 0
M  V30 1823 H 173.099 1.51282 -3.49024 0
M  V30 1824 H 174.411 2.18308 -4.4849 0
M  V30 1825 H 173.565 4.50152 -4.06753 0
M  V30 1826 H 172.304 3.86533 -2.97394 0
M  V30 1827 H 171.309 2.55349 -4.86906 0
M  V30 1828 H 172.534 3.21997 -5.97909 0
M  V30 1829 H 170.48 4.84084 -4.42718 0
M  V30 1830 H 170.397 4.44783 -6.11313 0
M  V30 1831 H 171.665 5.48761 -5.53608 0
M  V30 1832 N 175.894 1.51508 0.433938 0
M  V30 1833 C 177.143 1.63578 1.18005 0
M  V30 1834 C 177.456 0.359514 1.92268 0
M  V30 1835 O 178.662 0.359632 2.69108 0
M  V30 1836 C 177.118 2.88901 2.14626 0
M  V30 1837 C 176.726 4.23544 1.45995 0
M  V30 1838 C 178.47 3.10328 2.89649 0
M  V30 1839 C 176.377 5.40014 2.4112 0
M  V30 1840 H 175.307 0.609277 0.444182 0
M  V30 1841 H 177.958 1.77978 0.446773 0
M  V30 1842 H 176.34 2.68142 2.91403 0
M  V30 1843 H 177.514 4.54696 0.747532 0
M  V30 1844 H 175.829 4.08021 0.831115 0
M  V30 1845 H 178.426 3.94518 3.60915 0
M  V30 1846 H 178.769 2.23544 3.51189 0
M  V30 1847 H 179.302 3.31443 2.19978 0
M  V30 1848 H 176.041 6.29068 1.84264 0
M  V30 1849 H 175.561 5.13233 3.10406 0
M  V30 1850 H 177.24 5.72099 3.02177 0
M  V30 1851 N 177.372 -0.689602 1.41712 0
M  V30 1852 C 178.282 -1.83314 1.46401 0
M  V30 1853 C 179.298 -1.7036 0.35405 0
M  V30 1854 O 180.474 -1.92171 0.602692 0
M  V30 1855 C 177.539 -3.19344 1.34982 0
M  V30 1856 C 176.6 -3.44363 2.56344 0
M  V30 1857 C 175.833 -4.73904 2.45461 0
M  V30 1858 O 176.056 -5.508 1.48241 0
M  V30 1859 O 174.99 -4.99839 3.35328 0
M  V30 1860 H 178.816 -1.82314 2.42889 0
M  V30 1861 H 176.401 -0.843438 1.23315 0
M  V30 1862 H 178.283 -4.00547 1.3092 0
M  V30 1863 H 176.958 -3.21014 0.41612 0
M  V30 1864 H 175.865 -2.63067 2.65982 0
M  V30 1865 H 177.198 -3.47512 3.48563 0
M  V30 1866 N 178.85 -1.27639 -0.924453 0
M  V30 1867 C 180.266 -1.05113 -1.20097 0
M  V30 1868 C 180.466 0.213262 -2.00368 0
M  V30 1869 O 179.522 0.91787 -2.35226 0
M  V30 1870 C 180.835 -2.29244 -1.94596 0
M  V30 1871 C 182.383 -2.34315 -2.07522 0
M  V30 1872 C 182.858 -3.58183 -2.85427 0
M  V30 1873 N 184.349 -3.5876 -2.92994 0
M  V30 1874 C 185.084 -4.51277 -3.53746 0
M  V30 1875 N 184.58 -5.54102 -4.15863 0
M  V30 1876 N 186.373 -4.38894 -3.51181 0
M  V30 1877 H 178.524 -2.08821 -0.388264 0
M  V30 1878 H 180.787 -0.918568 -0.234385 0
M  V30 1879 H 180.493 -3.21301 -1.43034 0
M  V30 1880 H 180.367 -2.34816 -2.95197 0
M  V30 1881 H 182.754 -1.42762 -2.58269 0
M  V30 1882 H 182.835 -2.32744 -1.06131 0
M  V30 1883 H 182.479 -4.50074 -2.35363 0
M  V30 1884 H 182.409 -3.57006 -3.8711 0
M  V30 1885 H 184.9 -2.84398 -2.4885 0
M  V30 1886 H 185.213 -6.20859 -4.60168 0
M  V30 1887 H 183.558 -5.57941 -4.144 0
M  V30 1888 H 186.749 -3.57772 -3.01856 0
M  V30 1889 H 186.922 -5.11186 -3.98237 0
M  V30 1890 N 180.328 1.1314 -1.09713 0
M  V30 1891 C 181.238 2.22242 -0.751367 0
M  V30 1892 C 182.254 1.72224 0.247938 0
M  V30 1893 O 183.43 2.01205 0.0885463 0
M  V30 1894 C 180.495 3.46231 -0.180274 0
M  V30 1895 C 179.556 4.11125 -1.2359 0
M  V30 1896 C 178.789 5.29195 -0.691966 0
M  V30 1897 O 179.012 5.68342 0.48414 0
M  V30 1898 O 177.946 5.84214 -1.44838 0
M  V30 1899 H 181.772 2.54197 -1.66186 0
M  V30 1900 H 179.357 1.21331 -0.871735 0
M  V30 1901 H 181.239 4.21185 0.134739 0
M  V30 1902 H 179.914 3.1597 0.703185 0
M  V30 1903 H 178.821 3.37985 -1.60366 0
M  V30 1904 H 180.154 4.45524 -2.09211 0
M  V30 1905 N 181.806 0.884767 1.30421 0
M  V30 1906 C 183.083 0.423185 1.90967 0
M  V30 1907 C 183.463 -1.09605 1.80416 0
M  V30 1908 O 182.811 -1.93126 1.22125 0
M  V30 1909 C 183.021 0.921056 3.36627 0
M  V30 1910 C 184.369 0.955903 4.137 0
M  V30 1911 O 185.393 0.867706 3.4547 0
M  V30 1912 O 184.252 1.08614 5.35598 0
M  V30 1913 H 181.346 0.129369 0.816819 0
M  V30 1914 H 183.892 0.973653 1.3899 0
M  V30 1915 H 182.664 1.96489 3.3839 0
M  V30 1916 H 182.287 0.349741 3.96059 0
M  V30 1917 N 183.284 -1.43765 0.645699 0
M  V30 1918 C 184.247 -2.29163 -0.0409488 0
M  V30 1919 C 185.247 -1.41813 -0.757996 0
M  V30 1920 O 186.437 -1.63527 -0.600382 0
M  V30 1921 C 183.569 -3.23716 -1.06869 0
M  V30 1922 H 184.762 -2.91366 0.710345 0
M  V30 1923 H 182.315 -1.5092 0.406547 0
M  V30 1924 H 183.05 -2.66393 -1.84947 0
M  V30 1925 H 182.835 -3.88105 -0.558277 0
M  V30 1926 H 184.325 -3.87831 -1.54845 0
M  V30 1927 N 184.763 -0.387143 -1.52771 0
M  V30 1928 C 185.693 0.440551 -2.29306 0
M  V30 1929 C 186.674 1.06535 -1.32606 0
M  V30 1930 O 187.859 1.07853 -1.61497 0
M  V30 1931 C 184.989 1.56919 -3.09829 0
M  V30 1932 C 183.943 1.07054 -4.14395 0
M  V30 1933 C 183.269 2.29109 -4.83129 0
M  V30 1934 C 184.569 0.140015 -5.22112 0
M  V30 1935 H 186.263 -0.198026 -2.98744 0
M  V30 1936 H 183.809 -0.09668 -1.43675 0
M  V30 1937 H 185.762 2.15503 -3.62128 0
M  V30 1938 H 184.486 2.23532 -2.3812 0
M  V30 1939 H 183.145 0.507247 -3.63074 0
M  V30 1940 H 182.793 2.94227 -4.0797 0
M  V30 1941 H 182.493 1.96406 -5.53804 0
M  V30 1942 H 184.017 2.88339 -5.38231 0
M  V30 1943 H 185.431 0.633978 -5.69784 0
M  V30 1944 H 183.828 -0.0971485 -6.00021 0
M  V30 1945 H 184.898 -0.811711 -4.78058 0
M  V30 1946 N 186.241 1.57166 -0.116904 0
M  V30 1947 C 187.204 2.14039 0.819742 0
M  V30 1948 C 188.204 1.07477 1.19605 0
M  V30 1949 O 189.394 1.33263 1.1219 0
M  V30 1950 C 186.526 2.67891 2.10826 0
M  V30 1951 H 187.719 2.98128 0.325511 0
M  V30 1952 H 185.272 1.55739 0.132312 0
M  V30 1953 H 186.007 1.87384 2.64685 0
M  V30 1954 H 185.792 3.45823 1.84793 0
M  V30 1955 H 187.282 3.11809 2.77785 0
M  V30 1956 N 187.719 -0.156864 1.56817 0
M  V30 1957 C 188.966 -0.871125 1.82805 0
M  V30 1958 C 189.294 -1.81611 0.696262 0
M  V30 1959 O 188.549 -1.93141 -0.315459 0
M  V30 1960 C 188.848 -1.68737 3.1506 0
M  V30 1961 C 188.514 -0.890045 4.42028 0
M  V30 1962 C 187.176 -0.670042 4.76512 0
M  V30 1963 C 189.528 -0.331769 5.20143 0
M  V30 1964 C 186.856 0.119104 5.86579 0
M  V30 1965 C 189.208 0.444365 6.31037 0
M  V30 1966 C 187.872 0.675035 6.64078 0
M  V30 1967 H 187.142 -0.318767 0.668931 0
M  V30 1968 H 189.789 -0.135274 1.91022 0
M  V30 1969 H 188.094 -2.49304 3.0225 0
M  V30 1970 H 189.791 -2.24331 3.3238 0
M  V30 1971 H 186.381 -1.07157 4.14988 0
M  V30 1972 H 190.565 -0.489043 4.93885 0
M  V30 1973 H 185.821 0.307417 6.10627 0
M  V30 1974 H 189.995 0.884139 6.90765 0
M  V30 1975 H 187.622 1.28839 7.49203 0
M  V30 1976 N 189.197 -1.51736 -0.425897 0
M  V30 1977 C 190.145 -1.74464 -1.53834 0
M  V30 1978 C 191.139 -0.611241 -1.57988 0
M  V30 1979 O 192.345 -0.792899 -1.61596 0
M  V30 1980 H 188.72 -0.551437 -0.511293 0
M  V30 1981 H 190.691 -2.67694 -1.31843 0
M  V30 1982 C 189.44 -1.8972 -2.91379 0
M  V30 1983 H 188.763 -2.76344 -2.88919 0
M  V30 1984 H 190.203 -2.09629 -3.68553 0
M  V30 1985 C 188.662 -0.65992 -3.30374 0
M  V30 1986 O 189.192 0.180083 -4.01296 0
M  V30 1987 N 187.398 -0.500677 -2.86254 0
M  V30 1988 H 186.945 -1.18532 -2.28709 0
M  V30 1989 H 186.903 0.325903 -3.12706 0
M  V30 1990 N 190.675 0.682077 -1.42076 0
M  V30 1991 C 191.9 1.47558 -1.45744 0
M  V30 1992 C 192.325 1.87977 -0.0680981 0
M  V30 1993 O 191.683 1.55522 0.9318 0
M  V30 1994 C 191.731 2.70575 -2.38373 0
M  V30 1995 O 190.835 3.68573 -1.85007 0
M  V30 1996 H 190.176 0.443585 -0.494093 0
M  V30 1997 H 192.706 0.837238 -1.86686 0
M  V30 1998 H 192.716 3.18729 -2.54707 0
M  V30 1999 H 191.391 2.40495 -3.39315 0
M  V30 2000 H 189.968 3.2757 -1.78192 0
M  V30 2001 N 192.153 1.28127 0.917671 0
M  V30 2002 C 193.116 1.11744 2.00115 0
M  V30 2003 C 194.116 0.0583052 1.60694 0
M  V30 2004 O 195.306 0.303755 1.71531 0
M  V30 2005 C 192.438 0.704862 3.33533 0
M  V30 2006 H 193.631 2.07966 2.16079 0
M  V30 2007 H 191.184 1.11058 1.09981 0
M  V30 2008 H 191.919 -0.258299 3.2327 0
M  V30 2009 H 191.704 1.4699 3.63505 0
M  V30 2010 H 193.194 0.612768 4.1308 0
M  V30 2011 N 193.631 -1.12557 1.10312 0
M  V30 2012 C 194.88 -1.83395 0.839588 0
M  V30 2013 C 195.193 -1.84939 -0.636929 0
M  V30 2014 O 196.399 -2.51761 -1.01631 0
M  V30 2015 C 194.855 -3.29303 1.45215 0
M  V30 2016 C 194.463 -3.36122 2.96186 0
M  V30 2017 C 196.207 -4.05121 1.26796 0
M  V30 2018 C 194.114 -4.76357 3.50483 0
M  V30 2019 H 193.044 -0.687133 0.310425 0
M  V30 2020 H 195.695 -1.26746 1.32694 0
M  V30 2021 H 194.077 -3.85812 0.892469 0
M  V30 2022 H 195.251 -2.89559 3.58458 0
M  V30 2023 H 193.566 -2.73776 3.13745 0
M  V30 2024 H 196.163 -5.08668 1.64806 0
M  V30 2025 H 196.506 -4.15773 0.209409 0
M  V30 2026 H 197.039 -3.54967 1.79563 0
M  V30 2027 H 193.778 -4.70899 4.55998 0
M  V30 2028 H 193.298 -5.23377 2.92978 0
M  V30 2029 H 194.977 -5.45294 3.48228 0
M  V30 2030 N 195.109 -0.891671 -1.2995 0
M  V30 2031 C 196.334 -0.527932 -2.00568 0
M  V30 2032 C 196.759 0.877969 -1.66353 0
M  V30 2033 O 196.117 1.58301 -0.883762 0
M  V30 2034 C 196.165 -0.717745 -3.53385 0
M  V30 2035 O 195.269 0.233376 -4.11739 0
M  V30 2036 H 194.61 -0.20722 -0.630837 0
M  V30 2037 H 197.14 -1.20105 -1.65638 0
M  V30 2038 H 197.15 -0.619307 -4.03272 0
M  V30 2039 H 195.825 -1.74276 -3.77625 0
M  V30 2040 H 194.402 0.0880706 -3.72796 0
M  V30 2041 N 196.587 1.43421 -0.653314 0
M  V30 2042 C 197.517 2.33487 0.0246656 0
M  V30 2043 C 198.498 1.49475 0.811863 0
M  V30 2044 O 199.683 1.78139 0.773322 0
M  V30 2045 C 196.813 3.32841 0.99166 0
M  V30 2046 C 195.767 4.26842 0.314568 0
M  V30 2047 C 195.093 5.16236 1.39302 0
M  V30 2048 C 196.393 5.16243 -0.793095 0
M  V30 2049 H 198.087 2.90427 -0.727481 0
M  V30 2050 H 195.633 1.39649 -0.351287 0
M  V30 2051 H 197.586 3.94747 1.47487 0
M  V30 2052 H 196.31 2.74158 1.77497 0
M  V30 2053 H 194.969 3.663 -0.148199 0
M  V30 2054 H 194.617 4.53891 2.16776 0
M  V30 2055 H 194.317 5.79948 0.945223 0
M  V30 2056 H 195.841 5.81015 1.87759 0
M  V30 2057 H 197.255 5.71958 -0.392039 0
M  V30 2058 H 195.652 5.88676 -1.16536 0
M  V30 2059 H 196.722 4.55927 -1.65103 0
M  V30 2060 N 198.065 0.39524 1.52563 0
M  V30 2061 C 199.476 -0.0774719 1.86539 0
M  V30 2062 C 199.827 -1.45641 1.31466 0
M  V30 2063 O 198.952 -2.06459 0.648367 0
M  V30 2064 C 199.547 -0.147356 3.38479 0
M  V30 2065 C 198.106 -0.564373 3.72145 0
M  V30 2066 C 197.253 0.269919 2.75983 0
M  V30 2067 H 200.204 0.612876 1.46388 0
M  V30 2068 H 200.225 -0.965343 3.68051 0
M  V30 2069 H 199.737 0.856387 3.78534 0
M  V30 2070 H 197.838 -1.57527 3.37663 0
M  V30 2071 H 197.951 -0.318402 4.78041 0
M  V30 2072 H 196.315 -0.265696 2.5331 0
M  V30 2073 H 197.098 1.27175 3.18875 0
M  V30 2074 N 199.544 -1.57102 0.125237 0
M  V30 2075 C 200.792 -1.95021 -0.530198 0
M  V30 2076 C 201.113 -1.00982 -1.66816 0
M  V30 2077 O 200.383 -0.0672693 -1.95784 0
M  V30 2078 H 198.963 -0.720046 -0.198853 0
M  V30 2079 H 201.625 -1.93916 0.19564 0
M  V30 2080 H 200.721 -2.98211 -0.920681 0
M  V30 2081 N 201.022 0.148545 -1.56898 0
M  V30 2082 C 202.433 0.708766 -1.72723 0
M  V30 2083 C 202.784 1.81734 -0.739395 0
M  V30 2084 O 201.909 2.16194 0.0943169 0
M  V30 2085 C 202.504 1.29245 -3.13179 0
M  V30 2086 C 201.063 1.79925 -3.30611 0
M  V30 2087 C 200.21 0.687111 -2.68652 0
M  V30 2088 H 203.161 -0.0771063 -1.58513 0
M  V30 2089 H 203.182 2.16224 -3.13093 0
M  V30 2090 H 202.694 0.485382 -3.85053 0
M  V30 2091 H 200.795 2.63203 -2.63732 0
M  V30 2092 H 200.908 1.92903 -4.38549 0
M  V30 2093 H 199.272 1.11335 -2.29078 0
M  V30 2094 H 200.055 -0.108483 -3.43129 0
M  V30 2095 N 202.5 1.5196 0.417844 0
M  V30 2096 C 203.916 1.40569 0.755816 0
M  V30 2097 C 204.116 0.503316 1.95113 0
M  V30 2098 O 203.172 -0.0341925 2.52477 0
M  V30 2099 C 204.485 2.82947 1.01791 0
M  V30 2100 C 206.033 2.92231 1.12116 0
M  V30 2101 C 206.508 4.35559 1.41608 0
M  V30 2102 N 207.999 4.38753 1.48491 0
M  V30 2103 C 208.734 5.46705 1.7292 0
M  V30 2104 N 208.23 6.64788 1.95011 0
M  V30 2105 N 210.023 5.34209 1.74863 0
M  V30 2106 H 202.174 2.09168 -0.369098 0
M  V30 2107 H 204.437 0.942409 -0.102809 0
M  V30 2108 H 204.143 3.5106 0.212081 0
M  V30 2109 H 204.017 3.23462 1.94042 0
M  V30 2110 H 206.404 2.24304 1.9176 0
M  V30 2111 H 206.485 2.55185 0.177225 0
M  V30 2112 H 206.129 5.04042 0.624848 0
M  V30 2113 H 206.059 4.70133 2.37239 0
M  V30 2114 H 208.55 3.5363 1.33244 0
M  V30 2115 H 208.863 7.42845 2.13076 0
M  V30 2116 H 207.208 6.67869 1.92293 0
M  V30 2117 H 210.399 4.40937 1.57137 0
M  V30 2118 H 210.572 6.18415 1.93563 0
M  V30 2119 N 203.978 -0.674533 1.42435 0
M  V30 2120 C 204.925 -1.78807 1.45934 0
M  V30 2121 C 205.895 -1.63157 0.311271 0
M  V30 2122 O 207.08 -1.83707 0.515383 0
M  V30 2123 C 204.22 -3.16839 1.36773 0
M  V30 2124 C 203.333 -3.43774 2.61617 0
M  V30 2125 C 202.468 -4.71536 2.44597 0
M  V30 2126 C 201.507 -4.91505 3.64814 0
M  V30 2127 N 200.644 -6.10508 3.46734 0
M  V30 2128 H 205.484 -1.75151 2.41093 0
M  V30 2129 H 203.021 -0.85504 1.19697 0
M  V30 2130 H 204.979 -3.96606 1.29459 0
M  V30 2131 H 203.609 -3.19619 0.452089 0
M  V30 2132 H 202.661 -2.58259 2.79297 0
M  V30 2133 H 203.973 -3.54423 3.50978 0
M  V30 2134 H 203.127 -5.59393 2.3487 0
M  V30 2135 H 201.866 -4.6317 1.52726 0
M  V30 2136 H 200.871 -4.0209 3.74972 0
M  V30 2137 H 202.096 -5.01716 4.57665 0
M  V30 2138 H 200.042 -6.03315 2.5758 0
M  V30 2139 H 199.959 -6.2202 4.29682 0
M  V30 2140 H 201.227 -7.01044 3.40819 0
M  V30 2141 N 205.456 -1.28612 -0.910864 0
M  V30 2142 C 206.867 -1.14406 -1.47541 0
M  V30 2143 C 207.218 0.264901 -1.94403 0
M  V30 2144 O 206.343 1.15942 -1.82719 0
M  V30 2145 C 206.938 -2.07073 -2.68153 0
M  V30 2146 C 205.497 -1.96923 -3.20778 0
M  V30 2147 C 204.644 -1.98646 -1.93481 0
M  V30 2148 H 207.595 -1.41259 -0.723291 0
M  V30 2149 H 207.616 -1.63642 -3.43514 0
M  V30 2150 H 207.128 -3.09611 -2.34015 0
M  V30 2151 H 205.229 -0.97433 -3.59635 0
M  V30 2152 H 205.342 -2.84026 -3.85832 0
M  V30 2153 H 203.706 -1.43093 -2.10705 0
M  V30 2154 H 204.489 -3.02868 -1.61634 0
M  V30 2155 N 206.934 1.1197 -1.10907 0
M  V30 2156 C 207.864 2.19928 -0.784473 0
M  V30 2157 C 208.845 1.6833 0.244726 0
M  V30 2158 O 210.03 1.93892 0.109418 0
M  V30 2159 C 207.16 3.46597 -0.220827 0
M  V30 2160 C 206.114 4.11376 -1.18127 0
M  V30 2161 C 205.44 5.32554 -0.478594 0
M  V30 2162 C 206.74 4.56945 -2.52979 0
M  V30 2163 H 208.434 2.47337 -1.68715 0
M  V30 2164 H 205.98 1.18879 -0.812642 0
M  V30 2165 H 207.933 4.21396 0.0184278 0
M  V30 2166 H 206.657 3.1863 0.717113 0
M  V30 2167 H 205.316 3.38564 -1.40606 0
M  V30 2168 H 204.964 5.00856 0.463976 0
M  V30 2169 H 204.664 5.76844 -1.11912 0
M  V30 2170 H 206.188 6.10096 -0.248 0
M  V30 2171 H 207.602 5.23093 -2.3462 0
M  V30 2172 H 205.999 5.1203 -3.12962 0
M  V30 2173 H 207.069 3.70676 -3.12614 0
M  V30 2174 N 208.412 0.89855 1.29475 0
M  V30 2175 C 209.658 0.524658 1.95896 0
M  V30 2176 C 209.991 -0.926468 1.70676 0
M  V30 2177 O 209.266 -1.65665 1.01908 0
M  V30 2178 C 209.549 0.81633 3.50725 0
M  V30 2179 C 209.402 2.31907 3.85408 0
M  V30 2180 C 210.721 0.302038 4.39062 0
M  V30 2181 H 207.84 0.19209 0.711527 0
M  V30 2182 H 210.482 1.12502 1.53112 0
M  V30 2183 H 208.632 0.305369 3.87298 0
M  V30 2184 H 210.304 2.89949 3.58786 0
M  V30 2185 H 208.547 2.78027 3.32992 0
M  V30 2186 H 209.218 2.47373 4.93468 0
M  V30 2187 H 211.694 0.739551 4.09475 0
M  V30 2188 H 210.57 0.535331 5.46283 0
M  V30 2189 H 210.831 -0.797216 4.34853 0
M  V30 2190 N 209.89 -1.43072 0.660911 0
M  V30 2191 C 211.301 -1.84932 0.256348 0
M  V30 2192 C 211.652 -1.55325 -1.19868 0
M  V30 2193 O 210.777 -1.00607 -1.91591 0
M  V30 2194 C 211.372 -3.35684 0.458475 0
M  V30 2195 C 209.931 -3.76245 0.108161 0
M  V30 2196 C 209.078 -2.66749 0.757641 0
M  V30 2197 H 212.029 -1.33116 0.864051 0
M  V30 2198 H 212.05 -3.79365 -0.293683 0
M  V30 2199 H 211.562 -3.572 1.51755 0
M  V30 2200 H 209.663 -3.60338 -0.948014 0
M  V30 2201 H 209.776 -4.76058 0.538992 0
M  V30 2202 H 208.14 -2.53989 0.190185 0
M  V30 2203 H 208.923 -2.91092 1.81989 0
M  V30 2204 N 211.368 -0.403325 -1.52352 0
M  V30 2205 C 212.298 0.416205 -2.29761 0
M  V30 2206 C 213.279 1.05123 -1.33728 0
M  V30 2207 O 214.464 1.06134 -1.62632 0
M  V30 2208 C 211.594 1.53624 -3.11475 0
M  V30 2209 C 210.548 1.02653 -4.15507 0
M  V30 2210 C 209.874 2.23971 -4.85532 0
M  V30 2211 C 211.174 0.08463 -5.22231 0
M  V30 2212 H 212.868 -0.229701 -2.98518 0
M  V30 2213 H 210.414 -0.111913 -1.43564 0
M  V30 2214 H 212.367 2.1165 -3.64393 0
M  V30 2215 H 211.091 2.20994 -2.40477 0
M  V30 2216 H 209.75 0.46871 -3.63591 0
M  V30 2217 H 209.398 2.89883 -4.11068 0
M  V30 2218 H 209.098 1.90521 -5.55856 0
M  V30 2219 H 210.622 2.82614 -5.41259 0
M  V30 2220 H 212.036 0.573509 -5.70424 0
M  V30 2221 H 210.433 -0.160783 -5.99885 0
M  V30 2222 H 211.503 -0.86237 -4.7717 0
M  V30 2223 N 212.846 1.57033 -0.133567 0
M  V30 2224 C 214.123 1.87256 0.56522 0
M  V30 2225 C 214.503 1.03726 1.83859 0
M  V30 2226 O 213.851 0.120247 2.28183 0
M  V30 2227 C 214.061 3.3865 0.843636 0
M  V30 2228 C 215.409 4.07574 1.19032 0
M  V30 2229 O 216.433 3.43752 0.933429 0
M  V30 2230 O 215.292 5.20259 1.67312 0
M  V30 2231 H 212.386 0.775678 0.286796 0
M  V30 2232 H 214.932 1.68855 -0.169168 0
M  V30 2233 H 213.704 3.91257 -0.0581149 0
M  V30 2234 H 213.327 3.62532 1.63268 0
M  V30 2235 N 214.325 -0.140222 1.56975 0
M  V30 2236 C 215.555 -0.865181 1.87612 0
M  V30 2237 C 215.963 -1.74942 0.72055 0
M  V30 2238 O 215.306 -1.80917 -0.318561 0
M  V30 2239 C 215.368 -1.76782 3.13031 0
M  V30 2240 C 215.032 -1.06005 4.44536 0
M  V30 2241 C 216.029 -0.410768 5.18275 0
M  V30 2242 C 213.714 -1.04754 4.91255 0
M  V30 2243 C 215.708 0.241572 6.36942 0
M  V30 2244 C 213.395 -0.391394 6.09845 0
M  V30 2245 C 214.393 0.252029 6.82535 0
M  V30 2246 O 214.081 0.897757 7.98871 0
M  V30 2247 H 213.813 -0.255188 0.625983 0
M  V30 2248 H 216.367 -0.135653 2.04952 0
M  V30 2249 H 214.597 -2.53846 2.91718 0
M  V30 2250 H 216.286 -2.36533 3.29859 0
M  V30 2251 H 217.052 -0.412195 4.83245 0
M  V30 2252 H 212.931 -1.53777 4.34596 0
M  V30 2253 H 216.475 0.744375 6.93617 0
M  V30 2254 H 212.372 -0.387656 6.44335 0
M  V30 2255 H 213.14 0.800102 8.1458 0
M  V30 2256 N 215.803 -1.52179 -0.40978 0
M  V30 2257 C 217.214 -1.58377 -0.988615 0
M  V30 2258 C 217.565 -0.423879 -1.91566 0
M  V30 2259 O 216.69 0.455844 -2.11544 0
M  V30 2260 C 217.285 -2.87044 -1.79976 0
M  V30 2261 C 215.844 -2.95722 -2.32863 0
M  V30 2262 C 214.991 -2.53309 -1.12828 0
M  V30 2263 H 217.942 -1.57558 -0.190039 0
M  V30 2264 H 217.963 -2.7236 -2.65707 0
M  V30 2265 H 217.475 -3.71444 -1.12478 0
M  V30 2266 H 215.576 -2.15814 -3.03735 0
M  V30 2267 H 215.689 -3.99951 -2.63773 0
M  V30 2268 H 214.053 -2.07142 -1.48204 0
M  V30 2269 H 214.836 -3.40082 -0.46897 0
M  V30 2270 N 217.281 0.66697 -1.42791 0
M  V30 2271 C 218.214 1.79177 -1.41318 0
M  V30 2272 C 219.192 1.60234 -0.276401 0
M  V30 2273 O 220.376 1.82602 -0.46785 0
M  V30 2274 C 217.503 3.16289 -1.21157 0
M  V30 2275 C 216.549 3.53964 -2.37932 0
M  V30 2276 S 217.382 3.55501 -4.00474 0
M  V30 2277 C 218.538 4.95292 -3.8267 0
M  V30 2278 H 218.771 1.80153 -2.365 0
M  V30 2279 H 216.304 0.838357 -1.29657 0
M  V30 2280 H 218.262 3.95428 -1.10212 0
M  V30 2281 H 216.923 3.1289 -0.275481 0
M  V30 2282 H 216.116 4.53646 -2.19594 0
M  V30 2283 H 215.718 2.82204 -2.45432 0
M  V30 2284 H 218.01 5.83584 -3.44145 0
M  V30 2285 H 218.953 5.18679 -4.82055 0
M  V30 2286 H 219.361 4.68179 -3.15386 0
M  V30 2287 N 218.759 1.29093 0.90403 0
M  V30 2288 C 220.036 1.075 1.63411 0
M  V30 2289 C 220.416 -0.382346 2.07609 0
M  V30 2290 O 219.764 -1.37031 1.82851 0
M  V30 2291 C 219.974 2.05858 2.81822 0
M  V30 2292 C 221.322 2.36539 3.52611 0
M  V30 2293 O 222.346 2.04019 2.91984 0
M  V30 2294 O 221.205 2.92085 4.61897 0
M  V30 2295 H 218.299 0.411547 0.717327 0
M  V30 2296 H 220.845 1.40449 0.952479 0
M  V30 2297 H 219.617 3.04037 2.46327 0
M  V30 2298 H 219.24 1.73613 3.57693 0
M  V30 2299 N 220.237 -1.11381 1.11499 0
M  V30 2300 C 221.485 -1.8277 0.862524 0
M  V30 2301 C 221.806 -1.85097 -0.613534 0
M  V30 2302 O 221.076 -1.32198 -1.4457 0
M  V30 2303 H 219.656 -0.676823 0.316101 0
M  V30 2304 H 222.318 -1.34816 1.4075 0
M  V30 2305 H 221.414 -2.86614 1.23527 0
M  V30 2306 N 221.715 -0.905404 -1.28997 0
M  V30 2307 C 222.94 -0.549175 -1.99997 0
M  V30 2308 C 223.365 0.860276 -1.67275 0
M  V30 2309 O 222.723 1.57355 -0.900502 0
M  V30 2310 C 222.771 -0.755185 -3.52604 0
M  V30 2311 O 221.875 0.189692 -4.11964 0
M  V30 2312 H 221.216 -0.213899 -0.628604 0
M  V30 2313 H 223.746 -1.21856 -1.64354 0
M  V30 2314 H 223.756 -0.662045 -4.02593 0
M  V30 2315 H 222.431 -1.78271 -3.75755 0
M  V30 2316 H 221.008 0.0485257 -3.72868 0
M  V30 2317 N 223.193 1.4272 -0.668489 0
M  V30 2318 C 224.44 2.01624 -0.18814 0
M  V30 2319 C 224.768 1.5282 1.20317 0
M  V30 2320 O 224.023 0.718323 1.8204 0
M  V30 2321 C 224.322 3.57021 -0.164499 0
M  V30 2322 C 223.988 4.25232 -1.49962 0
M  V30 2323 C 222.65 4.4358 -1.8652 0
M  V30 2324 C 225.002 4.63727 -2.37921 0
M  V30 2325 C 222.33 4.97694 -3.10674 0
M  V30 2326 C 224.682 5.19218 -3.6138 0
M  V30 2327 C 223.346 5.3578 -3.98115 0
M  V30 2328 H 222.616 0.737795 -0.0688454 0
M  V30 2329 H 225.263 1.70991 -0.862225 0
M  V30 2330 H 223.568 3.87285 0.593079 0
M  V30 2331 H 225.265 4.00372 0.224271 0
M  V30 2332 H 221.855 4.11306 -1.20522 0
M  V30 2333 H 226.039 4.4923 -2.10964 0
M  V30 2334 H 221.295 5.08702 -3.39164 0
M  V30 2335 H 225.469 5.4799 -4.29743 0
M  V30 2336 H 223.096 5.77475 -4.94395 0
M  V30 2337 N 224.671 0.411399 1.52136 0
M  V30 2338 C 225.581 -0.419774 2.30814 0
M  V30 2339 C 226.597 -1.0515 1.38634 0
M  V30 2340 O 227.773 -1.05252 1.71709 0
M  V30 2341 C 224.838 -1.52019 3.11594 0
M  V30 2342 C 223.899 -0.91129 4.19516 0
M  V30 2343 C 223.132 -1.95927 4.96436 0
M  V30 2344 O 223.355 -3.17775 4.73683 0
M  V30 2345 O 222.289 -1.56423 5.81219 0
M  V30 2346 H 226.115 0.221805 3.02889 0
M  V30 2347 H 223.7 0.174547 1.48377 0
M  V30 2348 H 225.582 -2.15898 3.61892 0
M  V30 2349 H 224.257 -2.14633 2.42311 0
M  V30 2350 H 223.164 -0.235157 3.7336 0
M  V30 2351 H 224.497 -0.32904 4.91099 0
M  V30 2352 N 226.149 -1.5696 0.141893 0
M  V30 2353 C 227.374 -2.00754 -0.520838 0
M  V30 2354 C 227.799 -1.0213 -1.57959 0
M  V30 2355 O 227.157 0.00371324 -1.813 0
M  V30 2356 C 227.205 -3.43318 -1.10294 0
M  V30 2357 O 226.309 -3.47679 -2.21795 0
M  V30 2358 H 225.65 -0.651564 -0.127908 0
M  V30 2359 H 228.18 -2.03221 0.23712 0
M  V30 2360 H 228.19 -3.82012 -1.43287 0
M  V30 2361 H 226.865 -4.14608 -0.327574 0
M  V30 2362 H 225.442 -3.20824 -1.9007 0
M  V30 2363 N 227.627 0.131896 -1.57047 0
M  V30 2364 C 229.038 0.690407 -1.73465 0
M  V30 2365 C 229.389 1.8094 -0.758629 0
M  V30 2366 O 228.514 2.16282 0.0713813 0
M  V30 2367 C 229.109 1.25916 -3.14532 0
M  V30 2368 C 227.668 1.76409 -3.32501 0
M  V30 2369 C 226.815 0.658579 -2.69366 0
M  V30 2370 H 229.766 -0.0939144 -1.58422 0
M  V30 2371 H 229.787 2.12892 -3.15369 0
M  V30 2372 H 229.299 0.444515 -3.85546 0
M  V30 2373 H 227.4 2.60391 -2.66509 0
M  V30 2374 H 227.513 1.88241 -4.4057 0
M  V30 2375 H 225.877 1.08899 -2.30246 0
M  V30 2376 H 226.66 -0.14487 -3.42994 0
M  V30 2377 N 229.106 1.52395 0.401703 0
M  V30 2378 C 230.056 1.72649 1.48917 0
M  V30 2379 C 231.04 0.580436 1.50066 0
M  V30 2380 O 232.232 0.83779 1.55917 0
M  V30 2381 C 229.361 1.88729 2.86769 0
M  V30 2382 C 228.447 3.09228 2.90239 0
M  V30 2383 N 228.838 4.31805 2.63396 0
M  V30 2384 C 227.136 3.09214 3.21408 0
M  V30 2385 C 227.837 5.13326 2.73625 0
M  V30 2386 N 226.813 4.48735 3.06819 0
M  V30 2387 H 230.615 2.65058 1.26971 0
M  V30 2388 H 228.129 1.50528 0.609504 0
M  V30 2389 H 230.126 2.01358 3.65049 0
M  V30 2390 H 228.786 0.975252 3.09708 0
M  V30 2391 H 229.797 4.60154 2.37653 0
M  V30 2392 H 226.474 2.27774 3.49893 0
M  V30 2393 H 227.864 6.21003 2.56524 0
M  V30 2394 N 230.584 -0.659388 1.43143 0
M  V30 2395 C 231.812 -1.44723 1.47861 0
M  V30 2396 C 232.227 -1.88563 0.0945886 0
M  V30 2397 O 231.584 -1.59108 -0.893915 0
M  V30 2398 C 231.635 -2.68627 2.41913 0
M  V30 2399 O 231.356 -2.26623 3.74932 0
M  V30 2400 C 232.857 -3.62045 2.55809 0
M  V30 2401 H 230.077 -0.444801 0.502387 0
M  V30 2402 H 232.621 -0.808916 1.87821 0
M  V30 2403 H 230.776 -3.28613 2.05164 0
M  V30 2404 H 231.19 -3.06745 4.2545 0
M  V30 2405 H 232.664 -4.45666 3.25708 0
M  V30 2406 H 233.141 -4.08981 1.60099 0
M  V30 2407 H 233.747 -3.07944 2.93344 0
M  V30 2408 N 232.062 -1.29571 -0.897171 0
M  V30 2409 C 232.995 -1.0924 -2.00354 0
M  V30 2410 C 233.973 -0.00354011 -1.626 0
M  V30 2411 O 235.157 -0.15473 -1.87864 0
M  V30 2412 C 232.284 -0.66352 -3.32137 0
M  V30 2413 C 231.33 -1.75146 -3.88878 0
M  V30 2414 S 232.163 -3.35124 -4.17674 0
M  V30 2415 C 233.319 -2.9411 -5.52494 0
M  V30 2416 H 233.552 -2.02907 -2.17292 0
M  V30 2417 H 231.085 -1.13746 -1.04408 0
M  V30 2418 H 233.043 -0.422791 -4.08317 0
M  V30 2419 H 231.704 0.253588 -3.13075 0
M  V30 2420 H 230.897 -1.40337 -4.84068 0
M  V30 2421 H 230.499 -1.94584 -3.19395 0
M  V30 2422 H 232.791 -2.41312 -6.33068 0
M  V30 2423 H 233.734 -3.88161 -5.9223 0
M  V30 2424 H 234.142 -2.32332 -5.14473 0
M  V30 2425 N 233.54 1.10788 -1.12088 0
M  V30 2426 C 234.817 1.79136 -0.785476 0
M  V30 2427 C 235.197 1.98246 0.725377 0
M  V30 2428 O 234.545 1.57258 1.65778 0
M  V30 2429 C 234.755 3.12375 -1.55636 0
M  V30 2430 C 236.103 3.8731 -1.74001 0
M  V30 2431 O 237.127 3.22085 -1.52117 0
M  V30 2432 O 235.986 5.04369 -2.10415 0
M  V30 2433 H 233.08 0.776226 -0.285311 0
M  V30 2434 H 235.626 1.1747 -1.2247 0
M  V30 2435 H 234.398 2.93863 -2.5838 0
M  V30 2436 H 234.021 3.81758 -1.11114 0
M  V30 2437 N 235.018 0.912232 1.28515 0
M  V30 2438 C 235.951 0.343928 2.25593 0
M  V30 2439 C 236.929 -0.550994 1.5298 0
M  V30 2440 O 238.113 -0.494991 1.81885 0
M  V30 2441 C 235.24 -0.508525 3.34861 0
M  V30 2442 C 234.286 0.320808 4.25292 0
M  V30 2443 S 235.119 1.72658 5.06902 0
M  V30 2444 C 236.275 0.881394 6.19663 0
M  V30 2445 H 236.508 1.16674 2.73449 0
M  V30 2446 H 234.041 0.713384 1.36931 0
M  V30 2447 H 235.999 -0.994539 3.9827 0
M  V30 2448 H 234.66 -1.30571 2.85675 0
M  V30 2449 H 233.853 -0.330941 5.02912 0
M  V30 2450 H 233.455 0.74042 3.66598 0
M  V30 2451 H 235.747 0.110359 6.7741 0
M  V30 2452 H 236.69 1.63009 6.89082 0
M  V30 2453 H 237.098 0.430239 5.62858 0
M  V30 2454 N 236.496 -1.42363 0.676048 0
M  V30 2455 C 237.721 -2.06377 0.205705 0
M  V30 2456 C 238.146 -1.50463 -1.12883 0
M  V30 2457 O 237.504 -0.623619 -1.70237 0
M  V30 2458 C 237.552 -3.60277 0.152655 0
M  V30 2459 O 236.656 -4.02935 -0.87845 0
M  V30 2460 H 235.997 -0.655588 0.105359 0
M  V30 2461 H 238.527 -1.82475 0.925412 0
M  V30 2462 H 238.537 -4.07993 -0.0230675 0
M  V30 2463 H 237.212 -4.00346 1.12675 0
M  V30 2464 H 235.789 -3.66764 -0.673668 0
M  V30 2465 N 237.974 -0.419461 -1.51915 0
M  V30 2466 C 239.223 0.154346 -2.01109 0
M  V30 2467 C 239.536 1.45338 -1.30905 0
M  V30 2468 O 240.742 2.10906 -1.7097 0
M  V30 2469 C 239.198 0.325615 -3.58424 0
M  V30 2470 C 238.806 -0.961934 -4.37551 0
M  V30 2471 C 240.55 0.854155 -4.15818 0
M  V30 2472 C 238.457 -0.757287 -5.86531 0
M  V30 2473 H 237.387 0.0614563 -0.751491 0
M  V30 2474 H 240.038 -0.54649 -1.75173 0
M  V30 2475 H 238.42 1.08903 -3.80731 0
M  V30 2476 H 239.594 -1.7323 -4.26999 0
M  V30 2477 H 237.909 -1.41766 -3.91524 0
M  V30 2478 H 240.506 1.02346 -5.24814 0
M  V30 2479 H 240.849 1.83172 -3.73837 0
M  V30 2480 H 241.382 0.149528 -3.97519 0
M  V30 2481 H 238.121 -1.70671 -6.32892 0
M  V30 2482 H 237.641 -0.0264061 -5.99794 0
M  V30 2483 H 239.32 -0.403482 -6.45741 0
M  V30 2484 N 239.452 1.56882 -0.150215 0
M  V30 2485 C 240.701 1.95403 0.500071 0
M  V30 2486 C 241.014 1.03777 1.658 0
M  V30 2487 O 242.22 1.31889 2.37313 0
M  V30 2488 C 240.676 3.4738 0.941018 0
M  V30 2489 C 240.284 4.47596 -0.190158 0
M  V30 2490 C 242.028 3.9476 1.56091 0
M  V30 2491 C 239.935 5.90787 0.269237 0
M  V30 2492 H 238.865 0.729515 0.190588 0
M  V30 2493 H 241.516 1.81988 -0.235074 0
M  V30 2494 H 239.898 3.56138 1.73152 0
M  V30 2495 H 241.072 4.50536 -0.967157 0
M  V30 2496 H 239.387 4.10151 -0.718666 0
M  V30 2497 H 241.984 4.99181 1.9163 0
M  V30 2498 H 242.327 3.36494 2.45107 0
M  V30 2499 H 242.86 3.88932 0.835249 0
M  V30 2500 H 239.599 6.52879 -0.585621 0
M  V30 2501 H 239.119 5.912 1.01204 0
M  V30 2502 H 240.798 6.42979 0.720176 0
M  V30 2503 N 240.93 -0.123565 1.57115 0
M  V30 2504 C 241.86 -1.15309 2.03042 0
M  V30 2505 C 242.841 -1.43454 0.914061 0
M  V30 2506 O 244.026 -1.53973 1.18347 0
M  V30 2507 C 241.156 -2.48043 2.43089 0
M  V30 2508 C 240.11 -2.3437 3.58127 0
M  V30 2509 C 239.436 -3.72026 3.84059 0
M  V30 2510 C 240.736 -1.80804 4.90007 0
M  V30 2511 H 242.43 -0.771102 2.893 0
M  V30 2512 H 239.976 -0.369479 1.39179 0
M  V30 2513 H 241.929 -3.20311 2.73823 0
M  V30 2514 H 240.653 -2.88122 1.53796 0
M  V30 2515 H 239.312 -1.64551 3.27595 0
M  V30 2516 H 238.96 -4.09582 2.91979 0
M  V30 2517 H 238.66 -3.63732 4.6149 0
M  V30 2518 H 240.184 -4.45806 4.1724 0
M  V30 2519 H 241.598 -2.42886 5.19307 0
M  V30 2520 H 239.995 -1.83343 5.71407 0
M  V30 2521 H 241.065 -0.76528 4.78823 0
M  V30 2522 N 242.408 -1.52605 -0.393616 0
M  V30 2523 C 243.318 -1.79971 -1.50492 0
M  V30 2524 C 244.334 -0.686181 -1.59899 0
M  V30 2525 O 245.51 -0.973274 -1.76322 0
M  V30 2526 C 242.575 -1.95867 -2.86072 0
M  V30 2527 C 241.636 -3.19781 -2.86424 0
M  V30 2528 C 240.869 -3.34909 -4.15538 0
M  V30 2529 O 241.092 -2.54948 -5.10253 0
M  V30 2530 O 240.026 -4.28141 -4.23059 0
M  V30 2531 H 243.852 -2.74328 -1.30299 0
M  V30 2532 H 241.437 -1.3764 -0.581005 0
M  V30 2533 H 243.319 -2.08056 -3.66457 0
M  V30 2534 H 241.994 -1.04699 -3.063 0
M  V30 2535 H 240.901 -3.13038 -2.04837 0
M  V30 2536 H 242.234 -4.1078 -2.71147 0
M  V30 2537 N 243.887 0.651787 -1.4349 0
M  V30 2538 C 245.164 1.40909 -1.35661 0
M  V30 2539 C 245.544 2.11099 -0.00511733 0
M  V30 2540 O 244.892 2.04892 1.0115 0
M  V30 2541 C 245.102 2.3926 -2.54078 0
M  V30 2542 C 246.45 3.03217 -2.97228 0
M  V30 2543 O 247.474 2.49588 -2.54135 0
M  V30 2544 O 246.333 4.00455 -3.71885 0
M  V30 2545 H 243.427 0.629625 -0.536191 0
M  V30 2546 H 245.973 0.678575 -1.55542 0
M  V30 2547 H 244.745 1.86352 -3.44076 0
M  V30 2548 H 244.368 3.1976 -2.36303 0
M  V30 2549 N 245.365 1.30045 0.890287 0
M  V30 2550 C 246.275 1.17885 2.02831 0
M  V30 2551 C 247.291 0.0999609 1.73713 0
M  V30 2552 O 248.467 0.313867 1.98939 0
M  V30 2553 C 245.532 0.866079 3.35708 0
M  V30 2554 C 244.593 2.02979 3.78283 0
M  V30 2555 C 243.826 1.73184 5.0482 0
M  V30 2556 O 244.049 0.657237 5.66601 0
M  V30 2557 O 242.983 2.58267 5.43674 0
M  V30 2558 H 246.809 2.13474 2.16015 0
M  V30 2559 H 244.394 1.09587 1.01543 0
M  V30 2560 H 246.276 0.706623 4.15433 0
M  V30 2561 H 244.951 -0.0599443 3.23644 0
M  V30 2562 H 243.858 2.24454 2.99285 0
M  V30 2563 H 245.191 2.93734 3.94944 0
M  V30 2564 N 246.843 -1.10192 1.12674 0
M  V30 2565 C 247.79 -2.16606 0.796906 0
M  V30 2566 C 248.76 -1.64394 -0.237476 0
M  V30 2567 O 249.945 -1.90474 -0.111484 0
M  V30 2568 C 247.085 -3.44116 0.26043 0
M  V30 2569 C 246.198 -4.10268 1.35293 0
M  V30 2570 C 245.333 -5.25507 0.775621 0
M  V30 2571 C 244.372 -5.83567 1.84706 0
M  V30 2572 N 243.509 -6.90179 1.28829 0
M  V30 2573 H 248.349 -2.44163 1.70846 0
M  V30 2574 H 245.886 -1.19846 0.85295 0
M  V30 2575 H 247.844 -4.17143 -0.0686814 0
M  V30 2576 H 246.474 -3.16901 -0.614274 0
M  V30 2577 H 245.526 -3.35184 1.79877 0
M  V30 2578 H 246.838 -4.4946 2.16303 0
M  V30 2579 H 245.992 -6.05398 0.397327 0
M  V30 2580 H 244.731 -4.87656 -0.0656581 0
M  V30 2581 H 243.736 -5.02344 2.23452 0
M  V30 2582 H 244.961 -6.23482 2.69161 0
M  V30 2583 H 242.907 -6.54322 0.468881 0
M  V30 2584 H 242.824 -7.28097 2.03497 0
M  V30 2585 H 244.092 -7.73844 0.937311 0
M  V30 2586 N 248.321 -0.919034 -1.28029 0
M  V30 2587 C 249.732 -0.600735 -1.76771 0
M  V30 2588 C 250.083 0.884024 -1.75156 0
M  V30 2589 O 249.208 1.69163 -1.34956 0
M  V30 2590 C 249.803 -1.08372 -3.21 0
M  V30 2591 C 248.362 -0.816248 -3.67443 0
M  V30 2592 C 247.509 -1.24742 -2.47658 0
M  V30 2593 H 250.46 -1.09974 -1.14418 0
M  V30 2594 H 250.481 -0.427512 -3.78091 0
M  V30 2595 H 249.993 -2.16437 -3.22144 0
M  V30 2596 H 248.094 0.250968 -3.71754 0
M  V30 2597 H 248.207 -1.4277 -4.57333 0
M  V30 2598 H 246.571 -0.666083 -2.45836 0
M  V30 2599 H 247.354 -2.33653 -2.51518 0
M  V30 2600 N 249.799 1.42003 -0.683588 0
M  V30 2601 C 251.045 2.01712 -0.209825 0
M  V30 2602 C 251.378 1.53968 1.18353 0
M  V30 2603 O 250.653 0.745661 1.79639 0
M  V30 2604 C 250.936 3.59202 -0.254197 0
M  V30 2605 C 250.789 4.17102 -1.68363 0
M  V30 2606 C 252.108 4.38344 0.392709 0
M  V30 2607 H 249.227 0.732891 -0.0777189 0
M  V30 2608 H 251.869 1.68909 -0.87004 0
M  V30 2609 H 250.019 3.87278 0.307954 0
M  V30 2610 H 251.691 3.99946 -2.29871 0
M  V30 2611 H 249.934 3.72597 -2.22157 0
M  V30 2612 H 250.605 5.26249 -1.6663 0
M  V30 2613 H 253.081 4.16011 -0.0859162 0
M  V30 2614 H 251.957 5.47901 0.331063 0
M  V30 2615 H 252.218 4.16887 1.47164 0
M  V30 2616 N 251.277 0.427512 1.51691 0
M  V30 2617 C 252.502 -0.143601 2.06902 0
M  V30 2618 C 252.927 -1.36536 1.29382 0
M  V30 2619 O 252.285 -1.78289 0.329043 0
M  V30 2620 C 252.333 -0.454207 3.57728 0
M  V30 2621 O 251.437 -1.54228 3.82475 0
M  V30 2622 H 250.778 -0.00617128 0.663971 0
M  V30 2623 H 253.308 0.606014 1.95419 0
M  V30 2624 H 253.318 -0.707525 4.01818 0
M  V30 2625 H 251.993 0.438812 4.13579 0
M  V30 2626 H 250.57 -1.2797 3.50254 0
M  V30 2627 N 252.755 -1.56801 0.158532 0
M  V30 2628 C 254.001 -1.96781 -0.490405 0
M  V30 2629 C 254.334 -1.04397 -1.63753 0
M  V30 2630 O 253.609 -0.0885805 -1.94298 0
M  V30 2631 C 253.892 -3.4635 -0.985594 0
M  V30 2632 C 253.745 -4.49512 0.160824 0
M  V30 2633 C 255.064 -3.98697 -1.86355 0
M  V30 2634 H 252.183 -0.715482 -0.176788 0
M  V30 2635 H 254.825 -1.88451 0.242088 0
M  V30 2636 H 252.975 -3.53579 -1.60978 0
M  V30 2637 H 254.647 -4.54353 0.797537 0
M  V30 2638 H 252.89 -4.26013 0.818256 0
M  V30 2639 H 253.561 -5.51531 -0.227569 0
M  V30 2640 H 256.037 -3.94019 -1.33746 0
M  V30 2641 H 254.913 -5.03792 -2.17909 0
M  V30 2642 H 255.174 -3.41744 -2.8047 0
M  V30 2643 N 254.233 0.115231 -1.57178 0
M  V30 2644 C 255.181 1.16014 -2.01602 0
M  V30 2645 C 256.175 1.42653 -0.913587 0
M  V30 2646 O 257.381 1.42571 -1.09879 0
M  V30 2647 H 253.756 0.391252 -0.642204 0
M  V30 2648 H 255.727 0.758998 -2.88586 0
M  V30 2649 C 254.476 2.47767 -2.4394 0
M  V30 2650 H 253.799 2.28108 -3.28339 0
M  V30 2651 H 255.239 3.19432 -2.78818 0
M  V30 2652 C 253.698 3.10617 -1.30455 0
M  V30 2653 O 254.228 3.96846 -0.622585 0
M  V30 2654 N 252.434 2.70553 -1.06064 0
M  V30 2655 H 251.981 2.00527 -1.61699 0
M  V30 2656 H 251.939 3.12934 -0.303284 0
M  V30 2657 N 255.711 1.52812 0.385517 0
M  V30 2658 C 256.621 1.80766 1.49535 0
M  V30 2659 C 257.637 0.694651 1.59532 0
M  V30 2660 O 258.813 0.982611 1.75803 0
M  V30 2661 C 255.878 1.97381 2.85029 0
M  V30 2662 C 254.939 3.21295 2.84724 0
M  V30 2663 C 254.172 3.37108 4.13756 0
M  V30 2664 O 254.395 2.5765 5.08893 0
M  V30 2665 O 253.329 4.30378 4.20783 0
M  V30 2666 H 257.155 2.75015 1.28842 0
M  V30 2667 H 254.74 1.37946 0.573697 0
M  V30 2668 H 256.622 2.09996 3.65349 0
M  V30 2669 H 255.297 1.06322 3.05741 0
M  V30 2670 H 254.204 3.1412 2.03174 0
M  V30 2671 H 255.537 4.12212 2.68965 0
M  V30 2672 N 257.189 -0.644168 1.43834 0
M  V30 2673 C 258.435 -1.40603 1.46146 0
M  V30 2674 C 258.768 -1.93997 0.0887717 0
M  V30 2675 O 258.043 -1.72854 -0.891724 0
M  V30 2676 C 258.326 -2.58086 2.51124 0
M  V30 2677 C 258.179 -2.10126 3.97702 0
M  V30 2678 C 259.498 -3.60291 2.52742 0
M  V30 2679 H 256.617 -0.509905 0.532134 0
M  V30 2680 H 259.259 -0.729502 1.75437 0
M  V30 2681 H 257.409 -3.15801 2.26278 0
M  V30 2682 H 259.081 -1.57342 4.33637 0
M  V30 2683 H 257.324 -1.41419 4.10101 0
M  V30 2684 H 257.995 -2.94649 4.66783 0
M  V30 2685 H 260.471 -3.12352 2.7491 0
M  V30 2686 H 259.347 -4.40032 3.28121 0
M  V30 2687 H 259.608 -4.1349 1.56455 0
M  V30 2688 N 258.668 -1.30515 -0.883378 0
M  V30 2689 C 260.079 -1.17509 -1.45081 0
M  V30 2690 C 260.43 0.223605 -1.94922 0
M  V30 2691 O 259.555 1.12041 -1.85137 0
M  V30 2692 C 260.15 -2.12715 -2.63701 0
M  V30 2693 C 258.709 -2.03682 -3.16529 0
M  V30 2694 C 257.856 -2.02706 -1.89224 0
M  V30 2695 H 260.807 -1.42762 -0.693165 0
M  V30 2696 H 260.828 -1.70891 -3.39965 0
M  V30 2697 H 260.34 -3.14505 -2.27395 0
M  V30 2698 H 258.441 -1.05039 -3.57488 0
M  V30 2699 H 258.554 -2.92146 -3.7972 0
M  V30 2700 H 256.918 -1.4753 -2.07622 0
M  V30 2701 H 257.701 -3.06229 -1.55174 0
M  V30 2702 N 260.146 1.09593 -1.13257 0
M  V30 2703 C 261.423 1.78293 -0.804432 0
M  V30 2704 C 261.803 1.99004 0.70431 0
M  V30 2705 O 261.151 1.59007 1.641 0
M  V30 2706 C 261.361 3.10707 -1.5894 0
M  V30 2707 C 262.709 3.85443 -1.78099 0
M  V30 2708 O 263.733 3.20454 -1.55525 0
M  V30 2709 O 262.592 5.02108 -2.15753 0
M  V30 2710 H 259.686 0.773156 -0.293528 0
M  V30 2711 H 262.232 1.16164 -1.23709 0
M  V30 2712 H 261.004 2.91106 -2.61482 0
M  V30 2713 H 260.627 3.80558 -1.15157 0
M  V30 2714 N 261.624 0.925811 1.2754 0
M  V30 2715 C 262.854 0.580666 1.98272 0
M  V30 2716 C 263.262 -0.845207 1.69272 0
M  V30 2717 O 262.605 -1.57306 0.948707 0
M  V30 2718 C 262.667 0.724418 3.52126 0
M  V30 2719 C 262.331 2.12206 4.04744 0
M  V30 2720 C 263.328 3.09604 4.17662 0
M  V30 2721 C 261.013 2.4385 4.39138 0
M  V30 2722 C 263.007 4.36755 4.64246 0
M  V30 2723 C 260.694 3.71237 4.85414 0
M  V30 2724 C 261.692 4.67503 4.97926 0
M  V30 2725 O 261.38 5.92624 5.43187 0
M  V30 2726 H 261.112 0.218987 0.639547 0
M  V30 2727 H 263.666 1.24452 1.63404 0
M  V30 2728 H 261.896 0.0034663 3.867 0
M  V30 2729 H 263.585 0.384607 4.04074 0
M  V30 2730 H 264.351 2.86478 3.91351 0
M  V30 2731 H 260.23 1.69665 4.28643 0
M  V30 2732 H 263.774 5.11898 4.73927 0
M  V30 2733 H 259.671 3.94182 5.11166 0
M  V30 2734 H 260.439 5.95585 5.61445 0
M  V30 2735 N 263.102 -1.41638 0.69111 0
M  V30 2736 C 264.052 -2.28 -0.000107832 0
M  V30 2737 C 265.036 -1.41964 -0.757304 0
M  V30 2738 O 266.228 -1.65274 -0.633532 0
M  V30 2739 C 263.357 -3.30209 -0.938983 0
M  V30 2740 C 262.443 -4.23725 -0.17827 0
M  V30 2741 N 262.834 -4.99017 0.825563 0
M  V30 2742 C 261.132 -4.44071 -0.414392 0
M  V30 2743 C 261.833 -5.67431 1.28052 0
M  V30 2744 N 260.809 -5.40197 0.607304 0
M  V30 2745 H 264.611 -2.83644 0.769617 0
M  V30 2746 H 262.125 -1.53797 0.521562 0
M  V30 2747 H 264.122 -3.90898 -1.44929 0
M  V30 2748 H 262.782 -2.76126 -1.70836 0
M  V30 2749 H 263.793 -5.03671 1.20566 0
M  V30 2750 H 260.47 -4.01004 -1.162 0
M  V30 2751 H 261.86 -6.37801 2.11327 0
M  V30 2752 N 264.58 -0.43555 -1.51462 0
M  V30 2753 C 265.49 0.383001 -2.31453 0
M  V30 2754 C 266.506 1.02931 -1.4029 0
M  V30 2755 O 267.682 1.02507 -1.73362 0
M  V30 2756 C 264.747 1.47043 -3.13973 0
M  V30 2757 C 263.808 0.844433 -4.20913 0
M  V30 2758 C 263.041 1.88004 -4.9949 0
M  V30 2759 O 263.264 3.10199 -4.78678 0
M  V30 2760 O 262.198 1.47157 -5.83634 0
M  V30 2761 H 266.024 -0.269964 -3.02498 0
M  V30 2762 H 263.609 -0.19813 -1.4808 0
M  V30 2763 H 265.491 2.10113 -3.65281 0
M  V30 2764 H 264.166 2.10751 -2.45695 0
M  V30 2765 H 263.073 0.175729 -3.73687 0
M  V30 2766 H 264.406 0.250869 -4.9156 0
M  V30 2767 N 266.058 1.56714 -0.166846 0
M  V30 2768 C 267.335 1.88412 0.525373 0
M  V30 2769 C 267.715 1.07602 1.81618 0
M  V30 2770 O 267.063 0.168621 2.27877 0
M  V30 2771 C 267.273 3.40363 0.771613 0
M  V30 2772 C 268.621 4.10007 1.1036 0
M  V30 2773 O 269.645 3.45655 0.860304 0
M  V30 2774 O 268.504 5.2369 1.56239 0
M  V30 2775 H 265.598 0.781587 0.270278 0
M  V30 2776 H 268.144 1.68458 -0.204946 0
M  V30 2777 H 266.916 3.91046 -0.141093 0
M  V30 2778 H 266.539 3.65914 1.55541 0
M  V30 2779 N 267.536 -0.106894 1.57237 0
M  V30 2780 C 268.785 -0.811163 1.8467 0
M  V30 2781 C 269.098 -1.80469 0.754342 0
M  V30 2782 O 270.304 -2.55601 0.915439 0
M  V30 2783 C 268.76 -1.49337 3.27454 0
M  V30 2784 C 268.368 -0.540217 4.44731 0
M  V30 2785 C 270.112 -2.18206 3.64124 0
M  V30 2786 C 268.019 -1.22634 5.78545 0
M  V30 2787 H 266.949 -0.306679 0.688813 0
M  V30 2788 H 269.6 -0.0639887 1.83388 0
M  V30 2789 H 267.982 -2.2876 3.23241 0
M  V30 2790 H 269.156 0.221659 4.60267 0
M  V30 2791 H 267.471 0.042146 4.16379 0
M  V30 2792 H 270.068 -2.70253 4.61376 0
M  V30 2793 H 270.411 -2.96562 2.92158 0
M  V30 2794 H 270.944 -1.45658 3.70174 0
M  V30 2795 H 267.683 -0.483832 6.53712 0
M  V30 2796 H 267.203 -1.95993 5.66874 0
M  V30 2797 H 268.882 -1.75615 6.2271 0
M  V30 2798 N 269.014 -1.53014 -0.377408 0
M  V30 2799 C 269.964 -1.74996 -1.46152 0
M  V30 2800 C 270.948 -0.604236 -1.49123 0
M  V30 2801 O 272.14 -0.862489 -1.54564 0
M  V30 2802 C 269.269 -1.93267 -2.8373 0
M  V30 2803 C 268.355 -3.13807 -2.85283 0
M  V30 2804 N 268.746 -4.35941 -2.56493 0
M  V30 2805 C 267.044 -3.14288 -3.16448 0
M  V30 2806 C 267.745 -5.17615 -2.65424 0
M  V30 2807 N 266.721 -4.53559 -2.99641 0
M  V30 2808 H 270.523 -2.67044 -1.22738 0
M  V30 2809 H 268.037 -1.51479 -0.585479 0
M  V30 2810 H 270.034 -2.0714 -3.61799 0
M  V30 2811 H 268.694 -1.0244 -3.08117 0
M  V30 2812 H 269.705 -4.63876 -2.30302 0
M  V30 2813 H 266.382 -2.33312 -3.46225 0
M  V30 2814 H 267.772 -6.25006 -2.46612 0
M  V30 2815 N 270.492 0.636531 -1.44174 0
M  V30 2816 C 271.72 1.42353 -1.50144 0
M  V30 2817 C 272.135 1.88389 -0.124575 0
M  V30 2818 O 271.492 1.6051 0.868489 0
M  V30 2819 C 271.543 2.64744 -2.46156 0
M  V30 2820 O 271.264 2.20629 -3.7849 0
M  V30 2821 C 272.765 3.57929 -2.61537 0
M  V30 2822 H 269.985 0.436752 -0.5094 0
M  V30 2823 H 272.529 0.778933 -1.89084 0
M  V30 2824 H 270.684 3.25307 -2.10366 0
M  V30 2825 H 271.098 2.99938 -4.30276 0
M  V30 2826 H 272.572 4.40428 -3.32757 0
M  V30 2827 H 273.049 4.06382 -1.66585 0
M  V30 2828 H 273.655 3.03238 -2.98206 0
M  V30 2829 N 271.97 1.30982 0.876444 0
M  V30 2830 C 273.2 1.23063 1.65949 0
M  V30 2831 C 273.608 -0.207537 1.88058 0
M  V30 2832 O 272.951 -1.14781 1.43426 0
M  V30 2833 C 273.013 1.89768 3.05333 0
M  V30 2834 C 272.677 3.39106 3.0636 0
M  V30 2835 C 273.674 4.3496 2.84791 0
M  V30 2836 C 271.359 3.80693 3.27686 0
M  V30 2837 C 273.353 5.70375 2.84519 0
M  V30 2838 C 271.04 5.16223 3.27043 0
M  V30 2839 C 272.038 6.10875 3.05485 0
M  V30 2840 O 271.726 7.43928 3.04674 0
M  V30 2841 H 271.458 0.426685 0.524324 0
M  V30 2842 H 274.012 1.7329 1.10271 0
M  V30 2843 H 272.242 1.34082 3.6271 0
M  V30 2844 H 273.931 1.75853 3.65829 0
M  V30 2845 H 274.697 4.0416 2.68103 0
M  V30 2846 H 270.576 3.07457 3.43499 0
M  V30 2847 H 274.12 6.44228 2.67611 0
M  V30 2848 H 270.017 5.4666 3.43269 0
M  V30 2849 H 270.785 7.53022 3.2078 0
M  V30 2850 N 273.449 -1.08991 1.13837 0
M  V30 2851 C 274.379 -2.17771 0.842507 0
M  V30 2852 C 275.36 -1.6892 -0.20001 0
M  V30 2853 O 276.545 -1.94113 -0.0579731 0
M  V30 2854 C 273.675 -3.4589 0.312644 0
M  V30 2855 C 272.629 -4.08099 1.28992 0
M  V30 2856 C 271.955 -5.31098 0.619623 0
M  V30 2857 C 273.255 -4.50077 2.65005 0
M  V30 2858 H 274.949 -2.42777 1.75213 0
M  V30 2859 H 272.495 -1.16682 0.843875 0
M  V30 2860 H 274.448 -4.21297 0.0933043 0
M  V30 2861 H 273.172 -3.20419 -0.632382 0
M  V30 2862 H 271.831 -3.34717 1.49533 0
M  V30 2863 H 271.479 -5.0191 -0.33102 0
M  V30 2864 H 271.179 -5.73674 1.27167 0
M  V30 2865 H 272.703 -6.09224 0.409669 0
M  V30 2866 H 274.117 -5.16688 2.48407 0
M  V30 2867 H 272.514 -5.03553 3.26427 0
M  V30 2868 H 273.584 -3.62257 3.22332 0
M  V30 2869 N 274.927 -0.932562 -1.27047 0
M  V30 2870 C 276.343 -0.633544 -1.46487 0
M  V30 2871 C 276.543 0.815746 -1.84249 0
M  V30 2872 O 275.599 1.59319 -1.95892 0
M  V30 2873 C 276.912 -1.58758 -2.55375 0
M  V30 2874 C 278.46 -1.59634 -2.69232 0
M  V30 2875 C 278.935 -2.53747 -3.81283 0
M  V30 2876 N 280.426 -2.51982 -3.88664 0
M  V30 2877 C 281.161 -3.21491 -4.74796 0
M  V30 2878 N 280.657 -4.00395 -5.65381 0
M  V30 2879 N 282.45 -3.10485 -4.68568 0
M  V30 2880 H 274.601 -1.86946 -1.00821 0
M  V30 2881 H 276.864 -0.802897 -0.504044 0
M  V30 2882 H 276.57 -2.62172 -2.34432 0
M  V30 2883 H 276.444 -1.33301 -3.52861 0
M  V30 2884 H 278.831 -0.569488 -2.89553 0
M  V30 2885 H 278.912 -1.89142 -1.72218 0
M  V30 2886 H 278.556 -3.56545 -3.61715 0
M  V30 2887 H 278.486 -2.21532 -4.77735 0
M  V30 2888 H 280.977 -1.94681 -3.23895 0
M  V30 2889 H 281.29 -4.50406 -6.27976 0
M  V30 2890 H 279.635 -4.04498 -5.65161 0
M  V30 2891 H 282.826 -2.48331 -3.96799 0
M  V30 2892 H 282.999 -3.64925 -5.35475 0
M  V30 2893 N 276.405 1.4127 -0.698611 0
M  V30 2894 C 277.315 2.34573 -0.0357891 0
M  V30 2895 C 278.331 1.56393 0.762701 0
M  V30 2896 O 279.507 1.8886 0.699564 0
M  V30 2897 C 276.572 3.35159 0.887089 0
M  V30 2898 C 275.633 4.29225 0.0804634 0
M  V30 2899 C 274.866 5.25006 0.959387 0
M  V30 2900 O 275.089 5.26314 2.19886 0
M  V30 2901 O 274.023 6.00519 0.407439 0
M  V30 2902 H 277.849 2.92838 -0.804957 0
M  V30 2903 H 275.434 1.42175 -0.458966 0
M  V30 2904 H 277.316 3.9689 1.41621 0
M  V30 2905 H 275.991 2.79333 1.6357 0
M  V30 2906 H 274.898 3.70833 -0.493328 0
M  V30 2907 H 276.231 4.88157 -0.629547 0
M  V30 2908 N 277.883 0.443576 1.51229 0
M  V30 2909 C 278.816 -0.410089 2.24485 0
M  V30 2910 C 279.794 -1.01949 1.26669 0
M  V30 2911 O 280.978 -1.06075 1.55821 0
M  V30 2912 C 278.105 -1.57211 3.00004 0
M  V30 2913 C 277.151 -1.08279 4.12526 0
M  V30 2914 S 277.984 -0.0197476 5.35496 0
M  V30 2915 C 279.14 -1.18629 6.14555 0
M  V30 2916 H 279.373 0.211832 2.96544 0
M  V30 2917 H 276.906 0.228156 1.52705 0
M  V30 2918 H 278.864 -2.23825 3.44111 0
M  V30 2919 H 277.525 -2.16547 2.27522 0
M  V30 2920 H 276.718 -1.95193 4.64667 0
M  V30 2921 H 276.32 -0.494797 3.70713 0
M  V30 2922 H 278.612 -2.10344 6.4402 0
M  V30 2923 H 279.555 -0.70472 7.04584 0
M  V30 2924 H 279.963 -1.42768 5.46148 0
M  V30 2925 N 279.361 -1.56624 0.175154 0
M  V30 2926 C 280.271 -2.21741 -0.766042 0
M  V30 2927 C 281.287 -1.21023 -1.25018 0
M  V30 2928 O 282.463 -1.53697 -1.3015 0
M  V30 2929 C 279.528 -2.84839 -1.97655 0
M  V30 2930 C 278.589 -4.00769 -1.53892 0
M  V30 2931 C 277.822 -4.60849 -2.69173 0
M  V30 2932 O 278.045 -4.19823 -3.86141 0
M  V30 2933 O 276.979 -5.50655 -2.43028 0
M  V30 2934 H 280.805 -3.02738 -0.241585 0
M  V30 2935 H 278.39 -1.49305 -0.053222 0
M  V30 2936 H 280.272 -3.24834 -2.68442 0
M  V30 2937 H 278.947 -2.06836 -2.48999 0
M  V30 2938 H 277.854 -3.65436 -0.80044 0
M  V30 2939 H 279.187 -4.80376 -1.07236 0
M  V30 2940 N 280.839 0.0985539 -1.57292 0
M  V30 2941 C 282.085 0.803867 -1.86188 0
M  V30 2942 C 282.418 1.78549 -0.763794 0
M  V30 2943 O 281.693 1.93153 0.22855 0
M  V30 2944 C 281.976 1.53568 -3.25713 0
M  V30 2945 C 281.829 0.572277 -4.46145 0
M  V30 2946 C 283.148 2.48708 -3.63087 0
M  V30 2947 H 280.267 0.290781 -0.677211 0
M  V30 2948 H 282.909 0.0675783 -1.8988 0
M  V30 2949 H 281.059 2.16332 -3.22696 0
M  V30 2950 H 282.731 -0.0480894 -4.61275 0
M  V30 2951 H 280.974 -0.114618 -4.33649 0
M  V30 2952 H 281.645 1.12139 -5.40489 0
M  V30 2953 H 284.121 1.96039 -3.67026 0
M  V30 2954 H 282.997 2.96932 -4.61652 0
M  V30 2955 H 283.258 3.32309 -2.91588 0
M  V30 2956 N 282.317 1.53212 0.369288 0
M  V30 2957 C 283.264 1.79388 1.45219 0
M  V30 2958 C 284.234 0.638059 1.53356 0
M  V30 2959 O 285.419 0.879852 1.69302 0
M  V30 2960 C 282.559 1.98623 2.82211 0
M  V30 2961 C 281.672 3.26337 2.8307 0
M  V30 2962 C 280.807 3.35779 4.11614 0
M  V30 2963 C 279.846 4.5754 4.06601 0
M  V30 2964 N 278.983 4.64155 5.26787 0
M  V30 2965 H 283.823 2.71794 1.22198 0
M  V30 2966 H 281.36 1.34642 0.592444 0
M  V30 2967 H 283.318 2.07761 3.61789 0
M  V30 2968 H 281.948 1.09558 3.03639 0
M  V30 2969 H 281 3.26171 1.95747 0
M  V30 2970 H 282.312 4.15988 2.75237 0
M  V30 2971 H 281.466 3.44208 4.99606 0
M  V30 2972 H 280.205 2.44137 4.22195 0
M  V30 2973 H 279.21 4.49215 3.16996 0
M  V30 2974 H 280.435 5.50519 3.97625 0
M  V30 2975 H 278.381 3.75413 5.3796 0
M  V30 2976 H 278.298 5.47706 5.21109 0
M  V30 2977 H 279.566 4.76863 6.16621 0
M  V30 2978 N 283.795 -0.628877 1.44509 0
M  V30 2979 C 285.035 -1.39993 1.48934 0
M  V30 2980 C 285.399 -1.91627 0.119604 0
M  V30 2981 O 286.6 -2.68772 0.0385283 0
M  V30 2982 C 284.871 -2.53241 2.52198 0
M  V30 2983 S 286.43 -3.41383 2.75687 0
M  V30 2984 H 283.248 -0.477558 0.526744 0
M  V30 2985 H 285.85 -0.727804 1.81448 0
M  V30 2986 H 284.554 -2.13622 3.50419 0
M  V30 2987 H 284.085 -3.25278 2.21264 0
M  V30 2988 H 286.1 -4.50752 2.07453 0
M  V30 2989 N 285.273 -1.31445 -0.869486 0
M  V30 2990 C 286.22 -1.19135 -1.97675 0
M  V30 2991 C 287.19 -0.0770266 -1.65921 0
M  V30 2992 O 288.375 -0.249972 -1.89155 0
M  V30 2993 C 285.515 -0.905149 -3.33018 0
M  V30 2994 C 284.628 -2.10285 -3.77365 0
M  V30 2995 C 283.763 -1.75339 -5.01427 0
M  V30 2996 C 282.802 -2.91515 -5.38224 0
M  V30 2997 N 281.939 -2.56762 -6.53466 0
M  V30 2998 H 286.779 -2.13853 -2.07535 0
M  V30 2999 H 284.316 -1.06379 -1.01597 0
M  V30 3000 H 286.274 -0.719765 -4.10944 0
M  V30 3001 H 284.904 0.00519624 -3.228 0
M  V30 3002 H 283.956 -2.39899 -2.95216 0
M  V30 3003 H 285.268 -2.97237 -4.00564 0
M  V30 3004 H 284.422 -1.53266 -5.87022 0
M  V30 3005 H 283.161 -0.855801 -4.80133 0
M  V30 3006 H 282.166 -3.14237 -4.51149 0
M  V30 3007 H 283.391 -3.81985 -5.61484 0
M  V30 3008 H 281.337 -1.69526 -6.33717 0
M  V30 3009 H 281.254 -3.37243 -6.76612 0
M  V30 3010 H 282.522 -2.38083 -7.42251 0
M  V30 3011 N 286.751 1.08385 -1.14413 0
M  V30 3012 C 288.162 1.62258 -0.923535 0
M  V30 3013 C 288.513 1.88691 0.537595 0
M  V30 3014 O 287.638 1.64454 1.40655 0
M  V30 3015 C 288.233 2.94781 -1.67002 0
M  V30 3016 C 286.792 3.45437 -1.495 0
M  V30 3017 C 285.939 2.19668 -1.69238 0
M  V30 3018 H 288.89 0.916086 -1.2959 0
M  V30 3019 H 288.911 3.63229 -1.13334 0
M  V30 3020 H 288.423 2.7551 -2.73342 0
M  V30 3021 H 286.524 3.6981 -0.455097 0
M  V30 3022 H 286.637 4.22173 -2.2651 0
M  V30 3023 H 285.001 2.28849 -1.11804 0
M  V30 3024 H 285.784 2.02905 -2.7692 0
M  V30 3025 N 288.23 0.939286 1.26551 0
M  V30 3026 C 289.177 0.446088 2.26448 0
M  V30 3027 C 290.147 -0.493234 1.58608 0
M  V30 3028 O 291.332 -0.409857 1.86346 0
M  V30 3029 C 288.472 -0.284375 3.43926 0
M  V30 3030 C 287.585 0.690399 4.26448 0
M  V30 3031 C 286.72 -0.0610712 5.31165 0
M  V30 3032 C 285.759 0.905649 6.05363 0
M  V30 3033 N 284.896 0.186055 7.01853 0
M  V30 3034 H 289.736 1.30291 2.68008 0
M  V30 3035 H 287.273 0.65371 1.31776 0
M  V30 3036 H 289.231 -0.724313 4.10864 0
M  V30 3037 H 287.861 -1.10535 3.03285 0
M  V30 3038 H 286.913 1.24885 3.59316 0
M  V30 3039 H 288.225 1.42873 4.779 0
M  V30 3040 H 287.379 -0.56038 6.04106 0
M  V30 3041 H 286.118 -0.832297 4.80546 0
M  V30 3042 H 285.123 1.4161 5.3125 0
M  V30 3043 H 286.348 1.67685 6.58072 0
M  V30 3044 H 284.294 -0.566714 6.53548 0
M  V30 3045 H 284.211 0.863752 7.51049 0
M  V30 3046 H 285.479 -0.292221 7.78952 0
M  V30 3047 N 289.708 -1.40897 0.706093 0
M  V30 3048 C 290.954 -2.01352 0.241889 0
M  V30 3049 C 291.287 -1.55832 -1.15888 0
M  V30 3050 O 290.562 -0.774145 -1.7843 0
M  V30 3051 C 290.845 -3.58752 0.311311 0
M  V30 3052 C 290.698 -4.1437 1.74978 0
M  V30 3053 C 292.017 -4.38914 -0.322922 0
M  V30 3054 H 289.136 -0.731562 0.0893687 0
M  V30 3055 H 291.778 -1.67504 0.896802 0
M  V30 3056 H 289.928 -3.87718 -0.246302 0
M  V30 3057 H 291.6 -3.96239 2.36205 0
M  V30 3058 H 289.843 -3.69016 2.28057 0
M  V30 3059 H 290.514 -5.23532 1.74981 0
M  V30 3060 H 292.99 -4.15822 0.152089 0
M  V30 3061 H 291.866 -5.48358 -0.243855 0
M  V30 3062 H 292.127 -4.19176 -1.40513 0
M  V30 3063 N 291.186 -0.45159 -1.50991 0
M  V30 3064 C 292.434 0.109857 -2.01801 0
M  V30 3065 C 292.755 1.41958 -1.3369 0
M  V30 3066 O 292.025 1.9003 -0.475951 0
M  V30 3067 H 290.605 0.0435884 -0.745727 0
M  V30 3068 H 293.267 -0.597557 -1.85514 0
M  V30 3069 H 292.363 0.275489 -3.10882 0
M  V30 3070 N 292.664 1.56529 -0.183458 0
M  V30 3071 C 293.894 2.01331 0.463612 0
M  V30 3072 C 294.302 1.06278 1.5653 0
M  V30 3073 O 293.645 0.0577976 1.83609 0
M  V30 3074 C 293.707 3.42547 1.09096 0
M  V30 3075 C 293.371 4.56817 0.129442 0
M  V30 3076 C 294.368 5.15734 -0.656807 0
M  V30 3077 C 292.053 5.02295 0.02174 0
M  V30 3078 C 294.047 6.1857 -1.53784 0
M  V30 3079 C 291.734 6.04978 -0.862864 0
M  V30 3080 C 292.732 6.62988 -1.64123 0
M  V30 3081 O 292.42 7.63677 -2.51103 0
M  V30 3082 H 292.152 0.664917 0.121907 0
M  V30 3083 H 294.706 2.034 -0.285954 0
M  V30 3084 H 292.936 3.37428 1.88889 0
M  V30 3085 H 294.625 3.71228 1.64148 0
M  V30 3086 H 295.391 4.81473 -0.583839 0
M  V30 3087 H 291.27 4.56847 0.617392 0
M  V30 3088 H 294.814 6.63777 -2.14583 0
M  V30 3089 H 290.711 6.38663 -0.93699 0
M  V30 3090 H 291.479 7.81049 -2.44753 0
M  V30 3091 N 294.142 -0.090211 1.57342 0
M  V30 3092 C 295.075 -1.14035 1.97664 0
M  V30 3093 C 296.053 -1.38576 0.850616 0
M  V30 3094 O 297.237 -1.52255 1.11134 0
M  V30 3095 C 294.364 -2.48854 2.2976 0
M  V30 3096 C 293.41 -2.40564 3.52181 0
M  V30 3097 S 294.243 -1.81745 5.03715 0
M  V30 3098 C 295.399 -3.18178 5.38993 0
M  V30 3099 H 295.632 -0.796636 2.86428 0
M  V30 3100 H 293.165 -0.298072 1.51496 0
M  V30 3101 H 295.123 -3.26413 2.48927 0
M  V30 3102 H 293.784 -2.80393 1.41558 0
M  V30 3103 H 292.977 -3.39942 3.72096 0
M  V30 3104 H 292.579 -1.71135 3.32549 0
M  V30 3105 H 294.871 -4.14461 5.35937 0
M  V30 3106 H 295.814 -3.03062 6.39968 0
M  V30 3107 H 296.222 -3.17935 4.66452 0
M  V30 3108 N 295.62 -1.53406 -0.361157 0
M  V30 3109 C 296.567 -1.80156 -1.44265 0
M  V30 3110 C 297.537 -0.646183 -1.53015 0
M  V30 3111 O 298.722 -0.888818 -1.68833 0
M  V30 3112 C 295.862 -2.00116 -2.81154 0
M  V30 3113 C 294.975 -3.27833 -2.81335 0
M  V30 3114 C 294.11 -3.37957 -4.09828 0
M  V30 3115 C 293.149 -4.59689 -4.04168 0
M  V30 3116 N 292.286 -4.66942 -5.24318 0
M  V30 3117 H 297.126 -2.72438 -1.20754 0
M  V30 3118 H 294.663 -1.34954 -0.585296 0
M  V30 3119 H 296.621 -2.09677 -3.60682 0
M  V30 3120 H 295.251 -1.11167 -3.03054 0
M  V30 3121 H 294.303 -3.27204 -1.94014 0
M  V30 3122 H 295.615 -4.17442 -2.73027 0
M  V30 3123 H 294.769 -3.46853 -4.97773 0
M  V30 3124 H 293.508 -2.46372 -4.20894 0
M  V30 3125 H 292.513 -4.50889 -3.14609 0
M  V30 3126 H 293.738 -5.5262 -3.947 0
M  V30 3127 H 291.684 -3.7826 -5.35962 0
M  V30 3128 H 291.601 -5.50462 -5.18197 0
M  V30 3129 H 292.869 -4.80127 -6.14084 0
M  V30 3130 N 297.098 0.621204 -1.44841 0
M  V30 3131 C 298.045 1.73267 -1.5247 0
M  V30 3132 C 299.015 1.6189 -0.371611 0
M  V30 3133 O 300.2 1.81668 -0.58321 0
M  V30 3134 C 297.34 3.11545 -1.48438 0
M  V30 3135 C 296.453 3.33827 -2.74196 0
M  V30 3136 C 295.588 4.62133 -2.61929 0
M  V30 3137 C 294.627 4.77627 -3.82804 0
M  V30 3138 N 293.764 5.97219 -3.69153 0
M  V30 3139 H 298.604 1.66082 -2.47428 0
M  V30 3140 H 296.141 0.810026 -1.22788 0
M  V30 3141 H 298.099 3.91528 -1.4409 0
M  V30 3142 H 296.729 3.1772 -0.570402 0
M  V30 3143 H 295.781 2.47715 -2.88689 0
M  V30 3144 H 297.093 3.41153 -3.6389 0
M  V30 3145 H 296.247 5.50291 -2.5547 0
M  V30 3146 H 294.986 4.57182 -1.69811 0
M  V30 3147 H 293.991 3.87896 -3.89637 0
M  V30 3148 H 295.216 4.84385 -4.75971 0
M  V30 3149 H 293.162 5.93339 -2.79794 0
M  V30 3150 H 293.079 6.05644 -4.52472 0
M  V30 3151 H 294.347 6.87912 -3.66603 0
M  V30 3152 N 298.576 1.31904 0.862503 0
M  V30 3153 C 299.508 1.16005 1.97675 0
M  V30 3154 C 300.521 0.0971234 1.6251 0
M  V30 3155 O 301.71 0.345337 1.75128 0
M  V30 3156 C 298.81 0.751791 3.30456 0
M  V30 3157 C 297.983 1.90133 3.93914 0
M  V30 3158 C 297.042 1.4779 5.05019 0
M  V30 3159 O 296.068 2.18872 5.25437 0
M  V30 3160 N 297.27 0.369491 5.79323 0
M  V30 3161 H 300.035 2.11982 2.11857 0
M  V30 3162 H 297.596 1.24337 1.03691 0
M  V30 3163 H 299.588 0.451084 4.02178 0
M  V30 3164 H 298.158 -0.116593 3.12382 0
M  V30 3165 H 297.378 2.36896 3.15078 0
M  V30 3166 H 298.666 2.67111 4.33047 0
M  V30 3167 H 298.064 -0.222299 5.65263 0
M  V30 3168 H 296.621 0.128354 6.51674 0
M  V30 3169 N 300.054 -1.07777 1.14986 0
M  V30 3170 C 301.465 -1.61766 0.932127 0
M  V30 3171 C 301.816 -1.88974 -0.527581 0
M  V30 3172 O 300.941 -1.65198 -1.39781 0
M  V30 3173 C 301.536 -2.93891 1.68563 0
M  V30 3174 C 300.095 -3.44639 1.5133 0
M  V30 3175 C 299.242 -2.18767 1.704 0
M  V30 3176 H 302.193 -0.909201 1.30074 0
M  V30 3177 H 302.214 -3.62623 1.15259 0
M  V30 3178 H 301.726 -2.74057 2.74799 0
M  V30 3179 H 299.827 -3.69564 0.474702 0
M  V30 3180 H 299.94 -4.20966 2.28746 0
M  V30 3181 H 298.304 -2.28253 1.13016 0
M  V30 3182 H 299.087 -2.01433 2.77992 0
M  V30 3183 N 301.532 -0.945985 -1.26051 0
M  V30 3184 C 302.809 -0.513816 -1.88731 0
M  V30 3185 C 303.189 1.00872 -1.8544 0
M  V30 3186 O 302.537 1.8708 -1.312 0
M  V30 3187 C 302.747 -1.08062 -3.31849 0
M  V30 3188 C 304.095 -1.1522 -4.08668 0
M  V30 3189 O 305.119 -1.03155 -3.40936 0
M  V30 3190 O 303.978 -1.34044 -5.29806 0
M  V30 3191 H 301.072 -0.168193 -0.809716 0
M  V30 3192 H 303.618 -1.03886 -1.34186 0
M  V30 3193 H 302.39 -2.1241 -3.2863 0
M  V30 3194 H 302.013 -0.538307 -3.93939 0
M  V30 3195 N 303.011 1.40521 -0.713556 0
M  V30 3196 C 304.26 2.00155 -0.249192 0
M  V30 3197 C 304.573 1.57224 1.16362 0
M  V30 3198 O 305.779 2.09542 1.72639 0
M  V30 3199 C 304.235 3.5773 -0.3946 0
M  V30 3200 C 303.843 4.09635 -1.81392 0
M  V30 3201 C 305.587 4.24499 0.00907364 0
M  V30 3202 C 303.494 5.59707 -1.91003 0
M  V30 3203 H 302.424 0.74868 -0.0894114 0
M  V30 3204 H 305.075 1.60784 -0.884352 0
M  V30 3205 H 303.457 3.94792 0.30911 0
M  V30 3206 H 304.631 3.83955 -2.54785 0
M  V30 3207 H 302.946 3.55456 -2.16888 0
M  V30 3208 H 305.543 5.34683 -0.0420404 0
M  V30 3209 H 305.886 4.02824 1.05065 0
M  V30 3210 H 306.419 3.92536 -0.645007 0
M  V30 3211 H 303.158 5.86234 -2.93275 0
M  V30 3212 H 302.678 5.87258 -1.22019 0
M  V30 3213 H 304.357 6.24776 -1.6812 0
M  V30 3214 N 304.489 0.459591 1.5075 0
M  V30 3215 C 305.717 -0.0973749 2.06671 0
M  V30 3216 C 306.132 -1.34524 1.32472 0
M  V30 3217 O 305.489 -1.7827 0.390634 0
M  V30 3218 C 305.54 -0.39714 3.59312 0
M  V30 3219 O 305.261 0.801214 4.30711 0
M  V30 3220 C 306.762 -1.00234 4.31819 0
M  V30 3221 H 303.982 0.00195854 0.670997 0
M  V30 3222 H 306.526 0.645072 1.94059 0
M  V30 3223 H 304.681 -1.08951 3.71764 0
M  V30 3224 H 305.095 0.538857 5.21725 0
M  V30 3225 H 306.569 -1.16193 5.39632 0
M  V30 3226 H 307.046 -1.98939 3.91561 0
M  V30 3227 H 307.652 -0.348699 4.23868 0
M  V30 3228 N 305.967 -1.56429 0.191757 0
M  V30 3229 C 306.915 -2.20273 -0.747174 0
M  V30 3230 C 307.909 -1.17288 -1.22229 0
M  V30 3231 O 309.115 -1.35441 -1.18557 0
M  V30 3232 H 305.49 -0.705885 -0.259289 0
M  V30 3233 H 307.461 -2.97826 -0.184963 0
M  V30 3234 C 306.21 -2.87356 -1.95759 0
M  V30 3235 H 305.533 -3.66341 -1.60106 0
M  V30 3236 H 306.973 -3.3547 -2.59299 0
M  V30 3237 C 305.432 -1.88213 -2.79423 0
M  V30 3238 O 305.962 -1.38033 -3.7724 0
M  V30 3239 N 304.168 -1.56516 -2.44849 0
M  V30 3240 H 303.715 -1.97516 -1.65364 0
M  V30 3241 H 303.673 -0.904369 -3.01112 0
M  V30 3242 N 307.445 0.0818655 -1.57387 0
M  V30 3243 C 308.67 0.799946 -1.91352 0
M  V30 3244 C 309.095 1.70833 -0.787258 0
M  V30 3245 O 308.453 1.79419 0.26048 0
M  V30 3246 C 308.501 1.57812 -3.24234 0
M  V30 3247 O 307.605 2.68806 -3.12757 0
M  V30 3248 H 306.946 0.21891 -0.626877 0
M  V30 3249 H 309.476 0.0531256 -2.04531 0
M  V30 3250 H 309.486 1.95952 -3.57864 0
M  V30 3251 H 308.161 0.911548 -4.05788 0
M  V30 3252 H 306.738 2.33597 -2.90666 0
M  V30 3253 N 308.923 1.53595 0.353017 0
M  V30 3254 C 309.856 1.7572 1.45594 0
M  V30 3255 C 310.834 0.605961 1.50887 0
M  V30 3256 O 312.018 0.840023 1.68748 0
M  V30 3257 C 309.145 1.84732 2.83887 0
M  V30 3258 C 308.191 3.06808 2.96262 0
M  V30 3259 S 309.024 4.66065 2.63711 0
M  V30 3260 C 310.18 4.77943 4.04131 0
M  V30 3261 H 310.413 2.68994 1.26608 0
M  V30 3262 H 307.946 1.44343 0.548117 0
M  V30 3263 H 309.904 1.9061 3.63563 0
M  V30 3264 H 308.565 0.92488 3.00175 0
M  V30 3265 H 307.758 3.09761 3.97573 0
M  V30 3266 H 307.36 2.99108 2.24523 0
M  V30 3267 H 309.652 4.5877 4.98534 0
M  V30 3268 H 310.595 5.80022 4.06177 0
M  V30 3269 H 311.003 4.06472 3.91715 0
M  V30 3270 N 310.401 -0.613514 1.45168 0
M  V30 3271 C 311.817 -0.933629 1.29443 0
M  V30 3272 C 312.017 -2.00028 0.243101 0
M  V30 3273 O 311.073 -2.49848 -0.364992 0
M  V30 3274 C 312.386 -1.38018 2.67155 0
M  V30 3275 C 313.934 -1.49471 2.75004 0
M  V30 3276 C 314.409 -1.97503 4.13227 0
M  V30 3277 N 315.9 -2.04746 4.15491 0
M  V30 3278 C 316.635 -2.43121 5.19307 0
M  V30 3279 N 316.131 -2.80506 6.33473 0
M  V30 3280 N 317.924 -2.43408 5.06664 0
M  V30 3281 H 310.075 0.0916097 2.12202 0
M  V30 3282 H 312.338 -0.0216655 0.947752 0
M  V30 3283 H 312.044 -0.670625 3.45247 0
M  V30 3284 H 311.918 -2.34784 2.95222 0
M  V30 3285 H 314.305 -2.19519 1.9722 0
M  V30 3286 H 314.386 -0.510342 2.50657 0
M  V30 3287 H 314.03 -1.28045 4.91495 0
M  V30 3288 H 313.96 -2.96843 4.34962 0
M  V30 3289 H 316.451 -1.78468 3.33103 0
M  V30 3290 H 316.764 -3.08652 7.08487 0
M  V30 3291 H 315.109 -2.78216 6.36884 0
M  V30 3292 H 318.3 -2.13604 4.16523 0
M  V30 3293 H 318.473 -2.72989 5.87691 0
M  V30 3294 N 311.879 -1.3236 -0.855495 0
M  V30 3295 C 312.842 -1.21164 -1.94556 0
M  V30 3296 C 313.842 -0.134908 -1.60233 0
M  V30 3297 O 315.032 -0.385249 -1.69887 0
M  V30 3298 C 312.164 -0.863192 -3.29791 0
M  V30 3299 H 313.357 -2.18038 -2.05911 0
M  V30 3300 H 310.91 -1.16179 -1.04557 0
M  V30 3301 H 311.645 0.103769 -3.24134 0
M  V30 3302 H 311.43 -1.64166 -3.56078 0
M  V30 3303 H 312.92 -0.809156 -4.09686 0
M  V30 3304 N 313.357 1.07166 -1.15556 0
M  V30 3305 C 314.606 1.79181 -0.926132 0
M  V30 3306 C 314.919 1.87768 0.547967 0
M  V30 3307 O 316.125 2.56323 0.895036 0
M  V30 3308 C 314.581 3.22 -1.60761 0
M  V30 3309 C 314.189 3.21607 -3.11886 0
M  V30 3310 C 315.933 3.9861 -1.4598 0
M  V30 3311 C 313.84 4.59092 -3.72812 0
M  V30 3312 H 312.77 0.67154 -0.342856 0
M  V30 3313 H 315.421 1.2027 -1.3859 0
M  V30 3314 H 313.803 3.81115 -1.07553 0
M  V30 3315 H 314.977 2.72127 -3.71865 0
M  V30 3316 H 313.292 2.58495 -3.2645 0
M  V30 3317 H 315.889 5.00225 -1.88888 0
M  V30 3318 H 316.232 4.143 -0.407541 0
M  V30 3319 H 316.765 3.45996 -1.96295 0
M  V30 3320 H 313.504 4.48606 -4.77946 0
M  V30 3321 H 313.024 5.08803 -3.17616 0
M  V30 3322 H 314.703 5.28059 -3.73848 0
M  V30 3323 N 314.835 0.952656 1.25548 0
M  V30 3324 C 315.765 0.489287 2.28316 0
M  V30 3325 C 316.746 -0.463359 1.63667 0
M  V30 3326 O 317.931 -0.36274 1.90782 0
M  V30 3327 C 315.061 -0.235603 3.465 0
M  V30 3328 C 314.015 0.631593 4.23314 0
M  V30 3329 C 313.341 -0.223923 5.34231 0
M  V30 3330 C 314.641 1.90871 4.86174 0
M  V30 3331 H 316.335 1.34822 2.67326 0
M  V30 3332 H 313.881 0.649728 1.28509 0
M  V30 3333 H 315.834 -0.570882 4.17515 0
M  V30 3334 H 314.558 -1.12877 3.06474 0
M  V30 3335 H 313.217 0.949929 3.54079 0
M  V30 3336 H 312.865 -1.11678 4.90446 0
M  V30 3337 H 312.565 0.35299 5.86539 0
M  V30 3338 H 314.089 -0.554214 6.0808 0
M  V30 3339 H 315.503 1.63997 5.49343 0
M  V30 3340 H 313.9 2.43112 5.4865 0
M  V30 3341 H 314.97 2.61304 4.08471 0
M  V30 3342 N 316.313 -1.40141 0.720998 0
M  V30 3343 C 317.559 -2.01084 0.263231 0
M  V30 3344 C 317.892 -1.57052 -1.14229 0
M  V30 3345 O 317.167 -0.793027 -1.77599 0
M  V30 3346 C 317.45 -3.58401 0.349344 0
M  V30 3347 C 317.303 -4.12491 1.79363 0
M  V30 3348 C 318.622 -4.39231 -0.276351 0
M  V30 3349 H 315.741 -0.730572 0.0971228 0
M  V30 3350 H 318.383 -1.66543 0.914518 0
M  V30 3351 H 316.533 -3.87958 -0.205165 0
M  V30 3352 H 318.205 -3.93711 2.40394 0
M  V30 3353 H 316.448 -3.66576 2.31958 0
M  V30 3354 H 317.119 -5.21646 1.80524 0
M  V30 3355 H 319.595 -4.15637 0.196184 0
M  V30 3356 H 318.471 -5.48586 -0.185681 0
M  V30 3357 H 318.732 -4.20643 -1.36059 0
M  V30 3358 N 317.792 -0.46758 -1.50504 0
M  V30 3359 C 319.069 0.15003 -1.95024 0
M  V30 3360 C 319.449 1.57304 -1.40779 0
M  V30 3361 O 318.797 2.20281 -0.607319 0
M  V30 3362 C 319.007 0.0969324 -3.48865 0
M  V30 3363 C 320.355 0.287565 -4.23625 0
M  V30 3364 O 321.379 0.173678 -3.55776 0
M  V30 3365 O 320.238 0.517186 -5.44047 0
M  V30 3366 H 317.332 0.113582 -0.819163 0
M  V30 3367 H 319.878 -0.52773 -1.61286 0
M  V30 3368 H 318.65 -0.896732 -3.80886 0
M  V30 3369 H 318.273 0.816303 -3.8913 0
M  V30 3370 N 319.27 1.56325 -0.20005 0
M  V30 3371 C 320.516 1.98772 0.431408 0
M  V30 3372 C 320.871 1.0849 1.58895 0
M  V30 3373 O 320.164 0.130331 1.91156 0
M  V30 3374 C 320.358 3.4495 0.935103 0
M  V30 3375 C 320.187 4.49371 -0.172096 0
M  V30 3376 C 318.957 5.0134 -0.631377 0
M  V30 3377 C 321.155 5.04822 -0.982806 0
M  V30 3378 N 319.137 5.89433 -1.71588 0
M  V30 3379 C 320.508 5.89632 -1.91661 0
M  V30 3380 C 322.563 4.87242 -1.02467 0
M  V30 3381 C 321.266 6.58741 -2.88881 0
M  V30 3382 C 323.292 5.57094 -1.98494 0
M  V30 3383 C 322.654 6.41655 -2.90617 0
M  V30 3384 H 318.753 0.771922 0.125144 0
M  V30 3385 H 321.337 1.92266 -0.306883 0
M  V30 3386 H 319.508 3.51946 1.64282 0
M  V30 3387 H 321.24 3.74354 1.53758 0
M  V30 3388 H 317.995 4.73071 -0.223827 0
M  V30 3389 H 318.419 6.38182 -2.25948 0
M  V30 3390 H 323.061 4.21538 -0.326408 0
M  V30 3391 H 320.779 7.23641 -3.5968 0
M  V30 3392 H 324.365 5.45466 -2.0238 0
M  V30 3393 H 323.245 6.94755 -3.63711 0
M  V30 3394 N 320.748 -0.0735177 1.57428 0
M  V30 3395 C 321.678 -1.0879 2.06608 0
M  V30 3396 C 322.659 -1.40473 0.959237 0
M  V30 3397 O 323.844 -1.5013 1.23185 0
M  V30 3398 C 320.974 -2.40183 2.50857 0
M  V30 3399 C 319.928 -2.22858 3.65402 0
M  V30 3400 C 319.254 -3.59619 3.957 0
M  V30 3401 C 320.554 -1.65123 4.95511 0
M  V30 3402 H 322.248 -0.678673 2.91607 0
M  V30 3403 H 319.794 -0.325013 1.40284 0
M  V30 3404 H 321.747 -3.11437 2.83874 0
M  V30 3405 H 320.471 -2.83083 1.62885 0
M  V30 3406 H 319.13 -1.54045 3.32664 0
M  V30 3407 H 318.778 -4.00086 3.04861 0
M  V30 3408 H 318.478 -3.48866 4.72828 0
M  V30 3409 H 320.002 -4.32306 4.31212 0
M  V30 3410 H 321.416 -2.26241 5.26771 0
M  V30 3411 H 319.813 -1.65071 5.7695 0
M  V30 3412 H 320.883 -0.612559 4.81015 0
M  V30 3413 N 322.226 -1.5378 -0.344866 0
M  V30 3414 C 323.472 -1.71216 -1.08687 0
M  V30 3415 C 323.805 -0.473281 -1.88345 0
M  V30 3416 O 323.08 0.52968 -1.87149 0
M  V30 3417 C 323.363 -2.97486 -2.02914 0
M  V30 3418 C 323.216 -4.31579 -1.26727 0
M  V30 3419 C 324.535 -3.19422 -3.0275 0
M  V30 3420 H 321.654 -0.62301 -0.393735 0
M  V30 3421 H 324.296 -1.8645 -0.365563 0
M  V30 3422 H 322.446 -2.84629 -2.64421 0
M  V30 3423 H 324.118 -4.56284 -0.67845 0
M  V30 3424 H 322.361 -4.30049 -0.569273 0
M  V30 3425 H 323.032 -5.16106 -1.95803 0
M  V30 3426 H 325.508 -3.316 -2.51357 0
M  V30 3427 H 324.384 -4.09169 -3.65885 0
M  V30 3428 H 324.645 -2.35656 -3.74057 0
M  V30 3429 N 323.704 0.605807 -1.45491 0
M  V30 3430 C 324.614 1.74466 -1.56839 0
M  V30 3431 C 325.63 1.68006 -0.452772 0
M  V30 3432 O 326.806 1.8833 -0.713708 0
M  V30 3433 C 323.871 3.10931 -1.53371 0
M  V30 3434 C 322.932 3.28832 -2.75986 0
M  V30 3435 C 322.165 4.58787 -2.72673 0
M  V30 3436 O 322.388 5.4122 -1.80102 0
M  V30 3437 O 321.322 4.79438 -3.63899 0
M  V30 3438 H 325.148 1.67843 -2.53106 0
M  V30 3439 H 322.733 0.770108 -1.28022 0
M  V30 3440 H 324.615 3.92233 -1.54051 0
M  V30 3441 H 323.29 3.18042 -0.602572 0
M  V30 3442 H 322.197 2.47112 -2.80867 0
M  V30 3443 H 323.53 3.26599 -3.68231 0
M  V30 3444 N 325.182 1.32811 0.848464 0
M  V30 3445 C 326.428 1.23907 1.60546 0
M  V30 3446 C 326.761 -0.197161 1.93197 0
M  V30 3447 O 326.036 -1.13596 1.5788 0
M  V30 3448 C 326.319 2.10489 2.92175 0
M  V30 3449 C 326.172 3.62522 2.66266 0
M  V30 3450 C 327.491 1.97075 3.93509 0
M  V30 3451 H 324.61 0.451459 0.58254 0
M  V30 3452 H 327.252 1.62818 0.979296 0
M  V30 3453 H 325.402 1.77434 3.45614 0
M  V30 3454 H 327.074 4.05821 2.19334 0
M  V30 3455 H 325.317 3.84879 2.00126 0
M  V30 3456 H 325.988 4.18437 3.6002 0
M  V30 3457 H 328.464 2.26045 3.49346 0
M  V30 3458 H 327.34 2.59923 4.83457 0
M  V30 3459 H 327.601 0.940186 4.31987 0
M  V30 3460 N 326.66 -1.06551 1.16123 0
M  V30 3461 C 327.908 -1.78947 0.939267 0
M  V30 3462 C 328.229 -1.87532 -0.534476 0
M  V30 3463 O 327.499 -1.38211 -1.38833 0
M  V30 3464 H 326.079 -0.662807 0.344523 0
M  V30 3465 H 328.741 -1.28725 1.46342 0
M  V30 3466 H 327.837 -2.81117 1.35572 0
M  V30 3467 N 328.138 -0.959301 -1.25041 0
M  V30 3468 C 329.048 -0.489994 -2.29426 0
M  V30 3469 C 330.064 0.444944 -1.68215 0
M  V30 3470 O 331.24 0.320046 -1.98841 0
M  V30 3471 C 328.305 0.220309 -3.45999 0
M  V30 3472 C 327.366 -0.753418 -4.22637 0
M  V30 3473 C 326.599 -0.076918 -5.33645 0
M  V30 3474 O 326.822 1.13649 -5.58963 0
M  V30 3475 O 325.756 -0.764824 -5.97021 0
M  V30 3476 H 329.582 -1.35755 -2.71669 0
M  V30 3477 H 327.167 -0.725961 -1.30576 0
M  V30 3478 H 329.049 0.619677 -4.16819 0
M  V30 3479 H 327.724 1.06296 -3.0575 0
M  V30 3480 H 326.631 -1.20308 -3.54227 0
M  V30 3481 H 327.964 -1.56423 -4.66683 0
M  V30 3482 N 329.616 1.39756 -0.72842 0
M  V30 3483 C 330.526 2.34444 -0.0855374 0
M  V30 3484 C 331.542 1.57976 0.729356 0
M  V30 3485 O 332.718 1.90301 0.659346 0
M  V30 3486 C 329.783 3.36965 0.815798 0
M  V30 3487 C 328.844 4.29299 -0.0105996 0
M  V30 3488 C 328.077 5.26923 0.84781 0
M  V30 3489 O 328.3 5.30859 2.08673 0
M  V30 3490 O 327.234 6.01249 0.279969 0
M  V30 3491 H 331.06 2.91065 -0.866892 0
M  V30 3492 H 328.645 1.4117 -0.48902 0
M  V30 3493 H 330.527 3.99804 1.33171 0
M  V30 3494 H 329.202 2.82739 1.57608 0
M  V30 3495 H 328.109 3.69703 -0.571877 0
M  V30 3496 H 329.442 4.86712 -0.73295 0
M  V30 3497 N 331.094 0.475555 1.50254 0
M  V30 3498 C 332.324 -0.0753399 2.06463 0
M  V30 3499 C 332.732 -1.33661 1.33908 0
M  V30 3500 O 332.075 -1.79219 0.403257 0
M  V30 3501 C 332.137 -0.424921 3.5698 0
M  V30 3502 C 331.801 0.734965 4.51051 0
M  V30 3503 C 332.798 1.61827 4.94073 0
M  V30 3504 C 330.483 0.926557 4.9368 0
M  V30 3505 C 332.477 2.67754 5.78434 0
M  V30 3506 C 330.164 1.98904 5.77824 0
M  V30 3507 C 331.162 2.8629 6.20103 0
M  V30 3508 O 330.85 3.90708 7.02568 0
M  V30 3509 H 330.582 0.00576308 0.675975 0
M  V30 3510 H 333.136 0.664662 1.94349 0
M  V30 3511 H 331.366 -1.21817 3.67012 0
M  V30 3512 H 333.055 -0.911422 3.95535 0
M  V30 3513 H 333.821 1.48196 4.61804 0
M  V30 3514 H 329.7 0.25584 4.6029 0
M  V30 3515 H 333.244 3.35992 6.11355 0
M  V30 3516 H 329.141 2.12541 6.09505 0
M  V30 3517 H 329.909 3.87751 7.20827 0
M  V30 3518 N 332.573 -1.56217 0.208337 0
M  V30 3519 C 333.52 -2.19699 -0.707192 0
M  V30 3520 C 334.49 -1.14836 -1.20008 0
M  V30 3521 O 335.675 -1.4314 -1.26157 0
M  V30 3522 C 332.815 -2.87061 -1.91546 0
M  V30 3523 C 331.928 -4.06483 -1.46271 0
M  V30 3524 C 331.063 -4.61665 -2.62752 0
M  V30 3525 C 330.102 -5.73417 -2.14147 0
M  V30 3526 N 329.239 -6.22948 -3.23853 0
M  V30 3527 H 334.079 -2.97575 -0.159111 0
M  V30 3528 H 331.616 -1.46948 -0.0667874 0
M  V30 3529 H 333.574 -3.24294 -2.62468 0
M  V30 3530 H 332.204 -2.11725 -2.43664 0
M  V30 3531 H 331.256 -3.74825 -0.648886 0
M  V30 3532 H 332.568 -4.87271 -1.06622 0
M  V30 3533 H 331.722 -5.01272 -3.41776 0
M  V30 3534 H 330.461 -3.80013 -3.05682 0
M  V30 3535 H 329.466 -5.33326 -1.33581 0
M  V30 3536 H 330.691 -6.56897 -1.72232 0
M  V30 3537 H 328.637 -5.44213 -3.6629 0
M  V30 3538 H 328.554 -6.98823 -2.88414 0
M  V30 3539 H 329.822 -6.6721 -4.03052 0
M  V30 3540 N 334.051 0.0651679 -1.57465 0
M  V30 3541 C 334.981 1.07693 -2.07182 0
M  V30 3542 C 335.962 1.39962 -0.966673 0
M  V30 3543 O 337.147 1.49475 -1.2398 0
M  V30 3544 C 334.277 2.3885 -2.52127 0
M  V30 3545 C 333.231 2.20917 -3.66579 0
M  V30 3546 C 332.557 3.57515 -3.97601 0
M  V30 3547 C 333.857 1.62493 -4.9638 0
M  V30 3548 H 335.551 0.663199 -2.91962 0
M  V30 3549 H 333.097 0.317569 -1.40455 0
M  V30 3550 H 335.05 3.09928 -2.85522 0
M  V30 3551 H 333.774 2.82215 -1.64384 0
M  V30 3552 H 332.433 1.52279 -3.33477 0
M  V30 3553 H 332.081 3.98463 -3.06979 0
M  V30 3554 H 331.781 3.46353 -4.74672 0
M  V30 3555 H 333.305 4.30013 -4.33499 0
M  V30 3556 H 334.719 2.23445 -5.27963 0
M  V30 3557 H 333.116 1.62009 -5.77818 0
M  V30 3558 H 334.186 0.587041 -4.81333 0
M  V30 3559 N 335.529 1.53961 0.336706 0
M  V30 3560 C 336.461 1.78751 1.4346 0
M  V30 3561 C 337.474 0.669019 1.48418 0
M  V30 3562 O 338.663 0.945884 1.51378 0
M  V30 3563 C 335.763 1.87844 2.82078 0
M  V30 3564 C 334.936 3.17854 3.00479 0
M  V30 3565 C 333.995 3.17816 4.19379 0
M  V30 3566 O 333.021 3.91511 4.13168 0
M  V30 3567 N 334.223 2.40669 5.2826 0
M  V30 3568 H 336.988 2.73493 1.22563 0
M  V30 3569 H 334.549 1.53096 0.526625 0
M  V30 3570 H 336.541 1.85261 3.59806 0
M  V30 3571 H 335.111 1.00257 2.96086 0
M  V30 3572 H 334.331 3.33504 2.10163 0
M  V30 3573 H 335.619 4.03718 3.0966 0
M  V30 3574 H 335.017 1.8036 5.36178 0
M  V30 3575 H 333.574 2.43877 6.04456 0
M  V30 3576 N 337.007 -0.598083 1.45811 0
M  V30 3577 C 337.955 -1.72932 1.55555 0
M  V30 3578 C 338.949 -1.63984 0.424921 0
M  V30 3579 O 340.155 -1.69663 0.601205 0
M  V30 3580 H 336.53 -0.571489 0.488779 0
M  V30 3581 H 338.501 -1.61842 2.50699 0
M  V30 3582 C 337.25 -3.11318 1.54843 0
M  V30 3583 H 336.573 -3.18867 2.41172 0
M  V30 3584 H 338.013 -3.90274 1.65717 0
M  V30 3585 C 336.472 -3.3578 0.274427 0
M  V30 3586 O 337.002 -3.9654 -0.641778 0
M  V30 3587 N 335.208 -2.90119 0.167139 0
M  V30 3588 H 334.755 -2.40855 0.913596 0
M  V30 3589 H 334.713 -3.0686 -0.684435 0
M  V30 3590 N 338.485 -1.33259 -0.841409 0
M  V30 3591 C 339.395 -1.25332 -1.98316 0
M  V30 3592 C 340.411 -0.164364 -1.73222 0
M  V30 3593 O 341.587 -0.387486 -1.97637 0
M  V30 3594 C 338.652 -0.990078 -3.32262 0
M  V30 3595 C 337.713 -2.16879 -3.70489 0
M  V30 3596 C 336.946 -1.91801 -4.98044 0
M  V30 3597 O 337.169 -0.867075 -5.63771 0
M  V30 3598 O 336.103 -2.78267 -5.33714 0
M  V30 3599 H 339.929 -2.21344 -2.07944 0
M  V30 3600 H 337.514 -1.1328 -0.974058 0
M  V30 3601 H 339.396 -0.860321 -4.12524 0
M  V30 3602 H 338.071 -0.0602155 -3.23644 0
M  V30 3603 H 336.978 -2.35407 -2.90748 0
M  V30 3604 H 338.311 -3.0819 -3.8377 0
M  V30 3605 N 339.963 1.05934 -1.16686 0
M  V30 3606 C 341.191 1.8249 -0.974929 0
M  V30 3607 C 341.606 1.82679 0.476861 0
M  V30 3608 O 340.963 1.2486 1.33103 0
M  V30 3609 C 341.014 3.28943 -1.49929 0
M  V30 3610 O 340.735 3.28886 -2.89423 0
M  V30 3611 C 342.236 4.22215 -1.35089 0
M  V30 3612 H 339.456 0.575295 -0.345365 0
M  V30 3613 H 342 1.33631 -1.548 0
M  V30 3614 H 340.155 3.751 -0.968423 0
M  V30 3615 H 340.569 4.20493 -3.13506 0
M  V30 3616 H 342.043 5.22987 -1.76603 0
M  V30 3617 H 342.52 4.38195 -0.296935 0
M  V30 3618 H 343.126 3.81907 -1.87155 0
M  V30 3619 N 341.441 0.965919 1.2453 0
M  V30 3620 C 342.371 0.513476 2.27784 0
M  V30 3621 C 343.352 -0.445974 1.6415 0
M  V30 3622 O 344.537 -0.342485 1.91156 0
M  V30 3623 C 341.667 -0.198839 3.4673 0
M  V30 3624 C 340.621 0.676456 4.2262 0
M  V30 3625 C 339.947 -0.167248 5.34438 0
M  V30 3626 C 341.247 1.96017 4.84123 0
M  V30 3627 H 342.941 1.3765 2.65881 0
M  V30 3628 H 340.487 0.663321 1.27813 0
M  V30 3629 H 342.44 -0.526567 4.18097 0
M  V30 3630 H 341.164 -1.0962 3.07654 0
M  V30 3631 H 339.823 0.98743 3.53052 0
M  V30 3632 H 339.471 -1.0647 4.91603 0
M  V30 3633 H 339.171 0.415181 5.86131 0
M  V30 3634 H 340.695 -0.489688 6.08633 0
M  V30 3635 H 342.109 1.69814 5.47573 0
M  V30 3636 H 340.506 2.48918 5.4604 0
M  V30 3637 H 341.576 2.65622 4.05676 0
M  V30 3638 N 342.919 -1.39368 0.735821 0
M  V30 3639 C 343.869 -2.27885 0.0724287 0
M  V30 3640 C 344.853 -1.44301 -0.711756 0
M  V30 3641 O 346.045 -1.67206 -0.58063 0
M  V30 3642 C 343.174 -3.33029 -0.833454 0
M  V30 3643 C 342.26 -4.24078 -0.0433749 0
M  V30 3644 N 342.651 -4.96138 0.983903 0
M  V30 3645 C 340.949 -4.45164 -0.272905 0
M  V30 3646 C 341.65 -5.63069 1.4604 0
M  V30 3647 N 340.626 -5.37991 0.778857 0
M  V30 3648 H 344.428 -2.81052 0.859467 0
M  V30 3649 H 341.942 -1.5206 0.570227 0
M  V30 3650 H 343.939 -3.95311 -1.32419 0
M  V30 3651 H 342.599 -2.81421 -1.61964 0
M  V30 3652 H 343.61 -4.9958 1.36528 0
M  V30 3653 H 340.287 -4.04497 -1.03383 0
M  V30 3654 H 341.677 -6.30755 2.31511 0
M  V30 3655 N 344.397 -0.483516 -1.5 0
M  V30 3656 C 345.327 0.293829 -2.31644 0
M  V30 3657 C 346.308 0.978864 -1.39112 0
M  V30 3658 O 347.493 0.973644 -1.68029 0
M  V30 3659 C 344.623 1.36897 -3.19181 0
M  V30 3660 C 343.577 0.804833 -4.20365 0
M  V30 3661 C 342.903 1.9792 -4.96721 0
M  V30 3662 C 344.203 -0.192313 -5.21946 0
M  V30 3663 H 345.897 -0.387616 -2.9688 0
M  V30 3664 H 343.443 -0.187856 -1.42769 0
M  V30 3665 H 345.396 1.92037 -3.751 0
M  V30 3666 H 344.12 2.07936 -2.51853 0
M  V30 3667 H 342.779 0.275319 -3.65565 0
M  V30 3668 H 342.427 2.67686 -4.25856 0
M  V30 3669 H 342.127 1.60789 -5.65173 0
M  V30 3670 H 343.651 2.53526 -5.55479 0
M  V30 3671 H 345.065 0.270333 -5.72662 0
M  V30 3672 H 343.462 -0.478543 -5.98189 0
M  V30 3673 H 344.532 -1.11409 -4.71928 0
M  V30 3674 N 345.875 1.56104 -0.216619 0
M  V30 3675 C 346.838 2.18819 0.681962 0
M  V30 3676 C 347.838 1.14866 1.12528 0
M  V30 3677 O 349.028 1.40128 1.03488 0
M  V30 3678 C 346.16 2.80756 1.93362 0
M  V30 3679 H 347.353 2.99595 0.135254 0
M  V30 3680 H 344.906 1.56265 0.0330003 0
M  V30 3681 H 345.641 2.03837 2.52232 0
M  V30 3682 H 345.426 3.56876 1.62426 0
M  V30 3683 H 346.916 3.28844 2.57393 0
M  V30 3684 N 347.353 -0.0568162 1.57498 0
M  V30 3685 C 348.599 -0.75422 1.88253 0
M  V30 3686 C 348.932 -1.76461 0.810865 0
M  V30 3687 O 348.207 -1.93691 -0.177259 0
M  V30 3688 C 348.49 -1.44878 3.2967 0
M  V30 3689 C 348.343 -0.453789 4.47505 0
M  V30 3690 C 349.662 -2.38994 3.69554 0
M  V30 3691 H 346.781 -0.272724 0.684683 0
M  V30 3692 H 349.423 -0.0172113 1.89992 0
M  V30 3693 H 347.573 -2.077 3.28318 0
M  V30 3694 H 349.245 0.170371 4.60985 0
M  V30 3695 H 347.488 0.229552 4.33192 0
M  V30 3696 H 348.159 -0.977699 5.43273 0
M  V30 3697 H 350.635 -1.86239 3.72095 0
M  V30 3698 H 349.511 -2.84587 4.69363 0
M  V30 3699 H 349.772 -3.24461 3.00296 0
M  V30 3700 N 348.832 -1.54138 -0.328536 0
M  V30 3701 C 349.78 -1.83894 -1.42428 0
M  V30 3702 C 350.774 -0.710478 -1.53781 0
M  V30 3703 O 351.98 -0.894062 -1.56226 0
M  V30 3704 H 348.355 -0.582837 -0.475189 0
M  V30 3705 H 350.326 -2.75537 -1.14552 0
M  V30 3706 C 349.075 -2.07866 -2.78724 0
M  V30 3707 H 348.398 -2.94158 -2.7076 0
M  V30 3708 H 349.838 -2.32644 -3.54476 0
M  V30 3709 C 348.297 -0.868689 -3.25508 0
M  V30 3710 O 348.827 -0.0754908 -4.01629 0
M  V30 3711 N 347.033 -0.681711 -2.82491 0
M  V30 3712 H 346.58 -1.32838 -2.20708 0
M  V30 3713 H 346.538 0.126374 -3.14146 0
M  V30 3714 N 350.31 0.590341 -1.46126 0
M  V30 3715 C 351.54 1.37304 -1.54373 0
M  V30 3716 C 351.948 1.88332 -0.181071 0
M  V30 3717 O 351.291 1.63852 0.830559 0
M  V30 3718 C 351.353 2.6012 -2.48149 0
M  V30 3719 C 351.017 2.30613 -3.94546 0
M  V30 3720 C 352.014 1.89915 -4.83971 0
M  V30 3721 C 349.699 2.42993 -4.39613 0
M  V30 3722 C 351.693 1.61981 -6.16475 0
M  V30 3723 C 349.38 2.14672 -5.72153 0
M  V30 3724 C 350.378 1.7423 -6.60404 0
M  V30 3725 O 350.066 1.46251 -7.90485 0
M  V30 3726 H 349.798 0.426086 -0.524811 0
M  V30 3727 H 352.352 0.72539 -1.92165 0
M  V30 3728 H 350.582 3.27664 -2.05361 0
M  V30 3729 H 352.271 3.22182 -2.46887 0
M  V30 3730 H 353.037 1.79872 -4.50412 0
M  V30 3731 H 348.916 2.73435 -3.71153 0
M  V30 3732 H 352.46 1.30341 -6.85315 0
M  V30 3733 H 348.357 2.24337 -6.05263 0
M  V30 3734 H 349.125 1.6016 -8.02677 0
M  V30 3735 N 351.788 1.33704 0.83433 0
M  V30 3736 C 353.037 1.24763 1.58484 0
M  V30 3737 C 353.35 -0.183775 1.94735 0
M  V30 3738 O 354.556 -0.395234 2.68608 0
M  V30 3739 C 353.012 2.18638 2.85876 0
M  V30 3740 C 352.62 3.66974 2.56971 0
M  V30 3741 C 354.364 2.18581 3.63899 0
M  V30 3742 C 352.271 4.5275 3.80488 0
M  V30 3743 H 351.201 0.463425 0.594772 0
M  V30 3744 H 353.852 1.58797 0.919551 0
M  V30 3745 H 352.234 1.77542 3.5397 0
M  V30 3746 H 353.408 4.16538 1.9706 0
M  V30 3747 H 351.723 3.69366 1.92244 0
M  V30 3748 H 354.32 2.79894 4.55591 0
M  V30 3749 H 354.663 1.18207 3.99165 0
M  V30 3750 H 355.196 2.58062 3.02735 0
M  V30 3751 H 351.935 5.54017 3.5035 0
M  V30 3752 H 351.455 4.07927 4.39722 0
M  V30 3753 H 353.134 4.66784 4.4802 0
M  V30 3754 N 353.266 -1.05314 1.17247 0
M  V30 3755 C 354.543 -1.75184 0.87005 0
M  V30 3756 C 354.923 -2.01481 -0.629965 0
M  V30 3757 O 354.271 -1.64988 -1.58086 0
M  V30 3758 C 354.481 -3.04594 1.70363 0
M  V30 3759 C 355.829 -3.78567 1.92281 0
M  V30 3760 O 356.853 -3.14461 1.67311 0
M  V30 3761 O 355.712 -4.93755 2.3424 0
M  V30 3762 H 352.806 -0.761729 0.322021 0
M  V30 3763 H 355.352 -1.11493 1.27935 0
M  V30 3764 H 354.124 -2.81201 2.72106 0
M  V30 3765 H 353.747 -3.76022 1.29202 0
M  V30 3766 N 354.744 -0.972509 -1.24016 0
M  V30 3767 C 356.16 -0.679827 -1.44397 0
M  V30 3768 C 356.36 0.756716 -1.86751 0
M  V30 3769 O 355.416 1.53007 -2.00861 0
M  V30 3770 C 356.729 -1.66803 -2.50195 0
M  V30 3771 C 358.277 -1.68119 -2.64017 0
M  V30 3772 C 358.752 -2.65748 -3.73017 0
M  V30 3773 N 360.243 -2.64219 -3.8045 0
M  V30 3774 C 360.978 -3.36433 -4.64328 0
M  V30 3775 N 360.474 -4.1818 -5.52356 0
M  V30 3776 N 362.267 -3.25235 -4.58453 0
M  V30 3777 H 354.418 -1.90059 -0.948228 0
M  V30 3778 H 356.681 -0.818527 -0.478245 0
M  V30 3779 H 356.387 -2.69498 -2.25973 0
M  V30 3780 H 356.261 -1.4446 -3.48441 0
M  V30 3781 H 358.648 -0.661319 -2.87594 0
M  V30 3782 H 358.729 -1.94525 -1.66113 0
M  V30 3783 H 358.373 -3.67872 -3.50189 0
M  V30 3784 H 358.303 -2.36619 -4.70446 0
M  V30 3785 H 360.794 -2.04887 -3.17537 0
M  V30 3786 H 361.107 -4.70157 -6.13329 0
M  V30 3787 H 359.452 -4.22273 -5.52006 0
M  V30 3788 H 362.643 -2.60829 -3.88698 0
M  V30 3789 H 362.816 -3.81776 -5.23594 0
M  V30 3790 N 356.222 1.38976 -0.743202 0
M  V30 3791 C 357.469 2.00343 -0.294752 0
M  V30 3792 C 357.797 1.58983 1.12047 0
M  V30 3793 O 357.052 0.813809 1.77977 0
M  V30 3794 C 357.351 3.55647 -0.353517 0
M  V30 3795 C 357.017 4.16685 -1.72292 0
M  V30 3796 C 355.679 4.3307 -2.09771 0
M  V30 3797 C 358.031 4.50464 -2.62168 0
M  V30 3798 C 355.359 4.80526 -3.36618 0
M  V30 3799 C 357.711 4.99332 -3.88395 0
M  V30 3800 C 356.375 5.13924 -4.25956 0
M  V30 3801 H 355.645 0.733108 -0.107857 0
M  V30 3802 H 358.292 1.6618 -0.951651 0
M  V30 3803 H 356.597 3.89884 0.386954 0
M  V30 3804 H 358.294 4.00998 0.0117269 0
M  V30 3805 H 354.884 4.04339 -1.42155 0
M  V30 3806 H 359.068 4.37416 -2.3448 0
M  V30 3807 H 354.324 4.90008 -3.65653 0
M  V30 3808 H 358.498 5.2444 -4.58187 0
M  V30 3809 H 356.125 5.50457 -5.2431 0
M  V30 3810 N 357.7 0.491464 1.49741 0
M  V30 3811 C 358.63 -0.28154 2.31796 0
M  V30 3812 C 359.611 -0.971473 1.3963 0
M  V30 3813 O 360.796 -0.964719 1.68543 0
M  V30 3814 C 357.926 -1.35203 3.19902 0
M  V30 3815 C 356.88 -0.782529 4.20786 0
M  V30 3816 C 356.206 -1.95283 4.97764 0
M  V30 3817 C 357.506 0.21999 5.21837 0
M  V30 3818 H 359.2 0.403355 2.96671 0
M  V30 3819 H 356.746 0.195425 1.42668 0
M  V30 3820 H 358.699 -1.90045 3.76113 0
M  V30 3821 H 357.423 -2.06598 2.52953 0
M  V30 3822 H 356.082 -0.255928 3.65706 0
M  V30 3823 H 355.73 -2.65423 4.2727 0
M  V30 3824 H 355.43 -1.57789 5.66018 0
M  V30 3825 H 356.954 -2.50577 5.56816 0
M  V30 3826 H 358.368 -0.23996 5.72798 0
M  V30 3827 H 356.765 0.51026 5.97927 0
M  V30 3828 H 357.835 1.13911 4.7133 0
M  V30 3829 N 359.178 -1.55987 0.224894 0
M  V30 3830 C 360.403 -2.03232 -0.41369 0
M  V30 3831 C 360.828 -1.10359 -1.52323 0
M  V30 3832 O 360.186 -0.092395 -1.81064 0
M  V30 3833 C 360.234 -3.48682 -0.919405 0
M  V30 3834 O 359.338 -3.58947 -2.03054 0
M  V30 3835 H 358.679 -0.657428 -0.0931903 0
M  V30 3836 H 361.209 -2.01679 0.34451 0
M  V30 3837 H 361.219 -3.8907 -1.22835 0
M  V30 3838 H 359.894 -4.15761 -0.107339 0
M  V30 3839 H 358.471 -3.30448 -1.72796 0
M  V30 3840 N 360.656 0.0484629 -1.57525 0
M  V30 3841 C 361.881 0.759177 -1.93006 0
M  V30 3842 C 362.306 1.69125 -0.823317 0
M  V30 3843 O 361.664 1.79931 0.222364 0
M  V30 3844 C 361.712 1.50899 -3.27509 0
M  V30 3845 O 360.816 2.62112 -3.18388 0
M  V30 3846 H 360.157 0.205564 -0.631379 0
M  V30 3847 H 362.687 0.00972959 -2.04598 0
M  V30 3848 H 362.697 1.88317 -3.6194 0
M  V30 3849 H 361.372 0.825269 -4.0763 0
M  V30 3850 H 359.949 2.27379 -2.95556 0
M  V30 3851 N 362.134 1.5431 0.320358 0
M  V30 3852 C 363.067 1.78769 1.41834 0
M  V30 3853 C 364.045 0.63783 1.49568 0
M  V30 3854 O 365.229 0.875628 1.66928 0
M  V30 3855 C 362.356 1.90712 2.79905 0
M  V30 3856 C 361.402 3.13023 2.89687 0
M  V30 3857 S 362.235 4.71554 2.53766 0
M  V30 3858 C 363.391 4.86408 3.93902 0
M  V30 3859 H 363.624 2.71619 1.20874 0
M  V30 3860 H 361.157 1.45474 0.517377 0
M  V30 3861 H 363.115 1.98279 3.59438 0
M  V30 3862 H 361.776 0.988343 2.98145 0
M  V30 3863 H 360.969 3.18124 3.90913 0
M  V30 3864 H 360.571 3.03803 2.18128 0
M  V30 3865 H 362.863 4.69241 4.88691 0
M  V30 3866 H 363.806 5.88508 3.93782 0
M  V30 3867 H 364.214 4.14689 3.83005 0
M  V30 3868 N 363.613 -0.582584 1.46437 0
M  V30 3869 C 364.838 -1.37168 1.55563 0
M  V30 3870 C 365.263 -1.87061 0.19743 0
M  V30 3871 O 364.621 -1.61572 -0.822451 0
M  V30 3872 C 364.669 -2.53511 2.56446 0
M  V30 3873 O 363.773 -3.54953 2.09958 0
M  V30 3874 H 363.114 -0.408494 0.523477 0
M  V30 3875 H 365.644 -0.706646 1.9201 0
M  V30 3876 H 365.654 -3.00426 2.76058 0
M  V30 3877 H 364.329 -2.16549 3.55076 0
M  V30 3878 H 362.906 -3.14516 2.00334 0
M  V30 3879 N 365.091 -1.34144 -0.827227 0
M  V30 3880 C 366.337 -1.26446 -1.58554 0
M  V30 3881 C 366.67 0.1664 -1.93486 0
M  V30 3882 O 365.945 1.1107 -1.59667 0
M  V30 3883 C 366.228 -2.15111 -2.8879 0
M  V30 3884 C 366.081 -3.66712 -2.60465 0
M  V30 3885 C 367.4 -2.03311 -3.90324 0
M  V30 3886 H 364.519 -0.46067 -0.575284 0
M  V30 3887 H 367.161 -1.64356 -0.953269 0
M  V30 3888 H 365.311 -1.8291 -3.42748 0
M  V30 3889 H 366.983 -4.09259 -2.1285 0
M  V30 3890 H 365.226 -3.88014 -1.93978 0
M  V30 3891 H 365.897 -4.24112 -3.53317 0
M  V30 3892 H 368.373 -2.31574 -3.45706 0
M  V30 3893 H 367.249 -2.67582 -4.79261 0
M  V30 3894 H 367.51 -1.00879 -4.30437 0
M  V30 3895 N 366.569 1.04691 -1.17803 0
M  V30 3896 C 367.499 2.14494 -0.92275 0
M  V30 3897 C 368.48 1.69546 0.137179 0
M  V30 3898 O 369.665 1.94195 -0.0141108 0
M  V30 3899 C 366.795 3.44491 -0.440803 0
M  V30 3900 C 365.749 4.03031 -1.4405 0
M  V30 3901 C 365.075 5.28432 -0.81631 0
M  V30 3902 C 366.375 4.39932 -2.81527 0
M  V30 3903 H 368.069 2.36107 -1.84103 0
M  V30 3904 H 365.615 1.1347 -0.886599 0
M  V30 3905 H 367.568 4.2066 -0.249602 0
M  V30 3906 H 366.292 3.22546 0.513025 0
M  V30 3907 H 364.951 3.28937 -1.61853 0
M  V30 3908 H 364.599 5.02792 0.144511 0
M  V30 3909 H 364.299 5.68559 -1.48371 0
M  V30 3910 H 365.823 6.07284 -0.635496 0
M  V30 3911 H 367.237 5.07113 -2.67412 0
M  V30 3912 H 365.634 4.9109 -3.44892 0
M  V30 3913 H 366.704 3.50045 -3.35554 0
M  V30 3914 N 368.047 0.979072 1.23499 0
M  V30 3915 C 369.463 0.687475 1.44034 0
M  V30 3916 C 369.663 -0.746801 1.8715 0
M  V30 3917 O 368.719 -1.51939 2.0167 0
M  V30 3918 C 370.032 1.68127 2.49307 0
M  V30 3919 C 371.58 1.69516 2.63122 0
M  V30 3920 C 372.055 2.67723 3.71603 0
M  V30 3921 N 373.546 2.66233 3.79044 0
M  V30 3922 C 374.281 3.38891 4.62537 0
M  V30 3923 N 373.777 4.21103 5.50131 0
M  V30 3924 N 375.57 3.27661 4.56721 0
M  V30 3925 H 367.721 1.90559 0.938135 0
M  V30 3926 H 369.984 0.821051 0.473897 0
M  V30 3927 H 369.69 2.70693 2.2454 0
M  V30 3928 H 369.564 1.46306 3.4767 0
M  V30 3929 H 371.951 0.676561 2.8724 0
M  V30 3930 H 372.032 1.95404 1.65079 0
M  V30 3931 H 371.676 3.69724 3.48233 0
M  V30 3932 H 371.606 2.39111 4.69184 0
M  V30 3933 H 374.097 2.06568 3.16446 0
M  V30 3934 H 374.41 4.73403 6.10827 0
M  V30 3935 H 372.755 4.25195 5.49759 0
M  V30 3936 H 375.946 2.62887 3.87309 0
M  V30 3937 H 376.119 3.84547 5.21562 0
M  V30 3938 N 369.525 -1.3858 0.750561 0
M  V30 3939 C 370.773 -1.99789 0.30477 0
M  V30 3940 C 371.094 -1.59874 -1.11649 0
M  V30 3941 O 370.364 -0.85417 -1.76297 0
M  V30 3942 H 368.944 -0.738902 0.109694 0
M  V30 3943 H 371.606 -1.69391 0.963983 0
M  V30 3944 H 370.702 -3.09952 0.365499 0
M  V30 3945 N 371.003 -0.499398 -1.49478 0
M  V30 3946 C 371.95 0.279881 -2.29097 0
M  V30 3947 C 372.92 0.961805 -1.3542 0
M  V30 3948 O 374.105 0.968777 -1.64376 0
M  V30 3949 C 371.245 1.33932 -3.18051 0
M  V30 3950 C 370.358 0.669333 -4.26783 0
M  V30 3951 C 369.493 1.70907 -5.02955 0
M  V30 3952 C 368.532 1.02087 -6.03527 0
M  V30 3953 N 367.669 2.00474 -6.7287 0
M  V30 3954 H 372.509 -0.405317 -2.95231 0
M  V30 3955 H 370.046 -0.211726 -1.45568 0
M  V30 3956 H 372.004 1.96553 -3.67998 0
M  V30 3957 H 370.634 1.9933 -2.53904 0
M  V30 3958 H 369.686 -0.0701234 -3.80335 0
M  V30 3959 H 370.998 0.127503 -4.98637 0
M  V30 3960 H 370.152 2.41037 -5.56764 0
M  V30 3961 H 368.891 2.28476 -4.30871 0
M  V30 3962 H 367.896 0.305338 -5.48951 0
M  V30 3963 H 369.121 0.451708 -6.77596 0
M  V30 3964 H 367.067 2.57007 -6.03559 0
M  V30 3965 H 366.984 1.51353 -7.40694 0
M  V30 3966 H 368.252 2.69897 -7.31284 0
M  V30 3967 N 372.481 1.55866 -0.233164 0
M  V30 3968 C 373.411 2.23783 0.666599 0
M  V30 3969 C 374.392 1.21343 1.19205 0
M  V30 3970 O 375.577 1.4996 1.23392 0
M  V30 3971 C 372.707 2.92671 1.86978 0
M  V30 3972 C 371.661 4.01682 1.47768 0
M  V30 3973 C 370.987 4.57926 2.76058 0
M  V30 3974 C 372.287 5.18126 0.658993 0
M  V30 3975 H 373.981 2.99232 0.100306 0
M  V30 3976 H 371.527 1.43924 0.046804 0
M  V30 3977 H 373.48 3.3888 2.50476 0
M  V30 3978 H 372.204 2.14688 2.46123 0
M  V30 3979 H 370.863 3.56222 0.866106 0
M  V30 3980 H 370.511 3.76659 3.33372 0
M  V30 3981 H 370.211 5.31505 2.50552 0
M  V30 3982 H 371.735 5.06859 3.40479 0
M  V30 3983 H 373.149 5.60644 1.19795 0
M  V30 3984 H 371.546 5.98009 0.500552 0
M  V30 3985 H 372.616 4.83763 -0.331856 0
M  V30 3986 N 373.959 -0.0401083 1.57549 0
M  V30 3987 C 374.891 -1.07149 2.02612 0
M  V30 3988 C 375.904 -1.33126 0.937085 0
M  V30 3989 O 377.093 -1.30808 1.21456 0
M  V30 3990 C 374.193 -2.41561 2.37701 0
M  V30 3991 C 373.366 -2.35096 3.68848 0
M  V30 3992 C 372.425 -3.51867 3.91249 0
M  V30 3993 O 371.451 -3.3186 4.62447 0
M  V30 3994 N 372.653 -4.73351 3.36035 0
M  V30 3995 H 375.418 -0.687485 2.91708 0
M  V30 3996 H 372.979 -0.228248 1.60283 0
M  V30 3997 H 374.971 -3.18379 2.49833 0
M  V30 3998 H 373.541 -2.71846 1.54332 0
M  V30 3999 H 372.761 -1.4345 3.67173 0
M  V30 4000 H 374.049 -2.27908 4.54901 0
M  V30 4001 H 373.447 -4.92507 2.78304 0
M  V30 4002 H 372.004 -5.47572 3.53565 0
M  V30 4003 N 375.437 -1.54477 -0.31217 0
M  V30 4004 C 376.367 -1.87652 -1.38957 0
M  V30 4005 C 377.348 -0.734358 -1.53431 0
M  V30 4006 O 378.533 -0.98911 -1.67123 0
M  V30 4007 C 375.663 -2.11396 -2.75552 0
M  V30 4008 C 374.617 -3.27243 -2.75855 0
M  V30 4009 C 373.943 -3.36382 -4.15633 0
M  V30 4010 C 375.243 -4.64622 -2.38587 0
M  V30 4011 H 376.937 -2.77887 -1.11442 0
M  V30 4012 H 374.483 -1.33707 -0.534655 0
M  V30 4013 H 376.436 -2.33189 -3.51 0
M  V30 4014 H 375.16 -1.17921 -3.04569 0
M  V30 4015 H 373.819 -3.05356 -2.02863 0
M  V30 4016 H 373.467 -2.40445 -4.41809 0
M  V30 4017 H 373.167 -4.14249 -4.1674 0
M  V30 4018 H 374.691 -3.60422 -4.92877 0
M  V30 4019 H 376.105 -4.86219 -3.03749 0
M  V30 4020 H 374.502 -5.45121 -2.50925 0
M  V30 4021 H 375.572 -4.66097 -1.33723 0
M  V30 4022 N 376.915 0.57481 -1.46744 0
M  V30 4023 C 378.161 1.3347 -1.52688 0
M  V30 4024 C 378.494 1.93353 -0.181229 0
M  V30 4025 O 377.769 1.76912 0.808237 0
M  V30 4026 C 378.052 2.45811 -2.63152 0
M  V30 4027 C 377.905 1.90912 -4.07275 0
M  V30 4028 C 379.224 3.47822 -2.69644 0
M  V30 4029 H 376.343 0.483935 -0.555856 0
M  V30 4030 H 378.985 0.644968 -1.78718 0
M  V30 4031 H 377.135 3.04646 -2.41088 0
M  V30 4032 H 378.807 1.36473 -4.4065 0
M  V30 4033 H 377.05 1.21691 -4.16382 0
M  V30 4034 H 377.721 2.72042 -4.80309 0
M  V30 4035 H 380.197 2.9888 -2.895 0
M  V30 4036 H 379.073 4.23876 -3.48742 0
M  V30 4037 H 379.334 4.05555 -1.76005 0
M  V30 4038 N 378.394 1.34581 0.820102 0
M  V30 4039 C 379.642 1.26845 1.57336 0
M  V30 4040 C 379.963 -0.160667 1.94337 0
M  V30 4041 O 379.233 -1.09396 1.6251 0
M  V30 4042 H 377.813 0.466514 0.583415 0
M  V30 4043 H 380.475 1.68526 0.979027 0
M  V30 4044 H 379.571 1.87513 2.4949 0
M  V30 4045 N 379.872 -1.04064 1.18357 0
M  V30 4046 C 381.1 -1.80916 1.00384 0
M  V30 4047 C 381.515 -1.83414 -0.447738 0
M  V30 4048 O 380.872 -1.26962 -1.31099 0
M  V30 4049 C 380.923 -3.26516 1.55144 0
M  V30 4050 O 380.644 -3.2424 2.94618 0
M  V30 4051 C 382.145 -4.20013 1.41789 0
M  V30 4052 H 379.365 -0.569728 0.354474 0
M  V30 4053 H 381.909 -1.31151 1.56906 0
M  V30 4054 H 380.064 -3.73512 1.02798 0
M  V30 4055 H 380.478 -4.15452 3.20156 0
M  V30 4056 H 381.952 -5.20111 1.84901 0
M  V30 4057 H 382.429 -4.37667 0.36661 0
M  V30 4058 H 383.035 -3.78881 1.93207 0
M  V30 4059 N 381.35 -0.985608 -1.22978 0
M  V30 4060 C 382.313 -0.535071 -2.22867 0
M  V30 4061 C 383.313 0.378123 -1.56291 0
M  V30 4062 O 384.503 0.171092 -1.73358 0
M  V30 4063 C 381.635 0.222702 -3.40172 0
M  V30 4064 H 382.828 -1.41835 -2.6424 0
M  V30 4065 H 380.381 -0.772042 -1.35901 0
M  V30 4066 H 381.116 1.12229 -3.04262 0
M  V30 4067 H 380.901 -0.43288 -3.89703 0
M  V30 4068 H 382.391 0.526335 -4.1427 0
M  V30 4069 N 382.828 1.3818 -0.7579 0
M  V30 4070 C 383.791 2.28764 -0.141286 0
M  V30 4071 C 384.791 1.47388 0.642907 0
M  V30 4072 O 385.981 1.67781 0.468536 0
M  V30 4073 C 383.113 3.31184 0.808069 0
M  V30 4074 H 384.306 2.848 -0.939633 0
M  V30 4075 H 381.859 1.47212 -0.525191 0
M  V30 4076 H 382.594 2.80247 1.63193 0
M  V30 4077 H 382.379 3.91314 0.248104 0
M  V30 4078 H 383.869 3.98909 1.23536 0
M  V30 4079 N 384.306 0.507319 1.49211 0
M  V30 4080 C 385.239 -0.314509 2.26022 0
M  V30 4081 C 386.217 -0.964849 1.30879 0
M  V30 4082 O 387.401 -0.993707 1.6018 0
M  V30 4083 C 384.528 -1.44346 3.06402 0
M  V30 4084 C 383.574 -0.90685 4.16748 0
M  V30 4085 S 384.407 0.207392 5.35098 0
M  V30 4086 C 385.563 -0.924573 6.19033 0
M  V30 4087 H 385.796 0.337416 2.95379 0
M  V30 4088 H 383.329 0.292718 1.516 0
M  V30 4089 H 385.287 -2.09029 3.53295 0
M  V30 4090 H 383.948 -2.06702 2.36502 0
M  V30 4091 H 383.141 -1.75309 4.72528 0
M  V30 4092 H 382.743 -0.33712 3.72478 0
M  V30 4093 H 385.035 -1.82839 6.52362 0
M  V30 4094 H 385.978 -0.405248 7.06939 0
M  V30 4095 H 386.386 -1.19476 5.51712 0
M  V30 4096 N 385.784 -1.5574 0.241426 0
M  V30 4097 C 386.714 -2.24133 -0.654722 0
M  V30 4098 C 387.695 -1.21974 -1.1856 0
M  V30 4099 O 388.88 -1.50612 -1.22595 0
M  V30 4100 C 386.01 -2.93659 -1.85423 0
M  V30 4101 C 384.964 -4.0246 -1.45636 0
M  V30 4102 C 384.29 -4.59383 -2.73626 0
M  V30 4103 C 385.59 -5.18468 -0.631506 0
M  V30 4104 H 387.284 -2.99281 -0.0844353 0
M  V30 4105 H 384.83 -1.43947 -0.0391707 0
M  V30 4106 H 386.783 -3.40203 -2.48676 0
M  V30 4107 H 385.507 -2.15991 -2.44981 0
M  V30 4108 H 384.166 -3.56676 -0.847202 0
M  V30 4109 H 383.814 -3.78422 -3.3137 0
M  V30 4110 H 383.514 -5.32826 -2.4773 0
M  V30 4111 H 385.038 -5.08658 -3.37786 0
M  V30 4112 H 386.452 -5.61272 -1.1682 0
M  V30 4113 H 384.849 -5.98266 -0.468831 0
M  V30 4114 H 385.919 -4.8358 0.357506 0
M  V30 4115 N 387.262 0.0317525 -1.57568 0
M  V30 4116 C 388.192 1.03274 -2.0942 0
M  V30 4117 C 389.173 1.3788 -0.996143 0
M  V30 4118 O 390.358 1.46811 -1.27122 0
M  V30 4119 C 387.488 2.33448 -2.57137 0
M  V30 4120 C 386.442 2.13091 -3.71182 0
M  V30 4121 C 385.768 3.49001 -4.05095 0
M  V30 4122 C 387.068 1.51928 -4.99715 0
M  V30 4123 H 388.762 0.60112 -2.93303 0
M  V30 4124 H 386.308 0.287705 -1.41097 0
M  V30 4125 H 388.261 3.03802 -2.92032 0
M  V30 4126 H 386.985 2.78665 -1.70333 0
M  V30 4127 H 385.644 1.45171 -3.36632 0
M  V30 4128 H 385.292 3.91862 -3.15362 0
M  V30 4129 H 384.992 3.36207 -4.81911 0
M  V30 4130 H 386.516 4.20721 -4.42522 0
M  V30 4131 H 387.93 2.12196 -5.32584 0
M  V30 4132 H 386.327 1.49716 -5.81124 0
M  V30 4133 H 387.397 0.484811 -4.8247 0
M  V30 4134 N 388.74 1.54641 0.303973 0
M  V30 4135 C 389.703 1.84646 1.35789 0
M  V30 4136 C 390.703 0.7192 1.4382 0
M  V30 4137 O 391.893 0.987491 1.43507 0
M  V30 4138 C 389.025 2.02407 2.74307 0
M  V30 4139 H 390.218 2.78829 1.10429 0
M  V30 4140 H 387.771 1.46658 0.540487 0
M  V30 4141 H 388.506 1.10502 3.04893 0
M  V30 4142 H 388.291 2.84453 2.69868 0
M  V30 4143 H 389.781 2.27002 3.50514 0
M  V30 4144 N 390.218 -0.567019 1.47046 0
M  V30 4145 C 391.443 -1.3551 1.57009 0
M  V30 4146 C 391.868 -1.86841 0.217259 0
M  V30 4147 O 391.226 -1.62435 -0.805268 0
M  V30 4148 C 391.274 -2.50777 2.5912 0
M  V30 4149 O 390.378 -3.52706 2.13711 0
M  V30 4150 H 389.719 -0.402919 0.52778 0
M  V30 4151 H 392.249 -0.686241 1.92748 0
M  V30 4152 H 392.259 -2.97481 2.79229 0
M  V30 4153 H 390.934 -2.12771 3.57353 0
M  V30 4154 H 389.511 -3.12374 2.03659 0
M  V30 4155 N 391.696 -1.35014 -0.812953 0
M  V30 4156 C 392.643 -1.27412 -1.92444 0
M  V30 4157 C 393.613 -0.14733 -1.65445 0
M  V30 4158 O 394.798 -0.329974 -1.87925 0
M  V30 4159 C 391.938 -1.04558 -3.28879 0
M  V30 4160 C 391.051 -2.26101 -3.68106 0
M  V30 4161 C 390.186 -1.96449 -4.9354 0
M  V30 4162 C 389.225 -3.14081 -5.25376 0
M  V30 4163 N 388.362 -2.84246 -6.41988 0
M  V30 4164 H 393.202 -2.22463 -1.98278 0
M  V30 4165 H 390.739 -1.10593 -0.969933 0
M  V30 4166 H 392.697 -0.893413 -4.07522 0
M  V30 4167 H 391.327 -0.131719 -3.22531 0
M  V30 4168 H 390.379 -2.52204 -2.84775 0
M  V30 4169 H 391.691 -3.13959 -3.87597 0
M  V30 4170 H 390.845 -1.78026 -5.79993 0
M  V30 4171 H 389.584 -1.05867 -4.76071 0
M  V30 4172 H 388.589 -3.33089 -4.37415 0
M  V30 4173 H 389.814 -4.05455 -5.44778 0
M  V30 4174 H 387.76 -1.96252 -6.25956 0
M  V30 4175 H 387.677 -3.65637 -6.61699 0
M  V30 4176 H 388.945 -2.6935 -7.31485 0
M  V30 4177 N 393.175 1.03435 -1.18907 0
M  V30 4178 C 394.422 1.76743 -0.988334 0
M  V30 4179 C 394.75 1.88447 0.481441 0
M  V30 4180 O 394.005 1.39383 1.37371 0
M  V30 4181 C 394.304 3.19792 -1.59586 0
M  V30 4182 C 393.97 3.28108 -3.09283 0
M  V30 4183 C 392.632 3.30084 -3.5014 0
M  V30 4184 C 394.984 3.27696 -4.05296 0
M  V30 4185 C 392.312 3.29299 -4.85571 0
M  V30 4186 C 394.664 3.28451 -5.4065 0
M  V30 4187 C 393.328 3.28723 -5.80946 0
M  V30 4188 H 392.598 0.64675 -0.361657 0
M  V30 4189 H 395.245 1.21442 -1.48068 0
M  V30 4190 H 393.55 3.78136 -1.02568 0
M  V30 4191 H 395.247 3.75171 -1.41589 0
M  V30 4192 H 391.837 3.27294 -2.76725 0
M  V30 4193 H 396.021 3.25354 -3.74778 0
M  V30 4194 H 391.277 3.2783 -5.16079 0
M  V30 4195 H 395.451 3.27082 -6.14809 0
M  V30 4196 H 393.078 3.27868 -6.85862 0
M  V30 4197 N 394.653 0.992116 1.22453 0
M  V30 4198 C 395.563 0.55065 2.28046 0
M  V30 4199 C 396.579 -0.400189 1.69335 0
M  V30 4200 O 397.755 -0.267215 1.99619 0
M  V30 4201 C 394.82 -0.128496 3.46462 0
M  V30 4202 C 393.881 0.865208 4.20491 0
M  V30 4203 C 393.114 0.218377 5.33253 0
M  V30 4204 O 393.337 -0.987894 5.6178 0
M  V30 4205 O 392.271 0.922845 5.94783 0
M  V30 4206 H 396.097 1.4291 2.67975 0
M  V30 4207 H 393.682 0.760326 1.28606 0
M  V30 4208 H 395.564 -0.508947 4.18315 0
M  V30 4209 H 394.239 -0.981526 3.0846 0
M  V30 4210 H 393.146 1.29658 3.50913 0
M  V30 4211 H 394.479 1.68741 4.62371 0
M  V30 4212 N 396.131 -1.37776 0.765217 0
M  V30 4213 C 397.041 -2.34135 0.147666 0
M  V30 4214 C 398.057 -1.59854 -0.687215 0
M  V30 4215 O 399.233 -1.91983 -0.608659 0
M  V30 4216 C 396.298 -3.3901 -0.72617 0
M  V30 4217 C 395.359 -4.2912 0.124417 0
M  V30 4218 C 394.592 -5.28986 -0.707807 0
M  V30 4219 O 394.815 -5.36205 -1.94525 0
M  V30 4220 O 393.749 -6.01779 -0.12046 0
M  V30 4221 H 397.575 -2.88664 0.943758 0
M  V30 4222 H 395.16 -1.39824 0.526277 0
M  V30 4223 H 397.042 -4.03195 -1.22524 0
M  V30 4224 H 395.717 -2.86819 -1.50056 0
M  V30 4225 H 394.624 -3.68057 0.669696 0
M  V30 4226 H 395.957 -4.84598 0.861736 0
M  V30 4227 N 397.609 -0.515225 -1.4894 0
M  V30 4228 C 398.858 0.0261361 -2.01683 0
M  V30 4229 C 399.171 1.36719 -1.39883 0
M  V30 4230 O 400.377 1.99606 -1.84037 0
M  V30 4231 C 398.833 0.0970111 -3.59769 0
M  V30 4232 C 398.441 -1.23825 -4.30548 0
M  V30 4233 C 400.185 0.587981 -4.20408 0
M  V30 4234 C 398.092 -1.12877 -5.80528 0
M  V30 4235 H 397.022 0.0135398 -0.753878 0
M  V30 4236 H 399.673 -0.656787 -1.71343 0
M  V30 4237 H 398.055 0.844694 -3.86886 0
M  V30 4238 H 399.229 -2.00034 -4.15118 0
M  V30 4239 H 397.544 -1.66379 -3.81716 0
M  V30 4240 H 400.141 0.68763 -5.3026 0
M  V30 4241 H 400.484 1.59026 -3.84729 0
M  V30 4242 H 401.017 -0.103582 -3.97665 0
M  V30 4243 H 397.756 -2.10575 -6.20756 0
M  V30 4244 H 397.276 -0.407799 -5.98412 0
M  V30 4245 H 398.955 -0.813332 -6.41868 0
M  V30 4246 N 399.087 1.5561 -0.249682 0
M  V30 4247 C 400.317 2.03116 0.377803 0
M  V30 4248 C 400.725 1.12822 1.51881 0
M  V30 4249 O 400.068 0.13562 1.83199 0
M  V30 4250 C 400.13 3.46866 0.944693 0
M  V30 4251 C 399.794 4.56955 -0.0644259 0
M  V30 4252 C 400.791 5.12485 -0.874957 0
M  V30 4253 C 398.476 5.01936 -0.19132 0
M  V30 4254 C 400.47 6.11491 -1.79881 0
M  V30 4255 C 398.157 6.00773 -1.11868 0
M  V30 4256 C 399.155 6.5543 -1.92095 0
M  V30 4257 O 398.843 7.5234 -2.83267 0
M  V30 4258 H 398.575 0.669489 0.0935961 0
M  V30 4259 H 401.129 2.02004 -0.371966 0
M  V30 4260 H 399.359 3.45136 1.74407 0
M  V30 4261 H 401.048 3.77856 1.48255 0
M  V30 4262 H 401.814 4.78564 -0.787523 0
M  V30 4263 H 397.693 4.59055 0.423072 0
M  V30 4264 H 401.237 6.54078 -2.42543 0
M  V30 4265 H 397.134 6.34114 -1.20703 0
M  V30 4266 H 397.902 7.69966 -2.7766 0
M  V30 4267 N 400.565 -0.0233959 1.57583 0
M  V30 4268 C 401.976 -0.56927 1.77809 0
M  V30 4269 C 402.327 -1.75284 0.881472 0
M  V30 4270 O 401.452 -2.1626 0.0777805 0
M  V30 4271 C 402.047 -1.03949 3.22459 0
M  V30 4272 C 400.606 -1.53084 3.43864 0
M  V30 4273 C 399.753 -0.471454 2.73263 0
M  V30 4274 H 402.704 0.202825 1.57399 0
M  V30 4275 H 402.725 -1.90661 3.29285 0
M  V30 4276 H 402.237 -0.177865 3.87692 0
M  V30 4277 H 400.338 -2.41414 2.83814 0
M  V30 4278 H 400.451 -1.57443 4.52491 0
M  V30 4279 H 398.815 -0.927788 2.37201 0
M  V30 4280 H 399.598 0.380808 3.41181 0
M  V30 4281 N 402.043 -1.548 -0.295768 0
M  V30 4282 C 403.454 -1.65274 -0.868411 0
M  V30 4283 C 403.805 -0.56481 -1.87894 0
M  V30 4284 O 402.93 0.29767 -2.14343 0
M  V30 4285 C 403.525 -2.99603 -1.58188 0
M  V30 4286 C 402.084 -3.12181 -2.10286 0
M  V30 4287 C 401.231 -2.6098 -0.93727 0
M  V30 4288 H 404.182 -1.58534 -0.0726422 0
M  V30 4289 H 404.203 -2.91319 -2.44772 0
M  V30 4290 H 403.715 -3.78764 -0.846151 0
M  V30 4291 H 401.816 -2.3775 -2.8689 0
M  V30 4292 H 401.929 -4.18415 -2.33379 0
M  V30 4293 H 400.293 -2.17564 -1.32431 0
M  V30 4294 H 401.076 -3.42623 -0.215414 0
M  V30 4295 N 403.521 0.559213 -1.47345 0
M  V30 4296 C 404.431 1.69388 -1.62311 0
M  V30 4297 C 405.447 1.6648 -0.505993 0
M  V30 4298 O 406.623 1.85964 -0.773262 0
M  V30 4299 C 403.688 3.05894 -1.63185 0
M  V30 4300 C 402.749 3.19885 -2.86307 0
M  V30 4301 C 401.982 4.49879 -2.87131 0
M  V30 4302 O 402.205 5.35217 -1.97229 0
M  V30 4303 O 401.139 4.67618 -3.78968 0
M  V30 4304 H 404.965 1.59706 -2.58317 0
M  V30 4305 H 402.55 0.728989 -1.30407 0
M  V30 4306 H 404.432 3.87133 -1.66451 0
M  V30 4307 H 403.107 3.15964 -0.70345 0
M  V30 4308 H 402.014 2.38052 -2.88587 0
M  V30 4309 H 403.347 3.14718 -3.78435 0
M  V30 4310 N 404.999 1.35443 0.805782 0
M  V30 4311 C 406.245 1.28952 1.56522 0
M  V30 4312 C 406.578 -0.135597 1.93726 0
M  V30 4313 O 405.853 -1.08516 1.61414 0
M  V30 4314 C 406.136 2.19678 2.85331 0
M  V30 4315 C 405.989 3.7081 2.54598 0
M  V30 4316 C 407.308 2.09495 3.8704 0
M  V30 4317 H 404.427 0.469764 0.567883 0
M  V30 4318 H 407.069 1.65851 0.927001 0
M  V30 4319 H 405.219 1.8834 3.39795 0
M  V30 4320 H 406.891 4.12593 2.06312 0
M  V30 4321 H 405.134 3.91051 1.8778 0
M  V30 4322 H 405.805 4.29679 3.46525 0
M  V30 4323 H 408.281 2.37045 3.41978 0
M  V30 4324 H 407.157 2.75173 4.74943 0
M  V30 4325 H 407.418 1.07714 4.28777 0
M  V30 4326 N 406.477 -1.02803 1.19454 0
M  V30 4327 C 407.44 -2.09264 0.934955 0
M  V30 4328 C 408.44 -1.60576 -0.0849015 0
M  V30 4329 O 409.63 -1.73554 0.149933 0
M  V30 4330 C 406.762 -3.38482 0.40531 0
M  V30 4331 H 407.955 -2.33726 1.87916 0
M  V30 4332 H 405.508 -1.19426 1.00832 0
M  V30 4333 H 406.243 -3.19689 -0.544899 0
M  V30 4334 H 406.028 -3.75142 1.14065 0
M  V30 4335 H 407.518 -4.16894 0.242806 0
M  V30 4336 N 407.956 -0.998596 -1.21925 0
M  V30 4337 C 408.866 -0.562736 -2.27751 0
M  V30 4338 C 409.882 0.391203 -1.69545 0
M  V30 4339 O 411.058 0.256625 -1.99758 0
M  V30 4340 C 408.123 0.11012 -3.46525 0
M  V30 4341 C 407.184 -0.887495 -4.20026 0
M  V30 4342 C 406.417 -0.246654 -5.3313 0
M  V30 4343 O 406.64 0.958088 -5.62296 0
M  V30 4344 O 405.574 -0.954374 -5.94286 0
M  V30 4345 H 409.4 -1.44329 -2.67213 0
M  V30 4346 H 406.985 -0.767135 -1.28201 0
M  V30 4347 H 408.867 0.486756 -4.18579 0
M  V30 4348 H 407.542 0.965154 -3.08976 0
M  V30 4349 H 406.449 -1.31517 -3.5022 0
M  V30 4350 H 407.782 -1.71191 -4.6147 0
M  V30 4351 N 409.434 1.37368 -0.772513 0
M  V30 4352 C 410.681 1.99673 -0.337182 0
M  V30 4353 C 411.009 1.61324 1.0865 0
M  V30 4354 O 410.264 0.851377 1.7621 0
M  V30 4355 C 410.563 3.54817 -0.428876 0
M  V30 4356 C 410.229 4.12936 -1.81092 0
M  V30 4357 C 408.891 4.28523 -2.1891 0
M  V30 4358 C 411.243 4.44801 -2.71664 0
M  V30 4359 C 408.571 4.73277 -3.46735 0
M  V30 4360 C 410.923 4.90981 -3.98899 0
M  V30 4361 C 409.587 5.04773 -4.36761 0
M  V30 4362 H 408.857 0.730656 -0.123384 0
M  V30 4363 H 411.504 1.64124 -0.986686 0
M  V30 4364 H 409.809 3.90618 0.304167 0
M  V30 4365 H 411.506 4.00933 -0.0733334 0
M  V30 4366 H 408.096 4.01233 -1.50699 0
M  V30 4367 H 412.28 4.32344 -2.43706 0
M  V30 4368 H 407.536 4.82142 -3.75964 0
M  V30 4369 H 411.71 5.14603 -4.69208 0
M  V30 4370 H 409.337 5.39211 -5.35868 0
M  V30 4371 N 410.912 0.523116 1.48665 0
M  V30 4372 C 412.158 -0.0134963 2.02796 0
M  V30 4373 C 412.491 -1.34582 1.40004 0
M  V30 4374 O 411.766 -1.86756 0.543381 0
M  V30 4375 C 412.049 -0.14276 3.59817 0
M  V30 4376 C 411.902 1.21425 4.331 0
M  V30 4377 C 413.221 -0.872856 4.31357 0
M  V30 4378 H 410.34 -0.00343074 0.736992 0
M  V30 4379 H 412.982 0.678816 1.7746 0
M  V30 4380 H 411.132 -0.732401 3.81534 0
M  V30 4381 H 412.804 1.84447 4.2282 0
M  V30 4382 H 411.047 1.79791 3.94788 0
M  V30 4383 H 411.718 1.07687 5.41394 0
M  V30 4384 H 414.194 -0.372555 4.14429 0
M  V30 4385 H 413.07 -0.932185 5.40927 0
M  V30 4386 H 413.331 -1.92161 3.98154 0
M  V30 4387 N 412.39 -1.55475 0.257931 0
M  V30 4388 C 413.62 -2.03314 -0.367026 0
M  V30 4389 C 414.028 -1.13625 -1.51281 0
M  V30 4390 O 413.371 -0.145334 -1.83124 0
M  V30 4391 C 413.433 -3.47362 -0.926284 0
M  V30 4392 C 413.097 -4.56914 0.0886584 0
M  V30 4393 C 414.094 -5.12013 0.902123 0
M  V30 4394 C 411.779 -5.01827 0.217936 0
M  V30 4395 C 413.773 -6.10529 1.83122 0
M  V30 4396 C 411.46 -6.00172 1.15052 0
M  V30 4397 C 412.458 -6.54402 1.95568 0
M  V30 4398 O 412.146 -7.50827 2.87253 0
M  V30 4399 H 411.878 -0.669976 -0.0900443 0
M  V30 4400 H 414.432 -2.01804 0.382673 0
M  V30 4401 H 412.662 -3.46056 -1.72575 0
M  V30 4402 H 414.351 -3.78637 -1.46249 0
M  V30 4403 H 415.117 -4.78139 0.812891 0
M  V30 4404 H 410.996 -4.59272 -0.398721 0
M  V30 4405 H 414.54 -6.52783 2.46008 0
M  V30 4406 H 410.437 -6.33465 1.24064 0
M  V30 4407 H 411.205 -7.68483 2.81739 0
M  V30 4408 N 413.868 0.0150385 -1.57593 0
M  V30 4409 C 415.117 0.702115 -1.89085 0
M  V30 4410 C 415.43 1.75764 -0.858277 0
M  V30 4411 O 416.636 2.49829 -1.0629 0
M  V30 4412 C 415.092 1.29992 -3.35604 0
M  V30 4413 C 414.7 0.280007 -4.47124 0
M  V30 4414 C 416.444 1.96606 -3.76227 0
M  V30 4415 C 414.351 0.886949 -5.84711 0
M  V30 4416 H 413.281 0.265997 -0.705522 0
M  V30 4417 H 415.932 -0.0430408 -1.8345 0
M  V30 4418 H 414.314 2.09525 -3.36029 0
M  V30 4419 H 415.488 -0.489631 -4.58191 0
M  V30 4420 H 413.803 -0.284835 -4.15425 0
M  V30 4421 H 416.4 2.42893 -4.76347 0
M  V30 4422 H 416.743 2.79024 -3.08952 0
M  V30 4423 H 417.276 1.23828 -3.78036 0
M  V30 4424 H 414.015 0.101876 -6.55421 0
M  V30 4425 H 413.535 1.6261 -5.77337 0
M  V30 4426 H 415.214 1.39011 -6.3189 0
M  V30 4427 N 415.346 1.54954 0.287554 0
M  V30 4428 C 416.574 1.78881 1.03967 0
M  V30 4429 C 416.989 0.554894 1.80462 0
M  V30 4430 O 416.346 -0.475676 1.76192 0
M  V30 4431 C 416.397 3.00488 2.0097 0
M  V30 4432 O 416.118 4.19113 1.27577 0
M  V30 4433 C 417.619 3.36907 2.88112 0
M  V30 4434 H 414.839 0.596259 0.307761 0
M  V30 4435 H 417.383 2.01937 0.322749 0
M  V30 4436 H 415.538 2.79601 2.68145 0
M  V30 4437 H 415.952 4.87765 1.92835 0
M  V30 4438 H 417.426 4.25205 3.52001 0
M  V30 4439 H 417.903 2.55659 3.57121 0
M  V30 4440 H 418.509 3.60001 2.26449 0
M  V30 4441 N 416.824 -0.551391 1.4764 0
M  V30 4442 C 418.101 -1.31229 1.45046 0
M  V30 4443 C 418.481 -2.10563 0.150527 0
M  V30 4444 O 417.829 -2.11374 -0.867956 0
M  V30 4445 C 418.039 -2.21189 2.69956 0
M  V30 4446 C 419.387 -2.82021 3.1741 0
M  V30 4447 O 420.411 -2.31488 2.70724 0
M  V30 4448 O 419.27 -3.73885 3.98588 0
M  V30 4449 H 416.364 -0.591193 0.578291 0
M  V30 4450 H 418.91 -0.569813 1.59847 0
M  V30 4451 H 417.682 -1.62207 3.56096 0
M  V30 4452 H 417.305 -3.02722 2.57769 0
M  V30 4453 N 418.302 -1.35869 -0.798587 0
M  V30 4454 C 419.579 -1.20145 -1.54352 0
M  V30 4455 C 419.959 0.216161 -2.0999 0
M  V30 4456 O 419.307 1.22068 -1.93162 0
M  V30 4457 C 419.517 -2.27602 -2.64572 0
M  V30 4458 C 420.865 -2.63811 -3.32699 0
M  V30 4459 O 421.889 -2.26576 -2.74849 0
M  V30 4460 O 420.748 -3.27866 -4.37226 0
M  V30 4461 H 417.842 -0.467248 -0.682355 0
M  V30 4462 H 420.388 -1.47574 -0.837859 0
M  V30 4463 H 419.16 -3.2265 -2.21388 0
M  V30 4464 H 418.783 -2.01488 -3.42766 0
M  V30 4465 N 419.78 1.02168 -1.19998 0
M  V30 4466 C 421.008 1.79296 -1.03249 0
M  V30 4467 C 421.423 1.84103 0.418502 0
M  V30 4468 O 420.78 1.29031 1.29063 0
M  V30 4469 C 420.831 3.24007 -1.60319 0
M  V30 4470 O 420.552 3.19512 -2.99739 0
M  V30 4471 C 422.053 4.17704 -1.48453 0
M  V30 4472 H 419.273 0.564016 -0.363493 0
M  V30 4473 H 421.817 1.28639 -1.58973 0
M  V30 4474 H 419.972 3.7183 -1.08727 0
M  V30 4475 H 420.386 4.10306 -3.26725 0
M  V30 4476 H 421.86 5.17104 -1.93153 0
M  V30 4477 H 422.337 4.37029 -0.436193 0
M  V30 4478 H 422.943 3.7576 -1.99211 0
M  V30 4479 N 421.258 1.00505 1.21394 0
M  V30 4480 C 422.488 0.705584 1.94178 0
M  V30 4481 C 422.896 -0.735846 1.74304 0
M  V30 4482 O 422.239 -1.50954 1.04683 0
M  V30 4483 C 422.301 0.94689 3.46806 0
M  V30 4484 C 421.965 2.37517 3.90429 0
M  V30 4485 C 422.962 3.35539 3.97127 0
M  V30 4486 C 420.647 2.71284 4.22742 0
M  V30 4487 C 422.641 4.65395 4.3553 0
M  V30 4488 C 420.328 4.01356 4.60822 0
M  V30 4489 C 421.326 4.98223 4.67186 0
M  V30 4490 O 421.014 6.25969 5.04399 0
M  V30 4491 H 420.746 0.259216 0.624326 0
M  V30 4492 H 423.3 1.34592 1.55159 0
M  V30 4493 H 421.53 0.249386 3.85895 0
M  V30 4494 H 423.219 0.640804 4.0081 0
M  V30 4495 H 423.985 3.10786 3.7234 0
M  V30 4496 H 419.864 1.96581 4.16985 0
M  V30 4497 H 423.408 5.41002 4.40412 0
M  V30 4498 H 419.305 4.25893 4.85063 0
M  V30 4499 H 420.073 6.30085 5.22431 0
M  V30 4500 N 422.737 -1.36956 0.779787 0
M  V30 4501 C 423.965 -2.03755 0.359398 0
M  V30 4502 C 424.38 -1.58807 -1.02106 0
M  V30 4503 O 423.737 -0.773024 -1.6532 0
M  V30 4504 C 423.788 -3.59251 0.402568 0
M  V30 4505 O 423.509 -4.02557 1.72858 0
M  V30 4506 C 425.01 -4.43291 -0.0284068 0
M  V30 4507 H 422.23 -0.654148 0.149437 0
M  V30 4508 H 424.774 -1.75128 1.05595 0
M  V30 4509 H 422.929 -3.86621 -0.245478 0
M  V30 4510 H 423.343 -4.97111 1.67275 0
M  V30 4511 H 424.817 -5.51975 0.0529466 0
M  V30 4512 H 425.294 -4.25719 -1.07982 0
M  V30 4513 H 425.9 -4.21163 0.591758 0
M  V30 4514 N 424.215 -0.530993 -1.48385 0
M  V30 4515 C 425.162 0.231223 -2.29639 0
M  V30 4516 C 426.132 0.932864 -1.37429 0
M  V30 4517 O 427.317 0.933692 -1.66394 0
M  V30 4518 C 424.457 1.27155 -3.2082 0
M  V30 4519 C 423.57 0.578655 -4.28107 0
M  V30 4520 C 422.705 1.602 -5.06467 0
M  V30 4521 C 421.744 0.892625 -6.05556 0
M  V30 4522 N 420.881 1.86157 -6.76971 0
M  V30 4523 H 425.721 -0.467848 -2.94305 0
M  V30 4524 H 423.258 -0.242556 -1.45086 0
M  V30 4525 H 425.216 1.88703 -3.72085 0
M  V30 4526 H 423.846 1.939 -2.58075 0
M  V30 4527 H 422.898 -0.150782 -3.80101 0
M  V30 4528 H 424.21 0.0217065 -4.98795 0
M  V30 4529 H 423.364 2.29173 -5.61751 0
M  V30 4530 H 422.103 2.19285 -4.35621 0
M  V30 4531 H 421.108 0.188829 -5.49476 0
M  V30 4532 H 422.333 0.307878 -6.78402 0
M  V30 4533 H 420.279 2.44147 -6.08875 0
M  V30 4534 H 420.196 1.35608 -7.43738 0
M  V30 4535 H 421.464 2.54325 -7.36844 0
M  V30 4536 N 425.693 1.55336 -0.266172 0
M  V30 4537 C 426.64 2.22172 0.625165 0
M  V30 4538 C 427.61 1.19211 1.15663 0
M  V30 4539 O 428.795 1.47723 1.20758 0
M  V30 4540 C 425.935 2.93972 1.8076 0
M  V30 4541 C 425.048 4.11632 1.31084 0
M  V30 4542 C 424.183 4.71099 2.45436 0
M  V30 4543 C 423.222 5.8097 1.92718 0
M  V30 4544 N 422.359 6.34538 3.00509 0
M  V30 4545 H 427.199 2.9796 0.0485582 0
M  V30 4546 H 424.736 1.47095 0.0122024 0
M  V30 4547 H 426.694 3.33811 2.50251 0
M  V30 4548 H 425.324 2.20623 2.35638 0
M  V30 4549 H 424.376 3.76975 0.509326 0
M  V30 4550 H 425.688 4.90893 0.884633 0
M  V30 4551 H 424.842 5.13612 3.22936 0
M  V30 4552 H 423.581 3.91096 2.91368 0
M  V30 4553 H 422.586 5.37916 1.13695 0
M  V30 4554 H 423.811 6.62836 1.47733 0
M  V30 4555 H 421.757 5.57433 3.45839 0
M  V30 4556 H 421.674 7.09046 2.62279 0
M  V30 4557 H 422.942 6.81709 3.78011 0
M  V30 4558 N 427.171 -0.0066808 1.57599 0
M  V30 4559 C 428.103 -1.02827 2.04839 0
M  V30 4560 C 429.116 -1.31108 0.965113 0
M  V30 4561 O 430.305 -1.28202 1.24203 0
M  V30 4562 C 427.405 -2.36464 2.42771 0
M  V30 4563 C 426.578 -2.27219 3.73751 0
M  V30 4564 C 425.637 -3.43489 3.98625 0
M  V30 4565 O 424.663 -3.21976 4.69382 0
M  V30 4566 N 425.865 -4.66116 3.46 0
M  V30 4567 H 428.63 -0.625455 2.93101 0
M  V30 4568 H 426.191 -0.194198 1.60731 0
M  V30 4569 H 428.183 -3.13008 2.56531 0
M  V30 4570 H 426.753 -2.68512 1.60063 0
M  V30 4571 H 425.973 -1.35629 3.70133 0
M  V30 4572 H 427.261 -2.18208 4.59633 0
M  V30 4573 H 426.659 -4.86493 2.88688 0
M  V30 4574 H 425.216 -5.39949 3.65101 0
M  V30 4575 N 428.649 -1.55105 -0.279332 0
M  V30 4576 C 429.895 -1.75672 -1.01327 0
M  V30 4577 C 430.228 -0.552739 -1.86168 0
M  V30 4578 O 429.503 0.449827 -1.89227 0
M  V30 4579 C 429.786 -3.05825 -1.90114 0
M  V30 4580 C 429.639 -4.36565 -1.08309 0
M  V30 4581 C 430.958 -3.31975 -2.8893 0
M  V30 4582 H 428.077 -0.639149 -0.366957 0
M  V30 4583 H 430.719 -1.87833 -0.286154 0
M  V30 4584 H 428.869 -2.95588 -2.52111 0
M  V30 4585 H 430.541 -4.58751 -0.484314 0
M  V30 4586 H 428.784 -4.32076 -0.386362 0
M  V30 4587 H 429.455 -5.23946 -1.73737 0
M  V30 4588 H 431.931 -3.41963 -2.37067 0
M  V30 4589 H 430.807 -4.2432 -3.48201 0
M  V30 4590 H 431.068 -2.51309 -3.63725 0
M  V30 4591 N 430.127 0.543554 -1.4793 0
M  V30 4592 C 431.057 1.65888 -1.64327 0
M  V30 4593 C 432.038 1.62818 -0.492383 0
M  V30 4594 O 433.223 1.80226 -0.723338 0
M  V30 4595 C 430.353 3.04506 -1.67013 0
M  V30 4596 C 429.307 3.2243 -2.81466 0
M  V30 4597 C 428.633 4.61972 -2.69233 0
M  V30 4598 C 429.933 3.06496 -4.22915 0
M  V30 4599 H 431.627 1.52421 -2.57698 0
M  V30 4600 H 429.173 0.731849 -1.24016 0
M  V30 4601 H 431.126 3.82391 -1.77074 0
M  V30 4602 H 429.85 3.18964 -0.70212 0
M  V30 4603 H 428.509 2.46957 -2.70938 0
M  V30 4604 H 428.157 4.73247 -1.7043 0
M  V30 4605 H 427.857 4.74911 -3.46025 0
M  V30 4606 H 429.381 5.41974 -2.81242 0
M  V30 4607 H 430.795 3.74186 -4.34348 0
M  V30 4608 H 429.192 3.30938 -5.006 0
M  V30 4609 H 430.262 2.03077 -4.40327 0
M  V30 4610 N 431.605 1.3629 0.791371 0
M  V30 4611 C 433.021 1.16661 1.08914 0
M  V30 4612 C 433.221 -0.0106266 2.01497 0
M  V30 4613 O 432.277 -0.676596 2.43266 0
M  V30 4614 C 433.59 2.47656 1.70549 0
M  V30 4615 C 435.138 2.54002 1.82899 0
M  V30 4616 C 435.613 3.85078 2.47949 0
M  V30 4617 N 437.104 3.86413 2.5542 0
M  V30 4618 C 437.839 4.84572 3.06557 0
M  V30 4619 N 437.335 5.93124 3.58016 0
M  V30 4620 N 439.128 4.71994 3.05251 0
M  V30 4621 H 431.279 2.11668 0.176238 0
M  V30 4622 H 433.542 0.937486 0.140796 0
M  V30 4623 H 433.248 3.34059 1.09989 0
M  V30 4624 H 433.122 2.63319 2.70079 0
M  V30 4625 H 435.509 1.68018 2.42598 0
M  V30 4626 H 435.59 2.42239 0.821808 0
M  V30 4627 H 435.234 4.71467 1.88895 0
M  V30 4628 H 435.164 3.94135 3.49235 0
M  V30 4629 H 437.655 3.07988 2.18979 0
M  V30 4630 H 437.968 6.63999 3.95381 0
M  V30 4631 H 436.313 5.96796 3.56173 0
M  V30 4632 H 439.504 3.86321 2.64336 0
M  V30 4633 H 439.677 5.48653 3.44796 0
M  V30 4634 N 433.083 -1.0153 1.20538 0
M  V30 4635 C 434.016 -2.09759 0.898695 0
M  V30 4636 C 434.994 -1.61909 -0.149733 0
M  V30 4637 O 436.178 -1.88486 -0.0230293 0
M  V30 4638 C 433.305 -3.36913 0.347512 0
M  V30 4639 C 432.351 -4.03655 1.37713 0
M  V30 4640 S 433.184 -4.47402 2.94265 0
M  V30 4641 C 434.34 -5.77756 2.40726 0
M  V30 4642 H 434.573 -2.3545 1.81523 0
M  V30 4643 H 432.106 -1.14665 1.03399 0
M  V30 4644 H 434.064 -4.10484 0.0360518 0
M  V30 4645 H 432.725 -3.09291 -0.547546 0
M  V30 4646 H 431.918 -4.9514 0.940872 0
M  V30 4647 H 431.52 -3.36313 1.63614 0
M  V30 4648 H 433.812 -6.52994 1.80569 0
M  V30 4649 H 434.755 -6.2618 3.30612 0
M  V30 4650 H 435.163 -5.34081 1.82806 0
M  V30 4651 N 434.561 -1.01147 -1.20859 0
M  V30 4652 C 435.471 -0.58686 -2.27141 0
M  V30 4653 C 436.487 0.373198 -1.69951 0
M  V30 4654 O 437.663 0.235423 -2.00019 0
M  V30 4655 C 434.728 0.0733602 -3.46622 0
M  V30 4656 C 433.789 -0.931995 -4.19061 0
M  V30 4657 C 433.022 -0.303186 -5.32838 0
M  V30 4658 O 433.245 0.898395 -5.63281 0
M  V30 4659 O 432.179 -1.01735 -5.9324 0
M  V30 4660 H 436.005 -1.47155 -2.65667 0
M  V30 4661 H 433.59 -0.780689 -1.2738 0
M  V30 4662 H 435.472 0.442333 -4.19072 0
M  V30 4663 H 434.147 0.932329 -3.09983 0
M  V30 4664 H 433.054 -1.35224 -3.48805 0
M  V30 4665 H 434.387 -1.76076 -4.59628 0
M  V30 4666 N 436.039 1.36541 -0.78704 0
M  V30 4667 C 436.989 2.27459 -0.156957 0
M  V30 4668 C 437.973 1.46843 0.657709 0
M  V30 4669 O 439.165 1.69245 0.518173 0
M  V30 4670 C 436.294 3.35893 0.709278 0
M  V30 4671 C 435.38 4.23947 -0.114049 0
M  V30 4672 N 435.771 4.92145 -1.16736 0
M  V30 4673 C 434.069 4.4587 0.107497 0
M  V30 4674 C 434.77 5.57261 -1.66837 0
M  V30 4675 N 433.746 5.3473 -0.977992 0
M  V30 4676 H 437.548 2.77669 -0.963185 0
M  V30 4677 H 435.062 1.49839 -0.62627 0
M  V30 4678 H 437.059 3.99953 1.17656 0
M  V30 4679 H 435.719 2.87238 1.51408 0
M  V30 4680 H 436.73 4.94169 -1.54976 0
M  V30 4681 H 433.407 4.08056 0.882994 0
M  V30 4682 H 434.797 6.21728 -2.54762 0
M  V30 4683 N 437.518 0.538854 1.48102 0
M  V30 4684 C 438.448 -0.207654 2.32575 0
M  V30 4685 C 439.429 -0.926559 1.4265 0
M  V30 4686 O 440.614 -0.91061 1.71527 0
M  V30 4687 C 437.744 -1.24957 3.24042 0
M  V30 4688 C 436.698 -0.648263 4.23062 0
M  V30 4689 C 436.024 -1.79348 5.03725 0
M  V30 4690 C 437.324 0.385897 5.20872 0
M  V30 4691 H 439.018 0.497534 2.95237 0
M  V30 4692 H 436.564 0.240715 1.41974 0
M  V30 4693 H 438.517 -1.77983 3.81969 0
M  V30 4694 H 437.241 -1.98446 2.59397 0
M  V30 4695 H 435.9 -0.139452 3.66335 0
M  V30 4696 H 435.548 -2.51696 4.35498 0
M  V30 4697 H 435.248 -1.39702 5.70751 0
M  V30 4698 H 436.772 -2.32735 5.64506 0
M  V30 4699 H 438.186 -0.057607 5.73271 0
M  V30 4700 H 436.583 0.700227 5.96001 0
M  V30 4701 H 437.653 1.28848 4.67468 0
M  V30 4702 N 438.996 -1.55193 0.274407 0
M  V30 4703 C 440.242 -1.99877 -0.343086 0
M  V30 4704 C 440.575 -1.16256 -1.55558 0
M  V30 4705 O 439.85 -0.232462 -1.93106 0
M  V30 4706 C 440.133 -3.52706 -0.725965 0
M  V30 4707 C 439.986 -4.47081 0.493818 0
M  V30 4708 C 441.305 -4.11422 -1.56268 0
M  V30 4709 H 438.424 -0.726625 -0.123229 0
M  V30 4710 H 441.066 -1.86136 0.38121 0
M  V30 4711 H 439.216 -3.64546 -1.34307 0
M  V30 4712 H 440.888 -4.47186 1.13237 0
M  V30 4713 H 439.131 -4.1877 1.13201 0
M  V30 4714 H 439.802 -5.51699 0.18217 0
M  V30 4715 H 442.278 -4.02855 -1.04151 0
M  V30 4716 H 441.154 -5.18568 -1.79939 0
M  V30 4717 H 441.415 -3.61607 -2.54348 0
M  V30 4718 N 440.474 -0.00167713 -1.576 0
M  V30 4719 C 441.404 0.988091 -2.11563 0
M  V30 4720 C 442.385 1.35736 -1.02517 0
M  V30 4721 O 443.57 1.44082 -1.30208 0
M  V30 4722 C 440.7 2.27941 -2.62031 0
M  V30 4723 C 439.654 2.0517 -3.75619 0
M  V30 4724 C 438.98 3.4033 -4.12407 0
M  V30 4725 C 440.28 1.41294 -5.02825 0
M  V30 4726 H 441.974 0.538771 -2.94513 0
M  V30 4727 H 439.52 0.257712 -1.41675 0
M  V30 4728 H 441.473 2.97539 -2.9841 0
M  V30 4729 H 440.197 2.74989 -1.76205 0
M  V30 4730 H 438.856 1.37998 -3.39635 0
M  V30 4731 H 438.504 3.85085 -3.23603 0
M  V30 4732 H 438.204 3.25909 -4.88935 0
M  V30 4733 H 439.728 4.1124 -4.51347 0
M  V30 4734 H 441.142 2.00851 -5.36965 0
M  V30 4735 H 439.539 1.37356 -5.84169 0
M  V30 4736 H 440.609 0.382362 -4.8339 0
M  V30 4737 N 441.952 1.55251 0.271103 0
M  V30 4738 C 442.899 1.88261 1.33516 0
M  V30 4739 C 443.869 0.734296 1.48988 0
M  V30 4740 O 445.054 0.985741 1.63364 0
M  V30 4741 C 442.194 2.16168 2.69008 0
M  V30 4742 C 441.307 3.43678 2.61743 0
M  V30 4743 C 440.442 3.61276 3.89427 0
M  V30 4744 C 439.481 4.82472 3.7668 0
M  V30 4745 N 438.618 4.96717 4.96202 0
M  V30 4746 H 443.458 2.79015 1.04665 0
M  V30 4747 H 440.995 1.38137 0.505618 0
M  V30 4748 H 442.953 2.30349 3.47844 0
M  V30 4749 H 441.583 1.28646 2.96057 0
M  V30 4750 H 440.635 3.37959 1.74607 0
M  V30 4751 H 441.947 4.3265 2.48224 0
M  V30 4752 H 441.101 3.75284 4.76704 0
M  V30 4753 H 439.84 2.70492 4.05814 0
M  V30 4754 H 438.845 4.68465 2.87786 0
M  V30 4755 H 440.07 5.74692 3.61809 0
M  V30 4756 H 438.016 4.08865 5.12997 0
M  V30 4757 H 437.933 5.79738 4.85222 0
M  V30 4758 H 439.201 5.15113 5.85046 0
M  V30 4759 N 443.43 -0.535701 1.48216 0
M  V30 4760 C 444.676 -1.29375 1.56173 0
M  V30 4761 C 445.009 -1.92804 0.232429 0
M  V30 4762 O 444.284 -1.78992 -0.761048 0
M  V30 4763 C 444.567 -2.38747 2.69577 0
M  V30 4764 C 444.42 -1.80046 4.12193 0
M  V30 4765 C 445.739 -3.40551 2.78771 0
M  V30 4766 H 442.858 -0.469027 0.568491 0
M  V30 4767 H 445.5 -0.597358 1.80365 0
M  V30 4768 H 443.65 -2.98147 2.4908 0
M  V30 4769 H 445.322 -1.24742 4.44114 0
M  V30 4770 H 443.565 -1.10609 4.19462 0
M  V30 4771 H 444.236 -2.59212 4.87353 0
M  V30 4772 H 446.712 -2.91099 2.97322 0
M  V30 4773 H 445.588 -4.1448 3.59857 0
M  V30 4774 H 445.849 -4.00746 1.86696 0
M  V30 4775 N 444.908 -1.36708 -0.784132 0
M  V30 4776 C 445.838 -1.34153 -1.91116 0
M  V30 4777 C 446.819 -0.212121 -1.68772 0
M  V30 4778 O 448.004 -0.410581 -1.8981 0
M  V30 4779 C 445.134 -1.13535 -3.28218 0
M  V30 4780 C 444.088 -2.23356 -3.65097 0
M  V30 4781 C 443.414 -1.87875 -5.00607 0
M  V30 4782 C 444.714 -3.65473 -3.73131 0
M  V30 4783 H 446.408 -2.28459 -1.93512 0
M  V30 4784 H 443.954 -1.09973 -0.929618 0
M  V30 4785 H 445.907 -1.10381 -4.06687 0
M  V30 4786 H 444.631 -0.156804 -3.26223 0
M  V30 4787 H 443.29 -2.25645 -2.88929 0
M  V30 4788 H 442.938 -0.885814 -4.95139 0
M  V30 4789 H 442.638 -2.61406 -5.26252 0
M  V30 4790 H 444.162 -1.86286 -5.81489 0
M  V30 4791 H 445.576 -3.65382 -4.41779 0
M  V30 4792 H 443.973 -4.37953 -4.10265 0
M  V30 4793 H 445.043 -3.99995 -2.74102 0
M  V30 4794 N 446.386 1.0089 -1.21074 0
M  V30 4795 C 447.614 1.78191 -1.05145 0
M  V30 4796 C 448.029 1.84537 0.398952 0
M  V30 4797 O 447.386 1.30393 1.27687 0
M  V30 4798 C 447.437 3.22288 -1.63746 0
M  V30 4799 O 447.158 3.16315 -3.03111 0
M  V30 4800 C 448.659 4.16106 -1.52875 0
M  V30 4801 H 445.879 0.560129 -0.369454 0
M  V30 4802 H 448.423 1.26945 -1.60328 0
M  V30 4803 H 446.578 3.70655 -1.12664 0
M  V30 4804 H 446.992 4.06817 -3.31059 0
M  V30 4805 H 448.466 5.15026 -1.98626 0
M  V30 4806 H 448.943 4.36541 -0.482521 0
M  V30 4807 H 449.549 3.73625 -2.03185 0
M  V30 4808 N 447.864 1.01787 1.20321 0
M  V30 4809 C 449.111 0.707936 1.89722 0
M  V30 4810 C 449.439 -0.762535 1.78929 0
M  V30 4811 O 448.694 -1.56977 1.16861 0
M  V30 4812 C 448.993 1.09076 3.40349 0
M  V30 4813 C 448.659 2.55765 3.71342 0
M  V30 4814 C 447.321 2.95845 3.79511 0
M  V30 4815 C 449.673 3.50723 3.85542 0
M  V30 4816 C 447.001 4.2982 3.99339 0
M  V30 4817 C 449.353 4.84387 4.06881 0
M  V30 4818 C 448.017 5.24172 4.1328 0
M  V30 4819 H 447.287 0.259052 0.694243 0
M  V30 4820 H 449.934 1.27868 1.42555 0
M  V30 4821 H 448.239 0.438453 3.89339 0
M  V30 4822 H 449.936 0.828636 3.92345 0
M  V30 4823 H 446.526 2.2371 3.65584 0
M  V30 4824 H 450.71 3.20916 3.78585 0
M  V30 4825 H 445.966 4.60196 4.02529 0
M  V30 4826 H 450.14 5.57891 4.1681 0
M  V30 4827 H 447.767 6.27997 4.28396 0
M  V30 4828 N 449.342 -1.36122 0.79427 0
M  V30 4829 C 450.619 -1.93398 0.292685 0
M  V30 4830 C 450.999 -1.72567 -1.21589 0
M  V30 4831 O 450.347 -1.08745 -2.00965 0
M  V30 4832 C 450.557 -3.42099 0.690614 0
M  V30 4833 C 451.905 -4.19231 0.673105 0
M  V30 4834 O 452.929 -3.50559 0.631389 0
M  V30 4835 O 451.788 -5.41732 0.720362 0
M  V30 4836 H 448.882 -0.823712 0.0736693 0
M  V30 4837 H 451.428 -1.45273 0.87714 0
M  V30 4838 H 450.2 -3.50938 1.73085 0
M  V30 4839 H 449.823 -3.97519 0.0803036 0
M  V30 4840 N 450.82 -0.546701 -1.47814 0
M  V30 4841 C 451.75 0.195317 -2.32682 0
M  V30 4842 C 452.731 0.918981 -1.43139 0
M  V30 4843 O 453.916 0.901501 -1.72008 0
M  V30 4844 C 451.046 1.23237 -3.247 0
M  V30 4845 C 450 0.625818 -4.234 0
M  V30 4846 C 449.326 1.76674 -5.04669 0
M  V30 4847 C 450.626 -0.413515 -5.2066 0
M  V30 4848 H 452.32 -0.513184 -2.94969 0
M  V30 4849 H 449.866 -0.248241 -1.41844 0
M  V30 4850 H 451.819 1.75955 -3.82907 0
M  V30 4851 H 450.543 1.97067 -2.60446 0
M  V30 4852 H 449.202 0.120023 -3.66403 0
M  V30 4853 H 448.85 2.49383 -4.36826 0
M  V30 4854 H 448.55 1.36673 -5.71484 0
M  V30 4855 H 450.074 2.29738 -5.65732 0
M  V30 4856 H 451.488 0.0272042 -5.73294 0
M  V30 4857 H 449.885 -0.731825 -5.95621 0
M  V30 4858 H 450.955 -1.31325 -4.66778 0
M  V30 4859 N 452.299 1.55045 -0.282633 0
M  V30 4860 C 453.262 2.21515 0.588539 0
M  V30 4861 C 454.262 1.19535 1.07554 0
M  V30 4862 O 455.452 1.44391 0.974514 0
M  V30 4863 C 452.584 2.88704 1.8128 0
M  V30 4864 H 453.777 2.99899 0.00806397 0
M  V30 4865 H 451.33 1.56265 -0.0333067 0
M  V30 4866 H 452.065 2.14352 2.43359 0
M  V30 4867 H 451.85 3.63443 1.47144 0
M  V30 4868 H 453.34 3.39465 2.43214 0
M  V30 4869 N 453.777 0.010035 1.57597 0
M  V30 4870 C 454.74 -0.963029 2.07986 0
M  V30 4871 C 455.74 -1.26619 0.991173 0
M  V30 4872 O 456.93 -1.2097 1.25347 0
M  V30 4873 C 454.062 -2.2851 2.52974 0
M  V30 4874 H 455.255 -0.526971 2.95234 0
M  V30 4875 H 452.808 -0.237639 1.54483 0
M  V30 4876 H 453.543 -2.76784 1.69 0
M  V30 4877 H 453.328 -2.07824 3.32493 0
M  V30 4878 H 454.818 -2.98294 2.9225 0
M  V30 4879 N 455.255 -1.55392 -0.262866 0
M  V30 4880 C 456.666 -1.67079 -0.833158 0
M  V30 4881 C 457.017 -0.604539 -1.86654 0
M  V30 4882 O 456.142 0.252138 -2.14926 0
M  V30 4883 C 456.737 -3.02891 -1.51797 0
M  V30 4884 C 455.296 -3.16571 -2.03617 0
M  V30 4885 C 454.443 -2.62909 -0.881701 0
M  V30 4886 H 457.394 -1.58652 -0.0389986 0
M  V30 4887 H 457.415 -2.96445 -2.38538 0
M  V30 4888 H 456.927 -3.80473 -0.765619 0
M  V30 4889 H 455.028 -2.43782 -2.81782 0
M  V30 4890 H 455.141 -4.23271 -2.24452 0
M  V30 4891 H 453.505 -2.20324 -1.27786 0
M  V30 4892 H 454.288 -3.43003 -0.14269 0
M  V30 4893 N 456.733 0.527833 -1.48498 0
M  V30 4894 C 457.961 1.30823 -1.6029 0
M  V30 4895 C 458.376 1.86945 -0.263974 0
M  V30 4896 O 457.733 1.6651 0.747034 0
M  V30 4897 C 457.784 2.45756 -2.65116 0
M  V30 4898 O 457.505 1.91946 -3.93813 0
M  V30 4899 C 459.006 3.37543 -2.87367 0
M  V30 4900 H 456.226 0.397763 -0.540394 0
M  V30 4901 H 458.77 0.636529 -1.94341 0
M  V30 4902 H 456.925 3.08806 -2.33917 0
M  V30 4903 H 457.339 2.67195 -4.51339 0
M  V30 4904 H 458.813 4.14532 -3.6451 0
M  V30 4905 H 459.29 3.92905 -1.9627 0
M  V30 4906 H 459.896 2.80283 -3.19878 0
M  V30 4907 N 458.211 1.37122 0.776871 0
M  V30 4908 C 459.457 1.32243 1.53752 0
M  V30 4909 C 459.79 -0.0944745 1.9397 0
M  V30 4910 O 459.065 -1.05068 1.6368 0
M  V30 4911 C 459.348 2.25681 2.80607 0
M  V30 4912 C 459.201 3.76127 2.46676 0
M  V30 4913 C 460.52 2.17657 3.82509 0
M  V30 4914 H 457.639 0.481704 0.557791 0
M  V30 4915 H 460.281 1.6778 0.891612 0
M  V30 4916 H 458.431 1.95505 3.35723 0
M  V30 4917 H 460.103 4.16877 1.97513 0
M  V30 4918 H 458.346 3.94946 1.79443 0
M  V30 4919 H 459.017 4.36933 3.37333 0
M  V30 4920 H 461.493 2.44245 3.36873 0
M  V30 4921 H 460.369 2.85185 4.69 0
M  V30 4922 H 460.63 1.16785 4.26396 0
M  V30 4923 N 459.689 -1.00246 1.21608 0
M  V30 4924 C 460.637 -2.11193 0.97469 0
M  V30 4925 C 461.631 -1.69216 -0.0789303 0
M  V30 4926 O 462.837 -1.79853 0.0726806 0
M  V30 4927 H 459.212 -0.690455 0.297953 0
M  V30 4928 H 461.183 -2.2873 1.91638 0
M  V30 4929 C 459.932 -3.43182 0.558717 0
M  V30 4930 H 459.255 -3.75918 1.3611 0
M  V30 4931 H 460.695 -4.21823 0.429154 0
M  V30 4932 C 459.154 -3.28882 -0.730648 0
M  V30 4933 O 459.684 -3.59835 -1.78554 0
M  V30 4934 N 457.89 -2.8209 -0.698131 0
M  V30 4935 H 457.437 -2.57099 0.16061 0
M  V30 4936 H 457.395 -2.72903 -1.56113 0
M  V30 4937 N 461.167 -1.02423 -1.1978 0
M  V30 4938 C 462.099 -0.559152 -2.22275 0
M  V30 4939 C 463.112 0.36251 -1.58713 0
M  V30 4940 O 464.301 0.159641 -1.77785 0
M  V30 4941 C 461.401 0.205094 -3.38279 0
M  V30 4942 C 460.574 -0.720361 -4.31427 0
M  V30 4943 C 459.633 -0.00234368 -5.262 0
M  V30 4944 O 458.659 -0.627378 -5.65732 0
M  V30 4945 N 459.861 1.26996 -5.66438 0
M  V30 4946 H 462.626 -1.44064 -2.62804 0
M  V30 4947 H 460.187 -0.902692 -1.34399 0
M  V30 4948 H 462.179 0.694868 -3.9869 0
M  V30 4949 H 460.749 0.987947 -2.96578 0
M  V30 4950 H 459.969 -1.39031 -3.68869 0
M  V30 4951 H 461.257 -1.3495 -4.90577 0
M  V30 4952 H 460.655 1.79858 -5.36347 0
M  V30 4953 H 459.212 1.70432 -6.29123 0
M  V30 4954 N 462.645 1.35699 -0.801477 0
M  V30 4955 C 463.892 1.98913 -0.379459 0
M  V30 4956 C 464.22 1.63592 1.05204 0
M  V30 4957 O 463.475 0.888563 1.74365 0
M  V30 4958 C 463.774 3.53828 -0.504041 0
M  V30 4959 C 463.44 4.09002 -1.8981 0
M  V30 4960 C 462.102 4.23783 -2.27951 0
M  V30 4961 C 464.454 4.38939 -2.81038 0
M  V30 4962 C 461.782 4.65816 -3.56696 0
M  V30 4963 C 464.134 4.82409 -4.09224 0
M  V30 4964 C 462.798 4.95395 -4.4737 0
M  V30 4965 H 462.068 0.727874 -0.138854 0
M  V30 4966 H 464.715 1.61994 -1.02128 0
M  V30 4967 H 463.02 3.91175 0.221242 0
M  V30 4968 H 464.717 4.00687 -0.158361 0
M  V30 4969 H 461.307 3.97946 -1.59176 0
M  V30 4970 H 465.491 4.27077 -2.52821 0
M  V30 4971 H 460.747 4.74059 -3.86106 0
M  V30 4972 H 464.921 5.04535 -4.80018 0
M  V30 4973 H 462.548 5.27724 -5.47185 0
M  V30 4974 N 464.123 0.554532 1.47522 0
M  V30 4975 C 465.053 -0.182974 2.32782 0
M  V30 4976 C 466.034 -0.911377 1.43624 0
M  V30 4977 O 467.219 -0.892366 1.72483 0
M  V30 4978 C 464.349 -1.21513 3.25349 0
M  V30 4979 C 463.303 -0.603355 4.23726 0
M  V30 4980 C 462.629 -1.73995 5.05598 0
M  V30 4981 C 463.929 0.441121 5.20434 0
M  V30 4982 H 465.623 0.52882 2.94693 0
M  V30 4983 H 463.169 0.255759 1.41711 0
M  V30 4984 H 465.122 -1.73922 3.83835 0
M  V30 4985 H 463.846 -1.95683 2.61487 0
M  V30 4986 H 462.505 -0.10059 3.66462 0
M  V30 4987 H 462.153 -2.47063 4.38143 0
M  V30 4988 H 461.853 -1.3364 5.72201 0
M  V30 4989 H 463.377 -2.26735 5.66942 0
M  V30 4990 H 464.791 0.00319931 5.733 0
M  V30 4991 H 463.188 0.763402 5.95224 0
M  V30 4992 H 464.258 1.33799 4.66075 0
M  V30 4993 N 465.601 -1.54893 0.290851 0
M  V30 4994 C 466.829 -2.04343 -0.324288 0
M  V30 4995 C 467.244 -1.16859 -1.48289 0
M  V30 4996 O 466.601 -0.192018 -1.81487 0
M  V30 4997 C 466.652 -3.52756 -0.79026 0
M  V30 4998 O 466.373 -4.36913 0.322213 0
M  V30 4999 C 467.874 -4.18161 -1.4716 0
M  V30 5000 H 465.094 -0.667135 -0.0719173 0
M  V30 5001 H 467.638 -1.99981 0.427529 0
M  V30 5002 H 465.793 -3.57511 -1.49213 0
M  V30 5003 H 466.207 -5.24486 -0.0387372 0
M  V30 5004 H 467.681 -5.23562 -1.7489 0
M  V30 5005 H 468.158 -3.67282 -2.40834 0
M  V30 5006 H 468.764 -4.17454 -0.813178 0
M  V30 5007 N 467.08 -0.0183926 -1.57589 0
M  V30 5008 C 468.012 0.995557 -2.06449 0
M  V30 5009 C 469.025 1.29556 -0.985849 0
M  V30 5010 O 470.214 1.2621 -1.26227 0
M  V30 5011 C 467.314 2.32572 -2.46502 0
M  V30 5012 C 466.487 2.21245 -3.77319 0
M  V30 5013 C 465.546 3.37104 -4.04039 0
M  V30 5014 O 464.572 3.14468 -4.74445 0
M  V30 5015 N 465.774 4.60553 -3.53372 0
M  V30 5016 H 468.539 0.578746 -2.94059 0
M  V30 5017 H 466.1 0.168603 -1.6102 0
M  V30 5018 H 468.092 3.08887 -2.61478 0
M  V30 5019 H 466.662 2.65931 -1.64315 0
M  V30 5020 H 465.882 1.29723 -3.72244 0
M  V30 5021 H 467.17 2.10868 -4.63047 0
M  V30 5022 H 466.568 4.81839 -2.96391 0
M  V30 5023 H 465.125 5.34072 -3.73644 0
M  V30 5024 N 468.558 1.5553 0.254621 0
M  V30 5025 C 469.788 1.80784 1.00004 0
M  V30 5026 C 470.196 0.59071 1.79742 0
M  V30 5027 O 469.539 -0.449988 1.78103 0
M  V30 5028 C 469.601 2.99268 1.99196 0
M  V30 5029 C 469.265 4.35595 1.38224 0
M  V30 5030 C 470.262 5.13884 0.788611 0
M  V30 5031 C 467.947 4.82281 1.40393 0
M  V30 5032 C 469.941 6.37004 0.224783 0
M  V30 5033 C 467.628 6.05351 0.836243 0
M  V30 5034 C 468.626 6.82551 0.24769 0
M  V30 5035 O 468.314 8.03297 -0.311249 0
M  V30 5036 H 468.046 0.60565 0.300274 0
M  V30 5037 H 470.6 2.03411 0.285143 0
M  V30 5038 H 468.83 2.72377 2.74496 0
M  V30 5039 H 470.519 3.11682 2.60018 0
M  V30 5040 H 471.285 4.78938 0.764423 0
M  V30 5041 H 467.164 4.22189 1.85142 0
M  V30 5042 H 470.708 6.97203 -0.235235 0
M  V30 5043 H 466.605 6.39776 0.857733 0
M  V30 5044 H 467.373 8.1825 -0.20237 0
M  V30 5045 N 470.036 -0.519951 1.48776 0
M  V30 5046 C 471.283 -1.27522 1.57303 0
M  V30 5047 C 471.611 -1.92869 0.251328 0
M  V30 5048 O 470.866 -1.80372 -0.759243 0
M  V30 5049 C 471.165 -2.37864 2.6675 0
M  V30 5050 C 470.831 -1.90103 4.08867 0
M  V30 5051 C 469.493 -1.76795 4.47546 0
M  V30 5052 C 471.845 -1.54133 4.97888 0
M  V30 5053 C 469.173 -1.25868 5.73039 0
M  V30 5054 C 471.525 -1.04665 6.23881 0
M  V30 5055 C 470.189 -0.899823 6.61407 0
M  V30 5056 H 469.459 -0.466636 0.575614 0
M  V30 5057 H 472.106 -0.579109 1.82534 0
M  V30 5058 H 470.411 -3.13186 2.35418 0
M  V30 5059 H 472.108 -2.95969 2.70561 0
M  V30 5060 H 468.698 -2.01414 3.78326 0
M  V30 5061 H 472.882 -1.6327 4.68675 0
M  V30 5062 H 468.138 -1.13196 6.0083 0
M  V30 5063 H 472.312 -0.759074 6.92251 0
M  V30 5064 H 469.939 -0.503011 7.58534 0
M  V30 5065 N 471.514 -1.37532 -0.769588 0
M  V30 5066 C 472.444 -1.36172 -1.89682 0
M  V30 5067 C 473.425 -0.23001 -1.68538 0
M  V30 5068 O 474.61 -0.43069 -1.89364 0
M  V30 5069 C 471.74 -1.1701 -3.26995 0
M  V30 5070 C 470.694 -2.27216 -3.62708 0
M  V30 5071 C 470.02 -1.93174 -4.98586 0
M  V30 5072 C 471.32 -3.6941 -3.69234 0
M  V30 5073 H 473.014 -2.30499 -1.91078 0
M  V30 5074 H 470.56 -1.10953 -0.917902 0
M  V30 5075 H 472.513 -1.14688 -4.05493 0
M  V30 5076 H 471.237 -0.191395 -3.26039 0
M  V30 5077 H 469.896 -2.28697 -2.86519 0
M  V30 5078 H 469.544 -0.938281 -4.94171 0
M  V30 5079 H 469.244 -2.66973 -5.23449 0
M  V30 5080 H 470.768 -1.92443 -5.79481 0
M  V30 5081 H 472.182 -3.70047 -4.37879 0
M  V30 5082 H 470.579 -4.4228 -4.05597 0
M  V30 5083 H 471.649 -4.0288 -2.69844 0
M  V30 5084 N 472.992 0.995999 -1.22138 0
M  V30 5085 C 473.942 2.06988 -0.956042 0
M  V30 5086 C 474.926 1.60636 0.0921576 0
M  V30 5087 O 476.118 1.76607 -0.117958 0
M  V30 5088 C 473.247 3.39148 -0.532335 0
M  V30 5089 C 472.333 3.92142 -1.61509 0
M  V30 5090 N 472.724 4.18397 -2.84214 0
M  V30 5091 C 471.022 4.20514 -1.48606 0
M  V30 5092 C 471.723 4.61425 -3.54206 0
M  V30 5093 N 470.699 4.64934 -2.81669 0
M  V30 5094 H 474.501 2.25223 -1.88816 0
M  V30 5095 H 472.015 1.17748 -1.11845 0
M  V30 5096 H 474.012 4.15642 -0.323574 0
M  V30 5097 H 472.672 3.22314 0.392921 0
M  V30 5098 H 473.683 4.06682 -3.20671 0
M  V30 5099 H 470.36 4.12769 -0.626762 0
M  V30 5100 H 471.75 4.90387 -4.59315 0
M  V30 5101 N 474.47 1.03057 1.19235 0
M  V30 5102 C 475.402 0.570932 2.21975 0
M  V30 5103 C 476.415 -0.354088 1.58903 0
M  V30 5104 O 477.604 -0.150211 1.77867 0
M  V30 5105 C 474.704 -0.187152 3.38383 0
M  V30 5106 C 473.877 0.743231 4.31039 0
M  V30 5107 C 472.936 0.0302493 5.26191 0
M  V30 5108 O 471.962 0.657371 5.65391 0
M  V30 5109 N 473.164 -1.23991 5.67104 0
M  V30 5110 H 475.929 1.45456 2.62036 0
M  V30 5111 H 473.49 0.909807 1.33918 0
M  V30 5112 H 475.482 -0.673715 3.99053 0
M  V30 5113 H 474.052 -0.972205 2.97098 0
M  V30 5114 H 473.272 1.40985 3.68126 0
M  V30 5115 H 474.56 1.3755 4.89854 0
M  V30 5116 H 473.958 -1.77011 5.37293 0
M  V30 5117 H 472.515 -1.67093 6.30018 0
M  V30 5118 N 475.948 -1.35272 0.808662 0
M  V30 5119 C 476.88 -2.28507 0.178149 0
M  V30 5120 C 477.893 -1.50377 -0.623754 0
M  V30 5121 O 479.082 -1.72583 -0.455774 0
M  V30 5122 C 476.182 -3.30038 -0.769959 0
M  V30 5123 C 475.355 -4.37398 -0.0139749 0
M  V30 5124 C 474.414 -5.18775 -0.880875 0
M  V30 5125 O 473.44 -5.68236 -0.331059 0
M  V30 5126 N 474.642 -5.37087 -2.20267 0
M  V30 5127 H 477.407 -2.83255 0.979106 0
M  V30 5128 H 474.968 -1.47643 0.664308 0
M  V30 5129 H 476.96 -3.81371 -1.35418 0
M  V30 5130 H 475.53 -2.75789 -1.47171 0
M  V30 5131 H 474.75 -3.86971 0.751468 0
M  V30 5132 H 476.038 -5.06268 0.506965 0
M  V30 5133 H 475.436 -4.9855 -2.67328 0
M  V30 5134 H 473.993 -5.91593 -2.73608 0
M  V30 5135 N 477.426 -0.562348 -1.47226 0
M  V30 5136 C 478.837 -0.130325 -1.86245 0
M  V30 5137 C 479.188 1.30128 -1.46838 0
M  V30 5138 O 478.313 1.97974 -0.873805 0
M  V30 5139 C 478.908 -0.229738 -3.3802 0
M  V30 5140 C 477.467 0.14728 -3.76112 0
M  V30 5141 C 476.614 -0.574971 -2.71274 0
M  V30 5142 H 479.565 -0.771773 -1.3867 0
M  V30 5143 H 479.586 0.550316 -3.76499 0
M  V30 5144 H 479.098 -1.27178 -3.66671 0
M  V30 5145 H 477.199 1.19023 -3.53078 0
M  V30 5146 H 477.312 -0.214858 -4.78618 0
M  V30 5147 H 475.676 -0.0174756 -2.54694 0
M  V30 5148 H 476.459 -1.61827 -3.02766 0
M  V30 5149 N 478.904 1.54736 -0.299062 0
M  V30 5150 C 479.867 2.22127 0.565012 0
M  V30 5151 C 480.867 1.20669 1.06281 0
M  V30 5152 O 482.057 1.45417 0.959145 0
M  V30 5153 C 479.189 2.90611 1.78208 0
M  V30 5154 H 480.382 2.99891 -0.0237448 0
M  V30 5155 H 477.935 1.5622 -0.0498788 0
M  V30 5156 H 478.67 2.16921 2.41072 0
M  V30 5157 H 478.455 3.64984 1.43281 0
M  V30 5158 H 479.945 3.42026 2.396 0
M  V30 5159 N 480.382 0.0267497 1.57577 0
M  V30 5160 C 481.33 -0.973923 2.11229 0
M  V30 5161 C 482.324 -1.33849 1.03831 0
M  V30 5162 O 483.53 -1.321 1.22269 0
M  V30 5163 H 479.905 -0.331844 0.674821 0
M  V30 5164 H 481.876 -0.496092 2.94247 0
M  V30 5165 C 480.625 -2.24798 2.65257 0
M  V30 5166 H 479.948 -1.9762 3.47543 0
M  V30 5167 H 481.388 -2.93031 3.06445 0
M  V30 5168 C 479.847 -2.97611 1.57891 0
M  V30 5169 O 480.377 -3.89629 0.97735 0
M  V30 5170 N 478.583 -2.59905 1.29992 0
M  V30 5171 H 478.13 -1.85154 1.79097 0
M  V30 5172 H 478.088 -3.08932 0.583798 0
M  V30 5173 N 481.861 -1.55662 -0.24637 0
M  V30 5174 C 483.101 -1.79283 -0.981685 0
M  V30 5175 C 483.465 -0.596356 -1.82504 0
M  V30 5176 O 484.666 -0.711342 -2.59217 0
M  V30 5177 C 482.937 -3.07648 -1.819 0
M  V30 5178 S 484.496 -3.52491 -2.61334 0
M  V30 5179 H 481.314 -0.629676 -0.330196 0
M  V30 5180 H 483.916 -1.93901 -0.249498 0
M  V30 5181 H 482.62 -3.92794 -1.18915 0
M  V30 5182 H 482.151 -2.95768 -2.59393 0
M  V30 5183 H 484.166 -3.13866 -3.84321 0
M  V30 5184 N 483.339 0.512053 -1.4905 0
M  V30 5185 C 484.286 1.6148 -1.64902 0
M  V30 5186 C 485.256 1.58687 -0.490673 0
M  V30 5187 O 486.441 1.76842 -0.71636 0
M  V30 5188 C 483.581 2.99676 -1.71139 0
M  V30 5189 C 482.694 3.12568 -2.98203 0
M  V30 5190 C 481.829 4.4143 -2.95487 0
M  V30 5191 C 480.868 4.47916 -4.17179 0
M  V30 5192 N 480.005 5.68191 -4.12437 0
M  V30 5193 H 484.845 1.47271 -2.59066 0
M  V30 5194 H 482.382 0.716713 -1.28459 0
M  V30 5195 H 484.34 3.79761 -1.72736 0
M  V30 5196 H 482.97 3.12614 -0.804508 0
M  V30 5197 H 482.022 2.25618 -3.06269 0
M  V30 5198 H 483.334 3.1322 -3.88194 0
M  V30 5199 H 482.488 5.29825 -2.95585 0
M  V30 5200 H 481.227 4.43326 -2.03256 0
M  V30 5201 H 480.232 3.57925 -4.17337 0
M  V30 5202 H 481.457 4.47744 -5.1059 0
M  V30 5203 H 479.403 5.7095 -3.23036 0
M  V30 5204 H 479.32 5.70413 -4.96151 0
M  V30 5205 H 480.588 6.58823 -4.16621 0
M  V30 5206 N 484.817 1.37938 0.762283 0
M  V30 5207 C 486.063 1.33866 1.52341 0
M  V30 5208 C 486.396 -0.0738961 1.94059 0
M  V30 5209 O 485.671 -1.03326 1.64785 0
M  V30 5210 C 485.954 2.28644 2.78197 0
M  V30 5211 C 485.807 3.78722 2.42672 0
M  V30 5212 C 487.126 2.21702 3.80179 0
M  V30 5213 H 484.245 0.487593 0.55265 0
M  V30 5214 H 486.887 1.68717 0.873767 0
M  V30 5215 H 485.037 1.99055 3.33631 0
M  V30 5216 H 486.709 4.18948 1.93081 0
M  V30 5217 H 484.952 3.96827 1.75244 0
M  V30 5218 H 485.623 4.40486 3.3268 0
M  V30 5219 H 488.099 2.47805 3.34263 0
M  V30 5220 H 486.975 2.90143 4.65949 0
M  V30 5221 H 487.236 1.21301 4.25133 0
M  V30 5222 N 486.295 -0.989507 1.22664 0
M  V30 5223 C 487.205 -2.11449 1.01619 0
M  V30 5224 C 488.221 -1.73962 -0.036545 0
M  V30 5225 O 489.397 -2.00788 0.156924 0
M  V30 5226 C 486.462 -3.41465 0.600204 0
M  V30 5227 C 485.523 -3.93033 1.72695 0
M  V30 5228 C 484.756 -5.16844 1.33071 0
M  V30 5229 O 484.979 -5.7001 0.210975 0
M  V30 5230 O 483.913 -5.6225 2.14845 0
M  V30 5231 H 487.739 -2.32088 1.9588 0
M  V30 5232 H 485.324 -1.09823 1.01289 0
M  V30 5233 H 487.206 -4.19695 0.37873 0
M  V30 5234 H 485.881 -3.22178 -0.313511 0
M  V30 5235 H 484.788 -3.15961 2.00298 0
M  V30 5236 H 486.121 -4.16758 2.61865 0
M  V30 5237 N 487.773 -1.03688 -1.18687 0
M  V30 5238 C 488.998 -0.757819 -1.93059 0
M  V30 5239 C 489.423 0.678353 -1.75442 0
M  V30 5240 O 488.781 1.46938 -1.06203 0
M  V30 5241 C 488.829 -1.12423 -3.42627 0
M  V30 5242 O 487.933 -0.247505 -4.11657 0
M  V30 5243 H 487.274 -0.279245 -0.602427 0
M  V30 5244 H 489.804 -1.3857 -1.5053 0
M  V30 5245 H 489.814 -1.08454 -3.93322 0
M  V30 5246 H 488.489 -2.17049 -3.54771 0
M  V30 5247 H 487.066 -0.34649 -3.71287 0
M  V30 5248 N 489.251 1.34841 -0.815825 0
M  V30 5249 C 490.181 2.32187 -0.247298 0
M  V30 5250 C 491.162 1.5791 0.632344 0
M  V30 5251 O 492.347 1.8593 0.560698 0
M  V30 5252 C 489.477 3.42122 0.597466 0
M  V30 5253 C 488.431 4.27602 -0.184446 0
M  V30 5254 C 487.757 5.28942 0.782609 0
M  V30 5255 C 489.057 5.03502 -1.38865 0
M  V30 5256 H 490.751 2.79985 -1.06061 0
M  V30 5257 H 488.297 1.34611 -0.511461 0
M  V30 5258 H 490.25 4.09232 1.00533 0
M  V30 5259 H 488.974 2.92956 1.44376 0
M  V30 5260 H 487.633 3.62085 -0.573592 0
M  V30 5261 H 487.281 4.7604 1.62466 0
M  V30 5262 H 486.981 5.87008 0.263695 0
M  V30 5263 H 488.505 5.98922 1.18848 0
M  V30 5264 H 489.919 5.63506 -1.05518 0
M  V30 5265 H 488.316 5.71108 -1.8427 0
M  V30 5266 H 489.386 4.33608 -2.17054 0
M  V30 5267 N 490.729 0.570148 1.46925 0
M  V30 5268 C 491.692 -0.159933 2.28641 0
M  V30 5269 C 492.692 -0.830638 1.37685 0
M  V30 5270 O 493.882 -0.684516 1.60187 0
M  V30 5271 C 491.014 -1.2354 3.17727 0
M  V30 5272 H 492.207 0.558035 2.94662 0
M  V30 5273 H 489.76 0.327603 1.52828 0
M  V30 5274 H 490.495 -1.98535 2.56426 0
M  V30 5275 H 490.28 -0.759125 3.84681 0
M  V30 5276 H 491.77 -1.74782 3.79264 0
M  V30 5277 N 492.207 -1.54576 0.307264 0
M  V30 5278 C 493.14 -2.19946 -0.608195 0
M  V30 5279 C 494.118 -1.17096 -1.12815 0
M  V30 5280 O 495.302 -1.45766 -1.19518 0
M  V30 5281 C 492.429 -2.84826 -1.8328 0
M  V30 5282 C 491.475 -4.01256 -1.44554 0
M  V30 5283 S 492.308 -5.33197 -0.49612 0
M  V30 5284 C 493.464 -6.01563 -1.72838 0
M  V30 5285 H 493.697 -2.97253 -0.0528544 0
M  V30 5286 H 491.23 -1.54129 0.0913837 0
M  V30 5287 H 493.188 -3.22832 -2.53554 0
M  V30 5288 H 491.849 -2.07353 -2.35931 0
M  V30 5289 H 491.042 -4.45457 -2.35762 0
M  V30 5290 H 490.644 -3.6484 -0.822671 0
M  V30 5291 H 492.936 -6.22751 -2.6681 0
M  V30 5292 H 493.879 -6.9552 -1.32882 0
M  V30 5293 H 494.287 -5.31279 -1.90795 0
M  V30 5294 N 493.685 -0.035106 -1.57561 0
M  V30 5295 C 494.932 0.642229 -1.92046 0
M  V30 5296 C 495.26 1.7179 -0.91206 0
M  V30 5297 O 494.515 1.95544 0.0781153 0
M  V30 5298 C 494.814 1.29149 -3.3325 0
M  V30 5299 C 494.48 0.345604 -4.49574 0
M  V30 5300 C 493.142 0.0852775 -4.81124 0
M  V30 5301 C 495.494 -0.303569 -5.20315 0
M  V30 5302 C 492.822 -0.831927 -5.80772 0
M  V30 5303 C 495.174 -1.20886 -6.20942 0
M  V30 5304 C 493.838 -1.47802 -6.50931 0
M  V30 5305 H 493.108 0.235008 -0.702746 0
M  V30 5306 H 495.755 -0.0981529 -1.91248 0
M  V30 5307 H 494.06 2.10676 -3.30337 0
M  V30 5308 H 495.757 1.82223 -3.57205 0
M  V30 5309 H 492.347 0.558683 -4.24943 0
M  V30 5310 H 496.531 -0.115515 -4.96166 0
M  V30 5311 H 491.787 -1.0481 -6.02349 0
M  V30 5312 H 495.961 -1.71804 -6.74875 0
M  V30 5313 H 493.588 -2.19039 -7.2796 0
M  V30 5314 N 495.163 1.55791 0.238111 0
M  V30 5315 C 496.093 1.94068 1.29846 0
M  V30 5316 C 497.074 0.806726 1.49753 0
M  V30 5317 O 498.259 1.06772 1.62214 0
M  V30 5318 C 495.389 2.24302 2.65153 0
M  V30 5319 C 494.343 3.40032 2.59927 0
M  V30 5320 C 493.669 3.55829 3.99111 0
M  V30 5321 C 494.969 4.75476 2.16148 0
M  V30 5322 H 496.663 2.82887 0.980563 0
M  V30 5323 H 494.209 1.36105 0.470253 0
M  V30 5324 H 496.162 2.4967 3.39475 0
M  V30 5325 H 494.886 1.32318 2.98596 0
M  V30 5326 H 493.545 3.14687 1.88063 0
M  V30 5327 H 493.193 2.6125 4.29834 0
M  V30 5328 H 492.893 4.3366 3.96501 0
M  V30 5329 H 494.417 3.83528 4.7512 0
M  V30 5330 H 495.831 5.00158 2.80205 0
M  V30 5331 H 494.228 5.56472 2.24631 0
M  V30 5332 H 495.298 4.71946 1.11333 0
M  V30 5333 N 496.642 -0.504142 1.49319 0
M  V30 5334 C 497.89 -1.25598 1.58334 0
M  V30 5335 C 498.211 -1.93114 0.270538 0
M  V30 5336 O 497.481 -1.82585 -0.709891 0
M  V30 5337 H 496.061 -0.466571 0.58337 0
M  V30 5338 H 498.723 -0.584547 1.85928 0
M  V30 5339 H 497.819 -2.02159 2.37778 0
M  V30 5340 N 498.12 -1.38341 -0.754957 0
M  V30 5341 C 499.03 -1.3769 -1.89944 0
M  V30 5342 C 500.046 -0.274194 -1.71826 0
M  V30 5343 O 501.222 -0.512391 -1.94773 0
M  V30 5344 C 498.287 -1.19938 -3.25293 0
M  V30 5345 C 497.348 -2.40001 -3.55946 0
M  V30 5346 C 496.581 -2.23087 -4.84838 0
M  V30 5347 O 496.804 -1.22386 -5.57116 0
M  V30 5348 O 495.738 -3.11646 -5.14937 0
M  V30 5349 H 499.564 -2.3412 -1.93446 0
M  V30 5350 H 497.149 -1.19246 -0.900044 0
M  V30 5351 H 499.031 -1.12093 -4.06218 0
M  V30 5352 H 497.706 -0.265919 -3.22606 0
M  V30 5353 H 496.613 -2.53421 -2.75188 0
M  V30 5354 H 497.946 -3.31973 -3.63394 0
M  V30 5355 N 499.598 0.982988 -1.23187 0
M  V30 5356 C 500.528 2.09301 -1.03515 0
M  V30 5357 C 501.509 1.70035 0.0471136 0
M  V30 5358 O 502.694 1.93847 -0.117029 0
M  V30 5359 C 499.824 3.4167 -0.622791 0
M  V30 5360 C 498.778 3.94828 -1.65211 0
M  V30 5361 C 498.104 5.23362 -1.09527 0
M  V30 5362 C 499.404 4.2439 -3.04451 0
M  V30 5363 H 501.098 2.26016 -1.96359 0
M  V30 5364 H 498.644 1.08611 -0.945501 0
M  V30 5365 H 500.597 4.18746 -0.472233 0
M  V30 5366 H 499.321 3.24811 0.341329 0
M  V30 5367 H 497.98 3.19895 -1.79061 0
M  V30 5368 H 497.628 5.02852 -0.122211 0
M  V30 5369 H 497.328 5.59895 -1.783 0
M  V30 5370 H 498.852 6.03062 -0.956511 0
M  V30 5371 H 500.266 4.92225 -2.93917 0
M  V30 5372 H 498.663 4.72118 -3.70438 0
M  V30 5373 H 499.733 3.31765 -3.53638 0
M  V30 5374 N 501.076 1.04316 1.18135 0
M  V30 5375 C 502.301 0.768047 1.92655 0
M  V30 5376 C 502.726 -0.66904 1.758 0
M  V30 5377 O 502.084 -1.46372 1.06981 0
M  V30 5378 C 502.132 1.14239 3.42026 0
M  V30 5379 O 501.236 0.269333 4.1152 0
M  V30 5380 H 500.577 0.282436 0.600937 0
M  V30 5381 H 503.107 1.39367 1.49793 0
M  V30 5382 H 503.117 1.10538 3.92741 0
M  V30 5383 H 501.792 2.18928 3.53615 0
M  V30 5384 H 500.369 0.366175 3.71098 0
M  V30 5385 N 502.554 -1.34406 0.822964 0
M  V30 5386 C 503.484 -2.32052 0.259608 0
M  V30 5387 C 504.465 -1.58243 -0.623961 0
M  V30 5388 O 505.65 -1.86224 -0.55083 0
M  V30 5389 C 502.78 -3.42434 -0.579314 0
M  V30 5390 C 501.734 -4.27499 0.20712 0
M  V30 5391 C 501.06 -5.29349 -0.754547 0
M  V30 5392 C 502.36 -5.02758 1.41533 0
M  V30 5393 H 504.054 -2.79418 1.07545 0
M  V30 5394 H 501.6 -1.34338 0.518593 0
M  V30 5395 H 503.553 -4.0976 -0.983612 0
M  V30 5396 H 502.277 -2.93717 -1.4282 0
M  V30 5397 H 500.936 -3.61776 0.592787 0
M  V30 5398 H 500.584 -4.76895 -1.59939 0
M  V30 5399 H 500.284 -5.8714 -0.232561 0
M  V30 5400 H 501.808 -5.99544 -1.1567 0
M  V30 5401 H 503.222 -5.62938 1.08504 0
M  V30 5402 H 501.619 -5.70123 1.87296 0
M  V30 5403 H 502.689 -4.32451 2.1935 0
M  V30 5404 N 504.032 -0.577932 -1.46621 0
M  V30 5405 C 505.281 -0.0594281 -2.01612 0
M  V30 5406 C 505.594 1.30663 -1.45556 0
M  V30 5407 O 506.8 1.91621 -1.92337 0
M  V30 5408 C 505.256 -0.0556666 -3.59857 0
M  V30 5409 C 504.864 -1.41975 -4.24908 0
M  V30 5410 C 506.608 0.409143 -4.22524 0
M  V30 5411 C 504.515 -1.37397 -5.75218 0
M  V30 5412 H 503.445 -0.0184469 -0.753774 0
M  V30 5413 H 506.096 -0.728869 -1.68404 0
M  V30 5414 H 504.478 0.679843 -3.90121 0
M  V30 5415 H 505.652 -2.17461 -4.0626 0
M  V30 5416 H 503.967 -1.82419 -3.74316 0
M  V30 5417 H 506.564 0.46211 -5.32699 0
M  V30 5418 H 506.907 1.42565 -3.91128 0
M  V30 5419 H 507.44 -0.272152 -3.96868 0
M  V30 5420 H 504.179 -2.36714 -6.11267 0
M  V30 5421 H 503.699 -0.661239 -5.96144 0
M  V30 5422 H 505.378 -1.08484 -6.3784 0
M  V30 5423 N 505.51 1.54411 -0.315457 0
M  V30 5424 C 506.787 1.92562 0.343398 0
M  V30 5425 C 507.167 1.24423 1.70535 0
M  V30 5426 O 506.515 0.385051 2.25232 0
M  V30 5427 C 506.725 3.46168 0.443687 0
M  V30 5428 C 508.073 4.18659 0.707783 0
M  V30 5429 O 509.097 3.52281 0.52693 0
M  V30 5430 O 507.956 5.36198 1.05612 0
M  V30 5431 H 505.05 0.80379 0.194552 0
M  V30 5432 H 507.596 1.65738 -0.364577 0
M  V30 5433 H 506.368 3.8792 -0.513172 0
M  V30 5434 H 505.991 3.79073 1.19956 0
M  V30 5435 N 506.988 0.0434614 1.5754 0
M  V30 5436 C 507.951 -0.918696 2.09982 0
M  V30 5437 C 508.951 -1.24488 1.01781 0
M  V30 5438 O 510.141 -1.18284 1.27885 0
M  V30 5439 C 507.273 -2.23093 2.57764 0
M  V30 5440 H 508.466 -0.464229 2.96285 0
M  V30 5441 H 506.019 -0.204818 1.54952 0
M  V30 5442 H 506.754 -2.73137 1.74832 0
M  V30 5443 H 506.539 -2.00724 3.36827 0
M  V30 5444 H 508.029 -2.92028 2.98512 0
M  V30 5445 N 508.466 -1.55915 -0.229846 0
M  V30 5446 C 509.743 -1.6932 -0.979295 0
M  V30 5447 C 510.123 -0.588321 -2.02736 0
M  V30 5448 O 509.471 0.40586 -2.24867 0
M  V30 5449 C 509.681 -3.10305 -1.59724 0
M  V30 5450 C 511.029 -3.6945 -2.09264 0
M  V30 5451 O 512.053 -3.13214 -1.69633 0
M  V30 5452 O 510.912 -4.68072 -2.82082 0
M  V30 5453 H 508.006 -0.689314 -0.456919 0
M  V30 5454 H 510.552 -1.68238 -0.222283 0
M  V30 5455 H 509.324 -3.82177 -0.840039 0
M  V30 5456 H 508.947 -3.1547 -2.42001 0
M  V30 5457 N 509.944 0.496216 -1.49584 0
M  V30 5458 C 511.355 1.07765 -1.52459 0
M  V30 5459 C 511.706 1.93679 -0.31353 0
M  V30 5460 O 510.831 2.08588 0.576186 0
M  V30 5461 C 511.426 1.96111 -2.76271 0
M  V30 5462 C 509.985 2.49409 -2.81908 0
M  V30 5463 C 509.132 1.27142 -2.46435 0
M  V30 5464 H 512.083 0.279914 -1.56212 0
M  V30 5465 H 512.104 2.80862 -2.56704 0
M  V30 5466 H 511.616 1.33555 -3.64396 0
M  V30 5467 H 509.717 3.1559 -1.98074 0
M  V30 5468 H 509.83 2.86234 -3.84196 0
M  V30 5469 H 508.194 1.59818 -1.98319 0
M  V30 5470 H 508.977 0.662866 -3.3684 0
M  V30 5471 N 511.423 1.38739 0.74761 0
M  V30 5472 C 512.653 1.3832 1.53464 0
M  V30 5473 C 513.061 -0.0273464 1.8918 0
M  V30 5474 O 512.404 -1.00588 1.53713 0
M  V30 5475 C 512.466 2.18007 2.85855 0
M  V30 5476 C 512.13 3.66762 2.72644 0
M  V30 5477 C 513.127 4.60124 2.42037 0
M  V30 5478 C 510.812 4.10193 2.89909 0
M  V30 5479 C 512.806 5.94897 2.28859 0
M  V30 5480 C 510.493 5.45045 2.7635 0
M  V30 5481 C 511.491 6.37211 2.45869 0
M  V30 5482 O 511.179 7.69581 2.3238 0
M  V30 5483 H 510.911 0.474718 0.481268 0
M  V30 5484 H 513.465 1.83012 0.932518 0
M  V30 5485 H 511.695 1.68043 3.48279 0
M  V30 5486 H 513.384 2.09921 3.47402 0
M  V30 5487 H 514.15 4.27874 2.28361 0
M  V30 5488 H 510.029 3.38797 3.1263 0
M  V30 5489 H 513.573 6.66802 2.04989 0
M  V30 5490 H 509.47 5.76889 2.89601 0
M  V30 5491 H 510.238 7.80169 2.47546 0
M  V30 5492 N 512.901 -0.976442 1.23707 0
M  V30 5493 C 513.831 -2.08749 1.04624 0
M  V30 5494 C 514.812 -1.70057 -0.0380956 0
M  V30 5495 O 515.997 -1.93782 0.127308 0
M  V30 5496 C 513.127 -3.41335 0.640902 0
M  V30 5497 C 512.081 -3.93947 1.67302 0
M  V30 5498 C 511.407 -5.22774 1.12301 0
M  V30 5499 C 512.707 -4.22769 3.06697 0
M  V30 5500 H 514.401 -2.24972 1.97555 0
M  V30 5501 H 511.947 -1.08108 0.951247 0
M  V30 5502 H 513.9 -4.18489 0.494434 0
M  V30 5503 H 512.624 -3.24988 -0.324099 0
M  V30 5504 H 511.283 -3.18941 1.80755 0
M  V30 5505 H 510.931 -5.0278 0.148877 0
M  V30 5506 H 510.631 -5.58942 1.81267 0
M  V30 5507 H 512.155 -6.02546 0.988479 0
M  V30 5508 H 513.569 -4.90659 2.96524 0
M  V30 5509 H 511.966 -4.70147 3.72937 0
M  V30 5510 H 513.036 -3.29885 3.55392 0
M  V30 5511 N 514.379 -1.04941 -1.1758 0
M  V30 5512 C 515.326 -0.648155 -2.21512 0
M  V30 5513 C 516.296 0.348431 -1.62404 0
M  V30 5514 O 517.481 0.240419 -1.89279 0
M  V30 5515 C 514.621 -0.0264291 -3.4509 0
M  V30 5516 C 513.734 -1.07154 -4.185 0
M  V30 5517 C 512.869 -0.417403 -5.29558 0
M  V30 5518 C 511.908 -1.447 -5.94751 0
M  V30 5519 N 511.045 -0.817203 -6.97328 0
M  V30 5520 H 515.885 -1.53891 -2.55189 0
M  V30 5521 H 513.422 -0.769699 -1.25356 0
M  V30 5522 H 515.38 0.351456 -4.15717 0
M  V30 5523 H 514.01 0.827802 -3.12005 0
M  V30 5524 H 513.062 -1.56728 -3.46613 0
M  V30 5525 H 514.374 -1.8532 -4.63096 0
M  V30 5526 H 513.528 0.0142061 -6.06698 0
M  V30 5527 H 512.267 0.396265 -4.86087 0
M  V30 5528 H 511.272 -1.88865 -5.16343 0
M  V30 5529 H 512.497 -2.26252 -6.40302 0
M  V30 5530 H 510.443 -0.0239995 -6.55996 0
M  V30 5531 H 510.36 -1.53644 -7.40223 0
M  V30 5532 H 511.628 -0.410283 -7.7842 0
M  V30 5533 N 515.857 1.33968 -0.830081 0
M  V30 5534 C 517.087 2.01987 -0.434142 0
M  V30 5535 C 517.495 1.62639 0.96671 0
M  V30 5536 O 516.838 0.831151 1.63822 0
M  V30 5537 C 516.9 3.5648 -0.465018 0
M  V30 5538 C 516.564 4.19176 -1.82045 0
M  V30 5539 C 517.561 4.39181 -2.78237 0
M  V30 5540 C 515.246 4.55792 -2.11089 0
M  V30 5541 C 517.24 4.94937 -4.01642 0
M  V30 5542 C 514.927 5.11258 -3.34752 0
M  V30 5543 C 515.925 5.30775 -4.29845 0
M  V30 5544 O 515.613 5.85064 -5.51322 0
M  V30 5545 H 515.345 0.653847 -0.171639 0
M  V30 5546 H 517.899 1.72066 -1.12171 0
M  V30 5547 H 516.129 3.8569 0.279284 0
M  V30 5548 H 517.818 4.05804 -0.0881334 0
M  V30 5549 H 518.584 4.11249 -2.57097 0
M  V30 5550 H 514.463 4.39901 -1.3787 0
M  V30 5551 H 518.007 5.10086 -4.75876 0
M  V30 5552 H 513.904 5.38619 -3.55753 0
M  V30 5553 H 514.672 6.03489 -5.5294 0
M  V30 5554 N 517.335 0.585699 1.46312 0
M  V30 5555 C 518.265 -0.133556 2.33118 0
M  V30 5556 C 519.246 -0.880707 1.45525 0
M  V30 5557 O 520.431 -0.855579 1.74337 0
M  V30 5558 C 517.561 -1.14585 3.27853 0
M  V30 5559 C 516.515 -0.513341 4.2491 0
M  V30 5560 C 515.841 -1.63231 5.09175 0
M  V30 5561 C 517.141 0.551413 5.19381 0
M  V30 5562 H 518.835 0.59121 2.93505 0
M  V30 5563 H 516.381 0.285761 1.41136 0
M  V30 5564 H 518.334 -1.65741 3.87438 0
M  V30 5565 H 517.058 -1.90093 2.65579 0
M  V30 5566 H 515.717 -0.0228349 3.66593 0
M  V30 5567 H 515.365 -2.37713 4.43285 0
M  V30 5568 H 515.065 -1.21473 5.74907 0
M  V30 5569 H 516.589 -2.14658 5.71624 0
M  V30 5570 H 518.003 0.124804 5.73164 0
M  V30 5571 H 516.4 0.889486 5.93471 0
M  V30 5572 H 517.47 1.43655 4.63132 0
M  V30 5573 N 518.813 -1.54241 0.323641 0
M  V30 5574 C 520.224 -1.85975 -0.164405 0
M  V30 5575 C 520.575 -1.24529 -1.51615 0
M  V30 5576 O 519.7 -0.551351 -2.09258 0
M  V30 5577 C 520.295 -3.37424 -0.305091 0
M  V30 5578 C 518.854 -3.69107 -0.737358 0
M  V30 5579 C 518.001 -2.76942 0.140884 0
M  V30 5580 H 520.952 -1.49088 0.543922 0
M  V30 5581 H 520.973 -3.63147 -1.13598 0
M  V30 5582 H 520.485 -3.82116 0.678876 0
M  V30 5583 H 518.586 -3.29947 -1.73107 0
M  V30 5584 H 518.699 -4.76035 -0.541053 0
M  V30 5585 H 517.063 -2.51795 -0.383572 0
M  V30 5586 H 517.846 -3.24461 1.12162 0
M  V30 5587 N 520.291 -0.0518155 -1.57515 0
M  V30 5588 C 521.516 0.634896 -1.97443 0
M  V30 5589 C 521.941 1.63546 -0.929207 0
M  V30 5590 O 521.299 1.80981 0.107484 0
M  V30 5591 C 521.347 1.29765 -3.36442 0
M  V30 5592 O 520.451 2.41333 -3.34413 0
M  V30 5593 H 519.792 0.164994 -0.643174 0
M  V30 5594 H 522.322 -0.120407 -2.04245 0
M  V30 5595 H 522.332 1.64918 -3.73184 0
M  V30 5596 H 521.007 0.564361 -4.12053 0
M  V30 5597 H 519.584 2.08122 -3.09418 0
M  V30 5598 N 521.769 1.56035 0.221574 0
M  V30 5599 C 523.015 1.79312 0.947372 0
M  V30 5600 C 523.348 0.621453 1.83988 0
M  V30 5601 O 522.623 -0.379287 1.90766 0
M  V30 5602 C 522.906 3.1267 1.78633 0
M  V30 5603 C 522.759 4.40284 0.920312 0
M  V30 5604 C 524.078 3.4247 2.7641 0
M  V30 5605 H 521.197 0.652328 0.342982 0
M  V30 5606 H 523.839 1.88765 0.216244 0
M  V30 5607 H 521.989 3.04741 2.40967 0
M  V30 5608 H 523.661 4.60232 0.313718 0
M  V30 5609 H 521.904 4.33212 0.225734 0
M  V30 5610 H 522.575 5.30033 1.54171 0
M  V30 5611 H 525.051 3.50526 2.24211 0
M  V30 5612 H 523.927 4.3695 3.32213 0
M  V30 5613 H 524.188 2.64635 3.54148 0
M  V30 5614 N 523.247 -0.488276 1.49845 0
M  V30 5615 C 524.496 -1.23826 1.59217 0
M  V30 5616 C 524.809 -1.93439 0.289966 0
M  V30 5617 O 526.015 -2.70229 0.262382 0
M  V30 5618 C 524.471 -2.24902 2.80976 0
M  V30 5619 C 524.079 -1.6117 4.18005 0
M  V30 5620 C 525.823 -3.00648 2.99685 0
M  V30 5621 C 523.73 -2.60431 5.3097 0
M  V30 5622 H 522.66 -0.465858 0.592868 0
M  V30 5623 H 525.311 -0.510645 1.76252 0
M  V30 5624 H 523.693 -3.0088 2.57463 0
M  V30 5625 H 524.867 -0.910968 4.51706 0
M  V30 5626 H 523.182 -0.97767 4.0476 0
M  V30 5627 H 525.779 -3.74903 3.81251 0
M  V30 5628 H 526.122 -3.5902 2.10738 0
M  V30 5629 H 526.655 -2.31784 3.23297 0
M  V30 5630 H 523.394 -2.06823 6.22017 0
M  V30 5631 H 522.914 -3.28707 5.01709 0
M  V30 5632 H 524.593 -3.22606 5.60834 0
M  V30 5633 N 524.725 -1.39134 -0.740242 0
M  V30 5634 C 525.688 -1.37217 -1.83587 0
M  V30 5635 C 526.688 -0.270221 -1.58513 0
M  V30 5636 O 527.878 -0.527843 -1.6601 0
M  V30 5637 C 525.01 -1.13959 -3.21288 0
M  V30 5638 H 526.203 -2.34705 -1.86691 0
M  V30 5639 H 523.756 -1.24622 -0.94335 0
M  V30 5640 H 524.491 -0.17131 -3.23847 0
M  V30 5641 H 524.276 -1.93754 -3.40884 0
M  V30 5642 H 525.766 -1.15346 -4.01354 0
M  V30 5643 N 526.204 0.969867 -1.24223 0
M  V30 5644 C 527.452 1.70918 -1.0785 0
M  V30 5645 C 527.773 1.91186 0.383763 0
M  V30 5646 O 527.043 1.48806 1.27411 0
M  V30 5647 H 525.623 0.633334 -0.396103 0
M  V30 5648 H 528.285 1.16689 -1.56108 0
M  V30 5649 H 527.381 2.69455 -1.57482 0
M  V30 5650 N 527.682 1.05563 1.17022 0
M  V30 5651 C 528.645 0.664098 2.19368 0
M  V30 5652 C 529.645 -0.286358 1.5823 0
M  V30 5653 O 530.835 -0.069728 1.7406 0
M  V30 5654 C 527.967 -0.0239932 3.40892 0
M  V30 5655 H 529.16 1.57 2.55521 0
M  V30 5656 H 526.713 0.849964 1.31169 0
M  V30 5657 H 527.448 -0.942988 3.10287 0
M  V30 5658 H 527.233 0.659351 3.86516 0
M  V30 5659 H 528.723 -0.283909 4.16634 0
M  V30 5660 N 529.16 -1.33526 0.837174 0
M  V30 5661 C 530.123 -2.27551 0.274421 0
M  V30 5662 C 531.123 -1.50886 -0.555881 0
M  V30 5663 O 532.313 -1.70227 -0.369918 0
M  V30 5664 C 529.445 -3.35332 -0.613605 0
M  V30 5665 H 530.638 -2.78837 1.10408 0
M  V30 5666 H 528.191 -1.439 0.610126 0
M  V30 5667 H 528.926 -2.89285 -1.46577 0
M  V30 5668 H 528.711 -3.92095 -0.0195341 0
M  V30 5669 H 530.201 -4.05433 -1.00068 0
M  V30 5670 N 530.638 -0.59345 -1.46 0
M  V30 5671 C 531.885 -0.0831523 -2.02329 0
M  V30 5672 C 532.213 1.28093 -1.46364 0
M  V30 5673 O 531.468 1.85526 -0.622793 0
M  V30 5674 C 531.767 0.021178 -3.57394 0
M  V30 5675 C 531.433 -1.27671 -4.32448 0
M  V30 5676 C 530.095 -1.63227 -4.5267 0
M  V30 5677 C 532.447 -2.13511 -4.7546 0
M  V30 5678 C 529.775 -2.84401 -5.1316 0
M  V30 5679 C 532.127 -3.33922 -5.37289 0
M  V30 5680 C 530.791 -3.69747 -5.55737 0
M  V30 5681 H 530.061 -0.0304276 -0.740375 0
M  V30 5682 H 532.708 -0.772239 -1.75239 0
M  V30 5683 H 531.013 0.793454 -3.83682 0
M  V30 5684 H 532.71 0.431942 -3.98667 0
M  V30 5685 H 529.3 -0.989937 -4.17011 0
M  V30 5686 H 533.484 -1.87344 -4.59582 0
M  V30 5687 H 528.74 -3.12282 -5.25633 0
M  V30 5688 H 532.914 -4.00698 -5.69574 0
M  V30 5689 H 530.541 -4.6373 -6.02377 0
M  V30 5690 N 532.116 1.54067 -0.331816 0
M  V30 5691 C 533.066 2.21363 0.546101 0
M  V30 5692 C 534.05 1.19698 1.07523 0
M  V30 5693 O 535.242 1.45293 1.01088 0
M  V30 5694 C 532.371 2.98115 1.70242 0
M  V30 5695 C 531.457 4.07127 1.18779 0
M  V30 5696 N 531.848 5.04267 0.393465 0
M  V30 5697 C 530.146 4.21226 1.46576 0
M  V30 5698 C 530.847 5.81585 0.115572 0
M  V30 5699 N 529.823 5.39022 0.703987 0
M  V30 5700 H 533.625 2.93821 -0.0679751 0
M  V30 5701 H 531.139 1.61812 -0.138085 0
M  V30 5702 H 533.136 3.44818 2.34321 0
M  V30 5703 H 531.796 2.27181 2.31989 0
M  V30 5704 H 532.807 5.17888 0.0355757 0
M  V30 5705 H 529.484 3.61509 2.08848 0
M  V30 5706 H 530.874 6.6985 -0.524426 0
M  V30 5707 N 533.594 0.0601682 1.57485 0
M  V30 5708 C 534.524 -0.90889 2.15085 0
M  V30 5709 C 535.505 -1.31838 1.07484 0
M  V30 5710 O 536.69 -1.3915 1.35466 0
M  V30 5711 C 533.82 -2.18059 2.7031 0
M  V30 5712 C 532.774 -1.91088 3.82974 0
M  V30 5713 C 532.1 -3.24789 4.24754 0
M  V30 5714 C 533.4 -1.22535 5.07723 0
M  V30 5715 H 535.094 -0.429093 2.96309 0
M  V30 5716 H 532.64 -0.204952 1.42534 0
M  V30 5717 H 534.593 -2.86258 3.09248 0
M  V30 5718 H 533.317 -2.6826 1.8629 0
M  V30 5719 H 531.976 -1.25297 3.44523 0
M  V30 5720 H 531.624 -3.72809 3.37672 0
M  V30 5721 H 531.324 -3.07538 5.00694 0
M  V30 5722 H 532.848 -3.94205 4.66299 0
M  V30 5723 H 534.262 -1.80783 5.4405 0
M  V30 5724 H 532.659 -1.1558 5.88864 0
M  V30 5725 H 533.729 -0.202692 4.84476 0
M  V30 5726 N 535.072 -1.5615 -0.213296 0
M  V30 5727 C 536.035 -1.92249 -1.24792 0
M  V30 5728 C 537.035 -0.801828 -1.39382 0
M  V30 5729 O 538.225 -1.06948 -1.37506 0
M  V30 5730 C 535.357 -2.18056 -2.62039 0
M  V30 5731 H 536.55 -2.84793 -0.939845 0
M  V30 5732 H 534.103 -1.49559 -0.454062 0
M  V30 5733 H 534.838 -1.2809 -2.97932 0
M  V30 5734 H 534.623 -2.99703 -2.52825 0
M  V30 5735 H 536.113 -2.47051 -3.36683 0
M  V30 5736 N 536.55 0.480323 -1.50102 0
M  V30 5737 C 537.48 1.58769 -1.71215 0
M  V30 5738 C 538.461 1.60583 -0.560997 0
M  V30 5739 O 539.646 1.76996 -0.799127 0
M  V30 5740 C 536.776 2.97148 -1.79778 0
M  V30 5741 C 535.73 3.10201 -2.94888 0
M  V30 5742 C 535.056 4.50137 -2.88584 0
M  V30 5743 C 536.356 2.88283 -4.35534 0
M  V30 5744 H 538.05 1.41354 -2.6393 0
M  V30 5745 H 535.596 0.678591 -1.27008 0
M  V30 5746 H 537.549 3.74536 -1.93133 0
M  V30 5747 H 536.273 3.15699 -0.836772 0
M  V30 5748 H 534.932 2.35244 -2.81169 0
M  V30 5749 H 534.58 4.65593 -1.90349 0
M  V30 5750 H 534.28 4.59808 -3.65856 0
M  V30 5751 H 535.804 5.29558 -3.03976 0
M  V30 5752 H 537.218 3.55427 -4.49827 0
M  V30 5753 H 535.615 3.09408 -5.14186 0
M  V30 5754 H 536.685 1.84219 -4.48544 0
M  V30 5755 N 538.028 1.39524 0.732853 0
M  V30 5756 C 539.258 1.3994 1.51988 0
M  V30 5757 C 539.666 -0.00727973 1.89199 0
M  V30 5758 O 539.009 -0.989521 1.54771 0
M  V30 5759 C 539.071 2.21026 2.83527 0
M  V30 5760 C 538.735 3.69633 2.68738 0
M  V30 5761 C 539.732 4.62665 2.37143 0
M  V30 5762 C 537.417 4.13244 2.85542 0
M  V30 5763 C 539.411 5.97291 2.22536 0
M  V30 5764 C 537.098 5.47945 2.70554 0
M  V30 5765 C 538.096 6.39783 2.39097 0
M  V30 5766 O 537.784 7.72002 2.24204 0
M  V30 5767 H 537.516 0.479795 0.476206 0
M  V30 5768 H 540.07 1.8399 0.913054 0
M  V30 5769 H 538.3 1.71728 3.46477 0
M  V30 5770 H 539.989 2.13594 3.45156 0
M  V30 5771 H 540.755 4.30272 2.2381 0
M  V30 5772 H 536.634 3.42094 3.09019 0
M  V30 5773 H 540.178 6.68939 1.97905 0
M  V30 5774 H 536.075 5.79928 2.83466 0
M  V30 5775 H 536.843 7.8275 2.39258 0
M  V30 5776 N 539.506 -0.963266 1.24736 0
M  V30 5777 C 540.734 -1.74166 1.11686 0
M  V30 5778 C 541.149 -1.8589 -0.330187 0
M  V30 5779 O 540.506 -1.35042 -1.2276 0
M  V30 5780 C 540.557 -3.15989 1.75595 0
M  V30 5781 O 540.278 -3.04847 3.14642 0
M  V30 5782 C 541.779 -4.10145 1.68213 0
M  V30 5783 H 538.999 -0.546031 0.389989 0
M  V30 5784 H 541.543 -1.20907 1.64929 0
M  V30 5785 H 539.698 -3.66219 1.26343 0
M  V30 5786 H 540.112 -3.9425 3.4593 0
M  V30 5787 H 541.586 -5.07299 2.17604 0
M  V30 5788 H 542.063 -4.3445 0.644208 0
M  V30 5789 H 542.669 -3.65827 2.16912 0
M  V30 5790 N 540.985 -1.06182 -1.16461 0
M  V30 5791 C 542.231 -0.779015 -1.87241 0
M  V30 5792 C 542.564 0.692715 -1.81425 0
M  V30 5793 O 541.839 1.5074 -1.22913 0
M  V30 5794 C 542.122 -1.2728 -3.36856 0
M  V30 5795 C 541.975 -2.80821 -3.51368 0
M  V30 5796 C 543.294 -0.879799 -4.31216 0
M  V30 5797 H 540.413 -0.284464 -0.679889 0
M  V30 5798 H 543.055 -1.31755 -1.36896 0
M  V30 5799 H 541.205 -0.814673 -3.79862 0
M  V30 5800 H 542.877 -3.34833 -3.17308 0
M  V30 5801 H 541.12 -3.19606 -2.93316 0
M  V30 5802 H 541.791 -3.10435 -4.56436 0
M  V30 5803 H 544.267 -1.27436 -3.96105 0
M  V30 5804 H 543.143 -1.25278 -5.34412 0
M  V30 5805 H 543.404 0.215372 -4.41575 0
M  V30 5806 N 542.463 1.3308 -0.844243 0
M  V30 5807 C 543.691 2.01808 -0.456203 0
M  V30 5808 C 544.106 1.63498 0.944131 0
M  V30 5809 O 543.463 0.85102 1.61443 0
M  V30 5810 C 543.514 3.56922 -0.573513 0
M  V30 5811 O 543.235 3.93851 -1.91868 0
M  V30 5812 C 544.736 4.42922 -0.183125 0
M  V30 5813 H 541.956 0.646273 -0.180477 0
M  V30 5814 H 544.5 1.69891 -1.1383 0
M  V30 5815 H 542.655 3.87352 0.0607367 0
M  V30 5816 H 543.069 4.88564 -1.90802 0
M  V30 5817 H 544.543 5.51093 -0.316241 0
M  V30 5818 H 545.02 4.30386 0.875477 0
M  V30 5819 H 545.626 4.1786 -0.792027 0
M  V30 5820 N 543.941 0.601185 1.45683 0
M  V30 5821 C 545.189 0.0936957 2.01883 0
M  V30 5822 C 545.51 -1.2779 1.47291 0
M  V30 5823 O 544.78 -1.84279 0.664691 0
M  V30 5824 H 543.36 0.0316466 0.746329 0
M  V30 5825 H 546.022 0.781137 1.78562 0
M  V30 5826 H 545.118 0.0386297 3.12076 0
M  V30 5827 N 545.419 -1.53889 0.339982 0
M  V30 5828 C 546.351 -2.22435 -0.55275 0
M  V30 5829 C 547.364 -1.22975 -1.06681 0
M  V30 5830 O 548.553 -1.49351 -0.977575 0
M  V30 5831 C 545.653 -2.8882 -1.77302 0
M  V30 5832 C 544.826 -4.14563 -1.39486 0
M  V30 5833 C 543.885 -4.64391 -2.47442 0
M  V30 5834 O 542.911 -5.28687 -2.10899 0
M  V30 5835 N 544.113 -4.40015 -3.78639 0
M  V30 5836 H 546.878 -2.9968 0.0342669 0
M  V30 5837 H 544.439 -1.61068 0.16394 0
M  V30 5838 H 546.431 -3.19072 -2.48948 0
M  V30 5839 H 545.001 -2.15182 -2.26749 0
M  V30 5840 H 544.221 -3.90896 -0.509321 0
M  V30 5841 H 545.509 -4.96362 -1.11813 0
M  V30 5842 H 544.907 -3.88586 -4.11118 0
M  V30 5843 H 543.464 -4.74881 -4.46465 0
M  V30 5844 N 546.897 -0.0685191 -1.57451 0
M  V30 5845 C 548.122 0.613919 -1.98106 0
M  V30 5846 C 548.547 1.62551 -0.946501 0
M  V30 5847 O 547.905 1.81085 0.0882824 0
M  V30 5848 C 547.953 1.26189 -3.378 0
M  V30 5849 O 547.057 2.37773 -3.36954 0
M  V30 5850 H 546.398 0.158163 -0.644888 0
M  V30 5851 H 548.928 -0.142063 -2.04106 0
M  V30 5852 H 548.938 1.60951 -3.74912 0
M  V30 5853 H 547.613 0.520625 -4.12629 0
M  V30 5854 H 546.19 2.04829 -3.11608 0
M  V30 5855 N 548.375 1.56261 0.205012 0
M  V30 5856 C 549.621 1.81211 0.923805 0
M  V30 5857 C 549.976 0.644065 1.813 0
M  V30 5858 O 549.269 -0.361208 1.88164 0
M  V30 5859 C 549.463 3.09722 1.78345 0
M  V30 5860 C 549.292 4.38915 0.978979 0
M  V30 5861 C 548.062 5.00874 0.667332 0
M  V30 5862 C 550.26 5.13199 0.336386 0
M  V30 5863 N 548.242 6.137 -0.156814 0
M  V30 5864 C 549.613 6.19009 -0.350402 0
M  V30 5865 C 551.668 4.97266 0.251101 0
M  V30 5866 C 550.371 7.10616 -1.11434 0
M  V30 5867 C 552.397 5.89288 -0.499413 0
M  V30 5868 C 551.759 6.94536 -1.17468 0
M  V30 5869 H 547.858 0.714528 0.317764 0
M  V30 5870 H 550.442 1.93738 0.193317 0
M  V30 5871 H 548.613 2.98448 2.48563 0
M  V30 5872 H 550.345 3.22798 2.44098 0
M  V30 5873 H 547.1 4.63151 0.989366 0
M  V30 5874 H 547.524 6.74695 -0.558206 0
M  V30 5875 H 552.166 4.15935 0.758823 0
M  V30 5876 H 549.884 7.91417 -1.63353 0
M  V30 5877 H 553.47 5.79034 -0.566627 0
M  V30 5878 H 552.35 7.64513 -1.74613 0
M  V30 5879 N 549.853 -0.472356 1.50355 0
M  V30 5880 C 551.264 -1.05326 1.54154 0
M  V30 5881 C 551.615 -1.93155 0.344303 0
M  V30 5882 O 550.74 -2.09479 -0.542928 0
M  V30 5883 C 551.335 -1.91691 2.79356 0
M  V30 5884 C 549.894 -2.44892 2.8584 0
M  V30 5885 C 549.041 -1.23205 2.48426 0
M  V30 5886 H 551.992 -0.255027 1.56637 0
M  V30 5887 H 552.013 -2.76742 2.6114 0
M  V30 5888 H 551.525 -1.27741 3.66475 0
M  V30 5889 H 549.626 -3.12399 2.0307 0
M  V30 5890 H 549.739 -2.80086 3.88701 0
M  V30 5891 H 548.103 -1.56643 2.00836 0
M  V30 5892 H 548.886 -0.609194 3.37852 0
M  V30 5893 N 551.331 -1.39911 -0.725443 0
M  V30 5894 C 552.241 -1.41688 -1.8698 0
M  V30 5895 C 553.257 -0.310579 -1.71206 0
M  V30 5896 O 554.433 -0.55359 -1.93642 0
M  V30 5897 C 551.498 -1.26811 -3.22676 0
M  V30 5898 C 550.559 -2.47497 -3.50776 0
M  V30 5899 C 549.792 -2.3332 -4.79997 0
M  V30 5900 O 550.015 -1.34175 -5.54394 0
M  V30 5901 O 548.949 -3.22498 -5.08211 0
M  V30 5902 H 552.775 -2.38171 -1.88436 0
M  V30 5903 H 550.36 -1.21128 -0.874548 0
M  V30 5904 H 552.242 -1.20684 -4.03749 0
M  V30 5905 H 550.917 -0.334289 -3.21969 0
M  V30 5906 H 549.824 -2.59201 -2.69751 0
M  V30 5907 H 551.157 -3.39606 -3.5627 0
M  V30 5908 N 552.809 0.956637 -1.25245 0
M  V30 5909 C 554.034 1.74104 -1.12706 0
M  V30 5910 C 554.459 1.85436 0.315429 0
M  V30 5911 O 553.817 1.33334 1.22848 0
M  V30 5912 C 553.865 3.1338 -1.78396 0
M  V30 5913 O 552.969 3.98485 -1.06224 0
M  V30 5914 H 552.31 0.53476 -0.393609 0
M  V30 5915 H 554.84 1.19924 -1.65769 0
M  V30 5916 H 554.85 3.6385 -1.846 0
M  V30 5917 H 553.525 3.04448 -2.83345 0
M  V30 5918 H 552.102 3.56952 -1.07886 0
M  V30 5919 N 554.287 1.06798 1.15896 0
M  V30 5920 C 555.217 0.704677 2.22613 0
M  V30 5921 C 556.198 -0.305252 1.67339 0
M  V30 5922 O 557.383 -0.179247 1.93371 0
M  V30 5923 C 554.513 0.0957325 3.47168 0
M  V30 5924 C 553.467 1.0322 4.15367 0
M  V30 5925 C 552.793 0.286293 5.33933 0
M  V30 5926 C 554.093 2.36341 4.65768 0
M  V30 5927 H 555.787 1.59688 2.53259 0
M  V30 5928 H 553.333 0.769257 1.21731 0
M  V30 5929 H 555.286 -0.170333 4.21056 0
M  V30 5930 H 554.01 -0.831516 3.15838 0
M  V30 5931 H 552.669 1.28309 3.43413 0
M  V30 5932 H 552.317 -0.644237 4.98857 0
M  V30 5933 H 552.017 0.910436 5.80504 0
M  V30 5934 H 553.541 0.0278938 6.10594 0
M  V30 5935 H 554.955 2.1561 5.31211 0
M  V30 5936 H 553.352 2.94299 5.2298 0
M  V30 5937 H 554.422 2.99047 3.81705 0
M  V30 5938 N 555.766 -1.3263 0.851289 0
M  V30 5939 C 557.015 -1.96633 0.449267 0
M  V30 5940 C 557.328 -1.68131 -0.999562 0
M  V30 5941 O 558.534 -2.25845 -1.50685 0
M  V30 5942 C 556.99 -3.51946 0.752446 0
M  V30 5943 C 556.598 -3.89311 2.21678 0
M  V30 5944 C 558.342 -4.22437 0.417983 0
M  V30 5945 C 556.249 -5.37655 2.46336 0
M  V30 5946 H 555.179 -0.735888 0.164269 0
M  V30 5947 H 557.83 -1.51073 1.0416 0
M  V30 5948 H 556.212 -3.95899 0.0895858 0
M  V30 5949 H 557.386 -3.56378 2.92115 0
M  V30 5950 H 555.701 -3.31836 2.51543 0
M  V30 5951 H 558.298 -5.31549 0.579674 0
M  V30 5952 H 558.641 -4.11349 -0.640115 0
M  V30 5953 H 559.174 -3.84057 1.03659 0
M  V30 5954 H 555.913 -5.5376 3.50757 0
M  V30 5955 H 555.433 -5.72005 1.80473 0
M  V30 5956 H 557.112 -6.04695 2.30115 0
M  V30 5957 N 557.244 -0.608902 -1.45362 0
M  V30 5958 C 558.66 -0.272659 -1.57254 0
M  V30 5959 C 558.86 1.22477 -1.60005 0
M  V30 5960 O 557.916 2.00785 -1.53106 0
M  V30 5961 C 559.229 -0.944991 -2.85465 0
M  V30 5962 C 560.777 -0.921033 -2.99142 0
M  V30 5963 C 561.252 -1.5734 -4.30126 0
M  V30 5964 N 562.743 -1.53895 -4.36887 0
M  V30 5965 C 563.478 -2.01286 -5.36909 0
M  V30 5966 N 562.974 -2.56768 -6.43461 0
M  V30 5967 N 564.767 -1.92046 -5.28275 0
M  V30 5968 H 556.918 -1.58117 -1.4182 0
M  V30 5969 H 559.181 -0.662437 -0.678146 0
M  V30 5970 H 558.887 -1.99941 -2.89338 0
M  V30 5971 H 558.761 -0.469079 -3.74272 0
M  V30 5972 H 561.148 0.124846 -2.94836 0
M  V30 5973 H 561.229 -1.43522 -2.11743 0
M  V30 5974 H 560.873 -2.61862 -4.35191 0
M  V30 5975 H 560.803 -1.03422 -5.16344 0
M  V30 5976 H 563.294 -1.13366 -3.60495 0
M  V30 5977 H 563.607 -2.9072 -7.16032 0
M  V30 5978 H 561.952 -2.60808 -6.44208 0
M  V30 5979 H 565.143 -1.48439 -4.43941 0
M  V30 5980 H 565.316 -2.29293 -6.06077 0
M  V30 5981 N 558.722 1.53707 -0.348139 0
M  V30 5982 C 559.669 2.25173 0.506518 0
M  V30 5983 C 560.639 1.25174 1.09182 0
M  V30 5984 O 561.824 1.53917 1.12757 0
M  V30 5985 C 558.964 3.03141 1.64923 0
M  V30 5986 C 558.077 4.18002 1.0908 0
M  V30 5987 C 557.212 4.83447 2.20119 0
M  V30 5988 C 556.251 5.90369 1.61651 0
M  V30 5989 N 555.388 6.49575 2.66451 0
M  V30 5990 H 560.228 2.97799 -0.109452 0
M  V30 5991 H 557.765 1.46953 -0.0657866 0
M  V30 5992 H 559.723 3.46607 2.32205 0
M  V30 5993 H 558.353 2.32803 2.23612 0
M  V30 5994 H 557.405 3.79145 0.308783 0
M  V30 5995 H 558.717 4.94892 0.623178 0
M  V30 5996 H 557.871 5.30008 2.95257 0
M  V30 5997 H 556.61 4.05991 2.70227 0
M  V30 5998 H 555.615 5.43186 0.850209 0
M  V30 5999 H 556.84 6.69735 1.1239 0
M  V30 6000 H 554.786 5.74981 3.15805 0
M  V30 6001 H 554.703 7.21952 2.24325 0
M  V30 6002 H 555.971 7.00789 3.41344 0
M  V30 6003 N 560.2 0.0768682 1.57412 0
M  V30 6004 C 561.428 -0.59997 1.9801 0
M  V30 6005 C 561.843 -1.62842 0.955408 0
M  V30 6006 O 561.2 -1.8241 -0.057314 0
M  V30 6007 C 561.251 -1.26401 3.38681 0
M  V30 6008 O 560.972 -0.276723 4.37225 0
M  V30 6009 C 562.473 -2.0282 3.94182 0
M  V30 6010 H 559.693 -0.162239 0.651091 0
M  V30 6011 H 562.237 0.150771 2.03943 0
M  V30 6012 H 560.392 -1.96581 3.33819 0
M  V30 6013 H 560.806 -0.753744 5.19056 0
M  V30 6014 H 562.28 -2.44667 4.94815 0
M  V30 6015 H 562.757 -2.88678 3.31001 0
M  V30 6016 H 563.363 -1.37496 4.02461 0
M  V30 6017 N 561.678 -1.56367 -0.196722 0
M  V30 6018 C 562.926 -1.80172 -0.915554 0
M  V30 6019 C 563.247 -0.649649 -1.8386 0
M  V30 6020 O 562.517 0.332111 -1.93064 0
M  V30 6021 H 561.097 -0.664592 -0.341067 0
M  V30 6022 H 563.759 -1.93844 -0.202622 0
M  V30 6023 H 562.855 -2.7327 -1.50764 0
M  V30 6024 N 563.156 0.464375 -1.50603 0
M  V30 6025 C 564.386 1.23727 -1.65454 0
M  V30 6026 C 564.794 1.86119 -0.340032 0
M  V30 6027 O 564.137 1.70301 0.688706 0
M  V30 6028 C 564.199 2.38153 -2.69301 0
M  V30 6029 C 563.863 1.96345 -4.12671 0
M  V30 6030 C 564.86 1.48215 -4.98326 0
M  V30 6031 C 562.545 2.04861 -4.58625 0
M  V30 6032 C 564.539 1.09152 -6.27985 0
M  V30 6033 C 562.226 1.65409 -5.88288 0
M  V30 6034 C 563.224 1.17634 -6.72794 0
M  V30 6035 O 562.912 0.787312 -8.00035 0
M  V30 6036 H 562.644 0.380075 -0.559034 0
M  V30 6037 H 565.198 0.559919 -1.97621 0
M  V30 6038 H 563.428 3.09081 -2.32392 0
M  V30 6039 H 565.117 3.00099 -2.73304 0
M  V30 6040 H 565.883 1.41052 -4.64036 0
M  V30 6041 H 561.762 2.40996 -3.92991 0
M  V30 6042 H 565.306 0.717909 -6.93896 0
M  V30 6043 H 561.203 1.72233 -6.22098 0
M  V30 6044 H 561.971 0.915567 -8.13363 0
M  V30 6045 N 564.634 1.40294 0.718013 0
M  V30 6046 C 565.862 1.4175 1.50714 0
M  V30 6047 C 566.277 0.0165366 1.88793 0
M  V30 6048 O 565.634 -0.958942 1.55276 0
M  V30 6049 C 565.685 2.30598 2.784 0
M  V30 6050 O 565.406 3.6524 2.41932 0
M  V30 6051 C 566.907 2.4062 3.72313 0
M  V30 6052 H 564.127 0.483565 0.465194 0
M  V30 6053 H 566.671 1.84316 0.885889 0
M  V30 6054 H 564.826 1.91401 3.36815 0
M  V30 6055 H 565.24 4.12402 3.24076 0
M  V30 6056 H 566.714 3.07001 4.58753 0
M  V30 6057 H 567.191 1.4305 4.15251 0
M  V30 6058 H 567.797 2.80359 3.19811 0
M  V30 6059 N 566.112 -0.949982 1.2575 0
M  V30 6060 C 567.042 -2.06483 1.09028 0
M  V30 6061 C 568.023 -1.701 -0.00201532 0
M  V30 6062 O 569.208 -1.93469 0.168383 0
M  V30 6063 C 566.338 -3.39899 0.71316 0
M  V30 6064 C 565.292 -3.90309 1.75621 0
M  V30 6065 C 564.618 -5.20274 1.23365 0
M  V30 6066 C 565.918 -4.16169 3.15596 0
M  V30 6067 H 567.612 -2.20731 2.02283 0
M  V30 6068 H 565.158 -1.06066 0.973964 0
M  V30 6069 H 567.111 -4.17346 0.58309 0
M  V30 6070 H 565.835 -3.25602 -0.255091 0
M  V30 6071 H 564.494 -3.15035 1.8748 0
M  V30 6072 H 564.142 -5.02351 0.255491 0
M  V30 6073 H 563.842 -5.54971 1.93082 0
M  V30 6074 H 565.366 -6.00314 1.11607 0
M  V30 6075 H 566.78 -4.84259 3.06864 0
M  V30 6076 H 565.177 -4.62131 3.82825 0
M  V30 6077 H 566.247 -3.22273 3.6231 0
M  V30 6078 N 567.59 -1.07411 -1.15328 0
M  V30 6079 C 568.5 -0.706438 -2.23711 0
M  V30 6080 C 569.516 0.282586 -1.7169 0
M  V30 6081 O 570.692 0.129066 -2.00986 0
M  V30 6082 C 567.757 -0.11048 -3.46524 0
M  V30 6083 C 566.818 -1.15282 -4.13532 0
M  V30 6084 C 566.051 -0.585205 -5.30482 0
M  V30 6085 O 566.274 0.598549 -5.67251 0
M  V30 6086 O 565.208 -1.33039 -5.87013 0
M  V30 6087 H 569.034 -1.61031 -2.57493 0
M  V30 6088 H 566.619 -0.847113 -1.23062 0
M  V30 6089 H 568.501 0.21957 -4.20828 0
M  V30 6090 H 567.176 0.766703 -3.14489 0
M  V30 6091 H 566.083 -1.53523 -3.41147 0
M  V30 6092 H 567.416 -2.00192 -4.49649 0
M  V30 6093 N 569.068 1.32177 -0.85831 0
M  V30 6094 C 570.293 2.01847 -0.476718 0
M  V30 6095 C 570.718 1.64065 0.920021 0
M  V30 6096 O 570.076 0.843189 1.60499 0
M  V30 6097 C 570.124 3.55097 -0.627578 0
M  V30 6098 O 569.228 4.11012 0.338086 0
M  V30 6099 H 568.569 0.635907 -0.191099 0
M  V30 6100 H 571.099 1.68641 -1.15851 0
M  V30 6101 H 571.109 4.04718 -0.516476 0
M  V30 6102 H 569.784 3.81938 -1.64609 0
M  V30 6103 H 568.361 3.72451 0.182917 0
M  V30 6104 N 570.547 0.616602 1.45037 0
M  V30 6105 C 571.477 -0.0840787 2.33349 0
M  V30 6106 C 572.458 -0.849641 1.4736 0
M  V30 6107 O 573.643 -0.818407 1.76113 0
M  V30 6108 C 570.773 -1.07604 3.3021 0
M  V30 6109 C 569.727 -0.423096 4.25904 0
M  V30 6110 C 569.053 -1.52394 5.12523 0
M  V30 6111 C 570.353 0.661457 5.18095 0
M  V30 6112 H 572.047 0.653333 2.92185 0
M  V30 6113 H 569.593 0.315634 1.40498 0
M  V30 6114 H 571.546 -1.57485 3.90866 0
M  V30 6115 H 570.27 -1.84416 2.69552 0
M  V30 6116 H 568.929 0.05493 3.66559 0
M  V30 6117 H 568.577 -2.28257 4.48227 0
M  V30 6118 H 568.277 -1.09251 5.77354 0
M  V30 6119 H 569.801 -2.02485 5.76049 0
M  V30 6120 H 571.215 0.246353 5.7277 0
M  V30 6121 H 569.612 1.01517 5.91451 0
M  V30 6122 H 570.682 1.53446 4.59981 0
M  V30 6123 N 572.025 -1.5352 0.356285 0
M  V30 6124 C 572.972 -2.25439 -0.494569 0
M  V30 6125 C 573.942 -1.25752 -1.08516 0
M  V30 6126 O 575.127 -1.54513 -1.1194 0
M  V30 6127 C 572.267 -3.04011 -1.63313 0
M  V30 6128 C 571.38 -4.18574 -1.06862 0
M  V30 6129 C 570.515 -4.84607 -2.17552 0
M  V30 6130 C 569.554 -5.91218 -1.58518 0
M  V30 6131 N 568.691 -6.50979 -2.63003 0
M  V30 6132 H 573.531 -2.97737 0.125244 0
M  V30 6133 H 571.068 -1.46916 0.0735789 0
M  V30 6134 H 573.026 -3.47834 -2.30363 0
M  V30 6135 H 571.656 -2.33986 -2.22374 0
M  V30 6136 H 570.708 -3.79303 -0.288672 0
M  V30 6137 H 572.02 -4.95215 -0.596924 0
M  V30 6138 H 571.174 -5.31566 -2.92442 0
M  V30 6139 H 569.913 -4.07418 -2.6807 0
M  V30 6140 H 568.918 -5.4363 -0.821391 0
M  V30 6141 H 570.143 -6.70322 -1.08836 0
M  V30 6142 H 568.089 -5.76648 -3.12751 0
M  V30 6143 H 568.006 -7.23131 -2.20493 0
M  V30 6144 H 569.274 -7.02589 -3.37623 0
M  V30 6145 N 573.503 -0.0852151 -1.57369 0
M  V30 6146 C 574.914 0.445428 -1.81309 0
M  V30 6147 C 575.265 1.68795 -1.00013 0
M  V30 6148 O 574.39 2.15211 -0.226573 0
M  V30 6149 C 574.985 0.814887 -3.28854 0
M  V30 6150 C 573.544 1.29032 -3.53592 0
M  V30 6151 C 572.691 0.282089 -2.75861 0
M  V30 6152 H 575.642 -0.310771 -1.55627 0
M  V30 6153 H 575.663 1.67524 -3.41637 0
M  V30 6154 H 575.175 -0.0896309 -3.87996 0
M  V30 6155 H 573.276 2.21289 -2.9977 0
M  V30 6156 H 573.389 1.25898 -4.62262 0
M  V30 6157 H 571.753 0.762182 -2.43029 0
M  V30 6158 H 572.536 -0.614936 -3.37748 0
M  V30 6159 N 574.981 1.5647 0.188427 0
M  V30 6160 C 576.221 1.82803 0.914469 0
M  V30 6161 C 576.585 0.663681 1.80165 0
M  V30 6162 O 577.786 0.807059 2.56398 0
M  V30 6163 C 576.057 3.14187 1.70357 0
M  V30 6164 S 577.616 3.61947 2.48072 0
M  V30 6165 H 574.434 0.641497 0.306599 0
M  V30 6166 H 577.036 1.94694 0.177361 0
M  V30 6167 H 575.74 3.96937 1.04255 0
M  V30 6168 H 575.271 3.05192 2.48237 0
M  V30 6169 H 577.286 3.27913 3.72407 0
M  V30 6170 N 576.459 -0.456382 1.50847 0
M  V30 6171 C 577.389 -1.56025 1.73719 0
M  V30 6172 C 578.37 -1.5967 0.586473 0
M  V30 6173 O 579.555 -1.75702 0.827185 0
M  V30 6174 C 576.685 -2.94251 1.84483 0
M  V30 6175 C 575.639 -3.05471 2.99786 0
M  V30 6176 C 574.965 -4.45489 2.95709 0
M  V30 6177 C 576.265 -2.81318 4.40065 0
M  V30 6178 H 577.959 -1.37138 2.66146 0
M  V30 6179 H 575.505 -0.658299 1.28072 0
M  V30 6180 H 577.458 -3.71417 1.99067 0
M  V30 6181 H 576.182 -3.14328 0.886891 0
M  V30 6182 H 574.841 -2.30741 2.84876 0
M  V30 6183 H 574.489 -4.62505 1.97732 0
M  V30 6184 H 574.189 -4.53929 3.73125 0
M  V30 6185 H 575.713 -5.24655 3.12362 0
M  V30 6186 H 577.127 -3.48226 4.55425 0
M  V30 6187 H 575.524 -3.01188 5.19043 0
M  V30 6188 H 576.594 -1.7706 4.51418 0
M  V30 6189 N 577.937 -1.40673 -0.710563 0
M  V30 6190 C 578.87 -1.35742 -1.83438 0
M  V30 6191 C 579.848 -0.226997 -1.61008 0
M  V30 6192 O 581.032 -0.411477 -1.83954 0
M  V30 6193 C 578.159 -1.11374 -3.19865 0
M  V30 6194 C 577.205 -2.26935 -3.61113 0
M  V30 6195 S 578.038 -3.89352 -3.67648 0
M  V30 6196 C 579.194 -3.67258 -5.06826 0
M  V30 6197 H 579.427 -2.30848 -1.87341 0
M  V30 6198 H 576.96 -1.27018 -0.877831 0
M  V30 6199 H 578.918 -0.980004 -3.9863 0
M  V30 6200 H 577.579 -0.179135 -3.13589 0
M  V30 6201 H 576.772 -2.0554 -4.60184 0
M  V30 6202 H 576.374 -2.36638 -2.89618 0
M  V30 6203 H 578.666 -3.26036 -5.93891 0
M  V30 6204 H 579.609 -4.65878 -5.33257 0
M  V30 6205 H 580.017 -3.0084 -4.77656 0
M  V30 6206 N 579.415 0.9433 -1.26252 0
M  V30 6207 C 580.692 1.66639 -1.02424 0
M  V30 6208 C 581.072 2.06335 0.446006 0
M  V30 6209 O 580.42 1.78551 1.42589 0
M  V30 6210 C 580.63 2.88019 -1.97094 0
M  V30 6211 C 581.978 3.59718 -2.25584 0
M  V30 6212 O 583.002 2.9812 -1.94943 0
M  V30 6213 O 581.861 4.7066 -2.77743 0
M  V30 6214 H 578.955 0.729643 -0.389294 0
M  V30 6215 H 581.501 0.995218 -1.37454 0
M  V30 6216 H 580.273 2.5556 -2.96319 0
M  V30 6217 H 579.896 3.62863 -1.62532 0
M  V30 6218 N 580.893 1.08022 1.14757 0
M  V30 6219 C 581.823 0.728248 2.21853 0
M  V30 6220 C 582.804 -0.287486 1.67653 0
M  V30 6221 O 583.989 -0.158727 1.9355 0
M  V30 6222 C 581.119 0.132549 3.47047 0
M  V30 6223 C 580.073 1.07619 4.14249 0
M  V30 6224 C 579.399 0.342907 5.33599 0
M  V30 6225 C 580.699 2.41268 4.63235 0
M  V30 6226 H 582.393 1.62365 2.51551 0
M  V30 6227 H 579.939 0.782125 1.20908 0
M  V30 6228 H 581.892 -0.125665 4.21213 0
M  V30 6229 H 580.616 -0.797971 3.16702 0
M  V30 6230 H 579.275 1.31944 3.42033 0
M  V30 6231 H 578.923 -0.59129 4.99513 0
M  V30 6232 H 578.623 0.971955 5.79506 0
M  V30 6233 H 580.147 0.0926538 6.1053 0
M  V30 6234 H 581.561 2.21232 5.28894 0
M  V30 6235 H 579.958 2.9983 5.19829 0
M  V30 6236 H 581.028 3.03079 3.78512 0
M  V30 6237 N 582.371 -1.3172 0.865308 0
M  V30 6238 C 583.321 -2.26157 0.289305 0
M  V30 6239 C 584.305 -1.50428 -0.570977 0
M  V30 6240 O 585.497 -1.71978 -0.418617 0
M  V30 6241 C 582.626 -3.39457 -0.512237 0
M  V30 6242 C 581.712 -4.22561 0.361028 0
M  V30 6243 N 582.103 -4.84501 1.45231 0
M  V30 6244 C 580.401 -4.45739 0.152641 0
M  V30 6245 C 581.102 -5.46586 1.99043 0
M  V30 6246 N 580.078 -5.28119 1.28809 0
M  V30 6247 H 583.88 -2.71581 1.12344 0
M  V30 6248 H 581.394 -1.45932 0.712565 0
M  V30 6249 H 583.391 -4.06133 -0.941379 0
M  V30 6250 H 582.051 -2.95577 -1.34404 0
M  V30 6251 H 583.062 -4.84293 1.83524 0
M  V30 6252 H 579.739 -4.1251 -0.643583 0
M  V30 6253 H 581.129 -6.05817 2.90577 0
M  V30 6254 N 583.85 -0.624285 -1.44708 0
M  V30 6255 C 584.782 0.12305 -2.28869 0
M  V30 6256 C 585.795 0.81557 -1.40898 0
M  V30 6257 O 586.984 0.678162 -1.65116 0
M  V30 6258 C 584.084 1.19612 -3.1709 0
M  V30 6259 C 583.257 0.587452 -4.33437 0
M  V30 6260 C 582.316 1.55358 -5.02743 0
M  V30 6261 O 581.341 1.07338 -5.58988 0
M  V30 6262 N 582.543 2.88798 -5.03563 0
M  V30 6263 H 585.308 -0.599193 -2.93649 0
M  V30 6264 H 582.87 -0.464954 -1.5508 0
M  V30 6265 H 584.861 1.84261 -3.60319 0
M  V30 6266 H 583.432 1.82067 -2.54107 0
M  V30 6267 H 582.652 -0.237509 -3.93484 0
M  V30 6268 H 583.94 0.161326 -5.08544 0
M  V30 6269 H 583.338 3.30399 -4.59188 0
M  V30 6270 H 581.894 3.48826 -5.50603 0
M  V30 6271 N 585.328 1.53329 -0.364422 0
M  V30 6272 C 586.556 2.05657 0.226424 0
M  V30 6273 C 586.971 1.23801 1.42544 0
M  V30 6274 O 586.328 0.27839 1.80364 0
M  V30 6275 C 586.379 3.56125 0.621056 0
M  V30 6276 O 586.1 4.34879 -0.530304 0
M  V30 6277 C 587.601 4.24706 1.27041 0
M  V30 6278 H 584.821 0.669806 0.0400056 0
M  V30 6279 H 587.365 1.97714 -0.522456 0
M  V30 6280 H 585.52 3.64223 1.31985 0
M  V30 6281 H 585.934 5.24073 -0.211546 0
M  V30 6282 H 587.408 5.3131 1.49711 0
M  V30 6283 H 587.885 3.78354 2.23036 0
M  V30 6284 H 588.491 4.20858 0.613079 0
M  V30 6285 N 586.806 0.0935595 1.57322 0
M  V30 6286 C 588.036 -0.578095 1.98347 0
M  V30 6287 C 588.444 -1.62357 0.971441 0
M  V30 6288 O 587.787 -1.83639 -0.0473959 0
M  V30 6289 C 587.849 -1.28525 3.3574 0
M  V30 6290 C 587.513 -0.390714 4.55327 0
M  V30 6291 C 588.51 0.360522 5.18648 0
M  V30 6292 C 586.195 -0.309221 5.01347 0
M  V30 6293 C 588.189 1.18125 6.26359 0
M  V30 6294 C 585.876 0.515157 6.08925 0
M  V30 6295 C 586.874 1.25904 6.71295 0
M  V30 6296 O 586.562 2.06978 7.76798 0
M  V30 6297 H 586.294 -0.159767 0.656849 0
M  V30 6298 H 588.848 0.169058 2.04703 0
M  V30 6299 H 587.078 -2.07894 3.26063 0
M  V30 6300 H 588.767 -1.85128 3.61223 0
M  V30 6301 H 589.533 0.307285 4.84026 0
M  V30 6302 H 585.412 -0.877881 4.52564 0
M  V30 6303 H 588.956 1.76236 6.74971 0
M  V30 6304 H 584.853 0.56988 6.42979 0
M  V30 6305 H 585.621 1.99644 7.93779 0
M  V30 6306 N 588.284 -1.56567 -0.180126 0
M  V30 6307 C 589.214 -1.98753 -1.22553 0
M  V30 6308 C 590.195 -0.86175 -1.46656 0
M  V30 6309 O 591.38 -1.12719 -1.58139 0
M  V30 6310 C 588.51 -2.33988 -2.56645 0
M  V30 6311 C 587.464 -3.49445 -2.47128 0
M  V30 6312 C 586.79 -3.70397 -3.8563 0
M  V30 6313 C 588.09 -4.83171 -1.98352 0
M  V30 6314 H 589.784 -2.86332 -0.874896 0
M  V30 6315 H 587.33 -1.37757 -0.419414 0
M  V30 6316 H 589.283 -2.62097 -3.29974 0
M  V30 6317 H 588.007 -1.43309 -2.93479 0
M  V30 6318 H 586.666 -3.2145 -1.76254 0
M  V30 6319 H 586.314 -2.77023 -4.19842 0
M  V30 6320 H 586.014 -4.48077 -3.80132 0
M  V30 6321 H 587.538 -4.00897 -4.60558 0
M  V30 6322 H 588.952 -5.10213 -2.61449 0
M  V30 6323 H 587.349 -5.64425 -2.03823 0
M  V30 6324 H 588.419 -4.75753 -0.937402 0
M  V30 6325 N 589.762 0.448376 -1.51087 0
M  V30 6326 C 590.709 1.54341 -1.71603 0
M  V30 6327 C 591.679 1.56463 -0.557536 0
M  V30 6328 O 592.864 1.73644 -0.79072 0
M  V30 6329 C 590.004 2.92148 -1.83695 0
M  V30 6330 C 589.117 2.99639 -3.11192 0
M  V30 6331 C 588.252 4.285 -3.13944 0
M  V30 6332 C 587.291 4.29819 -4.35801 0
M  V30 6333 N 586.428 5.50186 -4.36164 0
M  V30 6334 H 591.268 1.36151 -2.65079 0
M  V30 6335 H 588.805 0.661585 -1.31383 0
M  V30 6336 H 590.763 3.72093 -1.88687 0
M  V30 6337 H 589.393 3.0892 -0.936374 0
M  V30 6338 H 588.445 2.12425 -3.15562 0
M  V30 6339 H 589.757 2.96474 -4.01129 0
M  V30 6340 H 588.911 5.16811 -3.17791 0
M  V30 6341 H 587.65 4.34307 -2.21876 0
M  V30 6342 H 586.655 3.39902 -4.32142 0
M  V30 6343 H 587.88 4.25685 -5.29121 0
M  V30 6344 H 585.826 5.56735 -3.46961 0
M  V30 6345 H 585.743 5.48856 -5.19897 0
M  V30 6346 H 587.011 6.40559 -4.44189 0
M  V30 6347 N 591.24 1.41047 0.703093 0
M  V30 6348 C 592.203 1.42036 1.79884 0
M  V30 6349 C 593.203 0.312153 1.57741 0
M  V30 6350 O 594.393 0.571672 1.64553 0
M  V30 6351 C 591.525 1.22437 3.18154 0
M  V30 6352 H 592.718 2.39572 1.80403 0
M  V30 6353 H 590.271 1.27079 0.909977 0
M  V30 6354 H 591.006 0.257112 3.23279 0
M  V30 6355 H 590.791 2.02723 3.35627 0
M  V30 6356 H 592.281 1.25946 3.98155 0
M  V30 6357 N 592.718 -0.936591 1.26751 0
M  V30 6358 C 594.129 -1.49816 1.1141 0
M  V30 6359 C 594.48 -1.9383 -0.304015 0
M  V30 6360 O 593.605 -1.80346 -1.196 0
M  V30 6361 C 594.2 -2.72271 2.01629 0
M  V30 6362 C 592.759 -3.2468 1.9042 0
M  V30 6363 C 591.906 -1.97444 1.94708 0
M  V30 6364 H 594.857 -0.751604 1.39773 0
M  V30 6365 H 594.878 -3.46741 1.56688 0
M  V30 6366 H 594.39 -2.40205 3.04833 0
M  V30 6367 H 592.491 -3.61525 0.901674 0
M  V30 6368 H 592.604 -3.91476 2.76195 0
M  V30 6369 H 590.968 -2.13545 1.38818 0
M  V30 6370 H 591.751 -1.67703 2.9955 0
M  V30 6371 N 594.196 -1.08629 -1.14182 0
M  V30 6372 C 595.128 -0.676189 -2.18998 0
M  V30 6373 C 596.141 0.277871 -1.60411 0
M  V30 6374 O 597.33 0.0651771 -1.78381 0
M  V30 6375 C 594.43 0.0254916 -3.3889 0
M  V30 6376 C 593.603 -0.948039 -4.27002 0
M  V30 6377 C 592.662 -0.281268 -5.25448 0
M  V30 6378 O 591.688 -0.926378 -5.61611 0
M  V30 6379 N 592.89 0.967923 -5.72374 0
M  V30 6380 H 595.655 -1.57792 -2.54798 0
M  V30 6381 H 593.216 -0.972665 -1.29425 0
M  V30 6382 H 595.208 0.482554 -4.01813 0
M  V30 6383 H 593.778 0.829348 -3.01398 0
M  V30 6384 H 592.998 -1.58388 -3.6098 0
M  V30 6385 H 594.286 -1.60765 -4.82734 0
M  V30 6386 H 593.684 1.51175 -5.45126 0
M  V30 6387 H 592.241 1.36844 -6.37273 0
M  V30 6388 N 595.674 1.31259 -0.872281 0
M  V30 6389 C 596.624 2.26 -0.301295 0
M  V30 6390 C 597.608 1.50729 0.562991 0
M  V30 6391 O 598.8 1.72198 0.40949 0
M  V30 6392 C 595.929 3.39724 0.494227 0
M  V30 6393 C 595.015 4.22363 -0.383432 0
M  V30 6394 N 595.406 4.83724 -1.47799 0
M  V30 6395 C 593.704 4.45652 -0.176278 0
M  V30 6396 C 594.405 5.45523 -2.01939 0
M  V30 6397 N 593.381 5.27428 -1.31608 0
M  V30 6398 H 597.183 2.70981 -1.13782 0
M  V30 6399 H 594.697 1.45552 -0.720294 0
M  V30 6400 H 596.694 4.06626 0.919828 0
M  V30 6401 H 595.354 2.96286 1.32834 0
M  V30 6402 H 596.365 4.83313 -1.8609 0
M  V30 6403 H 593.042 4.12845 0.621698 0
M  V30 6404 H 594.432 6.04268 -2.93786 0
M  V30 6405 N 597.152 0.631951 1.44375 0
M  V30 6406 C 598.115 -0.0628142 2.29114 0
M  V30 6407 C 599.115 -0.771494 1.41084 0
M  V30 6408 O 600.305 -0.615959 1.62947 0
M  V30 6409 C 597.437 -1.09953 3.22681 0
M  V30 6410 H 598.63 0.682509 2.92031 0
M  V30 6411 H 596.183 0.392128 1.51301 0
M  V30 6412 H 596.918 -1.87481 2.64616 0
M  V30 6413 H 596.703 -0.595286 3.87555 0
M  V30 6414 H 598.193 -1.58538 3.86336 0
M  V30 6415 N 598.631 -1.53133 0.372548 0
M  V30 6416 C 599.563 -2.23557 -0.505444 0
M  V30 6417 C 600.576 -1.25211 -1.04049 0
M  V30 6418 O 601.765 -1.51391 -0.945675 0
M  V30 6419 C 598.865 -2.92516 -1.71136 0
M  V30 6420 C 598.038 -4.17428 -1.30661 0
M  V30 6421 C 597.097 -4.69535 -2.37536 0
M  V30 6422 O 596.123 -5.33042 -1.99637 0
M  V30 6423 N 597.325 -4.47947 -3.6922 0
M  V30 6424 H 600.09 -2.9954 0.0978259 0
M  V30 6425 H 597.651 -1.60684 0.198068 0
M  V30 6426 H 599.643 -3.24281 -2.42124 0
M  V30 6427 H 598.213 -2.19944 -2.22134 0
M  V30 6428 H 597.433 -3.91888 -0.426292 0
M  V30 6429 H 598.721 -4.98622 -1.01259 0
M  V30 6430 H 598.119 -3.97219 -4.02783 0
M  V30 6431 H 596.676 -4.84245 -4.36292 0
M  V30 6432 N 600.109 -0.101901 -1.5727 0
M  V30 6433 C 601.041 0.884723 -2.11436 0
M  V30 6434 C 602.054 1.24149 -1.05314 0
M  V30 6435 O 603.243 1.19341 -1.3274 0
M  V30 6436 C 600.343 2.19179 -2.58484 0
M  V30 6437 C 599.516 2.00933 -3.88516 0
M  V30 6438 C 598.575 3.15213 -4.2134 0
M  V30 6439 O 597.601 2.88877 -4.90448 0
M  V30 6440 N 598.803 4.41174 -3.77288 0
M  V30 6441 H 601.568 0.422058 -2.96713 0
M  V30 6442 H 599.129 0.0830128 -1.61687 0
M  V30 6443 H 601.121 2.94593 -2.77484 0
M  V30 6444 H 599.691 2.56847 -1.7818 0
M  V30 6445 H 598.911 1.09809 -3.78597 0
M  V30 6446 H 600.199 1.86026 -4.73573 0
M  V30 6447 H 599.597 4.6545 -3.21516 0
M  V30 6448 H 598.154 5.13515 -4.01429 0
M  V30 6449 N 601.587 1.56661 0.17182 0
M  V30 6450 C 602.812 1.86459 0.908165 0
M  V30 6451 C 603.237 0.688181 1.75059 0
M  V30 6452 O 602.595 -0.362753 1.77634 0
M  V30 6453 C 602.643 3.14669 1.76112 0
M  V30 6454 O 601.747 2.96858 2.86268 0
M  V30 6455 H 601.088 0.613318 0.254434 0
M  V30 6456 H 603.618 2.03892 0.170113 0
M  V30 6457 H 603.628 3.46061 2.16115 0
M  V30 6458 H 602.303 3.99905 1.14233 0
M  V30 6459 H 600.88 2.76819 2.49852 0
M  V30 6460 N 603.065 -0.440357 1.51323 0
M  V30 6461 C 604.314 -1.18697 1.63076 0
M  V30 6462 C 604.627 -1.92418 0.35136 0
M  V30 6463 O 605.833 -2.69258 0.348221 0
M  V30 6464 C 604.289 -2.15849 2.87988 0
M  V30 6465 C 603.897 -1.47789 4.22921 0
M  V30 6466 C 605.641 -2.90962 3.09098 0
M  V30 6467 C 603.548 -2.43407 5.38987 0
M  V30 6468 H 602.478 -0.44676 0.607389 0
M  V30 6469 H 605.129 -0.454313 1.77787 0
M  V30 6470 H 603.511 -2.92537 2.66905 0
M  V30 6471 H 604.685 -0.7668 4.54375 0
M  V30 6472 H 603 -0.848404 4.07665 0
M  V30 6473 H 605.597 -3.62584 3.92985 0
M  V30 6474 H 605.94 -3.52133 2.22053 0
M  V30 6475 H 606.473 -2.21381 3.30507 0
M  V30 6476 H 603.212 -1.86929 6.28282 0
M  V30 6477 H 602.732 -3.12579 5.11913 0
M  V30 6478 H 604.411 -3.046 5.70813 0
M  V30 6479 N 604.543 -1.41418 -0.695603 0
M  V30 6480 C 605.959 -1.23887 -1.00619 0
M  V30 6481 C 606.159 -0.128206 -2.01092 0
M  V30 6482 O 605.215 0.507408 -2.47349 0
M  V30 6483 C 606.528 -2.58816 -1.53083 0
M  V30 6484 C 608.076 -2.65998 -1.64967 0
M  V30 6485 C 608.551 -4.01244 -2.20833 0
M  V30 6486 N 610.042 -4.0309 -2.28194 0
M  V30 6487 C 610.777 -5.04539 -2.72448 0
M  V30 6488 N 610.273 -6.16378 -3.16306 0
M  V30 6489 N 612.066 -4.91901 -2.72011 0
M  V30 6490 H 604.217 -2.12379 -0.0300061 0
M  V30 6491 H 606.48 -0.944958 -0.0758797 0
M  V30 6492 H 606.186 -3.40842 -0.867147 0
M  V30 6493 H 606.06 -2.81299 -2.51298 0
M  V30 6494 H 608.447 -1.84331 -2.30448 0
M  V30 6495 H 608.528 -2.47325 -0.652982 0
M  V30 6496 H 608.172 -4.83359 -1.55968 0
M  V30 6497 H 608.102 -4.17257 -3.21254 0
M  V30 6498 H 610.593 -3.22341 -1.97242 0
M  V30 6499 H 610.906 -6.89658 -3.487 0
M  V30 6500 H 609.251 -6.19914 -3.14215 0
M  V30 6501 H 612.442 -4.03613 -2.37095 0
M  V30 6502 H 612.615 -5.71102 -3.06181 0
M  V30 6503 N 606.021 0.929856 -1.27246 0
M  V30 6504 C 606.931 2.0636 -1.11592 0
M  V30 6505 C 607.947 1.73938 -0.046496 0
M  V30 6506 O 609.123 1.9981 -0.252544 0
M  V30 6507 C 606.188 3.38213 -0.762437 0
M  V30 6508 C 605.249 3.84346 -1.9125 0
M  V30 6509 C 604.482 5.09906 -1.57579 0
M  V30 6510 O 604.705 5.68354 -0.482694 0
M  V30 6511 O 603.639 5.51359 -2.41426 0
M  V30 6512 H 607.465 2.22478 -2.0673 0
M  V30 6513 H 605.05 1.04865 -1.06413 0
M  V30 6514 H 606.932 4.1741 -0.57854 0
M  V30 6515 H 605.607 3.23307 0.159439 0
M  V30 6516 H 604.514 3.06045 -2.15144 0
M  V30 6517 H 605.847 4.0379 -2.81451 0
M  V30 6518 N 607.499 1.09233 1.13605 0
M  V30 6519 C 608.446 0.729921 2.18954 0
M  V30 6520 C 609.416 -0.287916 1.63586 0
M  V30 6521 O 610.601 -0.170003 1.90041 0
M  V30 6522 C 607.741 0.154489 3.44754 0
M  V30 6523 C 606.854 1.22613 4.14234 0
M  V30 6524 C 605.989 0.613657 5.27644 0
M  V30 6525 C 605.028 1.66674 5.8897 0
M  V30 6526 N 604.165 1.07545 6.93814 0
M  V30 6527 H 609.005 1.63257 2.49302 0
M  V30 6528 H 606.542 0.815693 1.22413 0
M  V30 6529 H 608.5 -0.196923 4.16735 0
M  V30 6530 H 607.13 -0.711433 3.14863 0
M  V30 6531 H 606.182 1.69485 3.40557 0
M  V30 6532 H 607.494 2.0238 4.55899 0
M  V30 6533 H 606.648 0.210976 6.06333 0
M  V30 6534 H 605.387 -0.215584 4.87223 0
M  V30 6535 H 604.392 2.07899 5.08978 0
M  V30 6536 H 605.617 2.49861 6.31464 0
M  V30 6537 H 603.563 0.267451 6.55455 0
M  V30 6538 H 603.48 1.81011 7.3401 0
M  V30 6539 H 604.748 0.698906 7.7636 0
M  V30 6540 N 608.977 -1.30795 0.87923 0
M  V30 6541 C 610.207 -2.00237 0.50881 0
M  V30 6542 C 610.615 -1.66115 -0.905682 0
M  V30 6543 O 609.958 -0.89138 -1.60624 0
M  V30 6544 C 610.02 -3.54508 0.597003 0
M  V30 6545 C 609.684 -4.12131 1.97477 0
M  V30 6546 C 610.681 -4.28552 2.94346 0
M  V30 6547 C 608.366 -4.47644 2.2786 0
M  V30 6548 C 610.36 -4.79689 4.19735 0
M  V30 6549 C 608.047 -4.98481 3.53496 0
M  V30 6550 C 609.045 -5.14456 4.49248 0
M  V30 6551 O 608.733 -5.64199 5.72656 0
M  V30 6552 H 608.465 -0.647026 0.195788 0
M  V30 6553 H 611.019 -1.67785 1.1848 0
M  V30 6554 H 609.249 -3.86461 -0.135945 0
M  V30 6555 H 610.938 -4.05198 0.238684 0
M  V30 6556 H 611.704 -4.01424 2.72183 0
M  V30 6557 H 607.583 -4.34481 1.54102 0
M  V30 6558 H 611.127 -4.92073 4.9448 0
M  V30 6559 H 607.024 -5.25044 3.75498 0
M  V30 6560 H 607.792 -5.82551 5.74957 0
M  V30 6561 N 610.455 -0.639598 -1.44038 0
M  V30 6562 C 611.402 0.0602458 -2.30721 0
M  V30 6563 C 612.372 0.828352 -1.43971 0
M  V30 6564 O 613.557 0.807693 -1.72861 0
M  V30 6565 C 610.697 1.03008 -3.29368 0
M  V30 6566 C 609.81 0.259502 -4.3122 0
M  V30 6567 C 608.945 1.22191 -5.16955 0
M  V30 6568 C 607.984 0.440978 -6.10509 0
M  V30 6569 N 607.121 1.35428 -6.88915 0
M  V30 6570 H 611.961 -0.684867 -2.90023 0
M  V30 6571 H 609.498 -0.349509 -1.42888 0
M  V30 6572 H 611.456 1.60583 -3.85057 0
M  V30 6573 H 610.086 1.74222 -2.71747 0
M  V30 6574 H 609.138 -0.432317 -3.77935 0
M  V30 6575 H 610.45 -0.348347 -4.97582 0
M  V30 6576 H 609.604 1.86873 -5.77203 0
M  V30 6577 H 608.343 1.86367 -4.50687 0
M  V30 6578 H 607.348 -0.219279 -5.49363 0
M  V30 6579 H 608.573 -0.196192 -6.78817 0
M  V30 6580 H 606.519 1.9831 -6.25307 0
M  V30 6581 H 606.436 0.800657 -7.51748 0
M  V30 6582 H 607.704 1.98967 -7.53679 0
M  V30 6583 N 611.933 1.52934 -0.380664 0
M  V30 6584 C 612.881 2.27727 0.47361 0
M  V30 6585 C 613.875 1.31288 1.0705 0
M  V30 6586 O 615.081 1.4886 1.01197 0
M  V30 6587 H 611.456 0.732189 0.171475 0
M  V30 6588 H 613.427 2.97864 -0.178785 0
M  V30 6589 C 612.176 3.0904 1.59341 0
M  V30 6590 H 611.499 3.831 1.14343 0
M  V30 6591 H 612.939 3.64527 2.16555 0
M  V30 6592 C 611.398 2.20813 2.54447 0
M  V30 6593 O 611.928 1.82907 3.57642 0
M  V30 6594 N 610.134 1.85145 2.23986 0
M  V30 6595 H 609.681 2.16169 1.40103 0
M  V30 6596 H 609.639 1.26402 2.87871 0
M  V30 6597 N 613.412 0.11024 1.57214 0
M  V30 6598 C 614.637 -0.561179 1.99664 0
M  V30 6599 C 615.062 -1.59985 0.989266 0
M  V30 6600 O 614.42 -1.81255 -0.0402399 0
M  V30 6601 C 614.468 -1.17189 3.41027 0
M  V30 6602 O 613.572 -2.28755 3.4314 0
M  V30 6603 H 612.913 -0.14101 0.648855 0
M  V30 6604 H 615.443 0.196128 2.03658 0
M  V30 6605 H 615.453 -1.50954 3.79047 0
M  V30 6606 H 614.128 -0.411041 4.13864 0
M  V30 6607 H 612.705 -1.96495 3.16929 0
M  V30 6608 N 614.89 -1.56749 -0.16351 0
M  V30 6609 C 615.837 -1.97011 -1.2023 0
M  V30 6610 C 616.807 -0.835186 -1.43575 0
M  V30 6611 O 617.992 -1.09594 -1.56185 0
M  V30 6612 C 615.132 -2.34186 -2.53478 0
M  V30 6613 C 614.245 -3.60893 -2.37446 0
M  V30 6614 C 613.38 -3.87245 -3.63614 0
M  V30 6615 C 612.419 -5.07274 -3.42548 0
M  V30 6616 N 611.556 -5.29719 -4.60806 0
M  V30 6617 H 616.396 -2.85562 -0.851958 0
M  V30 6618 H 613.933 -1.41292 -0.409257 0
M  V30 6619 H 615.891 -2.53764 -3.31149 0
M  V30 6620 H 614.521 -1.48736 -2.86492 0
M  V30 6621 H 613.573 -3.49185 -1.50911 0
M  V30 6622 H 614.885 -4.48722 -2.1783 0
M  V30 6623 H 614.039 -4.07232 -4.49719 0
M  V30 6624 H 612.778 -2.97806 -3.86216 0
M  V30 6625 H 611.783 -4.87177 -2.5483 0
M  V30 6626 H 613.008 -5.98251 -3.2136 0
M  V30 6627 H 610.954 -4.43233 -4.83612 0
M  V30 6628 H 610.871 -6.11786 -4.44132 0
M  V30 6629 H 612.139 -5.54192 -5.48171 0
M  V30 6630 N 616.368 0.432326 -1.51554 0
M  V30 6631 C 617.598 1.2019 -1.68042 0
M  V30 6632 C 618.006 1.85356 -0.379434 0
M  V30 6633 O 617.349 1.71724 0.652427 0
M  V30 6634 C 617.411 2.32387 -2.74292 0
M  V30 6635 C 617.075 1.87548 -4.16743 0
M  V30 6636 C 618.072 1.37611 -5.01357 0
M  V30 6637 C 615.757 1.95087 -4.62868 0
M  V30 6638 C 617.751 0.958069 -6.30159 0
M  V30 6639 C 615.438 1.52894 -5.91664 0
M  V30 6640 C 616.436 1.03336 -6.75137 0
M  V30 6641 O 616.124 0.617435 -8.01525 0
M  V30 6642 H 615.856 0.368132 -0.56697 0
M  V30 6643 H 618.41 0.517875 -1.98764 0
M  V30 6644 H 616.64 3.04082 -2.38895 0
M  V30 6645 H 618.329 2.94235 -2.79608 0
M  V30 6646 H 619.095 1.31178 -4.66923 0
M  V30 6647 H 614.974 2.32606 -3.98015 0
M  V30 6648 H 618.518 0.570562 -6.95263 0
M  V30 6649 H 614.415 1.58999 -6.25611 0
M  V30 6650 H 615.183 0.742835 -8.15122 0
M  V30 6651 N 617.846 1.41785 0.688094 0
M  V30 6652 C 618.796 1.40684 1.79421 0
M  V30 6653 C 619.78 0.280096 1.58443 0
M  V30 6654 O 620.972 0.521332 1.69148 0
M  V30 6655 C 618.101 1.29874 3.17785 0
M  V30 6656 C 617.187 2.47442 3.44432 0
M  V30 6657 N 617.578 3.72895 3.41736 0
M  V30 6658 C 615.876 2.41416 3.75013 0
M  V30 6659 C 616.577 4.50912 3.67496 0
M  V30 6660 N 615.553 3.81131 3.87608 0
M  V30 6661 H 619.355 2.35591 1.7571 0
M  V30 6662 H 616.869 1.35946 0.888393 0
M  V30 6663 H 618.866 1.27168 3.97031 0
M  V30 6664 H 617.526 0.359587 3.22703 0
M  V30 6665 H 618.537 4.05676 3.21943 0
M  V30 6666 H 615.214 1.56011 3.87256 0
M  V30 6667 H 616.604 5.59865 3.71484 0
M  V30 6668 N 619.324 -0.923095 1.27737 0
M  V30 6669 C 620.572 -1.66797 1.14119 0
M  V30 6670 C 620.893 -1.92479 -0.312541 0
M  V30 6671 O 620.163 -1.53432 -1.218 0
M  V30 6672 H 618.743 -0.618196 0.419336 0
M  V30 6673 H 621.405 -1.10815 1.60331 0
M  V30 6674 H 620.501 -2.63424 1.67374 0
M  V30 6675 N 620.802 -1.09834 -1.13024 0
M  V30 6676 C 622.048 -0.83819 -1.84668 0
M  V30 6677 C 622.381 0.634645 -1.83537 0
M  V30 6678 O 621.656 1.46753 -1.27647 0
M  V30 6679 C 621.939 -1.37933 -3.32636 0
M  V30 6680 C 621.792 -2.91857 -3.42257 0
M  V30 6681 C 623.111 -1.01654 -4.28199 0
M  V30 6682 H 620.23 -0.30595 -0.670495 0
M  V30 6683 H 622.872 -1.36044 -1.32635 0
M  V30 6684 H 621.022 -0.935111 -3.77078 0
M  V30 6685 H 622.694 -3.44759 -3.06495 0
M  V30 6686 H 620.937 -3.28776 -2.83 0
M  V30 6687 H 621.608 -3.24799 -4.46329 0
M  V30 6688 H 624.084 -1.39973 -3.9185 0
M  V30 6689 H 622.96 -1.42217 -5.30156 0
M  V30 6690 H 623.221 0.0747794 -4.42037 0
M  V30 6691 N 622.28 1.30327 -0.886154 0
M  V30 6692 C 623.505 2.0079 -0.519425 0
M  V30 6693 C 623.93 1.65979 0.885013 0
M  V30 6694 O 623.288 0.877043 1.58675 0
M  V30 6695 C 623.336 3.53686 -0.702758 0
M  V30 6696 O 622.44 4.11637 0.250828 0
M  V30 6697 H 621.781 0.63171 -0.204544 0
M  V30 6698 H 624.311 1.66145 -1.19402 0
M  V30 6699 H 624.321 4.03531 -0.602207 0
M  V30 6700 H 622.996 3.78361 -1.72673 0
M  V30 6701 H 621.573 3.72755 0.103873 0
M  V30 6702 N 623.758 0.647228 1.43697 0
M  V30 6703 C 624.688 -0.0345631 2.33474 0
M  V30 6704 C 625.669 -0.818193 1.4913 0
M  V30 6705 O 626.854 -0.780867 1.77809 0
M  V30 6706 C 623.984 -1.00576 3.32418 0
M  V30 6707 C 622.938 -0.33266 4.26705 0
M  V30 6708 C 622.264 -1.41489 5.1564 0
M  V30 6709 C 623.564 0.771204 5.16575 0
M  V30 6710 H 625.258 0.715163 2.90733 0
M  V30 6711 H 622.804 0.345364 1.39797 0
M  V30 6712 H 624.757 -1.49159 3.94119 0
M  V30 6713 H 623.481 -1.78657 2.73403 0
M  V30 6714 H 622.14 0.13267 3.6636 0
M  V30 6715 H 621.788 -2.18698 4.52968 0
M  V30 6716 H 621.488 -0.969799 5.79542 0
M  V30 6717 H 623.012 -1.9022 5.80214 0
M  V30 6718 H 624.426 0.36779 5.72119 0
M  V30 6719 H 622.823 1.1404 5.89165 0
M  V30 6720 H 623.893 1.63169 4.56622 0
M  V30 6721 N 625.236 -1.5273 0.388769 0
M  V30 6722 C 626.166 -2.29353 -0.438111 0
M  V30 6723 C 627.147 -1.32719 -1.06394 0
M  V30 6724 O 628.332 -1.61612 -1.07681 0
M  V30 6725 C 625.462 -3.09995 -1.56589 0
M  V30 6726 C 624.416 -4.14509 -1.06613 0
M  V30 6727 C 623.742 -4.83372 -2.28594 0
M  V30 6728 C 625.042 -5.22127 -0.134459 0
M  V30 6729 H 626.736 -2.98723 0.201206 0
M  V30 6730 H 624.282 -1.43665 0.0982089 0
M  V30 6731 H 626.235 -3.62357 -2.15118 0
M  V30 6732 H 624.959 -2.38357 -2.23279 0
M  V30 6733 H 623.618 -3.63128 -0.503383 0
M  V30 6734 H 623.266 -4.08283 -2.93792 0
M  V30 6735 H 622.966 -5.54012 -1.95817 0
M  V30 6736 H 624.49 -5.38538 -2.87766 0
M  V30 6737 H 625.904 -5.69851 -0.627914 0
M  V30 6738 H 624.301 -6.00011 0.103534 0
M  V30 6739 H 625.371 -4.77971 0.816798 0
M  V30 6740 N 626.714 -0.118576 -1.57153 0
M  V30 6741 C 627.662 0.849114 -2.16547 0
M  V30 6742 C 628.656 1.27567 -1.11458 0
M  V30 6743 O 629.862 1.24746 -1.29763 0
M  V30 6744 H 626.237 0.291935 -0.693021 0
M  V30 6745 H 628.208 0.323693 -2.96639 0
M  V30 6746 C 626.957 2.08951 -2.77912 0
M  V30 6747 H 626.28 1.77021 -3.58474 0
M  V30 6748 H 627.72 2.74666 -3.23008 0
M  V30 6749 C 626.179 2.87899 -1.74974 0
M  V30 6750 O 626.709 3.83268 -1.20285 0
M  V30 6751 N 624.915 2.51884 -1.44924 0
M  V30 6752 H 624.462 1.74397 -1.89587 0
M  V30 6753 H 624.42 3.05003 -0.762921 0
M  V30 6754 N 628.193 1.56834 0.155195 0
M  V30 6755 C 629.604 1.72421 0.716082 0
M  V30 6756 C 629.955 0.731685 1.82046 0
M  V30 6757 O 629.08 -0.103481 2.16152 0
M  V30 6758 C 629.675 3.12629 1.30571 0
M  V30 6759 C 628.234 3.29846 1.81325 0
M  V30 6760 C 627.381 2.68359 0.698494 0
M  V30 6761 H 630.332 1.58544 -0.0703861 0
M  V30 6762 H 630.353 3.12174 2.1755 0
M  V30 6763 H 629.865 3.84844 0.501701 0
M  V30 6764 H 627.966 2.62614 2.64319 0
M  V30 6765 H 628.079 4.37727 1.9476 0
M  V30 6766 H 626.443 2.28604 1.12305 0
M  V30 6767 H 627.226 3.43171 -0.0939366 0
M  V30 6768 N 629.671 -0.424282 1.51781 0
M  V30 6769 C 631.082 -1.00368 1.57427 0
M  V30 6770 C 631.433 -1.91962 0.40558 0
M  V30 6771 O 630.558 -2.111 -0.47601 0
M  V30 6772 C 631.153 -1.82707 2.85313 0
M  V30 6773 C 629.712 -2.35675 2.93487 0
M  V30 6774 C 628.859 -1.1524 2.5222 0
M  V30 6775 H 631.81 -0.205064 1.5737 0
M  V30 6776 H 631.831 -2.68294 2.69812 0
M  V30 6777 H 631.343 -1.16017 3.70353 0
M  V30 6778 H 629.444 -3.05781 2.12906 0
M  V30 6779 H 629.557 -2.67578 3.97415 0
M  V30 6780 H 627.921 -1.50174 2.05718 0
M  V30 6781 H 628.704 -0.5014 3.39619 0
M  V30 6782 N 631.149 -1.42148 -0.680565 0
M  V30 6783 C 632.059 -1.47565 -1.82378 0
M  V30 6784 C 633.075 -0.36489 -1.70131 0
M  V30 6785 O 634.251 -0.614916 -1.91783 0
M  V30 6786 C 631.316 -1.37013 -3.18478 0
M  V30 6787 C 630.377 -2.58532 -3.42724 0
M  V30 6788 C 629.61 -2.48473 -4.72331 0
M  V30 6789 O 629.833 -1.51745 -5.49845 0
M  V30 6790 O 628.767 -3.38503 -4.97694 0
M  V30 6791 H 632.593 -2.44045 -1.80764 0
M  V30 6792 H 630.178 -1.23849 -0.835569 0
M  V30 6793 H 632.06 -1.33468 -3.99705 0
M  V30 6794 H 630.735 -0.436552 -3.20743 0
M  V30 6795 H 629.642 -2.67652 -2.61368 0
M  V30 6796 H 630.975 -3.50769 -3.45286 0
M  V30 6797 N 632.627 0.916307 -1.28225 0
M  V30 6798 C 633.855 1.69901 -1.18073 0
M  V30 6799 C 634.27 1.86988 0.260968 0
M  V30 6800 O 633.627 1.39505 1.17663 0
M  V30 6801 C 633.678 3.09254 -1.87201 0
M  V30 6802 O 633.399 2.92959 -3.2574 0
M  V30 6803 C 634.9 4.0362 -1.83319 0
M  V30 6804 H 632.12 0.531181 -0.409985 0
M  V30 6805 H 634.664 1.14703 -1.69303 0
M  V30 6806 H 632.819 3.61277 -1.39848 0
M  V30 6807 H 633.233 3.81139 -3.60324 0
M  V30 6808 H 634.707 4.98873 -2.36282 0
M  V30 6809 H 635.184 4.3176 -0.805007 0
M  V30 6810 H 635.79 3.57524 -2.3034 0
M  V30 6811 N 634.105 1.10431 1.1244 0
M  V30 6812 C 635.035 0.775143 2.20258 0
M  V30 6813 C 636.016 -0.25186 1.68225 0
M  V30 6814 O 637.201 -0.117637 1.93843 0
M  V30 6815 C 634.331 0.206133 3.46688 0
M  V30 6816 C 633.285 1.16382 4.11873 0
M  V30 6817 C 632.611 0.456014 5.32752 0
M  V30 6818 C 633.911 2.5104 4.58013 0
M  V30 6819 H 635.605 1.67665 2.4805 0
M  V30 6820 H 633.151 0.807595 1.19222 0
M  V30 6821 H 635.104 -0.036291 4.21384 0
M  V30 6822 H 633.828 -0.730614 3.18323 0
M  V30 6823 H 632.487 1.39169 3.39157 0
M  V30 6824 H 632.135 -0.485203 5.00654 0
M  V30 6825 H 631.835 1.09466 5.77314 0
M  V30 6826 H 633.359 0.222135 6.10196 0
M  V30 6827 H 634.773 2.32401 5.24083 0
M  V30 6828 H 633.17 3.10789 5.13352 0
M  V30 6829 H 634.24 3.11039 3.71998 0
M  V30 6830 N 635.583 -1.29855 0.893053 0
M  V30 6831 C 636.531 -2.29867 0.355512 0
M  V30 6832 C 637.525 -1.60502 -0.541801 0
M  V30 6833 O 638.731 -1.74902 -0.425339 0
M  V30 6834 H 635.106 -0.745805 0.0963247 0
M  V30 6835 H 637.077 -2.72655 1.21252 0
M  V30 6836 C 635.826 -3.453 -0.407801 0
M  V30 6837 H 635.149 -3.98864 0.273426 0
M  V30 6838 H 636.589 -4.17334 -0.748887 0
M  V30 6839 C 635.048 -2.96051 -1.60795 0
M  V30 6840 O 635.578 -2.96763 -2.7073 0
M  V30 6841 N 633.784 -2.51963 -1.44786 0
M  V30 6842 H 633.331 -2.51583 -0.553498 0
M  V30 6843 H 633.289 -2.1937 -2.2522 0
M  V30 6844 N 637.061 -0.65484 -1.43351 0
M  V30 6845 C 637.991 0.0221809 -2.33489 0
M  V30 6846 C 638.972 0.810272 -1.49561 0
M  V30 6847 O 640.157 0.771426 -1.78221 0
M  V30 6848 C 637.287 0.988117 -3.32947 0
M  V30 6849 C 636.241 0.310026 -4.26876 0
M  V30 6850 C 635.567 1.38752 -5.16384 0
M  V30 6851 C 636.867 -0.798589 -5.16159 0
M  V30 6852 H 638.561 -0.730571 -2.9035 0
M  V30 6853 H 636.107 -0.352773 -1.39612 0
M  V30 6854 H 638.06 1.47067 -3.94904 0
M  V30 6855 H 636.784 1.77205 -2.74346 0
M  V30 6856 H 635.443 -0.152097 -3.66284 0
M  V30 6857 H 635.091 2.16293 -4.54121 0
M  V30 6858 H 634.791 0.939051 -5.80048 0
M  V30 6859 H 636.315 1.87141 -5.81215 0
M  V30 6860 H 637.729 -0.398126 -5.71916 0
M  V30 6861 H 636.126 -1.17163 -5.88552 0
M  V30 6862 H 637.196 -1.65588 -4.55751 0
M  V30 6863 O 638.578 1.52239 -0.539034 0
M  V30 6864 H 639.269 1.93674 -0.0315656 0
M  V30 END ATOM
M  V30 BEGIN BOND
M  V30 END BOND
M  V30 END CTAB
M  END
$$$$
