drugbank_target|P53554 Biotin biosynthesis cytochrome P450 (DB04450)
 OpenBabel12092120473D

  0  0  0     0  0            999 V3000
M  V30 BEGIN CTAB
M  V30 COUNTS 6315 6384 0 0 0
M  V30 BEGIN ATOM
M  V30 1 H -0.908 1.98254 -0.117106 0
M  V30 2 N 0 1.576 0 0
M  V30 3 C 0.933 2.03868 1.02534 0
M  V30 4 C 1.911 0.928543 1.3348 0
M  V30 5 O 3.095 1.19667 1.45644 0
M  V30 6 C 0.222 2.43627 2.35294 0
M  V30 7 C -0.732 3.65373 2.2001 0
M  V30 8 S 0.101 5.13292 1.52614 0
M  V30 9 C 1.257 5.56322 2.86805 0
M  V30 10 H 1.49 2.90518 0.631377 0
M  V30 11 H -0.977 1.52953 0.210867 0
M  V30 12 H 0.981 2.67203 3.11629 0
M  V30 13 H -0.358 1.57376 2.7183 0
M  V30 14 H -1.165 3.90944 3.18086 0
M  V30 15 H -1.563 3.418 1.51819 0
M  V30 16 H 0.729 5.58782 3.83104 0
M  V30 17 H 1.672 6.56266 2.65933 0
M  V30 18 H 2.08 4.83886 2.90714 0
M  V30 19 N 1.4781 -0.272755 1.55222 0
M  V30 20 C 2.7061 -1.02255 1.79865 0
M  V30 21 C 3.1211 -1.79924 0.572088 0
M  V30 22 O 2.4781 -1.76638 -0.458842 0
M  V30 23 C 2.5291 -1.98094 3.02392 0
M  V30 24 O 2.2501 -1.23572 4.20311 0
M  V30 25 C 3.7511 -2.84884 3.39641 0
M  V30 26 H 0.9711 -0.302057 0.599168 0
M  V30 27 H 3.5151 -0.303465 2.02236 0
M  V30 28 H 1.6701 -2.65465 2.82147 0
M  V30 29 H 2.0841 -1.88172 4.89583 0
M  V30 30 H 3.5581 -3.47927 4.28545 0
M  V30 31 H 4.0351 -3.54665 2.59055 0
M  V30 32 H 4.6411 -2.23003 3.62146 0
M  V30 33 N 2.9562 -1.48159 -0.537278 0
M  V30 34 C 4.2052 -1.5506 -1.28993 0
M  V30 35 C 4.5182 -0.226211 -1.94288 0
M  V30 36 O 5.7242 -0.173395 -2.70946 0
M  V30 37 C 4.1802 -2.73429 -2.34018 0
M  V30 38 C 3.7882 -4.1248 -1.74825 0
M  V30 39 C 5.5322 -2.89638 -3.10339 0
M  V30 40 C 3.4392 -5.22121 -2.77747 0
M  V30 41 H 2.3692 -0.577231 -0.485098 0
M  V30 42 H 5.0202 -1.74478 -0.568317 0
M  V30 43 H 3.4022 -2.47431 -3.09182 0
M  V30 44 H 4.5762 -4.48466 -1.05899 0
M  V30 45 H 2.8912 -4.01327 -1.11022 0
M  V30 46 H 5.4882 -3.68718 -3.87235 0
M  V30 47 H 5.8312 -1.9882 -3.65754 0
M  V30 48 H 6.3642 -3.15502 -2.42288 0
M  V30 49 H 3.1032 -6.1488 -2.27161 0
M  V30 50 H 2.6232 -4.90631 -3.45024 0
M  V30 51 H 4.3022 -5.49924 -3.4087 0
M  V30 52 N 4.4343 0.785586 -1.36625 0
M  V30 53 C 5.3973 1.87999 -1.31107 0
M  V30 54 C 6.3973 1.59316 -0.217959 0
M  V30 55 O 7.5873 1.67656 -0.472977 0
M  V30 56 C 4.7193 3.24861 -1.03334 0
M  V30 57 H 5.9123 1.94307 -2.2844 0
M  V30 58 H 3.4653 0.983813 -1.21453 0
M  V30 59 H 4.2003 3.24235 -0.0647432 0
M  V30 60 H 3.9853 3.4707 -1.82441 0
M  V30 61 H 5.4753 4.04929 -1.02088 0
M  V30 62 N 5.9124 1.20967 1.01018 0
M  V30 63 C 7.1374 1.0503 1.78839 0
M  V30 64 C 7.5624 -0.395752 1.8389 0
M  V30 65 O 6.9204 -1.28529 1.27867 0
M  V30 66 C 6.9684 1.64602 3.2084 0
M  V30 67 O 6.0724 0.887988 4.02726 0
M  V30 68 H 5.4134 0.369987 0.551367 0
M  V30 69 H 7.9434 1.60399 1.27018 0
M  V30 70 H 7.9534 1.68607 3.71532 0
M  V30 71 H 6.6284 2.69841 3.16479 0
M  V30 72 H 5.2054 0.922648 3.61305 0
M  V30 73 N 7.3905 -1.2043 1.01659 0
M  V30 74 C 8.6155 -1.94318 0.724942 0
M  V30 75 C 9.0405 -1.74266 -0.708034 0
M  V30 76 O 8.3985 -1.03694 -1.48719 0
M  V30 77 C 8.4465 -3.44486 1.06591 0
M  V30 78 O 7.5505 -4.12017 0.177599 0
M  V30 79 H 6.8915 -0.60708 0.26898 0
M  V30 80 H 9.4215 -1.52861 1.35995 0
M  V30 81 H 9.4315 -3.95106 1.01762 0
M  V30 82 H 8.1065 -3.58404 2.10997 0
M  V30 83 H 6.6835 -3.71821 0.283421 0
M  V30 84 N 8.8686 -0.792821 -1.36206 0
M  V30 85 C 10.0966 -0.378825 -2.03402 0
M  V30 86 C 10.5116 1.00586 -1.59774 0
M  V30 87 O 9.8686 1.64574 -0.788764 0
M  V30 88 C 9.9196 -0.43683 -3.58851 0
M  V30 89 O 9.6406 -1.76691 -4.00889 0
M  V30 90 C 11.1416 -0.0138943 -4.43298 0
M  V30 91 H 8.3616 -0.155673 -0.652692 0
M  V30 92 H 10.9056 -1.07261 -1.74113 0
M  V30 93 H 9.0606 0.208575 -3.86838 0
M  V30 94 H 9.4746 -1.72011 -4.95492 0
M  V30 95 H 10.9486 -0.105615 -5.51899 0
M  V30 96 H 11.4256 1.03915 -4.2673 0
M  V30 97 H 12.0316 -0.63192 -4.20579 0
M  V30 98 N 10.3467 1.47872 -0.545128 0
M  V30 99 C 11.3097 2.28337 0.198717 0
M  V30 100 C 12.3097 1.36255 0.853888 0
M  V30 101 O 13.4997 1.59003 0.711606 0
M  V30 102 C 10.6317 3.15585 1.28915 0
M  V30 103 H 11.8247 2.95567 -0.507941 0
M  V30 104 H 9.3777 1.53362 -0.301616 0
M  V30 105 H 10.1127 2.53019 2.02859 0
M  V30 106 H 9.8977 3.83337 0.824309 0
M  V30 107 H 11.3877 3.76243 1.81194 0
M  V30 108 N 11.8248 0.280983 1.55075 0
M  V30 109 C 13.0498 -0.340154 2.04592 0
M  V30 110 C 13.4748 -1.48246 1.15779 0
M  V30 111 O 12.8328 -1.80614 0.15761 0
M  V30 112 C 12.8808 -0.793104 3.5177 0
M  V30 113 O 11.9848 -1.89981 3.66034 0
M  V30 114 H 11.3258 -0.0694289 0.66036 0
M  V30 115 H 13.8558 0.416993 2.00306 0
M  V30 116 H 13.8658 -1.08729 3.93245 0
M  V30 117 H 12.5408 0.0426163 4.15878 0
M  V30 118 H 11.1178 -1.60771 3.36463 0
M  V30 119 N 13.3029 -1.57598 0.00835791 0
M  V30 120 C 14.5279 -1.95617 -0.689103 0
M  V30 121 C 14.9529 -0.883753 -1.66046 0
M  V30 122 O 14.3109 0.157352 -1.80616 0
M  V30 123 C 14.3589 -3.32736 -1.38994 0
M  V30 124 O 13.4629 -3.27631 -2.50463 0
M  V30 125 H 12.8039 -0.638379 -0.182668 0
M  V30 126 H 15.3339 -2.045 0.064036 0
M  V30 127 H 15.3439 -3.68494 -1.75147 0
M  V30 128 H 14.0189 -4.1034 -0.677778 0
M  V30 129 H 12.5959 -3.03561 -2.16576 0
M  V30 130 N 14.781 0.264519 -1.55364 0
M  V30 131 C 15.691 1.34902 -1.91934 0
M  V30 132 C 16.707 1.53595 -0.817593 0
M  V30 133 O 17.883 1.67558 -1.11742 0
M  V30 134 C 14.948 2.68676 -2.19121 0
M  V30 135 C 14.009 2.58657 -3.4263 0
M  V30 136 C 13.242 3.86051 -3.68511 0
M  V30 137 O 13.465 4.87126 -2.96757 0
M  V30 138 O 12.399 3.85744 -4.62045 0
M  V30 139 H 16.225 1.06883 -2.8427 0
M  V30 140 H 13.81 0.463775 -1.42019 0
M  V30 141 H 15.692 3.47759 -2.37995 0
M  V30 142 H 14.367 2.96463 -1.29966 0
M  V30 143 H 13.274 1.7792 -3.29082 0
M  V30 144 H 14.607 2.35818 -4.32031 0
M  V30 145 N 16.2591 1.48442 0.529413 0
M  V30 146 C 17.5061 1.56488 1.28521 0
M  V30 147 C 17.8341 0.239042 1.93025 0
M  V30 148 O 17.0891 -0.770713 1.79885 0
M  V30 149 C 17.3881 2.6523 2.39558 0
M  V30 150 C 17.0541 4.07648 1.92702 0
M  V30 151 C 15.7161 4.46411 1.79641 0
M  V30 152 C 18.0681 4.96896 1.573 0
M  V30 153 C 15.3961 5.72226 1.29514 0
M  V30 154 C 17.7481 6.23202 1.08636 0
M  V30 155 C 16.4121 6.60821 0.941919 0
M  V30 156 H 15.6821 0.572631 0.470292 0
M  V30 157 H 18.3291 1.82161 0.59072 0
M  V30 158 H 16.6341 2.33419 3.14679 0
M  V30 159 H 18.3311 2.68671 2.97686 0
M  V30 160 H 14.9211 3.77036 2.03819 0
M  V30 161 H 19.1051 4.67626 1.66251 0
M  V30 162 H 14.3611 6.00097 1.17019 0
M  V30 163 H 18.5351 6.91753 0.803136 0
M  V30 164 H 16.1621 7.58198 0.5513 0
M  V30 165 N 17.7372 -0.778329 1.37039 0
M  V30 166 C 18.6672 -1.90546 1.34962 0
M  V30 167 C 19.6482 -1.68681 0.219274 0
M  V30 168 O 20.8332 -1.89634 0.418624 0
M  V30 169 C 17.9632 -3.27734 1.14925 0
M  V30 170 C 16.9172 -3.64147 2.24902 0
M  V30 171 C 16.2432 -4.99806 1.89996 0
M  V30 172 C 17.5432 -3.71579 3.67051 0
M  V30 173 H 19.2372 -1.92541 2.29277 0
M  V30 174 H 16.7832 -0.924948 1.10366 0
M  V30 175 H 18.7362 -4.06215 1.12104 0
M  V30 176 H 17.4602 -3.26154 0.170631 0
M  V30 177 H 16.1192 -2.8797 2.26868 0
M  V30 178 H 15.7672 -4.94759 0.906796 0
M  V30 179 H 15.4672 -5.25139 2.63634 0
M  V30 180 H 16.9912 -5.80694 1.88749 0
M  V30 181 H 18.4052 -4.40227 3.67251 0
M  V30 182 H 16.8022 -4.08405 4.39688 0
M  V30 183 H 17.8722 -2.72404 4.01154 0
M  V30 184 N 19.2153 -1.21501 -1.00376 0
M  V30 185 C 20.1623 -0.975387 -2.09177 0
M  V30 186 C 21.1323 0.0990615 -1.65804 0
M  V30 187 O 22.3173 -0.0483147 -1.90739 0
M  V30 188 C 19.4573 -0.547507 -3.40729 0
M  V30 189 C 18.5703 -1.69153 -3.97506 0
M  V30 190 C 17.7053 -1.2127 -5.17172 0
M  V30 191 C 16.7443 -2.32897 -5.66061 0
M  V30 192 N 15.8813 -1.86138 -6.76976 0
M  V30 193 H 20.7213 -1.9068 -2.29009 0
M  V30 194 H 18.2583 -0.950257 -1.12288 0
M  V30 195 H 20.2163 -0.280667 -4.16255 0
M  V30 196 H 18.8463 0.346904 -3.20931 0
M  V30 197 H 17.8983 -2.07298 -3.18954 0
M  V30 198 H 19.2103 -2.5316 -4.29781 0
M  V30 199 H 18.3643 -0.902591 -5.99948 0
M  V30 200 H 17.1033 -0.342692 -4.86495 0
M  V30 201 H 16.1083 -2.64709 -4.81881 0
M  V30 202 H 17.3333 -3.20396 -5.98768 0
M  V30 203 H 15.2793 -1.01484 -6.48103 0
M  V30 204 H 15.1963 -2.63717 -7.08512 0
M  V30 205 H 16.4643 -1.58165 -7.63285 0
M  V30 206 N 20.6934 1.19889 -1.02296 0
M  V30 207 C 21.6414 2.24938 -0.592081 0
M  V30 208 C 22.6354 1.65257 0.372357 0
M  V30 209 O 23.8414 1.78371 0.241583 0
M  V30 210 H 20.2164 0.731787 -0.173182 0
M  V30 211 H 22.1874 2.58603 -1.48885 0
M  V30 212 C 20.9364 3.47668 0.047351 0
M  V30 213 H 20.2594 3.93875 -0.685772 0
M  V30 214 H 21.6994 4.22852 0.311862 0
M  V30 215 C 20.1584 3.11136 1.29212 0
M  V30 216 O 20.6884 3.2325 2.38479 0
M  V30 217 N 18.8944 2.65625 1.17863 0
M  V30 218 H 18.4414 2.55968 0.289493 0
M  V30 219 H 18.3994 2.41553 2.01245 0
M  V30 220 N 22.1715 0.800033 1.35784 0
M  V30 221 C 23.5825 0.439142 1.81462 0
M  V30 222 C 23.9335 -1.03813 1.66485 0
M  V30 223 O 23.0585 -1.80626 1.19177 0
M  V30 224 C 23.6535 0.790314 3.29453 0
M  V30 225 C 22.2125 0.482111 3.733 0
M  V30 226 C 21.3595 1.01938 2.57883 0
M  V30 227 H 24.3105 0.992254 1.23855 0
M  V30 228 H 24.3315 0.0853677 3.80404 0
M  V30 229 H 23.8435 1.86554 3.40322 0
M  V30 230 H 21.9445 -0.584652 3.67984 0
M  V30 231 H 22.0575 1.01015 4.6833 0
M  V30 232 H 20.4215 0.442043 2.50835 0
M  V30 233 H 21.2045 2.10059 2.71533 0
M  V30 234 N 23.6496 -1.47581 0.552962 0
M  V30 235 C 24.8796 -2.06575 0.0320091 0
M  V30 236 C 25.2876 -1.4067 -1.26525 0
M  V30 237 O 24.6306 -0.495808 -1.76883 0
M  V30 238 C 24.6926 -3.58705 -0.238913 0
M  V30 239 C 24.3566 -4.46625 0.968272 0
M  V30 240 C 25.3536 -4.85 1.87274 0
M  V30 241 C 23.0386 -4.88201 1.18175 0
M  V30 242 C 25.0326 -5.63745 2.9744 0
M  V30 243 C 22.7196 -5.66712 2.28651 0
M  V30 244 C 23.7176 -6.04394 3.18114 0
M  V30 245 O 23.4056 -6.81324 4.26676 0
M  V30 246 H 23.1376 -0.674763 0.0408689 0
M  V30 247 H 25.6916 -1.90634 0.764719 0
M  V30 248 H 23.9216 -3.72844 -1.02588 0
M  V30 249 H 25.6106 -3.99735 -0.704731 0
M  V30 250 H 26.3766 -4.53482 1.71984 0
M  V30 251 H 22.2556 -4.58339 0.494593 0
M  V30 252 H 25.7996 -5.93077 3.67296 0
M  V30 253 H 21.6966 -5.97642 2.43915 0
M  V30 254 H 22.4646 -6.99712 4.24671 0
M  V30 255 N 25.1277 -0.289203 -1.54924 0
M  V30 256 C 26.3527 0.329299 -2.04769 0
M  V30 257 C 26.7777 1.4763 -1.16564 0
M  V30 258 O 26.1357 1.80527 -0.167186 0
M  V30 259 C 26.1837 0.774438 -3.52186 0
M  V30 260 O 25.2877 1.88038 -3.67036 0
M  V30 261 H 24.6287 0.0659259 -0.660719 0
M  V30 262 H 27.1587 -0.42761 -2.00082 0
M  V30 263 H 27.1687 1.06642 -3.93816 0
M  V30 264 H 25.8437 -0.0646707 -4.1585 0
M  V30 265 H 24.4207 1.58985 -3.3731 0
M  V30 266 N 26.6058 1.57591 -0.0167156 0
M  V30 267 C 27.8528 1.91283 0.664597 0
M  V30 268 C 28.1808 0.891949 1.72842 0
M  V30 269 O 27.4358 -0.100931 1.9544 0
M  V30 270 C 27.7348 3.3172 1.33029 0
M  V30 271 C 27.4008 4.4914 0.398047 0
M  V30 272 C 26.0628 4.80992 0.141421 0
M  V30 273 C 28.4148 5.20634 -0.242825 0
M  V30 274 C 25.7428 5.81703 -0.764092 0
M  V30 275 C 28.0948 6.22311 -1.13632 0
M  V30 276 C 26.7588 6.52611 -1.40196 0
M  V30 277 H 26.0288 0.699956 0.243193 0
M  V30 278 H 28.6758 1.9135 -0.0758267 0
M  V30 279 H 26.9808 3.27856 2.14517 0
M  V30 280 H 28.6778 3.55055 1.86379 0
M  V30 281 H 25.2678 4.24262 0.608238 0
M  V30 282 H 29.4518 4.96267 -0.0576019 0
M  V30 283 H 24.7078 6.03532 -0.977732 0
M  V30 284 H 28.8818 6.76834 -1.63917 0
M  V30 285 H 26.5088 7.30467 -2.10529 0
M  V30 286 N 28.0839 -0.256276 1.55502 0
M  V30 287 C 29.3139 -1.00196 1.80677 0
M  V30 288 C 29.7219 -1.79805 0.588797 0
M  V30 289 O 29.0649 -1.78055 -0.451883 0
M  V30 290 C 29.1269 -1.99515 2.99055 0
M  V30 291 C 28.7909 -1.38688 4.35448 0
M  V30 292 C 29.7879 -0.794079 5.138 0
M  V30 293 C 27.4729 -1.40906 4.82132 0
M  V30 294 C 29.4669 -0.231562 6.36979 0
M  V30 295 C 27.1539 -0.842684 6.05262 0
M  V30 296 C 28.1519 -0.254953 6.82524 0
M  V30 297 O 27.8399 0.3027 8.0333 0
M  V30 298 H 27.5719 -0.300919 0.60533 0
M  V30 299 H 30.1259 -0.287307 2.03381 0
M  V30 300 H 28.3559 -2.74785 2.72084 0
M  V30 301 H 30.0449 -2.60349 3.11405 0
M  V30 302 H 30.8109 -0.769519 4.78856 0
M  V30 303 H 26.6899 -1.85591 4.21992 0
M  V30 304 H 30.2339 0.227816 6.97228 0
M  V30 305 H 26.1309 -0.86454 6.39684 0
M  V30 306 H 26.8989 0.193662 8.18271 0
M  V30 307 N 29.562 -1.4872 -0.521534 0
M  V30 308 C 30.839 -1.4766 -1.2828 0
M  V30 309 C 31.219 -0.19292 -2.10217 0
M  V30 310 O 30.567 0.825193 -2.13079 0
M  V30 311 C 30.777 -2.74358 -2.15705 0
M  V30 312 C 32.125 -3.23028 -2.75569 0
M  V30 313 O 33.149 -2.75333 -2.25987 0
M  V30 314 O 32.008 -4.0604 -3.65778 0
M  V30 315 H 29.102 -0.590085 -0.579421 0
M  V30 316 H 31.648 -1.60963 -0.537492 0
M  V30 317 H 30.42 -3.59292 -1.54999 0
M  V30 318 H 30.043 -2.63816 -2.97467 0
M  V30 319 N 31.0401 0.771051 -1.3745 0
M  V30 320 C 32.2681 1.56015 -1.35893 0
M  V30 321 C 32.6831 1.88718 0.0555523 0
M  V30 322 O 32.0401 1.51502 1.01752 0
M  V30 323 C 32.0911 2.87001 -2.19801 0
M  V30 324 O 31.8121 2.557 -3.55738 0
M  V30 325 C 33.3131 3.81228 -2.26231 0
M  V30 326 H 30.5331 0.483317 -0.465453 0
M  V30 327 H 33.0771 0.955611 -1.80799 0
M  V30 328 H 31.2321 3.43877 -1.78402 0
M  V30 329 H 31.6461 3.39584 -3.99729 0
M  V30 330 H 33.1201 4.70139 -2.89263 0
M  V30 331 H 33.5971 4.20409 -1.27093 0
M  V30 332 H 34.2031 3.30281 -2.67945 0
M  V30 333 N 32.5182 1.22032 0.997298 0
M  V30 334 C 33.4482 1.01065 2.10495 0
M  V30 335 C 34.4292 -0.0669542 1.69968 0
M  V30 336 O 35.6142 0.0943987 1.9397 0
M  V30 337 C 32.7442 0.582874 3.42374 0
M  V30 338 C 31.6982 1.60592 3.96729 0
M  V30 339 C 31.0242 1.03412 5.24605 0
M  V30 340 C 32.3242 2.99478 4.27914 0
M  V30 341 H 34.0182 1.93708 2.28292 0
M  V30 342 H 31.5642 0.932761 1.09707 0
M  V30 343 H 33.5172 0.423332 4.19268 0
M  V30 344 H 32.2412 -0.379213 3.24391 0
M  V30 345 H 30.9002 1.75316 3.21963 0
M  V30 346 H 30.5482 0.063518 5.0296 0
M  V30 347 H 30.2482 1.71754 5.61938 0
M  V30 348 H 31.7722 0.886066 6.04137 0
M  V30 349 H 33.1862 2.88153 4.95622 0
M  V30 350 H 31.5832 3.64903 4.76409 0
M  V30 351 H 32.6532 3.49742 3.3587 0
M  V30 352 N 33.9963 -1.19345 1.0293 0
M  V30 353 C 35.4123 -1.41069 0.746446 0
M  V30 354 C 35.6123 -1.90078 -0.668776 0
M  V30 355 O 34.6683 -2.0778 -1.4347 0
M  V30 356 C 35.9813 -2.42141 1.78292 0
M  V30 357 C 37.5293 -2.55887 1.80252 0
M  V30 358 C 38.0043 -3.60214 2.8286 0
M  V30 359 N 39.4953 -3.67711 2.81679 0
M  V30 360 C 40.2303 -4.48128 3.57727 0
M  V30 361 N 39.7263 -5.32248 4.43491 0
M  V30 362 N 41.5193 -4.42782 3.46267 0
M  V30 363 H 33.6703 -0.858536 1.94275 0
M  V30 364 H 35.9333 -0.439541 0.839945 0
M  V30 365 H 35.6393 -2.13155 2.79746 0
M  V30 366 H 35.5133 -3.41323 1.60557 0
M  V30 367 H 37.9003 -2.84196 0.794757 0
M  V30 368 H 37.9813 -1.56858 2.02062 0
M  V30 369 H 37.6253 -3.32647 3.83807 0
M  V30 370 H 37.5553 -4.58895 2.58307 0
M  V30 371 H 40.0463 -3.07634 2.19476 0
M  V30 372 H 40.3593 -5.90729 4.98256 0
M  V30 373 H 38.7043 -5.31707 4.47564 0
M  V30 374 H 41.8953 -3.76107 2.78677 0
M  V30 375 H 42.0683 -5.05215 4.05785 0
M  V30 376 N 35.4744 -0.807222 -1.35358 0
M  V30 377 C 36.4374 -0.223665 -2.28106 0
M  V30 378 C 37.4374 0.589354 -1.4961 0
M  V30 379 O 38.6274 0.407745 -1.69361 0
M  V30 380 C 35.7594 0.688149 -3.33882 0
M  V30 381 H 36.9524 -1.04169 -2.81227 0
M  V30 382 H 34.5054 -0.577921 -1.45223 0
M  V30 383 H 35.2404 1.52984 -2.85948 0
M  V30 384 H 35.0254 0.10687 -3.91954 0
M  V30 385 H 36.5154 1.09075 -4.03104 0
M  V30 386 N 36.9525 1.47285 -0.560781 0
M  V30 387 C 38.1985 2.02764 -0.0381184 0
M  V30 388 C 38.5315 1.43384 1.30976 0
M  V30 389 O 37.8065 0.590733 1.85312 0
M  V30 390 C 38.0895 3.60064 0.0511427 0
M  V30 391 C 37.9425 4.2987 -1.32408 0
M  V30 392 C 39.2615 4.33439 0.762795 0
M  V30 393 H 36.3805 0.736841 -0.0153264 0
M  V30 394 H 39.0225 1.75675 -0.723759 0
M  V30 395 H 37.1725 3.83274 0.635065 0
M  V30 396 H 38.8445 4.17989 -1.95148 0
M  V30 397 H 37.0875 3.90085 -1.8978 0
M  V30 398 H 37.7585 5.38478 -1.21431 0
M  V30 399 H 40.2345 4.15243 0.266965 0
M  V30 400 H 39.1105 5.43124 0.794221 0
M  V30 401 H 39.3715 4.02915 1.81966 0
M  V30 402 N 38.4306 0.297415 1.54768 0
M  V30 403 C 39.3806 -0.595275 2.20092 0
M  V30 404 C 40.3646 -1.10163 1.17273 0
M  V30 405 O 41.5566 -1.043 1.43006 0
M  V30 406 C 38.6856 -1.7684 2.94249 0
M  V30 407 C 37.7716 -1.27818 4.0438 0
M  V30 408 N 38.1626 -0.505695 5.03266 0
M  V30 409 C 36.4606 -1.55923 4.17857 0
M  V30 410 C 37.1616 -0.245094 5.81183 0
M  V30 411 N 36.1376 -0.823881 5.3732 0
M  V30 412 H 39.9396 0.00250837 2.939 0
M  V30 413 H 37.4536 0.102007 1.62079 0
M  V30 414 H 39.4506 -2.41944 3.39513 0
M  V30 415 H 38.1106 -2.36992 2.21957 0
M  V30 416 H 39.1216 -0.150928 5.1768 0
M  V30 417 H 35.7986 -2.16849 3.56767 0
M  V30 418 H 37.1886 0.375084 6.70852 0
M  V30 419 N 39.9087 -1.5758 0.0250728 0
M  V30 420 C 41.3197 -1.79476 -0.514323 0
M  V30 421 C 41.6707 -0.934956 -1.72491 0
M  V30 422 O 40.7957 -0.144245 -2.15919 0
M  V30 423 C 41.3907 -3.25503 -0.939842 0
M  V30 424 C 39.9497 -3.48408 -1.42438 0
M  V30 425 C 39.0967 -2.74583 -0.387201 0
M  V30 426 H 42.0477 -1.567 0.25113 0
M  V30 427 H 42.0687 -3.34992 -1.80445 0
M  V30 428 H 41.5807 -3.88056 -0.0585628 0
M  V30 429 H 39.6817 -2.91103 -2.32572 0
M  V30 430 H 39.7947 -4.57119 -1.43455 0
M  V30 431 H 38.1587 -2.39942 -0.854409 0
M  V30 432 H 38.9417 -3.39849 0.485543 0
M  V30 433 N 41.3868 0.248026 -1.55636 0
M  V30 434 C 42.6358 0.974134 -1.76617 0
M  V30 435 C 42.9488 1.86528 -0.588796 0
M  V30 436 O 44.1548 2.62805 -0.681594 0
M  V30 437 C 42.6108 1.78213 -3.12679 0
M  V30 438 C 42.2188 0.93843 -4.38061 0
M  V30 439 C 43.9628 2.50104 -3.42999 0
M  V30 440 C 41.8698 1.74225 -5.65155 0
M  V30 441 H 40.7998 0.36745 -0.658405 0
M  V30 442 H 43.4508 0.22884 -1.82067 0
M  V30 443 H 41.8328 2.56933 -3.01333 0
M  V30 444 H 43.0068 0.193635 -4.60393 0
M  V30 445 H 41.3218 0.332905 -4.15067 0
M  V30 446 H 43.9188 3.10694 -4.3517 0
M  V30 447 H 44.2618 3.21662 -2.64271 0
M  V30 448 H 44.7948 1.78395 -3.55556 0
M  V30 449 H 41.5338 1.07043 -6.46701 0
M  V30 450 H 41.0538 2.46235 -5.46926 0
M  V30 451 H 42.7328 2.30967 -6.0437 0
M  V30 452 N 42.8649 1.48995 0.513639 0
M  V30 453 C 44.0949 1.61297 1.291 0
M  V30 454 C 44.5029 0.278656 1.87137 0
M  V30 455 O 43.8459 -0.744325 1.67945 0
M  V30 456 C 43.9079 2.61326 2.46879 0
M  V30 457 C 43.5719 4.05993 2.09807 0
M  V30 458 C 44.5689 4.93183 1.64519 0
M  V30 459 C 42.2539 4.51642 2.19829 0
M  V30 460 C 44.2479 6.24056 1.2974 0
M  V30 461 C 41.9349 5.82532 1.84662 0
M  V30 462 C 42.9329 6.68562 1.3969 0
M  V30 463 O 42.6209 7.97014 1.04992 0
M  V30 464 H 42.3529 0.546236 0.39825 0
M  V30 465 H 44.9069 1.95673 0.62459 0
M  V30 466 H 43.1369 2.22104 3.16554 0
M  V30 467 H 44.8259 2.6329 3.08923 0
M  V30 468 H 45.5919 4.59147 1.56233 0
M  V30 469 H 41.4709 3.84855 2.53786 0
M  V30 470 H 45.0149 6.91161 0.945659 0
M  V30 471 H 40.9119 6.16099 1.92594 0
M  V30 472 H 41.6799 8.09913 1.18249 0
M  V30 473 N 44.343 -0.763751 1.37857 0
M  V30 474 C 45.29 -1.87726 1.34267 0
M  V30 475 C 46.26 -1.64807 0.206879 0
M  V30 476 O 47.445 -1.86613 0.397508 0
M  V30 477 C 44.585 -3.24896 1.16346 0
M  V30 478 C 43.698 -3.59716 2.39225 0
M  V30 479 C 42.833 -4.86137 2.14114 0
M  V30 480 C 41.872 -5.13711 3.32817 0
M  V30 481 N 41.009 -6.31323 3.07206 0
M  V30 482 H 45.849 -1.90129 2.29466 0
M  V30 483 H 43.386 -0.929433 1.14017 0
M  V30 484 H 45.344 -4.04036 1.03975 0
M  V30 485 H 43.974 -3.21847 0.247909 0
M  V30 486 H 43.026 -2.75498 2.62307 0
M  V30 487 H 44.338 -3.76027 3.27728 0
M  V30 488 H 43.492 -5.73198 1.9882 0
M  V30 489 H 42.231 -4.71945 1.22961 0
M  V30 490 H 41.236 -4.25123 3.48641 0
M  V30 491 H 42.461 -5.29807 4.24832 0
M  V30 492 H 40.407 -6.18474 2.1869 0
M  V30 493 H 40.324 -6.48087 3.89254 0
M  V30 494 H 41.592 -7.213 2.95546 0
M  V30 495 N 45.8211 -1.22559 -0.990812 0
M  V30 496 C 47.0691 -1.04933 -1.72724 0
M  V30 497 C 47.3901 0.416158 -1.90508 0
M  V30 498 O 46.6601 1.29918 -1.46622 0
M  V30 499 H 45.2401 -0.385296 -0.639965 0
M  V30 500 H 47.9021 -1.54105 -1.19322 0
M  V30 501 H 46.9981 -1.52886 -2.72089 0
M  V30 502 N 47.2992 1.18797 -1.03562 0
M  V30 503 C 48.5242 1.9314 -0.755764 0
M  V30 504 C 48.9492 1.7537 0.68022 0
M  V30 505 O 48.3072 1.06046 1.47051 0
M  V30 506 C 48.3552 3.42747 -1.12058 0
M  V30 507 O 47.4592 4.11683 -0.243124 0
M  V30 508 H 46.8002 0.602724 -0.278604 0
M  V30 509 H 49.3302 1.50678 -1.3841 0
M  V30 510 H 49.3402 3.93437 -1.08035 0
M  V30 511 H 48.0152 3.55002 -2.16672 0
M  V30 512 H 46.5922 3.71323 -0.342539 0
M  V30 513 N 48.7773 0.814389 1.34928 0
M  V30 514 C 50.0243 0.398423 1.98542 0
M  V30 515 C 50.3523 -1.03638 1.64589 0
M  V30 516 O 49.6073 -1.73509 0.90516 0
M  V30 517 C 49.9063 0.537781 3.53331 0
M  V30 518 C 49.5723 1.93704 4.07172 0
M  V30 519 C 48.2343 2.31984 4.21589 0
M  V30 520 C 50.5863 2.85213 4.36237 0
M  V30 521 C 47.9143 3.61125 4.62391 0
M  V30 522 C 50.2663 4.13809 4.78482 0
M  V30 523 C 48.9303 4.52077 4.91104 0
M  V30 524 H 48.2003 0.145793 0.726516 0
M  V30 525 H 50.8473 1.03669 1.61012 0
M  V30 526 H 49.1523 -0.183906 3.91368 0
M  V30 527 H 50.8493 0.196588 4.00518 0
M  V30 528 H 47.4393 1.62966 3.96409 0
M  V30 529 H 51.6233 2.56885 4.24645 0
M  V30 530 H 46.8793 3.90612 4.70353 0
M  V30 531 H 51.0533 4.84811 4.99932 0
M  V30 532 H 48.6803 5.52196 5.22478 0
M  V30 533 N 50.2554 -1.46986 0.568584 0
M  V30 534 C 51.1854 -2.32946 -0.160753 0
M  V30 535 C 52.1664 -1.44487 -0.897631 0
M  V30 536 O 53.3514 -1.73327 -0.875867 0
M  V30 537 C 50.4814 -3.26494 -1.18403 0
M  V30 538 C 49.4354 -4.24282 -0.562895 0
M  V30 539 C 48.7614 -5.07236 -1.69163 0
M  V30 540 C 50.0614 -5.19989 0.490761 0
M  V30 541 H 51.7554 -2.94175 0.556916 0
M  V30 542 H 49.3014 -1.4146 0.26927 0
M  V30 543 H 51.2544 -3.85477 -1.70251 0
M  V30 544 H 49.9784 -2.63343 -1.93179 0
M  V30 545 H 48.6374 -3.66541 -0.0656164 0
M  V30 546 H 48.2854 -4.4048 -2.42871 0
M  V30 547 H 47.9854 -5.7345 -1.28174 0
M  V30 548 H 49.5094 -5.6908 -2.21314 0
M  V30 549 H 50.9234 -5.73271 0.0579047 0
M  V30 550 H 49.3204 -5.94469 0.820165 0
M  V30 551 H 50.3904 -4.64777 1.3824 0
M  V30 552 N 51.7335 -0.305618 -1.54608 0
M  V30 553 C 52.6805 0.568421 -2.23691 0
M  V30 554 C 53.6505 1.12592 -1.22116 0
M  V30 555 O 54.8355 1.16959 -1.50749 0
M  V30 556 C 51.9755 1.7322 -2.98477 0
M  V30 557 C 51.0885 1.20566 -4.14835 0
M  V30 558 C 50.2235 2.33368 -4.77193 0
M  V30 559 C 49.2625 1.7787 -5.85686 0
M  V30 560 N 48.3995 2.84263 -6.4198 0
M  V30 561 H 53.2395 -0.0272867 -2.97988 0
M  V30 562 H 50.7765 -0.0252363 -1.47078 0
M  V30 563 H 52.7345 2.41675 -3.40072 0
M  V30 564 H 51.3645 2.29947 -2.26548 0
M  V30 565 H 50.4165 0.413223 -3.78149 0
M  V30 566 H 51.7285 0.759417 -4.92985 0
M  V30 567 H 50.8825 3.09761 -5.21664 0
M  V30 568 H 49.6215 2.8132 -3.98385 0
M  V30 569 H 48.6265 0.99968 -5.40635 0
M  V30 570 H 49.8515 1.30816 -6.66381 0
M  V30 571 H 47.7975 3.31541 -5.66053 0
M  V30 572 H 47.7145 2.44149 -7.15491 0
M  V30 573 H 48.9825 3.6054 -6.91109 0
M  V30 574 N 53.2116 1.57565 -0.0334293 0
M  V30 575 C 54.4416 1.95996 0.653398 0
M  V30 576 C 54.8496 0.908749 1.65947 0
M  V30 577 O 54.1926 -0.117471 1.83324 0
M  V30 578 C 54.2546 3.30589 1.41249 0
M  V30 579 C 53.9186 4.53503 0.564263 0
M  V30 580 C 54.9156 5.19647 -0.16225 0
M  V30 581 C 52.6006 4.99801 0.500398 0
M  V30 582 C 54.5946 6.30412 -0.941255 0
M  V30 583 C 52.2816 6.10448 -0.282308 0
M  V30 584 C 53.2796 6.75612 -1.00184 0
M  V30 585 O 52.9676 7.84134 -1.77171 0
M  V30 586 H 52.6996 0.65027 0.184728 0
M  V30 587 H 55.2536 2.05199 -0.0907841 0
M  V30 588 H 53.4836 3.17888 2.20191 0
M  V30 589 H 55.1726 3.53892 1.98784 0
M  V30 590 H 55.9386 4.84846 -0.12227 0
M  V30 591 H 51.8176 4.48883 1.05002 0
M  V30 592 H 55.3616 6.81208 -1.50339 0
M  V30 593 H 51.2586 6.44686 -0.323989 0
M  V30 594 H 52.0266 8.00822 -1.69194 0
M  V30 595 N 54.6897 -0.239769 1.55765 0
M  V30 596 C 56.1007 -0.808263 1.68297 0
M  V30 597 C 56.4517 -1.85736 0.632181 0
M  V30 598 O 55.5767 -2.15277 -0.220204 0
M  V30 599 C 56.1717 -1.47284 3.05111 0
M  V30 600 C 54.7307 -1.98895 3.19559 0
M  V30 601 C 53.8777 -0.842575 2.64189 0
M  V30 602 H 56.8287 -0.0154422 1.58692 0
M  V30 603 H 56.8497 -2.34111 2.99954 0
M  V30 604 H 56.3617 -0.709053 3.81568 0
M  V30 605 H 54.4627 -2.78132 2.47938 0
M  V30 606 H 54.5757 -2.18143 4.26556 0
M  V30 607 H 52.9397 -1.24501 2.22197 0
M  V30 608 H 53.7227 -0.0917552 3.43177 0
M  V30 609 N 56.1678 -1.49265 -0.50573 0
M  V30 610 C 57.4158 -1.582 -1.25766 0
M  V30 611 C 57.7368 -0.268482 -1.93143 0
M  V30 612 O 57.0068 0.711833 -1.8251 0
M  V30 613 H 55.5868 -0.582873 -0.467191 0
M  V30 614 H 58.2488 -1.85865 -0.586525 0
M  V30 615 H 57.3448 -2.37563 -2.02412 0
M  V30 616 N 57.6459 0.756429 -1.3826 0
M  V30 617 C 58.8919 1.5168 -1.35517 0
M  V30 618 C 59.2469 1.9232 0.0554451 0
M  V30 619 O 58.5399 1.62352 1.01746 0
M  V30 620 C 58.7339 2.78313 -2.24224 0
M  V30 621 C 58.5629 2.50053 -3.7377 0
M  V30 622 C 57.3329 2.43414 -4.42807 0
M  V30 623 C 59.5309 2.1702 -4.66269 0
M  V30 624 N 57.5129 2.07398 -5.77805 0
M  V30 625 C 58.8839 1.91271 -5.89759 0
M  V30 626 C 60.9389 2.03305 -4.54501 0
M  V30 627 C 59.6419 1.53192 -7.02798 0
M  V30 628 C 61.6679 1.66627 -5.67441 0
M  V30 629 C 61.0299 1.4175 -6.8999 0
M  V30 630 H 57.1289 0.554735 -0.551174 0
M  V30 631 H 59.7129 0.881106 -1.73622 0
M  V30 632 H 57.8839 3.39696 -1.88311 0
M  V30 633 H 59.6159 3.44343 -2.12627 0
M  V30 634 H 56.3709 2.59789 -3.95988 0
M  V30 635 H 56.7949 1.92044 -6.4919 0
M  V30 636 H 61.4369 2.21215 -3.60311 0
M  V30 637 H 59.1549 1.34022 -7.96909 0
M  V30 638 H 62.7409 1.56652 -5.60314 0
M  V30 639 H 61.6209 1.1379 -7.759 0
M  V30 640 N 59.124 1.23083 0.984299 0
M  V30 641 C 60.354 1.08556 1.75781 0
M  V30 642 C 60.762 -0.366171 1.85623 0
M  V30 643 O 60.105 -1.26524 1.33182 0
M  V30 644 C 60.167 1.63208 3.20318 0
M  V30 645 C 59.831 3.11922 3.33997 0
M  V30 646 C 60.828 4.09259 3.2063 0
M  V30 647 C 58.513 3.51552 3.58771 0
M  V30 648 C 60.507 5.4421 3.31835 0
M  V30 649 C 58.194 4.86649 3.69616 0
M  V30 650 C 59.192 5.82787 3.56157 0
M  V30 651 O 58.88 7.15431 3.66626 0
M  V30 652 H 58.612 0.380713 0.5586 0
M  V30 653 H 61.166 1.63321 1.2456 0
M  V30 654 H 59.396 1.0286 3.72769 0
M  V30 655 H 61.085 1.44216 3.79416 0
M  V30 656 H 61.851 3.79984 3.01392 0
M  V30 657 H 57.73 2.77239 3.6832 0
M  V30 658 H 61.274 6.1923 3.21247 0
M  V30 659 H 57.171 5.15601 3.88363 0
M  V30 660 H 57.939 7.23127 3.83445 0
M  V30 661 N 60.6021 -1.18246 1.0419 0
M  V30 662 C 61.8481 -1.88536 0.747122 0
M  V30 663 C 62.1811 -1.80223 -0.723409 0
M  V30 664 O 61.4561 -1.20337 -1.52804 0
M  V30 665 C 61.7391 -3.38968 1.21544 0
M  V30 666 C 61.5921 -3.56084 2.74816 0
M  V30 667 C 62.9111 -4.32648 0.806482 0
M  V30 668 H 60.0301 -0.684619 0.272883 0
M  V30 669 H 62.6721 -1.39113 1.29413 0
M  V30 670 H 60.8221 -3.8119 0.750081 0
M  V30 671 H 62.4941 -3.22946 3.29399 0
M  V30 672 H 60.7371 -2.98699 3.14582 0
M  V30 673 H 61.4081 -4.61639 3.02644 0
M  V30 674 H 63.8841 -3.98211 1.20695 0
M  V30 675 H 62.7601 -5.36462 1.1619 0
M  V30 676 H 63.0211 -4.41146 -0.29029 0
M  V30 677 N 62.0802 -0.821533 -1.34494 0
M  V30 678 C 63.3082 -0.421884 -2.02553 0
M  V30 679 C 63.7232 0.971745 -1.61872 0
M  V30 680 O 63.0802 1.62864 -0.823496 0
M  V30 681 C 63.1312 -0.51285 -3.57844 0
M  V30 682 O 62.8522 -1.85155 -3.97051 0
M  V30 683 C 64.3532 -0.107921 -4.43169 0
M  V30 684 H 61.5732 -0.169482 -0.649243 0
M  V30 685 H 64.1172 -1.1093 -1.71798 0
M  V30 686 H 62.2722 0.126474 -3.87193 0
M  V30 687 H 62.6862 -1.82482 -4.91732 0
M  V30 688 H 64.1602 -0.222657 -5.51551 0
M  V30 689 H 64.6372 0.948401 -4.28838 0
M  V30 690 H 65.2432 -0.720989 -4.19144 0
M  V30 691 N 63.5583 1.46682 -0.576371 0
M  V30 692 C 64.8063 2.02013 -0.0594163 0
M  V30 693 C 65.1273 1.45101 1.30271 0
M  V30 694 O 64.3973 0.633317 1.8538 0
M  V30 695 H 62.9773 0.746759 -0.0189745 0
M  V30 696 H 65.6393 1.79862 -0.750717 0
M  V30 697 H 64.7353 3.12097 0.014345 0
M  V30 698 N 65.0364 0.313813 1.54444 0
M  V30 699 C 66.2664 -0.293491 2.04505 0
M  V30 700 C 66.6744 -1.47086 1.19005 0
M  V30 701 O 66.0174 -1.82481 0.211257 0
M  V30 702 C 66.0794 -0.800455 3.50475 0
M  V30 703 C 65.7434 0.253322 4.56297 0
M  V30 704 C 66.7404 1.08612 5.08428 0
M  V30 705 C 64.4254 0.398708 5.00715 0
M  V30 706 C 66.4194 2.05013 6.0353 0
M  V30 707 C 64.1064 1.36614 5.95634 0
M  V30 708 C 65.1044 2.19033 6.46926 0
M  V30 709 O 64.7924 3.14134 7.39983 0
M  V30 710 H 64.5244 -0.0658325 0.672787 0
M  V30 711 H 67.0784 0.455177 2.00293 0
M  V30 712 H 65.3084 -1.59987 3.52053 0
M  V30 713 H 66.9974 -1.32504 3.83663 0
M  V30 714 H 67.7634 0.984736 4.74898 0
M  V30 715 H 63.6424 -0.23289 4.60411 0
M  V30 716 H 67.1864 2.69382 6.4349 0
M  V30 717 H 63.0834 1.4682 6.28581 0
M  V30 718 H 63.8514 3.0926 7.57826 0
M  V30 719 N 66.5145 -1.57545 0.0417849 0
M  V30 720 C 67.4245 -2.14451 -0.951213 0
M  V30 721 C 68.4405 -1.09992 -1.34825 0
M  V30 722 O 69.6165 -1.42114 -1.42708 0
M  V30 723 C 66.6815 -2.67063 -2.21084 0
M  V30 724 C 65.7425 -3.86284 -1.87304 0
M  V30 725 C 64.9755 -4.36378 -3.07261 0
M  V30 726 O 65.1985 -3.85587 -4.20332 0
M  V30 727 O 64.1325 -5.28077 -2.88822 0
M  V30 728 H 67.9585 -2.99601 -0.497287 0
M  V30 729 H 65.5435 -1.48317 -0.179567 0
M  V30 730 H 67.4255 -3.00914 -2.95006 0
M  V30 731 H 66.1005 -1.84989 -2.65633 0
M  V30 732 H 65.0075 -3.57338 -1.10727 0
M  V30 733 H 66.3405 -4.6956 -1.47562 0
M  V30 734 N 67.9926 0.231505 -1.5589 0
M  V30 735 C 68.9026 1.308 -1.94752 0
M  V30 736 C 69.9186 1.51826 -0.849989 0
M  V30 737 O 71.0946 1.6515 -1.15271 0
M  V30 738 C 68.1596 2.63968 -2.24771 0
M  V30 739 C 67.2206 2.51331 -3.48039 0
M  V30 740 C 66.4536 3.78148 -3.76616 0
M  V30 741 O 66.6766 4.80722 -3.07022 0
M  V30 742 O 65.6106 3.75857 -4.70123 0
M  V30 743 H 69.4366 1.0083 -2.86474 0
M  V30 744 H 67.0216 0.433547 -1.42971 0
M  V30 745 H 68.9036 3.42633 -2.45318 0
M  V30 746 H 67.5786 2.9364 -1.36225 0
M  V30 747 H 66.4856 1.709 -3.32782 0
M  V30 748 H 67.8186 2.26601 -4.36936 0
M  V30 749 N 69.4707 1.49531 0.497807 0
M  V30 750 C 70.6987 1.62893 1.27567 0
M  V30 751 C 71.1137 0.301585 1.86376 0
M  V30 752 O 70.4707 -0.713335 1.67982 0
M  V30 753 C 70.5217 2.70013 2.40364 0
M  V30 754 O 70.2427 3.976 1.83972 0
M  V30 755 C 71.7437 2.94109 3.31685 0
M  V30 756 H 68.9637 0.548298 0.386794 0
M  V30 757 H 71.5077 1.95584 0.597245 0
M  V30 758 H 69.6627 2.40092 3.04031 0
M  V30 759 H 70.0767 4.56631 2.58047 0
M  V30 760 H 71.5507 3.72788 4.07104 0
M  V30 761 H 72.0277 2.04147 3.88871 0
M  V30 762 H 72.6337 3.2546 2.73781 0
M  V30 763 N 70.9488 -0.749086 1.3866 0
M  V30 764 C 71.9118 -1.84457 1.36045 0
M  V30 765 C 72.9118 -1.58682 0.260122 0
M  V30 766 O 74.1018 -1.66343 0.517261 0
M  V30 767 C 71.2338 -3.22008 1.11911 0
M  V30 768 H 72.4268 -1.88182 2.33512 0
M  V30 769 H 69.9798 -0.951266 1.24019 0
M  V30 770 H 70.7148 -3.2395 0.150686 0
M  V30 771 H 70.4998 -3.42111 1.91579 0
M  V30 772 H 71.9898 -4.0208 1.12788 0
M  V30 773 N 72.4269 -1.23603 -0.977757 0
M  V30 774 C 73.3899 -1.02069 -2.05218 0
M  V30 775 C 74.3899 0.0184305 -1.60789 0
M  V30 776 O 75.5799 -0.221569 -1.72785 0
M  V30 777 C 72.7119 -0.544926 -3.36517 0
M  V30 778 H 73.9049 -1.9742 -2.25755 0
M  V30 779 H 71.4579 -1.05684 -1.15155 0
M  V30 780 H 72.1929 0.412241 -3.21669 0
M  V30 781 H 71.9779 -1.2948 -3.70105 0
M  V30 782 H 73.4679 -0.414985 -4.15533 0
M  V30 783 N 73.905 1.17692 -1.04816 0
M  V30 784 C 75.154 1.87192 -0.751132 0
M  V30 785 C 75.467 1.8169 0.724441 0
M  V30 786 O 76.673 2.46625 1.13527 0
M  V30 787 C 75.129 3.35857 -1.29338 0
M  V30 788 C 74.737 3.4987 -2.79812 0
M  V30 789 C 76.481 4.10709 -1.07322 0
M  V30 790 C 74.388 4.92536 -3.27356 0
M  V30 791 H 73.318 0.701162 -0.277288 0
M  V30 792 H 75.969 1.32932 -1.26496 0
M  V30 793 H 74.351 3.89631 -0.707376 0
M  V30 794 H 75.525 3.06332 -3.44235 0
M  V30 795 H 73.84 2.88433 -3.00325 0
M  V30 796 H 76.437 5.15952 -1.4035 0
M  V30 797 H 76.78 4.16299 -0.0108001 0
M  V30 798 H 77.313 3.6313 -1.62423 0
M  V30 799 H 74.052 4.92119 -4.33012 0
M  V30 800 H 73.572 5.3676 -2.67673 0
M  V30 801 H 75.251 5.61288 -3.21815 0
M  V30 802 N 75.3831 0.828654 1.34056 0
M  V30 803 C 76.3131 0.269443 2.3194 0
M  V30 804 C 77.2941 -0.617247 1.58506 0
M  V30 805 O 78.4791 -0.542931 1.86456 0
M  V30 806 C 75.6091 -0.564793 3.42677 0
M  V30 807 C 74.5631 0.225241 4.27407 0
M  V30 808 C 73.8891 -0.7321 5.29664 0
M  V30 809 C 75.1891 1.43663 5.02154 0
M  V30 810 H 76.8831 1.08728 2.7896 0
M  V30 811 H 74.4291 0.524283 1.34117 0
M  V30 812 H 76.3821 -0.966233 4.10173 0
M  V30 813 H 75.1061 -1.41574 2.9432 0
M  V30 814 H 73.7651 0.608117 3.61521 0
M  V30 815 H 73.4131 -1.57916 4.77568 0
M  V30 816 H 73.1131 -0.20767 5.87233 0
M  V30 817 H 74.6371 -1.13128 6.00029 0
M  V30 818 H 76.0511 1.1089 5.62473 0
M  V30 819 H 74.4481 1.89711 5.69324 0
M  V30 820 H 75.5181 2.21181 4.31517 0
M  V30 821 N 76.8612 -1.46375 0.584142 0
M  V30 822 C 77.8082 -2.30323 -0.148286 0
M  V30 823 C 78.7782 -1.40703 -0.882713 0
M  V30 824 O 79.9632 -1.69651 -0.873099 0
M  V30 825 C 77.1032 -3.25196 -1.15507 0
M  V30 826 C 76.2162 -4.29915 -0.423943 0
M  V30 827 C 75.3512 -5.11914 -1.41838 0
M  V30 828 C 74.3902 -6.08381 -0.673736 0
M  V30 829 N 73.5272 -6.83242 -1.6163 0
M  V30 830 H 78.3672 -2.92427 0.573644 0
M  V30 831 H 75.9042 -1.44118 0.294703 0
M  V30 832 H 77.8622 -3.78646 -1.75166 0
M  V30 833 H 76.4922 -2.64898 -1.8447 0
M  V30 834 H 75.5442 -3.7931 0.287714 0
M  V30 835 H 76.8562 -4.98549 0.158128 0
M  V30 836 H 76.0102 -5.69648 -2.08773 0
M  V30 837 H 74.7492 -4.43243 -2.03438 0
M  V30 838 H 73.7542 -5.49799 0.00938483 0
M  V30 839 H 74.9792 -6.79071 -0.0631082 0
M  V30 840 H 72.9252 -6.1728 -2.22038 0
M  V30 841 H 72.8422 -7.48144 -1.08707 0
M  V30 842 H 74.1102 -7.45534 -2.27596 0
M  V30 843 N 78.3393 -0.321999 -1.54275 0
M  V30 844 C 79.6163 0.335232 -1.92706 0
M  V30 845 C 79.9963 1.70006 -1.25145 0
M  V30 846 O 79.3443 2.25067 -0.394596 0
M  V30 847 C 79.5543 0.429008 -3.46353 0
M  V30 848 C 80.9023 0.690029 -4.18956 0
M  V30 849 O 81.9263 0.511992 -3.52501 0
M  V30 850 O 80.7853 1.03338 -5.36641 0
M  V30 851 H 77.8793 0.191143 -0.804608 0
M  V30 852 H 80.4253 -0.3716 -1.65581 0
M  V30 853 H 79.1973 -0.529611 -3.87699 0
M  V30 854 H 78.8203 1.18348 -3.79578 0
M  V30 855 N 79.8174 1.5752 -0.0501392 0
M  V30 856 C 80.7804 2.1037 0.909786 0
M  V30 857 C 81.7804 1.02308 1.24056 0
M  V30 858 O 82.9704 1.28385 1.17741 0
M  V30 859 C 80.1024 2.58708 2.21998 0
M  V30 860 H 81.2954 2.96479 0.451665 0
M  V30 861 H 78.8484 1.55038 0.198248 0
M  V30 862 H 79.5834 1.75989 2.72394 0
M  V30 863 H 79.3684 3.37675 1.99295 0
M  V30 864 H 80.8584 2.99747 2.9076 0
M  V30 865 N 81.2955 -0.223234 1.56011 0
M  V30 866 C 82.7115 -0.572856 1.48965 0
M  V30 867 C 82.9115 -1.87225 0.74492 0
M  V30 868 O 81.9675 -2.50899 0.283896 0
M  V30 869 C 83.2805 -0.653646 2.9351 0
M  V30 870 C 84.8285 -0.744386 3.0402 0
M  V30 871 C 85.3035 -0.856535 4.49919 0
M  V30 872 N 86.7945 -0.9208 4.53955 0
M  V30 873 C 87.5295 -1.02726 5.64123 0
M  V30 874 N 87.0255 -1.09777 6.84047 0
M  V30 875 N 88.8185 -1.06226 5.51971 0
M  V30 876 H 80.9695 0.629462 2.02858 0
M  V30 877 H 83.2325 0.220621 0.921971 0
M  V30 878 H 82.9385 0.231518 3.50937 0
M  V30 879 H 82.8125 -1.51781 3.45315 0
M  V30 880 H 85.1995 -1.61999 2.46658 0
M  V30 881 H 85.2805 0.14541 2.55386 0
M  V30 882 H 84.9245 0.0146069 5.07898 0
M  V30 883 H 84.8545 -1.76172 4.96257 0
M  V30 884 H 87.3455 -0.876694 3.6759 0
M  V30 885 H 87.6585 -1.17872 7.63758 0
M  V30 886 H 86.0035 -1.06693 6.86762 0
M  V30 887 H 89.1945 -1.00382 4.5721 0
M  V30 888 H 89.3675 -1.14177 6.37862 0
M  V30 889 N 82.7736 -1.49793 -0.48987 0
M  V30 890 C 84.0206 -1.59841 -1.24327 0
M  V30 891 C 84.3486 -0.290135 -1.92324 0
M  V30 892 O 83.6036 0.722749 -1.81865 0
M  V30 893 C 83.9026 -2.71488 -2.32441 0
M  V30 894 C 83.5686 -4.12614 -1.81826 0
M  V30 895 C 82.2306 -4.51017 -1.67742 0
M  V30 896 C 84.5826 -5.00892 -1.4407 0
M  V30 897 C 81.9106 -5.75459 -1.14297 0
M  V30 898 C 84.2626 -6.25863 -0.920742 0
M  V30 899 C 82.9266 -6.63086 -0.766383 0
M  V30 900 H 82.1966 -0.584899 -0.454944 0
M  V30 901 H 84.8436 -1.83663 -0.542215 0
M  V30 902 H 83.1486 -2.4168 -3.0838 0
M  V30 903 H 84.8456 -2.76469 -2.90458 0
M  V30 904 H 81.4356 -3.82307 -1.93751 0
M  V30 905 H 85.6196 -4.7187 -1.53794 0
M  V30 906 H 80.8756 -6.02989 -1.01068 0
M  V30 907 H 85.0496 -6.9364 -0.619448 0
M  V30 908 H 82.6766 -7.59393 -0.350083 0
M  V30 909 N 84.2517 0.741722 -1.39055 0
M  V30 910 C 85.1987 1.85566 -1.37237 0
M  V30 911 C 86.1687 1.64457 -0.233072 0
M  V30 912 O 87.3537 1.85957 -0.427147 0
M  V30 913 C 84.4937 3.23004 -1.215 0
M  V30 914 C 83.6067 3.55864 -2.44918 0
M  V30 915 C 82.7417 4.82669 -2.21821 0
M  V30 916 C 81.7807 5.08351 -3.40948 0
M  V30 917 N 80.9177 6.26356 -3.17211 0
M  V30 918 H 85.7577 1.86455 -2.32462 0
M  V30 919 H 83.2947 0.911176 -1.15482 0
M  V30 920 H 85.2527 4.02331 -1.10389 0
M  V30 921 H 83.8827 3.21411 -0.29908 0
M  V30 922 H 82.9347 2.7129 -2.66657 0
M  V30 923 H 84.2467 3.70765 -3.33668 0
M  V30 924 H 83.4007 5.69962 -2.07914 0
M  V30 925 H 82.1397 4.69929 -1.30454 0
M  V30 926 H 81.1447 4.19522 -3.55361 0
M  V30 927 H 82.3697 5.22981 -4.33207 0
M  V30 928 H 80.3157 6.14917 -2.28502 0
M  V30 929 H 80.2327 6.41813 -3.99515 0
M  V30 930 H 81.5007 7.16506 -3.06984 0
M  V30 931 N 85.7298 1.2412 0.971189 0
M  V30 932 C 86.9758 1.08041 1.71625 0
M  V30 933 C 87.3088 -0.380407 1.90438 0
M  V30 934 O 86.5838 -1.28127 1.46334 0
M  V30 935 C 86.8668 1.81682 3.10908 0
M  V30 936 C 86.7198 3.35493 2.99608 0
M  V30 937 C 88.0388 1.58671 4.10501 0
M  V30 938 H 85.1578 0.39388 0.622919 0
M  V30 939 H 87.7998 1.52743 1.13003 0
M  V30 940 H 85.9498 1.43684 3.60953 0
M  V30 941 H 87.6218 3.83068 2.57015 0
M  V30 942 H 85.8648 3.64052 2.35899 0
M  V30 943 H 86.5358 3.82217 3.98264 0
M  V30 944 H 89.0118 1.91719 3.69301 0
M  V30 945 H 87.8878 2.1266 5.06031 0
M  V30 946 H 88.1488 0.524161 4.38982 0
M  V30 947 N 87.2079 -1.17134 1.05439 0
M  V30 948 C 88.6239 -1.39454 0.776201 0
M  V30 949 C 88.8239 -1.91454 -0.628307 0
M  V30 950 O 87.8799 -2.10777 -1.39031 0
M  V30 951 C 89.1929 -2.38305 1.83388 0
M  V30 952 C 90.7409 -2.52006 1.85639 0
M  V30 953 C 91.2159 -3.54133 2.90437 0
M  V30 954 N 92.7069 -3.61653 2.89415 0
M  V30 955 C 93.4419 -4.4044 3.67152 0
M  V30 956 N 92.9379 -5.22721 4.54681 0
M  V30 957 N 94.7309 -4.35337 3.55581 0
M  V30 958 H 86.8819 -0.817134 1.96053 0
M  V30 959 H 89.1449 -0.421626 0.849079 0
M  V30 960 H 88.8509 -2.07173 2.84204 0
M  V30 961 H 88.7249 -3.37841 1.67761 0
M  V30 962 H 91.1119 -2.82447 0.85486 0
M  V30 963 H 91.1929 -1.52537 2.05344 0
M  V30 964 H 90.8369 -3.24431 3.90777 0
M  V30 965 H 90.7669 -4.53313 2.67983 0
M  V30 966 H 93.2579 -3.02909 2.25952 0
M  V30 967 H 93.5709 -5.80027 5.10674 0
M  V30 968 H 91.9159 -5.22093 4.58741 0
M  V30 969 H 95.1069 -3.70112 2.86592 0
M  V30 970 H 95.2799 -4.96494 4.1641 0
M  V30 971 N 88.686 -0.835752 -1.33615 0
M  V30 972 C 89.914 -0.443344 -2.02094 0
M  V30 973 C 90.329 0.954522 -1.62894 0
M  V30 974 O 89.686 1.61982 -0.840723 0
M  V30 975 C 89.737 -0.550775 -3.5728 0
M  V30 976 O 89.458 -1.89356 -3.95065 0
M  V30 977 C 90.959 -0.154919 -4.43029 0
M  V30 978 H 88.179 -0.176359 -0.647409 0
M  V30 979 H 90.723 -1.12746 -1.70612 0
M  V30 980 H 88.878 0.0853997 -3.87306 0
M  V30 981 H 89.292 -1.87687 -4.89769 0
M  V30 982 H 90.766 -0.281144 -5.51284 0
M  V30 983 H 91.243 0.902863 -4.2982 0
M  V30 984 H 91.849 -0.765404 -4.18356 0
M  V30 985 N 90.1641 1.46063 -0.591896 0
M  V30 986 C 91.5751 1.85944 -0.167822 0
M  V30 987 C 91.9261 1.49429 1.27143 0
M  V30 988 O 91.0511 0.913515 1.96173 0
M  V30 989 C 91.6461 3.37489 -0.297794 0
M  V30 990 C 90.2051 3.76332 0.0714732 0
M  V30 991 C 89.3521 2.7006 -0.629509 0
M  V30 992 H 92.3031 1.37087 -0.799555 0
M  V30 993 H 92.3241 3.77532 0.474349 0
M  V30 994 H 91.8361 3.64034 -1.3454 0
M  V30 995 H 89.9371 3.55405 1.11886 0
M  V30 996 H 90.0501 4.78088 -0.311245 0
M  V30 997 H 88.4141 2.54607 -0.0687867 0
M  V30 998 H 89.1971 2.99444 -1.67894 0
M  V30 999 N 91.6422 0.330177 1.54103 0
M  V30 1000 C 92.5722 -0.525353 2.27513 0
M  V30 1001 C 93.5532 -1.11383 1.2856 0
M  V30 1002 O 94.7382 -1.13773 1.57383 0
M  V30 1003 C 91.8682 -1.6831 3.03791 0
M  V30 1004 C 90.8222 -1.2236 4.10137 0
M  V30 1005 C 90.1482 -2.46882 4.74293 0
M  V30 1006 C 91.4482 -0.333697 5.21233 0
M  V30 1007 H 93.1422 0.087013 2.99274 0
M  V30 1008 H 90.6882 0.0432893 1.43935 0
M  V30 1009 H 92.6412 -2.28795 3.5388 0
M  V30 1010 H 91.3652 -2.32216 2.29659 0
M  V30 1011 H 90.0242 -0.64165 3.60941 0
M  V30 1012 H 89.6722 -3.09165 3.96769 0
M  V30 1013 H 89.3722 -2.16825 5.46133 0
M  V30 1014 H 90.8962 -3.08117 5.27159 0
M  V30 1015 H 92.3102 -0.845013 5.67038 0
M  V30 1016 H 90.7072 -0.125612 5.99969 0
M  V30 1017 H 91.7772 0.633724 4.80741 0
M  V30 1018 N 93.1203 -1.57491 0.0584922 0
M  V30 1019 C 94.5313 -1.80526 -0.476138 0
M  V30 1020 C 94.8823 -0.971334 -1.70469 0
M  V30 1021 O 94.0073 -0.190012 -2.15564 0
M  V30 1022 C 94.6023 -3.27424 -0.870587 0
M  V30 1023 C 93.1613 -3.51351 -1.35015 0
M  V30 1024 C 92.3083 -2.75343 -0.32887 0
M  V30 1025 H 95.2593 -1.56133 0.284312 0
M  V30 1026 H 95.2803 -3.38745 -1.73299 0
M  V30 1027 H 94.7923 -3.88093 0.0237627 0
M  V30 1028 H 92.8933 -2.95971 -2.26345 0
M  V30 1029 H 93.0063 -4.60059 -1.33726 0
M  V30 1030 H 91.3703 -2.417 -0.803321 0
M  V30 1031 H 92.1533 -3.38743 0.557521 0
M  V30 1032 N 94.5984 0.214957 -1.56127 0
M  V30 1033 C 95.5084 1.28727 -1.96129 0
M  V30 1034 C 96.5244 1.50916 -0.866044 0
M  V30 1035 O 97.7004 1.63918 -1.17016 0
M  V30 1036 C 94.7654 2.61569 -2.27558 0
M  V30 1037 C 93.8264 2.47625 -3.50685 0
M  V30 1038 C 93.0594 3.74132 -3.80606 0
M  V30 1039 O 93.2824 4.77438 -3.12104 0
M  V30 1040 O 92.2164 3.70849 -4.74083 0
M  V30 1041 H 96.0424 0.977855 -2.87527 0
M  V30 1042 H 93.6274 0.418358 -1.43423 0
M  V30 1043 H 95.5094 3.40012 -2.48938 0
M  V30 1044 H 94.1844 2.92178 -1.39332 0
M  V30 1045 H 93.0914 1.67361 -3.34576 0
M  V30 1046 H 94.4244 2.21954 -4.39315 0
M  V30 1047 N 96.0765 1.50051 0.48192 0
M  V30 1048 C 97.3015 1.64508 1.26301 0
M  V30 1049 C 97.7265 0.323851 1.85291 0
M  V30 1050 O 97.0845 -0.710969 1.66778 0
M  V30 1051 C 97.1325 2.7305 2.35533 0
M  V30 1052 O 96.2365 2.3355 3.39895 0
M  V30 1053 H 95.5775 0.549978 0.372048 0
M  V30 1054 H 98.1075 1.9636 0.574786 0
M  V30 1055 H 98.1175 2.95799 2.8101 0
M  V30 1056 H 96.7925 3.68946 1.91967 0
M  V30 1057 H 95.3695 2.21205 3.00204 0
M  V30 1058 N 97.5546 -0.734337 1.39446 0
M  V30 1059 C 98.7796 -1.52866 1.40167 0
M  V30 1060 C 99.2046 -1.881 -0.00171513 0
M  V30 1061 O 98.5626 -1.51957 -0.988879 0
M  V30 1062 C 98.6106 -2.79235 2.28167 0
M  V30 1063 O 97.7146 -3.75185 1.71201 0
M  V30 1064 H 97.0556 -0.461618 0.477289 0
M  V30 1065 H 99.5856 -0.905949 1.8345 0
M  V30 1066 H 99.5956 -3.27963 2.42702 0
M  V30 1067 H 98.2706 -2.52923 3.30156 0
M  V30 1068 H 96.8476 -3.33958 1.65912 0
M  V30 1069 N 99.0327 -1.24633 -0.964593 0
M  V30 1070 C 100.261 -1.11501 -1.74285 0
M  V30 1071 C 100.676 0.332165 -1.85855 0
M  V30 1072 O 100.033 1.22903 -1.34911 0
M  V30 1073 C 100.084 -1.75258 -3.16175 0
M  V30 1074 O 99.8047 -3.14318 -3.05182 0
M  V30 1075 C 101.306 -1.67776 -4.10324 0
M  V30 1076 H 98.5257 -0.389407 -0.546446 0
M  V30 1077 H 101.07 -1.64801 -1.21083 0
M  V30 1078 H 99.2247 -1.25954 -3.66353 0
M  V30 1079 H 99.6387 -3.4551 -3.94618 0
M  V30 1080 H 101.113 -2.17064 -5.0753 0
M  V30 1081 H 101.59 -0.639584 -4.34518 0
M  V30 1082 H 102.196 -2.16522 -3.66058 0
M  V30 1083 N 100.511 1.16574 -1.06058 0
M  V30 1084 C 101.458 2.20883 -0.669263 0
M  V30 1085 C 102.428 1.62729 0.332918 0
M  V30 1086 O 103.613 1.895 0.222346 0
M  V30 1087 C 100.753 3.45049 -0.0593572 0
M  V30 1088 C 99.8658 4.17458 -1.11143 0
M  V30 1089 C 99.0008 5.29135 -0.467916 0
M  V30 1090 C 98.0398 5.93343 -1.50369 0
M  V30 1091 N 97.1768 6.96516 -0.883706 0
M  V30 1092 H 102.017 2.53709 -1.5632 0
M  V30 1093 H 99.5538 1.24616 -0.781625 0
M  V30 1094 H 101.512 4.16033 0.311771 0
M  V30 1095 H 100.142 3.12781 0.797992 0
M  V30 1096 H 99.1938 3.45101 -1.60029 0
M  V30 1097 H 100.506 4.61307 -1.89731 0
M  V30 1098 H 99.6598 6.06684 -0.0436871 0
M  V30 1099 H 98.3988 4.86443 0.349864 0
M  V30 1100 H 97.4038 5.14517 -1.93784 0
M  V30 1101 H 98.6288 6.38114 -2.32352 0
M  V30 1102 H 96.5748 6.55943 -0.086595 0
M  V30 1103 H 96.4918 7.38723 -1.607 0
M  V30 1104 H 97.7598 7.77993 -0.484543 0
M  V30 1105 N 101.989 0.842826 1.3317 0
M  V30 1106 C 103.219 0.453397 2.01564 0
M  V30 1107 C 103.627 -0.951147 1.63554 0
M  V30 1108 O 102.97 -1.63021 0.846746 0
M  V30 1109 C 103.032 0.499013 3.5602 0
M  V30 1110 C 102.696 1.86037 4.1742 0
M  V30 1111 C 103.693 2.82416 4.36506 0
M  V30 1112 C 101.378 2.15428 4.53757 0
M  V30 1113 C 103.372 4.06346 4.91082 0
M  V30 1114 C 101.059 3.39615 5.0804 0
M  V30 1115 C 102.057 4.3489 5.26649 0
M  V30 1116 O 101.745 5.5688 5.79776 0
M  V30 1117 H 101.477 0.177871 0.652179 0
M  V30 1118 H 104.031 1.13808 1.70988 0
M  V30 1119 H 102.261 -0.242467 3.85939 0
M  V30 1120 H 103.95 0.126852 4.05702 0
M  V30 1121 H 104.716 2.6101 4.08777 0
M  V30 1122 H 100.595 1.42061 4.38565 0
M  V30 1123 H 104.139 4.80722 5.05522 0
M  V30 1124 H 100.036 3.60876 5.352 0
M  V30 1125 H 100.804 5.58674 5.98185 0
M  V30 1126 N 103.467 -1.45747 0.599634 0
M  V30 1127 C 104.399 -2.28628 -0.161879 0
M  V30 1128 C 105.412 -1.39494 -0.839367 0
M  V30 1129 O 106.601 -1.63941 -0.706089 0
M  V30 1130 C 103.701 -3.15014 -1.24976 0
M  V30 1131 C 102.874 -4.32378 -0.660935 0
M  V30 1132 C 101.933 -5.00033 -1.63869 0
M  V30 1133 O 100.959 -5.57085 -1.1681 0
M  V30 1134 N 102.161 -4.98589 -2.97303 0
M  V30 1135 H 104.926 -2.94624 0.549265 0
M  V30 1136 H 102.487 -1.55847 0.438565 0
M  V30 1137 H 104.479 -3.5714 -1.9035 0
M  V30 1138 H 103.049 -2.5098 -1.86354 0
M  V30 1139 H 102.269 -3.9383 0.170688 0
M  V30 1140 H 103.557 -5.08197 -0.247619 0
M  V30 1141 H 102.955 -4.53514 -3.38145 0
M  V30 1142 H 101.512 -5.44603 -3.58121 0
M  V30 1143 N 104.945 -0.338344 -1.53925 0
M  V30 1144 C 106.222 0.314774 -1.93051 0
M  V30 1145 C 106.602 1.68669 -1.26941 0
M  V30 1146 O 105.95 2.24636 -0.418445 0
M  V30 1147 C 106.16 0.392249 -3.46789 0
M  V30 1148 C 107.508 0.645554 -4.19664 0
M  V30 1149 O 108.532 0.474575 -3.53024 0
M  V30 1150 O 107.391 0.976408 -5.37707 0
M  V30 1151 H 104.485 0.182598 -0.80659 0
M  V30 1152 H 107.031 -0.389141 -1.65178 0
M  V30 1153 H 105.803 -0.570702 -3.87116 0
M  V30 1154 H 105.426 1.14316 -3.80812 0
M  V30 1155 N 106.423 1.57458 -0.0668435 0
M  V30 1156 C 107.353 2.15468 0.899764 0
M  V30 1157 C 108.334 1.08042 1.31381 0
M  V30 1158 O 109.519 1.36054 1.38574 0
M  V30 1159 C 106.649 2.71232 2.16911 0
M  V30 1160 C 105.603 3.83781 1.89463 0
M  V30 1161 C 104.929 4.26127 3.22986 0
M  V30 1162 C 106.229 5.08238 1.20381 0
M  V30 1163 H 107.923 2.96488 0.416529 0
M  V30 1164 H 105.469 1.4262 0.198908 0
M  V30 1165 H 107.422 3.10458 2.84945 0
M  V30 1166 H 106.146 1.87426 2.67468 0
M  V30 1167 H 104.805 3.45051 1.23836 0
M  V30 1168 H 104.453 3.39249 3.71374 0
M  V30 1169 H 104.153 5.01993 3.05413 0
M  V30 1170 H 105.677 4.67966 3.92225 0
M  V30 1171 H 107.091 5.44811 1.78475 0
M  V30 1172 H 105.488 5.89349 1.13083 0
M  V30 1173 H 106.558 4.84558 0.182153 0
M  V30 1174 N 107.901 -0.206675 1.56239 0
M  V30 1175 C 109.126 -0.949474 1.8439 0
M  V30 1176 C 109.551 -1.76549 0.649016 0
M  V30 1177 O 108.909 -1.76782 -0.402231 0
M  V30 1178 C 108.957 -1.83078 3.10668 0
M  V30 1179 O 108.061 -2.9281 2.90407 0
M  V30 1180 H 107.402 -0.268033 0.607499 0
M  V30 1181 H 109.932 -0.215488 2.03462 0
M  V30 1182 H 109.942 -2.2377 3.41161 0
M  V30 1183 H 108.617 -1.23112 3.97261 0
M  V30 1184 H 107.194 -2.55956 2.71184 0
M  V30 1185 N 109.379 -1.50304 -0.473955 0
M  V30 1186 C 110.329 -1.65347 -1.56985 0
M  V30 1187 C 111.313 -0.508176 -1.52664 0
M  V30 1188 O 112.505 -0.762446 -1.59737 0
M  V30 1189 C 109.634 -1.74832 -2.95447 0
M  V30 1190 C 108.72 -2.95028 -3.04662 0
M  V30 1191 N 109.111 -4.18747 -2.83698 0
M  V30 1192 C 107.409 -2.93527 -3.35795 0
M  V30 1193 C 108.11 -4.99687 -2.97805 0
M  V30 1194 N 107.086 -4.33585 -3.2788 0
M  V30 1195 H 110.888 -2.58698 -1.39472 0
M  V30 1196 H 108.402 -1.47449 -0.680629 0
M  V30 1197 H 110.399 -1.83712 -3.7424 0
M  V30 1198 H 109.059 -0.826376 -3.14008 0
M  V30 1199 H 110.07 -4.48291 -2.59337 0
M  V30 1200 H 106.747 -2.10821 -3.60362 0
M  V30 1201 H 108.137 -6.08057 -2.85861 0
M  V30 1202 N 110.857 0.726932 -1.39834 0
M  V30 1203 C 112.103 1.48884 -1.377 0
M  V30 1204 C 112.436 1.94185 0.0244852 0
M  V30 1205 O 111.711 1.67361 0.990986 0
M  V30 1206 C 111.994 2.72288 -2.3565 0
M  V30 1207 C 111.847 2.32956 -3.84775 0
M  V30 1208 C 113.166 3.74414 -2.31306 0
M  V30 1209 H 110.285 0.540062 -0.5015 0
M  V30 1210 H 112.927 0.830547 -1.70886 0
M  V30 1211 H 111.077 3.28457 -2.07481 0
M  V30 1212 H 112.749 1.82356 -4.23726 0
M  V30 1213 H 110.992 1.65088 -4.01159 0
M  V30 1214 H 111.663 3.21362 -4.4881 0
M  V30 1215 H 114.139 3.27849 -2.56231 0
M  V30 1216 H 113.015 4.58414 -3.01907 0
M  V30 1217 H 113.276 4.21909 -1.32081 0
M  V30 1218 N 112.336 1.25143 0.95797 0
M  V30 1219 C 113.268 1.01023 2.05735 0
M  V30 1220 C 114.281 -0.0236902 1.62783 0
M  V30 1221 O 115.47 0.21448 1.77207 0
M  V30 1222 C 112.57 0.504595 3.35122 0
M  V30 1223 C 111.743 1.6039 4.06932 0
M  V30 1224 C 110.802 1.09922 5.14591 0
M  V30 1225 O 109.828 1.79293 5.40225 0
M  V30 1226 N 111.03 -0.0612545 5.80468 0
M  V30 1227 H 113.795 1.95683 2.26998 0
M  V30 1228 H 111.356 1.16303 1.12629 0
M  V30 1229 H 113.348 0.151516 4.04416 0
M  V30 1230 H 111.918 -0.347989 3.10657 0
M  V30 1231 H 111.138 2.12872 3.31782 0
M  V30 1232 H 112.426 2.34252 4.51667 0
M  V30 1233 H 111.824 -0.640985 5.62057 0
M  V30 1234 H 110.381 -0.355395 6.5083 0
M  V30 1235 N 113.814 -1.1601 1.06675 0
M  V30 1236 C 114.762 -2.22586 0.675157 0
M  V30 1237 C 115.756 -1.66525 -0.310766 0
M  V30 1238 O 116.962 -1.79145 -0.175215 0
M  V30 1239 H 113.337 -0.724855 0.200223 0
M  V30 1240 H 115.308 -2.52899 1.58381 0
M  V30 1241 C 114.057 -3.47604 0.0817162 0
M  V30 1242 H 113.38 -3.91058 0.831484 0
M  V30 1243 H 114.82 -4.23718 -0.154708 0
M  V30 1244 C 113.279 -3.15718 -1.17576 0
M  V30 1245 O 113.809 -3.31878 -2.26318 0
M  V30 1246 N 112.015 -2.69816 -1.07923 0
M  V30 1247 H 111.562 -2.56866 -0.194293 0
M  V30 1248 H 111.52 -2.48855 -1.92141 0
M  V30 1249 N 115.292 -0.849877 -1.32721 0
M  V30 1250 C 116.224 -0.248332 -2.27851 0
M  V30 1251 C 117.237 0.577218 -1.52224 0
M  V30 1252 O 118.426 0.402489 -1.73903 0
M  V30 1253 C 115.526 0.668107 -3.32249 0
M  V30 1254 C 114.699 -0.120534 -4.37234 0
M  V30 1255 C 113.758 0.720932 -5.21238 0
M  V30 1256 O 112.784 0.156166 -5.68986 0
M  V30 1257 N 113.986 2.03647 -5.43607 0
M  V30 1258 H 116.751 -1.06575 -2.80111 0
M  V30 1259 H 114.312 -0.709395 -1.45531 0
M  V30 1260 H 116.304 1.23627 -3.85355 0
M  V30 1261 H 114.874 1.38621 -2.80184 0
M  V30 1262 H 114.094 -0.870108 -3.84477 0
M  V30 1263 H 115.382 -0.662406 -5.0447 0
M  V30 1264 H 114.78 2.51871 -5.06535 0
M  V30 1265 H 113.337 2.55287 -5.99727 0
M  V30 1266 N 116.77 1.45427 -0.607355 0
M  V30 1267 C 117.703 2.27635 0.160482 0
M  V30 1268 C 118.681 1.37122 0.873857 0
M  V30 1269 O 119.865 1.66551 0.882775 0
M  V30 1270 C 116.992 3.15486 1.23231 0
M  V30 1271 C 116.038 4.21939 0.622097 0
M  V30 1272 S 116.871 5.32459 -0.569852 0
M  V30 1273 C 118.027 6.23879 0.502577 0
M  V30 1274 H 118.26 2.9241 -0.536983 0
M  V30 1275 H 115.793 1.49265 -0.394868 0
M  V30 1276 H 117.751 3.66659 1.84585 0
M  V30 1277 H 116.412 2.49977 1.90185 0
M  V30 1278 H 115.605 4.8333 1.42856 0
M  V30 1279 H 115.207 3.73906 0.0837063 0
M  V30 1280 H 117.499 6.63261 1.38171 0
M  V30 1281 H 118.442 7.0806 -0.0751759 0
M  V30 1282 H 118.85 5.58545 0.8178 0
M  V30 1283 N 118.248 0.346503 1.53744 0
M  V30 1284 C 119.181 -0.552023 2.21423 0
M  V30 1285 C 120.159 -1.09798 1.19929 0
M  V30 1286 O 121.343 -1.1577 1.4876 0
M  V30 1287 C 118.47 -1.75972 2.89398 0
M  V30 1288 C 117.516 -1.34295 4.04805 0
M  V30 1289 S 118.349 -0.360263 5.34287 0
M  V30 1290 C 119.505 -1.57473 6.05767 0
M  V30 1291 H 119.738 0.0228119 2.97291 0
M  V30 1292 H 117.271 0.130579 1.53847 0
M  V30 1293 H 119.229 -2.45256 3.2918 0
M  V30 1294 H 117.89 -2.30578 2.1329 0
M  V30 1295 H 117.083 -2.24349 4.51313 0
M  V30 1296 H 116.685 -0.729555 3.66815 0
M  V30 1297 H 118.977 -2.50875 6.29339 0
M  V30 1298 H 119.92 -1.15138 6.98676 0
M  V30 1299 H 120.328 -1.77212 5.35963 0
M  V30 1300 N 119.726 -1.57421 0.075193 0
M  V30 1301 C 120.656 -2.15942 -0.888324 0
M  V30 1302 C 121.637 -1.08737 -1.30806 0
M  V30 1303 O 122.822 -1.36787 -1.37851 0
M  V30 1304 C 119.952 -2.72379 -2.1547 0
M  V30 1305 C 118.906 -3.8478 -1.87425 0
M  V30 1306 C 118.232 -4.27834 -3.20721 0
M  V30 1307 C 119.532 -5.08869 -1.17684 0
M  V30 1308 H 121.226 -2.96705 -0.400799 0
M  V30 1309 H 118.772 -1.42723 -0.191342 0
M  V30 1310 H 120.725 -3.11965 -2.83295 0
M  V30 1311 H 119.449 -1.88841 -2.6647 0
M  V30 1312 H 118.108 -3.45703 -1.22004 0
M  V30 1313 H 117.756 -3.41214 -3.6957 0
M  V30 1314 H 117.456 -5.03605 -3.02746 0
M  V30 1315 H 118.98 -4.70039 -3.89738 0
M  V30 1316 H 120.394 -5.4575 -1.75584 0
M  V30 1317 H 118.791 -5.8994 -1.09956 0
M  V30 1318 H 119.861 -4.84648 -0.156453 0
M  V30 1319 N 121.204 0.198386 -1.56346 0
M  V30 1320 C 122.451 0.919286 -1.80431 0
M  V30 1321 C 122.779 1.83393 -0.647866 0
M  V30 1322 O 122.034 1.92236 0.366556 0
M  V30 1323 C 122.333 1.77031 -3.10475 0
M  V30 1324 C 121.999 1.00693 -4.39513 0
M  V30 1325 C 120.661 0.796145 -4.74568 0
M  V30 1326 C 123.013 0.469559 -5.19081 0
M  V30 1327 C 120.341 0.0364588 -5.86689 0
M  V30 1328 C 122.693 -0.2769 -6.31994 0
M  V30 1329 C 121.357 -0.49873 -6.65634 0
M  V30 1330 H 120.627 0.336391 -0.660244 0
M  V30 1331 H 123.274 0.185872 -1.90596 0
M  V30 1332 H 121.579 2.5723 -2.95533 0
M  V30 1333 H 123.276 2.33065 -3.26315 0
M  V30 1334 H 119.866 1.18122 -4.12001 0
M  V30 1335 H 124.05 0.619816 -4.92414 0
M  V30 1336 H 119.306 -0.145412 -6.11227 0
M  V30 1337 H 123.48 -0.700684 -6.92866 0
M  V30 1338 H 121.107 -1.0893 -7.52355 0
M  V30 1339 N 122.682 1.50554 0.465978 0
M  V30 1340 C 123.614 1.65949 1.58093 0
M  V30 1341 C 124.627 0.540827 1.53554 0
M  V30 1342 O 125.816 0.814187 1.5885 0
M  V30 1343 C 122.916 1.63261 2.96983 0
M  V30 1344 C 122.089 2.91245 3.26336 0
M  V30 1345 C 121.148 2.8113 4.44806 0
M  V30 1346 O 120.174 3.55086 4.44862 0
M  V30 1347 N 121.376 1.95032 5.46756 0
M  V30 1348 H 124.141 2.62122 1.45301 0
M  V30 1349 H 121.702 1.48082 0.65448 0
M  V30 1350 H 123.694 1.54101 3.74212 0
M  V30 1351 H 122.264 0.748032 3.03518 0
M  V30 1352 H 121.484 3.14493 2.37672 0
M  V30 1353 H 122.772 3.76022 3.42761 0
M  V30 1354 H 122.17 1.3427 5.49534 0
M  V30 1355 H 120.727 1.91772 6.2295 0
M  V30 1356 N 124.16 -0.719506 1.40217 0
M  V30 1357 C 125.108 -1.85493 1.40339 0
M  V30 1358 C 126.102 -1.66995 0.284415 0
M  V30 1359 O 127.308 -1.74148 0.455252 0
M  V30 1360 H 123.683 -0.610857 0.438586 0
M  V30 1361 H 125.654 -1.82506 2.36081 0
M  V30 1362 C 124.403 -3.23321 1.27901 0
M  V30 1363 H 123.726 -3.38159 2.1328 0
M  V30 1364 H 125.166 -4.02914 1.32045 0
M  V30 1365 C 123.625 -3.36898 -0.0111355 0
M  V30 1366 O 124.155 -3.89674 -0.975538 0
M  V30 1367 N 122.361 -2.90492 -0.0793393 0
M  V30 1368 H 121.908 -2.47731 0.706183 0
M  V30 1369 H 121.866 -2.99955 -0.942038 0
M  V30 1370 N 125.638 -1.25649 -0.95132 0
M  V30 1371 C 126.57 -1.02112 -2.05197 0
M  V30 1372 C 127.583 0.0150571 -1.62793 0
M  V30 1373 O 128.772 -0.223874 -1.77091 0
M  V30 1374 C 125.872 -0.522361 -3.3485 0
M  V30 1375 C 125.045 -1.62546 -4.06076 0
M  V30 1376 C 124.104 -1.12649 -5.14001 0
M  V30 1377 O 123.13 -1.82156 -5.39266 0
M  V30 1378 N 124.332 0.03047 -5.80492 0
M  V30 1379 H 127.097 -1.96885 -2.25957 0
M  V30 1380 H 124.658 -1.16899 -1.1201 0
M  V30 1381 H 126.65 -0.172961 -4.0433 0
M  V30 1382 H 125.22 0.33151 -3.10837 0
M  V30 1383 H 124.44 -2.14628 -3.30649 0
M  V30 1384 H 125.728 -2.36644 -4.50419 0
M  V30 1385 H 125.126 0.611169 -5.62389 0
M  V30 1386 H 123.683 0.320875 -6.5101 0
M  V30 1387 N 127.117 1.15442 -1.07289 0
M  V30 1388 C 128.528 1.67803 -0.818475 0
M  V30 1389 C 128.879 1.8489 0.656507 0
M  V30 1390 O 128.004 1.55176 1.50829 0
M  V30 1391 C 128.599 3.04805 -1.47917 0
M  V30 1392 C 127.158 3.54245 -1.27229 0
M  V30 1393 C 126.305 2.29986 -1.54925 0
M  V30 1394 H 129.256 0.996646 -1.23502 0
M  V30 1395 H 129.277 3.69702 -0.90005 0
M  V30 1396 H 128.789 2.92336 -2.55267 0
M  V30 1397 H 126.89 3.71956 -0.21899 0
M  V30 1398 H 127.003 4.35723 -1.99203 0
M  V30 1399 H 125.367 2.35496 -0.970242 0
M  V30 1400 H 126.15 2.20105 -2.63455 0
M  V30 1401 N 128.595 0.856903 1.32268 0
M  V30 1402 C 129.872 0.382583 1.91822 0
M  V30 1403 C 130.252 -1.13407 1.78051 0
M  V30 1404 O 129.6 -1.95673 1.18001 0
M  V30 1405 C 129.81 0.849446 3.38505 0
M  V30 1406 C 131.158 0.867936 4.15634 0
M  V30 1407 O 132.182 0.794232 3.47232 0
M  V30 1408 O 131.041 0.972286 5.37781 0
M  V30 1409 H 128.135 0.112014 0.819379 0
M  V30 1410 H 130.681 0.943952 1.41024 0
M  V30 1411 H 129.453 1.89267 3.42482 0
M  V30 1412 H 129.076 0.265652 3.96712 0
M  V30 1413 N 130.073 -1.45103 0.615059 0
M  V30 1414 C 131.023 -2.27679 -0.120966 0
M  V30 1415 C 132.007 -1.3775 -0.831491 0
M  V30 1416 O 133.199 -1.61683 -0.720249 0
M  V30 1417 C 130.328 -3.24767 -1.1127 0
M  V30 1418 C 129.414 -4.22184 -0.402627 0
M  V30 1419 N 129.805 -5.02692 0.559884 0
M  V30 1420 C 128.103 -4.4125 -0.649202 0
M  V30 1421 C 128.804 -5.73421 0.977942 0
M  V30 1422 N 127.78 -5.42657 0.320104 0
M  V30 1423 H 131.582 -2.87325 0.618181 0
M  V30 1424 H 129.096 -1.56345 0.439304 0
M  V30 1425 H 131.093 -3.82666 -1.65446 0
M  V30 1426 H 129.753 -2.66682 -1.85232 0
M  V30 1427 H 130.764 -5.09354 0.936976 0
M  V30 1428 H 127.441 -3.9428 -1.37293 0
M  V30 1429 H 128.831 -6.48107 1.77222 0
M  V30 1430 N 131.551 -0.354651 -1.53558 0
M  V30 1431 C 132.967 -0.00315426 -1.596 0
M  V30 1432 C 133.167 1.47741 -1.37021 0
M  V30 1433 O 132.223 2.23759 -1.16996 0
M  V30 1434 C 133.536 -0.44929 -2.97325 0
M  V30 1435 C 135.084 -0.402578 -3.104 0
M  V30 1436 C 135.559 -0.824355 -4.5052 0
M  V30 1437 N 137.05 -0.778979 -4.56603 0
M  V30 1438 C 137.785 -1.07715 -5.63192 0
M  V30 1439 N 137.281 -1.44405 -6.77583 0
M  V30 1440 N 139.074 -1.00066 -5.53121 0
M  V30 1441 H 131.225 -1.31893 -1.66487 0
M  V30 1442 H 133.488 -0.538388 -0.780284 0
M  V30 1443 H 133.194 -1.48202 -3.1895 0
M  V30 1444 H 133.068 0.169772 -3.76818 0
M  V30 1445 H 135.455 0.621004 -2.88492 0
M  V30 1446 H 135.536 -1.05699 -2.32941 0
M  V30 1447 H 135.18 -1.846 -4.73165 0
M  V30 1448 H 135.11 -0.147304 -5.26394 0
M  V30 1449 H 137.601 -0.508528 -3.74463 0
M  V30 1450 H 137.914 -1.65612 -7.54846 0
M  V30 1451 H 136.259 -1.4826 -6.79002 0
M  V30 1452 H 139.45 -0.713293 -4.62633 0
M  V30 1453 H 139.623 -1.23638 -6.36096 0
M  V30 1454 N 133.029 1.57378 -0.0835403 0
M  V30 1455 C 134.445 1.57246 0.273109 0
M  V30 1456 C 134.645 1.09385 1.69225 0
M  V30 1457 O 133.701 0.765051 2.40631 0
M  V30 1458 C 135.014 3.00614 0.0720628 0
M  V30 1459 C 136.562 3.12684 0.1407 0
M  V30 1460 C 137.037 4.57989 -0.0322094 0
M  V30 1461 N 138.528 4.63194 0.0230085 0
M  V30 1462 C 139.263 5.73335 -0.0861941 0
M  V30 1463 N 138.759 6.9235 -0.24958 0
M  V30 1464 N 140.552 5.62093 -0.0282886 0
M  V30 1465 H 132.703 1.86801 -1.0109 0
M  V30 1466 H 134.966 0.861687 -0.395222 0
M  V30 1467 H 134.672 3.39786 -0.907662 0
M  V30 1468 H 134.546 3.68193 0.81936 0
M  V30 1469 H 136.933 2.73391 1.11092 0
M  V30 1470 H 137.014 2.47719 -0.637896 0
M  V30 1471 H 136.658 4.97973 -0.999247 0
M  V30 1472 H 136.588 5.21 0.765937 0
M  V30 1473 H 139.079 3.77613 0.14722 0
M  V30 1474 H 139.392 7.72117 -0.324733 0
M  V30 1475 H 137.737 6.94415 -0.285097 0
M  V30 1476 H 140.928 4.67997 0.0981408 0
M  V30 1477 H 141.101 6.47895 -0.116845 0
M  V30 1478 N 134.507 -0.190092 1.56449 0
M  V30 1479 C 135.437 -1.23816 1.97969 0
M  V30 1480 C 136.418 -1.47201 0.852395 0
M  V30 1481 O 137.603 -1.58854 1.1171 0
M  V30 1482 C 134.733 -2.5813 2.3235 0
M  V30 1483 C 133.687 -2.49348 3.47864 0
M  V30 1484 C 133.013 -3.8798 3.67934 0
M  V30 1485 C 134.313 -2.01424 4.81898 0
M  V30 1486 H 136.007 -0.89311 2.85769 0
M  V30 1487 H 133.553 -0.428177 1.37487 0
M  V30 1488 H 135.506 -3.31637 2.59991 0
M  V30 1489 H 134.23 -2.94386 1.41438 0
M  V30 1490 H 132.889 -1.78297 3.20321 0
M  V30 1491 H 132.537 -4.21597 2.74344 0
M  V30 1492 H 132.237 -3.82978 4.45648 0
M  V30 1493 H 133.761 -4.63101 3.97957 0
M  V30 1494 H 135.175 -2.64693 5.08538 0
M  V30 1495 H 133.572 -2.07413 5.63116 0
M  V30 1496 H 134.642 -0.967677 4.75146 0
M  V30 1497 N 135.985 -1.50799 -0.457987 0
M  V30 1498 C 137.401 -1.38515 -0.792819 0
M  V30 1499 C 137.601 -0.451409 -1.96379 0
M  V30 1500 O 136.657 0.10112 -2.52297 0
M  V30 1501 C 137.97 -2.80149 -1.09258 0
M  V30 1502 C 139.518 -2.89156 -1.19825 0
M  V30 1503 C 139.993 -4.31651 -1.53106 0
M  V30 1504 N 141.484 -4.34662 -1.60072 0
M  V30 1505 C 142.219 -5.41928 -1.87354 0
M  V30 1506 N 141.715 -6.59384 -2.12568 0
M  V30 1507 N 143.508 -5.29385 -1.88965 0
M  V30 1508 H 135.659 -2.10073 0.313511 0
M  V30 1509 H 137.922 -0.944803 0.0777862 0
M  V30 1510 H 137.628 -3.50374 -0.305084 0
M  V30 1511 H 137.502 -3.18204 -2.02549 0
M  V30 1512 H 139.889 -2.19141 -1.97639 0
M  V30 1513 H 139.97 -2.54626 -0.244821 0
M  V30 1514 H 139.614 -5.02208 -0.758266 0
M  V30 1515 H 139.544 -4.63678 -2.49621 0
M  V30 1516 H 142.035 -3.49973 -1.42573 0
M  V30 1517 H 142.348 -7.36934 -2.32696 0
M  V30 1518 H 140.693 -6.62535 -2.09933 0
M  V30 1519 H 143.884 -4.36616 -1.68772 0
M  V30 1520 H 144.057 -6.13066 -2.09891 0
M  V30 1521 N 137.463 0.71206 -1.40597 0
M  V30 1522 C 138.691 1.50111 -1.42388 0
M  V30 1523 C 139.106 1.88784 -0.0245395 0
M  V30 1524 O 138.463 1.55681 0.952351 0
M  V30 1525 C 138.514 2.7742 -2.31776 0
M  V30 1526 O 138.235 2.40382 -3.66262 0
M  V30 1527 C 139.736 3.7129 -2.42196 0
M  V30 1528 H 136.956 0.46314 -0.485533 0
M  V30 1529 H 139.5 0.878068 -1.8469 0
M  V30 1530 H 137.655 3.36001 -1.92827 0
M  V30 1531 H 138.069 3.22324 -4.13772 0
M  V30 1532 H 139.543 4.57448 -3.08943 0
M  V30 1533 H 140.02 4.14641 -1.44809 0
M  V30 1534 H 140.626 3.18619 -2.81712 0
M  V30 1535 N 138.941 1.26152 0.944643 0
M  V30 1536 C 139.871 1.09902 2.06019 0
M  V30 1537 C 140.852 0.00519538 1.70099 0
M  V30 1538 O 142.037 0.176583 1.93396 0
M  V30 1539 C 139.167 0.727562 3.39594 0
M  V30 1540 C 138.121 1.77274 3.89561 0
M  V30 1541 C 137.447 1.25569 5.19747 0
M  V30 1542 C 138.747 3.17357 4.14827 0
M  V30 1543 H 140.441 2.03217 2.19871 0
M  V30 1544 H 137.987 0.978452 1.05652 0
M  V30 1545 H 139.94 0.600777 4.17095 0
M  V30 1546 H 138.664 -0.241287 3.25707 0
M  V30 1547 H 137.323 1.88814 3.14237 0
M  V30 1548 H 136.971 0.276783 5.02238 0
M  V30 1549 H 136.671 1.95433 5.54148 0
M  V30 1550 H 138.195 1.1415 5.99835 0
M  V30 1551 H 139.609 3.08914 4.82954 0
M  V30 1552 H 138.006 3.84781 4.60504 0
M  V30 1553 H 139.076 3.63673 3.20734 0
M  V30 1554 N 140.419 -1.14872 1.07899 0
M  V30 1555 C 141.382 -2.17986 0.708161 0
M  V30 1556 C 142.382 -1.58775 -0.25442 0
M  V30 1557 O 143.572 -1.74166 -0.034645 0
M  V30 1558 C 140.704 -3.40871 0.0446929 0
M  V30 1559 H 141.897 -2.52306 1.62116 0
M  V30 1560 H 139.45 -1.2943 0.876218 0
M  V30 1561 H 140.185 -3.12124 -0.880281 0
M  V30 1562 H 139.97 -3.8511 0.737091 0
M  V30 1563 H 141.46 -4.17121 -0.19991 0
M  V30 1564 N 141.898 -0.863906 -1.31812 0
M  V30 1565 C 143.123 -0.48527 -2.01643 0
M  V30 1566 C 143.548 0.913058 -1.64453 0
M  V30 1567 O 142.906 1.6014 -0.849985 0
M  V30 1568 C 142.954 -0.642625 -3.54828 0
M  V30 1569 O 142.058 0.320659 -4.11151 0
M  V30 1570 H 141.399 -0.193793 -0.635091 0
M  V30 1571 H 143.929 -1.16565 -1.68148 0
M  V30 1572 H 143.939 -0.533628 -4.04495 0
M  V30 1573 H 142.614 -1.66227 -3.81237 0
M  V30 1574 H 141.191 0.167126 -3.72525 0
M  V30 1575 N 143.376 1.44774 -0.622745 0
M  V30 1576 C 144.624 2.01721 -0.123655 0
M  V30 1577 C 144.945 1.49172 1.25589 0
M  V30 1578 O 144.215 0.691974 1.83272 0
M  V30 1579 H 142.795 0.745777 -0.0427225 0
M  V30 1580 H 145.457 1.77382 -0.807559 0
M  V30 1581 H 144.553 3.11984 -0.0849534 0
M  V30 1582 N 144.854 0.36279 1.53368 0
M  V30 1583 C 145.817 -0.472679 2.24273 0
M  V30 1584 C 146.817 -1.012 1.24961 0
M  V30 1585 O 148.007 -0.898194 1.49259 0
M  V30 1586 C 145.139 -1.66039 2.97731 0
M  V30 1587 H 146.332 0.14773 2.99536 0
M  V30 1588 H 143.885 0.114434 1.55881 0
M  V30 1589 H 144.62 -2.31896 2.26704 0
M  V30 1590 H 144.405 -1.28066 3.70596 0
M  V30 1591 H 145.895 -2.25252 3.51641 0
M  V30 1592 N 146.332 -1.57332 0.0918853 0
M  V30 1593 C 147.579 -1.94236 -0.572577 0
M  V30 1594 C 147.907 -0.973398 -1.6839 0
M  V30 1595 O 147.162 0.00756912 -1.95699 0
M  V30 1596 C 147.461 -3.37689 -1.17051 0
M  V30 1597 C 147.127 -4.50527 -0.183304 0
M  V30 1598 C 145.789 -4.81119 0.0882276 0
M  V30 1599 C 148.141 -5.18883 0.49095 0
M  V30 1600 C 145.469 -5.77395 1.04076 0
M  V30 1601 C 147.821 -6.1618 1.43193 0
M  V30 1602 C 146.485 -6.45179 1.71173 0
M  V30 1603 H 145.755 -0.710762 -0.209521 0
M  V30 1604 H 148.402 -1.9077 0.167036 0
M  V30 1605 H 146.707 -3.37718 -1.9863 0
M  V30 1606 H 148.404 -3.63543 -1.69227 0
M  V30 1607 H 144.994 -4.26681 -0.405124 0
M  V30 1608 H 149.178 -4.95427 0.294312 0
M  V30 1609 H 144.434 -5.98179 1.26457 0
M  V30 1610 H 148.608 -6.68243 1.96023 0
M  V30 1611 H 146.235 -7.1959 2.4514 0
M  V30 1612 N 147.81 0.181792 -1.56548 0
M  V30 1613 C 149.038 0.915947 -1.85521 0
M  V30 1614 C 149.453 1.76282 -0.676016 0
M  V30 1615 O 148.81 1.79012 0.355077 0
M  V30 1616 C 148.861 1.80126 -3.13427 0
M  V30 1617 O 148.582 0.988562 -4.26801 0
M  V30 1618 C 150.083 2.64597 -3.55673 0
M  V30 1619 H 147.303 0.26661 -0.61576 0
M  V30 1620 H 149.847 0.185039 -2.03661 0
M  V30 1621 H 148.002 2.48563 -2.97145 0
M  V30 1622 H 148.416 1.59308 -4.99721 0
M  V30 1623 H 149.89 3.2235 -4.48101 0
M  V30 1624 H 150.367 3.38958 -2.79292 0
M  V30 1625 H 150.973 2.0151 -3.74532 0
M  V30 1626 N 149.288 1.51039 0.449983 0
M  V30 1627 C 150.699 1.557 1.03026 0
M  V30 1628 C 151.05 0.372939 1.92623 0
M  V30 1629 O 150.175 -0.511771 2.10261 0
M  V30 1630 C 150.77 2.82171 1.87523 0
M  V30 1631 C 149.329 2.89444 2.40622 0
M  V30 1632 C 148.476 2.50228 1.19504 0
M  V30 1633 H 151.427 1.56999 0.231745 0
M  V30 1634 H 151.448 2.65219 2.72835 0
M  V30 1635 H 150.96 3.68331 1.22286 0
M  V30 1636 H 149.061 2.07685 3.0935 0
M  V30 1637 H 149.174 3.92816 2.74285 0
M  V30 1638 H 147.538 2.03139 1.53644 0
M  V30 1639 H 148.321 3.38719 0.558972 0
M  V30 1640 N 150.766 -0.704594 1.40972 0
M  V30 1641 C 152.182 -1.01406 1.23244 0
M  V30 1642 C 152.382 -2.01169 0.115399 0
M  V30 1643 O 151.438 -2.47021 -0.523147 0
M  V30 1644 C 152.751 -1.54728 2.57836 0
M  V30 1645 C 154.299 -1.66658 2.64942 0
M  V30 1646 C 154.774 -2.23383 3.9983 0
M  V30 1647 N 156.265 -2.30756 4.01629 0
M  V30 1648 C 157 -2.75655 5.02794 0
M  V30 1649 N 156.496 -3.20225 6.14352 0
M  V30 1650 N 158.289 -2.75138 4.90159 0
M  V30 1651 H 150.44 -0.0435285 2.12355 0
M  V30 1652 H 152.703 -0.0818951 0.944456 0
M  V30 1653 H 152.409 -0.888832 3.40283 0
M  V30 1654 H 152.283 -2.53084 2.79693 0
M  V30 1655 H 154.67 -2.31617 1.8286 0
M  V30 1656 H 154.751 -0.668717 2.46904 0
M  V30 1657 H 154.395 -1.59043 4.82357 0
M  V30 1658 H 154.325 -3.23904 4.15203 0
M  V30 1659 H 156.816 -1.99291 3.21079 0
M  V30 1660 H 157.129 -3.53084 6.87424 0
M  V30 1661 H 155.474 -3.18156 6.17901 0
M  V30 1662 H 158.665 -2.39661 4.02095 0
M  V30 1663 H 158.838 -3.09812 5.6914 0
M  V30 1664 N 152.244 -1.26651 -0.937939 0
M  V30 1665 C 153.472 -1.15173 -1.7188 0
M  V30 1666 C 153.887 0.292668 -1.86518 0
M  V30 1667 O 153.244 1.20014 -1.37488 0
M  V30 1668 C 153.295 -1.81925 -3.12387 0
M  V30 1669 O 153.016 -3.2072 -2.98446 0
M  V30 1670 C 154.517 -1.76442 -4.06673 0
M  V30 1671 H 151.737 -0.400911 -0.538063 0
M  V30 1672 H 154.281 -1.67332 -1.1756 0
M  V30 1673 H 152.436 -1.33696 -3.63599 0
M  V30 1674 H 152.85 -3.53802 -3.872 0
M  V30 1675 H 154.324 -2.27781 -5.02812 0
M  V30 1676 H 154.801 -0.731608 -4.33064 0
M  V30 1677 H 155.407 -2.24238 -3.61382 0
M  V30 1678 N 153.722 1.14298 -1.08507 0
M  V30 1679 C 154.95 1.89219 -0.836876 0
M  V30 1680 C 155.365 1.78638 0.611054 0
M  V30 1681 O 154.722 1.14643 1.41998 0
M  V30 1682 C 154.773 3.39158 -1.25116 0
M  V30 1683 O 154.494 3.49449 -2.64229 0
M  V30 1684 C 155.995 4.31073 -1.03398 0
M  V30 1685 H 153.215 0.599328 -0.301739 0
M  V30 1686 H 155.759 1.44746 -1.44461 0
M  V30 1687 H 153.914 3.81251 -0.687514 0
M  V30 1688 H 154.328 4.42589 -2.81452 0
M  V30 1689 H 155.802 5.34646 -1.37323 0
M  V30 1690 H 156.279 4.3919 0.0289259 0
M  V30 1691 H 156.885 3.94738 -1.58311 0
M  V30 1692 N 155.201 0.870884 1.31352 0
M  V30 1693 C 156.111 0.330783 2.32256 0
M  V30 1694 C 157.127 -0.559767 1.6475 0
M  V30 1695 O 158.303 -0.456263 1.96164 0
M  V30 1696 C 155.368 -0.458137 3.4366 0
M  V30 1697 C 154.429 0.460482 4.26823 0
M  V30 1698 C 153.662 -0.290881 5.32907 0
M  V30 1699 O 153.885 -1.51885 5.49806 0
M  V30 1700 O 152.819 0.351732 6.00871 0
M  V30 1701 H 156.645 1.16718 2.80376 0
M  V30 1702 H 154.23 0.634285 1.35267 0
M  V30 1703 H 156.112 -0.905343 4.1156 0
M  V30 1704 H 154.787 -1.27106 2.97701 0
M  V30 1705 H 153.694 0.956207 3.61673 0
M  V30 1706 H 155.027 1.23903 4.7635 0
M  V30 1707 N 156.679 -1.44442 0.630414 0
M  V30 1708 C 157.904 -2.06927 0.139944 0
M  V30 1709 C 158.329 -1.46795 -1.17613 0
M  V30 1710 O 157.687 -0.569144 -1.72135 0
M  V30 1711 C 157.735 -3.6058 0.0379581 0
M  V30 1712 O 156.839 -3.99937 -1.0062 0
M  V30 1713 H 156.18 -0.658608 0.0844483 0
M  V30 1714 H 158.71 -1.85327 0.866891 0
M  V30 1715 H 158.72 -4.07714 -0.152856 0
M  V30 1716 H 157.395 -4.03728 0.998809 0
M  V30 1717 H 155.972 -3.64436 -0.79001 0
M  V30 1718 N 158.157 -0.370918 -1.53173 0
M  V30 1719 C 159.387 0.217389 -2.05453 0
M  V30 1720 C 159.795 1.42568 -1.24382 0
M  V30 1721 O 159.138 1.81571 -0.278839 0
M  V30 1722 C 159.2 0.669827 -3.53205 0
M  V30 1723 C 158.864 -0.4225 -4.55043 0
M  V30 1724 C 159.861 -1.27407 -5.04047 0
M  V30 1725 C 157.546 -0.58427 -4.9889 0
M  V30 1726 C 159.54 -2.27271 -5.95505 0
M  V30 1727 C 157.227 -1.58627 -5.90153 0
M  V30 1728 C 158.225 -2.42892 -6.38351 0
M  V30 1729 O 157.913 -3.41382 -7.27814 0
M  V30 1730 H 157.645 0.0408171 -0.674767 0
M  V30 1731 H 160.199 -0.5292 -1.98466 0
M  V30 1732 H 158.429 1.4681 -3.57748 0
M  V30 1733 H 160.118 1.18173 -3.88317 0
M  V30 1734 H 160.884 -1.16031 -4.70916 0
M  V30 1735 H 156.763 0.061851 -4.60959 0
M  V30 1736 H 160.307 -2.93079 -6.33049 0
M  V30 1737 H 156.204 -1.70048 -6.22699 0
M  V30 1738 H 156.972 -3.37173 -7.45826 0
M  V30 1739 N 159.635 1.57281 -0.100228 0
M  V30 1740 C 160.567 2.11342 0.886972 0
M  V30 1741 C 161.58 1.05182 1.24261 0
M  V30 1742 O 162.769 1.32613 1.19483 0
M  V30 1743 C 159.869 2.5825 2.19454 0
M  V30 1744 C 159.042 3.88302 2.01346 0
M  V30 1745 C 158.101 4.21004 3.15661 0
M  V30 1746 O 157.127 4.9014 2.89398 0
M  V30 1747 N 158.329 3.76818 4.41575 0
M  V30 1748 H 161.094 2.96668 0.425216 0
M  V30 1749 H 158.655 1.61678 0.0847334 0
M  V30 1750 H 160.647 2.7717 2.94888 0
M  V30 1751 H 159.217 1.77907 2.57037 0
M  V30 1752 H 158.437 3.7848 1.10212 0
M  V30 1753 H 159.725 4.73375 1.8653 0
M  V30 1754 H 159.123 3.2102 4.65792 0
M  V30 1755 H 157.68 4.00882 5.13942 0
M  V30 1756 N 161.113 -0.173488 1.56642 0
M  V30 1757 C 162.524 -0.736155 1.71574 0
M  V30 1758 C 162.875 -1.82888 0.710389 0
M  V30 1759 O 162 -2.16017 -0.1287 0
M  V30 1760 C 162.595 -1.34211 3.11083 0
M  V30 1761 C 161.154 -1.85162 3.27707 0
M  V30 1762 C 160.301 -0.729765 2.67525 0
M  V30 1763 H 163.252 0.0518786 1.58615 0
M  V30 1764 H 163.273 -2.21178 3.09613 0
M  V30 1765 H 162.785 -0.546579 3.84232 0
M  V30 1766 H 160.886 -2.67366 2.59512 0
M  V30 1767 H 160.999 -1.99855 4.35425 0
M  V30 1768 H 159.363 -1.14965 2.27278 0
M  V30 1769 H 160.146 0.0538806 3.43258 0
M  V30 1770 N 162.591 -1.51276 -0.441967 0
M  V30 1771 C 163.821 -1.67273 -1.21257 0
M  V30 1772 C 164.229 -0.367624 -1.85594 0
M  V30 1773 O 163.572 0.663349 -1.71305 0
M  V30 1774 C 163.634 -2.72807 -2.34129 0
M  V30 1775 C 163.298 -4.1554 -1.90198 0
M  V30 1776 C 164.295 -5.00471 -1.40801 0
M  V30 1777 C 161.98 -4.61616 -1.9803 0
M  V30 1778 C 163.974 -6.29536 -0.998174 0
M  V30 1779 C 161.661 -5.90679 -1.56658 0
M  V30 1780 C 162.659 -6.74466 -1.07633 0
M  V30 1781 O 162.347 -8.01116 -0.668459 0
M  V30 1782 H 162.079 -0.564614 -0.371734 0
M  V30 1783 H 164.633 -1.9843 -0.530521 0
M  V30 1784 H 162.863 -2.36954 -3.05597 0
M  V30 1785 H 164.552 -2.77729 -2.96009 0
M  V30 1786 H 165.318 -4.66079 -1.34148 0
M  V30 1787 H 161.197 -3.96526 -2.35135 0
M  V30 1788 H 164.741 -6.94885 -0.61482 0
M  V30 1789 H 160.638 -6.24586 -1.62979 0
M  V30 1790 H 161.406 -8.14633 -0.794722 0
M  V30 1791 N 164.069 0.697108 -1.41344 0
M  V30 1792 C 165.318 1.45279 -1.39918 0
M  V30 1793 C 165.631 1.95597 -0.0109624 0
M  V30 1794 O 166.837 2.71208 0.125919 0
M  V30 1795 C 165.293 2.62695 -2.46007 0
M  V30 1796 C 164.901 2.19169 -3.90729 0
M  V30 1797 C 166.645 3.40336 -2.53715 0
M  V30 1798 C 164.552 3.33535 -4.88373 0
M  V30 1799 H 163.482 0.545692 -0.520323 0
M  V30 1800 H 166.133 0.756929 -1.67161 0
M  V30 1801 H 164.515 3.34541 -2.11892 0
M  V30 1802 H 165.689 1.54623 -4.34083 0
M  V30 1803 H 164.004 1.54525 -3.86666 0
M  V30 1804 H 166.601 4.2547 -3.2385 0
M  V30 1805 H 166.944 3.85418 -1.5735 0
M  V30 1806 H 167.477 2.75546 -2.86913 0
M  V30 1807 H 164.216 2.93468 -5.86137 0
M  V30 1808 H 163.736 3.96936 -4.49668 0
M  V30 1809 H 165.415 3.99335 -5.09059 0
M  V30 1810 N 165.547 1.27147 0.931209 0
M  V30 1811 C 166.796 1.12664 1.67302 0
M  V30 1812 C 167.109 -0.327718 1.92835 0
M  V30 1813 O 168.315 -0.593392 2.64936 0
M  V30 1814 C 166.771 1.9683 3.01307 0
M  V30 1815 C 166.379 3.46901 2.83485 0
M  V30 1816 C 168.123 1.90985 3.79111 0
M  V30 1817 C 166.03 4.23279 4.13024 0
M  V30 1818 H 164.96 0.41803 0.627509 0
M  V30 1819 H 167.611 1.51539 1.03481 0
M  V30 1820 H 165.993 1.50797 3.66164 0
M  V30 1821 H 167.167 4.00773 2.27415 0
M  V30 1822 H 165.482 3.54088 2.19113 0
M  V30 1823 H 168.079 2.45328 4.75098 0
M  V30 1824 H 168.422 0.882718 4.06834 0
M  V30 1825 H 168.955 2.34895 3.21044 0
M  V30 1826 H 165.694 5.26503 3.90481 0
M  V30 1827 H 165.214 3.74186 4.6877 0
M  V30 1828 H 166.893 4.32265 4.81411 0
M  V30 1829 N 167.025 -1.13721 1.09112 0
M  V30 1830 C 167.935 -2.22638 0.73957 0
M  V30 1831 C 168.951 -1.72091 -0.257068 0
M  V30 1832 O 170.127 -2.01155 -0.0992154 0
M  V30 1833 C 167.192 -3.46322 0.16191 0
M  V30 1834 C 166.253 -4.11775 1.21408 0
M  V30 1835 C 165.486 -5.29555 0.663891 0
M  V30 1836 O 165.709 -5.68077 -0.514274 0
M  V30 1837 O 164.643 -5.84973 1.41738 0
M  V30 1838 H 168.469 -2.55074 1.64836 0
M  V30 1839 H 166.054 -1.21791 0.865289 0
M  V30 1840 H 167.936 -4.21107 -0.157073 0
M  V30 1841 H 166.611 -3.15593 -0.719932 0
M  V30 1842 H 165.518 -3.3883 1.58571 0
M  V30 1843 H 166.851 -4.46627 2.06845 0
M  V30 1844 N 168.503 -0.877838 -1.30888 0
M  V30 1845 C 169.731 -0.507414 -2.00581 0
M  V30 1846 C 170.146 0.902216 -1.65848 0
M  V30 1847 O 169.503 1.59225 -0.891831 0
M  V30 1848 C 169.554 -0.664162 -3.55347 0
M  V30 1849 O 169.275 -2.01829 -3.8884 0
M  V30 1850 C 170.776 -0.295787 -4.42312 0
M  V30 1851 H 167.996 -0.196866 -0.641471 0
M  V30 1852 H 170.54 -1.18117 -1.66939 0
M  V30 1853 H 168.695 -0.0378619 -3.87381 0
M  V30 1854 H 169.109 -2.03174 -4.8355 0
M  V30 1855 H 170.583 -0.456388 -5.5011 0
M  V30 1856 H 171.06 0.765663 -4.32475 0
M  V30 1857 H 171.666 -0.898113 -4.15709 0
M  V30 1858 N 169.982 1.44106 -0.638065 0
M  V30 1859 C 171.228 2.02277 -0.145546 0
M  V30 1860 C 171.561 1.50125 1.23191 0
M  V30 1861 O 170.836 0.688133 1.8192 0
M  V30 1862 C 171.119 3.59829 -0.139791 0
M  V30 1863 C 170.972 4.22247 -1.55008 0
M  V30 1864 C 172.291 4.36873 0.531966 0
M  V30 1865 H 169.41 0.734992 -0.0543632 0
M  V30 1866 H 172.052 1.71592 -0.815863 0
M  V30 1867 H 170.202 3.86102 0.431007 0
M  V30 1868 H 171.874 4.07057 -2.1703 0
M  V30 1869 H 170.117 3.79476 -2.10191 0
M  V30 1870 H 170.788 5.31284 -1.49804 0
M  V30 1871 H 173.264 4.16074 0.0464781 0
M  V30 1872 H 172.14 5.4657 0.505206 0
M  V30 1873 H 172.401 4.11995 1.60352 0
M  V30 1874 N 171.46 0.379036 1.52974 0
M  V30 1875 C 172.41 -0.477772 2.22938 0
M  V30 1876 C 173.394 -1.03792 1.22948 0
M  V30 1877 O 174.586 -0.965725 1.48333 0
M  V30 1878 C 171.715 -1.60994 3.03209 0
M  V30 1879 C 170.801 -1.06203 4.10587 0
M  V30 1880 N 171.192 -0.238214 5.05239 0
M  V30 1881 C 169.49 -1.33554 4.25534 0
M  V30 1882 C 170.191 0.0633235 5.81666 0
M  V30 1883 N 169.167 -0.537901 5.40932 0
M  V30 1884 H 172.969 0.158295 2.93473 0
M  V30 1885 H 170.483 0.187778 1.61311 0
M  V30 1886 H 172.48 -2.23607 3.5186 0
M  V30 1887 H 171.14 -2.24893 2.34207 0
M  V30 1888 H 172.151 0.123695 5.17752 0
M  V30 1889 H 168.828 -1.97632 3.6776 0
M  V30 1890 H 170.218 0.730161 6.67921 0
M  V30 1891 N 172.938 -1.57226 0.108567 0
M  V30 1892 C 173.888 -2.11305 -0.856396 0
M  V30 1893 C 174.872 -1.03129 -1.23504 0
M  V30 1894 O 176.064 -1.29381 -1.20787 0
M  V30 1895 C 173.193 -2.70771 -2.11041 0
M  V30 1896 C 172.279 -3.86011 -1.7566 0
M  V30 1897 N 172.67 -4.93492 -1.10902 0
M  V30 1898 C 170.968 -3.95999 -2.05185 0
M  V30 1899 C 171.669 -5.73984 -0.944308 0
M  V30 1900 N 170.645 -5.2346 -1.46596 0
M  V30 1901 H 174.447 -2.91784 -0.352002 0
M  V30 1902 H 171.961 -1.62126 -0.0942324 0
M  V30 1903 H 173.958 -3.07851 -2.81128 0
M  V30 1904 H 172.618 -1.91751 -2.62034 0
M  V30 1905 H 173.629 -5.1208 -0.774235 0
M  V30 1906 H 170.306 -3.28007 -2.58298 0
M  V30 1907 H 171.696 -6.70479 -0.436813 0
M  V30 1908 N 174.416 0.165178 -1.56732 0
M  V30 1909 C 175.346 1.20651 -1.99914 0
M  V30 1910 C 176.327 1.45827 -0.875705 0
M  V30 1911 O 177.512 1.57057 -1.14223 0
M  V30 1912 C 174.642 2.54401 -2.36427 0
M  V30 1913 C 173.596 2.43782 -3.51787 0
M  V30 1914 C 172.922 3.82078 -3.7406 0
M  V30 1915 C 174.222 1.93732 -4.85041 0
M  V30 1916 H 175.916 0.847534 -2.87154 0
M  V30 1917 H 173.462 0.40625 -1.38151 0
M  V30 1918 H 175.415 3.27458 -2.65234 0
M  V30 1919 H 174.139 2.92098 -1.46103 0
M  V30 1920 H 172.798 1.73178 -3.23117 0
M  V30 1921 H 172.446 4.17179 -2.81017 0
M  V30 1922 H 172.146 3.7584 -4.51684 0
M  V30 1923 H 173.67 4.56712 -4.05274 0
M  V30 1924 H 175.084 2.56569 -5.12684 0
M  V30 1925 H 173.481 1.98428 -5.66345 0
M  V30 1926 H 174.551 0.891962 -4.76626 0
M  V30 1927 N 175.894 1.51508 0.433938 0
M  V30 1928 C 176.824 1.76016 1.53429 0
M  V30 1929 C 177.805 0.610112 1.58782 0
M  V30 1930 O 178.99 0.853177 1.74455 0
M  V30 1931 C 176.12 1.88831 2.9148 0
M  V30 1932 C 175.074 3.04288 3.00987 0
M  V30 1933 C 174.4 3.0229 4.4105 0
M  V30 1934 C 175.7 4.44193 2.74754 0
M  V30 1935 H 177.394 2.68152 1.33171 0
M  V30 1936 H 174.94 1.29035 0.639214 0
M  V30 1937 H 176.893 2.04559 3.6842 0
M  V30 1938 H 175.617 0.933455 3.12976 0
M  V30 1939 H 174.276 2.8827 2.26486 0
M  V30 1940 H 173.924 2.04576 4.59519 0
M  V30 1941 H 173.624 3.79822 4.4834 0
M  V30 1942 H 175.148 3.20116 5.1996 0
M  V30 1943 H 176.562 4.60544 3.41426 0
M  V30 1944 H 174.959 5.23457 2.9345 0
M  V30 1945 H 176.029 4.53996 1.70339 0
M  V30 1946 N 177.372 -0.689602 1.41712 0
M  V30 1947 C 178.649 -1.44457 1.31877 0
M  V30 1948 C 179.029 -2.11039 -0.0508537 0
M  V30 1949 O 178.377 -2.02138 -1.06547 0
M  V30 1950 C 178.587 -2.45913 2.47645 0
M  V30 1951 C 179.935 -3.10991 2.89084 0
M  V30 1952 O 180.959 -2.56238 2.47428 0
M  V30 1953 O 179.818 -4.10174 3.61137 0
M  V30 1954 H 176.912 -0.64362 0.519309 0
M  V30 1955 H 179.458 -0.719576 1.53689 0
M  V30 1956 H 178.23 -1.95409 3.39015 0
M  V30 1957 H 177.853 -3.25913 2.27742 0
M  V30 1958 N 178.85 -1.27639 -0.924453 0
M  V30 1959 C 179.782 -1.06442 -2.02985 0
M  V30 1960 C 180.795 -0.0194771 -1.62788 0
M  V30 1961 O 181.984 -0.261388 -1.76576 0
M  V30 1962 C 179.084 -0.59327 -3.33667 0
M  V30 1963 C 178.257 -1.71123 -4.02537 0
M  V30 1964 C 177.316 -1.23527 -5.11495 0
M  V30 1965 O 176.342 -1.93553 -5.35281 0
M  V30 1966 N 177.544 -0.0926678 -5.80426 0
M  V30 1967 H 180.309 -2.01633 -2.2173 0
M  V30 1968 H 177.87 -1.19248 -1.09505 0
M  V30 1969 H 179.862 -0.258686 -4.03872 0
M  V30 1970 H 178.432 0.265502 -3.1147 0
M  V30 1971 H 177.652 -2.21593 -3.26022 0
M  V30 1972 H 178.94 -2.46145 -4.45298 0
M  V30 1973 H 178.338 0.491741 -5.63559 0
M  V30 1974 H 176.895 0.182714 -6.51544 0
M  V30 1975 N 180.328 1.1314 -1.09713 0
M  V30 1976 C 181.574 1.84757 -0.836224 0
M  V30 1977 C 181.907 1.8347 0.636598 0
M  V30 1978 O 181.182 1.27491 1.46889 0
M  V30 1979 C 181.465 3.32782 -1.37578 0
M  V30 1980 C 181.318 3.42567 -2.91493 0
M  V30 1981 C 182.637 4.28307 -1.01198 0
M  V30 1982 H 179.756 0.67082 -0.305236 0
M  V30 1983 H 182.398 1.3278 -1.35903 0
M  V30 1984 H 180.548 3.77177 -0.931097 0
M  V30 1985 H 182.22 3.06862 -3.44432 0
M  V30 1986 H 180.463 2.83349 -3.28475 0
M  V30 1987 H 181.134 4.46674 -3.24324 0
M  V30 1988 H 183.61 3.91999 -1.39556 0
M  V30 1989 H 182.486 5.30307 -1.41653 0
M  V30 1990 H 182.747 4.42029 0.0794833 0
M  V30 1991 N 181.806 0.884767 1.30421 0
M  V30 1992 C 182.738 0.308655 2.27112 0
M  V30 1993 C 183.751 -0.536655 1.53701 0
M  V30 1994 O 184.94 -0.35624 1.74909 0
M  V30 1995 C 182.04 -0.579782 3.33904 0
M  V30 1996 C 181.213 0.236417 4.36761 0
M  V30 1997 C 180.272 -0.582482 5.22966 0
M  V30 1998 O 179.298 -0.00525502 5.692 0
M  V30 1999 N 180.5 -1.89163 5.48815 0
M  V30 2000 H 183.265 1.13964 2.77186 0
M  V30 2001 H 180.826 0.747731 1.43599 0
M  V30 2002 H 182.818 -1.13366 3.88497 0
M  V30 2003 H 181.388 -1.31144 2.83761 0
M  V30 2004 H 180.608 0.97174 3.82035 0
M  V30 2005 H 181.896 0.795924 5.02536 0
M  V30 2006 H 181.294 -2.38352 5.13035 0
M  V30 2007 H 179.851 -2.39296 6.06284 0
M  V30 2008 N 183.284 -1.43765 0.645699 0
M  V30 2009 C 184.532 -2.01499 0.155731 0
M  V30 2010 C 184.853 -1.51151 -1.232 0
M  V30 2011 O 184.123 -0.721044 -1.82148 0
M  V30 2012 H 182.703 -0.745003 0.0545817 0
M  V30 2013 H 185.365 -1.76075 0.835677 0
M  V30 2014 H 184.461 -3.1181 0.134577 0
M  V30 2015 N 184.763 -0.387143 -1.52771 0
M  V30 2016 C 185.71 0.449048 -2.26389 0
M  V30 2017 C 186.68 1.05961 -1.27912 0
M  V30 2018 O 187.865 1.08804 -1.56737 0
M  V30 2019 C 185.005 1.57155 -3.0724 0
M  V30 2020 C 184.118 0.984066 -4.20643 0
M  V30 2021 C 183.253 2.07745 -4.88892 0
M  V30 2022 C 182.292 1.46574 -5.94292 0
M  V30 2023 N 181.429 2.49834 -6.56146 0
M  V30 2024 H 186.269 -0.185205 -2.97424 0
M  V30 2025 H 183.806 -0.103164 -1.46738 0
M  V30 2026 H 185.764 2.23309 -3.52405 0
M  V30 2027 H 184.394 2.17615 -2.38419 0
M  V30 2028 H 183.446 0.212193 -3.79808 0
M  V30 2029 H 184.758 0.497029 -4.96318 0
M  V30 2030 H 183.912 2.81673 -5.3735 0
M  V30 2031 H 182.651 2.59807 -4.12737 0
M  V30 2032 H 181.656 0.711696 -5.45174 0
M  V30 2033 H 182.881 0.953088 -6.72379 0
M  V30 2034 H 180.827 3.0107 -5.82832 0
M  V30 2035 H 180.744 2.05879 -7.27427 0
M  V30 2036 H 182.012 3.23399 -7.09249 0
M  V30 2037 N 186.241 1.57166 -0.116904 0
M  V30 2038 C 187.188 2.15202 0.83408 0
M  V30 2039 C 188.158 1.07644 1.26499 0
M  V30 2040 O 189.343 1.35541 1.34288 0
M  V30 2041 C 186.483 2.75405 2.07957 0
M  V30 2042 C 185.596 3.97264 1.69721 0
M  V30 2043 C 184.731 4.45561 2.89221 0
M  V30 2044 C 183.77 5.59956 2.47215 0
M  V30 2045 N 182.907 6.03006 3.59622 0
M  V30 2046 H 187.747 2.96141 0.332335 0
M  V30 2047 H 185.284 1.46309 0.152349 0
M  V30 2048 H 187.242 3.08439 2.80929 0
M  V30 2049 H 185.872 1.97159 2.55594 0
M  V30 2050 H 184.924 3.70404 0.866316 0
M  V30 2051 H 186.236 4.80226 1.34849 0
M  V30 2052 H 185.39 4.80493 3.7042 0
M  V30 2053 H 184.129 3.61544 3.27318 0
M  V30 2054 H 183.134 5.2463 1.64448 0
M  V30 2055 H 184.359 6.45738 2.10238 0
M  V30 2056 H 182.305 5.21931 3.97396 0
M  V30 2057 H 182.222 6.80819 3.28667 0
M  V30 2058 H 183.49 6.42576 4.41267 0
M  V30 2059 N 187.719 -0.156864 1.56817 0
M  V30 2060 C 188.666 -1.19394 1.97519 0
M  V30 2061 C 189.636 -1.4322 0.841265 0
M  V30 2062 O 190.821 -1.55719 1.10255 0
M  V30 2063 C 187.961 -2.52483 2.35258 0
M  V30 2064 C 187.074 -2.35914 3.61896 0
M  V30 2065 C 186.209 -3.61969 3.88782 0
M  V30 2066 C 185.248 -3.40395 5.08722 0
M  V30 2067 N 184.385 -4.58556 5.31668 0
M  V30 2068 H 189.225 -0.839845 2.85921 0
M  V30 2069 H 186.762 -0.403264 1.41464 0
M  V30 2070 H 188.72 -3.30071 2.55165 0
M  V30 2071 H 187.35 -2.85859 1.49949 0
M  V30 2072 H 186.402 -1.49429 3.49821 0
M  V30 2073 H 187.714 -2.15926 4.49641 0
M  V30 2074 H 186.868 -4.47989 4.09135 0
M  V30 2075 H 185.607 -3.84951 2.9944 0
M  V30 2076 H 184.612 -2.52763 4.88253 0
M  V30 2077 H 185.837 -3.18822 5.99608 0
M  V30 2078 H 183.783 -4.81729 4.45279 0
M  V30 2079 H 183.7 -4.41535 6.13664 0
M  V30 2080 H 184.968 -5.45817 5.5651 0
M  V30 2081 N 189.197 -1.51736 -0.425897 0
M  V30 2082 C 190.13 -1.68574 -1.53812 0
M  V30 2083 C 191.108 -0.53328 -1.53606 0
M  V30 2084 O 192.292 -0.758555 -1.72564 0
M  V30 2085 C 189.419 -1.70977 -2.92377 0
M  V30 2086 C 188.465 -2.92324 -3.10563 0
M  V30 2087 S 189.298 -4.52952 -2.85648 0
M  V30 2088 C 190.454 -4.58117 -4.26474 0
M  V30 2089 H 190.687 -2.62647 -1.39298 0
M  V30 2090 H 188.22 -1.41564 -0.616361 0
M  V30 2091 H 190.178 -1.73047 -3.72243 0
M  V30 2092 H 188.839 -0.78061 -3.04245 0
M  V30 2093 H 188.032 -2.90439 -4.11899 0
M  V30 2094 H 187.634 -2.88055 -2.38538 0
M  V30 2095 H 189.926 -4.34462 -5.19855 0
M  V30 2096 H 190.869 -5.59983 -4.33388 0
M  V30 2097 H 191.277 -3.8732 -4.10662 0
M  V30 2098 N 190.675 0.682077 -1.42076 0
M  V30 2099 C 191.585 1.82535 -1.47371 0
M  V30 2100 C 192.601 1.7017 -0.363079 0
M  V30 2101 O 193.777 1.91848 -0.612875 0
M  V30 2102 C 190.842 3.18624 -1.36674 0
M  V30 2103 C 189.903 3.42999 -2.58167 0
M  V30 2104 C 189.136 4.72595 -2.4797 0
M  V30 2105 O 189.359 5.50006 -1.5116 0
M  V30 2106 O 188.293 4.98054 -3.37974 0
M  V30 2107 H 192.119 1.81023 -2.43853 0
M  V30 2108 H 189.704 0.836887 -1.2376 0
M  V30 2109 H 191.586 3.99847 -1.33043 0
M  V30 2110 H 190.261 3.20789 -0.433138 0
M  V30 2111 H 189.168 2.61653 -2.67373 0
M  V30 2112 H 190.501 3.45659 -3.50401 0
M  V30 2113 N 192.153 1.28127 0.917671 0
M  V30 2114 C 193.399 1.15223 1.66888 0
M  V30 2115 C 193.732 -0.299293 1.9188 0
M  V30 2116 O 193.007 -1.21805 1.51637 0
M  V30 2117 C 193.29 1.94706 3.02922 0
M  V30 2118 C 193.143 3.47898 2.85109 0
M  V30 2119 C 194.462 1.75939 4.03402 0
M  V30 2120 H 191.581 0.419946 0.605652 0
M  V30 2121 H 194.223 1.57398 1.06423 0
M  V30 2122 H 192.373 1.58864 3.54534 0
M  V30 2123 H 194.045 3.93624 2.40537 0
M  V30 2124 H 192.288 3.7373 2.20246 0
M  V30 2125 H 192.959 3.98765 3.81694 0
M  V30 2126 H 195.435 2.07209 3.60837 0
M  V30 2127 H 194.311 2.33931 4.96556 0
M  V30 2128 H 194.572 0.709877 4.36364 0
M  V30 2129 N 193.631 -1.12557 1.10312 0
M  V30 2130 C 194.88 -1.83395 0.839588 0
M  V30 2131 C 195.193 -1.84939 -0.636929 0
M  V30 2132 O 196.399 -2.51761 -1.01631 0
M  V30 2133 C 194.855 -3.29303 1.45215 0
M  V30 2134 C 194.463 -3.36122 2.96186 0
M  V30 2135 C 196.207 -4.05121 1.26796 0
M  V30 2136 C 194.114 -4.76357 3.50483 0
M  V30 2137 H 193.044 -0.687133 0.310425 0
M  V30 2138 H 195.695 -1.26746 1.32694 0
M  V30 2139 H 194.077 -3.85812 0.892469 0
M  V30 2140 H 195.251 -2.89559 3.58458 0
M  V30 2141 H 193.566 -2.73776 3.13745 0
M  V30 2142 H 196.163 -5.08668 1.64806 0
M  V30 2143 H 196.506 -4.15773 0.209409 0
M  V30 2144 H 197.039 -3.54967 1.79563 0
M  V30 2145 H 193.778 -4.70899 4.55998 0
M  V30 2146 H 193.298 -5.23377 2.92978 0
M  V30 2147 H 194.977 -5.45294 3.48228 0
M  V30 2148 N 195.109 -0.891671 -1.2995 0
M  V30 2149 C 196.334 -0.527932 -2.00568 0
M  V30 2150 C 196.759 0.877969 -1.66353 0
M  V30 2151 O 196.117 1.58301 -0.883762 0
M  V30 2152 C 196.165 -0.717745 -3.53385 0
M  V30 2153 O 195.269 0.233376 -4.11739 0
M  V30 2154 H 194.61 -0.20722 -0.630837 0
M  V30 2155 H 197.14 -1.20105 -1.65638 0
M  V30 2156 H 197.15 -0.619307 -4.03272 0
M  V30 2157 H 195.825 -1.74276 -3.77625 0
M  V30 2158 H 194.402 0.0880706 -3.72796 0
M  V30 2159 N 196.587 1.43421 -0.653314 0
M  V30 2160 C 197.864 1.95361 -0.0966581 0
M  V30 2161 C 198.244 1.59461 1.38331 0
M  V30 2162 O 197.592 0.879777 2.10884 0
M  V30 2163 C 197.802 3.47311 -0.342988 0
M  V30 2164 C 199.15 4.23875 -0.24798 0
M  V30 2165 O 200.174 3.55133 -0.275553 0
M  V30 2166 O 199.033 5.4623 -0.171771 0
M  V30 2167 H 196.127 0.826945 0.00956291 0
M  V30 2168 H 198.673 1.5336 -0.726558 0
M  V30 2169 H 197.445 3.66569 -1.36906 0
M  V30 2170 H 197.068 3.9631 0.319975 0
M  V30 2171 N 198.065 0.39524 1.52563 0
M  V30 2172 C 199.312 -0.185044 2.01653 0
M  V30 2173 C 199.64 -1.46317 1.28146 0
M  V30 2174 O 198.895 -1.9213 0.372074 0
M  V30 2175 C 199.194 -0.493444 3.53977 0
M  V30 2176 C 198.86 0.69384 4.4553 0
M  V30 2177 C 197.522 1.01954 4.70275 0
M  V30 2178 C 199.874 1.48785 4.99512 0
M  V30 2179 C 197.202 2.14069 5.46252 0
M  V30 2180 C 199.554 2.59965 5.76716 0
M  V30 2181 C 198.218 2.93037 5.99738 0
M  V30 2182 H 197.488 -0.0677123 0.7379 0
M  V30 2183 H 200.135 0.533807 1.8391 0
M  V30 2184 H 198.44 -1.29369 3.69825 0
M  V30 2185 H 200.137 -0.955163 3.89458 0
M  V30 2186 H 196.727 0.429987 4.26438 0
M  V30 2187 H 200.911 1.24946 4.80315 0
M  V30 2188 H 196.167 2.40056 5.62302 0
M  V30 2189 H 200.341 3.21887 6.17545 0
M  V30 2190 H 197.968 3.8003 6.58393 0
M  V30 2191 N 199.544 -1.57102 0.125237 0
M  V30 2192 C 200.507 -2.14471 -0.80838 0
M  V30 2193 C 201.507 -1.0811 -1.19033 0
M  V30 2194 O 202.697 -1.33856 -1.11482 0
M  V30 2195 C 199.829 -2.69005 -2.09402 0
M  V30 2196 H 201.022 -2.98297 -0.309696 0
M  V30 2197 H 198.575 -1.55807 -0.124051 0
M  V30 2198 H 199.31 -1.88785 -2.63687 0
M  V30 2199 H 199.095 -3.46799 -1.82957 0
M  V30 2200 H 200.585 -3.13278 -2.76128 0
M  V30 2201 N 201.022 0.148545 -1.56898 0
M  V30 2202 C 202.269 0.861418 -1.83264 0
M  V30 2203 C 202.597 1.81239 -0.705883 0
M  V30 2204 O 201.852 1.93305 0.305212 0
M  V30 2205 C 202.151 1.67064 -3.1595 0
M  V30 2206 C 201.817 0.866591 -4.42494 0
M  V30 2207 C 200.479 0.644762 -4.76861 0
M  V30 2208 C 202.831 0.30418 -5.20312 0
M  V30 2209 C 200.159 -0.15021 -5.86508 0
M  V30 2210 C 202.511 -0.477824 -6.30793 0
M  V30 2211 C 201.175 -0.710244 -6.63711 0
M  V30 2212 H 200.445 0.315215 -0.670612 0
M  V30 2213 H 203.092 0.125142 -1.91091 0
M  V30 2214 H 201.397 2.47698 -3.03567 0
M  V30 2215 H 203.094 2.22566 -3.33565 0
M  V30 2216 H 199.684 1.04955 -4.15551 0
M  V30 2217 H 203.868 0.462844 -4.94137 0
M  V30 2218 H 199.124 -0.339796 -6.10455 0
M  V30 2219 H 203.298 -0.92076 -6.90286 0
M  V30 2220 H 200.925 -1.3281 -7.48509 0
M  V30 2221 N 202.5 1.5196 0.417844 0
M  V30 2222 C 203.911 1.57851 0.997 0
M  V30 2223 C 204.262 0.413714 1.91789 0
M  V30 2224 O 203.387 -0.467057 2.113 0
M  V30 2225 C 203.982 2.86085 1.81496 0
M  V30 2226 C 202.541 2.94483 2.34428 0
M  V30 2227 C 201.688 2.52707 1.14169 0
M  V30 2228 H 204.639 1.57455 0.198392 0
M  V30 2229 H 204.66 2.70947 2.67148 0
M  V30 2230 H 204.172 3.70842 1.14446 0
M  V30 2231 H 202.273 2.142 3.04875 0
M  V30 2232 H 202.386 3.98546 2.65891 0
M  V30 2233 H 200.75 2.06353 1.49301 0
M  V30 2234 H 201.533 3.39828 0.486999 0
M  V30 2235 N 203.978 -0.674533 1.42435 0
M  V30 2236 C 204.908 -1.80009 1.48724 0
M  V30 2237 C 205.889 -1.6659 0.343793 0
M  V30 2238 O 207.074 -1.86007 0.558137 0
M  V30 2239 C 204.204 -3.18306 1.38919 0
M  V30 2240 C 203.158 -3.46461 2.51294 0
M  V30 2241 C 202.484 -4.84335 2.26547 0
M  V30 2242 C 203.784 -3.43328 3.93603 0
M  V30 2243 H 205.478 -1.75004 2.42928 0
M  V30 2244 H 203.024 -0.840533 1.16923 0
M  V30 2245 H 204.977 -3.9678 1.41927 0
M  V30 2246 H 203.701 -3.2399 0.412094 0
M  V30 2247 H 202.36 -2.70348 2.47604 0
M  V30 2248 H 202.008 -4.86669 1.2713 0
M  V30 2249 H 201.708 -5.04136 3.01861 0
M  V30 2250 H 203.232 -5.65094 2.31304 0
M  V30 2251 H 204.646 -4.11772 3.98894 0
M  V30 2252 H 203.043 -3.74664 4.68771 0
M  V30 2253 H 204.113 -2.41897 4.20255 0
M  V30 2254 N 205.456 -1.28612 -0.910864 0
M  V30 2255 C 206.419 -1.12803 -1.9952 0
M  V30 2256 C 207.419 -0.0668264 -1.60661 0
M  V30 2257 O 208.609 -0.312847 -1.71368 0
M  V30 2258 C 205.741 -0.72254 -3.33155 0
M  V30 2259 H 206.934 -2.09109 -2.14973 0
M  V30 2260 H 204.487 -1.11639 -1.09391 0
M  V30 2261 H 205.222 0.241152 -3.23402 0
M  V30 2262 H 205.007 -1.48916 -3.62721 0
M  V30 2263 H 206.497 -0.634666 -4.12749 0
M  V30 2264 N 206.934 1.1197 -1.10907 0
M  V30 2265 C 208.159 1.87942 -0.877064 0
M  V30 2266 C 208.584 1.79341 0.567314 0
M  V30 2267 O 207.942 1.15184 1.40009 0
M  V30 2268 C 207.99 3.34926 -1.33629 0
M  V30 2269 O 207.094 4.09303 -0.504447 0
M  V30 2270 H 206.435 0.583785 -0.316371 0
M  V30 2271 H 208.965 1.4157 -1.47712 0
M  V30 2272 H 208.975 3.8577 -1.32837 0
M  V30 2273 H 207.65 3.40504 -2.3881 0
M  V30 2274 H 206.227 3.68393 -0.577993 0
M  V30 2275 N 208.412 0.89855 1.29475 0
M  V30 2276 C 209.659 0.523882 1.95606 0
M  V30 2277 C 209.987 -0.929608 1.70847 0
M  V30 2278 O 209.242 -1.67401 1.01367 0
M  V30 2279 C 209.541 0.761398 3.49195 0
M  V30 2280 C 209.207 2.19207 3.94029 0
M  V30 2281 C 207.869 2.58326 4.05982 0
M  V30 2282 C 210.221 3.12379 4.17216 0
M  V30 2283 C 207.549 3.898 4.38489 0
M  V30 2284 C 209.901 4.43401 4.51197 0
M  V30 2285 C 208.565 4.82394 4.61359 0
M  V30 2286 H 207.835 0.191702 0.715773 0
M  V30 2287 H 210.482 1.13699 1.54094 0
M  V30 2288 H 208.787 0.0653622 3.91745 0
M  V30 2289 H 210.484 0.450904 3.98457 0
M  V30 2290 H 207.074 1.87846 3.85242 0
M  V30 2291 H 211.258 2.83371 4.07449 0
M  V30 2292 H 206.514 4.19734 4.44559 0
M  V30 2293 H 210.688 5.15623 4.68087 0
M  V30 2294 H 208.315 5.84306 4.86303 0
M  V30 2295 N 209.89 -1.43072 0.660911 0
M  V30 2296 C 211.136 -2.0202 0.177708 0
M  V30 2297 C 211.469 -1.52066 -1.20787 0
M  V30 2298 O 210.744 -0.716987 -1.80802 0
M  V30 2299 C 211.027 -3.59561 0.197019 0
M  V30 2300 C 210.88 -4.19727 1.61706 0
M  V30 2301 C 212.199 -4.37664 -0.462396 0
M  V30 2302 H 209.318 -0.734034 0.0660494 0
M  V30 2303 H 211.96 -1.70272 0.843058 0
M  V30 2304 H 210.11 -3.86739 -0.369527 0
M  V30 2305 H 211.782 -4.03553 2.23479 0
M  V30 2306 H 210.025 -3.76084 2.16201 0
M  V30 2307 H 210.696 -5.28834 1.58237 0
M  V30 2308 H 213.172 -4.16095 0.0197215 0
M  V30 2309 H 212.048 -5.47305 -0.418188 0
M  V30 2310 H 212.309 -4.14493 -1.53778 0
M  V30 2311 N 211.368 -0.403325 -1.52352 0
M  V30 2312 C 212.617 0.175668 -2.00934 0
M  V30 2313 C 212.93 1.46718 -1.29356 0
M  V30 2314 O 214.136 2.12708 -1.68724 0
M  V30 2315 C 212.592 0.363612 -3.58058 0
M  V30 2316 C 212.2 -0.915472 -4.38547 0
M  V30 2317 C 213.944 0.89821 -4.14888 0
M  V30 2318 C 211.851 -0.695035 -5.87302 0
M  V30 2319 H 210.781 0.0694234 -0.750797 0
M  V30 2320 H 213.432 -0.527879 -1.75743 0
M  V30 2321 H 211.814 1.12935 -3.79555 0
M  V30 2322 H 212.988 -1.68691 -4.28812 0
M  V30 2323 H 211.303 -1.37606 -3.93006 0
M  V30 2324 H 213.9 1.07907 -5.23699 0
M  V30 2325 H 214.243 1.87126 -3.71873 0
M  V30 2326 H 214.776 0.191681 -3.97338 0
M  V30 2327 H 211.515 -1.63948 -6.34666 0
M  V30 2328 H 211.035 0.0372116 -5.99788 0
M  V30 2329 H 212.714 -0.33497 -6.46132 0
M  V30 2330 N 212.846 1.57033 -0.133567 0
M  V30 2331 C 213.809 2.14897 0.796995 0
M  V30 2332 C 214.809 1.0874 1.18458 0
M  V30 2333 O 215.999 1.34446 1.1077 0
M  V30 2334 C 213.131 2.70112 2.07973 0
M  V30 2335 H 214.324 2.98457 0.293873 0
M  V30 2336 H 211.877 1.55871 0.115787 0
M  V30 2337 H 212.612 1.9018 2.62682 0
M  V30 2338 H 212.397 3.47764 1.81115 0
M  V30 2339 H 213.887 3.14738 2.74462 0
M  V30 2340 N 214.325 -0.140222 1.56975 0
M  V30 2341 C 215.273 -1.19207 1.99731 0
M  V30 2342 C 216.267 -1.44089 0.890777 0
M  V30 2343 O 217.473 -1.44301 1.07597 0
M  V30 2344 H 213.848 -0.40142 0.635898 0
M  V30 2345 H 215.819 -0.804813 2.87342 0
M  V30 2346 C 214.568 -2.51617 2.39967 0
M  V30 2347 H 213.891 -2.33303 3.24669 0
M  V30 2348 H 215.331 -3.23827 2.73701 0
M  V30 2349 C 213.79 -3.12654 1.25496 0
M  V30 2350 O 214.32 -3.97786 0.559371 0
M  V30 2351 N 212.526 -2.72206 1.01746 0
M  V30 2352 H 212.073 -2.03074 1.58489 0
M  V30 2353 H 212.031 -3.13377 0.253461 0
M  V30 2354 N 215.803 -1.52179 -0.40978 0
M  V30 2355 C 217.052 -1.65434 -1.15388 0
M  V30 2356 C 217.365 -0.390056 -1.91671 0
M  V30 2357 O 218.571 -0.402399 -2.68501 0
M  V30 2358 C 217.027 -2.92279 -2.10003 0
M  V30 2359 C 216.635 -4.25813 -1.39239 0
M  V30 2360 C 218.379 -3.14897 -2.84675 0
M  V30 2361 C 216.286 -5.43782 -2.32498 0
M  V30 2362 H 215.216 -0.616267 -0.434432 0
M  V30 2363 H 217.867 -1.78666 -0.418401 0
M  V30 2364 H 216.249 -2.72744 -2.871 0
M  V30 2365 H 217.423 -4.55828 -0.675099 0
M  V30 2366 H 215.738 -4.09292 -0.766097 0
M  V30 2367 H 218.335 -4.0021 -3.54593 0
M  V30 2368 H 218.678 -2.29103 -3.47588 0
M  V30 2369 H 219.211 -3.34901 -2.14677 0
M  V30 2370 H 215.95 -6.3192 -1.74233 0
M  V30 2371 H 215.47 -5.18106 -3.02201 0
M  V30 2372 H 217.149 -5.76834 -2.93038 0
M  V30 2373 N 217.281 0.66697 -1.42791 0
M  V30 2374 C 218.53 1.42278 -1.42968 0
M  V30 2375 C 218.843 1.9553 -0.0524489 0
M  V30 2376 O 220.049 2.71414 0.068363 0
M  V30 2377 C 218.505 2.57418 -2.51524 0
M  V30 2378 C 218.113 2.10832 -3.9529 0
M  V30 2379 C 219.857 3.34878 -2.60877 0
M  V30 2380 C 217.764 3.23101 -4.95338 0
M  V30 2381 H 216.694 0.534533 -0.531781 0
M  V30 2382 H 219.345 0.721302 -1.68729 0
M  V30 2383 H 217.727 3.29971 -2.18941 0
M  V30 2384 H 218.901 1.4538 -4.37266 0
M  V30 2385 H 217.216 1.46289 -3.89857 0
M  V30 2386 H 219.813 4.18505 -3.32802 0
M  V30 2387 H 220.156 3.81993 -1.6549 0
M  V30 2388 H 220.689 2.69398 -2.92693 0
M  V30 2389 H 217.428 2.80969 -5.9223 0
M  V30 2390 H 216.948 3.87309 -4.57987 0
M  V30 2391 H 218.627 3.88447 -5.17415 0
M  V30 2392 N 218.759 1.29093 0.90403 0
M  V30 2393 C 220.007 1.16583 1.65085 0
M  V30 2394 C 220.328 -0.283933 1.92922 0
M  V30 2395 O 219.598 -1.19509 1.55224 0
M  V30 2396 H 218.178 0.428467 0.611903 0
M  V30 2397 H 220.84 1.61959 1.08422 0
M  V30 2398 H 219.936 1.71266 2.6091 0
M  V30 2399 N 220.237 -1.11381 1.11499 0
M  V30 2400 C 221.483 -1.83403 0.865512 0
M  V30 2401 C 221.816 -1.84459 -0.607329 0
M  V30 2402 O 221.091 -1.29811 -1.44842 0
M  V30 2403 C 221.374 -3.30552 1.42855 0
M  V30 2404 C 221.227 -3.37886 2.96906 0
M  V30 2405 C 222.546 -4.26643 1.08 0
M  V30 2406 H 219.665 -0.665879 0.31587 0
M  V30 2407 H 222.307 -1.30601 1.37998 0
M  V30 2408 H 220.457 -3.75648 0.990985 0
M  V30 2409 H 222.129 -3.01343 3.49271 0
M  V30 2410 H 220.372 -2.78088 3.32941 0
M  V30 2411 H 221.043 -4.41458 3.31389 0
M  V30 2412 H 223.519 -3.89729 1.45775 0
M  V30 2413 H 222.395 -5.27986 1.50072 0
M  V30 2414 H 222.656 -4.42099 -0.00915037 0
M  V30 2415 N 221.715 -0.905404 -1.28997 0
M  V30 2416 C 223.126 -0.581953 -1.77398 0
M  V30 2417 C 223.477 0.902552 -1.74208 0
M  V30 2418 O 222.602 1.70584 -1.33154 0
M  V30 2419 C 223.197 -1.04961 -3.22131 0
M  V30 2420 C 221.756 -0.777229 -3.68288 0
M  V30 2421 C 220.903 -1.22109 -2.48967 0
M  V30 2422 H 223.854 -1.08754 -1.15578 0
M  V30 2423 H 223.875 -0.387387 -3.78523 0
M  V30 2424 H 223.387 -2.13008 -3.24421 0
M  V30 2425 H 221.488 0.290383 -3.71467 0
M  V30 2426 H 221.601 -1.37911 -4.58822 0
M  V30 2427 H 219.965 -0.639971 -2.46529 0
M  V30 2428 H 220.748 -2.30972 -2.53982 0
M  V30 2429 N 223.193 1.4272 -0.668489 0
M  V30 2430 C 224.103 2.34596 0.0139753 0
M  V30 2431 C 225.119 1.5474 0.795703 0
M  V30 2432 O 226.295 1.87334 0.739466 0
M  V30 2433 C 223.36 3.33202 0.957982 0
M  V30 2434 C 222.421 4.28957 0.17149 0
M  V30 2435 C 221.654 5.22853 1.07053 0
M  V30 2436 O 221.877 5.21531 2.31001 0
M  V30 2437 O 220.811 5.9952 0.534727 0
M  V30 2438 H 224.637 2.9448 -0.742661 0
M  V30 2439 H 222.222 1.43117 -0.428705 0
M  V30 2440 H 224.104 3.93796 1.50008 0
M  V30 2441 H 222.779 2.758 1.69458 0
M  V30 2442 H 221.686 3.71796 -0.414558 0
M  V30 2443 H 223.019 4.89383 -0.52586 0
M  V30 2444 N 224.671 0.411399 1.52136 0
M  V30 2445 C 225.581 -0.419774 2.30814 0
M  V30 2446 C 226.597 -1.0515 1.38634 0
M  V30 2447 O 227.773 -1.05252 1.71709 0
M  V30 2448 C 224.838 -1.52019 3.11594 0
M  V30 2449 C 223.899 -0.91129 4.19516 0
M  V30 2450 C 223.132 -1.95927 4.96436 0
M  V30 2451 O 223.355 -3.17775 4.73683 0
M  V30 2452 O 222.289 -1.56423 5.81219 0
M  V30 2453 H 226.115 0.221805 3.02889 0
M  V30 2454 H 223.7 0.174547 1.48377 0
M  V30 2455 H 225.582 -2.15898 3.61892 0
M  V30 2456 H 224.257 -2.14633 2.42311 0
M  V30 2457 H 223.164 -0.235157 3.7336 0
M  V30 2458 H 224.497 -0.32904 4.91099 0
M  V30 2459 N 226.149 -1.5696 0.141893 0
M  V30 2460 C 227.426 -1.87553 -0.555281 0
M  V30 2461 C 227.806 -1.04699 -1.83306 0
M  V30 2462 O 227.154 -0.132346 -2.28116 0
M  V30 2463 C 227.364 -3.39093 -0.825664 0
M  V30 2464 C 228.712 -4.08199 -1.16869 0
M  V30 2465 O 229.736 -3.44242 -0.915185 0
M  V30 2466 O 228.595 -5.21139 -1.6455 0
M  V30 2467 H 225.689 -0.777188 -0.282679 0
M  V30 2468 H 228.235 -1.68763 0.17812 0
M  V30 2469 H 227.007 -3.91221 0.0788633 0
M  V30 2470 H 226.63 -3.63393 -1.61343 0
M  V30 2471 N 227.627 0.131896 -1.57047 0
M  V30 2472 C 229.043 0.485031 -1.52051 0
M  V30 2473 C 229.243 1.82563 -0.85281 0
M  V30 2474 O 228.299 2.48817 -0.429694 0
M  V30 2475 C 229.612 0.481409 -2.96821 0
M  V30 2476 C 231.16 0.565868 -3.07842 0
M  V30 2477 C 231.635 0.592762 -4.54148 0
M  V30 2478 N 233.126 0.654564 -4.58552 0
M  V30 2479 C 233.861 0.696608 -5.69153 0
M  V30 2480 N 233.357 0.697078 -6.89284 0
M  V30 2481 N 235.15 0.738639 -5.57226 0
M  V30 2482 H 227.301 -0.746664 -1.98843 0
M  V30 2483 H 229.564 -0.273999 -0.90754 0
M  V30 2484 H 229.27 -0.435731 -3.4899 0
M  V30 2485 H 229.144 1.3139 -3.53577 0
M  V30 2486 H 231.531 1.47343 -2.55684 0
M  V30 2487 H 231.612 -0.29406 -2.54104 0
M  V30 2488 H 231.256 -0.310701 -5.06949 0
M  V30 2489 H 231.186 1.46939 -5.05684 0
M  V30 2490 H 233.677 0.660887 -3.72076 0
M  V30 2491 H 233.99 0.731426 -7.69331 0
M  V30 2492 H 232.335 0.66471 -6.91814 0
M  V30 2493 H 235.526 0.735545 -4.62285 0
M  V30 2494 H 235.699 0.767938 -6.43434 0
M  V30 2495 N 229.106 1.52395 0.401703 0
M  V30 2496 C 230.016 1.7917 1.51444 0
M  V30 2497 C 231.032 0.677691 1.6026 0
M  V30 2498 O 232.208 0.963909 1.76835 0
M  V30 2499 C 229.273 1.94347 2.87107 0
M  V30 2500 C 228.334 3.18257 2.88116 0
M  V30 2501 C 227.567 3.32701 4.17308 0
M  V30 2502 O 227.79 2.52238 5.11598 0
M  V30 2503 O 226.724 4.25891 4.25324 0
M  V30 2504 H 230.55 2.73633 1.31752 0
M  V30 2505 H 228.135 1.3733 0.588296 0
M  V30 2506 H 230.017 2.06109 3.67555 0
M  V30 2507 H 228.692 1.03073 3.06851 0
M  V30 2508 H 227.599 3.11947 2.06494 0
M  V30 2509 H 228.932 4.09336 2.73322 0
M  V30 2510 N 230.584 -0.659388 1.43143 0
M  V30 2511 C 231.516 -1.7849 1.43784 0
M  V30 2512 C 232.529 -1.5932 0.334787 0
M  V30 2513 O 233.718 -1.68155 0.598842 0
M  V30 2514 C 230.818 -3.15828 1.22906 0
M  V30 2515 C 229.991 -3.61711 2.45934 0
M  V30 2516 C 229.05 -4.77831 2.20371 0
M  V30 2517 O 228.076 -4.87586 2.93681 0
M  V30 2518 N 229.278 -5.67611 1.21647 0
M  V30 2519 H 232.043 -1.7842 2.40803 0
M  V30 2520 H 229.604 -0.84302 1.3822 0
M  V30 2521 H 231.596 -3.91189 1.03697 0
M  V30 2522 H 230.166 -3.10707 0.343542 0
M  V30 2523 H 229.386 -2.76861 2.80609 0
M  V30 2524 H 230.674 -3.89112 3.27825 0
M  V30 2525 H 230.072 -5.62397 0.610449 0
M  V30 2526 H 228.629 -6.42719 1.08423 0
M  V30 2527 N 232.062 -1.29571 -0.897171 0
M  V30 2528 C 232.992 -1.17473 -2.01798 0
M  V30 2529 C 233.973 -0.068323 -1.69963 0
M  V30 2530 O 235.158 -0.248239 -1.92607 0
M  V30 2531 C 232.288 -0.853099 -3.36659 0
M  V30 2532 C 231.242 -1.9161 -3.82713 0
M  V30 2533 C 230.568 -1.44773 -5.14728 0
M  V30 2534 C 231.868 -3.32535 -4.02763 0
M  V30 2535 H 233.562 -2.11237 -2.12177 0
M  V30 2536 H 231.108 -1.01699 -1.01948 0
M  V30 2537 H 233.061 -0.755165 -4.14578 0
M  V30 2538 H 231.785 0.120236 -3.26379 0
M  V30 2539 H 230.444 -2.00346 -3.07013 0
M  V30 2540 H 230.092 -0.462995 -5.00865 0
M  V30 2541 H 229.792 -2.15865 -5.46513 0
M  V30 2542 H 231.316 -1.36334 -5.95185 0
M  V30 2543 H 232.73 -3.26626 -4.71156 0
M  V30 2544 H 231.127 -4.01607 -4.45905 0
M  V30 2545 H 232.197 -3.75326 -3.07016 0
M  V30 2546 N 233.54 1.10788 -1.12088 0
M  V30 2547 C 234.487 2.17025 -0.785407 0
M  V30 2548 C 235.457 1.64265 0.246191 0
M  V30 2549 O 236.642 1.90412 0.121584 0
M  V30 2550 C 233.782 3.44249 -0.242177 0
M  V30 2551 C 232.895 4.1098 -1.33115 0
M  V30 2552 C 232.03 5.25911 -0.747741 0
M  V30 2553 C 231.069 5.84538 -1.81609 0
M  V30 2554 N 230.206 6.90853 -1.25167 0
M  V30 2555 H 235.046 2.45066 -1.69548 0
M  V30 2556 H 232.583 1.20297 -0.846582 0
M  V30 2557 H 234.541 4.17101 0.0908026 0
M  V30 2558 H 233.171 3.16571 0.631072 0
M  V30 2559 H 232.223 3.36133 -1.78097 0
M  V30 2560 H 233.535 4.50601 -2.13917 0
M  V30 2561 H 232.689 6.056 -0.365216 0
M  V30 2562 H 231.428 4.87614 0.0915188 0
M  V30 2563 H 230.433 5.03522 -2.20785 0
M  V30 2564 H 231.658 6.249 -2.6585 0
M  V30 2565 H 229.604 6.54562 -0.434174 0
M  V30 2566 H 229.521 7.29166 -1.99633 0
M  V30 2567 H 230.789 7.7433 -0.896259 0
M  V30 2568 N 235.018 0.912232 1.28515 0
M  V30 2569 C 235.928 0.404506 2.31086 0
M  V30 2570 C 236.944 -0.50707 1.66448 0
M  V30 2571 O 238.12 -0.393624 1.97516 0
M  V30 2572 C 235.185 -0.348572 3.44943 0
M  V30 2573 C 234.246 0.59604 4.25142 0
M  V30 2574 C 233.479 -0.121194 5.33562 0
M  V30 2575 O 233.702 -1.34317 5.5436 0
M  V30 2576 O 232.636 0.542716 5.99448 0
M  V30 2577 H 236.462 1.25579 2.76521 0
M  V30 2578 H 234.047 0.676998 1.33181 0
M  V30 2579 H 235.929 -0.77395 4.14232 0
M  V30 2580 H 234.604 -1.17571 3.01594 0
M  V30 2581 H 233.511 1.07079 3.58448 0
M  V30 2582 H 234.844 1.38995 4.72167 0
M  V30 2583 N 236.496 -1.42363 0.676048 0
M  V30 2584 C 237.742 -2.02336 0.207809 0
M  V30 2585 C 238.097 -1.52506 -1.17302 0
M  V30 2586 O 237.39 -0.718048 -1.77636 0
M  V30 2587 C 237.584 -3.56929 0.183431 0
M  V30 2588 C 237.413 -4.21762 1.56036 0
M  V30 2589 C 236.183 -4.56881 2.15842 0
M  V30 2590 C 238.381 -4.49267 2.50327 0
M  V30 2591 N 236.363 -5.069 3.46303 0
M  V30 2592 C 237.734 -5.00851 3.65443 0
M  V30 2593 C 239.789 -4.31257 2.48841 0
M  V30 2594 C 238.492 -5.36317 4.79329 0
M  V30 2595 C 240.518 -4.678 3.61824 0
M  V30 2596 C 239.88 -5.19537 4.75668 0
M  V30 2597 H 235.979 -0.772583 0.120993 0
M  V30 2598 H 238.563 -1.73203 0.889306 0
M  V30 2599 H 236.734 -3.85576 -0.467483 0
M  V30 2600 H 238.466 -4.03603 -0.297808 0
M  V30 2601 H 235.221 -4.4268 1.68319 0
M  V30 2602 H 235.645 -5.36338 4.13123 0
M  V30 2603 H 240.287 -3.90511 1.62051 0
M  V30 2604 H 238.005 -5.75995 5.66794 0
M  V30 2605 H 241.591 -4.55541 3.61903 0
M  V30 2606 H 240.471 -5.47287 5.61646 0
M  V30 2607 N 237.974 -0.419461 -1.51915 0
M  V30 2608 C 238.937 0.389116 -2.25873 0
M  V30 2609 C 239.937 0.964924 -1.28631 0
M  V30 2610 O 241.127 0.842179 -1.52489 0
M  V30 2611 C 238.259 1.54874 -3.03689 0
M  V30 2612 H 239.452 -0.258799 -2.98781 0
M  V30 2613 H 237.005 -0.172209 -1.55348 0
M  V30 2614 H 237.74 2.23323 -2.35154 0
M  V30 2615 H 237.525 1.14223 -3.75094 0
M  V30 2616 H 239.015 2.12046 -3.59759 0
M  V30 2617 N 239.452 1.56882 -0.150215 0
M  V30 2618 C 240.415 2.1573 0.774157 0
M  V30 2619 C 241.415 1.0999 1.17298 0
M  V30 2620 O 242.605 1.35613 1.09338 0
M  V30 2621 C 239.737 2.72302 2.05096 0
M  V30 2622 H 240.93 2.98752 0.262201 0
M  V30 2623 H 238.483 1.55985 0.099248 0
M  V30 2624 H 239.218 1.92956 2.6065 0
M  V30 2625 H 239.003 3.49665 1.77416 0
M  V30 2626 H 240.493 3.17632 2.71109 0
M  V30 2627 N 240.93 -0.123565 1.57115 0
M  V30 2628 C 242.155 -0.850398 1.89164 0
M  V30 2629 C 242.58 -1.7286 0.741688 0
M  V30 2630 O 241.938 -1.78665 -0.307958 0
M  V30 2631 C 241.986 -1.66353 3.19936 0
M  V30 2632 O 241.09 -2.77004 3.0552 0
M  V30 2633 H 240.431 -0.235454 0.620852 0
M  V30 2634 H 242.961 -0.107335 2.04318 0
M  V30 2635 H 242.971 -2.05372 3.52543 0
M  V30 2636 H 241.646 -1.01881 4.03228 0
M  V30 2637 H 240.223 -2.41221 2.84371 0
M  V30 2638 N 242.408 -1.52605 -0.393616 0
M  V30 2639 C 243.338 -1.80022 -1.48709 0
M  V30 2640 C 244.319 -0.651995 -1.57108 0
M  V30 2641 O 245.504 -0.89913 -1.72132 0
M  V30 2642 C 242.634 -1.96492 -2.86371 0
M  V30 2643 C 241.588 -3.12161 -2.92813 0
M  V30 2644 C 240.914 -3.13877 -4.3288 0
M  V30 2645 C 242.214 -4.51322 -2.6288 0
M  V30 2646 H 243.908 -2.71589 -1.26015 0
M  V30 2647 H 241.454 -1.30684 -0.604778 0
M  V30 2648 H 243.407 -2.14255 -3.62867 0
M  V30 2649 H 242.131 -1.01611 -3.10391 0
M  V30 2650 H 240.79 -2.94173 -2.18764 0
M  V30 2651 H 240.438 -2.16687 -4.53933 0
M  V30 2652 H 240.138 -3.91576 -4.38112 0
M  V30 2653 H 241.662 -3.33789 -5.1129 0
M  V30 2654 H 243.076 -4.69435 -3.29096 0
M  V30 2655 H 241.473 -5.31053 -2.79468 0
M  V30 2656 H 242.543 -4.58353 -1.58242 0
M  V30 2657 N 243.887 0.651787 -1.4349 0
M  V30 2658 C 245.136 1.40754 -1.44469 0
M  V30 2659 C 245.449 1.95463 -0.0731845 0
M  V30 2660 O 246.655 2.71471 0.0395721 0
M  V30 2661 C 245.111 2.54735 -2.5424 0
M  V30 2662 C 244.719 2.06628 -3.97504 0
M  V30 2663 C 246.463 3.32092 -2.64414 0
M  V30 2664 C 244.37 3.17829 -4.98737 0
M  V30 2665 H 243.3 0.528862 -0.53742 0
M  V30 2666 H 245.951 0.703365 -1.69485 0
M  V30 2667 H 244.333 3.2763 -2.22428 0
M  V30 2668 H 245.507 1.40734 -4.38783 0
M  V30 2669 H 243.822 1.42146 -3.91387 0
M  V30 2670 H 246.419 4.14952 -3.37223 0
M  V30 2671 H 246.762 3.80217 -1.69532 0
M  V30 2672 H 247.295 2.66279 -2.95534 0
M  V30 2673 H 244.034 2.74671 -5.95177 0
M  V30 2674 H 243.554 3.82429 -4.62069 0
M  V30 2675 H 245.233 3.82937 -5.21505 0
M  V30 2676 N 245.365 1.30045 0.890287 0
M  V30 2677 C 246.297 1.11786 2.00091 0
M  V30 2678 C 247.31 0.0626307 1.62679 0
M  V30 2679 O 248.499 0.308112 1.75821 0
M  V30 2680 C 245.599 0.681527 3.31977 0
M  V30 2681 C 244.772 1.81735 3.97858 0
M  V30 2682 C 243.831 1.37045 5.08041 0
M  V30 2683 O 242.857 2.07677 5.29961 0
M  V30 2684 N 244.059 0.246525 5.79976 0
M  V30 2685 H 246.824 2.07441 2.16306 0
M  V30 2686 H 244.385 1.2211 1.06305 0
M  V30 2687 H 246.377 0.365675 4.03045 0
M  V30 2688 H 244.947 -0.182828 3.12065 0
M  V30 2689 H 244.167 2.30159 3.20032 0
M  V30 2690 H 245.455 2.57865 4.38615 0
M  V30 2691 H 244.853 -0.34215 5.64664 0
M  V30 2692 H 243.41 -0.00990438 6.51799 0
M  V30 2693 N 246.843 -1.10192 1.12674 0
M  V30 2694 C 248.071 -1.85983 0.906527 0
M  V30 2695 C 248.486 -1.80783 -0.544333 0
M  V30 2696 O 247.843 -1.19834 -1.37645 0
M  V30 2697 C 247.894 -3.34281 1.37618 0
M  V30 2698 O 247.615 -3.39401 2.77017 0
M  V30 2699 C 249.116 -4.26938 1.19325 0
M  V30 2700 H 246.336 -0.587716 0.323775 0
M  V30 2701 H 248.88 -1.39284 1.49734 0
M  V30 2702 H 247.035 -3.78436 0.828539 0
M  V30 2703 H 247.449 -4.31838 2.97684 0
M  V30 2704 H 248.923 -5.29181 1.57071 0
M  V30 2705 H 249.4 -4.38995 0.134097 0
M  V30 2706 H 250.006 -3.8859 1.72852 0
M  V30 2707 N 248.321 -0.919034 -1.28029 0
M  V30 2708 C 249.57 -0.550802 -1.94034 0
M  V30 2709 C 249.883 0.910877 -1.73096 0
M  V30 2710 O 251.089 1.3875 -2.33368 0
M  V30 2711 C 249.545 -0.934249 -3.47563 0
M  V30 2712 C 249.153 -2.41602 -3.7727 0
M  V30 2713 C 250.897 -0.636854 -4.19696 0
M  V30 2714 C 248.804 -2.73932 -5.24133 0
M  V30 2715 H 247.734 -0.202273 -0.726362 0
M  V30 2716 H 250.385 -1.11867 -1.45458 0
M  V30 2717 H 248.767 -0.295115 -3.94899 0
M  V30 2718 H 249.941 -3.10233 -3.40723 0
M  V30 2719 H 248.256 -2.68441 -3.18321 0
M  V30 2720 H 250.853 -0.855005 -5.2782 0
M  V30 2721 H 251.196 0.425575 -4.14119 0
M  V30 2722 H 251.729 -1.23469 -3.78154 0
M  V30 2723 H 248.468 -3.79049 -5.34792 0
M  V30 2724 H 247.988 -2.09942 -5.61858 0
M  V30 2725 H 249.667 -2.61215 -5.91925 0
M  V30 2726 N 249.799 1.42003 -0.683588 0
M  V30 2727 C 251.076 1.95112 -0.138075 0
M  V30 2728 C 251.456 1.62359 1.34918 0
M  V30 2729 O 250.804 0.924311 2.08971 0
M  V30 2730 C 251.014 3.46505 -0.416581 0
M  V30 2731 C 252.362 4.23254 -0.337834 0
M  V30 2732 O 253.386 3.54468 -0.35082 0
M  V30 2733 O 252.245 5.45743 -0.287596 0
M  V30 2734 H 249.339 0.826961 -0.00797996 0
M  V30 2735 H 251.885 1.51784 -0.758924 0
M  V30 2736 H 250.657 3.63582 -1.4465 0
M  V30 2737 H 250.28 3.969 0.235839 0
M  V30 2738 N 251.277 0.427512 1.51691 0
M  V30 2739 C 252.524 -0.142229 2.02 0
M  V30 2740 C 252.852 -1.43566 1.31221 0
M  V30 2741 O 252.107 -1.91298 0.412744 0
M  V30 2742 C 252.406 -0.418249 3.54944 0
M  V30 2743 C 252.072 0.788187 4.43958 0
M  V30 2744 C 250.734 1.11906 4.68007 0
M  V30 2745 C 253.086 1.59347 4.96244 0
M  V30 2746 C 250.414 2.25608 5.41588 0
M  V30 2747 C 252.766 2.7214 5.71072 0
M  V30 2748 C 251.43 3.05692 5.93387 0
M  V30 2749 H 250.7 -0.0520451 0.73917 0
M  V30 2750 H 253.347 0.572697 1.82736 0
M  V30 2751 H 251.652 -1.21496 3.72486 0
M  V30 2752 H 253.349 -0.872339 3.91397 0
M  V30 2753 H 249.939 0.520344 4.2543 0
M  V30 2754 H 254.123 1.35106 4.77556 0
M  V30 2755 H 249.379 2.51929 5.57083 0
M  V30 2756 H 253.553 3.34914 6.10578 0
M  V30 2757 H 251.18 3.9391 6.50184 0
M  V30 2758 N 252.755 -1.56801 0.158532 0
M  V30 2759 C 253.983 -2.00859 -0.496303 0
M  V30 2760 C 254.398 -1.03871 -1.57659 0
M  V30 2761 O 253.755 -0.0375165 -1.82461 0
M  V30 2762 C 253.806 -3.4479 -1.08638 0
M  V30 2763 O 253.527 -4.38072 -0.0492322 0
M  V30 2764 C 255.028 -4.04185 -1.8207 0
M  V30 2765 H 252.248 -0.65864 -0.128199 0
M  V30 2766 H 254.792 -2.02885 0.256506 0
M  V30 2767 H 252.947 -3.43579 -1.78975 0
M  V30 2768 H 253.361 -5.2227 -0.483102 0
M  V30 2769 H 254.835 -5.06857 -2.18633 0
M  V30 2770 H 255.312 -3.45549 -2.71095 0
M  V30 2771 H 255.918 -4.0906 -1.16405 0
M  V30 2772 N 254.233 0.115231 -1.57178 0
M  V30 2773 C 255.649 0.468877 -1.52557 0
M  V30 2774 C 255.849 1.81649 -0.872125 0
M  V30 2775 O 254.905 2.48347 -0.45606 0
M  V30 2776 C 256.218 0.4499 -2.97315 0
M  V30 2777 C 257.766 0.533185 -3.08425 0
M  V30 2778 C 258.241 0.54456 -4.54751 0
M  V30 2779 N 259.732 0.605892 -4.5922 0
M  V30 2780 C 260.467 0.636203 -5.6986 0
M  V30 2781 N 259.963 0.623931 -6.89985 0
M  V30 2782 N 261.756 0.679496 -5.57978 0
M  V30 2783 H 253.907 -0.767712 -1.9804 0
M  V30 2784 H 256.17 -0.283609 -0.904583 0
M  V30 2785 H 255.876 -0.472721 -3.48509 0
M  V30 2786 H 255.75 1.27632 -3.5495 0
M  V30 2787 H 258.137 1.44623 -2.57232 0
M  V30 2788 H 258.218 -0.320995 -2.53778 0
M  V30 2789 H 257.862 -0.364452 -5.06591 0
M  V30 2790 H 257.792 1.41568 -5.07214 0
M  V30 2791 H 260.283 0.621386 -3.72756 0
M  V30 2792 H 260.596 0.649787 -7.70063 0
M  V30 2793 H 258.941 0.591296 -6.9248 0
M  V30 2794 H 262.132 0.686472 -4.63039 0
M  V30 2795 H 262.305 0.69965 -6.44212 0
M  V30 2796 N 255.711 1.52812 0.385517 0
M  V30 2797 C 256.936 1.72207 1.15583 0
M  V30 2798 C 257.361 0.441034 1.82857 0
M  V30 2799 O 256.719 -0.603465 1.70962 0
M  V30 2800 C 256.767 2.87476 2.17692 0
M  V30 2801 O 255.871 2.54693 3.24354 0
M  V30 2802 H 255.212 0.572526 0.336319 0
M  V30 2803 H 257.742 1.99618 0.448744 0
M  V30 2804 H 257.752 3.13072 2.6163 0
M  V30 2805 H 256.427 3.80408 1.68115 0
M  V30 2806 H 255.004 2.3985 2.85529 0
M  V30 2807 N 257.189 -0.644168 1.43834 0
M  V30 2808 C 258.605 -0.960875 1.27434 0
M  V30 2809 C 258.805 -2.00499 0.200618 0
M  V30 2810 O 257.861 -2.49018 -0.417906 0
M  V30 2811 C 259.174 -1.43653 2.64167 0
M  V30 2812 C 260.722 -1.55271 2.71772 0
M  V30 2813 C 261.197 -2.06224 4.08944 0
M  V30 2814 N 262.688 -2.13513 4.11055 0
M  V30 2815 C 263.423 -2.54081 5.14033 0
M  V30 2816 N 262.919 -2.9388 6.27381 0
M  V30 2817 N 264.712 -2.54101 5.01387 0
M  V30 2818 H 256.863 0.0465779 2.12349 0
M  V30 2819 H 259.126 -0.0417638 0.94708 0
M  V30 2820 H 258.832 -0.743706 3.43747 0
M  V30 2821 H 258.706 -2.40993 2.90176 0
M  V30 2822 H 261.093 -2.23653 1.92519 0
M  V30 2823 H 261.174 -0.563395 2.49519 0
M  V30 2824 H 260.818 -1.38441 4.88668 0
M  V30 2825 H 260.748 -3.06003 4.28567 0
M  V30 2826 H 263.239 -1.85493 3.29242 0
M  V30 2827 H 263.552 -3.2361 7.01781 0
M  V30 2828 H 261.897 -2.91663 6.30839 0
M  V30 2829 H 265.088 -2.22391 4.11898 0
M  V30 2830 H 265.261 -2.85394 5.81768 0
M  V30 2831 N 258.668 -1.30515 -0.883378 0
M  V30 2832 C 259.615 -1.17032 -1.98927 0
M  V30 2833 C 260.585 -0.0594241 -1.65994 0
M  V30 2834 O 261.77 -0.229895 -1.8941 0
M  V30 2835 C 258.91 -0.869777 -3.33959 0
M  V30 2836 C 258.023 -2.06271 -3.79574 0
M  V30 2837 C 257.158 -1.70011 -5.03259 0
M  V30 2838 C 256.197 -2.8579 -5.41286 0
M  V30 2839 N 255.334 -2.49816 -6.56153 0
M  V30 2840 H 260.174 -2.1164 -2.09792 0
M  V30 2841 H 257.711 -1.05296 -1.02719 0
M  V30 2842 H 259.669 -0.676138 -4.11685 0
M  V30 2843 H 258.299 0.0394332 -3.22776 0
M  V30 2844 H 257.351 -2.36755 -2.97744 0
M  V30 2845 H 258.663 -2.92971 -4.03694 0
M  V30 2846 H 257.817 -1.47032 -5.88614 0
M  V30 2847 H 256.556 -0.804829 -4.81013 0
M  V30 2848 H 255.561 -3.09434 -4.54456 0
M  V30 2849 H 256.786 -3.76008 -5.65504 0
M  V30 2850 H 254.732 -1.62795 -6.35479 0
M  V30 2851 H 254.649 -3.30048 -6.8015 0
M  V30 2852 H 255.917 -2.30197 -7.44735 0
M  V30 2853 N 260.146 1.09593 -1.13257 0
M  V30 2854 C 261.109 2.14359 -0.811358 0
M  V30 2855 C 262.109 1.59808 0.178377 0
M  V30 2856 O 263.299 1.74132 -0.0484911 0
M  V30 2857 C 260.431 3.40269 -0.207276 0
M  V30 2858 H 261.624 2.44284 -1.73969 0
M  V30 2859 H 259.177 1.25102 -0.936973 0
M  V30 2860 H 259.912 3.15969 0.73036 0
M  V30 2861 H 259.697 3.81154 -0.919992 0
M  V30 2862 H 261.187 4.176 0.000667944 0
M  V30 2863 N 261.624 0.925811 1.2754 0
M  V30 2864 C 262.554 0.440748 2.29303 0
M  V30 2865 C 263.535 -0.497971 1.62648 0
M  V30 2866 O 264.72 -0.403126 1.8997 0
M  V30 2867 C 261.85 -0.309048 3.45922 0
M  V30 2868 C 260.804 0.54166 4.24559 0
M  V30 2869 C 260.13 -0.337191 5.33636 0
M  V30 2870 C 261.43 1.80516 4.90114 0
M  V30 2871 H 263.124 1.29121 2.70126 0
M  V30 2872 H 260.67 0.622323 1.29858 0
M  V30 2873 H 262.623 -0.659315 4.1621 0
M  V30 2874 H 261.347 -1.19352 3.04011 0
M  V30 2875 H 260.006 0.874609 3.56014 0
M  V30 2876 H 259.654 -1.22056 4.87966 0
M  V30 2877 H 259.354 0.228497 5.87156 0
M  V30 2878 H 260.878 -0.683072 6.06767 0
M  V30 2879 H 262.292 1.52307 5.52698 0
M  V30 2880 H 260.689 2.3142 5.53683 0
M  V30 2881 H 261.759 2.52581 4.13921 0
M  V30 2882 N 263.102 -1.41638 0.69111 0
M  V30 2883 C 264.33 -2.05628 0.22909 0
M  V30 2884 C 264.745 -1.51992 -1.11999 0
M  V30 2885 O 264.102 -0.666322 -1.69901 0
M  V30 2886 C 264.153 -3.61084 0.173283 0
M  V30 2887 O 263.874 -4.12735 1.46907 0
M  V30 2888 C 265.375 -4.42213 -0.310266 0
M  V30 2889 H 262.595 -0.662327 0.107534 0
M  V30 2890 H 265.139 -1.81489 0.942438 0
M  V30 2891 H 263.294 -3.84278 -0.490858 0
M  V30 2892 H 263.708 -5.06743 1.35322 0
M  V30 2893 H 265.182 -5.51194 -0.298196 0
M  V30 2894 H 265.659 -4.1799 -1.34838 0
M  V30 2895 H 266.265 -4.24074 0.322716 0
M  V30 2896 N 264.58 -0.43555 -1.51462 0
M  V30 2897 C 265.49 0.383001 -2.31453 0
M  V30 2898 C 266.506 1.02931 -1.4029 0
M  V30 2899 O 267.682 1.02507 -1.73362 0
M  V30 2900 C 264.747 1.47043 -3.13973 0
M  V30 2901 C 263.808 0.844433 -4.20913 0
M  V30 2902 C 263.041 1.88004 -4.9949 0
M  V30 2903 O 263.264 3.10199 -4.78678 0
M  V30 2904 O 262.198 1.47157 -5.83634 0
M  V30 2905 H 266.024 -0.269964 -3.02498 0
M  V30 2906 H 263.609 -0.19813 -1.4808 0
M  V30 2907 H 265.491 2.10113 -3.65281 0
M  V30 2908 H 264.166 2.10751 -2.45695 0
M  V30 2909 H 263.073 0.175729 -3.73687 0
M  V30 2910 H 264.406 0.250869 -4.9156 0
M  V30 2911 N 266.058 1.56714 -0.166846 0
M  V30 2912 C 267.306 1.96358 0.478305 0
M  V30 2913 C 267.627 1.0537 1.6408 0
M  V30 2914 O 266.897 0.119154 1.95537 0
M  V30 2915 H 265.477 0.725065 0.179692 0
M  V30 2916 H 268.139 1.93329 -0.246985 0
M  V30 2917 H 267.235 3.00547 0.841292 0
M  V30 2918 N 267.536 -0.106894 1.57237 0
M  V30 2919 C 268.484 -1.14944 2.02215 0
M  V30 2920 C 269.478 -1.42167 0.92114 0
M  V30 2921 O 270.684 -1.41987 1.10634 0
M  V30 2922 H 267.059 -0.387841 0.64427 0
M  V30 2923 H 269.03 -0.743683 2.88984 0
M  V30 2924 C 267.779 -2.4647 2.4525 0
M  V30 2925 H 267.102 -2.26363 3.29545 0
M  V30 2926 H 268.542 -3.17948 2.80508 0
M  V30 2927 C 267.001 -3.09921 1.321 0
M  V30 2928 O 267.531 -3.9651 0.643622 0
M  V30 2929 N 265.737 -2.69986 1.07497 0
M  V30 2930 H 265.284 -1.99667 1.62761 0
M  V30 2931 H 265.242 -3.12769 0.319876 0
M  V30 2932 N 269.014 -1.53014 -0.377408 0
M  V30 2933 C 270.263 -1.67845 -1.11853 0
M  V30 2934 C 270.576 -0.430625 -1.90801 0
M  V30 2935 O 271.782 -0.459261 -2.67587 0
M  V30 2936 C 270.238 -2.96668 -2.03756 0
M  V30 2937 C 269.846 -4.28671 -1.30175 0
M  V30 2938 C 271.59 -3.20865 -2.77932 0
M  V30 2939 C 269.497 -5.48591 -2.20911 0
M  V30 2940 H 268.427 -0.625343 -0.421263 0
M  V30 2941 H 271.078 -1.79514 -0.380409 0
M  V30 2942 H 269.46 -2.78773 -2.8125 0
M  V30 2943 H 270.634 -4.57157 -0.578259 0
M  V30 2944 H 268.949 -4.10825 -0.679108 0
M  V30 2945 H 271.546 -4.07642 -3.46024 0
M  V30 2946 H 271.889 -2.36424 -3.4265 0
M  V30 2947 H 272.422 -3.39379 -2.07525 0
M  V30 2948 H 269.161 -6.35474 -1.6079 0
M  V30 2949 H 268.681 -5.244 -2.91144 0
M  V30 2950 H 270.36 -5.8292 -2.80736 0
M  V30 2951 N 270.492 0.636531 -1.44174 0
M  V30 2952 C 271.425 1.76139 -1.45087 0
M  V30 2953 C 272.403 1.59611 -0.310326 0
M  V30 2954 O 273.587 1.81568 -0.506477 0
M  V30 2955 C 270.714 3.13648 -1.27839 0
M  V30 2956 C 269.76 3.48838 -2.45386 0
M  V30 2957 S 270.593 3.46927 -4.07924 0
M  V30 2958 C 271.749 4.87064 -3.9309 0
M  V30 2959 H 271.982 1.75096 -2.40268 0
M  V30 2960 H 269.515 0.810666 -1.31406 0
M  V30 2961 H 271.473 3.93002 -1.18575 0
M  V30 2962 H 270.134 3.12235 -0.341787 0
M  V30 2963 H 269.327 4.48886 -2.29167 0
M  V30 2964 H 268.929 2.76935 -2.51362 0
M  V30 2965 H 271.221 5.76153 -3.56446 0
M  V30 2966 H 272.164 5.08337 -4.92949 0
M  V30 2967 H 272.572 4.61384 -3.25246 0
M  V30 2968 N 271.97 1.30982 0.876444 0
M  V30 2969 C 272.933 1.18054 1.96459 0
M  V30 2970 C 273.933 0.109399 1.60427 0
M  V30 2971 O 275.123 0.358173 1.70478 0
M  V30 2972 C 272.255 0.810616 3.31122 0
M  V30 2973 H 273.448 2.14735 2.09354 0
M  V30 2974 H 271.001 1.145 1.06392 0
M  V30 2975 H 271.736 -0.155322 3.23928 0
M  V30 2976 H 271.521 1.58481 3.58645 0
M  V30 2977 H 273.011 0.743876 4.10921 0
M  V30 2978 N 273.449 -1.08991 1.13837 0
M  V30 2979 C 274.695 -1.81526 0.90422 0
M  V30 2980 C 275.028 -1.85706 -0.568066 0
M  V30 2981 O 274.303 -1.32855 -1.42056 0
M  V30 2982 C 274.586 -3.27447 1.49835 0
M  V30 2983 C 274.439 -3.31512 3.04006 0
M  V30 2984 C 275.758 -4.24256 1.17025 0
M  V30 2985 H 272.877 -0.659029 0.329923 0
M  V30 2986 H 275.519 -1.27644 1.40737 0
M  V30 2987 H 273.669 -3.73462 1.07044 0
M  V30 2988 H 275.341 -2.93867 3.55584 0
M  V30 2989 H 273.584 -2.70963 3.38765 0
M  V30 2990 H 274.255 -4.34329 3.40679 0
M  V30 2991 H 276.731 -3.86549 1.54009 0
M  V30 2992 H 275.607 -5.24684 1.61237 0
M  V30 2993 H 275.868 -4.42019 0.0846274 0
M  V30 2994 N 274.927 -0.932562 -1.27047 0
M  V30 2995 C 275.859 -0.392734 -2.2581 0
M  V30 2996 C 276.872 0.479241 -1.55586 0
M  V30 2997 O 278.061 0.291078 -1.76111 0
M  V30 2998 C 275.161 0.455456 -3.35826 0
M  V30 2999 C 274.334 -0.398355 -4.35582 0
M  V30 3000 C 273.393 0.387985 -5.24768 0
M  V30 3001 O 272.419 -0.206003 -5.68827 0
M  V30 3002 N 273.621 1.68664 -5.55457 0
M  V30 3003 H 276.386 -1.24173 -2.72766 0
M  V30 3004 H 273.947 -0.800511 -1.40725 0
M  V30 3005 H 275.939 0.988692 -3.92437 0
M  V30 3006 H 274.509 1.20522 -2.88432 0
M  V30 3007 H 273.729 -1.11286 -3.78165 0
M  V30 3008 H 275.017 -0.981889 -4.99236 0
M  V30 3009 H 274.415 2.19147 -5.21528 0
M  V30 3010 H 272.972 2.1663 -6.14748 0
M  V30 3011 N 276.405 1.4127 -0.698611 0
M  V30 3012 C 277.368 2.29158 -0.044132 0
M  V30 3013 C 278.368 1.44529 0.704841 0
M  V30 3014 O 279.558 1.65643 0.539276 0
M  V30 3015 C 276.69 3.27459 0.947809 0
M  V30 3016 H 277.883 2.88529 -0.817994 0
M  V30 3017 H 275.436 1.49307 -0.46228 0
M  V30 3018 H 276.171 2.73073 1.74933 0
M  V30 3019 H 275.956 3.8991 0.41385 0
M  V30 3020 H 277.446 3.93311 1.40344 0
M  V30 3021 N 277.883 0.443576 1.51229 0
M  V30 3022 C 278.816 -0.410089 2.24485 0
M  V30 3023 C 279.794 -1.01949 1.26669 0
M  V30 3024 O 280.978 -1.06075 1.55821 0
M  V30 3025 C 278.105 -1.57211 3.00004 0
M  V30 3026 C 277.151 -1.08279 4.12526 0
M  V30 3027 S 277.984 -0.0197476 5.35496 0
M  V30 3028 C 279.14 -1.18629 6.14555 0
M  V30 3029 H 279.373 0.211832 2.96544 0
M  V30 3030 H 276.906 0.228156 1.52705 0
M  V30 3031 H 278.864 -2.23825 3.44111 0
M  V30 3032 H 277.525 -2.16547 2.27522 0
M  V30 3033 H 276.718 -1.95193 4.64667 0
M  V30 3034 H 276.32 -0.494797 3.70713 0
M  V30 3035 H 278.612 -2.10344 6.4402 0
M  V30 3036 H 279.555 -0.70472 7.04584 0
M  V30 3037 H 279.963 -1.42768 5.46148 0
M  V30 3038 N 279.361 -1.56624 0.175154 0
M  V30 3039 C 280.324 -2.16934 -0.739738 0
M  V30 3040 C 281.324 -1.11842 -1.15533 0
M  V30 3041 O 282.514 -1.37335 -1.07167 0
M  V30 3042 C 279.646 -2.75531 -2.00738 0
M  V30 3043 H 280.839 -2.99131 -0.214639 0
M  V30 3044 H 278.392 -1.56123 -0.0744197 0
M  V30 3045 H 279.127 -1.97078 -2.57548 0
M  V30 3046 H 278.912 -3.52444 -1.71831 0
M  V30 3047 H 280.402 -3.21904 -2.66021 0
M  V30 3048 N 280.839 0.0985539 -1.57292 0
M  V30 3049 C 282.069 0.815135 -1.8984 0
M  V30 3050 C 282.477 1.7297 -0.766679 0
M  V30 3051 O 281.82 1.81698 0.270483 0
M  V30 3052 C 281.882 1.6842 -3.17608 0
M  V30 3053 C 281.546 0.94182 -4.4719 0
M  V30 3054 C 282.543 0.273212 -5.19182 0
M  V30 3055 C 280.228 0.916927 -4.9386 0
M  V30 3056 C 282.222 -0.410361 -6.36078 0
M  V30 3057 C 279.909 0.229567 -6.10669 0
M  V30 3058 C 280.907 -0.432902 -6.81627 0
M  V30 3059 O 280.595 -1.10925 -7.9621 0
M  V30 3060 H 280.327 0.238501 -0.632529 0
M  V30 3061 H 282.881 0.0812659 -2.05239 0
M  V30 3062 H 281.111 2.46022 -2.98345 0
M  V30 3063 H 282.8 2.27704 -3.36015 0
M  V30 3064 H 283.566 0.283927 -4.84168 0
M  V30 3065 H 279.445 1.42201 -4.3852 0
M  V30 3066 H 282.989 -0.928013 -6.914 0
M  V30 3067 H 278.886 0.216686 -6.45136 0
M  V30 3068 H 279.654 -1.01579 -8.12172 0
M  V30 3069 N 282.317 1.53212 0.369288 0
M  V30 3070 C 283.564 1.69215 1.11232 0
M  V30 3071 C 283.892 0.442048 1.8941 0
M  V30 3072 O 283.147 -0.575944 1.87033 0
M  V30 3073 C 283.446 2.89101 2.10132 0
M  V30 3074 C 283.112 4.25758 1.48463 0
M  V30 3075 C 281.774 4.6292 1.31372 0
M  V30 3076 C 284.126 5.10757 1.03811 0
M  V30 3077 C 281.454 5.82722 0.68207 0
M  V30 3078 C 283.806 6.31201 0.420487 0
M  V30 3079 C 282.47 6.67079 0.237038 0
M  V30 3080 H 281.74 0.619201 0.407027 0
M  V30 3081 H 284.387 1.87391 0.394552 0
M  V30 3082 H 282.692 2.65421 2.88199 0
M  V30 3083 H 284.389 2.98676 2.6757 0
M  V30 3084 H 280.979 3.96494 1.62758 0
M  V30 3085 H 285.163 4.82599 1.1581 0
M  V30 3086 H 280.419 6.09113 0.528316 0
M  V30 3087 H 284.593 6.96368 0.0662874 0
M  V30 3088 H 282.22 7.59774 -0.254477 0
M  V30 3089 N 283.795 -0.628877 1.44509 0
M  V30 3090 C 284.742 -1.74074 1.51549 0
M  V30 3091 C 285.712 -1.62084 0.363021 0
M  V30 3092 O 286.897 -1.81975 0.573567 0
M  V30 3093 C 284.037 -3.12328 1.46784 0
M  V30 3094 C 283.15 -3.35277 2.72422 0
M  V30 3095 C 282.285 -4.63515 2.59475 0
M  V30 3096 C 281.324 -4.7965 3.80266 0
M  V30 3097 N 280.461 -5.99168 3.65981 0
M  V30 3098 H 285.301 -1.67392 2.46544 0
M  V30 3099 H 282.838 -0.816527 1.22357 0
M  V30 3100 H 284.796 -3.92286 1.42012 0
M  V30 3101 H 283.426 -3.18018 0.553544 0
M  V30 3102 H 282.478 -2.49242 2.87372 0
M  V30 3103 H 283.79 -3.43078 3.62076 0
M  V30 3104 H 282.944 -5.51638 2.52548 0
M  V30 3105 H 281.683 -4.58076 1.67384 0
M  V30 3106 H 280.688 -3.89957 3.87574 0
M  V30 3107 H 281.913 -4.86902 4.73395 0
M  V30 3108 H 279.859 -5.94814 2.76644 0
M  V30 3109 H 279.776 -6.08035 4.49254 0
M  V30 3110 H 281.044 -6.89846 3.6295 0
M  V30 3111 N 285.273 -1.31445 -0.869486 0
M  V30 3112 C 286.183 -1.21097 -2.0093 0
M  V30 3113 C 287.199 -0.127584 -1.73532 0
M  V30 3114 O 288.375 -0.345477 -1.98415 0
M  V30 3115 C 285.44 -0.919378 -3.34288 0
M  V30 3116 C 284.501 -2.08971 -3.75006 0
M  V30 3117 C 283.734 -1.81194 -5.02001 0
M  V30 3118 O 283.957 -0.747296 -5.65484 0
M  V30 3119 O 282.891 -2.66883 -5.39497 0
M  V30 3120 H 286.717 -2.16883 -2.12592 0
M  V30 3121 H 284.302 -1.11189 -0.997868 0
M  V30 3122 H 286.184 -0.772625 -4.14257 0
M  V30 3123 H 284.859 0.00844772 -3.23699 0
M  V30 3124 H 283.766 -2.29187 -2.95676 0
M  V30 3125 H 285.099 -2.9998 -3.90221 0
M  V30 3126 N 286.751 1.08385 -1.14413 0
M  V30 3127 C 287.681 2.17321 -0.854044 0
M  V30 3128 C 288.662 1.69024 0.191049 0
M  V30 3129 O 289.847 1.94141 0.0476779 0
M  V30 3130 C 286.977 3.45719 -0.330983 0
M  V30 3131 C 285.931 4.07409 -1.31155 0
M  V30 3132 C 285.257 5.30762 -0.64778 0
M  V30 3133 C 286.557 4.48665 -2.67388 0
M  V30 3134 H 288.251 2.41845 -1.76498 0
M  V30 3135 H 285.797 1.16233 -0.850051 0
M  V30 3136 H 287.75 4.21241 -0.115645 0
M  V30 3137 H 286.474 3.2075 0.615381 0
M  V30 3138 H 285.133 3.33919 -1.51306 0
M  V30 3139 H 284.781 5.02078 0.304398 0
M  V30 3140 H 284.481 5.72992 -1.30207 0
M  V30 3141 H 286.005 6.08998 -0.441972 0
M  V30 3142 H 287.419 5.15364 -2.51143 0
M  V30 3143 H 285.816 5.01814 -3.29093 0
M  V30 3144 H 286.886 3.60543 -3.24248 0
M  V30 3145 N 288.23 0.939286 1.26551 0
M  V30 3146 C 289.479 0.581601 1.93133 0
M  V30 3147 C 289.792 -0.883224 1.74524 0
M  V30 3148 O 290.998 -1.3502 2.35546 0
M  V30 3149 C 289.454 0.989425 3.46032 0
M  V30 3150 C 289.062 2.47573 3.73379 0
M  V30 3151 C 290.806 0.703544 4.18629 0
M  V30 3152 C 288.713 2.82235 5.19709 0
M  V30 3153 H 287.643 0.213803 0.723052 0
M  V30 3154 H 290.294 1.14167 1.4366 0
M  V30 3155 H 288.676 0.357902 3.94379 0
M  V30 3156 H 289.85 3.15614 3.35744 0
M  V30 3157 H 288.165 2.73471 3.1401 0
M  V30 3158 H 290.762 0.938869 5.26393 0
M  V30 3159 H 291.105 -0.359639 4.14744 0
M  V30 3160 H 291.638 1.2947 3.76141 0
M  V30 3161 H 288.377 3.87509 5.28694 0
M  V30 3162 H 287.897 2.18854 5.58447 0
M  V30 3163 H 289.576 2.70599 5.87695 0
M  V30 3164 N 289.708 -1.40897 0.706093 0
M  V30 3165 C 290.64 -2.29199 0.00815776 0
M  V30 3166 C 291.653 -1.45336 -0.733582 0
M  V30 3167 O 292.842 -1.68727 -0.582537 0
M  V30 3168 C 289.942 -3.23417 -1.01265 0
M  V30 3169 C 289.115 -4.36089 -0.338387 0
M  V30 3170 C 288.174 -5.10811 -1.26326 0
M  V30 3171 O 287.2 -5.64215 -0.751651 0
M  V30 3172 N 288.402 -5.19269 -2.595 0
M  V30 3173 H 291.167 -2.89738 0.766297 0
M  V30 3174 H 288.728 -1.52164 0.55296 0
M  V30 3175 H 290.72 -3.70276 -1.63334 0
M  V30 3176 H 289.29 -2.64112 -1.67223 0
M  V30 3177 H 288.51 -3.91479 0.462352 0
M  V30 3178 H 289.798 -5.08634 0.130031 0
M  V30 3179 H 289.196 -4.77347 -3.03573 0
M  V30 3180 H 287.753 -5.69667 -3.16737 0
M  V30 3181 N 291.186 -0.45159 -1.50991 0
M  V30 3182 C 292.133 0.352625 -2.2809 0
M  V30 3183 C 293.103 1.0044 -1.32291 0
M  V30 3184 O 294.288 1.02058 -1.6121 0
M  V30 3185 C 291.428 1.43983 -3.13629 0
M  V30 3186 C 290.541 0.804772 -4.24438 0
M  V30 3187 C 289.676 1.86822 -4.97263 0
M  V30 3188 C 288.715 1.21236 -5.99973 0
M  V30 3189 N 287.852 2.2178 -6.66152 0
M  V30 3190 H 292.692 -0.311186 -2.96371 0
M  V30 3191 H 290.229 -0.165308 -1.46168 0
M  V30 3192 H 292.187 2.08161 -3.61559 0
M  V30 3193 H 290.817 2.07307 -2.47434 0
M  V30 3194 H 289.869 0.0509129 -3.80366 0
M  V30 3195 H 291.181 0.286076 -4.97979 0
M  V30 3196 H 290.335 2.58628 -5.48813 0
M  V30 3197 H 289.074 2.42068 -4.23385 0
M  V30 3198 H 288.079 0.479828 -5.47702 0
M  V30 3199 H 289.304 0.667051 -6.75816 0
M  V30 3200 H 287.25 2.76079 -5.95077 0
M  V30 3201 H 287.167 1.74841 -7.35504 0
M  V30 3202 H 288.435 2.93026 -7.22327 0
M  V30 3203 N 292.664 1.56529 -0.183458 0
M  V30 3204 C 294.08 1.58664 0.172554 0
M  V30 3205 C 294.28 1.19925 1.61926 0
M  V30 3206 O 293.336 0.916534 2.35278 0
M  V30 3207 C 294.649 3.00463 -0.119262 0
M  V30 3208 C 296.197 3.12945 -0.0584396 0
M  V30 3209 C 296.672 4.56857 -0.323408 0
M  V30 3210 N 298.163 4.62403 -0.271612 0
M  V30 3211 C 298.898 5.71626 -0.450639 0
M  V30 3212 N 298.394 6.89362 -0.689384 0
M  V30 3213 N 300.187 5.60775 -0.385701 0
M  V30 3214 H 292.338 1.79994 -1.12765 0
M  V30 3215 H 294.601 0.834808 -0.449222 0
M  V30 3216 H 294.307 3.33326 -1.12192 0
M  V30 3217 H 294.181 3.72659 0.583544 0
M  V30 3218 H 296.568 2.79902 0.934805 0
M  V30 3219 H 296.649 2.4316 -0.794144 0
M  V30 3220 H 296.293 4.9061 -1.31392 0
M  V30 3221 H 296.223 5.24816 0.43305 0
M  V30 3222 H 298.714 3.77785 -0.0932256 0
M  V30 3223 H 299.027 7.68489 -0.815113 0
M  V30 3224 H 297.372 6.91196 -0.726142 0
M  V30 3225 H 300.563 4.67674 -0.199687 0
M  V30 3226 H 300.736 6.4584 -0.528646 0
M  V30 3227 N 294.142 -0.090211 1.57342 0
M  V30 3228 C 295.089 -1.10909 2.02405 0
M  V30 3229 C 296.059 -1.39523 0.901252 0
M  V30 3230 O 297.244 -1.50903 1.1676 0
M  V30 3231 C 294.384 -2.42277 2.45755 0
M  V30 3232 C 293.497 -2.20352 3.71576 0
M  V30 3233 C 292.632 -3.45154 4.03785 0
M  V30 3234 C 291.671 -3.18512 5.22701 0
M  V30 3235 N 290.808 -4.35593 5.50639 0
M  V30 3236 H 295.648 -0.71782 2.89225 0
M  V30 3237 H 293.185 -0.342901 1.43048 0
M  V30 3238 H 295.143 -3.18951 2.68935 0
M  V30 3239 H 293.773 -2.79242 1.61938 0
M  V30 3240 H 292.825 -1.34458 3.55844 0
M  V30 3241 H 294.137 -1.96661 4.58395 0
M  V30 3242 H 293.291 -4.30233 4.27767 0
M  V30 3243 H 292.03 -3.71904 3.15498 0
M  V30 3244 H 291.035 -2.31827 4.98534 0
M  V30 3245 H 292.26 -2.93103 6.12591 0
M  V30 3246 H 290.206 -4.6241 4.6531 0
M  V30 3247 H 290.123 -4.1511 6.31838 0
M  V30 3248 H 291.391 -5.21723 5.7916 0
M  V30 3249 N 295.62 -1.53406 -0.361157 0
M  V30 3250 C 297.036 -1.43277 -0.703124 0
M  V30 3251 C 297.236 -0.575384 -1.9311 0
M  V30 3252 O 296.292 -0.0595362 -2.5243 0
M  V30 3253 C 297.605 -2.8653 -0.9122 0
M  V30 3254 C 299.153 -2.96191 -1.01193 0
M  V30 3255 C 299.628 -4.40514 -1.25345 0
M  V30 3256 N 301.119 -4.43962 -1.32105 0
M  V30 3257 C 301.854 -5.52746 -1.5251 0
M  V30 3258 N 301.35 -6.71567 -1.70203 0
M  V30 3259 N 303.143 -5.40331 -1.54916 0
M  V30 3260 H 295.294 -2.07654 0.446475 0
M  V30 3261 H 297.557 -0.937944 0.137715 0
M  V30 3262 H 297.263 -3.51605 -0.0816414 0
M  V30 3263 H 297.137 -3.30441 -1.81903 0
M  V30 3264 H 299.524 -2.31266 -1.83303 0
M  V30 3265 H 299.605 -2.55667 -0.0823929 0
M  V30 3266 H 299.249 -5.06014 -0.437346 0
M  V30 3267 H 299.179 -4.78614 -2.19627 0
M  V30 3268 H 301.67 -3.58332 -1.20028 0
M  V30 3269 H 301.983 -7.50241 -1.85359 0
M  V30 3270 H 300.328 -6.74545 -1.67373 0
M  V30 3271 H 303.519 -4.46465 -1.40663 0
M  V30 3272 H 303.692 -6.25173 -1.70477 0
M  V30 3273 N 297.098 0.621204 -1.44841 0
M  V30 3274 C 298.048 1.72663 -1.48901 0
M  V30 3275 C 299.032 1.56964 -0.353702 0
M  V30 3276 O 300.224 1.66532 -0.599669 0
M  V30 3277 C 297.353 3.11381 -1.44557 0
M  V30 3278 C 296.439 3.32514 -2.6324 0
M  V30 3279 N 296.83 3.23969 -3.8843 0
M  V30 3280 C 295.128 3.63343 -2.58647 0
M  V30 3281 C 295.829 3.46062 -4.67564 0
M  V30 3282 N 294.805 3.69407 -3.98797 0
M  V30 3283 H 298.607 1.64529 -2.43531 0
M  V30 3284 H 296.121 0.82401 -1.39942 0
M  V30 3285 H 298.118 3.90667 -1.4555 0
M  V30 3286 H 296.778 3.20674 -0.509731 0
M  V30 3287 H 297.789 3.02669 -4.20252 0
M  V30 3288 H 294.466 3.79556 -1.73906 0
M  V30 3289 H 295.856 3.44963 -5.76585 0
M  V30 3290 N 298.576 1.31904 0.862503 0
M  V30 3291 C 299.987 1.19803 1.43193 0
M  V30 3292 C 300.338 -0.192567 1.95253 0
M  V30 3293 O 299.463 -1.09081 1.86896 0
M  V30 3294 C 300.058 2.16883 2.60283 0
M  V30 3295 C 298.617 2.08692 3.13248 0
M  V30 3296 C 297.764 2.05691 1.85975 0
M  V30 3297 H 300.715 1.43846 0.670365 0
M  V30 3298 H 300.736 1.76278 3.37204 0
M  V30 3299 H 300.248 3.18083 2.22363 0
M  V30 3300 H 298.349 1.10713 3.55771 0
M  V30 3301 H 298.462 2.9815 3.75025 0
M  V30 3302 H 296.826 1.50814 2.05249 0
M  V30 3303 H 297.609 3.08659 1.50282 0
M  V30 3304 N 300.054 -1.07777 1.14986 0
M  V30 3305 C 300.986 -2.14769 0.800436 0
M  V30 3306 C 301.999 -1.61739 -0.185595 0
M  V30 3307 O 303.188 -1.78462 0.0370358 0
M  V30 3308 C 300.288 -3.38481 0.168533 0
M  V30 3309 C 299.461 -4.20876 1.1909 0
M  V30 3310 C 298.52 -5.22976 0.581575 0
M  V30 3311 O 297.546 -5.55388 1.24633 0
M  V30 3312 N 298.748 -5.76976 -0.638706 0
M  V30 3313 H 301.513 -2.45348 1.72118 0
M  V30 3314 H 299.074 -1.23645 1.04515 0
M  V30 3315 H 301.066 -4.03916 -0.251764 0
M  V30 3316 H 299.636 -3.05651 -0.655467 0
M  V30 3317 H 298.856 -3.51322 1.78791 0
M  V30 3318 H 300.144 -4.7274 1.88133 0
M  V30 3319 H 299.542 -5.52886 -1.19723 0
M  V30 3320 H 298.099 -6.44061 -1.00142 0
M  V30 3321 N 301.532 -0.945985 -1.26051 0
M  V30 3322 C 302.464 -0.416662 -2.25381 0
M  V30 3323 C 303.477 0.462712 -1.56086 0
M  V30 3324 O 304.666 0.272383 -1.7641 0
M  V30 3325 C 301.766 0.419812 -3.3629 0
M  V30 3326 C 300.939 -0.444531 -4.35135 0
M  V30 3327 C 299.998 0.332305 -5.2515 0
M  V30 3328 O 299.024 -0.266324 -5.68577 0
M  V30 3329 N 300.226 1.62763 -5.57215 0
M  V30 3330 H 302.991 -1.27059 -2.71433 0
M  V30 3331 H 300.552 -0.815392 -1.39868 0
M  V30 3332 H 302.544 0.947013 -3.93464 0
M  V30 3333 H 301.114 1.17456 -2.89694 0
M  V30 3334 H 300.334 -1.15291 -3.76964 0
M  V30 3335 H 301.622 -1.03478 -4.98166 0
M  V30 3336 H 301.02 2.13603 -5.23823 0
M  V30 3337 H 299.577 2.10097 -6.17011 0
M  V30 3338 N 303.011 1.40521 -0.713556 0
M  V30 3339 C 304.288 1.94775 -0.17943 0
M  V30 3340 C 304.668 1.65184 1.31444 0
M  V30 3341 O 304.016 0.968429 2.06963 0
M  V30 3342 C 304.226 3.45543 -0.489986 0
M  V30 3343 C 305.574 4.22442 -0.427536 0
M  V30 3344 O 306.598 3.53644 -0.425929 0
M  V30 3345 O 305.457 5.4501 -0.403292 0
M  V30 3346 H 302.551 0.826606 -0.0255192 0
M  V30 3347 H 305.097 1.5014 -0.790949 0
M  V30 3348 H 303.869 3.60432 -1.5233 0
M  V30 3349 H 303.492 3.97311 0.151598 0
M  V30 3350 N 304.489 0.459591 1.5075 0
M  V30 3351 C 305.422 -0.386257 2.24907 0
M  V30 3352 C 306.4 -1.006 1.27744 0
M  V30 3353 O 307.584 -1.04416 1.56938 0
M  V30 3354 C 304.711 -1.54021 3.01654 0
M  V30 3355 C 303.757 -1.03898 4.13651 0
M  V30 3356 S 304.59 0.0370501 5.35487 0
M  V30 3357 C 305.746 -1.12105 6.15779 0
M  V30 3358 H 305.979 0.243272 2.96303 0
M  V30 3359 H 303.512 0.244339 1.52454 0
M  V30 3360 H 305.47 -2.20163 3.46466 0
M  V30 3361 H 304.131 -2.14121 2.29806 0
M  V30 3362 H 303.324 -1.90254 4.66711 0
M  V30 3363 H 302.926 -0.45545 3.71216 0
M  V30 3364 H 305.218 -2.03501 6.46215 0
M  V30 3365 H 306.161 -0.62995 7.05292 0
M  V30 3366 H 306.569 -1.36967 5.47631 0
M  V30 3367 N 305.967 -1.56429 0.191757 0
M  V30 3368 C 307.216 -1.9666 -0.448088 0
M  V30 3369 C 307.529 -1.08136 -1.62991 0
M  V30 3370 O 308.735 -1.38135 -2.33733 0
M  V30 3371 C 307.191 -3.49753 -0.848585 0
M  V30 3372 C 306.799 -4.46935 0.308764 0
M  V30 3373 C 308.543 -3.9876 -1.4557 0
M  V30 3374 C 306.45 -5.91293 -0.112506 0
M  V30 3375 H 305.38 -0.734312 -0.171179 0
M  V30 3376 H 308.031 -1.81301 0.283242 0
M  V30 3377 H 306.413 -3.60604 -1.63649 0
M  V30 3378 H 307.587 -4.47813 1.08627 0
M  V30 3379 H 305.902 -4.08102 0.827158 0
M  V30 3380 H 308.499 -5.04086 -1.78328 0
M  V30 3381 H 308.842 -3.42875 -2.36099 0
M  V30 3382 H 309.375 -3.9101 -0.731836 0
M  V30 3383 H 306.114 -6.51097 0.758514 0
M  V30 3384 H 305.634 -5.93676 -0.854941 0
M  V30 3385 H 307.313 -6.44663 -0.549448 0
M  V30 3386 N 307.445 0.0818655 -1.57387 0
M  V30 3387 C 308.67 0.799946 -1.91352 0
M  V30 3388 C 309.095 1.70833 -0.787258 0
M  V30 3389 O 308.453 1.79419 0.26048 0
M  V30 3390 C 308.501 1.57812 -3.24234 0
M  V30 3391 O 307.605 2.68806 -3.12757 0
M  V30 3392 H 306.946 0.21891 -0.626877 0
M  V30 3393 H 309.476 0.0531256 -2.04531 0
M  V30 3394 H 309.486 1.95952 -3.57864 0
M  V30 3395 H 308.161 0.911548 -4.05788 0
M  V30 3396 H 306.738 2.33597 -2.90666 0
M  V30 3397 N 308.923 1.53595 0.353017 0
M  V30 3398 C 309.856 1.7572 1.45594 0
M  V30 3399 C 310.834 0.605961 1.50887 0
M  V30 3400 O 312.018 0.840023 1.68748 0
M  V30 3401 C 309.145 1.84732 2.83887 0
M  V30 3402 C 308.191 3.06808 2.96262 0
M  V30 3403 S 309.024 4.66065 2.63711 0
M  V30 3404 C 310.18 4.77943 4.04131 0
M  V30 3405 H 310.413 2.68994 1.26608 0
M  V30 3406 H 307.946 1.44343 0.548117 0
M  V30 3407 H 309.904 1.9061 3.63563 0
M  V30 3408 H 308.565 0.92488 3.00175 0
M  V30 3409 H 307.758 3.09761 3.97573 0
M  V30 3410 H 307.36 2.99108 2.24523 0
M  V30 3411 H 309.652 4.5877 4.98534 0
M  V30 3412 H 310.595 5.80022 4.06177 0
M  V30 3413 H 311.003 4.06472 3.91715 0
M  V30 3414 N 310.401 -0.613514 1.45168 0
M  V30 3415 C 311.331 -1.7354 1.56225 0
M  V30 3416 C 312.312 -1.64981 0.41414 0
M  V30 3417 O 313.497 -1.83472 0.636526 0
M  V30 3418 C 310.627 -3.12128 1.52295 0
M  V30 3419 C 309.581 -3.35491 2.65762 0
M  V30 3420 C 308.907 -4.74291 2.46885 0
M  V30 3421 C 310.207 -3.26325 4.0781 0
M  V30 3422 H 311.901 -1.64543 2.50132 0
M  V30 3423 H 309.447 -0.790185 1.20383 0
M  V30 3424 H 311.4 -3.90404 1.58628 0
M  V30 3425 H 310.124 -3.2195 0.549139 0
M  V30 3426 H 308.783 -2.59603 2.58847 0
M  V30 3427 H 308.431 -4.80839 1.47657 0
M  V30 3428 H 308.131 -4.9088 3.22972 0
M  V30 3429 H 309.655 -5.54775 2.55063 0
M  V30 3430 H 311.069 -3.94483 4.16 0
M  V30 3431 H 309.466 -3.54445 4.8424 0
M  V30 3432 H 310.536 -2.23855 4.30136 0
M  V30 3433 N 311.879 -1.3236 -0.855495 0
M  V30 3434 C 312.809 -1.23833 -1.97958 0
M  V30 3435 C 313.79 -0.122361 -1.69659 0
M  V30 3436 O 314.975 -0.30939 -1.9172 0
M  V30 3437 C 312.105 -0.959772 -3.33775 0
M  V30 3438 C 311.059 -2.03689 -3.76424 0
M  V30 3439 C 310.385 -1.61075 -5.09862 0
M  V30 3440 C 311.685 -3.4518 -3.9198 0
M  V30 3441 H 313.379 -2.1788 -2.0535 0
M  V30 3442 H 310.925 -1.04891 -0.986605 0
M  V30 3443 H 312.878 -0.886678 -4.11966 0
M  V30 3444 H 311.602 0.0163404 -3.26596 0
M  V30 3445 H 310.261 -2.10012 -3.00484 0
M  V30 3446 H 309.909 -0.622107 -4.99138 0
M  V30 3447 H 309.609 -2.33143 -5.39368 0
M  V30 3448 H 311.133 -1.55201 -5.90546 0
M  V30 3449 H 312.547 -3.4145 -4.60526 0
M  V30 3450 H 310.944 -4.1559 -4.32903 0
M  V30 3451 H 312.014 -3.84903 -2.94919 0
M  V30 3452 N 313.357 1.07166 -1.15556 0
M  V30 3453 C 314.304 2.14417 -0.854055 0
M  V30 3454 C 315.274 1.64965 0.193806 0
M  V30 3455 O 316.459 1.90703 0.0609443 0
M  V30 3456 C 313.599 3.43304 -0.351574 0
M  V30 3457 C 312.712 4.06537 -1.46123 0
M  V30 3458 C 311.847 5.23266 -0.914677 0
M  V30 3459 C 310.886 5.78464 -2.00114 0
M  V30 3460 N 310.023 6.86521 -1.47083 0
M  V30 3461 H 314.863 2.39548 -1.77259 0
M  V30 3462 H 312.4 1.17543 -0.884425 0
M  V30 3463 H 314.358 4.17179 -0.0419409 0
M  V30 3464 H 312.988 3.18419 0.530037 0
M  V30 3465 H 312.04 3.30297 -1.88701 0
M  V30 3466 H 313.352 4.43567 -2.28144 0
M  V30 3467 H 312.506 6.04131 -0.557698 0
M  V30 3468 H 311.245 4.87658 -0.0636583 0
M  V30 3469 H 310.25 4.96243 -2.36692 0
M  V30 3470 H 311.475 6.16126 -2.85597 0
M  V30 3471 H 309.421 6.52849 -0.642198 0
M  V30 3472 H 309.338 7.22446 -2.22729 0
M  V30 3473 H 310.606 7.71087 -1.14215 0
M  V30 3474 N 314.835 0.952656 1.25548 0
M  V30 3475 C 316.083 0.605176 1.92826 0
M  V30 3476 C 316.404 -0.860261 1.74999 0
M  V30 3477 O 315.674 -1.6125 1.11244 0
M  V30 3478 H 314.254 0.220832 0.713612 0
M  V30 3479 H 316.916 1.21047 1.52754 0
M  V30 3480 H 316.012 0.832798 3.00784 0
M  V30 3481 N 316.313 -1.40141 0.720998 0
M  V30 3482 C 317.729 -1.54632 0.395113 0
M  V30 3483 C 317.929 -1.69115 -1.09555 0
M  V30 3484 O 316.985 -1.68377 -1.88163 0
M  V30 3485 C 318.298 -2.77177 1.1659 0
M  V30 3486 C 319.846 -2.91 1.15274 0
M  V30 3487 C 320.321 -4.16465 1.90579 0
M  V30 3488 N 321.812 -4.23476 1.87675 0
M  V30 3489 C 322.547 -5.19475 2.42762 0
M  V30 3490 N 322.043 -6.21348 3.06428 0
M  V30 3491 N 323.836 -5.11592 2.32874 0
M  V30 3492 H 315.987 -1.28986 1.68749 0
M  V30 3493 H 318.25 -0.62412 0.713567 0
M  V30 3494 H 317.956 -2.72771 2.22011 0
M  V30 3495 H 317.83 -3.69442 0.76108 0
M  V30 3496 H 320.217 -2.94907 0.106702 0
M  V30 3497 H 320.298 -1.99838 1.59682 0
M  V30 3498 H 319.942 -4.1332 2.95176 0
M  V30 3499 H 319.872 -5.06646 1.43587 0
M  V30 3500 H 322.363 -3.50497 1.41281 0
M  V30 3501 H 322.676 -6.91034 3.45965 0
M  V30 3502 H 321.021 -6.21777 3.10514 0
M  V30 3503 H 324.212 -4.30936 1.82789 0
M  V30 3504 H 324.385 -5.86233 2.76106 0
M  V30 3505 N 317.792 -0.46758 -1.50504 0
M  V30 3506 C 318.702 0.33382 -2.32213 0
M  V30 3507 C 319.718 0.999323 -1.42441 0
M  V30 3508 O 320.894 0.988068 -1.75497 0
M  V30 3509 C 317.959 1.4035 -3.17022 0
M  V30 3510 C 317.02 0.754961 -4.2261 0
M  V30 3511 C 316.253 1.77367 -5.03365 0
M  V30 3512 O 316.476 2.99976 -4.8515 0
M  V30 3513 O 315.41 1.34744 -5.86624 0
M  V30 3514 H 319.236 -0.334067 -3.01857 0
M  V30 3515 H 316.821 -0.229496 -1.47627 0
M  V30 3516 H 318.703 2.02318 -3.69656 0
M  V30 3517 H 317.378 2.05492 -2.5011 0
M  V30 3518 H 316.285 0.0964244 -3.73976 0
M  V30 3519 H 317.618 0.146545 -4.91982 0
M  V30 3520 N 319.27 1.56325 -0.20005 0
M  V30 3521 C 320.217 2.1932 0.718833 0
M  V30 3522 C 321.187 1.14198 1.20615 0
M  V30 3523 O 322.372 1.42469 1.26914 0
M  V30 3524 C 319.512 2.86041 1.93066 0
M  V30 3525 C 318.625 4.05702 1.48425 0
M  V30 3526 C 317.76 4.60266 2.65196 0
M  V30 3527 C 316.799 5.72273 2.17185 0
M  V30 3528 N 315.936 6.21221 3.27152 0
M  V30 3529 H 320.776 2.97486 0.17489 0
M  V30 3530 H 318.313 1.46911 0.0745794 0
M  V30 3531 H 320.271 3.22897 2.64184 0
M  V30 3532 H 318.901 2.1043 2.44783 0
M  V30 3533 H 317.953 3.74475 0.668755 0
M  V30 3534 H 319.265 4.86699 1.09204 0
M  V30 3535 H 318.419 4.99453 3.4443 0
M  V30 3536 H 317.158 3.78386 3.07693 0
M  V30 3537 H 316.163 5.3261 1.36407 0
M  V30 3538 H 317.388 6.55974 1.75713 0
M  V30 3539 H 315.334 5.42263 3.69171 0
M  V30 3540 H 315.251 6.97284 2.92116 0
M  V30 3541 H 316.519 6.65063 4.06585 0
M  V30 3542 N 320.748 -0.0735177 1.57428 0
M  V30 3543 C 322.025 -0.805903 1.78226 0
M  V30 3544 C 322.405 -1.95874 0.787189 0
M  V30 3545 O 321.753 -2.2779 -0.180029 0
M  V30 3546 C 321.963 -1.28045 3.24662 0
M  V30 3547 C 323.311 -1.71453 3.88444 0
M  V30 3548 O 324.335 -1.37616 3.28543 0
M  V30 3549 O 323.194 -2.34093 4.93825 0
M  V30 3550 H 320.288 -0.386041 0.73137 0
M  V30 3551 H 322.834 -0.0537269 1.69615 0
M  V30 3552 H 321.606 -0.455476 3.8864 0
M  V30 3553 H 321.229 -2.094 3.37991 0
M  V30 3554 N 322.226 -1.5378 -0.344866 0
M  V30 3555 C 323.173 -1.81676 -1.42346 0
M  V30 3556 C 324.143 -0.662376 -1.52321 0
M  V30 3557 O 325.328 -0.906675 -1.67881 0
M  V30 3558 C 322.468 -2.03087 -2.79015 0
M  V30 3559 C 321.581 -3.30799 -2.77842 0
M  V30 3560 C 320.716 -3.42285 -4.0622 0
M  V30 3561 C 319.755 -4.6395 -3.9927 0
M  V30 3562 N 318.892 -4.72477 -5.19336 0
M  V30 3563 H 323.732 -2.73703 -1.17858 0
M  V30 3564 H 321.269 -1.35568 -0.570949 0
M  V30 3565 H 323.227 -2.1349 -3.58438 0
M  V30 3566 H 321.857 -1.14375 -3.01858 0
M  V30 3567 H 320.909 -3.29244 -1.90533 0
M  V30 3568 H 322.221 -4.20314 -2.68584 0
M  V30 3569 H 321.375 -3.52113 -4.94066 0
M  V30 3570 H 320.114 -2.50823 -4.18258 0
M  V30 3571 H 319.119 -4.54201 -3.09809 0
M  V30 3572 H 320.344 -5.56775 -3.88817 0
M  V30 3573 H 318.29 -3.83924 -5.3192 0
M  V30 3574 H 318.207 -5.55927 -5.12329 0
M  V30 3575 H 319.475 -4.86613 -6.08957 0
M  V30 3576 N 323.704 0.605807 -1.45491 0
M  V30 3577 C 324.634 1.72709 -1.57143 0
M  V30 3578 C 325.615 1.6476 -0.422884 0
M  V30 3579 O 326.8 1.83132 -0.646247 0
M  V30 3580 C 323.93 3.11316 -1.53948 0
M  V30 3581 C 322.884 3.34077 -2.67537 0
M  V30 3582 C 322.21 4.72975 -2.49397 0
M  V30 3583 C 323.51 3.24158 -4.09535 0
M  V30 3584 H 325.204 1.63214 -2.51001 0
M  V30 3585 H 322.75 0.78379 -1.208 0
M  V30 3586 H 324.703 3.89557 -1.60696 0
M  V30 3587 H 323.427 3.21655 -0.566205 0
M  V30 3588 H 322.086 2.58227 -2.6022 0
M  V30 3589 H 321.734 4.8005 -1.50205 0
M  V30 3590 H 321.434 4.8916 -3.25571 0
M  V30 3591 H 322.958 5.53414 -2.58002 0
M  V30 3592 H 324.372 3.92271 -4.18086 0
M  V30 3593 H 322.769 3.51872 -4.86113 0
M  V30 3594 H 323.839 2.2157 -4.31317 0
M  V30 3595 N 325.182 1.32811 0.848464 0
M  V30 3596 C 326.41 1.26739 1.63538 0
M  V30 3597 C 326.825 -0.163484 1.88091 0
M  V30 3598 O 326.182 -1.10258 1.45429 0
M  V30 3599 C 326.233 2.03013 2.99112 0
M  V30 3600 O 325.954 3.40518 2.75643 0
M  V30 3601 C 327.455 2.04038 3.93552 0
M  V30 3602 H 324.675 0.437024 0.509167 0
M  V30 3603 H 327.219 1.75033 1.05753 0
M  V30 3604 H 325.374 1.58426 3.53525 0
M  V30 3605 H 325.788 3.79635 3.61908 0
M  V30 3606 H 327.262 2.61877 4.85926 0
M  V30 3607 H 327.739 1.0282 4.26995 0
M  V30 3608 H 328.345 2.486 3.45077 0
M  V30 3609 N 326.66 -1.06551 1.16123 0
M  V30 3610 C 327.57 -2.17484 0.879662 0
M  V30 3611 C 328.586 -1.73377 -0.147104 0
M  V30 3612 O 329.762 -2.01379 0.0289128 0
M  V30 3613 C 326.827 -3.44591 0.381829 0
M  V30 3614 C 325.888 -4.0322 1.4735 0
M  V30 3615 C 325.121 -5.24261 0.999324 0
M  V30 3616 O 325.344 -5.70198 -0.151957 0
M  V30 3617 O 324.278 -5.74775 1.78653 0
M  V30 3618 H 328.104 -2.44075 1.80724 0
M  V30 3619 H 325.689 -1.16042 0.940992 0
M  V30 3620 H 327.571 -4.21254 0.111053 0
M  V30 3621 H 326.246 -3.19532 -0.51777 0
M  V30 3622 H 325.153 -3.2806 1.79798 0
M  V30 3623 H 326.486 -4.32568 2.34831 0
M  V30 3624 N 328.138 -0.959301 -1.25041 0
M  V30 3625 C 329.048 -0.489994 -2.29426 0
M  V30 3626 C 330.064 0.444944 -1.68215 0
M  V30 3627 O 331.24 0.320046 -1.98841 0
M  V30 3628 C 328.305 0.220309 -3.45999 0
M  V30 3629 C 327.366 -0.753418 -4.22637 0
M  V30 3630 C 326.599 -0.076918 -5.33645 0
M  V30 3631 O 326.822 1.13649 -5.58963 0
M  V30 3632 O 325.756 -0.764824 -5.97021 0
M  V30 3633 H 329.582 -1.35755 -2.71669 0
M  V30 3634 H 327.167 -0.725961 -1.30576 0
M  V30 3635 H 329.049 0.619677 -4.16819 0
M  V30 3636 H 327.724 1.06296 -3.0575 0
M  V30 3637 H 326.631 -1.20308 -3.54227 0
M  V30 3638 H 327.964 -1.56423 -4.66683 0
M  V30 3639 N 329.616 1.39756 -0.72842 0
M  V30 3640 C 330.526 2.34444 -0.0855374 0
M  V30 3641 C 331.542 1.57976 0.729356 0
M  V30 3642 O 332.718 1.90301 0.659346 0
M  V30 3643 C 329.783 3.36965 0.815798 0
M  V30 3644 C 328.844 4.29299 -0.0105996 0
M  V30 3645 C 328.077 5.26923 0.84781 0
M  V30 3646 O 328.3 5.30859 2.08673 0
M  V30 3647 O 327.234 6.01249 0.279969 0
M  V30 3648 H 331.06 2.91065 -0.866892 0
M  V30 3649 H 328.645 1.4117 -0.48902 0
M  V30 3650 H 330.527 3.99804 1.33171 0
M  V30 3651 H 329.202 2.82739 1.57608 0
M  V30 3652 H 328.109 3.69703 -0.571877 0
M  V30 3653 H 329.442 4.86712 -0.73295 0
M  V30 3654 N 331.094 0.475555 1.50254 0
M  V30 3655 C 332.057 -0.305016 2.27161 0
M  V30 3656 C 333.057 -0.916519 1.32123 0
M  V30 3657 O 334.247 -0.785003 1.5551 0
M  V30 3658 C 331.379 -1.43496 3.09227 0
M  V30 3659 H 332.572 0.369511 2.97615 0
M  V30 3660 H 330.125 0.229747 1.54602 0
M  V30 3661 H 330.86 -2.14441 2.43281 0
M  V30 3662 H 330.645 -1.00223 3.79075 0
M  V30 3663 H 332.135 -1.98548 3.67381 0
M  V30 3664 N 332.573 -1.56217 0.208337 0
M  V30 3665 C 333.536 -2.18455 -0.693557 0
M  V30 3666 C 334.536 -1.14268 -1.13135 0
M  V30 3667 O 335.726 -1.39577 -1.0423 0
M  V30 3668 C 332.858 -2.79727 -1.94848 0
M  V30 3669 H 334.051 -2.99519 -0.15114 0
M  V30 3670 H 331.604 -1.56245 -0.041287 0
M  V30 3671 H 332.339 -2.02497 -2.53309 0
M  V30 3672 H 332.124 -3.56009 -1.64316 0
M  V30 3673 H 333.614 -3.27475 -2.59133 0
M  V30 3674 N 334.051 0.0651679 -1.57465 0
M  V30 3675 C 335.276 0.779605 -1.9219 0
M  V30 3676 C 335.701 1.69988 -0.805333 0
M  V30 3677 O 335.059 1.79685 0.241435 0
M  V30 3678 C 335.107 1.54364 -3.2589 0
M  V30 3679 O 334.211 2.65474 -3.1559 0
M  V30 3680 H 333.552 0.212249 -0.629163 0
M  V30 3681 H 336.082 0.0314294 -2.04576 0
M  V30 3682 H 336.092 1.92146 -3.59922 0
M  V30 3683 H 334.767 0.868457 -4.06732 0
M  V30 3684 H 333.344 2.30501 -2.93128 0
M  V30 3685 N 335.529 1.53961 0.336706 0
M  V30 3686 C 336.757 1.75483 1.09605 0
M  V30 3687 C 337.172 0.4972 1.82136 0
M  V30 3688 O 336.529 -0.53149 1.74589 0
M  V30 3689 C 336.58 2.93943 2.10428 0
M  V30 3690 O 336.301 4.14842 1.40846 0
M  V30 3691 C 337.802 3.27571 2.98684 0
M  V30 3692 H 335.022 0.586166 0.326574 0
M  V30 3693 H 337.566 2.00808 0.38683 0
M  V30 3694 H 335.721 2.70929 2.76905 0
M  V30 3695 H 336.135 4.81383 2.08255 0
M  V30 3696 H 337.609 4.13791 3.6535 0
M  V30 3697 H 338.086 2.44168 3.65074 0
M  V30 3698 H 338.692 3.52615 2.37787 0
M  V30 3699 N 337.007 -0.598083 1.45811 0
M  V30 3700 C 338.247 -1.36802 1.5187 0
M  V30 3701 C 338.611 -1.9133 0.160224 0
M  V30 3702 O 339.812 -2.6863 0.0955302 0
M  V30 3703 C 338.083 -2.47835 2.57513 0
M  V30 3704 S 339.642 -3.35458 2.82866 0
M  V30 3705 H 336.46 -0.466278 0.536755 0
M  V30 3706 H 339.062 -0.689152 1.82951 0
M  V30 3707 H 337.766 -2.06141 3.54872 0
M  V30 3708 H 337.297 -3.20512 2.28114 0
M  V30 3709 H 339.312 -4.46251 2.16967 0
M  V30 3710 N 338.485 -1.33259 -0.841409 0
M  V30 3711 C 339.734 -1.23921 -1.59143 0
M  V30 3712 C 340.047 0.1941 -1.94635 0
M  V30 3713 O 341.253 0.409474 -2.68394 0
M  V30 3714 C 339.709 -2.17119 -2.87032 0
M  V30 3715 C 339.317 -3.65606 -2.58914 0
M  V30 3716 C 341.061 -2.16648 -3.65053 0
M  V30 3717 C 338.968 -4.50726 -3.82884 0
M  V30 3718 H 337.898 -0.460264 -0.597221 0
M  V30 3719 H 340.549 -1.58307 -0.927959 0
M  V30 3720 H 338.931 -1.75663 -3.54906 0
M  V30 3721 H 340.105 -4.15487 -1.99267 0
M  V30 3722 H 338.42 -3.68341 -1.942 0
M  V30 3723 H 341.017 -2.77474 -4.57069 0
M  V30 3724 H 341.36 -1.16088 -3.99787 0
M  V30 3725 H 341.893 -2.56453 -3.041 0
M  V30 3726 H 338.632 -5.52151 -3.53283 0
M  V30 3727 H 338.152 -4.0559 -4.41879 0
M  V30 3728 H 339.831 -4.64401 -4.50489 0
M  V30 3729 N 339.963 1.05934 -1.16686 0
M  V30 3730 C 340.893 2.1546 -0.899949 0
M  V30 3731 C 341.874 1.69391 0.155154 0
M  V30 3732 O 343.059 1.94199 0.00648693 0
M  V30 3733 C 340.189 3.44939 -0.404241 0
M  V30 3734 C 339.143 4.04536 -1.39767 0
M  V30 3735 C 338.469 5.29268 -0.760216 0
M  V30 3736 C 339.769 4.42893 -2.76845 0
M  V30 3737 H 341.463 2.38046 -1.81588 0
M  V30 3738 H 339.009 1.14404 -0.874514 0
M  V30 3739 H 340.962 4.20901 -0.204971 0
M  V30 3740 H 339.686 3.21983 0.547206 0
M  V30 3741 H 338.345 3.30635 -1.58355 0
M  V30 3742 H 337.993 5.02611 0.197831 0
M  V30 3743 H 337.693 5.70101 -1.42332 0
M  V30 3744 H 339.217 6.07924 -0.57105 0
M  V30 3745 H 340.631 5.09921 -2.62019 0
M  V30 3746 H 339.028 4.94721 -3.39663 0
M  V30 3747 H 340.098 3.53584 -3.31823 0
M  V30 3748 N 341.441 0.965919 1.2453 0
M  V30 3749 C 342.371 0.513476 2.27784 0
M  V30 3750 C 343.352 -0.445974 1.6415 0
M  V30 3751 O 344.537 -0.342485 1.91156 0
M  V30 3752 C 341.667 -0.198839 3.4673 0
M  V30 3753 C 340.621 0.676456 4.2262 0
M  V30 3754 C 339.947 -0.167248 5.34438 0
M  V30 3755 C 341.247 1.96017 4.84123 0
M  V30 3756 H 342.941 1.3765 2.65881 0
M  V30 3757 H 340.487 0.663321 1.27813 0
M  V30 3758 H 342.44 -0.526567 4.18097 0
M  V30 3759 H 341.164 -1.0962 3.07654 0
M  V30 3760 H 339.823 0.98743 3.53052 0
M  V30 3761 H 339.471 -1.0647 4.91603 0
M  V30 3762 H 339.171 0.415181 5.86131 0
M  V30 3763 H 340.695 -0.489688 6.08633 0
M  V30 3764 H 342.109 1.69814 5.47573 0
M  V30 3765 H 340.506 2.48918 5.4604 0
M  V30 3766 H 341.576 2.65622 4.05676 0
M  V30 3767 N 342.919 -1.39368 0.735821 0
M  V30 3768 C 343.882 -2.2896 0.104874 0
M  V30 3769 C 344.882 -1.46347 -0.666274 0
M  V30 3770 O 346.072 -1.67014 -0.49517 0
M  V30 3771 C 343.204 -3.29857 -0.860656 0
M  V30 3772 H 344.397 -2.86259 0.894205 0
M  V30 3773 H 341.95 -1.48029 0.501704 0
M  V30 3774 H 342.685 -2.77615 -1.67631 0
M  V30 3775 H 342.47 -3.9087 -0.310327 0
M  V30 3776 H 343.96 -3.96893 -1.29867 0
M  V30 3777 N 344.397 -0.483516 -1.5 0
M  V30 3778 C 345.646 0.0689102 -2.01582 0
M  V30 3779 C 345.959 1.39655 -1.36952 0
M  V30 3780 O 347.165 2.03465 -1.79762 0
M  V30 3781 C 345.621 0.173302 -3.59483 0
M  V30 3782 C 345.229 -1.14665 -4.33077 0
M  V30 3783 C 346.973 0.677024 -4.19066 0
M  V30 3784 C 344.88 -1.00537 -5.82792 0
M  V30 3785 H 343.81 0.0295277 -0.753422 0
M  V30 3786 H 346.461 -0.620295 -1.72698 0
M  V30 3787 H 344.843 0.926569 -3.85007 0
M  V30 3788 H 346.017 -1.91184 -4.19268 0
M  V30 3789 H 344.332 -1.58244 -3.85159 0
M  V30 3790 H 346.929 0.799952 -5.28682 0
M  V30 3791 H 347.272 1.67151 -3.81269 0
M  V30 3792 H 347.805 -0.0192083 -3.97795 0
M  V30 3793 H 344.544 -1.9736 -6.25083 0
M  V30 3794 H 344.064 -0.280776 -5.99142 0
M  V30 3795 H 345.743 -0.677 -6.43448 0
M  V30 3796 N 345.875 1.56104 -0.216619 0
M  V30 3797 C 346.838 2.18819 0.681962 0
M  V30 3798 C 347.838 1.14866 1.12528 0
M  V30 3799 O 349.028 1.40128 1.03488 0
M  V30 3800 C 346.16 2.80756 1.93362 0
M  V30 3801 H 347.353 2.99595 0.135254 0
M  V30 3802 H 344.906 1.56265 0.0330003 0
M  V30 3803 H 345.641 2.03837 2.52232 0
M  V30 3804 H 345.426 3.56876 1.62426 0
M  V30 3805 H 346.916 3.28844 2.57393 0
M  V30 3806 N 347.353 -0.0568162 1.57498 0
M  V30 3807 C 348.601 -0.751617 1.87604 0
M  V30 3808 C 348.922 -1.77351 0.81066 0
M  V30 3809 O 348.192 -1.95254 -0.159018 0
M  V30 3810 H 346.772 -0.280583 0.692302 0
M  V30 3811 H 349.434 -0.0293483 1.94878 0
M  V30 3812 H 348.53 -1.25852 2.856 0
M  V30 3813 N 348.832 -1.54138 -0.328536 0
M  V30 3814 C 349.782 -1.79557 -1.4051 0
M  V30 3815 C 350.766 -0.651373 -1.47126 0
M  V30 3816 O 351.958 -0.911226 -1.51742 0
M  V30 3817 C 349.087 -2.02196 -2.77438 0
M  V30 3818 C 348.173 -3.22724 -2.75155 0
M  V30 3819 N 348.564 -4.43881 -2.42494 0
M  V30 3820 C 346.862 -3.24196 -3.06289 0
M  V30 3821 C 347.563 -5.25797 -2.48822 0
M  V30 3822 N 346.539 -4.62862 -2.8506 0
M  V30 3823 H 350.341 -2.70814 -1.1418 0
M  V30 3824 H 347.855 -1.53265 -0.536991 0
M  V30 3825 H 349.852 -2.18546 -3.55026 0
M  V30 3826 H 348.512 -1.12191 -3.04702 0
M  V30 3827 H 349.523 -4.70969 -2.15428 0
M  V30 3828 H 346.2 -2.44208 -3.38627 0
M  V30 3829 H 347.59 -6.32535 -2.26603 0
M  V30 3830 N 350.31 0.590341 -1.46126 0
M  V30 3831 C 351.22 1.72793 -1.58681 0
M  V30 3832 C 352.236 1.67516 -0.470566 0
M  V30 3833 O 353.412 1.87562 -0.733642 0
M  V30 3834 C 350.477 3.09287 -1.5666 0
M  V30 3835 C 349.538 3.25886 -2.79458 0
M  V30 3836 C 348.771 4.55869 -2.77524 0
M  V30 3837 O 348.994 5.3928 -1.85832 0
M  V30 3838 O 347.928 4.75552 -3.68964 0
M  V30 3839 H 351.754 1.65149 -2.54872 0
M  V30 3840 H 349.339 0.756486 -1.28832 0
M  V30 3841 H 351.221 3.90577 -1.58202 0
M  V30 3842 H 349.896 3.17385 -0.636271 0
M  V30 3843 H 348.803 2.44119 -2.83472 0
M  V30 3844 H 350.136 3.22675 -3.71674 0
M  V30 3845 N 351.788 1.33704 0.83433 0
M  V30 3846 C 353.016 1.28467 1.62185 0
M  V30 3847 C 353.431 -0.143526 1.88254 0
M  V30 3848 O 352.788 -1.08709 1.4659 0
M  V30 3849 C 352.839 2.06174 2.96942 0
M  V30 3850 O 352.56 3.43422 2.72016 0
M  V30 3851 C 354.061 2.08201 3.91366 0
M  V30 3852 H 351.281 0.4424 0.504503 0
M  V30 3853 H 353.825 1.76145 1.03891 0
M  V30 3854 H 351.98 1.62167 3.51825 0
M  V30 3855 H 352.394 3.83453 3.57861 0
M  V30 3856 H 353.868 2.67017 4.83121 0
M  V30 3857 H 354.345 1.07343 4.2588 0
M  V30 3858 H 354.951 2.52246 3.42421 0
M  V30 3859 N 353.266 -1.05314 1.17247 0
M  V30 3860 C 354.494 -1.81971 0.984593 0
M  V30 3861 C 354.909 -1.82929 -0.467166 0
M  V30 3862 O 354.266 -1.25564 -1.32438 0
M  V30 3863 C 354.317 -3.28143 1.51672 0
M  V30 3864 O 354.038 -3.27347 2.91163 0
M  V30 3865 C 355.539 -4.21493 1.37326 0
M  V30 3866 H 352.759 -0.573455 0.348411 0
M  V30 3867 H 355.303 -1.32808 1.55506 0
M  V30 3868 H 353.458 -3.74582 0.988302 0
M  V30 3869 H 353.872 -4.18824 3.15732 0
M  V30 3870 H 355.346 -5.22043 1.79375 0
M  V30 3871 H 355.823 -4.38031 0.320169 0
M  V30 3872 H 356.429 -3.80909 1.89178 0
M  V30 3873 N 354.744 -0.972509 -1.24016 0
M  V30 3874 C 355.99 -0.637978 -1.92504 0
M  V30 3875 C 356.323 0.825383 -1.75787 0
M  V30 3876 O 355.598 1.59442 -1.11393 0
M  V30 3877 C 355.881 -1.01942 -3.45369 0
M  V30 3878 C 355.734 -2.53983 -3.71231 0
M  V30 3879 C 357.053 -0.55751 -4.36555 0
M  V30 3880 H 354.172 -0.233248 -0.699117 0
M  V30 3881 H 356.814 -1.21238 -1.46292 0
M  V30 3882 H 354.964 -0.530656 -3.84859 0
M  V30 3883 H 356.636 -3.10374 -3.41271 0
M  V30 3884 H 354.879 -2.96968 -3.16216 0
M  V30 3885 H 355.55 -2.75723 -4.78206 0
M  V30 3886 H 358.026 -0.977029 -4.04467 0
M  V30 3887 H 356.902 -0.85292 -5.42233 0
M  V30 3888 H 357.163 0.542328 -4.38761 0
M  V30 3889 N 356.222 1.38976 -0.743202 0
M  V30 3890 C 357.17 2.32394 -0.0978389 0
M  V30 3891 C 358.164 1.53486 0.716824 0
M  V30 3892 O 359.37 1.69092 0.617088 0
M  V30 3893 H 355.745 0.75189 -0.0128402 0
M  V30 3894 H 357.716 2.84441 -0.901981 0
M  V30 3895 C 356.465 3.38629 0.789036 0
M  V30 3896 H 355.788 3.99432 0.171559 0
M  V30 3897 H 357.228 4.06426 1.20807 0
M  V30 3898 C 355.687 2.76347 1.92702 0
M  V30 3899 O 356.217 2.64836 3.02034 0
M  V30 3900 N 354.423 2.34311 1.71891 0
M  V30 3901 H 353.97 2.43873 0.829675 0
M  V30 3902 H 353.928 1.9298 2.48205 0
M  V30 3903 N 357.7 0.491464 1.49741 0
M  V30 3904 C 358.63 -0.28154 2.31796 0
M  V30 3905 C 359.611 -0.971473 1.3963 0
M  V30 3906 O 360.796 -0.964719 1.68543 0
M  V30 3907 C 357.926 -1.35203 3.19902 0
M  V30 3908 C 356.88 -0.782529 4.20786 0
M  V30 3909 C 356.206 -1.95283 4.97764 0
M  V30 3910 C 357.506 0.21999 5.21837 0
M  V30 3911 H 359.2 0.403355 2.96671 0
M  V30 3912 H 356.746 0.195425 1.42668 0
M  V30 3913 H 358.699 -1.90045 3.76113 0
M  V30 3914 H 357.423 -2.06598 2.52953 0
M  V30 3915 H 356.082 -0.255928 3.65706 0
M  V30 3916 H 355.73 -2.65423 4.2727 0
M  V30 3917 H 355.43 -1.57789 5.66018 0
M  V30 3918 H 356.954 -2.50577 5.56816 0
M  V30 3919 H 358.368 -0.23996 5.72798 0
M  V30 3920 H 356.765 0.51026 5.97927 0
M  V30 3921 H 357.835 1.13911 4.7133 0
M  V30 3922 N 359.178 -1.55987 0.224894 0
M  V30 3923 C 360.427 -1.97566 -0.406273 0
M  V30 3924 C 360.74 -1.11569 -1.6066 0
M  V30 3925 O 361.946 -1.43062 -2.3075 0
M  V30 3926 C 360.402 -3.51474 -0.774207 0
M  V30 3927 C 360.01 -4.46179 0.403496 0
M  V30 3928 C 361.754 -4.01758 -1.37079 0
M  V30 3929 C 359.661 -5.91399 0.0129412 0
M  V30 3930 H 358.591 -0.737777 -0.155565 0
M  V30 3931 H 361.242 -1.80659 0.321635 0
M  V30 3932 H 359.624 -3.63994 -1.55963 0
M  V30 3933 H 360.798 -4.45409 1.18101 0
M  V30 3934 H 359.113 -4.06255 0.913536 0
M  V30 3935 H 361.71 -5.07756 -1.67596 0
M  V30 3936 H 362.053 -3.47805 -2.28773 0
M  V30 3937 H 362.586 -3.92475 -0.648733 0
M  V30 3938 H 359.325 -6.49341 0.896451 0
M  V30 3939 H 358.845 -5.95356 -0.728821 0
M  V30 3940 H 360.524 -6.45683 -0.412582 0
M  V30 3941 N 360.656 0.0484629 -1.57525 0
M  V30 3942 C 361.881 0.759177 -1.93006 0
M  V30 3943 C 362.306 1.69125 -0.823317 0
M  V30 3944 O 361.664 1.79931 0.222364 0
M  V30 3945 C 361.712 1.50899 -3.27509 0
M  V30 3946 O 360.816 2.62112 -3.18388 0
M  V30 3947 H 360.157 0.205564 -0.631379 0
M  V30 3948 H 362.687 0.00972959 -2.04598 0
M  V30 3949 H 362.697 1.88317 -3.6194 0
M  V30 3950 H 361.372 0.825269 -4.0763 0
M  V30 3951 H 359.949 2.27379 -2.95556 0
M  V30 3952 N 362.134 1.5431 0.320358 0
M  V30 3953 C 363.082 1.84647 1.4145 0
M  V30 3954 C 364.076 0.718624 1.53402 0
M  V30 3955 O 365.282 0.902335 1.5575 0
M  V30 3956 H 361.657 0.585349 0.472091 0
M  V30 3957 H 363.628 2.7614 1.13089 0
M  V30 3958 C 362.377 2.09341 2.77617 0
M  V30 3959 H 361.7 2.9559 2.69196 0
M  V30 3960 H 363.14 2.3452 3.53237 0
M  V30 3961 C 361.599 0.885939 3.25043 0
M  V30 3962 O 362.129 0.0967891 4.01583 0
M  V30 3963 N 360.335 0.696682 2.82125 0
M  V30 3964 H 359.882 1.34006 2.2 0
M  V30 3965 H 359.84 -0.109712 3.14209 0
M  V30 3966 N 363.613 -0.582584 1.46437 0
M  V30 3967 C 364.838 -1.37168 1.55563 0
M  V30 3968 C 365.263 -1.87061 0.19743 0
M  V30 3969 O 364.621 -1.61572 -0.822451 0
M  V30 3970 C 364.669 -2.53511 2.56446 0
M  V30 3971 O 363.773 -3.54953 2.09958 0
M  V30 3972 H 363.114 -0.408494 0.523477 0
M  V30 3973 H 365.644 -0.706646 1.9201 0
M  V30 3974 H 365.654 -3.00426 2.76058 0
M  V30 3975 H 364.329 -2.16549 3.55076 0
M  V30 3976 H 362.906 -3.14516 2.00334 0
M  V30 3977 N 365.091 -1.34144 -0.827227 0
M  V30 3978 C 366.337 -1.26446 -1.58554 0
M  V30 3979 C 366.67 0.1664 -1.93486 0
M  V30 3980 O 365.945 1.1107 -1.59667 0
M  V30 3981 C 366.228 -2.15111 -2.8879 0
M  V30 3982 C 366.081 -3.66712 -2.60465 0
M  V30 3983 C 367.4 -2.03311 -3.90324 0
M  V30 3984 H 364.519 -0.46067 -0.575284 0
M  V30 3985 H 367.161 -1.64356 -0.953269 0
M  V30 3986 H 365.311 -1.8291 -3.42748 0
M  V30 3987 H 366.983 -4.09259 -2.1285 0
M  V30 3988 H 365.226 -3.88014 -1.93978 0
M  V30 3989 H 365.897 -4.24112 -3.53317 0
M  V30 3990 H 368.373 -2.31574 -3.45706 0
M  V30 3991 H 367.249 -2.67582 -4.79261 0
M  V30 3992 H 367.51 -1.00879 -4.30437 0
M  V30 3993 N 366.569 1.04691 -1.17803 0
M  V30 3994 C 367.499 2.14494 -0.92275 0
M  V30 3995 C 368.48 1.69546 0.137179 0
M  V30 3996 O 369.665 1.94195 -0.0141108 0
M  V30 3997 C 366.795 3.44491 -0.440803 0
M  V30 3998 C 365.749 4.03031 -1.4405 0
M  V30 3999 C 365.075 5.28432 -0.81631 0
M  V30 4000 C 366.375 4.39932 -2.81527 0
M  V30 4001 H 368.069 2.36107 -1.84103 0
M  V30 4002 H 365.615 1.1347 -0.886599 0
M  V30 4003 H 367.568 4.2066 -0.249602 0
M  V30 4004 H 366.292 3.22546 0.513025 0
M  V30 4005 H 364.951 3.28937 -1.61853 0
M  V30 4006 H 364.599 5.02792 0.144511 0
M  V30 4007 H 364.299 5.68559 -1.48371 0
M  V30 4008 H 365.823 6.07284 -0.635496 0
M  V30 4009 H 367.237 5.07113 -2.67412 0
M  V30 4010 H 365.634 4.9109 -3.44892 0
M  V30 4011 H 366.704 3.50045 -3.35554 0
M  V30 4012 N 368.047 0.979072 1.23499 0
M  V30 4013 C 369.287 0.655228 1.93613 0
M  V30 4014 C 369.651 -0.796336 1.74707 0
M  V30 4015 O 370.852 -1.23094 2.38959 0
M  V30 4016 C 369.123 1.03337 3.42135 0
M  V30 4017 S 370.682 0.825793 4.3096 0
M  V30 4018 H 367.5 0.240004 0.669267 0
M  V30 4019 H 370.102 1.25843 1.49612 0
M  V30 4020 H 368.806 2.08646 3.53405 0
M  V30 4021 H 368.337 0.421397 3.91137 0
M  V30 4022 H 370.352 -0.290991 4.95346 0
M  V30 4023 N 369.525 -1.3858 0.750561 0
M  V30 4024 C 370.455 -2.33102 0.136237 0
M  V30 4025 C 371.436 -1.54713 -0.706965 0
M  V30 4026 O 372.621 -1.83043 -0.648769 0
M  V30 4027 C 369.751 -3.38882 -0.760017 0
M  V30 4028 C 368.705 -4.27995 -0.0197785 0
M  V30 4029 C 368.031 -5.24605 -1.03408 0
M  V30 4030 C 369.331 -5.09554 1.14684 0
M  V30 4031 H 371.025 -2.84726 0.925822 0
M  V30 4032 H 368.571 -1.36898 0.446654 0
M  V30 4033 H 370.524 -4.0397 -1.19943 0
M  V30 4034 H 369.248 -2.85734 -1.58189 0
M  V30 4035 H 367.907 -3.64409 0.400184 0
M  V30 4036 H 367.555 -4.67746 -1.84994 0
M  V30 4037 H 367.255 -5.85081 -0.543464 0
M  V30 4038 H 368.779 -5.9257 -1.47288 0
M  V30 4039 H 370.193 -5.67899 0.785118 0
M  V30 4040 H 368.59 -5.7925 1.56812 0
M  V30 4041 H 369.66 -4.4347 1.96118 0
M  V30 4042 N 371.003 -0.499398 -1.49478 0
M  V30 4043 C 371.933 0.269244 -2.31943 0
M  V30 4044 C 372.914 0.964054 -1.40143 0
M  V30 4045 O 374.099 0.955767 -1.69052 0
M  V30 4046 C 371.229 1.33504 -3.20615 0
M  V30 4047 C 370.183 0.760202 -4.21195 0
M  V30 4048 C 369.509 1.9264 -4.98792 0
M  V30 4049 C 370.809 -0.247661 -5.21712 0
M  V30 4050 H 372.503 -0.419082 -2.96452 0
M  V30 4051 H 370.049 -0.202988 -1.42562 0
M  V30 4052 H 372.002 1.88048 -3.77115 0
M  V30 4053 H 370.726 2.05253 -2.54045 0
M  V30 4054 H 369.385 0.23653 -3.65836 0
M  V30 4055 H 369.033 2.63154 -4.28671 0
M  V30 4056 H 368.733 1.54785 -5.66847 0
M  V30 4057 H 370.257 2.4762 -5.58137 0
M  V30 4058 H 371.671 0.209579 -5.72917 0
M  V30 4059 H 370.068 -0.541962 -5.97648 0
M  V30 4060 H 371.138 -1.16409 -4.7072 0
M  V30 4061 N 372.481 1.55866 -0.233164 0
M  V30 4062 C 373.413 2.18099 0.704668 0
M  V30 4063 C 374.426 1.15334 1.14899 0
M  V30 4064 O 375.615 1.42262 1.07814 0
M  V30 4065 C 372.715 2.7592 1.96777 0
M  V30 4066 C 371.888 4.03969 1.67713 0
M  V30 4067 C 370.947 4.46242 2.78845 0
M  V30 4068 O 369.973 5.12903 2.46818 0
M  V30 4069 N 371.175 4.12886 4.08051 0
M  V30 4070 H 373.94 2.99205 0.172258 0
M  V30 4071 H 371.501 1.61815 -0.0525945 0
M  V30 4072 H 373.493 3.01165 2.70337 0
M  V30 4073 H 372.063 1.99051 2.41034 0
M  V30 4074 H 371.283 3.86459 0.777391 0
M  V30 4075 H 372.571 4.8748 1.4574 0
M  V30 4076 H 371.969 3.59342 4.3691 0
M  V30 4077 H 370.526 4.42997 4.78118 0
M  V30 4078 N 373.959 -0.0401083 1.57549 0
M  V30 4079 C 374.909 -1.05175 2.02292 0
M  V30 4080 C 375.893 -1.32674 0.910294 0
M  V30 4081 O 377.085 -1.32444 1.17421 0
M  V30 4082 C 374.214 -2.35622 2.49674 0
M  V30 4083 C 373.3 -2.11261 3.67736 0
M  V30 4084 N 373.691 -1.56923 4.80842 0
M  V30 4085 C 371.989 -2.41596 3.74897 0
M  V30 4086 C 372.69 -1.48111 5.62528 0
M  V30 4087 N 371.666 -1.95282 5.07312 0
M  V30 4088 H 375.468 -0.625455 2.87168 0
M  V30 4089 H 372.982 -0.246624 1.60516 0
M  V30 4090 H 374.979 -3.08893 2.79983 0
M  V30 4091 H 373.639 -2.7894 1.662 0
M  V30 4092 H 374.65 -1.25345 5.02503 0
M  V30 4093 H 371.327 -2.88064 3.02201 0
M  V30 4094 H 372.717 -1.06683 6.63377 0
M  V30 4095 N 375.437 -1.54477 -0.31217 0
M  V30 4096 C 376.848 -1.64344 -0.885891 0
M  V30 4097 C 377.199 -0.54485 -1.88483 0
M  V30 4098 O 376.324 0.320387 -2.14015 0
M  V30 4099 C 376.919 -2.97908 -1.61357 0
M  V30 4100 C 375.478 -3.09933 -2.13585 0
M  V30 4101 C 374.625 -2.59971 -0.964897 0
M  V30 4102 H 377.576 -1.58448 -0.0894528 0
M  V30 4103 H 377.597 -2.88706 -2.47848 0
M  V30 4104 H 377.109 -3.77845 -0.886277 0
M  V30 4105 H 375.21 -2.34694 -2.89395 0
M  V30 4106 H 375.323 -4.15916 -2.37804 0
M  V30 4107 H 373.687 -2.16147 -1.34731 0
M  V30 4108 H 374.47 -3.42376 -0.251742 0
M  V30 4109 N 376.915 0.57481 -1.46744 0
M  V30 4110 C 377.825 1.711 -1.60505 0
M  V30 4111 C 378.841 1.67008 -0.488307 0
M  V30 4112 O 380.017 1.86774 -0.753495 0
M  V30 4113 C 377.082 3.07608 -1.59932 0
M  V30 4114 C 376.143 3.22904 -2.82898 0
M  V30 4115 C 375.376 4.529 -2.82343 0
M  V30 4116 O 375.599 5.37278 -1.91542 0
M  V30 4117 O 374.533 4.71611 -3.73987 0
M  V30 4118 H 378.359 1.62436 -2.56609 0
M  V30 4119 H 375.944 0.742779 -1.29627 0
M  V30 4120 H 377.826 3.88877 -1.62336 0
M  V30 4121 H 376.501 3.16692 -0.669898 0
M  V30 4122 H 375.408 2.41099 -2.86046 0
M  V30 4123 H 376.741 3.18715 -3.75076 0
M  V30 4124 N 378.394 1.34581 0.820102 0
M  V30 4125 C 379.326 1.22236 1.93884 0
M  V30 4126 C 380.339 0.148776 1.62119 0
M  V30 4127 O 381.528 0.400877 1.7394 0
M  V30 4128 C 378.628 0.856542 3.27897 0
M  V30 4129 C 377.801 2.02569 3.87666 0
M  V30 4130 C 376.86 1.63782 5.00062 0
M  V30 4131 O 375.886 2.35477 5.18208 0
M  V30 4132 N 377.088 0.553611 5.77854 0
M  V30 4133 H 379.853 2.18615 2.05006 0
M  V30 4134 H 377.414 1.27573 0.99683 0
M  V30 4135 H 379.406 0.578806 4.0054 0
M  V30 4136 H 377.976 -0.0171518 3.12595 0
M  V30 4137 H 377.196 2.468 3.07382 0
M  V30 4138 H 378.484 2.80752 4.24329 0
M  V30 4139 H 377.882 -0.0423528 5.65684 0
M  V30 4140 H 376.439 0.335614 6.50935 0
M  V30 4141 N 379.872 -1.04064 1.18357 0
M  V30 4142 C 380.802 -2.14001 0.934113 0
M  V30 4143 C 381.783 -1.69616 -0.128186 0
M  V30 4144 O 382.968 -1.94185 0.0244093 0
M  V30 4145 C 380.098 -3.44253 0.459066 0
M  V30 4146 C 379.052 -4.02261 1.46185 0
M  V30 4147 C 378.378 -5.27992 0.844322 0
M  V30 4148 C 379.678 -4.38432 2.83856 0
M  V30 4149 H 381.372 -2.35127 1.85352 0
M  V30 4150 H 378.918 -1.12998 0.892604 0
M  V30 4151 H 380.871 -4.20522 0.271907 0
M  V30 4152 H 379.595 -3.22813 -0.495912 0
M  V30 4153 H 378.254 -3.28074 1.63595 0
M  V30 4154 H 377.902 -5.02862 -0.117845 0
M  V30 4155 H 377.602 -5.67765 1.51384 0
M  V30 4156 H 379.126 -6.06938 0.667693 0
M  V30 4157 H 380.54 -5.05688 2.70098 0
M  V30 4158 H 378.937 -4.89254 3.47491 0
M  V30 4159 H 380.007 -3.4826 3.37406 0
M  V30 4160 N 381.35 -0.985608 -1.22978 0
M  V30 4161 C 382.28 -0.549649 -2.26939 0
M  V30 4162 C 383.261 0.419803 -1.64838 0
M  V30 4163 O 384.446 0.31203 -1.91677 0
M  V30 4164 C 381.576 0.143652 -3.47003 0
M  V30 4165 C 380.53 -0.743606 -4.21491 0
M  V30 4166 C 379.856 0.0822027 -5.34637 0
M  V30 4167 C 381.156 -2.03694 -4.80943 0
M  V30 4168 H 382.85 -1.41862 -2.63658 0
M  V30 4169 H 380.396 -0.683571 -1.26741 0
M  V30 4170 H 382.349 0.459985 -4.18882 0
M  V30 4171 H 381.073 1.04711 -3.09359 0
M  V30 4172 H 379.732 -1.04347 -3.51436 0
M  V30 4173 H 379.38 0.986359 -4.93234 0
M  V30 4174 H 379.08 -0.508377 -5.85397 0
M  V30 4175 H 380.604 0.392797 -6.09335 0
M  V30 4176 H 382.018 -1.78504 -5.44802 0
M  V30 4177 H 380.415 -2.57573 -5.42011 0
M  V30 4178 H 381.485 -2.72042 -4.01399 0
M  V30 4179 N 382.828 1.3818 -0.7579 0
M  V30 4180 C 383.775 2.30416 -0.133057 0
M  V30 4181 C 384.745 1.50398 0.704957 0
M  V30 4182 O 385.93 1.79014 0.660192 0
M  V30 4183 C 383.07 3.36834 0.750813 0
M  V30 4184 C 382.183 4.31879 -0.102297 0
M  V30 4185 C 381.318 5.25368 0.784979 0
M  V30 4186 C 380.357 6.12058 -0.0715046 0
M  V30 4187 N 379.494 6.97832 0.772972 0
M  V30 4188 H 384.334 2.83274 -0.925186 0
M  V30 4189 H 381.871 1.39461 -0.467866 0
M  V30 4190 H 383.829 3.97145 1.27794 0
M  V30 4191 H 382.459 2.85374 1.50868 0
M  V30 4192 H 381.511 3.72991 -0.747095 0
M  V30 4193 H 382.823 4.92921 -0.763552 0
M  V30 4194 H 381.977 5.90818 1.37911 0
M  V30 4195 H 380.716 4.64703 1.47996 0
M  V30 4196 H 379.721 5.456 -0.678272 0
M  V30 4197 H 380.946 6.74793 -0.763606 0
M  V30 4198 H 378.892 6.3971 1.45282 0
M  V30 4199 H 378.809 7.55812 0.168709 0
M  V30 4200 H 380.077 7.67687 1.35194 0
M  V30 4201 N 384.306 0.507319 1.49211 0
M  V30 4202 C 385.236 -0.256939 2.32082 0
M  V30 4203 C 386.217 -0.956609 1.40652 0
M  V30 4204 O 387.402 -0.946788 1.69557 0
M  V30 4205 C 384.532 -1.31802 3.21318 0
M  V30 4206 C 383.486 -0.737855 4.21592 0
M  V30 4207 C 382.812 -1.89992 4.99807 0
M  V30 4208 C 384.112 0.275325 5.21574 0
M  V30 4209 H 385.806 0.434798 2.96226 0
M  V30 4210 H 383.352 0.210546 1.42452 0
M  V30 4211 H 385.305 -1.86045 3.78107 0
M  V30 4212 H 384.029 -2.03903 2.5513 0
M  V30 4213 H 382.688 -0.217126 3.65956 0
M  V30 4214 H 382.336 -2.60877 4.30061 0
M  V30 4215 H 382.036 -1.51777 5.6766 0
M  V30 4216 H 383.56 -2.44657 5.59442 0
M  V30 4217 H 384.974 -0.179193 5.7302 0
M  V30 4218 H 383.371 0.573649 5.97352 0
M  V30 4219 H 384.441 1.18903 4.70096 0
M  V30 4220 N 385.784 -1.5574 0.241426 0
M  V30 4221 C 387.2 -1.59196 -0.113548 0
M  V30 4222 C 387.4 -1.25852 -1.57364 0
M  V30 4223 O 386.456 -1.00322 -2.31715 0
M  V30 4224 C 387.769 -2.99814 0.230695 0
M  V30 4225 C 389.317 -3.12513 0.174547 0
M  V30 4226 C 389.792 -4.55342 0.492744 0
M  V30 4227 N 391.283 -4.61076 0.443043 0
M  V30 4228 C 392.018 -5.6956 0.662484 0
M  V30 4229 N 391.514 -6.86328 0.944761 0
M  V30 4230 N 393.307 -5.58957 0.593564 0
M  V30 4231 H 385.458 -1.75685 1.19368 0
M  V30 4232 H 387.721 -0.81756 0.479896 0
M  V30 4233 H 387.427 -3.28932 1.24485 0
M  V30 4234 H 387.301 -3.74568 -0.444833 0
M  V30 4235 H 389.688 -2.83179 -0.830277 0
M  V30 4236 H 389.769 -2.40045 0.883845 0
M  V30 4237 H 389.413 -4.85396 1.4951 0
M  V30 4238 H 389.343 -5.26062 -0.23797 0
M  V30 4239 H 391.834 -3.77179 0.233374 0
M  V30 4240 H 392.147 -7.64935 1.09977 0
M  V30 4241 H 390.492 -6.88025 0.982175 0
M  V30 4242 H 393.683 -4.66611 0.373123 0
M  V30 4243 H 393.856 -6.43433 0.767981 0
M  V30 4244 N 387.262 0.0317525 -1.57568 0
M  V30 4245 C 388.172 1.05021 -2.0978 0
M  V30 4246 C 389.188 1.39809 -1.03583 0
M  V30 4247 O 390.364 1.49182 -1.35302 0
M  V30 4248 C 387.429 2.33301 -2.56459 0
M  V30 4249 C 386.49 2.0512 -3.77127 0
M  V30 4250 C 385.723 3.27283 -4.2157 0
M  V30 4251 O 385.946 4.37861 -3.65559 0
M  V30 4252 O 384.88 3.13141 -5.14029 0
M  V30 4253 H 388.706 0.636505 -2.96955 0
M  V30 4254 H 386.291 0.248559 -1.47318 0
M  V30 4255 H 388.173 3.08722 -2.86825 0
M  V30 4256 H 386.848 2.73973 -1.72397 0
M  V30 4257 H 385.755 1.27276 -3.51784 0
M  V30 4258 H 387.088 1.69305 -4.62165 0
M  V30 4259 N 388.74 1.54641 0.303973 0
M  V30 4260 C 389.688 1.86137 1.39484 0
M  V30 4261 C 390.682 0.734854 1.52631 0
M  V30 4262 O 391.888 0.918803 1.54784 0
M  V30 4263 H 388.263 0.590324 0.465856 0
M  V30 4264 H 390.234 2.77324 1.10154 0
M  V30 4265 C 388.983 2.12274 2.75382 0
M  V30 4266 H 388.306 2.98429 2.66046 0
M  V30 4267 H 389.746 2.38254 3.5073 0
M  V30 4268 C 388.205 0.920365 3.24085 0
M  V30 4269 O 388.735 0.139377 4.01458 0
M  V30 4270 N 386.941 0.726566 2.81371 0
M  V30 4271 H 386.488 1.36332 2.18567 0
M  V30 4272 H 386.446 -0.0763799 3.14307 0
M  V30 4273 N 390.218 -0.567019 1.47046 0
M  V30 4274 C 391.629 -1.14916 1.47143 0
M  V30 4275 C 391.98 -1.94954 0.220767 0
M  V30 4276 O 391.105 -2.05602 -0.67505 0
M  V30 4277 C 391.7 -2.09069 2.666 0
M  V30 4278 C 390.259 -2.62575 2.69687 0
M  V30 4279 C 389.406 -1.38755 2.40088 0
M  V30 4280 H 392.357 -0.354126 1.54699 0
M  V30 4281 H 392.378 -2.92789 2.43011 0
M  V30 4282 H 391.89 -1.50789 3.57609 0
M  V30 4283 H 389.991 -3.24681 1.82792 0
M  V30 4284 H 390.104 -3.04239 3.70102 0
M  V30 4285 H 388.468 -1.69098 1.90468 0
M  V30 4286 H 389.251 -0.822822 3.33293 0
M  V30 4287 N 391.696 -1.35014 -0.812953 0
M  V30 4288 C 392.973 -1.18502 -1.55617 0
M  V30 4289 C 393.353 0.238421 -2.09749 0
M  V30 4290 O 392.701 1.2411 -1.91857 0
M  V30 4291 C 392.911 -2.24783 -2.66971 0
M  V30 4292 C 394.259 -2.60268 -3.35478 0
M  V30 4293 O 395.283 -2.23648 -2.77236 0
M  V30 4294 O 394.142 -3.2321 -4.40678 0
M  V30 4295 H 391.236 -0.459984 -0.687272 0
M  V30 4296 H 393.782 -1.46677 -0.853464 0
M  V30 4297 H 392.554 -3.20284 -2.24798 0
M  V30 4298 H 392.177 -1.97841 -3.44884 0
M  V30 4299 N 393.175 1.03435 -1.18907 0
M  V30 4300 C 394.105 2.13503 -0.945448 0
M  V30 4301 C 395.086 1.69682 0.119189 0
M  V30 4302 O 396.271 1.94169 -0.034707 0
M  V30 4303 C 393.401 3.44004 -0.477316 0
M  V30 4304 C 392.355 4.0148 -1.48316 0
M  V30 4305 C 391.681 5.27537 -0.872311 0
M  V30 4306 C 392.981 4.36921 -2.86177 0
M  V30 4307 H 394.675 2.34141 -1.86597 0
M  V30 4308 H 392.221 1.12523 -0.898584 0
M  V30 4309 H 394.174 4.20372 -0.294204 0
M  V30 4310 H 392.898 3.23072 0.478786 0
M  V30 4311 H 391.557 3.27201 -1.65332 0
M  V30 4312 H 391.205 5.02917 0.0911752 0
M  V30 4313 H 390.905 5.66954 -1.54393 0
M  V30 4314 H 392.429 6.06576 -0.699871 0
M  V30 4315 H 393.843 5.04248 -2.72776 0
M  V30 4316 H 392.24 4.87405 -3.50081 0
M  V30 4317 H 393.31 3.46466 -3.39248 0
M  V30 4318 N 394.653 0.992116 1.22453 0
M  V30 4319 C 395.902 0.662992 1.90492 0
M  V30 4320 C 396.215 -0.808407 1.78113 0
M  V30 4321 O 397.421 -1.24908 2.41061 0
M  V30 4322 C 395.877 1.1353 3.41524 0
M  V30 4323 C 395.485 2.63187 3.62542 0
M  V30 4324 C 397.229 0.880465 4.15269 0
M  V30 4325 C 395.136 3.04024 5.0727 0
M  V30 4326 H 394.066 0.244278 0.713333 0
M  V30 4327 H 396.717 1.20157 1.38688 0
M  V30 4328 H 395.099 0.52485 3.92506 0
M  V30 4329 H 396.273 3.2957 3.22056 0
M  V30 4330 H 394.588 2.86543 3.02129 0
M  V30 4331 H 397.185 1.16128 5.21937 0
M  V30 4332 H 397.528 -0.183408 4.15896 0
M  V30 4333 H 398.061 1.45307 3.70312 0
M  V30 4334 H 394.8 4.09584 5.11782 0
M  V30 4335 H 394.32 2.42343 5.48662 0
M  V30 4336 H 395.999 2.95282 5.75689 0
M  V30 4337 N 396.131 -1.37776 0.765217 0
M  V30 4338 C 397.379 -1.99454 0.325943 0
M  V30 4339 C 397.7 -1.61049 -1.09947 0
M  V30 4340 O 396.97 -0.872821 -1.75381 0
M  V30 4341 H 395.55 -0.737697 0.117525 0
M  V30 4342 H 398.212 -1.68359 0.981895 0
M  V30 4343 H 397.308 -3.09547 0.398353 0
M  V30 4344 N 397.609 -0.515225 -1.4894 0
M  V30 4345 C 398.837 0.0206034 -2.0689 0
M  V30 4346 C 399.252 1.29514 -1.37374 0
M  V30 4347 O 398.609 1.76698 -0.456529 0
M  V30 4348 C 398.66 0.26351 -3.60538 0
M  V30 4349 O 398.381 -0.960517 -4.27441 0
M  V30 4350 C 399.882 0.841383 -4.35242 0
M  V30 4351 H 397.102 -0.0268608 -0.670462 0
M  V30 4352 H 399.646 -0.716651 -1.91532 0
M  V30 4353 H 397.801 0.950777 -3.75552 0
M  V30 4354 H 398.215 -0.73212 -5.19365 0
M  V30 4355 H 399.689 0.96085 -5.43573 0
M  V30 4356 H 400.166 1.8427 -3.98674 0
M  V30 4357 H 400.772 0.191143 -4.2487 0
M  V30 4358 N 399.087 1.5561 -0.249682 0
M  V30 4359 C 400.05 2.20217 0.635394 0
M  V30 4360 C 401.05 1.17227 1.10066 0
M  V30 4361 O 402.24 1.42292 1.00492 0
M  V30 4362 C 399.372 2.84794 1.87363 0
M  V30 4363 H 400.565 2.99814 0.0716752 0
M  V30 4364 H 398.118 1.563 -0.000153234 0
M  V30 4365 H 398.853 2.09142 2.47851 0
M  V30 4366 H 398.638 3.60241 1.5482 0
M  V30 4367 H 400.128 3.3423 2.5036 0
M  V30 4368 N 400.565 -0.0233959 1.57583 0
M  V30 4369 C 401.811 -0.714119 1.89811 0
M  V30 4370 C 402.144 -1.74702 0.848113 0
M  V30 4371 O 401.419 -1.94023 -0.136135 0
M  V30 4372 C 401.702 -1.37853 3.32669 0
M  V30 4373 C 401.555 -0.358764 4.48367 0
M  V30 4374 C 402.874 -2.31101 3.7454 0
M  V30 4375 H 399.993 -0.25814 0.690314 0
M  V30 4376 H 402.635 0.0230927 1.89986 0
M  V30 4377 H 400.785 -2.00689 3.3265 0
M  V30 4378 H 402.457 0.268115 4.6052 0
M  V30 4379 H 400.7 0.321387 4.32608 0
M  V30 4380 H 401.371 -0.862242 5.45224 0
M  V30 4381 H 403.847 -1.78304 3.75961 0
M  V30 4382 H 402.723 -2.74567 4.75294 0
M  V30 4383 H 402.984 -3.18018 3.0711 0
M  V30 4384 N 402.043 -1.548 -0.295768 0
M  V30 4385 C 402.953 -1.89177 -1.38742 0
M  V30 4386 C 403.969 -0.786481 -1.55211 0
M  V30 4387 O 405.145 -1.08344 -1.69775 0
M  V30 4388 C 402.21 -2.13663 -2.73036 0
M  V30 4389 C 401.271 -3.37349 -2.65508 0
M  V30 4390 C 400.504 -3.60658 -3.93398 0
M  V30 4391 O 400.727 -2.86882 -4.93006 0
M  V30 4392 O 399.661 -4.54179 -3.94975 0
M  V30 4393 H 403.487 -2.82059 -1.12589 0
M  V30 4394 H 401.072 -1.41056 -0.492295 0
M  V30 4395 H 402.954 -2.3094 -3.52484 0
M  V30 4396 H 401.629 -1.23967 -2.99022 0
M  V30 4397 H 400.536 -3.25431 -1.84514 0
M  V30 4398 H 401.869 -4.27192 -2.44474 0
M  V30 4399 N 403.521 0.559213 -1.47345 0
M  V30 4400 C 404.431 1.69388 -1.62311 0
M  V30 4401 C 405.447 1.6648 -0.505993 0
M  V30 4402 O 406.623 1.85964 -0.773262 0
M  V30 4403 C 403.688 3.05894 -1.63185 0
M  V30 4404 C 402.749 3.19885 -2.86307 0
M  V30 4405 C 401.982 4.49879 -2.87131 0
M  V30 4406 O 402.205 5.35217 -1.97229 0
M  V30 4407 O 401.139 4.67618 -3.78968 0
M  V30 4408 H 404.965 1.59706 -2.58317 0
M  V30 4409 H 402.55 0.728989 -1.30407 0
M  V30 4410 H 404.432 3.87133 -1.66451 0
M  V30 4411 H 403.107 3.15964 -0.70345 0
M  V30 4412 H 402.014 2.38052 -2.88587 0
M  V30 4413 H 403.347 3.14718 -3.78435 0
M  V30 4414 N 404.999 1.35443 0.805782 0
M  V30 4415 C 406.239 1.30127 1.57627 0
M  V30 4416 C 406.603 -0.122567 1.91608 0
M  V30 4417 O 407.804 -0.300107 2.67119 0
M  V30 4418 C 406.075 2.18314 2.82973 0
M  V30 4419 S 407.634 2.30521 3.7337 0
M  V30 4420 H 404.452 0.462439 0.540066 0
M  V30 4421 H 407.054 1.70843 0.95042 0
M  V30 4422 H 405.758 3.20741 2.56034 0
M  V30 4423 H 405.289 1.78558 3.50543 0
M  V30 4424 H 407.304 1.49062 4.73281 0
M  V30 4425 N 406.477 -1.02803 1.19454 0
M  V30 4426 C 407.407 -2.12999 0.956758 0
M  V30 4427 C 408.388 -1.69743 -0.110188 0
M  V30 4428 O 409.573 -1.94148 0.0450038 0
M  V30 4429 C 406.703 -3.43746 0.495553 0
M  V30 4430 C 405.657 -4.00688 1.50443 0
M  V30 4431 C 404.983 -5.27067 0.900275 0
M  V30 4432 C 406.283 -4.35397 2.8849 0
M  V30 4433 H 407.977 -2.33148 1.87836 0
M  V30 4434 H 405.523 -1.12045 0.904539 0
M  V30 4435 H 407.476 -4.2021 0.316493 0
M  V30 4436 H 406.2 -3.23321 -0.461646 0
M  V30 4437 H 404.859 -3.2632 1.67065 0
M  V30 4438 H 404.507 -5.02959 -0.064503 0
M  V30 4439 H 404.207 -5.66127 1.57397 0
M  V30 4440 H 405.731 -6.06196 0.73203 0
M  V30 4441 H 407.145 -5.02795 2.75446 0
M  V30 4442 H 405.542 -4.85541 3.52661 0
M  V30 4443 H 406.612 -3.44662 3.41081 0
M  V30 4444 N 407.956 -0.998596 -1.21925 0
M  V30 4445 C 409.372 -0.710303 -1.42923 0
M  V30 4446 C 409.572 0.716933 -1.88314 0
M  V30 4447 O 408.628 1.48712 -2.04062 0
M  V30 4448 C 409.941 -1.72072 -2.466 0
M  V30 4449 C 411.489 -1.73681 -2.60392 0
M  V30 4450 C 411.964 -2.73601 -3.67296 0
M  V30 4451 N 413.455 -2.7223 -3.7476 0
M  V30 4452 C 414.19 -3.46206 -4.57087 0
M  V30 4453 N 413.686 -4.29802 -5.43362 0
M  V30 4454 N 415.479 -3.34886 -4.51451 0
M  V30 4455 H 407.63 -1.92028 -0.9077 0
M  V30 4456 H 409.893 -0.828487 -0.460775 0
M  V30 4457 H 409.599 -2.74231 -2.20206 0
M  V30 4458 H 409.473 -1.51818 -3.45299 0
M  V30 4459 H 411.86 -0.722173 -2.86127 0
M  V30 4460 H 411.941 -1.98005 -1.61949 0
M  V30 4461 H 411.585 -3.75217 -3.42307 0
M  V30 4462 H 411.515 -2.46545 -4.65321 0
M  V30 4463 H 414.006 -2.11576 -3.1312 0
M  V30 4464 H 414.319 -4.83061 -6.03218 0
M  V30 4465 H 412.664 -4.33887 -5.42925 0
M  V30 4466 H 415.855 -2.69015 -3.83078 0
M  V30 4467 H 416.028 -3.92796 -5.15379 0
M  V30 4468 N 409.434 1.37368 -0.772513 0
M  V30 4469 C 410.664 2.03647 -0.348082 0
M  V30 4470 C 411.072 1.58392 1.03482 0
M  V30 4471 O 410.415 0.760921 1.672 0
M  V30 4472 C 410.477 3.58131 -0.313404 0
M  V30 4473 C 410.141 4.2652 -1.64102 0
M  V30 4474 C 411.138 4.50587 -2.5936 0
M  V30 4475 C 408.823 4.64335 -1.91567 0
M  V30 4476 C 410.817 5.11526 -3.80289 0
M  V30 4477 C 408.504 5.24996 -3.12766 0
M  V30 4478 C 409.502 5.48529 -4.06946 0
M  V30 4479 O 409.19 6.07921 -5.26011 0
M  V30 4480 H 408.922 0.660538 -0.143753 0
M  V30 4481 H 411.476 1.76669 -1.04772 0
M  V30 4482 H 409.706 3.84159 0.442617 0
M  V30 4483 H 411.395 4.05813 0.0840613 0
M  V30 4484 H 412.161 4.21784 -2.39423 0
M  V30 4485 H 408.04 4.45353 -1.19088 0
M  V30 4486 H 411.584 5.29811 -4.53813 0
M  V30 4487 H 407.481 5.53223 -3.32588 0
M  V30 4488 H 408.249 6.26398 -5.26847 0
M  V30 4489 N 410.912 0.523116 1.48665 0
M  V30 4490 C 411.822 -0.247406 2.33292 0
M  V30 4491 C 412.838 -0.945769 1.46052 0
M  V30 4492 O 414.014 -0.922253 1.79043 0
M  V30 4493 C 411.079 -1.28487 3.22012 0
M  V30 4494 C 410.14 -0.597592 4.2512 0
M  V30 4495 C 409.373 -1.58563 5.09601 0
M  V30 4496 O 409.596 -2.81763 4.95949 0
M  V30 4497 O 408.53 -1.12879 5.91221 0
M  V30 4498 H 412.356 0.445869 3.00409 0
M  V30 4499 H 409.941 0.284128 1.46673 0
M  V30 4500 H 411.823 -1.88459 3.7691 0
M  V30 4501 H 410.498 -1.96068 2.57564 0
M  V30 4502 H 409.405 0.0424407 3.74076 0
M  V30 4503 H 410.738 0.0361517 4.92187 0
M  V30 4504 N 412.39 -1.55475 0.257931 0
M  V30 4505 C 413.615 -2.04064 -0.370488 0
M  V30 4506 C 414.04 -1.13565 -1.49948 0
M  V30 4507 O 413.398 -0.130781 -1.80828 0
M  V30 4508 C 413.446 -3.50554 -0.845237 0
M  V30 4509 O 412.55 -3.63173 -1.95394 0
M  V30 4510 H 411.891 -0.659257 -0.0792243 0
M  V30 4511 H 414.421 -2.00903 0.387212 0
M  V30 4512 H 414.431 -3.91588 -1.14555 0
M  V30 4513 H 413.106 -4.15896 -0.0191259 0
M  V30 4514 H 411.683 -3.34039 -1.65748 0
M  V30 4515 N 413.868 0.0150385 -1.57593 0
M  V30 4516 C 415.279 0.559832 -1.78109 0
M  V30 4517 C 415.63 1.74814 -0.890756 0
M  V30 4518 O 414.755 2.16216 -0.0892482 0
M  V30 4519 C 415.35 1.02238 -3.23006 0
M  V30 4520 C 413.909 1.51258 -3.44671 0
M  V30 4521 C 413.056 0.456955 -2.73509 0
M  V30 4522 H 416.007 -0.211169 -1.57289 0
M  V30 4523 H 416.028 1.88912 -3.30292 0
M  V30 4524 H 415.54 0.157302 -3.87781 0
M  V30 4525 H 413.641 2.39905 -2.8509 0
M  V30 4526 H 413.754 1.55042 -4.5332 0
M  V30 4527 H 412.118 0.915196 -2.37689 0
M  V30 4528 H 412.901 -0.398896 -3.40975 0
M  V30 4529 N 415.346 1.54954 0.287554 0
M  V30 4530 C 416.574 1.78881 1.03967 0
M  V30 4531 C 416.989 0.554894 1.80462 0
M  V30 4532 O 416.346 -0.475676 1.76192 0
M  V30 4533 C 416.397 3.00488 2.0097 0
M  V30 4534 O 416.118 4.19113 1.27577 0
M  V30 4535 C 417.619 3.36907 2.88112 0
M  V30 4536 H 414.839 0.596259 0.307761 0
M  V30 4537 H 417.383 2.01937 0.322749 0
M  V30 4538 H 415.538 2.79601 2.68145 0
M  V30 4539 H 415.952 4.87765 1.92835 0
M  V30 4540 H 417.426 4.25205 3.52001 0
M  V30 4541 H 417.903 2.55659 3.57121 0
M  V30 4542 H 418.509 3.60001 2.26449 0
M  V30 4543 N 416.824 -0.551391 1.4764 0
M  V30 4544 C 417.756 -1.67333 1.56628 0
M  V30 4545 C 418.769 -1.56398 0.452045 0
M  V30 4546 O 419.958 -1.6325 0.721926 0
M  V30 4547 C 417.058 -3.05841 1.45994 0
M  V30 4548 C 416.231 -3.42472 2.72088 0
M  V30 4549 C 415.29 -4.60168 2.55209 0
M  V30 4550 O 414.316 -4.64458 3.2904 0
M  V30 4551 N 415.518 -5.57024 1.63416 0
M  V30 4552 H 418.283 -1.60066 2.53375 0
M  V30 4553 H 415.844 -0.738169 1.44093 0
M  V30 4554 H 417.836 -3.8242 1.32428 0
M  V30 4555 H 416.406 -3.07302 0.573071 0
M  V30 4556 H 415.626 -2.55284 3.00373 0
M  V30 4557 H 416.914 -3.63723 3.55785 0
M  V30 4558 H 416.312 -5.56319 1.02594 0
M  V30 4559 H 414.869 -6.32906 1.558 0
M  V30 4560 N 418.302 -1.35869 -0.798587 0
M  V30 4561 C 419.235 -1.23801 -1.91699 0
M  V30 4562 C 420.213 -0.124143 -1.62125 0
M  V30 4563 O 421.397 -0.293656 -1.86199 0
M  V30 4564 C 418.524 -0.908063 -3.263 0
M  V30 4565 C 417.57 -2.0351 -3.74815 0
M  V30 4566 S 418.403 -3.65183 -3.91665 0
M  V30 4567 C 419.559 -3.34283 -5.29156 0
M  V30 4568 H 419.792 -2.18466 -2.01643 0
M  V30 4569 H 417.325 -1.21178 -0.956833 0
M  V30 4570 H 419.283 -0.724506 -4.04056 0
M  V30 4571 H 417.944 0.0206584 -3.14093 0
M  V30 4572 H 417.137 -1.75858 -4.72324 0
M  V30 4573 H 416.739 -2.1774 -3.04081 0
M  V30 4574 H 419.031 -2.87607 -6.13424 0
M  V30 4575 H 419.974 -4.31022 -5.61806 0
M  V30 4576 H 420.382 -2.69854 -4.95822 0
M  V30 4577 N 419.78 1.02168 -1.19998 0
M  V30 4578 C 421.008 1.79296 -1.03249 0
M  V30 4579 C 421.423 1.84103 0.418502 0
M  V30 4580 O 420.78 1.29031 1.29063 0
M  V30 4581 C 420.831 3.24007 -1.60319 0
M  V30 4582 O 420.552 3.19512 -2.99739 0
M  V30 4583 C 422.053 4.17704 -1.48453 0
M  V30 4584 H 419.273 0.564016 -0.363493 0
M  V30 4585 H 421.817 1.28639 -1.58973 0
M  V30 4586 H 419.972 3.7183 -1.08727 0
M  V30 4587 H 420.386 4.10306 -3.26725 0
M  V30 4588 H 421.86 5.17104 -1.93153 0
M  V30 4589 H 422.337 4.37029 -0.436193 0
M  V30 4590 H 422.943 3.7576 -1.99211 0
M  V30 4591 N 421.258 1.00505 1.21394 0
M  V30 4592 C 422.221 0.570459 2.21987 0
M  V30 4593 C 423.221 -0.353211 1.56873 0
M  V30 4594 O 424.411 -0.14349 1.73608 0
M  V30 4595 C 421.543 -0.168555 3.40483 0
M  V30 4596 H 422.736 1.46021 2.6195 0
M  V30 4597 H 420.289 0.793565 1.34656 0
M  V30 4598 H 421.024 -1.07374 3.06009 0
M  V30 4599 H 420.809 0.494823 3.88965 0
M  V30 4600 H 422.299 -0.460362 4.15055 0
M  V30 4601 N 422.737 -1.36956 0.779787 0
M  V30 4602 C 424.153 -1.52817 0.460342 0
M  V30 4603 C 424.353 -1.7361 -1.02283 0
M  V30 4604 O 423.409 -1.76207 -1.80852 0
M  V30 4605 C 424.722 -2.71983 1.28241 0
M  V30 4606 C 426.27 -2.85849 1.27512 0
M  V30 4607 C 426.745 -4.08008 2.08072 0
M  V30 4608 N 428.236 -4.15135 2.05467 0
M  V30 4609 C 428.971 -5.08711 2.64577 0
M  V30 4610 N 428.467 -6.07792 3.32506 0
M  V30 4611 N 430.26 -5.01254 2.54363 0
M  V30 4612 H 422.411 -1.21713 1.74068 0
M  V30 4613 H 424.674 -0.593294 0.739396 0
M  V30 4614 H 424.38 -2.63109 2.33381 0
M  V30 4615 H 424.254 -3.65882 0.917088 0
M  V30 4616 H 426.641 -2.94189 0.231686 0
M  V30 4617 H 426.722 -1.92886 1.68014 0
M  V30 4618 H 426.366 -4.00429 3.12441 0
M  V30 4619 H 426.296 -5.001 1.64947 0
M  V30 4620 H 428.787 -3.44189 1.5602 0
M  V30 4621 H 429.1 -6.75739 3.74963 0
M  V30 4622 H 427.445 -6.08047 3.36606 0
M  V30 4623 H 430.636 -4.22795 2.00902 0
M  V30 4624 H 430.809 -5.73995 3.00722 0
M  V30 4625 N 424.215 -0.530993 -1.48385 0
M  V30 4626 C 425.461 0.00274135 -2.028 0
M  V30 4627 C 425.794 1.33838 -1.40716 0
M  V30 4628 O 425.069 1.86465 -0.553277 0
M  V30 4629 C 425.352 0.123676 -3.59888 0
M  V30 4630 C 425.205 -1.2372 -4.3245 0
M  V30 4631 C 426.524 0.849967 -4.31814 0
M  V30 4632 H 423.643 -0.000477758 -0.737 0
M  V30 4633 H 426.285 -0.688217 -1.77098 0
M  V30 4634 H 424.435 0.712157 -3.81917 0
M  V30 4635 H 426.107 -1.86687 -4.21836 0
M  V30 4636 H 424.35 -1.81882 -3.93829 0
M  V30 4637 H 425.021 -1.10557 -5.40815 0
M  V30 4638 H 427.497 0.350572 -4.14621 0
M  V30 4639 H 426.373 0.903486 -5.41413 0
M  V30 4640 H 426.634 1.90047 -3.99167 0
M  V30 4641 N 425.693 1.55336 -0.266172 0
M  V30 4642 C 426.656 2.20878 0.612001 0
M  V30 4643 C 427.656 1.18388 1.08816 0
M  V30 4644 O 428.846 1.4335 0.989774 0
M  V30 4645 C 425.978 2.86765 1.84332 0
M  V30 4646 H 427.171 2.99873 0.0398718 0
M  V30 4647 H 424.724 1.56291 -0.0167309 0
M  V30 4648 H 425.459 2.11759 2.45619 0
M  V30 4649 H 425.244 3.61862 1.5099 0
M  V30 4650 H 426.734 3.36867 2.46801 0
M  V30 4651 N 427.171 -0.0066808 1.57599 0
M  V30 4652 C 428.396 -0.707738 1.94951 0
M  V30 4653 C 428.821 -1.66882 0.867868 0
M  V30 4654 O 428.179 -1.80457 -0.17458 0
M  V30 4655 C 428.227 -1.42162 3.31394 0
M  V30 4656 O 427.331 -2.53578 3.25226 0
M  V30 4657 H 426.672 -0.188752 0.636607 0
M  V30 4658 H 429.202 0.0445193 2.04552 0
M  V30 4659 H 429.212 -1.78655 3.66806 0
M  V30 4660 H 427.887 -0.716903 4.09675 0
M  V30 4661 H 426.464 -2.19463 3.01481 0
M  V30 4662 N 428.649 -1.55105 -0.279332 0
M  V30 4663 C 429.559 -1.90638 -1.36727 0
M  V30 4664 C 430.575 -0.802899 -1.54368 0
M  V30 4665 O 431.751 -1.10138 -1.68616 0
M  V30 4666 C 428.816 -2.16547 -2.70755 0
M  V30 4667 C 427.877 -3.40146 -2.61915 0
M  V30 4668 C 427.11 -3.6481 -3.8955 0
M  V30 4669 O 427.333 -2.92095 -4.89935 0
M  V30 4670 O 426.267 -4.58343 -3.90135 0
M  V30 4671 H 430.093 -2.83237 -1.09591 0
M  V30 4672 H 427.678 -1.4157 -0.477306 0
M  V30 4673 H 429.56 -2.34665 -3.50014 0
M  V30 4674 H 428.235 -1.27131 -2.9769 0
M  V30 4675 H 427.142 -3.2737 -1.81052 0
M  V30 4676 H 428.475 -4.29761 -2.3993 0
M  V30 4677 N 430.127 0.543554 -1.4793 0
M  V30 4678 C 431.404 1.30458 -1.4574 0
M  V30 4679 C 431.784 2.1048 -0.161692 0
M  V30 4680 O 431.132 2.11831 0.856734 0
M  V30 4681 C 431.342 2.19754 -2.71126 0
M  V30 4682 C 432.69 2.80334 -3.18901 0
M  V30 4683 O 433.714 2.30049 -2.71948 0
M  V30 4684 O 432.573 3.71766 -4.00565 0
M  V30 4685 H 429.667 0.588117 -0.581418 0
M  V30 4686 H 432.213 0.561328 -1.60147 0
M  V30 4687 H 430.985 1.60316 -3.56952 0
M  V30 4688 H 430.608 3.01351 -2.59371 0
M  V30 4689 N 431.605 1.3629 0.791371 0
M  V30 4690 C 432.854 1.29742 1.54434 0
M  V30 4691 C 433.167 -0.121729 1.95221 0
M  V30 4692 O 434.373 -0.309579 2.69729 0
M  V30 4693 C 432.829 2.27623 2.78776 0
M  V30 4694 C 432.437 3.74963 2.45166 0
M  V30 4695 C 434.181 2.30047 3.56761 0
M  V30 4696 C 432.088 4.64626 3.65891 0
M  V30 4697 H 431.018 0.482113 0.579727 0
M  V30 4698 H 433.669 1.61642 0.868565 0
M  V30 4699 H 432.051 1.88714 3.48142 0
M  V30 4700 H 433.225 4.22596 1.83709 0
M  V30 4701 H 431.54 3.75295 1.80396 0
M  V30 4702 H 434.137 2.94247 4.46456 0
M  V30 4703 H 434.48 1.30846 3.95203 0
M  V30 4704 H 435.013 2.67563 2.94372 0
M  V30 4705 H 431.752 5.64883 3.32547 0
M  V30 4706 H 431.272 4.2171 4.26521 0
M  V30 4707 H 432.951 4.80801 4.32943 0
M  V30 4708 N 433.083 -1.0153 1.20538 0
M  V30 4709 C 434.36 -1.72327 0.925343 0
M  V30 4710 C 434.74 -2.03383 -0.565547 0
M  V30 4711 O 434.088 -1.69934 -1.52757 0
M  V30 4712 C 434.298 -2.9902 1.79967 0
M  V30 4713 C 435.646 -3.72258 2.04228 0
M  V30 4714 O 436.67 -3.08979 1.77231 0
M  V30 4715 O 435.529 -4.86053 2.4983 0
M  V30 4716 H 432.623 -0.751099 0.346092 0
M  V30 4717 H 435.169 -1.07366 1.31417 0
M  V30 4718 H 433.941 -2.72402 2.80915 0
M  V30 4719 H 433.564 -3.71721 1.41099 0
M  V30 4720 N 434.561 -1.01147 -1.20859 0
M  V30 4721 C 435.81 -0.693214 -1.89413 0
M  V30 4722 C 436.123 0.779969 -1.79376 0
M  V30 4723 O 437.329 1.21057 -2.43017 0
M  V30 4724 C 435.785 -1.18949 -3.39675 0
M  V30 4725 C 435.393 -2.68921 -3.58309 0
M  V30 4726 C 437.137 -0.94642 -4.13815 0
M  V30 4727 C 435.044 -3.12056 -5.0237 0
M  V30 4728 H 433.974 -0.255595 -0.709357 0
M  V30 4729 H 436.625 -1.22349 -1.36759 0
M  V30 4730 H 435.007 -0.587228 -3.91622 0
M  V30 4731 H 436.181 -3.34652 -3.16772 0
M  V30 4732 H 434.496 -2.91314 -2.97532 0
M  V30 4733 H 437.093 -1.24417 -5.20023 0
M  V30 4734 H 437.436 0.117219 -4.16135 0
M  V30 4735 H 437.969 -1.5118 -3.67953 0
M  V30 4736 H 434.708 -4.17674 -5.05202 0
M  V30 4737 H 434.228 -2.51041 -5.44737 0
M  V30 4738 H 435.907 -3.04403 -5.70918 0
M  V30 4739 N 436.039 1.36541 -0.78704 0
M  V30 4740 C 437.279 2.01138 -0.363714 0
M  V30 4741 C 437.643 1.61114 1.04433 0
M  V30 4742 O 438.844 2.18285 1.56861 0
M  V30 4743 C 437.115 3.53603 -0.519582 0
M  V30 4744 S 438.674 4.38415 -0.183782 0
M  V30 4745 H 435.492 0.697263 -0.13909 0
M  V30 4746 H 438.094 1.66475 -1.02501 0
M  V30 4747 H 436.798 3.8022 -1.5447 0
M  V30 4748 H 436.329 3.93084 0.15773 0
M  V30 4749 H 438.344 4.85698 1.01547 0
M  V30 4750 N 437.518 0.538854 1.48102 0
M  V30 4751 C 438.766 0.00798599 2.02098 0
M  V30 4752 C 439.087 -1.33922 1.41739 0
M  V30 4753 O 438.357 -1.86932 0.585934 0
M  V30 4754 H 436.937 -3.62179e-05 0.747 0
M  V30 4755 H 439.599 0.7047 1.81714 0
M  V30 4756 H 438.695 -0.0937672 3.11959 0
M  V30 4757 N 438.996 -1.55193 0.274407 0
M  V30 4758 C 440.242 -1.99877 -0.343086 0
M  V30 4759 C 440.575 -1.16256 -1.55558 0
M  V30 4760 O 439.85 -0.232462 -1.93106 0
M  V30 4761 C 440.133 -3.52706 -0.725965 0
M  V30 4762 C 439.986 -4.47081 0.493818 0
M  V30 4763 C 441.305 -4.11422 -1.56268 0
M  V30 4764 H 438.424 -0.726625 -0.123229 0
M  V30 4765 H 441.066 -1.86136 0.38121 0
M  V30 4766 H 439.216 -3.64546 -1.34307 0
M  V30 4767 H 440.888 -4.47186 1.13237 0
M  V30 4768 H 439.131 -4.1877 1.13201 0
M  V30 4769 H 439.802 -5.51699 0.18217 0
M  V30 4770 H 442.278 -4.02855 -1.04151 0
M  V30 4771 H 441.154 -5.18568 -1.79939 0
M  V30 4772 H 441.415 -3.61607 -2.54348 0
M  V30 4773 N 440.474 -0.00167713 -1.576 0
M  V30 4774 C 441.702 0.693759 -1.94922 0
M  V30 4775 C 442.117 1.67215 -0.876626 0
M  V30 4776 O 441.474 1.81929 0.144279 0
M  V30 4777 C 441.525 1.42416 -3.32265 0
M  V30 4778 O 441.246 0.485014 -4.35407 0
M  V30 4779 C 442.747 2.21395 -3.84056 0
M  V30 4780 H 439.967 0.193118 -0.642609 0
M  V30 4781 H 442.511 -0.0532952 -2.04431 0
M  V30 4782 H 440.666 2.12284 -3.24059 0
M  V30 4783 H 441.08 1.00053 -5.14868 0
M  V30 4784 H 442.554 2.67996 -4.82578 0
M  V30 4785 H 443.031 3.04142 -3.16851 0
M  V30 4786 H 443.637 1.56542 -3.95443 0
M  V30 4787 N 441.952 1.55251 0.271103 0
M  V30 4788 C 443.201 1.75151 1.00025 0
M  V30 4789 C 443.514 0.561041 1.87381 0
M  V30 4790 O 444.72 0.642506 2.63788 0
M  V30 4791 C 443.176 3.09999 1.82835 0
M  V30 4792 C 442.784 4.3662 1.00336 0
M  V30 4793 C 444.528 3.39249 2.55168 0
M  V30 4794 C 442.435 5.62506 1.82595 0
M  V30 4795 H 441.365 0.652877 0.377183 0
M  V30 4796 H 444.016 1.81708 0.255843 0
M  V30 4797 H 442.398 2.97485 2.61378 0
M  V30 4798 H 443.572 4.60055 0.261959 0
M  V30 4799 H 441.887 4.14527 0.394486 0
M  V30 4800 H 444.484 4.3051 3.1712 0
M  V30 4801 H 444.827 2.59467 3.2555 0
M  V30 4802 H 445.36 3.52869 1.83653 0
M  V30 4803 H 442.099 6.45041 1.16631 0
M  V30 4804 H 441.619 5.43211 2.54327 0
M  V30 4805 H 443.298 6.00875 2.39913 0
M  V30 4806 N 443.43 -0.535701 1.48216 0
M  V30 4807 C 444.846 -0.863701 1.3421 0
M  V30 4808 C 445.046 -1.98458 0.34879 0
M  V30 4809 O 444.102 -2.51432 -0.23204 0
M  V30 4810 C 445.415 -1.23662 2.74095 0
M  V30 4811 C 446.963 -1.34683 2.82541 0
M  V30 4812 C 447.438 -1.75322 4.23115 0
M  V30 4813 N 448.929 -1.82434 4.2576 0
M  V30 4814 C 449.664 -2.15252 5.31464 0
M  V30 4815 N 449.16 -2.46533 6.47452 0
M  V30 4816 N 450.953 -2.16209 5.18855 0
M  V30 4817 H 443.104 0.203965 2.11418 0
M  V30 4818 H 445.367 0.0286033 0.947568 0
M  V30 4819 H 445.073 -0.486674 3.48316 0
M  V30 4820 H 444.947 -2.18805 3.07253 0
M  V30 4821 H 447.334 -2.08756 2.08579 0
M  V30 4822 H 447.415 -0.376756 2.5301 0
M  V30 4823 H 447.059 -1.01812 4.97591 0
M  V30 4824 H 446.989 -2.7337 4.50085 0
M  V30 4825 H 449.48 -1.6056 3.42095 0
M  V30 4826 H 449.793 -2.70662 7.23852 0
M  V30 4827 H 448.138 -2.44065 6.50736 0
M  V30 4828 H 451.329 -1.91224 4.2726 0
M  V30 4829 H 451.502 -2.41453 6.01335 0
M  V30 4830 N 444.908 -1.36708 -0.784132 0
M  V30 4831 C 445.84 -1.27333 -1.90575 0
M  V30 4832 C 446.853 -0.191706 -1.61667 0
M  V30 4833 O 448.042 -0.446854 -1.72816 0
M  V30 4834 C 445.142 -0.943177 -3.25511 0
M  V30 4835 C 444.315 -2.12776 -3.82158 0
M  V30 4836 C 443.374 -1.76983 -4.95544 0
M  V30 4837 O 442.4 -2.49134 -5.11782 0
M  V30 4838 N 443.602 -0.706624 -5.76183 0
M  V30 4839 H 446.367 -2.23974 -1.99138 0
M  V30 4840 H 443.928 -1.30171 -0.962656 0
M  V30 4841 H 445.92 -0.684799 -3.98864 0
M  V30 4842 H 444.49 -0.0657333 -3.12531 0
M  V30 4843 H 443.71 -2.54863 -3.0073 0
M  V30 4844 H 444.998 -2.91904 -4.16737 0
M  V30 4845 H 444.396 -0.107643 -5.65598 0
M  V30 4846 H 442.953 -0.50808 -6.49817 0
M  V30 4847 N 446.386 1.0089 -1.21074 0
M  V30 4848 C 447.634 1.74262 -1.02358 0
M  V30 4849 C 447.955 1.89869 0.444393 0
M  V30 4850 O 447.225 1.44677 1.32081 0
M  V30 4851 H 445.805 0.645615 -0.375754 0
M  V30 4852 H 448.467 1.21596 -1.52317 0
M  V30 4853 H 447.563 2.74328 -1.4883 0
M  V30 4854 N 447.864 1.01787 1.20321 0
M  V30 4855 C 448.774 0.598898 2.26827 0
M  V30 4856 C 449.79 -0.36418 1.70146 0
M  V30 4857 O 450.966 -0.224812 2.00141 0
M  V30 4858 C 448.031 -0.0549769 3.46656 0
M  V30 4859 C 447.092 0.954205 4.18561 0
M  V30 4860 C 446.325 0.331439 5.3267 0
M  V30 4861 O 446.548 -0.86851 5.63749 0
M  V30 4862 O 445.482 1.0488 5.92692 0
M  V30 4863 H 449.308 1.48562 2.64883 0
M  V30 4864 H 446.893 0.787434 1.26964 0
M  V30 4865 H 448.775 -0.420102 4.19301 0
M  V30 4866 H 447.45 -0.915876 3.10473 0
M  V30 4867 H 446.357 1.37072 3.48083 0
M  V30 4868 H 447.69 1.78511 4.58688 0
M  V30 4869 N 449.342 -1.36122 0.79427 0
M  V30 4870 C 450.274 -2.28683 0.153903 0
M  V30 4871 C 451.287 -1.49707 -0.639669 0
M  V30 4872 O 452.476 -1.7209 -0.474054 0
M  V30 4873 C 449.576 -3.29202 -0.804921 0
M  V30 4874 C 448.749 -4.37358 -0.060366 0
M  V30 4875 C 447.808 -5.17811 -0.935849 0
M  V30 4876 O 446.834 -5.67853 -0.391309 0
M  V30 4877 N 448.036 -5.34721 -2.25951 0
M  V30 4878 H 450.801 -2.84278 0.949008 0
M  V30 4879 H 448.362 -1.4834 0.648611 0
M  V30 4880 H 450.354 -3.79914 -1.39455 0
M  V30 4881 H 448.924 -2.74212 -1.50088 0
M  V30 4882 H 448.144 -3.87746 0.710382 0
M  V30 4883 H 449.432 -5.06777 0.45324 0
M  V30 4884 H 448.83 -4.95687 -2.72601 0
M  V30 4885 H 447.387 -5.88657 -2.79867 0
M  V30 4886 N 450.82 -0.546701 -1.47814 0
M  V30 4887 C 452.066 -0.0187684 -2.02791 0
M  V30 4888 C 452.399 1.32338 -1.42128 0
M  V30 4889 O 451.674 1.85867 -0.573023 0
M  V30 4890 C 451.957 0.0854985 -3.59998 0
M  V30 4891 C 451.81 -1.283 -4.31114 0
M  V30 4892 C 453.129 0.80412 -4.32691 0
M  V30 4893 H 450.248 -0.0082946 -0.736953 0
M  V30 4894 H 452.89 -0.706962 -1.76358 0
M  V30 4895 H 451.04 0.671609 -3.82651 0
M  V30 4896 H 452.712 -1.91151 -4.19832 0
M  V30 4897 H 450.955 -1.86049 -3.91878 0
M  V30 4898 H 451.626 -1.16287 -5.39612 0
M  V30 4899 H 454.102 0.306576 -4.14969 0
M  V30 4900 H 452.978 0.846011 -5.42341 0
M  V30 4901 H 453.239 1.85802 -4.01161 0
M  V30 4902 N 452.299 1.55045 -0.282633 0
M  V30 4903 C 453.529 2.03872 0.334635 0
M  V30 4904 C 453.937 1.16018 1.49454 0
M  V30 4905 O 453.28 0.174449 1.8287 0
M  V30 4906 C 453.342 3.48791 0.870905 0
M  V30 4907 C 453.006 4.56715 -0.161338 0
M  V30 4908 C 454.003 5.10513 -0.983466 0
M  V30 4909 C 451.688 5.01417 -0.297745 0
M  V30 4910 C 453.682 6.07538 -1.92811 0
M  V30 4911 C 451.369 5.98265 -1.24586 0
M  V30 4912 C 452.367 6.51208 -2.05954 0
M  V30 4913 O 452.055 7.46162 -2.99162 0
M  V30 4914 H 451.787 0.671324 0.0793742 0
M  V30 4915 H 454.341 2.01169 -0.41473 0
M  V30 4916 H 452.571 3.48758 1.67047 0
M  V30 4917 H 454.26 3.80916 1.40207 0
M  V30 4918 H 455.026 4.76785 -0.888856 0
M  V30 4919 H 450.905 4.59849 0.325604 0
M  V30 4920 H 454.449 6.48787 -2.56363 0
M  V30 4921 H 450.346 6.31412 -1.34126 0
M  V30 4922 H 451.114 7.63903 -2.93929 0
M  V30 4923 N 453.777 0.010035 1.57597 0
M  V30 4924 C 454.707 -0.976857 2.12084 0
M  V30 4925 C 455.688 -1.35191 1.03235 0
M  V30 4926 O 456.873 -1.43389 1.3097 0
M  V30 4927 C 454.003 -2.26548 2.63236 0
M  V30 4928 C 452.957 -2.03175 3.76701 0
M  V30 4929 C 452.283 -3.38138 4.14206 0
M  V30 4930 C 453.583 -1.38625 5.03568 0
M  V30 4931 H 455.277 -0.523145 2.94794 0
M  V30 4932 H 452.823 -0.250195 1.4181 0
M  V30 4933 H 454.776 -2.95952 2.99984 0
M  V30 4934 H 453.5 -2.74051 1.77661 0
M  V30 4935 H 452.159 -1.36195 3.40362 0
M  V30 4936 H 451.807 -3.83363 3.25641 0
M  V30 4937 H 451.507 -3.23312 4.90656 0
M  V30 4938 H 453.031 -4.08841 4.53521 0
M  V30 4939 H 454.445 -1.98 5.38023 0
M  V30 4940 H 452.842 -1.34256 5.84889 0
M  V30 4941 H 453.912 -0.356722 4.83586 0
M  V30 4942 N 455.255 -1.55392 -0.262866 0
M  V30 4943 C 456.185 -1.91978 -1.32917 0
M  V30 4944 C 457.166 -0.7828 -1.51017 0
M  V30 4945 O 458.351 -1.04178 -1.63892 0
M  V30 4946 C 455.481 -2.20055 -2.68687 0
M  V30 4947 C 454.435 -3.35854 -2.65304 0
M  V30 4948 C 453.761 -3.49435 -4.04721 0
M  V30 4949 C 455.061 -4.71977 -2.23685 0
M  V30 4950 H 456.755 -2.81292 -1.02544 0
M  V30 4951 H 454.301 -1.3534 -0.491846 0
M  V30 4952 H 456.254 -2.44237 -3.43404 0
M  V30 4953 H 454.978 -1.27551 -3.00663 0
M  V30 4954 H 453.637 -3.11655 -1.93045 0
M  V30 4955 H 453.285 -2.54379 -4.33936 0
M  V30 4956 H 452.985 -4.27297 -4.0335 0
M  V30 4957 H 454.509 -3.7592 -4.81161 0
M  V30 4958 H 455.923 -4.95637 -2.88127 0
M  V30 4959 H 454.32 -5.52828 -2.33456 0
M  V30 4960 H 455.39 -4.70115 -1.18827 0
M  V30 4961 N 456.733 0.527833 -1.48498 0
M  V30 4962 C 457.663 1.64136 -1.66077 0
M  V30 4963 C 458.644 1.62286 -0.509625 0
M  V30 4964 O 459.829 1.79449 -0.742413 0
M  V30 4965 C 456.959 3.02717 -1.70234 0
M  V30 4966 C 455.913 3.19426 -2.8487 0
M  V30 4967 C 455.239 4.5909 -2.74118 0
M  V30 4968 C 456.539 3.01993 -4.26142 0
M  V30 4969 H 458.233 1.4968 -2.593 0
M  V30 4970 H 455.779 0.718654 -1.24785 0
M  V30 4971 H 457.732 3.80491 -1.8112 0
M  V30 4972 H 456.456 3.18201 -0.735911 0
M  V30 4973 H 455.115 2.4407 -2.73542 0
M  V30 4974 H 454.763 4.71413 -1.7544 0
M  V30 4975 H 454.463 4.71214 -3.51042 0
M  V30 4976 H 455.987 5.3896 -2.86974 0
M  V30 4977 H 457.401 3.69558 -4.38292 0
M  V30 4978 H 455.798 3.2561 -5.04082 0
M  V30 4979 H 456.868 1.98396 -4.42456 0
M  V30 4980 N 458.211 1.37122 0.776871 0
M  V30 4981 C 459.459 1.31787 1.53221 0
M  V30 4982 C 459.78 -0.0987589 1.9475 0
M  V30 4983 O 459.05 -1.0417 1.65908 0
M  V30 4984 H 457.63 0.484839 0.568278 0
M  V30 4985 H 460.292 1.71556 0.924917 0
M  V30 4986 H 459.388 1.95355 2.43398 0
M  V30 4987 N 459.689 -1.00246 1.21608 0
M  V30 4988 C 460.652 -2.07233 0.979133 0
M  V30 4989 C 461.652 -1.6072 -0.0508219 0
M  V30 4990 O 462.842 -1.73196 0.186712 0
M  V30 4991 C 459.974 -3.37546 0.477016 0
M  V30 4992 H 461.167 -2.29687 1.92831 0
M  V30 4993 H 458.72 -1.17261 1.03342 0
M  V30 4994 H 459.455 -3.20773 -0.476966 0
M  V30 4995 H 459.24 -3.72638 1.21997 0
M  V30 4996 H 460.73 -4.16285 0.331181 0
M  V30 4997 N 461.167 -1.02423 -1.1978 0
M  V30 4998 C 462.13 -0.605703 -2.21052 0
M  V30 4999 C 463.13 0.328209 -1.57415 0
M  V30 5000 O 464.32 0.115853 -1.73814 0
M  V30 5001 C 461.452 0.114366 -3.40708 0
M  V30 5002 H 462.645 -1.5017 -2.59594 0
M  V30 5003 H 460.198 -0.814888 -1.33376 0
M  V30 5004 H 460.933 1.02492 -3.07678 0
M  V30 5005 H 460.718 -0.556641 -3.88129 0
M  V30 5006 H 462.208 0.394272 -4.15735 0
M  V30 5007 N 462.645 1.35699 -0.801477 0
M  V30 5008 C 463.593 2.3177 -0.196317 0
M  V30 5009 C 464.587 1.56388 0.651081 0
M  V30 5010 O 465.793 1.71557 0.544815 0
M  V30 5011 H 462.168 0.750669 -0.0447189 0
M  V30 5012 H 464.139 2.8036 -1.02181 0
M  V30 5013 C 462.888 3.41671 0.644702 0
M  V30 5014 H 462.211 3.998 0.0019921 0
M  V30 5015 H 463.651 4.11184 1.0346 0
M  V30 5016 C 462.11 2.84271 1.80808 0
M  V30 5017 O 462.64 2.77408 2.9053 0
M  V30 5018 N 460.846 2.41391 1.61799 0
M  V30 5019 H 460.393 2.47173 0.725493 0
M  V30 5020 H 460.351 2.03334 2.39797 0
M  V30 5021 N 464.123 0.554532 1.47522 0
M  V30 5022 C 465.539 0.214107 1.58157 0
M  V30 5023 C 465.739 -1.28331 1.55349 0
M  V30 5024 O 464.795 -2.06329 1.45549 0
M  V30 5025 C 466.108 0.838391 2.88776 0
M  V30 5026 C 467.656 0.809374 3.02354 0
M  V30 5027 C 468.131 1.41268 4.35669 0
M  V30 5028 N 469.622 1.37574 4.42298 0
M  V30 5029 C 470.357 1.8122 5.4401 0
M  V30 5030 N 469.853 2.3271 6.52547 0
M  V30 5031 N 471.646 1.72307 5.35039 0
M  V30 5032 H 463.797 1.52744 1.4759 0
M  V30 5033 H 466.06 0.636812 0.702264 0
M  V30 5034 H 465.766 1.89065 2.96559 0
M  V30 5035 H 465.64 0.329847 3.75755 0
M  V30 5036 H 468.027 -0.234187 2.94169 0
M  V30 5037 H 468.108 1.35565 2.16924 0
M  V30 5038 H 467.752 2.45529 4.4461 0
M  V30 5039 H 467.682 0.841871 5.19827 0
M  V30 5040 H 470.173 0.999081 3.64454 0
M  V30 5041 H 470.486 2.63944 7.26329 0
M  V30 5042 H 468.831 2.36719 6.53444 0
M  V30 5043 H 472.022 1.3186 4.49144 0
M  V30 5044 H 472.195 2.06641 6.14169 0
M  V30 5045 N 465.601 -1.54893 0.290851 0
M  V30 5046 C 466.878 -1.91991 -0.373989 0
M  V30 5047 C 467.258 -1.21694 -1.72493 0
M  V30 5048 O 466.606 -0.34917 -2.25816 0
M  V30 5049 C 466.816 -3.45419 -0.498703 0
M  V30 5050 C 468.164 -4.1748 -0.774298 0
M  V30 5051 O 469.188 -3.51398 -0.582908 0
M  V30 5052 O 468.047 -5.3445 -1.14129 0
M  V30 5053 H 465.141 -0.800593 -0.207315 0
M  V30 5054 H 467.687 -1.66297 0.338164 0
M  V30 5055 H 466.459 -3.88688 0.451392 0
M  V30 5056 H 466.082 -3.77117 -1.25972 0
M  V30 5057 N 467.08 -0.0183926 -1.57589 0
M  V30 5058 C 468.491 0.521927 -1.79256 0
M  V30 5059 C 468.842 1.72885 -0.927636 0
M  V30 5060 O 467.967 2.15978 -0.135091 0
M  V30 5061 C 468.562 0.953632 -3.25102 0
M  V30 5062 C 467.121 1.43913 -3.47801 0
M  V30 5063 C 466.268 0.398837 -2.74417 0
M  V30 5064 H 469.219 -0.244485 -1.56805 0
M  V30 5065 H 469.24 1.81863 -3.34224 0
M  V30 5066 H 468.752 0.0750123 -3.88028 0
M  V30 5067 H 466.853 2.33804 -2.90115 0
M  V30 5068 H 466.966 1.45391 -4.56507 0
M  V30 5069 H 465.33 0.864572 -2.39577 0
M  V30 5070 H 466.113 -0.471132 -3.40052 0
M  V30 5071 N 468.558 1.5553 0.254621 0
M  V30 5072 C 469.783 1.81383 1.00573 0
M  V30 5073 C 470.208 0.594419 1.78461 0
M  V30 5074 O 469.566 -0.456403 1.75461 0
M  V30 5075 C 469.614 3.04892 1.92545 0
M  V30 5076 O 468.718 2.81266 3.01601 0
M  V30 5077 H 468.059 0.598969 0.286587 0
M  V30 5078 H 470.589 2.02703 0.277952 0
M  V30 5079 H 470.599 3.34119 2.34155 0
M  V30 5080 H 469.274 3.93287 1.3527 0
M  V30 5081 H 467.851 2.63185 2.64174 0
M  V30 5082 N 470.036 -0.519951 1.48776 0
M  V30 5083 C 471.285 -1.27175 1.56555 0
M  V30 5084 C 471.598 -1.9401 0.248869 0
M  V30 5085 O 472.804 -2.70725 0.205004 0
M  V30 5086 C 471.26 -2.30811 2.76142 0
M  V30 5087 C 470.868 -1.7 4.14493 0
M  V30 5088 C 472.612 -3.06937 2.9324 0
M  V30 5089 C 470.519 -2.71635 5.25327 0
M  V30 5090 H 469.449 -0.478329 0.582853 0
M  V30 5091 H 472.1 -0.547916 1.75129 0
M  V30 5092 H 470.482 -3.06274 2.51023 0
M  V30 5093 H 471.656 -1.00658 4.49672 0
M  V30 5094 H 469.971 -1.06331 4.02595 0
M  V30 5095 H 472.568 -3.82905 3.73213 0
M  V30 5096 H 472.911 -3.63409 2.03075 0
M  V30 5097 H 473.444 -2.38589 3.18308 0
M  V30 5098 H 470.183 -2.1997 6.1749 0
M  V30 5099 H 469.703 -3.39275 4.94624 0
M  V30 5100 H 471.382 -3.34429 5.53865 0
M  V30 5101 N 471.514 -1.37532 -0.769588 0
M  V30 5102 C 472.761 -1.3286 -1.52822 0
M  V30 5103 C 473.089 0.0862597 -1.94309 0
M  V30 5104 O 472.344 1.05995 -1.6451 0
M  V30 5105 C 472.643 -2.21558 -2.8044 0
M  V30 5106 C 472.309 -3.69796 -2.57996 0
M  V30 5107 C 470.971 -4.10194 -2.51583 0
M  V30 5108 C 473.323 -4.63699 -2.37976 0
M  V30 5109 C 470.651 -5.42608 -2.23144 0
M  V30 5110 C 473.003 -5.96353 -2.1106 0
M  V30 5111 C 471.667 -6.35853 -2.03093 0
M  V30 5112 H 470.937 -0.486168 -0.559215 0
M  V30 5113 H 473.584 -1.69757 -0.886277 0
M  V30 5114 H 471.889 -1.77663 -3.49204 0
M  V30 5115 H 473.586 -2.15256 -3.38328 0
M  V30 5116 H 470.176 -3.37759 -2.63851 0
M  V30 5117 H 474.36 -4.33346 -2.41919 0
M  V30 5118 H 469.616 -5.72173 -2.15472 0
M  V30 5119 H 473.79 -6.68667 -1.94568 0
M  V30 5120 H 471.417 -7.38382 -1.8082 0
M  V30 5121 N 472.992 0.995999 -1.22138 0
M  V30 5122 C 474.22 1.77066 -1.07029 0
M  V30 5123 C 474.635 1.8495 0.379357 0
M  V30 5124 O 473.992 1.3174 1.26297 0
M  V30 5125 C 474.043 3.20533 -1.67155 0
M  V30 5126 O 473.764 3.13082 -3.06449 0
M  V30 5127 C 475.265 4.14461 -1.5728 0
M  V30 5128 H 472.485 0.556179 -0.375374 0
M  V30 5129 H 475.029 1.25238 -1.61666 0
M  V30 5130 H 473.184 3.6944 -1.16589 0
M  V30 5131 H 473.598 4.03283 -3.35355 0
M  V30 5132 H 475.072 5.1289 -2.04078 0
M  V30 5133 H 475.549 4.36005 -0.528795 0
M  V30 5134 H 476.155 3.71449 -2.07136 0
M  V30 5135 N 474.47 1.03057 1.19235 0
M  V30 5136 C 475.418 0.606391 2.24557 0
M  V30 5137 C 476.412 -0.361826 1.65491 0
M  V30 5138 O 477.618 -0.23022 1.78522 0
M  V30 5139 H 473.993 0.177838 0.730669 0
M  V30 5140 H 475.964 1.50529 2.5765 0
M  V30 5141 C 474.713 -0.0252127 3.47691 0
M  V30 5142 H 474.036 0.710838 3.9343 0
M  V30 5143 H 475.476 -0.284931 4.23042 0
M  V30 5144 C 473.935 -1.27229 3.11953 0
M  V30 5145 O 474.465 -2.36416 3.24762 0
M  V30 5146 N 472.671 -1.16169 2.6637 0
M  V30 5147 H 472.218 -0.273189 2.56147 0
M  V30 5148 H 472.176 -1.99703 2.42829 0
M  V30 5149 N 475.948 -1.35272 0.808662 0
M  V30 5150 C 477.359 -1.81179 0.450688 0
M  V30 5151 C 477.71 -1.67143 -1.02751 0
M  V30 5152 O 476.835 -1.20325 -1.79864 0
M  V30 5153 C 477.43 -3.28943 0.811275 0
M  V30 5154 C 475.989 -3.72985 0.505871 0
M  V30 5155 C 475.136 -2.57229 1.03578 0
M  V30 5156 H 478.087 -1.2322 1.00012 0
M  V30 5157 H 478.108 -3.80342 0.109588 0
M  V30 5158 H 477.62 -3.39127 1.88718 0
M  V30 5159 H 475.721 -3.68349 -0.561209 0
M  V30 5160 H 475.834 -4.67677 1.03995 0
M  V30 5161 H 474.198 -2.50548 0.458005 0
M  V30 5162 H 474.981 -2.7019 2.11784 0
M  V30 5163 N 477.426 -0.562348 -1.47226 0
M  V30 5164 C 478.703 0.0256985 -1.95583 0
M  V30 5165 C 479.083 1.48032 -1.50498 0
M  V30 5166 O 478.431 2.15973 -0.746181 0
M  V30 5167 C 478.641 -0.125129 -3.48776 0
M  V30 5168 C 479.989 0.0175728 -4.24596 0
M  V30 5169 O 481.013 -0.0529341 -3.56161 0
M  V30 5170 O 479.872 0.170145 -5.46235 0
M  V30 5171 H 476.966 0.0612565 -0.824728 0
M  V30 5172 H 479.512 -0.629233 -1.57603 0
M  V30 5173 H 478.284 -1.13715 -3.74412 0
M  V30 5174 H 477.907 0.567178 -3.93534 0
M  V30 5175 N 478.904 1.54736 -0.299062 0
M  V30 5176 C 480.15 2.00397 0.311244 0
M  V30 5177 C 480.483 1.18716 1.53688 0
M  V30 5178 O 479.758 0.263154 1.92712 0
M  V30 5179 C 480.041 3.53817 0.669761 0
M  V30 5180 C 479.894 4.46239 -0.564882 0
M  V30 5181 C 481.213 4.13856 1.49702 0
M  V30 5182 H 478.332 0.728493 0.111653 0
M  V30 5183 H 480.974 1.85506 -0.410774 0
M  V30 5184 H 479.124 3.66637 1.28491 0
M  V30 5185 H 480.796 4.45328 -1.20337 0
M  V30 5186 H 479.039 4.16916 -1.19849 0
M  V30 5187 H 479.71 5.5134 -0.269918 0
M  V30 5188 H 482.186 4.04461 0.977284 0
M  V30 5189 H 481.062 5.21365 1.71666 0
M  V30 5190 H 481.323 3.65608 2.48563 0
M  V30 5191 N 480.382 0.0267497 1.57577 0
M  V30 5192 C 481.629 -0.652404 1.91703 0
M  V30 5193 C 481.957 -1.72271 0.902936 0
M  V30 5194 O 481.212 -1.955 -0.0884843 0
M  V30 5195 C 481.511 -1.30914 3.3256 0
M  V30 5196 C 481.177 -0.369441 4.49384 0
M  V30 5197 C 479.839 -0.110791 4.81072 0
M  V30 5198 C 482.191 0.275971 5.20469 0
M  V30 5199 C 479.519 0.801116 5.81205 0
M  V30 5200 C 481.871 1.17592 6.21575 0
M  V30 5201 C 480.535 1.44348 6.51705 0
M  V30 5202 H 479.805 -0.238732 0.70149 0
M  V30 5203 H 482.452 0.0880091 1.91298 0
M  V30 5204 H 480.757 -2.12425 3.29216 0
M  V30 5205 H 482.454 -1.84115 3.56234 0
M  V30 5206 H 479.044 -0.581211 4.24641 0
M  V30 5207 H 483.228 0.0892 4.9622 0
M  V30 5208 H 478.484 1.01614 6.02897 0
M  V30 5209 H 482.658 1.68223 6.75777 0
M  V30 5210 H 480.285 2.15176 7.29111 0
M  V30 5211 N 481.861 -1.55662 -0.24637 0
M  V30 5212 C 483.138 -1.68272 -0.997198 0
M  V30 5213 C 483.518 -0.566785 -2.03349 0
M  V30 5214 O 482.866 0.429688 -2.24424 0
M  V30 5215 C 483.076 -3.08594 -1.63006 0
M  V30 5216 C 484.424 -3.6721 -2.13171 0
M  V30 5217 O 485.448 -3.11397 -1.72946 0
M  V30 5218 O 484.307 -4.65054 -2.87031 0
M  V30 5219 H 481.401 -0.684429 -0.464205 0
M  V30 5220 H 483.947 -1.67993 -0.240114 0
M  V30 5221 H 482.719 -3.81264 -0.880527 0
M  V30 5222 H 482.342 -3.12886 -2.45333 0
M  V30 5223 N 483.339 0.512053 -1.4905 0
M  V30 5224 C 484.588 1.26343 -1.57227 0
M  V30 5225 C 484.901 1.93876 -0.259155 0
M  V30 5226 O 486.107 2.70612 -0.219358 0
M  V30 5227 C 484.563 2.29343 -2.77362 0
M  V30 5228 C 484.171 1.67799 -4.15388 0
M  V30 5229 C 485.915 3.05378 -2.94864 0
M  V30 5230 C 483.822 2.68845 -5.2676 0
M  V30 5231 H 482.752 0.475231 -0.585382 0
M  V30 5232 H 485.403 0.53862 -1.75417 0
M  V30 5233 H 483.785 3.04938 -2.52643 0
M  V30 5234 H 484.959 0.982715 -4.50199 0
M  V30 5235 H 483.274 1.04194 -4.03153 0
M  V30 5236 H 485.871 3.80921 -3.75238 0
M  V30 5237 H 486.214 3.62327 -2.05 0
M  V30 5238 H 486.747 2.36898 -3.19569 0
M  V30 5239 H 483.486 2.16692 -6.18647 0
M  V30 5240 H 483.006 3.36647 -4.96416 0
M  V30 5241 H 484.685 3.31487 -5.5563 0
M  V30 5242 N 484.817 1.37938 0.762283 0
M  V30 5243 C 486.045 1.36883 1.55147 0
M  V30 5244 C 486.46 -0.0435348 1.8875 0
M  V30 5245 O 485.817 -1.00786 1.52146 0
M  V30 5246 C 485.868 2.21624 2.85596 0
M  V30 5247 O 485.589 3.57358 2.5343 0
M  V30 5248 C 487.09 2.28653 3.7978 0
M  V30 5249 H 484.31 0.468521 0.480343 0
M  V30 5250 H 486.854 1.81404 0.944079 0
M  V30 5251 H 485.009 1.80588 3.42734 0
M  V30 5252 H 485.423 4.01883 3.37032 0
M  V30 5253 H 486.897 2.9225 4.68288 0
M  V30 5254 H 487.374 1.29767 4.19592 0
M  V30 5255 H 487.98 2.70043 3.28568 0
M  V30 5256 N 486.295 -0.989507 1.22664 0
M  V30 5257 C 487.711 -1.25395 0.987331 0
M  V30 5258 C 487.911 -1.9899 -0.317056 0
M  V30 5259 O 486.967 -2.30141 -1.03882 0
M  V30 5260 C 488.28 -2.06242 2.18826 0
M  V30 5261 C 489.828 -2.19413 2.23219 0
M  V30 5262 C 490.303 -3.03648 3.42873 0
M  V30 5263 N 491.794 -3.11234 3.43056 0
M  V30 5264 C 492.529 -3.7671 4.32293 0
M  V30 5265 N 492.025 -4.44085 5.31752 0
M  V30 5266 N 493.818 -3.73505 4.2006 0
M  V30 5267 H 485.969 -0.496212 2.06522 0
M  V30 5268 H 488.232 -0.281784 0.905153 0
M  V30 5269 H 487.938 -1.59531 3.13437 0
M  V30 5270 H 487.812 -3.06996 2.19165 0
M  V30 5271 H 490.199 -2.65336 1.29154 0
M  V30 5272 H 490.28 -1.18078 2.26917 0
M  V30 5273 H 489.924 -2.58424 4.37241 0
M  V30 5274 H 489.854 -4.05132 3.36416 0
M  V30 5275 H 492.345 -2.63287 2.71088 0
M  V30 5276 H 492.658 -4.91797 5.96117 0
M  V30 5277 H 491.003 -4.42822 5.35662 0
M  V30 5278 H 494.194 -3.20033 3.41609 0
M  V30 5279 H 494.367 -4.24253 4.8981 0
M  V30 5280 N 487.773 -1.03688 -1.18687 0
M  V30 5281 C 488.998 -0.757819 -1.93059 0
M  V30 5282 C 489.423 0.678353 -1.75442 0
M  V30 5283 O 488.781 1.46938 -1.06203 0
M  V30 5284 C 488.829 -1.12423 -3.42627 0
M  V30 5285 O 487.933 -0.247505 -4.11657 0
M  V30 5286 H 487.274 -0.279245 -0.602427 0
M  V30 5287 H 489.804 -1.3857 -1.5053 0
M  V30 5288 H 489.814 -1.08454 -3.93322 0
M  V30 5289 H 488.489 -2.17049 -3.54771 0
M  V30 5290 H 487.066 -0.34649 -3.71287 0
M  V30 5291 N 489.251 1.34841 -0.815825 0
M  V30 5292 C 490.662 1.80937 -0.46029 0
M  V30 5293 C 491.013 1.67685 1.01863 0
M  V30 5294 O 490.138 1.21277 1.79223 0
M  V30 5295 C 490.733 3.28509 -0.828708 0
M  V30 5296 C 489.292 3.72712 -0.525644 0
M  V30 5297 C 488.439 2.56676 -1.04941 0
M  V30 5298 H 491.39 1.22688 -1.00664 0
M  V30 5299 H 491.411 3.80279 -0.129757 0
M  V30 5300 H 490.923 3.38122 -1.90513 0
M  V30 5301 H 489.024 3.68642 0.541666 0
M  V30 5302 H 489.137 4.67119 -1.06474 0
M  V30 5303 H 487.501 2.50302 -0.471286 0
M  V30 5304 H 488.284 2.69063 -2.13214 0
M  V30 5305 N 490.729 0.570148 1.46925 0
M  V30 5306 C 491.677 -0.183181 2.31878 0
M  V30 5307 C 492.671 -0.896721 1.43719 0
M  V30 5308 O 493.877 -0.816536 1.60414 0
M  V30 5309 H 490.252 -0.077944 0.74795 0
M  V30 5310 H 492.223 0.552312 2.93244 0
M  V30 5311 C 490.972 -1.19172 3.2664 0
M  V30 5312 H 490.295 -0.652088 3.94446 0
M  V30 5313 H 491.735 -1.68946 3.88887 0
M  V30 5314 C 490.194 -2.24627 2.51086 0
M  V30 5315 O 490.724 -3.31773 2.26472 0
M  V30 5316 N 488.93 -1.98898 2.11867 0
M  V30 5317 H 488.477 -1.11777 2.32086 0
M  V30 5318 H 488.435 -2.6967 1.61634 0
M  V30 5319 N 492.207 -1.54576 0.307264 0
M  V30 5320 C 493.618 -1.8579 -0.184121 0
M  V30 5321 C 493.969 -1.22914 -1.52927 0
M  V30 5322 O 493.094 -0.529126 -2.09831 0
M  V30 5323 C 493.689 -3.37081 -0.340862 0
M  V30 5324 C 492.248 -3.68304 -0.776465 0
M  V30 5325 C 491.395 -2.77076 0.111503 0
M  V30 5326 H 494.346 -1.49656 0.528078 0
M  V30 5327 H 494.367 -3.61922 -1.17443 0
M  V30 5328 H 493.879 -3.82815 0.638309 0
M  V30 5329 H 491.98 -3.28092 -1.76596 0
M  V30 5330 H 492.093 -4.75434 -0.591512 0
M  V30 5331 H 490.457 -2.51374 -0.410256 0
M  V30 5332 H 491.24 -3.25632 1.08714 0
M  V30 5333 N 493.685 -0.035106 -1.57561 0
M  V30 5334 C 494.635 0.954034 -2.0708 0
M  V30 5335 C 495.619 1.2818 -0.972558 0
M  V30 5336 O 496.811 1.26691 -1.23606 0
M  V30 5337 C 493.94 2.23442 -2.60631 0
M  V30 5338 C 493.026 1.93475 -3.77396 0
M  V30 5339 N 493.417 1.33802 -4.87781 0
M  V30 5340 C 491.715 2.23434 -3.85996 0
M  V30 5341 C 492.416 1.21103 -5.68954 0
M  V30 5342 N 491.392 1.70855 -5.16052 0
M  V30 5343 H 495.194 0.487731 -2.89825 0
M  V30 5344 H 492.708 0.169759 -1.6151 0
M  V30 5345 H 494.705 2.95183 -2.94402 0
M  V30 5346 H 493.365 2.70693 -1.79319 0
M  V30 5347 H 494.376 1.01227 -5.07911 0
M  V30 5348 H 491.053 2.73317 -3.15601 0
M  V30 5349 H 492.443 0.749105 -6.67711 0
M  V30 5350 N 495.163 1.55791 0.238111 0
M  V30 5351 C 496.093 1.94068 1.29846 0
M  V30 5352 C 497.074 0.806726 1.49753 0
M  V30 5353 O 498.259 1.06772 1.62214 0
M  V30 5354 C 495.389 2.24302 2.65153 0
M  V30 5355 C 494.343 3.40032 2.59927 0
M  V30 5356 C 493.669 3.55829 3.99111 0
M  V30 5357 C 494.969 4.75476 2.16148 0
M  V30 5358 H 496.663 2.82887 0.980563 0
M  V30 5359 H 494.209 1.36105 0.470253 0
M  V30 5360 H 496.162 2.4967 3.39475 0
M  V30 5361 H 494.886 1.32318 2.98596 0
M  V30 5362 H 493.545 3.14687 1.88063 0
M  V30 5363 H 493.193 2.6125 4.29834 0
M  V30 5364 H 492.893 4.3366 3.96501 0
M  V30 5365 H 494.417 3.83528 4.7512 0
M  V30 5366 H 495.831 5.00158 2.80205 0
M  V30 5367 H 494.228 5.56472 2.24631 0
M  V30 5368 H 495.298 4.71946 1.11333 0
M  V30 5369 N 496.642 -0.504142 1.49319 0
M  V30 5370 C 497.867 -1.28729 1.62615 0
M  V30 5371 C 498.292 -1.85752 0.296309 0
M  V30 5372 O 497.65 -1.65704 -0.735649 0
M  V30 5373 C 497.698 -2.39561 2.69524 0
M  V30 5374 O 496.802 -3.43324 2.28478 0
M  V30 5375 H 496.143 -0.380172 0.544395 0
M  V30 5376 H 498.673 -0.603872 1.95485 0
M  V30 5377 H 498.683 -2.8537 2.91595 0
M  V30 5378 H 497.358 -1.97423 3.66056 0
M  V30 5379 H 495.935 -3.03455 2.16725 0
M  V30 5380 N 498.12 -1.38341 -0.754957 0
M  V30 5381 C 499.367 -1.34473 -1.51404 0
M  V30 5382 C 499.695 0.0656458 -1.94389 0
M  V30 5383 O 498.95 1.04244 -1.65625 0
M  V30 5384 C 499.249 -2.2452 -2.78075 0
M  V30 5385 C 498.915 -3.72512 -2.54059 0
M  V30 5386 C 497.577 -4.1284 -2.47218 0
M  V30 5387 C 499.929 -4.66197 -2.33044 0
M  V30 5388 C 497.257 -5.44945 -2.17376 0
M  V30 5389 C 499.609 -5.98558 -2.04723 0
M  V30 5390 C 498.273 -6.37972 -1.96337 0
M  V30 5391 H 497.543 -0.492072 -0.554027 0
M  V30 5392 H 500.19 -1.70687 -0.868223 0
M  V30 5393 H 498.495 -1.81357 -3.473 0
M  V30 5394 H 500.192 -2.18832 -3.36026 0
M  V30 5395 H 496.782 -3.40538 -2.60253 0
M  V30 5396 H 500.966 -4.35888 -2.37309 0
M  V30 5397 H 496.222 -5.74426 -2.09391 0
M  V30 5398 H 500.396 -6.70693 -1.87465 0
M  V30 5399 H 498.023 -7.40258 -1.72978 0
M  V30 5400 N 499.598 0.982988 -1.23187 0
M  V30 5401 C 500.846 1.72052 -1.06031 0
M  V30 5402 C 501.167 1.90769 0.404019 0
M  V30 5403 O 500.437 1.47446 1.28982 0
M  V30 5404 H 499.017 0.637499 -0.389363 0
M  V30 5405 H 501.679 1.18338 -1.54862 0
M  V30 5406 H 500.775 2.7111 -1.54615 0
M  V30 5407 N 501.076 1.04316 1.18135 0
M  V30 5408 C 502.026 0.606731 2.19779 0
M  V30 5409 C 503.01 -0.352144 1.56999 0
M  V30 5410 O 504.202 -0.170795 1.76174 0
M  V30 5411 C 501.331 -0.0262443 3.4329 0
M  V30 5412 C 500.417 0.955928 4.13186 0
M  V30 5413 N 500.808 2.12395 4.59045 0
M  V30 5414 C 499.106 0.782473 4.39082 0
M  V30 5415 C 499.807 2.74458 5.12882 0
M  V30 5416 N 498.783 2.02316 5.04548 0
M  V30 5417 H 502.585 1.49679 2.5293 0
M  V30 5418 H 500.099 0.912088 1.34368 0
M  V30 5419 H 502.096 -0.356617 4.15372 0
M  V30 5420 H 500.756 -0.911811 3.11635 0
M  V30 5421 H 501.767 2.50272 4.53414 0
M  V30 5422 H 498.444 -0.0527906 4.17467 0
M  V30 5423 H 499.834 3.73459 5.5855 0
M  V30 5424 N 502.554 -1.34406 0.822964 0
M  V30 5425 C 503.802 -1.97892 0.410245 0
M  V30 5426 C 504.123 -1.65567 -1.03017 0
M  V30 5427 O 503.393 -0.94642 -1.71522 0
M  V30 5428 H 501.973 -0.732049 0.148707 0
M  V30 5429 H 504.635 -1.64043 1.05242 0
M  V30 5430 H 503.731 -3.07579 0.529284 0
M  V30 5431 N 504.032 -0.577932 -1.46621 0
M  V30 5432 C 504.982 0.178869 -2.27297 0
M  V30 5433 C 505.966 0.866279 -1.35589 0
M  V30 5434 O 507.158 0.761163 -1.59798 0
M  V30 5435 C 504.287 1.19499 -3.2183 0
M  V30 5436 C 503.373 0.50994 -4.21023 0
M  V30 5437 N 503.764 -0.43177 -5.03954 0
M  V30 5438 C 502.062 0.761287 -4.39455 0
M  V30 5439 C 502.763 -0.831693 -5.75724 0
M  V30 5440 N 501.739 -0.181897 -5.43296 0
M  V30 5441 H 505.541 -0.544859 -2.88805 0
M  V30 5442 H 503.055 -0.399373 -1.57413 0
M  V30 5443 H 505.052 1.75131 -3.78332 0
M  V30 5444 H 503.712 1.91959 -2.61881 0
M  V30 5445 H 504.723 -0.807045 -5.11573 0
M  V30 5446 H 501.4 1.47282 -3.90659 0
M  V30 5447 H 502.79 -1.6067 -6.52407 0
M  V30 5448 N 505.51 1.54411 -0.315457 0
M  V30 5449 C 506.46 2.20772 0.569549 0
M  V30 5450 C 507.444 1.18551 1.08787 0
M  V30 5451 O 508.636 1.44213 1.02624 0
M  V30 5452 C 505.765 2.96293 1.73394 0
M  V30 5453 C 504.851 4.05844 1.2309 0
M  V30 5454 N 505.242 5.03822 0.446927 0
M  V30 5455 C 503.54 4.19648 1.51035 0
M  V30 5456 C 504.241 5.8143 0.17725 0
M  V30 5457 N 503.217 5.38245 0.761118 0
M  V30 5458 H 507.019 2.93877 -0.0368076 0
M  V30 5459 H 504.533 1.61949 -0.120915 0
M  V30 5460 H 506.53 3.42313 2.37965 0
M  V30 5461 H 505.19 2.24708 2.34386 0
M  V30 5462 H 506.201 5.17821 0.0905027 0
M  V30 5463 H 502.878 3.59274 2.1267 0
M  V30 5464 H 504.268 6.70369 -0.45335 0
M  V30 5465 N 506.988 0.0434614 1.5754 0
M  V30 5466 C 508.234 -0.632971 1.92669 0
M  V30 5467 C 508.567 -1.70947 0.921446 0
M  V30 5468 O 507.842 -1.94426 -0.0537202 0
M  V30 5469 C 508.125 -1.23619 3.38216 0
M  V30 5470 C 507.978 -0.168274 4.49485 0
M  V30 5471 C 509.297 -2.15008 3.84005 0
M  V30 5472 H 506.416 -0.228629 0.700641 0
M  V30 5473 H 509.058 0.103651 1.89717 0
M  V30 5474 H 507.208 -1.864 3.40863 0
M  V30 5475 H 508.88 0.463196 4.58969 0
M  V30 5476 H 507.123 0.504581 4.30855 0
M  V30 5477 H 507.794 -0.630218 5.48391 0
M  V30 5478 H 510.27 -1.62198 3.83185 0
M  V30 5479 H 509.146 -2.54161 4.86511 0
M  V30 5480 H 509.407 -3.04707 3.20322 0
M  V30 5481 N 508.466 -1.55915 -0.229846 0
M  V30 5482 C 509.706 -1.80314 -0.962614 0
M  V30 5483 C 510.07 -0.61568 -1.81861 0
M  V30 5484 O 511.271 -0.738795 -2.58448 0
M  V30 5485 C 509.542 -3.0956 -1.78627 0
M  V30 5486 S 511.101 -3.55243 -2.57581 0
M  V30 5487 H 507.919 -0.633142 -0.323499 0
M  V30 5488 H 510.521 -1.94155 -0.228919 0
M  V30 5489 H 509.225 -3.94033 -1.14742 0
M  V30 5490 H 508.756 -2.98503 -2.56241 0
M  V30 5491 H 510.771 -3.17924 -3.80971 0
M  V30 5492 N 509.944 0.496216 -1.49584 0
M  V30 5493 C 510.874 1.60576 -1.69521 0
M  V30 5494 C 511.855 1.61169 -0.543933 0
M  V30 5495 O 513.04 1.77834 -0.78031 0
M  V30 5496 C 510.17 2.99038 -1.76616 0
M  V30 5497 C 509.124 3.13312 -2.91581 0
M  V30 5498 C 508.45 4.53172 -2.83794 0
M  V30 5499 C 509.75 2.92886 -4.32452 0
M  V30 5500 H 511.444 1.44146 -2.62416 0
M  V30 5501 H 508.99 0.692024 -1.26282 0
M  V30 5502 H 510.943 3.76564 -1.8915 0
M  V30 5503 H 509.667 3.16568 -0.80324 0
M  V30 5504 H 508.326 2.38213 -2.78658 0
M  V30 5505 H 507.974 4.67585 -1.854 0
M  V30 5506 H 507.674 4.63662 -3.60958 0
M  V30 5507 H 509.198 5.32752 -2.98342 0
M  V30 5508 H 510.612 3.60178 -4.46032 0
M  V30 5509 H 509.009 3.14844 -5.10875 0
M  V30 5510 H 510.079 1.88966 -4.46565 0
M  V30 5511 N 511.423 1.38739 0.74761 0
M  V30 5512 C 512.671 1.35007 1.50391 0
M  V30 5513 C 512.992 -0.0574274 1.94915 0
M  V30 5514 O 512.262 -1.00628 1.6808 0
M  V30 5515 H 510.842 0.496784 0.557866 0
M  V30 5516 H 513.504 1.73479 0.888319 0
M  V30 5517 H 512.6 2.00474 2.392 0
M  V30 5518 N 512.901 -0.976442 1.23707 0
M  V30 5519 C 514.126 -1.75875 1.09922 0
M  V30 5520 C 514.551 -1.84911 -0.34489 0
M  V30 5521 O 513.909 -1.31363 -1.24954 0
M  V30 5522 C 513.957 -3.16179 1.73388 0
M  V30 5523 O 513.061 -4.00124 0.99871 0
M  V30 5524 H 512.402 -0.540954 0.385052 0
M  V30 5525 H 514.932 -1.22546 1.6384 0
M  V30 5526 H 514.942 -3.66741 1.78788 0
M  V30 5527 H 513.617 -3.08917 2.78466 0
M  V30 5528 H 512.194 -3.58624 1.02193 0
M  V30 5529 N 514.379 -1.04941 -1.1758 0
M  V30 5530 C 515.604 -0.778253 -1.92245 0
M  V30 5531 C 516.029 0.659707 -1.76152 0
M  V30 5532 O 515.387 1.45803 -1.07755 0
M  V30 5533 C 515.435 -1.16051 -3.41416 0
M  V30 5534 O 514.539 -0.291153 -4.11371 0
M  V30 5535 H 513.88 -0.285619 -0.599431 0
M  V30 5536 H 516.41 -1.40159 -1.49052 0
M  V30 5537 H 516.42 -1.12619 -3.92149 0
M  V30 5538 H 515.095 -2.208 -3.52449 0
M  V30 5539 H 513.672 -0.385851 -3.70898 0
M  V30 5540 N 515.857 1.33968 -0.830081 0
M  V30 5541 C 516.787 2.31911 -0.271911 0
M  V30 5542 C 517.768 1.58571 0.61556 0
M  V30 5543 O 518.953 1.86514 0.540946 0
M  V30 5544 C 516.083 3.42737 0.561146 0
M  V30 5545 C 515.037 4.27383 -0.229789 0
M  V30 5546 C 514.363 5.29742 0.726463 0
M  V30 5547 C 515.663 5.02 -1.44197 0
M  V30 5548 H 517.357 2.78844 -1.09025 0
M  V30 5549 H 514.903 1.34061 -0.52571 0
M  V30 5550 H 516.856 4.10276 0.961867 0
M  V30 5551 H 515.58 2.94471 1.41261 0
M  V30 5552 H 514.239 3.61456 -0.611964 0
M  V30 5553 H 513.887 4.77736 1.57408 0
M  V30 5554 H 513.587 5.87255 0.20142 0
M  V30 5555 H 515.111 6.00149 1.12489 0
M  V30 5556 H 516.525 5.62355 -1.11488 0
M  V30 5557 H 514.922 5.69122 -1.90317 0
M  V30 5558 H 515.992 4.31281 -2.2164 0
M  V30 5559 N 517.335 0.585699 1.46312 0
M  V30 5560 C 518.298 -0.135673 2.28798 0
M  V30 5561 C 519.298 -0.815988 1.38558 0
M  V30 5562 O 520.488 -0.667487 1.60904 0
M  V30 5563 C 517.62 -1.20163 3.1902 0
M  V30 5564 H 518.813 0.589257 2.94054 0
M  V30 5565 H 516.366 0.343794 1.52472 0
M  V30 5566 H 517.101 -1.95804 2.58517 0
M  V30 5567 H 516.886 -0.718282 3.85465 0
M  V30 5568 H 518.376 -1.70749 3.81096 0
M  V30 5569 N 518.813 -1.54241 0.323641 0
M  V30 5570 C 520.229 -1.59574 -0.0290018 0
M  V30 5571 C 520.429 -1.34017 -1.50472 0
M  V30 5572 O 519.485 -1.12464 -2.26071 0
M  V30 5573 C 520.798 -2.98169 0.389295 0
M  V30 5574 C 522.346 -3.11148 0.339958 0
M  V30 5575 C 522.821 -4.5209 0.733418 0
M  V30 5576 N 524.312 -4.5808 0.686827 0
M  V30 5577 C 525.047 -5.65248 0.963464 0
M  V30 5578 N 524.543 -6.80355 1.30724 0
M  V30 5579 N 526.336 -5.55025 0.88902 0
M  V30 5580 H 518.487 -1.6911 1.28512 0
M  V30 5581 H 520.75 -0.790972 0.522558 0
M  V30 5582 H 520.456 -3.21871 1.41746 0
M  V30 5583 H 520.33 -3.76399 -0.245657 0
M  V30 5584 H 522.717 -2.87182 -0.679002 0
M  V30 5585 H 522.798 -2.35023 1.00985 0
M  V30 5586 H 522.442 -4.76788 1.75029 0
M  V30 5587 H 522.372 -5.26584 0.0412189 0
M  V30 5588 H 524.863 -3.75411 0.43298 0
M  V30 5589 H 525.176 -7.58029 1.5037 0
M  V30 5590 H 523.521 -6.81851 1.3455 0
M  V30 5591 H 526.712 -4.63977 0.619939 0
M  V30 5592 H 526.885 -6.38458 1.10797 0
M  V30 5593 N 520.291 -0.0518155 -1.57515 0
M  V30 5594 C 521.221 0.920283 -2.146 0
M  V30 5595 C 522.202 1.32406 -1.06783 0
M  V30 5596 O 523.387 1.39866 -1.34726 0
M  V30 5597 C 520.517 2.1949 -2.6915 0
M  V30 5598 C 519.471 1.93116 -3.81956 0
M  V30 5599 C 518.797 3.27037 -4.23026 0
M  V30 5600 C 520.097 1.25225 -5.07066 0
M  V30 5601 H 521.791 0.444801 -2.96077 0
M  V30 5602 H 519.337 0.212508 -1.42423 0
M  V30 5603 H 521.29 2.87894 -3.07725 0
M  V30 5604 H 520.014 2.69244 -1.84865 0
M  V30 5605 H 518.673 1.27123 -3.43854 0
M  V30 5606 H 518.321 3.74595 -3.3569 0
M  V30 5607 H 518.021 3.10189 -4.99056 0
M  V30 5608 H 519.545 3.96673 -4.64202 0
M  V30 5609 H 520.959 1.83666 -5.43083 0
M  V30 5610 H 519.356 1.18702 -5.88243 0
M  V30 5611 H 520.426 0.228382 -4.84362 0
M  V30 5612 N 521.769 1.56035 0.221574 0
M  V30 5613 C 522.679 1.95581 1.29558 0
M  V30 5614 C 523.695 0.859639 1.51282 0
M  V30 5615 O 524.871 1.16321 1.64413 0
M  V30 5616 C 521.936 2.26447 2.62531 0
M  V30 5617 C 520.997 3.49632 2.4911 0
M  V30 5618 C 520.23 3.79017 3.75742 0
M  V30 5619 O 520.453 3.10077 4.78757 0
M  V30 5620 O 519.387 4.72507 3.72855 0
M  V30 5621 H 523.213 2.8711 0.990035 0
M  V30 5622 H 520.798 1.43244 0.424434 0
M  V30 5623 H 522.68 2.47494 3.41064 0
M  V30 5624 H 521.355 1.38092 2.92766 0
M  V30 5625 H 520.262 3.33864 1.68777 0
M  V30 5626 H 521.595 4.3837 2.23814 0
M  V30 5627 N 523.247 -0.488276 1.49845 0
M  V30 5628 C 524.21 -1.57069 1.66919 0
M  V30 5629 C 525.21 -1.51445 0.540479 0
M  V30 5630 O 526.4 -1.5437 0.807188 0
M  V30 5631 C 523.532 -2.96718 1.67844 0
M  V30 5632 H 524.725 -1.43254 2.63474 0
M  V30 5633 H 522.278 -0.713435 1.39068 0
M  V30 5634 H 523.013 -3.15996 0.7292 0
M  V30 5635 H 522.798 -3.02208 2.49826 0
M  V30 5636 H 524.288 -3.75335 1.83066 0
M  V30 5637 N 524.725 -1.39134 -0.740242 0
M  V30 5638 C 525.657 -1.33332 -1.86428 0
M  V30 5639 C 526.67 -0.243042 -1.60976 0
M  V30 5640 O 527.859 -0.501608 -1.71307 0
M  V30 5641 C 524.959 -1.04626 -3.22346 0
M  V30 5642 C 524.132 -2.24826 -3.75196 0
M  V30 5643 C 523.191 -1.92659 -4.89662 0
M  V30 5644 O 522.217 -2.6529 -5.03597 0
M  V30 5645 N 523.419 -0.889575 -5.73643 0
M  V30 5646 H 526.184 -2.30196 -1.91911 0
M  V30 5647 H 523.745 -1.33168 -0.920756 0
M  V30 5648 H 525.737 -0.811347 -3.96484 0
M  V30 5649 H 524.307 -0.165129 -3.12164 0
M  V30 5650 H 523.527 -2.64301 -2.9247 0
M  V30 5651 H 524.815 -3.05015 -4.07239 0
M  V30 5652 H 524.213 -0.287529 -5.64969 0
M  V30 5653 H 522.77 -0.714557 -6.47871 0
M  V30 5654 N 526.204 0.969867 -1.24223 0
M  V30 5655 C 527.453 1.70687 -1.07466 0
M  V30 5656 C 527.766 1.91736 0.386861 0
M  V30 5657 O 528.972 2.62986 0.674581 0
M  V30 5658 C 527.428 3.07217 -1.87472 0
M  V30 5659 C 527.036 2.94018 -3.3802 0
M  V30 5660 C 528.78 3.84804 -1.79237 0
M  V30 5661 C 526.687 4.25844 -4.10379 0
M  V30 5662 H 525.617 0.640067 -0.398536 0
M  V30 5663 H 528.268 1.08092 -1.48285 0
M  V30 5664 H 526.65 3.70628 -1.39466 0
M  V30 5665 H 527.824 2.39632 -3.9359 0
M  V30 5666 H 526.139 2.29898 -3.47183 0
M  V30 5667 H 528.736 4.82417 -2.30603 0
M  V30 5668 H 529.079 4.09356 -0.757197 0
M  V30 5669 H 529.612 3.28115 -2.24912 0
M  V30 5670 H 526.351 4.06486 -5.14246 0
M  V30 5671 H 525.871 4.80054 -3.59594 0
M  V30 5672 H 527.55 4.94475 -4.17257 0
M  V30 5673 N 527.682 1.05563 1.17022 0
M  V30 5674 C 528.645 0.664098 2.19368 0
M  V30 5675 C 529.645 -0.286358 1.5823 0
M  V30 5676 O 530.835 -0.069728 1.7406 0
M  V30 5677 C 527.967 -0.0239932 3.40892 0
M  V30 5678 H 529.16 1.57 2.55521 0
M  V30 5679 H 526.713 0.849964 1.31169 0
M  V30 5680 H 527.448 -0.942988 3.10287 0
M  V30 5681 H 527.233 0.659351 3.86516 0
M  V30 5682 H 528.723 -0.283909 4.16634 0
M  V30 5683 N 529.16 -1.33526 0.837174 0
M  V30 5684 C 530.409 -1.97098 0.428387 0
M  V30 5685 C 530.722 -1.67062 -1.01734 0
M  V30 5686 O 531.928 -2.24235 -1.53072 0
M  V30 5687 C 530.384 -3.52725 0.715075 0
M  V30 5688 C 529.992 -3.9164 2.17537 0
M  V30 5689 C 531.736 -4.22857 0.373154 0
M  V30 5690 C 529.643 -5.40237 2.40619 0
M  V30 5691 H 528.573 -0.737589 0.156455 0
M  V30 5692 H 531.224 -1.52169 1.02552 0
M  V30 5693 H 529.606 -3.95971 0.0475904 0
M  V30 5694 H 530.78 -3.59456 2.88319 0
M  V30 5695 H 529.095 -3.34485 2.4801 0
M  V30 5696 H 531.692 -5.32133 0.523264 0
M  V30 5697 H 532.035 -4.10647 -0.683708 0
M  V30 5698 H 532.568 -3.85135 0.995801 0
M  V30 5699 H 529.307 -5.57449 3.44864 0
M  V30 5700 H 528.827 -5.73887 1.74396 0
M  V30 5701 H 530.506 -6.07102 2.23688 0
M  V30 5702 N 530.638 -0.59345 -1.46 0
M  V30 5703 C 531.586 0.146268 -2.3214 0
M  V30 5704 C 532.58 0.873743 -1.45128 0
M  V30 5705 O 533.786 0.790912 -1.61693 0
M  V30 5706 H 530.161 0.0660349 -0.749095 0
M  V30 5707 H 532.132 -0.598895 -2.92328 0
M  V30 5708 C 530.881 1.1396 -3.28494 0
M  V30 5709 H 530.204 0.589252 -3.95434 0
M  V30 5710 H 531.644 1.62738 -3.91526 0
M  V30 5711 C 530.103 2.20604 -2.54628 0
M  V30 5712 O 530.633 3.28128 -2.31722 0
M  V30 5713 N 528.839 1.95502 -2.15005 0
M  V30 5714 H 528.386 1.0807 -2.33834 0
M  V30 5715 H 528.344 2.67064 -1.65904 0
M  V30 5716 N 532.116 1.54067 -0.331816 0
M  V30 5717 C 533.344 2.05131 0.269996 0
M  V30 5718 C 533.759 1.20749 1.45138 0
M  V30 5719 O 533.116 0.240069 1.80914 0
M  V30 5720 C 533.167 3.54728 0.696456 0
M  V30 5721 O 532.888 4.35906 -0.43794 0
M  V30 5722 C 534.389 4.21916 1.36021 0
M  V30 5723 H 531.609 0.668807 0.0542042 0
M  V30 5724 H 534.153 1.98777 -0.4804 0
M  V30 5725 H 532.308 3.61342 1.39681 0
M  V30 5726 H 532.722 5.24404 -0.100334 0
M  V30 5727 H 534.196 5.28015 1.60947 0
M  V30 5728 H 534.673 3.73538 2.31011 0
M  V30 5729 H 535.279 4.19463 0.702212 0
M  V30 5730 N 533.594 0.0601682 1.57485 0
M  V30 5731 C 534.524 -0.90889 2.15085 0
M  V30 5732 C 535.505 -1.31838 1.07484 0
M  V30 5733 O 536.69 -1.3915 1.35466 0
M  V30 5734 C 533.82 -2.18059 2.7031 0
M  V30 5735 C 532.774 -1.91088 3.82974 0
M  V30 5736 C 532.1 -3.24789 4.24754 0
M  V30 5737 C 533.4 -1.22535 5.07723 0
M  V30 5738 H 535.094 -0.429093 2.96309 0
M  V30 5739 H 532.64 -0.204952 1.42534 0
M  V30 5740 H 534.593 -2.86258 3.09248 0
M  V30 5741 H 533.317 -2.6826 1.8629 0
M  V30 5742 H 531.976 -1.25297 3.44523 0
M  V30 5743 H 531.624 -3.72809 3.37672 0
M  V30 5744 H 531.324 -3.07538 5.00694 0
M  V30 5745 H 532.848 -3.94205 4.66299 0
M  V30 5746 H 534.262 -1.80783 5.4405 0
M  V30 5747 H 532.659 -1.1558 5.88864 0
M  V30 5748 H 533.729 -0.202692 4.84476 0
M  V30 5749 N 535.072 -1.5615 -0.213296 0
M  V30 5750 C 536.002 -1.96109 -1.26742 0
M  V30 5751 C 536.983 -0.830448 -1.48451 0
M  V30 5752 O 538.168 -1.09339 -1.60495 0
M  V30 5753 C 535.298 -2.28492 -2.61551 0
M  V30 5754 C 534.252 -3.44124 -2.54485 0
M  V30 5755 C 533.578 -3.62134 -3.93399 0
M  V30 5756 C 534.878 -4.78855 -2.08556 0
M  V30 5757 H 536.572 -2.84412 -0.935434 0
M  V30 5758 H 534.118 -1.36836 -0.44854 0
M  V30 5759 H 536.071 -2.55039 -3.3546 0
M  V30 5760 H 534.795 -1.37052 -2.96453 0
M  V30 5761 H 533.454 -3.17639 -1.83033 0
M  V30 5762 H 533.102 -2.68055 -4.25623 0
M  V30 5763 H 532.802 -4.39913 -3.89551 0
M  V30 5764 H 534.326 -3.91038 -4.68958 0
M  V30 5765 H 535.74 -5.04552 -2.72213 0
M  V30 5766 H 534.137 -5.59975 -2.1575 0
M  V30 5767 H 535.207 -4.73657 -1.03811 0
M  V30 5768 N 536.55 0.480323 -1.50102 0
M  V30 5769 C 537.482 1.59669 -1.64433 0
M  V30 5770 C 538.495 1.54063 -0.52615 0
M  V30 5771 O 539.684 1.59619 -0.798992 0
M  V30 5772 C 536.784 2.98527 -1.6042 0
M  V30 5773 C 535.957 3.291 -2.88117 0
M  V30 5774 C 535.016 4.47468 -2.76873 0
M  V30 5775 O 534.042 4.4823 -3.50825 0
M  V30 5776 N 535.244 5.48593 -1.89806 0
M  V30 5777 H 538.009 1.47795 -2.60723 0
M  V30 5778 H 535.57 0.66858 -1.4745 0
M  V30 5779 H 537.562 3.75666 -1.50523 0
M  V30 5780 H 536.132 3.04218 -0.719036 0
M  V30 5781 H 535.352 2.40662 -3.12211 0
M  V30 5782 H 536.64 3.46334 -3.72734 0
M  V30 5783 H 536.038 5.50791 -1.2902 0
M  V30 5784 H 534.595 6.24752 -1.85819 0
M  V30 5785 N 538.028 1.39524 0.732853 0
M  V30 5786 C 539.444 1.21176 1.03868 0
M  V30 5787 C 539.644 0.0748448 2.01361 0
M  V30 5788 O 538.7 -0.57281 2.45917 0
M  V30 5789 C 540.013 2.54667 1.59892 0
M  V30 5790 C 541.561 2.6153 1.71962 0
M  V30 5791 C 542.036 3.95248 2.31394 0
M  V30 5792 N 543.527 3.96899 2.38801 0
M  V30 5793 C 544.262 4.97138 2.85729 0
M  V30 5794 N 543.758 6.07775 3.32537 0
M  V30 5795 N 545.551 4.84516 2.84957 0
M  V30 5796 H 537.702 2.12225 0.086304 0
M  V30 5797 H 539.965 0.942614 0.100907 0
M  V30 5798 H 539.671 3.38423 0.95721 0
M  V30 5799 H 539.545 2.74538 2.58668 0
M  V30 5800 H 541.932 1.78156 2.35254 0
M  V30 5801 H 542.013 2.45507 0.718327 0
M  V30 5802 H 541.657 4.79054 1.68729 0
M  V30 5803 H 541.587 4.08593 3.32204 0
M  V30 5804 H 544.078 3.16998 2.05719 0
M  V30 5805 H 544.391 6.8017 3.66862 0
M  V30 5806 H 542.736 6.11366 3.30541 0
M  V30 5807 H 545.927 3.97185 2.47713 0
M  V30 5808 H 546.1 5.62783 3.21215 0
M  V30 5809 N 539.506 -0.963266 1.24736 0
M  V30 5810 C 540.439 -2.05758 0.986852 0
M  V30 5811 C 541.417 -1.62398 -0.0809272 0
M  V30 5812 O 542.601 -1.88414 0.0569347 0
M  V30 5813 C 539.728 -3.35135 0.490095 0
M  V30 5814 C 538.774 -3.97451 1.54709 0
M  V30 5815 S 539.607 -4.34519 3.12976 0
M  V30 5816 C 540.763 -5.67026 2.65014 0
M  V30 5817 H 540.996 -2.27539 1.91346 0
M  V30 5818 H 538.529 -1.10176 1.08169 0
M  V30 5819 H 540.487 -4.09962 0.21012 0
M  V30 5820 H 539.148 -3.11335 -0.415873 0
M  V30 5821 H 538.341 -4.90704 1.15003 0
M  V30 5822 H 537.943 -3.29071 1.77731 0
M  V30 5823 H 540.235 -6.44748 2.08102 0
M  V30 5824 H 541.178 -6.11594 3.56873 0
M  V30 5825 H 541.586 -5.25847 2.05294 0
M  V30 5826 N 540.985 -1.06182 -1.16461 0
M  V30 5827 C 542.396 -0.802426 -1.68576 0
M  V30 5828 C 542.747 0.67412 -1.84255 0
M  V30 5829 O 541.872 1.52303 -1.5373 0
M  V30 5830 C 542.467 -1.45002 -3.06202 0
M  V30 5831 C 541.026 -1.23843 -3.55443 0
M  V30 5832 C 540.173 -1.52724 -2.31454 0
M  V30 5833 H 543.124 -1.22545 -1.00839 0
M  V30 5834 H 543.145 -0.864731 -3.70544 0
M  V30 5835 H 542.657 -2.52466 -2.94759 0
M  V30 5836 H 540.758 -0.183487 -3.72148 0
M  V30 5837 H 540.871 -1.95036 -4.37604 0
M  V30 5838 H 539.235 -0.947726 -2.36411 0
M  V30 5839 H 540.018 -2.61343 -2.22609 0
M  V30 5840 N 542.463 1.3308 -0.844243 0
M  V30 5841 C 543.688 2.02341 -0.455282 0
M  V30 5842 C 544.113 1.6308 0.93737 0
M  V30 5843 O 543.471 0.826118 1.61385 0
M  V30 5844 C 543.519 3.55743 -0.58988 0
M  V30 5845 O 542.623 4.1063 0.38166 0
M  V30 5846 H 541.964 0.637898 -0.184343 0
M  V30 5847 H 544.494 1.6986 -1.14056 0
M  V30 5848 H 544.504 4.05243 -0.473522 0
M  V30 5849 H 543.179 3.83662 -1.60549 0
M  V30 5850 H 541.756 3.72236 0.22241 0
M  V30 5851 N 543.941 0.601185 1.45683 0
M  V30 5852 C 544.871 -0.108824 2.33246 0
M  V30 5853 C 545.852 -0.865223 1.46451 0
M  V30 5854 O 547.037 -0.83704 1.75235 0
M  V30 5855 C 544.167 -1.11101 3.2905 0
M  V30 5856 C 543.121 -0.468244 4.25431 0
M  V30 5857 C 542.447 -1.57822 5.10878 0
M  V30 5858 C 543.747 0.606469 5.18767 0
M  V30 5859 H 545.441 0.622306 2.92861 0
M  V30 5860 H 542.987 0.300714 1.40825 0
M  V30 5861 H 544.94 -1.61622 3.89174 0
M  V30 5862 H 543.664 -1.87265 2.67581 0
M  V30 5863 H 542.323 0.0160484 3.66596 0
M  V30 5864 H 541.971 -2.32998 4.45781 0
M  V30 5865 H 541.671 -1.15369 5.76163 0
M  V30 5866 H 543.195 -2.08583 5.73869 0
M  V30 5867 H 544.609 0.185589 5.73 0
M  V30 5868 H 543.006 0.952381 5.92494 0
M  V30 5869 H 544.076 1.48559 4.61582 0
M  V30 5870 N 545.419 -1.53889 0.339982 0
M  V30 5871 C 546.367 -2.26391 -0.533822 0
M  V30 5872 C 547.361 -1.28404 -1.10493 0
M  V30 5873 O 548.567 -1.46124 -1.05108 0
M  V30 5874 H 544.942 -0.727385 -0.190828 0
M  V30 5875 H 546.913 -2.98233 0.0997484 0
M  V30 5876 C 545.662 -3.04707 -1.67479 0
M  V30 5877 H 544.985 -3.79934 -1.2446 0
M  V30 5878 H 546.425 -3.58657 -2.26144 0
M  V30 5879 C 544.884 -2.13989 -2.60212 0
M  V30 5880 O 545.414 -1.73361 -3.62366 0
M  V30 5881 N 543.62 -1.79141 -2.28816 0
M  V30 5882 H 543.167 -2.12378 -1.45785 0
M  V30 5883 H 543.125 -1.18725 -2.91121 0
M  V30 5884 N 546.897 -0.0685191 -1.57451 0
M  V30 5885 C 547.827 0.89747 -2.15564 0
M  V30 5886 C 548.808 1.31266 -1.08181 0
M  V30 5887 O 549.993 1.38429 -1.36202 0
M  V30 5888 C 547.123 2.16623 -2.71463 0
M  V30 5889 C 546.077 1.89054 -3.83982 0
M  V30 5890 C 545.403 3.22532 -4.26471 0
M  V30 5891 C 546.703 1.1984 -5.08366 0
M  V30 5892 H 548.397 0.413373 -2.96533 0
M  V30 5893 H 545.943 0.197391 -1.42641 0
M  V30 5894 H 547.896 2.84614 -3.10761 0
M  V30 5895 H 546.62 2.67269 -1.8771 0
M  V30 5896 H 545.279 1.23469 -3.45183 0
M  V30 5897 H 544.927 3.71013 -3.39644 0
M  V30 5898 H 544.627 3.04879 -5.02317 0
M  V30 5899 H 546.151 3.91727 -4.68383 0
M  V30 5900 H 547.565 1.77896 -5.45001 0
M  V30 5901 H 545.962 1.12456 -5.89469 0
M  V30 5902 H 547.032 0.176996 -4.84577 0
M  V30 5903 N 548.375 1.56261 0.205012 0
M  V30 5904 C 549.338 1.92908 1.23771 0
M  V30 5905 C 550.338 0.809208 1.38955 0
M  V30 5906 O 551.528 1.07676 1.36936 0
M  V30 5907 C 548.66 2.19442 2.60879 0
M  V30 5908 H 549.853 2.85287 0.924728 0
M  V30 5909 H 547.406 1.49798 0.446125 0
M  V30 5910 H 548.141 1.29668 2.97248 0
M  V30 5911 H 547.926 3.0104 2.51232 0
M  V30 5912 H 549.416 2.48833 3.35368 0
M  V30 5913 N 549.853 -0.472356 1.50355 0
M  V30 5914 C 551.13 -1.23356 1.51798 0
M  V30 5915 C 551.51 -2.09469 0.26193 0
M  V30 5916 O 550.858 -2.15677 -0.754691 0
M  V30 5917 C 551.068 -2.06568 2.81302 0
M  V30 5918 C 552.416 -2.648 3.31913 0
M  V30 5919 O 553.44 -2.16812 2.82614 0
M  V30 5920 O 552.299 -3.52231 4.17846 0
M  V30 5921 H 549.393 -0.559707 0.608816 0
M  V30 5922 H 551.939 -0.48428 1.62643 0
M  V30 5923 H 550.711 -1.43103 3.64194 0
M  V30 5924 H 550.334 -2.88633 2.73454 0
M  V30 5925 N 551.331 -1.39911 -0.725443 0
M  V30 5926 C 552.578 -1.37654 -1.48518 0
M  V30 5927 C 552.906 0.0243982 -1.94485 0
M  V30 5928 O 552.161 1.00708 -1.67799 0
M  V30 5929 C 552.46 -2.30368 -2.7325 0
M  V30 5930 C 552.126 -3.77817 -2.461 0
M  V30 5931 C 550.788 -4.17991 -2.38405 0
M  V30 5932 C 553.14 -4.71036 -2.23103 0
M  V30 5933 C 550.468 -5.49433 -2.05768 0
M  V30 5934 C 552.82 -6.02766 -1.9198 0
M  V30 5935 C 551.484 -6.41993 -1.82761 0
M  V30 5936 H 550.754 -0.503713 -0.543465 0
M  V30 5937 H 553.401 -1.7249 -0.831822 0
M  V30 5938 H 551.706 -1.88683 -3.43375 0
M  V30 5939 H 553.403 -2.2591 -3.31309 0
M  V30 5940 H 549.993 -3.45982 -2.52972 0
M  V30 5941 H 554.177 -4.40823 -2.2801 0
M  V30 5942 H 549.433 -5.78738 -1.9716 0
M  V30 5943 H 553.607 -6.74519 -1.73197 0
M  V30 5944 H 551.234 -7.43761 -1.57237 0
M  V30 5945 N 552.809 0.956637 -1.25245 0
M  V30 5946 C 553.719 2.0868 -1.0719 0
M  V30 5947 C 554.735 1.73997 -0.00959074 0
M  V30 5948 O 555.911 2.00301 -0.210104 0
M  V30 5949 C 552.976 3.39754 -0.690526 0
M  V30 5950 C 552.037 3.88316 -1.83055 0
M  V30 5951 C 551.27 5.13134 -1.46728 0
M  V30 5952 O 551.493 5.6925 -0.362029 0
M  V30 5953 O 550.427 5.56356 -2.29677 0
M  V30 5954 H 554.253 2.26813 -2.01965 0
M  V30 5955 H 551.838 1.07098 -1.04165 0
M  V30 5956 H 553.72 4.18543 -0.489871 0
M  V30 5957 H 552.395 3.22896 0.227981 0
M  V30 5958 H 551.302 3.1054 -2.08604 0
M  V30 5959 H 552.635 4.09669 -2.72822 0
M  V30 5960 N 554.287 1.06798 1.15896 0
M  V30 5961 C 555.533 0.798757 1.8706 0
M  V30 5962 C 555.888 -0.667739 1.80441 0
M  V30 5963 O 555.181 -1.48334 1.21274 0
M  V30 5964 C 555.375 1.23414 3.35416 0
M  V30 5965 C 555.204 2.74142 3.56478 0
M  V30 5966 C 553.974 3.41675 3.72272 0
M  V30 5967 C 556.172 3.72348 3.5477 0
M  V30 5968 N 554.154 4.81101 3.81333 0
M  V30 5969 C 555.525 4.97585 3.69877 0
M  V30 5970 C 557.58 3.65585 3.38011 0
M  V30 5971 C 556.283 6.16866 3.69959 0
M  V30 5972 C 558.309 4.84323 3.39389 0
M  V30 5973 C 557.671 6.08391 3.5502 0
M  V30 5974 H 553.77 0.344761 0.7019 0
M  V30 5975 H 556.354 1.36314 1.3902 0
M  V30 5976 H 554.525 0.697522 3.82085 0
M  V30 5977 H 556.257 0.91304 3.94266 0
M  V30 5978 H 553.012 2.92078 3.7281 0
M  V30 5979 H 553.436 5.53647 3.8962 0
M  V30 5980 H 558.078 2.70615 3.2485 0
M  V30 5981 H 555.796 7.12164 3.819 0
M  V30 5982 H 559.382 4.80762 3.27658 0
M  V30 5983 H 558.262 6.98731 3.56012 0
M  V30 5984 N 555.766 -1.3263 0.851289 0
M  V30 5985 C 557.182 -1.50162 0.5407 0
M  V30 5986 C 557.382 -1.78788 -0.929369 0
M  V30 5987 O 556.438 -1.85545 -1.71258 0
M  V30 5988 C 557.751 -2.64803 1.42478 0
M  V30 5989 C 559.299 -2.78688 1.42485 0
M  V30 5990 C 559.774 -3.96405 2.29407 0
M  V30 5991 N 561.265 -4.0366 2.27184 0
M  V30 5992 C 562 -4.93971 2.9117 0
M  V30 5993 N 561.496 -5.89313 3.64256 0
M  V30 5994 N 563.289 -4.87066 2.80576 0
M  V30 5995 H 555.44 -1.12315 1.80275 0
M  V30 5996 H 557.703 -0.553266 0.769806 0
M  V30 5997 H 557.409 -2.50368 2.46999 0
M  V30 5998 H 557.283 -3.60506 1.10974 0
M  V30 5999 H 559.67 -2.92547 0.387304 0
M  V30 6000 H 559.751 -1.83708 1.78002 0
M  V30 6001 H 559.395 -3.83304 3.33228 0
M  V30 6002 H 559.325 -4.90654 1.91224 0
M  V30 6003 H 561.816 -3.35435 1.74045 0
M  V30 6004 H 562.129 -6.54913 4.10255 0
M  V30 6005 H 560.474 -5.8935 3.68364 0
M  V30 6006 H 563.665 -4.11552 2.23031 0
M  V30 6007 H 563.838 -5.57248 3.30725 0
M  V30 6008 N 557.244 -0.608902 -1.45362 0
M  V30 6009 C 558.474 -0.110852 -2.06302 0
M  V30 6010 C 558.882 1.21062 -1.45398 0
M  V30 6011 O 558.225 1.74861 -0.562976 0
M  V30 6012 C 558.287 0.101793 -3.59356 0
M  V30 6013 C 557.951 -1.13808 -4.42602 0
M  V30 6014 C 558.948 -2.05653 -4.77496 0
M  V30 6015 C 556.633 -1.36727 -4.83333 0
M  V30 6016 C 558.627 -3.18745 -5.51978 0
M  V30 6017 C 556.314 -2.5012 -5.57569 0
M  V30 6018 C 557.312 -3.40957 -5.91809 0
M  V30 6019 O 557 -4.52376 -6.64538 0
M  V30 6020 H 556.732 -0.0666001 -0.672711 0
M  V30 6021 H 559.286 -0.836942 -1.87575 0
M  V30 6022 H 557.516 0.88279 -3.76489 0
M  V30 6023 H 559.205 0.551607 -4.02134 0
M  V30 6024 H 559.971 -1.89172 -4.46586 0
M  V30 6025 H 555.85 -0.669216 -4.56117 0
M  V30 6026 H 559.394 -3.8967 -5.78622 0
M  V30 6027 H 555.291 -2.66553 -5.87894 0
M  V30 6028 H 556.059 -4.51075 -6.82989 0
M  V30 6029 N 558.722 1.53707 -0.348139 0
M  V30 6030 C 560.138 1.596 0.00361134 0
M  V30 6031 C 560.338 1.36394 1.4832 0
M  V30 6032 O 559.394 1.16046 2.24253 0
M  V30 6033 C 560.707 2.97512 -0.436682 0
M  V30 6034 C 562.255 3.10568 -0.389416 0
M  V30 6035 C 562.73 4.50866 -0.805249 0
M  V30 6036 N 564.221 4.56929 -0.759616 0
M  V30 6037 C 564.956 5.63643 -1.05327 0
M  V30 6038 N 564.452 6.78189 -1.41531 0
M  V30 6039 N 566.245 5.5354 -0.977207 0
M  V30 6040 H 558.396 1.67044 -1.31187 0
M  V30 6041 H 560.659 0.782559 -0.535075 0
M  V30 6042 H 560.365 3.19575 -1.46849 0
M  V30 6043 H 560.239 3.76742 0.185744 0
M  V30 6044 H 562.626 2.88226 0.633228 0
M  V30 6045 H 562.707 2.33387 -1.04711 0
M  V30 6046 H 562.351 4.73943 -1.82593 0
M  V30 6047 H 562.281 5.26452 -0.124989 0
M  V30 6048 H 564.772 3.74675 -0.49265 0
M  V30 6049 H 565.085 7.55541 -1.62411 0
M  V30 6050 H 563.43 6.79624 -1.45381 0
M  V30 6051 H 566.621 4.62932 -0.693675 0
M  V30 6052 H 566.794 6.36614 -1.2094 0
M  V30 6053 N 560.2 0.0768682 1.57412 0
M  V30 6054 C 561.611 -0.455037 1.8107 0
M  V30 6055 C 561.962 -1.69323 0.991162 0
M  V30 6056 O 561.087 -2.15328 0.215156 0
M  V30 6057 C 561.682 -0.832316 3.28417 0
M  V30 6058 C 560.241 -1.30906 3.52903 0
M  V30 6059 C 559.388 -0.296714 2.75708 0
M  V30 6060 H 562.339 0.302514 1.5579 0
M  V30 6061 H 562.36 -1.69333 3.40744 0
M  V30 6062 H 561.872 0.0690532 3.88039 0
M  V30 6063 H 559.973 -2.22875 2.98592 0
M  V30 6064 H 560.086 -1.28348 4.61588 0
M  V30 6065 H 558.45 -0.775059 2.42621 0
M  V30 6066 H 559.233 0.597015 3.38069 0
M  V30 6067 N 561.678 -1.56367 -0.196722 0
M  V30 6068 C 562.608 -1.97442 -1.24655 0
M  V30 6069 C 563.589 -0.846147 -1.47561 0
M  V30 6070 O 564.774 -1.11035 -1.59326 0
M  V30 6071 C 561.904 -2.31253 -2.59112 0
M  V30 6072 C 560.858 -3.46804 -2.50821 0
M  V30 6073 C 560.184 -3.66286 -3.89536 0
M  V30 6074 C 561.484 -4.8104 -2.03465 0
M  V30 6075 H 563.178 -2.85388 -0.905216 0
M  V30 6076 H 560.724 -1.37304 -0.434002 0
M  V30 6077 H 562.677 -2.58583 -3.32736 0
M  V30 6078 H 561.401 -1.40188 -2.94983 0
M  V30 6079 H 560.06 -3.19563 -1.79653 0
M  V30 6080 H 559.708 -2.72555 -4.22756 0
M  V30 6081 H 559.408 -4.4402 -3.84864 0
M  V30 6082 H 560.932 -3.9599 -4.64784 0
M  V30 6083 H 562.346 -5.07411 -2.66846 0
M  V30 6084 H 560.743 -5.62232 -2.09798 0
M  V30 6085 H 561.813 -4.74732 -0.98781 0
M  V30 6086 N 563.156 0.464375 -1.50603 0
M  V30 6087 C 564.403 1.21596 -1.61928 0
M  V30 6088 C 564.731 1.91804 -0.322737 0
M  V30 6089 O 563.986 1.83065 0.691776 0
M  V30 6090 C 564.285 2.278 -2.75394 0
M  V30 6091 C 563.951 1.74797 -4.1564 0
M  V30 6092 C 562.613 1.60063 -4.53799 0
M  V30 6093 C 564.965 1.35548 -5.03266 0
M  V30 6094 C 562.293 1.04514 -5.77316 0
M  V30 6095 C 564.645 0.814381 -6.27336 0
M  V30 6096 C 563.309 0.653726 -6.64291 0
M  V30 6097 H 562.579 0.444951 -0.592536 0
M  V30 6098 H 565.226 0.510964 -1.84557 0
M  V30 6099 H 563.531 3.04233 -2.46879 0
M  V30 6100 H 565.228 2.85723 -2.81359 0
M  V30 6101 H 561.818 1.87234 -3.8554 0
M  V30 6102 H 566.002 1.45763 -4.74412 0
M  V30 6103 H 561.258 0.908186 -6.04617 0
M  V30 6104 H 565.432 0.501626 -6.94591 0
M  V30 6105 H 563.059 0.22114 -7.59878 0
M  V30 6106 N 564.634 1.40294 0.718013 0
M  V30 6107 C 565.882 1.38167 1.47494 0
M  V30 6108 C 566.203 -0.01607 1.94993 0
M  V30 6109 O 565.473 -0.970396 1.70177 0
M  V30 6110 H 564.053 0.508505 0.547203 0
M  V30 6111 H 566.715 1.75324 0.851322 0
M  V30 6112 H 565.811 2.05503 2.34894 0
M  V30 6113 N 566.112 -0.949982 1.2575 0
M  V30 6114 C 567.359 -1.69515 1.10774 0
M  V30 6115 C 567.687 -1.91316 -0.350479 0
M  V30 6116 O 566.942 -1.48515 -1.27443 0
M  V30 6117 C 567.241 -3.08039 1.81237 0
M  V30 6118 C 566.907 -3.06023 3.31151 0
M  V30 6119 C 565.569 -3.0518 3.72047 0
M  V30 6120 C 567.921 -2.98998 4.26907 0
M  V30 6121 C 565.249 -2.95067 5.07102 0
M  V30 6122 C 567.601 -2.90426 5.61992 0
M  V30 6123 C 566.265 -2.87922 6.0221 0
M  V30 6124 H 565.535 -0.6203 0.405351 0
M  V30 6125 H 568.182 -1.10953 1.56082 0
M  V30 6126 H 566.487 -3.70172 1.28373 0
M  V30 6127 H 568.184 -3.64526 1.67098 0
M  V30 6128 H 564.774 -3.07453 2.98614 0
M  V30 6129 H 568.958 -2.98764 3.963 0
M  V30 6130 H 564.214 -2.915 5.37436 0
M  V30 6131 H 568.388 -2.83952 6.35881 0
M  V30 6132 H 566.015 -2.79841 7.06819 0
M  V30 6133 N 567.59 -1.07411 -1.15328 0
M  V30 6134 C 569.006 -0.799759 -1.38116 0
M  V30 6135 C 569.206 0.59572 -1.92493 0
M  V30 6136 O 568.262 1.35433 -2.13106 0
M  V30 6137 C 569.575 -1.87407 -2.35158 0
M  V30 6138 C 571.123 -1.89889 -2.48819 0
M  V30 6139 C 571.598 -2.96406 -3.49153 0
M  V30 6140 N 573.089 -2.95512 -3.56689 0
M  V30 6141 C 573.824 -3.74575 -4.34144 0
M  V30 6142 N 573.32 -4.63488 -5.14928 0
M  V30 6143 N 575.113 -3.62919 -4.29239 0
M  V30 6144 H 567.264 -1.97411 -0.78374 0
M  V30 6145 H 569.527 -0.856113 -0.407154 0
M  V30 6146 H 569.233 -2.8768 -2.0232 0
M  V30 6147 H 569.107 -1.73471 -3.34944 0
M  V30 6148 H 571.494 -0.902677 -2.80955 0
M  V30 6149 H 571.575 -2.07904 -1.49029 0
M  V30 6150 H 571.219 -3.96227 -3.17752 0
M  V30 6151 H 571.149 -2.75638 -4.48699 0
M  V30 6152 H 573.64 -2.31061 -2.99031 0
M  V30 6153 H 573.953 -5.20445 -5.71276 0
M  V30 6154 H 572.298 -4.67537 -5.14232 0
M  V30 6155 H 575.489 -2.92833 -3.65194 0
M  V30 6156 H 575.662 -4.24777 -4.89355 0
M  V30 6157 N 569.068 1.32177 -0.85831 0
M  V30 6158 C 570.031 2.27086 -0.310588 0
M  V30 6159 C 571.031 1.51751 0.531806 0
M  V30 6160 O 572.221 1.70794 0.34279 0
M  V30 6161 C 569.353 3.36266 0.560179 0
M  V30 6162 H 570.546 2.77045 -1.1483 0
M  V30 6163 H 568.099 1.42911 -0.632942 0
M  V30 6164 H 568.834 2.9158 1.41956 0
M  V30 6165 H 568.619 3.92077 -0.0428473 0
M  V30 6166 H 570.109 4.06974 0.936056 0
M  V30 6167 N 570.547 0.616602 1.45037 0
M  V30 6168 C 571.477 -0.0840787 2.33349 0
M  V30 6169 C 572.458 -0.849641 1.4736 0
M  V30 6170 O 573.643 -0.818407 1.76113 0
M  V30 6171 C 570.773 -1.07604 3.3021 0
M  V30 6172 C 569.727 -0.423096 4.25904 0
M  V30 6173 C 569.053 -1.52394 5.12523 0
M  V30 6174 C 570.353 0.661457 5.18095 0
M  V30 6175 H 572.047 0.653333 2.92185 0
M  V30 6176 H 569.593 0.315634 1.40498 0
M  V30 6177 H 571.546 -1.57485 3.90866 0
M  V30 6178 H 570.27 -1.84416 2.69552 0
M  V30 6179 H 568.929 0.05493 3.66559 0
M  V30 6180 H 568.577 -2.28257 4.48227 0
M  V30 6181 H 568.277 -1.09251 5.77354 0
M  V30 6182 H 569.801 -2.02485 5.76049 0
M  V30 6183 H 571.215 0.246353 5.7277 0
M  V30 6184 H 569.612 1.01517 5.91451 0
M  V30 6185 H 570.682 1.53446 4.59981 0
M  V30 6186 N 572.025 -1.5352 0.356285 0
M  V30 6187 C 572.935 -2.29151 -0.502712 0
M  V30 6188 C 573.951 -1.34753 -1.1008 0
M  V30 6189 O 575.127 -1.67803 -1.11374 0
M  V30 6190 C 572.192 -3.05911 -1.63154 0
M  V30 6191 C 571.253 -4.15958 -1.06194 0
M  V30 6192 C 570.486 -4.8905 -2.13696 0
M  V30 6193 O 570.709 -4.61919 -3.34645 0
M  V30 6194 O 569.643 -5.75202 -1.77275 0
M  V30 6195 H 573.469 -3.03492 0.112466 0
M  V30 6196 H 571.054 -1.4891 0.120942 0
M  V30 6197 H 572.936 -3.53874 -2.28804 0
M  V30 6198 H 571.611 -2.34415 -2.23229 0
M  V30 6199 H 570.518 -3.7227 -0.369603 0
M  V30 6200 H 571.851 -4.89593 -0.505872 0
M  V30 6201 N 573.503 -0.0852151 -1.57369 0
M  V30 6202 C 574.413 0.891712 -2.16992 0
M  V30 6203 C 575.429 1.3174 -1.13669 0
M  V30 6204 O 576.605 1.38735 -1.45995 0
M  V30 6205 C 573.67 2.13635 -2.73059 0
M  V30 6206 C 572.731 1.7658 -3.91303 0
M  V30 6207 C 571.964 2.95111 -4.44686 0
M  V30 6208 O 572.187 4.09539 -3.97032 0
M  V30 6209 O 571.121 2.74149 -5.35841 0
M  V30 6210 H 574.947 0.414477 -3.00858 0
M  V30 6211 H 572.532 0.138598 -1.48756 0
M  V30 6212 H 574.414 2.86595 -3.08935 0
M  V30 6213 H 573.089 2.6043 -1.92244 0
M  V30 6214 H 571.996 1.00831 -3.60255 0
M  V30 6215 H 573.329 1.34557 -4.7345 0
M  V30 6216 N 574.981 1.5647 0.188427 0
M  V30 6217 C 575.911 1.98101 1.23606 0
M  V30 6218 C 576.892 0.853961 1.47111 0
M  V30 6219 O 578.077 1.11879 1.58735 0
M  V30 6220 C 575.207 2.32624 2.57882 0
M  V30 6221 C 574.161 3.48129 2.48978 0
M  V30 6222 C 573.487 3.68347 3.87588 0
M  V30 6223 C 574.787 4.82112 2.00911 0
M  V30 6224 H 576.481 2.85864 0.890068 0
M  V30 6225 H 574.027 1.37532 0.426714 0
M  V30 6226 H 575.98 2.60343 3.3136 0
M  V30 6227 H 574.704 1.41751 2.94235 0
M  V30 6228 H 573.363 3.20511 1.77956 0
M  V30 6229 H 573.011 2.74793 4.21305 0
M  V30 6230 H 572.711 4.46055 3.82503 0
M  V30 6231 H 574.235 3.98449 4.62678 0
M  V30 6232 H 575.649 5.08819 2.64151 0
M  V30 6233 H 574.046 5.63337 2.06814 0
M  V30 6234 H 575.116 4.75249 0.96262 0
M  V30 6235 N 576.459 -0.456382 1.50847 0
M  V30 6236 C 577.87 -1.03685 1.55262 0
M  V30 6237 C 578.221 -1.92779 0.364771 0
M  V30 6238 O 577.346 -2.10043 -0.52068 0
M  V30 6239 C 577.941 -1.88718 2.81374 0
M  V30 6240 C 576.5 -2.41847 2.88422 0
M  V30 6241 C 575.647 -1.20564 2.49719 0
M  V30 6242 H 578.598 -0.238399 1.56899 0
M  V30 6243 H 578.619 -2.73957 2.6406 0
M  V30 6244 H 578.131 -1.23847 3.67809 0
M  V30 6245 H 576.232 -3.10228 2.06372 0
M  V30 6246 H 576.345 -2.75947 3.9165 0
M  V30 6247 H 574.709 -1.54504 2.02486 0
M  V30 6248 H 575.492 -0.573326 3.38479 0
M  V30 6249 N 577.937 -1.40673 -0.710563 0
M  V30 6250 C 579.183 -1.39428 -1.47267 0
M  V30 6251 C 579.516 0.00182129 -1.942 0
M  V30 6252 O 578.791 0.971387 -1.68506 0
M  V30 6253 C 579.074 -2.38812 -2.6952 0
M  V30 6254 C 578.927 -3.87467 -2.28449 0
M  V30 6255 C 580.246 -2.3566 -3.71689 0
M  V30 6256 H 577.365 -0.507768 -0.534173 0
M  V30 6257 H 580.007 -1.71843 -0.810547 0
M  V30 6258 H 578.157 -2.113 -3.26013 0
M  V30 6259 H 579.829 -4.25825 -1.77399 0
M  V30 6260 H 578.072 -4.03058 -1.60395 0
M  V30 6261 H 578.743 -4.5253 -3.16103 0
M  V30 6262 H 581.219 -2.6004 -3.24836 0
M  V30 6263 H 580.095 -3.07237 -4.54859 0
M  V30 6264 H 580.356 -1.36996 -4.20339 0
M  V30 6265 N 579.415 0.9433 -1.26252 0
M  V30 6266 C 580.643 1.72367 -1.14443 0
M  V30 6267 C 581.058 1.86392 0.300572 0
M  V30 6268 O 580.415 1.36978 1.20596 0
M  V30 6269 C 580.466 3.13155 -1.806 0
M  V30 6270 O 580.187 2.99803 -3.19452 0
M  V30 6271 C 581.688 4.07417 -1.74717 0
M  V30 6272 H 578.908 0.539758 -0.398626 0
M  V30 6273 H 581.452 1.18268 -1.66832 0
M  V30 6274 H 579.607 3.64162 -1.32154 0
M  V30 6275 H 580.021 3.88697 -3.52158 0
M  V30 6276 H 581.495 5.03773 -2.25647 0
M  V30 6277 H 581.972 4.3337 -0.713244 0
M  V30 6278 H 582.578 3.6233 -2.22704 0
M  V30 6279 N 580.893 1.08022 1.14757 0
M  V30 6280 C 582.14 0.807509 1.85703 0
M  V30 6281 C 582.468 -0.666617 1.8272 0
M  V30 6282 O 581.723 -1.50562 1.25018 0
M  V30 6283 C 582.022 1.26964 3.34088 0
M  V30 6284 C 581.688 2.7509 3.57262 0
M  V30 6285 C 580.35 3.15547 3.63296 0
M  V30 6286 C 582.702 3.70667 3.66409 0
M  V30 6287 C 580.03 4.50384 3.75994 0
M  V30 6288 C 582.382 5.05274 3.80632 0
M  V30 6289 C 581.046 5.45342 3.84913 0
M  V30 6290 H 580.316 0.295488 0.679535 0
M  V30 6291 H 582.963 1.35245 1.35577 0
M  V30 6292 H 581.268 0.644216 3.86467 0
M  V30 6293 H 582.965 1.03544 3.87401 0
M  V30 6294 H 579.555 2.42775 3.53212 0
M  V30 6295 H 583.739 3.40533 3.61041 0
M  V30 6296 H 578.995 4.80886 3.77569 0
M  V30 6297 H 583.169 5.79201 3.86652 0
M  V30 6298 H 580.796 6.49823 3.94505 0
M  V30 6299 N 582.371 -1.3172 0.865308 0
M  V30 6300 C 583.281 -2.32394 0.320935 0
M  V30 6301 C 584.297 -1.64511 -0.566746 0
M  V30 6302 O 585.473 -1.95969 -0.464575 0
M  V30 6303 C 582.538 -3.43462 -0.472701 0
M  V30 6304 C 581.599 -4.27015 0.442385 0
M  V30 6305 C 580.832 -5.32779 -0.313469 0
M  V30 6306 O 581.055 -5.49158 -1.54214 0
M  V30 6307 O 579.989 -6.01015 0.326257 0
M  V30 6308 H 583.815 -2.80868 1.15528 0
M  V30 6309 H 581.4 -1.35535 0.628545 0
M  V30 6310 H 583.282 -4.11172 -0.922781 0
M  V30 6311 H 581.957 -2.97159 -1.28367 0
M  V30 6312 H 580.864 -3.62075 0.940866 0
M  V30 6313 H 582.197 -4.76871 1.21882 0
M  V30 6314 O 583.888 -0.764371 -1.42266 0
M  V30 6315 H 584.579 -0.325849 -1.9094 0
M  V30 END ATOM
M  V30 BEGIN BOND
M  V30 END BOND
M  V30 END CTAB
M  END
$$$$
