drugbank_target|P27986 Phosphatidylinositol 3-kinase regulatory subunit alpha (DB01064; DB05210; DB06486; DB08059)
 OpenBabel12092119443D

  0  0  0     0  0            999 V3000
M  V30 BEGIN CTAB
M  V30 COUNTS 11721 11845 0 0 0
M  V30 BEGIN ATOM
M  V30 1 H -0.908 1.98254 -0.117106 0
M  V30 2 N 0 1.576 0 0
M  V30 3 C 0.933 2.03868 1.02534 0
M  V30 4 C 1.911 0.928543 1.3348 0
M  V30 5 O 3.095 1.19667 1.45644 0
M  V30 6 C 0.222 2.43627 2.35294 0
M  V30 7 C -0.732 3.65373 2.2001 0
M  V30 8 S 0.101 5.13292 1.52614 0
M  V30 9 C 1.257 5.56322 2.86805 0
M  V30 10 H 1.49 2.90518 0.631377 0
M  V30 11 H -0.977 1.52953 0.210867 0
M  V30 12 H 0.981 2.67203 3.11629 0
M  V30 13 H -0.358 1.57376 2.7183 0
M  V30 14 H -1.165 3.90944 3.18086 0
M  V30 15 H -1.563 3.418 1.51819 0
M  V30 16 H 0.729 5.58782 3.83104 0
M  V30 17 H 1.672 6.56266 2.65933 0
M  V30 18 H 2.08 4.83886 2.90714 0
M  V30 19 N 1.4781 -0.272755 1.55222 0
M  V30 20 C 2.7031 -1.02683 1.80197 0
M  V30 21 C 3.1281 -1.79142 0.573551 0
M  V30 22 O 2.4861 -1.74917 -0.476849 0
M  V30 23 C 2.5341 -1.9609 3.02624 0
M  V30 24 O 1.6381 -3.04863 2.77727 0
M  V30 25 H 0.9791 -0.293557 0.595584 0
M  V30 26 H 3.5091 -0.30159 2.02365 0
M  V30 27 H 3.5191 -2.38039 3.31363 0
M  V30 28 H 2.1941 -1.39851 3.91682 0
M  V30 29 H 0.7711 -2.67228 2.60084 0
M  V30 30 N 2.9562 -1.48159 -0.537278 0
M  V30 31 C 3.9192 -1.61665 -1.62472 0
M  V30 32 C 4.9192 -0.490395 -1.5314 0
M  V30 33 O 6.1092 -0.755998 -1.5694 0
M  V30 34 C 3.2412 -1.57997 -3.02076 0
M  V30 35 H 4.4342 -2.58621 -1.51839 0
M  V30 36 H 1.9872 -1.36647 -0.758771 0
M  V30 37 H 2.7222 -0.624913 -3.18222 0
M  V30 38 H 2.5072 -2.39755 -3.10258 0
M  V30 39 H 3.9972 -1.70627 -3.81151 0
M  V30 40 N 4.4343 0.785586 -1.36625 0
M  V30 41 C 5.3443 1.92964 -1.33425 0
M  V30 42 C 6.3603 1.72394 -0.235851 0
M  V30 43 O 7.5363 1.95866 -0.468878 0
M  V30 44 C 4.6013 3.27884 -1.12662 0
M  V30 45 C 3.6623 3.61204 -2.32013 0
M  V30 46 C 2.8953 4.89687 -2.12231 0
M  V30 47 O 3.1183 5.59704 -1.09945 0
M  V30 48 O 2.0523 5.21752 -3.00098 0
M  V30 49 H 5.8783 1.98613 -2.29753 0
M  V30 50 H 3.4633 0.926384 -1.17211 0
M  V30 51 H 5.3453 4.08614 -1.03016 0
M  V30 52 H 4.0203 3.23118 -0.193991 0
M  V30 53 H 2.9273 2.80765 -2.47228 0
M  V30 54 H 4.2603 3.70698 -3.23796 0
M  V30 55 N 5.9124 1.20967 1.01018 0
M  V30 56 C 7.1604 1.02172 1.74371 0
M  V30 57 C 7.4814 -0.446414 1.89821 0
M  V30 58 O 6.7514 -1.32234 1.44537 0
M  V30 59 H 5.3314 0.375066 0.646014 0
M  V30 60 H 7.9934 1.52187 1.21758 0
M  V30 61 H 7.0894 1.48538 2.74487 0
M  V30 62 N 7.3905 -1.2043 1.01659 0
M  V30 63 C 8.6205 -1.93496 0.724081 0
M  V30 64 C 9.0285 -1.74998 -0.71918 0
M  V30 65 O 8.3715 -1.06118 -1.49949 0
M  V30 66 C 8.4335 -3.45886 0.97994 0
M  V30 67 C 8.0975 -3.88145 2.41232 0
M  V30 68 C 9.0945 -3.93907 3.39313 0
M  V30 69 C 6.7795 -4.20134 2.75305 0
M  V30 70 C 8.7735 -4.31069 4.6953 0
M  V30 71 C 6.4605 -4.56971 4.05735 0
M  V30 72 C 7.4585 -4.62411 5.02658 0
M  V30 73 O 7.1465 -4.98403 6.30754 0
M  V30 74 H 6.8785 -0.621824 0.265162 0
M  V30 75 H 9.4325 -1.53867 1.36066 0
M  V30 76 H 7.6625 -3.85639 0.286198 0
M  V30 77 H 9.3515 -4.0018 0.679021 0
M  V30 78 H 10.1175 -3.69357 3.14325 0
M  V30 79 H 5.9965 -4.1509 2.00551 0
M  V30 80 H 9.5405 -4.3523 5.45179 0
M  V30 81 H 5.4375 -4.80977 4.30502 0
M  V30 82 H 6.2055 -5.16395 6.35042 0
M  V30 83 N 8.8686 -0.792821 -1.36206 0
M  V30 84 C 9.8006 -0.151469 -2.28699 0
M  V30 85 C 10.8136 0.641262 -1.49638 0
M  V30 86 O 12.0026 0.475885 -1.72039 0
M  V30 87 C 9.1026 0.808424 -3.29117 0
M  V30 88 C 8.2756 0.0650202 -4.37352 0
M  V30 89 C 7.3346 0.941358 -5.17711 0
M  V30 90 O 6.3606 0.397352 -5.67811 0
M  V30 91 N 7.5626 2.2652 -5.3448 0
M  V30 92 H 10.3276 -0.945982 -2.84379 0
M  V30 93 H 7.8886 -0.647032 -1.48409 0
M  V30 94 H 9.8806 1.3986 -3.79765 0
M  V30 95 H 8.4506 1.5038 -2.74052 0
M  V30 96 H 7.6706 -0.706255 -3.87822 0
M  V30 97 H 8.9586 -0.447847 -5.06825 0
M  V30 98 H 8.3566 2.73128 -4.95396 0
M  V30 99 H 6.9136 2.80493 -5.88359 0
M  V30 100 N 10.3467 1.47872 -0.545128 0
M  V30 101 C 11.5767 2.06589 -0.0210534 0
M  V30 102 C 11.9847 1.39997 1.27269 0
M  V30 103 O 11.3277 0.486421 1.77143 0
M  V30 104 C 11.3897 3.58574 0.257933 0
M  V30 105 C 11.0537 4.47132 -0.944573 0
M  V30 106 C 12.0507 4.85986 -1.84699 0
M  V30 107 C 9.7357 4.88821 -1.15584 0
M  V30 108 C 11.7297 5.65314 -2.94446 0
M  V30 109 C 9.4167 5.67916 -2.25642 0
M  V30 110 C 10.4147 6.06073 -3.14905 0
M  V30 111 O 10.1027 6.83578 -4.23057 0
M  V30 112 H 9.8347 0.674971 -0.0372899 0
M  V30 113 H 12.3887 1.91037 -0.754599 0
M  V30 114 H 10.6187 3.72295 1.04564 0
M  V30 115 H 12.3077 3.99356 0.72592 0
M  V30 116 H 13.0737 4.54388 -1.69577 0
M  V30 117 H 8.9527 4.58595 -0.470279 0
M  V30 118 H 12.4967 5.95016 -3.64145 0
M  V30 119 H 8.3937 5.98927 -2.40742 0
M  V30 120 H 9.1617 7.01954 -4.20954 0
M  V30 121 N 11.8248 0.280983 1.55075 0
M  V30 122 C 13.2408 -0.0729964 1.59433 0
M  V30 123 C 13.4408 -1.5411 1.29817 0
M  V30 124 O 12.4968 -2.29086 1.06187 0
M  V30 125 C 13.8098 0.306921 2.9913 0
M  V30 126 C 15.3578 0.254023 3.11968 0
M  V30 127 C 15.8328 0.608467 4.5394 0
M  V30 128 N 17.3238 0.560241 4.59799 0
M  V30 129 C 18.0588 0.80722 5.6769 0
M  V30 130 N 17.5548 1.11912 6.83701 0
M  V30 131 N 19.3478 0.735623 5.57266 0
M  V30 132 H 11.4988 1.238 1.7259 0
M  V30 133 H 13.7618 0.500547 0.805082 0
M  V30 134 H 13.4678 1.32816 3.25657 0
M  V30 135 H 13.3418 -0.349363 3.75579 0
M  V30 136 H 15.7288 -0.75794 2.852 0
M  V30 137 H 15.8098 0.944649 2.37718 0
M  V30 138 H 15.4538 1.61814 4.81434 0
M  V30 139 H 15.3838 -0.104013 5.26497 0
M  V30 140 H 17.8748 0.329288 3.76463 0
M  V30 141 H 18.1878 1.29409 7.61888 0
M  V30 142 H 16.5328 1.15695 6.85303 0
M  V30 143 H 19.7238 0.491752 4.6551 0
M  V30 144 H 19.8968 0.931482 6.4127 0
M  V30 145 N 13.3029 -1.57598 0.00835791 0
M  V30 146 C 14.2659 -2.07884 -0.965242 0
M  V30 147 C 15.2659 -0.989825 -1.26725 0
M  V30 148 O 16.4559 -1.25218 -1.21104 0
M  V30 149 C 13.5879 -2.52731 -2.28779 0
M  V30 150 H 14.7809 -2.95178 -0.530112 0
M  V30 151 H 12.3339 -1.54458 -0.239283 0
M  V30 152 H 13.0689 -1.68705 -2.76964 0
M  V30 153 H 12.8539 -3.32272 -2.08177 0
M  V30 154 H 14.3439 -2.91933 -2.98605 0
M  V30 155 N 14.781 0.264519 -1.55364 0
M  V30 156 C 15.711 1.33121 -1.91836 0
M  V30 157 C 16.692 1.51101 -0.781192 0
M  V30 158 O 17.877 1.64003 -1.04003 0
M  V30 159 C 15.007 2.68921 -2.19769 0
M  V30 160 C 13.961 2.65661 -3.35571 0
M  V30 161 C 13.287 4.05093 -3.49004 0
M  V30 162 C 14.587 2.24187 -4.71739 0
M  V30 163 H 16.281 1.02844 -2.81182 0
M  V30 164 H 13.827 0.493286 -1.35287 0
M  V30 165 H 15.78 3.43663 -2.43872 0
M  V30 166 H 14.504 3.00799 -1.27231 0
M  V30 167 H 13.163 1.93377 -3.1145 0
M  V30 168 H 12.811 4.34206 -2.53917 0
M  V30 169 H 12.511 4.03804 -4.26868 0
M  V30 170 H 14.035 4.81561 -3.75408 0
M  V30 171 H 15.449 2.88654 -4.9533 0
M  V30 172 H 13.846 2.34044 -5.52579 0
M  V30 173 H 14.916 1.19327 -4.69988 0
M  V30 174 N 16.2591 1.48442 0.529413 0
M  V30 175 C 17.4891 1.59919 1.30804 0
M  V30 176 C 17.8971 0.258792 1.87422 0
M  V30 177 O 17.2401 -0.762096 1.67146 0
M  V30 178 C 17.3021 2.58693 2.49636 0
M  V30 179 C 16.9661 4.03745 2.14101 0
M  V30 180 C 17.9631 4.9141 1.6974 0
M  V30 181 C 15.6481 4.49285 2.24607 0
M  V30 182 C 17.6421 6.22645 1.36351 0
M  V30 183 C 15.3291 5.8054 1.9083 0
M  V30 184 C 16.3271 6.67043 1.46773 0
M  V30 185 O 16.0151 7.95856 1.1344 0
M  V30 186 H 15.7471 0.541981 0.404021 0
M  V30 187 H 18.3011 1.95 0.645309 0
M  V30 188 H 16.5311 2.18734 3.18892 0
M  V30 189 H 18.2201 2.59999 3.11698 0
M  V30 190 H 18.9861 4.57465 1.61094 0
M  V30 191 H 14.8651 3.82142 2.57854 0
M  V30 192 H 18.4091 6.90119 1.01891 0
M  V30 193 H 14.3061 6.14022 1.99117 0
M  V30 194 H 15.0741 8.08613 1.26832 0
M  V30 195 N 17.7372 -0.778329 1.37039 0
M  V30 196 C 19.0142 -1.52551 1.22424 0
M  V30 197 C 19.3942 -2.10288 -0.184964 0
M  V30 198 O 18.7422 -1.94953 -1.19187 0
M  V30 199 C 18.9522 -2.61164 2.31504 0
M  V30 200 C 20.3002 -3.28746 2.68721 0
M  V30 201 O 21.3242 -2.71455 2.30631 0
M  V30 202 O 20.1832 -4.3231 3.3432 0
M  V30 203 H 17.2772 -0.675343 0.477326 0
M  V30 204 H 19.8232 -0.815859 1.48801 0
M  V30 205 H 18.5952 -2.16574 3.25901 0
M  V30 206 H 18.2182 -3.39737 2.06554 0
M  V30 207 N 19.2153 -1.21501 -1.00376 0
M  V30 208 C 20.4453 -1.05746 -1.77486 0
M  V30 209 C 20.8533 0.395655 -1.85017 0
M  V30 210 O 20.1963 1.28626 -1.31152 0
M  V30 211 C 20.2583 -1.58092 -3.22873 0
M  V30 212 C 19.9223 -3.06568 -3.38917 0
M  V30 213 C 20.9193 -4.04106 -3.271 0
M  V30 214 C 18.6043 -3.45799 -3.64319 0
M  V30 215 C 20.5983 -5.38862 -3.40451 0
M  V30 216 C 18.2853 -4.80707 -3.77311 0
M  V30 217 C 19.2833 -5.77047 -3.65384 0
M  V30 218 O 18.9713 -7.09507 -3.77961 0
M  V30 219 H 18.7033 -0.371778 -0.564586 0
M  V30 220 H 21.2573 -1.61319 -1.27143 0
M  V30 221 H 19.4873 -0.969163 -3.74358 0
M  V30 222 H 21.1763 -1.38162 -3.81662 0
M  V30 223 H 21.9423 -3.75141 -3.07399 0
M  V30 224 H 17.8213 -2.71344 -3.72684 0
M  V30 225 H 21.3653 -6.14041 -3.31058 0
M  V30 226 H 17.2623 -5.09357 -3.96517 0
M  V30 227 H 18.0303 -7.16935 -3.94901 0
M  V30 228 N 20.6934 1.19889 -1.02296 0
M  V30 229 C 21.6404 2.22901 -0.598651 0
M  V30 230 C 22.6104 1.61588 0.384521 0
M  V30 231 O 23.7954 1.88697 0.282522 0
M  V30 232 C 20.9354 3.45063 0.0504476 0
M  V30 233 C 20.0484 4.20783 -0.978053 0
M  V30 234 C 19.1834 5.30356 -0.299338 0
M  V30 235 C 18.2224 5.97826 -1.31416 0
M  V30 236 N 17.3594 6.98975 -0.661667 0
M  V30 237 H 22.1994 2.58554 -1.48169 0
M  V30 238 H 19.7364 1.27039 -0.741584 0
M  V30 239 H 21.6944 4.14831 0.443971 0
M  V30 240 H 20.3244 3.10084 0.897097 0
M  V30 241 H 19.3764 3.50018 -1.48969 0
M  V30 242 H 20.6884 4.67109 -1.74958 0
M  V30 243 H 19.8424 6.06516 0.149347 0
M  V30 244 H 18.5814 4.85084 0.504445 0
M  V30 245 H 17.5864 5.20422 -1.77317 0
M  V30 246 H 18.8114 6.45183 -2.11933 0
M  V30 247 H 16.7574 6.55886 0.122132 0
M  V30 248 H 16.6744 7.43461 -1.37117 0
M  V30 249 H 17.9424 7.7914 -0.236785 0
M  V30 250 N 22.1715 0.800033 1.35784 0
M  V30 251 C 23.1185 0.203848 2.29898 0
M  V30 252 C 24.0885 -0.658375 1.52495 0
M  V30 253 O 25.2735 -0.604832 1.8096 0
M  V30 254 C 22.4135 -0.64688 3.38983 0
M  V30 255 C 21.5265 0.235054 4.3136 0
M  V30 256 C 20.6615 -0.623054 5.27533 0
M  V30 257 C 19.7005 0.259682 6.11549 0
M  V30 258 N 18.8375 -0.558019 6.99879 0
M  V30 259 H 23.6775 1.01186 2.80295 0
M  V30 260 H 21.2145 0.51053 1.37957 0
M  V30 261 H 23.1725 -1.15521 4.00887 0
M  V30 262 H 21.8025 -1.42021 2.89879 0
M  V30 263 H 20.8545 0.861438 3.70518 0
M  V30 264 H 22.1665 0.914768 4.9034 0
M  V30 265 H 21.3205 -1.19678 5.94779 0
M  V30 266 H 20.0595 -1.33636 4.69034 0
M  V30 267 H 19.0645 0.845726 5.43256 0
M  V30 268 H 20.2895 0.970748 6.72126 0
M  V30 269 H 18.2355 -1.25542 6.43875 0
M  V30 270 H 18.1525 0.0637872 7.55973 0
M  V30 271 H 19.4205 -1.11523 7.71481 0
M  V30 272 N 23.6496 -1.47581 0.552962 0
M  V30 273 C 24.5596 -2.33743 -0.200353 0
M  V30 274 C 25.5756 -1.47928 -0.916151 0
M  V30 275 O 26.7516 -1.80865 -0.885993 0
M  V30 276 C 23.8166 -3.24536 -1.21973 0
M  V30 277 C 22.8776 -4.26238 -0.511819 0
M  V30 278 C 22.1106 -5.12693 -1.48263 0
M  V30 279 O 22.3336 -5.01525 -2.71714 0
M  V30 280 O 21.2676 -5.93375 -1.00945 0
M  V30 281 H 25.0936 -2.9945 0.506304 0
M  V30 282 H 22.6786 -1.46071 0.313622 0
M  V30 283 H 24.5606 -3.80631 -1.80827 0
M  V30 284 H 23.2356 -2.61462 -1.90839 0
M  V30 285 H 22.1426 -3.73914 0.117799 0
M  V30 286 H 23.4756 -4.92014 0.135308 0
M  V30 287 N 25.1277 -0.289203 -1.54924 0
M  V30 288 C 26.5437 0.0645403 -1.59469 0
M  V30 289 C 26.7437 1.53419 -1.30632 0
M  V30 290 O 25.7997 2.2852 -1.074 0
M  V30 291 C 27.1127 -0.32278 -2.98963 0
M  V30 292 C 28.6607 -0.270564 -3.11828 0
M  V30 293 C 29.1357 -0.632532 -4.53611 0
M  V30 294 N 30.6267 -0.584617 -4.59496 0
M  V30 295 C 31.3617 -0.837314 -5.67254 0
M  V30 296 N 30.8577 -1.15536 -6.83098 0
M  V30 297 N 32.6507 -0.765166 -5.56868 0
M  V30 298 H 24.8017 -1.24714 -1.71931 0
M  V30 299 H 27.0647 -0.504809 -0.802416 0
M  V30 300 H 26.7707 -1.34541 -3.24948 0
M  V30 301 H 26.6447 0.32944 -3.75759 0
M  V30 302 H 29.0317 0.742805 -2.85598 0
M  V30 303 H 29.1127 -0.957242 -2.37214 0
M  V30 304 H 28.7567 -1.64365 -4.80569 0
M  V30 305 H 28.6867 0.07609 -5.26545 0
M  V30 306 H 31.1777 -0.349248 -3.76283 0
M  V30 307 H 31.4907 -1.33447 -7.61191 0
M  V30 308 H 29.8357 -1.19328 -6.84679 0
M  V30 309 H 33.0267 -0.516432 -4.65243 0
M  V30 310 H 33.1997 -0.965477 -6.40767 0
M  V30 311 N 26.6058 1.57591 -0.0167156 0
M  V30 312 C 27.5158 2.1291 0.98521 0
M  V30 313 C 28.5318 1.07834 1.36557 0
M  V30 314 O 29.7078 1.39826 1.44951 0
M  V30 315 C 26.7728 2.63512 2.25305 0
M  V30 316 C 25.8338 3.83256 1.93426 0
M  V30 317 C 25.0668 4.31435 3.14165 0
M  V30 318 O 25.2898 3.78851 4.26413 0
M  V30 319 O 24.2238 5.23416 2.97186 0
M  V30 320 H 28.0498 2.98772 0.544888 0
M  V30 321 H 25.6348 1.48012 0.203141 0
M  V30 322 H 27.5168 2.96183 2.99756 0
M  V30 323 H 26.1918 1.8074 2.68542 0
M  V30 324 H 25.0988 3.55531 1.16398 0
M  V30 325 H 26.4318 4.67153 1.55013 0
M  V30 326 N 28.0839 -0.256276 1.55502 0
M  V30 327 C 28.9939 -1.33882 1.92647 0
M  V30 328 C 30.0099 -1.53159 0.825727 0
M  V30 329 O 31.1859 -1.66963 1.12629 0
M  V30 330 C 28.2509 -2.6751 2.20543 0
M  V30 331 C 27.3119 -2.56836 3.43997 0
M  V30 332 C 26.5449 -3.84092 3.70553 0
M  V30 333 O 26.7679 -4.85545 2.99336 0
M  V30 334 O 25.7019 -3.83288 4.64084 0
M  V30 335 H 29.5279 -1.05374 2.84833 0
M  V30 336 H 27.1129 -0.456237 1.42263 0
M  V30 337 H 28.9949 -3.46492 2.39835 0
M  V30 338 H 27.6699 -2.9577 1.31536 0
M  V30 339 H 26.5769 -1.76172 3.30021 0
M  V30 340 H 27.9099 -2.33523 4.33275 0
M  V30 341 N 29.562 -1.4872 -0.521534 0
M  V30 342 C 30.839 -1.4766 -1.2828 0
M  V30 343 C 31.219 -0.19292 -2.10217 0
M  V30 344 O 30.567 0.825193 -2.13079 0
M  V30 345 C 30.777 -2.74358 -2.15705 0
M  V30 346 C 32.125 -3.23028 -2.75569 0
M  V30 347 O 33.149 -2.75333 -2.25987 0
M  V30 348 O 32.008 -4.0604 -3.65778 0
M  V30 349 H 29.102 -0.590085 -0.579421 0
M  V30 350 H 31.648 -1.60963 -0.537492 0
M  V30 351 H 30.42 -3.59292 -1.54999 0
M  V30 352 H 30.043 -2.63816 -2.97467 0
M  V30 353 N 31.0401 0.771051 -1.3745 0
M  V30 354 C 32.2891 1.52491 -1.3202 0
M  V30 355 C 32.6021 1.9538 0.0927347 0
M  V30 356 O 33.8081 2.70159 0.269503 0
M  V30 357 C 32.2641 2.75366 -2.31736 0
M  V30 358 C 31.8721 2.39573 -3.78562 0
M  V30 359 C 33.6161 3.53307 -2.35318 0
M  V30 360 C 31.5231 3.58954 -4.70007 0
M  V30 361 H 30.4531 0.572506 -0.490666 0
M  V30 362 H 33.1041 0.844474 -1.62914 0
M  V30 363 H 31.4861 3.45303 -1.93861 0
M  V30 364 H 32.6601 1.77415 -4.25277 0
M  V30 365 H 30.9751 1.74805 -3.77932 0
M  V30 366 H 33.5721 4.42039 -3.00842 0
M  V30 367 H 33.9151 3.93217 -1.36698 0
M  V30 368 H 34.4481 2.90367 -2.71904 0
M  V30 369 H 31.1871 3.24125 -5.69757 0
M  V30 370 H 30.7071 4.20214 -4.27996 0
M  V30 371 H 32.3861 4.25758 -4.87175 0
M  V30 372 N 32.5182 1.22032 0.997298 0
M  V30 373 C 33.7952 0.950823 1.70935 0
M  V30 374 C 34.1752 -0.535292 2.042 0
M  V30 375 O 33.5232 -1.50217 1.72183 0
M  V30 376 C 33.7332 1.84386 2.96315 0
M  V30 377 C 35.0812 2.09732 3.69185 0
M  V30 378 O 36.1052 1.81798 3.06314 0
M  V30 379 O 34.9642 2.57018 4.82291 0
M  V30 380 H 32.0582 0.357204 0.745878 0
M  V30 381 H 34.6042 1.32997 1.05404 0
M  V30 382 H 33.3762 2.84928 2.68201 0
M  V30 383 H 32.9992 1.46602 3.69586 0
M  V30 384 N 33.9963 -1.19345 1.0293 0
M  V30 385 C 34.9263 -2.2481 0.631105 0
M  V30 386 C 35.9073 -1.66245 -0.360104 0
M  V30 387 O 37.0923 -1.92677 -0.242726 0
M  V30 388 C 34.2223 -3.47295 -0.0184607 0
M  V30 389 C 33.1763 -4.18536 0.895073 0
M  V30 390 C 32.5023 -5.34586 0.110592 0
M  V30 391 C 33.8023 -4.73287 2.209 0
M  V30 392 H 35.4963 -2.58372 1.51275 0
M  V30 393 H 33.0423 -1.24194 0.728818 0
M  V30 394 H 34.9953 -4.20268 -0.308675 0
M  V30 395 H 33.7193 -3.12933 -0.934907 0
M  V30 396 H 32.3783 -3.47446 1.16949 0
M  V30 397 H 32.0263 -4.96469 -0.807902 0
M  V30 398 H 31.7263 -5.83183 0.719087 0
M  V30 399 H 33.2503 -6.10355 -0.172871 0
M  V30 400 H 34.6643 -5.38013 1.98028 0
M  V30 401 H 33.0613 -5.32373 2.76946 0
M  V30 402 H 34.1313 -3.91331 2.86336 0
M  V30 403 N 35.4744 -0.807222 -1.35358 0
M  V30 404 C 36.4244 -0.190706 -2.27201 0
M  V30 405 C 37.4084 0.635838 -1.47804 0
M  V30 406 O 38.6004 0.492991 -1.69996 0
M  V30 407 C 35.7294 0.659337 -3.36909 0
M  V30 408 C 34.8154 -0.176971 -4.23731 0
M  V30 409 N 35.2064 -1.24029 -4.90357 0
M  V30 410 C 33.5044 0.0412953 -4.45981 0
M  V30 411 C 34.2054 -1.75092 -5.54723 0
M  V30 412 N 33.1814 -1.05727 -5.33219 0
M  V30 413 H 36.9834 -1.0043 -2.76208 0
M  V30 414 H 34.4974 -0.648445 -1.48892 0
M  V30 415 H 36.4944 1.11706 -4.01656 0
M  V30 416 H 35.1544 1.47127 -2.89454 0
M  V30 417 H 36.1654 -1.62295 -4.91814 0
M  V30 418 H 32.8424 0.82232 -4.09322 0
M  V30 419 H 34.2324 -2.63963 -6.17878 0
M  V30 420 N 36.9525 1.47285 -0.560781 0
M  V30 421 C 37.8825 2.32857 0.173105 0
M  V30 422 C 38.8635 1.44009 0.905281 0
M  V30 423 O 40.0485 1.7286 0.885046 0
M  V30 424 C 37.1785 3.25861 1.20133 0
M  V30 425 C 36.1325 4.23978 0.585388 0
M  V30 426 C 35.4585 5.06332 1.7185 0
M  V30 427 C 36.7585 5.20242 -0.463178 0
M  V30 428 H 38.4525 2.94466 -0.541307 0
M  V30 429 H 35.9985 1.41601 -0.261764 0
M  V30 430 H 37.9515 3.84569 1.72293 0
M  V30 431 H 36.6755 2.62315 1.94573 0
M  V30 432 H 35.3345 3.66501 0.085054 0
M  V30 433 H 34.9825 4.39186 2.45203 0
M  V30 434 H 34.6825 5.72762 1.31213 0
M  V30 435 H 36.2065 5.67899 2.24329 0
M  V30 436 H 37.6205 5.73293 -0.027502 0
M  V30 437 H 36.0175 5.94896 -0.788627 0
M  V30 438 H 37.0875 4.65504 -1.35773 0
M  V30 439 N 38.4306 0.297415 1.54768 0
M  V30 440 C 39.6786 -0.312295 1.99673 0
M  V30 441 C 39.9996 -1.54686 1.18732 0
M  V30 442 O 39.2696 -1.93854 0.282382 0
M  V30 443 H 37.8496 -0.118381 0.73756 0
M  V30 444 H 40.5116 0.407915 1.90583 0
M  V30 445 H 39.6076 -0.586813 3.06534 0
M  V30 446 N 39.9087 -1.5758 0.0250728 0
M  V30 447 C 41.1857 -1.82917 -0.692873 0
M  V30 448 C 41.5657 -0.908137 -1.90568 0
M  V30 449 O 40.9137 0.0372298 -2.2847 0
M  V30 450 C 41.1237 -3.32034 -1.07492 0
M  V30 451 C 42.4717 -3.98406 -1.46826 0
M  V30 452 O 43.4957 -3.36505 -1.16801 0
M  V30 453 O 42.3547 -5.07497 -2.02754 0
M  V30 454 H 39.4487 -0.754079 -0.33955 0
M  V30 455 H 41.9947 -1.69619 0.0524456 0
M  V30 456 H 40.7667 -3.90728 -0.211552 0
M  V30 457 H 40.3897 -3.50424 -1.87854 0
M  V30 458 N 41.3868 0.248026 -1.55636 0
M  V30 459 C 42.6358 0.974134 -1.76617 0
M  V30 460 C 42.9488 1.86528 -0.588796 0
M  V30 461 O 44.1548 2.62805 -0.681594 0
M  V30 462 C 42.6108 1.78213 -3.12679 0
M  V30 463 C 42.2188 0.93843 -4.38061 0
M  V30 464 C 43.9628 2.50104 -3.42999 0
M  V30 465 C 41.8698 1.74225 -5.65155 0
M  V30 466 H 40.7998 0.36745 -0.658405 0
M  V30 467 H 43.4508 0.22884 -1.82067 0
M  V30 468 H 41.8328 2.56933 -3.01333 0
M  V30 469 H 43.0068 0.193635 -4.60393 0
M  V30 470 H 41.3218 0.332905 -4.15067 0
M  V30 471 H 43.9188 3.10694 -4.3517 0
M  V30 472 H 44.2618 3.21662 -2.64271 0
M  V30 473 H 44.7948 1.78395 -3.55556 0
M  V30 474 H 41.5338 1.07043 -6.46701 0
M  V30 475 H 41.0538 2.46235 -5.46926 0
M  V30 476 H 42.7328 2.30967 -6.0437 0
M  V30 477 N 42.8649 1.48995 0.513639 0
M  V30 478 C 43.7949 1.67636 1.62544 0
M  V30 479 C 44.7759 0.525087 1.61793 0
M  V30 480 O 45.9609 0.759502 1.78732 0
M  V30 481 C 43.0909 1.73114 3.01079 0
M  V30 482 C 42.0449 2.87905 3.16693 0
M  V30 483 C 41.3709 2.78486 4.56453 0
M  V30 484 C 42.6709 4.29005 2.97913 0
M  V30 485 H 44.3649 2.60716 1.47198 0
M  V30 486 H 41.9109 1.25465 0.706714 0
M  V30 487 H 43.8639 1.84742 3.78746 0
M  V30 488 H 42.5879 0.766241 3.17484 0
M  V30 489 H 41.2469 2.75859 2.41448 0
M  V30 490 H 40.8949 1.7993 4.69717 0
M  V30 491 H 40.5949 3.55523 4.67843 0
M  V30 492 H 42.1189 2.92104 5.36197 0
M  V30 493 H 43.5329 4.41798 3.65359 0
M  V30 494 H 41.9299 5.07166 3.20785 0
M  V30 495 H 42.9999 4.44329 1.94165 0
M  V30 496 N 44.343 -0.763751 1.37857 0
M  V30 497 C 45.571 -1.55293 1.36718 0
M  V30 498 C 45.986 -1.88745 -0.0455434 0
M  V30 499 O 45.343 -1.52039 -1.00947 0
M  V30 500 C 45.394 -2.85831 2.2132 0
M  V30 501 O 45.115 -2.5381 3.57089 0
M  V30 502 C 46.616 -3.80023 2.28249 0
M  V30 503 H 43.836 -0.480841 0.468009 0
M  V30 504 H 46.38 -0.946009 1.81303 0
M  V30 505 H 44.535 -3.42926 1.80223 0
M  V30 506 H 44.949 -3.37459 4.01524 0
M  V30 507 H 46.423 -4.68599 2.91752 0
M  V30 508 H 46.9 -4.1973 1.2932 0
M  V30 509 H 47.506 -3.28855 2.69693 0
M  V30 510 N 45.8211 -1.22559 -0.990812 0
M  V30 511 C 47.0671 -1.05297 -1.73322 0
M  V30 512 C 47.4001 0.410655 -1.89808 0
M  V30 513 O 46.6751 1.30439 -1.44277 0
M  V30 514 C 46.9581 -1.76713 -3.13759 0
M  V30 515 C 46.8111 -3.30684 -3.04907 0
M  V30 516 C 48.1301 -1.52121 -4.12974 0
M  V30 517 H 45.2491 -0.38392 -0.629106 0
M  V30 518 H 47.8911 -1.50926 -1.15418 0
M  V30 519 H 46.0411 -1.37924 -3.63193 0
M  V30 520 H 47.7131 -3.7893 -2.63077 0
M  V30 521 H 45.9561 -3.60253 -2.41661 0
M  V30 522 H 46.6271 -3.75833 -4.04294 0
M  V30 523 H 49.1031 -1.85819 -3.72304 0
M  V30 524 H 47.9791 -2.04582 -5.0935 0
M  V30 525 H 48.2401 -0.454257 -4.3976 0
M  V30 526 N 47.2992 1.18797 -1.03562 0
M  V30 527 C 48.2472 2.24297 -0.615905 0
M  V30 528 C 49.2412 1.65643 0.354808 0
M  V30 529 O 50.4472 1.78618 0.22265 0
M  V30 530 H 46.8222 0.729909 -0.180934 0
M  V30 531 H 48.7932 2.5701 -1.5162 0
M  V30 532 C 47.5422 3.47698 0.0104735 0
M  V30 533 H 46.8652 3.93125 -0.727509 0
M  V30 534 H 48.3052 4.23159 0.266995 0
M  V30 535 C 46.7642 3.12489 1.25905 0
M  V30 536 O 47.2942 3.25761 2.35038 0
M  V30 537 N 45.5002 2.6686 1.15039 0
M  V30 538 H 45.0472 2.56261 0.262328 0
M  V30 539 H 45.0052 2.43674 1.98672 0
M  V30 540 N 48.7773 0.814389 1.34928 0
M  V30 541 C 49.7243 0.22822 2.29669 0
M  V30 542 C 50.6943 -0.642164 1.53184 0
M  V30 543 O 51.8793 -0.585605 1.81591 0
M  V30 544 C 49.0193 -0.61089 3.3965 0
M  V30 545 C 48.1323 0.280792 4.31086 0
M  V30 546 C 47.2673 -0.567067 5.28165 0
M  V30 547 C 46.3063 0.324531 6.11239 0
M  V30 548 N 45.4433 -0.483756 7.00431 0
M  V30 549 H 50.2833 1.04153 2.79206 0
M  V30 550 H 47.8203 0.525133 1.37407 0
M  V30 551 H 49.7783 -1.11263 4.0209 0
M  V30 552 H 48.4083 -1.38939 2.91369 0
M  V30 553 H 47.4603 0.900688 3.69583 0
M  V30 554 H 48.7723 0.966723 4.89342 0
M  V30 555 H 47.9263 -1.13363 5.96015 0
M  V30 556 H 46.6653 -1.28654 4.70425 0
M  V30 557 H 45.6703 0.903298 5.42329 0
M  V30 558 H 46.8953 1.04198 6.71059 0
M  V30 559 H 44.8413 -1.18706 6.45171 0
M  V30 560 H 44.7583 0.143965 7.55863 0
M  V30 561 H 46.0263 -1.03334 7.7262 0
M  V30 562 N 50.2554 -1.46986 0.568584 0
M  V30 563 C 51.5034 -2.02041 0.0487022 0
M  V30 564 C 51.8244 -1.44408 -1.31039 0
M  V30 565 O 51.0944 -0.623477 -1.85714 0
M  V30 566 H 49.6744 -0.746849 0.015014 0
M  V30 567 H 52.3364 -1.80257 0.741168 0
M  V30 568 H 51.4324 -3.12085 -0.0308961 0
M  V30 569 N 51.7335 -0.305618 -1.54608 0
M  V30 570 C 52.9585 0.307562 -2.05107 0
M  V30 571 C 53.3835 1.46385 -1.18123 0
M  V30 572 O 52.7415 1.8034 -0.186324 0
M  V30 573 C 52.7895 0.73704 -3.52987 0
M  V30 574 O 51.8935 1.84134 -3.6901 0
M  V30 575 H 51.2345 0.0589143 -0.661381 0
M  V30 576 H 53.7645 -0.448807 -1.99617 0
M  V30 577 H 53.7745 1.02459 -3.94925 0
M  V30 578 H 52.4495 -0.108773 -4.15758 0
M  V30 579 H 51.0265 1.55398 -3.38978 0
M  V30 580 N 53.2116 1.57565 -0.0334293 0
M  V30 581 C 54.1416 2.13511 0.945265 0
M  V30 582 C 55.1226 1.05231 1.33643 0
M  V30 583 O 56.3076 1.33084 1.41429 0
M  V30 584 C 53.4376 2.6657 2.22616 0
M  V30 585 C 52.3916 3.79676 1.97561 0
M  V30 586 C 51.7176 4.1918 3.31952 0
M  V30 587 C 53.0176 5.0557 1.31135 0
M  V30 588 H 54.7116 2.95538 0.479325 0
M  V30 589 H 52.2576 1.42166 0.229115 0
M  V30 590 H 54.2106 3.04344 2.91466 0
M  V30 591 H 52.9346 1.8171 2.71384 0
M  V30 592 H 51.5936 3.42347 1.31127 0
M  V30 593 H 51.2416 3.31296 3.78487 0
M  V30 594 H 50.9416 4.95402 3.15992 0
M  V30 595 H 52.4656 4.59541 4.02063 0
M  V30 596 H 53.8796 5.40903 1.89992 0
M  V30 597 H 52.2766 5.86818 1.25559 0
M  V30 598 H 53.3466 4.84062 0.284894 0
M  V30 599 N 54.6897 -0.239769 1.55765 0
M  V30 600 C 55.9357 -0.968234 1.78194 0
M  V30 601 C 56.2687 -1.84701 0.599938 0
M  V30 602 O 55.5437 -1.9031 -0.401524 0
M  V30 603 C 55.8267 -1.8227 3.10564 0
M  V30 604 C 55.6797 -0.971633 4.3918 0
M  V30 605 C 56.9987 -2.80388 3.39221 0
M  V30 606 H 54.1177 -0.350572 0.648281 0
M  V30 607 H 56.7597 -0.238259 1.885 0
M  V30 608 H 54.9097 -2.44507 3.01908 0
M  V30 609 H 56.5817 -0.367408 4.59835 0
M  V30 610 H 54.8247 -0.276276 4.32919 0
M  V30 611 H 55.4957 -1.60346 5.28198 0
M  V30 612 H 57.9717 -2.28287 3.47885 0
M  V30 613 H 56.8477 -3.3729 4.33044 0
M  V30 614 H 57.1087 -3.57212 2.60484 0
M  V30 615 N 56.1678 -1.49265 -0.50573 0
M  V30 616 C 57.1308 -1.65075 -1.59006 0
M  V30 617 C 58.1308 -0.522768 -1.52065 0
M  V30 618 O 59.3208 -0.789117 -1.55302 0
M  V30 619 C 56.4528 -1.64369 -2.98656 0
M  V30 620 H 57.6458 -2.61784 -1.46319 0
M  V30 621 H 55.1988 -1.38226 -0.729616 0
M  V30 622 H 55.9338 -0.692272 -3.16825 0
M  V30 623 H 55.7188 -2.46282 -3.05103 0
M  V30 624 H 57.2088 -1.78674 -3.77446 0
M  V30 625 N 57.6459 0.756429 -1.3826 0
M  V30 626 C 58.5759 1.88374 -1.37976 0
M  V30 627 C 59.5569 1.68311 -0.246082 0
M  V30 628 O 60.7419 1.88944 -0.44874 0
M  V30 629 C 57.8719 3.25864 -1.20125 0
M  V30 630 C 56.8259 3.60523 -2.30666 0
M  V30 631 C 56.1519 4.9672 -1.97923 0
M  V30 632 C 57.4519 3.65692 -3.72916 0
M  V30 633 H 59.1459 1.88869 -2.32312 0
M  V30 634 H 56.6919 0.907272 -1.11824 0
M  V30 635 H 58.6449 4.0438 -1.18552 0
M  V30 636 H 57.3689 3.25841 -0.222498 0
M  V30 637 H 56.0279 2.84324 -2.3142 0
M  V30 638 H 55.6759 4.93253 -0.985393 0
M  V30 639 H 55.3759 5.20878 -2.71955 0
M  V30 640 H 56.8999 5.77618 -1.97964 0
M  V30 641 H 58.3139 4.34328 -3.74208 0
M  V30 642 H 56.7109 4.01358 -4.4613 0
M  V30 643 H 57.7809 2.65987 -4.05436 0
M  V30 644 N 59.124 1.23083 0.984299 0
M  V30 645 C 60.372 1.05848 1.72165 0
M  V30 646 C 60.693 -0.406049 1.90726 0
M  V30 647 O 59.963 -1.29139 1.47309 0
M  V30 648 H 58.543 0.388685 0.637913 0
M  V30 649 H 61.205 1.54736 1.18503 0
M  V30 650 H 60.301 1.54327 2.71274 0
M  V30 651 N 60.6021 -1.18246 1.0419 0
M  V30 652 C 61.8491 -1.88257 0.746017 0
M  V30 653 C 62.1771 -1.80429 -0.726331 0
M  V30 654 O 61.4321 -1.2 -1.54591 0
M  V30 655 C 61.7311 -3.38082 1.15911 0
M  V30 656 C 61.3971 -3.66114 2.63195 0
M  V30 657 C 60.0591 -3.73474 3.03432 0
M  V30 658 C 62.4111 -3.78398 3.5842 0
M  V30 659 C 59.7391 -3.90599 4.37778 0
M  V30 660 C 62.0911 -3.97039 4.92487 0
M  V30 661 C 60.7551 -4.02635 5.32392 0
M  V30 662 H 60.0251 -0.688883 0.272987 0
M  V30 663 H 62.6721 -1.3995 1.30715 0
M  V30 664 H 60.9771 -3.88377 0.516806 0
M  V30 665 H 62.6741 -3.90596 0.907516 0
M  V30 666 H 59.2641 -3.61003 2.3103 0
M  V30 667 H 63.4481 -3.72042 3.28479 0
M  V30 668 H 58.7041 -3.93175 4.68213 0
M  V30 669 H 62.8781 -4.05486 5.66175 0
M  V30 670 H 60.5051 -4.15657 6.36501 0
M  V30 671 N 62.0802 -0.821533 -1.34494 0
M  V30 672 C 63.3052 -0.420873 -2.03085 0
M  V30 673 C 63.7302 0.964915 -1.61465 0
M  V30 674 O 63.0882 1.62763 -0.798607 0
M  V30 675 C 63.1362 -0.529414 -3.56693 0
M  V30 676 O 62.2402 0.451302 -4.09923 0
M  V30 677 H 61.5812 -0.173489 -0.640935 0
M  V30 678 H 64.1112 -1.11157 -1.71771 0
M  V30 679 H 64.1212 -0.404671 -4.05988 0
M  V30 680 H 62.7962 -1.54014 -3.86332 0
M  V30 681 H 61.3732 0.285558 -3.71805 0
M  V30 682 N 63.5583 1.46682 -0.576371 0
M  V30 683 C 64.8353 1.95599 0.00703437 0
M  V30 684 C 65.2153 1.51904 1.46589 0
M  V30 685 O 64.5633 0.766755 2.15251 0
M  V30 686 C 64.7733 3.4864 -0.158404 0
M  V30 687 C 66.1213 4.24594 -0.0229439 0
M  V30 688 O 67.1453 3.56094 -0.0869173 0
M  V30 689 O 66.0043 5.46373 0.118015 0
M  V30 690 H 63.0983 0.825275 0.053384 0
M  V30 691 H 65.6443 1.56996 -0.644244 0
M  V30 692 H 64.4163 3.7331 -1.17282 0
M  V30 693 H 64.0393 3.94057 0.5296 0
M  V30 694 N 65.0364 0.313813 1.54444 0
M  V30 695 C 66.2844 -0.291099 1.99993 0
M  V30 696 C 66.6054 -1.53418 1.20366 0
M  V30 697 O 65.8754 -1.93544 0.302927 0
M  V30 698 H 64.4554 -0.110552 0.738774 0
M  V30 699 H 67.1174 0.428106 1.9014 0
M  V30 700 H 66.2134 -0.554268 3.07139 0
M  V30 701 N 66.5145 -1.57545 0.0417849 0
M  V30 702 C 67.4465 -2.07904 -0.964799 0
M  V30 703 C 68.4595 -1.00497 -1.28079 0
M  V30 704 O 69.6485 -1.28087 -1.24322 0
M  V30 705 C 66.7485 -2.49928 -2.28887 0
M  V30 706 C 65.9215 -3.80562 -2.15619 0
M  V30 707 C 64.9805 -4.08999 -3.31069 0
M  V30 708 O 64.0065 -4.79061 -3.0739 0
M  V30 709 N 65.2085 -3.6017 -4.55256 0
M  V30 710 H 67.9735 -2.94886 -0.535029 0
M  V30 711 H 65.5345 -1.61252 -0.144681 0
M  V30 712 H 67.5265 -2.66034 -3.04972 0
M  V30 713 H 66.0965 -1.68245 -2.63463 0
M  V30 714 H 65.3165 -3.74129 -1.24183 0
M  V30 715 H 66.6045 -4.66126 -2.03971 0
M  V30 716 H 66.0025 -3.03512 -4.77386 0
M  V30 717 H 64.5595 -3.81532 -5.28466 0
M  V30 718 N 67.9926 0.231505 -1.5589 0
M  V30 719 C 68.9026 1.308 -1.94752 0
M  V30 720 C 69.9186 1.51826 -0.849989 0
M  V30 721 O 71.0946 1.6515 -1.15271 0
M  V30 722 C 68.1596 2.63968 -2.24771 0
M  V30 723 C 67.2206 2.51331 -3.48039 0
M  V30 724 C 66.4536 3.78148 -3.76616 0
M  V30 725 O 66.6766 4.80722 -3.07022 0
M  V30 726 O 65.6106 3.75857 -4.70123 0
M  V30 727 H 69.4366 1.0083 -2.86474 0
M  V30 728 H 67.0216 0.433547 -1.42971 0
M  V30 729 H 68.9036 3.42633 -2.45318 0
M  V30 730 H 67.5786 2.9364 -1.36225 0
M  V30 731 H 66.4856 1.709 -3.32782 0
M  V30 732 H 67.8186 2.26601 -4.36936 0
M  V30 733 N 69.4707 1.49531 0.497807 0
M  V30 734 C 70.4337 1.65916 1.58128 0
M  V30 735 C 71.4337 0.530825 1.51786 0
M  V30 736 O 72.6237 0.797342 1.54881 0
M  V30 737 C 69.7557 1.65951 2.9778 0
M  V30 738 H 70.9487 2.62556 1.44929 0
M  V30 739 H 68.5017 1.38611 0.722275 0
M  V30 740 H 69.2367 0.709065 3.16453 0
M  V30 741 H 69.0217 2.47897 3.03792 0
M  V30 742 H 70.5117 1.80673 3.76493 0
M  V30 743 N 70.9488 -0.749086 1.3866 0
M  V30 744 C 72.3648 -1.05276 1.19955 0
M  V30 745 C 72.5648 -2.01435 0.05134 0
M  V30 746 O 71.6208 -2.45232 -0.60147 0
M  V30 747 C 72.9338 -1.62853 2.52783 0
M  V30 748 C 74.4818 -1.75002 2.59506 0
M  V30 749 C 74.9568 -2.35991 3.92521 0
M  V30 750 N 76.4478 -2.43416 3.94085 0
M  V30 751 C 77.1828 -2.91511 4.9377 0
M  V30 752 N 76.6788 -3.39608 6.03853 0
M  V30 753 N 78.4718 -2.90592 4.81157 0
M  V30 754 H 70.6228 -0.111066 2.12109 0
M  V30 755 H 72.8858 -0.111901 0.941373 0
M  V30 756 H 72.5918 -0.99664 3.37283 0
M  V30 757 H 72.4658 -2.61854 2.715 0
M  V30 758 H 74.8528 -2.37317 1.75398 0
M  V30 759 H 74.9338 -0.74693 2.44652 0
M  V30 760 H 74.5778 -1.74308 4.77053 0
M  V30 761 H 74.5078 -3.3695 4.04688 0
M  V30 762 H 76.9988 -2.09405 3.14576 0
M  V30 763 H 77.3118 -3.74775 6.75843 0
M  V30 764 H 75.6568 -3.37653 6.07466 0
M  V30 765 H 78.8478 -2.52332 3.94267 0
M  V30 766 H 79.0208 -3.27762 5.58996 0
M  V30 767 N 72.4269 -1.23603 -0.977757 0
M  V30 768 C 73.8379 -1.06424 -1.53398 0
M  V30 769 C 74.1889 0.367578 -1.92726 0
M  V30 770 O 73.3139 1.25465 -1.76316 0
M  V30 771 C 73.9089 -1.92568 -2.78753 0
M  V30 772 C 72.4679 -1.79642 -3.30765 0
M  V30 773 C 71.6149 -1.88111 -2.03739 0
M  V30 774 H 74.5659 -1.37227 -0.797152 0
M  V30 775 H 74.5869 -1.45203 -3.51705 0
M  V30 776 H 74.0989 -2.96771 -2.50098 0
M  V30 777 H 72.1999 -0.782325 -3.64294 0
M  V30 778 H 72.3129 -2.63174 -4.00345 0
M  V30 779 H 70.6769 -1.31723 -2.17994 0
M  V30 780 H 71.4599 -2.93875 -1.77461 0
M  V30 781 N 73.905 1.17692 -1.04816 0
M  V30 782 C 74.815 2.25229 -0.65643 0
M  V30 783 C 75.831 1.71018 0.320761 0
M  V30 784 O 77.007 2.00649 0.173805 0
M  V30 785 C 74.072 3.46684 -0.0332629 0
M  V30 786 C 73.133 4.15997 -1.06042 0
M  V30 787 C 72.366 5.31654 -0.466893 0
M  V30 788 O 72.589 5.65777 0.724758 0
M  V30 789 O 71.523 5.89831 -1.1993 0
M  V30 790 H 75.349 2.61016 -1.55255 0
M  V30 791 H 72.934 1.24919 -0.81949 0
M  V30 792 H 74.816 4.20234 0.313256 0
M  V30 793 H 73.491 3.12703 0.836566 0
M  V30 794 H 72.398 3.44482 -1.45886 0
M  V30 795 H 73.731 4.53996 -1.90127 0
M  V30 796 N 75.3831 0.828654 1.34056 0
M  V30 797 C 76.2931 0.256725 2.33191 0
M  V30 798 C 77.3091 -0.611898 1.62886 0
M  V30 799 O 78.4851 -0.51844 1.94613 0
M  V30 800 C 75.5501 -0.567238 3.42028 0
M  V30 801 C 74.6111 0.324458 4.28072 0
M  V30 802 C 73.8441 -0.460274 5.31712 0
M  V30 803 O 74.0671 -1.693 5.44696 0
M  V30 804 O 73.0011 0.160391 6.01686 0
M  V30 805 H 76.8271 1.07739 2.83947 0
M  V30 806 H 74.4121 0.59093 1.37217 0
M  V30 807 H 76.2941 -1.03582 4.08471 0
M  V30 808 H 74.9691 -1.36513 2.93506 0
M  V30 809 H 73.8761 0.840659 3.64532 0
M  V30 810 H 75.2091 1.08685 4.8005 0
M  V30 811 N 76.8612 -1.46375 0.584142 0
M  V30 812 C 78.1102 -2.01585 0.0679741 0
M  V30 813 C 78.4232 -1.46109 -1.30045 0
M  V30 814 O 79.6292 -1.93148 -1.90804 0
M  V30 815 C 78.0852 -3.5983 0.0709207 0
M  V30 816 C 77.6932 -4.24303 1.43775 0
M  V30 817 C 79.4372 -4.22693 -0.391228 0
M  V30 818 C 77.3442 -5.74631 1.39834 0
M  V30 819 H 76.2742 -0.753689 0.0216421 0
M  V30 820 H 78.9252 -1.68093 0.736001 0
M  V30 821 H 77.3072 -3.90405 -0.663299 0
M  V30 822 H 78.4812 -4.05335 2.19181 0
M  V30 823 H 76.7962 -3.73539 1.84004 0
M  V30 824 H 79.3932 -5.3289 -0.439524 0
M  V30 825 H 79.7362 -3.91728 -1.40906 0
M  V30 826 H 80.2692 -3.96749 0.288974 0
M  V30 827 H 77.0082 -6.10258 2.39303 0
M  V30 828 H 76.5282 -5.95858 0.686505 0
M  V30 829 H 78.2072 -6.37375 1.11187 0
M  V30 830 N 78.3393 -0.321999 -1.54275 0
M  V30 831 C 79.5873 0.280489 -2.00144 0
M  V30 832 C 79.9083 1.52777 -1.21178 0
M  V30 833 O 79.1783 1.9338 -0.313187 0
M  V30 834 H 77.7583 0.106632 -0.73935 0
M  V30 835 H 80.4203 -0.438184 -1.8991 0
M  V30 836 H 79.5163 0.537972 -3.07428 0
M  V30 837 N 79.8174 1.5752 -0.0501392 0
M  V30 838 C 81.0634 1.93755 0.618901 0
M  V30 839 C 81.4184 0.928514 1.68512 0
M  V30 840 O 80.7114 -0.0524613 1.91528 0
M  V30 841 C 80.9054 3.34467 1.25963 0
M  V30 842 C 80.7344 4.48965 0.257 0
M  V30 843 C 79.5044 5.05075 -0.150656 0
M  V30 844 C 81.7024 5.11891 -0.497166 0
M  V30 845 N 79.6844 6.03104 -1.14626 0
M  V30 846 C 81.0554 6.05216 -1.34588 0
M  V30 847 C 83.1104 4.9479 -0.55559 0
M  V30 848 C 81.8134 6.83277 -2.24778 0
M  V30 849 C 83.8394 5.73477 -1.44492 0
M  V30 850 C 83.2014 6.66433 -2.28136 0
M  V30 851 H 79.3004 0.756479 0.198149 0
M  V30 852 H 81.8844 1.94316 -0.122229 0
M  V30 853 H 80.0554 3.34685 1.97079 0
M  V30 854 H 81.7874 3.57994 1.88739 0
M  V30 855 H 78.5424 4.7305 0.228094 0
M  V30 856 H 78.9664 6.56813 -1.64092 0
M  V30 857 H 83.6084 4.2273 0.0768625 0
M  V30 858 H 81.3264 7.54629 -2.89069 0
M  V30 859 H 84.9124 5.62273 -1.49468 0
M  V30 860 H 83.7924 7.26258 -2.95835 0
M  V30 861 N 81.2955 -0.223234 1.56011 0
M  V30 862 C 82.2255 -1.27988 1.95298 0
M  V30 863 C 83.2065 -1.48976 0.820979 0
M  V30 864 O 84.3915 -1.61188 1.08315 0
M  V30 865 C 81.5215 -2.63 2.26822 0
M  V30 866 C 80.4755 -2.56671 3.42497 0
M  V30 867 C 79.8015 -3.95697 3.59622 0
M  V30 868 C 81.1015 -2.11601 4.77517 0
M  V30 869 H 82.7955 -0.953525 2.8381 0
M  V30 870 H 80.3415 -0.457244 1.36548 0
M  V30 871 H 82.2945 -3.37077 2.52898 0
M  V30 872 H 81.0185 -2.9732 1.35161 0
M  V30 873 H 79.6775 -1.85051 3.16467 0
M  V30 874 H 79.3255 -4.27322 2.6534 0
M  V30 875 H 79.0255 -3.92345 4.37424 0
M  V30 876 H 80.5495 -4.71438 3.88044 0
M  V30 877 H 81.9635 -2.7542 5.02809 0
M  V30 878 H 80.3605 -2.19311 5.5859 0
M  V30 879 H 81.4305 -1.06824 4.72987 0
M  V30 880 N 82.7736 -1.49793 -0.48987 0
M  V30 881 C 83.7216 -1.67783 -1.61095 0
M  V30 882 C 84.7156 -0.543683 -1.60438 0
M  V30 883 O 85.9216 -0.723647 -1.64813 0
M  V30 884 H 82.2966 -0.529255 -0.534222 0
M  V30 885 H 84.2676 -2.61861 -1.43078 0
M  V30 886 C 83.0166 -1.77191 -2.99164 0
M  V30 887 H 82.3396 -2.63841 -3.0038 0
M  V30 888 H 83.7796 -1.93809 -3.77113 0
M  V30 889 C 82.2386 -0.519203 -3.32875 0
M  V30 890 O 82.7686 0.350124 -4.00171 0
M  V30 891 N 80.9746 -0.378816 -2.8812 0
M  V30 892 H 80.5216 -1.08725 -2.33531 0
M  V30 893 H 80.4796 0.458239 -3.11043 0
M  V30 894 N 84.2517 0.741722 -1.39055 0
M  V30 895 C 85.4997 1.49818 -1.35643 0
M  V30 896 C 85.8207 1.94938 0.0491642 0
M  V30 897 O 85.0907 1.68505 0.999141 0
M  V30 898 H 83.6707 0.555755 -0.499144 0
M  V30 899 H 86.3327 0.880957 -1.73854 0
M  V30 900 H 85.4287 2.38348 -2.01486 0
M  V30 901 N 85.7298 1.2412 0.971189 0
M  V30 902 C 86.9598 1.10415 1.7462 0
M  V30 903 C 87.3678 -0.346462 1.86001 0
M  V30 904 O 86.7108 -1.25104 1.34517 0
M  V30 905 C 86.7728 1.66596 3.18568 0
M  V30 906 C 86.4368 3.15446 3.3067 0
M  V30 907 C 87.4338 4.12636 3.16271 0
M  V30 908 C 85.1188 3.55337 3.55022 0
M  V30 909 C 87.1128 5.47699 3.26044 0
M  V30 910 C 84.7998 4.90542 3.64434 0
M  V30 911 C 85.7978 5.86532 3.49956 0
M  V30 912 O 85.4858 7.19279 3.59017 0
M  V30 913 H 85.2178 0.386616 0.55453 0
M  V30 914 H 87.7718 1.64633 1.22821 0
M  V30 915 H 86.0018 1.06808 3.71657 0
M  V30 916 H 87.6908 1.48232 3.77865 0
M  V30 917 H 88.4568 3.8316 2.97344 0
M  V30 918 H 84.3358 2.8113 3.65359 0
M  V30 919 H 87.8798 6.22603 3.14661 0
M  V30 920 H 83.7768 5.19691 3.82873 0
M  V30 921 H 84.5448 7.27153 3.75754 0
M  V30 922 N 87.2079 -1.17134 1.05439 0
M  V30 923 C 88.1559 -2.23289 0.651511 0
M  V30 924 C 89.1499 -1.66186 -0.328411 0
M  V30 925 O 90.3559 -1.78949 -0.194206 0
M  V30 926 H 86.7309 -0.726938 0.192523 0
M  V30 927 H 88.7019 -2.54565 1.55689 0
M  V30 928 C 87.4509 -3.47671 0.0448436 0
M  V30 929 H 86.7739 -3.91918 0.78996 0
M  V30 930 H 88.2139 -4.2353 -0.19964 0
M  V30 931 C 86.6729 -3.14453 -1.20918 0
M  V30 932 O 87.2029 -3.29459 -2.29825 0
M  V30 933 N 85.4089 -2.68657 -1.10779 0
M  V30 934 H 84.9559 -2.56646 -0.221526 0
M  V30 935 H 84.9139 -2.46804 -1.9477 0
M  V30 936 N 88.686 -0.835752 -1.33615 0
M  V30 937 C 89.596 -0.269088 -2.33052 0
M  V30 938 C 90.612 0.603251 -1.63208 0
M  V30 939 O 91.788 0.508112 -1.94885 0
M  V30 940 C 88.853 0.549091 -3.42324 0
M  V30 941 C 87.914 -0.347156 -4.27894 0
M  V30 942 C 87.147 0.43207 -5.31948 0
M  V30 943 O 87.37 1.66409 -5.45586 0
M  V30 944 O 86.304 -0.192298 -6.01593 0
M  V30 945 H 90.13 -1.09243 -2.83372 0
M  V30 946 H 87.715 -0.598198 -1.36901 0
M  V30 947 H 89.597 1.01414 -4.09015 0
M  V30 948 H 88.272 1.34955 -2.94226 0
M  V30 949 H 87.179 -0.859979 -3.64081 0
M  V30 950 H 88.512 -1.1123 -4.79467 0
M  V30 951 N 90.1641 1.46063 -0.591896 0
M  V30 952 C 91.3921 2.06717 -0.0868936 0
M  V30 953 C 91.8071 1.43916 1.22203 0
M  V30 954 O 91.1641 0.547698 1.74088 0
M  V30 955 C 91.2151 3.6142 0.0758725 0
M  V30 956 O 90.9361 4.21874 -1.18126 0
M  V30 957 C 92.4371 4.39025 0.61416 0
M  V30 958 H 89.6571 0.668162 -0.0616518 0
M  V30 959 H 92.2011 1.8755 -0.815175 0
M  V30 960 H 90.3561 3.79983 0.754413 0
M  V30 961 H 90.7701 5.14861 -1.00092 0
M  V30 962 H 92.2441 5.4783 0.677193 0
M  V30 963 H 92.7211 4.07708 1.63312 0
M  V30 964 H 93.3271 4.2529 -0.0298142 0
M  V30 965 N 91.6422 0.330177 1.54103 0
M  V30 966 C 92.8702 -0.272179 2.05102 0
M  V30 967 C 93.2852 -1.45267 1.20595 0
M  V30 968 O 92.6422 -1.8094 0.238144 0
M  V30 969 C 92.6932 -0.70023 3.54653 0
M  V30 970 O 92.4142 0.433301 4.35952 0
M  V30 971 C 93.9152 -1.3647 4.21771 0
M  V30 972 H 91.1352 -0.0549159 0.668749 0
M  V30 973 H 93.6792 0.478285 1.98828 0
M  V30 974 H 91.8342 -1.40066 3.61193 0
M  V30 975 H 92.2482 0.0947539 5.24414 0
M  V30 976 H 93.7222 -1.61509 5.27843 0
M  V30 977 H 94.1992 -2.31409 3.73292 0
M  V30 978 H 94.8052 -0.706675 4.19388 0
M  V30 979 N 93.1203 -1.57491 0.0584922 0
M  V30 980 C 94.3683 -1.92597 -0.612436 0
M  V30 981 C 94.6893 -0.938162 -1.70949 0
M  V30 982 O 93.9593 0.0158301 -1.95894 0
M  V30 983 H 92.5393 -0.710964 -0.229214 0
M  V30 984 H 95.2013 -1.94571 0.113218 0
M  V30 985 H 94.2973 -2.94038 -1.04633 0
M  V30 986 N 94.5984 0.214957 -1.56127 0
M  V30 987 C 95.5084 1.28727 -1.96129 0
M  V30 988 C 96.5244 1.50916 -0.866044 0
M  V30 989 O 97.7004 1.63918 -1.17016 0
M  V30 990 C 94.7654 2.61569 -2.27558 0
M  V30 991 C 93.8264 2.47625 -3.50685 0
M  V30 992 C 93.0594 3.74132 -3.80606 0
M  V30 993 O 93.2824 4.77438 -3.12104 0
M  V30 994 O 92.2164 3.70849 -4.74083 0
M  V30 995 H 96.0424 0.977855 -2.87527 0
M  V30 996 H 93.6274 0.418358 -1.43423 0
M  V30 997 H 95.5094 3.40012 -2.48938 0
M  V30 998 H 94.1844 2.92178 -1.39332 0
M  V30 999 H 93.0914 1.67361 -3.34576 0
M  V30 1000 H 94.4244 2.21954 -4.39315 0
M  V30 1001 N 96.0765 1.50051 0.48192 0
M  V30 1002 C 97.4925 1.37237 0.814756 0
M  V30 1003 C 97.6925 0.420109 1.97072 0
M  V30 1004 O 96.7485 -0.141246 2.52105 0
M  V30 1005 C 98.0615 2.78375 1.13701 0
M  V30 1006 C 99.6095 2.87213 1.2441 0
M  V30 1007 C 100.084 4.29161 1.59954 0
M  V30 1008 N 101.575 4.32061 1.66967 0
M  V30 1009 C 102.31 5.38879 1.95952 0
M  V30 1010 N 101.806 6.55918 2.23031 0
M  V30 1011 N 103.599 5.26312 1.97363 0
M  V30 1012 H 95.7505 2.10546 -0.28005 0
M  V30 1013 H 98.0135 0.945921 -0.0627454 0
M  V30 1014 H 97.7195 3.49845 0.360787 0
M  V30 1015 H 97.5935 3.14941 2.07586 0
M  V30 1016 H 99.9805 2.15969 2.01101 0
M  V30 1017 H 100.061 2.54204 0.285299 0
M  V30 1018 H 99.7055 5.00938 0.838067 0
M  V30 1019 H 99.6355 4.59648 2.56966 0
M  V30 1020 H 102.126 3.47661 1.48123 0
M  V30 1021 H 102.439 7.33139 2.44391 0
M  V30 1022 H 100.784 6.59112 2.20447 0
M  V30 1023 H 103.975 4.33876 1.75697 0
M  V30 1024 H 104.148 6.09649 2.19618 0
M  V30 1025 N 97.5546 -0.734337 1.39446 0
M  V30 1026 C 98.8026 -1.49096 1.36436 0
M  V30 1027 C 99.1236 -1.94961 -0.0388255 0
M  V30 1028 O 98.3936 -1.69033 -0.990191 0
M  V30 1029 H 96.9736 -0.5531 0.502085 0
M  V30 1030 H 99.6356 -0.871725 1.74319 0
M  V30 1031 H 98.7316 -2.37276 2.02747 0
M  V30 1032 N 99.0327 -1.24633 -0.964593 0
M  V30 1033 C 100.31 -0.995809 -1.68354 0
M  V30 1034 C 100.69 0.480964 -2.05548 0
M  V30 1035 O 100.038 1.45599 -1.76105 0
M  V30 1036 C 100.248 -1.92177 -2.91323 0
M  V30 1037 C 101.596 -2.19446 -3.63495 0
M  V30 1038 O 102.62 -1.89855 -3.01386 0
M  V30 1039 O 101.479 -2.69714 -4.75307 0
M  V30 1040 H 98.5727 -0.376854 -0.736146 0
M  V30 1041 H 101.119 -1.35745 -1.0184 0
M  V30 1042 H 99.8907 -2.91938 -2.60553 0
M  V30 1043 H 99.5137 -1.56349 -3.65569 0
M  V30 1044 N 100.511 1.16574 -1.06058 0
M  V30 1045 C 101.758 1.87047 -0.775873 0
M  V30 1046 C 102.086 1.81562 0.697534 0
M  V30 1047 O 101.341 1.22445 1.52662 0
M  V30 1048 C 101.64 3.36195 -1.21275 0
M  V30 1049 C 101.306 3.6188 -2.68986 0
M  V30 1050 C 99.9678 3.68599 -3.09335 0
M  V30 1051 C 102.32 3.72648 -3.64394 0
M  V30 1052 C 99.6478 3.83584 -4.43937 0
M  V30 1053 C 102 3.89154 -4.98741 0
M  V30 1054 C 100.664 3.94114 -5.3873 0
M  V30 1055 H 99.9338 0.684452 -0.283912 0
M  V30 1056 H 102.581 1.37853 -1.32925 0
M  V30 1057 H 100.886 3.87505 -0.578528 0
M  V30 1058 H 102.583 3.89103 -0.969542 0
M  V30 1059 H 99.1728 3.57281 -2.36744 0
M  V30 1060 H 103.357 3.66769 -3.34356 0
M  V30 1061 H 98.6128 3.85677 -4.74409 0
M  V30 1062 H 102.787 3.96427 -5.72554 0
M  V30 1063 H 100.414 4.05478 -6.43033 0
M  V30 1064 N 101.989 0.842826 1.3317 0
M  V30 1065 C 103.4 0.496651 1.79973 0
M  V30 1066 C 103.751 -0.984641 1.69703 0
M  V30 1067 O 102.876 -1.76743 1.24863 0
M  V30 1068 C 103.471 0.894727 3.26772 0
M  V30 1069 C 102.03 0.600629 3.71577 0
M  V30 1070 C 101.177 1.10091 2.5451 0
M  V30 1071 H 104.128 1.03116 1.20635 0
M  V30 1072 H 104.149 0.206347 3.7994 0
M  V30 1073 H 103.661 1.97287 3.34215 0
M  V30 1074 H 101.762 -0.467284 3.69658 0
M  V30 1075 H 101.875 1.15863 4.64879 0
M  V30 1076 H 100.239 0.52162 2.49301 0
M  V30 1077 H 101.022 2.18591 2.64713 0
M  V30 1078 N 103.467 -1.45747 0.599634 0
M  V30 1079 C 104.715 -2.01893 0.0915472 0
M  V30 1080 C 105.036 -1.47155 -1.27946 0
M  V30 1081 O 104.306 -0.66273 -1.84349 0
M  V30 1082 H 102.886 -0.746363 0.0308524 0
M  V30 1083 H 105.548 -1.78645 0.779237 0
M  V30 1084 H 104.644 -3.1208 0.0353086 0
M  V30 1085 N 104.945 -0.338344 -1.53925 0
M  V30 1086 C 106.173 0.261298 -2.05243 0
M  V30 1087 C 106.588 1.44625 -1.21363 0
M  V30 1088 O 105.945 1.80811 -0.247736 0
M  V30 1089 C 105.996 0.681412 -3.5502 0
M  V30 1090 O 105.717 -0.456414 -4.35716 0
M  V30 1091 C 107.218 1.34232 -4.22489 0
M  V30 1092 H 104.438 0.0513685 -0.669031 0
M  V30 1093 H 106.982 -0.488822 -1.98572 0
M  V30 1094 H 105.137 1.38148 -3.61931 0
M  V30 1095 H 105.551 -0.122564 -5.24357 0
M  V30 1096 H 107.025 1.58708 -5.28693 0
M  V30 1097 H 107.502 2.29426 -3.74514 0
M  V30 1098 H 108.108 0.684424 -4.19757 0
M  V30 1099 N 106.423 1.57458 -0.0668435 0
M  V30 1100 C 107.653 1.97337 0.611677 0
M  V30 1101 C 108.061 0.943744 1.63982 0
M  V30 1102 O 107.404 -0.0785584 1.83532 0
M  V30 1103 C 107.466 3.33511 1.34205 0
M  V30 1104 C 107.13 4.54598 0.467941 0
M  V30 1105 C 108.127 5.19186 -0.272439 0
M  V30 1106 C 105.812 5.0075 0.39427 0
M  V30 1107 C 107.806 6.28274 -1.07476 0
M  V30 1108 C 105.493 6.09711 -0.411729 0
M  V30 1109 C 106.491 6.73335 -1.14492 0
M  V30 1110 O 106.179 7.80199 -1.93763 0
M  V30 1111 H 105.911 0.654042 0.170893 0
M  V30 1112 H 108.465 2.04961 -0.134289 0
M  V30 1113 H 106.695 3.22487 2.13398 0
M  V30 1114 H 108.384 3.58029 1.91233 0
M  V30 1115 H 109.15 4.84477 -0.225086 0
M  V30 1116 H 105.029 4.51009 0.954569 0
M  V30 1117 H 108.573 6.77866 -1.64755 0
M  V30 1118 H 104.47 6.43854 -0.460664 0
M  V30 1119 H 105.238 7.97053 -1.86142 0
M  V30 1120 N 107.901 -0.206675 1.56239 0
M  V30 1121 C 109.147 -0.930218 1.80208 0
M  V30 1122 C 109.48 -1.83387 0.638981 0
M  V30 1123 O 108.755 -1.91119 -0.361066 0
M  V30 1124 C 109.038 -1.75641 3.1436 0
M  V30 1125 C 108.891 -0.878257 4.41142 0
M  V30 1126 C 110.21 -2.73129 3.45092 0
M  V30 1127 H 107.329 -0.336742 0.655571 0
M  V30 1128 H 109.971 -0.198222 1.88963 0
M  V30 1129 H 108.121 -2.38048 3.07027 0
M  V30 1130 H 109.793 -0.269787 4.6051 0
M  V30 1131 H 108.036 -0.184385 4.33408 0
M  V30 1132 H 108.707 -1.49106 5.3148 0
M  V30 1133 H 111.183 -2.20856 3.52649 0
M  V30 1134 H 110.059 -3.28028 4.40101 0
M  V30 1135 H 110.32 -3.51606 2.68003 0
M  V30 1136 N 109.379 -1.50304 -0.473955 0
M  V30 1137 C 110.289 -1.7174 -1.5982 0
M  V30 1138 C 111.305 -0.600457 -1.63311 0
M  V30 1139 O 112.481 -0.878441 -1.81233 0
M  V30 1140 C 109.546 -1.80427 -2.96052 0
M  V30 1141 C 108.607 -3.04148 -3.02972 0
M  V30 1142 C 107.84 -3.12411 -4.32706 0
M  V30 1143 O 108.063 -2.27542 -5.23049 0
M  V30 1144 O 106.997 -4.05113 -4.45159 0
M  V30 1145 H 110.823 -2.67035 -1.44657 0
M  V30 1146 H 108.408 -1.34366 -0.653148 0
M  V30 1147 H 110.29 -1.88338 -3.7697 0
M  V30 1148 H 108.965 -0.883156 -3.11419 0
M  V30 1149 H 107.872 -3.0174 -2.21142 0
M  V30 1150 H 109.205 -3.95829 -2.92541 0
M  V30 1151 N 110.857 0.726932 -1.39834 0
M  V30 1152 C 112.087 1.51393 -1.40583 0
M  V30 1153 C 112.495 1.892 -0.000740625 0
M  V30 1154 O 111.838 1.55189 0.982951 0
M  V30 1155 C 111.9 2.82588 -2.22226 0
M  V30 1156 C 111.564 2.67169 -3.70769 0
M  V30 1157 C 112.561 2.3518 -4.63666 0
M  V30 1158 C 110.246 2.83788 -4.14451 0
M  V30 1159 C 112.24 2.20002 -5.98229 0
M  V30 1160 C 109.927 2.68229 -5.49087 0
M  V30 1161 C 110.925 2.36382 -6.4079 0
M  V30 1162 O 110.613 2.2093 -7.72946 0
M  V30 1163 H 110.345 0.474168 -0.48181 0
M  V30 1164 H 112.899 0.905247 -1.84376 0
M  V30 1165 H 111.129 3.45746 -1.73195 0
M  V30 1166 H 112.818 3.44247 -2.15055 0
M  V30 1167 H 113.584 2.21984 -4.31217 0
M  V30 1168 H 109.463 3.07566 -3.43401 0
M  V30 1169 H 113.007 1.95067 -6.69772 0
M  V30 1170 H 108.904 2.81006 -5.81125 0
M  V30 1171 H 109.672 2.35937 -7.83757 0
M  V30 1172 N 112.336 1.25143 0.95797 0
M  V30 1173 C 113.585 1.0909 1.69654 0
M  V30 1174 C 113.898 -0.368548 1.92097 0
M  V30 1175 O 115.104 -0.649455 2.63618 0
M  V30 1176 C 113.56 1.90395 3.05414 0
M  V30 1177 C 113.168 3.4081 2.90779 0
M  V30 1178 C 114.912 1.82901 3.83076 0
M  V30 1179 C 112.819 4.14423 4.21909 0
M  V30 1180 H 111.749 0.404625 0.636235 0
M  V30 1181 H 114.4 1.4931 1.06672 0
M  V30 1182 H 112.782 1.42996 3.69281 0
M  V30 1183 H 113.956 3.95859 2.35865 0
M  V30 1184 H 112.271 3.49361 2.26575 0
M  V30 1185 H 114.868 2.35196 4.80195 0
M  V30 1186 H 115.211 0.796224 4.08615 0
M  V30 1187 H 115.744 2.28033 3.25954 0
M  V30 1188 H 112.483 5.18102 4.01561 0
M  V30 1189 H 112.003 3.64159 4.76601 0
M  V30 1190 H 113.682 4.21956 4.90471 0
M  V30 1191 N 113.814 -1.1601 1.06675 0
M  V30 1192 C 115.062 -1.86264 0.784229 0
M  V30 1193 C 115.383 -1.82328 -0.691488 0
M  V30 1194 O 114.653 -1.25947 -1.50047 0
M  V30 1195 H 113.233 -0.689621 0.28711 0
M  V30 1196 H 115.895 -1.40664 1.34906 0
M  V30 1197 H 114.991 -2.91595 1.11259 0
M  V30 1198 N 115.292 -0.849877 -1.32721 0
M  V30 1199 C 116.708 -0.539102 -1.50219 0
M  V30 1200 C 116.908 0.931271 -1.78689 0
M  V30 1201 O 115.964 1.71455 -1.85363 0
M  V30 1202 C 117.277 -1.42196 -2.64954 0
M  V30 1203 C 118.825 -1.42189 -2.78839 0
M  V30 1204 C 119.3 -2.28985 -3.96648 0
M  V30 1205 N 120.791 -2.26754 -4.03902 0
M  V30 1206 C 121.526 -2.90644 -4.94281 0
M  V30 1207 N 121.022 -3.63629 -5.897 0
M  V30 1208 N 122.815 -2.80057 -4.87365 0
M  V30 1209 H 114.966 -1.80156 -1.12506 0
M  V30 1210 H 117.229 -0.769217 -0.554085 0
M  V30 1211 H 116.935 -2.46733 -2.50631 0
M  V30 1212 H 116.809 -1.10591 -3.60624 0
M  V30 1213 H 119.196 -0.38419 -2.92588 0
M  V30 1214 H 119.277 -1.77807 -1.83898 0
M  V30 1215 H 118.921 -3.32819 -3.83658 0
M  V30 1216 H 118.851 -1.90702 -4.90857 0
M  V30 1217 H 121.342 -1.73688 -3.3562 0
M  V30 1218 H 121.655 -4.09558 -6.55349 0
M  V30 1219 H 120 -3.67737 -5.89741 0
M  V30 1220 H 123.191 -2.22593 -4.11789 0
M  V30 1221 H 123.364 -3.30132 -5.57599 0
M  V30 1222 N 116.77 1.45427 -0.607355 0
M  V30 1223 C 117.717 2.3053 0.111625 0
M  V30 1224 C 118.687 1.4209 0.860216 0
M  V30 1225 O 119.872 1.71019 0.845998 0
M  V30 1226 C 117.012 3.26992 1.10319 0
M  V30 1227 C 116.125 4.30535 0.355493 0
M  V30 1228 C 115.26 5.14105 1.33676 0
M  V30 1229 C 114.299 6.09376 0.576862 0
M  V30 1230 N 113.436 6.85727 1.5074 0
M  V30 1231 H 118.276 2.91477 -0.620093 0
M  V30 1232 H 115.813 1.43631 -0.317594 0
M  V30 1233 H 117.771 3.81385 1.6912 0
M  V30 1234 H 116.401 2.67799 1.80232 0
M  V30 1235 H 115.453 3.78805 -0.348023 0
M  V30 1236 H 116.765 4.98235 -0.237423 0
M  V30 1237 H 115.919 5.72897 1.99684 0
M  V30 1238 H 114.658 4.46423 1.9636 0
M  V30 1239 H 113.663 5.49715 -0.0968519 0
M  V30 1240 H 114.888 6.79085 -0.0449341 0
M  V30 1241 H 112.834 6.20735 2.12189 0
M  V30 1242 H 112.751 7.49778 0.967913 0
M  V30 1243 H 114.019 7.4906 2.15706 0
M  V30 1244 N 118.248 0.346503 1.53744 0
M  V30 1245 C 119.195 -0.508914 2.25119 0
M  V30 1246 C 120.165 -1.09315 1.25058 0
M  V30 1247 O 121.35 -1.12921 1.53797 0
M  V30 1248 C 118.49 -1.65246 3.02965 0
M  V30 1249 C 117.603 -1.09525 4.17886 0
M  V30 1250 C 116.738 -2.20634 4.83212 0
M  V30 1251 C 115.777 -1.62279 5.90196 0
M  V30 1252 N 114.914 -2.67143 6.49291 0
M  V30 1253 H 119.754 0.106283 2.9781 0
M  V30 1254 H 117.291 0.0642227 1.4696 0
M  V30 1255 H 119.249 -2.32574 3.4636 0
M  V30 1256 H 117.879 -2.2386 2.32565 0
M  V30 1257 H 116.931 -0.312818 3.79112 0
M  V30 1258 H 118.243 -0.628444 4.94825 0
M  V30 1259 H 117.397 -2.95821 5.29693 0
M  V30 1260 H 116.136 -2.70659 4.05703 0
M  V30 1261 H 115.141 -0.855989 5.43096 0
M  V30 1262 H 116.366 -1.13102 6.69615 0
M  V30 1263 H 114.312 -3.16417 5.74645 0
M  V30 1264 H 114.229 -2.25093 7.21713 0
M  V30 1265 H 115.497 -3.4209 7.00425 0
M  V30 1266 N 119.726 -1.57421 0.075193 0
M  V30 1267 C 120.975 -1.92794 -0.592731 0
M  V30 1268 C 121.288 -0.957478 -1.70563 0
M  V30 1269 O 122.494 -1.20417 -2.43335 0
M  V30 1270 C 120.95 -3.42495 -1.10569 0
M  V30 1271 C 120.558 -4.47994 -0.0236121 0
M  V30 1272 C 122.302 -3.86864 -1.74748 0
M  V30 1273 C 120.209 -5.88829 -0.550803 0
M  V30 1274 H 119.139 -0.719591 -0.225177 0
M  V30 1275 H 121.79 -1.82902 0.147978 0
M  V30 1276 H 120.172 -3.47471 -1.89947 0
M  V30 1277 H 121.346 -4.54637 0.751099 0
M  V30 1278 H 119.661 -4.13113 0.522159 0
M  V30 1279 H 122.258 -4.8947 -2.15229 0
M  V30 1280 H 122.601 -3.24417 -2.60882 0
M  V30 1281 H 123.134 -3.84504 -1.01986 0
M  V30 1282 H 119.873 -6.54929 0.273457 0
M  V30 1283 H 119.393 -5.85698 -1.29296 0
M  V30 1284 H 121.072 -6.38811 -1.02613 0
M  V30 1285 N 121.204 0.198386 -1.56346 0
M  V30 1286 C 122.429 0.939682 -1.84891 0
M  V30 1287 C 122.854 1.76202 -0.658369 0
M  V30 1288 O 122.212 1.76993 0.392851 0
M  V30 1289 C 122.26 1.81428 -3.11635 0
M  V30 1290 O 121.364 2.91265 -2.91956 0
M  V30 1291 H 120.705 0.264807 -0.608912 0
M  V30 1292 H 123.235 0.204695 -2.03573 0
M  V30 1293 H 123.245 2.21958 -3.42343 0
M  V30 1294 H 121.92 1.21004 -3.97908 0
M  V30 1295 H 120.497 2.54514 -2.72538 0
M  V30 1296 N 122.682 1.50554 0.465978 0
M  V30 1297 C 124.093 1.54599 1.04671 0
M  V30 1298 C 124.444 0.352488 1.93008 0
M  V30 1299 O 123.569 -0.534044 2.09707 0
M  V30 1300 C 124.164 2.80166 1.90505 0
M  V30 1301 C 122.723 2.86876 2.43678 0
M  V30 1302 C 121.87 2.48947 1.22151 0
M  V30 1303 H 124.821 1.56744 0.248384 0
M  V30 1304 H 124.842 2.62311 2.75633 0
M  V30 1305 H 124.354 3.67013 1.26186 0
M  V30 1306 H 122.455 2.04393 3.11536 0
M  V30 1307 H 122.568 3.89885 2.78436 0
M  V30 1308 H 120.932 2.01498 1.5579 0
M  V30 1309 H 121.715 3.38107 0.594866 0
M  V30 1310 N 124.16 -0.719506 1.40217 0
M  V30 1311 C 125.571 -1.29848 1.34151 0
M  V30 1312 C 125.922 -1.96196 0.0131349 0
M  V30 1313 O 125.047 -1.973 -0.88892 0
M  V30 1314 C 125.642 -2.36118 2.42968 0
M  V30 1315 C 124.201 -2.8965 2.40374 0
M  V30 1316 C 123.348 -1.63393 2.24049 0
M  V30 1317 H 126.299 -0.51591 1.5008 0
M  V30 1318 H 126.32 -3.16871 2.10649 0
M  V30 1319 H 125.832 -1.878 3.39636 0
M  V30 1320 H 123.933 -3.42208 1.47392 0
M  V30 1321 H 124.046 -3.4171 3.35814 0
M  V30 1322 H 122.41 -1.88312 1.71495 0
M  V30 1323 H 123.193 -1.17104 3.2271 0
M  V30 1324 N 125.638 -1.25649 -0.95132 0
M  V30 1325 C 126.866 -1.13343 -1.73092 0
M  V30 1326 C 127.281 0.312434 -1.86197 0
M  V30 1327 O 126.638 1.21465 -1.36207 0
M  V30 1328 C 126.689 -1.78602 -3.14299 0
M  V30 1329 O 126.41 -3.17537 -3.01831 0
M  V30 1330 C 127.911 -1.72119 -4.08522 0
M  V30 1331 H 125.131 -0.395181 -0.542285 0
M  V30 1332 H 127.675 -1.66076 -1.19328 0
M  V30 1333 H 125.83 -1.29832 -3.64996 0
M  V30 1334 H 126.244 -3.49676 -3.90931 0
M  V30 1335 H 127.718 -2.22435 -5.052 0
M  V30 1336 H 128.195 -0.685635 -4.33815 0
M  V30 1337 H 128.801 -2.20393 -3.63741 0
M  V30 1338 N 127.117 1.15442 -1.07289 0
M  V30 1339 C 128.528 1.67803 -0.818475 0
M  V30 1340 C 128.879 1.8489 0.656507 0
M  V30 1341 O 128.004 1.55176 1.50829 0
M  V30 1342 C 128.599 3.04805 -1.47917 0
M  V30 1343 C 127.158 3.54245 -1.27229 0
M  V30 1344 C 126.305 2.29986 -1.54925 0
M  V30 1345 H 129.256 0.996646 -1.23502 0
M  V30 1346 H 129.277 3.69702 -0.90005 0
M  V30 1347 H 128.789 2.92336 -2.55267 0
M  V30 1348 H 126.89 3.71956 -0.21899 0
M  V30 1349 H 127.003 4.35723 -1.99203 0
M  V30 1350 H 125.367 2.35496 -0.970242 0
M  V30 1351 H 126.15 2.20105 -2.63455 0
M  V30 1352 N 128.595 0.856903 1.32268 0
M  V30 1353 C 129.542 0.301172 2.28827 0
M  V30 1354 C 130.512 -0.593104 1.5515 0
M  V30 1355 O 131.697 -0.527537 1.83362 0
M  V30 1356 C 128.837 -0.502523 3.41422 0
M  V30 1357 C 127.95 0.417797 4.29975 0
M  V30 1358 C 127.085 -0.398749 5.29701 0
M  V30 1359 C 126.124 0.518827 6.09897 0
M  V30 1360 N 125.261 -0.260674 7.01616 0
M  V30 1361 H 130.101 1.12983 2.75751 0
M  V30 1362 H 127.638 0.568582 1.35667 0
M  V30 1363 H 129.596 -0.984141 4.05426 0
M  V30 1364 H 128.226 -1.29599 2.95642 0
M  V30 1365 H 127.278 1.01781 3.66531 0
M  V30 1366 H 128.59 1.12191 4.86019 0
M  V30 1367 H 127.744 -0.943435 5.9932 0
M  V30 1368 H 126.483 -1.13622 4.7428 0
M  V30 1369 H 125.488 1.07538 5.39181 0
M  V30 1370 H 126.713 1.25495 6.67404 0
M  V30 1371 H 124.659 -0.981198 6.4862 0
M  V30 1372 H 124.576 0.384364 7.55022 0
M  V30 1373 H 125.844 -0.787014 7.75517 0
M  V30 1374 N 130.073 -1.45103 0.615059 0
M  V30 1375 C 131.484 -1.85654 0.197383 0
M  V30 1376 C 131.835 -1.51433 -1.24749 0
M  V30 1377 O 130.96 -0.944608 -1.94695 0
M  V30 1378 C 131.555 -3.36972 0.351448 0
M  V30 1379 C 130.114 -3.76398 -0.011593 0
M  V30 1380 C 129.261 -2.69024 0.672394 0
M  V30 1381 H 132.212 -1.35797 0.821263 0
M  V30 1382 H 132.233 -3.78239 -0.414227 0
M  V30 1383 H 131.745 -3.61847 1.40314 0
M  V30 1384 H 129.846 -3.5714 -1.06217 0
M  V30 1385 H 129.959 -4.77532 0.387265 0
M  V30 1386 H 128.323 -2.54465 0.109284 0
M  V30 1387 H 129.106 -2.96735 1.72636 0
M  V30 1388 N 131.551 -0.354651 -1.53558 0
M  V30 1389 C 132.967 -0.00315426 -1.596 0
M  V30 1390 C 133.167 1.47741 -1.37021 0
M  V30 1391 O 132.223 2.23759 -1.16996 0
M  V30 1392 C 133.536 -0.44929 -2.97325 0
M  V30 1393 C 135.084 -0.402578 -3.104 0
M  V30 1394 C 135.559 -0.824355 -4.5052 0
M  V30 1395 N 137.05 -0.778979 -4.56603 0
M  V30 1396 C 137.785 -1.07715 -5.63192 0
M  V30 1397 N 137.281 -1.44405 -6.77583 0
M  V30 1398 N 139.074 -1.00066 -5.53121 0
M  V30 1399 H 131.225 -1.31893 -1.66487 0
M  V30 1400 H 133.488 -0.538388 -0.780284 0
M  V30 1401 H 133.194 -1.48202 -3.1895 0
M  V30 1402 H 133.068 0.169772 -3.76818 0
M  V30 1403 H 135.455 0.621004 -2.88492 0
M  V30 1404 H 135.536 -1.05699 -2.32941 0
M  V30 1405 H 135.18 -1.846 -4.73165 0
M  V30 1406 H 135.11 -0.147304 -5.26394 0
M  V30 1407 H 137.601 -0.508528 -3.74463 0
M  V30 1408 H 137.914 -1.65612 -7.54846 0
M  V30 1409 H 136.259 -1.4826 -6.79002 0
M  V30 1410 H 139.45 -0.713293 -4.62633 0
M  V30 1411 H 139.623 -1.23638 -6.36096 0
M  V30 1412 N 133.029 1.57378 -0.0835403 0
M  V30 1413 C 134.44 1.81261 0.447358 0
M  V30 1414 C 134.791 0.998331 1.68902 0
M  V30 1415 O 133.916 0.224282 2.15235 0
M  V30 1416 C 134.511 3.28767 0.818386 0
M  V30 1417 C 133.07 3.53455 1.29409 0
M  V30 1418 C 132.217 2.75831 0.285024 0
M  V30 1419 H 135.168 1.5566 -0.309115 0
M  V30 1420 H 135.189 3.41459 1.67887 0
M  V30 1421 H 134.701 3.88006 -0.0855019 0
M  V30 1422 H 132.802 2.99534 2.21608 0
M  V30 1423 H 132.915 4.62128 1.2639 0
M  V30 1424 H 131.279 2.42947 0.764767 0
M  V30 1425 H 132.062 3.37813 -0.611341 0
M  V30 1426 N 134.507 -0.190092 1.56449 0
M  V30 1427 C 135.918 -0.754312 1.70784 0
M  V30 1428 C 136.269 -1.83631 0.690951 0
M  V30 1429 O 135.394 -2.15868 -0.151604 0
M  V30 1430 C 135.989 -1.37503 3.09642 0
M  V30 1431 C 134.548 -1.88628 3.25725 0
M  V30 1432 C 133.695 -0.758098 2.66736 0
M  V30 1433 H 136.646 0.0350524 1.58661 0
M  V30 1434 H 136.667 -2.2445 3.0725 0
M  V30 1435 H 136.179 -0.587302 3.83631 0
M  V30 1436 H 134.28 -2.70103 2.56661 0
M  V30 1437 H 134.393 -2.04462 4.3328 0
M  V30 1438 H 132.757 -1.17369 2.26046 0
M  V30 1439 H 133.54 0.0174705 3.43296 0
M  V30 1440 N 135.985 -1.50799 -0.457987 0
M  V30 1441 C 137.401 -1.38515 -0.792819 0
M  V30 1442 C 137.601 -0.451409 -1.96379 0
M  V30 1443 O 136.657 0.10112 -2.52297 0
M  V30 1444 C 137.97 -2.80149 -1.09258 0
M  V30 1445 C 139.518 -2.89156 -1.19825 0
M  V30 1446 C 139.993 -4.31651 -1.53106 0
M  V30 1447 N 141.484 -4.34662 -1.60072 0
M  V30 1448 C 142.219 -5.41928 -1.87354 0
M  V30 1449 N 141.715 -6.59384 -2.12568 0
M  V30 1450 N 143.508 -5.29385 -1.88965 0
M  V30 1451 H 135.659 -2.10073 0.313511 0
M  V30 1452 H 137.922 -0.944803 0.0777862 0
M  V30 1453 H 137.628 -3.50374 -0.305084 0
M  V30 1454 H 137.502 -3.18204 -2.02549 0
M  V30 1455 H 139.889 -2.19141 -1.97639 0
M  V30 1456 H 139.97 -2.54626 -0.244821 0
M  V30 1457 H 139.614 -5.02208 -0.758266 0
M  V30 1458 H 139.544 -4.63678 -2.49621 0
M  V30 1459 H 142.035 -3.49973 -1.42573 0
M  V30 1460 H 142.348 -7.36934 -2.32696 0
M  V30 1461 H 140.693 -6.62535 -2.09933 0
M  V30 1462 H 143.884 -4.36616 -1.68772 0
M  V30 1463 H 144.057 -6.13066 -2.09891 0
M  V30 1464 N 137.463 0.71206 -1.40597 0
M  V30 1465 C 138.874 1.29135 -1.34837 0
M  V30 1466 C 139.225 1.96186 -0.0235395 0
M  V30 1467 O 138.35 1.97768 0.878444 0
M  V30 1468 C 138.945 2.34827 -2.44217 0
M  V30 1469 C 137.504 2.88371 -2.41907 0
M  V30 1470 C 136.651 1.62202 -2.24913 0
M  V30 1471 H 139.602 0.507944 -1.50352 0
M  V30 1472 H 139.623 3.15749 -2.12327 0
M  V30 1473 H 139.135 1.85996 -3.40627 0
M  V30 1474 H 137.236 3.41422 -1.49204 0
M  V30 1475 H 137.349 3.39925 -3.37621 0
M  V30 1476 H 135.713 1.874 -1.72492 0
M  V30 1477 H 136.496 1.15391 -3.23326 0
M  V30 1478 N 138.941 1.26152 0.944643 0
M  V30 1479 C 139.871 1.09902 2.06019 0
M  V30 1480 C 140.852 0.00519538 1.70099 0
M  V30 1481 O 142.037 0.176583 1.93396 0
M  V30 1482 C 139.167 0.727562 3.39594 0
M  V30 1483 C 138.121 1.77274 3.89561 0
M  V30 1484 C 137.447 1.25569 5.19747 0
M  V30 1485 C 138.747 3.17357 4.14827 0
M  V30 1486 H 140.441 2.03217 2.19871 0
M  V30 1487 H 137.987 0.978452 1.05652 0
M  V30 1488 H 139.94 0.600777 4.17095 0
M  V30 1489 H 138.664 -0.241287 3.25707 0
M  V30 1490 H 137.323 1.88814 3.14237 0
M  V30 1491 H 136.971 0.276783 5.02238 0
M  V30 1492 H 136.671 1.95433 5.54148 0
M  V30 1493 H 138.195 1.1415 5.99835 0
M  V30 1494 H 139.609 3.08914 4.82954 0
M  V30 1495 H 138.006 3.84781 4.60504 0
M  V30 1496 H 139.076 3.63673 3.20734 0
M  V30 1497 N 140.419 -1.14872 1.07899 0
M  V30 1498 C 141.83 -1.67367 0.827363 0
M  V30 1499 C 142.181 -1.85236 -0.646693 0
M  V30 1500 O 141.306 -1.55974 -1.50004 0
M  V30 1501 C 141.901 -3.04016 1.49532 0
M  V30 1502 C 140.46 -3.53566 1.29106 0
M  V30 1503 C 139.607 -2.29161 1.56143 0
M  V30 1504 H 142.558 -0.990083 1.24028 0
M  V30 1505 H 142.579 -3.69219 0.919643 0
M  V30 1506 H 142.091 -2.90978 2.56814 0
M  V30 1507 H 140.192 -3.71835 0.238713 0
M  V30 1508 H 140.305 -4.34661 2.01511 0
M  V30 1509 H 138.669 -2.34978 0.982717 0
M  V30 1510 H 139.452 -2.18705 2.64619 0
M  V30 1511 N 141.898 -0.863906 -1.31812 0
M  V30 1512 C 143.144 -0.472535 -1.97218 0
M  V30 1513 C 143.477 0.971394 -1.68159 0
M  V30 1514 O 142.752 1.68309 -0.974798 0
M  V30 1515 C 143.035 -0.723054 -3.52766 0
M  V30 1516 C 142.888 -2.21608 -3.91421 0
M  V30 1517 C 144.207 -0.185522 -4.39709 0
M  V30 1518 H 141.326 -0.173158 -0.71637 0
M  V30 1519 H 143.968 -1.08403 -1.56041 0
M  V30 1520 H 142.118 -0.202577 -3.87971 0
M  V30 1521 H 143.79 -2.80334 -3.66347 0
M  V30 1522 H 142.033 -2.691 -3.40246 0
M  V30 1523 H 142.704 -2.34203 -4.99853 0
M  V30 1524 H 145.18 -0.630726 -4.11292 0
M  V30 1525 H 144.056 -0.390306 -5.47511 0
M  V30 1526 H 144.317 0.912229 -4.32586 0
M  V30 1527 N 143.376 1.44774 -0.622745 0
M  V30 1528 C 144.339 2.29069 0.0774015 0
M  V30 1529 C 145.339 1.4059 0.780461 0
M  V30 1530 O 146.529 1.62551 0.626322 0
M  V30 1531 C 143.661 3.21974 1.12006 0
M  V30 1532 H 144.854 2.92459 -0.663901 0
M  V30 1533 H 142.407 1.51548 -0.382486 0
M  V30 1534 H 143.142 2.63417 1.89162 0
M  V30 1535 H 142.927 3.87168 0.619951 0
M  V30 1536 H 144.417 3.85318 1.60995 0
M  V30 1537 N 144.854 0.36279 1.53368 0
M  V30 1538 C 146.265 -0.117022 1.86333 0
M  V30 1539 C 146.616 -1.48397 1.28347 0
M  V30 1540 O 145.741 -2.07787 0.604428 0
M  V30 1541 C 146.336 -0.21912 3.38091 0
M  V30 1542 C 144.895 -0.643184 3.70864 0
M  V30 1543 C 144.042 0.211318 2.76494 0
M  V30 1544 H 146.993 0.581687 1.47655 0
M  V30 1545 H 147.014 -1.04319 3.6592 0
M  V30 1546 H 146.526 0.775902 3.80265 0
M  V30 1547 H 144.627 -1.64654 3.34245 0
M  V30 1548 H 144.74 -0.41973 4.77258 0
M  V30 1549 H 143.104 -0.319367 2.5269 0
M  V30 1550 H 143.887 1.20383 3.21501 0
M  V30 1551 N 146.332 -1.57332 0.0918853 0
M  V30 1552 C 147.58 -1.93853 -0.571446 0
M  V30 1553 C 147.901 -0.974212 -1.6892 0
M  V30 1554 O 147.171 -0.0257254 -1.95883 0
M  V30 1555 H 145.751 -0.715666 -0.214082 0
M  V30 1556 H 148.413 -1.94287 0.154464 0
M  V30 1557 H 147.509 -2.96191 -0.983729 0
M  V30 1558 N 147.81 0.181792 -1.56548 0
M  V30 1559 C 149.035 0.920019 -1.85877 0
M  V30 1560 C 149.46 1.75494 -0.677021 0
M  V30 1561 O 148.818 1.77399 0.374056 0
M  V30 1562 C 148.866 1.78112 -3.13542 0
M  V30 1563 O 147.97 2.88152 -2.95029 0
M  V30 1564 H 147.311 0.258334 -0.611686 0
M  V30 1565 H 149.841 0.183092 -2.03779 0
M  V30 1566 H 149.851 2.18314 -3.44678 0
M  V30 1567 H 148.526 1.16777 -3.99169 0
M  V30 1568 H 147.103 2.51609 -2.75222 0
M  V30 1569 N 149.288 1.51039 0.449983 0
M  V30 1570 C 150.513 1.6715 1.22783 0
M  V30 1571 C 150.938 0.363081 1.84563 0
M  V30 1572 O 150.296 -0.675433 1.68249 0
M  V30 1573 C 150.344 2.77985 2.29689 0
M  V30 1574 O 149.448 2.40707 3.34864 0
M  V30 1575 H 148.789 0.557746 0.360299 0
M  V30 1576 H 151.319 1.97535 0.533005 0
M  V30 1577 H 151.329 3.01693 2.74673 0
M  V30 1578 H 150.004 3.72935 1.84098 0
M  V30 1579 H 148.581 2.27523 2.95445 0
M  V30 1580 N 150.766 -0.704594 1.40972 0
M  V30 1581 C 151.713 -1.81862 1.42109 0
M  V30 1582 C 152.683 -1.63781 0.276593 0
M  V30 1583 O 153.868 -1.84759 0.4763 0
M  V30 1584 C 151.008 -3.19669 1.30022 0
M  V30 1585 C 150.121 -3.49246 2.54267 0
M  V30 1586 C 149.256 -4.76618 2.3454 0
M  V30 1587 C 148.295 -4.99133 3.54306 0
M  V30 1588 N 147.432 -6.17726 3.33706 0
M  V30 1589 H 152.272 -1.80226 2.37324 0
M  V30 1590 H 149.809 -0.880238 1.17857 0
M  V30 1591 H 151.767 -3.99263 1.21018 0
M  V30 1592 H 150.397 -3.20506 0.384192 0
M  V30 1593 H 149.449 -2.64125 2.73756 0
M  V30 1594 H 150.761 -3.61788 3.43381 0
M  V30 1595 H 149.915 -5.64249 2.22952 0
M  V30 1596 H 148.654 -4.66305 1.42867 0
M  V30 1597 H 147.659 -4.09953 3.66359 0
M  V30 1598 H 148.884 -5.11311 4.4692 0
M  V30 1599 H 146.83 -6.08642 2.44725 0
M  V30 1600 H 146.747 -6.30995 4.16391 0
M  V30 1601 H 148.015 -7.08115 3.25873 0
M  V30 1602 N 152.244 -1.26651 -0.937939 0
M  V30 1603 C 153.472 -1.15173 -1.7188 0
M  V30 1604 C 153.887 0.292668 -1.86518 0
M  V30 1605 O 153.244 1.20014 -1.37488 0
M  V30 1606 C 153.295 -1.81925 -3.12387 0
M  V30 1607 O 153.016 -3.2072 -2.98446 0
M  V30 1608 C 154.517 -1.76442 -4.06673 0
M  V30 1609 H 151.737 -0.400911 -0.538063 0
M  V30 1610 H 154.281 -1.67332 -1.1756 0
M  V30 1611 H 152.436 -1.33696 -3.63599 0
M  V30 1612 H 152.85 -3.53802 -3.872 0
M  V30 1613 H 154.324 -2.27781 -5.02812 0
M  V30 1614 H 154.801 -0.731608 -4.33064 0
M  V30 1615 H 155.407 -2.24238 -3.61382 0
M  V30 1616 N 153.722 1.14298 -1.08507 0
M  V30 1617 C 154.632 2.23027 -0.727753 0
M  V30 1618 C 155.648 1.71952 0.26619 0
M  V30 1619 O 156.824 2.011 0.109882 0
M  V30 1620 C 153.889 3.46403 -0.143541 0
M  V30 1621 C 152.95 4.12413 -1.19223 0
M  V30 1622 C 152.183 5.29899 -0.635798 0
M  V30 1623 O 152.406 5.67796 0.544393 0
M  V30 1624 O 151.34 5.85717 -1.38634 0
M  V30 1625 H 155.166 2.55945 -1.63481 0
M  V30 1626 H 152.751 1.22248 -0.858817 0
M  V30 1627 H 154.633 4.21018 0.179404 0
M  V30 1628 H 153.308 3.15206 0.736659 0
M  V30 1629 H 152.215 3.39667 -1.56772 0
M  V30 1630 H 153.548 4.47718 -2.04474 0
M  V30 1631 N 155.201 0.870884 1.31352 0
M  V30 1632 C 156.164 0.332243 2.26779 0
M  V30 1633 C 157.164 -0.517302 1.52252 0
M  V30 1634 O 158.354 -0.326477 1.71113 0
M  V30 1635 C 155.486 -0.528066 3.36785 0
M  V30 1636 H 156.679 1.17469 2.75937 0
M  V30 1637 H 154.232 0.64655 1.423 0
M  V30 1638 H 154.967 -1.39167 2.92922 0
M  V30 1639 H 154.752 0.0802582 3.92018 0
M  V30 1640 H 156.242 -0.897179 4.07849 0
M  V30 1641 N 156.679 -1.44442 0.630414 0
M  V30 1642 C 157.956 -1.9549 0.0655657 0
M  V30 1643 C 158.336 -1.5724 -1.40851 0
M  V30 1644 O 157.684 -0.846116 -2.12257 0
M  V30 1645 C 157.894 -3.47812 0.287691 0
M  V30 1646 C 159.242 -4.24216 0.180513 0
M  V30 1647 O 160.266 -3.55526 0.219019 0
M  V30 1648 O 159.125 -5.46434 0.0848493 0
M  V30 1649 H 156.219 -0.826688 -0.0227177 0
M  V30 1650 H 158.765 -1.54496 0.702068 0
M  V30 1651 H 157.537 -3.687 1.31056 0
M  V30 1652 H 157.16 -3.95751 -0.382984 0
M  V30 1653 N 158.157 -0.370918 -1.53173 0
M  V30 1654 C 159.403 0.217423 -2.01631 0
M  V30 1655 C 159.736 1.47983 -1.25756 0
M  V30 1656 O 159.011 1.91274 -0.352764 0
M  V30 1657 C 159.294 0.503982 -3.56556 0
M  V30 1658 C 159.147 -0.77243 -4.43118 0
M  V30 1659 C 160.466 1.30234 -4.20389 0
M  V30 1660 H 157.585 0.0775486 -0.732909 0
M  V30 1661 H 160.227 -0.496863 -1.83388 0
M  V30 1662 H 158.377 1.11248 -3.72231 0
M  V30 1663 H 160.049 -1.4098 -4.39229 0
M  V30 1664 H 158.292 -1.39167 -4.10871 0
M  V30 1665 H 158.963 -0.526815 -5.4948 0
M  V30 1666 H 161.439 0.787546 -4.08579 0
M  V30 1667 H 160.315 1.47158 -5.28806 0
M  V30 1668 H 160.576 2.31237 -3.76805 0
M  V30 1669 N 159.635 1.57281 -0.100228 0
M  V30 1670 C 160.545 2.17833 0.870965 0
M  V30 1671 C 161.561 1.14921 1.30649 0
M  V30 1672 O 162.737 1.47313 1.37335 0
M  V30 1673 C 159.802 2.75085 2.1102 0
M  V30 1674 C 158.863 3.9297 1.72838 0
M  V30 1675 C 158.096 4.47482 2.90854 0
M  V30 1676 O 158.319 4.00922 4.05731 0
M  V30 1677 O 157.253 5.38433 2.69023 0
M  V30 1678 H 161.079 3.0124 0.38575 0
M  V30 1679 H 158.664 1.48881 0.124397 0
M  V30 1680 H 160.546 3.11656 2.83634 0
M  V30 1681 H 159.221 1.94721 2.58584 0
M  V30 1682 H 158.128 3.61201 0.973883 0
M  V30 1683 H 159.461 4.74713 1.30033 0
M  V30 1684 N 161.113 -0.173488 1.56642 0
M  V30 1685 C 162.045 -1.23935 1.92802 0
M  V30 1686 C 163.058 -1.40589 0.820889 0
M  V30 1687 O 164.247 -1.40631 1.09933 0
M  V30 1688 C 161.347 -2.60837 2.16373 0
M  V30 1689 C 160.52 -2.6551 3.47596 0
M  V30 1690 C 159.579 -3.8376 3.60021 0
M  V30 1691 O 158.605 -3.69859 4.32658 0
M  V30 1692 N 159.807 -5.00127 2.94709 0
M  V30 1693 H 162.572 -0.932236 2.84832 0
M  V30 1694 H 160.133 -0.363268 1.57772 0
M  V30 1695 H 162.125 -3.38407 2.21952 0
M  V30 1696 H 160.695 -2.83948 1.30738 0
M  V30 1697 H 159.915 -1.74052 3.53694 0
M  V30 1698 H 161.203 -2.65641 4.33949 0
M  V30 1699 H 160.601 -5.14322 2.35563 0
M  V30 1700 H 159.158 -5.75567 3.05886 0
M  V30 1701 N 162.591 -1.51276 -0.441967 0
M  V30 1702 C 163.523 -1.68444 -1.55433 0
M  V30 1703 C 164.536 -0.565187 -1.52674 0
M  V30 1704 O 165.725 -0.839356 -1.57534 0
M  V30 1705 C 162.825 -1.67966 -2.94348 0
M  V30 1706 C 161.998 -2.964 -3.21661 0
M  V30 1707 C 161.057 -2.88171 -4.40277 0
M  V30 1708 O 160.083 -3.62119 -4.39157 0
M  V30 1709 N 161.285 -2.03706 -5.43584 0
M  V30 1710 H 164.05 -2.644 -1.41112 0
M  V30 1711 H 161.611 -1.49104 -0.630838 0
M  V30 1712 H 163.603 -1.60035 -3.71713 0
M  V30 1713 H 162.173 -0.796225 -3.0229 0
M  V30 1714 H 161.393 -3.18234 -2.32638 0
M  V30 1715 H 162.681 -3.81427 -3.36736 0
M  V30 1716 H 162.079 -1.42995 -5.47329 0
M  V30 1717 H 160.636 -2.01658 -6.1982 0
M  V30 1718 N 164.069 0.697108 -1.41344 0
M  V30 1719 C 165.032 1.79281 -1.42797 0
M  V30 1720 C 166.032 1.57607 -0.318837 0
M  V30 1721 O 167.222 1.64309 -0.578642 0
M  V30 1722 C 164.354 3.17632 -1.23785 0
M  V30 1723 H 165.547 1.79385 -2.40335 0
M  V30 1724 H 163.1 0.904582 -1.27464 0
M  V30 1725 H 163.835 3.23167 -0.270814 0
M  V30 1726 H 163.62 3.34765 -2.04144 0
M  V30 1727 H 165.11 3.97617 -1.27633 0
M  V30 1728 N 165.547 1.27147 0.931209 0
M  V30 1729 C 166.477 1.12081 2.04842 0
M  V30 1730 C 167.458 0.0232364 1.70084 0
M  V30 1731 O 168.643 0.197085 1.93197 0
M  V30 1732 C 165.773 0.76354 3.38803 0
M  V30 1733 C 164.727 1.81396 3.87659 0
M  V30 1734 C 164.053 1.31075 5.18385 0
M  V30 1735 C 165.353 3.21739 4.11438 0
M  V30 1736 H 167.047 2.05537 2.17703 0
M  V30 1737 H 164.593 0.989603 1.04608 0
M  V30 1738 H 166.546 0.644982 4.16435 0
M  V30 1739 H 165.27 -0.206727 3.25945 0
M  V30 1740 H 163.929 1.92136 3.12217 0
M  V30 1741 H 163.577 0.330037 5.01916 0
M  V30 1742 H 163.277 2.013 5.52044 0
M  V30 1743 H 164.801 1.20506 5.98591 0
M  V30 1744 H 166.215 3.14019 4.79651 0
M  V30 1745 H 164.612 3.89644 4.56397 0
M  V30 1746 H 165.682 3.67054 3.16859 0
M  V30 1747 N 167.025 -1.13721 1.09112 0
M  V30 1748 C 168.253 -1.88773 0.846899 0
M  V30 1749 C 168.668 -1.7896 -0.601572 0
M  V30 1750 O 168.025 -1.15394 -1.41388 0
M  V30 1751 C 168.076 -3.3849 1.26913 0
M  V30 1752 O 167.797 -3.48043 2.66079 0
M  V30 1753 C 169.298 -4.30518 1.05682 0
M  V30 1754 H 166.518 -0.59772 0.304914 0
M  V30 1755 H 169.062 -1.43977 1.45227 0
M  V30 1756 H 167.217 -3.80881 0.707723 0
M  V30 1757 H 167.631 -4.4109 2.83795 0
M  V30 1758 H 169.105 -5.3391 1.40156 0
M  V30 1759 H 169.582 -4.392 -0.00563416 0
M  V30 1760 H 170.188 -3.93893 1.60402 0
M  V30 1761 N 168.503 -0.877838 -1.30888 0
M  V30 1762 C 169.433 -0.35534 -2.3078 0
M  V30 1763 C 170.414 0.557994 -1.60687 0
M  V30 1764 O 171.599 0.473355 -1.88343 0
M  V30 1765 C 168.729 0.437221 -3.44537 0
M  V30 1766 C 167.683 -0.383715 -4.26276 0
M  V30 1767 C 167.009 0.535014 -5.32017 0
M  V30 1768 C 168.309 -1.62201 -4.96476 0
M  V30 1769 H 170.003 -1.19007 -2.74732 0
M  V30 1770 H 167.549 -0.573698 -1.32078 0
M  V30 1771 H 169.502 0.813334 -4.13477 0
M  V30 1772 H 168.226 1.30553 -2.99372 0
M  V30 1773 H 166.885 -0.741874 -3.59015 0
M  V30 1774 H 166.533 1.40083 -4.831 0
M  V30 1775 H 166.233 -0.0104211 -5.87599 0
M  V30 1776 H 167.757 0.907799 -6.03814 0
M  V30 1777 H 169.171 -1.31689 -5.5797 0
M  V30 1778 H 167.568 -2.10711 -5.61891 0
M  V30 1779 H 168.638 -2.37044 -4.23011 0
M  V30 1780 N 169.982 1.44106 -0.638065 0
M  V30 1781 C 171.393 1.85316 -0.226894 0
M  V30 1782 C 171.744 1.53399 1.22324 0
M  V30 1783 O 170.869 0.975463 1.93167 0
M  V30 1784 C 171.464 3.3637 -0.405013 0
M  V30 1785 C 170.023 3.76369 -0.0482902 0
M  V30 1786 C 169.17 2.67921 -0.715108 0
M  V30 1787 H 172.121 1.34474 -0.842764 0
M  V30 1788 H 172.142 3.7885 0.354 0
M  V30 1789 H 171.654 3.59569 -1.46053 0
M  V30 1790 H 169.755 3.58784 1.00522 0
M  V30 1791 H 169.868 4.76856 -0.463187 0
M  V30 1792 H 168.232 2.54259 -0.149753 0
M  V30 1793 H 169.015 2.93951 -1.77335 0
M  V30 1794 N 171.46 0.379036 1.52974 0
M  V30 1795 C 172.737 -0.263479 1.93817 0
M  V30 1796 C 173.117 -1.65244 1.31368 0
M  V30 1797 O 172.465 -2.23448 0.477856 0
M  V30 1798 C 172.675 -0.300166 3.47707 0
M  V30 1799 C 174.023 -0.534061 4.21228 0
M  V30 1800 O 175.047 -0.38081 3.54159 0
M  V30 1801 O 173.906 -0.833501 5.40106 0
M  V30 1802 H 171 -0.161149 0.811147 0
M  V30 1803 H 173.546 0.432798 1.64088 0
M  V30 1804 H 172.318 0.673138 3.85467 0
M  V30 1805 H 171.941 -1.04179 3.83709 0
M  V30 1806 N 172.938 -1.57226 0.108567 0
M  V30 1807 C 173.868 -2.17778 -0.84232 0
M  V30 1808 C 174.849 -1.11487 -1.2847 0
M  V30 1809 O 176.034 -1.39681 -1.34918 0
M  V30 1810 C 173.164 -2.76888 -2.09644 0
M  V30 1811 C 172.118 -3.88669 -1.79221 0
M  V30 1812 C 171.444 -4.34541 -3.11574 0
M  V30 1813 C 172.744 -5.11251 -1.06864 0
M  V30 1814 H 174.438 -2.97489 -0.337774 0
M  V30 1815 H 171.984 -1.43097 -0.161025 0
M  V30 1816 H 173.937 -3.17904 -2.76614 0
M  V30 1817 H 172.661 -1.94451 -2.62405 0
M  V30 1818 H 171.32 -3.48213 -1.14644 0
M  V30 1819 H 170.968 -3.48977 -3.62249 0
M  V30 1820 H 170.668 -5.09914 -2.91996 0
M  V30 1821 H 172.192 -4.782 -3.7968 0
M  V30 1822 H 173.606 -5.49352 -1.63968 0
M  V30 1823 H 172.003 -5.9214 -0.974178 0
M  V30 1824 H 173.073 -4.8487 -0.0536168 0
M  V30 1825 N 174.416 0.165178 -1.56732 0
M  V30 1826 C 175.379 1.18822 -1.95995 0
M  V30 1827 C 176.379 1.3685 -0.84431 0
M  V30 1828 O 177.569 1.34152 -1.11126 0
M  V30 1829 C 174.701 2.5521 -2.26011 0
M  V30 1830 H 175.894 0.851825 -2.87548 0
M  V30 1831 H 173.447 0.407857 -1.50885 0
M  V30 1832 H 174.182 2.93852 -1.37191 0
M  V30 1833 H 173.967 2.43489 -3.07336 0
M  V30 1834 H 175.457 3.28927 -2.57288 0
M  V30 1835 N 175.894 1.51508 0.433938 0
M  V30 1836 C 176.804 1.75917 1.5521 0
M  V30 1837 C 177.82 0.643545 1.61662 0
M  V30 1838 O 178.996 0.926183 1.7884 0
M  V30 1839 C 176.061 1.88213 2.91164 0
M  V30 1840 C 175.122 3.12074 2.94802 0
M  V30 1841 C 174.355 3.23774 4.24271 0
M  V30 1842 O 174.578 2.4133 5.16833 0
M  V30 1843 O 173.512 4.16774 4.34262 0
M  V30 1844 H 177.338 2.70777 1.37527 0
M  V30 1845 H 174.923 1.36051 0.617293 0
M  V30 1846 H 176.805 1.98267 3.71845 0
M  V30 1847 H 175.48 0.965413 3.08968 0
M  V30 1848 H 174.387 3.07497 2.13065 0
M  V30 1849 H 175.72 4.03446 2.81943 0
M  V30 1850 N 177.372 -0.689602 1.41712 0
M  V30 1851 C 178.304 -1.815 1.39966 0
M  V30 1852 C 179.317 -1.59995 0.300917 0
M  V30 1853 O 180.506 -1.69387 0.563039 0
M  V30 1854 C 177.606 -3.18364 1.16179 0
M  V30 1855 C 176.779 -3.66847 2.38206 0
M  V30 1856 C 175.838 -4.82398 2.10186 0
M  V30 1857 O 174.864 -4.93706 2.83272 0
M  V30 1858 N 176.066 -5.70064 1.0958 0
M  V30 1859 H 178.831 -1.83488 2.36965 0
M  V30 1860 H 176.392 -0.872149 1.36401 0
M  V30 1861 H 178.384 -3.93301 0.953756 0
M  V30 1862 H 176.954 -3.11365 0.27756 0
M  V30 1863 H 176.174 -2.82751 2.74673 0
M  V30 1864 H 177.462 -3.95978 3.19498 0
M  V30 1865 H 176.86 -5.63565 0.491019 0
M  V30 1866 H 175.417 -6.44874 0.947656 0
M  V30 1867 N 178.85 -1.27639 -0.924453 0
M  V30 1868 C 180.097 -1.14167 -1.67249 0
M  V30 1869 C 180.425 0.311863 -1.91984 0
M  V30 1870 O 179.68 1.24425 -1.51053 0
M  V30 1871 C 179.979 -1.87407 -3.04325 0
M  V30 1872 C 179.645 -3.37249 -2.99289 0
M  V30 1873 C 178.307 -3.7812 -2.97622 0
M  V30 1874 C 180.659 -4.32845 -2.90336 0
M  V30 1875 C 177.987 -5.12944 -2.8479 0
M  V30 1876 C 180.339 -5.6773 -2.79045 0
M  V30 1877 C 179.003 -6.07889 -2.7573 0
M  V30 1878 H 178.273 -0.417766 -0.612007 0
M  V30 1879 H 180.92 -1.58286 -1.07786 0
M  V30 1880 H 179.225 -1.35805 -3.67511 0
M  V30 1881 H 180.922 -1.74408 -3.61086 0
M  V30 1882 H 177.512 -3.04748 -3.01374 0
M  V30 1883 H 181.696 -4.02239 -2.90719 0
M  V30 1884 H 176.952 -5.432 -2.80612 0
M  V30 1885 H 181.126 -6.41472 -2.71083 0
M  V30 1886 H 178.753 -7.12314 -2.65544 0
M  V30 1887 N 180.328 1.1314 -1.09713 0
M  V30 1888 C 181.291 2.16831 -0.742751 0
M  V30 1889 C 182.291 1.59159 0.229129 0
M  V30 1890 O 183.481 1.74199 0.00693237 0
M  V30 1891 C 180.613 3.40756 -0.0989168 0
M  V30 1892 H 181.806 2.49695 -1.66109 0
M  V30 1893 H 179.359 1.2802 -0.896699 0
M  V30 1894 H 180.094 3.13485 0.830514 0
M  V30 1895 H 179.879 3.83888 -0.798265 0
M  V30 1896 H 181.369 4.17386 0.133524 0
M  V30 1897 N 181.806 0.884767 1.30421 0
M  V30 1898 C 183.217 0.553656 1.78302 0
M  V30 1899 C 183.568 -0.930153 1.7275 0
M  V30 1900 O 182.693 -1.72681 1.30423 0
M  V30 1901 C 183.288 0.998234 3.2376 0
M  V30 1902 C 181.847 0.71854 3.69478 0
M  V30 1903 C 180.994 1.18132 2.50879 0
M  V30 1904 H 183.945 1.06901 1.17294 0
M  V30 1905 H 183.966 0.327118 3.79091 0
M  V30 1906 H 183.478 2.0782 3.27769 0
M  V30 1907 H 181.579 -0.349444 3.70958 0
M  V30 1908 H 181.692 1.30595 4.60958 0
M  V30 1909 H 180.056 0.600669 2.47516 0
M  V30 1910 H 180.839 2.26902 2.57624 0
M  V30 1911 N 183.284 -1.43765 0.645699 0
M  V30 1912 C 184.695 -1.85193 0.236719 0
M  V30 1913 C 185.046 -1.54045 -1.21509 0
M  V30 1914 O 184.171 -0.985694 -1.92647 0
M  V30 1915 C 184.766 -3.36151 0.422845 0
M  V30 1916 C 183.325 -3.76338 0.0682492 0
M  V30 1917 C 182.472 -2.67538 0.729306 0
M  V30 1918 H 185.423 -1.34025 0.849883 0
M  V30 1919 H 185.444 -3.79032 -0.333904 0
M  V30 1920 H 184.956 -3.5879 1.47958 0
M  V30 1921 H 183.057 -3.59312 -0.986179 0
M  V30 1922 H 183.17 -4.76603 0.488469 0
M  V30 1923 H 181.534 -2.54176 0.163235 0
M  V30 1924 H 182.317 -2.93006 1.78892 0
M  V30 1925 N 184.763 -0.387143 -1.52771 0
M  V30 1926 C 186.04 0.253197 -1.93954 0
M  V30 1927 C 186.42 1.64545 -1.32243 0
M  V30 1928 O 185.768 2.23191 -0.489699 0
M  V30 1929 C 185.978 0.281722 -3.47861 0
M  V30 1930 C 187.326 0.511715 -4.21505 0
M  V30 1931 O 188.35 0.362023 -3.54356 0
M  V30 1932 O 187.209 0.804847 -5.40541 0
M  V30 1933 H 184.303 0.156845 -0.811991 0
M  V30 1934 H 186.849 -0.441494 -1.63856 0
M  V30 1935 H 185.621 -0.693571 -3.85104 0
M  V30 1936 H 185.244 1.02142 -3.84256 0
M  V30 1937 N 186.241 1.57166 -0.116904 0
M  V30 1938 C 187.49 1.94298 0.541407 0
M  V30 1939 C 187.803 1.00236 1.67964 0
M  V30 1940 O 189.009 1.26826 2.40057 0
M  V30 1941 C 187.465 3.45306 1.01449 0
M  V30 1942 C 187.073 4.47899 -0.0951738 0
M  V30 1943 C 188.817 3.91361 1.6443 0
M  V30 1944 C 186.724 5.90083 0.394491 0
M  V30 1945 H 185.654 0.725308 0.206019 0
M  V30 1946 H 188.305 1.82446 -0.196419 0
M  V30 1947 H 186.687 3.52385 1.80667 0
M  V30 1948 H 187.861 4.52486 -0.871374 0
M  V30 1949 H 186.176 4.11583 -0.631505 0
M  V30 1950 H 188.773 4.95004 2.02176 0
M  V30 1951 H 189.116 3.3122 2.52189 0
M  V30 1952 H 189.649 3.87073 0.917559 0
M  V30 1953 H 186.388 6.53974 -0.447004 0
M  V30 1954 H 185.908 5.88921 1.13722 0
M  V30 1955 H 187.587 6.41307 0.856399 0
M  V30 1956 N 187.719 -0.156864 1.56817 0
M  V30 1957 C 188.682 -1.17781 1.96622 0
M  V30 1958 C 189.682 -1.36401 0.851555 0
M  V30 1959 O 190.872 -1.33561 1.11836 0
M  V30 1960 C 188.004 -2.54008 2.27361 0
M  V30 1961 H 189.197 -0.836564 2.87996 0
M  V30 1962 H 186.75 -0.39985 1.51099 0
M  V30 1963 H 187.485 -2.9312 1.38748 0
M  V30 1964 H 187.27 -2.41856 3.08623 0
M  V30 1965 H 188.76 -3.27558 2.59029 0
M  V30 1966 N 189.197 -1.51736 -0.425897 0
M  V30 1967 C 190.608 -1.5732 -1.00536 0
M  V30 1968 C 190.959 -0.403537 -1.92005 0
M  V30 1969 O 190.084 0.478256 -2.11049 0
M  V30 1970 C 190.679 -2.85119 -1.8301 0
M  V30 1971 C 189.238 -2.93236 -2.35987 0
M  V30 1972 C 188.385 -2.52098 -1.15508 0
M  V30 1973 H 191.336 -1.57348 -0.206739 0
M  V30 1974 H 191.357 -2.69526 -2.68581 0
M  V30 1975 H 190.869 -3.7023 -1.16411 0
M  V30 1976 H 188.97 -2.12581 -3.06007 0
M  V30 1977 H 189.083 -3.9713 -2.68001 0
M  V30 1978 H 187.447 -2.05558 -1.50393 0
M  V30 1979 H 188.23 -3.39565 -0.505014 0
M  V30 1980 N 190.675 0.682077 -1.42076 0
M  V30 1981 C 192.086 1.26246 -1.37546 0
M  V30 1982 C 192.437 1.96092 -0.0651481 0
M  V30 1983 O 191.562 1.99587 0.836297 0
M  V30 1984 C 192.157 2.29594 -2.49143 0
M  V30 1985 C 190.716 2.83175 -2.47969 0
M  V30 1986 C 189.863 1.57395 -2.28303 0
M  V30 1987 H 192.814 0.475937 -1.51395 0
M  V30 1988 H 192.835 3.11175 -2.18976 0
M  V30 1989 H 192.347 1.78729 -3.44496 0
M  V30 1990 H 190.448 3.3818 -1.56413 0
M  V30 1991 H 190.561 3.32687 -3.44755 0
M  V30 1992 H 188.925 1.83699 -1.76428 0
M  V30 1993 H 189.708 1.08507 -3.25701 0
M  V30 1994 N 192.153 1.28127 0.917671 0
M  V30 1995 C 193.083 1.14248 2.03641 0
M  V30 1996 C 194.064 0.0412748 1.7005 0
M  V30 1997 O 195.249 0.217566 1.92977 0
M  V30 1998 C 192.379 0.799431 3.37974 0
M  V30 1999 C 191.333 1.85497 3.85713 0
M  V30 2000 C 190.659 1.36565 5.16966 0
M  V30 2001 C 191.959 3.26085 4.08002 0
M  V30 2002 H 193.653 2.07835 2.15511 0
M  V30 2003 H 191.199 1.00064 1.03553 0
M  V30 2004 H 193.152 0.689114 4.15727 0
M  V30 2005 H 191.876 -0.172145 3.26146 0
M  V30 2006 H 190.535 1.95437 3.10161 0
M  V30 2007 H 190.183 0.383253 5.01538 0
M  V30 2008 H 189.883 2.07143 5.49878 0
M  V30 2009 H 191.407 1.26848 5.97279 0
M  V30 2010 H 192.821 3.19089 4.76293 0
M  V30 2011 H 191.218 3.94462 4.52238 0
M  V30 2012 H 192.288 3.70394 3.12948 0
M  V30 2013 N 193.631 -1.12557 1.10312 0
M  V30 2014 C 194.561 -2.20341 0.772798 0
M  V30 2015 C 195.542 -1.68198 -0.25365 0
M  V30 2016 O 196.727 -1.93831 -0.119699 0
M  V30 2017 C 193.857 -3.46709 0.202443 0
M  V30 2018 C 192.811 -4.11996 1.15943 0
M  V30 2019 C 192.137 -5.328 0.450345 0
M  V30 2020 C 193.437 -4.5828 2.50552 0
M  V30 2021 H 195.131 -2.48229 1.674 0
M  V30 2022 H 192.677 -1.19308 0.806326 0
M  V30 2023 H 194.63 -4.2138 -0.0407752 0
M  V30 2024 H 193.354 -3.18245 -0.734001 0
M  V30 2025 H 192.013 -3.39305 1.38808 0
M  V30 2026 H 191.661 -5.00602 -0.490531 0
M  V30 2027 H 191.361 -5.7743 1.08851 0
M  V30 2028 H 192.885 -6.10219 0.215642 0
M  V30 2029 H 194.299 -5.2433 2.31843 0
M  V30 2030 H 192.696 -5.13683 3.10242 0
M  V30 2031 H 193.766 -3.72329 3.10643 0
M  V30 2032 N 195.109 -0.891671 -1.2995 0
M  V30 2033 C 196.358 -0.509521 -1.95158 0
M  V30 2034 C 196.671 0.947388 -1.71125 0
M  V30 2035 O 197.877 1.43669 -2.30372 0
M  V30 2036 C 196.333 -0.860315 -3.49466 0
M  V30 2037 C 195.941 -2.33545 -3.8231 0
M  V30 2038 C 197.685 -0.547687 -4.20952 0
M  V30 2039 C 195.592 -2.62752 -5.29826 0
M  V30 2040 H 194.522 -0.18682 -0.730489 0
M  V30 2041 H 197.173 -1.08756 -1.47798 0
M  V30 2042 H 195.555 -0.211285 -3.95436 0
M  V30 2043 H 196.729 -3.02936 -3.47227 0
M  V30 2044 H 195.044 -2.61629 -3.23944 0
M  V30 2045 H 197.641 -0.742854 -5.29515 0
M  V30 2046 H 197.984 0.51332 -4.13123 0
M  V30 2047 H 198.517 -1.1542 -3.80688 0
M  V30 2048 H 195.256 -3.6762 -5.42712 0
M  V30 2049 H 194.776 -1.97977 -5.66185 0
M  V30 2050 H 196.455 -2.48601 -5.97333 0
M  V30 2051 N 196.587 1.43421 -0.653314 0
M  V30 2052 C 197.534 2.30768 0.0382271 0
M  V30 2053 C 198.504 1.44755 0.814576 0
M  V30 2054 O 199.689 1.73624 0.791162 0
M  V30 2055 C 196.829 3.30336 0.998599 0
M  V30 2056 C 195.942 4.31448 0.218342 0
M  V30 2057 C 195.077 5.18098 1.17252 0
M  V30 2058 C 194.116 6.10902 0.382702 0
M  V30 2059 N 193.253 6.90176 1.28848 0
M  V30 2060 H 198.093 2.89357 -0.712511 0
M  V30 2061 H 195.63 1.42548 -0.363128 0
M  V30 2062 H 197.588 3.86572 1.56901 0
M  V30 2063 H 196.218 2.73397 1.71621 0
M  V30 2064 H 195.27 3.77506 -0.46836 0
M  V30 2065 H 196.582 4.97227 -0.395812 0
M  V30 2066 H 195.736 5.7896 1.81356 0
M  V30 2067 H 194.475 4.52444 1.82058 0
M  V30 2068 H 193.48 5.49128 -0.27169 0
M  V30 2069 H 194.705 6.78598 -0.260957 0
M  V30 2070 H 192.651 6.27171 1.92334 0
M  V30 2071 H 192.568 7.52478 0.728887 0
M  V30 2072 H 193.836 7.55543 1.91766 0
M  V30 2073 N 198.065 0.39524 1.52563 0
M  V30 2074 C 198.995 -0.428384 2.29537 0
M  V30 2075 C 199.976 -1.05831 1.33169 0
M  V30 2076 O 201.161 -1.06995 1.62067 0
M  V30 2077 C 198.291 -1.55274 3.10656 0
M  V30 2078 C 197.245 -1.04855 4.14957 0
M  V30 2079 C 196.571 -2.26543 4.84337 0
M  V30 2080 C 197.871 -0.112324 5.22179 0
M  V30 2081 H 199.565 0.213867 2.98635 0
M  V30 2082 H 197.111 0.104298 1.43622 0
M  V30 2083 H 199.064 -2.1358 3.63265 0
M  V30 2084 H 197.788 -2.22266 2.39302 0
M  V30 2085 H 196.447 -0.487985 3.63338 0
M  V30 2086 H 196.095 -2.92059 4.09525 0
M  V30 2087 H 195.795 -1.93466 5.54837 0
M  V30 2088 H 197.319 -2.85481 5.39753 0
M  V30 2089 H 198.733 -0.603752 5.70112 0
M  V30 2090 H 197.13 0.128968 5.99961 0
M  V30 2091 H 198.2 0.837052 4.77621 0
M  V30 2092 N 199.544 -1.57102 0.125237 0
M  V30 2093 C 200.79 -1.95697 -0.532035 0
M  V30 2094 C 201.123 -1.009 -1.6593 0
M  V30 2095 O 200.398 -0.047347 -1.94442 0
M  V30 2096 C 200.681 -3.44181 -1.05884 0
M  V30 2097 C 200.534 -4.49752 0.0654392 0
M  V30 2098 C 201.853 -3.94655 -1.9477 0
M  V30 2099 H 198.972 -0.711571 -0.191925 0
M  V30 2100 H 201.614 -1.88923 0.20206 0
M  V30 2101 H 199.764 -3.50085 -1.68442 0
M  V30 2102 H 201.436 -4.55943 0.700982 0
M  V30 2103 H 199.679 -4.27653 0.727709 0
M  V30 2104 H 200.35 -5.50924 -0.344505 0
M  V30 2105 H 202.826 -3.91094 -1.42074 0
M  V30 2106 H 201.702 -4.99057 -2.28546 0
M  V30 2107 H 201.963 -3.35718 -2.87656 0
M  V30 2108 N 201.022 0.148545 -1.56898 0
M  V30 2109 C 201.932 1.20293 -2.01412 0
M  V30 2110 C 202.948 1.47107 -0.929273 0
M  V30 2111 O 204.124 1.58807 -1.23863 0
M  V30 2112 C 201.189 2.51682 -2.38447 0
M  V30 2113 C 200.25 2.32529 -3.60872 0
M  V30 2114 C 199.483 3.57653 -3.96132 0
M  V30 2115 O 199.706 4.63771 -3.32073 0
M  V30 2116 O 198.64 3.50408 -4.89385 0
M  V30 2117 H 202.466 0.855025 -2.91416 0
M  V30 2118 H 200.051 0.357151 -1.45068 0
M  V30 2119 H 201.933 3.29147 -2.63135 0
M  V30 2120 H 200.608 2.86006 -1.51599 0
M  V30 2121 H 199.515 1.53019 -3.41373 0
M  V30 2122 H 200.848 2.03121 -4.48333 0
M  V30 2123 N 202.5 1.5196 0.417844 0
M  V30 2124 C 203.463 1.74065 1.49111 0
M  V30 2125 C 204.463 0.610537 1.48758 0
M  V30 2126 O 205.653 0.87832 1.50437 0
M  V30 2127 C 202.785 1.81502 2.88565 0
M  V30 2128 H 203.978 2.69869 1.30807 0
M  V30 2129 H 201.531 1.42244 0.647785 0
M  V30 2130 H 202.266 0.875813 3.1225 0
M  V30 2131 H 202.051 2.63651 2.90225 0
M  V30 2132 H 203.541 2.00376 3.66387 0
M  V30 2133 N 203.978 -0.674533 1.42435 0
M  V30 2134 C 205.227 -1.43034 1.42212 0
M  V30 2135 C 205.54 -1.95555 0.0420788 0
M  V30 2136 O 206.746 -2.71374 -0.0827558 0
M  V30 2137 C 205.202 -2.58748 2.50155 0
M  V30 2138 C 204.81 -2.12925 3.94166 0
M  V30 2139 C 206.554 -3.36257 2.59098 0
M  V30 2140 C 204.461 -3.25723 4.93618 0
M  V30 2141 H 203.391 -0.537345 0.528939 0
M  V30 2142 H 206.042 -0.73024 1.68344 0
M  V30 2143 H 204.424 -3.31128 2.17188 0
M  V30 2144 H 205.598 -1.47697 4.36488 0
M  V30 2145 H 203.913 -1.48354 3.89076 0
M  V30 2146 H 206.51 -4.20264 3.30578 0
M  V30 2147 H 206.853 -3.82866 1.63461 0
M  V30 2148 H 207.386 -2.70947 2.9126 0
M  V30 2149 H 204.125 -2.84105 5.90732 0
M  V30 2150 H 203.645 -3.89732 4.55926 0
M  V30 2151 H 205.324 -3.91186 5.15347 0
M  V30 2152 N 205.456 -1.28612 -0.910864 0
M  V30 2153 C 206.366 -1.14643 -2.0468 0
M  V30 2154 C 207.382 -0.0723121 -1.7385 0
M  V30 2155 O 208.558 -0.282178 -1.99413 0
M  V30 2156 C 205.623 -0.812561 -3.37044 0
M  V30 2157 C 204.684 -1.96935 -3.81465 0
M  V30 2158 C 203.917 -1.65131 -5.07511 0
M  V30 2159 O 204.14 -0.567013 -5.67575 0
M  V30 2160 O 203.074 -2.49585 -5.47714 0
M  V30 2161 H 206.9 -2.1001 -2.19384 0
M  V30 2162 H 204.485 -1.07958 -1.03274 0
M  V30 2163 H 206.367 -0.640441 -4.16505 0
M  V30 2164 H 205.042 0.111426 -3.23508 0
M  V30 2165 H 203.949 -2.19664 -3.02818 0
M  V30 2166 H 205.282 -2.87414 -3.99567 0
M  V30 2167 N 206.934 1.1197 -1.10907 0
M  V30 2168 C 207.881 2.17846 -0.762345 0
M  V30 2169 C 208.851 1.63995 0.263599 0
M  V30 2170 O 210.036 1.90273 0.141773 0
M  V30 2171 C 207.176 3.44487 -0.205651 0
M  V30 2172 C 206.289 4.12369 -1.28748 0
M  V30 2173 C 205.424 5.26674 -0.691919 0
M  V30 2174 C 204.463 5.86431 -1.75399 0
M  V30 2175 N 203.6 6.92142 -1.17833 0
M  V30 2176 H 208.44 2.46851 -1.6694 0
M  V30 2177 H 205.977 1.21188 -0.833776 0
M  V30 2178 H 207.935 4.16981 0.135037 0
M  V30 2179 H 206.565 3.15884 0.664613 0
M  V30 2180 H 205.617 3.38003 -1.74522 0
M  V30 2181 H 206.929 4.52844 -2.09125 0
M  V30 2182 H 206.083 6.05953 -0.300963 0
M  V30 2183 H 204.822 4.8749 0.143232 0
M  V30 2184 H 203.827 5.05835 -2.15432 0
M  V30 2185 H 205.052 6.27685 -2.59208 0
M  V30 2186 H 202.998 6.54985 -0.364725 0
M  V30 2187 H 202.915 7.31242 -1.91887 0
M  V30 2188 H 204.183 7.75237 -0.81408 0
M  V30 2189 N 208.412 0.89855 1.29475 0
M  V30 2190 C 209.359 0.373819 2.27753 0
M  V30 2191 C 210.329 -0.543444 1.56958 0
M  V30 2192 O 211.514 -0.468934 1.84948 0
M  V30 2193 C 208.654 -0.393648 3.42848 0
M  V30 2194 C 207.767 0.554379 4.28428 0
M  V30 2195 C 206.902 -0.230026 5.30702 0
M  V30 2196 C 205.941 0.712599 6.07938 0
M  V30 2197 N 205.078 -0.0373283 7.0209 0
M  V30 2198 H 209.918 1.21699 2.72017 0
M  V30 2199 H 207.455 0.611456 1.33789 0
M  V30 2200 H 209.413 -0.85466 4.08352 0
M  V30 2201 H 208.043 -1.20128 2.99615 0
M  V30 2202 H 207.095 1.13391 3.63107 0
M  V30 2203 H 208.407 1.27597 4.82204 0
M  V30 2204 H 207.561 -0.752288 6.02018 0
M  V30 2205 H 206.3 -0.984758 4.77654 0
M  V30 2206 H 205.305 1.24637 5.35486 0
M  V30 2207 H 206.53 1.46664 6.63074 0
M  V30 2208 H 204.476 -0.774348 6.51414 0
M  V30 2209 H 204.393 0.624374 7.53417 0
M  V30 2210 H 205.661 -0.539891 7.77628 0
M  V30 2211 N 209.89 -1.43072 0.660911 0
M  V30 2212 C 211.138 -2.01323 0.177094 0
M  V30 2213 C 211.459 -1.5245 -1.2159 0
M  V30 2214 O 210.729 -0.740322 -1.81373 0
M  V30 2215 H 209.309 -0.744382 0.0624804 0
M  V30 2216 H 211.971 -1.75179 0.854305 0
M  V30 2217 H 211.067 -3.11649 0.167641 0
M  V30 2218 N 211.368 -0.403325 -1.52352 0
M  V30 2219 C 212.298 0.416205 -2.29761 0
M  V30 2220 C 213.279 1.05123 -1.33728 0
M  V30 2221 O 214.464 1.06134 -1.62632 0
M  V30 2222 C 211.594 1.53624 -3.11475 0
M  V30 2223 C 210.548 1.02653 -4.15507 0
M  V30 2224 C 209.874 2.23971 -4.85532 0
M  V30 2225 C 211.174 0.08463 -5.22231 0
M  V30 2226 H 212.868 -0.229701 -2.98518 0
M  V30 2227 H 210.414 -0.111913 -1.43564 0
M  V30 2228 H 212.367 2.1165 -3.64393 0
M  V30 2229 H 211.091 2.20994 -2.40477 0
M  V30 2230 H 209.75 0.46871 -3.63591 0
M  V30 2231 H 209.398 2.89883 -4.11068 0
M  V30 2232 H 209.098 1.90521 -5.55856 0
M  V30 2233 H 210.622 2.82614 -5.41259 0
M  V30 2234 H 212.036 0.573509 -5.70424 0
M  V30 2235 H 210.433 -0.160783 -5.99885 0
M  V30 2236 H 211.503 -0.86237 -4.7717 0
M  V30 2237 N 212.846 1.57033 -0.133567 0
M  V30 2238 C 213.756 2.19632 0.824564 0
M  V30 2239 C 214.772 1.17666 1.28182 0
M  V30 2240 O 215.948 1.50193 1.3418 0
M  V30 2241 C 213.013 2.79499 2.05137 0
M  V30 2242 C 212.074 3.96548 1.64464 0
M  V30 2243 C 211.307 4.5355 2.81297 0
M  V30 2244 O 211.53 4.09438 3.97136 0
M  V30 2245 O 210.464 5.44018 2.57542 0
M  V30 2246 H 214.29 3.01991 0.321766 0
M  V30 2247 H 211.875 1.49112 0.0927889 0
M  V30 2248 H 213.757 3.17602 2.7696 0
M  V30 2249 H 212.432 2.00162 2.54395 0
M  V30 2250 H 211.339 3.63186 0.897048 0
M  V30 2251 H 212.672 4.77364 1.19934 0
M  V30 2252 N 214.325 -0.140222 1.56975 0
M  V30 2253 C 215.565 -0.857823 1.85528 0
M  V30 2254 C 215.929 -1.78039 0.718768 0
M  V30 2255 O 217.13 -2.53795 0.885521 0
M  V30 2256 C 215.401 -1.60615 3.19277 0
M  V30 2257 S 216.96 -2.36824 3.69405 0
M  V30 2258 H 213.778 -0.286727 0.650622 0
M  V30 2259 H 216.38 -0.117408 1.95147 0
M  V30 2260 H 215.084 -0.919994 3.99955 0
M  V30 2261 H 214.615 -2.38735 3.12681 0
M  V30 2262 H 216.63 -3.62148 3.3921 0
M  V30 2263 N 215.803 -1.52179 -0.40978 0
M  V30 2264 C 217.028 -1.70347 -1.18308 0
M  V30 2265 C 217.453 -0.411887 -1.83535 0
M  V30 2266 O 216.811 0.630587 -1.6998 0
M  V30 2267 C 216.859 -2.83977 -2.22238 0
M  V30 2268 O 215.963 -2.495 -3.28365 0
M  V30 2269 H 215.304 -0.567103 -0.345384 0
M  V30 2270 H 217.834 -1.98879 -0.480445 0
M  V30 2271 H 217.844 -3.0887 -2.66577 0
M  V30 2272 H 216.519 -3.77685 -1.74146 0
M  V30 2273 H 215.096 -2.35277 -2.89308 0
M  V30 2274 N 217.281 0.66697 -1.42791 0
M  V30 2275 C 218.509 1.45505 -1.47091 0
M  V30 2276 C 218.924 1.8861 -0.0845873 0
M  V30 2277 O 218.281 1.58632 0.90234 0
M  V30 2278 C 218.332 2.69906 -2.40485 0
M  V30 2279 O 218.053 2.28608 -3.73725 0
M  V30 2280 C 219.554 3.63396 -2.53886 0
M  V30 2281 H 216.774 0.447459 -0.500022 0
M  V30 2282 H 219.318 0.818866 -1.8739 0
M  V30 2283 H 217.473 3.29696 -2.03419 0
M  V30 2284 H 217.887 3.08997 -4.23817 0
M  V30 2285 H 219.361 4.47387 -3.2334 0
M  V30 2286 H 219.838 4.09824 -1.57927 0
M  V30 2287 H 220.444 3.09495 -2.91706 0
M  V30 2288 N 218.759 1.29093 0.90403 0
M  V30 2289 C 219.689 1.16401 2.02418 0
M  V30 2290 C 220.67 0.0593085 1.69997 0
M  V30 2291 O 221.855 0.238021 1.92736 0
M  V30 2292 C 218.985 0.835233 3.37107 0
M  V30 2293 C 217.939 1.89578 3.83724 0
M  V30 2294 C 217.265 1.42041 5.15489 0
M  V30 2295 C 218.565 3.30394 4.04521 0
M  V30 2296 H 220.259 2.10109 2.13295 0
M  V30 2297 H 217.805 1.01157 1.02486 0
M  V30 2298 H 219.758 0.733169 4.14973 0
M  V30 2299 H 218.482 -0.137543 3.2631 0
M  V30 2300 H 217.141 1.98715 3.08071 0
M  V30 2301 H 216.789 0.436426 5.01103 0
M  V30 2302 H 216.489 2.12964 5.4765 0
M  V30 2303 H 218.013 1.33176 5.959 0
M  V30 2304 H 219.427 3.24123 4.72882 0
M  V30 2305 H 217.824 3.99237 4.48029 0
M  V30 2306 H 218.894 3.73692 3.09002 0
M  V30 2307 N 220.237 -1.11381 1.11499 0
M  V30 2308 C 221.467 -1.86663 0.885464 0
M  V30 2309 C 221.875 -1.80464 -0.568281 0
M  V30 2310 O 221.218 -1.18445 -1.40415 0
M  V30 2311 C 221.28 -3.36337 1.26956 0
M  V30 2312 C 220.944 -3.66304 2.73259 0
M  V30 2313 C 221.941 -3.63733 3.71476 0
M  V30 2314 C 219.626 -3.9529 3.09921 0
M  V30 2315 C 221.62 -3.89725 5.04374 0
M  V30 2316 C 219.307 -4.20941 4.43004 0
M  V30 2317 C 220.305 -4.18147 5.40039 0
M  V30 2318 O 219.993 -4.43153 6.70724 0
M  V30 2319 H 219.725 -0.597114 0.316908 0
M  V30 2320 H 222.279 -1.41782 1.48617 0
M  V30 2321 H 220.509 -3.81826 0.611999 0
M  V30 2322 H 222.198 -3.92986 1.01573 0
M  V30 2323 H 222.964 -3.41389 3.44498 0
M  V30 2324 H 218.843 -3.966 2.35009 0
M  V30 2325 H 222.387 -3.8746 5.80104 0
M  V30 2326 H 218.284 -4.42761 4.69716 0
M  V30 2327 H 219.052 -4.60717 6.76522 0
M  V30 2328 N 221.715 -0.905404 -1.28997 0
M  V30 2329 C 223.131 -0.60233 -1.47798 0
M  V30 2330 C 223.331 0.854645 -1.82478 0
M  V30 2331 O 222.387 1.63439 -1.92468 0
M  V30 2332 C 223.7 -1.53306 -2.58685 0
M  V30 2333 C 225.248 -1.53887 -2.72558 0
M  V30 2334 C 225.723 -2.45602 -3.86579 0
M  V30 2335 N 227.214 -2.43681 -3.93921 0
M  V30 2336 C 227.949 -3.11347 -4.81509 0
M  V30 2337 N 227.445 -3.88313 -5.73746 0
M  V30 2338 N 229.238 -3.00476 -4.75048 0
M  V30 2339 H 221.389 -1.84765 -1.04764 0
M  V30 2340 H 223.652 -0.792025 -0.520961 0
M  V30 2341 H 223.358 -2.57141 -2.39941 0
M  V30 2342 H 223.232 -1.25787 -3.55609 0
M  V30 2343 H 225.619 -0.507941 -2.90696 0
M  V30 2344 H 225.7 -1.85447 -1.76191 0
M  V30 2345 H 225.344 -3.48792 -3.69197 0
M  V30 2346 H 225.274 -2.11349 -4.82327 0
M  V30 2347 H 227.765 -1.87767 -3.27951 0
M  V30 2348 H 228.078 -4.36985 -6.37389 0
M  V30 2349 H 226.423 -3.92419 -5.73614 0
M  V30 2350 H 229.614 -2.39858 -4.01977 0
M  V30 2351 H 229.787 -3.53485 -5.43095 0
M  V30 2352 N 223.193 1.4272 -0.668489 0
M  V30 2353 C 224.421 2.05966 -0.196348 0
M  V30 2354 C 224.836 1.50191 1.14403 0
M  V30 2355 O 224.193 0.639208 1.7094 0
M  V30 2356 C 224.244 3.61314 -0.115815 0
M  V30 2357 O 223.965 4.1502 -1.40322 0
M  V30 2358 C 225.466 4.41663 0.380579 0
M  V30 2359 H 222.686 0.663954 -0.0969829 0
M  V30 2360 H 225.23 1.82966 -0.913446 0
M  V30 2361 H 223.385 3.83448 0.551931 0
M  V30 2362 H 223.799 5.08832 -1.27243 0
M  V30 2363 H 225.273 5.5065 0.385848 0
M  V30 2364 H 225.75 4.15792 1.41471 0
M  V30 2365 H 226.356 4.24534 -0.255209 0
M  V30 2366 N 224.671 0.411399 1.52136 0
M  V30 2367 C 225.603 -0.448386 2.24771 0
M  V30 2368 C 226.616 -1.00828 1.27818 0
M  V30 2369 O 227.805 -0.906841 1.53749 0
M  V30 2370 C 224.905 -1.63636 2.96777 0
M  V30 2371 C 224.078 -1.19995 4.20618 0
M  V30 2372 C 223.137 -2.25509 4.75428 0
M  V30 2373 O 222.163 -1.86007 5.3795 0
M  V30 2374 N 223.365 -3.577 4.57199 0
M  V30 2375 H 226.13 0.174025 2.99194 0
M  V30 2376 H 223.691 0.238897 1.60128 0
M  V30 2377 H 225.683 -2.33793 3.30338 0
M  V30 2378 H 224.253 -2.16465 2.25526 0
M  V30 2379 H 223.473 -0.326421 3.92846 0
M  V30 2380 H 224.761 -0.885365 5.01038 0
M  V30 2381 H 224.159 -3.92543 4.07341 0
M  V30 2382 H 222.716 -4.23827 4.95191 0
M  V30 2383 N 226.149 -1.5696 0.141893 0
M  V30 2384 C 227.374 -2.00754 -0.520838 0
M  V30 2385 C 227.799 -1.0213 -1.57959 0
M  V30 2386 O 227.157 0.00371324 -1.813 0
M  V30 2387 C 227.205 -3.43318 -1.10294 0
M  V30 2388 O 226.309 -3.47679 -2.21795 0
M  V30 2389 H 225.65 -0.651564 -0.127908 0
M  V30 2390 H 228.18 -2.03221 0.23712 0
M  V30 2391 H 228.19 -3.82012 -1.43287 0
M  V30 2392 H 226.865 -4.14608 -0.327574 0
M  V30 2393 H 225.442 -3.20824 -1.9007 0
M  V30 2394 N 227.627 0.131896 -1.57047 0
M  V30 2395 C 228.852 0.860418 -1.8871 0
M  V30 2396 C 229.277 1.73251 -0.73251 0
M  V30 2397 O 228.635 1.785 0.317429 0
M  V30 2398 C 228.683 1.68047 -3.19049 0
M  V30 2399 O 227.787 2.7862 -3.04047 0
M  V30 2400 H 227.128 0.238743 -0.619595 0
M  V30 2401 H 229.658 0.118169 -2.04258 0
M  V30 2402 H 229.668 2.07238 -3.51449 0
M  V30 2403 H 228.343 1.04018 -4.02682 0
M  V30 2404 H 226.92 2.42726 -2.83088 0
M  V30 2405 N 229.106 1.52395 0.401703 0
M  V30 2406 C 230.331 1.70972 1.17403 0
M  V30 2407 C 230.756 0.421615 1.83314 0
M  V30 2408 O 230.114 -0.621564 1.70312 0
M  V30 2409 C 230.162 2.85151 2.20728 0
M  V30 2410 O 229.266 2.51238 3.27037 0
M  V30 2411 H 228.607 0.568927 0.342372 0
M  V30 2412 H 231.137 1.99131 0.469891 0
M  V30 2413 H 231.147 3.10279 2.64936 0
M  V30 2414 H 229.822 3.78603 1.7214 0
M  V30 2415 H 228.399 2.36808 2.88057 0
M  V30 2416 N 230.584 -0.659388 1.43143 0
M  V30 2417 C 231.532 -1.79374 1.4808 0
M  V30 2418 C 232.526 -1.65639 0.354988 0
M  V30 2419 O 233.732 -1.7206 0.528704 0
M  V30 2420 H 230.107 -0.591705 0.4641 0
M  V30 2421 H 232.078 -1.72329 2.43609 0
M  V30 2422 C 230.827 -3.17606 1.41499 0
M  V30 2423 H 230.15 -3.28809 2.27431 0
M  V30 2424 H 231.59 -3.96951 1.49015 0
M  V30 2425 C 230.049 -3.36642 0.131765 0
M  V30 2426 O 230.579 -3.93461 -0.809386 0
M  V30 2427 N 228.785 -2.90567 0.0439396 0
M  V30 2428 H 228.332 -2.44513 0.810619 0
M  V30 2429 H 228.29 -3.03681 -0.813969 0
M  V30 2430 N 232.062 -1.29571 -0.897171 0
M  V30 2431 C 232.992 -1.17473 -2.01798 0
M  V30 2432 C 233.973 -0.068323 -1.69963 0
M  V30 2433 O 235.158 -0.248239 -1.92607 0
M  V30 2434 C 232.288 -0.853099 -3.36659 0
M  V30 2435 C 231.242 -1.9161 -3.82713 0
M  V30 2436 C 230.568 -1.44773 -5.14728 0
M  V30 2437 C 231.868 -3.32535 -4.02763 0
M  V30 2438 H 233.562 -2.11237 -2.12177 0
M  V30 2439 H 231.108 -1.01699 -1.01948 0
M  V30 2440 H 233.061 -0.755165 -4.14578 0
M  V30 2441 H 231.785 0.120236 -3.26379 0
M  V30 2442 H 230.444 -2.00346 -3.07013 0
M  V30 2443 H 230.092 -0.462995 -5.00865 0
M  V30 2444 H 229.792 -2.15865 -5.46513 0
M  V30 2445 H 231.316 -1.36334 -5.95185 0
M  V30 2446 H 232.73 -3.26626 -4.71156 0
M  V30 2447 H 231.127 -4.01607 -4.45905 0
M  V30 2448 H 232.197 -3.75326 -3.07016 0
M  V30 2449 N 233.54 1.10788 -1.12088 0
M  V30 2450 C 234.503 2.15207 -0.788577 0
M  V30 2451 C 235.503 1.59609 0.195317 0
M  V30 2452 O 236.693 1.74174 -0.0300193 0
M  V30 2453 C 233.825 3.4047 -0.171174 0
M  V30 2454 H 235.018 2.46116 -1.71368 0
M  V30 2455 H 232.571 1.26089 -0.923652 0
M  V30 2456 H 233.306 3.15176 0.763832 0
M  V30 2457 H 233.091 3.82109 -0.879514 0
M  V30 2458 H 234.581 4.17576 0.04496 0
M  V30 2459 N 235.018 0.912232 1.28515 0
M  V30 2460 C 235.928 0.404506 2.31086 0
M  V30 2461 C 236.944 -0.50707 1.66448 0
M  V30 2462 O 238.12 -0.393624 1.97516 0
M  V30 2463 C 235.185 -0.348572 3.44943 0
M  V30 2464 C 234.246 0.59604 4.25142 0
M  V30 2465 C 233.479 -0.121194 5.33562 0
M  V30 2466 O 233.702 -1.34317 5.5436 0
M  V30 2467 O 232.636 0.542716 5.99448 0
M  V30 2468 H 236.462 1.25579 2.76521 0
M  V30 2469 H 234.047 0.676998 1.33181 0
M  V30 2470 H 235.929 -0.77395 4.14232 0
M  V30 2471 H 234.604 -1.17571 3.01594 0
M  V30 2472 H 233.511 1.07079 3.58448 0
M  V30 2473 H 234.844 1.38995 4.72167 0
M  V30 2474 N 236.496 -1.42363 0.676048 0
M  V30 2475 C 237.426 -2.33497 0.0124832 0
M  V30 2476 C 238.407 -1.50748 -0.787981 0
M  V30 2477 O 239.592 -1.79346 -0.744884 0
M  V30 2478 C 236.722 -3.34377 -0.938582 0
M  V30 2479 C 235.676 -4.27289 -0.246622 0
M  V30 2480 C 235.002 -5.18386 -1.31071 0
M  V30 2481 C 236.302 -5.14916 0.875125 0
M  V30 2482 H 237.996 -2.89233 0.773593 0
M  V30 2483 H 235.542 -1.39073 0.37346 0
M  V30 2484 H 237.495 -3.97044 -1.41188 0
M  V30 2485 H 236.219 -2.76947 -1.73113 0
M  V30 2486 H 234.878 -3.66018 0.206456 0
M  V30 2487 H 234.526 -4.57282 -2.09528 0
M  V30 2488 H 234.226 -5.81378 -0.852839 0
M  V30 2489 H 235.75 -5.83929 -1.78492 0
M  V30 2490 H 237.164 -5.71262 0.482983 0
M  V30 2491 H 235.561 -5.86747 1.25887 0
M  V30 2492 H 236.631 -4.53242 1.72335 0
M  V30 2493 N 237.974 -0.419461 -1.51915 0
M  V30 2494 C 239.39 -0.0708431 -1.59443 0
M  V30 2495 C 239.59 1.41796 -1.43164 0
M  V30 2496 O 238.646 2.18596 -1.26381 0
M  V30 2497 C 239.959 -0.574991 -2.95151 0
M  V30 2498 C 241.507 -0.533867 -3.08413 0
M  V30 2499 C 241.982 -1.01469 -4.46618 0
M  V30 2500 N 243.473 -0.971939 -4.52888 0
M  V30 2501 C 244.208 -1.31505 -5.58116 0
M  V30 2502 N 243.704 -1.73014 -6.70849 0
M  V30 2503 N 245.497 -1.23436 -5.48379 0
M  V30 2504 H 237.648 -1.38836 -1.60743 0
M  V30 2505 H 239.911 -0.570998 -0.756747 0
M  V30 2506 H 239.617 -1.61597 -3.12377 0
M  V30 2507 H 239.491 0.00979777 -3.77199 0
M  V30 2508 H 241.878 0.498086 -2.90866 0
M  V30 2509 H 241.959 -1.15484 -2.28248 0
M  V30 2510 H 241.603 -2.04502 -4.6491 0
M  V30 2511 H 241.533 -0.370433 -5.25295 0
M  V30 2512 H 244.024 -0.666893 -3.71969 0
M  V30 2513 H 244.337 -1.97479 -7.47143 0
M  V30 2514 H 242.682 -1.76926 -6.72103 0
M  V30 2515 H 245.873 -0.908869 -4.59192 0
M  V30 2516 H 246.046 -1.50506 -6.30279 0
M  V30 2517 N 239.452 1.56882 -0.150215 0
M  V30 2518 C 240.384 2.14057 0.819286 0
M  V30 2519 C 241.397 1.09082 1.20851 0
M  V30 2520 O 242.586 1.36347 1.15203 0
M  V30 2521 C 239.686 2.65102 2.11127 0
M  V30 2522 C 238.859 3.94511 1.88891 0
M  V30 2523 C 237.918 4.30834 3.02107 0
M  V30 2524 O 236.944 4.99099 2.73659 0
M  V30 2525 N 238.146 3.90676 4.29363 0
M  V30 2526 H 240.911 2.97871 0.330618 0
M  V30 2527 H 238.472 1.61866 0.0332538 0
M  V30 2528 H 240.464 2.86411 2.85921 0
M  V30 2529 H 239.034 1.85994 2.51247 0
M  V30 2530 H 238.254 3.81795 0.981152 0
M  V30 2531 H 239.542 4.7907 1.71376 0
M  V30 2532 H 238.94 3.35677 4.55343 0
M  V30 2533 H 237.497 4.1703 5.00928 0
M  V30 2534 N 240.93 -0.123565 1.57115 0
M  V30 2535 C 241.86 -1.15309 2.03042 0
M  V30 2536 C 242.841 -1.43454 0.914061 0
M  V30 2537 O 244.026 -1.53973 1.18347 0
M  V30 2538 C 241.156 -2.48043 2.43089 0
M  V30 2539 C 240.11 -2.3437 3.58127 0
M  V30 2540 C 239.436 -3.72026 3.84059 0
M  V30 2541 C 240.736 -1.80804 4.90007 0
M  V30 2542 H 242.43 -0.771102 2.893 0
M  V30 2543 H 239.976 -0.369479 1.39179 0
M  V30 2544 H 241.929 -3.20311 2.73823 0
M  V30 2545 H 240.653 -2.88122 1.53796 0
M  V30 2546 H 239.312 -1.64551 3.27595 0
M  V30 2547 H 238.96 -4.09582 2.91979 0
M  V30 2548 H 238.66 -3.63732 4.6149 0
M  V30 2549 H 240.184 -4.45806 4.1724 0
M  V30 2550 H 241.598 -2.42886 5.19307 0
M  V30 2551 H 239.995 -1.83343 5.71407 0
M  V30 2552 H 241.065 -0.76528 4.78823 0
M  V30 2553 N 242.408 -1.52605 -0.393616 0
M  V30 2554 C 243.338 -1.80022 -1.48709 0
M  V30 2555 C 244.319 -0.651995 -1.57108 0
M  V30 2556 O 245.504 -0.89913 -1.72132 0
M  V30 2557 C 242.634 -1.96492 -2.86371 0
M  V30 2558 C 241.588 -3.12161 -2.92813 0
M  V30 2559 C 240.914 -3.13877 -4.3288 0
M  V30 2560 C 242.214 -4.51322 -2.6288 0
M  V30 2561 H 243.908 -2.71589 -1.26015 0
M  V30 2562 H 241.454 -1.30684 -0.604778 0
M  V30 2563 H 243.407 -2.14255 -3.62867 0
M  V30 2564 H 242.131 -1.01611 -3.10391 0
M  V30 2565 H 240.79 -2.94173 -2.18764 0
M  V30 2566 H 240.438 -2.16687 -4.53933 0
M  V30 2567 H 240.138 -3.91576 -4.38112 0
M  V30 2568 H 241.662 -3.33789 -5.1129 0
M  V30 2569 H 243.076 -4.69435 -3.29096 0
M  V30 2570 H 241.473 -5.31053 -2.79468 0
M  V30 2571 H 242.543 -4.58353 -1.58242 0
M  V30 2572 N 243.887 0.651787 -1.4349 0
M  V30 2573 C 245.164 1.40909 -1.35661 0
M  V30 2574 C 245.544 2.11099 -0.00511733 0
M  V30 2575 O 244.892 2.04892 1.0115 0
M  V30 2576 C 245.102 2.3926 -2.54078 0
M  V30 2577 C 246.45 3.03217 -2.97228 0
M  V30 2578 O 247.474 2.49588 -2.54135 0
M  V30 2579 O 246.333 4.00455 -3.71885 0
M  V30 2580 H 243.427 0.629625 -0.536191 0
M  V30 2581 H 245.973 0.678575 -1.55542 0
M  V30 2582 H 244.745 1.86352 -3.44076 0
M  V30 2583 H 244.368 3.1976 -2.36303 0
M  V30 2584 N 245.365 1.30045 0.890287 0
M  V30 2585 C 246.605 1.19839 1.65584 0
M  V30 2586 C 246.969 -0.244175 1.90441 0
M  V30 2587 O 248.17 -0.469378 2.6467 0
M  V30 2588 C 246.441 1.99876 2.96284 0
M  V30 2589 S 248 2.06309 3.87275 0
M  V30 2590 H 244.818 0.427157 0.568382 0
M  V30 2591 H 247.42 1.64453 1.05715 0
M  V30 2592 H 246.124 3.03809 2.75913 0
M  V30 2593 H 245.655 1.55903 3.61189 0
M  V30 2594 H 247.67 1.18661 4.81803 0
M  V30 2595 N 246.843 -1.10192 1.12674 0
M  V30 2596 C 248.12 -1.78717 0.794965 0
M  V30 2597 C 248.5 -1.98628 -0.714853 0
M  V30 2598 O 247.848 -1.58135 -1.64941 0
M  V30 2599 C 248.058 -3.11546 1.5729 0
M  V30 2600 C 249.406 -3.86382 1.76052 0
M  V30 2601 O 250.43 -3.21274 1.53823 0
M  V30 2602 O 249.289 -5.03246 2.13087 0
M  V30 2603 H 246.383 -0.774702 0.289423 0
M  V30 2604 H 248.929 -1.16819 1.23091 0
M  V30 2605 H 247.701 -2.92489 2.59935 0
M  V30 2606 H 247.324 -3.81164 1.13137 0
M  V30 2607 N 248.321 -0.919034 -1.28029 0
M  V30 2608 C 249.549 -0.570971 -1.98866 0
M  V30 2609 C 249.964 0.848996 -1.68634 0
M  V30 2610 O 249.321 1.56307 -0.942036 0
M  V30 2611 C 249.372 -0.776876 -3.53054 0
M  V30 2612 O 249.093 -2.14097 -3.82222 0
M  V30 2613 C 250.594 -0.436356 -4.41147 0
M  V30 2614 H 247.814 -0.217175 -0.634883 0
M  V30 2615 H 250.358 -1.23368 -1.63097 0
M  V30 2616 H 248.513 -0.161085 -3.87065 0
M  V30 2617 H 248.927 -2.18455 -4.76841 0
M  V30 2618 H 250.401 -0.63117 -5.4838 0
M  V30 2619 H 250.878 0.627686 -4.34692 0
M  V30 2620 H 251.484 -1.02991 -4.12641 0
M  V30 2621 N 249.799 1.42003 -0.683588 0
M  V30 2622 C 251.21 1.84501 -0.285736 0
M  V30 2623 C 251.561 1.57213 1.17382 0
M  V30 2624 O 250.686 1.03642 1.89966 0
M  V30 2625 C 251.281 3.34912 -0.511821 0
M  V30 2626 C 249.84 3.76025 -0.168005 0
M  V30 2627 C 248.987 2.6551 -0.799983 0
M  V30 2628 H 251.938 1.31724 -0.885119 0
M  V30 2629 H 251.959 3.79784 0.233292 0
M  V30 2630 H 251.471 3.54741 -1.57418 0
M  V30 2631 H 249.572 3.61801 0.890567 0
M  V30 2632 H 249.685 4.75141 -0.614661 0
M  V30 2633 H 248.049 2.53654 -0.230568 0
M  V30 2634 H 248.832 2.8816 -1.86597 0
M  V30 2635 N 251.277 0.427512 1.51691 0
M  V30 2636 C 252.502 -0.143601 2.06902 0
M  V30 2637 C 252.927 -1.36536 1.29382 0
M  V30 2638 O 252.285 -1.78289 0.329043 0
M  V30 2639 C 252.333 -0.454207 3.57728 0
M  V30 2640 O 251.437 -1.54228 3.82475 0
M  V30 2641 H 250.778 -0.00617128 0.663971 0
M  V30 2642 H 253.308 0.606014 1.95419 0
M  V30 2643 H 253.318 -0.707525 4.01818 0
M  V30 2644 H 251.993 0.438812 4.13579 0
M  V30 2645 H 250.57 -1.2797 3.50254 0
M  V30 2646 N 252.755 -1.56801 0.158532 0
M  V30 2647 C 254.001 -1.96781 -0.490405 0
M  V30 2648 C 254.334 -1.04397 -1.63753 0
M  V30 2649 O 253.609 -0.0885805 -1.94298 0
M  V30 2650 C 253.892 -3.4635 -0.985594 0
M  V30 2651 C 253.745 -4.49512 0.160824 0
M  V30 2652 C 255.064 -3.98697 -1.86355 0
M  V30 2653 H 252.183 -0.715482 -0.176788 0
M  V30 2654 H 254.825 -1.88451 0.242088 0
M  V30 2655 H 252.975 -3.53579 -1.60978 0
M  V30 2656 H 254.647 -4.54353 0.797537 0
M  V30 2657 H 252.89 -4.26013 0.818256 0
M  V30 2658 H 253.561 -5.51531 -0.227569 0
M  V30 2659 H 256.037 -3.94019 -1.33746 0
M  V30 2660 H 254.913 -5.03792 -2.17909 0
M  V30 2661 H 255.174 -3.41744 -2.8047 0
M  V30 2662 N 254.233 0.115231 -1.57178 0
M  V30 2663 C 255.51 0.852873 -1.76027 0
M  V30 2664 C 255.89 1.97892 -0.73498 0
M  V30 2665 O 255.238 2.27232 0.24036 0
M  V30 2666 C 255.448 1.36608 -3.21153 0
M  V30 2667 C 256.796 1.81692 -3.83762 0
M  V30 2668 O 257.82 1.46278 -3.24779 0
M  V30 2669 O 256.679 2.47104 -4.87444 0
M  V30 2670 H 253.773 0.405296 -0.720877 0
M  V30 2671 H 256.319 0.0986785 -1.69413 0
M  V30 2672 H 255.091 0.558357 -3.87296 0
M  V30 2673 H 254.714 2.18287 -3.3232 0
M  V30 2674 N 255.711 1.52812 0.385517 0
M  V30 2675 C 256.641 1.80808 1.47752 0
M  V30 2676 C 257.622 0.660318 1.5676 0
M  V30 2677 O 258.807 0.908246 1.71652 0
M  V30 2678 C 255.937 1.98008 2.85324 0
M  V30 2679 C 254.891 3.13709 2.91154 0
M  V30 2680 C 254.217 3.16169 4.31209 0
M  V30 2681 C 255.517 4.52709 2.60483 0
M  V30 2682 H 257.211 2.72253 1.24573 0
M  V30 2683 H 254.757 1.31003 0.597839 0
M  V30 2684 H 256.71 2.16176 3.61726 0
M  V30 2685 H 255.434 1.03255 3.09848 0
M  V30 2686 H 254.093 2.95329 2.17201 0
M  V30 2687 H 253.741 2.19092 4.52778 0
M  V30 2688 H 253.441 3.93894 4.36029 0
M  V30 2689 H 254.965 3.36496 5.09512 0
M  V30 2690 H 256.379 4.71173 3.26602 0
M  V30 2691 H 254.776 5.32528 2.76648 0
M  V30 2692 H 255.846 4.59186 1.55809 0
M  V30 2693 N 257.189 -0.644168 1.43834 0
M  V30 2694 C 258.099 -1.78563 1.52159 0
M  V30 2695 C 259.115 -1.69147 0.408069 0
M  V30 2696 O 260.291 -1.90156 0.663524 0
M  V30 2697 C 257.356 -3.14888 1.45073 0
M  V30 2698 C 256.417 -3.36034 2.6717 0
M  V30 2699 C 255.65 -4.65855 2.60413 0
M  V30 2700 O 255.873 -5.45805 1.65689 0
M  V30 2701 O 254.807 -4.88918 3.5106 0
M  V30 2702 H 258.633 -1.74494 2.48567 0
M  V30 2703 H 256.218 -0.80378 1.25935 0
M  V30 2704 H 258.1 -3.96179 1.43597 0
M  V30 2705 H 256.775 -3.19528 0.518037 0
M  V30 2706 H 255.682 -2.54472 2.74217 0
M  V30 2707 H 257.015 -3.36247 3.59442 0
M  V30 2708 N 258.668 -1.30515 -0.883378 0
M  V30 2709 C 259.601 -1.11359 -1.99184 0
M  V30 2710 C 260.579 -0.0207858 -1.62587 0
M  V30 2711 O 261.763 -0.174646 -1.87689 0
M  V30 2712 C 258.89 -0.69871 -3.31415 0
M  V30 2713 C 257.936 -1.79261 -3.86998 0
M  V30 2714 S 258.769 -3.39536 -4.14096 0
M  V30 2715 C 259.925 -2.99954 -5.49344 0
M  V30 2716 H 260.158 -2.052 -2.15128 0
M  V30 2717 H 257.691 -1.14847 -1.03196 0
M  V30 2718 H 259.649 -0.466075 -4.07846 0
M  V30 2719 H 258.31 0.220368 -3.13326 0
M  V30 2720 H 257.503 -1.45464 -4.82552 0
M  V30 2721 H 257.105 -1.97961 -3.17313 0
M  V30 2722 H 259.397 -2.48013 -6.30473 0
M  V30 2723 H 260.34 -3.9442 -5.8808 0
M  V30 2724 H 260.748 -2.37775 -5.1198 0
M  V30 2725 N 260.146 1.09593 -1.13257 0
M  V30 2726 C 261.395 1.81105 -0.887917 0
M  V30 2727 C 261.708 1.86563 0.587672 0
M  V30 2728 O 262.914 2.54367 0.949204 0
M  V30 2729 C 261.37 3.25338 -1.53895 0
M  V30 2730 C 260.978 3.28151 -3.04994 0
M  V30 2731 C 262.722 4.01617 -1.37492 0
M  V30 2732 C 260.629 4.66897 -3.6299 0
M  V30 2733 H 259.559 0.678661 -0.328534 0
M  V30 2734 H 262.21 1.23183 -1.36008 0
M  V30 2735 H 260.592 3.8331 -0.994446 0
M  V30 2736 H 261.766 2.79953 -3.66009 0
M  V30 2737 H 260.081 2.65361 -3.20893 0
M  V30 2738 H 262.678 5.04119 -1.78235 0
M  V30 2739 H 263.021 4.15072 -0.31957 0
M  V30 2740 H 263.554 3.50082 -1.88912 0
M  V30 2741 H 260.293 4.58643 -4.68323 0
M  V30 2742 H 259.813 5.15426 -3.06752 0
M  V30 2743 H 261.492 5.3587 -3.62563 0
M  V30 2744 N 261.624 0.925811 1.2754 0
M  V30 2745 C 262.901 0.483726 1.89524 0
M  V30 2746 C 263.281 -1.03809 1.83812 0
M  V30 2747 O 262.629 -1.89143 1.28207 0
M  V30 2748 C 262.839 1.02769 3.33526 0
M  V30 2749 C 264.187 1.08703 4.10449 0
M  V30 2750 O 265.211 0.977175 3.42534 0
M  V30 2751 O 264.07 1.25599 5.31871 0
M  V30 2752 H 261.164 0.15529 0.812289 0
M  V30 2753 H 263.71 1.01738 1.35822 0
M  V30 2754 H 262.482 2.07155 3.31967 0
M  V30 2755 H 262.105 0.475567 3.94746 0
M  V30 2756 N 263.102 -1.41638 0.69111 0
M  V30 2757 C 264.348 -2.01598 0.220519 0
M  V30 2758 C 264.681 -1.54594 -1.17535 0
M  V30 2759 O 263.956 -0.755177 -1.79241 0
M  V30 2760 C 264.239 -3.59062 0.273243 0
M  V30 2761 C 264.092 -4.16203 1.70573 0
M  V30 2762 C 265.411 -4.38546 -0.369457 0
M  V30 2763 H 262.53 -0.732468 0.0816045 0
M  V30 2764 H 265.172 -1.68445 0.878986 0
M  V30 2765 H 263.322 -3.87435 -0.287411 0
M  V30 2766 H 264.994 -3.98722 2.31989 0
M  V30 2767 H 263.237 -3.71414 2.2413 0
M  V30 2768 H 263.908 -5.25358 1.69419 0
M  V30 2769 H 266.384 -4.1596 0.107977 0
M  V30 2770 H 265.26 -5.48069 -0.302002 0
M  V30 2771 H 265.521 -4.17662 -1.44951 0
M  V30 2772 N 264.58 -0.43555 -1.51462 0
M  V30 2773 C 265.53 0.394701 -2.24558 0
M  V30 2774 C 266.514 0.99157 -1.26715 0
M  V30 2775 O 267.706 0.910007 -1.51815 0
M  V30 2776 C 264.835 1.4963 -3.08975 0
M  V30 2777 C 263.921 0.908912 -4.14246 0
M  V30 2778 N 264.312 0.0505335 -5.05775 0
M  V30 2779 C 262.61 1.17668 -4.30198 0
M  V30 2780 C 263.311 -0.279161 -5.8103 0
M  V30 2781 N 262.287 0.336767 -5.42556 0
M  V30 2782 H 266.089 -0.267106 -2.92684 0
M  V30 2783 H 263.603 -0.247518 -1.60503 0
M  V30 2784 H 265.6 2.10394 -3.59917 0
M  V30 2785 H 264.26 2.16046 -2.42393 0
M  V30 2786 H 265.271 -0.31577 -5.16936 0
M  V30 2787 H 261.948 1.83847 -3.74842 0
M  V30 2788 H 263.338 -0.977553 -6.64751 0
M  V30 2789 N 266.058 1.56714 -0.166846 0
M  V30 2790 C 267.304 1.97039 0.479962 0
M  V30 2791 C 267.637 1.05264 1.63197 0
M  V30 2792 O 266.912 0.0988833 1.94248 0
M  V30 2793 C 267.195 3.46867 0.967212 0
M  V30 2794 C 267.048 4.49421 -0.18466 0
M  V30 2795 C 268.367 3.9968 1.84238 0
M  V30 2796 H 265.486 0.71641 0.172992 0
M  V30 2797 H 268.128 1.8832 -0.252079 0
M  V30 2798 H 266.278 3.54428 1.59101 0
M  V30 2799 H 267.95 4.53924 -0.821621 0
M  V30 2800 H 266.193 4.25573 -0.840837 0
M  V30 2801 H 266.864 5.51644 0.198317 0
M  V30 2802 H 269.34 3.94723 1.31655 0
M  V30 2803 H 268.216 5.04941 2.15234 0
M  V30 2804 H 268.477 3.43226 2.78654 0
M  V30 2805 N 267.536 -0.106894 1.57237 0
M  V30 2806 C 268.466 -1.13148 2.04254 0
M  V30 2807 C 269.447 -1.42476 0.929224 0
M  V30 2808 O 270.632 -1.52709 1.19973 0
M  V30 2809 C 267.762 -2.4545 2.45706 0
M  V30 2810 C 266.716 -2.30558 3.60592 0
M  V30 2811 C 266.042 -3.67931 3.87983 0
M  V30 2812 C 267.342 -1.75597 4.91897 0
M  V30 2813 H 269.036 -0.740374 2.90101 0
M  V30 2814 H 266.582 -0.354696 1.39563 0
M  V30 2815 H 268.535 -3.17389 2.77205 0
M  V30 2816 H 267.259 -2.86475 1.56843 0
M  V30 2817 H 265.918 -1.61067 3.29322 0
M  V30 2818 H 265.566 -4.06462 2.96306 0
M  V30 2819 H 265.266 -3.58817 4.65322 0
M  V30 2820 H 266.79 -4.41356 4.21945 0
M  V30 2821 H 268.204 -2.37364 5.21854 0
M  V30 2822 H 266.601 -1.77272 5.73319 0
M  V30 2823 H 267.671 -0.714451 4.79608 0
M  V30 2824 N 269.014 -1.53014 -0.377408 0
M  V30 2825 C 269.977 -1.77957 -1.44444 0
M  V30 2826 C 270.977 -0.649763 -1.47087 0
M  V30 2827 O 272.167 -0.917897 -1.48055 0
M  V30 2828 C 269.299 -1.89089 -2.83651 0
M  V30 2829 H 270.492 -2.73243 -1.23606 0
M  V30 2830 H 268.045 -1.43912 -0.609844 0
M  V30 2831 H 268.78 -0.958293 -3.09818 0
M  V30 2832 H 268.565 -2.71254 -2.83132 0
M  V30 2833 H 270.055 -2.1002 -3.60945 0
M  V30 2834 N 270.492 0.636531 -1.44174 0
M  V30 2835 C 271.769 1.39463 -1.37148 0
M  V30 2836 C 272.149 2.11082 -0.027507 0
M  V30 2837 O 271.497 2.05954 0.989716 0
M  V30 2838 C 271.707 2.36552 -2.56601 0
M  V30 2839 C 273.055 3.00048 -3.00427 0
M  V30 2840 O 274.079 2.46878 -2.56767 0
M  V30 2841 O 272.938 3.96488 -3.76111 0
M  V30 2842 H 270.032 0.623903 -0.542839 0
M  V30 2843 H 272.578 0.662039 -1.56253 0
M  V30 2844 H 271.35 1.82692 -3.46034 0
M  V30 2845 H 270.973 3.17236 -2.39681 0
M  V30 2846 N 271.97 1.30982 0.876444 0
M  V30 2847 C 272.933 1.18054 1.96459 0
M  V30 2848 C 273.933 0.109399 1.60427 0
M  V30 2849 O 275.123 0.358173 1.70478 0
M  V30 2850 C 272.255 0.810616 3.31122 0
M  V30 2851 H 273.448 2.14735 2.09354 0
M  V30 2852 H 271.001 1.145 1.06392 0
M  V30 2853 H 271.736 -0.155322 3.23928 0
M  V30 2854 H 271.521 1.58481 3.58645 0
M  V30 2855 H 273.011 0.743876 4.10921 0
M  V30 2856 N 273.449 -1.08991 1.13837 0
M  V30 2857 C 274.696 -1.81258 0.902882 0
M  V30 2858 C 275.024 -1.85936 -0.570803 0
M  V30 2859 O 274.279 -1.3267 -1.43865 0
M  V30 2860 C 274.578 -3.27042 1.44147 0
M  V30 2861 C 274.244 -3.4249 2.93276 0
M  V30 2862 C 272.906 -3.46414 3.33992 0
M  V30 2863 C 275.258 -3.4666 3.892 0
M  V30 2864 C 272.586 -3.52091 4.69307 0
M  V30 2865 C 274.938 -3.53872 5.24364 0
M  V30 2866 C 273.602 -3.56066 5.646 0
M  V30 2867 H 272.872 -0.663268 0.330388 0
M  V30 2868 H 275.519 -1.28368 1.42105 0
M  V30 2869 H 273.824 -3.82599 0.844097 0
M  V30 2870 H 275.521 -3.81499 1.23528 0
M  V30 2871 H 272.111 -3.40124 2.60794 0
M  V30 2872 H 276.295 -3.42865 3.58828 0
M  V30 2873 H 271.551 -3.52079 4.9985 0
M  V30 2874 H 275.725 -3.56043 5.98503 0
M  V30 2875 H 273.352 -3.60218 6.69438 0
M  V30 2876 N 274.927 -0.932562 -1.27047 0
M  V30 2877 C 275.874 -0.434072 -2.26681 0
M  V30 2878 C 276.844 0.501639 -1.58344 0
M  V30 2879 O 278.029 0.419734 -1.86126 0
M  V30 2880 C 275.169 0.30261 -3.43771 0
M  V30 2881 C 274.282 -0.667774 -4.26808 0
M  V30 2882 C 273.417 0.0892393 -5.31125 0
M  V30 2883 C 272.456 -0.873532 -6.05835 0
M  V30 2884 N 271.593 -0.148832 -7.01942 0
M  V30 2885 H 276.433 -1.28868 -2.68695 0
M  V30 2886 H 273.97 -0.646713 -1.32121 0
M  V30 2887 H 275.928 0.746092 -4.10474 0
M  V30 2888 H 274.558 1.12142 -3.02695 0
M  V30 2889 H 273.61 -1.22978 -3.59973 0
M  V30 2890 H 274.922 -1.40337 -4.78651 0
M  V30 2891 H 274.076 0.592409 -6.03801 0
M  V30 2892 H 272.815 0.85777 -4.80097 0
M  V30 2893 H 271.82 -1.38791 -5.31994 0
M  V30 2894 H 273.045 -1.64193 -6.58952 0
M  V30 2895 H 270.991 0.601365 -6.53238 0
M  V30 2896 H 270.908 -0.82391 -7.51497 0
M  V30 2897 H 272.176 0.333527 -7.78786 0
M  V30 2898 N 276.405 1.4127 -0.698611 0
M  V30 2899 C 277.821 1.55241 -0.370462 0
M  V30 2900 C 278.021 1.67351 1.12231 0
M  V30 2901 O 277.077 1.65363 1.90818 0
M  V30 2902 C 278.39 2.78997 -1.12165 0
M  V30 2903 C 279.938 2.92797 -1.1063 0
M  V30 2904 C 280.413 4.19445 -1.8393 0
M  V30 2905 N 281.904 4.26409 -1.80914 0
M  V30 2906 C 282.639 5.23271 -2.34467 0
M  V30 2907 N 282.135 6.26145 -2.96504 0
M  V30 2908 N 283.928 5.15232 -2.24706 0
M  V30 2909 H 276.079 1.31654 -1.66676 0
M  V30 2910 H 278.342 0.635393 -0.703548 0
M  V30 2911 H 278.048 2.76268 -2.17644 0
M  V30 2912 H 277.922 3.70606 -0.702209 0
M  V30 2913 H 280.309 2.95039 -0.0597713 0
M  V30 2914 H 280.39 2.02353 -1.56483 0
M  V30 2915 H 280.034 4.17964 -2.88563 0
M  V30 2916 H 279.964 5.08866 -1.35509 0
M  V30 2917 H 282.455 3.527 -1.35687 0
M  V30 2918 H 282.768 6.96451 -3.34927 0
M  V30 2919 H 281.113 6.26638 -3.00583 0
M  V30 2920 H 284.304 4.33789 -1.7591 0
M  V30 2921 H 284.477 5.90552 -2.66745 0
M  V30 2922 N 277.883 0.443576 1.51229 0
M  V30 2923 C 279.113 -0.119117 2.06256 0
M  V30 2924 C 279.521 -1.36471 1.31043 0
M  V30 2925 O 278.864 -1.80034 0.365151 0
M  V30 2926 C 278.926 -0.500546 3.55998 0
M  V30 2927 C 278.59 0.639125 4.52509 0
M  V30 2928 C 279.587 1.51311 4.97394 0
M  V30 2929 C 277.272 0.821632 4.95535 0
M  V30 2930 C 279.266 2.55425 5.83984 0
M  V30 2931 C 276.953 1.86603 5.81913 0
M  V30 2932 C 277.951 2.73072 6.26036 0
M  V30 2933 O 277.639 3.75718 7.10698 0
M  V30 2934 H 277.371 -0.00857665 0.675946 0
M  V30 2935 H 279.925 0.623288 1.95715 0
M  V30 2936 H 278.155 -1.29575 3.64345 0
M  V30 2937 H 279.844 -0.995116 3.93513 0
M  V30 2938 H 280.61 1.38367 4.64844 0
M  V30 2939 H 276.489 0.158149 4.60729 0
M  V30 2940 H 280.033 3.22949 6.18344 0
M  V30 2941 H 275.93 1.99564 6.13876 0
M  V30 2942 H 276.698 3.72374 7.2889 0
M  V30 2943 N 279.361 -1.56624 0.175154 0
M  V30 2944 C 280.291 -2.21155 -0.749195 0
M  V30 2945 C 281.272 -1.16836 -1.23626 0
M  V30 2946 O 282.457 -1.45277 -1.28873 0
M  V30 2947 C 279.587 -2.8553 -1.97711 0
M  V30 2948 C 278.541 -3.95921 -1.62575 0
M  V30 2949 C 277.867 -4.47365 -2.92864 0
M  V30 2950 C 279.167 -5.15323 -0.850838 0
M  V30 2951 H 280.861 -2.98653 -0.211295 0
M  V30 2952 H 278.407 -1.43651 -0.100188 0
M  V30 2953 H 280.36 -3.2935 -2.62881 0
M  V30 2954 H 279.084 -2.05406 -2.53921 0
M  V30 2955 H 277.743 -3.52762 -0.997719 0
M  V30 2956 H 277.391 -3.64027 -3.47122 0
M  V30 2957 H 277.091 -5.21839 -2.70106 0
M  V30 2958 H 278.615 -4.93873 -3.59056 0
M  V30 2959 H 280.029 -5.55812 -1.40521 0
M  V30 2960 H 278.426 -5.95739 -0.722154 0
M  V30 2961 H 279.496 -4.84661 0.152082 0
M  V30 2962 N 280.839 0.0985539 -1.57292 0
M  V30 2963 C 281.769 1.12064 -2.04851 0
M  V30 2964 C 282.75 1.41981 -0.936767 0
M  V30 2965 O 283.935 1.52071 -1.20781 0
M  V30 2966 C 281.065 2.44144 -2.47004 0
M  V30 2967 C 280.019 2.28643 -3.6181 0
M  V30 2968 C 279.345 3.65869 -3.89929 0
M  V30 2969 C 280.645 1.72986 -4.92822 0
M  V30 2970 H 282.339 0.724979 -2.9049 0
M  V30 2971 H 279.885 0.34729 -1.39749 0
M  V30 2972 H 281.838 3.15914 -2.78884 0
M  V30 2973 H 280.562 2.85639 -1.5836 0
M  V30 2974 H 279.221 1.59318 -3.30172 0
M  V30 2975 H 278.869 4.04885 -2.98458 0
M  V30 2976 H 278.569 3.56344 -4.67218 0
M  V30 2977 H 280.093 4.39112 -4.2428 0
M  V30 2978 H 281.507 2.34593 -5.23105 0
M  V30 2979 H 279.904 1.74229 -5.74251 0
M  V30 2980 H 280.974 0.689007 -4.7998 0
M  V30 2981 N 282.317 1.53212 0.369288 0
M  V30 2982 C 283.594 1.59815 1.12776 0
M  V30 2983 C 283.974 0.403402 2.0721 0
M  V30 2984 O 283.322 -0.606667 2.20299 0
M  V30 2985 C 283.532 2.94664 1.87013 0
M  V30 2986 C 284.88 3.49109 2.41677 0
M  V30 2987 O 285.904 2.96669 1.97144 0
M  V30 2988 O 284.763 4.40775 3.23079 0
M  V30 2989 H 281.857 0.645376 0.517125 0
M  V30 2990 H 284.403 1.65553 0.37285 0
M  V30 2991 H 283.175 3.73061 1.18071 0
M  V30 2992 H 282.798 2.92401 2.69421 0
M  V30 2993 N 283.795 -0.628877 1.44509 0
M  V30 2994 C 284.725 -1.75187 1.54376 0
M  V30 2995 C 285.706 -1.65411 0.396618 0
M  V30 2996 O 286.891 -1.84137 0.617031 0
M  V30 2997 C 284.021 -3.13725 1.48976 0
M  V30 2998 C 282.975 -3.38291 2.62189 0
M  V30 2999 C 282.301 -4.76883 2.41841 0
M  V30 3000 C 283.601 -3.30632 4.04326 0
M  V30 3001 H 285.295 -1.67187 2.48373 0
M  V30 3002 H 282.841 -0.802909 1.19538 0
M  V30 3003 H 284.794 -3.92064 1.54478 0
M  V30 3004 H 283.518 -3.22515 0.514961 0
M  V30 3005 H 282.177 -2.62334 2.56079 0
M  V30 3006 H 281.825 -4.82378 1.42548 0
M  V30 3007 H 281.525 -4.94278 3.17747 0
M  V30 3008 H 283.049 -5.57449 2.49165 0
M  V30 3009 H 284.463 -3.98873 4.11793 0
M  V30 3010 H 282.86 -3.59561 4.80454 0
M  V30 3011 H 283.93 -2.28404 4.27738 0
M  V30 3012 N 285.273 -1.31445 -0.869486 0
M  V30 3013 C 286.684 -1.19042 -1.43826 0
M  V30 3014 C 287.035 0.202919 -1.95148 0
M  V30 3015 O 286.16 1.10071 -1.86315 0
M  V30 3016 C 286.755 -2.15499 -2.6143 0
M  V30 3017 C 285.314 -2.07028 -3.14351 0
M  V30 3018 C 284.461 -2.04701 -1.87063 0
M  V30 3019 H 287.412 -1.43489 -0.677984 0
M  V30 3020 H 287.433 -1.74488 -3.38134 0
M  V30 3021 H 286.945 -3.16899 -2.24046 0
M  V30 3022 H 285.046 -1.08825 -3.56354 0
M  V30 3023 H 285.159 -2.96157 -3.766 0
M  V30 3024 H 283.523 -1.49724 -2.06046 0
M  V30 3025 H 284.306 -3.07857 -1.51917 0
M  V30 3026 N 286.751 1.08385 -1.14413 0
M  V30 3027 C 287.699 2.17406 -0.826888 0
M  V30 3028 C 288.693 1.6827 0.195312 0
M  V30 3029 O 289.899 1.79927 0.0513892 0
M  V30 3030 H 286.274 0.70934 -0.249681 0
M  V30 3031 H 288.245 2.41388 -1.75426 0
M  V30 3032 C 286.994 3.46215 -0.320979 0
M  V30 3033 H 286.317 3.84401 -1.0989 0
M  V30 3034 H 287.757 4.23777 -0.137549 0
M  V30 3035 C 286.216 3.23067 0.955472 0
M  V30 3036 O 286.746 3.4668 2.02918 0
M  V30 3037 N 284.952 2.7661 0.890798 0
M  V30 3038 H 284.499 2.57594 0.0168815 0
M  V30 3039 H 284.457 2.61501 1.74542 0
M  V30 3040 N 288.23 0.939286 1.26551 0
M  V30 3041 C 289.641 0.628782 1.75793 0
M  V30 3042 C 289.992 -0.856046 1.7654 0
M  V30 3043 O 289.117 -1.66994 1.3763 0
M  V30 3044 C 289.712 1.13465 3.19235 0
M  V30 3045 C 288.271 0.874601 3.66098 0
M  V30 3046 C 287.418 1.28667 2.45642 0
M  V30 3047 H 290.369 1.1178 1.12654 0
M  V30 3048 H 290.39 0.487609 3.77363 0
M  V30 3049 H 289.902 2.21535 3.1866 0
M  V30 3050 H 288.003 -0.191793 3.72106 0
M  V30 3051 H 288.116 1.50028 4.55004 0
M  V30 3052 H 286.48 0.705109 2.44745 0
M  V30 3053 H 287.263 2.37625 2.47769 0
M  V30 3054 N 289.708 -1.40897 0.706093 0
M  V30 3055 C 290.954 -2.01352 0.241889 0
M  V30 3056 C 291.287 -1.55832 -1.15888 0
M  V30 3057 O 290.562 -0.774145 -1.7843 0
M  V30 3058 C 290.845 -3.58752 0.311311 0
M  V30 3059 C 290.698 -4.1437 1.74978 0
M  V30 3060 C 292.017 -4.38914 -0.322922 0
M  V30 3061 H 289.136 -0.731562 0.0893687 0
M  V30 3062 H 291.778 -1.67504 0.896802 0
M  V30 3063 H 289.928 -3.87718 -0.246302 0
M  V30 3064 H 291.6 -3.96239 2.36205 0
M  V30 3065 H 289.843 -3.69016 2.28057 0
M  V30 3066 H 290.514 -5.23532 1.74981 0
M  V30 3067 H 292.99 -4.15822 0.152089 0
M  V30 3068 H 291.866 -5.48358 -0.243855 0
M  V30 3069 H 292.127 -4.19176 -1.40513 0
M  V30 3070 N 291.186 -0.45159 -1.50991 0
M  V30 3071 C 292.435 0.111653 -2.01391 0
M  V30 3072 C 292.748 1.42529 -1.33959 0
M  V30 3073 O 293.954 2.07232 -1.75405 0
M  V30 3074 C 292.41 0.249514 -3.59034 0
M  V30 3075 C 292.018 -1.05453 -4.35412 0
M  V30 3076 C 293.762 0.765762 -4.17536 0
M  V30 3077 C 291.669 -0.881529 -5.84793 0
M  V30 3078 H 290.599 0.0455022 -0.752626 0
M  V30 3079 H 293.25 -0.583524 -1.73975 0
M  V30 3080 H 291.632 1.00803 -3.82955 0
M  V30 3081 H 292.806 -1.82248 -4.23229 0
M  V30 3082 H 291.121 -1.50039 -3.88429 0
M  V30 3083 H 293.718 0.911913 -5.26866 0
M  V30 3084 H 294.061 1.75201 -3.77638 0
M  V30 3085 H 294.594 0.0651744 -3.97747 0
M  V30 3086 H 291.333 -1.84057 -6.29129 0
M  V30 3087 H 290.853 -0.153625 -5.99603 0
M  V30 3088 H 292.532 -0.540363 -6.4474 0
M  V30 3089 N 292.664 1.56529 -0.183458 0
M  V30 3090 C 294.075 1.83739 0.331177 0
M  V30 3091 C 294.426 1.10373 1.62211 0
M  V30 3092 O 293.551 0.36071 2.13373 0
M  V30 3093 C 294.146 3.33306 0.607646 0
M  V30 3094 C 292.705 3.60969 1.06668 0
M  V30 3095 C 291.852 2.77086 0.109029 0
M  V30 3096 H 294.803 1.53379 -0.407484 0
M  V30 3097 H 294.824 3.51444 1.45832 0
M  V30 3098 H 294.336 3.86677 -0.332086 0
M  V30 3099 H 292.437 3.13021 2.0211 0
M  V30 3100 H 292.55 4.69231 0.967447 0
M  V30 3101 H 290.914 2.47319 0.608714 0
M  V30 3102 H 291.697 3.33241 -0.82494 0
M  V30 3103 N 294.142 -0.090211 1.57342 0
M  V30 3104 C 295.105 -1.09335 2.01441 0
M  V30 3105 C 296.105 -1.32666 0.908641 0
M  V30 3106 O 297.295 -1.28697 1.174 0
M  V30 3107 C 294.427 -2.44136 2.3793 0
M  V30 3108 H 295.62 -0.713662 2.91285 0
M  V30 3109 H 293.173 -0.335404 1.52659 0
M  V30 3110 H 293.908 -2.86972 1.51055 0
M  V30 3111 H 293.693 -2.28548 3.18603 0
M  V30 3112 H 295.183 -3.16277 2.72688 0
M  V30 3113 N 295.62 -1.53406 -0.361157 0
M  V30 3114 C 296.583 -1.79479 -1.42548 0
M  V30 3115 C 297.583 -0.665327 -1.4639 0
M  V30 3116 O 298.773 -0.933549 -1.47073 0
M  V30 3117 C 295.905 -1.92087 -2.8163 0
M  V30 3118 H 297.098 -2.74538 -1.20701 0
M  V30 3119 H 294.651 -1.4455 -0.594546 0
M  V30 3120 H 295.386 -0.991099 -3.08784 0
M  V30 3121 H 295.171 -2.74241 -2.80239 0
M  V30 3122 H 296.661 -2.13836 -3.58697 0
M  V30 3123 N 297.098 0.621204 -1.44841 0
M  V30 3124 C 298.344 1.3826 -1.48365 0
M  V30 3125 C 298.677 1.93831 -0.119624 0
M  V30 3126 O 297.952 1.74251 0.864111 0
M  V30 3127 C 298.235 2.54058 -2.55199 0
M  V30 3128 C 298.088 2.03772 -4.00995 0
M  V30 3129 C 299.407 3.56225 -2.58442 0
M  V30 3130 H 296.526 0.501374 -0.540179 0
M  V30 3131 H 299.168 0.7015 -1.76576 0
M  V30 3132 H 297.318 3.12162 -2.31274 0
M  V30 3133 H 298.99 1.50423 -4.36086 0
M  V30 3134 H 297.233 1.34876 -4.12299 0
M  V30 3135 H 297.904 2.87185 -4.71411 0
M  V30 3136 H 300.38 3.07939 -2.79844 0
M  V30 3137 H 299.256 4.34756 -3.3508 0
M  V30 3138 H 299.517 4.10949 -1.63013 0
M  V30 3139 N 298.576 1.31904 0.862503 0
M  V30 3140 C 299.806 1.24817 1.64634 0
M  V30 3141 C 300.214 -0.187579 1.88268 0
M  V30 3142 O 299.557 -1.13253 1.44635 0
M  V30 3143 C 299.619 1.92996 3.03303 0
M  V30 3144 C 299.283 3.42336 3.02746 0
M  V30 3145 C 300.28 4.37956 2.80162 0
M  V30 3146 C 297.965 3.84147 3.2363 0
M  V30 3147 C 299.959 5.73361 2.78453 0
M  V30 3148 C 297.646 5.19663 3.21549 0
M  V30 3149 C 298.644 6.14081 2.98988 0
M  V30 3150 O 298.332 7.47118 2.96766 0
M  V30 3151 H 298.064 0.432222 0.519769 0
M  V30 3152 H 300.618 1.7445 1.08427 0
M  V30 3153 H 298.848 1.37922 3.61268 0
M  V30 3154 H 300.537 1.79723 3.63943 0
M  V30 3155 H 301.303 4.06981 2.63802 0
M  V30 3156 H 297.182 3.11083 3.40218 0
M  V30 3157 H 300.726 6.4703 2.60763 0
M  V30 3158 H 296.623 5.5027 3.37451 0
M  V30 3159 H 297.391 7.56382 3.12775 0
M  V30 3160 N 300.054 -1.07777 1.14986 0
M  V30 3161 C 301.279 -1.84558 0.946213 0
M  V30 3162 C 301.704 -1.81323 -0.500362 0
M  V30 3163 O 301.062 -1.20301 -1.35637 0
M  V30 3164 C 301.11 -3.29736 1.45968 0
M  V30 3165 O 300.214 -4.07149 0.65601 0
M  V30 3166 H 299.555 -0.571641 0.33782 0
M  V30 3167 H 302.085 -1.35991 1.52865 0
M  V30 3168 H 302.095 -3.80574 1.47063 0
M  V30 3169 H 300.77 -3.31406 2.51283 0
M  V30 3170 H 299.347 -3.65994 0.714322 0
M  V30 3171 N 301.532 -0.945985 -1.26051 0
M  V30 3172 C 302.442 -0.465633 -2.29933 0
M  V30 3173 C 303.458 0.462761 -1.67733 0
M  V30 3174 O 304.634 0.341118 -1.9849 0
M  V30 3175 C 301.699 0.256994 -3.45746 0
M  V30 3176 C 300.76 -0.708549 -4.23412 0
M  V30 3177 C 299.993 -0.0203135 -5.33696 0
M  V30 3178 O 300.216 1.19571 -5.57726 0
M  V30 3179 O 299.15 -0.701459 -5.97799 0
M  V30 3180 H 302.976 -1.32866 -2.73094 0
M  V30 3181 H 300.561 -0.712071 -1.31339 0
M  V30 3182 H 302.443 0.663852 -4.16138 0
M  V30 3183 H 301.118 1.09533 -3.04605 0
M  V30 3184 H 300.025 -1.16545 -3.55483 0
M  V30 3185 H 301.358 -1.51465 -4.68315 0
M  V30 3186 N 303.011 1.40521 -0.713556 0
M  V30 3187 C 303.944 2.28198 -0.00881422 0
M  V30 3188 C 304.922 1.43227 0.769735 0
M  V30 3189 O 306.106 1.72641 0.756799 0
M  V30 3190 C 303.233 3.23758 0.994899 0
M  V30 3191 C 302.279 4.25391 0.3074 0
M  V30 3192 S 303.112 5.26765 -0.963247 0
M  V30 3193 C 304.268 6.25888 0.0384143 0
M  V30 3194 H 304.501 2.87622 -0.752407 0
M  V30 3195 H 302.034 1.45925 -0.504502 0
M  V30 3196 H 303.992 3.79341 1.56879 0
M  V30 3197 H 302.653 2.63396 1.71118 0
M  V30 3198 H 301.846 4.92596 1.0661 0
M  V30 3199 H 301.448 3.73497 -0.193879 0
M  V30 3200 H 303.74 6.71683 0.885912 0
M  V30 3201 H 304.683 7.05552 -0.60019 0
M  V30 3202 H 305.091 5.63072 0.401233 0
M  V30 3203 N 304.489 0.459591 1.5075 0
M  V30 3204 C 305.738 -0.100971 2.01447 0
M  V30 3205 C 306.051 -1.41816 1.34713 0
M  V30 3206 O 307.257 -2.06299 1.76502 0
M  V30 3207 C 305.713 -0.23047 3.59161 0
M  V30 3208 C 305.321 1.0776 4.34847 0
M  V30 3209 C 307.065 -0.743608 4.17936 0
M  V30 3210 C 304.972 0.91253 5.84317 0
M  V30 3211 H 303.902 -0.0415102 0.752856 0
M  V30 3212 H 306.553 0.592742 1.73663 0
M  V30 3213 H 304.935 -0.987703 3.83485 0
M  V30 3214 H 306.109 1.8449 4.22256 0
M  V30 3215 H 304.424 1.52097 3.87628 0
M  V30 3216 H 307.021 -0.883959 5.27343 0
M  V30 3217 H 307.364 -1.73196 3.78562 0
M  V30 3218 H 307.897 -0.04408 3.97776 0
M  V30 3219 H 304.636 1.87391 6.28144 0
M  V30 3220 H 304.156 0.185422 5.99513 0
M  V30 3221 H 305.835 0.574547 6.44444 0
M  V30 3222 N 305.967 -1.56429 0.191757 0
M  V30 3223 C 307.192 -2.02309 -0.456706 0
M  V30 3224 C 307.617 -1.07103 -1.5463 0
M  V30 3225 O 306.975 -0.0539677 -1.8122 0
M  V30 3226 C 307.023 -3.46654 -0.993159 0
M  V30 3227 O 306.127 -3.54559 -2.10622 0
M  V30 3228 H 305.468 -0.655303 -0.107114 0
M  V30 3229 H 307.998 -2.02364 0.301653 0
M  V30 3230 H 308.008 -3.86377 -1.31061 0
M  V30 3231 H 306.683 -4.1544 -0.195504 0
M  V30 3232 H 305.26 -3.26708 -1.79767 0
M  V30 3233 N 307.445 0.0818655 -1.57387 0
M  V30 3234 C 308.375 1.09885 -2.06028 0
M  V30 3235 C 309.356 1.4098 -0.951774 0
M  V30 3236 O 310.541 1.50781 -1.22387 0
M  V30 3237 C 307.671 2.4151 -2.4958 0
M  V30 3238 C 306.625 2.24792 -3.64215 0
M  V30 3239 C 305.951 3.61712 -3.93787 0
M  V30 3240 C 307.251 1.67749 -4.94629 0
M  V30 3241 H 308.945 0.694128 -2.91243 0
M  V30 3242 H 306.491 0.332448 -1.4011 0
M  V30 3243 H 308.444 3.12939 -2.82219 0
M  V30 3244 H 307.168 2.83943 -1.61381 0
M  V30 3245 H 305.827 1.55807 -3.31843 0
M  V30 3246 H 305.475 4.01697 -3.02735 0
M  V30 3247 H 305.175 3.51368 -4.70971 0
M  V30 3248 H 306.699 4.34587 -4.28913 0
M  V30 3249 H 308.113 2.29032 -5.25564 0
M  V30 3250 H 306.51 1.68128 -5.76067 0
M  V30 3251 H 307.58 0.638059 -4.80684 0
M  V30 3252 N 308.923 1.53595 0.353017 0
M  V30 3253 C 309.886 1.80232 1.41594 0
M  V30 3254 C 310.886 0.673081 1.46035 0
M  V30 3255 O 312.076 0.941335 1.46576 0
M  V30 3256 C 309.208 1.93578 2.80607 0
M  V30 3257 H 310.401 2.75174 1.19244 0
M  V30 3258 H 307.954 1.44864 0.586872 0
M  V30 3259 H 308.689 1.00746 3.08254 0
M  V30 3260 H 308.474 2.75724 2.78781 0
M  V30 3261 H 309.964 2.15735 3.57558 0
M  V30 3262 N 310.401 -0.613514 1.45168 0
M  V30 3263 C 311.812 -1.19539 1.43413 0
M  V30 3264 C 312.163 -1.95558 0.158632 0
M  V30 3265 O 311.288 -2.0335 -0.740119 0
M  V30 3266 C 311.883 -2.17445 2.59813 0
M  V30 3267 C 310.442 -2.71022 2.61197 0
M  V30 3268 C 309.589 -1.46323 2.35552 0
M  V30 3269 H 312.54 -0.403163 1.53494 0
M  V30 3270 H 312.561 -3.00373 2.33574 0
M  V30 3271 H 312.073 -1.62089 3.52631 0
M  V30 3272 H 310.174 -3.30332 1.7237 0
M  V30 3273 H 310.287 -3.15859 3.60236 0
M  V30 3274 H 308.651 -1.75072 1.84992 0
M  V30 3275 H 309.434 -0.92844 3.30507 0
M  V30 3276 N 311.879 -1.3236 -0.855495 0
M  V30 3277 C 312.789 -1.23221 -1.99634 0
M  V30 3278 C 313.805 -0.145983 -1.73387 0
M  V30 3279 O 314.981 -0.366502 -1.98037 0
M  V30 3280 C 312.046 -0.954782 -3.33294 0
M  V30 3281 C 311.107 -2.12937 -3.72769 0
M  V30 3282 C 310.34 -1.86508 -5.00051 0
M  V30 3283 O 310.563 -0.807231 -5.64659 0
M  V30 3284 O 309.497 -2.72591 -5.36636 0
M  V30 3285 H 313.323 -2.19126 -2.1028 0
M  V30 3286 H 310.908 -1.12241 -0.986018 0
M  V30 3287 H 312.79 -0.816519 -4.13414 0
M  V30 3288 H 311.465 -0.0258854 -3.2369 0
M  V30 3289 H 310.372 -2.3231 -2.93228 0
M  V30 3290 H 311.705 -3.04102 -3.87018 0
M  V30 3291 N 313.357 1.07166 -1.15556 0
M  V30 3292 C 314.603 1.80065 -0.932984 0
M  V30 3293 C 314.936 1.86586 0.53845 0
M  V30 3294 O 314.211 1.35098 1.39924 0
M  V30 3295 C 314.494 3.25022 -1.55025 0
M  V30 3296 C 314.347 3.26634 -3.09242 0
M  V30 3297 C 315.666 4.22341 -1.2376 0
M  V30 3298 H 312.785 0.653697 -0.340366 0
M  V30 3299 H 315.427 1.25389 -1.4275 0
M  V30 3300 H 313.577 3.71712 -1.12972 0
M  V30 3301 H 315.249 2.88173 -3.60214 0
M  V30 3302 H 313.492 2.65539 -3.43033 0
M  V30 3303 H 314.163 4.28854 -3.47546 0
M  V30 3304 H 316.639 3.8405 -1.60139 0
M  V30 3305 H 315.515 5.22053 -1.69564 0
M  V30 3306 H 315.776 4.41828 -0.154938 0
M  V30 3307 N 314.835 0.952656 1.25548 0
M  V30 3308 C 315.767 0.428609 2.25157 0
M  V30 3309 C 316.78 -0.454428 1.56329 0
M  V30 3310 O 317.969 -0.263023 1.76552 0
M  V30 3311 C 315.069 -0.401972 3.36508 0
M  V30 3312 C 314.242 0.467601 4.34893 0
M  V30 3313 C 313.301 -0.30445 5.25319 0
M  V30 3314 O 312.327 0.296473 5.68427 0
M  V30 3315 N 313.529 -1.59805 5.5807 0
M  V30 3316 H 316.294 1.28497 2.70756 0
M  V30 3317 H 313.855 0.822798 1.39433 0
M  V30 3318 H 315.847 -0.926134 3.9396 0
M  V30 3319 H 314.417 -1.15918 2.90313 0
M  V30 3320 H 313.637 1.17288 3.76347 0
M  V30 3321 H 314.925 1.06119 4.97611 0
M  V30 3322 H 314.323 -2.10823 5.24948 0
M  V30 3323 H 312.88 -2.06822 6.18116 0
M  V30 3324 N 316.313 -1.40141 0.720998 0
M  V30 3325 C 317.538 -2.05618 0.271258 0
M  V30 3326 C 317.963 -1.53978 -1.08039 0
M  V30 3327 O 317.321 -0.677463 -1.68167 0
M  V30 3328 C 317.369 -3.59609 0.267197 0
M  V30 3329 O 316.473 -4.05526 -0.749814 0
M  V30 3330 H 315.814 -0.651904 0.126162 0
M  V30 3331 H 318.344 -1.79439 0.982997 0
M  V30 3332 H 318.354 -4.0786 0.106744 0
M  V30 3333 H 317.029 -3.96559 1.25354 0
M  V30 3334 H 315.606 -3.68722 -0.556644 0
M  V30 3335 N 317.792 -0.46758 -1.50504 0
M  V30 3336 C 319.017 0.0886943 -2.0721 0
M  V30 3337 C 319.442 1.33057 -1.32956 0
M  V30 3338 O 318.8 1.77354 -0.376197 0
M  V30 3339 C 318.848 0.359202 -3.58806 0
M  V30 3340 O 317.952 1.44034 -3.8643 0
M  V30 3341 H 317.293 -0.0114349 -0.663902 0
M  V30 3342 H 319.823 -0.657613 -1.93744 0
M  V30 3343 H 319.833 0.600742 -4.03553 0
M  V30 3344 H 318.508 -0.548311 -4.1227 0
M  V30 3345 H 317.085 1.18638 -3.53524 0
M  V30 3346 N 319.27 1.56325 -0.20005 0
M  V30 3347 C 320.18 2.22931 0.730668 0
M  V30 3348 C 321.196 1.22997 1.23076 0
M  V30 3349 O 322.372 1.55748 1.27689 0
M  V30 3350 C 319.437 2.87948 1.93098 0
M  V30 3351 C 318.498 4.03166 1.47497 0
M  V30 3352 C 317.731 4.65073 2.61807 0
M  V30 3353 O 317.954 4.25913 3.79413 0
M  V30 3354 O 316.888 5.54452 2.34237 0
M  V30 3355 H 320.714 3.03084 0.193391 0
M  V30 3356 H 318.299 1.49371 0.0294621 0
M  V30 3357 H 320.181 3.29063 2.6324 0
M  V30 3358 H 318.856 2.10771 2.45677 0
M  V30 3359 H 317.763 3.66664 0.742201 0
M  V30 3360 H 319.096 4.82022 0.995796 0
M  V30 3361 N 320.748 -0.0735177 1.57428 0
M  V30 3362 C 321.658 -1.10547 2.06922 0
M  V30 3363 C 322.674 -1.42506 0.998402 0
M  V30 3364 O 323.85 -1.52717 1.31299 0
M  V30 3365 C 320.915 -2.40019 2.50184 0
M  V30 3366 C 319.976 -2.15046 3.71556 0
M  V30 3367 C 319.209 -3.38345 4.12745 0
M  V30 3368 O 319.432 -4.47399 3.53822 0
M  V30 3369 O 318.366 -3.2666 5.05546 0
M  V30 3370 H 322.192 -0.715013 2.95163 0
M  V30 3371 H 319.777 -0.287531 1.46607 0
M  V30 3372 H 321.659 -3.16218 2.78539 0
M  V30 3373 H 320.334 -2.78447 1.65072 0
M  V30 3374 H 319.241 -1.36558 3.48285 0
M  V30 3375 H 320.574 -1.81499 4.57514 0
M  V30 3376 N 322.226 -1.5378 -0.344866 0
M  V30 3377 C 323.456 -1.74646 -1.10374 0
M  V30 3378 C 323.864 -0.48491 -1.8288 0
M  V30 3379 O 323.207 0.553062 -1.75177 0
M  V30 3380 C 323.269 -2.87145 -2.16306 0
M  V30 3381 C 322.933 -4.26795 -1.63386 0
M  V30 3382 C 323.93 -5.08412 -1.08688 0
M  V30 3383 C 321.615 -4.73276 -1.68272 0
M  V30 3384 C 323.609 -6.34609 -0.595792 0
M  V30 3385 C 321.296 -5.99446 -1.18776 0
M  V30 3386 C 322.294 -6.79946 -0.645215 0
M  V30 3387 O 321.982 -8.03745 -0.157626 0
M  V30 3388 H 321.714 -0.587112 -0.335075 0
M  V30 3389 H 324.268 -2.01403 -0.403252 0
M  V30 3390 H 322.498 -2.55909 -2.89909 0
M  V30 3391 H 324.187 -2.95992 -2.77747 0
M  V30 3392 H 324.953 -4.73666 -1.04236 0
M  V30 3393 H 320.832 -4.10677 -2.09442 0
M  V30 3394 H 324.376 -6.97389 -0.171654 0
M  V30 3395 H 320.273 -6.33687 -1.22928 0
M  V30 3396 H 321.041 -8.18038 -0.275037 0
M  V30 3397 N 323.704 0.605807 -1.45491 0
M  V30 3398 C 324.953 1.36086 -1.48874 0
M  V30 3399 C 325.266 1.95131 -0.135333 0
M  V30 3400 O 326.472 2.7146 -0.0468144 0
M  V30 3401 C 324.928 2.46518 -2.62215 0
M  V30 3402 C 324.536 1.93877 -4.03876 0
M  V30 3403 C 326.28 3.23512 -2.74846 0
M  V30 3404 C 324.187 3.01801 -5.08596 0
M  V30 3405 H 323.117 0.511497 -0.553974 0
M  V30 3406 H 325.768 0.649089 -1.71636 0
M  V30 3407 H 324.15 3.20388 -2.32739 0
M  V30 3408 H 325.324 1.26704 -4.43038 0
M  V30 3409 H 323.639 1.29622 -3.95711 0
M  V30 3410 H 326.236 4.04013 -3.50253 0
M  V30 3411 H 326.579 3.74631 -1.81542 0
M  V30 3412 H 327.112 2.56742 -3.03856 0
M  V30 3413 H 323.851 2.55597 -6.03614 0
M  V30 3414 H 323.371 3.67535 -4.74002 0
M  V30 3415 H 325.05 3.66152 -5.33424 0
M  V30 3416 N 325.182 1.32811 0.848464 0
M  V30 3417 C 326.114 1.18095 1.96433 0
M  V30 3418 C 327.127 0.114354 1.62398 0
M  V30 3419 O 328.316 0.363892 1.74751 0
M  V30 3420 C 325.416 0.786798 3.2964 0
M  V30 3421 C 324.589 1.943 3.91875 0
M  V30 3422 C 323.648 1.53138 5.03423 0
M  V30 3423 O 322.674 2.24432 5.23086 0
M  V30 3424 N 323.876 0.430915 5.78898 0
M  V30 3425 H 326.641 2.14218 2.09597 0
M  V30 3426 H 324.202 1.2543 1.02367 0
M  V30 3427 H 326.194 0.493715 4.01677 0
M  V30 3428 H 324.764 -0.0834541 3.12489 0
M  V30 3429 H 323.984 2.40224 3.12547 0
M  V30 3430 H 325.272 2.71689 4.30189 0
M  V30 3431 H 324.67 -0.162333 5.65467 0
M  V30 3432 H 323.227 0.197466 6.51501 0
M  V30 3433 N 326.66 -1.06551 1.16123 0
M  V30 3434 C 327.59 -2.15935 0.88851 0
M  V30 3435 C 328.571 -1.69306 -0.164135 0
M  V30 3436 O 329.756 -1.94193 -0.0167857 0
M  V30 3437 C 326.886 -3.45149 0.385942 0
M  V30 3438 C 325.84 -4.05271 1.3762 0
M  V30 3439 C 325.166 -5.29664 0.732137 0
M  V30 3440 C 326.466 -4.44355 2.74493 0
M  V30 3441 H 328.16 -2.39006 1.80323 0
M  V30 3442 H 325.706 -1.14866 0.868435 0
M  V30 3443 H 327.659 -4.21004 0.182647 0
M  V30 3444 H 326.383 -3.21689 -0.564274 0
M  V30 3445 H 325.042 -3.3147 1.56599 0
M  V30 3446 H 324.69 -5.02499 -0.224483 0
M  V30 3447 H 324.39 -5.70848 1.39307 0
M  V30 3448 H 325.914 -6.08218 0.538802 0
M  V30 3449 H 327.328 -5.11303 2.59311 0
M  V30 3450 H 325.725 -4.96515 3.37035 0
M  V30 3451 H 326.795 -3.55339 3.29943 0
M  V30 3452 N 328.138 -0.959301 -1.25041 0
M  V30 3453 C 329.068 -0.501388 -2.28053 0
M  V30 3454 C 330.049 0.454673 -1.63911 0
M  V30 3455 O 331.234 0.352618 -1.90972 0
M  V30 3456 C 328.364 0.217224 -3.4662 0
M  V30 3457 C 327.318 -0.654034 -4.22973 0
M  V30 3458 C 326.644 0.195589 -5.34342 0
M  V30 3459 C 327.944 -1.93447 -4.85155 0
M  V30 3460 H 329.638 -1.36238 -2.66608 0
M  V30 3461 H 327.184 -0.656534 -1.28163 0
M  V30 3462 H 329.137 0.548732 -4.17812 0
M  V30 3463 H 327.861 1.1125 -3.07068 0
M  V30 3464 H 326.52 -0.968693 -3.5357 0
M  V30 3465 H 326.168 1.09076 -4.91031 0
M  V30 3466 H 325.868 -0.384091 -5.86343 0
M  V30 3467 H 327.392 0.521958 -6.08365 0
M  V30 3468 H 328.806 -1.66908 -5.48466 0
M  V30 3469 H 327.203 -2.46018 -5.47353 0
M  V30 3470 H 328.273 -2.63466 -4.07079 0
M  V30 3471 N 329.616 1.39756 -0.72842 0
M  V30 3472 C 330.563 2.30647 -0.0841519 0
M  V30 3473 C 331.533 1.48869 0.7367 0
M  V30 3474 O 332.718 1.77574 0.698015 0
M  V30 3475 C 329.858 3.35165 0.822091 0
M  V30 3476 C 328.971 4.31999 -0.0106663 0
M  V30 3477 C 328.106 5.23585 0.896241 0
M  V30 3478 C 327.145 6.12072 0.0583381 0
M  V30 3479 N 326.282 6.96035 0.920818 0
M  V30 3480 H 331.122 2.85173 -0.864891 0
M  V30 3481 H 328.659 1.40422 -0.438179 0
M  V30 3482 H 330.617 3.94345 1.36189 0
M  V30 3483 H 329.247 2.8211 1.56888 0
M  V30 3484 H 328.299 3.74492 -0.66781 0
M  V30 3485 H 329.611 4.9443 -0.658825 0
M  V30 3486 H 328.765 5.87759 1.50412 0
M  V30 3487 H 327.504 4.61459 1.57819 0
M  V30 3488 H 326.509 5.46916 -0.562389 0
M  V30 3489 H 327.734 6.76261 -0.6203 0
M  V30 3490 H 325.68 6.36485 1.58818 0
M  V30 3491 H 325.597 7.55284 0.32899 0
M  V30 3492 H 326.865 7.64646 1.51447 0
M  V30 3493 N 331.094 0.475555 1.50254 0
M  V30 3494 C 332.041 -0.316293 2.28622 0
M  V30 3495 C 333.011 -0.983227 1.33873 0
M  V30 3496 O 334.196 -0.994805 1.62814 0
M  V30 3497 C 331.336 -1.38975 3.1588 0
M  V30 3498 C 330.449 -0.737146 4.25664 0
M  V30 3499 C 329.584 -1.78887 5.00173 0
M  V30 3500 C 328.623 -1.11676 6.01826 0
M  V30 3501 N 327.76 -2.11154 6.69596 0
M  V30 3502 H 332.6 0.358297 2.95838 0
M  V30 3503 H 330.137 0.188541 1.45887 0
M  V30 3504 H 332.095 -2.02383 3.64825 0
M  V30 3505 H 330.725 -2.03344 2.50701 0
M  V30 3506 H 329.777 0.0096065 3.80399 0
M  V30 3507 H 331.089 -0.206816 4.98371 0
M  V30 3508 H 330.243 -2.49865 5.52859 0
M  V30 3509 H 328.982 -2.35302 4.27182 0
M  V30 3510 H 327.987 -0.392633 5.48396 0
M  V30 3511 H 329.212 -0.55945 6.76792 0
M  V30 3512 H 327.158 -2.66577 5.99394 0
M  V30 3513 H 327.075 -1.63118 7.38193 0
M  V30 3514 H 328.343 -2.81497 7.26897 0
M  V30 3515 N 332.573 -1.56217 0.208337 0
M  V30 3516 C 333.503 -2.22694 -0.702116 0
M  V30 3517 C 334.484 -1.19432 -1.2112 0
M  V30 3518 O 335.669 -1.47978 -1.25762 0
M  V30 3519 C 332.799 -2.8966 -1.9161 0
M  V30 3520 C 331.753 -3.9928 -1.5414 0
M  V30 3521 C 331.079 -4.53476 -2.83308 0
M  V30 3522 C 332.379 -5.17012 -0.741339 0
M  V30 3523 H 334.073 -2.99034 -0.147898 0
M  V30 3524 H 331.619 -1.43831 -0.0696951 0
M  V30 3525 H 333.572 -3.34852 -2.55836 0
M  V30 3526 H 332.296 -2.10746 -2.49507 0
M  V30 3527 H 330.955 -3.54799 -0.922668 0
M  V30 3528 H 330.603 -3.71308 -3.39322 0
M  V30 3529 H 330.303 -5.27451 -2.58976 0
M  V30 3530 H 331.827 -5.01378 -3.485 0
M  V30 3531 H 333.241 -5.58667 -1.28699 0
M  V30 3532 H 331.638 -5.97137 -0.595627 0
M  V30 3533 H 332.708 -4.8423 0.254851 0
M  V30 3534 N 334.051 0.0651679 -1.57465 0
M  V30 3535 C 335.3 0.761916 -1.86756 0
M  V30 3536 C 335.613 1.78406 -0.801925 0
M  V30 3537 O 336.819 2.53084 -0.982885 0
M  V30 3538 C 335.275 1.40603 -3.31299 0
M  V30 3539 C 334.883 0.422115 -4.46007 0
M  V30 3540 C 336.627 2.08476 -3.69781 0
M  V30 3541 C 334.534 1.07252 -5.81593 0
M  V30 3542 H 333.464 0.288308 -0.696702 0
M  V30 3543 H 336.115 0.015344 -1.83494 0
M  V30 3544 H 334.497 2.20109 -3.29193 0
M  V30 3545 H 335.671 -0.343613 -4.59517 0
M  V30 3546 H 333.986 -0.152527 -4.16121 0
M  V30 3547 H 336.583 2.57925 -4.68379 0
M  V30 3548 H 336.926 2.88712 -2.99919 0
M  V30 3549 H 337.459 1.35792 -3.73905 0
M  V30 3550 H 334.198 0.310342 -6.54765 0
M  V30 3551 H 333.718 1.80895 -5.71872 0
M  V30 3552 H 335.397 1.59043 -6.27148 0
M  V30 3553 N 335.529 1.53961 0.336706 0
M  V30 3554 C 336.945 1.44378 0.680241 0
M  V30 3555 C 337.145 0.606034 1.9217 0
M  V30 3556 O 336.201 0.099688 2.52303 0
M  V30 3557 C 337.514 2.87945 0.8665 0
M  V30 3558 C 339.062 2.97763 0.964682 0
M  V30 3559 C 339.537 4.42453 1.18321 0
M  V30 3560 N 341.028 4.46008 1.25025 0
M  V30 3561 C 341.763 5.55102 1.43697 0
M  V30 3562 N 341.259 6.7419 1.59498 0
M  V30 3563 N 343.052 5.42727 1.463 0
M  V30 3564 H 335.203 2.06918 -0.479455 0
M  V30 3565 H 337.466 0.935634 -0.152619 0
M  V30 3566 H 337.172 3.51691 0.0256937 0
M  V30 3567 H 337.046 3.33293 1.76623 0
M  V30 3568 H 339.433 2.34153 1.796 0
M  V30 3569 H 339.514 2.55766 0.041708 0
M  V30 3570 H 339.158 5.06645 0.356788 0
M  V30 3571 H 339.088 4.82048 2.11985 0
M  V30 3572 H 341.579 3.60196 1.14312 0
M  V30 3573 H 341.892 7.53095 1.734 0
M  V30 3574 H 340.237 6.77123 1.56621 0
M  V30 3575 H 343.428 4.48647 1.33543 0
M  V30 3576 H 343.601 6.27806 1.6051 0
M  V30 3577 N 337.007 -0.598083 1.45811 0
M  V30 3578 C 338.232 -1.3881 1.54099 0
M  V30 3579 C 338.657 -1.8726 0.177578 0
M  V30 3580 O 338.015 -1.6069 -0.839541 0
M  V30 3581 C 338.063 -2.56217 2.53743 0
M  V30 3582 O 337.167 -3.5716 2.06182 0
M  V30 3583 H 336.508 -0.414024 0.519115 0
M  V30 3584 H 339.038 -0.726971 1.91249 0
M  V30 3585 H 339.048 -3.03337 2.72856 0
M  V30 3586 H 337.723 -2.20303 3.5276 0
M  V30 3587 H 336.3 -3.16624 1.96987 0
M  V30 3588 N 338.485 -1.33259 -0.841409 0
M  V30 3589 C 339.896 -1.22066 -1.41269 0
M  V30 3590 C 340.247 0.161479 -1.95534 0
M  V30 3591 O 339.372 1.06094 -1.88608 0
M  V30 3592 C 339.967 -2.20996 -2.568 0
M  V30 3593 C 338.526 -2.13649 -3.09888 0
M  V30 3594 C 337.673 -2.08623 -1.82679 0
M  V30 3595 H 340.624 -1.44895 -0.647395 0
M  V30 3596 H 340.645 -1.81621 -3.34356 0
M  V30 3597 H 340.157 -3.2158 -2.17274 0
M  V30 3598 H 338.258 -1.16359 -3.53965 0
M  V30 3599 H 338.371 -3.04079 -3.70234 0
M  V30 3600 H 336.735 -1.54061 -2.02824 0
M  V30 3601 H 337.518 -3.1101 -1.45353 0
M  V30 3602 N 339.963 1.05934 -1.16686 0
M  V30 3603 C 341.188 1.83029 -0.975455 0
M  V30 3604 C 341.613 1.82096 0.471452 0
M  V30 3605 O 340.971 1.22443 1.33706 0
M  V30 3606 C 341.019 3.27372 -1.51195 0
M  V30 3607 O 340.123 4.06054 -0.720701 0
M  V30 3608 H 339.464 0.566194 -0.346872 0
M  V30 3609 H 341.994 1.33541 -1.55009 0
M  V30 3610 H 342.004 3.78186 -1.53099 0
M  V30 3611 H 340.679 3.27366 -2.56523 0
M  V30 3612 H 339.256 3.64812 -0.772458 0
M  V30 3613 N 341.441 0.965919 1.2453 0
M  V30 3614 C 342.69 0.622437 1.91856 0
M  V30 3615 C 343.003 -0.846006 1.76358 0
M  V30 3616 O 344.209 -1.29993 2.38357 0
M  V30 3617 C 342.665 1.0626 3.43856 0
M  V30 3618 C 342.273 2.55437 3.68043 0
M  V30 3619 C 344.017 0.792183 4.17043 0
M  V30 3620 C 341.924 2.93196 5.13605 0
M  V30 3621 H 340.854 0.229092 0.718354 0
M  V30 3622 H 343.505 1.17189 1.41206 0
M  V30 3623 H 341.887 0.441476 3.93531 0
M  V30 3624 H 343.061 3.22665 3.28974 0
M  V30 3625 H 341.376 2.8007 3.08139 0
M  V30 3626 H 343.973 1.05031 5.24283 0
M  V30 3627 H 344.316 -0.271584 4.15413 0
M  V30 3628 H 344.849 1.37419 3.73311 0
M  V30 3629 H 341.588 3.98636 5.20355 0
M  V30 3630 H 341.108 2.30651 5.53679 0
M  V30 3631 H 342.787 2.83004 5.81823 0
M  V30 3632 N 342.919 -1.39368 0.735821 0
M  V30 3633 C 344.33 -1.83313 0.354015 0
M  V30 3634 C 344.681 -1.61461 -1.11466 0
M  V30 3635 O 343.806 -1.10621 -1.85989 0
M  V30 3636 C 344.401 -3.32781 0.635769 0
M  V30 3637 C 342.96 -3.75142 0.307448 0
M  V30 3638 C 342.107 -2.62358 0.897974 0
M  V30 3639 H 345.058 -1.28349 0.933398 0
M  V30 3640 H 345.079 -3.80388 -0.0921773 0
M  V30 3641 H 344.591 -3.48654 1.70476 0
M  V30 3642 H 342.692 -3.64857 -0.755674 0
M  V30 3643 H 342.805 -4.72532 0.790583 0
M  V30 3644 H 341.169 -2.52624 0.324551 0
M  V30 3645 H 341.952 -2.81036 1.97164 0
M  V30 3646 N 344.397 -0.483516 -1.5 0
M  V30 3647 C 345.347 0.32306 -2.257 0
M  V30 3648 C 346.331 0.950755 -1.29805 0
M  V30 3649 O 347.523 0.861247 -1.54634 0
M  V30 3650 C 344.652 1.39724 -3.13579 0
M  V30 3651 C 343.738 0.776663 -4.16928 0
M  V30 3652 N 344.129 -0.1104 -5.0568 0
M  V30 3653 C 342.427 1.03922 -4.33724 0
M  V30 3654 C 343.128 -0.46387 -5.79848 0
M  V30 3655 N 342.104 0.163987 -5.43353 0
M  V30 3656 H 345.906 -0.360086 -2.91686 0
M  V30 3657 H 343.42 -0.298456 -1.59634 0
M  V30 3658 H 345.417 1.98837 -3.66428 0
M  V30 3659 H 344.077 2.08225 -2.49143 0
M  V30 3660 H 345.088 -0.480069 -5.1567 0
M  V30 3661 H 341.765 1.71829 -3.80501 0
M  V30 3662 H 343.155 -1.18854 -6.61304 0
M  V30 3663 N 345.875 1.56104 -0.216619 0
M  V30 3664 C 346.807 2.17339 0.72776 0
M  V30 3665 C 347.82 1.14109 1.16116 0
M  V30 3666 O 349.009 1.4111 1.09317 0
M  V30 3667 C 346.109 2.73818 1.99693 0
M  V30 3668 C 345.282 4.02168 1.71988 0
M  V30 3669 C 344.341 4.43259 2.83562 0
M  V30 3670 O 343.367 5.10257 2.52244 0
M  V30 3671 N 344.569 4.08535 4.12407 0
M  V30 3672 H 347.334 2.99005 0.203983 0
M  V30 3673 H 344.895 1.61861 -0.0354289 0
M  V30 3674 H 346.887 2.9828 2.73516 0
M  V30 3675 H 345.457 1.96483 2.43132 0
M  V30 3676 H 344.677 3.85612 0.818337 0
M  V30 3677 H 345.965 4.85907 1.50903 0
M  V30 3678 H 345.363 3.54687 4.40696 0
M  V30 3679 H 343.92 4.37901 4.8279 0
M  V30 3680 N 347.353 -0.0568162 1.57498 0
M  V30 3681 C 348.583 -0.764515 1.91934 0
M  V30 3682 C 348.991 -1.70877 0.81227 0
M  V30 3683 O 348.334 -1.82351 -0.222213 0
M  V30 3684 C 348.396 -1.5994 3.21962 0
M  V30 3685 C 348.06 -0.822925 4.4953 0
M  V30 3686 C 349.057 -0.135464 5.19723 0
M  V30 3687 C 346.742 -0.785666 4.96117 0
M  V30 3688 C 348.736 0.578861 6.34766 0
M  V30 3689 C 346.423 -0.0675784 6.11063 0
M  V30 3690 C 347.421 0.613471 6.80239 0
M  V30 3691 O 347.109 1.31996 7.92989 0
M  V30 3692 H 346.841 -0.221647 0.63863 0
M  V30 3693 H 349.395 -0.0268218 2.05382 0
M  V30 3694 H 347.625 -2.38026 3.04763 0
M  V30 3695 H 349.314 -2.18715 3.41934 0
M  V30 3696 H 350.08 -0.155458 4.84751 0
M  V30 3697 H 345.959 -1.30524 4.42136 0
M  V30 3698 H 349.503 1.111 6.88696 0
M  V30 3699 H 345.4 -0.0455636 6.45484 0
M  V30 3700 H 346.168 1.23077 8.09194 0
M  V30 3701 N 348.832 -1.54138 -0.328536 0
M  V30 3702 C 350.078 -1.73297 -1.06488 0
M  V30 3703 C 350.433 -0.497958 -1.85844 0
M  V30 3704 O 349.726 0.509591 -1.84699 0
M  V30 3705 C 349.92 -2.9457 -2.02393 0
M  V30 3706 C 349.749 -4.29747 -1.32467 0
M  V30 3707 C 348.519 -4.93987 -1.06324 0
M  V30 3708 C 350.717 -5.08903 -0.743137 0
M  V30 3709 N 348.699 -6.13005 -0.331359 0
M  V30 3710 C 350.07 -6.19836 -0.142602 0
M  V30 3711 C 352.125 -4.93699 -0.64546 0
M  V30 3712 C 350.828 -7.17224 0.546125 0
M  V30 3713 C 352.854 -5.91393 0.0295558 0
M  V30 3714 C 352.216 -7.01674 0.619056 0
M  V30 3715 H 348.315 -0.687017 -0.373539 0
M  V30 3716 H 350.899 -1.91589 -0.346659 0
M  V30 3717 H 349.07 -2.77752 -2.71493 0
M  V30 3718 H 350.802 -3.0238 -2.68977 0
M  V30 3719 H 347.557 -4.53824 -1.35428 0
M  V30 3720 H 347.981 -6.76997 0.0202939 0
M  V30 3721 H 352.623 -4.08589 -1.08695 0
M  V30 3722 H 350.341 -8.01896 0.999459 0
M  V30 3723 H 353.927 -5.81706 0.104705 0
M  V30 3724 H 352.807 -7.75971 1.13309 0
M  V30 3725 N 350.31 0.590341 -1.46126 0
M  V30 3726 C 351.24 1.71032 -1.58966 0
M  V30 3727 C 352.221 1.64302 -0.440335 0
M  V30 3728 O 353.406 1.82436 -0.665634 0
M  V30 3729 C 350.536 3.09665 -1.57241 0
M  V30 3730 C 349.49 3.31221 -2.71066 0
M  V30 3731 C 348.816 4.70303 -2.54399 0
M  V30 3732 C 350.116 3.19796 -4.1295 0
M  V30 3733 H 351.81 1.60543 -2.52718 0
M  V30 3734 H 349.356 0.770933 -1.21625 0
M  V30 3735 H 351.309 3.87831 -1.64819 0
M  V30 3736 H 350.033 3.21036 -0.600289 0
M  V30 3737 H 348.692 2.55452 -2.62944 0
M  V30 3738 H 348.34 4.78429 -1.55288 0
M  V30 3739 H 348.04 4.85679 -3.30741 0
M  V30 3740 H 349.564 5.50647 -2.63857 0
M  V30 3741 H 350.978 3.87815 -4.22223 0
M  V30 3742 H 349.375 3.46696 -4.89818 0
M  V30 3743 H 350.445 2.16983 -4.33643 0
M  V30 3744 N 351.788 1.33704 0.83433 0
M  V30 3745 C 353.016 1.28467 1.62185 0
M  V30 3746 C 353.431 -0.143526 1.88254 0
M  V30 3747 O 352.788 -1.08709 1.4659 0
M  V30 3748 C 352.839 2.06174 2.96942 0
M  V30 3749 O 352.56 3.43422 2.72016 0
M  V30 3750 C 354.061 2.08201 3.91366 0
M  V30 3751 H 351.281 0.4424 0.504503 0
M  V30 3752 H 353.825 1.76145 1.03891 0
M  V30 3753 H 351.98 1.62167 3.51825 0
M  V30 3754 H 352.394 3.83453 3.57861 0
M  V30 3755 H 353.868 2.67017 4.83121 0
M  V30 3756 H 354.345 1.07343 4.2588 0
M  V30 3757 H 354.951 2.52246 3.42421 0
M  V30 3758 N 353.266 -1.05314 1.17247 0
M  V30 3759 C 354.196 -2.1498 0.911362 0
M  V30 3760 C 355.177 -1.69471 -0.146169 0
M  V30 3761 O 356.362 -1.942 0.003812 0
M  V30 3762 C 353.492 -3.4472 0.422528 0
M  V30 3763 C 352.446 -4.03789 1.4191 0
M  V30 3764 C 351.772 -5.28858 0.788274 0
M  V30 3765 C 353.072 -4.41418 2.7919 0
M  V30 3766 H 354.766 -2.3708 1.82848 0
M  V30 3767 H 352.312 -1.13938 0.880569 0
M  V30 3768 H 354.265 -4.20787 0.227289 0
M  V30 3769 H 352.989 -3.22269 -0.530123 0
M  V30 3770 H 351.648 -3.2979 1.60106 0
M  V30 3771 H 351.296 -5.02709 -0.171173 0
M  V30 3772 H 350.996 -5.69338 1.45353 0
M  V30 3773 H 352.52 -6.07612 0.603282 0
M  V30 3774 H 353.934 -5.08524 2.64719 0
M  V30 3775 H 352.331 -4.92913 3.42282 0
M  V30 3776 H 353.401 -3.51819 3.33693 0
M  V30 3777 N 354.744 -0.972509 -1.24016 0
M  V30 3778 C 355.676 -0.464375 -2.24446 0
M  V30 3779 C 356.689 0.4295 -1.57032 0
M  V30 3780 O 357.878 0.234902 -1.76948 0
M  V30 3781 C 354.978 0.348385 -3.37105 0
M  V30 3782 C 354.151 -0.53673 -4.34094 0
M  V30 3783 C 353.21 0.220838 -5.25736 0
M  V30 3784 O 352.236 -0.386867 -5.67884 0
M  V30 3785 N 353.438 1.50907 -5.60542 0
M  V30 3786 H 356.203 -1.32788 -2.68677 0
M  V30 3787 H 353.764 -0.844877 -1.38107 0
M  V30 3788 H 355.756 0.863341 -3.95384 0
M  V30 3789 H 354.326 1.11285 -2.92121 0
M  V30 3790 H 353.546 -1.23261 -3.74433 0
M  V30 3791 H 354.834 -1.14022 -4.95859 0
M  V30 3792 H 354.232 2.02444 -5.28236 0
M  V30 3793 H 352.789 1.96962 -6.21329 0
M  V30 3794 N 356.222 1.38976 -0.743202 0
M  V30 3795 C 357.452 2.04339 -0.304807 0
M  V30 3796 C 357.86 1.56162 1.06819 0
M  V30 3797 O 357.203 0.725284 1.68776 0
M  V30 3798 C 357.265 3.58716 -0.237369 0
M  V30 3799 C 356.929 4.29905 -1.55018 0
M  V30 3800 C 357.926 4.55987 -2.49744 0
M  V30 3801 C 355.611 4.68294 -1.81675 0
M  V30 3802 C 357.605 5.19478 -3.69353 0
M  V30 3803 C 355.292 5.31512 -3.0156 0
M  V30 3804 C 356.29 5.57037 -3.9522 0
M  V30 3805 O 355.978 6.18941 -5.12998 0
M  V30 3806 H 355.71 0.663439 -0.12971 0
M  V30 3807 H 358.264 1.78852 -1.01001 0
M  V30 3808 H 356.494 3.83133 0.524003 0
M  V30 3809 H 358.183 4.05543 0.170121 0
M  V30 3810 H 358.949 4.26767 -2.30423 0
M  V30 3811 H 354.828 4.47779 -1.09615 0
M  V30 3812 H 358.372 5.39318 -4.42473 0
M  V30 3813 H 354.269 5.60153 -3.20778 0
M  V30 3814 H 355.037 6.37433 -5.13441 0
M  V30 3815 N 357.7 0.491464 1.49741 0
M  V30 3816 C 358.63 -0.28154 2.31796 0
M  V30 3817 C 359.611 -0.971473 1.3963 0
M  V30 3818 O 360.796 -0.964719 1.68543 0
M  V30 3819 C 357.926 -1.35203 3.19902 0
M  V30 3820 C 356.88 -0.782529 4.20786 0
M  V30 3821 C 356.206 -1.95283 4.97764 0
M  V30 3822 C 357.506 0.21999 5.21837 0
M  V30 3823 H 359.2 0.403355 2.96671 0
M  V30 3824 H 356.746 0.195425 1.42668 0
M  V30 3825 H 358.699 -1.90045 3.76113 0
M  V30 3826 H 357.423 -2.06598 2.52953 0
M  V30 3827 H 356.082 -0.255928 3.65706 0
M  V30 3828 H 355.73 -2.65423 4.2727 0
M  V30 3829 H 355.43 -1.57789 5.66018 0
M  V30 3830 H 356.954 -2.50577 5.56816 0
M  V30 3831 H 358.368 -0.23996 5.72798 0
M  V30 3832 H 356.765 0.51026 5.97927 0
M  V30 3833 H 357.835 1.13911 4.7133 0
M  V30 3834 N 359.178 -1.55987 0.224894 0
M  V30 3835 C 360.108 -2.23426 -0.678457 0
M  V30 3836 C 361.089 -1.20709 -1.19847 0
M  V30 3837 O 362.274 -1.49304 -1.24186 0
M  V30 3838 C 359.404 -2.91676 -1.88527 0
M  V30 3839 C 358.358 -4.00893 -1.49896 0
M  V30 3840 C 357.684 -4.56455 -2.78483 0
M  V30 3841 C 358.984 -5.17769 -0.686461 0
M  V30 3842 H 360.678 -2.99175 -0.116173 0
M  V30 3843 H 358.224 -1.43897 -0.054436 0
M  V30 3844 H 360.177 -3.37547 -2.5227 0
M  V30 3845 H 358.901 -2.1338 -2.47258 0
M  V30 3846 H 357.56 -3.55758 -0.884985 0
M  V30 3847 H 357.208 -3.74886 -3.35365 0
M  V30 3848 H 356.908 -5.30169 -2.53368 0
M  V30 3849 H 358.432 -5.05047 -3.43162 0
M  V30 3850 H 359.846 -5.60001 -1.22767 0
M  V30 3851 H 358.243 -5.97735 -0.532259 0
M  V30 3852 H 359.313 -4.83932 0.306196 0
M  V30 3853 N 360.656 0.0484629 -1.57525 0
M  V30 3854 C 361.603 1.05504 -2.05275 0
M  V30 3855 C 362.573 1.37084 -0.937927 0
M  V30 3856 O 363.758 1.47754 -1.2072 0
M  V30 3857 C 360.898 2.35676 -2.52093 0
M  V30 3858 C 360.011 2.10423 -3.77288 0
M  V30 3859 C 359.146 3.34327 -4.12794 0
M  V30 3860 C 358.185 3.04542 -5.30962 0
M  V30 3861 N 357.322 4.20841 -5.61994 0
M  V30 3862 H 362.162 0.640885 -2.91027 0
M  V30 3863 H 359.699 0.304854 -1.43906 0
M  V30 3864 H 361.657 3.11709 -2.77297 0
M  V30 3865 H 360.287 2.7485 -1.69285 0
M  V30 3866 H 359.339 1.24976 -3.59284 0
M  V30 3867 H 360.651 1.84438 -4.63448 0
M  V30 3868 H 359.805 4.1874 -4.39024 0
M  V30 3869 H 358.544 3.63408 -3.25247 0
M  V30 3870 H 357.549 2.18528 -5.04505 0
M  V30 3871 H 358.774 2.76758 -6.20146 0
M  V30 3872 H 356.72 4.4991 -4.77406 0
M  V30 3873 H 356.637 3.98212 -6.42622 0
M  V30 3874 H 357.905 5.06184 -5.92789 0
M  V30 3875 N 362.134 1.5431 0.320358 0
M  V30 3876 C 363.084 1.803 1.39556 0
M  V30 3877 C 364.068 0.659166 1.46778 0
M  V30 3878 O 365.26 0.91926 1.51257 0
M  V30 3879 C 362.389 2.03665 2.76361 0
M  V30 3880 C 361.475 3.24178 2.73439 0
M  V30 3881 N 361.866 4.4516 2.40137 0
M  V30 3882 C 360.164 3.25816 3.04565 0
M  V30 3883 C 360.865 5.27109 2.4603 0
M  V30 3884 N 359.841 4.64368 2.82601 0
M  V30 3885 H 363.643 2.71416 1.12742 0
M  V30 3886 H 361.157 1.53548 0.528856 0
M  V30 3887 H 363.154 2.20425 3.53862 0
M  V30 3888 H 361.814 1.13805 3.04103 0
M  V30 3889 H 362.825 4.72104 2.12927 0
M  V30 3890 H 359.502 2.46001 3.37328 0
M  V30 3891 H 360.892 6.33728 2.23246 0
M  V30 3892 N 363.613 -0.582584 1.46437 0
M  V30 3893 C 364.86 -1.34079 1.51753 0
M  V30 3894 C 365.188 -1.93762 0.169299 0
M  V30 3895 O 364.443 -1.76989 -0.835062 0
M  V30 3896 C 364.742 -2.48964 2.56421 0
M  V30 3897 C 364.408 -2.07273 4.00436 0
M  V30 3898 C 363.07 -1.95618 4.39644 0
M  V30 3899 C 365.422 -1.75111 4.90903 0
M  V30 3900 C 362.75 -1.5006 5.67185 0
M  V30 3901 C 365.102 -1.31032 6.18881 0
M  V30 3902 C 363.766 -1.17954 6.56996 0
M  V30 3903 H 363.036 -0.49063 0.555304 0
M  V30 3904 H 365.683 -0.656007 1.79913 0
M  V30 3905 H 363.988 -3.22889 2.21923 0
M  V30 3906 H 365.685 -3.07178 2.57765 0
M  V30 3907 H 362.275 -2.17279 3.69443 0
M  V30 3908 H 366.459 -1.83001 4.61329 0
M  V30 3909 H 361.715 -1.38577 5.95488 0
M  V30 3910 H 365.889 -1.052 6.88408 0
M  V30 3911 H 363.516 -0.824279 7.55718 0
M  V30 3912 N 365.091 -1.34144 -0.827227 0
M  V30 3913 C 366.338 -1.26258 -1.58319 0
M  V30 3914 C 366.666 0.168595 -1.93768 0
M  V30 3915 O 365.921 1.12877 -1.59866 0
M  V30 3916 C 366.22 -2.09464 -2.89585 0
M  V30 3917 C 365.886 -3.58521 -2.73448 0
M  V30 3918 C 364.548 -3.99155 -2.68754 0
M  V30 3919 C 366.9 -4.53189 -2.57428 0
M  V30 3920 C 364.228 -5.32656 -2.45957 0
M  V30 3921 C 366.58 -5.86864 -2.36163 0
M  V30 3922 C 365.244 -6.26667 -2.29879 0
M  V30 3923 H 364.514 -0.462013 -0.579332 0
M  V30 3924 H 367.161 -1.65845 -0.95748 0
M  V30 3925 H 365.466 -1.62692 -3.56425 0
M  V30 3926 H 367.163 -2.00712 -3.47154 0
M  V30 3927 H 363.753 -3.26264 -2.77939 0
M  V30 3928 H 367.937 -4.22696 -2.60081 0
M  V30 3929 H 363.193 -5.62519 -2.39546 0
M  V30 3930 H 367.367 -6.59813 -2.22754 0
M  V30 3931 H 364.994 -7.30049 -2.11975 0
M  V30 3932 N 366.569 1.04691 -1.17803 0
M  V30 3933 C 367.516 2.12557 -0.899343 0
M  V30 3934 C 368.486 1.65339 0.158771 0
M  V30 3935 O 369.671 1.90789 0.0204797 0
M  V30 3936 C 366.811 3.42481 -0.424315 0
M  V30 3937 C 365.924 4.03346 -1.54713 0
M  V30 3938 C 365.059 5.21208 -1.02546 0
M  V30 3939 C 364.098 5.74089 -2.12339 0
M  V30 3940 N 363.235 6.83247 -1.61612 0
M  V30 3941 H 368.075 2.35734 -1.823 0
M  V30 3942 H 365.612 1.1564 -0.909159 0
M  V30 3943 H 367.57 4.16996 -0.130421 0
M  V30 3944 H 366.2 3.19471 0.462377 0
M  V30 3945 H 365.252 3.2622 -1.95664 0
M  V30 3946 H 366.564 4.38628 -2.37501 0
M  V30 3947 H 365.718 6.02812 -0.685718 0
M  V30 3948 H 364.457 4.87414 -0.167084 0
M  V30 3949 H 363.462 4.91111 -2.47165 0
M  V30 3950 H 364.687 6.0993 -2.98601 0
M  V30 3951 H 362.633 6.5134 -0.780533 0
M  V30 3952 H 362.55 7.17559 -2.38003 0
M  V30 3953 H 363.818 7.68491 -1.30545 0
M  V30 3954 N 368.047 0.979072 1.23499 0
M  V30 3955 C 368.977 0.537606 2.27227 0
M  V30 3956 C 369.958 -0.428539 1.64613 0
M  V30 3957 O 371.143 -0.322191 1.91509 0
M  V30 3958 C 368.273 -0.162052 3.46922 0
M  V30 3959 C 367.227 0.721242 4.21879 0
M  V30 3960 C 366.553 -0.110555 5.34586 0
M  V30 3961 C 367.853 2.01141 4.82016 0
M  V30 3962 H 369.547 1.40462 2.64406 0
M  V30 3963 H 367.093 0.67684 1.27102 0
M  V30 3964 H 369.046 -0.482192 4.18632 0
M  V30 3965 H 367.77 -1.06351 3.08799 0
M  V30 3966 H 366.429 1.02482 3.51984 0
M  V30 3967 H 366.077 -1.0125 4.92704 0
M  V30 3968 H 365.777 0.477325 5.85658 0
M  V30 3969 H 367.301 -0.425107 6.09118 0
M  V30 3970 H 368.715 1.75612 5.45741 0
M  V30 3971 H 367.112 2.54695 5.43369 0
M  V30 3972 H 368.182 2.69909 4.02836 0
M  V30 3973 N 369.525 -1.3858 0.750561 0
M  V30 3974 C 370.75 -2.04997 0.314812 0
M  V30 3975 C 371.175 -1.56235 -1.04749 0
M  V30 3976 O 370.533 -0.712981 -1.66692 0
M  V30 3977 C 370.581 -3.58961 0.343415 0
M  V30 3978 O 369.685 -4.07025 -0.663628 0
M  V30 3979 H 369.026 -0.649081 0.139962 0
M  V30 3980 H 371.556 -1.77313 1.02084 0
M  V30 3981 H 371.566 -4.07542 0.193233 0
M  V30 3982 H 370.241 -3.93811 1.33738 0
M  V30 3983 H 368.818 -3.6982 -0.478307 0
M  V30 3984 N 371.003 -0.499398 -1.49478 0
M  V30 3985 C 371.935 0.316575 -2.27003 0
M  V30 3986 C 372.948 0.932047 -1.33479 0
M  V30 3987 O 374.137 0.815658 -1.58774 0
M  V30 3988 C 371.237 1.46055 -3.05812 0
M  V30 3989 C 370.41 0.952679 -4.26899 0
M  V30 3990 C 369.469 1.97407 -4.87767 0
M  V30 3991 O 368.495 1.54326 -5.4788 0
M  V30 3992 N 369.697 3.30436 -4.77276 0
M  V30 3993 H 372.462 -0.348168 -2.97671 0
M  V30 3994 H 370.023 -0.33185 -1.58463 0
M  V30 3995 H 372.015 2.14135 -3.43407 0
M  V30 3996 H 370.585 2.02948 -2.37762 0
M  V30 3997 H 369.805 0.0968248 -3.94081 0
M  V30 3998 H 371.093 0.59174 -5.05347 0
M  V30 3999 H 370.491 3.68126 -4.29534 0
M  V30 4000 H 369.048 3.94235 -5.19059 0
M  V30 4001 N 372.481 1.55866 -0.233164 0
M  V30 4002 C 373.709 2.02998 0.399905 0
M  V30 4003 C 374.124 1.11274 1.52524 0
M  V30 4004 O 373.481 0.124528 1.82075 0
M  V30 4005 C 373.532 3.4958 0.920639 0
M  V30 4006 O 373.253 4.37808 -0.159834 0
M  V30 4007 C 374.754 4.12411 1.62578 0
M  V30 4008 H 371.974 0.664006 0.0966281 0
M  V30 4009 H 374.518 2.0143 -0.353013 0
M  V30 4010 H 372.673 3.51727 1.62379 0
M  V30 4011 H 373.087 5.23981 0.23337 0
M  V30 4012 H 374.561 5.16711 1.94201 0
M  V30 4013 H 375.038 3.5809 2.54299 0
M  V30 4014 H 375.644 4.14148 0.967553 0
M  V30 4015 N 373.959 -0.0401083 1.57549 0
M  V30 4016 C 375.184 -0.748931 1.93406 0
M  V30 4017 C 375.609 -1.68686 0.832274 0
M  V30 4018 O 374.967 -1.80047 -0.212818 0
M  V30 4019 C 375.015 -1.4916 3.28304 0
M  V30 4020 O 374.119 -2.6042 3.19774 0
M  V30 4021 H 373.46 -0.202212 0.63246 0
M  V30 4022 H 375.99 0.00112086 2.046 0
M  V30 4023 H 376 -1.86395 3.62934 0
M  V30 4024 H 374.675 -0.80364 4.08062 0
M  V30 4025 H 373.252 -2.25808 2.96758 0
M  V30 4026 N 375.437 -1.54477 -0.31217 0
M  V30 4027 C 376.662 -1.77526 -1.07235 0
M  V30 4028 C 377.087 -0.527775 -1.80544 0
M  V30 4029 O 376.445 0.52121 -1.73646 0
M  V30 4030 C 376.493 -2.97535 -2.03728 0
M  V30 4031 O 375.597 -2.69878 -3.11833 0
M  V30 4032 H 374.938 -0.58792 -0.30862 0
M  V30 4033 H 377.468 -2.01532 -0.352993 0
M  V30 4034 H 377.478 -3.25198 -2.46395 0
M  V30 4035 H 376.153 -3.87996 -1.49774 0
M  V30 4036 H 374.73 -2.53199 -2.7376 0
M  V30 4037 N 376.915 0.57481 -1.46744 0
M  V30 4038 C 377.862 1.68329 -1.57905 0
M  V30 4039 C 378.832 1.60625 -0.422927 0
M  V30 4040 O 380.017 1.79721 -0.640711 0
M  V30 4041 C 377.157 3.06665 -1.58274 0
M  V30 4042 C 376.27 3.24935 -2.84678 0
M  V30 4043 C 375.405 4.53566 -2.76499 0
M  V30 4044 C 374.444 4.65207 -3.97806 0
M  V30 4045 N 373.581 5.85172 -3.87967 0
M  V30 4046 H 378.421 1.58127 -2.52587 0
M  V30 4047 H 375.958 0.770552 -1.25303 0
M  V30 4048 H 377.916 3.86745 -1.56473 0
M  V30 4049 H 376.546 3.15745 -0.671194 0
M  V30 4050 H 375.598 2.38405 -2.96424 0
M  V30 4051 H 376.91 3.29403 -3.7456 0
M  V30 4052 H 376.064 5.41885 -2.72848 0
M  V30 4053 H 374.803 4.51548 -1.8427 0
M  V30 4054 H 373.808 3.75304 -4.0178 0
M  V30 4055 H 375.033 4.68997 -4.9114 0
M  V30 4056 H 372.979 5.84137 -2.98529 0
M  V30 4057 H 372.896 5.90943 -4.71511 0
M  V30 4058 H 374.164 6.759 -3.88303 0
M  V30 4059 N 378.394 1.34581 0.820102 0
M  V30 4060 C 379.342 1.26401 1.95258 0
M  V30 4061 C 380.336 0.161553 1.68628 0
M  V30 4062 O 381.542 0.326703 1.7701 0
M  V30 4063 H 377.917 0.392749 0.64129 0
M  V30 4064 H 379.888 2.22105 1.99279 0
M  V30 4065 C 378.637 1.03919 3.31807 0
M  V30 4066 H 377.96 1.87984 3.52848 0
M  V30 4067 H 379.4 1.02232 4.11491 0
M  V30 4068 C 377.859 -0.257433 3.35915 0
M  V30 4069 O 378.389 -1.25784 3.81499 0
M  V30 4070 N 376.595 -0.291524 2.89134 0
M  V30 4071 H 376.142 0.523161 2.52232 0
M  V30 4072 H 376.1 -1.15883 2.92264 0
M  V30 4073 N 379.872 -1.04064 1.18357 0
M  V30 4074 C 380.802 -2.14001 0.934113 0
M  V30 4075 C 381.783 -1.69616 -0.128186 0
M  V30 4076 O 382.968 -1.94185 0.0244093 0
M  V30 4077 C 380.098 -3.44253 0.459066 0
M  V30 4078 C 379.052 -4.02261 1.46185 0
M  V30 4079 C 378.378 -5.27992 0.844322 0
M  V30 4080 C 379.678 -4.38432 2.83856 0
M  V30 4081 H 381.372 -2.35127 1.85352 0
M  V30 4082 H 378.918 -1.12998 0.892604 0
M  V30 4083 H 380.871 -4.20522 0.271907 0
M  V30 4084 H 379.595 -3.22813 -0.495912 0
M  V30 4085 H 378.254 -3.28074 1.63595 0
M  V30 4086 H 377.902 -5.02862 -0.117845 0
M  V30 4087 H 377.602 -5.67765 1.51384 0
M  V30 4088 H 379.126 -6.06938 0.667693 0
M  V30 4089 H 380.54 -5.05688 2.70098 0
M  V30 4090 H 378.937 -4.89254 3.47491 0
M  V30 4091 H 380.007 -3.4826 3.37406 0
M  V30 4092 N 381.35 -0.985608 -1.22978 0
M  V30 4093 C 382.28 -0.549649 -2.26939 0
M  V30 4094 C 383.261 0.419803 -1.64838 0
M  V30 4095 O 384.446 0.31203 -1.91677 0
M  V30 4096 C 381.576 0.143652 -3.47003 0
M  V30 4097 C 380.53 -0.743606 -4.21491 0
M  V30 4098 C 379.856 0.0822027 -5.34637 0
M  V30 4099 C 381.156 -2.03694 -4.80943 0
M  V30 4100 H 382.85 -1.41862 -2.63658 0
M  V30 4101 H 380.396 -0.683571 -1.26741 0
M  V30 4102 H 382.349 0.459985 -4.18882 0
M  V30 4103 H 381.073 1.04711 -3.09359 0
M  V30 4104 H 379.732 -1.04347 -3.51436 0
M  V30 4105 H 379.38 0.986359 -4.93234 0
M  V30 4106 H 379.08 -0.508377 -5.85397 0
M  V30 4107 H 380.604 0.392797 -6.09335 0
M  V30 4108 H 382.018 -1.78504 -5.44802 0
M  V30 4109 H 380.415 -2.57573 -5.42011 0
M  V30 4110 H 381.485 -2.72042 -4.01399 0
M  V30 4111 N 382.828 1.3818 -0.7579 0
M  V30 4112 C 383.776 2.32277 -0.122482 0
M  V30 4113 C 384.77 1.54238 0.700505 0
M  V30 4114 O 385.976 1.69737 0.599119 0
M  V30 4115 H 382.351 0.751712 -0.0208143 0
M  V30 4116 H 384.322 2.83469 -0.932099 0
M  V30 4117 C 383.071 3.39447 0.753076 0
M  V30 4118 H 382.394 3.99591 0.129184 0
M  V30 4119 H 383.834 4.07684 1.16489 0
M  V30 4120 C 382.293 2.78375 1.8976 0
M  V30 4121 O 382.823 2.68025 2.99208 0
M  V30 4122 N 381.029 2.36121 1.69397 0
M  V30 4123 H 380.576 2.4474 0.803762 0
M  V30 4124 H 380.534 1.95602 2.46145 0
M  V30 4125 N 384.306 0.507319 1.49211 0
M  V30 4126 C 385.269 -0.256763 2.27757 0
M  V30 4127 C 386.269 -0.888287 1.34038 0
M  V30 4128 O 387.459 -0.751841 1.5714 0
M  V30 4129 C 384.591 -1.36905 3.12202 0
M  V30 4130 H 385.784 0.432557 2.96764 0
M  V30 4131 H 383.337 0.262488 1.5408 0
M  V30 4132 H 384.072 -2.09233 2.47775 0
M  V30 4133 H 383.857 -0.921599 3.81115 0
M  V30 4134 H 385.347 -1.9071 3.7151 0
M  V30 4135 N 385.784 -1.5574 0.241426 0
M  V30 4136 C 387.2 -1.59196 -0.113548 0
M  V30 4137 C 387.4 -1.25852 -1.57364 0
M  V30 4138 O 386.456 -1.00322 -2.31715 0
M  V30 4139 C 387.769 -2.99814 0.230695 0
M  V30 4140 C 389.317 -3.12513 0.174547 0
M  V30 4141 C 389.792 -4.55342 0.492744 0
M  V30 4142 N 391.283 -4.61076 0.443043 0
M  V30 4143 C 392.018 -5.6956 0.662484 0
M  V30 4144 N 391.514 -6.86328 0.944761 0
M  V30 4145 N 393.307 -5.58957 0.593564 0
M  V30 4146 H 385.458 -1.75685 1.19368 0
M  V30 4147 H 387.721 -0.81756 0.479896 0
M  V30 4148 H 387.427 -3.28932 1.24485 0
M  V30 4149 H 387.301 -3.74568 -0.444833 0
M  V30 4150 H 389.688 -2.83179 -0.830277 0
M  V30 4151 H 389.769 -2.40045 0.883845 0
M  V30 4152 H 389.413 -4.85396 1.4951 0
M  V30 4153 H 389.343 -5.26062 -0.23797 0
M  V30 4154 H 391.834 -3.77179 0.233374 0
M  V30 4155 H 392.147 -7.64935 1.09977 0
M  V30 4156 H 390.492 -6.88025 0.982175 0
M  V30 4157 H 393.683 -4.66611 0.373123 0
M  V30 4158 H 393.856 -6.43433 0.767981 0
M  V30 4159 N 387.262 0.0317525 -1.57568 0
M  V30 4160 C 388.508 0.724175 -1.8943 0
M  V30 4161 C 388.841 1.75149 -0.838836 0
M  V30 4162 O 388.116 1.93948 0.146422 0
M  V30 4163 C 388.399 1.39615 -3.31933 0
M  V30 4164 C 388.252 0.382537 -4.4817 0
M  V30 4165 C 389.571 2.33084 -3.73309 0
M  V30 4166 H 386.69 0.261797 -0.688935 0
M  V30 4167 H 389.332 -0.013017 -1.89996 0
M  V30 4168 H 387.482 2.02451 -3.31581 0
M  V30 4169 H 389.154 -0.243689 -4.60656 0
M  V30 4170 H 387.397 -0.29844 -4.32772 0
M  V30 4171 H 388.068 0.891145 -5.44759 0
M  V30 4172 H 390.544 1.80295 -3.7501 0
M  V30 4173 H 389.42 2.77084 -4.73831 0
M  V30 4174 H 389.681 3.19643 -3.05419 0
M  V30 4175 N 388.74 1.54641 0.303973 0
M  V30 4176 C 389.67 1.88386 1.3796 0
M  V30 4177 C 390.651 0.742485 1.5304 0
M  V30 4178 O 391.836 0.997959 1.66597 0
M  V30 4179 C 388.966 2.12854 2.74427 0
M  V30 4180 C 387.92 3.28702 2.74115 0
M  V30 4181 C 387.246 3.38582 4.13844 0
M  V30 4182 C 388.546 4.65881 2.3612 0
M  V30 4183 H 390.24 2.78474 1.09966 0
M  V30 4184 H 387.786 1.33988 0.527556 0
M  V30 4185 H 389.739 2.35047 3.49758 0
M  V30 4186 H 388.463 1.19535 3.03939 0
M  V30 4187 H 387.122 3.06428 2.0124 0
M  V30 4188 H 386.77 2.42784 4.40528 0
M  V30 4189 H 386.47 4.16453 4.14537 0
M  V30 4190 H 387.994 3.63031 4.90959 0
M  V30 4191 H 389.408 4.87823 3.01167 0
M  V30 4192 H 387.805 5.46444 2.48031 0
M  V30 4193 H 388.875 4.66799 1.3125 0
M  V30 4194 N 390.218 -0.567019 1.47046 0
M  V30 4195 C 391.443 -1.3551 1.57009 0
M  V30 4196 C 391.868 -1.86841 0.217259 0
M  V30 4197 O 391.226 -1.62435 -0.805268 0
M  V30 4198 C 391.274 -2.50777 2.5912 0
M  V30 4199 O 390.378 -3.52706 2.13711 0
M  V30 4200 H 389.719 -0.402919 0.52778 0
M  V30 4201 H 392.249 -0.686241 1.92748 0
M  V30 4202 H 392.259 -2.97481 2.79229 0
M  V30 4203 H 390.934 -2.12771 3.57353 0
M  V30 4204 H 389.511 -3.12374 2.03659 0
M  V30 4205 N 391.696 -1.35014 -0.812953 0
M  V30 4206 C 392.606 -1.2951 -1.95613 0
M  V30 4207 C 393.622 -0.20107 -1.72834 0
M  V30 4208 O 394.798 -0.42932 -1.96771 0
M  V30 4209 C 391.863 -1.06033 -3.30088 0
M  V30 4210 C 390.924 -2.24688 -3.65805 0
M  V30 4211 C 390.157 -2.02322 -4.93864 0
M  V30 4212 O 390.38 -0.986464 -5.61805 0
M  V30 4213 O 389.314 -2.89525 -5.27692 0
M  V30 4214 H 393.14 -2.25705 -2.03202 0
M  V30 4215 H 390.725 -1.15321 -0.949811 0
M  V30 4216 H 392.607 -0.94763 -4.10607 0
M  V30 4217 H 391.282 -0.128852 -3.23443 0
M  V30 4218 H 390.189 -2.41521 -2.85689 0
M  V30 4219 H 391.522 -3.16261 -3.77147 0
M  V30 4220 N 393.175 1.03435 -1.18907 0
M  V30 4221 C 394.424 1.76143 -0.982669 0
M  V30 4222 C 394.737 1.89416 0.487953 0
M  V30 4223 O 395.943 2.59041 0.813036 0
M  V30 4224 C 394.399 3.16722 -1.70924 0
M  V30 4225 C 394.007 3.11522 -3.21959 0
M  V30 4226 C 395.751 3.93764 -1.58588 0
M  V30 4227 C 393.658 4.46999 -3.87228 0
M  V30 4228 H 392.588 0.660292 -0.364047 0
M  V30 4229 H 395.239 1.158 -1.42347 0
M  V30 4230 H 393.621 3.775 -1.19623 0
M  V30 4231 H 394.795 2.60158 -3.80335 0
M  V30 4232 H 393.11 2.47978 -3.34508 0
M  V30 4233 H 395.707 4.93963 -2.04707 0
M  V30 4234 H 396.05 4.12794 -0.539142 0
M  V30 4235 H 396.583 3.39576 -2.07203 0
M  V30 4236 H 393.322 4.33174 -4.91976 0
M  V30 4237 H 392.842 4.98441 -3.33642 0
M  V30 4238 H 394.521 5.15898 -3.90459 0
M  V30 4239 N 394.653 0.992116 1.22453 0
M  V30 4240 C 395.9 0.667534 1.91181 0
M  V30 4241 C 396.228 -0.800317 1.77271 0
M  V30 4242 O 395.483 -1.59421 1.13505 0
M  V30 4243 C 395.782 1.01832 3.42586 0
M  V30 4244 C 395.448 2.47831 3.76684 0
M  V30 4245 C 394.11 2.87729 3.85701 0
M  V30 4246 C 396.462 3.42466 3.92895 0
M  V30 4247 C 393.79 4.21252 4.08367 0
M  V30 4248 C 396.142 4.75648 4.17064 0
M  V30 4249 C 394.806 5.15288 4.24305 0
M  V30 4250 H 394.076 0.244268 0.699581 0
M  V30 4251 H 396.723 1.24816 1.45235 0
M  V30 4252 H 395.028 0.355769 3.90181 0
M  V30 4253 H 396.725 0.745228 3.94014 0
M  V30 4254 H 393.315 2.15905 3.70247 0
M  V30 4255 H 397.499 3.12814 3.85307 0
M  V30 4256 H 392.755 4.51554 4.122 0
M  V30 4257 H 396.929 5.48924 4.2855 0
M  V30 4258 H 394.556 6.18769 4.41621 0
M  V30 4259 N 396.131 -1.37776 0.765217 0
M  V30 4260 C 397.356 -2.04651 0.336537 0
M  V30 4261 C 397.781 -1.57337 -1.03086 0
M  V30 4262 O 397.139 -0.730621 -1.65927 0
M  V30 4263 C 397.187 -3.58577 0.381468 0
M  V30 4264 O 396.291 -4.07706 -0.62042 0
M  V30 4265 H 395.632 -0.64756 0.146838 0
M  V30 4266 H 398.162 -1.76221 1.03959 0
M  V30 4267 H 398.172 -4.07314 0.236448 0
M  V30 4268 H 396.847 -3.9237 1.37907 0
M  V30 4269 H 395.424 -3.70306 -0.439056 0
M  V30 4270 N 397.609 -0.515225 -1.4894 0
M  V30 4271 C 399.02 -0.0710067 -1.86565 0
M  V30 4272 C 399.371 1.34733 -1.42623 0
M  V30 4273 O 398.496 2.00653 -0.810379 0
M  V30 4274 C 399.091 -0.122083 -3.3858 0
M  V30 4275 C 397.65 0.266863 -3.75453 0
M  V30 4276 C 396.797 -0.488376 -2.72966 0
M  V30 4277 H 399.748 -0.727266 -1.41055 0
M  V30 4278 H 399.769 0.669818 -3.74558 0
M  V30 4279 H 399.281 -1.15448 -3.70531 0
M  V30 4280 H 397.382 1.30196 -3.49113 0
M  V30 4281 H 397.495 -0.0624811 -4.79059 0
M  V30 4282 H 395.859 0.0635622 -2.54621 0
M  V30 4283 H 396.642 -1.52113 -3.07761 0
M  V30 4284 N 399.087 1.5561 -0.249682 0
M  V30 4285 C 400.02 2.17537 0.689408 0
M  V30 4286 C 400.998 1.12829 1.17083 0
M  V30 4287 O 402.182 1.41229 1.24846 0
M  V30 4288 C 399.309 2.77828 1.93725 0
M  V30 4289 C 398.355 3.95615 1.59346 0
M  V30 4290 S 399.188 5.30988 0.69367 0
M  V30 4291 C 400.344 5.94734 1.95046 0
M  V30 4292 H 400.577 2.96852 0.163142 0
M  V30 4293 H 398.11 1.54362 -0.0341166 0
M  V30 4294 H 400.068 3.13199 2.65361 0
M  V30 4295 H 398.729 1.98454 2.43465 0
M  V30 4296 H 397.922 4.364 2.52132 0
M  V30 4297 H 397.524 3.61535 0.957512 0
M  V30 4298 H 399.816 6.12419 2.89739 0
M  V30 4299 H 400.759 6.90109 1.58604 0
M  V30 4300 H 401.167 5.23832 2.10381 0
M  V30 4301 N 400.565 -0.0233959 1.57583 0
M  V30 4302 C 401.495 -1.02162 2.09965 0
M  V30 4303 C 402.476 -1.3735 1.00344 0
M  V30 4304 O 403.661 -1.46135 1.27899 0
M  V30 4305 C 400.791 -2.32081 2.58371 0
M  V30 4306 C 399.745 -2.1112 3.72307 0
M  V30 4307 C 399.071 -3.46848 4.06941 0
M  V30 4308 C 400.371 -1.49276 5.00514 0
M  V30 4309 H 402.065 -0.585557 2.93618 0
M  V30 4310 H 399.611 -0.280218 1.41247 0
M  V30 4311 H 401.564 -3.02249 2.93639 0
M  V30 4312 H 400.288 -2.77758 1.71808 0
M  V30 4313 H 398.947 -1.43384 3.37397 0
M  V30 4314 H 398.595 -3.90184 3.17436 0
M  V30 4315 H 398.295 -3.33646 4.83688 0
M  V30 4316 H 399.819 -4.18369 4.44747 0
M  V30 4317 H 401.233 -2.09368 5.33702 0
M  V30 4318 H 399.63 -1.46632 5.8191 0
M  V30 4319 H 400.7 -0.459217 4.82721 0
M  V30 4320 N 402.043 -1.548 -0.295768 0
M  V30 4321 C 403.29 -1.74329 -1.03032 0
M  V30 4322 C 403.618 -0.531915 -1.87085 0
M  V30 4323 O 402.873 0.486052 -1.89568 0
M  V30 4324 C 403.172 -2.98797 -1.961 0
M  V30 4325 C 402.838 -4.32356 -1.2798 0
M  V30 4326 C 401.5 -4.68661 -1.09135 0
M  V30 4327 C 403.852 -5.15128 -0.793243 0
M  V30 4328 C 401.18 -5.85312 -0.403269 0
M  V30 4329 C 403.532 -6.32488 -0.118854 0
M  V30 4330 C 402.196 -6.6745 0.0815043 0
M  V30 4331 H 401.466 -0.637916 -0.37702 0
M  V30 4332 H 404.113 -1.8906 -0.304696 0
M  V30 4333 H 402.418 -2.78869 -2.75207 0
M  V30 4334 H 404.115 -3.11102 -2.53015 0
M  V30 4335 H 400.705 -4.03808 -1.43655 0
M  V30 4336 H 404.889 -4.87575 -0.92653 0
M  V30 4337 H 400.145 -6.1094 -0.237098 0
M  V30 4338 H 404.319 -6.95892 0.266035 0
M  V30 4339 H 401.946 -7.57695 0.616685 0
M  V30 4340 N 403.521 0.559213 -1.47345 0
M  V30 4341 C 404.937 0.884943 -1.32819 0
M  V30 4342 C 405.137 1.98988 -0.317173 0
M  V30 4343 O 404.193 2.51031 0.272011 0
M  V30 4344 C 405.506 1.28007 -2.72093 0
M  V30 4345 C 407.054 1.39161 -2.80363 0
M  V30 4346 C 407.529 1.82031 -4.20272 0
M  V30 4347 N 409.02 1.89185 -4.22804 0
M  V30 4348 C 409.755 2.2368 -5.27973 0
M  V30 4349 N 409.251 2.56802 -6.43447 0
M  V30 4350 N 411.044 2.24436 -5.15349 0
M  V30 4351 H 403.195 -0.170304 -2.11716 0
M  V30 4352 H 405.458 -0.0135247 -0.947904 0
M  V30 4353 H 405.164 0.542027 -3.47498 0
M  V30 4354 H 405.038 2.23665 -3.03733 0
M  V30 4355 H 407.425 2.12048 -2.05231 0
M  V30 4356 H 407.506 0.41696 -2.52379 0
M  V30 4357 H 407.15 1.09715 -4.95908 0
M  V30 4358 H 407.08 2.80495 -4.45679 0
M  V30 4359 H 409.571 1.65982 -3.39497 0
M  V30 4360 H 409.884 2.82144 -7.19454 0
M  V30 4361 H 408.229 2.54387 -6.46771 0
M  V30 4362 H 411.42 1.97998 -4.24163 0
M  V30 4363 H 411.593 2.50989 -5.97418 0
M  V30 4364 N 404.999 1.35443 0.805782 0
M  V30 4365 C 406.246 1.28761 1.56291 0
M  V30 4366 C 406.574 -0.137747 1.94012 0
M  V30 4367 O 405.829 -1.1032 1.61642 0
M  V30 4368 C 406.128 2.14045 2.86216 0
M  V30 4369 C 405.794 3.62826 2.67709 0
M  V30 4370 C 404.456 4.0338 2.6237 0
M  V30 4371 C 406.808 4.57227 2.50186 0
M  V30 4372 C 404.136 5.36501 2.37451 0
M  V30 4373 C 406.488 5.90547 2.26797 0
M  V30 4374 C 405.152 6.30245 2.1988 0
M  V30 4375 H 404.422 0.471171 0.571908 0
M  V30 4376 H 407.069 1.67347 0.930974 0
M  V30 4377 H 405.374 1.68342 3.53791 0
M  V30 4378 H 407.071 2.0621 3.43917 0
M  V30 4379 H 403.661 3.30644 2.72713 0
M  V30 4380 H 407.845 4.2678 2.53323 0
M  V30 4381 H 403.101 5.66259 2.30567 0
M  V30 4382 H 407.275 6.63274 2.12228 0
M  V30 4383 H 404.902 7.33328 2.00333 0
M  V30 4384 N 406.477 -1.02803 1.19454 0
M  V30 4385 C 407.702 -1.80378 1.02364 0
M  V30 4386 C 408.127 -1.83282 -0.423007 0
M  V30 4387 O 407.485 -1.25945 -1.30413 0
M  V30 4388 C 407.533 -3.23248 1.59821 0
M  V30 4389 O 406.637 -4.04 0.828105 0
M  V30 4390 H 405.978 -0.556799 0.361761 0
M  V30 4391 H 408.508 -1.29385 1.58495 0
M  V30 4392 H 408.518 -3.73994 1.63073 0
M  V30 4393 H 407.193 -3.2045 2.65113 0
M  V30 4394 H 405.77 -3.62635 0.86891 0
M  V30 4395 N 407.956 -0.998596 -1.21925 0
M  V30 4396 C 408.919 -0.558679 -2.22287 0
M  V30 4397 C 409.919 0.361525 -1.56683 0
M  V30 4398 O 411.109 0.152695 -1.73529 0
M  V30 4399 C 408.241 0.18661 -3.40389 0
M  V30 4400 H 409.434 -1.4463 -2.62721 0
M  V30 4401 H 406.987 -0.786413 -1.35075 0
M  V30 4402 H 407.722 1.08996 -3.05435 0
M  V30 4403 H 407.507 -0.474188 -3.89222 0
M  V30 4404 H 408.997 0.482367 -4.14805 0
M  V30 4405 N 409.434 1.37368 -0.772513 0
M  V30 4406 C 410.397 2.28601 -0.165541 0
M  V30 4407 C 411.397 1.48062 0.627238 0
M  V30 4408 O 412.587 1.68268 0.450715 0
M  V30 4409 C 409.719 3.32023 0.772897 0
M  V30 4410 H 410.912 2.83787 -0.969787 0
M  V30 4411 H 408.465 1.46647 -0.540775 0
M  V30 4412 H 409.2 2.81962 1.60212 0
M  V30 4413 H 408.985 3.91555 0.206585 0
M  V30 4414 H 410.475 4.00197 1.19298 0
M  V30 4415 N 410.912 0.523116 1.48665 0
M  V30 4416 C 412.137 -0.0117284 2.07397 0
M  V30 4417 C 412.562 -1.28031 1.37803 0
M  V30 4418 O 411.92 -1.75836 0.441762 0
M  V30 4419 C 411.968 -0.225786 3.59892 0
M  V30 4420 O 411.072 -1.29592 3.91509 0
M  V30 4421 H 410.413 0.0360673 0.66302 0
M  V30 4422 H 412.943 0.729066 1.9117 0
M  V30 4423 H 412.953 -0.450552 4.05505 0
M  V30 4424 H 411.628 0.700944 4.09951 0
M  V30 4425 H 410.205 -1.05436 3.57684 0
M  V30 4426 N 412.39 -1.55475 0.257931 0
M  V30 4427 C 413.615 -2.04064 -0.370488 0
M  V30 4428 C 414.04 -1.13565 -1.49948 0
M  V30 4429 O 413.398 -0.130781 -1.80828 0
M  V30 4430 C 413.446 -3.50554 -0.845237 0
M  V30 4431 O 412.55 -3.63173 -1.95394 0
M  V30 4432 H 411.891 -0.659257 -0.0792243 0
M  V30 4433 H 414.421 -2.00903 0.387212 0
M  V30 4434 H 414.431 -3.91588 -1.14555 0
M  V30 4435 H 413.106 -4.15896 -0.0191259 0
M  V30 4436 H 411.683 -3.34039 -1.65748 0
M  V30 4437 N 413.868 0.0150385 -1.57593 0
M  V30 4438 C 415.145 0.7392 -1.81094 0
M  V30 4439 C 415.525 1.92817 -0.859344 0
M  V30 4440 O 414.873 2.28301 0.095362 0
M  V30 4441 C 415.083 1.15907 -3.29191 0
M  V30 4442 C 416.431 1.56918 -3.9454 0
M  V30 4443 O 417.455 1.25328 -3.33424 0
M  V30 4444 O 416.314 2.15604 -5.02173 0
M  V30 4445 H 413.408 0.358631 -0.745193 0
M  V30 4446 H 415.954 -0.00926156 -1.69697 0
M  V30 4447 H 414.726 0.310921 -3.90063 0
M  V30 4448 H 414.349 1.96711 -3.45529 0
M  V30 4449 N 415.346 1.54954 0.287554 0
M  V30 4450 C 416.294 1.87606 1.37502 0
M  V30 4451 C 417.288 0.751001 1.51843 0
M  V30 4452 O 418.494 0.935169 1.53801 0
M  V30 4453 H 414.869 0.595231 0.459569 0
M  V30 4454 H 416.84 2.78477 1.07206 0
M  V30 4455 C 415.589 2.15183 2.73115 0
M  V30 4456 H 414.912 3.01234 2.62866 0
M  V30 4457 H 416.352 2.4196 3.48183 0
M  V30 4458 C 414.811 0.954686 3.2309 0
M  V30 4459 O 415.341 0.181949 4.01288 0
M  V30 4460 N 413.547 0.756368 2.80584 0
M  V30 4461 H 413.094 1.38643 2.17108 0
M  V30 4462 H 413.052 -0.0430391 3.14371 0
M  V30 4463 N 416.824 -0.551391 1.4764 0
M  V30 4464 C 418.052 -1.33357 1.58189 0
M  V30 4465 C 418.467 -1.87342 0.234199 0
M  V30 4466 O 417.824 -1.65301 -0.77343 0
M  V30 4467 C 417.875 -2.49942 2.61173 0
M  V30 4468 O 417.596 -1.98187 3.90709 0
M  V30 4469 C 419.097 -3.42072 2.8196 0
M  V30 4470 H 416.317 -0.40631 0.533998 0
M  V30 4471 H 418.861 -0.667367 1.93304 0
M  V30 4472 H 417.016 -3.12489 2.28975 0
M  V30 4473 H 417.43 -2.74342 4.47031 0
M  V30 4474 H 418.904 -4.20278 3.57869 0
M  V30 4475 H 419.381 -3.95978 1.89995 0
M  V30 4476 H 419.987 -2.85336 3.15378 0
M  V30 4477 N 418.302 -1.35869 -0.798587 0
M  V30 4478 C 419.212 -1.31578 -1.94228 0
M  V30 4479 C 420.228 -0.21939 -1.72611 0
M  V30 4480 O 421.404 -0.450167 -1.96305 0
M  V30 4481 C 418.469 -1.09528 -3.28944 0
M  V30 4482 C 417.53 -2.28556 -3.63402 0
M  V30 4483 C 416.763 -2.07549 -4.9169 0
M  V30 4484 O 416.986 -1.046 -5.60727 0
M  V30 4485 O 415.92 -2.95106 -5.24591 0
M  V30 4486 H 419.746 -2.27847 -2.00796 0
M  V30 4487 H 417.331 -1.16322 -0.937526 0
M  V30 4488 H 419.213 -0.991127 -4.09579 0
M  V30 4489 H 417.888 -0.16315 -3.23289 0
M  V30 4490 H 416.795 -2.44538 -2.83112 0
M  V30 4491 H 418.128 -3.20244 -3.73771 0
M  V30 4492 N 419.78 1.02168 -1.19998 0
M  V30 4493 C 420.728 2.12717 -0.940967 0
M  V30 4494 C 421.722 1.69069 0.105841 0
M  V30 4495 O 422.928 1.79946 -0.0440583 0
M  V30 4496 H 419.303 0.695108 -0.28693 0
M  V30 4497 H 421.274 2.3175 -1.87975 0
M  V30 4498 C 420.023 3.44027 -0.504049 0
M  V30 4499 H 419.346 3.78036 -1.30112 0
M  V30 4500 H 420.786 4.22452 -0.361991 0
M  V30 4501 C 419.245 3.27678 0.782878 0
M  V30 4502 O 419.775 3.56949 1.84256 0
M  V30 4503 N 417.981 2.80943 0.742921 0
M  V30 4504 H 417.528 2.57322 -0.119687 0
M  V30 4505 H 417.486 2.70385 1.60435 0
M  V30 4506 N 421.258 1.00505 1.21394 0
M  V30 4507 C 422.188 0.585684 2.26035 0
M  V30 4508 C 423.169 -0.393525 1.65485 0
M  V30 4509 O 424.354 -0.281497 1.92149 0
M  V30 4510 C 421.484 -0.0884283 3.47187 0
M  V30 4511 C 420.438 0.810567 4.20254 0
M  V30 4512 C 419.764 0.00286382 5.347 0
M  V30 4513 C 421.064 2.1132 4.77641 0
M  V30 4514 H 422.758 1.46039 2.61368 0
M  V30 4515 H 420.304 0.703648 1.25638 0
M  V30 4516 H 422.257 -0.393286 4.19561 0
M  V30 4517 H 420.981 -0.997766 3.10986 0
M  V30 4518 H 419.64 1.09925 3.49731 0
M  V30 4519 H 419.288 -0.907765 4.94741 0
M  V30 4520 H 418.988 0.601444 5.84514 0
M  V30 4521 H 420.512 -0.295808 6.09883 0
M  V30 4522 H 421.926 1.87148 5.41893 0
M  V30 4523 H 420.323 2.66164 5.37845 0
M  V30 4524 H 421.393 2.78393 3.9702 0
M  V30 4525 N 422.737 -1.36956 0.779787 0
M  V30 4526 C 423.986 -1.98738 0.344405 0
M  V30 4527 C 424.299 -1.62596 -1.08728 0
M  V30 4528 O 425.505 -2.1754 -1.62445 0
M  V30 4529 C 423.961 -3.5544 0.564829 0
M  V30 4530 C 423.569 -4.00514 2.0073 0
M  V30 4531 C 425.313 -4.24059 0.193471 0
M  V30 4532 C 423.22 -5.49957 2.17489 0
M  V30 4533 H 422.15 -0.743561 0.12503 0
M  V30 4534 H 424.801 -1.56381 0.960057 0
M  V30 4535 H 423.183 -3.95817 -0.120397 0
M  V30 4536 H 424.357 -3.71362 2.72814 0
M  V30 4537 H 422.672 -3.44703 2.336 0
M  V30 4538 H 425.269 -5.33874 0.297097 0
M  V30 4539 H 425.612 -4.07378 -0.857263 0
M  V30 4540 H 426.145 -3.89012 0.831556 0
M  V30 4541 H 422.884 -5.71574 3.2091 0
M  V30 4542 H 422.404 -5.80767 1.49899 0
M  V30 4543 H 424.083 -6.16043 1.97738 0
M  V30 4544 N 424.215 -0.530993 -1.48385 0
M  V30 4545 C 425.162 0.231223 -2.29639 0
M  V30 4546 C 426.132 0.932864 -1.37429 0
M  V30 4547 O 427.317 0.933692 -1.66394 0
M  V30 4548 C 424.457 1.27155 -3.2082 0
M  V30 4549 C 423.57 0.578655 -4.28107 0
M  V30 4550 C 422.705 1.602 -5.06467 0
M  V30 4551 C 421.744 0.892625 -6.05556 0
M  V30 4552 N 420.881 1.86157 -6.76971 0
M  V30 4553 H 425.721 -0.467848 -2.94305 0
M  V30 4554 H 423.258 -0.242556 -1.45086 0
M  V30 4555 H 425.216 1.88703 -3.72085 0
M  V30 4556 H 423.846 1.939 -2.58075 0
M  V30 4557 H 422.898 -0.150782 -3.80101 0
M  V30 4558 H 424.21 0.0217065 -4.98795 0
M  V30 4559 H 423.364 2.29173 -5.61751 0
M  V30 4560 H 422.103 2.19285 -4.35621 0
M  V30 4561 H 421.108 0.188829 -5.49476 0
M  V30 4562 H 422.333 0.307878 -6.78402 0
M  V30 4563 H 420.279 2.44147 -6.08875 0
M  V30 4564 H 420.196 1.35608 -7.43738 0
M  V30 4565 H 421.464 2.54325 -7.36844 0
M  V30 4566 N 425.693 1.55336 -0.266172 0
M  V30 4567 C 426.939 1.99692 0.353681 0
M  V30 4568 C 427.272 1.1543 1.56172 0
M  V30 4569 O 426.547 0.222218 1.93226 0
M  V30 4570 C 426.83 3.52316 0.74466 0
M  V30 4571 C 426.683 4.47337 -0.470101 0
M  V30 4572 C 428.002 4.10588 1.58447 0
M  V30 4573 H 425.121 0.725961 0.12708 0
M  V30 4574 H 427.763 1.86336 -0.371333 0
M  V30 4575 H 425.913 3.63829 1.36239 0
M  V30 4576 H 427.585 4.4778 -1.10864 0
M  V30 4577 H 425.828 4.19364 -1.10978 0
M  V30 4578 H 426.499 5.51788 -0.15291 0
M  V30 4579 H 428.975 4.02297 1.06286 0
M  V30 4580 H 427.851 5.17607 1.82686 0
M  V30 4581 H 428.112 3.60253 2.56262 0
M  V30 4582 N 427.171 -0.0066808 1.57599 0
M  V30 4583 C 428.42 -0.692078 1.89455 0
M  V30 4584 C 428.733 -1.75306 0.867586 0
M  V30 4585 O 429.939 -2.49262 1.07614 0
M  V30 4586 C 428.395 -1.2821 3.36289 0
M  V30 4587 C 428.003 -0.256291 4.47266 0
M  V30 4588 C 429.747 -1.94608 3.77264 0
M  V30 4589 C 427.654 -0.855927 5.85173 0
M  V30 4590 H 426.584 -0.262252 0.706923 0
M  V30 4591 H 429.235 0.052769 1.83424 0
M  V30 4592 H 427.617 -2.0774 3.37135 0
M  V30 4593 H 428.791 0.513923 4.57925 0
M  V30 4594 H 427.106 0.306862 4.15268 0
M  V30 4595 H 429.703 -2.40364 4.77629 0
M  V30 4596 H 430.046 -2.77382 3.10427 0
M  V30 4597 H 430.579 -1.21822 3.78688 0
M  V30 4598 H 427.318 -0.0671161 6.55466 0
M  V30 4599 H 426.838 -1.59546 5.78191 0
M  V30 4600 H 428.517 -1.35658 6.32618 0
M  V30 4601 N 428.649 -1.55105 -0.279332 0
M  V30 4602 C 429.559 -1.90638 -1.36727 0
M  V30 4603 C 430.575 -0.802899 -1.54368 0
M  V30 4604 O 431.751 -1.10138 -1.68616 0
M  V30 4605 C 428.816 -2.16547 -2.70755 0
M  V30 4606 C 427.877 -3.40146 -2.61915 0
M  V30 4607 C 427.11 -3.6481 -3.8955 0
M  V30 4608 O 427.333 -2.92095 -4.89935 0
M  V30 4609 O 426.267 -4.58343 -3.90135 0
M  V30 4610 H 430.093 -2.83237 -1.09591 0
M  V30 4611 H 427.678 -1.4157 -0.477306 0
M  V30 4612 H 429.56 -2.34665 -3.50014 0
M  V30 4613 H 428.235 -1.27131 -2.9769 0
M  V30 4614 H 427.142 -3.2737 -1.81052 0
M  V30 4615 H 428.475 -4.29761 -2.3993 0
M  V30 4616 N 430.127 0.543554 -1.4793 0
M  V30 4617 C 431.376 1.29649 -1.54512 0
M  V30 4618 C 431.689 1.94382 -0.217973 0
M  V30 4619 O 432.895 2.71017 -0.161908 0
M  V30 4620 C 431.351 2.35175 -2.72435 0
M  V30 4621 C 430.959 1.76572 -4.11736 0
M  V30 4622 C 432.703 3.11564 -2.8832 0
M  V30 4623 C 430.61 2.79958 -5.20939 0
M  V30 4624 H 429.54 0.487541 -0.57517 0
M  V30 4625 H 432.191 0.575708 -1.74235 0
M  V30 4626 H 430.573 3.10229 -2.46118 0
M  V30 4627 H 431.747 1.07799 -4.48013 0
M  V30 4628 H 430.062 1.12722 -4.00852 0
M  V30 4629 H 432.659 3.88794 -3.67074 0
M  V30 4630 H 433.002 3.66594 -1.97268 0
M  V30 4631 H 433.535 2.43623 -3.14472 0
M  V30 4632 H 430.274 2.29766 -6.13912 0
M  V30 4633 H 429.794 3.47101 -4.89164 0
M  V30 4634 H 431.473 3.43198 -5.48474 0
M  V30 4635 N 431.605 1.3629 0.791371 0
M  V30 4636 C 432.535 1.33137 1.91825 0
M  V30 4637 C 433.516 0.203168 1.68882 0
M  V30 4638 O 434.701 0.400509 1.90025 0
M  V30 4639 C 431.831 1.11793 3.28816 0
M  V30 4640 C 430.785 2.21417 3.66277 0
M  V30 4641 C 430.111 1.85218 5.01596 0
M  V30 4642 C 431.411 3.63489 3.75064 0
M  V30 4643 H 433.105 2.2743 1.9472 0
M  V30 4644 H 430.651 1.09479 0.935437 0
M  V30 4645 H 432.604 1.08222 4.07266 0
M  V30 4646 H 431.328 0.139501 3.26302 0
M  V30 4647 H 429.987 2.2411 2.90121 0
M  V30 4648 H 429.635 0.859544 4.95602 0
M  V30 4649 H 429.335 2.58611 5.27631 0
M  V30 4650 H 430.859 1.832 5.82469 0
M  V30 4651 H 432.273 3.63034 4.43711 0
M  V30 4652 H 430.67 4.35771 4.12582 0
M  V30 4653 H 431.74 3.98536 2.76219 0
M  V30 4654 N 433.083 -1.0153 1.20538 0
M  V30 4655 C 434.332 -1.74558 1.01057 0
M  V30 4656 C 434.645 -1.90168 -0.457756 0
M  V30 4657 O 435.851 -2.60301 -0.771722 0
M  V30 4658 C 434.307 -3.13963 1.75941 0
M  V30 4659 C 433.915 -3.06361 3.26875 0
M  V30 4660 C 435.659 -3.91191 1.64832 0
M  V30 4661 C 433.566 -4.40782 3.94291 0
M  V30 4662 H 432.496 -0.654417 0.374505 0
M  V30 4663 H 435.147 -1.13521 1.44171 0
M  V30 4664 H 433.529 -3.75549 1.25614 0
M  V30 4665 H 434.703 -2.54074 3.84425 0
M  V30 4666 H 433.018 -2.42625 3.38411 0
M  V30 4667 H 435.615 -4.90644 2.12539 0
M  V30 4668 H 435.958 -4.11884 0.604745 0
M  V30 4669 H 436.491 -3.36236 2.12579 0
M  V30 4670 H 433.23 -4.25292 4.98805 0
M  V30 4671 H 432.75 -4.9307 3.41529 0
M  V30 4672 H 434.429 -5.09621 3.98617 0
M  V30 4673 N 434.561 -1.01147 -1.20859 0
M  V30 4674 C 435.786 -0.716698 -1.94623 0
M  V30 4675 C 436.211 0.715415 -1.73964 0
M  V30 4676 O 435.569 1.49157 -1.03062 0
M  V30 4677 C 435.617 -1.0513 -3.44935 0
M  V30 4678 O 434.721 -0.160131 -4.12089 0
M  V30 4679 H 434.062 -0.266404 -0.608214 0
M  V30 4680 H 436.592 -1.35346 -1.53436 0
M  V30 4681 H 436.602 -1.00086 -3.95533 0
M  V30 4682 H 435.277 -2.09475 -3.59295 0
M  V30 4683 H 433.854 -0.267657 -3.71938 0
M  V30 4684 N 436.039 1.36541 -0.78704 0
M  V30 4685 C 437.267 2.03561 -0.370199 0
M  V30 4686 C 437.682 1.59347 1.01263 0
M  V30 4687 O 437.039 0.781781 1.64907 0
M  V30 4688 C 437.09 3.59033 -0.421614 0
M  V30 4689 O 436.811 4.01634 -1.7499 0
M  V30 4690 C 438.312 4.433 0.00489763 0
M  V30 4691 H 435.532 0.653346 -0.152904 0
M  V30 4692 H 438.076 1.74566 -1.06522 0
M  V30 4693 H 436.231 3.86746 0.224971 0
M  V30 4694 H 436.645 4.96217 -1.69909 0
M  V30 4695 H 438.119 5.51939 -0.0822184 0
M  V30 4696 H 438.596 4.26285 1.05723 0
M  V30 4697 H 439.202 4.20843 -0.614085 0
M  V30 4698 N 437.518 0.538854 1.48102 0
M  V30 4699 C 438.428 -0.222648 2.33541 0
M  V30 4700 C 439.444 -0.930225 1.47047 0
M  V30 4701 O 440.62 -0.903211 1.80011 0
M  V30 4702 C 437.685 -1.25064 3.23357 0
M  V30 4703 C 436.746 -0.552469 4.2573 0
M  V30 4704 C 435.979 -1.53149 5.11254 0
M  V30 4705 O 436.202 -2.76487 4.9891 0
M  V30 4706 O 435.136 -1.06602 5.92385 0
M  V30 4707 H 438.962 0.477707 2.99919 0
M  V30 4708 H 436.547 0.299669 1.46364 0
M  V30 4709 H 438.429 -1.8445 3.78888 0
M  V30 4710 H 437.104 -1.93325 2.59629 0
M  V30 4711 H 436.011 0.082114 3.7401 0
M  V30 4712 H 437.344 0.0883526 4.92121 0
M  V30 4713 N 438.996 -1.55193 0.274407 0
M  V30 4714 C 440.242 -2.00604 -0.33608 0
M  V30 4715 C 440.597 -1.15948 -1.53538 0
M  V30 4716 O 439.89 -0.221385 -1.90317 0
M  V30 4717 C 440.084 -3.49019 -0.769458 0
M  V30 4718 C 439.913 -4.48038 0.386301 0
M  V30 4719 C 438.683 -4.97757 0.869854 0
M  V30 4720 C 440.881 -4.99558 1.22254 0
M  V30 4721 N 438.863 -5.80575 1.99515 0
M  V30 4722 C 440.234 -5.79816 2.19575 0
M  V30 4723 C 442.289 -4.81799 1.25597 0
M  V30 4724 C 440.992 -6.44208 3.19981 0
M  V30 4725 C 443.018 -5.46989 2.24848 0
M  V30 4726 C 442.38 -6.27058 3.20901 0
M  V30 4727 H 438.479 -0.777013 -0.088172 0
M  V30 4728 H 441.063 -1.90583 0.398266 0
M  V30 4729 H 439.234 -3.59383 -1.47303 0
M  V30 4730 H 440.966 -3.81263 -1.35722 0
M  V30 4731 H 437.721 -4.71464 0.449281 0
M  V30 4732 H 438.145 -6.26675 2.5614 0
M  V30 4733 H 442.787 -4.19501 0.527158 0
M  V30 4734 H 440.505 -7.05656 3.93796 0
M  V30 4735 H 444.091 -5.35189 2.28174 0
M  V30 4736 H 442.971 -6.7661 3.96445 0
M  V30 4737 N 440.474 -0.00167713 -1.576 0
M  V30 4738 C 441.422 1.0074 -2.09652 0
M  V30 4739 C 442.416 1.35483 -1.01689 0
M  V30 4740 O 443.622 1.34028 -1.20152 0
M  V30 4741 H 439.997 0.342537 -0.669457 0
M  V30 4742 H 441.968 0.542841 -2.93421 0
M  V30 4743 C 440.717 2.2899 -2.61647 0
M  V30 4744 H 440.04 2.03124 -3.44355 0
M  V30 4745 H 441.48 2.9787 -3.01744 0
M  V30 4746 C 439.939 3.00085 -1.53136 0
M  V30 4747 O 440.469 3.91135 -0.91524 0
M  V30 4748 N 438.675 2.6194 -1.25841 0
M  V30 4749 H 438.222 1.8798 -1.76129 0
M  V30 4750 H 438.18 3.09822 -0.534576 0
M  V30 4751 N 441.952 1.55251 0.271103 0
M  V30 4752 C 442.862 1.9136 1.35714 0
M  V30 4753 C 443.878 0.811075 1.5394 0
M  V30 4754 O 445.054 1.11031 1.6803 0
M  V30 4755 C 442.119 2.1798 2.69603 0
M  V30 4756 C 441.18 3.4153 2.60107 0
M  V30 4757 C 440.413 3.66871 3.8761 0
M  V30 4758 O 440.636 2.94689 4.8838 0
M  V30 4759 O 439.57 4.60405 3.87699 0
M  V30 4760 H 443.396 2.83815 1.08088 0
M  V30 4761 H 440.981 1.41821 0.469792 0
M  V30 4762 H 442.863 2.36518 3.48765 0
M  V30 4763 H 441.538 1.28708 2.97012 0
M  V30 4764 H 440.445 3.28325 1.79314 0
M  V30 4765 H 441.778 4.31027 2.37647 0
M  V30 4766 N 443.43 -0.535701 1.48216 0
M  V30 4767 C 444.846 -0.863701 1.3421 0
M  V30 4768 C 445.046 -1.98458 0.34879 0
M  V30 4769 O 444.102 -2.51432 -0.23204 0
M  V30 4770 C 445.415 -1.23662 2.74095 0
M  V30 4771 C 446.963 -1.34683 2.82541 0
M  V30 4772 C 447.438 -1.75322 4.23115 0
M  V30 4773 N 448.929 -1.82434 4.2576 0
M  V30 4774 C 449.664 -2.15252 5.31464 0
M  V30 4775 N 449.16 -2.46533 6.47452 0
M  V30 4776 N 450.953 -2.16209 5.18855 0
M  V30 4777 H 443.104 0.203965 2.11418 0
M  V30 4778 H 445.367 0.0286033 0.947568 0
M  V30 4779 H 445.073 -0.486674 3.48316 0
M  V30 4780 H 444.947 -2.18805 3.07253 0
M  V30 4781 H 447.334 -2.08756 2.08579 0
M  V30 4782 H 447.415 -0.376756 2.5301 0
M  V30 4783 H 447.059 -1.01812 4.97591 0
M  V30 4784 H 446.989 -2.7337 4.50085 0
M  V30 4785 H 449.48 -1.6056 3.42095 0
M  V30 4786 H 449.793 -2.70662 7.23852 0
M  V30 4787 H 448.138 -2.44065 6.50736 0
M  V30 4788 H 451.329 -1.91224 4.2726 0
M  V30 4789 H 451.502 -2.41453 6.01335 0
M  V30 4790 N 444.908 -1.36708 -0.784132 0
M  V30 4791 C 445.84 -1.27333 -1.90575 0
M  V30 4792 C 446.853 -0.191706 -1.61667 0
M  V30 4793 O 448.042 -0.446854 -1.72816 0
M  V30 4794 C 445.142 -0.943177 -3.25511 0
M  V30 4795 C 444.315 -2.12776 -3.82158 0
M  V30 4796 C 443.374 -1.76983 -4.95544 0
M  V30 4797 O 442.4 -2.49134 -5.11782 0
M  V30 4798 N 443.602 -0.706624 -5.76183 0
M  V30 4799 H 446.367 -2.23974 -1.99138 0
M  V30 4800 H 443.928 -1.30171 -0.962656 0
M  V30 4801 H 445.92 -0.684799 -3.98864 0
M  V30 4802 H 444.49 -0.0657333 -3.12531 0
M  V30 4803 H 443.71 -2.54863 -3.0073 0
M  V30 4804 H 444.998 -2.91904 -4.16737 0
M  V30 4805 H 444.396 -0.107643 -5.65598 0
M  V30 4806 H 442.953 -0.50808 -6.49817 0
M  V30 4807 N 446.386 1.0089 -1.21074 0
M  V30 4808 C 447.797 1.56056 -1.02486 0
M  V30 4809 C 448.148 1.91728 0.416506 0
M  V30 4810 O 447.273 1.73066 1.29912 0
M  V30 4811 C 447.868 2.83563 -1.85411 0
M  V30 4812 C 446.427 3.3523 -1.71166 0
M  V30 4813 C 445.574 2.0846 -1.82865 0
M  V30 4814 H 448.525 0.831818 -1.35154 0
M  V30 4815 H 448.546 3.55286 -1.36205 0
M  V30 4816 H 448.058 2.57569 -2.9031 0
M  V30 4817 H 446.159 3.66167 -0.689361 0
M  V30 4818 H 446.272 4.06913 -2.52901 0
M  V30 4819 H 444.636 2.21275 -1.26132 0
M  V30 4820 H 445.419 1.84883 -2.89263 0
M  V30 4821 N 447.864 1.01787 1.20321 0
M  V30 4822 C 448.827 0.593972 2.2137 0
M  V30 4823 C 449.827 -0.336553 1.57239 0
M  V30 4824 O 451.017 -0.125069 1.7375 0
M  V30 4825 C 448.149 -0.132433 3.40643 0
M  V30 4826 H 449.342 1.48791 2.60387 0
M  V30 4827 H 446.895 0.807803 1.33807 0
M  V30 4828 H 447.63 -1.04123 3.0713 0
M  V30 4829 H 447.415 0.53605 3.88418 0
M  V30 4830 H 448.905 -0.416314 4.1552 0
M  V30 4831 N 449.342 -1.36122 0.79427 0
M  V30 4832 C 450.753 -1.81646 0.431446 0
M  V30 4833 C 451.104 -1.66043 -1.04518 0
M  V30 4834 O 450.229 -1.1841 -1.8113 0
M  V30 4835 C 450.824 -3.29785 0.776341 0
M  V30 4836 C 449.383 -3.73501 0.466282 0
M  V30 4837 C 448.53 -2.58313 1.00844 0
M  V30 4838 H 451.481 -1.24274 0.986995 0
M  V30 4839 H 451.502 -3.80437 0.0692413 0
M  V30 4840 H 451.014 -3.4111 1.8511 0
M  V30 4841 H 449.115 -3.67733 -0.600245 0
M  V30 4842 H 449.228 -4.68754 0.990288 0
M  V30 4843 H 447.592 -2.5102 0.431406 0
M  V30 4844 H 448.375 -2.72421 2.08906 0
M  V30 4845 N 450.82 -0.546701 -1.47814 0
M  V30 4846 C 451.783 0.196287 -2.28358 0
M  V30 4847 C 452.783 0.852437 -1.36346 0
M  V30 4848 O 453.973 0.709913 -1.59078 0
M  V30 4849 C 451.105 1.28579 -3.15722 0
M  V30 4850 H 452.298 -0.511086 -2.95513 0
M  V30 4851 H 449.851 -0.303248 -1.5333 0
M  V30 4852 H 450.586 2.0259 -2.53235 0
M  V30 4853 H 450.371 0.820229 -3.83425 0
M  V30 4854 H 451.861 1.80793 -3.76435 0
M  V30 4855 N 452.299 1.55045 -0.282633 0
M  V30 4856 C 453.229 2.2579 0.595066 0
M  V30 4857 C 454.21 1.25074 1.15284 0
M  V30 4858 O 455.395 1.5381 1.18559 0
M  V30 4859 C 452.525 2.98472 1.77572 0
M  V30 4860 C 451.479 4.0618 1.34914 0
M  V30 4861 C 450.805 4.66477 2.6135 0
M  V30 4862 C 452.105 5.1996 0.493821 0
M  V30 4863 H 453.799 2.994 0.00505653 0
M  V30 4864 H 451.345 1.44 0.000992001 0
M  V30 4865 H 453.298 3.46677 2.39568 0
M  V30 4866 H 452.022 2.2241 2.39168 0
M  V30 4867 H 450.681 3.58797 0.752338 0
M  V30 4868 H 450.329 3.87074 3.2122 0
M  V30 4869 H 450.029 5.39207 2.33516 0
M  V30 4870 H 451.553 5.17435 3.24181 0
M  V30 4871 H 452.967 5.64172 1.01898 0
M  V30 4872 H 451.364 5.99299 0.310047 0
M  V30 4873 H 452.434 4.82462 -0.485593 0
M  V30 4874 N 453.777 0.010035 1.57597 0
M  V30 4875 C 455.188 -0.531426 1.78977 0
M  V30 4876 C 455.539 -1.73375 0.918454 0
M  V30 4877 O 454.664 -2.16047 0.123635 0
M  V30 4878 C 455.259 -0.97086 3.24592 0
M  V30 4879 C 453.818 -1.45756 3.47033 0
M  V30 4880 C 452.965 -0.413384 2.74201 0
M  V30 4881 H 455.916 0.236166 1.56933 0
M  V30 4882 H 455.937 -1.83633 3.33255 0
M  V30 4883 H 455.449 -0.0955893 3.87982 0
M  V30 4884 H 453.55 -2.35339 2.88871 0
M  V30 4885 H 453.663 -1.4781 4.55729 0
M  V30 4886 H 452.027 -0.877266 2.39115 0
M  V30 4887 H 452.81 0.453092 3.40297 0
M  V30 4888 N 455.255 -1.55392 -0.262866 0
M  V30 4889 C 456.666 -1.67079 -0.833158 0
M  V30 4890 C 457.017 -0.604539 -1.86654 0
M  V30 4891 O 456.142 0.252138 -2.14926 0
M  V30 4892 C 456.737 -3.02891 -1.51797 0
M  V30 4893 C 455.296 -3.16571 -2.03617 0
M  V30 4894 C 454.443 -2.62909 -0.881701 0
M  V30 4895 H 457.394 -1.58652 -0.0389986 0
M  V30 4896 H 457.415 -2.96445 -2.38538 0
M  V30 4897 H 456.927 -3.80473 -0.765619 0
M  V30 4898 H 455.028 -2.43782 -2.81782 0
M  V30 4899 H 455.141 -4.23271 -2.24452 0
M  V30 4900 H 453.505 -2.20324 -1.27786 0
M  V30 4901 H 454.288 -3.43003 -0.14269 0
M  V30 4902 N 456.733 0.527833 -1.48498 0
M  V30 4903 C 457.68 1.6322 -1.6318 0
M  V30 4904 C 458.65 1.59199 -0.473815 0
M  V30 4905 O 459.835 1.77591 -0.697563 0
M  V30 4906 C 456.975 3.01474 -1.67951 0
M  V30 4907 C 456.088 3.15713 -2.94871 0
M  V30 4908 C 455.223 4.44539 -2.90789 0
M  V30 4909 C 454.262 4.52315 -4.12404 0
M  V30 4910 N 453.399 5.72533 -4.06387 0
M  V30 4911 H 458.239 1.50011 -2.57489 0
M  V30 4912 H 455.776 0.730298 -1.27691 0
M  V30 4913 H 457.734 3.81572 -1.68698 0
M  V30 4914 H 456.364 3.1345 -0.771306 0
M  V30 4915 H 455.416 2.28854 -3.03859 0
M  V30 4916 H 456.728 3.1732 -3.8485 0
M  V30 4917 H 455.882 5.3293 -2.89949 0
M  V30 4918 H 454.621 4.45457 -1.98542 0
M  V30 4919 H 453.626 3.62331 -4.13517 0
M  V30 4920 H 454.851 4.53134 -5.05812 0
M  V30 4921 H 452.797 5.74344 -3.16962 0
M  V30 4922 H 452.714 5.75643 -4.90073 0
M  V30 4923 H 453.982 6.63204 -4.0961 0
M  V30 4924 N 458.211 1.37122 0.776871 0
M  V30 4925 C 459.622 1.28667 1.35284 0
M  V30 4926 C 459.973 -0.0680035 1.96082 0
M  V30 4927 O 459.098 -0.969743 1.93455 0
M  V30 4928 C 459.693 2.32997 2.45963 0
M  V30 4929 C 458.252 2.28191 2.99342 0
M  V30 4930 C 457.399 2.17101 1.72517 0
M  V30 4931 H 460.35 1.47819 0.577527 0
M  V30 4932 H 460.371 1.97366 3.2531 0
M  V30 4933 H 459.883 3.3158 2.01684 0
M  V30 4934 H 457.984 1.33115 3.4801 0
M  V30 4935 H 458.097 3.21397 3.55304 0
M  V30 4936 H 456.461 1.63562 1.95242 0
M  V30 4937 H 457.244 3.17591 1.30348 0
M  V30 4938 N 459.689 -1.00246 1.21608 0
M  V30 4939 C 461.1 -1.55511 1.03312 0
M  V30 4940 C 461.451 -1.91946 -0.406332 0
M  V30 4941 O 460.576 -1.73753 -1.28992 0
M  V30 4942 C 461.171 -2.82576 1.86913 0
M  V30 4943 C 459.73 -3.34318 1.72941 0
M  V30 4944 C 458.877 -2.07487 1.83968 0
M  V30 4945 H 461.828 -0.824638 1.35593 0
M  V30 4946 H 461.849 -3.54559 1.38087 0
M  V30 4947 H 461.361 -2.56026 2.91672 0
M  V30 4948 H 459.462 -3.65797 0.70877 0
M  V30 4949 H 459.575 -4.05566 2.55055 0
M  V30 4950 H 457.939 -2.20603 1.27304 0
M  V30 4951 H 458.722 -1.83346 2.9024 0
M  V30 4952 N 461.167 -1.02423 -1.1978 0
M  V30 4953 C 462.114 -0.601023 -2.22837 0
M  V30 4954 C 463.084 0.382801 -1.61629 0
M  V30 4955 O 464.269 0.280514 -1.88727 0
M  V30 4956 C 461.409 0.0467755 -3.45068 0
M  V30 4957 C 460.522 -0.98253 -4.20678 0
M  V30 4958 C 459.657 -0.304982 -5.30324 0
M  V30 4959 C 458.696 -1.32052 -5.97686 0
M  V30 4960 N 457.833 -0.669105 -6.98904 0
M  V30 4961 H 462.673 -1.48444 -2.58396 0
M  V30 4962 H 460.21 -0.742936 -1.2696 0
M  V30 4963 H 462.168 0.439556 -4.14878 0
M  V30 4964 H 460.798 0.893796 -3.10179 0
M  V30 4965 H 459.85 -1.49341 -3.49859 0
M  V30 4966 H 461.162 -1.75455 -4.66923 0
M  V30 4967 H 460.316 0.142893 -6.06532 0
M  V30 4968 H 459.055 0.499283 -4.85138 0
M  V30 4969 H 458.06 -1.7787 -5.20233 0
M  V30 4970 H 459.285 -2.1262 -6.44957 0
M  V30 4971 H 457.231 0.115152 -6.55899 0
M  V30 4972 H 457.148 -1.37908 -7.43315 0
M  V30 4973 H 458.416 -0.245076 -7.79115 0
M  V30 4974 N 462.645 1.35699 -0.801477 0
M  V30 4975 C 464.056 1.81415 -0.441073 0
M  V30 4976 C 464.407 1.66595 1.03636 0
M  V30 4977 O 463.532 1.19369 1.80499 0
M  V30 4978 C 464.127 3.29369 -0.793819 0
M  V30 4979 C 462.686 3.73248 -0.486083 0
M  V30 4980 C 461.833 2.57775 -1.02213 0
M  V30 4981 H 464.784 1.23749 -0.993572 0
M  V30 4982 H 464.805 3.80395 -0.0894158 0
M  V30 4983 H 464.317 3.40123 -1.86917 0
M  V30 4984 H 462.418 3.68046 0.580735 0
M  V30 4985 H 462.531 4.68222 -1.01513 0
M  V30 4986 H 460.895 2.50788 -0.444712 0
M  V30 4987 H 461.678 2.71309 -2.10348 0
M  V30 4988 N 464.123 0.554532 1.47522 0
M  V30 4989 C 465.351 0.034257 2.06872 0
M  V30 4990 C 465.766 -1.25826 1.40759 0
M  V30 4991 O 465.123 -1.75425 0.503217 0
M  V30 4992 C 465.174 -0.167827 3.6111 0
M  V30 4993 O 464.895 1.07351 4.24744 0
M  V30 4994 C 466.396 -0.72569 4.3732 0
M  V30 4995 H 463.616 0.0446275 0.669514 0
M  V30 4996 H 466.16 0.767181 1.89564 0
M  V30 4997 H 464.315 -0.850872 3.7794 0
M  V30 4998 H 464.729 0.869563 5.17242 0
M  V30 4999 H 466.203 -0.816394 5.45929 0
M  V30 5000 H 466.68 -1.73635 4.0342 0
M  V30 5001 H 467.286 -0.0784292 4.25228 0
M  V30 5002 N 465.601 -1.54893 0.290851 0
M  V30 5003 C 466.829 -2.04343 -0.324288 0
M  V30 5004 C 467.244 -1.16859 -1.48289 0
M  V30 5005 O 466.601 -0.192018 -1.81487 0
M  V30 5006 C 466.652 -3.52756 -0.79026 0
M  V30 5007 O 466.373 -4.36913 0.322213 0
M  V30 5008 C 467.874 -4.18161 -1.4716 0
M  V30 5009 H 465.094 -0.667135 -0.0719173 0
M  V30 5010 H 467.638 -1.99981 0.427529 0
M  V30 5011 H 465.793 -3.57511 -1.49213 0
M  V30 5012 H 466.207 -5.24486 -0.0387372 0
M  V30 5013 H 467.681 -5.23562 -1.7489 0
M  V30 5014 H 468.158 -3.67282 -2.40834 0
M  V30 5015 H 468.764 -4.17454 -0.813178 0
M  V30 5016 N 467.08 -0.0183926 -1.57589 0
M  V30 5017 C 468.326 0.663543 -1.91638 0
M  V30 5018 C 468.659 1.72392 -0.894134 0
M  V30 5019 O 467.934 1.94316 0.0846449 0
M  V30 5020 C 468.217 1.28984 -3.36207 0
M  V30 5021 C 468.07 0.239761 -4.49161 0
M  V30 5022 C 469.389 2.2109 -3.80536 0
M  V30 5023 H 466.508 0.239746 -0.696915 0
M  V30 5024 H 469.15 -0.073456 -1.89858 0
M  V30 5025 H 467.3 1.91799 -3.37854 0
M  V30 5026 H 468.972 -0.390119 -4.59647 0
M  V30 5027 H 467.215 -0.435972 -4.31604 0
M  V30 5028 H 467.886 0.717383 -5.47319 0
M  V30 5029 H 470.362 1.68273 -3.80557 0
M  V30 5030 H 469.238 2.61869 -4.82406 0
M  V30 5031 H 469.499 3.09764 -3.15434 0
M  V30 5032 N 468.558 1.5553 0.254621 0
M  V30 5033 C 469.521 1.88872 1.29846 0
M  V30 5034 C 470.521 0.764591 1.41459 0
M  V30 5035 O 471.711 1.03265 1.40293 0
M  V30 5036 C 468.843 2.11032 2.67728 0
M  V30 5037 H 470.036 2.82201 1.01502 0
M  V30 5038 H 467.589 1.48303 0.493556 0
M  V30 5039 H 468.324 1.20146 3.01223 0
M  V30 5040 H 468.109 2.92895 2.60682 0
M  V30 5041 H 469.599 2.38038 3.43115 0
M  V30 5042 N 470.036 -0.519951 1.48776 0
M  V30 5043 C 470.984 -1.64443 1.64503 0
M  V30 5044 C 471.978 -1.61501 0.511248 0
M  V30 5045 O 473.184 -1.66238 0.690294 0
M  V30 5046 H 469.559 -0.544776 0.518385 0
M  V30 5047 H 471.53 -1.48325 2.58925 0
M  V30 5048 C 470.279 -3.02673 1.71127 0
M  V30 5049 H 469.602 -3.05635 2.57735 0
M  V30 5050 H 471.042 -3.80941 1.86172 0
M  V30 5051 C 469.501 -3.33854 0.452032 0
M  V30 5052 O 470.031 -3.99385 -0.430678 0
M  V30 5053 N 468.237 -2.88825 0.32069 0
M  V30 5054 H 467.784 -2.35674 1.03998 0
M  V30 5055 H 467.742 -3.10056 -0.520814 0
M  V30 5056 N 471.514 -1.37532 -0.769588 0
M  V30 5057 C 472.462 -1.33561 -1.90432 0
M  V30 5058 C 473.456 -0.224027 -1.67912 0
M  V30 5059 O 474.662 -0.392174 -1.75676 0
M  V30 5060 H 471.037 -0.416279 -0.626271 0
M  V30 5061 H 473.008 -2.29348 -1.90899 0
M  V30 5062 C 471.757 -1.16162 -3.27722 0
M  V30 5063 H 471.08 -2.00951 -3.45628 0
M  V30 5064 H 472.52 -1.17434 -4.07413 0
M  V30 5065 C 470.979 0.132583 -3.36639 0
M  V30 5066 O 471.509 1.11539 -3.85904 0
M  V30 5067 N 469.715 0.184013 -2.90017 0
M  V30 5068 H 469.262 -0.616415 -2.50116 0
M  V30 5069 H 469.22 1.04956 -2.96364 0
M  V30 5070 N 472.992 0.995999 -1.22138 0
M  V30 5071 C 474.24 1.73167 -1.042 0
M  V30 5072 C 474.561 1.90329 0.42423 0
M  V30 5073 O 473.831 1.4607 1.30539 0
M  V30 5074 H 472.411 0.641593 -0.38258 0
M  V30 5075 H 475.073 1.19974 -1.53598 0
M  V30 5076 H 474.169 2.72734 -1.51731 0
M  V30 5077 N 474.47 1.03057 1.19235 0
M  V30 5078 C 475.403 0.557384 2.21288 0
M  V30 5079 C 476.381 -0.402675 1.57535 0
M  V30 5080 O 477.565 -0.319376 1.85775 0
M  V30 5081 C 474.692 -0.187041 3.38183 0
M  V30 5082 C 473.738 0.72471 4.20298 0
M  V30 5083 S 474.571 2.20187 4.88137 0
M  V30 5084 C 475.727 1.46801 6.08441 0
M  V30 5085 H 475.96 1.42207 2.61083 0
M  V30 5086 H 473.493 0.840651 1.29508 0
M  V30 5087 H 475.451 -0.610405 4.05936 0
M  V30 5088 H 474.112 -1.02748 2.96819 0
M  V30 5089 H 473.305 0.149911 5.03777 0
M  V30 5090 H 472.907 1.08647 3.57871 0
M  V30 5091 H 475.199 0.755522 6.73274 0
M  V30 5092 H 476.142 2.27946 6.70407 0
M  V30 5093 H 476.55 0.964762 5.56195 0
M  V30 5094 N 475.948 -1.35272 0.808662 0
M  V30 5095 C 476.896 -2.31663 0.208606 0
M  V30 5096 C 477.89 -1.56731 -0.642778 0
M  V30 5097 O 479.096 -1.71843 -0.53571 0
M  V30 5098 H 475.471 -0.750421 0.0486993 0
M  V30 5099 H 477.442 -2.79814 1.03666 0
M  V30 5100 C 476.191 -3.42008 -0.626573 0
M  V30 5101 H 475.514 -3.99795 0.0192103 0
M  V30 5102 H 476.954 -4.11727 -1.01278 0
M  V30 5103 C 475.413 -2.85226 -1.79298 0
M  V30 5104 O 475.943 -2.78945 -2.89055 0
M  V30 5105 N 474.149 -2.42245 -1.60516 0
M  V30 5106 H 473.696 -2.47554 -0.712375 0
M  V30 5107 H 473.654 -2.04603 -2.38715 0
M  V30 5108 N 477.426 -0.562348 -1.47226 0
M  V30 5109 C 478.374 0.195476 -2.31777 0
M  V30 5110 C 479.368 0.90433 -1.43242 0
M  V30 5111 O 480.574 0.825031 -1.59979 0
M  V30 5112 H 476.949 0.0819095 -0.747526 0
M  V30 5113 H 478.92 -0.536753 -2.93533 0
M  V30 5114 C 477.669 1.20902 -3.26003 0
M  V30 5115 H 476.992 0.672997 -3.94095 0
M  V30 5116 H 478.432 1.71006 -3.87986 0
M  V30 5117 C 476.891 2.25955 -2.49891 0
M  V30 5118 O 477.421 3.32969 -2.2471 0
M  V30 5119 N 475.627 2.00019 -2.1081 0
M  V30 5120 H 475.174 1.13006 -2.31489 0
M  V30 5121 H 475.132 2.70523 -1.60201 0
M  V30 5122 N 478.904 1.54736 -0.299062 0
M  V30 5123 C 479.852 2.24897 0.593658 0
M  V30 5124 C 480.846 1.25429 1.13859 0
M  V30 5125 O 482.052 1.43286 1.08945 0
M  V30 5126 H 478.427 0.72207 0.210046 0
M  V30 5127 H 480.398 2.98393 -0.0206421 0
M  V30 5128 C 479.147 3.00159 1.75499 0
M  V30 5129 H 478.47 3.76501 1.34489 0
M  V30 5130 H 479.91 3.52535 2.35574 0
M  V30 5131 C 478.369 2.07015 2.65794 0
M  V30 5132 O 478.899 1.63692 3.66835 0
M  V30 5133 N 477.105 1.73012 2.33485 0
M  V30 5134 H 476.652 2.08439 1.51364 0
M  V30 5135 H 476.61 1.10965 2.94167 0
M  V30 5136 N 480.382 0.0267497 1.57577 0
M  V30 5137 C 481.315 -0.99059 2.05579 0
M  V30 5138 C 482.293 -1.31884 0.951065 0
M  V30 5139 O 483.477 -1.43592 1.22121 0
M  V30 5140 C 480.604 -2.31125 2.47586 0
M  V30 5141 C 479.65 -2.13777 3.69055 0
M  V30 5142 S 480.483 -1.4388 5.15809 0
M  V30 5143 C 481.639 -2.77321 5.6111 0
M  V30 5144 H 481.872 -0.581976 2.91548 0
M  V30 5145 H 479.405 -0.184876 1.53289 0
M  V30 5146 H 481.363 -3.07049 2.72454 0
M  V30 5147 H 480.024 -2.6912 1.61967 0
M  V30 5148 H 479.217 -3.11405 3.96287 0
M  V30 5149 H 478.819 -1.45996 3.44327 0
M  V30 5150 H 481.111 -3.73565 5.65204 0
M  V30 5151 H 482.054 -2.54756 6.60685 0
M  V30 5152 H 482.462 -2.82459 4.88751 0
M  V30 5153 N 481.861 -1.55662 -0.24637 0
M  V30 5154 C 483.086 -1.81914 -0.996093 0
M  V30 5155 C 483.511 -0.603875 -1.78143 0
M  V30 5156 O 482.869 0.447091 -1.75701 0
M  V30 5157 C 482.917 -3.05908 -1.90925 0
M  V30 5158 O 482.021 -2.82861 -3.00105 0
M  V30 5159 H 481.362 -0.600481 -0.283406 0
M  V30 5160 H 483.892 -2.02848 -0.267199 0
M  V30 5161 H 483.902 -3.35356 -2.3238 0
M  V30 5162 H 482.577 -3.93999 -1.33183 0
M  V30 5163 H 481.154 -2.64583 -2.62775 0
M  V30 5164 N 483.339 0.512053 -1.4905 0
M  V30 5165 C 484.269 1.62365 -1.67809 0
M  V30 5166 C 485.25 1.61737 -0.526809 0
M  V30 5167 O 486.435 1.78651 -0.761404 0
M  V30 5168 C 483.565 3.00895 -1.73435 0
M  V30 5169 C 482.519 3.16387 -2.88242 0
M  V30 5170 C 481.845 4.56157 -2.78971 0
M  V30 5171 C 483.145 2.97457 -4.29321 0
M  V30 5172 H 484.839 1.46921 -2.60873 0
M  V30 5173 H 482.385 0.705379 -1.2554 0
M  V30 5174 H 484.338 3.78549 -1.85145 0
M  V30 5175 H 483.062 3.17403 -0.769619 0
M  V30 5176 H 481.721 2.41155 -2.76116 0
M  V30 5177 H 481.369 4.69525 -1.8043 0
M  V30 5178 H 481.069 4.67465 -3.5602 0
M  V30 5179 H 482.593 5.35886 -2.92675 0
M  V30 5180 H 484.007 3.64888 -4.42187 0
M  V30 5181 H 482.404 3.20245 -5.07507 0
M  V30 5182 H 483.474 1.93692 -4.44535 0
M  V30 5183 N 484.817 1.37938 0.762283 0
M  V30 5184 C 485.749 1.30349 1.88525 0
M  V30 5185 C 486.762 0.217402 1.61342 0
M  V30 5186 O 487.951 0.474291 1.72084 0
M  V30 5187 C 485.051 0.994844 3.23969 0
M  V30 5188 C 484.224 2.18829 3.78725 0
M  V30 5189 C 483.283 1.84844 4.92665 0
M  V30 5190 O 482.309 2.57244 5.07754 0
M  V30 5191 N 483.511 0.798201 5.74986 0
M  V30 5192 H 486.276 2.27114 1.95549 0
M  V30 5193 H 483.837 1.31686 0.941825 0
M  V30 5194 H 485.829 0.748168 3.97724 0
M  V30 5195 H 484.399 0.115446 3.12387 0
M  V30 5196 H 483.619 2.59615 2.96637 0
M  V30 5197 H 484.907 2.98497 4.1204 0
M  V30 5198 H 484.305 0.197611 5.65355 0
M  V30 5199 H 482.862 0.611396 6.48926 0
M  V30 5200 N 486.295 -0.989507 1.22664 0
M  V30 5201 C 487.572 -1.70326 0.961688 0
M  V30 5202 C 487.952 -2.04537 -0.522279 0
M  V30 5203 O 487.3 -1.73136 -1.49118 0
M  V30 5204 C 487.51 -2.95135 1.86269 0
M  V30 5205 C 488.858 -3.67842 2.12078 0
M  V30 5206 O 489.882 -3.0515 1.83745 0
M  V30 5207 O 488.741 -4.80644 2.60083 0
M  V30 5208 H 485.835 -0.743589 0.361946 0
M  V30 5209 H 488.381 -1.04555 1.33665 0
M  V30 5210 H 487.153 -2.66382 2.8663 0
M  V30 5211 H 486.776 -3.68645 1.48952 0
M  V30 5212 N 487.773 -1.03688 -1.18687 0
M  V30 5213 C 488.736 -0.629115 -2.20397 0
M  V30 5214 C 489.736 0.311495 -1.57754 0
M  V30 5215 O 490.926 0.0974107 -1.73927 0
M  V30 5216 C 488.058 0.0782231 -3.4081 0
M  V30 5217 H 489.251 -1.52915 -2.57987 0
M  V30 5218 H 486.804 -0.828988 -1.32505 0
M  V30 5219 H 487.539 0.992233 -3.08748 0
M  V30 5220 H 487.324 -0.597776 -3.87517 0
M  V30 5221 H 488.814 0.350156 -4.16129 0
M  V30 5222 N 489.251 1.34841 -0.815825 0
M  V30 5223 C 490.161 2.33425 -0.234462 0
M  V30 5224 C 491.177 1.62295 0.627413 0
M  V30 5225 O 492.353 1.94109 0.536987 0
M  V30 5226 C 489.418 3.41471 0.599849 0
M  V30 5227 C 488.479 4.28362 -0.283596 0
M  V30 5228 C 487.712 5.31248 0.51099 0
M  V30 5229 O 487.935 5.43056 1.7449 0
M  V30 5230 O 486.869 6.01812 -0.10297 0
M  V30 5231 H 490.695 2.84962 -1.05024 0
M  V30 5232 H 488.28 1.37774 -0.577809 0
M  V30 5233 H 490.162 4.07464 1.07475 0
M  V30 5234 H 488.837 2.9219 1.39308 0
M  V30 5235 H 487.744 3.65318 -0.805836 0
M  V30 5236 H 489.077 4.81066 -1.041 0
M  V30 5237 N 490.729 0.570148 1.46925 0
M  V30 5238 C 491.975 0.0593124 2.03314 0
M  V30 5239 C 492.33 -1.28139 1.43521 0
M  V30 5240 O 491.623 -1.82411 0.586245 0
M  V30 5241 C 491.817 -0.0780336 3.57315 0
M  V30 5242 C 491.646 1.2478 4.32042 0
M  V30 5243 C 490.416 1.81859 4.7144 0
M  V30 5244 C 492.614 2.16808 4.66368 0
M  V30 5245 N 490.596 3.08313 5.30864 0
M  V30 5246 C 491.967 3.27845 5.2623 0
M  V30 5247 C 494.022 2.16643 4.48297 0
M  V30 5248 C 492.725 4.38832 5.69929 0
M  V30 5249 C 494.751 3.26652 4.93004 0
M  V30 5250 C 494.113 4.36408 5.52926 0
M  V30 5251 H 490.212 0.0641804 0.779362 0
M  V30 5252 H 492.796 0.760285 1.79242 0
M  V30 5253 H 490.967 -0.748151 3.81126 0
M  V30 5254 H 492.699 -0.59211 4.00345 0
M  V30 5255 H 489.454 1.35502 4.53802 0
M  V30 5256 H 489.878 3.72802 5.65108 0
M  V30 5257 H 494.52 1.33065 4.01315 0
M  V30 5258 H 492.238 5.23162 6.15896 0
M  V30 5259 H 495.824 3.27627 4.80782 0
M  V30 5260 H 494.704 5.20127 5.86888 0
M  V30 5261 N 492.207 -1.54576 0.307264 0
M  V30 5262 C 493.437 -2.04378 -0.302158 0
M  V30 5263 C 493.845 -1.18381 -1.47589 0
M  V30 5264 O 493.188 -0.20352 -1.82569 0
M  V30 5265 C 493.25 -3.50133 -0.815305 0
M  V30 5266 C 492.914 -4.56401 0.233977 0
M  V30 5267 C 493.911 -5.08884 1.06456 0
M  V30 5268 C 491.596 -5.0088 0.377478 0
M  V30 5269 C 493.59 -6.04394 2.02452 0
M  V30 5270 C 491.277 -5.96208 1.34088 0
M  V30 5271 C 492.275 -6.47849 2.16288 0
M  V30 5272 O 491.963 -7.41308 3.10994 0
M  V30 5273 H 491.695 -0.672502 -0.0686839 0
M  V30 5274 H 494.249 -2.00484 0.446682 0
M  V30 5275 H 492.479 -3.51371 -1.61478 0
M  V30 5276 H 494.168 -3.83098 -1.34129 0
M  V30 5277 H 494.934 -4.75311 0.964596 0
M  V30 5278 H 490.813 -4.60309 -0.252405 0
M  V30 5279 H 494.357 -6.44626 2.66652 0
M  V30 5280 H 490.254 -6.29198 1.44154 0
M  V30 5281 H 491.022 -7.5913 3.06045 0
M  V30 5282 N 493.685 -0.035106 -1.57561 0
M  V30 5283 C 494.931 0.637362 -1.93156 0
M  V30 5284 C 495.286 1.69391 -0.912392 0
M  V30 5285 O 494.579 1.91469 0.070735 0
M  V30 5286 C 494.773 1.29149 -3.3325 0
M  V30 5287 C 494.602 0.29983 -4.48699 0
M  V30 5288 C 493.372 -0.102454 -5.05196 0
M  V30 5289 C 495.57 -0.448297 -5.12342 0
M  V30 5290 N 493.552 -1.08866 -6.0417 0
M  V30 5291 C 494.923 -1.28807 -6.06472 0
M  V30 5292 C 496.978 -0.508351 -4.95298 0
M  V30 5293 C 495.681 -2.18248 -6.85391 0
M  V30 5294 C 497.707 -1.39013 -5.7483 0
M  V30 5295 C 497.069 -2.21766 -6.6858 0
M  V30 5296 H 493.168 0.205358 -0.754554 0
M  V30 5297 H 495.752 -0.103682 -1.94424 0
M  V30 5298 H 493.923 2.00264 -3.3279 0
M  V30 5299 H 495.655 1.92147 -3.56177 0
M  V30 5300 H 492.41 0.273223 -4.72811 0
M  V30 5301 H 492.834 -1.57817 -6.58348 0
M  V30 5302 H 497.476 0.117197 -4.22638 0
M  V30 5303 H 495.194 -2.81855 -7.57353 0
M  V30 5304 H 498.78 -1.44096 -5.63673 0
M  V30 5305 H 497.66 -2.88892 -7.29048 0
M  V30 5306 N 495.163 1.55791 0.238111 0
M  V30 5307 C 496.411 1.77681 0.963001 0
M  V30 5308 C 496.732 0.600674 1.85518 0
M  V30 5309 O 496.002 -0.383182 1.92116 0
M  V30 5310 H 494.582 0.655315 0.358568 0
M  V30 5311 H 497.244 1.93239 0.253945 0
M  V30 5312 H 496.34 2.69177 1.57956 0
M  V30 5313 N 496.642 -0.504142 1.49319 0
M  V30 5314 C 497.919 -1.26548 1.49147 0
M  V30 5315 C 498.299 -2.09977 0.21744 0
M  V30 5316 O 497.647 -2.14028 -0.800269 0
M  V30 5317 C 497.857 -2.12489 2.76857 0
M  V30 5318 C 499.205 -2.7178 3.26222 0
M  V30 5319 O 500.229 -2.22758 2.77952 0
M  V30 5320 O 499.088 -3.61015 4.10281 0
M  V30 5321 H 496.182 -0.572495 0.596806 0
M  V30 5322 H 498.728 -0.51867 1.61579 0
M  V30 5323 H 497.5 -1.50796 3.61077 0
M  V30 5324 H 497.123 -2.94368 2.6727 0
M  V30 5325 N 498.12 -1.38341 -0.754957 0
M  V30 5326 C 499.369 -1.33791 -1.5094 0
M  V30 5327 C 499.682 0.0699267 -1.95475 0
M  V30 5328 O 500.888 0.237956 -2.70455 0
M  V30 5329 C 499.344 -2.34934 -2.72643 0
M  V30 5330 C 498.952 -3.81332 -2.35138 0
M  V30 5331 C 500.696 -2.39425 -3.50536 0
M  V30 5332 C 498.603 -4.74164 -3.53444 0
M  V30 5333 H 497.533 -0.497314 -0.566741 0
M  V30 5334 H 500.184 -1.63888 -0.825403 0
M  V30 5335 H 498.566 -1.97878 -3.43017 0
M  V30 5336 H 499.74 -4.27319 -1.7244 0
M  V30 5337 H 498.055 -3.79946 -1.70382 0
M  V30 5338 H 500.652 -3.0598 -4.38498 0
M  V30 5339 H 500.995 -1.41278 -3.91594 0
M  V30 5340 H 501.528 -2.75274 -2.87174 0
M  V30 5341 H 498.267 -5.73501 -3.17453 0
M  V30 5342 H 497.787 -4.3287 -4.15191 0
M  V30 5343 H 499.466 -4.92111 -4.20043 0
M  V30 5344 N 499.598 0.982988 -1.23187 0
M  V30 5345 C 500.823 1.76455 -1.08988 0
M  V30 5346 C 501.248 1.84726 0.354691 0
M  V30 5347 O 500.606 1.30699 1.25649 0
M  V30 5348 C 500.654 3.17094 -1.71708 0
M  V30 5349 O 499.758 4.00648 -0.977477 0
M  V30 5350 H 499.099 0.542988 -0.382177 0
M  V30 5351 H 501.629 1.23413 -1.63188 0
M  V30 5352 H 501.639 3.67684 -1.76841 0
M  V30 5353 H 500.314 3.10389 -2.76823 0
M  V30 5354 H 498.891 3.59161 -1.0029 0
M  V30 5355 N 501.076 1.04316 1.18135 0
M  V30 5356 C 502.492 0.762858 1.40188 0
M  V30 5357 C 502.692 -0.646547 1.90846 0
M  V30 5358 O 501.748 -1.41036 2.0944 0
M  V30 5359 C 503.061 1.81106 2.40044 0
M  V30 5360 C 504.609 1.83226 2.53766 0
M  V30 5361 C 505.084 2.87044 3.56889 0
M  V30 5362 N 506.575 2.85951 3.64398 0
M  V30 5363 C 507.31 3.62932 4.43923 0
M  V30 5364 N 506.806 4.49672 5.27036 0
M  V30 5365 N 508.599 3.51411 4.38711 0
M  V30 5366 H 500.75 1.95264 0.835805 0
M  V30 5367 H 503.013 0.845017 0.429709 0
M  V30 5368 H 502.719 2.82214 2.09876 0
M  V30 5369 H 502.593 1.64529 3.39426 0
M  V30 5370 H 504.98 0.827869 2.8325 0
M  V30 5371 H 505.061 2.03879 1.54489 0
M  V30 5372 H 504.705 3.87663 3.28145 0
M  V30 5373 H 504.635 2.63645 4.5585 0
M  V30 5374 H 507.126 2.23051 3.05052 0
M  V30 5375 H 507.439 5.05116 5.84874 0
M  V30 5376 H 505.784 4.53738 5.26447 0
M  V30 5377 H 508.975 2.83047 3.72829 0
M  V30 5378 H 509.148 4.11654 5.00445 0
M  V30 5379 N 502.554 -1.34406 0.822964 0
M  V30 5380 C 503.464 -2.33298 0.246838 0
M  V30 5381 C 504.48 -1.62625 -0.618797 0
M  V30 5382 O 505.656 -1.94391 -0.526685 0
M  V30 5383 C 502.721 -3.41785 -0.581731 0
M  V30 5384 C 501.782 -4.28206 0.306309 0
M  V30 5385 C 501.015 -5.31512 -0.48281 0
M  V30 5386 O 501.238 -5.43973 -1.71607 0
M  V30 5387 O 500.172 -6.01749 0.134884 0
M  V30 5388 H 503.998 -2.84401 1.06534 0
M  V30 5389 H 501.583 -1.37466 0.585108 0
M  V30 5390 H 503.465 -4.08028 -1.05313 0
M  V30 5391 H 502.14 -2.92925 -1.37756 0
M  V30 5392 H 501.047 -3.64885 0.825199 0
M  V30 5393 H 502.38 -4.80507 1.06649 0
M  V30 5394 N 504.032 -0.577932 -1.46621 0
M  V30 5395 C 504.942 0.160651 -2.34049 0
M  V30 5396 C 505.958 0.890911 -1.49462 0
M  V30 5397 O 507.134 0.855166 -1.82343 0
M  V30 5398 C 504.199 1.16447 -3.26559 0
M  V30 5399 C 503.26 0.4394 -4.27045 0
M  V30 5400 C 502.493 1.3954 -5.15135 0
M  V30 5401 O 502.716 2.63162 -5.06065 0
M  V30 5402 O 501.65 0.908585 -5.95003 0
M  V30 5403 H 505.476 -0.557057 -2.98547 0
M  V30 5404 H 503.061 -0.338369 -1.45518 0
M  V30 5405 H 504.943 1.7434 -3.83645 0
M  V30 5406 H 503.618 1.86373 -2.64663 0
M  V30 5407 H 502.525 -0.181247 -3.73661 0
M  V30 5408 H 503.858 -0.218799 -4.91713 0
M  V30 5409 N 505.51 1.54411 -0.315457 0
M  V30 5410 C 506.756 2.00716 0.289972 0
M  V30 5411 C 507.089 1.2034 1.5242 0
M  V30 5412 O 506.364 0.283579 1.92422 0
M  V30 5413 C 506.647 3.54507 0.632196 0
M  V30 5414 C 506.5 4.45615 -0.61218 0
M  V30 5415 C 507.819 4.15421 1.45305 0
M  V30 5416 H 504.938 0.729637 0.10392 0
M  V30 5417 H 507.58 1.8506 -0.430427 0
M  V30 5418 H 505.73 3.67979 1.24595 0
M  V30 5419 H 507.402 4.44026 -1.25053 0
M  V30 5420 H 505.645 4.15621 -1.24264 0
M  V30 5421 H 506.316 5.51022 -0.328379 0
M  V30 5422 H 508.792 4.05474 0.934331 0
M  V30 5423 H 507.668 5.23157 1.66127 0
M  V30 5424 H 507.929 3.68223 2.44671 0
M  V30 5425 N 506.988 0.0434614 1.5754 0
M  V30 5426 C 507.936 -0.951465 2.1225 0
M  V30 5427 C 508.93 -1.3274 1.05245 0
M  V30 5428 O 510.136 -1.30795 1.23663 0
M  V30 5429 H 506.511 -0.324667 0.678303 0
M  V30 5430 H 508.482 -0.464855 2.94757 0
M  V30 5431 C 507.231 -2.21972 2.67626 0
M  V30 5432 H 506.554 -1.93923 3.4962 0
M  V30 5433 H 507.994 -2.89765 3.09536 0
M  V30 5434 C 506.453 -2.95919 1.61038 0
M  V30 5435 O 506.983 -3.8857 1.01862 0
M  V30 5436 N 505.189 -2.58511 1.32741 0
M  V30 5437 H 504.736 -1.83244 1.81051 0
M  V30 5438 H 504.694 -3.08296 0.616531 0
M  V30 5439 N 508.466 -1.55915 -0.229846 0
M  V30 5440 C 509.376 -1.94891 -1.30593 0
M  V30 5441 C 510.392 -0.851604 -1.51736 0
M  V30 5442 O 511.568 -1.15447 -1.65027 0
M  V30 5443 C 508.633 -2.25052 -2.63728 0
M  V30 5444 C 507.694 -3.48306 -2.5096 0
M  V30 5445 C 506.927 -3.77019 -3.77747 0
M  V30 5446 O 507.15 -3.07534 -4.80395 0
M  V30 5447 O 506.084 -4.70523 -3.75356 0
M  V30 5448 H 509.91 -2.86581 -1.00525 0
M  V30 5449 H 507.495 -1.43017 -0.432025 0
M  V30 5450 H 509.377 -2.45682 -3.42372 0
M  V30 5451 H 508.052 -1.36538 -2.93495 0
M  V30 5452 H 506.959 -3.32964 -1.70546 0
M  V30 5453 H 508.292 -4.37177 -2.26136 0
M  V30 5454 N 509.944 0.496216 -1.49584 0
M  V30 5455 C 510.891 1.59722 -1.66606 0
M  V30 5456 C 511.861 1.58158 -0.507477 0
M  V30 5457 O 513.046 1.76072 -0.735076 0
M  V30 5458 C 510.186 2.97844 -1.74308 0
M  V30 5459 C 509.299 3.09388 -3.01502 0
M  V30 5460 C 508.434 4.38271 -3.00153 0
M  V30 5461 C 507.473 4.43466 -4.21906 0
M  V30 5462 N 506.61 5.63784 -4.1844 0
M  V30 5463 H 511.45 1.44515 -2.60613 0
M  V30 5464 H 508.987 0.703048 -1.29212 0
M  V30 5465 H 510.945 3.77907 -1.76754 0
M  V30 5466 H 509.575 3.11743 -0.837619 0
M  V30 5467 H 508.627 2.22357 -3.08645 0
M  V30 5468 H 509.939 3.09085 -3.91494 0
M  V30 5469 H 509.093 5.2666 -3.01188 0
M  V30 5470 H 507.832 4.41146 -2.07947 0
M  V30 5471 H 506.837 3.53478 -4.21109 0
M  V30 5472 H 508.062 4.42303 -5.1531 0
M  V30 5473 H 506.008 5.67491 -3.29074 0
M  V30 5474 H 505.925 5.65118 -5.02173 0
M  V30 5475 H 507.193 6.54367 -4.23585 0
M  V30 5476 N 511.423 1.38739 0.74761 0
M  V30 5477 C 512.353 1.39173 1.87492 0
M  V30 5478 C 513.334 0.256794 1.6815 0
M  V30 5479 O 514.519 0.460762 1.88655 0
M  V30 5480 C 511.649 1.22197 3.25093 0
M  V30 5481 C 510.603 2.32957 3.59047 0
M  V30 5482 C 509.929 2.01082 4.95449 0
M  V30 5483 C 511.229 3.75237 3.6331 0
M  V30 5484 H 512.923 2.3351 1.87386 0
M  V30 5485 H 510.469 1.12399 0.900134 0
M  V30 5486 H 512.422 1.21124 4.03617 0
M  V30 5487 H 511.146 0.243241 3.25693 0
M  V30 5488 H 509.805 2.33226 2.82845 0
M  V30 5489 H 509.453 1.01678 4.92616 0
M  V30 5490 H 509.153 2.75267 5.19136 0
M  V30 5491 H 510.677 2.01638 5.76346 0
M  V30 5492 H 512.091 3.76966 4.31937 0
M  V30 5493 H 510.488 4.48677 3.98509 0
M  V30 5494 H 511.558 4.07122 2.634 0
M  V30 5495 N 512.901 -0.976442 1.23707 0
M  V30 5496 C 514.317 -1.24341 1.00058 0
M  V30 5497 C 514.517 -1.99315 -0.295932 0
M  V30 5498 O 513.573 -2.3123 -1.01435 0
M  V30 5499 C 514.886 -2.03909 2.21001 0
M  V30 5500 C 516.434 -2.17034 2.25534 0
M  V30 5501 C 516.909 -2.99994 3.46075 0
M  V30 5502 N 518.4 -3.07578 3.46338 0
M  V30 5503 C 519.135 -3.72104 4.36264 0
M  V30 5504 N 518.631 -4.3842 5.36432 0
M  V30 5505 N 520.424 -3.69029 4.23998 0
M  V30 5506 H 512.575 -0.47428 2.07037 0
M  V30 5507 H 514.838 -0.272167 0.908091 0
M  V30 5508 H 514.544 -1.56198 3.15111 0
M  V30 5509 H 514.418 -3.04654 2.22409 0
M  V30 5510 H 516.805 -2.63951 1.31961 0
M  V30 5511 H 516.886 -1.15664 2.28156 0
M  V30 5512 H 516.53 -2.53772 4.39957 0
M  V30 5513 H 516.46 -4.01541 3.40694 0
M  V30 5514 H 518.951 -2.60397 2.73865 0
M  V30 5515 H 519.264 -4.85447 6.013 0
M  V30 5516 H 517.609 -4.37116 5.40328 0
M  V30 5517 H 520.8 -3.16392 3.44984 0
M  V30 5518 H 520.973 -4.19034 4.94282 0
M  V30 5519 N 514.379 -1.04941 -1.1758 0
M  V30 5520 C 515.656 -0.671918 -1.83697 0
M  V30 5521 C 516.036 0.847929 -1.93322 0
M  V30 5522 O 515.384 1.75287 -1.46583 0
M  V30 5523 C 515.594 -1.35797 -3.21497 0
M  V30 5524 C 516.942 -1.4944 -3.97433 0
M  V30 5525 O 517.966 -1.31678 -3.30967 0
M  V30 5526 O 516.825 -1.78463 -5.1654 0
M  V30 5527 H 513.919 -0.236212 -0.792548 0
M  V30 5528 H 516.465 -1.14884 -1.24899 0
M  V30 5529 H 515.237 -2.39498 -3.09446 0
M  V30 5530 H 514.86 -0.870236 -3.8796 0
M  V30 5531 N 515.857 1.33968 -0.830081 0
M  V30 5532 C 517.085 2.0228 -0.434773 0
M  V30 5533 C 517.5 1.62487 0.961419 0
M  V30 5534 O 516.857 0.833849 1.62337 0
M  V30 5535 C 516.908 3.5751 -0.535625 0
M  V30 5536 O 516.629 3.95864 -1.87679 0
M  V30 5537 C 518.13 4.43091 -0.136137 0
M  V30 5538 H 515.35 0.648151 -0.173613 0
M  V30 5539 H 517.894 1.71089 -1.12022 0
M  V30 5540 H 516.049 3.87266 0.101817 0
M  V30 5541 H 516.463 4.9056 -1.85609 0
M  V30 5542 H 517.937 5.51398 -0.257772 0
M  V30 5543 H 518.414 4.29433 0.921076 0
M  V30 5544 H 519.02 4.18677 -0.747662 0
M  V30 5545 N 517.335 0.585699 1.46312 0
M  V30 5546 C 518.298 -0.135673 2.28798 0
M  V30 5547 C 519.298 -0.815988 1.38558 0
M  V30 5548 O 520.488 -0.667487 1.60904 0
M  V30 5549 C 517.62 -1.20163 3.1902 0
M  V30 5550 H 518.813 0.589257 2.94054 0
M  V30 5551 H 516.366 0.343794 1.52472 0
M  V30 5552 H 517.101 -1.95804 2.58517 0
M  V30 5553 H 516.886 -0.718282 3.85465 0
M  V30 5554 H 518.376 -1.70749 3.81096 0
M  V30 5555 N 518.813 -1.54241 0.323641 0
M  V30 5556 C 520.09 -1.92741 -0.333181 0
M  V30 5557 C 520.47 -1.25326 -1.69872 0
M  V30 5558 O 519.818 -0.396991 -2.25025 0
M  V30 5559 C 520.028 -3.46399 -0.425322 0
M  V30 5560 C 521.376 -4.19029 -0.68557 0
M  V30 5561 O 522.4 -3.52555 -0.50824 0
M  V30 5562 O 521.259 -5.36751 -1.02767 0
M  V30 5563 H 518.353 -0.804811 -0.190286 0
M  V30 5564 H 520.899 -1.65542 0.373361 0
M  V30 5565 H 519.671 -3.87643 0.533737 0
M  V30 5566 H 519.294 -3.79704 -1.17944 0
M  V30 5567 N 520.291 -0.0518155 -1.57515 0
M  V30 5568 C 521.539 0.620595 -1.92336 0
M  V30 5569 C 521.86 1.71345 -0.930907 0
M  V30 5570 O 521.13 1.95885 0.0241341 0
M  V30 5571 H 519.71 0.232226 -0.709986 0
M  V30 5572 H 522.372 -0.104969 -1.94617 0
M  V30 5573 H 521.468 1.05879 -2.93592 0
M  V30 5574 N 521.769 1.56035 0.221574 0
M  V30 5575 C 522.997 1.8313 0.962864 0
M  V30 5576 C 523.412 0.630934 1.77946 0
M  V30 5577 O 522.769 -0.400519 1.78051 0
M  V30 5578 C 522.82 3.08742 1.88045 0
M  V30 5579 O 522.541 4.24147 1.09686 0
M  V30 5580 C 524.042 3.48824 2.73563 0
M  V30 5581 H 521.262 0.608775 0.282194 0
M  V30 5582 H 523.806 2.03124 0.23681 0
M  V30 5583 H 521.961 2.90723 2.56045 0
M  V30 5584 H 522.375 4.95505 1.71974 0
M  V30 5585 H 523.849 4.39752 3.3365 0
M  V30 5586 H 524.326 2.70575 3.45956 0
M  V30 5587 H 524.932 3.69282 2.10976 0
M  V30 5588 N 523.247 -0.488276 1.49845 0
M  V30 5589 C 524.494 -1.24157 1.59973 0
M  V30 5590 C 524.822 -1.92293 0.292182 0
M  V30 5591 O 524.077 -1.81942 -0.720813 0
M  V30 5592 C 524.376 -2.32152 2.71735 0
M  V30 5593 C 524.042 -1.81387 4.12807 0
M  V30 5594 C 522.704 -1.67262 4.51195 0
M  V30 5595 C 525.056 -1.43537 5.01045 0
M  V30 5596 C 522.384 -1.13685 5.7558 0
M  V30 5597 C 524.736 -0.914081 6.25961 0
M  V30 5598 C 523.4 -0.759327 6.63167 0
M  V30 5599 H 522.67 -0.454322 0.585383 0
M  V30 5600 H 525.317 -0.540261 1.83721 0
M  V30 5601 H 523.622 -3.08122 2.42008 0
M  V30 5602 H 525.319 -2.90164 2.76778 0
M  V30 5603 H 521.909 -1.93344 3.82513 0
M  V30 5604 H 526.093 -1.53292 4.72033 0
M  V30 5605 H 521.349 -1.00426 6.03096 0
M  V30 5606 H 525.523 -0.612066 6.93705 0
M  V30 5607 H 523.15 -0.342002 7.5943 0
M  V30 5608 N 524.725 -1.39134 -0.740242 0
M  V30 5609 C 525.655 -1.40165 -1.86751 0
M  V30 5610 C 526.636 -0.265708 -1.68012 0
M  V30 5611 O 527.821 -0.47076 -1.88408 0
M  V30 5612 C 524.951 -1.2392 -3.2444 0
M  V30 5613 C 523.905 -2.34858 -3.57807 0
M  V30 5614 C 523.231 -2.03707 -4.94376 0
M  V30 5615 C 524.531 -3.77159 -3.61315 0
M  V30 5616 H 526.225 -2.345 -1.86145 0
M  V30 5617 H 523.771 -1.12875 -0.89416 0
M  V30 5618 H 525.724 -1.23263 -4.02969 0
M  V30 5619 H 524.448 -0.26051 -3.25559 0
M  V30 5620 H 523.107 -2.34723 -2.81604 0
M  V30 5621 H 522.755 -1.04289 -4.9207 0
M  V30 5622 H 522.455 -2.78016 -5.17669 0
M  V30 5623 H 523.979 -2.04691 -5.75268 0
M  V30 5624 H 525.393 -3.79252 -4.29931 0
M  V30 5625 H 523.79 -4.50784 -3.96124 0
M  V30 5626 H 524.86 -4.08513 -2.61238 0
M  V30 5627 N 526.204 0.969867 -1.24223 0
M  V30 5628 C 527.45 1.7151 -1.08223 0
M  V30 5629 C 527.783 1.90478 0.37838 0
M  V30 5630 O 527.058 1.4647 1.27971 0
M  V30 5631 C 527.341 3.10714 -1.82013 0
M  V30 5632 C 527.194 2.9925 -3.35811 0
M  V30 5633 C 528.513 4.10332 -1.59108 0
M  V30 5634 H 525.632 0.622499 -0.394543 0
M  V30 5635 H 528.274 1.1284 -1.52863 0
M  V30 5636 H 526.424 3.608 -1.44068 0
M  V30 5637 H 528.096 2.56608 -3.83341 0
M  V30 5638 H 526.339 2.35512 -3.64303 0
M  V30 5639 H 527.01 3.97857 -3.82641 0
M  V30 5640 H 529.486 3.69097 -1.92111 0
M  V30 5641 H 528.362 5.05804 -2.13198 0
M  V30 5642 H 528.623 4.38926 -0.528832 0
M  V30 5643 N 527.682 1.05563 1.17022 0
M  V30 5644 C 529.098 0.777684 1.39371 0
M  V30 5645 C 529.298 -0.626269 1.91521 0
M  V30 5646 O 528.354 -1.38806 2.10924 0
M  V30 5647 C 529.667 1.83642 2.3811 0
M  V30 5648 C 531.215 1.85907 2.51809 0
M  V30 5649 C 531.69 2.90813 3.53824 0
M  V30 5650 N 533.181 2.898 3.61345 0
M  V30 5651 C 533.916 3.6762 4.40049 0
M  V30 5652 N 533.412 4.55237 5.22237 0
M  V30 5653 N 535.205 3.56044 4.34959 0
M  V30 5654 H 527.356 1.9614 0.815047 0
M  V30 5655 H 529.619 0.849527 0.420722 0
M  V30 5656 H 529.325 2.84425 2.06871 0
M  V30 5657 H 529.199 1.6812 3.37662 0
M  V30 5658 H 531.586 0.857865 2.82356 0
M  V30 5659 H 531.667 2.05506 1.52318 0
M  V30 5660 H 531.311 3.91122 3.24015 0
M  V30 5661 H 531.241 2.68465 4.53028 0
M  V30 5662 H 533.732 2.26274 3.02669 0
M  V30 5663 H 534.045 5.11291 5.79484 0
M  V30 5664 H 532.39 4.59296 5.21605 0
M  V30 5665 H 535.581 2.86986 3.69806 0
M  V30 5666 H 535.754 4.16938 4.96051 0
M  V30 5667 N 529.16 -1.33526 0.837174 0
M  V30 5668 C 530.437 -1.92369 0.354065 0
M  V30 5669 C 530.817 -1.76348 -1.16038 0
M  V30 5670 O 530.165 -1.15083 -1.97403 0
M  V30 5671 C 530.375 -3.39728 0.799101 0
M  V30 5672 C 531.723 -4.16877 0.806139 0
M  V30 5673 O 532.747 -3.48373 0.742597 0
M  V30 5674 O 531.606 -5.39166 0.892345 0
M  V30 5675 H 528.7 -0.820952 0.0998378 0
M  V30 5676 H 531.246 -1.42409 0.922913 0
M  V30 5677 H 530.018 -3.45254 1.84162 0
M  V30 5678 H 529.641 -3.97062 0.206731 0
M  V30 5679 N 530.638 -0.59345 -1.46 0
M  V30 5680 C 531.601 0.123538 -2.28867 0
M  V30 5681 C 532.601 0.808628 -1.38989 0
M  V30 5682 O 533.791 0.658945 -1.61256 0
M  V30 5683 C 530.923 1.1847 -3.19653 0
M  V30 5684 H 532.116 -0.604843 -2.93737 0
M  V30 5685 H 529.669 -0.351875 -1.52288 0
M  V30 5686 H 530.404 1.94431 -2.59552 0
M  V30 5687 H 530.189 0.69783 -3.8584 0
M  V30 5688 H 531.679 1.68726 -3.81997 0
M  V30 5689 N 532.116 1.54067 -0.331816 0
M  V30 5690 C 533.341 2.05599 0.272705 0
M  V30 5691 C 533.766 1.2059 1.44359 0
M  V30 5692 O 533.124 0.216907 1.79998 0
M  V30 5693 C 533.172 3.54188 0.677021 0
M  V30 5694 O 532.276 3.72082 1.77844 0
M  V30 5695 H 531.617 0.662286 0.0476801 0
M  V30 5696 H 534.147 1.98826 -0.482624 0
M  V30 5697 H 534.157 3.96608 0.957415 0
M  V30 5698 H 532.832 4.15513 -0.179325 0
M  V30 5699 H 531.409 3.41566 1.49622 0
M  V30 5700 N 533.594 0.0601682 1.57485 0
M  V30 5701 C 534.822 -0.620937 1.97363 0
M  V30 5702 C 535.237 -1.63846 0.938082 0
M  V30 5703 O 534.594 -1.82339 -0.0766578 0
M  V30 5704 C 534.645 -1.29987 3.37321 0
M  V30 5705 O 534.366 -0.323081 4.36907 0
M  V30 5706 C 535.867 -2.06989 3.92008 0
M  V30 5707 H 533.087 -0.169135 0.649334 0
M  V30 5708 H 535.631 0.129132 2.04092 0
M  V30 5709 H 533.786 -2.0011 3.31715 0
M  V30 5710 H 534.2 -0.808754 5.18227 0
M  V30 5711 H 535.674 -2.49901 4.92192 0
M  V30 5712 H 536.151 -2.92173 3.2792 0
M  V30 5713 H 536.757 -1.41757 4.0098 0
M  V30 5714 N 535.072 -1.5615 -0.213296 0
M  V30 5715 C 536.019 -1.93086 -1.26437 0
M  V30 5716 C 536.989 -0.789086 -1.4616 0
M  V30 5717 O 538.174 -1.04569 -1.59593 0
M  V30 5718 C 535.314 -2.26003 -2.608 0
M  V30 5719 C 534.427 -3.53156 -2.48807 0
M  V30 5720 C 533.562 -3.7548 -3.7575 0
M  V30 5721 C 532.601 -4.96119 -3.58514 0
M  V30 5722 N 531.738 -5.14791 -4.77425 0
M  V30 5723 H 536.578 -2.82707 -0.942376 0
M  V30 5724 H 534.115 -1.39919 -0.454001 0
M  V30 5725 H 536.073 -2.431 -3.39055 0
M  V30 5726 H 534.703 -1.39546 -2.91079 0
M  V30 5727 H 533.755 -3.44207 -1.61944 0
M  V30 5728 H 535.067 -4.41565 -2.31996 0
M  V30 5729 H 534.221 -3.92718 -4.62447 0
M  V30 5730 H 532.96 -2.85368 -3.95495 0
M  V30 5731 H 531.965 -4.78823 -2.70201 0
M  V30 5732 H 533.19 -5.87724 -3.40231 0
M  V30 5733 H 531.136 -4.27623 -4.97468 0
M  V30 5734 H 531.053 -5.97347 -4.63371 0
M  V30 5735 H 532.321 -5.36471 -5.65525 0
M  V30 5736 N 536.55 0.480323 -1.50102 0
M  V30 5737 C 537.483 1.59789 -1.62919 0
M  V30 5738 C 538.461 1.55429 -0.477557 0
M  V30 5739 O 539.645 1.75186 -0.695851 0
M  V30 5740 C 536.772 2.98351 -1.60325 0
M  V30 5741 C 535.818 3.20899 -2.80938 0
M  V30 5742 S 536.651 3.01791 -4.4236 0
M  V30 5743 C 537.807 4.42712 -4.42444 0
M  V30 5744 H 538.04 1.48676 -2.57454 0
M  V30 5745 H 535.573 0.666996 -1.3925 0
M  V30 5746 H 537.531 3.7824 -1.59514 0
M  V30 5747 H 536.192 3.06862 -0.670419 0
M  V30 5748 H 535.385 4.22102 -2.75401 0
M  V30 5749 H 534.987 2.48768 -2.79268 0
M  V30 5750 H 537.279 5.3518 -4.15438 0
M  V30 5751 H 538.222 4.53294 -5.43995 0
M  V30 5752 H 538.63 4.24359 -3.72263 0
M  V30 5753 N 538.028 1.39524 0.732853 0
M  V30 5754 C 538.978 1.34905 1.83806 0
M  V30 5755 C 539.962 0.229546 1.59254 0
M  V30 5756 O 541.154 0.467255 1.70721 0
M  V30 5757 C 538.283 1.19699 3.21756 0
M  V30 5758 C 537.369 2.36359 3.5213 0
M  V30 5759 N 537.76 3.61834 3.53426 0
M  V30 5760 C 536.058 2.29363 3.82503 0
M  V30 5761 C 536.759 4.38992 3.81655 0
M  V30 5762 N 535.735 3.68606 3.99538 0
M  V30 5763 H 539.537 2.29882 1.83116 0
M  V30 5764 H 537.051 1.33051 0.931194 0
M  V30 5765 H 539.048 1.14472 4.00876 0
M  V30 5766 H 537.708 0.256739 3.23683 0
M  V30 5767 H 538.719 3.95228 3.34686 0
M  V30 5768 H 535.396 1.43612 3.92023 0
M  V30 5769 H 536.786 5.47763 3.89108 0
M  V30 5770 N 539.506 -0.963266 1.24736 0
M  V30 5771 C 540.754 -1.70343 1.08755 0
M  V30 5772 C 541.075 -1.91387 -0.373619 0
M  V30 5773 O 540.345 -1.4948 -1.2662 0
M  V30 5774 H 538.925 -0.631224 0.399456 0
M  V30 5775 H 541.587 -1.15859 1.56725 0
M  V30 5776 H 540.683 -2.68616 1.58909 0
M  V30 5777 N 540.985 -1.06182 -1.16461 0
M  V30 5778 C 542.262 -0.691364 -1.82974 0
M  V30 5779 C 542.642 0.827377 -1.9421 0
M  V30 5780 O 541.99 1.73723 -1.48434 0
M  V30 5781 C 542.2 -1.39199 -3.20038 0
M  V30 5782 C 543.548 -1.53647 -3.95825 0
M  V30 5783 O 544.572 -1.35181 -3.29552 0
M  V30 5784 O 543.431 -1.83932 -5.14618 0
M  V30 5785 H 540.525 -0.244605 -0.789998 0
M  V30 5786 H 543.071 -1.16203 -1.23673 0
M  V30 5787 H 541.843 -2.42766 -3.06888 0
M  V30 5788 H 541.466 -0.911335 -3.87015 0
M  V30 5789 N 542.463 1.3308 -0.844243 0
M  V30 5790 C 543.693 2.01515 -0.455541 0
M  V30 5791 C 544.101 1.63655 0.949406 0
M  V30 5792 O 543.444 0.84848 1.62931 0
M  V30 5793 C 543.506 3.55967 -0.502801 0
M  V30 5794 C 543.17 4.17222 -1.86481 0
M  V30 5795 C 544.167 4.36205 -2.8288 0
M  V30 5796 C 541.852 4.53528 -2.15911 0
M  V30 5797 C 543.846 4.90649 -4.06869 0
M  V30 5798 C 541.533 5.07679 -3.40155 0
M  V30 5799 C 542.531 5.26186 -4.35451 0
M  V30 5800 O 542.219 5.79183 -5.57496 0
M  V30 5801 H 541.951 0.65199 -0.178565 0
M  V30 5802 H 544.505 1.70867 -1.1399 0
M  V30 5803 H 542.735 3.85965 0.23836 0
M  V30 5804 H 544.424 4.05688 -0.131169 0
M  V30 5805 H 545.19 4.085 -2.61444 0
M  V30 5806 H 541.069 4.38414 -1.42528 0
M  V30 5807 H 544.613 5.0501 -4.81259 0
M  V30 5808 H 540.51 5.34815 -3.61446 0
M  V30 5809 H 541.278 5.97591 -5.5931 0
M  V30 5810 N 543.941 0.601185 1.45683 0
M  V30 5811 C 545.169 0.100054 2.06658 0
M  V30 5812 C 545.584 -1.21285 1.44691 0
M  V30 5813 O 544.941 -1.73735 0.558772 0
M  V30 5814 C 544.992 -0.0528579 3.61461 0
M  V30 5815 O 544.713 1.20809 4.21114 0
M  V30 5816 C 546.214 -0.586193 4.39407 0
M  V30 5817 H 543.434 0.065905 0.667756 0
M  V30 5818 H 545.978 0.827101 1.87028 0
M  V30 5819 H 544.133 -0.730203 3.80456 0
M  V30 5820 H 544.547 1.03368 5.14213 0
M  V30 5821 H 546.021 -0.642297 5.4825 0
M  V30 5822 H 546.498 -1.60713 4.0874 0
M  V30 5823 H 547.104 0.0568935 4.25262 0
M  V30 5824 N 545.419 -1.53889 0.339982 0
M  V30 5825 C 546.349 -2.27843 -0.510856 0
M  V30 5826 C 547.33 -1.29267 -1.10563 0
M  V30 5827 O 548.515 -1.58104 -1.12768 0
M  V30 5828 C 545.645 -3.04857 -1.66372 0
M  V30 5829 C 544.599 -4.10907 -1.19746 0
M  V30 5830 C 543.925 -4.75855 -2.43857 0
M  V30 5831 C 545.225 -5.21435 -0.300501 0
M  V30 5832 H 546.919 -2.99212 0.106067 0
M  V30 5833 H 544.465 -1.43904 0.0524533 0
M  V30 5834 H 546.418 -3.5533 -2.26537 0
M  V30 5835 H 545.142 -2.31133 -2.30749 0
M  V30 5836 H 543.801 -3.61342 -0.618654 0
M  V30 5837 H 543.449 -3.9873 -3.06633 0
M  V30 5838 H 543.149 -5.47502 -2.13343 0
M  V30 5839 H 544.673 -5.2911 -3.04754 0
M  V30 5840 H 546.087 -5.67565 -0.80889 0
M  V30 5841 H 544.484 -6.00036 -0.0874076 0
M  V30 5842 H 545.554 -4.80328 0.664321 0
M  V30 5843 N 546.897 -0.0685191 -1.57451 0
M  V30 5844 C 548.125 0.610462 -1.97689 0
M  V30 5845 C 548.54 1.63346 -0.946758 0
M  V30 5846 O 547.897 1.82377 0.0669868 0
M  V30 5847 C 547.948 1.28196 -3.38006 0
M  V30 5848 O 547.669 0.299906 -4.37072 0
M  V30 5849 C 549.17 2.04907 -3.931 0
M  V30 5850 H 546.39 0.165689 -0.650222 0
M  V30 5851 H 548.934 -0.139953 -2.04021 0
M  V30 5852 H 547.089 1.98348 -3.32771 0
M  V30 5853 H 547.503 0.78126 -5.18649 0
M  V30 5854 H 548.977 2.47287 -4.93511 0
M  V30 5855 H 549.454 2.9043 -3.29465 0
M  V30 5856 H 550.06 1.39629 -4.01726 0
M  V30 5857 N 548.375 1.56261 0.205012 0
M  V30 5858 C 549.305 1.96779 1.257 0
M  V30 5859 C 550.286 0.838309 1.48008 0
M  V30 5860 O 551.471 1.10189 1.59913 0
M  V30 5861 C 548.601 2.29876 2.60335 0
M  V30 5862 C 547.555 3.45469 2.52656 0
M  V30 5863 C 546.881 3.64215 3.91473 0
M  V30 5864 C 548.181 4.79954 2.06014 0
M  V30 5865 H 549.875 2.84904 0.920338 0
M  V30 5866 H 547.421 1.37072 0.441277 0
M  V30 5867 H 549.374 2.56814 3.34102 0
M  V30 5868 H 548.098 1.38622 2.95722 0
M  V30 5869 H 546.757 3.18605 1.81345 0
M  V30 5870 H 546.405 2.70309 4.24196 0
M  V30 5871 H 546.105 4.41973 3.87213 0
M  V30 5872 H 547.629 3.93519 4.66878 0
M  V30 5873 H 549.043 5.05989 2.69533 0
M  V30 5874 H 547.44 5.61111 2.12777 0
M  V30 5875 H 548.51 4.74201 1.01297 0
M  V30 5876 N 549.853 -0.472356 1.50355 0
M  V30 5877 C 551.269 -0.806001 1.37753 0
M  V30 5878 C 551.469 -1.968 0.432649 0
M  V30 5879 O 550.525 -2.52189 -0.12519 0
M  V30 5880 C 551.838 -1.11926 2.79093 0
M  V30 5881 C 553.386 -1.22579 2.87999 0
M  V30 5882 C 553.861 -1.57218 4.3017 0
M  V30 5883 N 555.352 -1.64212 4.33115 0
M  V30 5884 C 556.087 -1.92517 5.40116 0
M  V30 5885 N 555.583 -2.1885 6.57325 0
M  V30 5886 N 557.376 -1.94008 5.27558 0
M  V30 5887 H 549.527 0.293451 2.10363 0
M  V30 5888 H 551.79 0.0687672 0.945503 0
M  V30 5889 H 551.496 -0.338504 3.50067 0
M  V30 5890 H 551.37 -2.05577 3.16256 0
M  V30 5891 H 553.757 -1.99722 2.17245 0
M  V30 5892 H 553.838 -0.269107 2.54381 0
M  V30 5893 H 553.482 -0.806154 5.01461 0
M  V30 5894 H 553.412 -2.54034 4.61275 0
M  V30 5895 H 555.903 -1.45906 3.48597 0
M  V30 5896 H 556.216 -2.39718 7.3468 0
M  V30 5897 H 554.561 -2.16245 6.60502 0
M  V30 5898 H 557.752 -1.72931 4.34986 0
M  V30 5899 H 557.925 -2.15731 6.11035 0
M  V30 5900 N 551.331 -1.39911 -0.725443 0
M  V30 5901 C 552.278 -1.39393 -1.83952 0
M  V30 5902 C 553.248 -0.252249 -1.64173 0
M  V30 5903 O 554.433 -0.44882 -1.85446 0
M  V30 5904 C 551.573 -1.25262 -3.21564 0
M  V30 5905 C 550.686 -2.49054 -3.52982 0
M  V30 5906 C 549.821 -2.27439 -4.80047 0
M  V30 5907 C 548.86 -3.46857 -5.04338 0
M  V30 5908 N 547.997 -3.24499 -6.22611 0
M  V30 5909 H 552.837 -2.34622 -1.83729 0
M  V30 5910 H 550.374 -1.16537 -0.897636 0
M  V30 5911 H 552.332 -1.15077 -4.01015 0
M  V30 5912 H 550.962 -0.33657 -3.21041 0
M  V30 5913 H 550.014 -2.69805 -2.6816 0
M  V30 5914 H 551.326 -3.37973 -3.66846 0
M  V30 5915 H 550.48 -2.14551 -5.67497 0
M  V30 5916 H 549.219 -1.35929 -4.68374 0
M  V30 5917 H 548.224 -3.60232 -4.15346 0
M  V30 5918 H 549.449 -4.3928 -5.17889 0
M  V30 5919 H 547.395 -2.35663 -6.12208 0
M  V30 5920 H 547.312 -4.06978 -6.37106 0
M  V30 5921 H 548.58 -3.15325 -7.12875 0
M  V30 5922 N 552.809 0.956637 -1.25245 0
M  V30 5923 C 554.057 1.69764 -1.09657 0
M  V30 5924 C 554.378 1.91583 0.363464 0
M  V30 5925 O 553.648 1.50149 1.25825 0
M  V30 5926 H 552.228 0.629097 -0.402798 0
M  V30 5927 H 554.89 1.15026 -1.57337 0
M  V30 5928 H 553.986 2.67769 -1.60331 0
M  V30 5929 N 554.287 1.06798 1.15896 0
M  V30 5930 C 555.535 0.786211 1.8618 0
M  V30 5931 C 555.856 -0.689547 1.82401 0
M  V30 5932 O 555.126 -1.49913 1.26107 0
M  V30 5933 H 553.706 0.287843 0.689315 0
M  V30 5934 H 556.368 1.35055 1.40521 0
M  V30 5935 H 555.464 1.1157 2.91477 0
M  V30 5936 N 555.766 -1.3263 0.851289 0
M  V30 5937 C 556.714 -2.30882 0.282202 0
M  V30 5938 C 557.708 -1.58697 -0.592589 0
M  V30 5939 O 558.914 -1.73461 -0.480768 0
M  V30 5940 H 555.289 -0.748492 0.0725487 0
M  V30 5941 H 557.26 -2.76374 1.12516 0
M  V30 5942 C 556.009 -3.43828 -0.517449 0
M  V30 5943 H 555.332 -3.99532 0.146392 0
M  V30 5944 H 556.772 -4.1474 -0.88128 0
M  V30 5945 C 555.231 -2.90786 -1.70133 0
M  V30 5946 O 555.761 -2.88 -2.80034 0
M  V30 5947 N 553.967 -2.4723 -1.52728 0
M  V30 5948 H 553.514 -2.49695 -0.633257 0
M  V30 5949 H 553.472 -2.12094 -2.32085 0
M  V30 5950 N 557.244 -0.608902 -1.45362 0
M  V30 5951 C 558.192 0.121639 -2.32282 0
M  V30 5952 C 559.186 0.858301 -1.46046 0
M  V30 5953 O 560.392 0.773718 -1.62523 0
M  V30 5954 H 556.767 0.058086 -0.749753 0
M  V30 5955 H 558.738 -0.629866 -2.91677 0
M  V30 5956 C 557.487 1.1047 -3.29684 0
M  V30 5957 H 556.81 0.547278 -3.96036 0
M  V30 5958 H 558.25 1.58576 -3.9323 0
M  V30 5959 C 556.709 2.17891 -2.56954 0
M  V30 5960 O 557.239 3.25652 -2.35189 0
M  V30 5961 N 555.445 1.93211 -2.17066 0
M  V30 5962 H 554.992 1.05584 -2.34967 0
M  V30 5963 H 554.95 2.6529 -1.68727 0
M  V30 5964 N 558.722 1.53707 -0.348139 0
M  V30 5965 C 559.669 2.25173 0.506518 0
M  V30 5966 C 560.639 1.25174 1.09182 0
M  V30 5967 O 561.824 1.53917 1.12757 0
M  V30 5968 C 558.964 3.03141 1.64923 0
M  V30 5969 C 558.077 4.18002 1.0908 0
M  V30 5970 C 557.212 4.83447 2.20119 0
M  V30 5971 C 556.251 5.90369 1.61651 0
M  V30 5972 N 555.388 6.49575 2.66451 0
M  V30 5973 H 560.228 2.97799 -0.109452 0
M  V30 5974 H 557.765 1.46953 -0.0657866 0
M  V30 5975 H 559.723 3.46607 2.32205 0
M  V30 5976 H 558.353 2.32803 2.23612 0
M  V30 5977 H 557.405 3.79145 0.308783 0
M  V30 5978 H 558.717 4.94892 0.623178 0
M  V30 5979 H 557.871 5.30008 2.95257 0
M  V30 5980 H 556.61 4.05991 2.70227 0
M  V30 5981 H 555.615 5.43186 0.850209 0
M  V30 5982 H 556.84 6.69735 1.1239 0
M  V30 5983 H 554.786 5.74981 3.15805 0
M  V30 5984 H 554.703 7.21952 2.24325 0
M  V30 5985 H 555.971 7.00789 3.41344 0
M  V30 5986 N 560.2 0.0768682 1.57412 0
M  V30 5987 C 561.13 -0.886026 2.16037 0
M  V30 5988 C 562.111 -1.30691 1.08876 0
M  V30 5989 O 563.296 -1.37705 1.36934 0
M  V30 5990 C 560.426 -2.1518 2.72608 0
M  V30 5991 C 559.38 -1.87015 3.8498 0
M  V30 5992 C 558.706 -3.20266 4.28175 0
M  V30 5993 C 560.006 -1.17143 5.08994 0
M  V30 5994 H 561.7 -0.397642 2.96748 0
M  V30 5995 H 559.246 -0.189823 1.42743 0
M  V30 5996 H 561.199 -2.82962 3.12266 0
M  V30 5997 H 559.923 -2.66269 1.89125 0
M  V30 5998 H 558.582 -1.21636 3.45833 0
M  V30 5999 H 558.23 -3.69207 3.41607 0
M  V30 6000 H 557.93 -3.0221 5.03927 0
M  V30 6001 H 559.454 -3.89237 4.70454 0
M  V30 6002 H 560.868 -1.75003 5.45937 0
M  V30 6003 H 559.265 -1.09328 5.90057 0
M  V30 6004 H 560.335 -0.151295 4.84664 0
M  V30 6005 N 561.678 -1.56367 -0.196722 0
M  V30 6006 C 562.927 -1.79724 -0.915539 0
M  V30 6007 C 563.24 -0.649804 -1.84491 0
M  V30 6008 O 564.446 -0.767631 -2.60422 0
M  V30 6009 C 562.902 -3.18369 -1.67836 0
M  V30 6010 C 562.51 -4.4091 -0.793897 0
M  V30 6011 C 564.254 -3.51037 -2.38691 0
M  V30 6012 C 562.161 -5.70577 -1.55549 0
M  V30 6013 H 561.091 -0.67013 -0.345604 0
M  V30 6014 H 563.742 -1.82721 -0.168856 0
M  V30 6015 H 562.124 -3.09617 -2.46887 0
M  V30 6016 H 563.298 -4.60781 -0.042163 0
M  V30 6017 H 561.613 -4.15937 -0.19626 0
M  V30 6018 H 564.21 -4.4515 -2.96219 0
M  V30 6019 H 564.553 -2.74704 -3.12799 0
M  V30 6020 H 565.086 -3.61229 -1.66608 0
M  V30 6021 H 561.825 -6.49871 -0.857226 0
M  V30 6022 H 561.345 -5.54726 -2.2812 0
M  V30 6023 H 563.024 -6.11637 -2.10971 0
M  V30 6024 N 563.156 0.464375 -1.50603 0
M  V30 6025 C 564.103 1.56152 -1.69956 0
M  V30 6026 C 565.073 1.57046 -0.54091 0
M  V30 6027 O 566.258 1.74473 -0.772258 0
M  V30 6028 C 563.398 2.94079 -1.80586 0
M  V30 6029 C 562.511 3.02923 -3.07996 0
M  V30 6030 C 561.646 4.31806 -3.09382 0
M  V30 6031 C 560.685 4.34417 -4.31218 0
M  V30 6032 N 559.822 5.54782 -4.30304 0
M  V30 6033 H 564.662 1.38955 -2.6362 0
M  V30 6034 H 562.199 0.675482 -1.30674 0
M  V30 6035 H 564.157 3.74073 -1.8473 0
M  V30 6036 H 562.787 3.09896 -0.903556 0
M  V30 6037 H 561.839 2.1576 -3.13292 0
M  V30 6038 H 563.151 3.00712 -3.97962 0
M  V30 6039 H 562.305 5.20153 -3.12292 0
M  V30 6040 H 561.044 4.36636 -2.17257 0
M  V30 6041 H 560.049 3.44467 -4.28512 0
M  V30 6042 H 561.274 4.31273 -5.24576 0
M  V30 6043 H 559.22 5.60384 -3.41037 0
M  V30 6044 H 559.137 5.54339 -5.14047 0
M  V30 6045 H 560.405 6.45235 -4.3737 0
M  V30 6046 N 564.634 1.40294 0.718013 0
M  V30 6047 C 565.883 1.37746 1.4734 0
M  V30 6048 C 566.196 -0.0180754 1.95592 0
M  V30 6049 O 567.402 -0.166166 2.70991 0
M  V30 6050 C 565.858 2.4208 2.66318 0
M  V30 6051 C 565.466 3.87432 2.24945 0
M  V30 6052 C 567.21 2.48635 3.44065 0
M  V30 6053 C 565.117 4.83368 3.40748 0
M  V30 6054 H 564.047 0.512165 0.553356 0
M  V30 6055 H 566.698 1.66019 0.781661 0
M  V30 6056 H 565.08 2.06903 3.3765 0
M  V30 6057 H 566.254 4.3174 1.6105 0
M  V30 6058 H 564.569 3.8433 1.60249 0
M  V30 6059 H 567.166 3.17499 4.30231 0
M  V30 6060 H 567.509 1.51611 3.87711 0
M  V30 6061 H 568.042 2.82791 2.79775 0
M  V30 6062 H 564.781 5.81716 3.02136 0
M  V30 6063 H 564.301 4.43726 4.03568 0
M  V30 6064 H 565.98 5.03074 4.06848 0
M  V30 6065 N 566.112 -0.949982 1.2575 0
M  V30 6066 C 567.359 -1.69515 1.10774 0
M  V30 6067 C 567.687 -1.91316 -0.350479 0
M  V30 6068 O 566.942 -1.48515 -1.27443 0
M  V30 6069 C 567.241 -3.08039 1.81237 0
M  V30 6070 C 566.907 -3.06023 3.31151 0
M  V30 6071 C 565.569 -3.0518 3.72047 0
M  V30 6072 C 567.921 -2.98998 4.26907 0
M  V30 6073 C 565.249 -2.95067 5.07102 0
M  V30 6074 C 567.601 -2.90426 5.61992 0
M  V30 6075 C 566.265 -2.87922 6.0221 0
M  V30 6076 H 565.535 -0.6203 0.405351 0
M  V30 6077 H 568.182 -1.10953 1.56082 0
M  V30 6078 H 566.487 -3.70172 1.28373 0
M  V30 6079 H 568.184 -3.64526 1.67098 0
M  V30 6080 H 564.774 -3.07453 2.98614 0
M  V30 6081 H 568.958 -2.98764 3.963 0
M  V30 6082 H 564.214 -2.915 5.37436 0
M  V30 6083 H 568.388 -2.83952 6.35881 0
M  V30 6084 H 566.015 -2.79841 7.06819 0
M  V30 6085 N 567.59 -1.07411 -1.15328 0
M  V30 6086 C 568.54 -0.664788 -2.18093 0
M  V30 6087 C 569.524 0.310395 -1.57878 0
M  V30 6088 O 570.716 0.124026 -1.76565 0
M  V30 6089 C 567.845 -0.0647822 -3.43239 0
M  V30 6090 C 566.931 -1.06514 -4.10506 0
M  V30 6091 N 567.322 -2.24491 -4.53252 0
M  V30 6092 C 565.62 -0.898613 -4.36853 0
M  V30 6093 C 566.321 -2.8796 -5.05424 0
M  V30 6094 N 565.297 -2.15622 -4.99007 0
M  V30 6095 H 569.099 -1.56333 -2.48872 0
M  V30 6096 H 566.613 -0.947393 -1.31902 0
M  V30 6097 H 568.61 0.246363 -4.16171 0
M  V30 6098 H 567.27 0.828866 -3.13943 0
M  V30 6099 H 568.281 -2.62205 -4.46619 0
M  V30 6100 H 564.958 -0.0579118 -4.1746 0
M  V30 6101 H 566.348 -3.88137 -5.48452 0
M  V30 6102 N 569.068 1.32177 -0.85831 0
M  V30 6103 C 570.484 1.49873 -0.548656 0
M  V30 6104 C 570.684 1.79278 0.919874 0
M  V30 6105 O 569.74 1.86451 1.70271 0
M  V30 6106 C 571.053 2.64043 -1.4388 0
M  V30 6107 C 572.601 2.77928 -1.43961 0
M  V30 6108 C 573.076 3.95182 -2.31506 0
M  V30 6109 N 574.567 4.0245 -2.29321 0
M  V30 6110 C 575.302 4.9242 -2.93786 0
M  V30 6111 N 574.798 5.87373 -3.67376 0
M  V30 6112 N 576.591 4.85572 -2.83155 0
M  V30 6113 H 568.742 1.11357 -1.80868 0
M  V30 6114 H 571.005 0.549175 -0.772729 0
M  V30 6115 H 570.711 2.49055 -2.48324 0
M  V30 6116 H 570.585 3.59912 -1.12885 0
M  V30 6117 H 572.972 2.92338 -0.402813 0
M  V30 6118 H 573.053 1.82762 -1.78974 0
M  V30 6119 H 572.697 3.81531 -3.35256 0
M  V30 6120 H 572.627 4.89633 -1.93823 0
M  V30 6121 H 575.118 3.34507 -1.75822 0
M  V30 6122 H 575.431 6.52728 -4.13722 0
M  V30 6123 H 573.776 5.87388 -3.71484 0
M  V30 6124 H 576.967 4.10363 -2.25211 0
M  V30 6125 H 577.14 5.55486 -3.33676 0
M  V30 6126 N 570.547 0.616602 1.45037 0
M  V30 6127 C 571.824 0.0469086 1.95544 0
M  V30 6128 C 572.204 -1.42345 1.55888 0
M  V30 6129 O 571.552 -2.13055 0.825824 0
M  V30 6130 C 571.762 0.254489 3.48071 0
M  V30 6131 C 573.11 0.140025 4.24369 0
M  V30 6132 O 574.134 0.185084 3.55719 0
M  V30 6133 O 572.993 0.0327034 5.4649 0
M  V30 6134 H 570.087 -0.0306051 0.826433 0
M  V30 6135 H 572.633 0.687293 1.55159 0
M  V30 6136 H 571.405 1.27532 3.69934 0
M  V30 6137 H 571.028 -0.42073 3.95368 0
M  V30 6138 N 572.025 -1.5352 0.356285 0
M  V30 6139 C 573.273 -2.00719 -0.235837 0
M  V30 6140 C 573.594 -1.24551 -1.5004 0
M  V30 6141 O 572.864 -0.356185 -1.92635 0
M  V30 6142 H 571.444 -0.741542 -0.0901366 0
M  V30 6143 H 574.106 -1.88887 0.480378 0
M  V30 6144 H 573.202 -3.08551 -0.469357 0
M  V30 6145 N 573.503 -0.0852151 -1.57369 0
M  V30 6146 C 574.45 0.877268 -2.13478 0
M  V30 6147 C 575.42 1.28642 -1.05073 0
M  V30 6148 O 576.605 1.36992 -1.32808 0
M  V30 6149 C 573.745 2.13464 -2.71159 0
M  V30 6150 C 572.858 1.77691 -3.93764 0
M  V30 6151 C 571.993 2.98139 -4.39643 0
M  V30 6152 C 571.032 2.58447 -5.54862 0
M  V30 6153 N 570.169 3.71698 -5.95639 0
M  V30 6154 H 575.009 0.391933 -2.95411 0
M  V30 6155 H 572.546 0.181796 -1.45972 0
M  V30 6156 H 574.504 2.87086 -3.02717 0
M  V30 6157 H 573.134 2.59514 -1.91969 0
M  V30 6158 H 572.186 0.940768 -3.68583 0
M  V30 6159 H 573.498 1.44497 -4.77412 0
M  V30 6160 H 572.652 3.80026 -4.72933 0
M  V30 6161 H 571.391 3.34536 -3.54876 0
M  V30 6162 H 570.396 1.74984 -5.21211 0
M  V30 6163 H 571.621 2.23205 -6.41371 0
M  V30 6164 H 569.567 4.07831 -5.13819 0
M  V30 6165 H 569.484 3.42317 -6.74059 0
M  V30 6166 H 570.752 4.54123 -6.33555 0
M  V30 6167 N 574.981 1.5647 0.188427 0
M  V30 6168 C 576.211 1.84863 0.922463 0
M  V30 6169 C 576.619 0.666413 1.77075 0
M  V30 6170 O 575.962 -0.374044 1.79852 0
M  V30 6171 C 576.024 3.07447 1.86324 0
M  V30 6172 C 575.688 4.41066 1.19625 0
M  V30 6173 C 576.685 5.16767 0.569946 0
M  V30 6174 C 574.37 4.87802 1.19811 0
M  V30 6175 C 576.364 6.37384 -0.045594 0
M  V30 6176 C 574.051 6.08353 0.57874 0
M  V30 6177 C 575.049 6.82987 -0.0420259 0
M  V30 6178 O 574.737 8.01254 -0.651675 0
M  V30 6179 H 574.469 0.61784 0.274316 0
M  V30 6180 H 577.023 2.04437 0.198613 0
M  V30 6181 H 575.253 2.83774 2.62696 0
M  V30 6182 H 576.942 3.2243 2.46564 0
M  V30 6183 H 577.708 4.81749 0.560601 0
M  V30 6184 H 573.587 4.29662 1.67069 0
M  V30 6185 H 577.131 6.95578 -0.530731 0
M  V30 6186 H 573.028 6.42838 0.58561 0
M  V30 6187 H 573.796 8.16655 -0.549236 0
M  V30 6188 N 576.459 -0.456382 1.50847 0
M  V30 6189 C 577.707 -1.20497 1.62249 0
M  V30 6190 C 578.028 -1.92156 0.331839 0
M  V30 6191 O 577.298 -1.84751 -0.651443 0
M  V30 6192 H 575.878 -0.447775 0.597918 0
M  V30 6193 H 578.54 -0.525099 1.87693 0
M  V30 6194 H 577.636 -1.94492 2.44089 0
M  V30 6195 N 577.937 -1.40673 -0.710563 0
M  V30 6196 C 579.184 -1.39222 -1.47049 0
M  V30 6197 C 579.512 0.0037691 -1.945 0
M  V30 6198 O 578.767 0.989224 -1.68857 0
M  V30 6199 C 579.066 -2.33253 -2.70791 0
M  V30 6200 C 578.732 -3.80406 -2.42079 0
M  V30 6201 C 577.394 -4.20496 -2.33959 0
M  V30 6202 C 579.746 -4.73375 -2.18094 0
M  V30 6203 C 577.074 -5.51584 -1.99929 0
M  V30 6204 C 579.426 -6.04768 -1.85576 0
M  V30 6205 C 578.09 -6.43895 -1.75941 0
M  V30 6206 H 577.36 -0.509449 -0.538092 0
M  V30 6207 H 580.007 -1.73363 -0.81348 0
M  V30 6208 H 578.312 -1.92314 -3.41354 0
M  V30 6209 H 580.009 -2.29412 -3.28894 0
M  V30 6210 H 576.599 -3.48645 -2.49288 0
M  V30 6211 H 580.783 -4.43217 -2.23321 0
M  V30 6212 H 576.039 -5.80797 -1.91011 0
M  V30 6213 H 580.213 -6.76318 -1.66033 0
M  V30 6214 H 577.84 -7.45387 -1.4934 0
M  V30 6215 N 579.415 0.9433 -1.26252 0
M  V30 6216 C 580.64 1.72898 -1.14547 0
M  V30 6217 C 581.065 1.85761 0.295743 0
M  V30 6218 O 580.423 1.3463 1.21427 0
M  V30 6219 C 580.471 3.11471 -1.8171 0
M  V30 6220 O 579.575 3.97336 -1.10445 0
M  V30 6221 H 578.916 0.530555 -0.399259 0
M  V30 6222 H 581.446 1.18159 -1.67032 0
M  V30 6223 H 581.456 3.61872 -1.88449 0
M  V30 6224 H 580.131 3.01425 -2.86558 0
M  V30 6225 H 578.708 3.55788 -1.11666 0
M  V30 6226 N 580.893 1.08022 1.14757 0
M  V30 6227 C 582.17 0.720386 1.81851 0
M  V30 6228 C 582.55 -0.796375 1.95502 0
M  V30 6229 O 581.898 -1.71339 1.51179 0
M  V30 6230 C 582.108 1.44273 3.17783 0
M  V30 6231 C 583.456 1.59925 3.93331 0
M  V30 6232 O 584.48 1.40407 3.2736 0
M  V30 6233 O 583.339 1.92096 5.11626 0
M  V30 6234 H 580.433 0.257142 0.786007 0
M  V30 6235 H 582.979 1.18155 1.21809 0
M  V30 6236 H 581.751 2.47618 3.02987 0
M  V30 6237 H 581.374 0.97279 3.85516 0
M  V30 6238 N 582.371 -1.3172 0.865308 0
M  V30 6239 C 583.782 -1.79104 0.527126 0
M  V30 6240 C 584.133 -1.7135 -0.955695 0
M  V30 6241 O 583.258 -1.27845 -1.74598 0
M  V30 6242 C 583.853 -3.25207 0.950061 0
M  V30 6243 C 582.412 -3.70504 0.663611 0
M  V30 6244 C 581.559 -2.52605 1.14395 0
M  V30 6245 H 584.51 -1.18868 1.05148 0
M  V30 6246 H 584.531 -3.79535 0.270805 0
M  V30 6247 H 584.043 -3.30818 2.02931 0
M  V30 6248 H 582.144 -3.70398 -0.404474 0
M  V30 6249 H 582.257 -4.62845 1.23737 0
M  V30 6250 H 580.621 -2.4838 0.563859 0
M  V30 6251 H 581.404 -2.60964 2.23053 0
M  V30 6252 N 583.85 -0.624285 -1.44708 0
M  V30 6253 C 584.779 0.0717025 -2.3339 0
M  V30 6254 C 585.76 0.841814 -1.47809 0
M  V30 6255 O 586.946 0.809056 -1.76544 0
M  V30 6256 C 584.076 1.05852 -3.30776 0
M  V30 6257 C 583.029 0.400503 -4.26122 0
M  V30 6258 C 582.356 1.49674 -5.13324 0
M  V30 6259 C 583.656 -0.688924 -5.17737 0
M  V30 6260 H 585.35 -0.668819 -2.91834 0
M  V30 6261 H 582.896 -0.32308 -1.40329 0
M  V30 6262 H 584.849 1.5541 -3.91696 0
M  V30 6263 H 583.572 1.82984 -2.70526 0
M  V30 6264 H 582.231 -0.0743687 -3.66525 0
M  V30 6265 H 581.88 2.25877 -4.49431 0
M  V30 6266 H 581.58 1.06188 -5.77926 0
M  V30 6267 H 583.104 1.99427 -5.77115 0
M  V30 6268 H 584.518 -0.276724 -5.72632 0
M  V30 6269 H 582.915 -1.04652 -5.90904 0
M  V30 6270 H 583.985 -1.55884 -4.5916 0
M  V30 6271 N 585.328 1.53329 -0.364422 0
M  V30 6272 C 586.556 2.05657 0.226424 0
M  V30 6273 C 586.971 1.23801 1.42544 0
M  V30 6274 O 586.328 0.27839 1.80364 0
M  V30 6275 C 586.379 3.56125 0.621056 0
M  V30 6276 O 586.1 4.34879 -0.530304 0
M  V30 6277 C 587.601 4.24706 1.27041 0
M  V30 6278 H 584.821 0.669806 0.0400056 0
M  V30 6279 H 587.365 1.97714 -0.522456 0
M  V30 6280 H 585.52 3.64223 1.31985 0
M  V30 6281 H 585.934 5.24073 -0.211546 0
M  V30 6282 H 587.408 5.3131 1.49711 0
M  V30 6283 H 587.885 3.78354 2.23036 0
M  V30 6284 H 588.491 4.20858 0.613079 0
M  V30 6285 N 586.806 0.0935595 1.57322 0
M  V30 6286 C 588.053 -0.570509 1.94297 0
M  V30 6287 C 588.381 -1.68286 0.97519 0
M  V30 6288 O 587.636 -1.95699 -0.00548655 0
M  V30 6289 C 587.935 -1.16692 3.37813 0
M  V30 6290 C 587.601 -0.178509 4.50547 0
M  V30 6291 C 586.263 0.0933475 4.81109 0
M  V30 6292 C 588.615 0.496472 5.1883 0
M  V30 6293 C 585.943 1.0469 5.77284 0
M  V30 6294 C 588.295 1.43849 6.16028 0
M  V30 6295 C 586.959 1.71859 6.44997 0
M  V30 6296 H 586.229 -0.208764 0.710984 0
M  V30 6297 H 588.876 0.169066 1.90752 0
M  V30 6298 H 587.181 -1.98271 3.37929 0
M  V30 6299 H 588.878 -1.6884 3.63722 0
M  V30 6300 H 585.468 -0.400584 4.26724 0
M  V30 6301 H 589.652 0.299584 4.95395 0
M  V30 6302 H 584.908 1.27094 5.98044 0
M  V30 6303 H 589.082 1.96734 6.68034 0
M  V30 6304 H 586.709 2.45906 7.19329 0
M  V30 6305 N 588.284 -1.56567 -0.180126 0
M  V30 6306 C 589.509 -1.85975 -0.918041 0
M  V30 6307 C 589.934 -0.678888 -1.75422 0
M  V30 6308 O 589.292 0.372168 -1.77439 0
M  V30 6309 C 589.34 -3.13731 -1.77779 0
M  V30 6310 O 588.444 -2.95335 -2.87838 0
M  V30 6311 H 587.785 -0.61196 -0.257683 0
M  V30 6312 H 590.315 -2.03798 -0.180923 0
M  V30 6313 H 590.325 -3.4491 -2.17948 0
M  V30 6314 H 589 -3.99293 -1.16352 0
M  V30 6315 H 587.577 -2.7549 -2.51316 0
M  V30 6316 N 589.762 0.448376 -1.51087 0
M  V30 6317 C 590.987 1.22605 -1.6728 0
M  V30 6318 C 591.412 1.84524 -0.365045 0
M  V30 6319 O 590.77 1.6832 0.673642 0
M  V30 6320 C 590.818 2.29393 -2.78229 0
M  V30 6321 O 589.922 3.34608 -2.41063 0
M  V30 6322 H 589.263 0.359705 -0.558129 0
M  V30 6323 H 591.793 0.530903 -1.97592 0
M  V30 6324 H 591.803 2.74352 -3.01986 0
M  V30 6325 H 590.478 1.83701 -3.73131 0
M  V30 6326 H 589.055 2.95202 -2.27838 0
M  V30 6327 N 591.24 1.41047 0.703093 0
M  V30 6328 C 592.486 1.40207 1.46526 0
M  V30 6329 C 592.819 0.00847763 1.94198 0
M  V30 6330 O 592.094 -0.962437 1.69019 0
M  V30 6331 C 592.377 2.40238 2.6825 0
M  V30 6332 C 592.23 3.88674 2.26391 0
M  V30 6333 C 593.549 2.37627 3.70434 0
M  V30 6334 H 590.668 0.510594 0.531472 0
M  V30 6335 H 593.31 1.72271 0.801422 0
M  V30 6336 H 591.46 2.13026 3.24888 0
M  V30 6337 H 593.132 4.2676 1.75138 0
M  V30 6338 H 591.375 4.03903 1.58255 0
M  V30 6339 H 592.046 4.542 3.13698 0
M  V30 6340 H 594.522 2.61759 3.23452 0
M  V30 6341 H 593.398 3.09645 4.53223 0
M  V30 6342 H 593.659 1.39223 4.19606 0
M  V30 6343 N 592.718 -0.936591 1.26751 0
M  V30 6344 C 593.964 -1.6858 1.12733 0
M  V30 6345 C 594.297 -1.91414 -0.327745 0
M  V30 6346 O 593.572 -1.49812 -1.24043 0
M  V30 6347 C 593.855 -3.05779 1.90187 0
M  V30 6348 C 593.708 -2.90242 3.43627 0
M  V30 6349 C 595.027 -4.0597 1.69931 0
M  V30 6350 H 592.146 -0.61182 0.410908 0
M  V30 6351 H 594.788 -1.08747 1.55801 0
M  V30 6352 H 592.938 -3.56853 1.53584 0
M  V30 6353 H 594.61 -2.46354 3.9001 0
M  V30 6354 H 592.853 -2.2577 3.70419 0
M  V30 6355 H 593.524 -3.87572 3.93055 0
M  V30 6356 H 596 -3.63874 2.0183 0
M  V30 6357 H 594.876 -4.99974 2.26534 0
M  V30 6358 H 595.137 -4.37369 0.64502 0
M  V30 6359 N 594.196 -1.08629 -1.14182 0
M  V30 6360 C 595.106 -0.730126 -2.22949 0
M  V30 6361 C 596.122 0.26436 -1.7198 0
M  V30 6362 O 597.298 0.107742 -2.01112 0
M  V30 6363 C 594.363 -0.147227 -3.46387 0
M  V30 6364 C 593.424 -1.19662 -4.12286 0
M  V30 6365 C 592.657 -0.641437 -5.29831 0
M  V30 6366 O 592.88 0.538351 -5.67854 0
M  V30 6367 O 591.814 -1.39257 -5.85569 0
M  V30 6368 H 595.64 -1.63753 -2.55771 0
M  V30 6369 H 593.225 -0.860118 -1.22157 0
M  V30 6370 H 595.107 0.174923 -4.21037 0
M  V30 6371 H 593.782 0.733304 -3.15285 0
M  V30 6372 H 592.689 -1.57133 -3.395 0
M  V30 6373 H 594.022 -2.0495 -4.475 0
M  V30 6374 N 595.674 1.31259 -0.872281 0
M  V30 6375 C 596.604 2.30929 -0.345554 0
M  V30 6376 C 597.585 1.60449 0.5648 0
M  V30 6377 O 598.77 1.8814 0.481335 0
M  V30 6378 C 595.9 3.44348 0.451823 0
M  V30 6379 C 594.854 4.26435 -0.365641 0
M  V30 6380 C 594.18 5.31785 0.557562 0
M  V30 6381 C 595.48 4.97159 -1.60095 0
M  V30 6382 H 597.174 2.75234 -1.17841 0
M  V30 6383 H 594.72 1.3232 -0.568094 0
M  V30 6384 H 596.673 4.13128 0.830854 0
M  V30 6385 H 595.397 2.98816 1.31821 0
M  V30 6386 H 594.056 3.59326 -0.726649 0
M  V30 6387 H 593.704 4.82502 1.4213 0
M  V30 6388 H 593.404 5.87598 0.0144878 0
M  V30 6389 H 594.928 6.03424 0.933387 0
M  V30 6390 H 596.342 5.58523 -1.29323 0
M  V30 6391 H 594.739 5.62779 -2.08327 0
M  V30 6392 H 595.809 4.24012 -2.35249 0
M  V30 6393 N 597.152 0.631951 1.44375 0
M  V30 6394 C 598.401 0.134214 2.01253 0
M  V30 6395 C 598.714 -1.25171 1.50305 0
M  V30 6396 O 599.92 -1.8435 1.99317 0
M  V30 6397 C 598.376 0.189187 3.59402 0
M  V30 6398 C 597.984 1.57647 4.19346 0
M  V30 6399 C 599.728 -0.252044 4.23751 0
M  V30 6400 C 597.635 1.58651 5.69722 0
M  V30 6401 H 596.565 0.0464101 0.75257 0
M  V30 6402 H 599.216 0.790868 1.65582 0
M  V30 6403 H 597.598 -0.534584 3.92375 0
M  V30 6404 H 598.772 2.32389 3.97909 0
M  V30 6405 H 597.087 1.96186 3.67288 0
M  V30 6406 H 599.684 -0.264084 5.34047 0
M  V30 6407 H 600.027 -1.27951 3.96149 0
M  V30 6408 H 600.56 0.41926 3.95584 0
M  V30 6409 H 597.299 2.59237 6.0206 0
M  V30 6410 H 596.819 0.882039 5.93279 0
M  V30 6411 H 598.498 1.32082 6.33375 0
M  V30 6412 N 598.631 -1.53133 0.372548 0
M  V30 6413 C 599.579 -2.27473 -0.485681 0
M  V30 6414 C 600.573 -1.30719 -1.07745 0
M  V30 6415 O 601.779 -1.48321 -1.01985 0
M  V30 6416 H 598.154 -0.731269 -0.175356 0
M  V30 6417 H 600.125 -2.97955 0.162986 0
M  V30 6418 C 598.874 -3.08191 -1.60978 0
M  V30 6419 H 598.197 -3.82488 -1.16373 0
M  V30 6420 H 599.637 -3.63373 -2.18485 0
M  V30 6421 C 598.096 -2.19461 -2.55614 0
M  V30 6422 O 598.626 -1.81008 -3.58607 0
M  V30 6423 N 596.832 -1.83955 -2.24965 0
M  V30 6424 H 596.379 -2.15423 -1.41247 0
M  V30 6425 H 596.337 -1.24874 -2.88538 0
M  V30 6426 N 600.109 -0.101901 -1.5727 0
M  V30 6427 C 601.059 0.865346 -2.1094 0
M  V30 6428 C 602.043 1.2394 -1.02605 0
M  V30 6429 O 603.235 1.21334 -1.28868 0
M  V30 6430 C 600.364 2.12187 -2.69874 0
M  V30 6431 C 599.45 1.77295 -3.85263 0
M  V30 6432 N 599.841 1.12993 -4.93017 0
M  V30 6433 C 598.139 2.06862 -3.95126 0
M  V30 6434 C 598.84 0.968631 -5.73579 0
M  V30 6435 N 597.816 1.48814 -5.22834 0
M  V30 6436 H 601.618 0.364368 -2.91633 0
M  V30 6437 H 599.132 0.101104 -1.62085 0
M  V30 6438 H 601.129 2.82431 -3.06657 0
M  V30 6439 H 599.789 2.62844 -1.90639 0
M  V30 6440 H 600.8 0.795935 -5.11747 0
M  V30 6441 H 597.477 2.59686 -3.26909 0
M  V30 6442 H 598.867 0.465231 -6.70287 0
M  V30 6443 N 601.587 1.56661 0.17182 0
M  V30 6444 C 602.817 1.85831 0.902804 0
M  V30 6445 C 603.225 0.685157 1.76358 0
M  V30 6446 O 602.568 -0.354947 1.80238 0
M  V30 6447 C 602.63 3.09406 1.83053 0
M  V30 6448 C 602.294 4.4231 1.1494 0
M  V30 6449 C 603.291 5.17342 0.515104 0
M  V30 6450 C 600.976 4.89045 1.14631 0
M  V30 6451 C 602.97 6.37299 -0.113194 0
M  V30 6452 C 600.657 6.08933 0.514184 0
M  V30 6453 C 601.655 6.82904 -0.114463 0
M  V30 6454 O 601.343 8.00518 -0.736622 0
M  V30 6455 H 601.075 0.620715 0.267748 0
M  V30 6456 H 603.629 2.04637 0.176918 0
M  V30 6457 H 601.859 2.86544 2.59672 0
M  V30 6458 H 603.548 3.25027 2.4313 0
M  V30 6459 H 604.314 4.82317 0.509474 0
M  V30 6460 H 600.193 4.31409 1.62502 0
M  V30 6461 H 603.737 6.94976 -0.604477 0
M  V30 6462 H 599.634 6.43423 0.517395 0
M  V30 6463 H 600.402 8.16027 -0.635822 0
M  V30 6464 N 603.065 -0.440357 1.51323 0
M  V30 6465 C 604.481 -0.7766 1.39431 0
M  V30 6466 C 604.681 -1.95838 0.474296 0
M  V30 6467 O 603.737 -2.52398 -0.0716692 0
M  V30 6468 C 605.05 -1.05981 2.81405 0
M  V30 6469 C 606.598 -1.16442 2.90534 0
M  V30 6470 C 607.073 -1.48058 4.33408 0
M  V30 6471 N 608.564 -1.54988 4.36501 0
M  V30 6472 C 609.299 -1.81017 5.44078 0
M  V30 6473 N 608.795 -2.04858 6.61819 0
M  V30 6474 N 610.588 -1.82774 5.31554 0
M  V30 6475 H 602.739 0.338006 2.09693 0
M  V30 6476 H 605.002 0.0888072 0.943831 0
M  V30 6477 H 604.708 -0.264173 3.50706 0
M  V30 6478 H 604.582 -1.98822 3.20546 0
M  V30 6479 H 606.969 -1.95068 2.21432 0
M  V30 6480 H 607.05 -0.215088 2.54894 0
M  V30 6481 H 606.694 -0.699605 5.03059 0
M  V30 6482 H 606.624 -2.44192 4.66559 0
M  V30 6483 H 609.115 -1.38479 3.51613 0
M  V30 6484 H 609.428 -2.2408 7.396 0
M  V30 6485 H 607.773 -2.02187 6.6494 0
M  V30 6486 H 610.964 -1.63665 4.38556 0
M  V30 6487 H 611.137 -2.02722 6.15474 0
M  V30 6488 N 604.543 -1.41418 -0.695603 0
M  V30 6489 C 605.491 -1.43467 -1.83084 0
M  V30 6490 C 606.485 -0.312719 -1.66489 0
M  V30 6491 O 607.691 -0.484744 -1.7335 0
M  V30 6492 H 604.066 -0.448891 -0.603325 0
M  V30 6493 H 606.037 -2.39144 -1.78473 0
M  V30 6494 C 604.786 -1.3337 -3.21104 0
M  V30 6495 H 604.109 -2.18989 -3.3449 0
M  V30 6496 H 605.549 -1.38865 -4.00615 0
M  V30 6497 C 604.008 -0.0460484 -3.36869 0
M  V30 6498 O 604.538 0.909258 -3.91274 0
M  V30 6499 N 602.744 0.0300222 -2.90584 0
M  V30 6500 H 602.291 -0.748129 -2.46497 0
M  V30 6501 H 602.249 0.890991 -3.01511 0
M  V30 6502 N 606.021 0.929856 -1.27246 0
M  V30 6503 C 606.931 2.0636 -1.11592 0
M  V30 6504 C 607.947 1.73938 -0.046496 0
M  V30 6505 O 609.123 1.9981 -0.252544 0
M  V30 6506 C 606.188 3.38213 -0.762437 0
M  V30 6507 C 605.249 3.84346 -1.9125 0
M  V30 6508 C 604.482 5.09906 -1.57579 0
M  V30 6509 O 604.705 5.68354 -0.482694 0
M  V30 6510 O 603.639 5.51359 -2.41426 0
M  V30 6511 H 607.465 2.22478 -2.0673 0
M  V30 6512 H 605.05 1.04865 -1.06413 0
M  V30 6513 H 606.932 4.1741 -0.57854 0
M  V30 6514 H 605.607 3.23307 0.159439 0
M  V30 6515 H 604.514 3.06045 -2.15144 0
M  V30 6516 H 605.847 4.0379 -2.81451 0
M  V30 6517 N 607.499 1.09233 1.13605 0
M  V30 6518 C 608.724 0.849067 1.89224 0
M  V30 6519 C 609.149 -0.593875 1.78479 0
M  V30 6520 O 608.507 -1.41703 1.13092 0
M  V30 6521 C 608.555 1.28642 3.36873 0
M  V30 6522 O 607.659 0.44363 4.10007 0
M  V30 6523 H 607 0.30767 0.588417 0
M  V30 6524 H 609.53 1.45595 1.43748 0
M  V30 6525 H 609.54 1.27096 3.87699 0
M  V30 6526 H 608.215 2.33729 3.44011 0
M  V30 6527 H 606.792 0.523241 3.69211 0
M  V30 6528 N 608.977 -1.30795 0.87923 0
M  V30 6529 C 609.907 -2.30742 0.357796 0
M  V30 6530 C 610.888 -1.60747 -0.556283 0
M  V30 6531 O 612.073 -1.88393 -0.47135 0
M  V30 6532 C 609.203 -3.44583 -0.433555 0
M  V30 6533 C 608.157 -4.26235 0.388251 0
M  V30 6534 C 607.483 -5.32073 -0.529352 0
M  V30 6535 C 608.783 -4.96303 1.62729 0
M  V30 6536 H 610.477 -2.74605 1.19299 0
M  V30 6537 H 608.023 -1.32017 0.575104 0
M  V30 6538 H 609.976 -4.13563 -0.808934 0
M  V30 6539 H 608.7 -2.99511 -1.30234 0
M  V30 6540 H 607.359 -3.58936 0.745695 0
M  V30 6541 H 607.007 -4.83249 -1.39569 0
M  V30 6542 H 606.707 -5.87598 0.0166741 0
M  V30 6543 H 608.231 -6.0391 -0.901373 0
M  V30 6544 H 609.645 -5.5783 1.32283 0
M  V30 6545 H 608.042 -5.61666 2.11309 0
M  V30 6546 H 609.112 -4.22758 2.37494 0
M  V30 6547 N 610.455 -0.639598 -1.44038 0
M  V30 6548 C 611.418 0.0506628 -2.29144 0
M  V30 6549 C 612.418 0.764001 -1.41491 0
M  V30 6550 O 613.608 0.607309 -1.63271 0
M  V30 6551 C 610.74 1.0824 -3.2326 0
M  V30 6552 H 611.933 -0.697987 -2.91664 0
M  V30 6553 H 609.486 -0.400146 -1.51091 0
M  V30 6554 H 610.221 1.86075 -2.65606 0
M  V30 6555 H 610.006 0.574725 -3.87865 0
M  V30 6556 H 611.496 1.56487 -3.87171 0
M  V30 6557 N 611.933 1.52934 -0.380664 0
M  V30 6558 C 612.865 2.23822 0.493581 0
M  V30 6559 C 613.878 1.25761 1.03383 0
M  V30 6560 O 615.067 1.5189 0.937633 0
M  V30 6561 C 612.167 2.9342 1.69582 0
M  V30 6562 C 611.34 4.18115 1.28445 0
M  V30 6563 C 610.399 4.70788 2.35042 0
M  V30 6564 O 609.425 5.34093 1.96807 0
M  V30 6565 N 610.627 4.49899 3.66839 0
M  V30 6566 H 613.392 2.99484 -0.11371 0
M  V30 6567 H 610.953 1.60577 -0.206587 0
M  V30 6568 H 612.945 3.2556 2.40401 0
M  V30 6569 H 611.515 2.21119 2.20965 0
M  V30 6570 H 610.735 3.92109 0.405503 0
M  V30 6571 H 612.023 4.99152 0.986132 0
M  V30 6572 H 611.421 3.99349 4.0067 0
M  V30 6573 H 609.978 4.86551 4.33718 0
M  V30 6574 N 613.412 0.11024 1.57214 0
M  V30 6575 C 614.642 -0.557025 1.98949 0
M  V30 6576 C 615.05 -1.61317 0.988606 0
M  V30 6577 O 614.393 -1.83679 -0.0279159 0
M  V30 6578 C 614.455 -1.24956 3.37085 0
M  V30 6579 C 614.119 -0.342398 4.55716 0
M  V30 6580 C 615.116 0.415511 5.18237 0
M  V30 6581 C 612.801 -0.256029 5.01647 0
M  V30 6582 C 614.795 1.24761 6.25071 0
M  V30 6583 C 612.482 0.579713 6.08344 0
M  V30 6584 C 613.48 1.33017 6.69922 0
M  V30 6585 O 613.168 2.15205 7.74559 0
M  V30 6586 H 612.9 -0.152792 0.658506 0
M  V30 6587 H 615.454 0.19076 2.04512 0
M  V30 6588 H 613.684 -2.04424 3.2825 0
M  V30 6589 H 615.373 -1.81286 3.63167 0
M  V30 6590 H 616.139 0.358605 4.83672 0
M  V30 6591 H 612.018 -0.829831 4.5347 0
M  V30 6592 H 615.562 1.83386 6.73064 0
M  V30 6593 H 611.459 0.638044 6.42339 0
M  V30 6594 H 612.227 2.08052 7.91617 0
M  V30 6595 N 614.89 -1.56749 -0.16351 0
M  V30 6596 C 615.838 -1.97939 -1.22159 0
M  V30 6597 C 616.832 -0.869288 -1.45395 0
M  V30 6598 O 618.038 -1.05443 -1.45883 0
M  V30 6599 H 614.413 -0.629869 -0.410815 0
M  V30 6600 H 616.384 -2.86115 -0.847381 0
M  V30 6601 C 615.133 -2.36206 -2.55151 0
M  V30 6602 H 614.456 -3.2117 -2.38097 0
M  V30 6603 H 615.896 -2.68863 -3.27854 0
M  V30 6604 C 614.355 -1.20841 -3.14482 0
M  V30 6605 O 614.885 -0.500258 -3.98573 0
M  V30 6606 N 613.091 -0.976943 -2.73686 0
M  V30 6607 H 612.638 -1.55457 -2.05404 0
M  V30 6608 H 612.596 -0.206912 -3.13718 0
M  V30 6609 N 616.368 0.432326 -1.51554 0
M  V30 6610 C 617.779 1.01202 -1.56892 0
M  V30 6611 C 618.13 1.92175 -0.395394 0
M  V30 6612 O 617.255 2.10844 0.487198 0
M  V30 6613 C 617.85 1.84217 -2.8434 0
M  V30 6614 C 616.409 2.37228 -2.92233 0
M  V30 6615 C 615.556 1.16576 -2.51606 0
M  V30 6616 H 618.507 0.213407 -1.57259 0
M  V30 6617 H 618.528 2.69721 -2.68385 0
M  V30 6618 H 618.04 1.17979 -3.69733 0
M  V30 6619 H 616.141 3.06905 -2.11282 0
M  V30 6620 H 616.254 2.69682 -3.95991 0
M  V30 6621 H 614.618 1.51263 -2.04919 0
M  V30 6622 H 615.401 0.519404 -3.39348 0
M  V30 6623 N 617.846 1.41785 0.688094 0
M  V30 6624 C 618.793 1.44221 1.80191 0
M  V30 6625 C 619.763 0.295688 1.63447 0
M  V30 6626 O 620.948 0.49783 1.84191 0
M  V30 6627 C 618.088 1.33743 3.1813 0
M  V30 6628 C 617.201 2.58325 3.46254 0
M  V30 6629 C 616.336 2.40086 4.73848 0
M  V30 6630 C 615.375 3.60107 4.94964 0
M  V30 6631 N 614.512 3.40892 6.13789 0
M  V30 6632 H 619.352 2.39411 1.77444 0
M  V30 6633 H 616.889 1.18876 0.866423 0
M  V30 6634 H 618.847 1.25669 3.97823 0
M  V30 6635 H 617.477 0.42157 3.20035 0
M  V30 6636 H 616.529 2.7682 2.60912 0
M  V30 6637 H 617.841 3.4758 3.57756 0
M  V30 6638 H 616.995 2.29522 5.61609 0
M  V30 6639 H 615.734 1.483 4.64606 0
M  V30 6640 H 614.739 3.71118 4.05649 0
M  V30 6641 H 615.964 4.52857 5.06061 0
M  V30 6642 H 613.91 2.51812 6.05745 0
M  V30 6643 H 613.827 4.23727 6.26092 0
M  V30 6644 H 615.095 3.34114 7.04264 0
M  V30 6645 N 619.324 -0.923095 1.27737 0
M  V30 6646 C 620.254 -2.04124 1.13383 0
M  V30 6647 C 621.235 -1.70066 0.0340658 0
M  V30 6648 O 622.42 -1.93068 0.209383 0
M  V30 6649 C 619.55 -3.3831 0.785097 0
M  V30 6650 C 618.504 -3.86496 1.8386 0
M  V30 6651 C 617.83 -5.1754 1.34373 0
M  V30 6652 C 619.13 -4.09381 3.24353 0
M  V30 6653 H 620.824 -2.1639 2.06919 0
M  V30 6654 H 618.37 -1.03976 0.996243 0
M  V30 6655 H 620.323 -4.16016 0.671485 0
M  V30 6656 H 619.047 -3.2607 -0.185969 0
M  V30 6657 H 617.706 -3.10987 1.9412 0
M  V30 6658 H 617.354 -5.01696 0.361989 0
M  V30 6659 H 617.054 -5.50751 2.04811 0
M  V30 6660 H 618.578 -5.97811 1.24315 0
M  V30 6661 H 619.992 -4.77641 3.17067 0
M  V30 6662 H 618.389 -4.53906 3.92542 0
M  V30 6663 H 619.459 -3.14515 3.69064 0
M  V30 6664 N 620.802 -1.09834 -1.13024 0
M  V30 6665 C 622.079 -0.749225 -1.80682 0
M  V30 6666 C 622.459 0.765171 -1.96744 0
M  V30 6667 O 621.807 1.68912 -1.53886 0
M  V30 6668 C 622.017 -1.49311 -3.15448 0
M  V30 6669 C 623.365 -1.66162 -3.90737 0
M  V30 6670 O 624.389 -1.45597 -3.25085 0
M  V30 6671 O 623.248 -2.00211 -5.08505 0
M  V30 6672 H 620.342 -0.269614 -0.781817 0
M  V30 6673 H 622.888 -1.20078 -1.19914 0
M  V30 6674 H 621.66 -2.52407 -2.99009 0
M  V30 6675 H 621.283 -1.034 -3.8392 0
M  V30 6676 N 622.28 1.30327 -0.886154 0
M  V30 6677 C 623.526 1.96388 -0.505941 0
M  V30 6678 C 623.859 1.69784 0.942712 0
M  V30 6679 O 623.134 1.00322 1.6663 0
M  V30 6680 C 623.417 3.51488 -0.782826 0
M  V30 6681 C 623.27 3.87603 -2.28219 0
M  V30 6682 C 624.589 4.39331 -0.260128 0
M  V30 6683 H 621.708 0.713327 -0.185292 0
M  V30 6684 H 624.35 1.54178 -1.11036 0
M  V30 6685 H 622.5 3.87572 -0.268399 0
M  V30 6686 H 624.172 3.61537 -2.86512 0
M  V30 6687 H 622.415 3.3563 -2.74837 0
M  V30 6688 H 623.086 4.95806 -2.42653 0
M  V30 6689 H 625.562 4.10162 -0.700444 0
M  V30 6690 H 624.438 5.46769 -0.483179 0
M  V30 6691 H 624.699 4.34072 0.838674 0
M  V30 6692 N 623.758 0.647228 1.43697 0
M  V30 6693 C 624.705 -0.0480092 2.3075 0
M  V30 6694 C 625.675 -0.820705 1.44408 0
M  V30 6695 O 626.86 -0.798515 1.73287 0
M  V30 6696 C 624 -1.01259 3.2991 0
M  V30 6697 C 623.113 -0.236629 4.31351 0
M  V30 6698 C 622.248 -1.19447 5.17596 0
M  V30 6699 C 621.287 -0.408595 6.10735 0
M  V30 6700 N 620.424 -1.31772 6.89623 0
M  V30 6701 H 625.264 0.700238 2.89656 0
M  V30 6702 H 622.801 0.357082 1.427 0
M  V30 6703 H 624.759 -1.58538 3.85903 0
M  V30 6704 H 623.389 -1.72778 2.72667 0
M  V30 6705 H 622.441 0.452353 3.77701 0
M  V30 6706 H 623.753 0.374731 4.9739 0
M  V30 6707 H 622.907 -1.83809 5.78186 0
M  V30 6708 H 621.646 -1.83975 4.51669 0
M  V30 6709 H 620.651 0.24841 5.49239 0
M  V30 6710 H 621.876 0.232188 6.78703 0
M  V30 6711 H 619.822 -1.94991 6.2635 0
M  V30 6712 H 619.739 -0.760779 7.52162 0
M  V30 6713 H 621.007 -1.94967 7.54724 0
M  V30 6714 N 625.236 -1.5273 0.388769 0
M  V30 6715 C 626.166 -2.29353 -0.438111 0
M  V30 6716 C 627.147 -1.32719 -1.06394 0
M  V30 6717 O 628.332 -1.61612 -1.07681 0
M  V30 6718 C 625.462 -3.09995 -1.56589 0
M  V30 6719 C 624.416 -4.14509 -1.06613 0
M  V30 6720 C 623.742 -4.83372 -2.28594 0
M  V30 6721 C 625.042 -5.22127 -0.134459 0
M  V30 6722 H 626.736 -2.98723 0.201206 0
M  V30 6723 H 624.282 -1.43665 0.0982089 0
M  V30 6724 H 626.235 -3.62357 -2.15118 0
M  V30 6725 H 624.959 -2.38357 -2.23279 0
M  V30 6726 H 623.618 -3.63128 -0.503383 0
M  V30 6727 H 623.266 -4.08283 -2.93792 0
M  V30 6728 H 622.966 -5.54012 -1.95817 0
M  V30 6729 H 624.49 -5.38538 -2.87766 0
M  V30 6730 H 625.904 -5.69851 -0.627914 0
M  V30 6731 H 624.301 -6.00011 0.103534 0
M  V30 6732 H 625.371 -4.77971 0.816798 0
M  V30 6733 N 626.714 -0.118576 -1.57153 0
M  V30 6734 C 627.644 0.828436 -2.1831 0
M  V30 6735 C 628.625 1.27758 -1.12303 0
M  V30 6736 O 629.81 1.34026 -1.40537 0
M  V30 6737 C 626.94 2.07876 -2.78217 0
M  V30 6738 C 625.894 1.76742 -3.89803 0
M  V30 6739 C 625.22 3.08801 -4.36516 0
M  V30 6740 C 626.52 1.03606 -5.11921 0
M  V30 6741 H 628.214 0.318824 -2.97698 0
M  V30 6742 H 625.76 0.151911 -1.43196 0
M  V30 6743 H 627.713 2.74584 -3.19659 0
M  V30 6744 H 626.437 2.61161 -1.96118 0
M  V30 6745 H 625.096 1.12424 -3.48936 0
M  V30 6746 H 624.744 3.6002 -3.51276 0
M  V30 6747 H 624.444 2.88743 -5.11763 0
M  V30 6748 H 625.968 3.76627 -4.80608 0
M  V30 6749 H 627.382 1.60467 -5.50385 0
M  V30 6750 H 625.779 0.936454 -5.92748 0
M  V30 6751 H 626.849 0.0227421 -4.84895 0
M  V30 6752 N 628.193 1.56834 0.155195 0
M  V30 6753 C 629.423 1.86778 0.883044 0
M  V30 6754 C 629.831 0.703824 1.75622 0
M  V30 6755 O 629.174 -0.33581 1.80605 0
M  V30 6756 C 629.236 3.1133 1.79761 0
M  V30 6757 C 628.9 4.43504 1.10242 0
M  V30 6758 C 629.897 5.17859 0.460204 0
M  V30 6759 C 627.582 4.90233 1.09437 0
M  V30 6760 C 629.576 6.37144 -0.180782 0
M  V30 6761 C 627.263 6.09444 0.449569 0
M  V30 6762 C 628.261 6.82744 -0.186888 0
M  V30 6763 O 627.949 7.99692 -0.821486 0
M  V30 6764 H 627.681 0.62352 0.261149 0
M  V30 6765 H 630.235 2.04813 0.155204 0
M  V30 6766 H 628.465 2.89282 2.56618 0
M  V30 6767 H 630.154 3.27587 2.39669 0
M  V30 6768 H 630.92 4.8283 0.458289 0
M  V30 6769 H 626.799 4.33109 1.57917 0
M  V30 6770 H 630.343 6.94296 -0.678154 0
M  V30 6771 H 626.24 6.43936 0.449123 0
M  V30 6772 H 627.008 8.15306 -0.722337 0
M  V30 6773 N 629.671 -0.424282 1.51781 0
M  V30 6774 C 631.082 -1.00368 1.57427 0
M  V30 6775 C 631.433 -1.91962 0.40558 0
M  V30 6776 O 630.558 -2.111 -0.47601 0
M  V30 6777 C 631.153 -1.82707 2.85313 0
M  V30 6778 C 629.712 -2.35675 2.93487 0
M  V30 6779 C 628.859 -1.1524 2.5222 0
M  V30 6780 H 631.81 -0.205064 1.5737 0
M  V30 6781 H 631.831 -2.68294 2.69812 0
M  V30 6782 H 631.343 -1.16017 3.70353 0
M  V30 6783 H 629.444 -3.05781 2.12906 0
M  V30 6784 H 629.557 -2.67578 3.97415 0
M  V30 6785 H 627.921 -1.50174 2.05718 0
M  V30 6786 H 628.704 -0.5014 3.39619 0
M  V30 6787 N 631.149 -1.42148 -0.680565 0
M  V30 6788 C 632.395 -1.42521 -1.44277 0
M  V30 6789 C 632.728 -0.0393718 -1.9416 0
M  V30 6790 O 632.003 0.935425 -1.70529 0
M  V30 6791 C 632.286 -2.44475 -2.64394 0
M  V30 6792 C 632.139 -3.92226 -2.20179 0
M  V30 6793 C 633.458 -2.43491 -3.66606 0
M  V30 6794 H 630.577 -0.518985 -0.523282 0
M  V30 6795 H 633.219 -1.73524 -0.773914 0
M  V30 6796 H 631.369 -2.18168 -3.21458 0
M  V30 6797 H 633.041 -4.29493 -1.68327 0
M  V30 6798 H 631.284 -4.0637 -1.5181 0
M  V30 6799 H 631.955 -4.59133 -3.06433 0
M  V30 6800 H 634.431 -2.66872 -3.19247 0
M  V30 6801 H 633.307 -3.16816 -4.4824 0
M  V30 6802 H 633.568 -1.45881 -4.17338 0
M  V30 6803 N 632.627 0.916307 -1.28225 0
M  V30 6804 C 633.852 1.7043 -1.18188 0
M  V30 6805 C 634.277 1.86346 0.256274 0
M  V30 6806 O 633.635 1.37175 1.18544 0
M  V30 6807 C 633.683 3.07546 -1.88275 0
M  V30 6808 O 632.787 3.94904 -1.18848 0
M  V30 6809 H 632.128 0.521967 -0.410423 0
M  V30 6810 H 634.658 1.14589 -1.69501 0
M  V30 6811 H 634.668 3.57793 -1.96082 0
M  V30 6812 H 633.343 2.95279 -2.92887 0
M  V30 6813 H 631.92 3.53339 -1.19187 0
M  V30 6814 N 634.105 1.10431 1.1244 0
M  V30 6815 C 635.052 0.753103 2.18167 0
M  V30 6816 C 636.022 -0.270549 1.63882 0
M  V30 6817 O 637.207 -0.149837 1.90211 0
M  V30 6818 C 634.347 0.191046 3.44571 0
M  V30 6819 C 633.46 1.26999 4.12911 0
M  V30 6820 C 632.595 0.669586 5.26963 0
M  V30 6821 C 631.634 1.72912 5.87169 0
M  V30 6822 N 630.771 1.14898 6.92635 0
M  V30 6823 H 635.611 1.65892 2.47556 0
M  V30 6824 H 633.148 0.828631 1.21541 0
M  V30 6825 H 635.106 -0.152712 4.1692 0
M  V30 6826 H 633.736 -0.677997 3.15599 0
M  V30 6827 H 632.788 1.73087 3.3874 0
M  V30 6828 H 634.1 2.07204 4.53727 0
M  V30 6829 H 633.254 0.275274 6.06075 0
M  V30 6830 H 631.993 -0.163895 4.87425 0
M  V30 6831 H 630.998 2.13286 5.06744 0
M  V30 6832 H 632.223 2.56544 6.28778 0
M  V30 6833 H 630.169 0.336956 6.55134 0
M  V30 6834 H 630.086 1.88786 7.32049 0
M  V30 6835 H 631.354 0.78121 7.75576 0
M  V30 6836 N 635.583 -1.29855 0.893053 0
M  V30 6837 C 636.813 -1.99686 0.530019 0
M  V30 6838 C 637.221 -1.67066 -0.888012 0
M  V30 6839 O 636.564 -0.908366 -1.5967 0
M  V30 6840 C 636.626 -3.53855 0.63457 0
M  V30 6841 C 636.29 -4.10013 2.01837 0
M  V30 6842 C 637.287 -4.25406 2.98874 0
M  V30 6843 C 634.972 -4.45202 2.32595 0
M  V30 6844 C 636.966 -4.7521 4.24799 0
M  V30 6845 C 634.653 -4.94704 3.58763 0
M  V30 6846 C 635.651 -5.09662 4.5468 0
M  V30 6847 O 635.339 -5.58093 5.78608 0
M  V30 6848 H 635.071 -0.644913 0.20264 0
M  V30 6849 H 637.625 -1.66518 1.20253 0
M  V30 6850 H 635.855 -3.86583 -0.0949477 0
M  V30 6851 H 637.544 -4.04922 0.281648 0
M  V30 6852 H 638.31 -3.98515 2.76425 0
M  V30 6853 H 634.189 -4.32822 1.58701 0
M  V30 6854 H 637.733 -4.86801 4.99671 0
M  V30 6855 H 633.63 -5.21032 3.81046 0
M  V30 6856 H 634.398 -5.7642 5.81104 0
M  V30 6857 N 637.061 -0.65484 -1.43351 0
M  V30 6858 C 637.993 0.0744757 -2.29079 0
M  V30 6859 C 639.006 0.7855 -1.42596 0
M  V30 6860 O 640.195 0.642986 -1.66517 0
M  V30 6861 C 637.295 1.12859 -3.19556 0
M  V30 6862 C 636.468 0.495381 -4.34586 0
M  V30 6863 C 635.527 1.44659 -5.05925 0
M  V30 6864 O 634.553 0.954567 -5.61139 0
M  V30 6865 N 635.755 2.78051 -5.09576 0
M  V30 6866 H 638.52 -0.661346 -2.92312 0
M  V30 6867 H 636.081 -0.497744 -1.54059 0
M  V30 6868 H 638.073 1.76577 -3.64147 0
M  V30 6869 H 636.643 1.76636 -2.57912 0
M  V30 6870 H 635.863 -0.32092 -3.92892 0
M  V30 6871 H 637.151 0.0534203 -5.08772 0
M  V30 6872 H 636.549 3.20584 -4.66093 0
M  V30 6873 H 635.106 3.37068 -5.57878 0
M  V30 6874 N 638.539 1.52521 -0.396863 0
M  V30 6875 C 639.471 2.24333 0.469814 0
M  V30 6876 C 640.484 1.2685 1.02043 0
M  V30 6877 O 641.673 1.52876 0.92147 0
M  V30 6878 C 638.773 2.95202 1.66461 0
M  V30 6879 C 637.946 4.19454 1.24003 0
M  V30 6880 C 637.005 4.73255 2.30036 0
M  V30 6881 O 636.031 5.36151 1.91131 0
M  V30 6882 N 637.233 4.53765 3.62047 0
M  V30 6883 H 639.998 2.99347 -0.145468 0
M  V30 6884 H 637.559 1.60348 -0.223606 0
M  V30 6885 H 639.551 3.28092 2.36934 0
M  V30 6886 H 638.121 2.2345 2.18607 0
M  V30 6887 H 637.341 3.92517 0.363892 0
M  V30 6888 H 638.629 5.0017 0.933135 0
M  V30 6889 H 638.027 4.03576 3.96412 0
M  V30 6890 H 636.584 4.91124 4.28533 0
M  V30 6891 N 640.017 0.126909 1.57088 0
M  V30 6892 C 641.294 -0.573152 1.87014 0
M  V30 6893 C 641.674 -1.84297 1.02945 0
M  V30 6894 O 641.022 -2.28232 0.110573 0
M  V30 6895 C 641.232 -0.857984 3.38289 0
M  V30 6896 C 642.58 -1.20759 4.07066 0
M  V30 6897 O 643.604 -0.947992 3.43353 0
M  V30 6898 O 642.463 -1.69516 5.19545 0
M  V30 6899 H 639.557 -0.290082 0.774456 0
M  V30 6900 H 642.103 0.162008 1.68925 0
M  V30 6901 H 640.875 0.0415286 3.91278 0
M  V30 6902 H 640.498 -1.64803 3.61837 0
M  V30 6903 N 641.495 -1.56914 -0.146875 0
M  V30 6904 C 642.427 -1.94878 -1.20645 0
M  V30 6905 C 643.44 -0.844633 -1.39175 0
M  V30 6906 O 644.629 -1.12304 -1.38744 0
M  V30 6907 C 641.729 -2.20769 -2.57127 0
M  V30 6908 C 640.902 -3.52053 -2.59572 0
M  V30 6909 C 639.961 -3.66482 -3.77594 0
M  V30 6910 O 638.987 -4.38873 -3.62462 0
M  V30 6911 N 640.189 -3.03156 -4.95052 0
M  V30 6912 H 642.954 -2.86374 -0.883757 0
M  V30 6913 H 640.515 -1.58366 -0.336436 0
M  V30 6914 H 642.507 -2.27664 -3.34591 0
M  V30 6915 H 641.077 -1.35538 -2.81688 0
M  V30 6916 H 640.297 -3.56598 -1.68023 0
M  V30 6917 H 641.585 -4.38396 -2.58238 0
M  V30 6918 H 640.983 -2.44258 -5.10249 0
M  V30 6919 H 639.54 -3.15611 -5.70292 0
M  V30 6920 N 642.974 0.416227 -1.52004 0
M  V30 6921 C 644.22 1.16555 -1.6596 0
M  V30 6922 C 644.553 1.90347 -0.384906 0
M  V30 6923 O 643.828 1.84474 0.616405 0
M  V30 6924 C 644.111 2.1657 -2.87696 0
M  V30 6925 C 643.964 1.46722 -4.25197 0
M  V30 6926 C 645.283 3.17321 -3.04951 0
M  V30 6927 H 642.402 0.422369 -0.603965 0
M  V30 6928 H 645.044 0.452141 -1.84542 0
M  V30 6929 H 643.194 2.77411 -2.71985 0
M  V30 6930 H 644.866 0.89056 -4.52622 0
M  V30 6931 H 643.109 0.769263 -4.26925 0
M  V30 6932 H 643.78 2.19665 -5.0641 0
M  V30 6933 H 646.256 2.66552 -3.19514 0
M  V30 6934 H 645.132 3.84573 -3.91656 0
M  V30 6935 H 645.393 3.84643 -2.17951 0
M  V30 6936 N 644.452 1.42507 0.673017 0
M  V30 6937 C 645.698 1.43284 1.43519 0
M  V30 6938 C 646.031 0.049668 1.94136 0
M  V30 6939 O 645.306 -0.926369 1.71022 0
M  V30 6940 C 645.589 2.45874 2.63093 0
M  V30 6941 C 645.442 3.93388 2.18096 0
M  V30 6942 C 646.761 2.45431 3.6531 0
M  V30 6943 H 643.88 0.521752 0.520522 0
M  V30 6944 H 646.522 1.73932 0.764701 0
M  V30 6945 H 644.672 2.19869 3.20296 0
M  V30 6946 H 646.344 4.30379 1.66046 0
M  V30 6947 H 644.587 4.07169 1.49652 0
M  V30 6948 H 645.258 4.60752 3.03993 0
M  V30 6949 H 647.734 2.68561 3.17827 0
M  V30 6950 H 646.61 3.19189 4.46553 0
M  V30 6951 H 646.871 1.48092 4.16559 0
M  V30 6952 N 645.93 -0.909495 1.28709 0
M  V30 6953 C 646.877 -2.01245 1.13 0
M  V30 6954 C 647.847 -1.6608 0.0259684 0
M  V30 6955 O 649.032 -1.89835 0.191687 0
M  V30 6956 C 646.172 -3.35644 0.802315 0
M  V30 6957 C 645.285 -3.83653 1.98582 0
M  V30 6958 C 644.42 -5.06582 1.59837 0
M  V30 6959 C 643.459 -5.46934 2.74827 0
M  V30 6960 N 642.596 -6.61053 2.36546 0
M  V30 6961 H 647.436 -2.14013 2.0737 0
M  V30 6962 H 644.973 -1.0482 1.03205 0
M  V30 6963 H 646.931 -4.12963 0.593057 0
M  V30 6964 H 645.561 -3.22631 -0.104457 0
M  V30 6965 H 644.613 -3.02454 2.30708 0
M  V30 6966 H 645.925 -4.09515 2.84779 0
M  V30 6967 H 645.079 -5.91457 1.35143 0
M  V30 6968 H 643.818 -4.82537 0.707753 0
M  V30 6969 H 642.823 -4.60599 3.00215 0
M  V30 6970 H 644.048 -5.72965 3.64538 0
M  V30 6971 H 641.994 -6.3863 1.49959 0
M  V30 6972 H 641.911 -6.86662 3.16277 0
M  V30 6973 H 643.179 -7.49221 2.15146 0
M  V30 6974 N 647.408 -1.11026 -1.11852 0
M  V30 6975 C 648.318 -0.777252 -2.2135 0
M  V30 6976 C 649.334 0.227821 -1.72502 0
M  V30 6977 O 650.51 0.0650587 -2.01295 0
M  V30 6978 C 647.575 -0.220668 -3.45997 0
M  V30 6979 C 646.636 -1.2838 -4.09655 0
M  V30 6980 C 645.869 -0.753678 -5.28352 0
M  V30 6981 O 646.092 0.417779 -5.68868 0
M  V30 6982 O 645.026 -1.51647 -5.82483 0
M  V30 6983 H 648.852 -1.69141 -2.5224 0
M  V30 6984 H 646.437 -0.885836 -1.20305 0
M  V30 6985 H 648.319 0.0855756 -4.21313 0
M  V30 6986 H 646.994 0.666262 -3.16769 0
M  V30 6987 H 645.901 -1.64299 -3.3609 0
M  V30 6988 H 647.234 -2.14396 -4.43052 0
M  V30 6989 N 648.886 1.2938 -0.899927 0
M  V30 6990 C 650.163 1.9046 -0.445443 0
M  V30 6991 C 650.543 1.81683 1.07492 0
M  V30 6992 O 649.891 1.24371 1.91688 0
M  V30 6993 C 650.101 3.35529 -0.960279 0
M  V30 6994 C 651.449 4.12556 -1.00412 0
M  V30 6995 O 652.473 3.44434 -0.907965 0
M  V30 6996 O 651.332 5.34294 -1.14857 0
M  V30 6997 H 648.426 0.815253 -0.138893 0
M  V30 6998 H 650.972 1.37844 -0.989808 0
M  V30 6999 H 649.744 3.36074 -2.00425 0
M  V30 7000 H 649.367 3.95624 -0.395939 0
M  V30 7001 N 650.364 0.662433 1.43002 0
M  V30 7002 C 651.312 -0.035345 2.32573 0
M  V30 7003 C 652.306 -0.803505 1.49131 0
M  V30 7004 O 653.512 -0.712865 1.65282 0
M  V30 7005 H 649.887 -0.0302194 0.751393 0
M  V30 7006 H 651.858 0.737686 2.89138 0
M  V30 7007 C 650.607 -0.981575 3.33557 0
M  V30 7008 H 649.93 -0.399914 3.97795 0
M  V30 7009 H 651.37 -1.43873 3.98844 0
M  V30 7010 C 649.829 -2.08204 2.64863 0
M  V30 7011 O 650.359 -3.16698 2.47113 0
M  V30 7012 N 648.565 -1.85022 2.24088 0
M  V30 7013 H 648.112 -0.967909 2.38724 0
M  V30 7014 H 648.07 -2.58845 1.78457 0
M  V30 7015 N 651.842 -1.52309 0.404946 0
M  V30 7016 C 653.091 -2.00952 -0.173529 0
M  V30 7017 C 653.404 -1.29512 -1.46581 0
M  V30 7018 O 654.61 -1.6895 -2.12528 0
M  V30 7019 C 653.066 -3.58097 -0.359801 0
M  V30 7020 C 652.674 -4.38449 0.920138 0
M  V30 7021 C 654.418 -4.14984 -0.893794 0
M  V30 7022 C 652.325 -5.87227 0.701285 0
M  V30 7023 H 651.255 -0.750871 -0.0686244 0
M  V30 7024 H 653.906 -1.75687 0.529749 0
M  V30 7025 H 652.288 -3.79675 -1.12531 0
M  V30 7026 H 653.462 -4.28633 1.69147 0
M  V30 7027 H 651.777 -3.92859 1.38024 0
M  V30 7028 H 654.374 -5.23813 -1.0735 0
M  V30 7029 H 654.717 -3.72072 -1.8673 0
M  V30 7030 H 655.25 -3.97358 -0.187453 0
M  V30 7031 H 651.989 -6.34491 1.64624 0
M  V30 7032 H 651.509 -5.99792 -0.0308288 0
M  V30 7033 H 653.188 -6.46096 0.341846 0
M  V30 7034 N 653.32 -0.135238 -1.57019 0
M  V30 7035 C 654.23 0.822226 -2.19719 0
M  V30 7036 C 655.246 1.28057 -1.17802 0
M  V30 7037 O 656.422 1.3402 -1.50335 0
M  V30 7038 C 653.487 2.0484 -2.79717 0
M  V30 7039 C 652.548 1.64042 -3.96723 0
M  V30 7040 C 651.781 2.80814 -4.53849 0
M  V30 7041 O 652.004 3.967 -4.0986 0
M  V30 7042 O 650.938 2.56963 -5.44292 0
M  V30 7043 H 654.764 0.318552 -3.02025 0
M  V30 7044 H 652.349 0.0912021 -1.49121 0
M  V30 7045 H 654.231 2.76622 -3.17897 0
M  V30 7046 H 652.906 2.54182 -2.00432 0
M  V30 7047 H 651.813 0.893182 -3.63281 0
M  V30 7048 H 653.146 1.19426 -4.77492 0
M  V30 7049 N 654.798 1.5699 0.138552 0
M  V30 7050 C 655.761 1.97984 1.15478 0
M  V30 7051 C 656.761 0.867416 1.35398 0
M  V30 7052 O 657.951 1.13387 1.32246 0
M  V30 7053 C 655.083 2.3031 2.51337 0
M  V30 7054 H 656.276 2.88953 0.802896 0
M  V30 7055 H 653.829 1.51555 0.382189 0
M  V30 7056 H 654.564 1.42159 2.91481 0
M  V30 7057 H 654.349 3.11425 2.38237 0
M  V30 7058 H 655.839 2.62834 3.24512 0
M  V30 7059 N 656.276 -0.40816 1.52223 0
M  V30 7060 C 657.522 -1.15673 1.66576 0
M  V30 7061 C 657.855 -1.90141 0.394996 0
M  V30 7062 O 657.13 -1.84798 -0.606613 0
M  V30 7063 C 657.413 -2.15042 2.88841 0
M  V30 7064 C 657.266 -1.44465 4.25969 0
M  V30 7065 C 658.585 -3.15699 3.0663 0
M  V30 7066 H 655.704 -0.41916 0.606196 0
M  V30 7067 H 658.346 -0.442348 1.84779 0
M  V30 7068 H 656.496 -2.75964 2.73452 0
M  V30 7069 H 658.168 -0.866544 4.53088 0
M  V30 7070 H 656.411 -0.746612 4.27327 0
M  V30 7071 H 657.082 -2.16976 5.07568 0
M  V30 7072 H 659.558 -2.64854 3.20923 0
M  V30 7073 H 658.434 -3.82491 3.9369 0
M  V30 7074 H 658.695 -3.83481 2.19987 0
M  V30 7075 N 657.755 -1.42862 -0.66545 0
M  V30 7076 C 659.003 -1.43546 -1.42264 0
M  V30 7077 C 659.324 -0.0563116 -1.94919 0
M  V30 7078 O 658.594 0.906568 -1.73661 0
M  V30 7079 H 657.174 -0.528464 -0.527953 0
M  V30 7080 H 659.836 -1.78363 -0.785665 0
M  V30 7081 H 658.932 -2.14079 -2.27105 0
M  V30 7082 N 659.233 0.902656 -1.29189 0
M  V30 7083 C 660.18 2.00643 -1.14066 0
M  V30 7084 C 661.15 1.66064 -0.0347756 0
M  V30 7085 O 662.335 1.8973 -0.201752 0
M  V30 7086 C 659.475 3.35214 -0.820104 0
M  V30 7087 C 658.588 3.82594 -2.00614 0
M  V30 7088 C 657.723 5.05727 -1.62522 0
M  V30 7089 C 656.762 5.45469 -2.77724 0
M  V30 7090 N 655.899 6.59789 -2.40048 0
M  V30 7091 H 660.739 2.1291 -2.08502 0
M  V30 7092 H 658.276 1.04271 -1.03759 0
M  V30 7093 H 660.234 4.12643 -0.614949 0
M  V30 7094 H 658.864 3.22682 0.0873452 0
M  V30 7095 H 657.916 3.01226 -2.32308 0
M  V30 7096 H 659.228 4.07999 -2.86946 0
M  V30 7097 H 658.382 5.90732 -1.38277 0
M  V30 7098 H 657.121 4.82155 -0.733333 0
M  V30 7099 H 656.126 4.59 -3.02653 0
M  V30 7100 H 657.351 5.71024 -3.67572 0
M  V30 7101 H 655.297 6.37826 -1.53343 0
M  V30 7102 H 655.214 6.84975 -3.19914 0
M  V30 7103 H 656.482 7.4807 -2.19116 0
M  V30 7104 N 660.711 1.11618 1.11262 0
M  V30 7105 C 661.658 0.7762 2.17356 0
M  V30 7106 C 662.628 -0.253152 1.6416 0
M  V30 7107 O 663.813 -0.129655 1.90359 0
M  V30 7108 C 660.953 0.227581 3.44349 0
M  V30 7109 C 660.066 1.31372 4.1154 0
M  V30 7110 C 659.201 0.72544 5.26223 0
M  V30 7111 C 658.24 1.7913 5.85302 0
M  V30 7112 N 657.377 1.22237 6.91377 0
M  V30 7113 H 662.217 1.68508 2.45783 0
M  V30 7114 H 659.754 0.841475 1.20655 0
M  V30 7115 H 661.712 -0.108483 4.17059 0
M  V30 7116 H 660.342 -0.644486 3.16301 0
M  V30 7117 H 659.394 1.7667 3.36885 0
M  V30 7118 H 660.706 2.12005 4.51504 0
M  V30 7119 H 659.86 0.339541 6.05749 0
M  V30 7120 H 658.599 -0.112188 4.87571 0
M  V30 7121 H 657.604 2.18648 5.04453 0
M  V30 7122 H 658.829 2.63199 6.26022 0
M  V30 7123 H 656.775 0.406423 6.5474 0
M  V30 7124 H 656.692 1.9654 7.30006 0
M  V30 7125 H 657.96 0.863426 7.74703 0
M  V30 7126 N 662.189 -1.289 0.906776 0
M  V30 7127 C 663.119 -2.29932 0.406659 0
M  V30 7128 C 664.1 -1.6189 -0.522061 0
M  V30 7129 O 665.285 -1.8935 -0.431283 0
M  V30 7130 C 662.415 -3.45425 -0.360366 0
M  V30 7131 C 661.369 -4.25316 0.478574 0
M  V30 7132 C 660.695 -5.33076 -0.416373 0
M  V30 7133 C 661.995 -4.92739 1.7322 0
M  V30 7134 H 663.689 -2.72013 1.25097 0
M  V30 7135 H 661.235 -1.30768 0.602977 0
M  V30 7136 H 663.188 -4.15186 -0.721029 0
M  V30 7137 H 661.912 -3.02206 -1.23852 0
M  V30 7138 H 660.571 -3.57273 0.821662 0
M  V30 7139 H 660.219 -4.86101 -1.29287 0
M  V30 7140 H 659.919 -5.8743 0.141309 0
M  V30 7141 H 661.443 -6.05686 -0.773072 0
M  V30 7142 H 662.857 -5.54898 1.44086 0
M  V30 7143 H 661.254 -5.57057 2.23175 0
M  V30 7144 H 662.324 -4.17625 2.46408 0
M  V30 7145 N 663.667 -0.670007 -1.42649 0
M  V30 7146 C 664.617 0.0339546 -2.27975 0
M  V30 7147 C 665.601 0.778295 -1.40824 0
M  V30 7148 O 666.793 0.657997 -1.64315 0
M  V30 7149 C 663.922 0.987899 -3.28779 0
M  V30 7150 C 663.008 0.241153 -4.23414 0
M  V30 7151 N 663.399 -0.751392 -5.00188 0
M  V30 7152 C 661.697 0.480269 -4.43407 0
M  V30 7153 C 662.398 -1.19615 -5.69269 0
M  V30 7154 N 661.374 -0.527045 -5.41039 0
M  V30 7155 H 665.176 -0.727425 -2.84756 0
M  V30 7156 H 662.69 -0.498673 -1.54554 0
M  V30 7157 H 664.687 1.50716 -3.88703 0
M  V30 7158 H 663.347 1.74916 -2.73559 0
M  V30 7159 H 664.358 -1.13075 -5.05405 0
M  V30 7160 H 661.035 1.2214 -3.99234 0
M  V30 7161 H 662.425 -2.01836 -6.40868 0
M  V30 7162 N 665.145 1.52092 -0.413018 0
M  V30 7163 C 666.055 2.30858 0.417318 0
M  V30 7164 C 667.071 1.38746 1.05003 0
M  V30 7165 O 668.247 1.71821 1.05069 0
M  V30 7166 C 665.312 3.11756 1.51687 0
M  V30 7167 C 664.373 4.19613 0.906825 0
M  V30 7168 C 663.606 4.96644 1.95399 0
M  V30 7169 O 663.829 4.7402 3.17271 0
M  V30 7170 O 662.763 5.81385 1.55805 0
M  V30 7171 H 666.589 3.02865 -0.225028 0
M  V30 7172 H 664.174 1.48358 -0.176126 0
M  V30 7173 H 666.056 3.62122 2.15512 0
M  V30 7174 H 664.731 2.42539 2.14375 0
M  V30 7175 H 663.638 3.73385 0.231183 0
M  V30 7176 H 664.971 4.91134 0.323814 0
M  V30 7177 N 666.623 0.143563 1.56945 0
M  V30 7178 C 667.853 -0.514699 2.00086 0
M  V30 7179 C 668.261 -1.59184 1.0226 0
M  V30 7180 O 667.604 -1.83697 0.0110514 0
M  V30 7181 C 667.666 -1.17778 3.39659 0
M  V30 7182 C 667.33 -0.245657 4.56339 0
M  V30 7183 C 668.327 0.525343 5.17239 0
M  V30 7184 C 666.012 -0.149564 5.02077 0
M  V30 7185 C 668.006 1.37992 6.22284 0
M  V30 7186 C 665.693 0.708621 6.06978 0
M  V30 7187 C 666.691 1.47197 6.6695 0
M  V30 7188 O 666.379 2.31586 7.6982 0
M  V30 7189 H 666.111 -0.138789 0.661599 0
M  V30 7190 H 668.665 0.234098 2.04062 0
M  V30 7191 H 666.895 -1.97415 3.32512 0
M  V30 7192 H 668.584 -1.73542 3.6693 0
M  V30 7193 H 669.35 0.461118 4.82803 0
M  V30 7194 H 665.229 -0.733457 4.55128 0
M  V30 7195 H 668.773 1.97621 6.69023 0
M  V30 7196 H 664.67 0.77415 6.40841 0
M  V30 7197 H 665.438 2.24796 7.87025 0
M  V30 7198 N 668.101 -1.57061 -0.130224 0
M  V30 7199 C 669.049 -2.00486 -1.17933 0
M  V30 7200 C 670.043 -0.899933 -1.43519 0
M  V30 7201 O 671.249 -1.08514 -1.43613 0
M  V30 7202 H 667.624 -0.638441 -0.397363 0
M  V30 7203 H 669.595 -2.87848 -0.786501 0
M  V30 7204 C 668.344 -2.41565 -2.50084 0
M  V30 7205 H 667.667 -3.26148 -2.31231 0
M  V30 7206 H 669.107 -2.75757 -3.22078 0
M  V30 7207 C 667.566 -1.27485 -3.11848 0
M  V30 7208 O 668.096 -0.584688 -3.97422 0
M  V30 7209 N 666.302 -1.03478 -2.71552 0
M  V30 7210 H 665.849 -1.59779 -2.02061 0
M  V30 7211 H 665.807 -0.27341 -3.13209 0
M  V30 7212 N 669.579 0.400081 -1.52437 0
M  V30 7213 C 670.807 1.16768 -1.70801 0
M  V30 7214 C 671.222 1.84036 -0.421462 0
M  V30 7215 O 670.579 1.72242 0.603228 0
M  V30 7216 C 670.63 2.22403 -2.8499 0
M  V30 7217 O 670.351 1.57879 -4.08663 0
M  V30 7218 C 671.852 3.11974 -3.1494 0
M  V30 7219 H 669.072 0.350533 -0.57216 0
M  V30 7220 H 671.616 0.469534 -1.99037 0
M  V30 7221 H 669.771 2.87871 -2.59247 0
M  V30 7222 H 670.185 2.27982 -4.7236 0
M  V30 7223 H 671.659 3.82148 -3.9833 0
M  V30 7224 H 672.136 3.74858 -2.28863 0
M  V30 7225 H 672.742 2.52165 -3.42481 0
M  V30 7226 N 671.057 1.43213 0.657864 0
M  V30 7227 C 671.989 1.43974 1.78337 0
M  V30 7228 C 673.002 0.336482 1.59285 0
M  V30 7229 O 674.191 0.600631 1.68091 0
M  V30 7230 C 671.291 1.23242 3.15697 0
M  V30 7231 C 670.464 2.46319 3.61449 0
M  V30 7232 C 669.523 2.2088 4.77597 0
M  V30 7233 O 668.549 2.942 4.87273 0
M  V30 7234 N 669.751 1.22251 5.67481 0
M  V30 7235 H 672.516 2.40993 1.78164 0
M  V30 7236 H 670.077 1.3831 0.841549 0
M  V30 7237 H 672.069 1.04113 3.91079 0
M  V30 7238 H 670.639 0.346849 3.1067 0
M  V30 7239 H 669.859 2.80904 2.76563 0
M  V30 7240 H 671.147 3.28239 3.88763 0
M  V30 7241 H 670.545 0.616433 5.62331 0
M  V30 7242 H 669.102 1.09107 6.42603 0
M  V30 7243 N 672.536 -0.895792 1.29666 0
M  V30 7244 C 673.783 -1.64664 1.17864 0
M  V30 7245 C 674.111 -1.92631 -0.26902 0
M  V30 7246 O 673.366 -1.53787 -1.21029 0
M  V30 7247 C 673.665 -3.00075 1.94139 0
M  V30 7248 C 673.331 -2.91702 3.43833 0
M  V30 7249 C 671.993 -2.89126 3.84656 0
M  V30 7250 C 674.345 -2.80622 4.39205 0
M  V30 7251 C 671.673 -2.73293 5.1916 0
M  V30 7252 C 674.025 -2.66329 5.73805 0
M  V30 7253 C 672.689 -2.62121 6.1388 0
M  V30 7254 H 671.959 -0.602549 0.431295 0
M  V30 7255 H 674.606 -1.04234 1.60648 0
M  V30 7256 H 672.911 -3.64394 1.43958 0
M  V30 7257 H 674.608 -3.57111 1.82408 0
M  V30 7258 H 671.198 -2.94511 3.11386 0
M  V30 7259 H 675.382 -2.81686 4.08615 0
M  V30 7260 H 670.638 -2.68443 5.49316 0
M  V30 7261 H 674.812 -2.56727 6.47352 0
M  V30 7262 H 672.439 -2.49611 7.18052 0
M  V30 7263 N 674.014 -1.12206 -1.10668 0
M  V30 7264 C 674.946 -0.74552 -2.16736 0
M  V30 7265 C 675.959 0.226696 -1.61214 0
M  V30 7266 O 677.148 0.0083936 -1.78498 0
M  V30 7267 C 674.248 -0.0823368 -3.388 0
M  V30 7268 C 673.421 -1.08341 -4.2377 0
M  V30 7269 C 672.48 -0.448292 -5.24287 0
M  V30 7270 O 671.506 -1.10458 -5.58379 0
M  V30 7271 N 672.708 0.785336 -5.75163 0
M  V30 7272 H 675.473 -1.65818 -2.49649 0
M  V30 7273 H 673.034 -1.01335 -1.26265 0
M  V30 7274 H 675.026 0.354476 -4.03145 0
M  V30 7275 H 673.596 0.733041 -3.03884 0
M  V30 7276 H 672.816 -1.69792 -3.55759 0
M  V30 7277 H 674.104 -1.76042 -4.77375 0
M  V30 7278 H 673.502 1.33755 -5.4966 0
M  V30 7279 H 672.059 1.16501 -6.41304 0
M  V30 7280 N 675.492 1.28418 -0.913599 0
M  V30 7281 C 676.402 2.31043 -0.406965 0
M  V30 7282 C 677.418 1.66501 0.505298 0
M  V30 7283 O 678.594 1.97558 0.391522 0
M  V30 7284 C 675.659 3.4498 0.344901 0
M  V30 7285 C 674.72 4.25078 -0.600563 0
M  V30 7286 C 673.953 5.33575 0.115516 0
M  V30 7287 O 674.176 5.54503 1.33727 0
M  V30 7288 O 673.11 5.9939 -0.549095 0
M  V30 7289 H 676.936 2.76387 -1.25873 0
M  V30 7290 H 674.521 1.33109 -0.678415 0
M  V30 7291 H 676.403 4.14314 0.769542 0
M  V30 7292 H 675.078 3.01719 1.1725 0
M  V30 7293 H 673.985 3.58334 -1.0746 0
M  V30 7294 H 675.318 4.72018 -1.39497 0
M  V30 7295 N 676.97 0.677563 1.42291 0
M  V30 7296 C 677.917 0.000947061 2.308 0
M  V30 7297 C 678.887 -0.789889 1.46116 0
M  V30 7298 O 680.072 -0.761578 1.74942 0
M  V30 7299 C 677.212 -0.942387 3.31984 0
M  V30 7300 C 676.325 -0.14508 4.31756 0
M  V30 7301 C 675.46 -1.08442 5.20013 0
M  V30 7302 C 674.499 -0.278958 6.11464 0
M  V30 7303 N 673.636 -1.17115 6.92263 0
M  V30 7304 H 678.476 0.761521 2.88106 0
M  V30 7305 H 676.013 0.38727 1.41911 0
M  V30 7306 H 677.971 -1.50317 3.89179 0
M  V30 7307 H 676.601 -1.66956 2.76271 0
M  V30 7308 H 675.653 0.532368 3.76656 0
M  V30 7309 H 676.965 0.48015 4.96484 0
M  V30 7310 H 676.119 -1.71504 5.81955 0
M  V30 7311 H 674.858 -1.74353 4.55469 0
M  V30 7312 H 673.863 0.364856 5.48588 0
M  V30 7313 H 675.088 0.376099 6.78058 0
M  V30 7314 H 673.034 -1.81661 6.30345 0
M  V30 7315 H 672.951 -0.601063 7.53607 0
M  V30 7316 H 674.219 -1.78915 7.58689 0
M  V30 7317 N 678.448 -1.51871 0.421078 0
M  V30 7318 C 679.673 -2.0684 -0.152371 0
M  V30 7319 C 680.098 -1.28802 -1.37083 0
M  V30 7320 O 679.456 -0.321482 -1.78427 0
M  V30 7321 C 679.504 -3.57532 -0.469368 0
M  V30 7322 O 678.608 -3.81818 -1.55848 0
M  V30 7323 H 677.949 -0.663939 -0.00898586 0
M  V30 7324 H 680.479 -1.95674 0.597724 0
M  V30 7325 H 680.489 -4.01515 -0.724553 0
M  V30 7326 H 679.164 -4.13761 0.421276 0
M  V30 7327 H 677.741 -3.49709 -1.29453 0
M  V30 7328 N 679.926 -0.151884 -1.56866 0
M  V30 7329 C 681.342 0.204486 -1.58285 0
M  V30 7330 C 681.542 1.6431 -1.16639 0
M  V30 7331 O 680.598 2.37077 -0.868946 0
M  V30 7332 C 681.911 -0.0587019 -3.00643 0
M  V30 7333 C 683.459 0.00462303 -3.13 0
M  V30 7334 C 683.934 -0.231297 -4.57416 0
M  V30 7335 N 685.425 -0.178394 -4.62856 0
M  V30 7336 C 686.16 -0.335379 -5.72418 0
M  V30 7337 N 685.656 -0.550355 -6.90611 0
M  V30 7338 N 687.449 -0.272641 -5.61438 0
M  V30 7339 H 679.6 -1.09116 -1.82229 0
M  V30 7340 H 681.863 -0.432311 -0.843689 0
M  V30 7341 H 681.569 -1.05453 -3.35518 0
M  V30 7342 H 681.443 0.658508 -3.71407 0
M  V30 7343 H 683.83 0.991009 -2.77962 0
M  V30 7344 H 683.911 -0.744992 -2.44711 0
M  V30 7345 H 683.555 -1.2148 -4.93158 0
M  V30 7346 H 683.485 0.5387 -5.23837 0
M  V30 7347 H 685.976 -0.0170923 -3.77896 0
M  V30 7348 H 686.289 -0.660116 -7.69976 0
M  V30 7349 H 684.634 -0.586736 -6.92519 0
M  V30 7350 H 687.825 -0.105421 -4.67981 0
M  V30 7351 H 687.998 -0.398418 -6.46774 0
M  V30 7352 N 681.404 1.57128 0.121893 0
M  V30 7353 C 682.314 2.03425 1.16857 0
M  V30 7354 C 683.33 0.954108 1.45509 0
M  V30 7355 O 684.506 1.26541 1.56682 0
M  V30 7356 C 681.571 2.42685 2.47599 0
M  V30 7357 C 680.632 3.64767 2.2637 0
M  V30 7358 C 679.865 4.02145 3.50878 0
M  V30 7359 O 680.088 3.39897 4.58068 0
M  V30 7360 O 679.022 4.95262 3.42051 0
M  V30 7361 H 682.848 2.92825 0.80544 0
M  V30 7362 H 680.433 1.45654 0.332477 0
M  V30 7363 H 682.315 2.68684 3.24634 0
M  V30 7364 H 680.99 1.56432 2.83392 0
M  V30 7365 H 679.897 3.43922 1.47203 0
M  V30 7366 H 681.23 4.51716 1.95482 0
M  V30 7367 N 682.882 -0.391992 1.52647 0
M  V30 7368 C 684.112 -1.15692 1.71169 0
M  V30 7369 C 684.52 -1.84285 0.428444 0
M  V30 7370 O 683.863 -1.73393 -0.606669 0
M  V30 7371 C 683.925 -2.25033 2.80357 0
M  V30 7372 C 683.589 -1.76433 4.21569 0
M  V30 7373 C 684.586 -1.2427 5.0483 0
M  V30 7374 C 682.271 -1.82746 4.67877 0
M  V30 7375 C 684.265 -0.790657 6.32477 0
M  V30 7376 C 681.952 -1.37153 5.9551 0
M  V30 7377 C 682.95 -0.853997 6.7764 0
M  V30 7378 O 682.638 -0.404708 8.02881 0
M  V30 7379 H 682.37 -0.35297 0.576531 0
M  V30 7380 H 684.924 -0.464994 2.00067 0
M  V30 7381 H 683.154 -2.97641 2.46874 0
M  V30 7382 H 684.843 -2.86718 2.87311 0
M  V30 7383 H 685.609 -1.18752 4.70237 0
M  V30 7384 H 681.488 -2.21971 4.04042 0
M  V30 7385 H 685.032 -0.386024 6.96531 0
M  V30 7386 H 680.929 -1.42356 6.29607 0
M  V30 7387 H 681.697 -0.526459 8.16805 0
M  V30 7388 N 684.36 -1.4356 -0.65026 0
M  V30 7389 C 685.637 -1.35811 -1.40765 0
M  V30 7390 C 686.017 -0.00736379 -2.11099 0
M  V30 7391 O 685.365 1.00932 -2.05 0
M  V30 7392 C 685.575 -2.54332 -2.3899 0
M  V30 7393 C 686.923 -2.97551 -3.02901 0
M  V30 7394 O 687.947 -2.544 -2.49317 0
M  V30 7395 O 686.806 -3.72311 -4.00059 0
M  V30 7396 H 683.9 -0.536861 -0.629054 0
M  V30 7397 H 686.446 -1.55615 -0.676919 0
M  V30 7398 H 685.218 -3.44274 -1.85986 0
M  V30 7399 H 684.841 -2.36643 -3.19509 0
M  V30 7400 N 685.838 0.888903 -1.30139 0
M  V30 7401 C 687.254 1.17153 -1.08385 0
M  V30 7402 C 687.454 2.0088 0.157925 0
M  V30 7403 O 686.51 2.37668 0.852652 0
M  V30 7404 C 687.823 1.882 -2.34523 0
M  V30 7405 C 689.371 2.00981 -2.39949 0
M  V30 7406 C 689.846 2.75441 -3.65918 0
M  V30 7407 N 691.337 2.82989 -3.66704 0
M  V30 7408 C 692.072 3.41167 -4.60861 0
M  V30 7409 N 691.568 4.00425 -5.6536 0
M  V30 7410 N 693.361 3.38944 -4.48412 0
M  V30 7411 H 685.512 0.33053 -2.09812 0
M  V30 7412 H 687.775 0.208964 -0.924683 0
M  V30 7413 H 687.481 1.34119 -3.25123 0
M  V30 7414 H 687.355 2.88609 -2.42868 0
M  V30 7415 H 689.742 2.54234 -1.4983 0
M  V30 7416 H 689.823 0.996725 -2.35582 0
M  V30 7417 H 689.467 2.22861 -4.56394 0
M  V30 7418 H 689.397 3.77118 -3.67546 0
M  V30 7419 H 691.888 2.40912 -2.91153 0
M  V30 7420 H 692.201 4.42871 -6.33313 0
M  V30 7421 H 690.546 3.98856 -5.69157 0
M  V30 7422 H 693.737 2.91875 -3.6596 0
M  V30 7423 H 693.91 3.83989 -5.21974 0
M  V30 7424 N 687.317 1.12792 1.10072 0
M  V30 7425 C 688.247 0.821688 2.18565 0
M  V30 7426 C 689.228 -0.21612 1.68721 0
M  V30 7427 O 690.413 -0.0764932 1.94049 0
M  V30 7428 C 687.543 0.279624 3.46172 0
M  V30 7429 C 686.497 1.25092 4.09312 0
M  V30 7430 C 685.823 0.568916 5.31665 0
M  V30 7431 C 687.123 2.60699 4.52585 0
M  V30 7432 H 688.817 1.72888 2.44438 0
M  V30 7433 H 686.363 0.832702 1.17482 0
M  V30 7434 H 688.316 0.053099 4.21367 0
M  V30 7435 H 687.04 -0.662929 3.19801 0
M  V30 7436 H 685.699 1.46332 3.36129 0
M  V30 7437 H 685.347 -0.378898 5.01571 0
M  V30 7438 H 685.047 1.21687 5.74862 0
M  V30 7439 H 686.571 0.351517 6.09587 0
M  V30 7440 H 687.985 2.43465 5.19035 0
M  V30 7441 H 686.382 3.21608 5.06644 0
M  V30 7442 H 687.452 3.1886 3.65317 0
M  V30 7443 N 688.795 -1.27931 0.920396 0
M  V30 7444 C 690.025 -1.98516 0.572256 0
M  V30 7445 C 690.433 -1.68912 -0.852375 0
M  V30 7446 O 689.776 -0.94203 -1.57707 0
M  V30 7447 C 689.838 -3.5243 0.709485 0
M  V30 7448 C 689.502 -4.0564 2.10489 0
M  V30 7449 C 690.499 -4.1897 3.07831 0
M  V30 7450 C 688.184 -4.40168 2.41986 0
M  V30 7451 C 690.178 -4.66093 4.34783 0
M  V30 7452 C 687.865 -4.86983 3.69176 0
M  V30 7453 C 688.863 -4.99903 4.65388 0
M  V30 7454 O 688.551 -5.45694 5.90316 0
M  V30 7455 H 688.283 -0.64047 0.216274 0
M  V30 7456 H 690.837 -1.6393 1.23758 0
M  V30 7457 H 689.067 -3.86698 -0.0129263 0
M  V30 7458 H 690.756 -4.04233 0.367474 0
M  V30 7459 H 691.522 -3.92562 2.84816 0
M  V30 7460 H 687.401 -4.29358 1.67846 0
M  V30 7461 H 690.945 -4.76092 5.09884 0
M  V30 7462 H 686.842 -5.12832 3.92012 0
M  V30 7463 H 687.61 -5.63965 5.932 0
M  V30 7464 N 690.273 -0.685099 -1.4193 0
M  V30 7465 C 691.183 -0.013404 -2.34596 0
M  V30 7466 C 692.199 0.777589 -1.55658 0
M  V30 7467 O 693.375 0.717553 -1.88184 0
M  V30 7468 C 690.44 0.919031 -3.34297 0
M  V30 7469 C 689.501 0.121417 -4.29128 0
M  V30 7470 C 688.734 1.00944 -5.24067 0
M  V30 7471 O 688.957 2.24898 -5.24192 0
M  V30 7472 O 687.891 0.464724 -6.00103 0
M  V30 7473 H 691.717 -0.776978 -2.93593 0
M  V30 7474 H 689.302 -0.445379 -1.42607 0
M  V30 7475 H 691.184 1.45402 -3.9552 0
M  V30 7476 H 689.859 1.66228 -2.77759 0
M  V30 7477 H 688.766 -0.45792 -3.71287 0
M  V30 7478 H 690.099 -0.582937 -4.88736 0
M  V30 7479 N 691.751 1.51645 -0.429126 0
M  V30 7480 C 692.661 2.31288 0.392809 0
M  V30 7481 C 693.677 1.39852 1.03525 0
M  V30 7482 O 694.853 1.72926 1.03241 0
M  V30 7483 C 691.918 3.13347 1.48372 0
M  V30 7484 C 690.979 4.20551 0.862268 0
M  V30 7485 C 690.212 4.98688 1.9012 0
M  V30 7486 O 690.435 4.77359 3.12225 0
M  V30 7487 O 689.369 5.83005 1.4963 0
M  V30 7488 H 693.195 3.02609 -0.257138 0
M  V30 7489 H 690.78 1.48163 -0.191851 0
M  V30 7490 H 692.662 3.64387 2.1166 0
M  V30 7491 H 691.337 2.44799 2.1179 0
M  V30 7492 H 690.244 3.73609 0.191568 0
M  V30 7493 H 691.577 4.91449 0.271704 0
M  V30 7494 N 693.229 0.160201 1.56784 0
M  V30 7495 C 694.459 -0.493449 2.00621 0
M  V30 7496 C 694.867 -1.5809 1.03943 0
M  V30 7497 O 694.21 -1.83675 0.0305343 0
M  V30 7498 C 694.272 -1.14169 3.4089 0
M  V30 7499 C 693.936 -0.197243 4.56574 0
M  V30 7500 C 694.933 0.580174 5.16653 0
M  V30 7501 C 692.618 -0.0963038 5.02208 0
M  V30 7502 C 694.612 1.44584 6.20785 0
M  V30 7503 C 692.299 0.772959 6.06192 0
M  V30 7504 C 693.297 1.54263 6.65351 0
M  V30 7505 O 692.985 2.39738 7.67321 0
M  V30 7506 H 692.717 -0.131764 0.663034 0
M  V30 7507 H 695.271 0.255728 2.03802 0
M  V30 7508 H 693.501 -1.93877 3.34587 0
M  V30 7509 H 695.19 -1.69641 3.6875 0
M  V30 7510 H 695.956 0.5123 4.82287 0
M  V30 7511 H 691.835 -0.685143 4.5588 0
M  V30 7512 H 695.379 2.04706 6.66889 0
M  V30 7513 H 691.276 0.842077 6.39984 0
M  V30 7514 H 692.044 2.33131 7.84597 0
M  V30 7515 N 694.707 -1.5719 -0.113559 0
M  V30 7516 C 695.935 -1.89328 -0.834422 0
M  V30 7517 C 696.35 -0.752018 -1.73177 0
M  V30 7518 O 695.707 0.276912 -1.80387 0
M  V30 7519 C 695.758 -3.20962 -1.66329 0
M  V30 7520 O 695.479 -4.30695 -0.802069 0
M  V30 7521 C 696.98 -3.6684 -2.48884 0
M  V30 7522 H 694.2 -0.626769 -0.239587 0
M  V30 7523 H 696.744 -2.04273 -0.0963195 0
M  V30 7524 H 694.899 -3.0767 -2.35409 0
M  V30 7525 H 695.313 -5.06175 -1.37431 0
M  V30 7526 H 696.787 -4.61692 -3.02563 0
M  V30 7527 H 697.264 -2.93765 -3.26495 0
M  V30 7528 H 697.87 -3.82938 -1.85036 0
M  V30 7529 N 696.185 0.383891 -1.52853 0
M  V30 7530 C 697.601 0.724316 -1.42218 0
M  V30 7531 C 697.801 1.93943 -0.546654 0
M  V30 7532 O 696.857 2.5249 -0.0220562 0
M  V30 7533 C 698.17 0.954635 -2.85144 0
M  V30 7534 C 699.718 1.05579 -2.94656 0
M  V30 7535 C 700.193 1.3187 -4.38605 0
M  V30 7536 N 701.684 1.38681 -4.41952 0
M  V30 7537 C 702.419 1.60699 -5.50421 0
M  V30 7538 N 701.915 1.80154 -6.68967 0
M  V30 7539 N 703.708 1.6292 -5.37972 0
M  V30 7540 H 695.859 -0.4156 -2.08294 0
M  V30 7541 H 698.122 -0.123776 -0.939885 0
M  V30 7542 H 697.828 0.133829 -3.51445 0
M  V30 7543 H 697.702 1.86788 -3.27704 0
M  V30 7544 H 700.089 1.86716 -2.2852 0
M  V30 7545 H 700.17 0.120338 -2.55517 0
M  V30 7546 H 699.814 0.512416 -5.05309 0
M  V30 7547 H 699.744 2.26708 -4.75301 0
M  V30 7548 H 702.235 1.25334 -3.56511 0
M  V30 7549 H 702.548 1.96476 -7.47407 0
M  V30 7550 H 700.893 1.77368 -6.71986 0
M  V30 7551 H 704.084 1.47276 -4.44328 0
M  V30 7552 H 704.257 1.79739 -6.22574 0
M  V30 7553 N 697.663 1.43903 0.642637 0
M  V30 7554 C 698.891 1.4954 1.42988 0
M  V30 7555 C 699.306 0.116588 1.8844 0
M  V30 7556 O 698.663 -0.875285 1.60141 0
M  V30 7557 C 698.714 2.45031 2.65785 0
M  V30 7558 O 698.435 3.77551 2.22232 0
M  V30 7559 C 699.936 2.60017 3.59035 0
M  V30 7560 H 697.156 0.507544 0.438907 0
M  V30 7561 H 699.7 1.88752 0.786942 0
M  V30 7562 H 697.855 2.08985 3.26196 0
M  V30 7563 H 698.269 4.29001 3.01759 0
M  V30 7564 H 699.743 3.30887 4.41835 0
M  V30 7565 H 700.22 1.64861 4.07084 0
M  V30 7566 H 700.826 2.96918 3.045 0
M  V30 7567 N 699.141 -0.881989 1.30609 0
M  V30 7568 C 700.366 -1.67236 1.22665 0
M  V30 7569 C 700.791 -1.8696 -0.206777 0
M  V30 7570 O 700.149 -1.4027 -1.14865 0
M  V30 7571 C 700.197 -3.02446 1.96363 0
M  V30 7572 O 699.301 -3.91614 1.29276 0
M  V30 7573 H 698.642 -0.510902 0.424117 0
M  V30 7574 H 701.172 -1.10055 1.72479 0
M  V30 7575 H 701.182 -3.52468 2.055 0
M  V30 7576 H 699.857 -2.8741 3.00613 0
M  V30 7577 H 698.434 -3.50055 1.28514 0
M  V30 7578 N 700.619 -1.13374 -1.09472 0
M  V30 7579 C 701.551 -0.768466 -2.15933 0
M  V30 7580 C 702.564 0.209585 -1.61445 0
M  V30 7581 O 703.753 -0.010539 -1.78497 0
M  V30 7582 C 700.853 -0.118266 -3.38694 0
M  V30 7583 C 700.026 -1.12829 -4.22597 0
M  V30 7584 C 699.085 -0.503875 -5.23782 0
M  V30 7585 O 698.111 -1.16374 -5.57177 0
M  V30 7586 N 699.313 0.724288 -5.75964 0
M  V30 7587 H 702.078 -1.68457 -2.47876 0
M  V30 7588 H 699.639 -1.02668 -1.25183 0
M  V30 7589 H 701.631 0.311698 -4.03498 0
M  V30 7590 H 700.201 0.700769 -3.04644 0
M  V30 7591 H 699.421 -1.73556 -3.53938 0
M  V30 7592 H 700.709 -1.81095 -4.75481 0
M  V30 7593 H 700.107 1.27918 -5.51048 0
M  V30 7594 H 698.664 1.09692 -6.42504 0
M  V30 7595 N 702.098 1.27442 -0.927168 0
M  V30 7596 C 703.008 2.30599 -0.431448 0
M  V30 7597 C 704.024 1.67028 0.48761 0
M  V30 7598 O 705.2 1.97962 0.370546 0
M  V30 7599 C 702.265 3.45327 0.308292 0
M  V30 7600 C 701.326 4.24418 -0.645615 0
M  V30 7601 C 700.559 5.33667 0.0589164 0
M  V30 7602 O 700.782 5.5589 1.27838 0
M  V30 7603 O 699.716 5.98774 -0.612638 0
M  V30 7604 H 703.542 2.75036 -1.28797 0
M  V30 7605 H 701.127 1.32382 -0.692495 0
M  V30 7606 H 703.009 4.15107 0.725555 0
M  V30 7607 H 701.684 3.02945 1.14043 0
M  V30 7608 H 700.591 3.57174 -1.11255 0
M  V30 7609 H 701.924 4.70512 -1.44496 0
M  V30 7610 N 703.576 0.692616 1.41565 0
M  V30 7611 C 704.825 0.219452 2.00503 0
M  V30 7612 C 705.138 -1.18683 1.55479 0
M  V30 7613 O 706.344 -1.75731 2.06956 0
M  V30 7614 C 704.8 0.341451 3.58277 0
M  V30 7615 C 704.408 1.75291 4.12283 0
M  V30 7616 C 706.152 -0.0720899 4.24439 0
M  V30 7617 C 704.059 1.82673 5.62481 0
M  V30 7618 H 702.989 0.0782874 0.749925 0
M  V30 7619 H 705.64 0.860386 1.62079 0
M  V30 7620 H 704.022 -0.367683 3.94289 0
M  V30 7621 H 705.196 2.49057 3.87695 0
M  V30 7622 H 703.511 2.11587 3.58636 0
M  V30 7623 H 706.108 -0.0373385 5.34687 0
M  V30 7624 H 706.451 -1.11034 4.0122 0
M  V30 7625 H 706.984 0.586663 3.9345 0
M  V30 7626 H 703.723 2.84539 5.90523 0
M  V30 7627 H 703.243 1.13288 5.89004 0
M  V30 7628 H 704.922 1.58827 6.27203 0
M  V30 7629 N 705.054 -1.51416 0.437162 0
M  V30 7630 C 705.986 -2.255 -0.410171 0
M  V30 7631 C 706.999 -1.29511 -0.986444 0
M  V30 7632 O 708.188 -1.55266 -0.880614 0
M  V30 7633 C 705.288 -2.99511 -1.58575 0
M  V30 7634 C 704.461 -4.22595 -1.12839 0
M  V30 7635 C 703.52 -4.79187 -2.17407 0
M  V30 7636 O 702.546 -5.4103 -1.76849 0
M  V30 7637 N 703.748 -4.63204 -3.49889 0
M  V30 7638 H 706.513 -2.98856 0.224783 0
M  V30 7639 H 704.074 -1.59699 0.266041 0
M  V30 7640 H 706.066 -3.34258 -2.28152 0
M  V30 7641 H 704.636 -2.29167 -2.12606 0
M  V30 7642 H 703.856 -3.93344 -0.259695 0
M  V30 7643 H 705.144 -5.02468 -0.800196 0
M  V30 7644 H 704.542 -4.13945 -3.85573 0
M  V30 7645 H 703.099 -5.02313 -4.15361 0
M  V30 7646 N 706.532 -0.168513 -1.56696 0
M  V30 7647 C 707.465 0.801477 -2.13662 0
M  V30 7648 C 708.443 1.22786 -1.06594 0
M  V30 7649 O 709.627 1.32014 -1.34554 0
M  V30 7650 C 706.754 2.07896 -2.6739 0
M  V30 7651 C 705.8 1.79681 -3.86803 0
M  V30 7652 S 706.633 0.968556 -5.26668 0
M  V30 7653 C 707.789 2.25676 -5.83799 0
M  V30 7654 H 708.022 0.317121 -2.95604 0
M  V30 7655 H 705.555 0.0461132 -1.54331 0
M  V30 7656 H 707.513 2.81272 -2.98992 0
M  V30 7657 H 706.174 2.53445 -1.85539 0
M  V30 7658 H 705.367 2.74461 -4.22714 0
M  V30 7659 H 704.969 1.14402 -3.56073 0
M  V30 7660 H 707.261 3.2116 -5.96542 0
M  V30 7661 H 708.204 1.94238 -6.80939 0
M  V30 7662 H 708.612 2.37308 -5.12197 0
M  V30 7663 N 708.01 1.57248 0.105221 0
M  V30 7664 C 708.957 2.01338 1.12835 0
M  V30 7665 C 709.927 0.887897 1.40377 0
M  V30 7666 O 711.112 1.15315 1.5201 0
M  V30 7667 C 708.252 2.43432 2.44611 0
M  V30 7668 C 707.365 3.69457 2.23888 0
M  V30 7669 C 706.5 4.00473 3.48991 0
M  V30 7670 C 705.539 5.19638 3.23485 0
M  V30 7671 N 704.676 5.46457 4.40828 0
M  V30 7672 H 709.516 2.88527 0.745386 0
M  V30 7673 H 707.053 1.42714 0.356535 0
M  V30 7674 H 709.011 2.65879 3.21503 0
M  V30 7675 H 707.641 1.59266 2.80774 0
M  V30 7676 H 706.693 3.54545 1.37847 0
M  V30 7677 H 708.005 4.56497 2.01026 0
M  V30 7678 H 707.159 4.23642 4.34295 0
M  V30 7679 H 705.898 3.11935 3.74897 0
M  V30 7680 H 704.903 4.96299 2.36574 0
M  V30 7681 H 706.128 6.09766 2.98935 0
M  V30 7682 H 704.074 4.60876 4.66829 0
M  V30 7683 H 703.991 6.27849 4.2112 0
M  V30 7684 H 705.259 5.74155 5.27225 0
M  V30 7685 N 709.488 -0.375779 1.53054 0
M  V30 7686 C 710.904 -0.716764 1.426 0
M  V30 7687 C 711.104 -1.93651 0.556931 0
M  V30 7688 O 710.16 -2.52475 0.0354461 0
M  V30 7689 C 711.473 -0.939499 2.85646 0
M  V30 7690 C 713.021 -1.04015 2.95212 0
M  V30 7691 C 713.496 -1.29543 4.39298 0
M  V30 7692 N 714.987 -1.36335 4.42682 0
M  V30 7693 C 715.722 -1.57778 5.51266 0
M  V30 7694 N 715.218 -1.76604 6.69913 0
M  V30 7695 N 717.011 -1.60065 5.38828 0
M  V30 7696 H 709.162 0.42664 2.08071 0
M  V30 7697 H 711.425 0.128758 0.939215 0
M  V30 7698 H 711.131 -0.115189 3.51511 0
M  V30 7699 H 711.005 -1.85048 3.2869 0
M  V30 7700 H 713.392 -1.85501 2.29507 0
M  V30 7701 H 713.473 -0.106785 2.55577 0
M  V30 7702 H 713.117 -0.485611 5.05573 0
M  V30 7703 H 713.047 -2.24184 4.76497 0
M  V30 7704 H 715.538 -1.23441 3.5717 0
M  V30 7705 H 715.851 -1.9251 7.48438 0
M  V30 7706 H 714.196 -1.73802 6.72917 0
M  V30 7707 H 717.387 -1.44917 4.45103 0
M  V30 7708 H 717.56 -1.76435 6.23518 0
M  V30 7709 N 710.966 -1.44241 -0.634997 0
M  V30 7710 C 712.194 -1.50296 -1.42193 0
M  V30 7711 C 712.609 -0.12658 -1.88375 0
M  V30 7712 O 711.966 0.86678 -1.60603 0
M  V30 7713 C 712.017 -2.46437 -2.64482 0
M  V30 7714 O 711.738 -3.78724 -2.20226 0
M  V30 7715 C 713.239 -2.61918 -3.57651 0
M  V30 7716 H 710.459 -0.509865 -0.43621 0
M  V30 7717 H 713.003 -1.89167 -0.776921 0
M  V30 7718 H 711.158 -2.10712 -3.25083 0
M  V30 7719 H 711.572 -4.30595 -2.9948 0
M  V30 7720 H 713.046 -3.33225 -4.40074 0
M  V30 7721 H 713.523 -1.67017 -4.06204 0
M  V30 7722 H 714.129 -2.98528 -3.02921 0
M  V30 7723 N 712.444 0.87505 -1.31075 0
M  V30 7724 C 713.407 1.96333 -1.18263 0
M  V30 7725 C 714.407 1.60416 -0.111106 0
M  V30 7726 O 715.597 1.7044 -0.359987 0
M  V30 7727 C 712.729 3.31036 -0.81414 0
M  V30 7728 H 713.922 2.09125 -2.14958 0
M  V30 7729 H 711.475 1.06271 -1.14614 0
M  V30 7730 H 712.21 3.23944 0.151875 0
M  V30 7731 H 711.995 3.58476 -1.58862 0
M  V30 7732 H 713.485 4.10842 -0.748249 0
M  V30 7733 N 713.922 1.13953 1.08869 0
M  V30 7734 C 715.171 0.899431 1.80536 0
M  V30 7735 C 715.484 -0.575781 1.86933 0
M  V30 7736 O 716.69 -0.932988 2.54966 0
M  V30 7737 C 715.146 1.55963 3.24351 0
M  V30 7738 C 714.754 3.07077 3.26202 0
M  V30 7739 C 716.498 1.40046 4.00733 0
M  V30 7740 C 714.405 3.65955 4.64576 0
M  V30 7741 H 713.335 0.332849 0.676556 0
M  V30 7742 H 715.986 1.3679 1.22314 0
M  V30 7743 H 714.368 1.01883 3.82669 0
M  V30 7744 H 715.542 3.67785 2.77617 0
M  V30 7745 H 713.857 3.22576 2.63312 0
M  V30 7746 H 716.454 1.81441 5.02974 0
M  V30 7747 H 716.797 0.345993 4.1486 0
M  V30 7748 H 717.33 1.91137 3.48872 0
M  V30 7749 H 714.069 4.71234 4.55652 0
M  V30 7750 H 713.589 3.10027 5.13462 0
M  V30 7751 H 715.268 3.65968 5.33551 0
M  V30 7752 N 715.4 -1.26948 0.933913 0
M  V30 7753 C 716.31 -2.30366 0.443671 0
M  V30 7754 C 717.326 -1.67284 -0.478745 0
M  V30 7755 O 718.502 -1.98156 -0.360043 0
M  V30 7756 C 715.567 -3.45485 -0.289974 0
M  V30 7757 C 714.628 -4.24069 0.668114 0
M  V30 7758 C 713.861 -5.33691 -0.0306138 0
M  V30 7759 O 714.084 -5.5656 -1.24888 0
M  V30 7760 O 713.018 -5.98441 0.644384 0
M  V30 7761 H 716.844 -2.74349 1.30254 0
M  V30 7762 H 714.429 -1.32012 0.699506 0
M  V30 7763 H 716.311 -4.15486 -0.70353 0
M  V30 7764 H 714.986 -3.03546 -1.12435 0
M  V30 7765 H 713.893 -3.56579 1.13147 0
M  V30 7766 H 715.226 -4.69739 1.46989 0
M  V30 7767 N 716.879 -0.700114 -1.41195 0
M  V30 7768 C 717.842 -0.0465706 -2.29153 0
M  V30 7769 C 718.842 0.703302 -1.44604 0
M  V30 7770 O 720.032 0.537513 -1.657 0
M  V30 7771 C 717.164 0.944324 -3.2756 0
M  V30 7772 H 718.357 -0.821064 -2.88442 0
M  V30 7773 H 715.91 -0.463869 -1.49258 0
M  V30 7774 H 716.645 1.74642 -2.73259 0
M  V30 7775 H 716.43 0.409701 -3.89954 0
M  V30 7776 H 717.92 1.39925 -3.9346 0
M  V30 7777 N 718.357 1.51182 -0.445186 0
M  V30 7778 C 719.604 2.02152 0.118645 0
M  V30 7779 C 719.932 1.32888 1.42025 0
M  V30 7780 O 719.187 0.435041 1.90803 0
M  V30 7781 C 719.486 3.55408 0.376797 0
M  V30 7782 C 719.152 4.43008 -0.839945 0
M  V30 7783 C 717.814 4.66669 -1.17361 0
M  V30 7784 C 720.166 4.9435 -1.65127 0
M  V30 7785 C 717.494 5.38919 -2.31913 0
M  V30 7786 C 719.846 5.67857 -2.78786 0
M  V30 7787 C 718.51 5.89779 -3.12597 0
M  V30 7788 H 717.78 0.739727 0.0434152 0
M  V30 7789 H 720.427 1.82055 -0.593984 0
M  V30 7790 H 718.732 3.73879 1.1714 0
M  V30 7791 H 720.429 3.92388 0.826602 0
M  V30 7792 H 717.019 4.24793 -0.569958 0
M  V30 7793 H 721.203 4.75947 -1.4067 0
M  V30 7794 H 716.459 5.54105 -2.58413 0
M  V30 7795 H 720.633 6.06628 -3.42017 0
M  V30 7796 H 718.26 6.45542 -4.01471 0
M  V30 7797 N 719.835 0.176821 1.56605 0
M  V30 7798 C 720.783 -0.768159 2.1955 0
M  V30 7799 C 721.777 -1.23343 1.16116 0
M  V30 7800 O 722.983 -1.19844 1.34303 0
M  V30 7801 H 719.358 -0.266013 0.703378 0
M  V30 7802 H 721.329 -0.213374 2.97636 0
M  V30 7803 C 720.078 -1.98492 2.85475 0
M  V30 7804 H 719.401 -1.63595 3.64797 0
M  V30 7805 H 720.841 -2.62489 3.3298 0
M  V30 7806 C 719.3 -2.81207 1.85538 0
M  V30 7807 O 719.83 -3.7854 1.34427 0
M  V30 7808 N 718.036 -2.46331 1.54173 0
M  V30 7809 H 717.583 -1.67241 1.95929 0
M  V30 7810 H 717.541 -3.01961 0.875595 0
M  V30 7811 N 721.313 -1.57302 -0.09688 0
M  V30 7812 C 722.223 -2.05258 -1.13606 0
M  V30 7813 C 723.239 -0.977137 -1.43972 0
M  V30 7814 O 724.415 -1.29018 -1.54649 0
M  V30 7815 C 721.48 -2.46593 -2.43706 0
M  V30 7816 C 720.541 -3.68322 -2.20538 0
M  V30 7817 C 719.774 -4.07676 -3.44435 0
M  V30 7818 O 719.997 -3.47141 -4.52603 0
M  V30 7819 O 718.931 -5.00641 -3.34129 0
M  V30 7820 H 722.757 -2.94069 -0.758752 0
M  V30 7821 H 720.342 -1.46164 -0.309263 0
M  V30 7822 H 722.224 -2.73814 -3.20318 0
M  V30 7823 H 720.899 -1.6092 -2.80867 0
M  V30 7824 H 719.806 -3.4622 -1.41713 0
M  V30 7825 H 721.139 -4.54769 -1.88271 0
M  V30 7826 N 722.791 0.367657 -1.53252 0
M  V30 7827 C 724.019 1.13119 -1.73239 0
M  V30 7828 C 724.434 1.831 -0.460404 0
M  V30 7829 O 723.791 1.73483 0.566557 0
M  V30 7830 C 723.842 2.16308 -2.89643 0
M  V30 7831 O 723.563 1.49175 -4.1192 0
M  V30 7832 C 725.064 3.05224 -3.21486 0
M  V30 7833 H 722.284 0.338318 -0.579467 0
M  V30 7834 H 724.828 0.42721 -1.99988 0
M  V30 7835 H 722.983 2.82307 -2.65295 0
M  V30 7836 H 723.397 2.17912 -4.7709 0
M  V30 7837 H 724.871 3.73613 -4.06346 0
M  V30 7838 H 725.348 3.69919 -2.36763 0
M  V30 7839 H 725.954 2.44843 -3.47753 0
M  V30 7840 N 724.269 1.44576 0.627338 0
M  V30 7841 C 725.518 1.46837 1.38281 0
M  V30 7842 C 725.831 0.10635 1.95311 0
M  V30 7843 O 727.037 0.00651084 2.71499 0
M  V30 7844 C 725.493 2.58527 2.50384 0
M  V30 7845 C 725.101 4.00953 1.99851 0
M  V30 7846 C 726.845 2.70013 3.27557 0
M  V30 7847 C 724.752 5.0406 3.09318 0
M  V30 7848 H 723.682 0.546319 0.519664 0
M  V30 7849 H 726.333 1.70654 0.674497 0
M  V30 7850 H 724.715 2.27957 3.23808 0
M  V30 7851 H 725.889 4.41108 1.33267 0
M  V30 7852 H 724.204 3.93743 1.35482 0
M  V30 7853 H 726.801 3.44217 4.09168 0
M  V30 7854 H 727.144 1.75961 3.77284 0
M  V30 7855 H 727.677 3.00011 2.61224 0
M  V30 7856 H 724.416 5.99753 2.6453 0
M  V30 7857 H 723.936 4.68493 3.74532 0
M  V30 7858 H 725.615 5.2793 3.74031 0
M  V30 7859 N 725.747 -0.868086 1.31537 0
M  V30 7860 C 726.694 -1.97548 1.19346 0
M  V30 7861 C 727.664 -1.65913 0.0787922 0
M  V30 7862 O 728.849 -1.89129 0.251985 0
M  V30 7863 C 725.989 -3.32922 0.908692 0
M  V30 7864 C 725.102 -3.77141 2.10687 0
M  V30 7865 C 724.237 -5.01241 1.75873 0
M  V30 7866 C 723.276 -5.37914 2.92088 0
M  V30 7867 N 722.413 -6.53192 2.57457 0
M  V30 7868 H 727.253 -2.07307 2.14074 0
M  V30 7869 H 724.79 -1.01483 1.06487 0
M  V30 7870 H 726.748 -4.10867 0.724138 0
M  V30 7871 H 725.378 -3.228 -0.0017611 0
M  V30 7872 H 724.43 -2.94961 2.40213 0
M  V30 7873 H 725.742 -4.00248 2.97663 0
M  V30 7874 H 724.896 -5.86858 1.53891 0
M  V30 7875 H 723.635 -4.80041 0.86091 0
M  V30 7876 H 722.64 -4.50814 3.14717 0
M  V30 7877 H 723.865 -5.61077 3.82582 0
M  V30 7878 H 721.811 -6.33536 1.702 0
M  V30 7879 H 721.728 -6.76252 3.37963 0
M  V30 7880 H 722.996 -7.41997 2.38873 0
M  V30 7881 N 727.225 -1.14528 -1.08264 0
M  V30 7882 C 728.474 -0.908992 -1.80056 0
M  V30 7883 C 728.787 0.565859 -1.87236 0
M  V30 7884 O 729.993 0.919454 -2.55457 0
M  V30 7885 C 728.449 -1.57681 -3.23519 0
M  V30 7886 C 728.057 -3.08803 -3.24569 0
M  V30 7887 C 729.801 -1.4217 -3.99985 0
M  V30 7888 C 727.708 -3.68414 -4.62629 0
M  V30 7889 H 726.638 -0.336432 -0.674781 0
M  V30 7890 H 729.289 -1.37437 -1.21587 0
M  V30 7891 H 727.671 -1.03911 -3.82124 0
M  V30 7892 H 728.845 -3.69252 -2.75663 0
M  V30 7893 H 727.16 -3.23968 -2.61598 0
M  V30 7894 H 729.757 -1.84106 -5.02005 0
M  V30 7895 H 730.1 -0.367989 -4.1467 0
M  V30 7896 H 730.633 -1.92984 -3.47853 0
M  V30 7897 H 727.372 -4.73644 -4.53147 0
M  V30 7898 H 726.892 -3.12746 -5.11811 0
M  V30 7899 H 728.571 -3.68793 -5.31602 0
M  V30 7900 N 728.703 1.26451 -0.940633 0
M  V30 7901 C 729.95 1.93778 -0.587909 0
M  V30 7902 C 730.278 1.73811 0.872935 0
M  V30 7903 O 729.533 1.06816 1.63978 0
M  V30 7904 C 729.832 3.46503 -0.875794 0
M  V30 7905 C 729.498 3.86609 -2.32043 0
M  V30 7906 C 728.16 3.97269 -2.71534 0
M  V30 7907 C 730.512 4.0672 -3.25927 0
M  V30 7908 C 727.84 4.25436 -4.04006 0
M  V30 7909 C 730.192 4.36375 -4.57995 0
M  V30 7910 C 728.856 4.45249 -4.97302 0
M  V30 7911 H 728.126 0.709084 -0.215131 0
M  V30 7912 H 730.773 1.50272 -1.18704 0
M  V30 7913 H 729.078 3.91319 -0.194124 0
M  V30 7914 H 730.775 3.96759 -0.581665 0
M  V30 7915 H 727.365 3.78858 -2.00411 0
M  V30 7916 H 731.549 3.97912 -2.96614 0
M  V30 7917 H 726.805 4.30519 -4.34124 0
M  V30 7918 H 730.979 4.50882 -5.30734 0
M  V30 7919 H 728.606 4.66829 -5.99979 0
M  V30 7920 N 730.181 0.707592 1.40822 0
M  V30 7921 C 731.091 0.0507246 2.34545 0
M  V30 7922 C 732.107 -0.752727 1.56876 0
M  V30 7923 O 733.283 -0.687524 1.89302 0
M  V30 7924 C 730.348 -0.865731 3.35717 0
M  V30 7925 C 729.409 -0.0531313 4.29267 0
M  V30 7926 C 728.642 -0.925939 5.25606 0
M  V30 7927 O 728.865 -2.16531 5.27703 0
M  V30 7928 O 727.799 -0.369194 6.00767 0
M  V30 7929 H 731.625 0.823587 2.9232 0
M  V30 7930 H 729.21 0.46801 1.4188 0
M  V30 7931 H 731.092 -1.39091 3.97783 0
M  V30 7932 H 729.767 -1.61788 2.80368 0
M  V30 7933 H 728.674 0.516931 3.70511 0
M  V30 7934 H 730.007 0.660617 4.87747 0
M  V30 7935 N 731.66 -1.50943 0.453197 0
M  V30 7936 C 732.57 -2.31884 -0.355963 0
M  V30 7937 C 733.586 -1.41481 -1.01287 0
M  V30 7938 O 734.762 -1.74546 -1.00477 0
M  V30 7939 C 731.827 -3.15668 -1.43369 0
M  V30 7940 C 730.888 -4.2187 -0.795253 0
M  V30 7941 C 730.121 -5.0165 -1.82162 0
M  V30 7942 O 730.344 -4.82266 -3.04592 0
M  V30 7943 O 729.278 -5.85311 -1.40336 0
M  V30 7944 H 733.104 -3.02162 0.305248 0
M  V30 7945 H 730.689 -1.47839 0.215398 0
M  V30 7946 H 732.571 -3.67709 -2.05836 0
M  V30 7947 H 731.246 -2.48137 -2.07869 0
M  V30 7948 H 730.153 -3.73867 -0.132106 0
M  V30 7949 H 731.486 -4.9182 -0.193484 0
M  V30 7950 N 733.138 -0.185124 -1.56509 0
M  V30 7951 C 734.07 0.771401 -2.15829 0
M  V30 7952 C 735.083 1.18392 -1.11747 0
M  V30 7953 O 736.272 1.12137 -1.38879 0
M  V30 7954 C 733.372 2.05169 -2.69739 0
M  V30 7955 C 732.545 1.80056 -3.98621 0
M  V30 7956 C 731.604 2.92435 -4.37456 0
M  V30 7957 O 730.63 2.62473 -5.05071 0
M  V30 7958 N 731.832 4.20554 -4.00143 0
M  V30 7959 H 734.597 0.264184 -2.98533 0
M  V30 7960 H 732.158 -0.00281069 -1.619 0
M  V30 7961 H 734.15 2.7947 -2.92709 0
M  V30 7962 H 732.72 2.47041 -1.91545 0
M  V30 7963 H 731.94 0.895862 -3.83885 0
M  V30 7964 H 733.228 1.60662 -4.82768 0
M  V30 7965 H 732.626 4.47753 -3.45736 0
M  V30 7966 H 731.183 4.91514 -4.28085 0
M  V30 7967 N 734.616 1.57351 0.0885366 0
M  V30 7968 C 735.856 1.88248 0.796362 0
M  V30 7969 C 736.22 0.776915 1.75579 0
M  V30 7970 O 737.421 0.968485 2.50747 0
M  V30 7971 C 735.692 3.24385 1.50031 0
M  V30 7972 S 737.251 3.76991 2.24551 0
M  V30 7973 H 734.069 0.659697 0.265181 0
M  V30 7974 H 736.671 1.95428 0.0531843 0
M  V30 7975 H 735.375 4.02764 0.788 0
M  V30 7976 H 734.906 3.20361 2.28325 0
M  V30 7977 H 736.921 3.50933 3.508 0
M  V30 7978 N 736.094 -0.359525 1.53444 0
M  V30 7979 C 737.026 -1.46098 1.76602 0
M  V30 7980 C 738.039 -1.49395 0.646912 0
M  V30 7981 O 739.228 -1.52765 0.923307 0
M  V30 7982 C 736.328 -2.84836 1.83635 0
M  V30 7983 C 735.501 -3.05164 3.13358 0
M  V30 7984 C 734.56 -4.24051 3.11556 0
M  V30 7985 O 733.586 -4.18935 3.85334 0
M  V30 7986 N 734.788 -5.31775 2.328 0
M  V30 7987 H 737.553 -1.2661 2.71643 0
M  V30 7988 H 735.114 -0.549294 1.52297 0
M  V30 7989 H 737.106 -3.62516 1.799 0
M  V30 7990 H 735.676 -2.97542 0.958509 0
M  V30 7991 H 734.896 -2.15091 3.30348 0
M  V30 7992 H 736.184 -3.15619 3.99076 0
M  V30 7993 H 735.582 -5.38796 1.7238 0
M  V30 7994 H 734.139 -6.0801 2.34877 0
M  V30 7995 N 737.572 -1.44907 -0.619662 0
M  V30 7996 C 738.8 -1.51795 -1.40591 0
M  V30 7997 C 739.215 -0.146553 -1.8823 0
M  V30 7998 O 738.572 0.849698 -1.61513 0
M  V30 7999 C 738.623 -2.49229 -2.61853 0
M  V30 8000 O 738.344 -3.81039 -2.16197 0
M  V30 8001 C 739.845 -2.65696 -3.54853 0
M  V30 8002 H 737.065 -0.514463 -0.430777 0
M  V30 8003 H 739.609 -1.8998 -0.756813 0
M  V30 8004 H 737.764 -2.14149 -3.2283 0
M  V30 8005 H 738.178 -4.33747 -2.94896 0
M  V30 8006 H 739.652 -3.37874 -4.36515 0
M  V30 8007 H 740.129 -1.71316 -4.0441 0
M  V30 8008 H 740.735 -3.01724 -2.99737 0
M  V30 8009 N 739.05 0.861098 -1.31996 0
M  V30 8010 C 739.982 1.97551 -1.16216 0
M  V30 8011 C 740.995 1.625 -0.0988527 0
M  V30 8012 O 742.184 1.75091 -0.3472 0
M  V30 8013 C 739.284 3.30376 -0.755307 0
M  V30 8014 C 738.457 3.93711 -1.90552 0
M  V30 8015 C 737.516 5.04862 -1.48328 0
M  V30 8016 O 736.542 5.25204 -2.19431 0
M  V30 8017 N 737.744 5.79283 -0.375656 0
M  V30 8018 H 740.509 2.11632 -2.12208 0
M  V30 8019 H 738.07 1.03559 -1.24448 0
M  V30 8020 H 740.062 4.0213 -0.455364 0
M  V30 8021 H 738.632 3.12395 0.113269 0
M  V30 8022 H 737.852 3.14825 -2.37231 0
M  V30 8023 H 739.14 4.32762 -2.67571 0
M  V30 8024 H 738.538 5.65286 0.216284 0
M  V30 8025 H 737.095 6.5166 -0.135289 0
M  V30 8026 N 740.528 1.15101 1.07655 0
M  V30 8027 C 741.438 0.858869 2.18313 0
M  V30 8028 C 742.454 -0.163641 1.73229 0
M  V30 8029 O 743.63 0.00969541 2.01398 0
M  V30 8030 C 740.695 0.34893 3.4494 0
M  V30 8031 C 739.756 1.43495 4.04608 0
M  V30 8032 C 738.989 0.949253 5.2519 0
M  V30 8033 O 739.212 -0.20636 5.70027 0
M  V30 8034 O 738.146 1.73161 5.76454 0
M  V30 8035 H 741.972 1.78386 2.45788 0
M  V30 8036 H 739.557 0.929876 1.16934 0
M  V30 8037 H 741.439 0.070851 4.2134 0
M  V30 8038 H 740.114 -0.548237 3.19024 0
M  V30 8039 H 739.021 1.7666 3.29761 0
M  V30 8040 H 740.354 2.30692 4.3479 0
M  V30 8041 N 742.006 -1.2595 0.947325 0
M  V30 8042 C 743.422 -1.45737 0.650597 0
M  V30 8043 C 743.622 -1.85189 -0.794188 0
M  V30 8044 O 742.678 -1.97738 -1.57022 0
M  V30 8045 C 743.991 -2.53505 1.61728 0
M  V30 8046 C 745.539 -2.67351 1.62765 0
M  V30 8047 C 746.014 -3.78296 2.58179 0
M  V30 8048 N 747.505 -3.85696 2.56501 0
M  V30 8049 C 748.24 -4.71012 3.2701 0
M  V30 8050 N 747.736 -5.60669 4.06966 0
M  V30 8051 N 749.529 -4.64912 3.15932 0
M  V30 8052 H 741.68 -0.986327 1.8811 0
M  V30 8053 H 743.943 -0.494639 0.808725 0
M  V30 8054 H 743.649 -2.31357 2.6489 0
M  V30 8055 H 743.523 -3.51281 1.3741 0
M  V30 8056 H 745.91 -2.88869 0.603241 0
M  V30 8057 H 745.991 -1.69998 1.91139 0
M  V30 8058 H 745.635 -3.5753 3.60742 0
M  V30 8059 H 745.565 -4.75117 2.27093 0
M  V30 8060 H 748.056 -3.21601 1.98447 0
M  V30 8061 H 748.369 -6.22677 4.57704 0
M  V30 8062 H 746.714 -5.60402 4.11066 0
M  V30 8063 H 749.905 -3.93874 2.52945 0
M  V30 8064 H 750.078 -5.3118 3.71149 0
M  V30 8065 N 743.484 -0.715051 -1.40445 0
M  V30 8066 C 744.714 -0.263576 -2.04912 0
M  V30 8067 C 745.122 1.09943 -1.53978 0
M  V30 8068 O 744.465 1.70203 -0.691133 0
M  V30 8069 C 744.527 -0.165048 -3.59121 0
M  V30 8070 C 744.191 -1.46325 -4.32941 0
M  V30 8071 C 745.188 -2.40506 -4.60926 0
M  V30 8072 C 742.873 -1.72203 -4.7186 0
M  V30 8073 C 744.867 -3.58812 -5.26814 0
M  V30 8074 C 742.554 -2.9079 -5.3748 0
M  V30 8075 C 743.552 -3.83917 -5.64887 0
M  V30 8076 O 743.24 -5.00424 -6.29151 0
M  V30 8077 H 742.972 -0.116317 -0.665918 0
M  V30 8078 H 745.526 -0.973774 -1.8085 0
M  V30 8079 H 743.756 0.601088 -3.82 0
M  V30 8080 H 745.445 0.251794 -4.05118 0
M  V30 8081 H 746.211 -2.21778 -4.31323 0
M  V30 8082 H 742.09 -1.00571 -4.49896 0
M  V30 8083 H 745.634 -4.31517 -5.48123 0
M  V30 8084 H 741.531 -3.09428 -5.66502 0
M  V30 8085 H 742.299 -5.00494 -6.47648 0
M  V30 8086 N 744.962 1.50701 -0.461195 0
M  V30 8087 C 746.187 2.07171 0.0974773 0
M  V30 8088 C 746.612 1.32391 1.3362 0
M  V30 8089 O 745.97 0.368676 1.77512 0
M  V30 8090 C 746.018 3.58651 0.374409 0
M  V30 8091 O 745.122 3.85816 1.4567 0
M  V30 8092 H 744.463 0.663944 -0.00862047 0
M  V30 8093 H 746.993 1.94021 -0.649394 0
M  V30 8094 H 747.003 4.03295 0.617843 0
M  V30 8095 H 745.678 4.12498 -0.530829 0
M  V30 8096 H 744.255 3.53018 1.20136 0
M  V30 8097 N 746.441 0.193421 1.56409 0
M  V30 8098 C 747.388 -0.728124 2.19014 0
M  V30 8099 C 748.358 -1.21098 1.13686 0
M  V30 8100 O 749.543 -1.27517 1.4193 0
M  V30 8101 C 746.683 -1.94277 2.8522 0
M  V30 8102 C 745.796 -1.50143 4.05069 0
M  V30 8103 C 744.931 -2.67145 4.59137 0
M  V30 8104 C 743.97 -2.19609 5.71348 0
M  V30 8105 N 743.107 -3.29782 6.19829 0
M  V30 8106 H 747.947 -0.187499 2.9741 0
M  V30 8107 H 745.484 -0.0808064 1.46878 0
M  V30 8108 H 747.442 -2.65551 3.21774 0
M  V30 8109 H 746.072 -2.45673 2.09391 0
M  V30 8110 H 745.124 -0.684624 3.74189 0
M  V30 8111 H 746.436 -1.11266 4.86232 0
M  V30 8112 H 745.59 -3.46544 4.97988 0
M  V30 8113 H 744.329 -3.09295 3.77078 0
M  V30 8114 H 743.334 -1.38664 5.32027 0
M  V30 8115 H 744.559 -1.78492 6.55223 0
M  V30 8116 H 742.505 -3.71466 5.40693 0
M  V30 8117 H 742.422 -2.95069 6.96039 0
M  V30 8118 H 743.69 -4.094 6.63334 0
M  V30 8119 N 747.919 -1.57396 -0.0801906 0
M  V30 8120 C 748.829 -2.06451 -1.11423 0
M  V30 8121 C 749.845 -0.992352 -1.42928 0
M  V30 8122 O 751.021 -1.30651 -1.53272 0
M  V30 8123 C 748.086 -2.49164 -2.41077 0
M  V30 8124 C 747.147 -3.70641 -2.16619 0
M  V30 8125 C 746.38 -4.11307 -3.40092 0
M  V30 8126 O 746.603 -3.51922 -4.48895 0
M  V30 8127 O 745.537 -5.04157 -3.288 0
M  V30 8128 H 749.363 -2.94857 -0.727519 0
M  V30 8129 H 746.948 -1.46484 -0.293743 0
M  V30 8130 H 748.83 -2.77196 -3.17396 0
M  V30 8131 H 747.505 -1.6389 -2.79145 0
M  V30 8132 H 746.412 -3.47703 -1.38033 0
M  V30 8133 H 747.745 -4.5674 -1.83437 0
M  V30 8134 N 749.397 0.351382 -1.53633 0
M  V30 8135 C 750.627 1.11113 -1.74176 0
M  V30 8136 C 751.035 1.83084 -0.477154 0
M  V30 8137 O 750.378 1.74941 0.560483 0
M  V30 8138 C 750.44 2.17521 -2.86225 0
M  V30 8139 C 750.104 1.65193 -4.26099 0
M  V30 8140 C 751.101 1.10842 -5.07947 0
M  V30 8141 C 748.786 1.70277 -4.72558 0
M  V30 8142 C 750.78 0.622689 -6.34351 0
M  V30 8143 C 748.467 1.21316 -5.98937 0
M  V30 8144 C 749.465 0.674033 -6.79666 0
M  V30 8145 O 749.153 0.191696 -8.03671 0
M  V30 8146 H 748.885 0.33756 -0.585687 0
M  V30 8147 H 751.439 0.411786 -2.0123 0
M  V30 8148 H 749.669 2.90991 -2.54678 0
M  V30 8149 H 751.358 2.78999 -2.94812 0
M  V30 8150 H 752.124 1.06243 -4.7322 0
M  V30 8151 H 748.003 2.11181 -4.09785 0
M  V30 8152 H 751.547 0.201216 -6.9731 0
M  V30 8153 H 747.444 1.25613 -6.3316 0
M  V30 8154 H 748.212 0.309712 -8.17914 0
M  V30 8155 N 750.875 1.45233 0.611969 0
M  V30 8156 C 752.124 1.48296 1.36716 0
M  V30 8157 C 752.437 0.12706 1.95187 0
M  V30 8158 O 753.643 0.0353066 2.71477 0
M  V30 8159 C 752.099 2.61168 2.47627 0
M  V30 8160 C 751.707 4.03051 1.95587 0
M  V30 8161 C 753.451 2.73472 3.24674 0
M  V30 8162 C 751.358 5.07312 3.03954 0
M  V30 8163 H 750.288 0.5518 0.513841 0
M  V30 8164 H 752.939 1.7136 0.656359 0
M  V30 8165 H 751.321 2.31379 3.21372 0
M  V30 8166 H 752.495 4.42497 1.2858 0
M  V30 8167 H 750.81 3.95158 1.31298 0
M  V30 8168 H 753.407 3.48537 4.05494 0
M  V30 8169 H 753.75 1.79953 3.75397 0
M  V30 8170 H 754.283 3.02765 2.58028 0
M  V30 8171 H 751.022 6.02525 2.58154 0
M  V30 8172 H 750.542 4.7244 3.69541 0
M  V30 8173 H 752.221 5.31867 3.6841 0
M  V30 8174 N 752.353 -0.854086 1.3245 0
M  V30 8175 C 753.263 -1.99503 1.23434 0
M  V30 8176 C 754.279 -1.73371 0.147828 0
M  V30 8177 O 755.455 -1.97998 0.368609 0
M  V30 8178 C 752.52 -3.33192 0.958328 0
M  V30 8179 C 751.581 -3.72542 2.13333 0
M  V30 8180 C 750.814 -4.99852 1.8704 0
M  V30 8181 O 751.037 -5.64573 0.813239 0
M  V30 8182 O 749.971 -5.36345 2.73161 0
M  V30 8183 H 753.797 -2.10046 2.1935 0
M  V30 8184 H 751.382 -0.984823 1.12346 0
M  V30 8185 H 753.264 -4.13327 0.820918 0
M  V30 8186 H 751.939 -3.23687 0.0293299 0
M  V30 8187 H 750.846 -2.92981 2.32622 0
M  V30 8188 H 752.179 -3.86694 3.04514 0
M  V30 8189 N 753.831 -1.1567 -1.07043 0
M  V30 8190 C 754.778 -0.856336 -2.14326 0
M  V30 8191 C 755.748 0.192051 -1.64986 0
M  V30 8192 O 756.933 0.0589148 -1.90709 0
M  V30 8193 C 754.073 -0.355227 -3.43267 0
M  V30 8194 C 753.186 -1.46555 -4.06381 0
M  V30 8195 C 752.321 -0.920245 -5.23168 0
M  V30 8196 C 751.36 -2.00729 -5.78251 0
M  V30 8197 N 750.497 -1.47813 -6.86364 0
M  V30 8198 H 755.337 -1.77514 -2.39359 0
M  V30 8199 H 752.874 -0.885676 -1.17449 0
M  V30 8200 H 754.832 -0.0463804 -4.17174 0
M  V30 8201 H 753.462 0.526649 -3.18475 0
M  V30 8202 H 752.514 -1.89052 -3.30096 0
M  V30 8203 H 753.826 -2.28616 -4.43324 0
M  V30 8204 H 752.98 -0.564127 -6.04072 0
M  V30 8205 H 751.719 -0.0688477 -4.87651 0
M  V30 8206 H 750.724 -2.3722 -4.95991 0
M  V30 8207 H 751.949 -2.86252 -6.15822 0
M  V30 8208 H 749.895 -0.649145 -6.5278 0
M  V30 8209 H 749.812 -2.23498 -7.22208 0
M  V30 8210 H 751.08 -1.15036 -7.70965 0
M  V30 8211 N 755.309 1.25446 -0.953992 0
M  V30 8212 C 756.556 1.93143 -0.608429 0
M  V30 8213 C 756.884 1.74727 0.854451 0
M  V30 8214 O 756.139 1.0855 1.62836 0
M  V30 8215 C 756.438 3.45555 -0.912496 0
M  V30 8216 C 756.104 3.84126 -2.36131 0
M  V30 8217 C 754.766 3.94367 -2.75732 0
M  V30 8218 C 757.118 4.0324 -3.30223 0
M  V30 8219 C 754.446 4.21127 -4.08496 0
M  V30 8220 C 756.798 4.31493 -4.62598 0
M  V30 8221 C 755.462 4.3995 -5.01996 0
M  V30 8222 H 754.732 0.706762 -0.22264 0
M  V30 8223 H 757.379 1.49005 -1.20291 0
M  V30 8224 H 755.684 3.91091 -0.235618 0
M  V30 8225 H 757.381 3.9612 -0.623714 0
M  V30 8226 H 753.971 3.76711 -2.04418 0
M  V30 8227 H 758.155 3.94744 -3.00817 0
M  V30 8228 H 753.411 4.2589 -4.38665 0
M  V30 8229 H 757.585 4.45227 -5.35486 0
M  V30 8230 H 755.212 4.60439 -6.04896 0
M  V30 8231 N 756.787 0.722489 1.40064 0
M  V30 8232 C 757.734 0.0743738 2.3068 0
M  V30 8233 C 758.704 -0.743004 1.48555 0
M  V30 8234 O 759.889 -0.705536 1.77276 0
M  V30 8235 C 757.029 -0.836292 3.34814 0
M  V30 8236 C 756.142 -0.00764663 4.31999 0
M  V30 8237 C 755.277 -0.918428 5.232 0
M  V30 8238 C 754.316 -0.0842838 6.12042 0
M  V30 8239 N 753.453 -0.950316 6.95639 0
M  V30 8240 H 758.293 0.852794 2.85537 0
M  V30 8241 H 755.83 0.432222 1.40607 0
M  V30 8242 H 757.788 -1.3786 3.93765 0
M  V30 8243 H 756.418 -1.58082 2.81443 0
M  V30 8244 H 755.47 0.651928 3.74772 0
M  V30 8245 H 756.782 0.63786 4.94705 0
M  V30 8246 H 755.936 -1.52902 5.87116 0
M  V30 8247 H 754.675 -1.59774 4.60786 0
M  V30 8248 H 753.68 0.5392 5.4715 0
M  V30 8249 H 754.905 0.591628 6.76518 0
M  V30 8250 H 752.851 -1.61515 6.35806 0
M  V30 8251 H 752.768 -0.361004 7.55138 0
M  V30 8252 H 754.036 -1.54687 7.63997 0
M  V30 8253 N 758.265 -1.50454 0.469181 0
M  V30 8254 C 759.681 -1.59124 0.123226 0
M  V30 8255 C 759.881 -1.47749 -1.37013 0
M  V30 8256 O 758.937 -1.335 -2.14322 0
M  V30 8257 C 760.25 -2.93101 0.67172 0
M  V30 8258 C 761.798 -3.06491 0.634978 0
M  V30 8259 C 762.273 -4.43041 1.16098 0
M  V30 8260 N 763.764 -4.49448 1.12031 0
M  V30 8261 C 764.499 -5.53491 1.49784 0
M  V30 8262 N 763.995 -6.64798 1.94976 0
M  V30 8263 N 765.788 -5.44025 1.41399 0
M  V30 8264 H 757.939 -1.56091 1.44046 0
M  V30 8265 H 760.202 -0.737564 0.59557 0
M  V30 8266 H 759.908 -3.06895 1.7178 0
M  V30 8267 H 759.782 -3.77027 0.114222 0
M  V30 8268 H 762.169 -2.92346 -0.402187 0
M  V30 8269 H 762.25 -2.24328 1.22926 0
M  V30 8270 H 761.894 -4.57935 2.19677 0
M  V30 8271 H 761.824 -5.23794 0.542939 0
M  V30 8272 H 764.315 -3.69575 0.788828 0
M  V30 8273 H 764.628 -7.40246 2.21936 0
M  V30 8274 H 762.973 -6.65923 1.98927 0
M  V30 8275 H 766.164 -4.55955 1.05935 0
M  V30 8276 H 766.337 -6.2499 1.71147 0
M  V30 8277 N 759.743 -0.201713 -1.56304 0
M  V30 8278 C 760.653 0.728296 -2.23009 0
M  V30 8279 C 761.669 1.22945 -1.23128 0
M  V30 8280 O 762.845 1.27523 -1.55884 0
M  V30 8281 C 759.91 1.92792 -2.88153 0
M  V30 8282 C 758.971 1.47068 -4.03323 0
M  V30 8283 C 758.204 2.61312 -4.65351 0
M  V30 8284 O 758.427 3.7896 -4.26317 0
M  V30 8285 O 757.361 2.33646 -5.54701 0
M  V30 8286 H 761.187 0.190166 -3.03104 0
M  V30 8287 H 758.772 0.0278725 -1.49374 0
M  V30 8288 H 760.654 2.6289 -3.29343 0
M  V30 8289 H 759.329 2.45452 -2.11033 0
M  V30 8290 H 758.236 0.738299 -3.66742 0
M  V30 8291 H 759.569 0.990666 -4.82127 0
M  V30 8292 N 761.222 1.57436 0.0718424 0
M  V30 8293 C 762.47 1.86878 0.769484 0
M  V30 8294 C 762.791 0.7937 1.78116 0
M  V30 8295 O 762.061 -0.177642 1.95093 0
M  V30 8296 H 760.641 0.689593 0.287177 0
M  V30 8297 H 763.303 1.94841 0.0479427 0
M  V30 8298 H 762.399 2.84387 1.28572 0
M  V30 8299 N 762.7 -0.34323 1.53817 0
M  V30 8300 C 763.648 -1.44176 1.82527 0
M  V30 8301 C 764.642 -1.54452 0.695772 0
M  V30 8302 O 765.848 -1.57072 0.879114 0
M  V30 8303 H 762.223 -0.480729 0.578277 0
M  V30 8304 H 764.194 -1.17176 2.74431 0
M  V30 8305 C 762.943 -2.80695 2.05197 0
M  V30 8306 H 762.266 -2.73554 2.91561 0
M  V30 8307 H 763.706 -3.56679 2.29251 0
M  V30 8308 C 762.165 -3.26322 0.837589 0
M  V30 8309 O 762.695 -4.01683 0.0371631 0
M  V30 8310 N 760.901 -2.83128 0.654724 0
M  V30 8311 H 760.448 -2.21965 1.30725 0
M  V30 8312 H 760.406 -3.14011 -0.156345 0
M  V30 8313 N 764.178 -1.45556 -0.604258 0
M  V30 8314 C 765.088 -1.57025 -1.74299 0
M  V30 8315 C 766.104 -0.45456 -1.67958 0
M  V30 8316 O 767.28 -0.715711 -1.88254 0
M  V30 8317 C 764.345 -1.53702 -3.10768 0
M  V30 8318 C 763.406 -2.76335 -3.28538 0
M  V30 8319 C 762.639 -2.73161 -4.58496 0
M  V30 8320 O 762.862 -1.80678 -5.41028 0
M  V30 8321 O 761.796 -3.64409 -4.79051 0
M  V30 8322 H 765.622 -2.53284 -1.67573 0
M  V30 8323 H 763.207 -1.28104 -0.768745 0
M  V30 8324 H 765.089 -1.54468 -3.92068 0
M  V30 8325 H 763.764 -0.605957 -3.17978 0
M  V30 8326 H 762.671 -2.8113 -2.46813 0
M  V30 8327 H 764.004 -3.68578 -3.26207 0
M  V30 8328 N 765.656 0.84705 -1.32902 0
M  V30 8329 C 766.603 1.95624 -1.22473 0
M  V30 8330 C 767.573 1.65767 -0.105178 0
M  V30 8331 O 768.758 1.88704 -0.282042 0
M  V30 8332 C 765.898 3.31434 -0.961542 0
M  V30 8333 C 765.011 3.73741 -2.1666 0
M  V30 8334 C 764.146 4.98379 -1.83825 0
M  V30 8335 C 763.185 5.33199 -3.00609 0
M  V30 8336 N 762.322 6.49014 -2.67816 0
M  V30 8337 H 767.162 2.03875 -2.17345 0
M  V30 8338 H 764.699 0.997764 -1.08088 0
M  V30 8339 H 766.657 4.09663 -0.789411 0
M  V30 8340 H 765.287 3.22762 -0.0495938 0
M  V30 8341 H 764.339 2.91102 -2.44875 0
M  V30 8342 H 765.651 3.95462 -3.03993 0
M  V30 8343 H 764.805 5.84336 -1.63208 0
M  V30 8344 H 763.544 4.78611 -0.937172 0
M  V30 8345 H 762.549 4.4575 -3.21849 0
M  V30 8346 H 763.774 5.5492 -3.9146 0
M  V30 8347 H 761.72 6.30748 -1.80258 0
M  V30 8348 H 761.637 6.7079 -3.48679 0
M  V30 8349 H 762.905 7.38103 -2.50647 0
M  V30 8350 N 767.134 1.16236 1.06428 0
M  V30 8351 C 768.044 0.881976 2.1739 0
M  V30 8352 C 769.06 -0.145259 1.73393 0
M  V30 8353 O 770.236 0.0310558 2.01376 0
M  V30 8354 C 767.301 0.385496 3.4455 0
M  V30 8355 C 766.362 1.47779 4.03063 0
M  V30 8356 C 765.595 1.0049 5.24154 0
M  V30 8357 O 765.818 -0.145889 5.70213 0
M  V30 8358 O 764.752 1.79265 5.74585 0
M  V30 8359 H 768.578 1.80983 2.43883 0
M  V30 8360 H 766.163 0.942226 1.15942 0
M  V30 8361 H 768.045 0.115536 4.21242 0
M  V30 8362 H 766.72 -0.514369 3.19587 0
M  V30 8363 H 765.627 1.80147 3.27869 0
M  V30 8364 H 766.96 2.35291 4.32318 0
M  V30 8365 N 768.612 -1.24939 0.960631 0
M  V30 8366 C 769.861 -1.92118 0.614298 0
M  V30 8367 C 770.174 -1.75998 -0.853474 0
M  V30 8368 O 771.38 -2.37804 -1.31003 0
M  V30 8369 C 769.836 -3.44303 1.04801 0
M  V30 8370 C 769.444 -3.69123 2.53875 0
M  V30 8371 C 771.188 -4.17375 0.774497 0
M  V30 8372 C 769.095 -5.14843 2.91016 0
M  V30 8373 H 768.025 -0.719319 0.226045 0
M  V30 8374 H 770.676 -1.41701 1.16589 0
M  V30 8375 H 769.058 -3.93715 0.42479 0
M  V30 8376 H 770.232 -3.30339 3.21267 0
M  V30 8377 H 768.547 -3.09323 2.78762 0
M  V30 8378 H 771.144 -5.24723 1.02808 0
M  V30 8379 H 771.487 -4.15294 -0.289192 0
M  V30 8380 H 772.02 -3.7389 1.35835 0
M  V30 8381 H 768.759 -5.2204 3.96427 0
M  V30 8382 H 768.279 -5.54652 2.28302 0
M  V30 8383 H 769.958 -5.83017 2.80535 0
M  V30 8384 N 770.09 -0.729906 -1.39679 0
M  V30 8385 C 771.022 -0.0470588 -2.29152 0
M  V30 8386 C 772.035 0.708808 -1.4656 0
M  V30 8387 O 773.224 0.553815 -1.69691 0
M  V30 8388 C 770.324 0.957612 -3.25089 0
M  V30 8389 C 769.497 0.264321 -4.36601 0
M  V30 8390 C 768.556 1.17638 -5.12882 0
M  V30 8391 O 767.582 0.655777 -5.6541 0
M  V30 8392 N 768.784 2.50649 -5.23598 0
M  V30 8393 H 771.549 -0.815364 -2.88395 0
M  V30 8394 H 769.11 -0.578707 -1.51204 0
M  V30 8395 H 771.102 1.57026 -3.72995 0
M  V30 8396 H 769.672 1.62716 -2.66912 0
M  V30 8397 H 768.892 -0.528732 -3.90638 0
M  V30 8398 H 770.18 -0.216344 -5.0834 0
M  V30 8399 H 769.578 2.95427 -4.82431 0
M  V30 8400 H 768.135 3.07022 -5.74961 0
M  V30 8401 N 771.568 1.50203 -0.477153 0
M  V30 8402 C 772.984 1.59056 -0.131663 0
M  V30 8403 C 773.184 1.48473 1.36227 0
M  V30 8404 O 772.24 1.34635 2.13611 0
M  V30 8405 C 773.553 2.92741 -0.687254 0
M  V30 8406 C 775.101 3.0615 -0.651223 0
M  V30 8407 C 775.576 4.42419 -1.18446 0
M  V30 8408 N 777.067 4.48847 -1.14413 0
M  V30 8409 C 777.802 5.52689 -1.52717 0
M  V30 8410 N 777.298 6.63754 -1.98499 0
M  V30 8411 N 779.091 5.43267 -1.44282 0
M  V30 8412 H 771.242 1.55325 -1.44872 0
M  V30 8413 H 773.505 0.734395 -0.599473 0
M  V30 8414 H 773.211 3.0598 -1.73405 0
M  V30 8415 H 773.085 3.76961 -0.134215 0
M  V30 8416 H 775.472 2.92556 0.386677 0
M  V30 8417 H 775.553 2.23673 -1.24114 0
M  V30 8418 H 775.197 4.56763 -2.22103 0
M  V30 8419 H 775.127 5.23498 -0.570709 0
M  V30 8420 H 777.618 3.69152 -0.808416 0
M  V30 8421 H 777.931 7.39059 -2.25859 0
M  V30 8422 H 776.276 6.64858 -2.02456 0
M  V30 8423 H 779.467 4.55387 -1.08352 0
M  V30 8424 H 779.64 6.24074 -1.74459 0
M  V30 8425 N 773.046 0.209999 1.56195 0
M  V30 8426 C 774.295 -0.425106 1.97169 0
M  V30 8427 C 774.608 -1.61718 1.10031 0
M  V30 8428 O 775.814 -2.32105 1.40853 0
M  V30 8429 C 774.27 -0.80771 3.50719 0
M  V30 8430 C 773.878 0.360902 4.46544 0
M  V30 8431 C 775.622 -1.40906 4.00432 0
M  V30 8432 C 773.529 -0.0434919 5.91384 0
M  V30 8433 H 772.459 -0.162598 0.736259 0
M  V30 8434 H 775.11 0.304382 1.80958 0
M  V30 8435 H 773.492 -1.59429 3.62489 0
M  V30 8436 H 774.666 1.13846 4.46515 0
M  V30 8437 H 772.981 0.874729 4.07109 0
M  V30 8438 H 775.578 -1.72433 5.06133 0
M  V30 8439 H 775.921 -2.32081 3.45607 0
M  V30 8440 H 776.454 -0.686154 3.91838 0
M  V30 8441 H 773.193 0.834448 6.50167 0
M  V30 8442 H 772.713 -0.785598 5.94633 0
M  V30 8443 H 774.392 -0.474176 6.4526 0
M  V30 8444 N 774.524 -1.57472 -0.0634922 0
M  V30 8445 C 775.457 -1.99571 -1.10664 0
M  V30 8446 C 776.435 -0.874015 -1.37112 0
M  V30 8447 O 777.619 -1.13702 -1.50347 0
M  V30 8448 C 774.746 -2.3395 -2.44918 0
M  V30 8449 C 773.792 -3.56213 -2.34551 0
M  V30 8450 S 774.625 -5.06727 -1.73169 0
M  V30 8451 C 775.781 -5.44316 -3.08984 0
M  V30 8452 H 776.014 -2.87739 -0.747905 0
M  V30 8453 H 773.547 -1.5198 -0.272316 0
M  V30 8454 H 775.505 -2.54431 -3.22141 0
M  V30 8455 H 774.166 -1.46297 -2.7795 0
M  V30 8456 H 773.359 -3.77812 -3.33578 0
M  V30 8457 H 772.961 -3.35406 -1.65466 0
M  V30 8458 H 775.253 -5.42894 -4.05305 0
M  V30 8459 H 776.196 -6.4502 -2.92156 0
M  V30 8460 H 776.604 -4.71781 -3.09972 0
M  V30 8461 N 776.003 0.335068 -1.53997 0
M  V30 8462 C 776.953 1.4127 -1.7896 0
M  V30 8463 C 777.937 1.474 -0.64513 0
M  V30 8464 O 779.129 1.52127 -0.904785 0
M  V30 8465 C 776.258 2.78292 -2.01018 0
M  V30 8466 C 775.344 2.7652 -3.21555 0
M  V30 8467 N 775.735 2.44374 -4.42849 0
M  V30 8468 C 774.033 3.0766 -3.22895 0
M  V30 8469 C 774.734 2.51049 -5.24737 0
M  V30 8470 N 773.71 2.8702 -4.6165 0
M  V30 8471 H 777.512 1.15327 -2.70327 0
M  V30 8472 H 775.026 0.543483 -1.53036 0
M  V30 8473 H 777.023 3.55949 -2.17039 0
M  V30 8474 H 775.683 3.05175 -1.10898 0
M  V30 8475 H 776.694 2.17422 -4.70051 0
M  V30 8476 H 773.371 3.3966 -2.42771 0
M  V30 8477 H 774.761 2.29283 -6.31569 0
M  V30 8478 N 777.481 1.45874 0.596531 0
M  V30 8479 C 778.429 1.55739 1.72766 0
M  V30 8480 C 779.423 0.426666 1.63939 0
M  V30 8481 O 780.629 0.60301 1.69599 0
M  V30 8482 H 777.004 0.489386 0.570968 0
M  V30 8483 H 778.975 2.50871 1.61575 0
M  V30 8484 C 777.724 1.55174 3.11153 0
M  V30 8485 H 777.047 2.41511 3.1861 0
M  V30 8486 H 778.487 1.66133 3.90097 0
M  V30 8487 C 776.946 0.278001 3.35751 0
M  V30 8488 O 777.476 -0.637557 3.96608 0
M  V30 8489 N 775.682 0.170227 2.90101 0
M  V30 8490 H 775.229 0.916159 2.40758 0
M  V30 8491 H 775.187 -0.68117 3.06932 0
M  V30 8492 N 778.959 -0.83999 1.33349 0
M  V30 8493 C 780.189 -1.62492 1.27593 0
M  V30 8494 C 780.597 -1.88559 -0.155597 0
M  V30 8495 O 779.94 -1.46537 -1.10782 0
M  V30 8496 C 780.002 -2.99984 1.98116 0
M  V30 8497 C 779.666 -2.96892 3.47425 0
M  V30 8498 C 780.663 -2.72688 4.42648 0
M  V30 8499 C 778.348 -3.17063 3.89585 0
M  V30 8500 C 780.342 -2.68681 5.78004 0
M  V30 8501 C 778.029 -3.12682 5.25046 0
M  V30 8502 C 779.027 -2.88522 6.19067 0
M  V30 8503 O 778.715 -2.84042 7.52047 0
M  V30 8504 H 778.447 -0.512358 0.440982 0
M  V30 8505 H 781.001 -1.0545 1.76265 0
M  V30 8506 H 779.231 -3.58875 1.44034 0
M  V30 8507 H 780.92 -3.6084 1.85875 0
M  V30 8508 H 781.686 -2.56856 4.114 0
M  V30 8509 H 777.565 -3.34889 3.16813 0
M  V30 8510 H 781.109 -2.49743 6.51363 0
M  V30 8511 H 777.006 -3.28063 5.55918 0
M  V30 8512 H 777.774 -2.99892 7.61582 0
M  V30 8513 N 780.437 -1.16799 -1.0581 0
M  V30 8514 C 781.714 -0.862616 -1.75551 0
M  V30 8515 C 782.094 0.6385 -2.01212 0
M  V30 8516 O 781.442 1.58784 -1.64317 0
M  V30 8517 C 781.652 -1.6907 -3.05314 0
M  V30 8518 C 783 -1.90675 -3.79379 0
M  V30 8519 O 784.024 -1.65976 -3.15167 0
M  V30 8520 O 782.883 -2.32145 -4.94743 0
M  V30 8521 H 779.977 -0.318789 -0.763088 0
M  V30 8522 H 782.523 -1.27461 -1.12034 0
M  V30 8523 H 781.295 -2.70912 -2.82352 0
M  V30 8524 H 780.918 -1.27606 -3.76567 0
M  V30 8525 N 781.915 1.24427 -0.967243 0
M  V30 8526 C 782.862 2.25398 -0.496419 0
M  V30 8527 C 783.832 1.59667 0.457781 0
M  V30 8528 O 785.017 1.87213 0.368246 0
M  V30 8529 C 782.157 3.44474 0.207693 0
M  V30 8530 C 781.27 4.24804 -0.785221 0
M  V30 8531 C 780.405 5.31169 -0.0572631 0
M  V30 8532 C 779.444 6.03195 -1.04027 0
M  V30 8533 N 778.581 7.01265 -0.34235 0
M  V30 8534 H 783.421 2.65039 -1.36229 0
M  V30 8535 H 780.958 1.30288 -0.682902 0
M  V30 8536 H 782.916 4.12376 0.632612 0
M  V30 8537 H 781.546 3.05672 1.03752 0
M  V30 8538 H 780.598 3.56445 -1.32858 0
M  V30 8539 H 781.91 4.74599 -1.53483 0
M  V30 8540 H 781.064 6.05205 0.425674 0
M  V30 8541 H 779.803 4.8228 0.725047 0
M  V30 8542 H 778.808 5.27964 -1.53409 0
M  V30 8543 H 780.033 6.54173 -1.82302 0
M  V30 8544 H 777.979 6.54648 0.420993 0
M  V30 8545 H 777.896 7.48939 -1.03084 0
M  V30 8546 H 779.164 7.7941 0.118634 0
M  V30 8547 N 783.393 0.737304 1.3929 0
M  V30 8548 C 784.323 0.113988 2.33222 0
M  V30 8549 C 785.304 -0.721695 1.54031 0
M  V30 8550 O 786.489 -0.666206 1.82415 0
M  V30 8551 C 783.619 -0.792319 3.38141 0
M  V30 8552 C 782.573 -0.0606178 4.27957 0
M  V30 8553 C 781.899 -1.08409 5.23595 0
M  V30 8554 C 783.199 1.09817 5.10625 0
M  V30 8555 H 784.893 0.898611 2.85596 0
M  V30 8556 H 782.439 0.433571 1.37318 0
M  V30 8557 H 784.392 -1.23793 4.02807 0
M  V30 8558 H 783.116 -1.60908 2.84211 0
M  V30 8559 H 781.775 0.365393 3.64775 0
M  V30 8560 H 781.423 -1.89449 4.6596 0
M  V30 8561 H 781.123 -0.599269 5.84536 0
M  V30 8562 H 782.647 -1.52936 5.91137 0
M  V30 8563 H 784.061 0.730892 5.68622 0
M  V30 8564 H 782.458 1.51278 5.80719 0
M  V30 8565 H 783.528 1.91878 4.45321 0
M  V30 8566 N 784.871 -1.49948 0.485112 0
M  V30 8567 C 785.818 -2.28819 -0.301729 0
M  V30 8568 C 786.788 -1.34496 -0.974683 0
M  V30 8569 O 787.973 -1.63444 -0.984418 0
M  V30 8570 C 785.113 -3.16758 -1.36961 0
M  V30 8571 C 784.226 -4.26125 -0.710027 0
M  V30 8572 C 783.361 -5.01302 -1.75699 0
M  V30 8573 C 782.4 -6.02525 -1.07841 0
M  V30 8574 N 781.537 -6.70927 -2.06886 0
M  V30 8575 H 786.377 -2.95604 0.377127 0
M  V30 8576 H 783.914 -1.45764 0.197826 0
M  V30 8577 H 785.872 -3.66106 -2.00056 0
M  V30 8578 H 784.502 -2.51991 -2.01744 0
M  V30 8579 H 783.554 -3.80385 0.0338278 0
M  V30 8580 H 784.866 -4.98493 -0.175079 0
M  V30 8581 H 784.02 -5.54438 -2.46339 0
M  V30 8582 H 782.759 -4.28672 -2.32577 0
M  V30 8583 H 781.764 -5.48635 -0.357706 0
M  V30 8584 H 782.989 -6.77134 -0.516345 0
M  V30 8585 H 780.935 -6.01079 -2.62755 0
M  V30 8586 H 780.852 -7.39216 -1.58414 0
M  V30 8587 H 782.12 -7.28675 -2.76863 0
M  V30 8588 N 786.349 -0.21828 -1.56081 0
M  V30 8589 C 787.574 0.422302 -2.03055 0
M  V30 8590 C 787.999 1.5279 -1.09713 0
M  V30 8591 O 787.357 1.81102 -0.0847187 0
M  V30 8592 C 787.405 0.934177 -3.48289 0
M  V30 8593 O 786.509 2.04574 -3.58083 0
M  V30 8594 H 785.85 0.0959764 -0.657027 0
M  V30 8595 H 788.38 -0.335958 -2.01823 0
M  V30 8596 H 788.39 1.24484 -3.88546 0
M  V30 8597 H 787.065 0.124963 -4.15712 0
M  V30 8598 H 785.642 1.74196 -3.29712 0
M  V30 8599 N 787.827 1.57504 0.0551401 0
M  V30 8600 C 789.243 1.54236 0.410292 0
M  V30 8601 C 789.443 0.940839 1.78187 0
M  V30 8602 O 788.499 0.550541 2.46425 0
M  V30 8603 C 789.812 2.98816 0.336064 0
M  V30 8604 C 791.36 3.10236 0.415047 0
M  V30 8605 C 791.835 4.56499 0.37055 0
M  V30 8606 N 793.326 4.61199 0.43013 0
M  V30 8607 C 794.061 5.71873 0.418179 0
M  V30 8608 N 793.557 6.91864 0.360056 0
M  V30 8609 N 795.35 5.60165 0.465977 0
M  V30 8610 H 787.501 1.94965 -0.842759 0
M  V30 8611 H 789.764 0.893096 -0.317937 0
M  V30 8612 H 789.47 3.4645 -0.605429 0
M  V30 8613 H 789.344 3.59564 1.13988 0
M  V30 8614 H 791.731 2.62566 1.34697 0
M  V30 8615 H 791.812 2.52367 -0.417648 0
M  V30 8616 H 791.456 5.0483 -0.557592 0
M  V30 8617 H 791.386 5.12249 1.221 0
M  V30 8618 H 793.877 3.74857 0.478623 0
M  V30 8619 H 794.19 7.71983 0.35532 0
M  V30 8620 H 792.535 6.94233 0.326492 0
M  V30 8621 H 795.726 4.65322 0.509194 0
M  V30 8622 H 795.899 6.46413 0.453194 0
M  V30 8623 N 789.305 -0.326896 1.54172 0
M  V30 8624 C 790.554 -1.06274 1.71431 0
M  V30 8625 C 790.867 -1.89282 0.493123 0
M  V30 8626 O 792.073 -2.65933 0.54699 0
M  V30 8627 C 790.529 -1.93892 3.03206 0
M  V30 8628 C 790.137 -1.16011 4.32719 0
M  V30 8629 C 791.881 -2.67232 3.29829 0
M  V30 8630 C 789.788 -2.02755 5.55558 0
M  V30 8631 H 788.718 -0.400475 0.638855 0
M  V30 8632 H 791.369 -0.321184 1.80667 0
M  V30 8633 H 789.751 -2.71933 2.87869 0
M  V30 8634 H 790.925 -0.427643 4.58811 0
M  V30 8635 H 789.24 -0.54367 4.12836 0
M  V30 8636 H 791.837 -3.32434 4.18798 0
M  V30 8637 H 792.18 -3.34692 2.47562 0
M  V30 8638 H 792.713 -1.96255 3.46018 0
M  V30 8639 H 789.452 -1.3981 6.40417 0
M  V30 8640 H 788.972 -2.73745 5.33689 0
M  V30 8641 H 790.651 -2.61419 5.91835 0
M  V30 8642 N 790.784 -1.46188 -0.588786 0
M  V30 8643 C 792.009 -1.5498 -1.37826 0
M  V30 8644 C 792.434 -0.189498 -1.87143 0
M  V30 8645 O 791.792 0.829293 -1.61222 0
M  V30 8646 C 791.84 -2.55369 -2.54596 0
M  V30 8647 O 790.944 -2.08452 -3.55839 0
M  V30 8648 H 790.285 -0.521741 -0.41071 0
M  V30 8649 H 792.815 -1.91708 -0.714779 0
M  V30 8650 H 792.825 -2.74782 -3.01594 0
M  V30 8651 H 791.5 -3.54155 -2.18052 0
M  V30 8652 H 790.077 -1.98999 -3.15363 0
M  V30 8653 N 792.262 0.832906 -1.33792 0
M  V30 8654 C 793.172 1.97514 -1.26592 0
M  V30 8655 C 794.188 1.73114 -0.175391 0
M  V30 8656 O 795.364 1.97387 -0.400062 0
M  V30 8657 C 792.429 3.31625 -1.01121 0
M  V30 8658 C 791.49 3.69101 -2.19233 0
M  V30 8659 C 790.723 4.96813 -1.94968 0
M  V30 8660 O 790.946 5.63208 -0.902955 0
M  V30 8661 O 789.88 5.31932 -2.8166 0
M  V30 8662 H 793.706 2.0653 -2.22664 0
M  V30 8663 H 791.291 0.966826 -1.13898 0
M  V30 8664 H 793.173 4.11968 -0.886571 0
M  V30 8665 H 791.848 3.23599 -0.080822 0
M  V30 8666 H 790.755 2.89243 -2.37253 0
M  V30 8667 H 792.088 3.818 -3.10628 0
M  V30 8668 N 793.74 1.17359 1.05189 0
M  V30 8669 C 794.989 0.956412 1.77583 0
M  V30 8670 C 795.302 -0.516018 1.88671 0
M  V30 8671 O 796.508 -0.851401 2.57805 0
M  V30 8672 C 794.964 1.66203 3.19225 0
M  V30 8673 C 794.572 3.17299 3.16267 0
M  V30 8674 C 796.316 1.52725 3.96075 0
M  V30 8675 C 794.223 3.8055 4.52698 0
M  V30 8676 H 793.153 0.354204 0.665624 0
M  V30 8677 H 795.804 1.40612 1.17901 0
M  V30 8678 H 794.186 1.14006 3.79234 0
M  V30 8679 H 795.36 3.76431 2.65776 0
M  V30 8680 H 793.675 3.3079 2.52917 0
M  V30 8681 H 796.272 1.97351 4.96947 0
M  V30 8682 H 796.615 0.477803 4.13549 0
M  V30 8683 H 797.148 2.02139 3.42614 0
M  V30 8684 H 793.887 4.85492 4.4043 0
M  V30 8685 H 793.407 3.26206 5.03339 0
M  V30 8686 H 795.086 3.82757 5.21638 0
M  V30 8687 N 795.218 -1.23913 0.973828 0
M  V30 8688 C 796.467 -1.91455 0.63464 0
M  V30 8689 C 796.78 -1.76893 -0.834759 0
M  V30 8690 O 797.986 -2.3918 -1.28473 0
M  V30 8691 C 796.442 -3.43172 1.08447 0
M  V30 8692 C 796.05 -3.66409 2.57776 0
M  V30 8693 C 797.794 -4.1653 0.818721 0
M  V30 8694 C 795.701 -5.11728 2.9646 0
M  V30 8695 H 794.631 -0.716881 0.233661 0
M  V30 8696 H 797.282 -1.40457 1.18085 0
M  V30 8697 H 795.664 -3.93242 0.466524 0
M  V30 8698 H 796.838 -3.26913 3.24753 0
M  V30 8699 H 795.153 -3.06349 2.82027 0
M  V30 8700 H 797.75 -5.23603 1.08367 0
M  V30 8701 H 798.093 -4.15578 -0.245128 0
M  V30 8702 H 798.626 -3.72428 1.39793 0
M  V30 8703 H 795.365 -5.17806 4.01941 0
M  V30 8704 H 794.885 -5.52199 2.34172 0
M  V30 8705 H 796.564 -5.80009 2.86703 0
M  V30 8706 N 796.696 -0.74468 -1.38897 0
M  V30 8707 C 797.973 -0.222773 -1.94327 0
M  V30 8708 C 798.353 1.27731 -1.68071 0
M  V30 8709 O 797.701 2.04754 -1.01429 0
M  V30 8710 C 797.911 -0.566836 -3.44366 0
M  V30 8711 C 799.259 -0.521531 -4.21385 0
M  V30 8712 O 800.283 -0.504599 -3.52608 0
M  V30 8713 O 799.142 -0.524595 -5.43976 0
M  V30 8714 H 796.236 -0.0439259 -0.825833 0
M  V30 8715 H 798.782 -0.824197 -1.48341 0
M  V30 8716 H 797.554 -1.60321 -3.56949 0
M  V30 8717 H 797.177 0.0630577 -3.9755 0
M  V30 8718 N 798.174 1.49689 -0.493057 0
M  V30 8719 C 799.399 2.07331 0.0535114 0
M  V30 8720 C 799.824 1.35196 1.30781 0
M  V30 8721 O 799.182 0.406246 1.7669 0
M  V30 8722 C 799.23 3.59364 0.29825 0
M  V30 8723 O 798.334 3.88819 1.37454 0
M  V30 8724 H 797.675 0.663612 -0.0227018 0
M  V30 8725 H 800.205 1.926 -0.690402 0
M  V30 8726 H 800.215 4.04515 0.532159 0
M  V30 8727 H 798.89 4.1128 -0.618207 0
M  V30 8728 H 797.467 3.55487 1.12621 0
M  V30 8729 N 799.652 0.226554 1.55963 0
M  V30 8730 C 801.068 -0.128733 1.5908 0
M  V30 8731 C 801.268 -1.58558 1.24345 0
M  V30 8732 O 800.324 -2.32661 0.981069 0
M  V30 8733 C 801.637 0.202076 3.0002 0
M  V30 8734 C 803.185 0.144718 3.12665 0
M  V30 8735 C 803.66 0.449272 4.55791 0
M  V30 8736 N 805.151 0.399026 4.61478 0
M  V30 8737 C 805.886 0.608106 5.70166 0
M  V30 8738 N 805.382 0.879227 6.87198 0
M  V30 8739 N 807.175 0.5402 5.59498 0
M  V30 8740 H 799.326 1.17686 1.76816 0
M  V30 8741 H 801.589 0.472072 0.822102 0
M  V30 8742 H 801.295 1.21341 3.30105 0
M  V30 8743 H 801.169 -0.480554 3.74126 0
M  V30 8744 H 803.556 -0.857261 2.82374 0
M  V30 8745 H 803.637 0.860899 2.40878 0
M  V30 8746 H 803.281 1.44871 4.86801 0
M  V30 8747 H 803.211 -0.288157 5.25811 0
M  V30 8748 H 805.702 0.197372 3.77384 0
M  V30 8749 H 806.015 1.02673 7.65949 0
M  V30 8750 H 804.36 0.916477 6.88931 0
M  V30 8751 H 807.551 0.328581 4.66945 0
M  V30 8752 H 807.724 0.706548 6.44137 0
M  V30 8753 N 801.13 -1.57531 -0.0467866 0
M  V30 8754 C 802.546 -1.54451 -0.402107 0
M  V30 8755 C 802.746 -0.950275 -1.77685 0
M  V30 8756 O 801.802 -0.563602 -2.4613 0
M  V30 8757 C 803.115 -2.9899 -0.320212 0
M  V30 8758 C 804.663 -3.10452 -0.398588 0
M  V30 8759 C 805.138 -4.56689 -0.346335 0
M  V30 8760 N 806.629 -4.6142 -0.405666 0
M  V30 8761 C 807.364 -5.72087 -0.387845 0
M  V30 8762 N 806.86 -6.92045 -0.32336 0
M  V30 8763 N 808.653 -5.60404 -0.436263 0
M  V30 8764 H 800.804 -1.94515 0.853087 0
M  V30 8765 H 803.067 -0.891397 0.322669 0
M  V30 8766 H 802.773 -3.46124 0.623794 0
M  V30 8767 H 802.647 -3.60164 -1.1208 0
M  V30 8768 H 805.034 -2.63276 -1.33302 0
M  V30 8769 H 805.115 -2.52142 0.431026 0
M  V30 8770 H 804.759 -5.04527 0.584356 0
M  V30 8771 H 804.689 -5.12889 -1.19382 0
M  V30 8772 H 807.18 -3.75105 -0.458737 0
M  V30 8773 H 807.493 -7.7216 -0.314375 0
M  V30 8774 H 805.838 -6.94396 -0.28967 0
M  V30 8775 H 809.029 -4.65586 -0.48451 0
M  V30 8776 H 809.202 -6.46645 -0.418907 0
M  V30 8777 N 802.608 0.318715 -1.54344 0
M  V30 8778 C 804.024 0.663345 -1.45162 0
M  V30 8779 C 804.224 1.9145 -0.62842 0
M  V30 8780 O 803.28 2.5217 -0.129126 0
M  V30 8781 C 804.593 0.832836 -2.88937 0
M  V30 8782 C 806.141 0.929866 -2.98869 0
M  V30 8783 C 806.616 1.13149 -4.43803 0
M  V30 8784 N 808.107 1.19811 -4.47437 0
M  V30 8785 C 808.842 1.37209 -5.56742 0
M  V30 8786 N 808.338 1.51619 -6.76006 0
M  V30 8787 N 810.131 1.39956 -5.44398 0
M  V30 8788 H 802.282 -0.50357 -2.06344 0
M  V30 8789 H 804.545 -0.163528 -0.933789 0
M  V30 8790 H 804.251 -0.0153519 -3.51697 0
M  V30 8791 H 804.125 1.72721 -3.35332 0
M  V30 8792 H 806.512 1.76855 -2.36233 0
M  V30 8793 H 806.593 0.0118561 -2.55797 0
M  V30 8794 H 806.237 0.297636 -5.07027 0
M  V30 8795 H 806.167 2.06345 -4.84489 0
M  V30 8796 H 808.658 1.101 -3.61506 0
M  V30 8797 H 808.971 1.64599 -7.55067 0
M  V30 8798 H 807.316 1.48708 -6.78904 0
M  V30 8799 H 810.507 1.28298 -4.50175 0
M  V30 8800 H 810.68 1.53172 -6.29637 0
M  V30 8801 N 804.086 1.46499 0.581025 0
M  V30 8802 C 805.016 1.60052 1.70017 0
M  V30 8803 C 805.997 0.450788 1.64018 0
M  V30 8804 O 807.182 0.677237 1.82009 0
M  V30 8805 C 804.312 1.5921 3.08658 0
M  V30 8806 C 803.266 2.73169 3.29488 0
M  V30 8807 C 802.592 2.57389 4.68674 0
M  V30 8808 C 803.892 4.14978 3.1716 0
M  V30 8809 H 805.586 2.53735 1.5893 0
M  V30 8810 H 803.132 1.22113 0.763173 0
M  V30 8811 H 805.085 1.67285 3.86773 0
M  V30 8812 H 803.809 0.620718 3.20647 0
M  V30 8813 H 802.468 2.64566 2.53773 0
M  V30 8814 H 802.116 1.58331 4.77431 0
M  V30 8815 H 801.816 3.33826 4.83564 0
M  V30 8816 H 803.34 2.67358 5.48956 0
M  V30 8817 H 804.754 4.24684 3.85119 0
M  V30 8818 H 803.151 4.92016 3.4357 0
M  V30 8819 H 804.221 4.35016 2.14218 0
M  V30 8820 N 805.565 -0.825799 1.34232 0
M  V30 8821 C 806.475 -1.9684 1.27638 0
M  V30 8822 C 807.491 -1.73018 0.184569 0
M  V30 8823 O 808.667 -1.97172 0.410525 0
M  V30 8824 C 805.732 -3.31084 1.02879 0
M  V30 8825 C 804.793 -3.67933 2.21188 0
M  V30 8826 C 804.026 -4.95772 1.976 0
M  V30 8827 O 804.249 -5.62721 0.93281 0
M  V30 8828 O 803.183 -5.30431 2.84477 0
M  V30 8829 H 807.009 -2.05346 2.23756 0
M  V30 8830 H 804.594 -0.960772 1.1441 0
M  V30 8831 H 806.476 -4.11492 0.908406 0
M  V30 8832 H 805.151 -3.23552 0.0979821 0
M  V30 8833 H 804.058 -2.87981 2.38784 0
M  V30 8834 H 805.391 -3.80147 3.12648 0
M  V30 8835 N 807.043 -1.17915 -1.04565 0
M  V30 8836 C 807.953 -0.916449 -2.15959 0
M  V30 8837 C 808.969 0.117655 -1.73602 0
M  V30 8838 O 810.145 -0.063089 -2.01301 0
M  V30 8839 C 807.21 -0.440262 -3.43893 0
M  V30 8840 C 806.271 -1.54172 -4.00661 0
M  V30 8841 C 805.504 -1.08816 -5.22489 0
M  V30 8842 O 805.727 0.0551547 -5.70373 0
M  V30 8843 O 804.661 -1.88383 -5.7166 0
M  V30 8844 H 808.487 -1.8484 -2.40972 0
M  V30 8845 H 806.072 -0.960552 -1.14428 0
M  V30 8846 H 807.954 -0.182537 -4.21004 0
M  V30 8847 H 806.629 0.46346 -3.20365 0
M  V30 8848 H 805.536 -1.85341 -3.24961 0
M  V30 8849 H 806.869 -2.42139 -4.2852 0
M  V30 8850 N 808.521 1.23394 -0.980386 0
M  V30 8851 C 809.798 1.87242 -0.565667 0
M  V30 8852 C 810.178 1.88151 0.957197 0
M  V30 8853 O 809.526 1.36309 1.8339 0
M  V30 8854 C 809.736 3.28743 -1.17172 0
M  V30 8855 C 811.084 4.05335 -1.26446 0
M  V30 8856 O 812.108 3.37962 -1.12517 0
M  V30 8857 O 810.967 5.25908 -1.48604 0
M  V30 8858 H 808.061 0.80477 -0.190459 0
M  V30 8859 H 810.607 1.3127 -1.07547 0
M  V30 8860 H 809.379 3.22647 -2.21392 0
M  V30 8861 H 809.002 3.92305 -0.646739 0
M  V30 8862 N 809.999 0.752036 1.385 0
M  V30 8863 C 810.929 0.138718 2.33088 0
M  V30 8864 C 811.91 -0.705318 1.54788 0
M  V30 8865 O 813.095 -0.646821 1.83112 0
M  V30 8866 C 810.225 -0.75641 3.38963 0
M  V30 8867 C 809.179 -0.0152239 4.27997 0
M  V30 8868 C 808.505 -1.0285 5.24715 0
M  V30 8869 C 809.805 1.15226 5.09431 0
M  V30 8870 H 811.499 0.928852 2.84627 0
M  V30 8871 H 809.045 0.448111 1.3685 0
M  V30 8872 H 810.998 -1.19513 4.04097 0
M  V30 8873 H 809.722 -1.57885 2.85902 0
M  V30 8874 H 808.381 0.404061 3.64366 0
M  V30 8875 H 808.029 -1.84496 4.67943 0
M  V30 8876 H 807.729 -0.537238 5.85139 0
M  V30 8877 H 809.253 -1.46657 5.92726 0
M  V30 8878 H 810.667 0.791161 5.67815 0
M  V30 8879 H 809.064 1.57428 5.79082 0
M  V30 8880 H 810.134 1.9659 4.43261 0
M  V30 8881 N 811.477 -1.49425 0.500989 0
M  V30 8882 C 812.424 -2.29126 -0.277443 0
M  V30 8883 C 813.394 -1.35522 -0.960363 0
M  V30 8884 O 814.579 -1.64479 -0.967027 0
M  V30 8885 C 811.719 -3.18193 -1.33593 0
M  V30 8886 C 810.832 -4.26854 -0.664791 0
M  V30 8887 C 809.967 -5.03137 -1.70372 0
M  V30 8888 C 809.006 -6.03635 -1.01445 0
M  V30 8889 N 808.143 -6.73083 -1.99758 0
M  V30 8890 H 812.983 -2.95187 0.408458 0
M  V30 8891 H 810.52 -1.45546 0.213275 0
M  V30 8892 H 812.478 -3.68207 -1.96161 0
M  V30 8893 H 811.108 -2.54116 -1.9906 0
M  V30 8894 H 810.16 -3.80328 0.0741708 0
M  V30 8895 H 811.472 -4.9865 -0.122197 0
M  V30 8896 H 810.626 -5.5702 -2.40445 0
M  V30 8897 H 809.365 -4.31114 -2.28017 0
M  V30 8898 H 808.37 -5.48984 -0.299496 0
M  V30 8899 H 809.595 -6.77644 -0.444497 0
M  V30 8900 H 807.541 -6.03832 -2.56365 0
M  V30 8901 H 807.458 -7.40855 -1.50565 0
M  V30 8902 H 808.726 -7.3157 -2.69119 0
M  V30 8903 N 812.955 -0.234822 -1.55841 0
M  V30 8904 C 813.902 0.6698 -2.20867 0
M  V30 8905 C 814.872 1.18042 -1.16856 0
M  V30 8906 O 816.057 1.23709 -1.45261 0
M  V30 8907 C 813.197 1.86646 -2.90271 0
M  V30 8908 C 812.31 1.39351 -4.08908 0
M  V30 8909 C 811.445 2.54878 -4.66059 0
M  V30 8910 C 810.484 2.04384 -5.76969 0
M  V30 8911 N 809.621 3.13233 -6.28355 0
M  V30 8912 H 814.461 0.10858 -2.97802 0
M  V30 8913 H 811.998 0.041836 -1.4704 0
M  V30 8914 H 813.956 2.56926 -3.28702 0
M  V30 8915 H 812.586 2.40035 -2.15831 0
M  V30 8916 H 811.638 0.585173 -3.75872 0
M  V30 8917 H 812.95 0.983356 -4.89011 0
M  V30 8918 H 812.104 3.33219 -5.07001 0
M  V30 8919 H 810.843 2.99188 -3.85146 0
M  V30 8920 H 809.848 1.24509 -5.35516 0
M  V30 8921 H 811.073 1.61057 -6.59725 0
M  V30 8922 H 809.019 3.57 -5.50352 0
M  V30 8923 H 808.936 2.76511 -7.03618 0
M  V30 8924 H 810.204 3.91669 -6.73955 0
M  V30 8925 N 814.433 1.57553 0.0384317 0
M  V30 8926 C 815.365 2.02726 1.06934 0
M  V30 8927 C 816.378 0.938502 1.33026 0
M  V30 8928 O 817.567 1.21595 1.30678 0
M  V30 8929 C 814.667 2.37958 2.41308 0
M  V30 8930 C 813.84 3.69098 2.34703 0
M  V30 8931 C 812.899 3.91623 3.51451 0
M  V30 8932 O 811.925 4.628 3.31368 0
M  V30 8933 N 813.127 3.36538 4.72993 0
M  V30 8934 H 815.892 2.91781 0.684381 0
M  V30 8935 H 813.453 1.60307 0.226542 0
M  V30 8936 H 815.445 2.50172 3.18113 0
M  V30 8937 H 814.015 1.54621 2.71682 0
M  V30 8938 H 813.235 3.67325 1.43059 0
M  V30 8939 H 814.523 4.55144 2.27424 0
M  V30 8940 H 813.921 2.78828 4.92211 0
M  V30 8941 H 812.478 3.54148 5.47195 0
M  V30 8942 N 815.911 -0.310526 1.54511 0
M  V30 8943 C 816.874 -1.3657 1.84068 0
M  V30 8944 C 817.874 -1.44123 0.713097 0
M  V30 8945 O 819.064 -1.43924 0.981399 0
M  V30 8946 C 816.196 -2.75162 2.01243 0
M  V30 8947 H 817.389 -1.1161 2.78358 0
M  V30 8948 H 814.942 -0.546699 1.46427 0
M  V30 8949 H 815.677 -3.05359 1.09208 0
M  V30 8950 H 815.462 -2.71071 2.83307 0
M  V30 8951 H 816.952 -3.51473 2.25514 0
M  V30 8952 N 817.389 -1.46805 -0.573248 0
M  V30 8953 C 818.352 -1.57655 -1.66366 0
M  V30 8954 C 819.352 -0.452905 -1.5429 0
M  V30 8955 O 820.542 -0.717502 -1.58737 0
M  V30 8956 C 817.674 -1.50584 -3.05839 0
M  V30 8957 H 818.867 -2.54842 -1.581 0
M  V30 8958 H 816.42 -1.34756 -0.791868 0
M  V30 8959 H 817.155 -0.547127 -3.19651 0
M  V30 8960 H 816.94 -2.32118 -3.16012 0
M  V30 8961 H 818.43 -1.61282 -3.85199 0
M  V30 8962 N 818.867 0.818669 -1.34668 0
M  V30 8963 C 819.777 1.9616 -1.2868 0
M  V30 8964 C 820.793 1.72918 -0.193742 0
M  V30 8965 O 821.969 1.96951 -0.420975 0
M  V30 8966 C 819.034 3.30534 -1.04633 0
M  V30 8967 C 818.095 3.66755 -2.23136 0
M  V30 8968 C 817.328 4.94717 -2.00227 0
M  V30 8969 O 817.551 5.62218 -0.96264 0
M  V30 8970 O 816.485 5.28915 -2.87286 0
M  V30 8971 H 820.311 2.04157 -2.24842 0
M  V30 8972 H 817.896 0.954691 -1.14917 0
M  V30 8973 H 819.778 4.11005 -0.930216 0
M  V30 8974 H 818.453 3.23495 -0.115139 0
M  V30 8975 H 817.36 2.8671 -2.40308 0
M  V30 8976 H 818.693 3.78484 -3.1466 0
M  V30 8977 N 820.346 1.18468 1.03938 0
M  V30 8978 C 821.576 1.0043 1.80547 0
M  V30 8979 C 821.984 -0.450407 1.83761 0
M  V30 8980 O 821.327 -1.32463 1.27276 0
M  V30 8981 C 821.389 1.48437 3.27424 0
M  V30 8982 C 821.053 2.96372 3.47869 0
M  V30 8983 C 822.05 3.94217 3.38953 0
M  V30 8984 C 819.735 3.34831 3.74424 0
M  V30 8985 C 821.729 5.28517 3.56298 0
M  V30 8986 C 819.416 4.69294 3.91416 0
M  V30 8987 C 820.414 5.65946 3.82354 0
M  V30 8988 O 820.102 6.97974 3.98858 0
M  V30 8989 H 819.834 0.354853 0.575374 0
M  V30 8990 H 822.388 1.57473 1.31876 0
M  V30 8991 H 820.618 0.857601 3.7707 0
M  V30 8992 H 822.307 1.2677 3.85596 0
M  V30 8993 H 823.073 3.6585 3.184 0
M  V30 8994 H 818.952 2.60161 3.80575 0
M  V30 8995 H 822.496 6.03943 3.49141 0
M  V30 8996 H 818.393 4.97361 4.11463 0
M  V30 8997 H 819.161 7.04895 4.1601 0
M  V30 8998 N 821.824 -1.22873 0.986916 0
M  V30 8999 C 823.24 -1.43594 0.696633 0
M  V30 9000 C 823.44 -1.87622 -0.734869 0
M  V30 9001 O 822.496 -2.02633 -1.50652 0
M  V30 9002 C 823.809 -2.48231 1.69711 0
M  V30 9003 C 825.357 -2.62037 1.71188 0
M  V30 9004 C 825.832 -3.6989 2.70084 0
M  V30 9005 N 827.323 -3.77341 2.68641 0
M  V30 9006 C 828.058 -4.6037 3.41829 0
M  V30 9007 N 827.554 -5.47438 4.24598 0
M  V30 9008 N 829.347 -4.54626 3.30563 0
M  V30 9009 H 821.498 -0.925982 1.91153 0
M  V30 9010 H 823.761 -0.46866 0.824052 0
M  V30 9011 H 823.467 -2.22812 2.72117 0
M  V30 9012 H 823.341 -3.46731 1.48516 0
M  V30 9013 H 825.728 -2.86803 0.694837 0
M  V30 9014 H 825.809 -1.63831 1.96451 0
M  V30 9015 H 825.453 -3.45872 3.71934 0
M  V30 9016 H 825.383 -4.67652 2.42093 0
M  V30 9017 H 827.874 -3.15124 2.08578 0
M  V30 9018 H 828.187 -6.078 4.77283 0
M  V30 9019 H 826.532 -5.4704 4.28687 0
M  V30 9020 H 829.723 -3.85627 2.65347 0
M  V30 9021 H 829.896 -5.19103 3.8786 0
M  V30 9022 N 823.302 -0.75937 -1.38099 0
M  V30 9023 C 824.212 -0.13774 -2.34195 0
M  V30 9024 C 825.228 0.693985 -1.59561 0
M  V30 9025 O 826.404 0.616792 -1.91723 0
M  V30 9026 C 823.469 0.740535 -3.38699 0
M  V30 9027 C 822.53 -0.106225 -4.29169 0
M  V30 9028 C 821.763 0.730225 -5.28681 0
M  V30 9029 O 821.986 1.96796 -5.35376 0
M  V30 9030 O 820.92 0.145969 -6.01723 0
M  V30 9031 H 824.746 -0.931512 -2.89061 0
M  V30 9032 H 822.331 -0.520345 -1.40046 0
M  V30 9033 H 824.213 1.24232 -4.02672 0
M  V30 9034 H 822.888 1.51271 -2.8618 0
M  V30 9035 H 821.795 -0.654088 -3.68337 0
M  V30 9036 H 823.128 -0.841186 -4.84959 0
M  V30 9037 N 824.78 1.49157 -0.508906 0
M  V30 9038 C 826.029 2.0167 0.0346854 0
M  V30 9039 C 826.342 1.39302 1.37311 0
M  V30 9040 O 827.548 1.83189 2.00385 0
M  V30 9041 C 826.004 3.59725 0.112261 0
M  V30 9042 C 825.612 4.31069 -1.21999 0
M  V30 9043 C 827.356 4.20155 0.605798 0
M  V30 9044 C 825.263 5.81001 -1.10415 0
M  V30 9045 H 824.193 0.753814 0.0167355 0
M  V30 9046 H 826.844 1.7162 -0.649518 0
M  V30 9047 H 825.226 3.86525 0.861087 0
M  V30 9048 H 826.4 4.15962 -1.98273 0
M  V30 9049 H 824.715 3.82418 -1.64759 0
M  V30 9050 H 827.312 5.29964 0.710102 0
M  V30 9051 H 827.655 3.84051 1.60656 0
M  V30 9052 H 828.188 3.97705 -0.0867239 0
M  V30 9053 H 824.927 6.21643 -2.07941 0
M  V30 9054 H 824.447 5.9858 -0.382428 0
M  V30 9055 H 826.126 6.42207 -0.786116 0
M  V30 9056 N 826.258 0.243083 1.55714 0
M  V30 9057 C 827.535 -0.432851 1.90751 0
M  V30 9058 C 827.915 -1.76153 1.16333 0
M  V30 9059 O 827.263 -2.26783 0.279565 0
M  V30 9060 C 827.473 -0.604685 3.43722 0
M  V30 9061 C 828.821 -0.90231 4.14902 0
M  V30 9062 O 829.845 -0.690689 3.49439 0
M  V30 9063 O 828.704 -1.3051 5.30688 0
M  V30 9064 H 825.798 -0.231835 0.79384 0
M  V30 9065 H 828.344 0.286867 1.67258 0
M  V30 9066 H 827.116 0.331655 3.89892 0
M  V30 9067 H 826.739 -1.37509 3.73065 0
M  V30 9068 N 827.736 -1.57571 -0.0300757 0
M  V30 9069 C 828.683 -2.06492 -1.03101 0
M  V30 9070 C 829.653 -0.953862 -1.3598 0
M  V30 9071 O 830.838 -1.22436 -1.46335 0
M  V30 9072 C 827.978 -2.54826 -2.32718 0
M  V30 9073 C 827.091 -3.79718 -2.06006 0
M  V30 9074 C 826.226 -4.16668 -3.29487 0
M  V30 9075 C 825.265 -5.3448 -2.98324 0
M  V30 9076 N 824.402 -5.66867 -4.14254 0
M  V30 9077 H 829.242 -2.91755 -0.606877 0
M  V30 9078 H 826.779 -1.44252 -0.288038 0
M  V30 9079 H 828.737 -2.80916 -3.08451 0
M  V30 9080 H 827.367 -1.72481 -2.72856 0
M  V30 9081 H 826.419 -3.60718 -1.20774 0
M  V30 9082 H 827.731 -4.65569 -1.79017 0
M  V30 9083 H 826.885 -4.43881 -4.13588 0
M  V30 9084 H 825.624 -3.29466 -3.59588 0
M  V30 9085 H 824.629 -5.07021 -2.12625 0
M  V30 9086 H 825.854 -6.23334 -2.69502 0
M  V30 9087 H 823.8 -4.82625 -4.44308 0
M  V30 9088 H 823.717 -6.47226 -3.90685 0
M  V30 9089 H 824.985 -5.98656 -4.99231 0
M  V30 9090 N 829.214 0.302327 -1.54673 0
M  V30 9091 C 830.63 0.647911 -1.45857 0
M  V30 9092 C 830.83 1.90773 -0.64869 0
M  V30 9093 O 829.886 2.52018 -0.155865 0
M  V30 9094 C 831.199 0.802144 -2.89804 0
M  V30 9095 C 832.747 0.898114 -2.99838 0
M  V30 9096 C 833.222 1.08436 -4.44978 0
M  V30 9097 N 834.713 1.15059 -4.48682 0
M  V30 9098 C 835.448 1.31296 -5.58166 0
M  V30 9099 N 834.944 1.4444 -6.77576 0
M  V30 9100 N 836.737 1.34174 -5.45851 0
M  V30 9101 H 828.888 -0.525428 -2.05798 0
M  V30 9102 H 831.151 -0.173423 -0.932002 0
M  V30 9103 H 830.857 -0.0526531 -3.51661 0
M  V30 9104 H 830.731 1.69155 -3.37145 0
M  V30 9105 H 833.118 1.7434 -2.38096 0
M  V30 9106 H 833.199 -0.0152752 -2.55795 0
M  V30 9107 H 832.843 0.243843 -5.07314 0
M  V30 9108 H 832.773 2.01195 -4.8665 0
M  V30 9109 H 835.264 1.0626 -3.62653 0
M  V30 9110 H 835.577 1.56582 -7.56771 0
M  V30 9111 H 833.922 1.41499 -6.80443 0
M  V30 9112 H 837.113 1.23516 -4.5151 0
M  V30 9113 H 837.286 1.46485 -6.31226 0
M  V30 9114 N 830.692 1.47107 0.565454 0
M  V30 9115 C 831.625 1.53505 1.68853 0
M  V30 9116 C 832.603 0.387806 1.57908 0
M  V30 9117 O 833.787 0.594433 1.78882 0
M  V30 9118 C 830.914 1.42985 3.07039 0
M  V30 9119 C 829.96 2.62109 3.36454 0
M  V30 9120 S 830.793 4.2436 3.26617 0
M  V30 9121 C 831.949 4.16378 4.67312 0
M  V30 9122 H 832.182 2.48522 1.63169 0
M  V30 9123 H 829.715 1.35204 0.745609 0
M  V30 9124 H 831.673 1.37602 3.8675 0
M  V30 9125 H 830.334 0.493671 3.10196 0
M  V30 9126 H 829.527 2.50788 4.37174 0
M  V30 9127 H 829.129 2.64571 2.64345 0
M  V30 9128 H 831.421 3.84123 5.58082 0
M  V30 9129 H 832.364 5.17156 4.83689 0
M  V30 9130 H 832.772 3.47363 4.44971 0
M  V30 9131 N 832.17 -0.811516 1.35101 0
M  V30 9132 C 833.118 -1.94449 1.27642 0
M  V30 9133 C 834.112 -1.68522 0.172287 0
M  V30 9134 O 835.318 -1.76799 0.337967 0
M  V30 9135 H 831.693 -0.638776 0.396824 0
M  V30 9136 H 833.664 -1.97861 2.23369 0
M  V30 9137 C 832.413 -3.31139 1.06029 0
M  V30 9138 H 831.736 -3.51644 1.90227 0
M  V30 9139 H 833.176 -4.10831 1.0485 0
M  V30 9140 C 831.635 -3.36072 -0.236039 0
M  V30 9141 O 832.165 -3.82292 -1.23353 0
M  V30 9142 N 830.371 -2.89314 -0.273107 0
M  V30 9143 H 829.918 -2.51893 0.539211 0
M  V30 9144 H 829.876 -2.92996 -1.1402 0
M  V30 9145 N 833.648 -1.19017 -1.03309 0
M  V30 9146 C 834.873 -1.01598 -1.80811 0
M  V30 9147 C 835.298 0.430773 -1.83101 0
M  V30 9148 O 834.656 1.30946 -1.25391 0
M  V30 9149 C 834.704 -1.5845 -3.23923 0
M  V30 9150 O 833.808 -0.810972 -4.04348 0
M  V30 9151 H 833.149 -0.359398 -0.558327 0
M  V30 9152 H 835.679 -1.57945 -1.30055 0
M  V30 9153 H 835.689 -1.61486 -3.74682 0
M  V30 9154 H 834.364 -2.63752 -3.21571 0
M  V30 9155 H 832.941 -0.85353 -3.63 0
M  V30 9156 N 835.127 1.22348 -0.993418 0
M  V30 9157 C 836.376 1.90422 -0.665019 0
M  V30 9158 C 836.689 1.78199 0.806512 0
M  V30 9159 O 837.895 2.41193 1.24652 0
M  V30 9160 C 836.351 3.41403 -1.13893 0
M  V30 9161 C 835.959 3.62262 -2.63572 0
M  V30 9162 C 837.703 4.15175 -0.884884 0
M  V30 9163 C 835.61 5.06947 -3.04564 0
M  V30 9164 H 834.54 0.713073 -0.245037 0
M  V30 9165 H 837.191 1.3856 -1.20305 0
M  V30 9166 H 835.573 3.9245 -0.529027 0
M  V30 9167 H 836.747 3.21705 -3.29913 0
M  V30 9168 H 835.062 3.01824 -2.86865 0
M  V30 9169 H 837.659 5.21813 -1.16684 0
M  V30 9170 H 838.002 4.15915 0.178982 0
M  V30 9171 H 838.535 3.70157 -1.45701 0
M  V30 9172 H 835.274 5.11346 -4.10128 0
M  V30 9173 H 834.794 5.48404 -2.42927 0
M  V30 9174 H 836.473 5.75374 -2.95894 0
M  V30 9175 N 836.605 0.766683 1.37694 0
M  V30 9176 C 837.552 0.147725 2.30327 0
M  V30 9177 C 838.522 -0.695366 1.50844 0
M  V30 9178 O 839.707 -0.64878 1.79431 0
M  V30 9179 C 836.847 -0.72935 3.37305 0
M  V30 9180 C 835.96 0.129795 4.31805 0
M  V30 9181 C 835.095 -0.751511 5.25857 0
M  V30 9182 C 834.134 0.110475 6.12 0
M  V30 9183 N 833.271 -0.728522 6.9831 0
M  V30 9184 H 838.111 0.943204 2.82679 0
M  V30 9185 H 835.648 0.476736 1.3916 0
M  V30 9186 H 837.606 -1.25263 3.97951 0
M  V30 9187 H 836.236 -1.49048 2.86329 0
M  V30 9188 H 835.288 0.770829 3.72508 0
M  V30 9189 H 836.6 0.794923 4.92425 0
M  V30 9190 H 835.754 -1.34146 5.91684 0
M  V30 9191 H 834.493 -1.45034 4.65636 0
M  V30 9192 H 833.498 0.712999 5.45157 0
M  V30 9193 H 834.723 0.806557 6.74293 0
M  V30 9194 H 832.669 -1.41206 6.40622 0
M  V30 9195 H 832.586 -0.12058 7.55904 0
M  V30 9196 H 833.854 -1.30303 7.68532 0
M  V30 9197 N 838.083 -1.48885 0.516809 0
M  V30 9198 C 839.494 -1.86557 0.0729921 0
M  V30 9199 C 839.845 -1.42767 -1.34581 0
M  V30 9200 O 838.97 -0.812514 -2.00567 0
M  V30 9201 C 839.565 -3.38567 0.125686 0
M  V30 9202 C 838.124 -3.75481 -0.262867 0
M  V30 9203 C 837.271 -2.72913 0.491281 0
M  V30 9204 H 840.222 -1.40978 0.728767 0
M  V30 9205 H 840.243 -3.74629 -0.665831 0
M  V30 9206 H 839.755 -3.70408 1.15842 0
M  V30 9207 H 837.856 -3.49251 -1.29824 0
M  V30 9208 H 837.969 -4.79052 0.067579 0
M  V30 9209 H 836.333 -2.54627 -0.0608525 0
M  V30 9210 H 837.116 -3.07599 1.5244 0
M  V30 9211 N 839.561 -0.251338 -1.55583 0
M  V30 9212 C 840.838 0.422729 -1.90977 0
M  V30 9213 C 841.218 1.75534 -1.17265 0
M  V30 9214 O 840.566 2.26632 -0.291588 0
M  V30 9215 C 840.776 0.586448 -3.44037 0
M  V30 9216 C 842.124 0.880294 -4.15375 0
M  V30 9217 O 843.148 0.672148 -3.49801 0
M  V30 9218 O 842.007 1.27694 -5.31372 0
M  V30 9219 H 839.101 0.227622 -0.795058 0
M  V30 9220 H 841.647 -0.295733 -1.67103 0
M  V30 9221 H 840.419 -0.352327 -3.89711 0
M  V30 9222 H 840.042 1.35528 -3.73789 0
M  V30 9223 N 841.039 1.57585 0.0217189 0
M  V30 9224 C 841.969 2.10073 1.01939 0
M  V30 9225 C 842.95 1.0049 1.37243 0
M  V30 9226 O 844.135 1.28055 1.45999 0
M  V30 9227 C 841.265 2.58618 2.31806 0
M  V30 9228 C 840.219 3.72531 2.10724 0
M  V30 9229 C 839.545 4.07309 3.46415 0
M  V30 9230 C 840.845 5.00672 1.48743 0
M  V30 9231 H 842.539 2.9368 0.582432 0
M  V30 9232 H 840.085 1.41277 0.278715 0
M  V30 9233 H 842.038 2.9396 3.01936 0
M  V30 9234 H 840.762 1.72104 2.77575 0
M  V30 9235 H 839.421 3.37549 1.43025 0
M  V30 9236 H 839.069 3.17851 3.89846 0
M  V30 9237 H 838.769 4.84042 3.33132 0
M  V30 9238 H 840.293 4.45192 4.17895 0
M  V30 9239 H 841.707 5.33925 2.088 0
M  V30 9240 H 840.104 5.82065 1.46013 0
M  V30 9241 H 841.174 4.82769 0.45408 0
M  V30 9242 N 842.517 -0.29412 1.54831 0
M  V30 9243 C 843.766 -1.02614 1.73647 0
M  V30 9244 C 844.079 -1.88193 0.533162 0
M  V30 9245 O 845.285 -2.64713 0.603275 0
M  V30 9246 C 843.741 -1.87417 3.07251 0
M  V30 9247 C 843.349 -1.06806 4.35082 0
M  V30 9248 C 845.093 -2.60176 3.35423 0
M  V30 9249 C 843 -1.90926 5.59733 0
M  V30 9250 H 841.93 -0.386834 0.647206 0
M  V30 9251 H 844.581 -0.282789 1.81308 0
M  V30 9252 H 842.963 -2.65765 2.93572 0
M  V30 9253 H 844.137 -0.330226 4.59615 0
M  V30 9254 H 842.452 -0.455979 4.13896 0
M  V30 9255 H 845.049 -3.23476 4.25755 0
M  V30 9256 H 845.392 -3.29365 2.54606 0
M  V30 9257 H 845.925 -1.88871 3.50103 0
M  V30 9258 H 842.664 -1.26194 6.43238 0
M  V30 9259 H 842.184 -2.62363 5.39375 0
M  V30 9260 H 843.863 -2.48807 5.97247 0
M  V30 9261 N 843.995 -1.47404 -0.557645 0
M  V30 9262 C 844.927 -1.55917 -1.67995 0
M  V30 9263 C 845.94 -0.445411 -1.56588 0
M  V30 9264 O 847.129 -0.714999 -1.63554 0
M  V30 9265 C 844.229 -1.44697 -3.06457 0
M  V30 9266 C 843.402 -2.70633 -3.43622 0
M  V30 9267 C 842.461 -2.53256 -4.61246 0
M  V30 9268 O 841.487 -3.27068 -4.65849 0
M  V30 9269 N 842.689 -1.61053 -5.57711 0
M  V30 9270 H 845.454 -2.52694 -1.61139 0
M  V30 9271 H 843.015 -1.43778 -0.744271 0
M  V30 9272 H 845.007 -1.30806 -3.82978 0
M  V30 9273 H 843.577 -0.560039 -3.07542 0
M  V30 9274 H 842.797 -2.99288 -2.56555 0
M  V30 9275 H 844.085 -3.5424 -3.65228 0
M  V30 9276 H 843.483 -1.00235 -5.56749 0
M  V30 9277 H 842.04 -1.53115 -6.33561 0
M  V30 9278 N 845.473 0.80434 -1.35529 0
M  V30 9279 C 846.403 1.93086 -1.31301 0
M  V30 9280 C 847.384 1.69068 -0.187044 0
M  V30 9281 O 848.569 1.90399 -0.382359 0
M  V30 9282 C 845.699 3.29867 -1.0865 0
M  V30 9283 C 844.653 3.68373 -2.17911 0
M  V30 9284 C 843.979 5.0334 -1.80423 0
M  V30 9285 C 845.279 3.78516 -3.59893 0
M  V30 9286 H 846.973 1.96882 -2.25561 0
M  V30 9287 H 844.519 0.945841 -1.08581 0
M  V30 9288 H 846.472 4.08281 -1.04331 0
M  V30 9289 H 845.196 3.2642 -0.108359 0
M  V30 9290 H 843.855 2.92247 -2.21331 0
M  V30 9291 H 843.503 4.96399 -0.812213 0
M  V30 9292 H 843.203 5.30074 -2.53565 0
M  V30 9293 H 844.727 5.84191 -1.77633 0
M  V30 9294 H 846.141 4.47155 -3.58783 0
M  V30 9295 H 844.538 4.16721 -4.31814 0
M  V30 9296 H 845.608 2.8001 -3.95882 0
M  V30 9297 N 846.951 1.19563 1.02676 0
M  V30 9298 C 848.367 0.948304 1.28372 0
M  V30 9299 C 848.567 -0.378096 1.97921 0
M  V30 9300 O 847.623 -1.1091 2.26838 0
M  V30 9301 C 848.936 2.12381 2.12873 0
M  V30 9302 C 850.484 2.16366 2.26174 0
M  V30 9303 C 850.959 3.33374 3.14048 0
M  V30 9304 N 852.45 3.33323 3.21636 0
M  V30 9305 C 853.185 4.20504 3.89825 0
M  V30 9306 N 852.681 5.17845 4.60227 0
M  V30 9307 N 854.474 4.08375 3.86246 0
M  V30 9308 H 846.625 2.04899 0.559485 0
M  V30 9309 H 848.888 0.89606 0.309484 0
M  V30 9310 H 848.594 3.08383 1.69094 0
M  V30 9311 H 848.468 2.09621 3.1359 0
M  V30 9312 H 850.855 1.20933 2.69182 0
M  V30 9313 H 850.936 2.23179 1.25 0
M  V30 9314 H 850.58 4.29087 2.71747 0
M  V30 9315 H 850.51 3.23798 4.15286 0
M  V30 9316 H 853.001 2.62863 2.71498 0
M  V30 9317 H 853.314 5.80712 5.09896 0
M  V30 9318 H 851.659 5.21791 4.59085 0
M  V30 9319 H 854.85 3.31606 3.30386 0
M  V30 9320 H 855.023 4.76532 4.39114 0
M  V30 9321 N 848.429 -1.21819 0.999893 0
M  V30 9322 C 849.376 -2.24003 0.556005 0
M  V30 9323 C 850.346 -1.60825 -0.415287 0
M  V30 9324 O 851.531 -1.88123 -0.318481 0
M  V30 9325 C 848.671 -3.44904 -0.116289 0
M  V30 9326 C 847.784 -4.22573 0.897574 0
M  V30 9327 C 846.919 -5.30831 0.198073 0
M  V30 9328 C 845.958 -6.00225 1.19983 0
M  V30 9329 N 845.095 -7.00111 0.528157 0
M  V30 9330 H 849.935 -2.61334 1.43208 0
M  V30 9331 H 847.472 -1.28431 0.717205 0
M  V30 9332 H 849.43 -4.13908 -0.523055 0
M  V30 9333 H 848.06 -3.08315 -0.956108 0
M  V30 9334 H 847.112 -3.52797 1.42262 0
M  V30 9335 H 848.424 -4.70363 1.66013 0
M  V30 9336 H 847.578 -6.06121 -0.265065 0
M  V30 9337 H 846.317 -4.84033 -0.596924 0
M  V30 9338 H 845.322 -5.23711 1.67353 0
M  V30 9339 H 846.547 -6.4911 1.99582 0
M  V30 9340 H 844.493 -6.55534 -0.247276 0
M  V30 9341 H 844.41 -7.45943 1.22904 0
M  V30 9342 H 845.678 -7.7945 0.0880543 0
M  V30 9343 N 849.908 -0.773975 -1.37286 0
M  V30 9344 C 851.136 -0.350758 -2.03905 0
M  V30 9345 C 851.551 1.02779 -1.58373 0
M  V30 9346 O 850.908 1.65646 -0.766009 0
M  V30 9347 C 850.959 -0.387335 -3.59419 0
M  V30 9348 O 850.68 -1.7115 -4.03286 0
M  V30 9349 C 852.181 0.047198 -4.43275 0
M  V30 9350 H 849.401 -0.146663 -0.654775 0
M  V30 9351 H 851.945 -1.04852 -1.75574 0
M  V30 9352 H 850.1 0.261865 -3.86514 0
M  V30 9353 H 850.514 -1.65166 -4.97816 0
M  V30 9354 H 851.988 -0.0295474 -5.51992 0
M  V30 9355 H 852.465 1.09786 -4.25257 0
M  V30 9356 H 853.071 -0.573899 -4.2141 0
M  V30 9357 N 851.386 1.48609 -0.524698 0
M  V30 9358 C 852.802 1.58557 -0.182199 0
M  V30 9359 C 853.002 1.52732 1.31435 0
M  V30 9360 O 852.058 1.41362 2.0922 0
M  V30 9361 C 853.371 2.90406 -0.78004 0
M  V30 9362 C 854.919 3.03924 -0.748293 0
M  V30 9363 C 855.394 4.38427 -1.32462 0
M  V30 9364 N 856.885 4.4498 -1.28635 0
M  V30 9365 C 857.62 5.47551 -1.70223 0
M  V30 9366 N 857.116 6.57103 -2.19515 0
M  V30 9367 N 858.909 5.38402 -1.61493 0
M  V30 9368 H 851.06 1.50638 -1.4974 0
M  V30 9369 H 853.323 0.714952 -0.622533 0
M  V30 9370 H 853.029 3.00308 -1.83052 0
M  V30 9371 H 852.903 3.76343 -0.254075 0
M  V30 9372 H 855.29 2.93638 0.293407 0
M  V30 9373 H 855.371 2.19611 -1.31167 0
M  V30 9374 H 855.015 4.49466 -2.36522 0
M  V30 9375 H 854.945 5.21418 -0.736967 0
M  V30 9376 H 857.436 3.66393 -0.92545 0
M  V30 9377 H 857.749 7.31499 -2.49257 0
M  V30 9378 H 856.094 6.58081 -2.23506 0
M  V30 9379 H 859.285 4.5171 -1.22785 0
M  V30 9380 H 859.458 6.18208 -1.94225 0
M  V30 9381 N 852.864 0.259585 1.55447 0
M  V30 9382 C 854.141 -0.412595 1.91199 0
M  V30 9383 C 854.521 -1.74909 1.18194 0
M  V30 9384 O 853.869 -2.26474 0.303603 0
M  V30 9385 C 854.079 -0.568195 3.44344 0
M  V30 9386 C 855.427 -0.858253 4.15836 0
M  V30 9387 O 856.451 -0.653588 3.50152 0
M  V30 9388 O 855.31 -1.24874 5.32042 0
M  V30 9389 H 852.404 -0.223403 0.796254 0
M  V30 9390 H 854.95 0.30459 1.66944 0
M  V30 9391 H 853.722 0.372989 3.89518 0
M  V30 9392 H 853.345 -1.33544 3.74502 0
M  V30 9393 N 854.342 -1.57594 -0.0133615 0
M  V30 9394 C 855.274 -2.04402 -1.03695 0
M  V30 9395 C 856.287 -0.959546 -1.31516 0
M  V30 9396 O 857.476 -1.23659 -1.28727 0
M  V30 9397 C 854.576 -2.41766 -2.37491 0
M  V30 9398 C 853.749 -3.72785 -2.28802 0
M  V30 9399 C 852.808 -3.97165 -3.45176 0
M  V30 9400 O 851.834 -4.68013 -3.23963 0
M  V30 9401 N 853.036 -3.44021 -4.67579 0
M  V30 9402 H 855.801 -2.92833 -0.637874 0
M  V30 9403 H 853.362 -1.60647 -0.20101 0
M  V30 9404 H 855.354 -2.55201 -3.14093 0
M  V30 9405 H 853.924 -1.58924 -2.69188 0
M  V30 9406 H 853.144 -3.69555 -1.37197 0
M  V30 9407 H 854.432 -4.58704 -2.20154 0
M  V30 9408 H 853.83 -2.86623 -4.87713 0
M  V30 9409 H 852.387 -3.62808 -5.41492 0
M  V30 9410 N 855.82 0.285905 -1.54985 0
M  V30 9411 C 857.05 1.03626 -1.78732 0
M  V30 9412 C 857.458 1.80896 -0.554377 0
M  V30 9413 O 856.801 1.77161 0.48578 0
M  V30 9414 C 856.863 2.05185 -2.95193 0
M  V30 9415 C 856.527 1.46973 -4.32722 0
M  V30 9416 C 857.524 0.891986 -5.12191 0
M  V30 9417 C 855.209 1.50081 -4.79355 0
M  V30 9418 C 857.203 0.353078 -6.36421 0
M  V30 9419 C 854.89 0.958037 -6.03544 0
M  V30 9420 C 855.888 0.385157 -6.81913 0
M  V30 9421 O 855.576 -0.149341 -8.03761 0
M  V30 9422 H 855.308 0.312416 -0.599477 0
M  V30 9423 H 857.862 0.326067 -2.02795 0
M  V30 9424 H 856.092 2.79928 -2.66791 0
M  V30 9425 H 857.781 2.66244 -3.0638 0
M  V30 9426 H 858.547 0.860762 -4.77301 0
M  V30 9427 H 854.426 1.9361 -4.18373 0
M  V30 9428 H 857.97 -0.0947181 -6.97536 0
M  V30 9429 H 853.867 0.986458 -6.37918 0
M  V30 9430 H 854.635 -0.0374719 -8.18491 0
M  V30 9431 N 857.298 1.47698 0.54982 0
M  V30 9432 C 858.228 1.63622 1.66583 0
M  V30 9433 C 859.209 0.485477 1.63025 0
M  V30 9434 O 860.394 0.715692 1.80531 0
M  V30 9435 C 857.524 1.65721 3.05211 0
M  V30 9436 C 856.478 2.80097 3.2362 0
M  V30 9437 C 855.804 2.67272 4.63109 0
M  V30 9438 C 857.104 4.21612 3.08286 0
M  V30 9439 H 858.798 2.57049 1.53512 0
M  V30 9440 H 856.344 1.23705 0.737099 0
M  V30 9441 H 858.297 1.75451 3.83138 0
M  V30 9442 H 857.021 0.688593 3.19258 0
M  V30 9443 H 855.68 2.69889 2.48104 0
M  V30 9444 H 855.328 1.68422 4.73965 0
M  V30 9445 H 855.028 3.44008 4.76374 0
M  V30 9446 H 856.552 2.78942 5.43161 0
M  V30 9447 H 857.966 4.32758 3.76024 0
M  V30 9448 H 856.363 4.99193 3.33057 0
M  V30 9449 H 857.433 4.39462 2.04942 0
M  V30 9450 N 858.776 -0.797141 1.35954 0
M  V30 9451 C 859.709 -1.91567 1.24005 0
M  V30 9452 C 860.687 -1.62112 0.125868 0
M  V30 9453 O 861.871 -1.86167 0.295638 0
M  V30 9454 C 858.998 -3.26204 0.911535 0
M  V30 9455 C 858.044 -3.74598 2.03909 0
M  V30 9456 S 858.877 -3.91276 3.656 0
M  V30 9457 C 860.033 -5.288 3.34846 0
M  V30 9458 H 860.266 -2.0141 2.18681 0
M  V30 9459 H 857.799 -0.955542 1.2128 0
M  V30 9460 H 859.757 -4.03979 0.728805 0
M  V30 9461 H 858.418 -3.14095 -0.0173159 0
M  V30 9462 H 857.611 -4.72137 1.7636 0
M  V30 9463 H 857.213 -3.03849 2.18064 0
M  V30 9464 H 859.505 -6.13117 2.8826 0
M  V30 9465 H 860.448 -5.61347 4.31619 0
M  V30 9466 H 860.856 -4.95534 2.70382 0
M  V30 9467 N 860.254 -1.20106 -1.0204 0
M  V30 9468 C 861.5 -1.02042 -1.75951 0
M  V30 9469 C 861.855 0.443229 -1.87225 0
M  V30 9470 O 861.148 1.32477 -1.38421 0
M  V30 9471 C 861.342 -1.63308 -3.17908 0
M  V30 9472 C 861.171 -3.15478 -3.20474 0
M  V30 9473 C 859.941 -3.84432 -3.27933 0
M  V30 9474 C 862.139 -4.12747 -3.06829 0
M  V30 9475 N 860.121 -5.23925 -3.19963 0
M  V30 9476 C 861.492 -5.38892 -3.06586 0
M  V30 9477 C 863.547 -4.03996 -2.91018 0
M  V30 9478 C 862.25 -6.57296 -2.92154 0
M  V30 9479 C 864.276 -5.22019 -2.77938 0
M  V30 9480 C 863.638 -6.47067 -2.78358 0
M  V30 9481 H 859.737 -0.427602 -0.654737 0
M  V30 9482 H 862.321 -1.52216 -1.21402 0
M  V30 9483 H 860.492 -1.15723 -3.7076 0
M  V30 9484 H 862.224 -1.38597 -3.80227 0
M  V30 9485 H 858.979 -3.35269 -3.34502 0
M  V30 9486 H 859.403 -5.9694 -3.19362 0
M  V30 9487 H 864.045 -3.0813 -2.8951 0
M  V30 9488 H 861.763 -7.5334 -2.92412 0
M  V30 9489 H 865.349 -5.17057 -2.66728 0
M  V30 9490 H 864.229 -7.36857 -2.6835 0
M  V30 9491 N 861.732 1.21287 -1.00634 0
M  V30 9492 C 862.662 2.25973 -0.588089 0
M  V30 9493 C 863.643 1.65527 0.391764 0
M  V30 9494 O 864.828 1.92179 0.279452 0
M  V30 9495 C 861.958 3.47197 0.0847336 0
M  V30 9496 C 860.912 4.20168 -0.815039 0
M  V30 9497 C 860.238 5.34699 -0.00855393 0
M  V30 9498 C 861.538 4.77416 -2.11828 0
M  V30 9499 H 863.232 2.61212 -1.46317 0
M  V30 9500 H 860.778 1.25563 -0.704985 0
M  V30 9501 H 862.731 4.19602 0.388821 0
M  V30 9502 H 861.455 3.11092 0.994456 0
M  V30 9503 H 860.114 3.49614 -1.10297 0
M  V30 9504 H 859.762 4.94837 0.902499 0
M  V30 9505 H 859.462 5.84449 -0.607664 0
M  V30 9506 H 860.986 6.09914 0.289317 0
M  V30 9507 H 862.4 5.41694 -1.87725 0
M  V30 9508 H 860.797 5.37561 -2.66736 0
M  V30 9509 H 861.867 3.96724 -2.78816 0
M  V30 9510 N 863.21 0.781244 1.36873 0
M  V30 9511 C 864.438 0.361566 2.03716 0
M  V30 9512 C 864.853 -1.01937 1.58916 0
M  V30 9513 O 864.21 -1.65237 0.774783 0
M  V30 9514 C 864.261 0.406391 3.59208 0
M  V30 9515 O 863.982 1.73286 4.02372 0
M  V30 9516 C 865.483 -0.0236894 4.43294 0
M  V30 9517 H 862.703 0.150133 0.653988 0
M  V30 9518 H 865.247 1.05781 1.75016 0
M  V30 9519 H 863.402 -0.241364 3.86647 0
M  V30 9520 H 863.816 1.67804 4.96933 0
M  V30 9521 H 865.29 0.0588205 5.51969 0
M  V30 9522 H 865.767 -1.07529 4.25833 0
M  V30 9523 H 866.373 0.59624 4.211 0
M  V30 9524 N 864.689 -1.48329 0.532571 0
M  V30 9525 C 865.621 -2.27652 -0.265931 0
M  V30 9526 C 866.634 -1.35522 -0.902083 0
M  V30 9527 O 867.823 -1.60552 -0.780088 0
M  V30 9528 C 864.923 -3.0899 -1.39207 0
M  V30 9529 C 864.096 -4.28915 -0.857349 0
M  V30 9530 C 863.155 -4.92044 -1.86493 0
M  V30 9531 O 862.181 -5.51181 -1.42084 0
M  V30 9532 N 863.383 -4.84518 -3.19723 0
M  V30 9533 H 866.148 -2.96821 0.414389 0
M  V30 9534 H 863.709 -1.57684 0.367066 0
M  V30 9535 H 865.701 -3.48091 -2.06433 0
M  V30 9536 H 864.271 -2.42224 -1.97601 0
M  V30 9537 H 863.491 -3.94199 -0.00901765 0
M  V30 9538 H 864.779 -5.0654 -0.479025 0
M  V30 9539 H 864.177 -4.37628 -3.58467 0
M  V30 9540 H 862.734 -5.27712 -3.82575 0
M  V30 9541 N 866.167 -0.267825 -1.55308 0
M  V30 9542 C 867.114 0.6228 -2.22238 0
M  V30 9543 C 868.084 1.15536 -1.19334 0
M  V30 9544 O 869.269 1.206 -1.47852 0
M  V30 9545 C 866.409 1.80447 -2.94164 0
M  V30 9546 C 865.522 1.30646 -4.11771 0
M  V30 9547 C 864.657 2.44935 -4.7136 0
M  V30 9548 C 863.696 1.92099 -5.81175 0
M  V30 9549 N 862.833 2.99834 -6.34857 0
M  V30 9550 H 867.673 0.0453874 -2.97965 0
M  V30 9551 H 865.21 0.0106371 -1.47096 0
M  V30 9552 H 867.168 2.49896 -3.34078 0
M  V30 9553 H 865.798 2.35403 -2.20874 0
M  V30 9554 H 864.85 0.505314 -3.77029 0
M  V30 9555 H 866.162 0.879409 -4.90987 0
M  V30 9556 H 865.316 3.2239 -5.13955 0
M  V30 9557 H 864.055 2.90951 -3.91406 0
M  V30 9558 H 863.06 1.13122 -5.38037 0
M  V30 9559 H 864.285 1.47027 -6.62993 0
M  V30 9560 H 862.231 3.45246 -5.578 0
M  V30 9561 H 862.148 2.61524 -7.09324 0
M  V30 9562 H 863.416 3.77286 -6.82111 0
M  V30 9563 N 867.645 1.57599 0.00500368 0
M  V30 9564 C 868.893 1.89973 0.68953 0
M  V30 9565 C 869.214 0.868531 1.7459 0
M  V30 9566 O 868.484 -0.0947367 1.95671 0
M  V30 9567 H 867.064 0.701153 0.25767 0
M  V30 9568 H 869.726 1.94869 -0.0347392 0
M  V30 9569 H 868.822 2.89584 1.16394 0
M  V30 9570 N 869.123 -0.277682 1.55134 0
M  V30 9571 C 870.369 -1.0114 1.7578 0
M  V30 9572 C 870.702 -1.86109 0.554719 0
M  V30 9573 O 869.977 -1.89275 -0.447813 0
M  V30 9574 C 870.26 -1.89789 3.06027 0
M  V30 9575 C 870.113 -1.07844 4.3668 0
M  V30 9576 C 871.432 -2.88577 3.32282 0
M  V30 9577 H 868.551 -0.366277 0.639539 0
M  V30 9578 H 871.193 -0.284155 1.87863 0
M  V30 9579 H 869.343 -2.51796 2.95856 0
M  V30 9580 H 871.015 -0.479432 4.58802 0
M  V30 9581 H 869.258 -0.381764 4.32117 0
M  V30 9582 H 869.929 -1.73179 5.24131 0
M  V30 9583 H 872.405 -2.36702 3.42215 0
M  V30 9584 H 871.281 -3.47749 4.2469 0
M  V30 9585 H 871.542 -3.63458 2.51696 0
M  V30 9586 N 870.601 -1.47988 -0.541979 0
M  V30 9587 C 872.017 -1.33843 -0.869383 0
M  V30 9588 C 872.217 -0.340374 -1.98604 0
M  V30 9589 O 871.273 0.242696 -2.51331 0
M  V30 9590 C 872.586 -2.73568 -1.24823 0
M  V30 9591 C 874.134 -2.81967 -1.3588 0
M  V30 9592 C 874.609 -4.22368 -1.77114 0
M  V30 9593 N 876.1 -4.24983 -1.84237 0
M  V30 9594 C 876.835 -5.30547 -2.17503 0
M  V30 9595 N 876.331 -6.46401 -2.49275 0
M  V30 9596 N 878.124 -5.17933 -2.18406 0
M  V30 9597 H 870.275 -2.11503 0.195001 0
M  V30 9598 H 872.538 -0.947681 0.0245862 0
M  V30 9599 H 872.244 -3.48107 -0.501435 0
M  V30 9600 H 872.118 -3.06322 -2.20106 0
M  V30 9601 H 874.505 -2.07692 -2.09638 0
M  V30 9602 H 874.586 -2.52848 -0.387478 0
M  V30 9603 H 874.23 -4.97155 -1.0392 0
M  V30 9604 H 874.16 -4.48922 -2.75275 0
M  V30 9605 H 876.651 -3.41411 -1.62009 0
M  V30 9606 H 876.964 -7.22698 -2.73729 0
M  V30 9607 H 875.309 -6.49696 -2.46821 0
M  V30 9608 H 878.5 -4.26445 -1.93034 0
M  V30 9609 H 878.673 -6.00307 -2.44 0
M  V30 9610 N 872.079 0.78992 -1.36375 0
M  V30 9611 C 873.011 1.91113 -1.26524 0
M  V30 9612 C 874.024 1.61747 -0.184851 0
M  V30 9613 O 875.213 1.73004 -0.439524 0
M  V30 9614 C 872.313 3.25908 -0.92937 0
M  V30 9615 C 871.486 3.83057 -2.11154 0
M  V30 9616 C 870.545 4.96289 -1.74881 0
M  V30 9617 O 869.571 5.12834 -2.46962 0
M  V30 9618 N 870.773 5.76478 -0.682193 0
M  V30 9619 H 873.538 2.00085 -2.23128 0
M  V30 9620 H 871.099 0.968165 -1.29762 0
M  V30 9621 H 873.091 3.99151 -0.667884 0
M  V30 9622 H 871.661 3.12556 -0.0524843 0
M  V30 9623 H 870.881 3.01808 -2.53586 0
M  V30 9624 H 872.169 4.1797 -2.90135 0
M  V30 9625 H 871.567 5.65638 -0.0836661 0
M  V30 9626 H 870.124 6.50026 -0.480529 0
M  V30 9627 N 873.557 1.20646 1.01402 0
M  V30 9628 C 874.504 0.957618 2.09996 0
M  V30 9629 C 875.474 -0.113115 1.65714 0
M  V30 9630 O 876.659 0.032142 1.90773 0
M  V30 9631 C 873.799 0.5186 3.41181 0
M  V30 9632 C 872.912 1.65777 3.98926 0
M  V30 9633 C 872.047 1.16881 5.18182 0
M  V30 9634 C 871.086 2.2809 5.68015 0
M  V30 9635 N 870.223 1.80392 6.7853 0
M  V30 9636 H 875.063 1.88732 2.30617 0
M  V30 9637 H 872.6 0.940703 1.13089 0
M  V30 9638 H 874.558 0.245367 4.16478 0
M  V30 9639 H 873.188 -0.3741 3.20625 0
M  V30 9640 H 872.24 2.04586 3.207 0
M  V30 9641 H 873.552 2.49507 4.31912 0
M  V30 9642 H 872.706 0.851694 6.00692 0
M  V30 9643 H 871.445 0.301434 4.86768 0
M  V30 9644 H 870.45 2.60614 4.84108 0
M  V30 9645 H 871.675 3.15308 6.01463 0
M  V30 9646 H 869.621 0.959856 6.4894 0
M  V30 9647 H 869.538 2.57701 7.10722 0
M  V30 9648 H 870.806 1.51688 7.64598 0
M  V30 9649 N 875.035 -1.20752 1.01276 0
M  V30 9650 C 875.982 -2.234 0.579732 0
M  V30 9651 C 876.952 -1.61256 -0.398206 0
M  V30 9652 O 878.137 -1.8845 -0.29851 0
M  V30 9653 C 875.277 -3.45008 -0.0797006 0
M  V30 9654 C 874.39 -4.21597 0.942343 0
M  V30 9655 C 873.525 -5.30591 0.254364 0
M  V30 9656 C 872.564 -5.98919 1.26343 0
M  V30 9657 N 871.701 -6.99511 0.602384 0
M  V30 9658 H 876.541 -2.59801 1.45971 0
M  V30 9659 H 874.078 -1.27663 0.730787 0
M  V30 9660 H 876.036 -4.1444 -0.479125 0
M  V30 9661 H 874.666 -3.09312 -0.923354 0
M  V30 9662 H 873.718 -3.51268 1.45996 0
M  V30 9663 H 875.03 -4.68576 1.70992 0
M  V30 9664 H 874.184 -6.06368 -0.200763 0
M  V30 9665 H 872.923 -4.84639 -0.545553 0
M  V30 9666 H 871.928 -5.21906 1.72898 0
M  V30 9667 H 873.153 -6.46957 2.06456 0
M  V30 9668 H 871.099 -6.55759 -0.177734 0
M  V30 9669 H 871.016 -7.44597 1.30809 0
M  V30 9670 H 872.284 -7.79313 0.17072 0
M  V30 9671 N 876.513 -0.788492 -1.36457 0
M  V30 9672 C 877.443 -0.200468 -2.32638 0
M  V30 9673 C 878.424 0.664031 -1.56603 0
M  V30 9674 O 879.609 0.598045 -1.84762 0
M  V30 9675 C 876.739 0.666274 -3.40849 0
M  V30 9676 C 875.693 -0.0982574 -4.27887 0
M  V30 9677 C 875.019 0.889018 -5.27258 0
M  V30 9678 C 876.319 -1.28692 -5.06197 0
M  V30 9679 H 878.013 -1.00399 -2.82065 0
M  V30 9680 H 875.559 -0.484237 -1.35614 0
M  V30 9681 H 877.512 1.08757 -4.07124 0
M  V30 9682 H 876.236 1.50249 -2.89987 0
M  V30 9683 H 874.895 -0.500525 -3.63167 0
M  V30 9684 H 874.543 1.72024 -4.7267 0
M  V30 9685 H 874.243 0.381909 -5.86358 0
M  V30 9686 H 875.767 1.30891 -5.96406 0
M  V30 9687 H 877.181 -0.941429 -5.65517 0
M  V30 9688 H 875.578 -1.72726 -5.74705 0
M  V30 9689 H 876.648 -2.08273 -4.37893 0
M  V30 9690 N 877.991 1.48044 -0.54043 0
M  V30 9691 C 878.939 2.31461 0.229862 0
M  V30 9692 C 879.933 1.41884 0.925495 0
M  V30 9693 O 881.139 1.58736 0.848689 0
M  V30 9694 H 877.514 0.746227 0.0929975 0
M  V30 9695 H 879.485 2.94297 -0.493118 0
M  V30 9696 C 878.234 3.24172 1.25729 0
M  V30 9697 H 877.557 3.93052 0.731426 0
M  V30 9698 H 878.997 3.85404 1.76747 0
M  V30 9699 C 877.456 2.4651 2.2964 0
M  V30 9700 O 877.986 2.19742 3.36268 0
M  V30 9701 N 876.192 2.07817 2.03127 0
M  V30 9702 H 875.739 2.29786 1.1643 0
M  V30 9703 H 875.697 1.56168 2.72872 0
M  V30 9704 N 879.47 0.276058 1.55163 0
M  V30 9705 C 880.38 -0.621066 2.2623 0
M  V30 9706 C 881.396 -1.16931 1.28853 0
M  V30 9707 O 882.572 -1.1994 1.61791 0
M  V30 9708 C 879.637 -1.78824 2.97023 0
M  V30 9709 C 878.698 -1.27657 4.09881 0
M  V30 9710 C 877.931 -2.38812 4.77289 0
M  V30 9711 O 878.154 -3.58188 4.43912 0
M  V30 9712 O 877.088 -2.06915 5.65217 0
M  V30 9713 H 880.914 -0.0453346 3.03666 0
M  V30 9714 H 878.499 0.0434275 1.49337 0
M  V30 9715 H 880.381 -2.46877 3.41511 0
M  V30 9716 H 879.056 -2.35104 2.22503 0
M  V30 9717 H 877.963 -0.56248 3.69847 0
M  V30 9718 H 879.296 -0.759509 4.86305 0
M  V30 9719 N 880.948 -1.576 0.00335426 0
M  V30 9720 C 882.194 -1.91833 -0.676149 0
M  V30 9721 C 882.549 -0.878079 -1.71194 0
M  V30 9722 O 881.842 0.109297 -1.91288 0
M  V30 9723 C 882.036 -3.3058 -1.35837 0
M  V30 9724 C 881.865 -4.48004 -0.390171 0
M  V30 9725 C 880.635 -5.053 0.000648493 0
M  V30 9726 C 882.833 -5.13142 0.344982 0
M  V30 9727 N 880.815 -6.06241 0.966709 0
M  V30 9728 C 882.186 -6.08944 1.16562 0
M  V30 9729 C 884.241 -4.96222 0.408457 0
M  V30 9730 C 882.944 -6.89649 2.04395 0
M  V30 9731 C 884.97 -5.77514 1.27403 0
M  V30 9732 C 884.332 -6.72912 2.08251 0
M  V30 9733 H 880.431 -0.750263 -0.220519 0
M  V30 9734 H 883.015 -1.94593 0.0644891 0
M  V30 9735 H 881.186 -3.28687 -2.06928 0
M  V30 9736 H 882.918 -3.52233 -1.99284 0
M  V30 9737 H 879.673 -4.72165 -0.368428 0
M  V30 9738 H 880.097 -6.61394 1.44521 0
M  V30 9739 H 884.739 -4.22316 -0.202324 0
M  V30 9740 H 882.457 -7.62878 2.66539 0
M  V30 9741 H 886.043 -5.66462 1.3271 0
M  V30 9742 H 884.923 -7.34721 2.74145 0
M  V30 9743 N 882.426 0.269451 -1.5528 0
M  V30 9744 C 883.356 1.33729 -1.91413 0
M  V30 9745 C 884.337 1.51348 -0.776391 0
M  V30 9746 O 885.522 1.64332 -1.03482 0
M  V30 9747 C 882.652 2.69618 -2.18914 0
M  V30 9748 C 881.606 2.66725 -3.34726 0
M  V30 9749 C 880.932 4.06199 -3.47716 0
M  V30 9750 C 882.232 2.25684 -4.71025 0
M  V30 9751 H 883.926 1.03736 -2.80854 0
M  V30 9752 H 881.472 0.497579 -1.3513 0
M  V30 9753 H 883.425 3.44436 -2.42779 0
M  V30 9754 H 882.149 3.01201 -1.26275 0
M  V30 9755 H 880.808 1.94365 -3.10834 0
M  V30 9756 H 880.456 4.3501 -2.52537 0
M  V30 9757 H 880.156 4.05157 -4.25583 0
M  V30 9758 H 881.68 4.8275 -3.73877 0
M  V30 9759 H 883.094 2.90225 -4.94411 0
M  V30 9760 H 881.491 2.35797 -5.51833 0
M  V30 9761 H 882.561 1.20819 -4.69607 0
M  V30 9762 N 883.904 1.48273 0.534124 0
M  V30 9763 C 885.152 1.55771 1.28762 0
M  V30 9764 C 885.473 0.231575 1.9362 0
M  V30 9765 O 884.743 -0.746533 1.81118 0
M  V30 9766 H 883.323 0.573851 0.47823 0
M  V30 9767 H 885.985 1.84712 0.621888 0
M  V30 9768 H 885.081 2.33657 2.06908 0
M  V30 9769 N 885.382 -0.782676 1.36792 0
M  V30 9770 C 886.33 -1.91698 1.31737 0
M  V30 9771 C 887.324 -1.68118 0.207994 0
M  V30 9772 O 888.53 -1.76042 0.375393 0
M  V30 9773 H 884.905 -0.630215 0.410284 0
M  V30 9774 H 886.876 -1.93078 2.27516 0
M  V30 9775 C 885.625 -3.28816 1.13029 0
M  V30 9776 H 884.948 -3.4753 1.97643 0
M  V30 9777 H 886.388 -4.08515 1.13541 0
M  V30 9778 C 884.847 -3.36497 -0.1647 0
M  V30 9779 O 885.377 -3.84822 -1.15216 0
M  V30 9780 N 883.583 -2.89828 -0.211678 0
M  V30 9781 H 883.13 -2.50693 0.59252 0
M  V30 9782 H 883.088 -2.95349 -1.07779 0
M  V30 9783 N 886.86 -1.21182 -1.00761 0
M  V30 9784 C 887.77 -0.984691 -2.12934 0
M  V30 9785 C 888.786 0.0623657 -1.73888 0
M  V30 9786 O 889.962 -0.1271 -2.00999 0
M  V30 9787 C 887.027 -0.549447 -3.42319 0
M  V30 9788 C 886.088 -1.66841 -3.95553 0
M  V30 9789 C 885.321 -1.25384 -5.18763 0
M  V30 9790 O 885.544 -0.126333 -5.7026 0
M  V30 9791 O 884.478 -2.06475 -5.65377 0
M  V30 9792 H 888.304 -1.92413 -2.3497 0
M  V30 9793 H 885.889 -0.99647 -1.11314 0
M  V30 9794 H 887.771 -0.316384 -4.20211 0
M  V30 9795 H 886.446 0.361304 -3.21677 0
M  V30 9796 H 885.353 -1.95585 -3.189 0
M  V30 9797 H 886.686 -2.55649 -4.206 0
M  V30 9798 N 888.338 1.20213 -1.01915 0
M  V30 9799 C 889.286 2.25125 -0.584936 0
M  V30 9800 C 890.28 1.65138 0.377602 0
M  V30 9801 O 891.486 1.78294 0.247245 0
M  V30 9802 H 887.861 0.732333 -0.170858 0
M  V30 9803 H 889.832 2.59075 -1.48063 0
M  V30 9804 C 888.581 3.47651 0.058389 0
M  V30 9805 H 887.904 3.9409 -0.673263 0
M  V30 9806 H 889.344 4.2275 0.325285 0
M  V30 9807 C 887.803 3.10725 1.30199 0
M  V30 9808 O 888.333 3.22491 2.39505 0
M  V30 9809 N 886.539 2.6525 1.18706 0
M  V30 9810 H 886.086 2.55875 0.297618 0
M  V30 9811 H 886.044 2.40913 2.02011 0
M  V30 9812 N 889.816 0.795718 1.36037 0
M  V30 9813 C 891.044 0.383153 2.03321 0
M  V30 9814 C 891.459 -1.00246 1.59988 0
M  V30 9815 O 890.816 -1.64406 0.792265 0
M  V30 9816 C 890.867 0.444467 3.58757 0
M  V30 9817 O 890.588 1.77544 4.00512 0
M  V30 9818 C 892.089 0.0233291 4.43294 0
M  V30 9819 H 889.309 0.157061 0.652359 0
M  V30 9820 H 891.853 1.07632 1.73884 0
M  V30 9821 H 890.008 -0.200341 3.86882 0
M  V30 9822 H 890.422 1.73065 4.95125 0
M  V30 9823 H 891.896 0.117361 5.51875 0
M  V30 9824 H 892.373 -1.03007 4.2695 0
M  V30 9825 H 892.979 0.64087 4.20444 0
M  V30 9826 N 891.294 -1.47756 0.548274 0
M  V30 9827 C 892.204 -2.33678 -0.207773 0
M  V30 9828 C 893.22 -1.47636 -0.920843 0
M  V30 9829 O 894.396 -1.80583 -0.89173 0
M  V30 9830 C 891.461 -3.24147 -1.23003 0
M  V30 9831 C 890.522 -4.26073 -0.52535 0
M  V30 9832 C 889.755 -5.12219 -1.4989 0
M  V30 9833 O 889.978 -5.0066 -2.73305 0
M  V30 9834 O 888.912 -5.93051 -1.02828 0
M  V30 9835 H 892.738 -2.99609 0.496794 0
M  V30 9836 H 890.323 -1.4617 0.308982 0
M  V30 9837 H 892.205 -3.80055 -1.82034 0
M  V30 9838 H 890.88 -2.60855 -1.91668 0
M  V30 9839 H 889.787 -3.7395 0.105927 0
M  V30 9840 H 891.12 -4.92054 0.119686 0
M  V30 9841 N 892.772 -0.284283 -1.55015 0
M  V30 9842 C 894.049 0.382125 -1.91831 0
M  V30 9843 C 894.429 1.73007 -1.20962 0
M  V30 9844 O 893.777 2.25962 -0.339594 0
M  V30 9845 C 893.987 0.513341 -3.45204 0
M  V30 9846 C 895.335 0.791989 -4.17148 0
M  V30 9847 O 896.359 0.597799 -3.51148 0
M  V30 9848 O 895.218 1.16394 -5.33961 0
M  V30 9849 H 892.312 0.210707 -0.799707 0
M  V30 9850 H 894.858 -0.331111 -1.66438 0
M  V30 9851 H 893.63 -0.434911 -3.88876 0
M  V30 9852 H 893.253 1.27569 -3.76579 0
M  V30 9853 N 894.251 1.57596 -0.0117121 0
M  V30 9854 C 895.183 2.06025 1.0043 0
M  V30 9855 C 896.196 0.980348 1.29973 0
M  V30 9856 O 897.385 1.25691 1.26744 0
M  V30 9857 C 894.485 2.45514 2.33615 0
M  V30 9858 C 893.658 3.76378 2.22842 0
M  V30 9859 C 892.717 4.02606 3.38814 0
M  V30 9860 O 891.743 4.73108 3.16477 0
M  V30 9861 N 892.945 3.51416 4.62047 0
M  V30 9862 H 895.71 2.93811 0.591206 0
M  V30 9863 H 893.271 1.60947 0.175427 0
M  V30 9864 H 895.263 2.60166 3.09993 0
M  V30 9865 H 893.833 1.63186 2.66625 0
M  V30 9866 H 893.053 3.71691 1.313 0
M  V30 9867 H 894.341 4.62149 2.12829 0
M  V30 9868 H 893.739 2.94346 4.83091 0
M  V30 9869 H 892.296 3.71377 5.35651 0
M  V30 9870 N 895.729 -0.261212 1.5542 0
M  V30 9871 C 896.959 -1.00769 1.80358 0
M  V30 9872 C 897.367 -1.79991 0.583085 0
M  V30 9873 O 896.71 -1.77911 -0.457534 0
M  V30 9874 C 896.772 -2.00463 2.9842 0
M  V30 9875 C 896.436 -1.4007 4.35005 0
M  V30 9876 C 897.433 -0.810388 5.13545 0
M  V30 9877 C 895.118 -1.42436 4.81682 0
M  V30 9878 C 897.112 -0.251784 6.36903 0
M  V30 9879 C 894.799 -0.861897 6.04991 0
M  V30 9880 C 895.797 -0.276622 6.8244 0
M  V30 9881 O 895.485 0.277194 8.03422 0
M  V30 9882 H 895.217 -0.302839 0.604371 0
M  V30 9883 H 897.771 -0.293763 2.03288 0
M  V30 9884 H 896.001 -2.75648 2.71211 0
M  V30 9885 H 897.69 -2.61336 3.10577 0
M  V30 9886 H 898.456 -0.784719 4.7861 0
M  V30 9887 H 894.335 -1.8693 4.214 0
M  V30 9888 H 897.879 0.205678 6.97297 0
M  V30 9889 H 893.776 -0.884846 6.39407 0
M  V30 9890 H 894.544 0.167682 8.18328 0
M  V30 9891 N 897.207 -1.48554 -0.526253 0
M  V30 9892 C 898.432 -1.60686 -1.31129 0
M  V30 9893 C 898.857 -0.268701 -1.86171 0
M  V30 9894 O 898.215 0.760167 -1.64594 0
M  V30 9895 C 898.263 -2.65938 -2.43536 0
M  V30 9896 O 897.367 -2.23356 -3.46678 0
M  V30 9897 H 896.708 -0.538691 -0.388211 0
M  V30 9898 H 899.238 -1.94567 -0.632826 0
M  V30 9899 H 899.248 -2.87327 -2.89668 0
M  V30 9900 H 897.923 -3.63085 -2.02835 0
M  V30 9901 H 896.5 -2.12196 -3.06639 0
M  V30 9902 N 898.685 0.775411 -1.37205 0
M  V30 9903 C 899.615 1.90258 -1.35367 0
M  V30 9904 C 900.596 1.68634 -0.222864 0
M  V30 9905 O 901.781 1.89545 -0.422659 0
M  V30 9906 C 898.911 3.27488 -1.15623 0
M  V30 9907 C 897.865 3.63668 -2.25676 0
M  V30 9908 C 897.191 4.994 -1.91059 0
M  V30 9909 C 898.491 3.70797 -3.67841 0
M  V30 9910 H 900.185 1.92053 -2.29687 0
M  V30 9911 H 897.731 0.922597 -1.10563 0
M  V30 9912 H 899.684 4.05976 -1.12968 0
M  V30 9913 H 898.408 3.26117 -0.177573 0
M  V30 9914 H 897.067 2.87486 -2.2748 0
M  V30 9915 H 896.715 4.94565 -0.917324 0
M  V30 9916 H 896.415 5.24576 -2.64751 0
M  V30 9917 H 897.939 5.80291 -1.89985 0
M  V30 9918 H 899.353 4.39444 -3.68187 0
M  V30 9919 H 897.75 4.07468 -4.40556 0
M  V30 9920 H 898.82 2.71549 -4.01732 0
M  V30 9921 N 900.163 1.21714 1.00117 0
M  V30 9922 C 901.409 1.03823 1.74208 0
M  V30 9923 C 901.742 -0.426733 1.89454 0
M  V30 9924 O 901.017 -1.31658 1.43166 0
M  V30 9925 C 901.3 1.74047 3.15246 0
M  V30 9926 C 901.153 3.28087 3.077 0
M  V30 9927 C 902.472 1.48614 4.14249 0
M  V30 9928 H 899.591 0.378573 0.632338 0
M  V30 9929 H 902.233 1.49942 1.16694 0
M  V30 9930 H 900.383 1.3484 3.64349 0
M  V30 9931 H 902.055 3.76686 2.6628 0
M  V30 9932 H 900.298 3.58191 2.44707 0
M  V30 9933 H 900.969 3.72392 4.07466 0
M  V30 9934 H 903.445 1.82656 3.73866 0
M  V30 9935 H 902.321 2.00257 5.11066 0
M  V30 9936 H 902.582 0.416957 4.40129 0
M  V30 9937 N 901.641 -1.19671 1.02551 0
M  V30 9938 C 902.551 -2.26441 0.613329 0
M  V30 9939 C 903.567 -1.70375 -0.353339 0
M  V30 9940 O 904.743 -2.0028 -0.212064 0
M  V30 9941 C 901.808 -3.46684 -0.0329028 0
M  V30 9942 C 900.869 -4.17945 0.980837 0
M  V30 9943 C 900.102 -5.32448 0.36535 0
M  V30 9944 O 900.325 -5.64291 -0.832596 0
M  V30 9945 O 899.259 -5.92012 1.08652 0
M  V30 9946 H 903.085 -2.63932 1.50246 0
M  V30 9947 H 900.67 -1.2646 0.795502 0
M  V30 9948 H 902.552 -4.1956 -0.393395 0
M  V30 9949 H 901.227 -3.1105 -0.896089 0
M  V30 9950 H 900.134 -3.47204 1.39286 0
M  V30 9951 H 901.467 -4.57542 1.81428 0
M  V30 9952 N 903.119 -0.802921 -1.35613 0
M  V30 9953 C 904.396 -0.304993 -1.93208 0
M  V30 9954 C 904.776 1.20488 -1.73337 0
M  V30 9955 O 904.124 2.00268 -1.10022 0
M  V30 9956 C 904.334 -0.712383 -3.41652 0
M  V30 9957 C 905.682 -0.699785 -4.18794 0
M  V30 9958 O 906.706 -0.653698 -3.5015 0
M  V30 9959 O 905.565 -0.754842 -5.41262 0
M  V30 9960 H 902.659 -0.0789127 -0.823226 0
M  V30 9961 H 905.205 -0.886372 -1.44712 0
M  V30 9962 H 903.977 -1.75316 -3.49829 0
M  V30 9963 H 903.6 -0.105614 -3.9746 0
M  V30 9964 N 904.597 1.47463 -0.556102 0
M  V30 9965 C 905.874 1.9557 0.0339892 0
M  V30 9966 C 906.254 1.49869 1.48669 0
M  V30 9967 O 905.602 0.737019 2.16288 0
M  V30 9968 C 905.812 3.48826 -0.110343 0
M  V30 9969 C 907.16 4.24585 0.0355716 0
M  V30 9970 O 908.184 3.5618 -0.0378356 0
M  V30 9971 O 907.043 5.46158 0.193299 0
M  V30 9972 H 904.137 0.824461 0.0647521 0
M  V30 9973 H 906.683 1.57868 -0.622547 0
M  V30 9974 H 905.455 3.74891 -1.12126 0
M  V30 9975 H 905.078 3.9329 0.583855 0
M  V30 9976 N 906.075 0.2925 1.54862 0
M  V30 9977 C 906.985 -0.597036 2.26876 0
M  V30 9978 C 908.001 -1.15558 1.30086 0
M  V30 9979 O 909.177 -1.18217 1.63054 0
M  V30 9980 C 906.242 -1.75664 2.98903 0
M  V30 9981 C 905.303 -1.23303 4.11212 0
M  V30 9982 C 904.536 -2.33736 4.79795 0
M  V30 9983 O 904.759 -3.53459 4.47686 0
M  V30 9984 O 903.693 -2.00908 5.67379 0
M  V30 9985 H 907.519 -0.0131242 3.03697 0
M  V30 9986 H 905.104 0.0592642 1.49282 0
M  V30 9987 H 906.986 -2.43241 3.4411 0
M  V30 9988 H 905.661 -2.32731 2.24984 0
M  V30 9989 H 904.568 -0.523222 3.70423 0
M  V30 9990 H 905.901 -0.707887 4.87083 0
M  V30 9991 N 907.553 -1.57587 0.0200696 0
M  V30 9992 C 908.83 -1.82696 -0.698677 0
M  V30 9993 C 909.21 -0.902082 -1.90855 0
M  V30 9994 O 908.558 0.0444834 -2.28457 0
M  V30 9995 C 908.768 -3.31691 -1.08546 0
M  V30 9996 C 910.116 -3.97938 -1.4809 0
M  V30 9997 O 911.14 -3.36133 -1.17869 0
M  V30 9998 O 909.999 -5.06851 -2.04364 0
M  V30 9999 H 907.093 -0.752997 -0.341942 0
M  V30 10000 H 909.639 -1.69635 0.04706 0
M  V30 10001 H 908.411 -3.90659 -0.223956 0
M  V30 10002 H 908.034 -3.49825 -1.88965 0
M  V30 10003 N 909.032 0.252966 -1.55557 0
M  V30 10004 C 909.962 1.31691 -1.9282 0
M  V30 10005 C 910.943 1.50516 -0.7924 0
M  V30 10006 O 912.128 1.63225 -1.05219 0
M  V30 10007 C 909.258 2.67281 -2.21762 0
M  V30 10008 C 908.212 2.6316 -3.37536 0
M  V30 10009 C 907.538 4.02488 -3.52005 0
M  V30 10010 C 908.838 2.20675 -4.73392 0
M  V30 10011 H 910.532 1.00751 -2.81939 0
M  V30 10012 H 908.078 0.483219 -1.3565 0
M  V30 10013 H 910.031 3.41842 -2.46419 0
M  V30 10014 H 908.755 2.99845 -1.29463 0
M  V30 10015 H 907.414 1.91057 -3.12878 0
M  V30 10016 H 907.062 4.32307 -2.57137 0
M  V30 10017 H 906.762 4.00621 -4.29857 0
M  V30 10018 H 908.286 4.78758 -3.78977 0
M  V30 10019 H 909.7 2.84965 -4.97461 0
M  V30 10020 H 908.097 2.29931 -5.54303 0
M  V30 10021 H 909.167 1.15831 -4.70862 0
M  V30 10022 N 910.51 1.48831 0.518367 0
M  V30 10023 C 911.921 1.50842 1.10016 0
M  V30 10024 C 912.272 0.284744 1.94123 0
M  V30 10025 O 911.397 -0.607088 2.0771 0
M  V30 10026 C 911.992 2.73329 2.00191 0
M  V30 10027 C 910.551 2.78175 2.53566 0
M  V30 10028 C 909.698 2.4452 1.30786 0
M  V30 10029 H 912.649 1.55779 0.303073 0
M  V30 10030 H 912.67 2.52506 2.84642 0
M  V30 10031 H 912.182 3.62374 1.3895 0
M  V30 10032 H 910.283 1.93368 3.18496 0
M  V30 10033 H 910.396 3.79905 2.91906 0
M  V30 10034 H 908.76 1.95924 1.62744 0
M  V30 10035 H 909.543 3.35819 0.712797 0
M  V30 10036 N 911.988 -0.768124 1.37614 0
M  V30 10037 C 912.938 -1.8718 1.30184 0
M  V30 10038 C 913.922 -1.59787 0.188943 0
M  V30 10039 O 915.114 -1.71855 0.423656 0
M  V30 10040 C 912.243 -3.24698 1.11471 0
M  V30 10041 C 911.329 -3.58031 2.27321 0
M  V30 10042 N 911.72 -3.6252 3.52722 0
M  V30 10043 C 910.018 -3.88216 2.19554 0
M  V30 10044 C 910.719 -3.92704 4.29137 0
M  V30 10045 N 909.695 -4.08789 3.58319 0
M  V30 10046 H 913.497 -1.88907 2.25147 0
M  V30 10047 H 911.011 -0.964753 1.30638 0
M  V30 10048 H 913.008 -4.0366 1.04233 0
M  V30 10049 H 911.668 -3.24232 0.174281 0
M  V30 10050 H 912.679 -3.44636 3.86583 0
M  V30 10051 H 909.356 -3.95551 1.33588 0
M  V30 10052 H 910.746 -4.02922 5.37683 0
M  V30 10053 N 913.466 -1.22244 -0.994698 0
M  V30 10054 C 914.416 -0.958244 -2.06886 0
M  V30 10055 C 915.4 0.0904481 -1.60646 0
M  V30 10056 O 916.592 -0.119837 -1.76594 0
M  V30 10057 C 913.721 -0.535944 -3.39091 0
M  V30 10058 C 912.807 -1.61927 -3.9197 0
M  V30 10059 N 913.198 -2.84659 -4.18094 0
M  V30 10060 C 911.496 -1.49053 -4.20356 0
M  V30 10061 C 912.197 -3.54697 -4.61048 0
M  V30 10062 N 911.173 -2.82164 -4.64634 0
M  V30 10063 H 914.975 -1.89056 -2.25022 0
M  V30 10064 H 912.489 -1.1197 -1.17629 0
M  V30 10065 H 914.486 -0.327997 -4.15608 0
M  V30 10066 H 913.146 0.38949 -3.22355 0
M  V30 10067 H 914.157 -3.21104 -4.06341 0
M  V30 10068 H 910.834 -0.631154 -4.12702 0
M  V30 10069 H 912.224 -4.59837 -4.89898 0
M  V30 10070 N 914.944 1.19125 -1.03184 0
M  V30 10071 C 916.221 1.84674 -0.644574 0
M  V30 10072 C 916.601 1.92042 0.876534 0
M  V30 10073 O 915.949 1.43965 1.77444 0
M  V30 10074 C 916.159 3.23477 -1.3101 0
M  V30 10075 C 917.507 3.99608 -1.43524 0
M  V30 10076 O 918.531 3.32886 -1.2675 0
M  V30 10077 O 917.39 5.19132 -1.70776 0
M  V30 10078 H 914.484 0.795968 -0.22442 0
M  V30 10079 H 917.03 1.2659 -1.13018 0
M  V30 10080 H 915.802 3.12967 -2.34878 0
M  V30 10081 H 915.425 3.89209 -0.812547 0
M  V30 10082 N 916.422 0.810101 1.35185 0
M  V30 10083 C 917.332 0.224565 2.33523 0
M  V30 10084 C 918.348 -0.634287 1.62027 0
M  V30 10085 O 919.524 -0.545211 1.9388 0
M  V30 10086 C 916.589 -0.614319 3.41214 0
M  V30 10087 C 915.65 0.265435 4.28479 0
M  V30 10088 C 914.883 -0.533506 5.31027 0
M  V30 10089 O 915.106 -1.7679 5.42311 0
M  V30 10090 O 914.04 0.0774573 6.0185 0
M  V30 10091 H 917.866 1.03815 2.85405 0
M  V30 10092 H 915.451 0.571964 1.38018 0
M  V30 10093 H 917.333 -1.09201 4.07005 0
M  V30 10094 H 916.008 -1.40545 2.91597 0
M  V30 10095 H 914.915 0.790343 3.65656 0
M  V30 10096 H 916.248 1.0206 4.81503 0
M  V30 10097 N 917.9 -1.47166 0.563914 0
M  V30 10098 C 918.847 -2.30097 -0.180013 0
M  V30 10099 C 919.817 -1.39473 -0.902019 0
M  V30 10100 O 921.002 -1.68432 -0.896396 0
M  V30 10101 C 918.142 -3.23573 -1.19978 0
M  V30 10102 C 917.255 -4.2929 -0.483149 0
M  V30 10103 C 916.39 -5.0991 -1.48879 0
M  V30 10104 C 915.429 -6.07395 -0.757513 0
M  V30 10105 N 914.566 -6.8095 -1.71031 0
M  V30 10106 H 919.406 -2.93189 0.53329 0
M  V30 10107 H 916.943 -1.4451 0.274814 0
M  V30 10108 H 918.901 -3.76196 -1.80368 0
M  V30 10109 H 917.531 -2.6233 -1.88103 0
M  V30 10110 H 916.583 -3.79671 0.235414 0
M  V30 10111 H 917.895 -4.9872 0.0894075 0
M  V30 10112 H 917.049 -5.66717 -2.16603 0
M  V30 10113 H 915.788 -4.40397 -2.09527 0
M  V30 10114 H 914.793 -5.4976 -0.0663841 0
M  V30 10115 H 916.018 -6.78919 -0.156685 0
M  V30 10116 H 913.964 -6.14162 -2.30524 0
M  V30 10117 H 913.881 -7.46574 -1.19007 0
M  V30 10118 H 915.149 -7.42326 -2.37849 0
M  V30 10119 N 919.378 -0.300708 -1.54705 0
M  V30 10120 C 920.606 0.31127 -2.04545 0
M  V30 10121 C 921.021 1.47542 -1.178 0
M  V30 10122 O 920.378 1.81361 -0.203571 0
M  V30 10123 C 920.429 0.767783 -3.53253 0
M  V30 10124 O 920.15 -0.350027 -4.36699 0
M  V30 10125 C 921.651 1.44494 -4.1909 0
M  V30 10126 H 918.871 0.067668 -0.667579 0
M  V30 10127 H 921.415 -0.440254 -1.99705 0
M  V30 10128 H 919.57 1.46933 -3.58454 0
M  V30 10129 H 919.984 0.00534038 -5.245 0
M  V30 10130 H 921.458 1.71553 -5.24665 0
M  V30 10131 H 921.935 2.3849 -3.68808 0
M  V30 10132 H 922.541 0.786581 -4.17963 0
M  V30 10133 N 920.856 1.57574 -0.0284266 0
M  V30 10134 C 922.102 1.92884 0.645544 0
M  V30 10135 C 922.457 0.905203 1.69776 0
M  V30 10136 O 921.75 -0.0788509 1.91438 0
M  V30 10137 C 921.944 3.32699 1.3056 0
M  V30 10138 C 921.773 4.48568 0.318848 0
M  V30 10139 C 920.543 5.05235 -0.0810373 0
M  V30 10140 C 922.741 5.12528 -0.426575 0
M  V30 10141 N 920.723 6.04626 -1.06303 0
M  V30 10142 C 922.094 6.07013 -1.26235 0
M  V30 10143 C 924.149 4.95509 -0.48735 0
M  V30 10144 C 922.852 6.8631 -2.15341 0
M  V30 10145 C 924.878 5.75414 -1.36575 0
M  V30 10146 C 924.24 6.69514 -2.1893 0
M  V30 10147 H 920.339 0.753677 0.208555 0
M  V30 10148 H 922.923 1.94466 -0.095439 0
M  V30 10149 H 921.094 3.31938 2.01673 0
M  V30 10150 H 922.826 3.55359 1.93655 0
M  V30 10151 H 919.581 4.72691 0.293264 0
M  V30 10152 H 920.005 6.59012 -1.55025 0
M  V30 10153 H 924.647 4.22584 0.135112 0
M  V30 10154 H 922.365 7.58541 -2.78642 0
M  V30 10155 H 925.951 5.64279 -1.41705 0
M  V30 10156 H 924.831 7.30266 -2.85799 0
M  V30 10157 N 922.334 -0.244713 1.55689 0
M  V30 10158 C 923.282 -1.32276 1.91326 0
M  V30 10159 C 924.276 -1.49714 0.792589 0
M  V30 10160 O 925.482 -1.51163 0.977227 0
M  V30 10161 H 921.857 -0.442979 0.607679 0
M  V30 10162 H 923.828 -0.99486 2.81327 0
M  V30 10163 C 922.577 -2.67077 2.22633 0
M  V30 10164 H 921.9 -2.54458 3.08368 0
M  V30 10165 H 923.34 -3.41378 2.5147 0
M  V30 10166 C 921.799 -3.20335 1.04342 0
M  V30 10167 O 922.329 -4.00633 0.292543 0
M  V30 10168 N 920.535 -2.78392 0.833457 0
M  V30 10169 H 920.082 -2.13202 1.44577 0
M  V30 10170 H 920.04 -3.1437 0.0436713 0
M  V30 10171 N 923.813 -1.49104 -0.510467 0
M  V30 10172 C 925.059 -1.58346 -1.26705 0
M  V30 10173 C 925.392 -0.265121 -1.92382 0
M  V30 10174 O 924.667 0.730558 -1.80258 0
M  V30 10175 C 924.95 -2.7359 -2.34137 0
M  V30 10176 C 924.803 -4.1519 -1.73024 0
M  V30 10177 C 926.122 -2.84511 -3.3577 0
M  V30 10178 H 923.241 -0.57637 -0.459311 0
M  V30 10179 H 925.883 -1.81353 -0.566658 0
M  V30 10180 H 924.033 -2.54105 -2.93876 0
M  V30 10181 H 925.705 -4.46167 -1.17186 0
M  V30 10182 H 923.948 -4.21279 -1.03473 0
M  V30 10183 H 924.619 -4.91683 -2.50903 0
M  V30 10184 H 927.095 -3.0222 -2.86011 0
M  V30 10185 H 925.971 -3.6684 -4.08313 0
M  V30 10186 H 926.232 -1.93471 -3.97519 0
M  V30 10187 N 925.291 0.760815 -1.38019 0
M  V30 10188 C 926.539 1.51673 -1.33566 0
M  V30 10189 C 926.86 1.94852 0.076024 0
M  V30 10190 O 926.13 1.67112 1.02227 0
M  V30 10191 H 924.71 0.562581 -0.491438 0
M  V30 10192 H 927.372 0.904832 -1.72623 0
M  V30 10193 H 926.468 2.41102 -1.98182 0
M  V30 10194 N 926.769 1.22769 0.988202 0
M  V30 10195 C 927.994 1.08239 1.76915 0
M  V30 10196 C 928.419 -0.362519 1.84574 0
M  V30 10197 O 927.777 -1.26202 1.30165 0
M  V30 10198 C 927.825 1.70363 3.17819 0
M  V30 10199 O 926.929 0.960484 4.01059 0
M  V30 10200 H 926.27 0.379872 0.544604 0
M  V30 10201 H 928.8 1.62663 1.24104 0
M  V30 10202 H 928.81 1.7528 3.6843 0
M  V30 10203 H 927.485 2.75505 3.1156 0
M  V30 10204 H 926.062 0.987667 3.59582 0
M  V30 10205 N 928.247 -1.18576 1.03814 0
M  V30 10206 C 929.472 -1.92978 0.759873 0
M  V30 10207 C 929.897 -1.75514 -0.676486 0
M  V30 10208 O 929.255 -1.06359 -1.46824 0
M  V30 10209 C 929.303 -3.42507 1.12788 0
M  V30 10210 O 928.407 -4.1163 0.251886 0
M  V30 10211 H 927.748 -0.602129 0.279886 0
M  V30 10212 H 930.278 -1.50383 1.3873 0
M  V30 10213 H 930.288 -3.93206 1.08872 0
M  V30 10214 H 928.963 -3.5454 2.17427 0
M  V30 10215 H 927.54 -3.7125 0.350441 0
M  V30 10216 N 929.725 -0.817259 -1.34754 0
M  V30 10217 C 930.673 -0.223352 -2.31525 0
M  V30 10218 C 931.667 0.632785 -1.57137 0
M  V30 10219 O 932.873 0.524757 -1.72181 0
M  V30 10220 H 929.248 -0.0534765 -0.750096 0
M  V30 10221 H 931.219 -1.05446 -2.79148 0
M  V30 10222 C 929.968 0.604784 -3.424 0
M  V30 10223 H 929.291 -0.0446664 -3.99775 0
M  V30 10224 H 930.731 0.986543 -4.12363 0
M  V30 10225 C 929.19 1.77478 -2.86362 0
M  V30 10226 O 929.72 2.87273 -2.8078 0
M  V30 10227 N 927.926 1.58971 -2.43263 0
M  V30 10228 H 927.473 0.696598 -2.48003 0
M  V30 10229 H 927.431 2.37408 -2.06119 0
M  V30 10230 N 931.203 1.46865 -0.571711 0
M  V30 10231 C 932.619 1.57897 -0.23255 0
M  V30 10232 C 932.819 1.56836 1.26509 0
M  V30 10233 O 931.875 1.47947 2.04617 0
M  V30 10234 C 933.188 2.87778 -0.872036 0
M  V30 10235 C 934.736 3.01389 -0.844605 0
M  V30 10236 C 935.211 4.33991 -1.46343 0
M  V30 10237 N 936.702 4.40662 -1.42727 0
M  V30 10238 C 937.437 5.41858 -1.87557 0
M  V30 10239 N 936.933 6.49787 -2.4031 0
M  V30 10240 N 938.726 5.32992 -1.7854 0
M  V30 10241 H 930.877 1.45798 -1.54457 0
M  V30 10242 H 933.14 0.694785 -0.644964 0
M  V30 10243 H 932.846 2.94332 -1.92513 0
M  V30 10244 H 932.72 3.75345 -0.373677 0
M  V30 10245 H 935.107 2.94423 0.19984 0
M  V30 10246 H 935.188 2.15327 -1.38087 0
M  V30 10247 H 934.832 4.41714 -2.50701 0
M  V30 10248 H 934.762 5.18809 -0.902479 0
M  V30 10249 H 937.253 3.63263 -1.04155 0
M  V30 10250 H 937.566 7.23199 -2.72403 0
M  V30 10251 H 935.911 6.50637 -2.44329 0
M  V30 10252 H 939.102 4.47575 -1.37093 0
M  V30 10253 H 939.275 6.11716 -2.13794 0
M  V30 10254 N 932.681 0.308908 1.54543 0
M  V30 10255 C 933.629 -0.579326 2.2527 0
M  V30 10256 C 934.623 -1.13058 1.26152 0
M  V30 10257 O 935.829 -1.08031 1.43977 0
M  V30 10258 H 932.204 -0.205444 0.723392 0
M  V30 10259 H 934.175 0.0396415 2.98374 0
M  V30 10260 C 932.924 -1.73584 3.01271 0
M  V30 10261 H 932.247 -1.32089 3.77349 0
M  V30 10262 H 933.687 -2.33324 3.54028 0
M  V30 10263 C 932.146 -2.6447 2.08703 0
M  V30 10264 O 932.676 -3.65785 1.66025 0
M  V30 10265 N 930.882 -2.32379 1.74495 0
M  V30 10266 H 930.429 -1.50034 2.09398 0
M  V30 10267 H 930.387 -2.93454 1.12836 0
M  V30 10268 N 934.159 -1.57557 0.0367827 0
M  V30 10269 C 935.106 -2.10679 -0.942499 0
M  V30 10270 C 936.076 -1.01068 -1.31812 0
M  V30 10271 O 937.261 -1.28533 -1.41011 0
M  V30 10272 C 934.401 -2.64467 -2.21701 0
M  V30 10273 C 933.514 -3.88114 -1.89715 0
M  V30 10274 C 932.649 -4.30268 -3.11518 0
M  V30 10275 C 931.688 -5.46652 -2.75387 0
M  V30 10276 N 930.825 -5.83927 -3.89838 0
M  V30 10277 H 935.665 -2.94066 -0.482588 0
M  V30 10278 H 933.202 -1.45344 -0.226597 0
M  V30 10279 H 935.16 -2.93745 -2.96259 0
M  V30 10280 H 933.79 -1.83898 -2.65295 0
M  V30 10281 H 932.842 -3.65516 -1.05366 0
M  V30 10282 H 934.154 -4.72743 -1.5911 0
M  V30 10283 H 933.308 -4.61023 -3.94389 0
M  V30 10284 H 932.047 -3.44421 -3.4529 0
M  V30 10285 H 931.052 -5.15583 -1.90929 0
M  V30 10286 H 932.277 -6.34204 -2.42822 0
M  V30 10287 H 930.223 -5.01035 -4.23438 0
M  V30 10288 H 930.14 -6.63214 -3.62883 0
M  V30 10289 H 931.408 -6.19291 -4.73391 0
M  V30 10290 N 935.637 0.236453 -1.55816 0
M  V30 10291 C 936.6 1.27633 -1.90375 0
M  V30 10292 C 937.6 1.40557 -0.781048 0
M  V30 10293 O 938.79 1.39078 -1.04895 0
M  V30 10294 C 935.922 2.65247 -2.14142 0
M  V30 10295 H 937.115 0.982019 -2.83366 0
M  V30 10296 H 934.668 0.476215 -1.48869 0
M  V30 10297 H 935.403 2.99801 -1.23653 0
M  V30 10298 H 935.188 2.57246 -2.95917 0
M  V30 10299 H 936.678 3.40313 -2.42026 0
M  V30 10300 N 937.115 1.49373 0.502552 0
M  V30 10301 C 938.025 1.68659 1.63068 0
M  V30 10302 C 939.041 0.569182 1.64427 0
M  V30 10303 O 940.217 0.843695 1.82876 0
M  V30 10304 C 937.282 1.74745 2.99441 0
M  V30 10305 C 936.343 2.98311 3.08721 0
M  V30 10306 C 935.576 3.04097 4.38589 0
M  V30 10307 O 935.799 2.17519 5.27297 0
M  V30 10308 O 934.733 3.96544 4.52809 0
M  V30 10309 H 938.559 2.64226 1.49727 0
M  V30 10310 H 936.144 1.33096 0.67867 0
M  V30 10311 H 938.026 1.8111 3.80496 0
M  V30 10312 H 936.701 0.823565 3.13048 0
M  V30 10313 H 935.608 2.97465 2.2686 0
M  V30 10314 H 936.941 3.90174 3.00041 0
M  V30 10315 N 938.594 -0.753485 1.38421 0
M  V30 10316 C 939.542 -1.8886 1.35774 0
M  V30 10317 C 940.536 -1.67639 0.243608 0
M  V30 10318 O 941.742 -1.75206 0.412649 0
M  V30 10319 H 938.117 -0.62137 0.42356 0
M  V30 10320 H 940.088 -1.88209 2.3156 0
M  V30 10321 C 938.837 -3.26344 1.19979 0
M  V30 10322 H 938.16 -3.43259 2.04971 0
M  V30 10323 H 939.6 -4.06015 1.22181 0
M  V30 10324 C 938.059 -3.36771 -0.0932867 0
M  V30 10325 O 938.589 -3.8718 -1.07027 0
M  V30 10326 N 936.795 -2.90212 -0.150154 0
M  V30 10327 H 936.342 -2.4938 0.645562 0
M  V30 10328 H 936.3 -2.97569 -1.0149 0
M  V30 10329 N 940.072 -1.23292 -0.981677 0
M  V30 10330 C 941.002 -1.03738 -2.09191 0
M  V30 10331 C 941.983 0.0453041 -1.7004 0
M  V30 10332 O 943.168 -0.119092 -1.93834 0
M  V30 10333 C 940.298 -0.626426 -3.41604 0
M  V30 10334 C 939.252 -1.65631 -3.94652 0
M  V30 10335 C 938.578 -1.10084 -5.23245 0
M  V30 10336 C 939.878 -3.04903 -4.24066 0
M  V30 10337 H 941.572 -1.966 -2.25807 0
M  V30 10338 H 939.118 -0.946656 -1.0851 0
M  V30 10339 H 941.071 -0.476689 -4.18695 0
M  V30 10340 H 939.795 0.337873 -3.24848 0
M  V30 10341 H 938.454 -1.79402 -3.19704 0
M  V30 10342 H 938.102 -0.127562 -5.02838 0
M  V30 10343 H 937.802 -1.78896 -5.59705 0
M  V30 10344 H 939.326 -0.962928 -6.02959 0
M  V30 10345 H 940.74 -2.94441 -4.91912 0
M  V30 10346 H 939.137 -3.70941 -4.71724 0
M  V30 10347 H 940.207 -3.53991 -3.31389 0
M  V30 10348 N 941.55 1.18024 -1.04442 0
M  V30 10349 C 942.48 2.23988 -0.659683 0
M  V30 10350 C 943.461 1.6669 0.338904 0
M  V30 10351 O 944.646 1.92971 0.21817 0
M  V30 10352 C 941.776 3.4729 -0.0257672 0
M  V30 10353 C 940.73 4.17362 -0.948299 0
M  V30 10354 C 940.056 5.34401 -0.17866 0
M  V30 10355 C 941.356 4.70435 -2.26909 0
M  V30 10356 H 943.05 2.56425 -1.54553 0
M  V30 10357 H 940.596 1.23256 -0.744575 0
M  V30 10358 H 942.549 4.20627 0.255131 0
M  V30 10359 H 941.273 3.14098 0.894981 0
M  V30 10360 H 939.932 3.45928 -1.21364 0
M  V30 10361 H 939.58 4.97458 0.744614 0
M  V30 10362 H 939.28 5.8222 -0.793294 0
M  V30 10363 H 940.804 6.10526 0.0951315 0
M  V30 10364 H 942.218 5.35447 -2.04864 0
M  V30 10365 H 940.615 5.28803 -2.83703 0
M  V30 10366 H 941.685 3.87653 -2.91296 0
M  V30 10367 N 943.028 0.824394 1.34319 0
M  V30 10368 C 944.444 0.510336 1.51221 0
M  V30 10369 C 944.644 -0.965201 1.76879 0
M  V30 10370 O 943.7 -1.74961 1.82057 0
M  V30 10371 C 945.013 1.37114 2.6762 0
M  V30 10372 C 946.561 1.36842 2.81502 0
M  V30 10373 C 947.036 2.21374 4.00946 0
M  V30 10374 N 948.527 2.19005 4.08156 0
M  V30 10375 C 949.262 2.81159 4.99737 0
M  V30 10376 N 948.758 3.52309 5.96532 0
M  V30 10377 N 950.551 2.70706 4.9262 0
M  V30 10378 H 942.702 1.77976 1.15924 0
M  V30 10379 H 944.965 0.758503 0.568663 0
M  V30 10380 H 944.671 2.41905 2.55294 0
M  V30 10381 H 944.545 1.03689 3.62669 0
M  V30 10382 H 946.932 0.328284 2.93268 0
M  V30 10383 H 947.013 1.74265 1.87257 0
M  V30 10384 H 946.657 3.25437 3.8994 0
M  V30 10385 H 946.587 1.813 4.94407 0
M  V30 10386 H 949.078 1.67252 3.38874 0
M  V30 10387 H 949.391 3.96977 6.63045 0
M  V30 10388 H 947.736 3.56415 5.96652 0
M  V30 10389 H 950.927 2.14694 4.15962 0
M  V30 10390 H 951.1 3.19431 5.63798 0
M  V30 10391 N 944.506 -1.46559 0.579492 0
M  V30 10392 C 945.754 -2.02 0.0637157 0
M  V30 10393 C 946.075 -1.45378 -1.29962 0
M  V30 10394 O 945.345 -0.637262 -1.85245 0
M  V30 10395 H 943.925 -0.746717 0.0205638 0
M  V30 10396 H 946.587 -1.79702 0.754544 0
M  V30 10397 H 945.683 -3.12099 -0.00770254 0
M  V30 10398 N 945.984 -0.3171 -1.54377 0
M  V30 10399 C 946.931 0.551782 -2.24107 0
M  V30 10400 C 947.901 1.11681 -1.22949 0
M  V30 10401 O 949.086 1.15836 -1.51614 0
M  V30 10402 C 946.226 1.70997 -2.99756 0
M  V30 10403 C 945.339 1.17479 -4.15719 0
M  V30 10404 C 944.474 2.29815 -4.78914 0
M  V30 10405 C 943.513 1.73513 -5.86992 0
M  V30 10406 N 942.65 2.79485 -6.44075 0
M  V30 10407 H 947.49 -0.049431 -2.97959 0
M  V30 10408 H 945.027 -0.0361658 -1.47056 0
M  V30 10409 H 946.985 2.39141 -3.41859 0
M  V30 10410 H 945.615 2.28257 -2.28251 0
M  V30 10411 H 944.667 0.385109 -3.78446 0
M  V30 10412 H 945.979 0.72276 -4.93536 0
M  V30 10413 H 945.133 3.05875 -5.23952 0
M  V30 10414 H 943.872 2.78352 -4.00464 0
M  V30 10415 H 942.877 0.959475 -5.41363 0
M  V30 10416 H 944.102 1.2586 -6.67335 0
M  V30 10417 H 942.048 3.27325 -5.68502 0
M  V30 10418 H 941.965 2.38825 -7.17286 0
M  V30 10419 H 943.233 3.55394 -6.93769 0
M  V30 10420 N 947.462 1.57535 -0.0451378 0
M  V30 10421 C 948.878 1.56533 0.311373 0
M  V30 10422 C 949.078 1.05225 1.71843 0
M  V30 10423 O 948.134 0.706144 2.42425 0
M  V30 10424 C 949.447 3.00349 0.145348 0
M  V30 10425 C 950.995 3.12248 0.216908 0
M  V30 10426 C 951.47 4.57931 0.0794834 0
M  V30 10427 N 952.961 4.63 0.135954 0
M  V30 10428 C 953.696 5.73375 0.0536426 0
M  V30 10429 N 953.192 6.92753 -0.0806725 0
M  V30 10430 N 954.985 5.61995 0.108789 0
M  V30 10431 H 947.136 1.89211 -0.965044 0
M  V30 10432 H 949.399 0.871068 -0.374091 0
M  V30 10433 H 949.105 3.41898 -0.824533 0
M  V30 10434 H 948.979 3.66086 0.908903 0
M  V30 10435 H 951.366 2.70601 1.17726 0
M  V30 10436 H 951.447 2.49201 -0.577299 0
M  V30 10437 H 951.091 5.00262 -0.877516 0
M  V30 10438 H 951.021 5.18977 0.892758 0
M  V30 10439 H 953.512 3.77142 0.23926 0
M  V30 10440 H 953.825 7.7268 -0.136351 0
M  V30 10441 H 952.17 6.94904 -0.115675 0
M  V30 10442 H 955.361 4.67619 0.212235 0
M  V30 10443 H 955.534 6.47987 0.0411822 0
M  V30 10444 N 948.94 -0.228186 1.55939 0
M  V30 10445 C 950.217 -0.977492 1.69424 0
M  V30 10446 C 950.597 -2.02674 0.590479 0
M  V30 10447 O 949.945 -2.2491 -0.403467 0
M  V30 10448 C 950.155 -1.59394 3.10475 0
M  V30 10449 C 951.503 -2.08871 3.69673 0
M  V30 10450 O 952.527 -1.693 3.13394 0
M  V30 10451 O 951.386 -2.81584 4.68372 0
M  V30 10452 H 948.48 -0.456185 0.6898 0
M  V30 10453 H 951.026 -0.220492 1.68261 0
M  V30 10454 H 949.798 -0.835971 3.82266 0
M  V30 10455 H 949.421 -2.41665 3.15727 0
M  V30 10456 N 950.418 -1.49637 -0.494624 0
M  V30 10457 C 951.666 -1.5913 -1.24587 0
M  V30 10458 C 951.987 -0.282828 -1.92938 0
M  V30 10459 O 951.257 0.69825 -1.83034 0
M  V30 10460 H 949.837 -0.586329 -0.462847 0
M  V30 10461 H 952.499 -1.86296 -0.572696 0
M  V30 10462 H 951.595 -2.3906 -2.00641 0
M  V30 10463 N 951.896 0.746133 -1.38819 0
M  V30 10464 C 953.124 1.53539 -1.38685 0
M  V30 10465 C 953.539 1.88788 0.0215039 0
M  V30 10466 O 952.896 1.53312 0.990031 0
M  V30 10467 C 952.947 2.8299 -2.24942 0
M  V30 10468 O 952.668 2.49242 -3.60292 0
M  V30 10469 C 954.169 3.77085 -2.3307 0
M  V30 10470 H 951.389 0.474842 -0.474095 0
M  V30 10471 H 953.933 0.922844 -1.82493 0
M  V30 10472 H 952.088 3.40603 -1.84576 0
M  V30 10473 H 952.502 3.32319 -4.05789 0
M  V30 10474 H 953.976 4.64845 -2.97696 0
M  V30 10475 H 954.453 4.18049 -1.34655 0
M  V30 10476 H 955.059 3.25394 -2.73859 0
M  V30 10477 N 953.375 1.23811 0.975125 0
M  V30 10478 C 954.622 1.07336 1.71712 0
M  V30 10479 C 954.95 -0.388954 1.90571 0
M  V30 10480 O 954.205 -1.30409 1.45918 0
M  V30 10481 C 954.504 1.74994 3.11628 0
M  V30 10482 C 954.17 3.24918 3.12632 0
M  V30 10483 C 952.832 3.65822 3.12614 0
M  V30 10484 C 955.184 4.20797 3.07538 0
M  V30 10485 C 952.512 5.01054 3.05224 0
M  V30 10486 C 954.864 5.56027 3.0169 0
M  V30 10487 C 953.528 5.96287 2.99996 0
M  V30 10488 H 952.798 0.392771 0.62834 0
M  V30 10489 H 955.445 1.53815 1.14075 0
M  V30 10490 H 953.75 1.20889 3.72684 0
M  V30 10491 H 955.447 1.5972 3.67819 0
M  V30 10492 H 952.037 2.92359 3.13407 0
M  V30 10493 H 956.221 3.902 3.06688 0
M  V30 10494 H 951.477 5.31454 3.02268 0
M  V30 10495 H 955.651 6.3003 2.96706 0
M  V30 10496 H 953.278 7.01037 2.94025 0
M  V30 10497 N 954.853 -1.17469 1.05066 0
M  V30 10498 C 955.783 -2.23635 0.671552 0
M  V30 10499 C 956.764 -1.66867 -0.33006 0
M  V30 10500 O 957.949 -1.93084 -0.207933 0
M  V30 10501 C 955.079 -3.47272 0.0441845 0
M  V30 10502 C 954.033 -4.16854 0.97042 0
M  V30 10503 C 953.359 -5.34299 0.206998 0
M  V30 10504 C 954.659 -4.69225 2.29401 0
M  V30 10505 H 956.353 -2.55602 1.55911 0
M  V30 10506 H 953.899 -1.2286 0.751101 0
M  V30 10507 H 955.852 -4.20756 -0.23282 0
M  V30 10508 H 954.576 -3.14568 -0.878311 0
M  V30 10509 H 953.235 -3.4528 1.23197 0
M  V30 10510 H 952.883 -4.97846 -0.718222 0
M  V30 10511 H 952.583 -5.81792 0.82416 0
M  V30 10512 H 954.107 -6.10568 -0.0627525 0
M  V30 10513 H 955.521 -5.34353 2.077 0
M  V30 10514 H 953.918 -5.27291 2.86503 0
M  V30 10515 H 954.988 -3.86102 2.93348 0
M  V30 10516 N 956.331 -0.831506 -1.3388 0
M  V30 10517 C 957.577 -0.424302 -1.98312 0
M  V30 10518 C 957.91 1.01211 -1.65741 0
M  V30 10519 O 957.185 1.70636 -0.933464 0
M  V30 10520 C 957.468 -0.636815 -3.54424 0
M  V30 10521 C 957.321 -2.11997 -3.96708 0
M  V30 10522 C 958.64 -0.0782411 -4.4003 0
M  V30 10523 H 955.759 -0.155637 -0.720379 0
M  V30 10524 H 958.401 -1.04566 -1.58638 0
M  V30 10525 H 956.551 -0.107907 -3.8835 0
M  V30 10526 H 958.223 -2.71317 -3.73075 0
M  V30 10527 H 956.466 -2.60723 -3.46707 0
M  V30 10528 H 957.137 -2.21944 -5.05416 0
M  V30 10529 H 959.613 -0.530243 -4.12708 0
M  V30 10530 H 958.489 -0.256676 -5.483 0
M  V30 10531 H 958.75 1.01745 -4.30233 0
M  V30 10532 N 957.809 1.4625 -0.587256 0
M  V30 10533 C 959.225 1.57641 -0.249284 0
M  V30 10534 C 959.425 1.58169 1.24839 0
M  V30 10535 O 958.481 1.50109 2.03036 0
M  V30 10536 C 959.794 2.86837 -0.902509 0
M  V30 10537 C 961.342 3.00476 -0.876524 0
M  V30 10538 C 961.817 4.32414 -1.50938 0
M  V30 10539 N 963.308 4.39124 -1.47392 0
M  V30 10540 C 964.043 5.39838 -1.93293 0
M  V30 10541 N 963.539 6.47202 -2.47188 0
M  V30 10542 N 965.332 5.31068 -1.84183 0
M  V30 10543 H 957.483 1.44151 -1.55994 0
M  V30 10544 H 959.746 0.687905 -0.652297 0
M  V30 10545 H 959.452 2.92274 -1.95624 0
M  V30 10546 H 959.326 3.74927 -0.413466 0
M  V30 10547 H 961.713 2.94618 0.168601 0
M  V30 10548 H 961.794 2.1385 -1.40363 0
M  V30 10549 H 961.438 4.3903 -2.55372 0
M  V30 10550 H 961.368 5.17823 -0.957455 0
M  V30 10551 H 963.859 3.62138 -1.08002 0
M  V30 10552 H 964.172 7.20269 -2.80058 0
M  V30 10553 H 962.517 6.48009 -2.51216 0
M  V30 10554 H 965.708 4.46095 -1.41833 0
M  V30 10555 H 965.881 6.09414 -2.2027 0
M  V30 10556 N 959.287 0.325282 1.54207 0
M  V30 10557 C 960.197 -0.548778 2.28091 0
M  V30 10558 C 961.213 -1.12772 1.32508 0
M  V30 10559 O 962.389 -1.14732 1.65525 0
M  V30 10560 C 959.454 -1.69284 3.02562 0
M  V30 10561 C 958.515 -1.14553 4.13734 0
M  V30 10562 C 957.748 -2.23506 4.84645 0
M  V30 10563 O 957.971 -3.43884 4.55082 0
M  V30 10564 O 956.905 -1.88828 5.71513 0
M  V30 10565 H 960.731 0.0512974 3.03657 0
M  V30 10566 H 958.316 0.0909159 1.49123 0
M  V30 10567 H 960.198 -2.35887 3.49192 0
M  V30 10568 H 958.873 -2.27906 2.2987 0
M  V30 10569 H 957.78 -0.444532 3.71449 0
M  V30 10570 H 959.113 -0.60441 4.88475 0
M  V30 10571 N 960.765 -1.57509 0.0534917 0
M  V30 10572 C 961.99 -1.97511 -0.632794 0
M  V30 10573 C 962.415 -0.930947 -1.63447 0
M  V30 10574 O 961.773 0.105558 -1.80992 0
M  V30 10575 C 961.821 -3.3658 -1.29407 0
M  V30 10576 O 960.925 -3.3467 -2.40977 0
M  V30 10577 H 960.266 -0.643349 -0.16431 0
M  V30 10578 H 962.796 -2.04232 0.12258 0
M  V30 10579 H 962.806 -3.73359 -1.64521 0
M  V30 10580 H 961.481 -4.12113 -0.559976 0
M  V30 10581 H 960.058 -3.09639 -2.07793 0
M  V30 10582 N 962.243 0.219913 -1.56058 0
M  V30 10583 C 963.468 0.965073 -1.83579 0
M  V30 10584 C 963.893 1.77092 -0.634024 0
M  V30 10585 O 963.251 1.76434 0.417205 0
M  V30 10586 C 963.299 1.85705 -3.09105 0
M  V30 10587 O 962.403 2.95261 -2.87914 0
M  V30 10588 H 961.744 0.273173 -0.605204 0
M  V30 10589 H 964.274 0.23273 -2.03272 0
M  V30 10590 H 964.284 2.26655 -3.39252 0
M  V30 10591 H 962.959 1.26476 -3.96203 0
M  V30 10592 H 961.536 2.58246 -2.69005 0
M  V30 10593 N 963.721 1.49897 0.486681 0
M  V30 10594 C 964.668 1.67619 1.58658 0
M  V30 10595 C 965.638 0.517537 1.57831 0
M  V30 10596 O 966.823 0.746272 1.756 0
M  V30 10597 C 963.963 1.762 2.96728 0
M  V30 10598 C 963.076 3.03465 3.07462 0
M  V30 10599 C 962.211 3.02937 4.36351 0
M  V30 10600 C 961.25 4.24721 4.4077 0
M  V30 10601 N 960.387 4.22021 5.61108 0
M  V30 10602 H 965.227 2.61528 1.42853 0
M  V30 10603 H 962.764 1.29657 0.694807 0
M  V30 10604 H 964.722 1.79156 3.76774 0
M  V30 10605 H 963.352 0.857452 3.11203 0
M  V30 10606 H 962.404 3.10054 2.20387 0
M  V30 10607 H 963.716 3.93454 3.06586 0
M  V30 10608 H 962.87 3.04536 5.24731 0
M  V30 10609 H 961.609 2.10751 4.39813 0
M  V30 10610 H 960.614 4.23352 3.5079 0
M  V30 10611 H 961.839 5.18116 4.39013 0
M  V30 10612 H 959.785 3.3268 5.65385 0
M  V30 10613 H 959.702 5.05761 5.61909 0
M  V30 10614 H 960.97 4.27743 6.51656 0
M  V30 10615 N 965.199 -0.738761 1.39212 0
M  V30 10616 C 966.131 -1.86286 1.3353 0
M  V30 10617 C 967.144 -1.6095 0.244755 0
M  V30 10618 O 968.333 -1.71254 0.50343 0
M  V30 10619 C 965.433 -3.22234 1.04969 0
M  V30 10620 C 964.606 -3.74956 2.25226 0
M  V30 10621 C 963.665 -4.89457 1.9318 0
M  V30 10622 O 962.691 -5.03314 2.65826 0
M  V30 10623 N 963.893 -5.73548 0.895679 0
M  V30 10624 H 966.658 -1.91666 2.304 0
M  V30 10625 H 964.219 -0.919338 1.33266 0
M  V30 10626 H 966.211 -3.96397 0.815566 0
M  V30 10627 H 964.781 -3.12146 0.168451 0
M  V30 10628 H 964.001 -2.92188 2.64612 0
M  V30 10629 H 965.289 -4.06914 3.05448 0
M  V30 10630 H 964.687 -5.64938 0.293541 0
M  V30 10631 H 963.244 -6.47795 0.721451 0
M  V30 10632 N 966.677 -1.24326 -0.968545 0
M  V30 10633 C 967.925 -1.08032 -1.70803 0
M  V30 10634 C 968.246 0.381728 -1.91227 0
M  V30 10635 O 967.516 1.27253 -1.48942 0
M  V30 10636 H 966.096 -0.396777 -0.632912 0
M  V30 10637 H 968.758 -1.56232 -1.16523 0
M  V30 10638 H 967.854 -1.57769 -2.69287 0
M  V30 10639 N 968.156 1.1691 -1.05688 0
M  V30 10640 C 969.396 1.88972 -0.779044 0
M  V30 10641 C 969.76 1.7949 0.681708 0
M  V30 10642 O 970.961 2.46418 1.07386 0
M  V30 10643 C 969.232 3.34737 -1.25242 0
M  V30 10644 S 970.791 4.24718 -1.10272 0
M  V30 10645 H 967.609 0.652349 -0.282776 0
M  V30 10646 H 970.211 1.41162 -1.35254 0
M  V30 10647 H 968.915 3.39175 -2.3106 0
M  V30 10648 H 968.446 3.87593 -0.673417 0
M  V30 10649 H 970.461 4.96191 -0.0299004 0
M  V30 10650 N 969.634 0.838594 1.33437 0
M  V30 10651 C 970.864 0.446995 2.01707 0
M  V30 10652 C 971.272 -0.956335 1.63251 0
M  V30 10653 O 970.615 -1.63289 0.841566 0
M  V30 10654 C 970.677 0.487707 3.56176 0
M  V30 10655 C 970.341 1.8471 4.18009 0
M  V30 10656 C 971.338 2.81028 4.374 0
M  V30 10657 C 969.023 2.13987 4.54439 0
M  V30 10658 C 971.017 4.04785 4.92369 0
M  V30 10659 C 968.704 3.38 5.09116 0
M  V30 10660 C 969.702 4.33216 5.28027 0
M  V30 10661 O 969.39 5.55036 5.81541 0
M  V30 10662 H 969.122 0.175799 0.652741 0
M  V30 10663 H 971.676 1.13265 1.71348 0
M  V30 10664 H 969.906 -0.254719 3.8586 0
M  V30 10665 H 971.595 0.113971 4.0574 0
M  V30 10666 H 972.361 2.5971 4.09604 0
M  V30 10667 H 968.24 1.40668 4.39014 0
M  V30 10668 H 971.784 4.79114 5.07046 0
M  V30 10669 H 967.681 3.59175 5.36343 0
M  V30 10670 H 968.449 5.56772 5.99956 0
M  V30 10671 N 971.112 -1.45937 0.595003 0
M  V30 10672 C 972.075 -2.2888 -0.121102 0
M  V30 10673 C 973.075 -1.39075 -0.807149 0
M  V30 10674 O 974.265 -1.61326 -0.657228 0
M  V30 10675 C 971.397 -3.19778 -1.1813 0
M  V30 10676 H 972.59 -2.93673 0.607968 0
M  V30 10677 H 970.143 -1.5225 0.353495 0
M  V30 10678 H 970.878 -2.59759 -1.94154 0
M  V30 10679 H 970.663 -3.85914 -0.693724 0
M  V30 10680 H 972.153 -3.82176 -1.68319 0
M  V30 10681 N 972.59 -0.333456 -1.54032 0
M  V30 10682 C 973.83 0.266604 -2.02654 0
M  V30 10683 C 974.194 1.48568 -1.21621 0
M  V30 10684 O 975.395 2.15925 -1.60093 0
M  V30 10685 C 973.666 0.582825 -3.52616 0
M  V30 10686 S 975.225 1.16113 -4.23159 0
M  V30 10687 H 972.043 0.0800344 -0.706481 0
M  V30 10688 H 974.645 -0.468876 -1.89794 0
M  V30 10689 H 973.349 -0.312401 -4.09209 0
M  V30 10690 H 972.88 1.34824 -3.69576 0
M  V30 10691 H 974.895 2.44743 -4.31642 0
M  V30 10692 N 974.068 1.57479 -0.061844 0
M  V30 10693 C 975.293 1.97843 0.622311 0
M  V30 10694 C 975.718 0.939602 1.62951 0
M  V30 10695 O 975.076 -0.095958 1.81046 0
M  V30 10696 C 975.124 3.37262 1.2762 0
M  V30 10697 O 974.228 3.35943 2.39199 0
M  V30 10698 H 973.569 0.644212 0.160896 0
M  V30 10699 H 976.099 2.04165 -0.133409 0
M  V30 10700 H 976.109 3.74226 1.62539 0
M  V30 10701 H 974.784 4.12404 0.538112 0
M  V30 10702 H 973.361 3.10737 2.06148 0
M  V30 10703 N 975.546 -0.211634 1.56173 0
M  V30 10704 C 976.792 -0.935935 1.79911 0
M  V30 10705 C 977.125 -1.83589 0.633155 0
M  V30 10706 O 976.4 -1.91004 -0.367132 0
M  V30 10707 C 976.683 -1.76638 3.13801 0
M  V30 10708 C 976.536 -0.892259 4.40861 0
M  V30 10709 C 977.855 -2.74224 3.44223 0
M  V30 10710 H 974.974 -0.338822 0.654499 0
M  V30 10711 H 977.616 -0.20422 1.88899 0
M  V30 10712 H 975.766 -2.39021 3.0627 0
M  V30 10713 H 977.438 -0.284407 4.60422 0
M  V30 10714 H 975.681 -0.198145 4.33347 0
M  V30 10715 H 976.352 -1.50793 5.31004 0
M  V30 10716 H 978.828 -2.21975 3.51946 0
M  V30 10717 H 977.704 -3.29424 4.39057 0
M  V30 10718 H 977.965 -3.52455 2.66885 0
M  V30 10719 N 977.024 -1.50153 -0.478725 0
M  V30 10720 C 978.27 -1.60998 -1.23318 0
M  V30 10721 C 978.603 -0.305868 -1.91776 0
M  V30 10722 O 977.878 0.692158 -1.81767 0
M  V30 10723 C 978.161 -2.78495 -2.28282 0
M  V30 10724 C 978.014 -4.18767 -1.64178 0
M  V30 10725 C 979.333 -2.91569 -3.2966 0
M  V30 10726 H 976.452 -0.585983 -0.446982 0
M  V30 10727 H 979.094 -1.82514 -0.528063 0
M  V30 10728 H 977.244 -2.60281 -2.8842 0
M  V30 10729 H 978.916 -4.48552 -1.07696 0
M  V30 10730 H 977.159 -4.23379 -0.94514 0
M  V30 10731 H 977.83 -4.96894 -2.40417 0
M  V30 10732 H 980.306 -3.08219 -2.79536 0
M  V30 10733 H 979.182 -3.75419 -4.0044 0
M  V30 10734 H 979.443 -2.01859 -3.93326 0
M  V30 10735 N 978.502 0.731368 -1.39602 0
M  V30 10736 C 979.748 1.49321 -1.37227 0
M  V30 10737 C 980.081 1.94176 0.0306502 0
M  V30 10738 O 979.356 1.67046 0.996294 0
M  V30 10739 C 979.639 2.73035 -2.34784 0
M  V30 10740 C 979.492 2.34176 -3.84033 0
M  V30 10741 C 980.811 3.75146 -2.30116 0
M  V30 10742 H 977.93 0.541652 -0.499783 0
M  V30 10743 H 980.572 0.835968 -1.70621 0
M  V30 10744 H 978.722 3.29114 -2.06437 0
M  V30 10745 H 980.394 1.83701 -4.23145 0
M  V30 10746 H 978.637 1.66361 -4.00633 0
M  V30 10747 H 979.308 3.22786 -4.47787 0
M  V30 10748 H 981.784 3.28661 -2.55189 0
M  V30 10749 H 980.66 4.5937 -3.00451 0
M  V30 10750 H 980.921 4.22326 -1.30741 0
M  V30 10751 N 979.98 1.24838 0.961938 0
M  V30 10752 C 981.257 0.99939 1.68141 0
M  V30 10753 C 981.637 -0.476588 2.0565 0
M  V30 10754 O 980.985 -1.45224 1.76415 0
M  V30 10755 C 981.195 1.92797 2.90913 0
M  V30 10756 C 982.543 2.20219 3.63027 0
M  V30 10757 O 983.567 1.90496 3.00981 0
M  V30 10758 O 982.426 2.70725 4.74731 0
M  V30 10759 H 979.52 0.37842 0.735342 0
M  V30 10760 H 982.066 1.35961 1.01551 0
M  V30 10761 H 980.838 2.92492 2.59931 0
M  V30 10762 H 980.461 1.57127 3.65235 0
M  V30 10763 N 981.458 -1.16348 1.06306 0
M  V30 10764 C 982.706 -1.86512 0.778311 0
M  V30 10765 C 983.027 -1.82107 -0.697273 0
M  V30 10766 O 982.297 -1.2547 -1.50446 0
M  V30 10767 H 980.877 -0.690529 0.284919 0
M  V30 10768 H 983.539 -1.41092 1.34458 0
M  V30 10769 H 982.635 -2.91947 1.10333 0
M  V30 10770 N 982.937 -0.845659 -1.3299 0
M  V30 10771 C 983.847 -0.2864 -2.32845 0
M  V30 10772 C 984.863 0.591105 -1.63652 0
M  V30 10773 O 986.039 0.493615 -1.95257 0
M  V30 10774 C 983.104 0.523636 -3.42723 0
M  V30 10775 C 982.165 -0.378945 -4.27624 0
M  V30 10776 C 981.398 0.392526 -5.32255 0
M  V30 10777 O 981.621 1.6235 -5.46808 0
M  V30 10778 O 980.555 -0.237 -6.01433 0
M  V30 10779 H 984.381 -1.11346 -2.82552 0
M  V30 10780 H 981.966 -0.608356 -1.36453 0
M  V30 10781 H 983.848 0.983718 -4.09757 0
M  V30 10782 H 982.523 1.32764 -2.95221 0
M  V30 10783 H 981.43 -0.887012 -3.63432 0
M  V30 10784 H 982.763 -1.1479 -4.78627 0
M  V30 10785 N 984.415 1.45619 -0.602734 0
M  V30 10786 C 985.661 2.02572 -0.0961759 0
M  V30 10787 C 985.994 1.47076 1.26815 0
M  V30 10788 O 985.269 0.643566 1.83544 0
M  V30 10789 C 985.552 3.60062 -0.0520032 0
M  V30 10790 C 985.405 4.25901 -1.44665 0
M  V30 10791 C 986.724 4.35446 0.638342 0
M  V30 10792 H 983.843 0.736099 -0.0364238 0
M  V30 10793 H 986.485 1.7353 -0.773776 0
M  V30 10794 H 984.635 3.84936 0.525032 0
M  V30 10795 H 986.307 4.12228 -2.0704 0
M  V30 10796 H 984.55 3.84489 -2.00874 0
M  V30 10797 H 985.221 5.34779 -1.36803 0
M  V30 10798 H 987.697 4.15837 0.147926 0
M  V30 10799 H 986.573 5.45176 0.63834 0
M  V30 10800 H 986.834 4.07962 1.70351 0
M  V30 10801 N 985.893 0.34162 1.53853 0
M  V30 10802 C 986.84 -0.516058 2.24957 0
M  V30 10803 C 987.81 -1.09711 1.2471 0
M  V30 10804 O 988.995 -1.13409 1.53438 0
M  V30 10805 C 986.135 -1.66207 3.02439 0
M  V30 10806 C 985.248 -1.10851 4.17536 0
M  V30 10807 C 984.383 -2.22167 4.82509 0
M  V30 10808 C 983.422 -1.64152 5.89678 0
M  V30 10809 N 982.559 -2.69203 6.4844 0
M  V30 10810 H 987.399 0.0968275 2.97843 0
M  V30 10811 H 984.936 0.0595565 1.46979 0
M  V30 10812 H 986.894 -2.33672 3.4562 0
M  V30 10813 H 985.524 -2.24597 2.31853 0
M  V30 10814 H 984.576 -0.324853 3.7901 0
M  V30 10815 H 985.888 -0.644151 4.94623 0
M  V30 10816 H 985.042 -2.97501 5.28751 0
M  V30 10817 H 983.781 -2.71946 4.04842 0
M  V30 10818 H 982.786 -0.873228 5.42821 0
M  V30 10819 H 984.011 -1.15228 6.69253 0
M  V30 10820 H 981.957 -3.1824 5.73637 0
M  V30 10821 H 981.874 -2.27383 7.20994 0
M  V30 10822 H 983.142 -3.44312 6.99335 0
M  V30 10823 N 987.371 -1.57444 0.0701946 0
M  V30 10824 C 988.321 -2.09154 -0.90767 0
M  V30 10825 C 989.305 -1.00087 -1.25982 0
M  V30 10826 O 990.497 -1.26397 -1.23906 0
M  V30 10827 C 987.626 -2.65544 -2.17581 0
M  V30 10828 C 986.712 -3.81613 -1.85021 0
M  V30 10829 N 987.103 -4.90641 -1.22904 0
M  V30 10830 C 985.401 -3.90878 -2.1478 0
M  V30 10831 C 986.102 -5.71511 -1.084 0
M  V30 10832 N 985.078 -5.1973 -1.59318 0
M  V30 10833 H 988.88 -2.90839 -0.423051 0
M  V30 10834 H 986.394 -1.61848 -0.13374 0
M  V30 10835 H 988.391 -3.00904 -2.88552 0
M  V30 10836 H 987.051 -1.85304 -2.66632 0
M  V30 10837 H 988.062 -5.1004 -0.898878 0
M  V30 10838 H 984.739 -3.21611 -2.66219 0
M  V30 10839 H 986.129 -6.69214 -0.600183 0
M  V30 10840 N 988.849 0.203349 -1.56283 0
M  V30 10841 C 990.089 0.931871 -1.81922 0
M  V30 10842 C 990.453 1.8079 -0.646459 0
M  V30 10843 O 991.654 2.57157 -0.782556 0
M  V30 10844 C 989.925 1.73347 -3.12547 0
M  V30 10845 S 991.484 2.51514 -3.59564 0
M  V30 10846 H 988.302 0.312706 -0.638542 0
M  V30 10847 H 990.904 0.195931 -1.94516 0
M  V30 10848 H 989.608 1.08038 -3.95924 0
M  V30 10849 H 989.139 2.51138 -3.02809 0
M  V30 10850 H 991.154 3.7552 -3.24345 0
M  V30 10851 N 990.327 1.50405 0.470755 0
M  V30 10852 C 991.573 1.6165 1.22462 0
M  V30 10853 C 991.906 0.316034 1.91611 0
M  V30 10854 O 991.181 -0.682509 1.82132 0
M  V30 10855 C 991.464 2.79702 2.26801 0
M  V30 10856 C 991.317 4.19631 1.61955 0
M  V30 10857 C 992.636 2.93313 3.28109 0
M  V30 10858 H 989.755 0.588345 0.443868 0
M  V30 10859 H 992.397 1.82792 0.518376 0
M  V30 10860 H 990.547 2.61807 2.87036 0
M  V30 10861 H 992.219 4.49117 1.05316 0
M  V30 10862 H 990.462 4.23874 0.922674 0
M  V30 10863 H 991.133 4.98162 2.37779 0
M  V30 10864 H 993.609 3.09697 2.77897 0
M  V30 10865 H 992.485 3.77537 3.98443 0
M  V30 10866 H 992.746 2.03942 3.9225 0
M  V30 10867 N 991.805 -0.723954 1.39988 0
M  V30 10868 C 993.054 -1.47922 1.3712 0
M  V30 10869 C 993.367 -1.95582 -0.0263665 0
M  V30 10870 O 994.573 -2.70918 -0.177652 0
M  V30 10871 C 993.029 -2.67342 2.40949 0
M  V30 10872 C 992.637 -2.26586 3.86475 0
M  V30 10873 C 994.381 -3.45116 2.47174 0
M  V30 10874 C 992.288 -3.42794 4.81919 0
M  V30 10875 H 991.218 -0.555522 0.509815 0
M  V30 10876 H 993.869 -0.788692 1.65686 0
M  V30 10877 H 992.251 -3.38524 2.0547 0
M  V30 10878 H 993.425 -1.62878 4.31054 0
M  V30 10879 H 991.74 -1.61876 3.83647 0
M  V30 10880 H 994.337 -4.31573 3.15672 0
M  V30 10881 H 994.68 -3.8835 1.49966 0
M  V30 10882 H 995.213 -2.80971 2.81602 0
M  V30 10883 H 991.952 -3.046 5.8043 0
M  V30 10884 H 991.472 -4.05445 4.42012 0
M  V30 10885 H 993.151 -4.08977 5.01345 0
M  V30 10886 N 993.283 -1.25346 -0.955304 0
M  V30 10887 C 994.231 -1.05461 -2.07318 0
M  V30 10888 C 995.225 0.0142699 -1.69394 0
M  V30 10889 O 996.431 -0.141292 -1.79445 0
M  V30 10890 H 992.806 -0.324095 -0.678577 0
M  V30 10891 H 994.777 -2.00231 -2.21247 0
M  V30 10892 C 993.526 -0.689329 -3.40798 0
M  V30 10893 H 992.849 -1.50362 -3.70447 0
M  V30 10894 H 994.289 -0.589883 -4.19877 0
M  V30 10895 C 992.748 0.604556 -3.31431 0
M  V30 10896 O 993.278 1.64686 -3.6639 0
M  V30 10897 N 991.484 0.589927 -2.84549 0
M  V30 10898 H 991.031 -0.258647 -2.56298 0
M  V30 10899 H 990.989 1.4558 -2.78664 0
M  V30 10900 N 994.761 1.15782 -1.06922 0
M  V30 10901 C 995.708 2.2038 -0.685659 0
M  V30 10902 C 996.678 1.62972 0.320816 0
M  V30 10903 O 997.863 1.8966 0.208258 0
M  V30 10904 C 995.003 3.44995 -0.084998 0
M  V30 10905 C 994.116 4.16621 -1.14242 0
M  V30 10906 C 993.251 5.28773 -0.507226 0
M  V30 10907 C 992.29 5.92209 -1.54774 0
M  V30 10908 N 991.427 6.9584 -0.935443 0
M  V30 10909 H 996.267 2.5254 -1.58201 0
M  V30 10910 H 993.804 1.24031 -0.790864 0
M  V30 10911 H 995.762 4.16254 0.280845 0
M  V30 10912 H 994.392 3.13365 0.774725 0
M  V30 10913 H 993.444 3.43903 -1.62589 0
M  V30 10914 H 994.756 4.59884 -1.93154 0
M  V30 10915 H 993.91 6.06635 -0.0887719 0
M  V30 10916 H 992.649 4.8669 0.313704 0
M  V30 10917 H 991.654 5.13063 -1.97602 0
M  V30 10918 H 992.879 6.3637 -2.37088 0
M  V30 10919 H 990.825 6.5586 -0.135339 0
M  V30 10920 H 990.742 7.37508 -1.66186 0
M  V30 10921 H 992.01 7.77611 -0.542346 0
M  V30 10922 N 996.239 0.8527 1.3254 0
M  V30 10923 C 997.467 0.469044 2.01513 0
M  V30 10924 C 997.882 -0.933701 1.64096 0
M  V30 10925 O 997.239 -1.60898 0.861283 0
M  V30 10926 C 997.29 0.596228 3.56549 0
M  V30 10927 O 997.011 1.94371 3.92621 0
M  V30 10928 C 998.512 0.211324 4.42796 0
M  V30 10929 H 995.732 0.184589 0.645111 0
M  V30 10930 H 998.276 1.1491 1.69163 0
M  V30 10931 H 996.431 -0.0360712 3.87383 0
M  V30 10932 H 996.845 1.93909 4.87339 0
M  V30 10933 H 998.319 0.351324 5.50881 0
M  V30 10934 H 998.796 -0.848055 4.30935 0
M  V30 10935 H 999.402 0.818617 4.17347 0
M  V30 10936 N 997.718 -1.45297 0.610449 0
M  V30 10937 C 998.681 -2.28995 -0.0968194 0
M  V30 10938 C 999.681 -1.39923 -0.792353 0
M  V30 10939 O 1000.87 -1.62014 -0.64008 0
M  V30 10940 C 998.003 -3.21013 -1.14731 0
M  V30 10941 H 999.196 -2.93012 0.639082 0
M  V30 10942 H 996.749 -1.51867 0.369624 0
M  V30 10943 H 997.484 -2.61803 -1.91388 0
M  V30 10944 H 997.269 -3.86628 -0.652753 0
M  V30 10945 H 998.759 -3.8394 -1.64256 0
M  V30 10946 N 999.196 -0.349774 -1.5367 0
M  V30 10947 C 1000.42 0.246038 -2.05432 0
M  V30 10948 C 1000.84 1.43719 -1.22435 0
M  V30 10949 O 1000.2 1.80622 -0.261166 0
M  V30 10950 C 1000.25 0.65501 -3.55516 0
M  V30 10951 O 999.968 -0.488782 -4.35365 0
M  V30 10952 C 1001.47 1.31088 -4.23475 0
M  V30 10953 H 998.689 0.0463952 -0.669394 0
M  V30 10954 H 1001.23 -0.503566 -1.98203 0
M  V30 10955 H 999.388 1.35455 -3.62947 0
M  V30 10956 H 999.802 -0.161528 -5.24251 0
M  V30 10957 H 1001.28 1.54774 -5.29857 0
M  V30 10958 H 1001.75 2.26636 -3.76208 0
M  V30 10959 H 1002.36 0.653211 -4.20254 0
M  V30 10960 N 1000.67 1.57404 -0.0785433 0
M  V30 10961 C 1001.92 1.93361 0.58786 0
M  V30 10962 C 1002.24 0.959856 1.6974 0
M  V30 10963 O 1001.51 0.0091173 1.95898 0
M  V30 10964 H 1000.09 0.713825 0.220141 0
M  V30 10965 H 1002.75 1.94411 -0.137986 0
M  V30 10966 H 1001.85 2.95346 1.00881 0
M  V30 10967 N 1002.15 -0.195058 1.56388 0
M  V30 10968 C 1003.38 -0.930291 1.8447 0
M  V30 10969 C 1003.79 -1.77356 0.658901 0
M  V30 10970 O 1003.13 -1.79691 -0.381664 0
M  V30 10971 C 1003.19 -1.87626 3.06654 0
M  V30 10972 C 1002.86 -1.21494 4.40555 0
M  V30 10973 C 1003.86 -0.591847 5.1652 0
M  V30 10974 C 1001.54 -1.21878 4.8729 0
M  V30 10975 C 1003.53 0.0185743 6.37397 0
M  V30 10976 C 1001.22 -0.604524 6.08103 0
M  V30 10977 C 1002.22 0.0130731 6.82999 0
M  V30 10978 O 1001.91 0.617703 8.01523 0
M  V30 10979 H 1001.64 -0.276933 0.616672 0
M  V30 10980 H 1004.19 -0.207277 2.04351 0
M  V30 10981 H 1002.42 -2.63897 2.82658 0
M  V30 10982 H 1004.11 -2.47929 3.21382 0
M  V30 10983 H 1004.88 -0.581018 4.81507 0
M  V30 10984 H 1000.76 -1.68888 4.2895 0
M  V30 10985 H 1004.3 0.50124 6.95797 0
M  V30 10986 H 1000.2 -0.612855 6.42584 0
M  V30 10987 H 1000.97 0.514612 8.16881 0
M  V30 10988 N 1003.63 -1.50653 -0.462772 0
M  V30 10989 C 1004.88 -1.61737 -1.21184 0
M  V30 10990 C 1005.2 -0.32369 -1.92295 0
M  V30 10991 O 1004.47 0.659269 -1.84473 0
M  V30 10992 H 1003.05 -0.596015 -0.450306 0
M  V30 10993 H 1005.71 -1.87469 -0.533051 0
M  V30 10994 H 1004.81 -2.43262 -1.95525 0
M  V30 10995 N 1005.11 0.71652 -1.4037 0
M  V30 10996 C 1006.36 1.47638 -1.38597 0
M  V30 10997 C 1006.68 1.94496 0.0120141 0
M  V30 10998 O 1005.94 1.68437 0.996373 0
M  V30 10999 C 1006.24 2.71777 -2.32103 0
M  V30 11000 C 1005.9 2.43689 -3.79376 0
M  V30 11001 C 1004.57 2.35739 -4.195 0
M  V30 11002 C 1006.92 2.20099 -4.72447 0
M  V30 11003 C 1004.25 2.02265 -5.50732 0
M  V30 11004 C 1006.6 1.88138 -6.03976 0
M  V30 11005 C 1005.26 1.78669 -6.43143 0
M  V30 11006 H 1004.53 0.540246 -0.507163 0
M  V30 11007 H 1007.18 0.820822 -1.73017 0
M  V30 11008 H 1005.48 3.42166 -1.90865 0
M  V30 11009 H 1007.18 3.29864 -2.28015 0
M  V30 11010 H 1003.77 2.50763 -3.47585 0
M  V30 11011 H 1007.95 2.25198 -4.42266 0
M  V30 11012 H 1003.21 1.93471 -5.79982 0
M  V30 11013 H 1007.38 1.68898 -6.75608 0
M  V30 11014 H 1005.01 1.52498 -7.44747 0
M  V30 11015 N 1006.59 1.25851 0.948643 0
M  V30 11016 C 1007.55 1.0683 2.0278 0
M  V30 11017 C 1008.55 0.0191016 1.60789 0
M  V30 11018 O 1009.74 0.261836 1.72221 0
M  V30 11019 C 1006.87 0.623318 3.35153 0
M  V30 11020 H 1008.06 2.02635 2.21086 0
M  V30 11021 H 1005.62 1.08343 1.12657 0
M  V30 11022 H 1006.35 -0.337053 3.22544 0
M  V30 11023 H 1006.14 1.38082 3.66982 0
M  V30 11024 H 1007.63 0.511854 4.14451 0
M  V30 11025 N 1008.06 -1.15214 1.07534 0
M  V30 11026 C 1008.97 -2.23636 0.708818 0
M  V30 11027 C 1009.99 -1.7172 -0.280759 0
M  V30 11028 O 1011.17 -2.01 -0.126927 0
M  V30 11029 C 1008.23 -3.46512 0.114167 0
M  V30 11030 C 1007.29 -4.13409 1.15722 0
M  V30 11031 C 1006.53 -5.30419 0.59085 0
M  V30 11032 O 1006.75 -5.67314 -0.592512 0
M  V30 11033 O 1005.68 -5.86871 1.33663 0
M  V30 11034 H 1009.51 -2.57322 1.61305 0
M  V30 11035 H 1007.09 -1.22972 0.848422 0
M  V30 11036 H 1008.98 -4.20851 -0.215091 0
M  V30 11037 H 1007.65 -3.1457 -0.763356 0
M  V30 11038 H 1006.56 -3.40984 1.53886 0
M  V30 11039 H 1007.89 -4.49435 2.00671 0
M  V30 11040 N 1009.54 -0.859717 -1.32086 0
M  V30 11041 C 1010.95 -0.519529 -1.79326 0
M  V30 11042 C 1011.3 0.96295 -1.70944 0
M  V30 11043 O 1010.43 1.75139 -1.27104 0
M  V30 11044 C 1011.02 -0.936267 -3.25606 0
M  V30 11045 C 1009.58 -0.647899 -3.70782 0
M  V30 11046 C 1008.73 -1.13323 -2.53087 0
M  V30 11047 H 1011.68 -1.04643 -1.19312 0
M  V30 11048 H 1011.7 -0.254714 -3.79646 0
M  V30 11049 H 1011.21 -2.01527 -3.31675 0
M  V30 11050 H 1009.32 0.420172 -3.70223 0
M  V30 11051 H 1009.43 -1.21774 -4.63366 0
M  V30 11052 H 1007.79 -0.553325 -2.48617 0
M  V30 11053 H 1008.58 -2.21945 -2.61907 0
M  V30 11054 N 1011.02 1.44971 -0.618145 0
M  V30 11055 C 1012.25 2.06228 -0.123985 0
M  V30 11056 C 1012.66 1.46166 1.20134 0
M  V30 11057 O 1012 0.574099 1.74499 0
M  V30 11058 C 1012.06 3.59413 0.0789098 0
M  V30 11059 C 1011.73 4.41869 -1.16624 0
M  V30 11060 C 1012.72 4.76177 -2.0869 0
M  V30 11061 C 1010.41 4.82453 -1.39802 0
M  V30 11062 C 1012.4 5.49938 -3.22254 0
M  V30 11063 C 1010.09 5.55965 -2.53665 0
M  V30 11064 C 1011.09 5.89626 -3.44718 0
M  V30 11065 O 1010.78 6.61644 -4.56598 0
M  V30 11066 H 1010.51 0.672274 -0.0708822 0
M  V30 11067 H 1013.06 1.87038 -0.848868 0
M  V30 11068 H 1011.29 3.77043 0.8588 0
M  V30 11069 H 1012.98 4.02478 0.52599 0
M  V30 11070 H 1013.75 4.45372 -1.92012 0
M  V30 11071 H 1009.63 4.55681 -0.698245 0
M  V30 11072 H 1013.17 5.76129 -3.93347 0
M  V30 11073 H 1009.07 5.86185 -2.70291 0
M  V30 11074 H 1009.84 6.80103 -4.55414 0
M  V30 11075 N 1012.5 0.357919 1.53482 0
M  V30 11076 C 1013.45 -0.507364 2.26999 0
M  V30 11077 C 1014.44 -1.08987 1.29685 0
M  V30 11078 O 1015.65 -1.03396 1.47341 0
M  V30 11079 H 1012.02 -0.182326 0.729562 0
M  V30 11080 H 1013.99 0.134547 2.98097 0
M  V30 11081 C 1012.74 -1.63911 3.06641 0
M  V30 11082 H 1012.06 -1.20017 3.81361 0
M  V30 11083 H 1013.5 -2.21943 3.61272 0
M  V30 11084 C 1011.96 -2.57697 2.17011 0
M  V30 11085 O 1012.49 -3.60318 1.77578 0
M  V30 11086 N 1010.7 -2.2671 1.818 0
M  V30 11087 H 1010.25 -1.43296 2.14065 0
M  V30 11088 H 1010.2 -2.89716 1.22115 0
M  V30 11089 N 1013.98 -1.5736 0.0868897 0
M  V30 11090 C 1014.91 -2.16596 -0.872252 0
M  V30 11091 C 1015.89 -1.09706 -1.29995 0
M  V30 11092 O 1017.07 -1.37808 -1.36831 0
M  V30 11093 C 1014.2 -2.73972 -2.1344 0
M  V30 11094 C 1013.16 -3.86163 -1.8456 0
M  V30 11095 C 1012.48 -4.30206 -3.17533 0
M  V30 11096 C 1013.78 -5.0973 -1.13899 0
M  V30 11097 H 1015.48 -2.96995 -0.378738 0
M  V30 11098 H 1013.02 -1.42861 -0.18073 0
M  V30 11099 H 1014.98 -3.14062 -2.80968 0
M  V30 11100 H 1013.7 -1.90817 -2.6506 0
M  V30 11101 H 1012.36 -3.466 -1.19432 0
M  V30 11102 H 1012.01 -3.43951 -3.67024 0
M  V30 11103 H 1011.71 -5.05841 -2.98996 0
M  V30 11104 H 1013.23 -4.72922 -3.86234 0
M  V30 11105 H 1014.64 -5.4704 -1.71523 0
M  V30 11106 H 1013.04 -5.90741 -1.05569 0
M  V30 11107 H 1014.11 -4.8475 -0.120432 0
M  V30 11108 N 1015.45 0.186762 -1.56489 0
M  V30 11109 C 1016.68 0.920495 -1.84961 0
M  V30 11110 C 1017.09 1.77004 -0.668297 0
M  V30 11111 O 1016.44 1.79891 0.37213 0
M  V30 11112 C 1016.5 1.85997 -3.07645 0
M  V30 11113 C 1016.16 1.19156 -4.41193 0
M  V30 11114 C 1017.16 0.564446 -5.16827 0
M  V30 11115 C 1014.84 1.19292 -4.87929 0
M  V30 11116 C 1016.84 -0.0523768 -6.37378 0
M  V30 11117 C 1014.52 0.572266 -6.08415 0
M  V30 11118 C 1015.52 -0.049294 -6.82982 0
M  V30 11119 O 1015.21 -0.660201 -8.01184 0
M  V30 11120 H 1014.94 0.273659 -0.618132 0
M  V30 11121 H 1017.5 0.196437 -2.04459 0
M  V30 11122 H 1015.73 2.62394 -2.84053 0
M  V30 11123 H 1017.42 2.46221 -3.22692 0
M  V30 11124 H 1018.18 0.555474 -4.81809 0
M  V30 11125 H 1014.06 1.66611 -4.29839 0
M  V30 11126 H 1017.6 -0.538133 -6.95521 0
M  V30 11127 H 1013.5 0.578769 -6.429 0
M  V30 11128 H 1014.27 -0.557926 -8.16596 0
M  V30 11129 N 1016.93 1.50896 0.454776 0
M  V30 11130 C 1018.16 1.66759 1.23313 0
M  V30 11131 C 1018.58 0.35722 1.84677 0
M  V30 11132 O 1017.94 -0.680771 1.68033 0
M  V30 11133 C 1017.99 2.77254 2.3057 0
M  V30 11134 O 1017.09 2.39642 3.35627 0
M  V30 11135 H 1016.43 0.556599 0.362068 0
M  V30 11136 H 1018.96 1.97365 0.539274 0
M  V30 11137 H 1018.97 3.0082 2.75629 0
M  V30 11138 H 1017.65 3.72349 1.85281 0
M  V30 11139 H 1016.23 2.26584 2.96165 0
M  V30 11140 N 1018.41 -0.709066 1.40748 0
M  V30 11141 C 1019.64 -1.50313 1.42901 0
M  V30 11142 C 1020.06 -1.88072 0.032213 0
M  V30 11143 O 1019.42 -1.53716 -0.96131 0
M  V30 11144 C 1019.47 -2.75074 2.33166 0
M  V30 11145 O 1018.57 -3.72036 1.7794 0
M  V30 11146 H 1017.91 -0.452934 0.485538 0
M  V30 11147 H 1020.44 -0.872712 1.85054 0
M  V30 11148 H 1020.45 -3.23532 2.48578 0
M  V30 11149 H 1019.13 -2.46927 3.34664 0
M  V30 11150 H 1017.7 -3.30911 1.71908 0
M  V30 11151 N 1019.89 -1.26353 -0.941956 0
M  V30 11152 C 1020.82 -1.10341 -2.05784 0
M  V30 11153 C 1021.8 -0.00881565 -1.70098 0
M  V30 11154 O 1022.99 -0.180699 -1.93357 0
M  V30 11155 C 1020.12 -0.734788 -3.39438 0
M  V30 11156 C 1019.07 -1.78103 -3.89183 0
M  V30 11157 C 1018.4 -1.26675 -5.19478 0
M  V30 11158 C 1019.7 -3.1824 -4.14151 0
M  V30 11159 H 1021.39 -2.03684 -2.19438 0
M  V30 11160 H 1018.94 -0.980698 -1.05443 0
M  V30 11161 H 1020.89 -0.609653 -4.16967 0
M  V30 11162 H 1019.61 0.234354 -3.25758 0
M  V30 11163 H 1018.27 -1.89482 -3.13835 0
M  V30 11164 H 1017.92 -0.287472 -5.02178 0
M  V30 11165 H 1017.62 -1.96612 -5.53731 0
M  V30 11166 H 1019.14 -1.15427 -5.99591 0
M  V30 11167 H 1020.56 -3.09942 -4.82296 0
M  V30 11168 H 1018.95 -3.8576 -4.59684 0
M  V30 11169 H 1020.02 -3.64354 -3.19959 0
M  V30 11170 N 1021.37 1.14642 -1.08144 0
M  V30 11171 C 1022.31 2.1964 -0.708995 0
M  V30 11172 C 1023.28 1.63303 0.303512 0
M  V30 11173 O 1024.47 1.8987 0.18813 0
M  V30 11174 C 1021.61 3.44886 -0.121585 0
M  V30 11175 C 1020.72 4.15386 -1.18654 0
M  V30 11176 C 1019.86 5.28205 -0.56328 0
M  V30 11177 C 1018.9 5.90534 -1.61046 0
M  V30 11178 N 1018.03 6.94809 -1.00919 0
M  V30 11179 H 1022.87 2.50848 -1.6087 0
M  V30 11180 H 1020.41 1.23185 -0.803975 0
M  V30 11181 H 1022.37 4.16528 0.23668 0
M  V30 11182 H 1021 3.14169 0.741445 0
M  V30 11183 H 1020.05 3.42159 -1.66227 0
M  V30 11184 H 1021.36 4.57809 -1.9802 0
M  V30 11185 H 1020.52 6.06507 -0.153109 0
M  V30 11186 H 1019.26 4.86995 0.262066 0
M  V30 11187 H 1018.26 5.10938 -2.03033 0
M  V30 11188 H 1019.49 6.33819 -2.43824 0
M  V30 11189 H 1017.43 6.5568 -0.204894 0
M  V30 11190 H 1017.35 7.35704 -1.73999 0
M  V30 11191 H 1018.62 7.76992 -0.624792 0
M  V30 11192 N 1022.85 0.866709 1.31628 0
M  V30 11193 C 1023.76 0.323408 2.3236 0
M  V30 11194 C 1024.77 -0.564995 1.64572 0
M  V30 11195 O 1025.95 -0.462489 1.96018 0
M  V30 11196 C 1023.01 -0.469045 3.43513 0
M  V30 11197 C 1022.07 0.446928 4.26967 0
M  V30 11198 C 1021.31 -0.307799 5.32812 0
M  V30 11199 O 1021.53 -1.5363 5.49321 0
M  V30 11200 O 1020.46 0.332653 6.0098 0
M  V30 11201 H 1024.29 1.15827 2.80745 0
M  V30 11202 H 1021.87 0.629987 1.35468 0
M  V30 11203 H 1023.76 -0.918405 4.1127 0
M  V30 11204 H 1022.43 -1.28051 2.97296 0
M  V30 11205 H 1021.34 0.944719 3.61975 0
M  V30 11206 H 1022.67 1.2239 4.76741 0
M  V30 11207 N 1024.32 -1.44642 0.625825 0
M  V30 11208 C 1025.25 -2.33397 -0.0692188 0
M  V30 11209 C 1026.23 -1.47898 -0.840241 0
M  V30 11210 O 1027.42 -1.7663 -0.807176 0
M  V30 11211 C 1024.55 -3.30888 -1.055 0
M  V30 11212 C 1023.5 -4.26164 -0.395968 0
M  V30 11213 C 1022.83 -5.13483 -1.49128 0
M  V30 11214 C 1024.13 -5.17663 0.694433 0
M  V30 11215 H 1025.82 -2.91763 0.671925 0
M  V30 11216 H 1023.37 -1.40294 0.324573 0
M  V30 11217 H 1025.32 -3.91861 -1.54993 0
M  V30 11218 H 1024.05 -2.7072 -1.82696 0
M  V30 11219 H 1022.71 -3.66516 0.0782691 0
M  V30 11220 H 1022.35 -4.49672 -2.25399 0
M  V30 11221 H 1022.05 -5.78038 -1.05573 0
M  V30 11222 H 1023.58 -5.77327 -1.98813 0
M  V30 11223 H 1024.99 -5.72602 0.282818 0
M  V30 11224 H 1023.39 -5.90793 1.05281 0
M  V30 11225 H 1024.46 -4.58994 1.56372 0
M  V30 11226 N 1025.8 -0.366053 -1.5329 0
M  V30 11227 C 1027.05 0.223824 -2.01561 0
M  V30 11228 C 1027.38 1.48382 -1.25286 0
M  V30 11229 O 1026.66 1.91385 -0.34669 0
M  V30 11230 C 1026.94 0.5153 -3.56394 0
M  V30 11231 C 1026.79 -0.758357 -4.43361 0
M  V30 11232 C 1028.11 1.31568 -4.19974 0
M  V30 11233 H 1025.23 0.0798751 -0.732659 0
M  V30 11234 H 1027.87 -0.491038 -1.83545 0
M  V30 11235 H 1026.02 1.12429 -3.71876 0
M  V30 11236 H 1027.69 -1.39584 -4.39675 0
M  V30 11237 H 1025.94 -1.37862 -4.11311 0
M  V30 11238 H 1026.61 -0.509366 -5.49645 0
M  V30 11239 H 1029.08 0.800514 -4.08327 0
M  V30 11240 H 1027.96 1.48837 -5.28336 0
M  V30 11241 H 1028.22 2.32432 -3.76069 0
M  V30 11242 N 1027.28 1.57312 -0.0952337 0
M  V30 11243 C 1028.21 2.17056 0.860753 0
M  V30 11244 C 1029.19 1.10394 1.29411 0
M  V30 11245 O 1030.38 1.38532 1.36098 0
M  V30 11246 C 1027.51 2.751 2.11984 0
M  V30 11247 C 1026.46 3.87136 1.8251 0
M  V30 11248 C 1025.79 4.31883 3.15247 0
M  V30 11249 C 1027.09 5.10326 1.11194 0
M  V30 11250 H 1028.78 2.97192 0.362983 0
M  V30 11251 H 1026.33 1.42955 0.173151 0
M  V30 11252 H 1028.28 3.15547 2.79299 0
M  V30 11253 H 1027 1.92219 2.64044 0
M  V30 11254 H 1025.66 3.47229 1.17592 0
M  V30 11255 H 1025.31 3.45893 3.65195 0
M  V30 11256 H 1025.01 5.0742 2.96309 0
M  V30 11257 H 1026.53 4.74964 3.83721 0
M  V30 11258 H 1027.95 5.47942 1.6862 0
M  V30 11259 H 1026.34 5.91293 1.02435 0
M  V30 11260 H 1027.41 4.84807 0.0947227 0
M  V30 11261 N 1028.76 -0.17846 1.56586 0
M  V30 11262 C 1029.71 -1.22552 1.92263 0
M  V30 11263 C 1030.69 -1.40163 0.790131 0
M  V30 11264 O 1031.88 -1.42254 1.05322 0
M  V30 11265 C 1029.01 -2.5666 2.27993 0
M  V30 11266 C 1028.1 -2.42772 3.47739 0
M  V30 11267 N 1028.49 -1.98588 4.65185 0
M  V30 11268 C 1026.79 -2.73619 3.52205 0
M  V30 11269 C 1027.49 -1.96991 5.47329 0
M  V30 11270 N 1026.46 -2.39126 4.8818 0
M  V30 11271 H 1030.27 -0.875493 2.80557 0
M  V30 11272 H 1027.78 -0.386785 1.57727 0
M  V30 11273 H 1029.78 -3.32312 2.51743 0
M  V30 11274 H 1028.44 -2.92472 1.41034 0
M  V30 11275 H 1029.45 -1.69036 4.89538 0
M  V30 11276 H 1026.13 -3.13516 2.75706 0
M  V30 11277 H 1027.52 -1.64589 6.51429 0
M  V30 11278 N 1030.24 -1.51135 -0.446768 0
M  V30 11279 C 1031.47 -1.66887 -1.21788 0
M  V30 11280 C 1031.87 -0.361729 -1.8571 0
M  V30 11281 O 1031.22 0.668784 -1.71093 0
M  V30 11282 C 1031.28 -2.72062 -2.34994 0
M  V30 11283 C 1030.94 -4.14935 -1.91516 0
M  V30 11284 C 1031.94 -5.00021 -1.42389 0
M  V30 11285 C 1029.62 -4.60985 -1.99495 0
M  V30 11286 C 1031.62 -6.29216 -1.01816 0
M  V30 11287 C 1029.31 -5.90179 -1.58532 0
M  V30 11288 C 1030.3 -6.74121 -1.09774 0
M  V30 11289 O 1029.99 -8.009 -0.69389 0
M  V30 11290 H 1029.72 -0.563431 -0.373525 0
M  V30 11291 H 1032.28 -1.98261 -0.536818 0
M  V30 11292 H 1030.51 -2.35983 -3.06348 0
M  V30 11293 H 1032.2 -2.76788 -2.96889 0
M  V30 11294 H 1032.96 -4.6565 -1.35627 0
M  V30 11295 H 1028.84 -3.95777 -2.36393 0
M  V30 11296 H 1032.39 -6.94687 -0.636879 0
M  V30 11297 H 1028.28 -6.24066 -1.64962 0
M  V30 11298 H 1029.05 -8.14376 -0.820582 0
M  V30 11299 N 1031.71 0.701592 -1.41122 0
M  V30 11300 C 1032.65 1.8268 -1.38422 0
M  V30 11301 C 1033.66 1.60244 -0.287342 0
M  V30 11302 O 1034.85 1.69859 -0.548658 0
M  V30 11303 C 1031.95 3.19338 -1.13475 0
M  V30 11304 C 1031.12 3.68853 -2.35088 0
M  V30 11305 C 1030.18 4.84163 -2.06089 0
M  V30 11306 O 1029.21 4.9609 -2.79077 0
M  V30 11307 N 1030.41 5.70972 -1.04743 0
M  V30 11308 H 1033.17 1.8549 -2.35401 0
M  V30 11309 H 1030.73 0.883682 -1.35656 0
M  V30 11310 H 1032.73 3.94095 -0.920377 0
M  V30 11311 H 1031.3 3.11589 -0.251152 0
M  V30 11312 H 1030.52 2.8507 -2.72266 0
M  V30 11313 H 1031.8 3.98673 -3.16129 0
M  V30 11314 H 1031.2 5.63961 -0.443221 0
M  V30 11315 H 1029.76 6.45654 -0.892949 0
M  V30 11316 N 1033.19 1.2685 0.935242 0
M  V30 11317 C 1034.14 1.05586 2.02078 0
M  V30 11318 C 1035.13 -0.013699 1.60894 0
M  V30 11319 O 1036.32 0.203956 1.75821 0
M  V30 11320 C 1033.45 0.697118 3.36148 0
M  V30 11321 C 1032.53 1.80444 3.83798 0
M  V30 11322 N 1032.92 3.04283 4.04037 0
M  V30 11323 C 1031.22 1.68939 4.12766 0
M  V30 11324 C 1031.92 3.7629 4.436 0
M  V30 11325 N 1030.9 3.04011 4.50642 0
M  V30 11326 H 1034.7 1.99577 2.15746 0
M  V30 11327 H 1032.21 1.17455 1.12153 0
M  V30 11328 H 1034.21 0.525915 4.1357 0
M  V30 11329 H 1032.87 -0.235247 3.23847 0
M  V30 11330 H 1033.88 3.40125 3.90558 0
M  V30 11331 H 1030.56 0.827341 4.0922 0
M  V30 11332 H 1031.95 4.82687 4.67401 0
M  V30 11333 N 1034.67 -1.14067 1.0875 0
M  V30 11334 C 1035.9 -1.89041 0.840902 0
M  V30 11335 C 1036.31 -1.78768 -0.60725 0
M  V30 11336 O 1035.67 -1.14945 -1.41753 0
M  V30 11337 C 1035.72 -3.38891 1.25838 0
M  V30 11338 O 1035.44 -3.48886 2.64972 0
M  V30 11339 C 1036.94 -4.30852 1.04315 0
M  V30 11340 H 1034.16 -0.598685 0.303014 0
M  V30 11341 H 1036.71 -1.44438 1.44769 0
M  V30 11342 H 1034.86 -3.81103 0.695627 0
M  V30 11343 H 1035.28 -4.41989 2.82393 0
M  V30 11344 H 1036.75 -5.34353 1.38461 0
M  V30 11345 H 1037.23 -4.39196 -0.0195784 0
M  V30 11346 H 1037.83 -3.944 1.59151 0
M  V30 11347 N 1036.15 -0.873678 -1.31166 0
M  V30 11348 C 1037.37 -0.500242 -2.01277 0
M  V30 11349 C 1037.8 0.900811 -1.65127 0
M  V30 11350 O 1037.16 1.59504 -0.861862 0
M  V30 11351 C 1037.2 -0.668976 -3.5434 0
M  V30 11352 O 1036.31 0.290096 -4.11378 0
M  V30 11353 H 1035.65 -0.198507 -0.633633 0
M  V30 11354 H 1038.18 -1.17811 -1.67277 0
M  V30 11355 H 1038.19 -0.563673 -4.04088 0
M  V30 11356 H 1036.86 -1.69055 -3.79991 0
M  V30 11357 H 1035.44 0.139437 -3.72639 0
M  V30 11358 N 1037.63 1.44308 -0.633487 0
M  V30 11359 C 1038.56 2.33431 0.0568402 0
M  V30 11360 C 1039.54 1.48342 0.832386 0
M  V30 11361 O 1040.72 1.77056 0.797798 0
M  V30 11362 C 1037.85 3.31443 1.03743 0
M  V30 11363 C 1036.81 4.26368 0.373362 0
M  V30 11364 C 1036.13 5.14267 1.46403 0
M  V30 11365 C 1037.43 5.17287 -0.721876 0
M  V30 11366 H 1039.13 2.91402 -0.687388 0
M  V30 11367 H 1036.67 1.4012 -0.332009 0
M  V30 11368 H 1038.63 3.92677 1.52913 0
M  V30 11369 H 1037.35 2.71686 1.81258 0
M  V30 11370 H 1036.01 3.6647 -0.0977053 0
M  V30 11371 H 1035.66 4.50861 2.23011 0
M  V30 11372 H 1035.36 5.7859 1.02506 0
M  V30 11373 H 1036.88 5.78373 1.95748 0
M  V30 11374 H 1038.29 5.72444 -0.313181 0
M  V30 11375 H 1036.69 5.90226 -1.08413 0
M  V30 11376 H 1037.76 4.58159 -1.58804 0
M  V30 11377 N 1039.1 0.374177 1.53094 0
M  V30 11378 C 1040.35 -0.213131 2.01677 0
M  V30 11379 C 1040.68 -1.47715 1.26071 0
M  V30 11380 O 1039.96 -1.91199 0.356834 0
M  V30 11381 C 1040.24 -0.496392 3.56662 0
M  V30 11382 C 1040.09 0.781859 4.42953 0
M  V30 11383 C 1041.41 -1.29339 4.20666 0
M  V30 11384 H 1038.53 -0.0759885 0.733072 0
M  V30 11385 H 1041.17 0.500765 1.83282 0
M  V30 11386 H 1039.32 -1.10455 3.72467 0
M  V30 11387 H 1041 1.41914 4.38928 0
M  V30 11388 H 1039.24 1.40041 4.10574 0
M  V30 11389 H 1039.91 0.538508 5.49367 0
M  V30 11390 H 1042.39 -0.778848 4.08746 0
M  V30 11391 H 1041.26 -1.46033 5.29118 0
M  V30 11392 H 1041.52 -2.30435 3.77296 0
M  V30 11393 N 1040.58 -1.57259 0.103575 0
M  V30 11394 C 1041.51 -2.1153 -0.882472 0
M  V30 11395 C 1042.53 -1.05446 -1.24036 0
M  V30 11396 O 1043.72 -1.32867 -1.192 0
M  V30 11397 C 1040.82 -2.58717 -2.18903 0
M  V30 11398 C 1039.99 -3.8873 -2.00519 0
M  V30 11399 C 1039.05 -4.21675 -3.14764 0
M  V30 11400 O 1038.07 -4.90755 -2.88355 0
M  V30 11401 N 1039.28 -3.77757 -4.40772 0
M  V30 11402 H 1042.04 -2.96758 -0.418901 0
M  V30 11403 H 1039.6 -1.61696 -0.0812921 0
M  V30 11404 H 1041.59 -2.77797 -2.94297 0
M  V30 11405 H 1040.16 -1.78454 -2.56657 0
M  V30 11406 H 1039.38 -3.78714 -1.09406 0
M  V30 11407 H 1040.67 -4.73771 -1.85522 0
M  V30 11408 H 1040.07 -3.22011 -4.65108 0
M  V30 11409 H 1038.63 -4.01975 -5.13088 0
M  V30 11410 N 1042.06 0.170153 -1.56679 0
M  V30 11411 C 1043.01 1.21531 -1.9291 0
M  V30 11412 C 1043.99 1.39742 -0.797553 0
M  V30 11413 O 1045.19 1.41693 -1.06075 0
M  V30 11414 C 1042.32 2.55447 -2.29351 0
M  V30 11415 C 1041.4 2.40925 -3.49022 0
M  V30 11416 N 1041.79 1.96118 -4.66231 0
M  V30 11417 C 1040.09 2.71747 -3.53652 0
M  V30 11418 C 1040.79 1.94086 -5.48366 0
M  V30 11419 N 1039.77 2.36533 -4.89441 0
M  V30 11420 H 1043.57 0.860602 -2.81018 0
M  V30 11421 H 1041.08 0.378415 -1.5793 0
M  V30 11422 H 1043.08 3.30972 -2.53502 0
M  V30 11423 H 1041.74 2.9172 -1.42583 0
M  V30 11424 H 1042.75 1.66438 -4.90427 0
M  V30 11425 H 1039.43 3.1205 -2.77365 0
M  V30 11426 H 1040.82 1.61132 -6.52293 0
M  V30 11427 N 1043.54 1.5137 0.438746 0
M  V30 11428 C 1044.49 1.73154 1.55308 0
M  V30 11429 C 1045.48 0.597825 1.58501 0
M  V30 11430 O 1046.69 0.77917 1.62262 0
M  V30 11431 H 1043.06 0.547083 0.51595 0
M  V30 11432 H 1045.03 2.66566 1.34108 0
M  V30 11433 C 1043.78 1.87242 2.92977 0
M  V30 11434 H 1043.1 2.73884 2.91252 0
M  V30 11435 H 1044.54 2.06497 3.70317 0
M  V30 11436 C 1043 0.631887 3.30921 0
M  V30 11437 O 1043.53 -0.214099 4.01129 0
M  V30 11438 N 1041.74 0.47639 2.86669 0
M  V30 11439 H 1041.29 1.16589 2.29706 0
M  V30 11440 H 1041.24 -0.352403 3.12419 0
M  V30 11441 N 1045.02 -0.694098 1.41492 0
M  V30 11442 C 1046.29 -1.44875 1.31418 0
M  V30 11443 C 1046.67 -2.11022 -0.0575538 0
M  V30 11444 O 1046.02 -2.01799 -1.07188 0
M  V30 11445 C 1046.23 -2.46698 2.46863 0
M  V30 11446 C 1047.58 -3.11907 2.88095 0
M  V30 11447 O 1048.6 -2.57022 2.46613 0
M  V30 11448 O 1047.46 -4.11318 3.59833 0
M  V30 11449 H 1044.56 -0.645266 0.517263 0
M  V30 11450 H 1047.1 -0.724452 1.53459 0
M  V30 11451 H 1045.87 -1.96485 3.38392 0
M  V30 11452 H 1045.5 -3.26634 2.26706 0
M  V30 11453 N 1046.49 -1.27344 -0.928501 0
M  V30 11454 C 1047.72 -1.16557 -1.7155 0
M  V30 11455 C 1048.14 0.274044 -1.86093 0
M  V30 11456 O 1047.5 1.19847 -1.36038 0
M  V30 11457 C 1047.55 -1.85332 -3.09329 0
M  V30 11458 O 1046.65 -1.15074 -3.9602 0
M  V30 11459 H 1046 -0.405423 -0.525859 0
M  V30 11460 H 1048.53 -1.68399 -1.16202 0
M  V30 11461 H 1048.54 -1.92659 -3.59648 0
M  V30 11462 H 1047.21 -2.90056 -2.98061 0
M  V30 11463 H 1045.79 -1.1581 -3.54461 0
M  V30 11464 N 1047.97 1.13488 -1.09353 0
M  V30 11465 C 1048.9 2.20988 -0.75409 0
M  V30 11466 C 1049.88 1.67977 0.267901 0
M  V30 11467 O 1051.07 1.93722 0.136128 0
M  V30 11468 C 1048.2 3.46869 -0.173042 0
M  V30 11469 C 1047.15 4.12965 -1.12446 0
M  V30 11470 C 1046.48 5.33163 -0.405157 0
M  V30 11471 C 1047.78 4.60388 -2.46658 0
M  V30 11472 H 1049.47 2.49639 -1.6529 0
M  V30 11473 H 1047.02 1.19987 -0.796182 0
M  V30 11474 H 1048.97 4.21331 0.0764988 0
M  V30 11475 H 1047.7 3.17611 0.760956 0
M  V30 11476 H 1046.35 3.40469 -1.35927 0
M  V30 11477 H 1046 5.00169 0.532955 0
M  V30 11478 H 1045.7 5.78332 -1.03952 0
M  V30 11479 H 1047.23 6.1038 -0.163899 0
M  V30 11480 H 1048.64 5.26276 -2.27389 0
M  V30 11481 H 1047.04 5.16294 -3.05876 0
M  V30 11482 H 1048.11 3.74949 -3.07476 0
M  V30 11483 N 1049.45 0.880621 1.30701 0
M  V30 11484 C 1050.4 0.333562 2.30196 0
M  V30 11485 C 1051.39 -0.557092 1.59978 0
M  V30 11486 O 1052.6 -0.442009 1.74489 0
M  V30 11487 H 1048.97 0.0892036 0.746691 0
M  V30 11488 H 1050.95 1.18644 2.73799 0
M  V30 11489 C 1049.69 -0.440731 3.44895 0
M  V30 11490 H 1049.02 0.235353 3.99107 0
M  V30 11491 H 1050.46 -0.788676 4.166 0
M  V30 11492 C 1048.92 -1.63613 2.94504 0
M  V30 11493 O 1049.45 -2.73549 2.94166 0
M  V30 11494 N 1047.65 -1.47183 2.5057 0
M  V30 11495 H 1047.2 -0.577479 2.51044 0
M  V30 11496 H 1047.16 -2.27303 2.17211 0
M  V30 11497 N 1050.93 -1.4397 0.641131 0
M  V30 11498 C 1052.18 -2.02246 0.14985 0
M  V30 11499 C 1052.51 -1.50387 -1.22871 0
M  V30 11500 O 1051.78 -0.692003 -1.81773 0
M  V30 11501 C 1052.07 -3.59798 0.147449 0
M  V30 11502 C 1051.92 -4.21916 1.55907 0
M  V30 11503 C 1053.24 -4.36985 -0.522667 0
M  V30 11504 H 1050.36 -0.734875 0.0559274 0
M  V30 11505 H 1053 -1.71418 0.819513 0
M  V30 11506 H 1051.15 -3.86193 -0.422789 0
M  V30 11507 H 1052.82 -4.06594 2.17896 0
M  V30 11508 H 1051.06 -3.79028 2.10998 0
M  V30 11509 H 1051.74 -5.30964 1.50934 0
M  V30 11510 H 1054.21 -4.16083 -0.0376226 0
M  V30 11511 H 1053.09 -5.46676 -0.493572 0
M  V30 11512 H 1053.35 -4.12335 -1.59475 0
M  V30 11513 N 1052.41 -0.382291 -1.52893 0
M  V30 11514 C 1053.64 0.202408 -2.05908 0
M  V30 11515 C 1054.05 1.4109 -1.25456 0
M  V30 11516 O 1053.41 1.80027 -0.29942 0
M  V30 11517 C 1053.46 0.579452 -3.56826 0
M  V30 11518 O 1053.18 -0.58102 -4.3423 0
M  V30 11519 C 1054.68 1.22076 -4.2616 0
M  V30 11520 H 1051.9 0.0321859 -0.670228 0
M  V30 11521 H 1054.44 -0.545494 -1.9709 0
M  V30 11522 H 1052.6 1.27726 -3.65739 0
M  V30 11523 H 1053.01 -0.272693 -5.23791 0
M  V30 11524 H 1054.49 1.435 -5.33021 0
M  V30 11525 H 1054.96 2.18605 -3.80931 0
M  V30 11526 H 1055.57 0.563922 -4.21545 0
M  V30 11527 N 1053.89 1.57202 -0.111913 0
M  V30 11528 C 1054.82 2.17957 0.837683 0
M  V30 11529 C 1055.8 1.1176 1.28233 0
M  V30 11530 O 1056.98 1.39967 1.34621 0
M  V30 11531 C 1054.11 2.77333 2.09054 0
M  V30 11532 C 1053.07 3.8905 1.78393 0
M  V30 11533 C 1052.39 4.35203 3.10649 0
M  V30 11534 C 1053.69 5.11477 1.05775 0
M  V30 11535 H 1055.39 2.9756 0.331441 0
M  V30 11536 H 1052.93 1.43131 0.157979 0
M  V30 11537 H 1054.88 3.18492 2.75936 0
M  V30 11538 H 1053.61 1.95009 2.6199 0
M  V30 11539 H 1052.27 3.48456 1.13903 0
M  V30 11540 H 1051.92 3.49747 3.61506 0
M  V30 11541 H 1051.62 5.10534 2.9091 0
M  V30 11542 H 1053.14 4.79007 3.78661 0
M  V30 11543 H 1054.55 5.497 1.62798 0
M  V30 11544 H 1052.95 5.92346 0.961573 0
M  V30 11545 H 1054.02 4.84881 0.043297 0
M  V30 11546 N 1055.36 -0.161842 1.56767 0
M  V30 11547 C 1056.33 -1.18404 1.96247 0
M  V30 11548 C 1057.33 -1.3667 0.84722 0
M  V30 11549 O 1058.52 -1.33915 1.11411 0
M  V30 11550 C 1055.65 -2.54728 2.26553 0
M  V30 11551 H 1056.84 -0.845703 2.87729 0
M  V30 11552 H 1054.39 -0.404645 1.50971 0
M  V30 11553 H 1055.13 -2.93559 1.37816 0
M  V30 11554 H 1054.91 -2.42834 3.07854 0
M  V30 11555 H 1056.4 -3.28378 2.57987 0
M  V30 11556 N 1056.84 -1.516 -0.430713 0
M  V30 11557 C 1058.07 -1.68169 -1.20011 0
M  V30 11558 C 1058.48 -0.381406 -1.85316 0
M  V30 11559 O 1057.82 0.6506 -1.71793 0
M  V30 11560 C 1057.88 -2.7454 -2.32095 0
M  V30 11561 C 1057.55 -4.16942 -1.87104 0
M  V30 11562 C 1058.55 -5.01503 -1.37078 0
M  V30 11563 C 1056.23 -4.63075 -1.94594 0
M  V30 11564 C 1058.22 -6.3026 -0.951362 0
M  V30 11565 C 1055.91 -5.91827 -1.52264 0
M  V30 11566 C 1056.91 -6.75247 -1.02618 0
M  V30 11567 O 1056.6 -8.01591 -0.608905 0
M  V30 11568 H 1056.33 -0.567361 -0.367528 0
M  V30 11569 H 1058.88 -1.98819 -0.515759 0
M  V30 11570 H 1057.11 -2.39219 -3.03828 0
M  V30 11571 H 1058.8 -2.79921 -2.93937 0
M  V30 11572 H 1059.57 -4.67063 -1.30681 0
M  V30 11573 H 1055.45 -3.98262 -2.32182 0
M  V30 11574 H 1058.99 -6.95323 -0.563163 0
M  V30 11575 H 1054.89 -6.2578 -1.58333 0
M  V30 11576 H 1055.66 -8.15201 -0.73416 0
M  V30 11577 N 1058.32 0.686584 -1.41858 0
M  V30 11578 C 1059.73 1.26682 -1.37145 0
M  V30 11579 C 1060.08 1.96112 -0.058922 0
M  V30 11580 O 1059.21 1.99321 0.842629 0
M  V30 11581 C 1059.8 2.30383 -2.48413 0
M  V30 11582 C 1058.36 2.83961 -2.47069 0
M  V30 11583 C 1057.51 1.58119 -2.27802 0
M  V30 11584 H 1060.46 0.480742 -1.51243 0
M  V30 11585 H 1060.48 3.11868 -2.17987 0
M  V30 11586 H 1059.99 1.79822 -3.43927 0
M  V30 11587 H 1058.09 3.38675 -1.55338 0
M  V30 11588 H 1058.21 3.3378 -3.43697 0
M  V30 11589 H 1056.57 1.84258 -1.75844 0
M  V30 11590 H 1057.35 1.09541 -3.25355 0
M  V30 11591 N 1059.8 1.27835 0.921735 0
M  V30 11592 C 1061.04 1.14692 1.67253 0
M  V30 11593 C 1061.38 -0.305384 1.91784 0
M  V30 11594 O 1060.65 -1.22286 1.51249 0
M  V30 11595 C 1060.93 1.93743 3.03539 0
M  V30 11596 C 1060.79 3.46991 2.86212 0
M  V30 11597 C 1062.11 1.74658 4.03959 0
M  V30 11598 H 1059.23 0.418021 0.606983 0
M  V30 11599 H 1061.87 1.5706 1.06922 0
M  V30 11600 H 1060.02 1.57738 3.55037 0
M  V30 11601 H 1061.69 3.92858 2.41785 0
M  V30 11602 H 1059.93 3.73029 2.21432 0
M  V30 11603 H 1060.6 3.97551 3.82958 0
M  V30 11604 H 1063.08 2.06063 3.61493 0
M  V30 11605 H 1061.96 2.32353 4.97296 0
M  V30 11606 H 1062.22 0.696019 4.36587 0
M  V30 11607 N 1061.28 -1.12907 1.09954 0
M  V30 11608 C 1062.51 -1.87866 0.859656 0
M  V30 11609 C 1062.91 -1.79664 -0.593096 0
M  V30 11610 O 1062.26 -1.16499 -1.42034 0
M  V30 11611 C 1062.32 -3.38055 1.22308 0
M  V30 11612 C 1061.98 -3.70035 2.68185 0
M  V30 11613 C 1062.98 -3.68817 3.66428 0
M  V30 11614 C 1060.66 -3.99523 3.04444 0
M  V30 11615 C 1062.66 -3.96639 4.98955 0
M  V30 11616 C 1060.35 -4.27006 4.37161 0
M  V30 11617 C 1061.34 -4.25549 5.34225 0
M  V30 11618 O 1061.03 -4.52354 6.64553 0
M  V30 11619 H 1060.76 -0.601425 0.308649 0
M  V30 11620 H 1063.32 -1.43817 1.46649 0
M  V30 11621 H 1061.55 -3.82634 0.559322 0
M  V30 11622 H 1063.24 -3.94348 0.961479 0
M  V30 11623 H 1064 -3.46104 3.3976 0
M  V30 11624 H 1059.88 -3.99801 2.29521 0
M  V30 11625 H 1063.43 -3.95418 5.74709 0
M  V30 11626 H 1059.32 -4.49192 4.6357 0
M  V30 11627 H 1060.09 -4.69997 6.70108 0
M  V30 11628 N 1062.75 -0.88754 -1.30232 0
M  V30 11629 C 1063.72 -0.361095 -2.26338 0
M  V30 11630 C 1064.72 0.497871 -1.52898 0
M  V30 11631 O 1065.91 0.30466 -1.71515 0
M  V30 11632 C 1063.04 0.485135 -3.3743 0
M  V30 11633 H 1064.23 -1.20973 -2.74419 0
M  V30 11634 H 1061.78 -0.664619 -1.41466 0
M  V30 11635 H 1062.52 1.35425 -2.9467 0
M  V30 11636 H 1062.3 -0.130173 -3.91884 0
M  V30 11637 H 1063.79 0.845169 -4.08958 0
M  V30 11638 N 1064.23 1.43628 -0.648757 0
M  V30 11639 C 1065.16 2.29045 0.0841858 0
M  V30 11640 C 1066.18 1.42262 0.791537 0
M  V30 11641 O 1067.37 1.66243 0.650039 0
M  V30 11642 C 1064.47 3.19075 1.14212 0
M  V30 11643 C 1063.64 4.34372 0.513799 0
M  V30 11644 C 1062.7 5.05307 1.46803 0
M  V30 11645 O 1061.72 5.60729 0.978346 0
M  V30 11646 N 1062.93 5.08393 2.80209 0
M  V30 11647 H 1065.69 2.9259 -0.648948 0
M  V30 11648 H 1063.25 1.54268 -0.491209 0
M  V30 11649 H 1065.24 3.63395 1.78119 0
M  V30 11650 H 1063.81 2.57161 1.77728 0
M  V30 11651 H 1063.03 3.93024 -0.304262 0
M  V30 11652 H 1064.32 5.08745 0.0749871 0
M  V30 11653 H 1063.72 4.64729 3.22557 0
M  V30 11654 H 1062.28 5.56445 3.3943 0
M  V30 11655 N 1065.71 0.390394 1.52688 0
M  V30 11656 C 1066.64 -0.479319 2.24132 0
M  V30 11657 C 1067.66 -1.0258 1.26416 0
M  V30 11658 O 1068.84 -0.927943 1.52484 0
M  V30 11659 C 1065.94 -1.67711 2.94493 0
M  V30 11660 C 1065.12 -1.2578 4.18925 0
M  V30 11661 C 1064.18 -2.3204 4.72275 0
M  V30 11662 O 1063.2 -1.93402 5.35336 0
M  V30 11663 N 1064.4 -3.63967 4.52226 0
M  V30 11664 H 1067.17 0.132777 2.99406 0
M  V30 11665 H 1064.73 0.216807 1.60442 0
M  V30 11666 H 1066.72 -2.38323 3.27084 0
M  V30 11667 H 1065.29 -2.19552 2.22521 0
M  V30 11668 H 1064.51 -0.380528 3.92359 0
M  V30 11669 H 1065.8 -0.954329 4.9977 0
M  V30 11670 H 1065.2 -3.98119 4.01892 0
M  V30 11671 H 1063.76 -4.30611 4.89303 0
M  V30 11672 N 1067.19 -1.57141 0.120249 0
M  V30 11673 C 1068.6 -1.5784 -0.236335 0
M  V30 11674 C 1068.8 -1.13304 -1.66626 0
M  V30 11675 O 1067.86 -0.821004 -2.3878 0
M  V30 11676 C 1069.17 -3.007 -0.00188211 0
M  V30 11677 C 1070.72 -3.12927 -0.0676838 0
M  V30 11678 C 1071.2 -4.57789 0.139092 0
M  V30 11679 N 1072.69 -4.63122 0.085104 0
M  V30 11680 C 1073.42 -5.72978 0.219983 0
M  V30 11681 N 1072.92 -6.91579 0.411102 0
M  V30 11682 N 1074.71 -5.61874 0.159469 0
M  V30 11683 H 1066.86 -1.84391 1.05422 0
M  V30 11684 H 1069.13 -0.852228 0.415225 0
M  V30 11685 H 1068.83 -3.37575 0.986718 0
M  V30 11686 H 1068.71 -3.70005 -0.733203 0
M  V30 11687 H 1071.09 -2.75909 -1.04681 0
M  V30 11688 H 1071.17 -2.46162 0.695538 0
M  V30 11689 H 1070.82 -4.95506 1.1152 0
M  V30 11690 H 1070.75 -5.22646 -0.644131 0
M  V30 11691 H 1073.24 -3.77854 -0.0590479 0
M  V30 11692 H 1073.55 -7.71149 0.504851 0
M  V30 11693 H 1071.9 -6.9356 0.447091 0
M  V30 11694 H 1075.09 -4.68099 0.0111131 0
M  V30 11695 H 1075.26 -6.47445 0.268028 0
M  V30 11696 N 1068.67 0.153526 -1.5685 0
M  V30 11697 C 1070.08 0.505939 -1.51368 0
M  V30 11698 C 1070.28 1.83721 -0.82757 0
M  V30 11699 O 1069.34 2.49385 -0.395364 0
M  V30 11700 C 1070.65 0.522269 -2.9613 0
M  V30 11701 C 1072.2 0.608238 -3.07033 0
M  V30 11702 C 1072.67 0.655292 -4.53288 0
M  V30 11703 N 1074.17 0.717695 -4.57606 0
M  V30 11704 C 1074.9 0.774977 -5.68139 0
M  V30 11705 N 1074.4 0.792003 -6.88258 0
M  V30 11706 N 1076.19 0.81536 -5.56155 0
M  V30 11707 H 1068.34 -0.71919 -1.99853 0
M  V30 11708 H 1070.6 -0.261466 -0.91123 0
M  V30 11709 H 1070.31 -0.387595 -3.49558 0
M  V30 11710 H 1070.18 1.3625 -3.51733 0
M  V30 11711 H 1072.57 1.50852 -2.53629 0
M  V30 11712 H 1072.65 -0.259014 -2.54485 0
M  V30 11713 H 1072.3 -0.240809 -5.07329 0
M  V30 11714 H 1072.23 1.53894 -5.03611 0
M  V30 11715 H 1074.72 0.7121 -3.7113 0
M  V30 11716 H 1075.03 0.837378 -7.6825 0
M  V30 11717 H 1073.37 0.759986 -6.90832 0
M  V30 11718 H 1076.57 0.799183 -4.61227 0
M  V30 11719 H 1076.74 0.856537 -6.42314 0
M  V30 11720 O 1070.18 1.58721 0.298301 0
M  V30 11721 H 1070.87 1.69072 0.945216 0
M  V30 END ATOM
M  V30 BEGIN BOND
M  V30 END BOND
M  V30 END CTAB
M  END
$$$$
