drugbank_target|P11926 Ornithine decarboxylase (DB00114; DB00127; DB01917; DB02209; DB02824; DB03856; DB04083; DB04263; DB06243)
 OpenBabel12092119313D

  0  0  0     0  0            999 V3000
M  V30 BEGIN CTAB
M  V30 COUNTS 7107 7187 0 0 0
M  V30 BEGIN ATOM
M  V30 1 H -0.908 1.98254 -0.117106 0
M  V30 2 N 0 1.576 0 0
M  V30 3 C 0.933 2.03868 1.02534 0
M  V30 4 C 1.911 0.928543 1.3348 0
M  V30 5 O 3.095 1.19667 1.45644 0
M  V30 6 C 0.222 2.43627 2.35294 0
M  V30 7 C -0.732 3.65373 2.2001 0
M  V30 8 S 0.101 5.13292 1.52614 0
M  V30 9 C 1.257 5.56322 2.86805 0
M  V30 10 H 1.49 2.90518 0.631377 0
M  V30 11 H -0.977 1.52953 0.210867 0
M  V30 12 H 0.981 2.67203 3.11629 0
M  V30 13 H -0.358 1.57376 2.7183 0
M  V30 14 H -1.165 3.90944 3.18086 0
M  V30 15 H -1.563 3.418 1.51819 0
M  V30 16 H 0.729 5.58782 3.83104 0
M  V30 17 H 1.672 6.56266 2.65933 0
M  V30 18 H 2.08 4.83886 2.90714 0
M  V30 19 N 1.4781 -0.272755 1.55222 0
M  V30 20 C 2.4261 -1.35705 1.88909 0
M  V30 21 C 3.4201 -1.5112 0.765456 0
M  V30 22 O 4.6261 -1.52901 0.949802 0
M  V30 23 H 1.0011 -0.453868 0.59959 0
M  V30 24 H 2.9721 -1.04544 2.79487 0
M  V30 25 C 1.7211 -2.71049 2.17779 0
M  V30 26 H 1.0441 -2.59979 3.03728 0
M  V30 27 H 2.4841 -3.45858 2.45272 0
M  V30 28 C 0.9431 -3.22165 0.985473 0
M  V30 29 O 1.4731 -4.01096 0.220233 0
M  V30 30 N -0.3209 -2.7985 0.783108 0
M  V30 31 H -0.7739 -2.15775 1.40708 0
M  V30 32 H -0.8159 -3.14397 -0.0130392 0
M  V30 33 N 2.9562 -1.48159 -0.537278 0
M  V30 34 C 3.9042 -1.62573 -1.66352 0
M  V30 35 C 4.8982 -0.492366 -1.62087 0
M  V30 36 O 6.1042 -0.670847 -1.67032 0
M  V30 37 H 2.4792 -0.511992 -0.550789 0
M  V30 38 H 4.4502 -2.57176 -1.51337 0
M  V30 39 C 3.1992 -1.67583 -3.04649 0
M  V30 40 H 2.5222 -2.54151 -3.08622 0
M  V30 41 H 3.9622 -1.81713 -3.83088 0
M  V30 42 C 2.4212 -0.413039 -3.34358 0
M  V30 43 O 2.9512 0.477259 -3.98855 0
M  V30 44 N 1.1572 -0.286961 -2.8918 0
M  V30 45 H 0.7042 -1.01241 -2.36871 0
M  V30 46 H 0.6622 0.556963 -3.09427 0
M  V30 47 N 4.4343 0.785586 -1.36625 0
M  V30 48 C 5.6813 1.54362 -1.31067 0
M  V30 49 C 6.0093 1.94195 0.10893 0
M  V30 50 O 5.2643 1.63262 1.07908 0
M  V30 51 C 5.5633 2.83007 -2.1827 0
M  V30 52 C 5.2293 2.62294 -3.6676 0
M  V30 53 C 3.8913 2.56353 -4.0723 0
M  V30 54 C 6.2433 2.43371 -4.6089 0
M  V30 55 C 3.5713 2.29461 -5.39967 0
M  V30 56 C 5.9233 2.18005 -5.93849 0
M  V30 57 C 4.5873 2.105 -6.3344 0
M  V30 58 H 3.8573 0.564851 -0.479609 0
M  V30 59 H 6.5043 0.906028 -1.68711 0
M  V30 60 H 4.8093 3.51253 -1.73576 0
M  V30 61 H 6.5063 3.40817 -2.11292 0
M  V30 62 H 3.0963 2.67774 -3.34656 0
M  V30 63 H 7.2803 2.46959 -4.30494 0
M  V30 64 H 2.5363 2.22135 -5.69619 0
M  V30 65 H 6.7103 2.02359 -6.66351 0
M  V30 66 H 4.3373 1.89425 -7.36222 0
M  V30 67 N 5.9124 1.20967 1.01018 0
M  V30 68 C 7.1604 1.02172 1.74371 0
M  V30 69 C 7.4814 -0.446414 1.89821 0
M  V30 70 O 6.7514 -1.32234 1.44537 0
M  V30 71 H 5.3314 0.375066 0.646014 0
M  V30 72 H 7.9934 1.52187 1.21758 0
M  V30 73 H 7.0894 1.48538 2.74487 0
M  V30 74 N 7.3905 -1.2043 1.01659 0
M  V30 75 C 8.3385 -2.25249 0.580143 0
M  V30 76 C 9.3325 -1.65057 -0.381115 0
M  V30 77 O 10.5385 -1.78241 -0.251039 0
M  V30 78 H 6.9135 -0.732695 0.169299 0
M  V30 79 H 8.8845 -2.59389 1.47512 0
M  V30 80 C 7.6335 -3.47638 -0.065788 0
M  V30 81 H 6.9565 -3.94233 0.664874 0
M  V30 82 H 8.3965 -4.2268 -0.334282 0
M  V30 83 C 6.8555 -3.10447 -1.3086 0
M  V30 84 O 7.3855 -3.21981 -2.4019 0
M  V30 85 N 5.5915 -2.64996 -1.1927 0
M  V30 86 H 5.1385 -2.55811 -0.303064 0
M  V30 87 H 5.0965 -2.40482 -2.02523 0
M  V30 88 N 8.8686 -0.792821 -1.36206 0
M  V30 89 C 9.7786 -0.194808 -2.3379 0
M  V30 90 C 10.7946 0.654869 -1.61206 0
M  V30 91 O 11.9706 0.569856 -1.9317 0
M  V30 92 C 9.0356 0.657721 -3.40404 0
M  V30 93 C 8.0966 -0.210849 -4.28782 0
M  V30 94 C 7.3296 0.601086 -5.30304 0
M  V30 95 O 7.5526 1.83682 -5.40016 0
M  V30 96 O 6.4866 -0.000808277 -6.019 0
M  V30 97 H 10.3126 -1.00172 -2.86704 0
M  V30 98 H 7.8976 -0.554341 -1.38735 0
M  V30 99 H 9.7796 1.14375 -4.05581 0
M  V30 100 H 8.4546 1.44247 -2.89784 0
M  V30 101 H 7.3616 -0.743714 -3.66633 0
M  V30 102 H 8.6946 -0.959195 -4.82763 0
M  V30 103 N 10.3467 1.47872 -0.545128 0
M  V30 104 C 11.2567 2.33633 0.212746 0
M  V30 105 C 12.2727 1.4744 0.923983 0
M  V30 106 O 13.4487 1.80393 0.895572 0
M  V30 107 C 10.5137 3.23884 1.23693 0
M  V30 108 C 9.5747 4.25961 0.534417 0
M  V30 109 C 8.8077 5.11899 1.5098 0
M  V30 110 O 9.0307 5.00077 2.7437 0
M  V30 111 O 7.9647 5.92831 1.0409 0
M  V30 112 H 11.7907 2.99714 -0.490416 0
M  V30 113 H 9.3757 1.46235 -0.305871 0
M  V30 114 H 11.2577 3.79666 1.82843 0
M  V30 115 H 9.9327 2.60446 1.92222 0
M  V30 116 H 8.8397 3.73972 -0.0979679 0
M  V30 117 H 10.1727 4.92079 -0.109213 0
M  V30 118 N 11.8248 0.280983 1.55075 0
M  V30 119 C 13.0718 -0.334115 1.99725 0
M  V30 120 C 13.3998 -1.5542 1.1694 0
M  V30 121 O 12.6548 -1.94361 0.228531 0
M  V30 122 C 12.9538 -0.754656 3.49342 0
M  V30 123 C 12.6198 0.361445 4.49449 0
M  V30 124 C 11.2818 0.667893 4.76542 0
M  V30 125 C 13.6338 1.11322 5.09173 0
M  V30 126 C 10.9618 1.7296 5.60626 0
M  V30 127 C 13.3138 2.1647 5.9441 0
M  V30 128 C 11.9778 2.47742 6.19822 0
M  V30 129 H 11.2478 -0.122261 0.730844 0
M  V30 130 H 13.8948 0.395917 1.87363 0
M  V30 131 H 12.1998 -1.56446 3.5921 0
M  V30 132 H 13.8968 -1.24142 3.813 0
M  V30 133 H 10.4868 0.112481 4.28452 0
M  V30 134 H 14.6708 0.88973 4.8826 0
M  V30 135 H 9.9268 1.97684 5.78559 0
M  V30 136 H 14.1008 2.75193 6.3972 0
M  V30 137 H 11.7278 3.30145 6.84769 0
M  V30 138 N 13.3029 -1.57598 0.00835791 0
M  V30 139 C 14.5799 -1.82172 -0.712235 0
M  V30 140 C 14.9599 -0.887873 -1.9152 0
M  V30 141 O 14.3079 0.06146 -2.28417 0
M  V30 142 C 14.5179 -3.30875 -1.11008 0
M  V30 143 C 15.8659 -3.96826 -1.51044 0
M  V30 144 O 16.8899 -3.35248 -1.20364 0
M  V30 145 O 15.7489 -5.05318 -2.08125 0
M  V30 146 H 12.8429 -0.750435 -0.347529 0
M  V30 147 H 15.3889 -1.69665 0.0344523 0
M  V30 148 H 14.1609 -3.90481 -0.252982 0
M  V30 149 H 13.7839 -3.48412 -1.9156 0
M  V30 150 N 14.781 0.264519 -1.55364 0
M  V30 151 C 16.021 1.00254 -1.78125 0
M  V30 152 C 16.385 1.83187 -0.575017 0
M  V30 153 O 17.586 2.60029 -0.681042 0
M  V30 154 C 15.857 1.85478 -3.05504 0
M  V30 155 S 17.416 2.6543 -3.49417 0
M  V30 156 H 14.234 0.337522 -0.625779 0
M  V30 157 H 16.836 0.272111 -1.93597 0
M  V30 158 H 15.54 1.23491 -3.9138 0
M  V30 159 H 15.071 2.62827 -2.92721 0
M  V30 160 H 17.086 3.87958 -3.09359 0
M  V30 161 N 16.2591 1.48442 0.529413 0
M  V30 162 C 17.2091 1.59407 1.63014 0
M  V30 163 C 18.1931 0.451166 1.54445 0
M  V30 164 O 19.3851 0.702635 1.62456 0
M  V30 165 C 16.5141 1.63746 3.01732 0
M  V30 166 C 15.6001 2.83518 3.15402 0
M  V30 167 N 15.9911 4.07929 2.99045 0
M  V30 168 C 14.2891 2.80862 3.46457 0
M  V30 169 C 14.9901 4.8829 3.16146 0
M  V30 170 N 13.9661 4.21117 3.43746 0
M  V30 171 H 17.7681 2.53343 1.48978 0
M  V30 172 H 15.2821 1.44821 0.734885 0
M  V30 173 H 17.2791 1.69695 3.80801 0
M  V30 174 H 15.9391 0.709264 3.16859 0
M  V30 175 H 16.9501 4.38357 2.75796 0
M  V30 176 H 13.6271 1.97301 3.67938 0
M  V30 177 H 15.0171 5.97028 3.08232 0
M  V30 178 N 17.7372 -0.778329 1.37039 0
M  V30 179 C 18.9842 -1.53665 1.31884 0
M  V30 180 C 19.3122 -1.9425 -0.0986303 0
M  V30 181 O 18.5672 -1.63832 -1.07041 0
M  V30 182 C 18.8662 -2.81845 2.19768 0
M  V30 183 C 18.5322 -2.60345 3.68146 0
M  V30 184 C 17.1942 -2.5419 4.08584 0
M  V30 185 C 19.5462 -2.40923 4.62175 0
M  V30 186 C 16.8742 -2.26594 5.41177 0
M  V30 187 C 19.2262 -2.14852 5.94997 0
M  V30 188 C 17.8902 -2.07137 6.34547 0
M  V30 189 H 17.1602 -0.562299 0.482598 0
M  V30 190 H 19.8072 -0.897069 1.69189 0
M  V30 191 H 18.1122 -3.50328 1.75436 0
M  V30 192 H 19.8092 -3.39692 2.13097 0
M  V30 193 H 16.3992 -2.65996 3.36072 0
M  V30 194 H 20.5832 -2.44673 4.31797 0
M  V30 195 H 15.8392 -2.19111 5.70789 0
M  V30 196 H 20.0132 -1.98822 6.67415 0
M  V30 197 H 17.6402 -1.85518 7.37216 0
M  V30 198 N 19.2153 -1.21501 -1.00376 0
M  V30 199 C 20.1453 -0.999478 -2.11028 0
M  V30 200 C 21.1263 0.0759671 -1.6993 0
M  V30 201 O 22.3113 -0.0841106 -1.94018 0
M  V30 202 C 19.4413 -0.564709 -3.42678 0
M  V30 203 C 18.3953 -1.58486 -3.97576 0
M  V30 204 C 17.7213 -1.00628 -5.25146 0
M  V30 205 C 19.0213 -2.97204 -4.29496 0
M  V30 206 H 20.7153 -1.92495 -2.29317 0
M  V30 207 H 18.2613 -0.92693 -1.102 0
M  V30 208 H 20.2143 -0.401091 -4.19487 0
M  V30 209 H 18.9383 0.396411 -3.24185 0
M  V30 210 H 17.5973 -1.73606 -3.22888 0
M  V30 211 H 17.2453 -0.0368439 -5.02987 0
M  V30 212 H 16.9453 -1.68771 -5.62841 0
M  V30 213 H 18.4693 -0.854015 -6.04598 0
M  V30 214 H 19.8833 -2.8552 -4.97143 0
M  V30 215 H 18.2803 -3.62372 -4.78338 0
M  V30 216 H 19.3503 -3.47956 -3.3772 0
M  V30 217 N 20.6934 1.19889 -1.02296 0
M  V30 218 C 21.9704 1.85148 -0.630832 0
M  V30 219 C 22.3504 1.91385 0.890782 0
M  V30 220 O 21.6984 1.42642 1.78509 0
M  V30 221 C 21.9084 3.24442 -1.28602 0
M  V30 222 C 23.2564 4.00663 -1.4055 0
M  V30 223 O 24.2804 3.33818 -1.24273 0
M  V30 224 O 23.1394 5.20387 -1.66913 0
M  V30 225 H 20.2334 0.797613 -0.218499 0
M  V30 226 H 22.7794 1.27427 -1.12074 0
M  V30 227 H 21.5514 3.14704 -2.32545 0
M  V30 228 H 21.1744 3.89802 -0.7836 0
M  V30 229 N 22.1715 0.800033 1.35784 0
M  V30 230 C 23.0815 0.207204 2.33683 0
M  V30 231 C 24.0975 -0.64631 1.61551 0
M  V30 232 O 25.2735 -0.559604 1.93469 0
M  V30 233 C 22.3385 -0.639659 3.40748 0
M  V30 234 C 21.3995 0.233585 4.28664 0
M  V30 235 C 20.6325 -0.572954 5.30616 0
M  V30 236 O 20.8555 -1.80816 5.40982 0
M  V30 237 O 19.7895 0.0327285 6.01891 0
M  V30 238 H 23.6155 1.01692 2.86169 0
M  V30 239 H 21.2005 0.561691 1.38439 0
M  V30 240 H 23.0825 -1.12223 4.06182 0
M  V30 241 H 21.7575 -1.42708 2.90544 0
M  V30 242 H 20.6645 0.763147 3.66233 0
M  V30 243 H 21.9975 0.984784 4.82248 0
M  V30 244 N 23.6496 -1.47581 0.552962 0
M  V30 245 C 24.8976 -2.02082 0.0272703 0
M  V30 246 C 25.2186 -1.4301 -1.32563 0
M  V30 247 O 24.4886 -0.603745 -1.86365 0
M  V30 248 H 23.0686 -0.746966 0.00709182 0
M  V30 249 H 25.7306 -1.81033 0.722008 0
M  V30 250 H 24.8266 -3.12034 -0.0639951 0
M  V30 251 N 25.1277 -0.289203 -1.54924 0
M  V30 252 C 26.3747 0.323519 -1.99899 0
M  V30 253 C 26.7027 1.54797 -1.17762 0
M  V30 254 O 25.9577 1.94237 -0.238835 0
M  V30 255 C 26.2567 0.736119 -3.49737 0
M  V30 256 C 25.9227 -0.385276 -4.49251 0
M  V30 257 C 24.5847 -0.693156 -4.76181 0
M  V30 258 C 26.9367 -1.14021 -5.08575 0
M  V30 259 C 24.2647 -1.7593 -5.59701 0
M  V30 260 C 26.6167 -2.19619 -5.93254 0
M  V30 261 C 25.2807 -2.51026 -6.185 0
M  V30 262 H 24.5507 0.118384 -0.731482 0
M  V30 263 H 27.1977 -0.405847 -1.8715 0
M  V30 264 H 25.5027 1.54539 -3.60035 0
M  V30 265 H 27.1997 1.22118 -3.81953 0
M  V30 266 H 23.7897 -0.135202 -4.28387 0
M  V30 267 H 27.9737 -0.915611 -4.87781 0
M  V30 268 H 23.2297 -2.0075 -5.77503 0
M  V30 269 H 27.4037 -2.78581 -6.38252 0
M  V30 270 H 25.0307 -3.33772 -6.83008 0
M  V30 271 N 26.6058 1.57591 -0.0167156 0
M  V30 272 C 27.8338 1.95575 0.675128 0
M  V30 273 C 28.2488 0.892542 1.6637 0
M  V30 274 O 27.6058 -0.126912 1.82058 0
M  V30 275 C 27.6568 3.33608 1.39239 0
M  V30 276 O 27.3778 4.3585 0.443444 0
M  V30 277 C 28.8788 3.86151 2.17721 0
M  V30 278 H 26.0988 0.644423 0.186978 0
M  V30 279 H 28.6428 2.0437 -0.0728 0
M  V30 280 H 26.7978 3.2607 2.09182 0
M  V30 281 H 27.2118 5.158 0.951358 0
M  V30 282 H 28.6858 4.85114 2.63379 0
M  V30 283 H 29.1628 3.19738 3.01105 0
M  V30 284 H 29.7688 3.96918 1.52761 0
M  V30 285 N 28.0839 -0.256276 1.55502 0
M  V30 286 C 29.0469 -1.30047 1.88734 0
M  V30 287 C 30.0469 -1.4154 0.763086 0
M  V30 288 O 31.2369 -1.40403 1.03115 0
M  V30 289 C 28.3689 -2.67953 2.10747 0
M  V30 290 H 29.5619 -1.01802 2.82093 0
M  V30 291 H 27.1149 -0.495134 1.4825 0
M  V30 292 H 27.8499 -3.01351 1.19825 0
M  V30 293 H 27.6349 -2.60993 2.92617 0
M  V30 294 H 29.1249 -3.43368 2.37673 0
M  V30 295 N 29.562 -1.4872 -0.521534 0
M  V30 296 C 30.509 -1.63871 -1.62527 0
M  V30 297 C 31.479 -0.480559 -1.58996 0
M  V30 298 O 32.664 -0.705085 -1.77294 0
M  V30 299 C 29.804 -1.69227 -3.00759 0
M  V30 300 C 28.917 -2.96207 -3.14461 0
M  V30 301 C 28.052 -2.92671 -4.43303 0
M  V30 302 C 27.091 -4.14318 -4.50563 0
M  V30 303 N 26.228 -4.0881 -5.70805 0
M  V30 304 H 31.068 -2.58123 -1.48918 0
M  V30 305 H 28.605 -1.28 -0.724878 0
M  V30 306 H 30.563 -1.70314 -3.80853 0
M  V30 307 H 29.193 -0.784586 -3.1312 0
M  V30 308 H 28.245 -3.04826 -2.27564 0
M  V30 309 H 29.557 -3.86192 -3.15686 0
M  V30 310 H 28.711 -2.92206 -5.31696 0
M  V30 311 H 27.45 -2.00429 -4.44612 0
M  V30 312 H 26.455 -4.15049 -3.60575 0
M  V30 313 H 27.68 -5.07729 -4.50986 0
M  V30 314 H 25.626 -3.19394 -5.72995 0
M  V30 315 H 25.543 -4.92509 -5.7356 0
M  V30 316 H 26.811 -4.12418 -6.61462 0
M  V30 317 N 31.0401 0.771051 -1.3745 0
M  V30 318 C 32.3171 1.519 -1.23231 0
M  V30 319 C 32.6971 2.10383 0.173809 0
M  V30 320 O 32.0451 1.95583 1.18151 0
M  V30 321 C 32.2551 2.59933 -2.32886 0
M  V30 322 C 33.6031 3.27316 -2.70461 0
M  V30 323 O 34.6271 2.70228 -2.32068 0
M  V30 324 O 33.4861 4.30531 -3.36608 0
M  V30 325 H 30.5801 0.672803 -0.480901 0
M  V30 326 H 33.1261 0.807957 -1.49232 0
M  V30 327 H 31.8981 2.14842 -3.27045 0
M  V30 328 H 31.5211 3.38637 -2.08353 0
M  V30 329 N 32.5182 1.22032 0.997298 0
M  V30 330 C 33.7672 1.03637 1.73038 0
M  V30 331 C 34.0802 -0.429475 1.90827 0
M  V30 332 O 35.2862 -0.732995 2.61418 0
M  V30 333 C 33.7422 1.80582 3.11317 0
M  V30 334 C 33.3502 3.31387 3.01474 0
M  V30 335 C 35.0942 1.70621 3.88701 0
M  V30 336 C 33.0012 4.00791 4.3488 0
M  V30 337 H 31.9312 0.384179 0.648785 0
M  V30 338 H 34.5822 1.4584 1.11368 0
M  V30 339 H 32.9642 1.31175 3.73643 0
M  V30 340 H 34.1382 3.88155 2.4834 0
M  V30 341 H 32.4532 3.41976 2.37575 0
M  V30 342 H 35.0502 2.19799 4.87434 0
M  V30 343 H 35.3932 0.665823 4.10941 0
M  V30 344 H 35.9262 2.17547 3.33044 0
M  V30 345 H 32.6652 5.05064 4.1784 0
M  V30 346 H 32.1852 3.48811 4.87945 0
M  V30 347 H 33.8642 4.06139 5.03647 0
M  V30 348 N 33.9963 -1.19345 1.0293 0
M  V30 349 C 34.9263 -2.2481 0.631105 0
M  V30 350 C 35.9073 -1.66245 -0.360104 0
M  V30 351 O 37.0923 -1.92677 -0.242726 0
M  V30 352 C 34.2223 -3.47295 -0.0184607 0
M  V30 353 C 33.1763 -4.18536 0.895073 0
M  V30 354 C 32.5023 -5.34586 0.110592 0
M  V30 355 C 33.8023 -4.73287 2.209 0
M  V30 356 H 35.4963 -2.58372 1.51275 0
M  V30 357 H 33.0423 -1.24194 0.728818 0
M  V30 358 H 34.9953 -4.20268 -0.308675 0
M  V30 359 H 33.7193 -3.12933 -0.934907 0
M  V30 360 H 32.3783 -3.47446 1.16949 0
M  V30 361 H 32.0263 -4.96469 -0.807902 0
M  V30 362 H 31.7263 -5.83183 0.719087 0
M  V30 363 H 33.2503 -6.10355 -0.172871 0
M  V30 364 H 34.6643 -5.38013 1.98028 0
M  V30 365 H 33.0613 -5.32373 2.76946 0
M  V30 366 H 34.1313 -3.91331 2.86336 0
M  V30 367 N 35.4744 -0.807222 -1.35358 0
M  V30 368 C 36.7514 -0.311126 -1.9311 0
M  V30 369 C 37.1314 1.19937 -1.73719 0
M  V30 370 O 36.4794 1.99918 -1.10657 0
M  V30 371 C 36.6894 -0.723226 -3.41424 0
M  V30 372 C 38.0374 -0.713078 -4.18569 0
M  V30 373 O 39.0614 -0.664811 -3.49941 0
M  V30 374 O 37.9204 -0.772022 -5.41019 0
M  V30 375 H 35.0144 -0.081526 -0.822972 0
M  V30 376 H 37.5604 -0.890962 -1.4443 0
M  V30 377 H 36.3324 -1.76426 -3.4927 0
M  V30 378 H 35.9554 -0.118232 -3.97424 0
M  V30 379 N 36.9525 1.47285 -0.560781 0
M  V30 380 C 37.8845 2.28118 0.222438 0
M  V30 381 C 38.8975 1.37219 0.876056 0
M  V30 382 O 40.0865 1.62011 0.749307 0
M  V30 383 C 37.1865 3.1159 1.33285 0
M  V30 384 C 36.3595 4.30473 0.77534 0
M  V30 385 C 35.4185 4.95513 1.77069 0
M  V30 386 O 34.4445 5.53792 1.31539 0
M  V30 387 N 35.6465 4.90531 3.10418 0
M  V30 388 H 38.4115 2.95976 -0.470958 0
M  V30 389 H 35.9725 1.56955 -0.39709 0
M  V30 390 H 37.9645 3.51967 1.99752 0
M  V30 391 H 36.5345 2.45951 1.92943 0
M  V30 392 H 35.7545 3.94144 -0.0662113 0
M  V30 393 H 37.0425 5.07362 0.382272 0
M  V30 394 H 36.4405 4.44389 3.5005 0
M  V30 395 H 34.9975 5.34917 3.72434 0
M  V30 396 N 38.4306 0.297415 1.54768 0
M  V30 397 C 39.3776 -0.580276 2.23386 0
M  V30 398 C 40.3476 -1.13238 1.21517 0
M  V30 399 O 41.5326 -1.17757 1.50126 0
M  V30 400 C 38.6726 -1.74801 2.97555 0
M  V30 401 C 37.7856 -1.22764 4.1419 0
M  V30 402 C 36.9206 -2.35895 4.75949 0
M  V30 403 C 35.9596 -1.80974 5.84735 0
M  V30 404 N 35.0966 -2.87664 6.40464 0
M  V30 405 H 39.9366 0.0114833 2.97998 0
M  V30 406 H 37.4736 0.0174361 1.4709 0
M  V30 407 H 39.4316 -2.43475 3.38786 0
M  V30 408 H 38.0616 -2.31145 2.25326 0
M  V30 409 H 37.1136 -0.433271 3.77924 0
M  V30 410 H 38.4256 -0.785551 4.92575 0
M  V30 411 H 37.5796 -3.12523 5.20014 0
M  V30 412 H 36.3186 -2.83429 3.96887 0
M  V30 413 H 35.3236 -1.02834 5.40097 0
M  V30 414 H 36.5486 -1.34348 6.65678 0
M  V30 415 H 34.4946 -3.34538 5.64287 0
M  V30 416 H 34.4116 -2.4794 7.14186 0
M  V30 417 H 35.6796 -3.642 6.89187 0
M  V30 418 N 39.9087 -1.5758 0.0250728 0
M  V30 419 C 41.1577 -1.90811 -0.653767 0
M  V30 420 C 41.4707 -0.90273 -1.73523 0
M  V30 421 O 42.6767 -1.12614 -2.47043 0
M  V30 422 C 41.1327 -3.38804 -1.21409 0
M  V30 423 C 40.7407 -4.47692 -0.166126 0
M  V30 424 C 42.4847 -3.81108 -1.86967 0
M  V30 425 C 40.3917 -5.86779 -0.737856 0
M  V30 426 H 39.3217 -0.712063 -0.247956 0
M  V30 427 H 41.9727 -1.83281 0.0897137 0
M  V30 428 H 40.3547 -3.41252 -2.00905 0
M  V30 429 H 41.5287 -4.56797 0.606079 0
M  V30 430 H 39.8437 -4.14565 0.390466 0
M  V30 431 H 42.4407 -4.82375 -2.30692 0
M  V30 432 H 42.7837 -3.15953 -2.71071 0
M  V30 433 H 43.3167 -3.81065 -1.14167 0
M  V30 434 H 40.0557 -6.55468 0.0649577 0
M  V30 435 H 39.5757 -5.81288 -1.47864 0
M  V30 436 H 41.2547 -6.35223 -1.22884 0
M  V30 437 N 41.3868 0.248026 -1.55636 0
M  V30 438 C 42.3348 1.32683 -1.91045 0
M  V30 439 C 43.3288 1.49883 -0.789401 0
M  V30 440 O 44.5348 1.51371 -0.974007 0
M  V30 441 H 40.9098 0.444272 -0.606734 0
M  V30 442 H 42.8808 1.00085 -2.81115 0
M  V30 443 C 41.6298 2.6755 -2.22064 0
M  V30 444 H 40.9528 2.55114 -3.07826 0
M  V30 445 H 42.3928 3.41912 -2.50743 0
M  V30 446 C 40.8518 3.20556 -1.0366 0
M  V30 447 O 41.3818 4.00695 -0.284016 0
M  V30 448 N 39.5878 2.78568 -0.82753 0
M  V30 449 H 39.1348 2.1351 -1.44123 0
M  V30 450 H 39.0928 3.14378 -0.0369803 0
M  V30 451 N 42.8649 1.48995 0.513639 0
M  V30 452 C 43.7749 1.67443 1.64317 0
M  V30 453 C 44.7909 0.556947 1.64846 0
M  V30 454 O 45.9669 0.830082 1.83498 0
M  V30 455 C 43.0319 1.72515 3.00732 0
M  V30 456 C 42.0929 2.96009 3.1093 0
M  V30 457 C 41.3259 3.00829 4.40837 0
M  V30 458 O 41.5489 2.13594 5.28898 0
M  V30 459 O 40.4829 3.93168 4.55744 0
M  V30 460 H 44.3089 2.63106 1.51687 0
M  V30 461 H 41.8939 1.32588 0.688543 0
M  V30 462 H 43.7759 1.78277 3.81831 0
M  V30 463 H 42.4509 0.800278 3.13651 0
M  V30 464 H 41.3579 2.9577 2.29065 0
M  V30 465 H 42.6909 3.87934 3.02933 0
M  V30 466 N 44.343 -0.763751 1.37857 0
M  V30 467 C 45.589 -1.52483 1.33704 0
M  V30 468 C 45.922 -1.94051 -0.0759612 0
M  V30 469 O 45.197 -1.64675 -1.03501 0
M  V30 470 C 45.48 -2.78441 2.28348 0
M  V30 471 C 45.333 -2.43075 3.78463 0
M  V30 472 C 46.652 -3.80415 2.21298 0
M  V30 473 H 43.771 -0.553169 0.487005 0
M  V30 474 H 46.413 -0.875562 1.68624 0
M  V30 475 H 44.563 -3.33842 1.987 0
M  V30 476 H 46.235 -1.93527 4.18742 0
M  V30 477 H 44.478 -1.75666 3.96641 0
M  V30 478 H 45.149 -3.33149 4.40132 0
M  V30 479 H 47.625 -3.34527 2.47449 0
M  V30 480 H 46.501 -4.66257 2.89647 0
M  V30 481 H 46.762 -4.25262 1.20849 0
M  V30 482 N 45.8211 -1.22559 -0.990812 0
M  V30 483 C 47.0461 -1.07862 -1.77145 0
M  V30 484 C 47.4711 0.366447 -1.84496 0
M  V30 485 O 46.8291 1.26478 -1.29896 0
M  V30 486 C 46.8771 -1.69686 -3.18181 0
M  V30 487 O 45.9811 -0.951946 -4.01263 0
M  V30 488 H 45.3221 -0.378712 -0.545411 0
M  V30 489 H 47.8521 -1.62399 -1.2445 0
M  V30 490 H 47.8621 -1.74496 -3.68802 0
M  V30 491 H 46.5371 -2.74841 -3.12146 0
M  V30 492 H 45.1141 -0.980011 -3.59792 0
M  V30 493 N 47.2992 1.18797 -1.03562 0
M  V30 494 C 48.5242 1.9314 -0.755764 0
M  V30 495 C 48.9492 1.7537 0.68022 0
M  V30 496 O 48.3072 1.06046 1.47051 0
M  V30 497 C 48.3552 3.42747 -1.12058 0
M  V30 498 O 47.4592 4.11683 -0.243124 0
M  V30 499 H 46.8002 0.602724 -0.278604 0
M  V30 500 H 49.3302 1.50678 -1.3841 0
M  V30 501 H 49.3402 3.93437 -1.08035 0
M  V30 502 H 48.0152 3.55002 -2.16672 0
M  V30 503 H 46.5922 3.71323 -0.342539 0
M  V30 504 N 48.7773 0.814389 1.34928 0
M  V30 505 C 50.0023 0.410097 2.03305 0
M  V30 506 C 50.4273 -0.973464 1.60951 0
M  V30 507 O 49.7853 -1.63185 0.789964 0
M  V30 508 C 49.8333 0.51049 3.56968 0
M  V30 509 O 48.9373 -0.473035 4.09678 0
M  V30 510 H 48.2783 0.170088 0.641846 0
M  V30 511 H 50.8083 1.10244 1.72358 0
M  V30 512 H 50.8183 0.383135 4.06197 0
M  V30 513 H 49.4933 1.51963 3.87144 0
M  V30 514 H 48.0703 -0.305272 3.71648 0
M  V30 515 N 50.2554 -1.46986 0.568584 0
M  V30 516 C 51.5324 -1.95592 -0.0174074 0
M  V30 517 C 51.9124 -1.51124 -1.47393 0
M  V30 518 O 51.2604 -0.755329 -2.15655 0
M  V30 519 C 51.4704 -3.48719 0.139913 0
M  V30 520 C 52.8184 -4.246 0.000426376 0
M  V30 521 O 53.8424 -3.56135 0.0680316 0
M  V30 522 O 52.7014 -5.46302 -0.146988 0
M  V30 523 H 49.7954 -0.82498 -0.0577599 0
M  V30 524 H 52.3414 -1.57335 0.635909 0
M  V30 525 H 51.1134 -3.73927 1.15301 0
M  V30 526 H 50.7364 -3.93771 -0.550491 0
M  V30 527 N 51.7335 -0.305618 -1.54608 0
M  V30 528 C 53.0105 0.355652 -1.92339 0
M  V30 529 C 53.3905 1.71324 -1.23335 0
M  V30 530 O 52.7385 2.25473 -0.370702 0
M  V30 531 C 52.9485 0.46572 -3.45879 0
M  V30 532 C 54.2965 0.734426 -4.182 0
M  V30 533 O 55.3205 0.54935 -3.51938 0
M  V30 534 O 54.1795 1.09024 -5.35515 0
M  V30 535 H 51.2735 0.199666 -0.802535 0
M  V30 536 H 53.8195 -0.354017 -1.65966 0
M  V30 537 H 52.5915 -0.488461 -3.88239 0
M  V30 538 H 52.2145 1.22367 -3.78301 0
M  V30 539 N 53.2116 1.57565 -0.0334293 0
M  V30 540 C 54.1586 2.10478 0.946981 0
M  V30 541 C 55.1286 1.00787 1.32027 0
M  V30 542 O 56.3136 1.28232 1.41284 0
M  V30 543 C 53.4536 2.63994 2.22263 0
M  V30 544 C 52.5666 3.87709 1.90541 0
M  V30 545 C 51.7016 4.29604 3.12433 0
M  V30 546 C 50.7406 5.46065 2.76549 0
M  V30 547 N 49.8776 5.83096 3.9108 0
M  V30 548 H 54.7176 2.93963 0.488846 0
M  V30 549 H 52.2546 1.45296 0.22969 0
M  V30 550 H 54.2126 2.93114 2.96884 0
M  V30 551 H 52.8426 1.83333 2.65685 0
M  V30 552 H 51.8946 3.65291 1.06144 0
M  V30 553 H 53.2066 4.72403 1.60116 0
M  V30 554 H 52.3606 4.60182 3.9537 0
M  V30 555 H 51.0996 3.43685 3.46023 0
M  V30 556 H 50.1046 5.15176 1.92026 0
M  V30 557 H 51.3296 6.33685 2.44171 0
M  V30 558 H 49.2756 5.00132 4.24504 0
M  V30 559 H 49.1926 6.6244 3.64293 0
M  V30 560 H 50.4606 6.18282 4.74708 0
M  V30 561 N 54.6897 -0.239769 1.55765 0
M  V30 562 C 55.9667 -0.990056 1.68693 0
M  V30 563 C 56.3467 -2.03107 0.5754 0
M  V30 564 O 55.6947 -2.24604 -0.42017 0
M  V30 565 C 55.9047 -1.61696 3.09282 0
M  V30 566 C 57.2527 -2.11613 3.6811 0
M  V30 567 O 58.2767 -1.71624 3.12127 0
M  V30 568 O 57.1357 -2.85057 4.66267 0
M  V30 569 H 54.2297 -0.461299 0.686391 0
M  V30 570 H 56.7757 -0.232991 1.68093 0
M  V30 571 H 55.5477 -0.864357 3.81634 0
M  V30 572 H 55.1707 -2.44005 3.13923 0
M  V30 573 N 56.1678 -1.49265 -0.50573 0
M  V30 574 C 57.1308 -1.65075 -1.59006 0
M  V30 575 C 58.1308 -0.522768 -1.52065 0
M  V30 576 O 59.3208 -0.789117 -1.55302 0
M  V30 577 C 56.4528 -1.64369 -2.98656 0
M  V30 578 H 57.6458 -2.61784 -1.46319 0
M  V30 579 H 55.1988 -1.38226 -0.729616 0
M  V30 580 H 55.9338 -0.692272 -3.16825 0
M  V30 581 H 55.7188 -2.46282 -3.05103 0
M  V30 582 H 57.2088 -1.78674 -3.77446 0
M  V30 583 N 57.6459 0.756429 -1.3826 0
M  V30 584 C 58.8929 1.51547 -1.34312 0
M  V30 585 C 59.2209 1.94382 0.0677144 0
M  V30 586 O 58.4759 1.65514 1.04421 0
M  V30 587 C 58.7749 2.78313 -2.24224 0
M  V30 588 C 58.4409 2.54455 -3.72241 0
M  V30 589 C 57.1029 2.47657 -4.12576 0
M  V30 590 C 59.4549 2.3354 -4.65949 0
M  V30 591 C 56.7829 2.17956 -5.44713 0
M  V30 592 C 59.1349 2.05359 -5.9834 0
M  V30 593 C 57.7989 1.97016 -6.37762 0
M  V30 594 H 57.0689 0.55455 -0.491482 0
M  V30 595 H 59.7159 0.870039 -1.70595 0
M  V30 596 H 58.0209 3.47492 -1.80987 0
M  V30 597 H 59.7179 3.36259 -2.18474 0
M  V30 598 H 56.3079 2.60616 -3.40261 0
M  V30 599 H 60.4919 2.37772 -4.35635 0
M  V30 600 H 55.7479 2.10003 -5.74203 0
M  V30 601 H 59.9219 1.88179 -6.70494 0
M  V30 602 H 57.5489 1.73766 -7.40074 0
M  V30 603 N 59.124 1.23083 0.984299 0
M  V30 604 C 60.354 1.08556 1.75781 0
M  V30 605 C 60.762 -0.366171 1.85623 0
M  V30 606 O 60.105 -1.26524 1.33182 0
M  V30 607 C 60.167 1.63208 3.20318 0
M  V30 608 C 59.831 3.11922 3.33997 0
M  V30 609 C 60.828 4.09259 3.2063 0
M  V30 610 C 58.513 3.51552 3.58771 0
M  V30 611 C 60.507 5.4421 3.31835 0
M  V30 612 C 58.194 4.86649 3.69616 0
M  V30 613 C 59.192 5.82787 3.56157 0
M  V30 614 O 58.88 7.15431 3.66626 0
M  V30 615 H 58.612 0.380713 0.5586 0
M  V30 616 H 61.166 1.63321 1.2456 0
M  V30 617 H 59.396 1.0286 3.72769 0
M  V30 618 H 61.085 1.44216 3.79416 0
M  V30 619 H 61.851 3.79984 3.01392 0
M  V30 620 H 57.73 2.77239 3.6832 0
M  V30 621 H 61.274 6.1923 3.21247 0
M  V30 622 H 57.171 5.15601 3.88363 0
M  V30 623 H 57.939 7.23127 3.83445 0
M  V30 624 N 60.6021 -1.18246 1.0419 0
M  V30 625 C 61.8481 -1.88536 0.747122 0
M  V30 626 C 62.1811 -1.80223 -0.723409 0
M  V30 627 O 61.4561 -1.20337 -1.52804 0
M  V30 628 C 61.7391 -3.38968 1.21544 0
M  V30 629 C 61.5921 -3.56084 2.74816 0
M  V30 630 C 62.9111 -4.32648 0.806482 0
M  V30 631 H 60.0301 -0.684619 0.272883 0
M  V30 632 H 62.6721 -1.39113 1.29413 0
M  V30 633 H 60.8221 -3.8119 0.750081 0
M  V30 634 H 62.4941 -3.22946 3.29399 0
M  V30 635 H 60.7371 -2.98699 3.14582 0
M  V30 636 H 61.4081 -4.61639 3.02644 0
M  V30 637 H 63.8841 -3.98211 1.20695 0
M  V30 638 H 62.7601 -5.36462 1.1619 0
M  V30 639 H 63.0211 -4.41146 -0.29029 0
M  V30 640 N 62.0802 -0.821533 -1.34494 0
M  V30 641 C 63.0432 -0.247847 -2.27856 0
M  V30 642 C 64.0432 0.573453 -1.50227 0
M  V30 643 O 65.2332 0.389759 -1.69784 0
M  V30 644 C 62.3652 0.652698 -3.34593 0
M  V30 645 H 63.5582 -1.07146 -2.80107 0
M  V30 646 H 61.1112 -0.593291 -1.44602 0
M  V30 647 H 61.8462 1.49943 -2.87555 0
M  V30 648 H 61.6312 0.065292 -3.92046 0
M  V30 649 H 63.1212 1.04793 -4.04238 0
M  V30 650 N 63.5583 1.46682 -0.576371 0
M  V30 651 C 64.8353 1.95599 0.00703437 0
M  V30 652 C 65.2153 1.51904 1.46589 0
M  V30 653 O 64.5633 0.766755 2.15251 0
M  V30 654 C 64.7733 3.4864 -0.158404 0
M  V30 655 C 66.1213 4.24594 -0.0229439 0
M  V30 656 O 67.1453 3.56094 -0.0869173 0
M  V30 657 O 66.0043 5.46373 0.118015 0
M  V30 658 H 63.0983 0.825275 0.053384 0
M  V30 659 H 65.6443 1.56996 -0.644244 0
M  V30 660 H 64.4163 3.7331 -1.17282 0
M  V30 661 H 64.0393 3.94057 0.5296 0
M  V30 662 N 65.0364 0.313813 1.54444 0
M  V30 663 C 65.9664 -0.549454 2.26943 0
M  V30 664 C 66.9474 -1.12741 1.27372 0
M  V30 665 O 68.1324 -1.15436 1.56167 0
M  V30 666 C 65.2624 -1.71523 3.01989 0
M  V30 667 C 64.2164 -1.26703 4.08816 0
M  V30 668 C 63.5424 -2.51898 4.71647 0
M  V30 669 C 64.8424 -0.388962 5.2085 0
M  V30 670 H 66.5364 0.0552661 2.99349 0
M  V30 671 H 64.0824 0.0280207 1.43973 0
M  V30 672 H 66.0354 -2.32535 3.51433 0
M  V30 673 H 64.7594 -2.34639 2.27183 0
M  V30 674 H 63.4184 -0.679896 3.6024 0
M  V30 675 H 63.0664 -3.13356 3.93468 0
M  V30 676 H 62.7664 -2.22605 5.43802 0
M  V30 677 H 64.2904 -3.1369 5.23861 0
M  V30 678 H 65.7044 -0.905107 5.6611 0
M  V30 679 H 64.1014 -0.18924 5.99802 0
M  V30 680 H 65.1714 0.582699 4.81386 0
M  V30 681 N 66.5145 -1.57545 0.0417849 0
M  V30 682 C 67.7625 -1.91937 -0.632829 0
M  V30 683 C 68.0835 -0.919978 -1.71934 0
M  V30 684 O 67.3535 0.0366064 -1.95866 0
M  V30 685 H 65.9335 -0.708493 -0.236742 0
M  V30 686 H 68.5955 -1.9468 0.0925745 0
M  V30 687 H 67.6915 -2.92912 -1.07746 0
M  V30 688 N 67.9926 0.231505 -1.5589 0
M  V30 689 C 69.2696 0.981096 -1.69215 0
M  V30 690 C 69.6496 2.02799 -0.586164 0
M  V30 691 O 68.9976 2.24823 0.408253 0
M  V30 692 C 69.2076 1.60054 -3.10135 0
M  V30 693 C 70.5556 2.09658 -3.69227 0
M  V30 694 O 71.5796 1.69967 -3.13033 0
M  V30 695 O 70.4386 2.8258 -4.67772 0
M  V30 696 H 67.5326 0.457653 -0.688827 0
M  V30 697 H 70.0786 0.224073 -1.68214 0
M  V30 698 H 68.8506 0.844105 -3.82087 0
M  V30 699 H 68.4736 2.42336 -3.15212 0
M  V30 700 N 69.4707 1.49531 0.497807 0
M  V30 701 C 70.7197 1.58426 1.24837 0
M  V30 702 C 71.0327 0.277643 1.93619 0
M  V30 703 O 72.2387 0.24517 2.70391 0
M  V30 704 C 70.6947 2.79538 2.26686 0
M  V30 705 C 70.3027 4.16971 1.63828 0
M  V30 706 C 72.0467 2.97764 3.0255 0
M  V30 707 C 69.9537 5.29301 2.63807 0
M  V30 708 H 68.8837 0.58989 0.469623 0
M  V30 709 H 71.5347 1.75923 0.521857 0
M  V30 710 H 69.9167 2.55542 3.02514 0
M  V30 711 H 71.0907 4.51116 0.939711 0
M  V30 712 H 69.4057 4.04129 1.00342 0
M  V30 713 H 72.0027 3.78856 3.77323 0
M  V30 714 H 72.3457 2.08448 3.60354 0
M  V30 715 H 72.8787 3.21815 2.33838 0
M  V30 716 H 69.6177 6.20687 2.10779 0
M  V30 717 H 69.1377 4.99606 3.31894 0
M  V30 718 H 70.8167 5.58768 3.2617 0
M  V30 719 N 70.9488 -0.749086 1.3866 0
M  V30 720 C 71.8788 -1.8764 1.38973 0
M  V30 721 C 72.8598 -1.68178 0.255004 0
M  V30 722 O 74.0448 -1.88704 0.458754 0
M  V30 723 C 71.1748 -3.25222 1.21851 0
M  V30 724 C 70.1288 -3.59295 2.32575 0
M  V30 725 C 69.4548 -4.95663 2.00555 0
M  V30 726 C 70.7548 -3.63709 3.7485 0
M  V30 727 H 72.4488 -1.87635 2.3331 0
M  V30 728 H 69.9948 -0.901329 1.12303 0
M  V30 729 H 71.9478 -4.03746 1.20695 0
M  V30 730 H 70.6718 -3.25719 0.239775 0
M  V30 731 H 69.3308 -2.83093 2.32925 0
M  V30 732 H 68.9788 -4.92724 1.01154 0
M  V30 733 H 68.6788 -5.19429 2.74714 0
M  V30 734 H 70.2028 -5.7656 2.01024 0
M  V30 735 H 71.6168 -4.32338 3.76506 0
M  V30 736 H 70.0138 -3.98986 4.48252 0
M  V30 737 H 71.0838 -2.63834 4.06841 0
M  V30 738 N 72.4269 -1.23603 -0.977757 0
M  V30 739 C 73.3739 -1.01954 -2.07061 0
M  V30 740 C 74.3439 0.0638697 -1.65977 0
M  V30 741 O 75.5289 -0.0887624 -1.90593 0
M  V30 742 C 72.6689 -0.619658 -3.39491 0
M  V30 743 C 71.7819 -1.77547 -3.93829 0
M  V30 744 C 70.9169 -1.32212 -5.14484 0
M  V30 745 C 69.9559 -2.44852 -5.60994 0
M  V30 746 N 69.0929 -2.00456 -6.72876 0
M  V30 747 H 73.9329 -1.95495 -2.24913 0
M  V30 748 H 71.4699 -0.973861 -1.10247 0
M  V30 749 H 73.4279 -0.368898 -4.15566 0
M  V30 750 H 72.0579 0.278752 -3.21594 0
M  V30 751 H 71.1099 -2.14016 -3.14486 0
M  V30 752 H 72.4219 -2.62219 -4.24314 0
M  V30 753 H 71.5759 -1.02965 -5.97899 0
M  V30 754 H 70.3149 -0.445808 -4.85658 0
M  V30 755 H 69.3199 -2.74871 -4.76157 0
M  V30 756 H 70.5449 -3.33024 -5.91837 0
M  V30 757 H 68.4909 -1.15208 -6.45804 0
M  V30 758 H 68.4079 -2.78687 -7.02759 0
M  V30 759 H 69.6759 -1.7432 -7.59758 0
M  V30 760 N 73.905 1.17692 -1.04816 0
M  V30 761 C 74.852 2.21581 -0.645797 0
M  V30 762 C 75.822 1.62367 0.350159 0
M  V30 763 O 77.007 1.89254 0.242433 0
M  V30 764 C 74.147 3.45092 -0.0227568 0
M  V30 765 C 73.26 4.18613 -1.06709 0
M  V30 766 C 72.395 5.29602 -0.411767 0
M  V30 767 C 71.434 5.94904 -1.44067 0
M  V30 768 N 70.571 6.97414 -0.809781 0
M  V30 769 H 75.411 2.55353 -1.5362 0
M  V30 770 H 72.948 1.25438 -0.768364 0
M  V30 771 H 74.906 4.15679 0.35588 0
M  V30 772 H 73.536 3.11917 0.831122 0
M  V30 773 H 72.588 3.46779 -1.5636 0
M  V30 774 H 73.9 4.63293 -1.84827 0
M  V30 775 H 73.054 6.06696 0.0206623 0
M  V30 776 H 71.793 4.86045 0.401438 0
M  V30 777 H 70.798 5.16544 -1.88316 0
M  V30 778 H 72.023 6.40542 -2.25571 0
M  V30 779 H 69.969 6.55998 -0.0170186 0
M  V30 780 H 69.886 7.40386 -1.52856 0
M  V30 781 H 71.154 7.78463 -0.401999 0
M  V30 782 N 75.3831 0.828654 1.34056 0
M  V30 783 C 76.3331 0.226828 2.26869 0
M  V30 784 C 77.3171 -0.612243 1.48796 0
M  V30 785 O 78.5091 -0.465884 1.70759 0
M  V30 786 C 75.6381 -0.605654 3.37915 0
M  V30 787 C 74.7241 0.244361 4.23395 0
M  V30 788 N 75.1151 1.31815 4.88322 0
M  V30 789 C 73.4131 0.0296616 4.4599 0
M  V30 790 C 74.1141 1.83895 5.51867 0
M  V30 791 N 73.0901 1.14196 5.3147 0
M  V30 792 H 76.8921 1.04811 2.74576 0
M  V30 793 H 74.4061 0.67205 1.47842 0
M  V30 794 H 76.4031 -1.05302 4.03382 0
M  V30 795 H 75.0631 -1.42504 2.91758 0
M  V30 796 H 76.0741 1.70099 4.8917 0
M  V30 797 H 72.7511 -0.757097 4.10578 0
M  V30 798 H 74.1411 2.7376 6.136 0
M  V30 799 N 76.8612 -1.46375 0.584142 0
M  V30 800 C 77.7912 -2.33103 -0.136037 0
M  V30 801 C 78.7722 -1.45431 -0.882255 0
M  V30 802 O 79.9572 -1.74246 -0.857434 0
M  V30 803 C 77.0872 -3.27731 -1.14933 0
M  V30 804 C 76.0412 -4.24855 -0.517862 0
M  V30 805 C 75.3672 -5.09001 -1.63773 0
M  V30 806 C 76.6672 -5.19439 0.545886 0
M  V30 807 H 78.3612 -2.93568 0.588086 0
M  V30 808 H 75.9072 -1.41166 0.284259 0
M  V30 809 H 77.8602 -3.87261 -1.66153 0
M  V30 810 H 76.5842 -2.65377 -1.90375 0
M  V30 811 H 75.2432 -3.6659 -0.0267361 0
M  V30 812 H 74.8912 -4.43031 -2.38185 0
M  V30 813 H 74.5912 -5.74777 -1.22085 0
M  V30 814 H 76.1152 -5.71396 -2.15266 0
M  V30 815 H 77.5292 -5.73177 0.118704 0
M  V30 816 H 75.9262 -5.93566 0.88317 0
M  V30 817 H 76.9962 -4.63285 1.43162 0
M  V30 818 N 78.3393 -0.321999 -1.54275 0
M  V30 819 C 79.7553 0.0306999 -1.5957 0
M  V30 820 C 79.9553 1.50614 -1.33857 0
M  V30 821 O 79.0113 2.2619 -1.12223 0
M  V30 822 C 80.3243 -0.386122 -2.98211 0
M  V30 823 C 81.8723 -0.336647 -3.11184 0
M  V30 824 C 82.3473 -0.728607 -4.52167 0
M  V30 825 N 83.8383 -0.681952 -4.58152 0
M  V30 826 C 84.5733 -0.957449 -5.6535 0
M  V30 827 N 84.0693 -1.3 -6.80494 0
M  V30 828 N 85.8623 -0.883113 -5.55119 0
M  V30 829 H 78.0133 -1.28332 -1.69247 0
M  V30 830 H 80.2763 -0.521716 -0.791528 0
M  V30 831 H 79.9823 -1.41404 -3.22022 0
M  V30 832 H 79.8563 0.249662 -3.76373 0
M  V30 833 H 82.2433 0.682058 -2.8711 0
M  V30 834 H 82.3243 -1.00734 -2.3513 0
M  V30 835 H 81.9683 -1.74522 -4.76974 0
M  V30 836 H 81.8983 -0.0356152 -5.26588 0
M  V30 837 H 84.3893 -0.428985 -3.75457 0
M  V30 838 H 84.7023 -1.49563 -7.58189 0
M  V30 839 H 83.0473 -1.33824 -6.81994 0
M  V30 840 H 86.2383 -0.615001 -4.64042 0
M  V30 841 H 86.4113 -1.10118 -6.38575 0
M  V30 842 N 79.8174 1.5752 -0.0501392 0
M  V30 843 C 81.0634 1.93755 0.618901 0
M  V30 844 C 81.4184 0.928514 1.68512 0
M  V30 845 O 80.7114 -0.0524613 1.91528 0
M  V30 846 C 80.9054 3.34467 1.25963 0
M  V30 847 C 80.7344 4.48965 0.257 0
M  V30 848 C 79.5044 5.05075 -0.150656 0
M  V30 849 C 81.7024 5.11891 -0.497166 0
M  V30 850 N 79.6844 6.03104 -1.14626 0
M  V30 851 C 81.0554 6.05216 -1.34588 0
M  V30 852 C 83.1104 4.9479 -0.55559 0
M  V30 853 C 81.8134 6.83277 -2.24778 0
M  V30 854 C 83.8394 5.73477 -1.44492 0
M  V30 855 C 83.2014 6.66433 -2.28136 0
M  V30 856 H 79.3004 0.756479 0.198149 0
M  V30 857 H 81.8844 1.94316 -0.122229 0
M  V30 858 H 80.0554 3.34685 1.97079 0
M  V30 859 H 81.7874 3.57994 1.88739 0
M  V30 860 H 78.5424 4.7305 0.228094 0
M  V30 861 H 78.9664 6.56813 -1.64092 0
M  V30 862 H 83.6084 4.2273 0.0768625 0
M  V30 863 H 81.3264 7.54629 -2.89069 0
M  V30 864 H 84.9124 5.62273 -1.49468 0
M  V30 865 H 83.7924 7.26258 -2.95835 0
M  V30 866 N 81.2955 -0.223234 1.56011 0
M  V30 867 C 82.2255 -1.27988 1.95298 0
M  V30 868 C 83.2065 -1.48976 0.820979 0
M  V30 869 O 84.3915 -1.61188 1.08315 0
M  V30 870 C 81.5215 -2.63 2.26822 0
M  V30 871 C 80.4755 -2.56671 3.42497 0
M  V30 872 C 79.8015 -3.95697 3.59622 0
M  V30 873 C 81.1015 -2.11601 4.77517 0
M  V30 874 H 82.7955 -0.953525 2.8381 0
M  V30 875 H 80.3415 -0.457244 1.36548 0
M  V30 876 H 82.2945 -3.37077 2.52898 0
M  V30 877 H 81.0185 -2.9732 1.35161 0
M  V30 878 H 79.6775 -1.85051 3.16467 0
M  V30 879 H 79.3255 -4.27322 2.6534 0
M  V30 880 H 79.0255 -3.92345 4.37424 0
M  V30 881 H 80.5495 -4.71438 3.88044 0
M  V30 882 H 81.9635 -2.7542 5.02809 0
M  V30 883 H 80.3605 -2.19311 5.5859 0
M  V30 884 H 81.4305 -1.06824 4.72987 0
M  V30 885 N 82.7736 -1.49793 -0.48987 0
M  V30 886 C 83.7206 -1.67281 -1.59014 0
M  V30 887 C 84.6906 -0.514177 -1.57941 0
M  V30 888 O 85.8756 -0.742533 -1.75759 0
M  V30 889 C 83.0156 -1.75569 -2.97102 0
M  V30 890 C 82.1286 -3.0281 -3.08107 0
M  V30 891 C 81.2636 -3.02008 -4.36995 0
M  V30 892 C 80.3026 -4.23782 -4.41673 0
M  V30 893 N 79.4396 -4.20826 -5.62005 0
M  V30 894 H 84.2796 -2.61224 -1.43409 0
M  V30 895 H 81.8166 -1.29508 -0.697565 0
M  V30 896 H 83.7746 -1.78354 -3.77155 0
M  V30 897 H 82.4046 -0.850827 -3.11385 0
M  V30 898 H 81.4566 -3.09584 -2.21047 0
M  V30 899 H 82.7686 -3.92801 -3.07423 0
M  V30 900 H 81.9226 -3.03418 -5.25378 0
M  V30 901 H 80.6616 -2.09815 -4.4026 0
M  V30 902 H 79.6666 -4.22604 -3.5169 0
M  V30 903 H 80.8916 -5.17181 -4.40115 0
M  V30 904 H 78.8376 -3.31476 -5.66091 0
M  V30 905 H 78.7546 -5.04564 -5.62984 0
M  V30 906 H 80.0226 -4.26355 -6.52565 0
M  V30 907 N 84.2517 0.741722 -1.39055 0
M  V30 908 C 85.2147 1.83733 -1.37021 0
M  V30 909 C 86.2147 1.58542 -0.268534 0
M  V30 910 O 87.4047 1.66067 -0.526076 0
M  V30 911 C 84.5367 3.2141 -1.13617 0
M  V30 912 H 85.7297 1.86941 -2.34506 0
M  V30 913 H 83.2827 0.944676 -1.24521 0
M  V30 914 H 84.0177 3.23865 -0.167863 0
M  V30 915 H 83.8027 3.4109 -1.93391 0
M  V30 916 H 85.2927 4.01477 -1.14918 0
M  V30 917 N 85.7298 1.2412 0.971189 0
M  V30 918 C 86.6598 1.05508 2.08304 0
M  V30 919 C 87.6408 -0.0308864 1.70072 0
M  V30 920 O 88.8258 0.135521 1.93727 0
M  V30 921 C 85.9558 0.655365 3.4106 0
M  V30 922 C 84.9098 1.68971 3.93234 0
M  V30 923 C 84.2358 1.14516 5.22293 0
M  V30 924 C 85.5358 3.08487 4.21465 0
M  V30 925 H 87.2298 1.98507 2.24132 0
M  V30 926 H 84.7758 0.955821 1.07704 0
M  V30 927 H 86.7288 0.51217 4.18276 0
M  V30 928 H 85.4528 -0.31032 3.25122 0
M  V30 929 H 84.1118 1.82106 3.18171 0
M  V30 930 H 83.7598 0.170189 5.02712 0
M  V30 931 H 83.4598 1.83635 5.58168 0
M  V30 932 H 84.9838 1.01401 6.02121 0
M  V30 933 H 86.3978 2.98601 4.89398 0
M  V30 934 H 84.7948 3.74926 4.68562 0
M  V30 935 H 85.8648 3.56787 3.28376 0
M  V30 936 N 87.2079 -1.17134 1.05439 0
M  V30 937 C 88.6189 -1.69084 0.791676 0
M  V30 938 C 88.9699 -1.83822 -0.685839 0
M  V30 939 O 88.0949 -1.52757 -1.53278 0
M  V30 940 C 88.6899 -3.07119 1.4305 0
M  V30 941 C 87.2489 -3.56225 1.21577 0
M  V30 942 C 86.3959 -2.32421 1.51247 0
M  V30 943 H 89.3469 -1.01617 1.219 0
M  V30 944 H 89.3679 -3.71087 0.84112 0
M  V30 945 H 88.8799 -2.9636 2.50584 0
M  V30 946 H 86.9809 -3.72257 0.159787 0
M  V30 947 H 87.0939 -4.38837 1.92246 0
M  V30 948 H 85.4579 -2.3701 0.932653 0
M  V30 949 H 86.2409 -2.24268 2.5992 0
M  V30 950 N 88.686 -0.835752 -1.33615 0
M  V30 951 C 90.102 -0.523139 -1.50783 0
M  V30 952 C 90.302 0.950171 -1.77691 0
M  V30 953 O 89.358 1.73411 -1.83534 0
M  V30 954 C 90.671 -1.39378 -2.66448 0
M  V30 955 C 92.219 -1.39223 -2.80332 0
M  V30 956 C 92.694 -2.24765 -3.99055 0
M  V30 957 N 94.185 -2.22458 -4.06284 0
M  V30 958 C 94.92 -2.85386 -4.97336 0
M  V30 959 N 94.416 -3.57354 -5.93523 0
M  V30 960 N 96.209 -2.74872 -4.90308 0
M  V30 961 H 88.36 -1.78952 -1.14411 0
M  V30 962 H 90.623 -0.763297 -0.562212 0
M  V30 963 H 90.329 -2.44061 -2.53234 0
M  V30 964 H 90.203 -1.0676 -3.61776 0
M  V30 965 H 92.59 -0.353136 -2.92979 0
M  V30 966 H 92.671 -1.75846 -1.85773 0
M  V30 967 H 92.315 -3.28732 -3.87167 0
M  V30 968 H 92.245 -1.85485 -4.92852 0
M  V30 969 H 94.736 -1.70119 -3.37443 0
M  V30 970 H 95.049 -4.02584 -6.59656 0
M  V30 971 H 93.394 -3.61461 -5.93608 0
M  V30 972 H 96.585 -2.18213 -4.14126 0
M  V30 973 H 96.758 -3.24199 -5.61069 0
M  V30 974 N 90.1641 1.46063 -0.591896 0
M  V30 975 C 91.4101 2.02638 -0.0811191 0
M  V30 976 C 91.7431 1.4613 1.27905 0
M  V30 977 O 91.0181 0.629908 1.84017 0
M  V30 978 C 91.3011 3.60091 -0.0252436 0
M  V30 979 C 91.1541 4.26965 -1.41496 0
M  V30 980 C 92.4731 4.3496 0.670685 0
M  V30 981 H 89.5921 0.73635 -0.0309524 0
M  V30 982 H 92.2341 1.741 -0.760859 0
M  V30 983 H 90.3841 3.84535 0.553624 0
M  V30 984 H 92.0561 4.13756 -2.0397 0
M  V30 985 H 90.2991 3.85971 -1.98011 0
M  V30 986 H 90.9701 5.35781 -1.32825 0
M  V30 987 H 93.4461 4.15716 0.178825 0
M  V30 988 H 92.3221 5.44686 0.678837 0
M  V30 989 H 92.5831 4.06685 1.73379 0
M  V30 990 N 91.6422 0.330177 1.54103 0
M  V30 991 C 92.8702 -0.272179 2.05102 0
M  V30 992 C 93.2852 -1.45267 1.20595 0
M  V30 993 O 92.6422 -1.8094 0.238144 0
M  V30 994 C 92.6932 -0.70023 3.54653 0
M  V30 995 O 92.4142 0.433301 4.35952 0
M  V30 996 C 93.9152 -1.3647 4.21771 0
M  V30 997 H 91.1352 -0.0549159 0.668749 0
M  V30 998 H 93.6792 0.478285 1.98828 0
M  V30 999 H 91.8342 -1.40066 3.61193 0
M  V30 1000 H 92.2482 0.0947539 5.24414 0
M  V30 1001 H 93.7222 -1.61509 5.27843 0
M  V30 1002 H 94.1992 -2.31409 3.73292 0
M  V30 1003 H 94.8052 -0.706675 4.19388 0
M  V30 1004 N 93.1203 -1.57491 0.0584922 0
M  V30 1005 C 94.5313 -1.80526 -0.476138 0
M  V30 1006 C 94.8823 -0.971334 -1.70469 0
M  V30 1007 O 94.0073 -0.190012 -2.15564 0
M  V30 1008 C 94.6023 -3.27424 -0.870587 0
M  V30 1009 C 93.1613 -3.51351 -1.35015 0
M  V30 1010 C 92.3083 -2.75343 -0.32887 0
M  V30 1011 H 95.2593 -1.56133 0.284312 0
M  V30 1012 H 95.2803 -3.38745 -1.73299 0
M  V30 1013 H 94.7923 -3.88093 0.0237627 0
M  V30 1014 H 92.8933 -2.95971 -2.26345 0
M  V30 1015 H 93.0063 -4.60059 -1.33726 0
M  V30 1016 H 91.3703 -2.417 -0.803321 0
M  V30 1017 H 92.1533 -3.38743 0.557521 0
M  V30 1018 N 94.5984 0.214957 -1.56127 0
M  V30 1019 C 95.8454 0.938372 -1.79446 0
M  V30 1020 C 96.1734 1.8407 -0.628378 0
M  V30 1021 O 95.4284 1.91837 0.386925 0
M  V30 1022 C 95.7274 1.80314 -3.0858 0
M  V30 1023 C 95.3934 1.05349 -4.3842 0
M  V30 1024 C 94.0554 0.846435 -4.73697 0
M  V30 1025 C 96.4074 0.524588 -5.18553 0
M  V30 1026 C 93.7354 0.098683 -5.86617 0
M  V30 1027 C 96.0874 -0.209853 -6.32252 0
M  V30 1028 C 94.7514 -0.428102 -6.66126 0
M  V30 1029 H 94.0214 0.343375 -0.656639 0
M  V30 1030 H 96.6684 0.206077 -1.90388 0
M  V30 1031 H 94.9734 2.6035 -2.92789 0
M  V30 1032 H 96.6704 2.36513 -3.23825 0
M  V30 1033 H 93.2604 1.22486 -4.10725 0
M  V30 1034 H 97.4444 0.672008 -4.91729 0
M  V30 1035 H 92.7004 -0.0805753 -6.11347 0
M  V30 1036 H 96.8744 -0.627157 -6.9357 0
M  V30 1037 H 94.5014 -1.00944 -7.53468 0
M  V30 1038 N 96.0765 1.50051 0.48192 0
M  V30 1039 C 97.3065 1.63999 1.2565 0
M  V30 1040 C 97.7145 0.318288 1.86504 0
M  V30 1041 O 97.0575 -0.708534 1.69486 0
M  V30 1042 C 97.1195 2.66504 2.4128 0
M  V30 1043 C 96.7835 4.10352 2.01148 0
M  V30 1044 C 97.7805 4.96562 1.54021 0
M  V30 1045 C 95.4655 4.56203 2.10199 0
M  V30 1046 C 97.4595 6.26668 1.16473 0
M  V30 1047 C 95.1465 5.86318 1.72264 0
M  V30 1048 C 96.1445 6.71375 1.25477 0
M  V30 1049 O 95.8325 7.99062 0.880626 0
M  V30 1050 H 95.5645 0.55456 0.386574 0
M  V30 1051 H 98.1185 1.96954 0.582944 0
M  V30 1052 H 96.3485 2.28769 3.11772 0
M  V30 1053 H 98.0375 2.69783 3.03268 0
M  V30 1054 H 98.8035 4.62358 1.46458 0
M  V30 1055 H 94.6825 3.90152 2.45566 0
M  V30 1056 H 98.2265 6.93011 0.798841 0
M  V30 1057 H 94.1235 6.20046 1.79482 0
M  V30 1058 H 94.8915 8.12239 1.01043 0
M  V30 1059 N 97.5546 -0.734337 1.39446 0
M  V30 1060 C 98.5176 -1.83004 1.37994 0
M  V30 1061 C 99.5176 -1.58397 0.276938 0
M  V30 1062 O 100.708 -1.65785 0.534875 0
M  V30 1063 C 97.8396 -3.20802 1.1532 0
M  V30 1064 H 99.0326 -1.85694 2.35494 0
M  V30 1065 H 96.5856 -0.938059 1.25021 0
M  V30 1066 H 97.3206 -3.23772 0.185036 0
M  V30 1067 H 97.1056 -3.4006 1.95197 0
M  V30 1068 H 98.5956 -4.00862 1.17046 0
M  V30 1069 N 99.0327 -1.24633 -0.964593 0
M  V30 1070 C 100.279 -1.08949 -1.71049 0
M  V30 1071 C 100.612 0.370302 -1.90637 0
M  V30 1072 O 99.8867 1.27349 -1.47011 0
M  V30 1073 C 100.17 -1.83329 -3.0994 0
M  V30 1074 C 100.023 -3.37077 -2.97824 0
M  V30 1075 C 101.342 -1.60846 -4.09654 0
M  V30 1076 H 98.4607 -0.397178 -0.620821 0
M  V30 1077 H 101.103 -1.5334 -1.12191 0
M  V30 1078 H 99.2527 -1.45597 -3.60186 0
M  V30 1079 H 100.925 -3.84425 -2.5498 0
M  V30 1080 H 99.1677 -3.65298 -2.33965 0
M  V30 1081 H 99.8387 -3.84324 -3.96231 0
M  V30 1082 H 102.315 -1.93674 -3.68279 0
M  V30 1083 H 101.191 -2.1534 -5.04896 0
M  V30 1084 H 101.452 -0.547434 -4.38698 0
M  V30 1085 N 100.511 1.16574 -1.06058 0
M  V30 1086 C 101.458 2.20883 -0.669263 0
M  V30 1087 C 102.428 1.62729 0.332918 0
M  V30 1088 O 103.613 1.895 0.222346 0
M  V30 1089 C 100.753 3.45049 -0.0593572 0
M  V30 1090 C 99.8658 4.17458 -1.11143 0
M  V30 1091 C 99.0008 5.29135 -0.467916 0
M  V30 1092 C 98.0398 5.93343 -1.50369 0
M  V30 1093 N 97.1768 6.96516 -0.883706 0
M  V30 1094 H 102.017 2.53709 -1.5632 0
M  V30 1095 H 99.5538 1.24616 -0.781625 0
M  V30 1096 H 101.512 4.16033 0.311771 0
M  V30 1097 H 100.142 3.12781 0.797992 0
M  V30 1098 H 99.1938 3.45101 -1.60029 0
M  V30 1099 H 100.506 4.61307 -1.89731 0
M  V30 1100 H 99.6598 6.06684 -0.0436871 0
M  V30 1101 H 98.3988 4.86443 0.349864 0
M  V30 1102 H 97.4038 5.14517 -1.93784 0
M  V30 1103 H 98.6288 6.38114 -2.32352 0
M  V30 1104 H 96.5748 6.55943 -0.086595 0
M  V30 1105 H 96.4918 7.38723 -1.607 0
M  V30 1106 H 97.7598 7.77993 -0.484543 0
M  V30 1107 N 101.989 0.842826 1.3317 0
M  V30 1108 C 103.229 0.446574 1.99462 0
M  V30 1109 C 103.593 -0.976818 1.65295 0
M  V30 1110 O 104.794 -1.477 2.24584 0
M  V30 1111 C 103.065 0.665353 3.51152 0
M  V30 1112 S 104.624 0.364911 4.3728 0
M  V30 1113 H 101.442 0.167803 0.690915 0
M  V30 1114 H 104.044 1.09297 1.62094 0
M  V30 1115 H 102.748 1.7006 3.73507 0
M  V30 1116 H 102.279 0.00494568 3.934 0
M  V30 1117 H 104.294 -0.813761 4.89482 0
M  V30 1118 N 103.467 -1.45747 0.599634 0
M  V30 1119 C 104.415 -2.322 -0.136426 0
M  V30 1120 C 105.409 -1.45497 -0.867583 0
M  V30 1121 O 106.615 -1.62027 -0.78405 0
M  V30 1122 H 102.99 -0.749368 -0.0628588 0
M  V30 1123 H 104.961 -2.92072 0.611281 0
M  V30 1124 C 103.71 -3.28974 -1.12567 0
M  V30 1125 H 103.033 -3.9568 -0.572484 0
M  V30 1126 H 104.473 -3.92212 -1.61077 0
M  V30 1127 C 102.932 -2.55561 -2.19523 0
M  V30 1128 O 103.462 -2.33111 -3.27143 0
M  V30 1129 N 101.668 -2.15832 -1.94589 0
M  V30 1130 H 101.215 -2.3429 -1.07078 0
M  V30 1131 H 101.173 -1.67034 -2.66359 0
M  V30 1132 N 104.945 -0.338344 -1.53925 0
M  V30 1133 C 106.222 0.314774 -1.93051 0
M  V30 1134 C 106.602 1.68669 -1.26941 0
M  V30 1135 O 105.95 2.24636 -0.418445 0
M  V30 1136 C 106.16 0.392249 -3.46789 0
M  V30 1137 C 107.508 0.645554 -4.19664 0
M  V30 1138 O 108.532 0.474575 -3.53024 0
M  V30 1139 O 107.391 0.976408 -5.37707 0
M  V30 1140 H 104.485 0.182598 -0.80659 0
M  V30 1141 H 107.031 -0.389141 -1.65178 0
M  V30 1142 H 105.803 -0.570702 -3.87116 0
M  V30 1143 H 105.426 1.14316 -3.80812 0
M  V30 1144 N 106.423 1.57458 -0.0668435 0
M  V30 1145 C 107.648 1.9804 0.616027 0
M  V30 1146 C 108.073 0.944771 1.62652 0
M  V30 1147 O 107.431 -0.0902094 1.81075 0
M  V30 1148 C 107.479 3.37665 1.26549 0
M  V30 1149 O 106.583 3.36701 2.38131 0
M  V30 1150 H 105.924 0.644719 0.158849 0
M  V30 1151 H 108.454 2.04121 -0.139891 0
M  V30 1152 H 108.464 3.7474 1.6135 0
M  V30 1153 H 107.139 4.12573 0.525016 0
M  V30 1154 H 105.716 3.1139 2.0516 0
M  V30 1155 N 107.901 -0.206675 1.56239 0
M  V30 1156 C 108.848 -1.25617 1.93621 0
M  V30 1157 C 109.818 -1.45824 0.795274 0
M  V30 1158 O 111.003 -1.59148 1.05245 0
M  V30 1159 C 108.143 -2.59839 2.27107 0
M  V30 1160 C 107.256 -2.47308 3.54207 0
M  V30 1161 C 106.391 -3.74155 3.7707 0
M  V30 1162 C 105.43 -3.56407 4.97635 0
M  V30 1163 N 104.567 -4.75238 5.1681 0
M  V30 1164 H 109.407 -0.930383 2.83104 0
M  V30 1165 H 106.944 -0.448065 1.4011 0
M  V30 1166 H 108.902 -3.38021 2.44535 0
M  V30 1167 H 107.532 -2.90485 1.40778 0
M  V30 1168 H 106.584 -1.60483 3.4489 0
M  V30 1169 H 107.896 -2.30122 4.42544 0
M  V30 1170 H 107.05 -4.60778 3.94675 0
M  V30 1171 H 105.789 -3.94282 2.87042 0
M  V30 1172 H 104.794 -2.68168 4.79964 0
M  V30 1173 H 106.019 -3.37736 5.89161 0
M  V30 1174 H 103.965 -4.95651 4.29728 0
M  V30 1175 H 103.882 -4.60835 5.99306 0
M  V30 1176 H 105.15 -5.63246 5.38864 0
M  V30 1177 N 109.379 -1.50304 -0.473955 0
M  V30 1178 C 110.342 -1.6841 -1.55469 0
M  V30 1179 C 111.342 -0.554905 -1.50922 0
M  V30 1180 O 112.532 -0.821882 -1.53593 0
M  V30 1181 C 109.664 -1.70667 -2.95102 0
M  V30 1182 H 110.857 -2.64828 -1.40733 0
M  V30 1183 H 108.41 -1.39742 -0.700132 0
M  V30 1184 H 109.145 -0.75932 -3.15285 0
M  V30 1185 H 108.93 -2.52698 -2.9981 0
M  V30 1186 H 110.42 -1.8664 -3.73571 0
M  V30 1187 N 110.857 0.726932 -1.39834 0
M  V30 1188 C 112.106 1.48214 -1.36805 0
M  V30 1189 C 112.419 1.95576 0.0305291 0
M  V30 1190 O 113.625 2.7088 0.183417 0
M  V30 1191 C 112.081 2.67854 -2.40379 0
M  V30 1192 C 111.689 2.27408 -3.85992 0
M  V30 1193 C 113.433 3.45641 -2.46439 0
M  V30 1194 C 111.34 3.43819 -4.81189 0
M  V30 1195 H 110.27 0.556606 -0.508631 0
M  V30 1196 H 112.921 0.792216 -1.65518 0
M  V30 1197 H 111.303 3.3896 -2.04749 0
M  V30 1198 H 112.477 1.63795 -4.30706 0
M  V30 1199 H 110.792 1.62692 -3.83302 0
M  V30 1200 H 113.389 4.32244 -3.14753 0
M  V30 1201 H 113.732 3.88669 -1.49139 0
M  V30 1202 H 114.265 2.8157 -2.81004 0
M  V30 1203 H 111.004 3.05834 -5.79781 0
M  V30 1204 H 110.524 4.06385 -4.41148 0
M  V30 1205 H 112.203 4.10043 -5.00474 0
M  V30 1206 N 112.336 1.25143 0.95797 0
M  V30 1207 C 113.582 1.09855 1.70469 0
M  V30 1208 C 113.915 -0.360187 1.90831 0
M  V30 1209 O 113.19 -1.26568 1.47685 0
M  V30 1210 C 113.473 1.8497 3.08963 0
M  V30 1211 C 113.326 3.38652 2.96032 0
M  V30 1212 C 114.645 1.63016 4.08795 0
M  V30 1213 H 111.764 0.400465 0.618706 0
M  V30 1214 H 114.406 1.53933 1.11376 0
M  V30 1215 H 112.556 1.47505 3.59409 0
M  V30 1216 H 114.228 3.85772 2.52938 0
M  V30 1217 H 112.471 3.66534 2.32025 0
M  V30 1218 H 113.142 3.8642 3.94187 0
M  V30 1219 H 115.618 1.95625 3.67247 0
M  V30 1220 H 114.494 2.18015 5.03747 0
M  V30 1221 H 114.755 0.570692 4.38401 0
M  V30 1222 N 113.814 -1.1601 1.06675 0
M  V30 1223 C 114.761 -2.20525 0.680967 0
M  V30 1224 C 115.731 -1.62904 -0.324283 0
M  V30 1225 O 116.916 -1.89615 -0.212294 0
M  V30 1226 C 114.056 -3.45013 0.0776551 0
M  V30 1227 C 113.169 -4.16863 1.13355 0
M  V30 1228 C 112.304 -5.2888 0.49597 0
M  V30 1229 C 111.343 -5.92537 1.53513 0
M  V30 1230 N 110.48 -6.96038 0.920631 0
M  V30 1231 H 115.32 -2.52876 1.57663 0
M  V30 1232 H 112.857 -1.24199 0.788223 0
M  V30 1233 H 114.815 -4.16193 -0.289704 0
M  V30 1234 H 113.445 -3.132 -0.781393 0
M  V30 1235 H 112.497 -3.44248 1.61857 0
M  V30 1236 H 113.809 -4.60294 1.92174 0
M  V30 1237 H 112.963 -6.06653 0.0758604 0
M  V30 1238 H 111.702 -4.86622 -0.324062 0
M  V30 1239 H 110.707 -5.13482 1.9651 0
M  V30 1240 H 111.932 -6.36873 2.35733 0
M  V30 1241 H 109.878 -6.55888 0.12138 0
M  V30 1242 H 109.795 -7.3786 1.64616 0
M  V30 1243 H 111.063 -7.77725 0.525795 0
M  V30 1244 N 115.292 -0.849877 -1.32721 0
M  V30 1245 C 116.52 -0.464754 -2.01613 0
M  V30 1246 C 116.935 0.937191 -1.63897 0
M  V30 1247 O 116.292 1.61081 -0.857856 0
M  V30 1248 C 116.343 -0.588638 -3.56675 0
M  V30 1249 O 116.064 -1.93535 -3.93034 0
M  V30 1250 C 117.565 -0.2019 -4.4284 0
M  V30 1251 H 114.785 -0.183215 -0.645502 0
M  V30 1252 H 117.329 -1.1455 -1.69407 0
M  V30 1253 H 115.484 0.0443159 -3.87375 0
M  V30 1254 H 115.898 -1.92871 -4.87751 0
M  V30 1255 H 117.372 -0.339599 -5.50954 0
M  V30 1256 H 117.849 0.857224 -4.30753 0
M  V30 1257 H 118.455 -0.809733 -4.17521 0
M  V30 1258 N 116.77 1.45427 -0.607355 0
M  V30 1259 C 117.7 2.3329 0.0989352 0
M  V30 1260 C 118.681 1.46816 0.859007 0
M  V30 1261 O 119.866 1.75588 0.829604 0
M  V30 1262 C 116.996 3.29518 1.09705 0
M  V30 1263 C 115.95 4.25626 0.450206 0
M  V30 1264 C 115.276 5.11542 1.55655 0
M  V30 1265 C 116.576 5.18505 -0.628455 0
M  V30 1266 H 118.27 2.92595 -0.634716 0
M  V30 1267 H 115.816 1.40696 -0.306681 0
M  V30 1268 H 117.769 3.89855 1.59971 0
M  V30 1269 H 116.493 2.68372 1.86129 0
M  V30 1270 H 115.152 3.66586 -0.0315886 0
M  V30 1271 H 114.8 4.46765 2.31107 0
M  V30 1272 H 114.5 5.76647 1.12925 0
M  V30 1273 H 116.024 5.74748 2.06148 0
M  V30 1274 H 117.438 5.72916 -0.209877 0
M  V30 1275 H 115.835 5.92085 -0.977489 0
M  V30 1276 H 116.905 4.60948 -1.50514 0
M  V30 1277 N 118.248 0.346503 1.53744 0
M  V30 1278 C 119.211 -0.496439 2.23759 0
M  V30 1279 C 120.211 -1.0252 1.2388 0
M  V30 1280 O 121.401 -0.913974 1.48297 0
M  V30 1281 C 118.533 -1.69187 2.95954 0
M  V30 1282 H 119.726 0.115952 2.99676 0
M  V30 1283 H 117.279 0.0978939 1.55993 0
M  V30 1284 H 118.014 -2.34288 2.24231 0
M  V30 1285 H 117.799 -1.31989 3.69217 0
M  V30 1286 H 119.289 -2.28969 3.49232 0
M  V30 1287 N 119.726 -1.57421 0.075193 0
M  V30 1288 C 120.689 -2.11791 -0.876203 0
M  V30 1289 C 121.689 -1.04268 -1.22412 0
M  V30 1290 O 122.879 -1.30242 -1.15684 0
M  V30 1291 C 120.011 -2.62207 -2.17854 0
M  V30 1292 H 121.204 -2.9716 -0.40444 0
M  V30 1293 H 118.757 -1.55333 -0.173557 0
M  V30 1294 H 119.492 -1.803 -2.6956 0
M  V30 1295 H 119.277 -3.40802 -1.93897 0
M  V30 1296 H 120.767 -3.04335 -2.85955 0
M  V30 1297 N 121.204 0.198386 -1.56346 0
M  V30 1298 C 122.432 0.935572 -1.84539 0
M  V30 1299 C 122.847 1.76989 -0.657281 0
M  V30 1300 O 122.204 1.78626 0.374043 0
M  V30 1301 C 122.255 1.8344 -3.11499 0
M  V30 1302 O 121.976 1.03377 -4.25728 0
M  V30 1303 C 123.477 2.68355 -3.52846 0
M  V30 1304 H 120.697 0.273126 -0.612897 0
M  V30 1305 H 123.241 0.20663 -2.03453 0
M  V30 1306 H 121.396 2.51701 -2.94492 0
M  V30 1307 H 121.81 1.64599 -4.98003 0
M  V30 1308 H 123.284 3.27085 -4.44657 0
M  V30 1309 H 123.761 3.41901 -2.75681 0
M  V30 1310 H 124.367 2.05471 -3.72373 0
M  V30 1311 N 122.682 1.50554 0.465978 0
M  V30 1312 C 123.93 1.61479 1.21528 0
M  V30 1313 C 124.251 0.319596 1.92363 0
M  V30 1314 O 123.521 -0.663194 1.84333 0
M  V30 1315 H 122.101 0.595055 0.451573 0
M  V30 1316 H 124.763 1.87355 0.53704 0
M  V30 1317 H 123.859 2.42846 1.96042 0
M  V30 1318 N 124.16 -0.719506 1.40217 0
M  V30 1319 C 125.388 -1.50864 1.41589 0
M  V30 1320 C 125.803 -1.88794 0.0145275 0
M  V30 1321 O 125.16 -1.55174 -0.960594 0
M  V30 1322 C 125.211 -2.78646 2.30302 0
M  V30 1323 O 124.932 -2.42321 3.64983 0
M  V30 1324 C 126.433 -3.72569 2.40224 0
M  V30 1325 H 123.653 -0.465709 0.48307 0
M  V30 1326 H 126.197 -0.88785 1.84221 0
M  V30 1327 H 124.352 -3.37019 1.91042 0
M  V30 1328 H 124.766 -3.24514 4.12057 0
M  V30 1329 H 126.24 -4.5908 3.06512 0
M  V30 1330 H 126.717 -4.15403 1.42608 0
M  V30 1331 H 127.323 -3.20109 2.80019 0
M  V30 1332 N 125.638 -1.25649 -0.95132 0
M  V30 1333 C 126.886 -1.10375 -1.69298 0
M  V30 1334 C 127.207 0.355339 -1.91735 0
M  V30 1335 O 126.477 1.25188 -1.50681 0
M  V30 1336 H 125.057 -0.405461 -0.627384 0
M  V30 1337 H 127.719 -1.57823 -1.14358 0
M  V30 1338 H 126.815 -1.61465 -2.67087 0
M  V30 1339 N 127.117 1.15442 -1.07289 0
M  V30 1340 C 128.364 1.86213 -0.795668 0
M  V30 1341 C 128.692 1.82291 0.678238 0
M  V30 1342 O 127.947 1.24057 1.51355 0
M  V30 1343 C 128.246 3.3489 -1.24834 0
M  V30 1344 C 127.912 3.59007 -2.72809 0
M  V30 1345 C 126.574 3.65298 -3.13227 0
M  V30 1346 C 128.926 3.68762 -3.68326 0
M  V30 1347 C 126.254 3.78854 -4.4798 0
M  V30 1348 C 128.606 3.83842 -5.0284 0
M  V30 1349 C 127.27 3.88378 -5.4288 0
M  V30 1350 H 126.54 0.681403 -0.291155 0
M  V30 1351 H 129.187 1.36435 -1.34379 0
M  V30 1352 H 127.492 3.8687 -0.619595 0
M  V30 1353 H 129.189 3.88052 -1.01076 0
M  V30 1354 H 125.779 3.5475 -2.40521 0
M  V30 1355 H 129.963 3.63202 -3.38227 0
M  V30 1356 H 125.219 3.80623 -4.78472 0
M  V30 1357 H 129.393 3.90332 -5.76727 0
M  V30 1358 H 127.02 3.98635 -6.47298 0
M  V30 1359 N 128.595 0.856903 1.32268 0
M  V30 1360 C 129.872 0.382583 1.91822 0
M  V30 1361 C 130.252 -1.13407 1.78051 0
M  V30 1362 O 129.6 -1.95673 1.18001 0
M  V30 1363 C 129.81 0.849446 3.38505 0
M  V30 1364 C 131.158 0.867936 4.15634 0
M  V30 1365 O 132.182 0.794232 3.47232 0
M  V30 1366 O 131.041 0.972286 5.37781 0
M  V30 1367 H 128.135 0.112014 0.819379 0
M  V30 1368 H 130.681 0.943952 1.41024 0
M  V30 1369 H 129.453 1.89267 3.42482 0
M  V30 1370 H 129.076 0.265652 3.96712 0
M  V30 1371 N 130.073 -1.45103 0.615059 0
M  V30 1372 C 131.313 -2.04069 0.116282 0
M  V30 1373 C 131.677 -1.4721 -1.2326 0
M  V30 1374 O 132.878 -1.97577 -1.82255 0
M  V30 1375 C 131.149 -3.57298 0.085482 0
M  V30 1376 S 132.708 -4.37394 -0.351015 0
M  V30 1377 H 129.526 -0.709006 0.0532183 0
M  V30 1378 H 132.128 -1.77709 0.81484 0
M  V30 1379 H 130.832 -3.9619 1.0706 0
M  V30 1380 H 130.363 -3.88244 -0.634835 0
M  V30 1381 H 132.378 -4.69734 -1.59889 0
M  V30 1382 N 131.551 -0.354651 -1.53558 0
M  V30 1383 C 132.514 0.484566 -2.24019 0
M  V30 1384 C 133.514 1.01861 -1.24422 0
M  V30 1385 O 134.704 0.906097 -1.4878 0
M  V30 1386 C 131.836 1.67615 -2.96847 0
M  V30 1387 H 133.029 -0.131843 -2.9961 0
M  V30 1388 H 130.582 -0.106165 -1.55939 0
M  V30 1389 H 131.317 2.33095 -2.25471 0
M  V30 1390 H 131.102 1.30029 -3.69912 0
M  V30 1391 H 132.592 2.27114 -3.50441 0
M  V30 1392 N 133.029 1.57378 -0.0835403 0
M  V30 1393 C 134.254 1.98682 0.594987 0
M  V30 1394 C 134.679 0.961969 1.61641 0
M  V30 1395 O 134.037 -0.0709989 1.81161 0
M  V30 1396 C 134.085 3.38988 1.2296 0
M  V30 1397 O 133.189 3.39208 2.34546 0
M  V30 1398 H 132.53 0.646368 0.152002 0
M  V30 1399 H 135.06 2.03961 -0.161533 0
M  V30 1400 H 135.07 3.76431 1.57366 0
M  V30 1401 H 133.745 4.13107 0.481228 0
M  V30 1402 H 132.322 3.13548 2.01846 0
M  V30 1403 N 134.507 -0.190092 1.56449 0
M  V30 1404 C 135.454 -1.23557 1.94942 0
M  V30 1405 C 136.424 -1.44972 0.810696 0
M  V30 1406 O 137.609 -1.58023 1.06927 0
M  V30 1407 C 134.749 -2.57416 2.2985 0
M  V30 1408 C 133.862 -2.43537 3.5681 0
M  V30 1409 C 132.997 -3.70134 3.81017 0
M  V30 1410 C 132.036 -3.51109 5.01387 0
M  V30 1411 N 131.173 -4.6973 5.21822 0
M  V30 1412 H 136.013 -0.900304 2.84075 0
M  V30 1413 H 133.55 -0.43318 1.40577 0
M  V30 1414 H 135.508 -3.35409 2.48106 0
M  V30 1415 H 134.138 -2.88975 1.43852 0
M  V30 1416 H 133.19 -1.56816 3.46573 0
M  V30 1417 H 134.502 -2.25415 4.4496 0
M  V30 1418 H 133.656 -4.56566 3.9954 0
M  V30 1419 H 132.395 -3.91215 2.91207 0
M  V30 1420 H 131.4 -2.63063 4.82782 0
M  V30 1421 H 132.625 -3.31468 5.9271 0
M  V30 1422 H 130.571 -4.91065 4.34961 0
M  V30 1423 H 130.488 -4.54452 6.0416 0
M  V30 1424 H 131.756 -5.57499 5.44808 0
M  V30 1425 N 135.985 -1.50799 -0.457987 0
M  V30 1426 C 137.213 -1.66218 -1.23203 0
M  V30 1427 C 137.628 -0.350894 -1.85511 0
M  V30 1428 O 136.985 0.668546 -1.69814 0
M  V30 1429 C 137.036 -2.76291 -2.33121 0
M  V30 1430 O 136.757 -4.02338 -1.73366 0
M  V30 1431 C 138.258 -3.028 -3.2377 0
M  V30 1432 H 135.478 -0.558361 -0.372121 0
M  V30 1433 H 138.022 -1.97099 -0.545179 0
M  V30 1434 H 136.177 -2.48068 -2.97558 0
M  V30 1435 H 136.591 -4.63312 -2.4585 0
M  V30 1436 H 138.065 -3.8345 -3.97077 0
M  V30 1437 H 138.542 -2.14385 -3.83322 0
M  V30 1438 H 139.148 -3.32604 -2.65056 0
M  V30 1439 N 137.463 0.71206 -1.40597 0
M  V30 1440 C 138.373 1.8562 -1.43466 0
M  V30 1441 C 139.389 1.70902 -0.326902 0
M  V30 1442 O 140.565 1.93105 -0.572043 0
M  V30 1443 C 137.63 3.21451 -1.29884 0
M  V30 1444 C 136.691 3.48398 -2.50833 0
M  V30 1445 C 135.924 4.77749 -2.3789 0
M  V30 1446 O 136.147 5.53089 -1.39459 0
M  V30 1447 O 135.081 5.05111 -3.27333 0
M  V30 1448 H 138.907 1.86155 -2.39958 0
M  V30 1449 H 136.492 0.86295 -1.21957 0
M  V30 1450 H 138.374 4.02579 -1.24531 0
M  V30 1451 H 137.049 3.21636 -0.364997 0
M  V30 1452 H 135.956 2.67265 -2.61763 0
M  V30 1453 H 137.289 3.53014 -3.4299 0
M  V30 1454 N 138.941 1.26152 0.944643 0
M  V30 1455 C 140.19 1.10883 1.68487 0
M  V30 1456 C 140.503 -0.348153 1.92477 0
M  V30 1457 O 141.709 -0.621459 2.64292 0
M  V30 1458 C 140.165 1.93624 3.03377 0
M  V30 1459 C 139.773 3.43875 2.87148 0
M  V30 1460 C 141.517 1.86954 3.81115 0
M  V30 1461 C 139.424 4.18875 4.1749 0
M  V30 1462 H 138.354 0.41135 0.631907 0
M  V30 1463 H 141.005 1.50433 1.05082 0
M  V30 1464 H 139.387 1.46904 3.67743 0
M  V30 1465 H 140.561 3.98338 2.31653 0
M  V30 1466 H 138.876 3.51744 2.22856 0
M  V30 1467 H 141.473 2.40275 4.77673 0
M  V30 1468 H 141.816 0.839518 4.07747 0
M  V30 1469 H 142.349 2.31477 3.23517 0
M  V30 1470 H 139.088 5.22332 3.96043 0
M  V30 1471 H 138.608 3.69193 4.72712 0
M  V30 1472 H 140.287 4.27134 4.85968 0
M  V30 1473 N 140.419 -1.14872 1.07899 0
M  V30 1474 C 141.351 -2.19425 0.662231 0
M  V30 1475 C 142.364 -1.60231 -0.288079 0
M  V30 1476 O 143.553 -1.78336 -0.076534 0
M  V30 1477 C 140.653 -3.38867 -0.0470695 0
M  V30 1478 C 139.826 -4.27597 0.920831 0
M  V30 1479 C 138.885 -5.25616 0.247805 0
M  V30 1480 O 137.911 -5.62189 0.890599 0
M  V30 1481 N 139.113 -5.71746 -1.00435 0
M  V30 1482 H 141.878 -2.55797 1.56166 0
M  V30 1483 H 139.439 -1.30042 0.964404 0
M  V30 1484 H 141.431 -4.01497 -0.50813 0
M  V30 1485 H 140.001 -3.00864 -0.848523 0
M  V30 1486 H 139.221 -3.61982 1.56087 0
M  V30 1487 H 140.509 -4.83748 1.57688 0
M  V30 1488 H 139.907 -5.44153 -1.54642 0
M  V30 1489 H 138.464 -6.36389 -1.40899 0
M  V30 1490 N 141.898 -0.863906 -1.31812 0
M  V30 1491 C 142.828 -0.330843 -2.31144 0
M  V30 1492 C 143.809 0.575005 -1.60087 0
M  V30 1493 O 144.994 0.493304 -1.8783 0
M  V30 1494 C 142.124 0.47374 -3.44054 0
M  V30 1495 C 141.078 -0.338481 -4.26659 0
M  V30 1496 C 140.404 0.591412 -5.31419 0
M  V30 1497 C 141.704 -1.56926 -4.98168 0
M  V30 1498 H 143.398 -1.16086 -2.75979 0
M  V30 1499 H 140.944 -0.559657 -1.32679 0
M  V30 1500 H 142.897 0.857143 -4.12591 0
M  V30 1501 H 141.621 1.33721 -2.9797 0
M  V30 1502 H 140.28 -0.703754 -3.59782 0
M  V30 1503 H 139.928 1.45199 -4.81587 0
M  V30 1504 H 139.628 0.0519022 -5.87577 0
M  V30 1505 H 141.152 0.97179 -6.02817 0
M  V30 1506 H 142.566 -1.25764 -5.59336 0
M  V30 1507 H 140.963 -2.04739 -5.64094 0
M  V30 1508 H 142.033 -2.32544 -4.25501 0
M  V30 1509 N 143.376 1.44774 -0.622745 0
M  V30 1510 C 144.622 2.0242 -0.124083 0
M  V30 1511 C 144.955 1.4881 1.24777 0
M  V30 1512 O 144.23 0.668799 1.8264 0
M  V30 1513 C 144.513 3.59957 -0.101619 0
M  V30 1514 C 144.366 4.23867 -1.50521 0
M  V30 1515 C 145.685 4.36284 0.578272 0
M  V30 1516 H 142.804 0.735528 -0.0465645 0
M  V30 1517 H 145.446 1.72447 -0.797617 0
M  V30 1518 H 143.596 3.85623 0.471934 0
M  V30 1519 H 145.268 4.09336 -2.12701 0
M  V30 1520 H 143.511 3.81684 -2.06154 0
M  V30 1521 H 144.182 5.32843 -1.4416 0
M  V30 1522 H 146.658 4.16001 0.0906057 0
M  V30 1523 H 145.534 5.46004 0.563149 0
M  V30 1524 H 145.795 4.10271 1.64713 0
M  V30 1525 N 144.854 0.36279 1.53368 0
M  V30 1526 C 145.786 -0.519668 2.23231 0
M  V30 1527 C 146.799 -1.04844 1.24546 0
M  V30 1528 O 147.988 -0.955296 1.50786 0
M  V30 1529 C 145.088 -1.72995 2.9142 0
M  V30 1530 C 144.261 -1.33316 4.16588 0
M  V30 1531 C 143.32 -2.40521 4.68013 0
M  V30 1532 O 142.346 -2.03027 5.3176 0
M  V30 1533 N 143.548 -3.72065 4.45587 0
M  V30 1534 H 146.313 0.078751 2.99597 0
M  V30 1535 H 143.874 0.187833 1.60807 0
M  V30 1536 H 145.866 -2.44184 3.22733 0
M  V30 1537 H 144.436 -2.2353 2.18525 0
M  V30 1538 H 143.656 -0.451236 3.91609 0
M  V30 1539 H 144.944 -1.04432 4.97967 0
M  V30 1540 H 144.342 -4.05304 3.94646 0
M  V30 1541 H 142.899 -4.39366 4.81457 0
M  V30 1542 N 146.332 -1.57332 0.0918853 0
M  V30 1543 C 147.557 -1.98995 -0.584442 0
M  V30 1544 C 147.982 -0.970528 -1.61128 0
M  V30 1545 O 147.34 0.0613904 -1.81196 0
M  V30 1546 C 147.388 -3.39636 -1.21161 0
M  V30 1547 O 146.492 -3.40447 -2.32744 0
M  V30 1548 H 145.833 -0.647165 -0.148572 0
M  V30 1549 H 148.363 -2.03873 0.172347 0
M  V30 1550 H 148.373 -3.7726 -1.55367 0
M  V30 1551 H 147.048 -4.13356 -0.459313 0
M  V30 1552 H 145.625 -3.14614 -2.0018 0
M  V30 1553 N 147.81 0.181792 -1.56548 0
M  V30 1554 C 148.74 1.22765 -1.98623 0
M  V30 1555 C 149.721 1.46747 -0.860189 0
M  V30 1556 O 150.906 1.58259 -1.12551 0
M  V30 1557 C 148.036 2.56894 -2.33715 0
M  V30 1558 C 146.99 2.475 -3.49182 0
M  V30 1559 C 146.316 3.86023 -3.69986 0
M  V30 1560 C 147.616 1.98866 -4.82959 0
M  V30 1561 H 149.31 0.877942 -2.86239 0
M  V30 1562 H 146.856 0.42088 -1.37712 0
M  V30 1563 H 148.809 3.30253 -2.61746 0
M  V30 1564 H 147.533 2.93632 -1.42997 0
M  V30 1565 H 146.192 1.76596 -3.21262 0
M  V30 1566 H 145.84 4.20136 -2.76576 0
M  V30 1567 H 145.54 3.80609 -4.47672 0
M  V30 1568 H 147.064 4.60984 -4.00407 0
M  V30 1569 H 148.478 2.61992 -5.09934 0
M  V30 1570 H 146.875 2.04424 -5.64208 0
M  V30 1571 H 147.945 0.942465 -4.75653 0
M  V30 1572 N 149.288 1.51039 0.449983 0
M  V30 1573 C 150.536 1.62759 1.19808 0
M  V30 1574 C 150.857 0.339981 1.92013 0
M  V30 1575 O 150.127 -0.643606 1.85026 0
M  V30 1576 H 148.707 0.599811 0.445237 0
M  V30 1577 H 151.369 1.87914 0.517138 0
M  V30 1578 H 150.465 2.44911 1.93455 0
M  V30 1579 N 150.766 -0.704594 1.40972 0
M  V30 1580 C 152.012 -1.46675 1.40051 0
M  V30 1581 C 152.345 -1.94199 0.00641102 0
M  V30 1582 O 151.62 -1.68916 -0.964235 0
M  V30 1583 C 151.903 -2.68505 2.39952 0
M  V30 1584 C 151.756 -2.26805 3.88432 0
M  V30 1585 C 153.075 -3.70686 2.37233 0
M  V30 1586 H 150.194 -0.532015 0.510028 0
M  V30 1587 H 152.836 -0.803255 1.72185 0
M  V30 1588 H 150.986 -3.25114 2.1268 0
M  V30 1589 H 152.658 -1.75592 4.26574 0
M  V30 1590 H 150.901 -1.58685 4.03734 0
M  V30 1591 H 151.572 -3.14181 4.53866 0
M  V30 1592 H 154.048 -3.23731 2.61415 0
M  V30 1593 H 152.924 -4.53553 3.09162 0
M  V30 1594 H 153.185 -4.19754 1.38777 0
M  V30 1595 N 152.244 -1.26651 -0.937939 0
M  V30 1596 C 153.655 -1.1125 -1.49934 0
M  V30 1597 C 154.006 0.306077 -1.93798 0
M  V30 1598 O 153.131 1.19792 -1.80219 0
M  V30 1599 C 153.726 -2.01339 -2.72485 0
M  V30 1600 C 152.285 -1.90074 -3.24883 0
M  V30 1601 C 151.432 -1.94498 -1.97651 0
M  V30 1602 H 154.383 -1.39693 -0.753091 0
M  V30 1603 H 154.404 -1.56319 -3.46907 0
M  V30 1604 H 153.916 -3.04577 -2.40529 0
M  V30 1605 H 152.017 -0.897827 -3.61621 0
M  V30 1606 H 152.13 -2.75778 -3.9177 0
M  V30 1607 H 150.494 -1.38591 -2.13693 0
M  V30 1608 H 151.277 -2.99372 -1.68022 0
M  V30 1609 N 153.722 1.14298 -1.08507 0
M  V30 1610 C 155.133 1.66926 -0.836227 0
M  V30 1611 C 155.484 1.85576 0.63686 0
M  V30 1612 O 154.609 1.56767 1.49175 0
M  V30 1613 C 155.204 3.03219 -1.51142 0
M  V30 1614 C 153.763 3.52876 -1.30979 0
M  V30 1615 C 152.91 2.2833 -1.57356 0
M  V30 1616 H 155.861 0.983491 -1.24552 0
M  V30 1617 H 155.882 3.68726 -0.939211 0
M  V30 1618 H 155.394 2.89612 -2.58353 0
M  V30 1619 H 153.495 3.71703 -0.258429 0
M  V30 1620 H 153.608 4.33586 -2.03814 0
M  V30 1621 H 151.972 2.34454 -0.995164 0
M  V30 1622 H 152.755 2.17298 -2.65775 0
M  V30 1623 N 155.201 0.870884 1.31352 0
M  V30 1624 C 156.111 0.330783 2.32256 0
M  V30 1625 C 157.127 -0.559767 1.6475 0
M  V30 1626 O 158.303 -0.456263 1.96164 0
M  V30 1627 C 155.368 -0.458137 3.4366 0
M  V30 1628 C 154.429 0.460482 4.26823 0
M  V30 1629 C 153.662 -0.290881 5.32907 0
M  V30 1630 O 153.885 -1.51885 5.49806 0
M  V30 1631 O 152.819 0.351732 6.00871 0
M  V30 1632 H 156.645 1.16718 2.80376 0
M  V30 1633 H 154.23 0.634285 1.35267 0
M  V30 1634 H 156.112 -0.905343 4.1156 0
M  V30 1635 H 154.787 -1.27106 2.97701 0
M  V30 1636 H 153.694 0.956207 3.61673 0
M  V30 1637 H 155.027 1.23903 4.7635 0
M  V30 1638 N 156.679 -1.44442 0.630414 0
M  V30 1639 C 158.095 -1.56832 0.295973 0
M  V30 1640 C 158.295 -1.61806 -1.20088 0
M  V30 1641 O 157.351 -1.5607 -1.9849 0
M  V30 1642 C 158.664 -2.84031 0.987264 0
M  V30 1643 C 160.212 -2.97742 0.96534 0
M  V30 1644 C 160.687 -4.27743 1.63708 0
M  V30 1645 N 162.178 -4.34555 1.60364 0
M  V30 1646 C 162.913 -5.33862 2.09234 0
M  V30 1647 N 162.409 -6.39578 2.66292 0
M  V30 1648 N 164.202 -5.25366 1.99867 0
M  V30 1649 H 156.353 -1.39457 1.60205 0
M  V30 1650 H 158.616 -0.668237 0.672431 0
M  V30 1651 H 158.322 -2.86338 2.04215 0
M  V30 1652 H 158.196 -3.73534 0.524588 0
M  V30 1653 H 160.583 -2.94989 -0.0810639 0
M  V30 1654 H 160.664 -2.09589 1.4665 0
M  V30 1655 H 160.308 -4.31255 2.68293 0
M  V30 1656 H 160.238 -5.14752 1.11076 0
M  V30 1657 H 162.729 -3.58772 1.18705 0
M  V30 1658 H 163.042 -7.11637 3.01317 0
M  V30 1659 H 161.387 -6.40265 2.70343 0
M  V30 1660 H 164.578 -4.41688 1.55013 0
M  V30 1661 H 164.751 -6.02606 2.38265 0
M  V30 1662 N 158.157 -0.370918 -1.53173 0
M  V30 1663 C 159.406 0.218249 -2.00516 0
M  V30 1664 C 159.719 1.49429 -1.26215 0
M  V30 1665 O 160.925 2.16239 -1.64174 0
M  V30 1666 C 159.381 0.43948 -3.57207 0
M  V30 1667 C 158.989 -0.822244 -4.4039 0
M  V30 1668 C 160.733 0.986012 -4.1289 0
M  V30 1669 C 158.64 -0.570304 -5.88644 0
M  V30 1670 H 157.57 0.0853333 -0.749156 0
M  V30 1671 H 160.221 -0.490483 -1.76823 0
M  V30 1672 H 158.603 1.20961 -3.77074 0
M  V30 1673 H 159.777 -1.59557 -4.32294 0
M  V30 1674 H 158.092 -1.29238 -3.95836 0
M  V30 1675 H 160.689 1.18991 -5.21292 0
M  V30 1676 H 161.032 1.94972 -3.6782 0
M  V30 1677 H 161.565 0.27592 -3.96842 0
M  V30 1678 H 158.304 -1.50449 -6.38001 0
M  V30 1679 H 157.824 0.164427 -5.99575 0
M  V30 1680 H 159.503 -0.19784 -6.46697 0
M  V30 1681 N 159.635 1.57281 -0.100228 0
M  V30 1682 C 160.884 1.93713 0.561984 0
M  V30 1683 C 161.197 0.984492 1.69018 0
M  V30 1684 O 162.403 1.24273 2.41389 0
M  V30 1685 C 160.859 3.4421 1.05106 0
M  V30 1686 C 160.467 4.47975 -0.0476628 0
M  V30 1687 C 162.211 3.89595 1.68571 0
M  V30 1688 C 160.118 5.89631 0.457055 0
M  V30 1689 H 159.048 0.723082 0.2137 0
M  V30 1690 H 161.699 1.82644 -0.177057 0
M  V30 1691 H 160.081 3.50449 1.84395 0
M  V30 1692 H 161.255 4.53385 -0.823333 0
M  V30 1693 H 159.57 4.1223 -0.587816 0
M  V30 1694 H 162.167 4.92832 2.07414 0
M  V30 1695 H 162.51 3.28526 2.55688 0
M  V30 1696 H 163.043 3.86078 0.958562 0
M  V30 1697 H 159.782 6.54411 -0.377616 0
M  V30 1698 H 159.302 5.87681 1.19962 0
M  V30 1699 H 160.981 6.40363 0.92437 0
M  V30 1700 N 161.113 -0.173488 1.56642 0
M  V30 1701 C 162.343 -0.904781 1.85734 0
M  V30 1702 C 162.751 -1.76431 0.68328 0
M  V30 1703 O 162.094 -1.802 -0.356865 0
M  V30 1704 C 162.156 -1.83382 3.09211 0
M  V30 1705 C 161.82 -1.15411 4.42187 0
M  V30 1706 C 162.817 -0.520609 5.17287 0
M  V30 1707 C 160.502 -1.15151 4.88923 0
M  V30 1708 C 162.496 0.106412 6.37311 0
M  V30 1709 C 160.183 -0.520664 6.08878 0
M  V30 1710 C 161.181 0.107196 6.82916 0
M  V30 1711 O 160.869 0.728102 8.00596 0
M  V30 1712 H 160.601 -0.268408 0.62043 0
M  V30 1713 H 163.155 -0.179096 2.04618 0
M  V30 1714 H 161.385 -2.59976 2.86268 0
M  V30 1715 H 163.074 -2.43476 3.24768 0
M  V30 1716 H 163.84 -0.514606 4.82262 0
M  V30 1717 H 159.719 -1.62961 4.31236 0
M  V30 1718 H 163.263 0.597081 6.9504 0
M  V30 1719 H 159.16 -0.524242 6.43368 0
M  V30 1720 H 159.928 0.627138 8.16094 0
M  V30 1721 N 162.591 -1.51276 -0.441967 0
M  V30 1722 C 163.554 -1.7167 -1.51862 0
M  V30 1723 C 164.554 -0.586793 -1.49711 0
M  V30 1724 O 165.744 -0.854276 -1.51815 0
M  V30 1725 C 162.876 -1.76889 -2.91416 0
M  V30 1726 H 164.069 -2.67754 -1.35084 0
M  V30 1727 H 161.622 -1.41196 -0.670333 0
M  V30 1728 H 162.357 -0.826026 -3.13604 0
M  V30 1729 H 162.142 -2.59001 -2.94382 0
M  V30 1730 H 163.632 -1.94522 -3.69528 0
M  V30 1731 N 164.069 0.697108 -1.41344 0
M  V30 1732 C 165.017 1.83237 -1.43272 0
M  V30 1733 C 166.011 1.66522 -0.310947 0
M  V30 1734 O 167.217 1.73402 -0.482899 0
M  V30 1735 H 163.592 0.603802 -0.448249 0
M  V30 1736 H 165.563 1.78727 -2.38954 0
M  V30 1737 C 164.312 3.21245 -1.33029 0
M  V30 1738 H 163.635 3.34723 -2.18633 0
M  V30 1739 H 165.075 4.00763 -1.38439 0
M  V30 1740 C 163.534 3.36873 -0.0424635 0
M  V30 1741 O 164.064 3.91177 0.913421 0
M  V30 1742 N 162.27 2.90581 0.0331145 0
M  V30 1743 H 161.817 2.46577 -0.745506 0
M  V30 1744 H 161.775 3.01416 0.894199 0
M  V30 1745 N 165.547 1.27147 0.931209 0
M  V30 1746 C 166.958 1.12044 1.49342 0
M  V30 1747 C 167.309 -0.295795 1.93957 0
M  V30 1748 O 166.434 -1.18835 1.80852 0
M  V30 1749 C 167.029 2.02781 2.71414 0
M  V30 1750 C 165.588 1.91794 3.2387 0
M  V30 1751 C 164.735 1.95543 1.96617 0
M  V30 1752 H 167.686 1.40091 0.745672 0
M  V30 1753 H 167.707 1.58156 3.46074 0
M  V30 1754 H 167.219 3.05848 2.38911 0
M  V30 1755 H 165.32 0.916992 3.6114 0
M  V30 1756 H 165.433 2.77852 3.90302 0
M  V30 1757 H 163.797 1.39722 2.12955 0
M  V30 1758 H 164.58 3.00259 1.66432 0
M  V30 1759 N 167.025 -1.13721 1.09112 0
M  V30 1760 C 168.265 -1.86576 0.834801 0
M  V30 1761 C 168.629 -1.81435 -0.628122 0
M  V30 1762 O 169.83 -2.49497 -1.00024 0
M  V30 1763 C 168.101 -3.30872 1.35124 0
M  V30 1764 S 169.66 -4.21257 1.22832 0
M  V30 1765 H 166.478 -0.643666 0.302017 0
M  V30 1766 H 169.08 -1.37085 1.39385 0
M  V30 1767 H 167.784 -3.32166 2.41027 0
M  V30 1768 H 167.315 -3.85423 0.788185 0
M  V30 1769 H 169.33 -4.95884 0.177191 0
M  V30 1770 N 168.503 -0.877838 -1.30888 0
M  V30 1771 C 169.45 -0.337538 -2.28318 0
M  V30 1772 C 170.42 0.568346 -1.56074 0
M  V30 1773 O 171.605 0.498298 -1.84178 0
M  V30 1774 C 168.745 0.448142 -3.42178 0
M  V30 1775 C 167.858 -0.48615 -4.29256 0
M  V30 1776 C 166.993 0.314427 -5.30269 0
M  V30 1777 C 166.032 -0.615791 -6.08995 0
M  V30 1778 N 165.169 0.14902 -7.01942 0
M  V30 1779 H 170.009 -1.17356 -2.73919 0
M  V30 1780 H 167.546 -0.590094 -1.34745 0
M  V30 1781 H 169.504 0.919517 -4.06941 0
M  V30 1782 H 168.134 1.24879 -2.97666 0
M  V30 1783 H 167.186 -1.076 -3.64865 0
M  V30 1784 H 168.498 -1.19909 -4.84173 0
M  V30 1785 H 167.652 0.847969 -6.00745 0
M  V30 1786 H 166.391 1.06062 -4.76027 0
M  V30 1787 H 165.396 -1.16102 -5.37401 0
M  V30 1788 H 166.621 -1.36097 -6.65323 0
M  V30 1789 H 164.567 0.877884 -6.50099 0
M  V30 1790 H 164.484 -0.504433 -7.54315 0
M  V30 1791 H 165.752 0.663537 -7.76671 0
M  V30 1792 N 169.982 1.44106 -0.638065 0
M  V30 1793 C 170.914 2.28976 0.101205 0
M  V30 1794 C 171.927 1.4167 0.802088 0
M  V30 1795 O 173.116 1.65755 0.662375 0
M  V30 1796 C 170.216 3.18217 1.16581 0
M  V30 1797 C 169.389 4.33978 0.546066 0
M  V30 1798 C 168.448 5.04202 1.50554 0
M  V30 1799 O 167.474 5.59986 1.01999 0
M  V30 1800 N 168.676 5.06296 2.8398 0
M  V30 1801 H 171.441 2.93064 -0.627186 0
M  V30 1802 H 169.002 1.54629 -0.479731 0
M  V30 1803 H 170.994 3.62061 1.80815 0
M  V30 1804 H 169.564 2.55833 1.79634 0
M  V30 1805 H 168.784 3.93239 -0.275046 0
M  V30 1806 H 170.072 5.08675 0.112793 0
M  V30 1807 H 169.47 4.62319 3.26002 0
M  V30 1808 H 168.027 5.53907 3.43556 0
M  V30 1809 N 171.46 0.379036 1.52974 0
M  V30 1810 C 172.706 -0.206727 2.01744 0
M  V30 1811 C 173.039 -1.47314 1.26539 0
M  V30 1812 O 172.314 -1.91084 0.362903 0
M  V30 1813 C 172.597 -0.485066 3.56818 0
M  V30 1814 C 172.45 0.795919 4.42702 0
M  V30 1815 C 173.769 -1.28003 4.21074 0
M  V30 1816 H 170.888 -0.0736607 0.73331 0
M  V30 1817 H 173.53 0.506581 1.83122 0
M  V30 1818 H 171.68 -1.09272 3.72816 0
M  V30 1819 H 173.352 1.43307 4.38476 0
M  V30 1820 H 171.595 1.41344 4.10127 0
M  V30 1821 H 172.266 0.555947 5.49193 0
M  V30 1822 H 174.742 -0.765867 4.08991 0
M  V30 1823 H 173.618 -1.44352 5.29579 0
M  V30 1824 H 173.879 -2.29236 3.78026 0
M  V30 1825 N 172.938 -1.57226 0.108567 0
M  V30 1826 C 174.163 -1.99604 -0.563303 0
M  V30 1827 C 174.588 -0.987563 -1.6009 0
M  V30 1828 O 173.946 0.0421687 -1.81251 0
M  V30 1829 C 173.994 -3.40902 -1.17552 0
M  V30 1830 O 173.098 -3.42896 -2.2912 0
M  V30 1831 H 172.439 -0.648704 -0.1417 0
M  V30 1832 H 174.969 -2.03679 0.193961 0
M  V30 1833 H 174.979 -3.78886 -1.51357 0
M  V30 1834 H 173.654 -4.1382 -0.415445 0
M  V30 1835 H 172.231 -3.1672 -1.96832 0
M  V30 1836 N 174.416 0.165178 -1.56732 0
M  V30 1837 C 175.348 1.22911 -1.93457 0
M  V30 1838 C 176.361 1.40152 -0.828333 0
M  V30 1839 O 177.55 1.40046 -1.10677 0
M  V30 1840 C 174.65 2.59686 -2.17753 0
M  V30 1841 C 173.823 2.63663 -3.48999 0
M  V30 1842 C 172.882 3.81845 -3.62051 0
M  V30 1843 O 171.908 3.67559 -4.34613 0
M  V30 1844 N 173.11 4.98557 -2.97357 0
M  V30 1845 H 175.875 0.917118 -2.85323 0
M  V30 1846 H 173.436 0.354895 -1.57962 0
M  V30 1847 H 175.428 3.37225 -2.23743 0
M  V30 1848 H 173.998 2.83251 -1.32242 0
M  V30 1849 H 173.218 1.72173 -3.54612 0
M  V30 1850 H 174.506 2.63336 -4.35352 0
M  V30 1851 H 173.904 5.13065 -2.38287 0
M  V30 1852 H 172.461 5.73936 -3.08934 0
M  V30 1853 N 175.894 1.51508 0.433938 0
M  V30 1854 C 177.143 1.63578 1.18005 0
M  V30 1855 C 177.456 0.359514 1.92268 0
M  V30 1856 O 178.662 0.359632 2.69108 0
M  V30 1857 C 177.118 2.88901 2.14626 0
M  V30 1858 C 176.726 4.23544 1.45995 0
M  V30 1859 C 178.47 3.10328 2.89649 0
M  V30 1860 C 176.377 5.40014 2.4112 0
M  V30 1861 H 175.307 0.609277 0.444182 0
M  V30 1862 H 177.958 1.77978 0.446773 0
M  V30 1863 H 176.34 2.68142 2.91403 0
M  V30 1864 H 177.514 4.54696 0.747532 0
M  V30 1865 H 175.829 4.08021 0.831115 0
M  V30 1866 H 178.426 3.94518 3.60915 0
M  V30 1867 H 178.769 2.23544 3.51189 0
M  V30 1868 H 179.302 3.31443 2.19978 0
M  V30 1869 H 176.041 6.29068 1.84264 0
M  V30 1870 H 175.561 5.13233 3.10406 0
M  V30 1871 H 177.24 5.72099 3.02177 0
M  V30 1872 N 177.372 -0.689602 1.41712 0
M  V30 1873 C 178.319 -1.80345 1.44029 0
M  V30 1874 C 179.289 -1.63478 0.293948 0
M  V30 1875 O 180.474 -1.84244 0.495869 0
M  V30 1876 C 177.614 -3.18272 1.33405 0
M  V30 1877 C 176.727 -3.46529 2.57956 0
M  V30 1878 C 175.862 -4.74103 2.39582 0
M  V30 1879 C 174.901 -4.95347 3.5958 0
M  V30 1880 N 174.038 -6.14151 3.40239 0
M  V30 1881 H 178.878 -1.77698 2.39222 0
M  V30 1882 H 176.415 -0.867688 1.18784 0
M  V30 1883 H 178.373 -3.97956 1.25246 0
M  V30 1884 H 177.003 -3.2008 0.418164 0
M  V30 1885 H 176.055 -2.61207 2.76542 0
M  V30 1886 H 177.367 -3.58126 3.47199 0
M  V30 1887 H 176.521 -5.61853 2.28924 0
M  V30 1888 H 175.26 -4.64763 1.47805 0
M  V30 1889 H 174.265 -4.06044 3.70686 0
M  V30 1890 H 175.49 -5.06542 4.52318 0
M  V30 1891 H 173.436 -6.06013 2.51167 0
M  V30 1892 H 173.353 -6.26543 4.23061 0
M  V30 1893 H 174.621 -7.04619 3.33365 0
M  V30 1894 N 178.85 -1.27639 -0.924453 0
M  V30 1895 C 180.08 -1.16819 -1.70402 0
M  V30 1896 C 180.488 0.277191 -1.87158 0
M  V30 1897 O 179.831 1.20025 -1.39067 0
M  V30 1898 C 179.893 -1.78305 -3.12166 0
M  V30 1899 C 179.557 -3.27502 -3.18734 0
M  V30 1900 C 180.554 -4.2409 -3.00738 0
M  V30 1901 C 178.239 -3.68269 -3.4159 0
M  V30 1902 C 180.233 -5.59422 -3.05492 0
M  V30 1903 C 177.92 -5.0373 -3.45977 0
M  V30 1904 C 178.918 -5.99116 -3.27946 0
M  V30 1905 O 178.606 -7.32108 -3.32074 0
M  V30 1906 H 178.338 -0.406931 -0.539799 0
M  V30 1907 H 180.892 -1.69078 -1.16626 0
M  V30 1908 H 179.122 -1.20528 -3.67437 0
M  V30 1909 H 180.811 -1.62154 -3.72103 0
M  V30 1910 H 181.577 -3.93931 -2.82919 0
M  V30 1911 H 177.456 -2.94496 -3.54673 0
M  V30 1912 H 181 -6.33852 -2.91337 0
M  V30 1913 H 176.897 -5.33543 -3.63321 0
M  V30 1914 H 177.665 -7.40598 -3.48507 0
M  V30 1915 N 180.328 1.1314 -1.09713 0
M  V30 1916 C 181.291 2.16831 -0.742751 0
M  V30 1917 C 182.291 1.59159 0.229129 0
M  V30 1918 O 183.481 1.74199 0.00693237 0
M  V30 1919 C 180.613 3.40756 -0.0989168 0
M  V30 1920 H 181.806 2.49695 -1.66109 0
M  V30 1921 H 179.359 1.2802 -0.896699 0
M  V30 1922 H 180.094 3.13485 0.830514 0
M  V30 1923 H 179.879 3.83888 -0.798265 0
M  V30 1924 H 181.369 4.17386 0.133524 0
M  V30 1925 N 181.806 0.884767 1.30421 0
M  V30 1926 C 182.769 0.356277 2.26414 0
M  V30 1927 C 183.769 -0.501124 1.52792 0
M  V30 1928 O 184.959 -0.30831 1.7145 0
M  V30 1929 C 182.091 -0.492316 3.37326 0
M  V30 1930 H 183.284 1.20389 2.74675 0
M  V30 1931 H 180.837 0.661607 1.41607 0
M  V30 1932 H 181.572 -1.36052 2.94381 0
M  V30 1933 H 181.357 0.121832 3.91911 0
M  V30 1934 H 182.847 -0.853871 4.08777 0
M  V30 1935 N 183.284 -1.43765 0.645699 0
M  V30 1936 C 184.232 -2.32516 -0.0624849 0
M  V30 1937 C 185.226 -1.48183 -0.820855 0
M  V30 1938 O 186.432 -1.64439 -0.732106 0
M  V30 1939 H 182.807 -0.750989 -0.0389864 0
M  V30 1940 H 184.778 -2.89979 0.703892 0
M  V30 1941 C 183.527 -3.32389 -1.02044 0
M  V30 1942 H 182.85 -3.97301 -0.446312 0
M  V30 1943 H 184.29 -3.97138 -1.48517 0
M  V30 1944 C 182.749 -2.62416 -2.11281 0
M  V30 1945 O 183.279 -2.434 -3.19561 0
M  V30 1946 N 181.485 -2.21913 -1.87624 0
M  V30 1947 H 181.032 -2.37578 -0.995703 0
M  V30 1948 H 180.99 -1.75424 -2.6091 0
M  V30 1949 N 184.763 -0.387143 -1.52771 0
M  V30 1950 C 185.711 0.463953 -2.27926 0
M  V30 1951 C 186.705 1.06493 -1.31741 0
M  V30 1952 O 187.911 1.00565 -1.49287 0
M  V30 1953 H 184.286 0.16837 -0.732909 0
M  V30 1954 H 186.257 -0.19141 -2.97785 0
M  V30 1955 C 185.006 1.5803 -3.09713 0
M  V30 1956 H 184.329 1.12718 -3.83581 0
M  V30 1957 H 185.769 2.15008 -3.65442 0
M  V30 1958 C 184.228 2.53509 -2.2189 0
M  V30 1959 O 184.758 3.56863 -1.84422 0
M  V30 1960 N 182.964 2.23199 -1.86093 0
M  V30 1961 H 182.511 1.39185 -2.16761 0
M  V30 1962 H 182.469 2.87333 -1.27621 0
M  V30 1963 N 186.241 1.57166 -0.116904 0
M  V30 1964 C 187.489 1.94737 0.540533 0
M  V30 1965 C 187.81 1.00096 1.67349 0
M  V30 1966 O 187.08 0.0568854 1.95817 0
M  V30 1967 H 185.66 0.718981 0.202669 0
M  V30 1968 H 188.322 1.94017 -0.185353 0
M  V30 1969 H 187.418 2.97719 0.936483 0
M  V30 1970 N 187.719 -0.156864 1.56817 0
M  V30 1971 C 188.965 -0.872416 1.83076 0
M  V30 1972 C 189.298 -1.81261 0.697001 0
M  V30 1973 O 188.573 -1.92171 -0.30008 0
M  V30 1974 C 188.856 -1.65551 3.19789 0
M  V30 1975 C 188.709 -0.737467 4.43713 0
M  V30 1976 C 190.028 -2.62012 3.53606 0
M  V30 1977 H 187.147 -0.315715 0.665953 0
M  V30 1978 H 189.789 -0.138004 1.89498 0
M  V30 1979 H 187.939 -2.28159 3.14445 0
M  V30 1980 H 189.611 -0.123143 4.61136 0
M  V30 1981 H 187.854 -0.0464067 4.33775 0
M  V30 1982 H 188.525 -1.32122 5.35955 0
M  V30 1983 H 191.001 -2.09525 3.59497 0
M  V30 1984 H 189.877 -3.13861 4.50314 0
M  V30 1985 H 190.138 -3.42902 2.79053 0
M  V30 1986 N 189.197 -1.51736 -0.425897 0
M  V30 1987 C 190.129 -1.70083 -1.53638 0
M  V30 1988 C 191.142 -0.581349 -1.52066 0
M  V30 1989 O 192.331 -0.856017 -1.56635 0
M  V30 1990 C 189.431 -1.71078 -2.9255 0
M  V30 1991 C 188.604 -2.99795 -3.185 0
M  V30 1992 C 187.663 -2.92825 -4.37196 0
M  V30 1993 O 186.689 -3.66756 -4.35291 0
M  V30 1994 N 187.891 -2.0946 -5.41393 0
M  V30 1995 H 190.656 -2.65882 -1.383 0
M  V30 1996 H 188.217 -1.49765 -0.614988 0
M  V30 1997 H 190.209 -1.63969 -3.69995 0
M  V30 1998 H 188.779 -0.828242 -3.01428 0
M  V30 1999 H 187.999 -3.20684 -2.2925 0
M  V30 2000 H 189.287 -3.84977 -3.32671 0
M  V30 2001 H 188.685 -1.48792 -5.45781 0
M  V30 2002 H 187.242 -2.08221 -6.17647 0
M  V30 2003 N 190.675 0.682077 -1.42076 0
M  V30 2004 C 191.608 1.80666 -1.3941 0
M  V30 2005 C 192.586 1.60518 -0.25939 0
M  V30 2006 O 193.77 1.83088 -0.448456 0
M  V30 2007 C 190.897 3.17556 -1.17796 0
M  V30 2008 C 189.943 3.56468 -2.34164 0
M  V30 2009 S 190.776 3.59729 -3.96681 0
M  V30 2010 C 191.932 4.99323 -3.77395 0
M  V30 2011 H 192.165 1.82652 -2.34575 0
M  V30 2012 H 189.698 0.852062 -1.2876 0
M  V30 2013 H 191.656 3.96575 -1.06012 0
M  V30 2014 H 190.317 3.13164 -0.242279 0
M  V30 2015 H 189.51 4.5595 -2.1477 0
M  V30 2016 H 189.112 2.84792 -2.42425 0
M  V30 2017 H 191.404 5.87202 -3.37935 0
M  V30 2018 H 192.347 5.23763 -4.76527 0
M  V30 2019 H 192.755 4.71498 -3.10403 0
M  V30 2020 N 192.153 1.28127 0.917671 0
M  V30 2021 C 193.086 1.06039 2.02067 0
M  V30 2022 C 194.064 -0.0223285 1.62585 0
M  V30 2023 O 195.248 0.124823 1.88086 0
M  V30 2024 C 192.375 0.610596 3.33151 0
M  V30 2025 C 191.421 1.68937 3.91615 0
M  V30 2026 S 192.254 3.28437 4.22953 0
M  V30 2027 C 193.41 2.85283 5.57103 0
M  V30 2028 H 193.643 1.99425 2.20493 0
M  V30 2029 H 191.176 1.12071 1.06205 0
M  V30 2030 H 193.134 0.357778 4.08938 0
M  V30 2031 H 191.795 -0.303364 3.12632 0
M  V30 2032 H 190.988 1.32619 4.86239 0
M  V30 2033 H 190.59 1.89478 3.2245 0
M  V30 2034 H 192.882 2.3121 6.36827 0
M  V30 2035 H 193.825 3.7869 5.98331 0
M  V30 2036 H 194.233 2.24118 5.18104 0
M  V30 2037 N 193.631 -1.12557 1.10312 0
M  V30 2038 C 194.859 -1.87864 0.866873 0
M  V30 2039 C 195.274 -1.79588 -0.582557 0
M  V30 2040 O 194.631 -1.16887 -1.40156 0
M  V30 2041 C 194.682 -3.37125 1.30496 0
M  V30 2042 O 194.403 -3.45201 2.69755 0
M  V30 2043 C 195.904 -4.29373 1.10243 0
M  V30 2044 H 193.124 -0.594452 0.311236 0
M  V30 2045 H 195.668 -1.42429 1.46745 0
M  V30 2046 H 193.823 -3.80109 0.748081 0
M  V30 2047 H 194.237 -4.38056 2.88457 0
M  V30 2048 H 195.711 -5.32394 1.45811 0
M  V30 2049 H 196.188 -4.39181 0.0409492 0
M  V30 2050 H 196.794 -3.92169 1.64571 0
M  V30 2051 N 195.109 -0.891671 -1.2995 0
M  V30 2052 C 196.356 -0.513501 -1.95881 0
M  V30 2053 C 196.684 0.938655 -1.70351 0
M  V30 2054 O 195.939 1.67936 -1.00478 0
M  V30 2055 C 196.238 -0.742868 -3.49594 0
M  V30 2056 C 195.904 -2.17114 -3.95186 0
M  V30 2057 C 194.566 -2.56169 -4.07346 0
M  V30 2058 C 196.918 -3.10162 -4.18866 0
M  V30 2059 C 194.246 -3.87469 -4.4055 0
M  V30 2060 C 196.598 -4.41001 -4.53542 0
M  V30 2061 C 195.262 -4.79941 -4.63911 0
M  V30 2062 H 194.532 -0.187903 -0.71678 0
M  V30 2063 H 197.179 -1.1288 -1.54694 0
M  V30 2064 H 195.484 -0.044586 -3.91775 0
M  V30 2065 H 197.181 -0.429767 -3.9869 0
M  V30 2066 H 193.771 -1.85801 -3.86233 0
M  V30 2067 H 197.955 -2.81206 -4.08946 0
M  V30 2068 H 193.211 -4.17371 -4.46779 0
M  V30 2069 H 197.385 -5.13133 -4.70815 0
M  V30 2070 H 195.012 -5.81719 -4.89395 0
M  V30 2071 N 196.587 1.43421 -0.653314 0
M  V30 2072 C 197.864 1.95361 -0.0966581 0
M  V30 2073 C 198.244 1.59461 1.38331 0
M  V30 2074 O 197.592 0.879777 2.10884 0
M  V30 2075 C 197.802 3.47311 -0.342988 0
M  V30 2076 C 199.15 4.23875 -0.24798 0
M  V30 2077 O 200.174 3.55133 -0.275553 0
M  V30 2078 O 199.033 5.4623 -0.171771 0
M  V30 2079 H 196.127 0.826945 0.00956291 0
M  V30 2080 H 198.673 1.5336 -0.726558 0
M  V30 2081 H 197.445 3.66569 -1.36906 0
M  V30 2082 H 197.068 3.9631 0.319975 0
M  V30 2083 N 198.065 0.39524 1.52563 0
M  V30 2084 C 199.29 -0.187456 2.06551 0
M  V30 2085 C 199.715 -1.39249 1.26457 0
M  V30 2086 O 199.073 -1.78947 0.291151 0
M  V30 2087 C 199.121 -0.529985 3.56684 0
M  V30 2088 O 198.225 -1.62307 3.79118 0
M  V30 2089 H 197.566 -0.0202537 0.663691 0
M  V30 2090 H 200.096 0.564426 1.96661 0
M  V30 2091 H 200.106 -0.792598 4.00227 0
M  V30 2092 H 198.781 0.350987 4.14416 0
M  V30 2093 H 197.358 -1.3537 3.47461 0
M  V30 2094 N 199.544 -1.57102 0.125237 0
M  V30 2095 C 200.454 -2.19191 -0.8362 0
M  V30 2096 C 201.47 -1.16985 -1.28805 0
M  V30 2097 O 202.646 -1.49479 -1.34974 0
M  V30 2098 C 199.711 -2.78407 -2.06617 0
M  V30 2099 C 198.772 -3.9567 -1.66565 0
M  V30 2100 C 198.005 -4.52052 -2.83698 0
M  V30 2101 O 198.228 -4.07326 -3.99302 0
M  V30 2102 O 197.162 -5.42645 -2.60423 0
M  V30 2103 H 200.988 -3.01816 -0.337776 0
M  V30 2104 H 198.573 -1.4906 -0.100695 0
M  V30 2105 H 200.455 -3.16129 -2.7864 0
M  V30 2106 H 199.13 -1.9881 -2.55453 0
M  V30 2107 H 198.037 -3.62705 -0.916296 0
M  V30 2108 H 199.37 -4.76722 -1.22464 0
M  V30 2109 N 201.022 0.148545 -1.56898 0
M  V30 2110 C 202.268 0.862694 -1.83536 0
M  V30 2111 C 202.601 1.80889 -0.706604 0
M  V30 2112 O 201.876 1.92328 0.289885 0
M  V30 2113 C 202.159 1.63853 -3.20662 0
M  V30 2114 C 202.012 0.713925 -4.44098 0
M  V30 2115 C 203.331 2.60133 -3.54991 0
M  V30 2116 H 200.45 0.312179 -0.667618 0
M  V30 2117 H 203.092 0.127953 -1.89569 0
M  V30 2118 H 201.242 2.26489 -3.1565 0
M  V30 2119 H 202.914 0.098686 -4.61194 0
M  V30 2120 H 201.157 0.0234019 -4.33794 0
M  V30 2121 H 201.828 1.29278 -5.36648 0
M  V30 2122 H 204.304 2.07616 -3.60603 0
M  V30 2123 H 203.18 3.11468 -4.51972 0
M  V30 2124 H 203.441 3.41417 -2.80868 0
M  V30 2125 N 202.5 1.5196 0.417844 0
M  V30 2126 C 203.41 1.77554 1.53336 0
M  V30 2127 C 204.426 0.660655 1.6097 0
M  V30 2128 O 205.602 0.945099 1.77848 0
M  V30 2129 C 202.667 1.91291 2.89152 0
M  V30 2130 C 201.728 3.15183 2.91475 0
M  V30 2131 C 200.961 3.28256 4.20813 0
M  V30 2132 O 201.184 2.46798 5.14244 0
M  V30 2133 O 200.118 4.21356 4.29817 0
M  V30 2134 H 203.944 2.7222 1.34647 0
M  V30 2135 H 201.529 1.36698 0.602828 0
M  V30 2136 H 203.411 2.02199 3.69721 0
M  V30 2137 H 202.086 0.998129 3.07927 0
M  V30 2138 H 200.993 3.09739 2.09791 0
M  V30 2139 H 202.326 4.06414 2.77648 0
M  V30 2140 N 203.978 -0.674533 1.42435 0
M  V30 2141 C 204.908 -1.80009 1.48724 0
M  V30 2142 C 205.889 -1.6659 0.343793 0
M  V30 2143 O 207.074 -1.86007 0.558137 0
M  V30 2144 C 204.204 -3.18306 1.38919 0
M  V30 2145 C 203.158 -3.46461 2.51294 0
M  V30 2146 C 202.484 -4.84335 2.26547 0
M  V30 2147 C 203.784 -3.43328 3.93603 0
M  V30 2148 H 205.478 -1.75004 2.42928 0
M  V30 2149 H 203.024 -0.840533 1.16923 0
M  V30 2150 H 204.977 -3.9678 1.41927 0
M  V30 2151 H 203.701 -3.2399 0.412094 0
M  V30 2152 H 202.36 -2.70348 2.47604 0
M  V30 2153 H 202.008 -4.86669 1.2713 0
M  V30 2154 H 201.708 -5.04136 3.01861 0
M  V30 2155 H 203.232 -5.65094 2.31304 0
M  V30 2156 H 204.646 -4.11772 3.98894 0
M  V30 2157 H 203.043 -3.74664 4.68771 0
M  V30 2158 H 204.113 -2.41897 4.20255 0
M  V30 2159 N 205.456 -1.28612 -0.910864 0
M  V30 2160 C 206.389 -1.07109 -2.01502 0
M  V30 2161 C 207.367 0.013706 -1.62594 0
M  V30 2162 O 208.551 -0.134796 -1.88017 0
M  V30 2163 C 205.678 -0.628255 -3.32822 0
M  V30 2164 C 204.724 -1.71012 -3.90714 0
M  V30 2165 S 205.557 -3.30676 -4.21205 0
M  V30 2166 C 206.713 -2.88234 -5.55583 0
M  V30 2167 H 206.946 -2.00591 -2.19432 0
M  V30 2168 H 204.479 -1.12633 -1.05609 0
M  V30 2169 H 206.437 -0.37946 -4.08742 0
M  V30 2170 H 205.098 0.28678 -3.12788 0
M  V30 2171 H 204.291 -1.35195 -4.85529 0
M  V30 2172 H 203.893 -1.91186 -3.21441 0
M  V30 2173 H 206.185 -2.34584 -6.35591 0
M  V30 2174 H 207.128 -3.81857 -5.96314 0
M  V30 2175 H 207.536 -2.26862 -5.16908 0
M  V30 2176 N 206.934 1.1197 -1.10907 0
M  V30 2177 C 207.881 2.17846 -0.762345 0
M  V30 2178 C 208.851 1.63995 0.263599 0
M  V30 2179 O 210.036 1.90273 0.141773 0
M  V30 2180 C 207.176 3.44487 -0.205651 0
M  V30 2181 C 206.289 4.12369 -1.28748 0
M  V30 2182 C 205.424 5.26674 -0.691919 0
M  V30 2183 C 204.463 5.86431 -1.75399 0
M  V30 2184 N 203.6 6.92142 -1.17833 0
M  V30 2185 H 208.44 2.46851 -1.6694 0
M  V30 2186 H 205.977 1.21188 -0.833776 0
M  V30 2187 H 207.935 4.16981 0.135037 0
M  V30 2188 H 206.565 3.15884 0.664613 0
M  V30 2189 H 205.617 3.38003 -1.74522 0
M  V30 2190 H 206.929 4.52844 -2.09125 0
M  V30 2191 H 206.083 6.05953 -0.300963 0
M  V30 2192 H 204.822 4.8749 0.143232 0
M  V30 2193 H 203.827 5.05835 -2.15432 0
M  V30 2194 H 205.052 6.27685 -2.59208 0
M  V30 2195 H 202.998 6.54985 -0.364725 0
M  V30 2196 H 202.915 7.31242 -1.91887 0
M  V30 2197 H 204.183 7.75237 -0.81408 0
M  V30 2198 N 208.412 0.89855 1.29475 0
M  V30 2199 C 209.658 0.524658 1.95896 0
M  V30 2200 C 209.991 -0.926468 1.70676 0
M  V30 2201 O 209.266 -1.65665 1.01908 0
M  V30 2202 C 209.549 0.81633 3.50725 0
M  V30 2203 C 209.402 2.31907 3.85408 0
M  V30 2204 C 210.721 0.302038 4.39062 0
M  V30 2205 H 207.84 0.19209 0.711527 0
M  V30 2206 H 210.482 1.12502 1.53112 0
M  V30 2207 H 208.632 0.305369 3.87298 0
M  V30 2208 H 210.304 2.89949 3.58786 0
M  V30 2209 H 208.547 2.78027 3.32992 0
M  V30 2210 H 209.218 2.47373 4.93468 0
M  V30 2211 H 211.694 0.739551 4.09475 0
M  V30 2212 H 210.57 0.535331 5.46283 0
M  V30 2213 H 210.831 -0.797216 4.34853 0
M  V30 2214 N 209.89 -1.43072 0.660911 0
M  V30 2215 C 210.853 -2.29194 -0.0166406 0
M  V30 2216 C 211.853 -1.42609 -0.742912 0
M  V30 2217 O 213.043 -1.64155 -0.583004 0
M  V30 2218 C 210.175 -3.24831 -1.0343 0
M  V30 2219 H 211.368 -2.90596 0.741208 0
M  V30 2220 H 208.921 -1.5048 0.422532 0
M  V30 2221 H 209.656 -2.68339 -1.82111 0
M  V30 2222 H 209.441 -3.88676 -0.517082 0
M  V30 2223 H 210.931 -3.89451 -1.50723 0
M  V30 2224 N 211.368 -0.403325 -1.52352 0
M  V30 2225 C 212.784 -0.0539281 -1.59509 0
M  V30 2226 C 212.984 1.43307 -1.41652 0
M  V30 2227 O 212.04 2.19924 -1.24056 0
M  V30 2228 C 213.353 -0.543654 -2.95745 0
M  V30 2229 C 214.901 -0.501125 -3.08962 0
M  V30 2230 C 215.376 -0.967267 -4.47669 0
M  V30 2231 N 216.867 -0.923849 -4.53893 0
M  V30 2232 C 217.602 -1.25578 -5.5948 0
M  V30 2233 N 217.098 -1.65889 -6.72646 0
M  V30 2234 N 218.891 -1.17613 -5.49658 0
M  V30 2235 H 211.042 -1.37123 -1.62206 0
M  V30 2236 H 213.305 -0.56294 -0.76276 0
M  V30 2237 H 213.011 -1.58275 -3.14073 0
M  V30 2238 H 212.885 0.0498042 -3.77167 0
M  V30 2239 H 215.272 0.528909 -2.90321 0
M  V30 2240 H 215.353 -1.13056 -2.2946 0
M  V30 2241 H 214.997 -1.9956 -4.67053 0
M  V30 2242 H 214.927 -0.314698 -5.25659 0
M  V30 2243 H 217.418 -0.627403 -3.72655 0
M  V30 2244 H 217.731 -1.89543 -7.49195 0
M  V30 2245 H 216.076 -1.69787 -6.73942 0
M  V30 2246 H 219.267 -0.860115 -4.6013 0
M  V30 2247 H 219.44 -1.43812 -6.3184 0
M  V30 2248 N 212.846 1.57033 -0.133567 0
M  V30 2249 C 213.809 2.14897 0.796995 0
M  V30 2250 C 214.809 1.0874 1.18458 0
M  V30 2251 O 215.999 1.34446 1.1077 0
M  V30 2252 C 213.131 2.70112 2.07973 0
M  V30 2253 H 214.324 2.98457 0.293873 0
M  V30 2254 H 211.877 1.55871 0.115787 0
M  V30 2255 H 212.612 1.9018 2.62682 0
M  V30 2256 H 212.397 3.47764 1.81115 0
M  V30 2257 H 213.887 3.14738 2.74462 0
M  V30 2258 N 214.325 -0.140222 1.56975 0
M  V30 2259 C 215.275 -1.17827 1.95194 0
M  V30 2260 C 216.259 -1.38195 0.824075 0
M  V30 2261 O 217.451 -1.39643 1.0876 0
M  V30 2262 C 214.58 -2.51024 2.34184 0
M  V30 2263 C 213.666 -2.3422 3.53556 0
M  V30 2264 N 214.057 -1.87185 4.69889 0
M  V30 2265 C 212.355 -2.64949 3.58773 0
M  V30 2266 C 213.056 -1.83586 5.5197 0
M  V30 2267 N 212.032 -2.2715 4.93866 0
M  V30 2268 H 215.834 -0.806817 2.82609 0
M  V30 2269 H 213.348 -0.348208 1.58623 0
M  V30 2270 H 215.345 -3.26074 2.59772 0
M  V30 2271 H 214.005 -2.88945 1.48124 0
M  V30 2272 H 215.016 -1.57048 4.93514 0
M  V30 2273 H 211.693 -3.067 2.8327 0
M  V30 2274 H 213.083 -1.48655 6.55249 0
M  V30 2275 N 215.803 -1.52179 -0.40978 0
M  V30 2276 C 217.214 -1.58377 -0.988615 0
M  V30 2277 C 217.565 -0.423879 -1.91566 0
M  V30 2278 O 216.69 0.455844 -2.11544 0
M  V30 2279 C 217.285 -2.87044 -1.79976 0
M  V30 2280 C 215.844 -2.95722 -2.32863 0
M  V30 2281 C 214.991 -2.53309 -1.12828 0
M  V30 2282 H 217.942 -1.57558 -0.190039 0
M  V30 2283 H 217.963 -2.7236 -2.65707 0
M  V30 2284 H 217.475 -3.71444 -1.12478 0
M  V30 2285 H 215.576 -2.15814 -3.03735 0
M  V30 2286 H 215.689 -3.99951 -2.63773 0
M  V30 2287 H 214.053 -2.07142 -1.48204 0
M  V30 2288 H 214.836 -3.40082 -0.46897 0
M  V30 2289 N 217.281 0.66697 -1.42791 0
M  V30 2290 C 218.228 1.7803 -1.4688 0
M  V30 2291 C 219.198 1.6299 -0.319919 0
M  V30 2292 O 220.383 1.83432 -0.525118 0
M  V30 2293 C 217.523 3.1611 -1.38451 0
M  V30 2294 C 216.636 3.42381 -2.63437 0
M  V30 2295 C 215.771 4.70232 -2.47094 0
M  V30 2296 C 214.81 4.89564 -3.67415 0
M  V30 2297 N 213.947 6.08661 -3.49966 0
M  V30 2298 H 218.787 1.7387 -2.42019 0
M  V30 2299 H 216.324 0.84868 -1.20149 0
M  V30 2300 H 218.282 3.95914 -1.31561 0
M  V30 2301 H 216.912 3.19374 -0.469033 0
M  V30 2302 H 215.964 2.56774 -2.80662 0
M  V30 2303 H 217.276 3.52557 -3.52853 0
M  V30 2304 H 216.43 5.5814 -2.37834 0
M  V30 2305 H 215.169 4.62353 -1.5518 0
M  V30 2306 H 214.174 4.00096 -3.77099 0
M  V30 2307 H 215.399 4.99282 -4.6032 0
M  V30 2308 H 213.345 6.0194 -2.60776 0
M  V30 2309 H 213.262 6.19733 -4.32975 0
M  V30 2310 H 214.53 6.99226 -3.44532 0
M  V30 2311 N 218.759 1.29093 0.90403 0
M  V30 2312 C 219.722 1.1386 1.98919 0
M  V30 2313 C 220.722 0.0753457 1.60623 0
M  V30 2314 O 221.912 0.321931 1.71199 0
M  V30 2315 C 219.044 0.740198 3.32767 0
M  V30 2316 H 220.237 2.10246 2.13861 0
M  V30 2317 H 217.79 1.12218 1.08797 0
M  V30 2318 H 218.525 -0.223997 3.23525 0
M  V30 2319 H 218.31 1.50838 3.61926 0
M  V30 2320 H 219.8 0.656546 4.12407 0
M  V30 2321 N 220.237 -1.11381 1.11499 0
M  V30 2322 C 221.184 -2.17439 0.773887 0
M  V30 2323 C 222.154 -1.64132 -0.254899 0
M  V30 2324 O 223.339 -1.90345 -0.13168 0
M  V30 2325 C 220.479 -3.44373 0.223917 0
M  V30 2326 C 219.592 -4.1168 1.30934 0
M  V30 2327 C 218.727 -5.263 0.71984 0
M  V30 2328 C 217.766 -5.85493 1.78507 0
M  V30 2329 N 216.903 -6.91507 1.21502 0
M  V30 2330 H 221.743 -2.45962 1.68246 0
M  V30 2331 H 219.28 -1.20744 0.840191 0
M  V30 2332 H 221.238 -4.17047 -0.112921 0
M  V30 2333 H 219.868 -3.16232 -0.647851 0
M  V30 2334 H 218.92 -3.37073 1.76312 0
M  V30 2335 H 220.232 -4.51729 2.11524 0
M  V30 2336 H 219.386 -6.05785 0.333094 0
M  V30 2337 H 218.125 -4.87559 -0.117377 0
M  V30 2338 H 217.13 -5.04686 2.18111 0
M  V30 2339 H 218.355 -6.26301 2.62533 0
M  V30 2340 H 216.301 -6.54783 0.399455 0
M  V30 2341 H 216.218 -7.30214 1.95763 0
M  V30 2342 H 217.486 -7.74795 0.855181 0
M  V30 2343 N 221.715 -0.905404 -1.28997 0
M  V30 2344 C 222.645 -0.404212 -2.29975 0
M  V30 2345 C 223.626 0.523784 -1.61835 0
M  V30 2346 O 224.811 0.433298 -1.89304 0
M  V30 2347 C 221.941 0.364042 -3.45387 0
M  V30 2348 C 220.895 -0.474048 -4.25367 0
M  V30 2349 C 220.221 0.422045 -5.33032 0
M  V30 2350 C 221.521 -1.72696 -4.92923 0
M  V30 2351 H 223.215 -1.24807 -2.72146 0
M  V30 2352 H 220.761 -0.601585 -1.30832 0
M  V30 2353 H 222.714 0.725447 -4.15109 0
M  V30 2354 H 221.438 1.24174 -3.02074 0
M  V30 2355 H 220.097 -0.81786 -3.57361 0
M  V30 2356 H 219.745 1.29804 -4.85963 0
M  V30 2357 H 219.445 -0.135057 -5.87445 0
M  V30 2358 H 220.969 0.779517 -6.05604 0
M  V30 2359 H 222.383 -1.43495 -5.55051 0
M  V30 2360 H 220.78 -2.22582 -5.57295 0
M  V30 2361 H 221.85 -2.45964 -4.17887 0
M  V30 2362 N 223.193 1.4272 -0.668489 0
M  V30 2363 C 224.439 2.01923 -0.188419 0
M  V30 2364 C 224.772 1.52704 1.19979 0
M  V30 2365 O 224.047 0.726566 1.8042 0
M  V30 2366 C 224.33 3.59451 -0.216085 0
M  V30 2367 C 224.183 4.18864 -1.6393 0
M  V30 2368 C 225.502 4.37903 0.439179 0
M  V30 2369 H 222.621 0.733674 -0.0699412 0
M  V30 2370 H 225.263 1.69822 -0.852076 0
M  V30 2371 H 223.413 3.86929 0.349012 0
M  V30 2372 H 225.085 4.02362 -2.25616 0
M  V30 2373 H 223.328 3.74933 -2.18193 0
M  V30 2374 H 223.999 5.27987 -1.61039 0
M  V30 2375 H 226.475 4.16079 -0.0417878 0
M  V30 2376 H 225.351 5.47519 0.389157 0
M  V30 2377 H 225.612 4.15303 1.51577 0
M  V30 2378 N 224.671 0.411399 1.52136 0
M  V30 2379 C 225.601 -0.404015 2.29978 0
M  V30 2380 C 226.582 -1.04412 1.34284 0
M  V30 2381 O 227.767 -1.0527 1.63192 0
M  V30 2382 C 224.897 -1.5197 3.12286 0
M  V30 2383 C 223.851 -1.00448 4.16046 0
M  V30 2384 C 223.177 -2.21393 4.86712 0
M  V30 2385 C 224.477 -0.0569336 5.22269 0
M  V30 2386 H 226.171 0.245529 2.98392 0
M  V30 2387 H 223.717 0.119525 1.43503 0
M  V30 2388 H 225.67 -2.09715 3.6551 0
M  V30 2389 H 224.394 -2.19716 2.41646 0
M  V30 2390 H 223.053 -0.449421 3.63835 0
M  V30 2391 H 222.701 -2.87699 4.12599 0
M  V30 2392 H 222.401 -1.87571 5.56858 0
M  V30 2393 H 223.925 -2.7974 5.4275 0
M  V30 2394 H 225.339 -0.54325 5.7072 0
M  V30 2395 H 223.736 0.192594 5.99791 0
M  V30 2396 H 224.806 0.887663 4.76706 0
M  V30 2397 N 226.149 -1.5696 0.141893 0
M  V30 2398 C 227.565 -1.58151 -0.21456 0
M  V30 2399 C 227.765 -1.1559 -1.65049 0
M  V30 2400 O 226.821 -0.853832 -2.37626 0
M  V30 2401 C 228.134 -3.00674 0.0395576 0
M  V30 2402 C 229.682 -3.1299 -0.0245529 0
M  V30 2403 C 230.157 -4.57554 0.202167 0
M  V30 2404 N 231.648 -4.62961 0.148919 0
M  V30 2405 C 232.383 -5.7262 0.298924 0
M  V30 2406 N 231.879 -6.90947 0.50637 0
M  V30 2407 N 233.672 -5.61601 0.236886 0
M  V30 2408 H 225.823 -1.8292 1.07953 0
M  V30 2409 H 228.086 -0.846425 0.42693 0
M  V30 2410 H 227.792 -3.36183 1.03315 0
M  V30 2411 H 227.666 -3.70981 -0.682143 0
M  V30 2412 H 230.053 -2.77326 -1.00869 0
M  V30 2413 H 230.134 -2.4518 0.729396 0
M  V30 2414 H 229.778 -4.93922 1.18338 0
M  V30 2415 H 229.708 -5.23484 -0.572044 0
M  V30 2416 H 232.199 -3.77899 -0.00697015 0
M  V30 2417 H 232.512 -7.7038 0.611076 0
M  V30 2418 H 230.857 -6.92878 0.542628 0
M  V30 2419 H 234.048 -4.68039 0.0756209 0
M  V30 2420 H 234.221 -6.47015 0.357227 0
M  V30 2421 N 227.627 0.131896 -1.57047 0
M  V30 2422 C 228.876 0.84044 -1.83356 0
M  V30 2423 C 229.189 1.81646 -0.725535 0
M  V30 2424 O 230.395 2.57025 -0.874659 0
M  V30 2425 C 228.851 1.54528 -3.25037 0
M  V30 2426 C 228.459 0.610902 -4.43815 0
M  V30 2427 C 230.203 2.23972 -3.60606 0
M  V30 2428 C 228.11 1.31823 -5.76521 0
M  V30 2429 H 227.04 0.317599 -0.683847 0
M  V30 2430 H 229.691 0.0931561 -1.83263 0
M  V30 2431 H 228.073 2.33873 -3.19561 0
M  V30 2432 H 229.247 -0.148407 -4.60561 0
M  V30 2433 H 227.562 0.0241016 -4.16393 0
M  V30 2434 H 230.159 2.77558 -4.57018 0
M  V30 2435 H 230.502 3.01173 -2.87403 0
M  V30 2436 H 231.035 1.51529 -3.6781 0
M  V30 2437 H 227.774 0.587771 -6.52859 0
M  V30 2438 H 227.294 2.04987 -5.63685 0
M  V30 2439 H 228.973 1.855 -6.19838 0
M  V30 2440 N 229.106 1.52395 0.401703 0
M  V30 2441 C 230.069 1.75636 1.47257 0
M  V30 2442 C 231.069 0.62628 1.48103 0
M  V30 2443 O 232.259 0.894227 1.49497 0
M  V30 2444 C 229.391 1.84553 2.86624 0
M  V30 2445 H 230.584 2.71241 1.27938 0
M  V30 2446 H 228.137 1.42923 0.632662 0
M  V30 2447 H 228.872 0.908882 3.11303 0
M  V30 2448 H 228.657 2.66715 2.87412 0
M  V30 2449 H 230.147 2.04251 3.64241 0
M  V30 2450 N 230.584 -0.659388 1.43143 0
M  V30 2451 C 231.812 -1.44723 1.47861 0
M  V30 2452 C 232.227 -1.88563 0.0945886 0
M  V30 2453 O 231.584 -1.59108 -0.893915 0
M  V30 2454 C 231.635 -2.68627 2.41913 0
M  V30 2455 O 231.356 -2.26623 3.74932 0
M  V30 2456 C 232.857 -3.62045 2.55809 0
M  V30 2457 H 230.077 -0.444801 0.502387 0
M  V30 2458 H 232.621 -0.808916 1.87821 0
M  V30 2459 H 230.776 -3.28613 2.05164 0
M  V30 2460 H 231.19 -3.06745 4.2545 0
M  V30 2461 H 232.664 -4.45666 3.25708 0
M  V30 2462 H 233.141 -4.08981 1.60099 0
M  V30 2463 H 233.747 -3.07944 2.93344 0
M  V30 2464 N 232.062 -1.29571 -0.897171 0
M  V30 2465 C 233.339 -1.08365 -1.62839 0
M  V30 2466 C 233.719 0.371331 -2.07808 0
M  V30 2467 O 233.067 1.3606 -1.83576 0
M  V30 2468 C 233.277 -2.0735 -2.80726 0
M  V30 2469 C 234.625 -2.38406 -3.51351 0
M  V30 2470 O 235.649 -2.05564 -2.90898 0
M  V30 2471 O 234.508 -2.9453 -4.60341 0
M  V30 2472 H 231.602 -0.415345 -0.715134 0
M  V30 2473 H 234.148 -1.40952 -0.945018 0
M  V30 2474 H 232.92 -3.05339 -2.44711 0
M  V30 2475 H 232.543 -1.75507 -3.56767 0
M  V30 2476 N 233.54 1.10788 -1.12088 0
M  V30 2477 C 234.817 1.79136 -0.785476 0
M  V30 2478 C 235.197 1.98246 0.725377 0
M  V30 2479 O 234.545 1.57258 1.65778 0
M  V30 2480 C 234.755 3.12375 -1.55636 0
M  V30 2481 C 236.103 3.8731 -1.74001 0
M  V30 2482 O 237.127 3.22085 -1.52117 0
M  V30 2483 O 235.986 5.04369 -2.10415 0
M  V30 2484 H 233.08 0.776226 -0.285311 0
M  V30 2485 H 235.626 1.1747 -1.2247 0
M  V30 2486 H 234.398 2.93863 -2.5838 0
M  V30 2487 H 234.021 3.81758 -1.11114 0
M  V30 2488 N 235.018 0.912232 1.28515 0
M  V30 2489 C 236.243 0.559774 1.99703 0
M  V30 2490 C 236.668 -0.851393 1.67729 0
M  V30 2491 O 236.026 -1.56875 0.908834 0
M  V30 2492 C 236.074 0.773874 3.52198 0
M  V30 2493 O 235.178 -0.167842 4.12058 0
M  V30 2494 H 234.519 0.21723 0.627461 0
M  V30 2495 H 237.049 1.22725 1.63706 0
M  V30 2496 H 237.059 0.683386 4.02236 0
M  V30 2497 H 235.734 1.80261 3.74805 0
M  V30 2498 H 234.311 -0.0287509 3.72889 0
M  V30 2499 N 236.496 -1.42363 0.676048 0
M  V30 2500 C 237.443 -2.308 -0.00150904 0
M  V30 2501 C 238.413 -1.46032 -0.791444 0
M  V30 2502 O 239.598 -1.74861 -0.76344 0
M  V30 2503 C 236.738 -3.31883 -0.945919 0
M  V30 2504 C 235.851 -4.31741 -0.149675 0
M  V30 2505 C 234.986 -5.19898 -1.08995 0
M  V30 2506 C 234.025 -6.11434 -0.285465 0
M  V30 2507 N 233.162 -6.92138 -1.17851 0
M  V30 2508 H 238.002 -2.88187 0.758455 0
M  V30 2509 H 235.539 -1.41952 0.38576 0
M  V30 2510 H 237.497 -3.89019 -1.50731 0
M  V30 2511 H 236.127 -2.76093 -1.6725 0
M  V30 2512 H 235.179 -3.76713 0.528359 0
M  V30 2513 H 236.491 -4.96534 0.474866 0
M  V30 2514 H 235.645 -5.81772 -1.72123 0
M  V30 2515 H 234.384 -4.55284 -1.74837 0
M  V30 2516 H 233.389 -5.48627 0.359018 0
M  V30 2517 H 234.614 -6.78097 0.368883 0
M  V30 2518 H 232.56 -6.30152 -1.82332 0
M  V30 2519 H 232.477 -7.53542 -0.609082 0
M  V30 2520 H 233.745 -7.58499 -1.79722 0
M  V30 2521 N 237.974 -0.419461 -1.51915 0
M  V30 2522 C 238.937 0.389116 -2.25873 0
M  V30 2523 C 239.937 0.964924 -1.28631 0
M  V30 2524 O 241.127 0.842179 -1.52489 0
M  V30 2525 C 238.259 1.54874 -3.03689 0
M  V30 2526 H 239.452 -0.258799 -2.98781 0
M  V30 2527 H 237.005 -0.172209 -1.55348 0
M  V30 2528 H 237.74 2.23323 -2.35154 0
M  V30 2529 H 237.525 1.14223 -3.75094 0
M  V30 2530 H 239.015 2.12046 -3.59759 0
M  V30 2531 N 239.452 1.56882 -0.150215 0
M  V30 2532 C 240.698 1.96518 0.500834 0
M  V30 2533 C 241.031 1.03527 1.64304 0
M  V30 2534 O 240.306 0.0782751 1.94342 0
M  V30 2535 C 240.589 3.45822 1.00395 0
M  V30 2536 C 240.442 4.49591 -0.136983 0
M  V30 2537 C 241.761 3.97704 1.88467 0
M  V30 2538 H 238.88 0.714535 0.18058 0
M  V30 2539 H 241.522 1.88577 -0.232091 0
M  V30 2540 H 239.672 3.5272 1.62851 0
M  V30 2541 H 241.344 4.5477 -0.77343 0
M  V30 2542 H 239.587 4.26441 -0.795652 0
M  V30 2543 H 240.258 5.51402 0.256815 0
M  V30 2544 H 242.734 3.93304 1.35834 0
M  V30 2545 H 241.61 5.0263 2.20578 0
M  V30 2546 H 241.871 3.40252 2.82279 0
M  V30 2547 N 240.93 -0.123565 1.57115 0
M  V30 2548 C 242.17 -0.838097 1.86428 0
M  V30 2549 C 242.534 -1.77266 0.737611 0
M  V30 2550 O 243.735 -2.52842 0.912389 0
M  V30 2551 C 242.006 -1.57219 3.20962 0
M  V30 2552 S 243.565 -2.32893 3.71896 0
M  V30 2553 H 240.383 -0.279811 0.653626 0
M  V30 2554 H 242.985 -0.0967034 1.95261 0
M  V30 2555 H 241.689 -0.877522 4.00909 0
M  V30 2556 H 241.22 -2.35405 3.15195 0
M  V30 2557 H 243.235 -3.5853 3.43032 0
M  V30 2558 N 242.408 -1.52605 -0.393616 0
M  V30 2559 C 243.824 -1.41753 -0.733357 0
M  V30 2560 C 244.024 -0.534293 -1.94287 0
M  V30 2561 O 243.08 -0.0059787 -2.52499 0
M  V30 2562 C 244.393 -2.84531 -0.972772 0
M  V30 2563 C 245.941 -2.93978 -1.07453 0
M  V30 2564 C 246.416 -4.37756 -1.3466 0
M  V30 2565 N 247.907 -4.4106 -1.41492 0
M  V30 2566 C 248.642 -5.49387 -1.642 0
M  V30 2567 N 248.138 -6.67806 -1.8441 0
M  V30 2568 N 249.931 -5.36923 -1.66342 0
M  V30 2569 H 242.082 -2.08555 0.402328 0
M  V30 2570 H 244.345 -0.940654 0.117789 0
M  V30 2571 H 244.051 -3.51353 -0.156204 0
M  V30 2572 H 243.925 -3.26508 -1.88871 0
M  V30 2573 H 246.312 -2.27326 -1.88167 0
M  V30 2574 H 246.393 -2.55435 -0.136605 0
M  V30 2575 H 246.037 -5.04972 -0.544581 0
M  V30 2576 H 245.967 -4.73848 -2.2973 0
M  V30 2577 H 248.458 -3.55705 -1.27601 0
M  V30 2578 H 248.771 -7.46141 -2.01231 0
M  V30 2579 H 247.116 -6.70843 -1.81644 0
M  V30 2580 H 250.307 -4.43381 -1.50102 0
M  V30 2581 H 250.48 -6.21416 -1.837 0
M  V30 2582 N 243.887 0.651787 -1.4349 0
M  V30 2583 C 244.817 1.77621 -1.51569 0
M  V30 2584 C 245.798 1.66022 -0.370253 0
M  V30 2585 O 246.983 1.85095 -0.587658 0
M  V30 2586 C 244.113 3.16056 -1.43966 0
M  V30 2587 C 243.067 3.4242 -2.56774 0
M  V30 2588 C 242.393 4.8067 -2.34223 0
M  V30 2589 C 243.693 3.37023 -3.99015 0
M  V30 2590 H 245.387 1.71117 -2.45681 0
M  V30 2591 H 242.933 0.821825 -1.18246 0
M  V30 2592 H 244.886 3.94472 -1.48221 0
M  V30 2593 H 243.61 3.23293 -0.463586 0
M  V30 2594 H 242.269 2.66375 -2.51873 0
M  V30 2595 H 241.917 4.84585 -1.34856 0
M  V30 2596 H 241.617 4.9927 -3.09844 0
M  V30 2597 H 243.141 5.61342 -2.40265 0
M  V30 2598 H 244.555 4.05374 -4.05395 0
M  V30 2599 H 242.952 3.67159 -4.74673 0
M  V30 2600 H 244.022 2.3518 -4.2405 0
M  V30 2601 N 245.365 1.30045 0.890287 0
M  V30 2602 C 246.59 1.21598 1.68014 0
M  V30 2603 C 247.015 -0.218678 1.86825 0
M  V30 2604 O 246.373 -1.15756 1.39536 0
M  V30 2605 C 246.421 1.94434 3.03691 0
M  V30 2606 O 245.525 1.2678 3.92429 0
M  V30 2607 H 244.866 0.420856 0.513592 0
M  V30 2608 H 247.396 1.71775 1.11151 0
M  V30 2609 H 247.406 2.03251 3.5377 0
M  V30 2610 H 246.081 2.98777 2.89318 0
M  V30 2611 H 244.658 1.26282 3.50866 0
M  V30 2612 N 246.843 -1.10192 1.12674 0
M  V30 2613 C 248.089 -1.82475 0.884915 0
M  V30 2614 C 248.422 -1.85093 -0.58773 0
M  V30 2615 O 247.697 -1.3134 -1.43457 0
M  V30 2616 C 247.98 -3.29018 1.46353 0
M  V30 2617 C 247.833 -3.34718 3.00473 0
M  V30 2618 C 249.152 -4.25473 1.12519 0
M  V30 2619 H 246.271 -0.662492 0.322915 0
M  V30 2620 H 248.913 -1.2913 1.39375 0
M  V30 2621 H 247.063 -3.74576 1.03077 0
M  V30 2622 H 248.735 -2.97622 3.52447 0
M  V30 2623 H 246.978 -2.74541 3.35872 0
M  V30 2624 H 247.649 -4.37918 3.36053 0
M  V30 2625 H 250.125 -3.88161 1.499 0
M  V30 2626 H 249.001 -5.26365 1.55663 0
M  V30 2627 H 249.262 -4.42084 0.0377407 0
M  V30 2628 N 248.321 -0.919034 -1.28029 0
M  V30 2629 C 249.268 -0.410005 -2.27129 0
M  V30 2630 C 250.238 0.518405 -1.57803 0
M  V30 2631 O 251.423 0.439451 -1.8567 0
M  V30 2632 C 248.563 0.339054 -3.4343 0
M  V30 2633 C 247.676 -0.622468 -4.27492 0
M  V30 2634 C 246.811 0.145567 -5.31001 0
M  V30 2635 C 245.85 -0.809226 -6.06727 0
M  V30 2636 N 244.987 -0.0743728 -7.02061 0
M  V30 2637 H 249.827 -1.26011 -2.70047 0
M  V30 2638 H 247.364 -0.632663 -1.328 0
M  V30 2639 H 249.322 0.789586 -4.0966 0
M  V30 2640 H 247.952 1.15346 -3.01488 0
M  V30 2641 H 247.004 -1.19153 -3.61257 0
M  V30 2642 H 248.316 -1.35252 -4.80113 0
M  V30 2643 H 247.47 0.656417 -6.03139 0
M  V30 2644 H 246.209 0.908643 -4.79161 0
M  V30 2645 H 245.214 -1.3314 -5.33436 0
M  V30 2646 H 246.439 -1.57194 -6.60656 0
M  V30 2647 H 244.385 0.670616 -6.52563 0
M  V30 2648 H 244.302 -0.744157 -7.52329 0
M  V30 2649 H 245.57 0.416109 -7.78389 0
M  V30 2650 N 249.799 1.42003 -0.683588 0
M  V30 2651 C 251.046 2.01413 -0.209514 0
M  V30 2652 C 251.374 1.54088 1.1869 0
M  V30 2653 O 250.629 0.737591 1.81268 0
M  V30 2654 C 250.928 3.56827 -0.202357 0
M  V30 2655 C 250.594 4.23617 -1.54464 0
M  V30 2656 C 249.256 4.41577 -1.91215 0
M  V30 2657 C 251.608 4.61178 -2.42826 0
M  V30 2658 C 248.936 4.9437 -3.15935 0
M  V30 2659 C 251.288 5.15355 -3.66867 0
M  V30 2660 C 249.952 5.31528 -4.03776 0
M  V30 2661 H 249.222 0.737023 -0.0766668 0
M  V30 2662 H 251.869 1.70067 -0.880312 0
M  V30 2663 H 250.174 3.87892 0.551969 0
M  V30 2664 H 251.871 4.00588 0.181793 0
M  V30 2665 H 248.461 4.10004 -1.24877 0
M  V30 2666 H 252.645 4.46968 -2.15717 0
M  V30 2667 H 247.901 5.05076 -3.44541 0
M  V30 2668 H 252.075 5.43402 -4.35531 0
M  V30 2669 H 249.702 5.72199 -5.00492 0
M  V30 2670 N 251.277 0.427512 1.51691 0
M  V30 2671 C 252.525 -0.141948 2.01601 0
M  V30 2672 C 252.846 -1.44067 1.31414 0
M  V30 2673 O 252.116 -1.90763 0.445658 0
M  V30 2674 H 250.696 -0.0554468 0.744939 0
M  V30 2675 H 253.358 0.567968 1.86441 0
M  V30 2676 H 252.454 -0.324913 3.10404 0
M  V30 2677 N 252.755 -1.56801 0.158532 0
M  V30 2678 C 253.718 -2.16138 -0.762705 0
M  V30 2679 C 254.718 -1.1061 -1.16713 0
M  V30 2680 O 255.908 -1.36191 -1.08617 0
M  V30 2681 C 253.04 -2.73386 -2.03649 0
M  V30 2682 H 254.233 -2.98886 -0.246354 0
M  V30 2683 H 251.786 -1.56035 -0.0909744 0
M  V30 2684 H 252.521 -1.94335 -2.59623 0
M  V30 2685 H 252.306 -3.50601 -1.75559 0
M  V30 2686 H 253.796 -3.19065 -2.6942 0
M  V30 2687 N 254.233 0.115231 -1.57178 0
M  V30 2688 C 255.461 0.836437 -1.89239 0
M  V30 2689 C 255.876 1.73256 -0.750175 0
M  V30 2690 O 255.233 1.80357 0.278832 0
M  V30 2691 C 255.284 1.66671 -3.20785 0
M  V30 2692 O 255.005 0.806652 -4.3061 0
M  V30 2693 C 256.506 2.49274 -3.66575 0
M  V30 2694 H 253.726 0.240253 -0.626514 0
M  V30 2695 H 256.27 0.0984932 -2.04263 0
M  V30 2696 H 254.425 2.35737 -3.0742 0
M  V30 2697 H 254.839 1.37969 -5.06028 0
M  V30 2698 H 256.313 3.03055 -4.6137 0
M  V30 2699 H 256.79 3.26807 -2.93417 0
M  V30 2700 H 257.396 1.85443 -3.82741 0
M  V30 2701 N 255.711 1.52812 0.385517 0
M  V30 2702 C 256.641 1.80808 1.47752 0
M  V30 2703 C 257.622 0.660318 1.5676 0
M  V30 2704 O 258.807 0.908246 1.71652 0
M  V30 2705 C 255.937 1.98008 2.85324 0
M  V30 2706 C 254.891 3.13709 2.91154 0
M  V30 2707 C 254.217 3.16169 4.31209 0
M  V30 2708 C 255.517 4.52709 2.60483 0
M  V30 2709 H 257.211 2.72253 1.24573 0
M  V30 2710 H 254.757 1.31003 0.597839 0
M  V30 2711 H 256.71 2.16176 3.61726 0
M  V30 2712 H 255.434 1.03255 3.09848 0
M  V30 2713 H 254.093 2.95329 2.17201 0
M  V30 2714 H 253.741 2.19092 4.52778 0
M  V30 2715 H 253.441 3.93894 4.36029 0
M  V30 2716 H 254.965 3.36496 5.09512 0
M  V30 2717 H 256.379 4.71173 3.26602 0
M  V30 2718 H 254.776 5.32528 2.76648 0
M  V30 2719 H 255.846 4.59186 1.55809 0
M  V30 2720 N 257.189 -0.644168 1.43834 0
M  V30 2721 C 258.605 -0.960875 1.27434 0
M  V30 2722 C 258.805 -2.00499 0.200618 0
M  V30 2723 O 257.861 -2.49018 -0.417906 0
M  V30 2724 C 259.174 -1.43653 2.64167 0
M  V30 2725 C 260.722 -1.55271 2.71772 0
M  V30 2726 C 261.197 -2.06224 4.08944 0
M  V30 2727 N 262.688 -2.13513 4.11055 0
M  V30 2728 C 263.423 -2.54081 5.14033 0
M  V30 2729 N 262.919 -2.9388 6.27381 0
M  V30 2730 N 264.712 -2.54101 5.01387 0
M  V30 2731 H 256.863 0.0465779 2.12349 0
M  V30 2732 H 259.126 -0.0417638 0.94708 0
M  V30 2733 H 258.832 -0.743706 3.43747 0
M  V30 2734 H 258.706 -2.40993 2.90176 0
M  V30 2735 H 261.093 -2.23653 1.92519 0
M  V30 2736 H 261.174 -0.563395 2.49519 0
M  V30 2737 H 260.818 -1.38441 4.88668 0
M  V30 2738 H 260.748 -3.06003 4.28567 0
M  V30 2739 H 263.239 -1.85493 3.29242 0
M  V30 2740 H 263.552 -3.2361 7.01781 0
M  V30 2741 H 261.897 -2.91663 6.30839 0
M  V30 2742 H 265.088 -2.22391 4.11898 0
M  V30 2743 H 265.261 -2.85394 5.81768 0
M  V30 2744 N 258.668 -1.30515 -0.883378 0
M  V30 2745 C 259.896 -1.22359 -1.66841 0
M  V30 2746 C 260.311 0.213296 -1.87591 0
M  V30 2747 O 259.668 1.14075 -1.42454 0
M  V30 2748 C 259.719 -1.95011 -3.04389 0
M  V30 2749 O 259.44 -3.3309 -2.84575 0
M  V30 2750 C 260.941 -1.93532 -3.98824 0
M  V30 2751 H 258.161 -0.423371 -0.520575 0
M  V30 2752 H 260.705 -1.72167 -1.10357 0
M  V30 2753 H 258.86 -1.48997 -3.57601 0
M  V30 2754 H 259.274 -3.69907 -3.71846 0
M  V30 2755 H 260.748 -2.48902 -4.92699 0
M  V30 2756 H 261.225 -0.914627 -4.29571 0
M  V30 2757 H 261.831 -2.39364 -3.51547 0
M  V30 2758 N 260.146 1.09593 -1.13257 0
M  V30 2759 C 261.371 1.8604 -0.916732 0
M  V30 2760 C 261.796 1.80504 0.529146 0
M  V30 2761 O 261.154 1.18127 1.37534 0
M  V30 2762 C 261.202 3.32017 -1.40703 0
M  V30 2763 O 260.306 4.08141 -0.591153 0
M  V30 2764 H 259.647 0.576943 -0.328683 0
M  V30 2765 H 262.177 1.38405 -1.50682 0
M  V30 2766 H 262.187 3.82865 -1.4099 0
M  V30 2767 H 260.862 3.35361 -2.45979 0
M  V30 2768 H 259.439 3.67084 -0.656005 0
M  V30 2769 N 261.624 0.925811 1.2754 0
M  V30 2770 C 263.04 0.625767 1.46821 0
M  V30 2771 C 263.24 -0.825506 1.83814 0
M  V30 2772 O 262.296 -1.60356 1.95044 0
M  V30 2773 C 263.609 1.57402 2.56213 0
M  V30 2774 C 265.157 1.58204 2.70075 0
M  V30 2775 C 265.632 2.51721 3.82623 0
M  V30 2776 N 267.123 2.49917 3.89994 0
M  V30 2777 C 267.858 3.18968 4.76494 0
M  V30 2778 N 267.354 3.97391 5.67496 0
M  V30 2779 N 269.147 3.07996 4.70208 0
M  V30 2780 H 261.298 1.86409 1.01811 0
M  V30 2781 H 263.561 0.800213 0.508295 0
M  V30 2782 H 263.267 2.60925 2.35819 0
M  V30 2783 H 263.141 1.31428 3.53563 0
M  V30 2784 H 265.528 0.554124 2.89851 0
M  V30 2785 H 265.609 1.88226 1.73218 0
M  V30 2786 H 265.253 3.54622 3.63601 0
M  V30 2787 H 265.183 2.18996 4.78903 0
M  V30 2788 H 267.674 1.9296 3.24923 0
M  V30 2789 H 267.987 4.4707 6.30356 0
M  V30 2790 H 266.332 4.01495 5.67298 0
M  V30 2791 H 269.523 2.46223 3.9811 0
M  V30 2792 H 269.696 3.6208 5.37403 0
M  V30 2793 N 263.102 -1.41638 0.69111 0
M  V30 2794 C 264.032 -2.3347 0.037248 0
M  V30 2795 C 265.013 -1.51575 -0.771947 0
M  V30 2796 O 266.198 -1.80126 -0.72582 0
M  V30 2797 C 263.328 -3.35354 -0.903064 0
M  V30 2798 C 262.282 -4.27526 -0.201288 0
M  V30 2799 C 261.608 -5.19747 -1.25565 0
M  V30 2800 C 262.908 -5.13959 0.929689 0
M  V30 2801 H 264.602 -2.88397 0.804227 0
M  V30 2802 H 262.148 -1.38669 0.388189 0
M  V30 2803 H 264.101 -3.98519 -1.36969 0
M  V30 2804 H 262.825 -2.78767 -1.70166 0
M  V30 2805 H 261.484 -3.65779 0.245265 0
M  V30 2806 H 261.132 -4.59479 -2.04666 0
M  V30 2807 H 260.832 -5.8225 -0.791128 0
M  V30 2808 H 262.356 -5.85789 -1.72288 0
M  V30 2809 H 263.77 -5.70718 0.543546 0
M  V30 2810 H 262.167 -5.85379 1.32103 0
M  V30 2811 H 263.237 -4.51389 1.77133 0
M  V30 2812 N 264.58 -0.43555 -1.51462 0
M  V30 2813 C 265.51 0.367376 -2.30592 0
M  V30 2814 C 266.491 1.02263 -1.35928 0
M  V30 2815 O 267.676 1.02661 -1.64847 0
M  V30 2816 C 264.806 1.46983 -3.14664 0
M  V30 2817 C 263.76 0.938161 -4.17591 0
M  V30 2818 C 263.086 2.13622 -4.90173 0
M  V30 2819 C 264.386 -0.0261621 -5.22293 0
M  V30 2820 H 266.08 -0.292969 -2.97963 0
M  V30 2821 H 263.626 -0.14234 -1.43295 0
M  V30 2822 H 265.579 2.03873 -3.688 0
M  V30 2823 H 264.303 2.15843 -2.4511 0
M  V30 2824 H 262.962 0.391481 -3.64504 0
M  V30 2825 H 262.61 2.81098 -4.17124 0
M  V30 2826 H 262.31 1.78688 -5.59772 0
M  V30 2827 H 263.834 2.7107 -5.47132 0
M  V30 2828 H 265.248 0.452384 -5.71512 0
M  V30 2829 H 263.645 -0.287992 -5.99409 0
M  V30 2830 H 264.715 -0.963391 -4.75233 0
M  V30 2831 N 266.058 1.56714 -0.166846 0
M  V30 2832 C 266.988 2.20754 0.760913 0
M  V30 2833 C 267.969 1.16178 1.24244 0
M  V30 2834 O 269.154 1.44592 1.29641 0
M  V30 2835 C 266.284 2.84478 1.99223 0
M  V30 2836 C 265.238 3.95053 1.64672 0
M  V30 2837 C 264.564 4.45805 2.95232 0
M  V30 2838 C 265.864 5.14865 0.878155 0
M  V30 2839 H 267.558 2.98537 0.22713 0
M  V30 2840 H 265.104 1.43596 0.107805 0
M  V30 2841 H 267.057 3.27951 2.64624 0
M  V30 2842 H 265.781 2.04056 2.55007 0
M  V30 2843 H 264.44 3.52228 1.01641 0
M  V30 2844 H 264.088 3.62181 3.49047 0
M  V30 2845 H 263.788 5.204 2.7287 0
M  V30 2846 H 265.312 4.91962 3.6167 0
M  V30 2847 H 266.726 5.55059 1.43466 0
M  V30 2848 H 265.123 5.95348 0.753738 0
M  V30 2849 H 266.193 4.84735 -0.126377 0
M  V30 2850 N 267.536 -0.106894 1.57237 0
M  V30 2851 C 268.446 -1.14911 2.0453 0
M  V30 2852 C 269.462 -1.44592 0.96795 0
M  V30 2853 O 270.638 -1.55468 1.2803 0
M  V30 2854 C 267.703 -2.45272 2.45036 0
M  V30 2855 C 266.764 -2.22879 3.66911 0
M  V30 2856 C 265.997 -3.47024 4.05475 0
M  V30 2857 O 266.22 -4.54804 3.44252 0
M  V30 2858 O 265.154 -3.3731 4.98504 0
M  V30 2859 H 268.98 -0.777461 2.9358 0
M  V30 2860 H 266.565 -0.318563 1.45964 0
M  V30 2861 H 268.447 -3.22055 2.71769 0
M  V30 2862 H 267.122 -2.81886 1.59129 0
M  V30 2863 H 266.029 -1.43915 3.45311 0
M  V30 2864 H 267.362 -1.91163 4.53561 0
M  V30 2865 N 269.014 -1.53014 -0.377408 0
M  V30 2866 C 270.43 -1.42523 -0.718281 0
M  V30 2867 C 270.63 -0.55487 -1.9371 0
M  V30 2868 O 269.686 -0.0327593 -2.52479 0
M  V30 2869 C 270.999 -2.85546 -0.942539 0
M  V30 2870 C 272.547 -2.95101 -1.04329 0
M  V30 2871 C 273.022 -4.3916 -1.3001 0
M  V30 2872 N 274.513 -4.42536 -1.36806 0
M  V30 2873 C 275.248 -5.51097 -1.58364 0
M  V30 2874 N 274.744 -6.69724 -1.77317 0
M  V30 2875 N 276.537 -5.38657 -1.60638 0
M  V30 2876 H 268.688 -2.08116 0.424426 0
M  V30 2877 H 270.951 -0.939352 0.127759 0
M  V30 2878 H 270.657 -3.51499 -0.118929 0
M  V30 2879 H 270.531 -3.28493 -1.85397 0
M  V30 2880 H 272.918 -2.29309 -1.85745 0
M  V30 2881 H 272.999 -2.55566 -0.109505 0
M  V30 2882 H 272.643 -5.05521 -0.490991 0
M  V30 2883 H 272.573 -4.76258 -2.24691 0
M  V30 2884 H 275.064 -3.57039 -1.23821 0
M  V30 2885 H 275.377 -7.48233 -1.93306 0
M  V30 2886 H 273.722 -6.72732 -1.74518 0
M  V30 2887 H 276.913 -4.44948 -1.45391 0
M  V30 2888 H 277.086 -6.2333 -1.77098 0
M  V30 2889 N 270.492 0.636531 -1.44174 0
M  V30 2890 C 271.455 1.73063 -1.50273 0
M  V30 2891 C 272.455 1.56113 -0.385397 0
M  V30 2892 O 273.645 1.61707 -0.64781 0
M  V30 2893 C 270.777 3.12096 -1.37145 0
M  V30 2894 H 271.97 1.69031 -2.47727 0
M  V30 2895 H 269.523 0.849706 -1.31186 0
M  V30 2896 H 270.258 3.21728 -0.407636 0
M  V30 2897 H 270.043 3.25805 -2.18159 0
M  V30 2898 H 271.533 3.91846 -1.44382 0
M  V30 2899 N 271.97 1.30982 0.876444 0
M  V30 2900 C 272.917 1.18085 1.98304 0
M  V30 2901 C 273.887 0.0682263 1.6596 0
M  V30 2902 O 275.072 0.239937 1.89285 0
M  V30 2903 C 272.212 0.887475 3.33493 0
M  V30 2904 C 271.325 2.08281 3.78475 0
M  V30 2905 C 270.46 1.72678 5.0235 0
M  V30 2906 C 269.499 2.88657 5.39762 0
M  V30 2907 N 268.636 2.53292 6.54819 0
M  V30 2908 H 273.476 2.1275 2.08666 0
M  V30 2909 H 271.013 1.05839 1.02159 0
M  V30 2910 H 272.971 0.697961 4.1132 0
M  V30 2911 H 271.601 -0.022315 3.22792 0
M  V30 2912 H 270.653 2.3833 2.96484 0
M  V30 2913 H 271.965 2.95108 4.02135 0
M  V30 2914 H 271.119 1.50151 5.87826 0
M  V30 2915 H 269.858 0.830327 4.8058 0
M  V30 2916 H 268.863 3.1184 4.52809 0
M  V30 2917 H 270.088 3.79002 5.63502 0
M  V30 2918 H 268.034 1.66163 6.34607 0
M  V30 2919 H 267.951 3.3365 6.7839 0
M  V30 2920 H 269.219 2.34143 7.43503 0
M  V30 2921 N 273.449 -1.08991 1.13837 0
M  V30 2922 C 274.359 -2.19301 0.833333 0
M  V30 2923 C 275.375 -1.73026 -0.183847 0
M  V30 2924 O 276.551 -2.01395 -0.0138092 0
M  V30 2925 C 273.616 -3.45323 0.308651 0
M  V30 2926 C 272.677 -4.06255 1.38764 0
M  V30 2927 C 271.91 -5.26262 0.887896 0
M  V30 2928 O 272.133 -5.69747 -0.27287 0
M  V30 2929 O 271.067 -5.78435 1.66421 0
M  V30 2930 H 274.893 -2.47854 1.75506 0
M  V30 2931 H 272.478 -1.18012 0.916166 0
M  V30 2932 H 274.36 -4.21394 0.0216739 0
M  V30 2933 H 273.035 -3.18362 -0.585431 0
M  V30 2934 H 271.942 -3.318 1.72799 0
M  V30 2935 H 273.275 -4.37452 2.25602 0
M  V30 2936 N 274.927 -0.932562 -1.27047 0
M  V30 2937 C 275.857 -0.452902 -2.29066 0
M  V30 2938 C 276.838 0.489338 -1.62909 0
M  V30 2939 O 278.023 0.393046 -1.90181 0
M  V30 2940 C 275.153 0.290698 -3.46081 0
M  V30 2941 C 274.107 -0.564168 -4.24265 0
M  V30 2942 C 273.433 0.308886 -5.33807 0
M  V30 2943 C 274.733 -1.83112 -4.89149 0
M  V30 2944 H 276.427 -1.30552 -2.69437 0
M  V30 2945 H 273.973 -0.629201 -1.29526 0
M  V30 2946 H 275.926 0.637233 -4.16554 0
M  V30 2947 H 274.65 1.17738 -3.0464 0
M  V30 2948 H 273.309 -0.893477 -3.55545 0
M  V30 2949 H 272.957 1.19467 -4.88607 0
M  V30 2950 H 272.657 -0.259633 -5.87026 0
M  V30 2951 H 274.181 0.650884 -6.07121 0
M  V30 2952 H 275.595 -1.55236 -5.51883 0
M  V30 2953 H 273.992 -2.34353 -5.52448 0
M  V30 2954 H 275.062 -2.54772 -4.12576 0
M  V30 2955 N 276.405 1.4127 -0.698611 0
M  V30 2956 C 277.353 2.32588 -0.023855 0
M  V30 2957 C 278.347 1.51128 0.765292 0
M  V30 2958 O 279.553 1.67043 0.670571 0
M  V30 2959 H 275.928 0.751918 0.0110871 0
M  V30 2960 H 277.899 2.87167 -0.811031 0
M  V30 2961 C 276.648 3.35947 0.896369 0
M  V30 2962 H 275.971 3.98684 0.298548 0
M  V30 2963 H 277.411 4.02376 1.33676 0
M  V30 2964 C 275.87 2.70076 2.01396 0
M  V30 2965 O 276.4 2.55093 3.10307 0
M  V30 2966 N 274.606 2.28724 1.79259 0
M  V30 2967 H 274.153 2.4111 0.906841 0
M  V30 2968 H 274.111 1.84986 2.54219 0
M  V30 2969 N 277.883 0.443576 1.51229 0
M  V30 2970 C 279.132 -0.122332 2.01329 0
M  V30 2971 C 279.445 -1.43237 1.33201 0
M  V30 2972 O 280.651 -2.0816 1.74304 0
M  V30 2973 C 279.107 -0.268551 3.58897 0
M  V30 2974 C 278.715 1.03142 4.35965 0
M  V30 2975 C 280.459 -0.787894 4.17124 0
M  V30 2976 C 278.366 0.850504 5.85252 0
M  V30 2977 H 277.296 -0.0494929 0.752374 0
M  V30 2978 H 279.947 0.574289 1.74282 0
M  V30 2979 H 278.329 -1.02832 3.82415 0
M  V30 2980 H 279.503 1.80001 4.24189 0
M  V30 2981 H 277.818 1.47977 3.89219 0
M  V30 2982 H 280.415 -0.939841 5.26375 0
M  V30 2983 H 280.758 -1.77201 3.76703 0
M  V30 2984 H 281.291 -0.0862669 3.97706 0
M  V30 2985 H 278.03 1.80718 6.30096 0
M  V30 2986 H 277.55 0.121825 5.99676 0
M  V30 2987 H 279.229 0.506163 6.45017 0
M  V30 2988 N 279.361 -1.56624 0.175154 0
M  V30 2989 C 280.638 -1.88688 -0.515373 0
M  V30 2990 C 281.018 -1.08564 -1.81044 0
M  V30 2991 O 280.366 -0.180703 -2.27784 0
M  V30 2992 C 280.576 -3.40768 -0.753552 0
M  V30 2993 C 281.924 -4.10587 -1.08184 0
M  V30 2994 O 282.948 -3.46106 -0.841961 0
M  V30 2995 O 281.807 -5.24512 -1.53459 0
M  V30 2996 H 278.901 -0.78301 -0.26613 0
M  V30 2997 H 281.447 -1.68347 0.213877 0
M  V30 2998 H 280.219 -3.90965 0.161829 0
M  V30 2999 H 279.842 -3.66733 -1.53598 0
M  V30 3000 N 280.839 0.0985539 -1.57292 0
M  V30 3001 C 282.085 0.803867 -1.86188 0
M  V30 3002 C 282.418 1.78549 -0.763794 0
M  V30 3003 O 281.693 1.93153 0.22855 0
M  V30 3004 C 281.976 1.53568 -3.25713 0
M  V30 3005 C 281.829 0.572277 -4.46145 0
M  V30 3006 C 283.148 2.48708 -3.63087 0
M  V30 3007 H 280.267 0.290781 -0.677211 0
M  V30 3008 H 282.909 0.0675783 -1.8988 0
M  V30 3009 H 281.059 2.16332 -3.22696 0
M  V30 3010 H 282.731 -0.0480894 -4.61275 0
M  V30 3011 H 280.974 -0.114618 -4.33649 0
M  V30 3012 H 281.645 1.12139 -5.40489 0
M  V30 3013 H 284.121 1.96039 -3.67026 0
M  V30 3014 H 282.997 2.96932 -4.61652 0
M  V30 3015 H 283.258 3.32309 -2.91588 0
M  V30 3016 N 282.317 1.53212 0.369288 0
M  V30 3017 C 283.563 1.69466 1.11397 0
M  V30 3018 C 283.896 0.443257 1.89074 0
M  V30 3019 O 283.171 -0.559386 1.86282 0
M  V30 3020 C 283.454 2.9422 2.07621 0
M  V30 3021 C 283.307 4.29508 1.33577 0
M  V30 3022 C 284.626 3.14565 3.07794 0
M  V30 3023 H 281.745 0.616667 0.403597 0
M  V30 3024 H 284.387 1.85845 0.395179 0
M  V30 3025 H 282.537 2.80387 2.68916 0
M  V30 3026 H 284.209 4.55147 0.750955 0
M  V30 3027 H 282.452 4.29088 0.637618 0
M  V30 3028 H 283.123 5.12926 2.03989 0
M  V30 3029 H 285.599 3.2756 2.56601 0
M  V30 3030 H 284.475 4.03297 3.72348 0
M  V30 3031 H 284.736 2.29675 3.77759 0
M  V30 3032 N 283.795 -0.628877 1.44509 0
M  V30 3033 C 285.043 -1.38565 1.4712 0
M  V30 3034 C 285.364 -1.94712 0.105899 0
M  V30 3035 O 284.634 -1.75912 -0.862079 0
M  V30 3036 H 283.214 -0.514333 0.541729 0
M  V30 3037 H 285.876 -0.740018 1.80305 0
M  V30 3038 H 284.972 -2.21583 2.19789 0
M  V30 3039 N 285.273 -1.31445 -0.869486 0
M  V30 3040 C 286.519 -1.21337 -1.62496 0
M  V30 3041 C 286.852 0.227872 -1.92858 0
M  V30 3042 O 286.127 1.16094 -1.56053 0
M  V30 3043 C 286.41 -2.05814 -2.95487 0
M  V30 3044 C 286.263 -3.5824 -2.72 0
M  V30 3045 C 287.582 -1.9079 -3.96594 0
M  V30 3046 H 284.701 -0.442135 -0.589649 0
M  V30 3047 H 287.343 -1.6124 -1.00507 0
M  V30 3048 H 285.493 -1.71913 -3.48394 0
M  V30 3049 H 287.165 -4.0228 -2.25762 0
M  V30 3050 H 285.408 -3.81647 -2.06224 0
M  V30 3051 H 286.079 -4.12657 -3.66631 0
M  V30 3052 H 288.555 -2.20459 -3.52898 0
M  V30 3053 H 287.431 -2.52199 -4.87531 0
M  V30 3054 H 287.692 -0.871341 -4.33428 0
M  V30 3055 N 286.751 1.08385 -1.14413 0
M  V30 3056 C 287.976 1.85057 -0.936413 0
M  V30 3057 C 288.401 1.81055 0.509971 0
M  V30 3058 O 287.759 1.1958 1.36273 0
M  V30 3059 C 287.807 3.30505 -1.44217 0
M  V30 3060 O 286.911 4.07491 -0.634409 0
M  V30 3061 H 286.252 0.573425 -0.334784 0
M  V30 3062 H 288.782 1.36799 -1.52142 0
M  V30 3063 H 288.792 3.81348 -1.45043 0
M  V30 3064 H 287.467 3.32734 -2.49522 0
M  V30 3065 H 286.044 3.66368 -0.694902 0
M  V30 3066 N 288.23 0.939286 1.26551 0
M  V30 3067 C 289.477 0.585847 1.9384 0
M  V30 3068 C 289.805 -0.874784 1.73718 0
M  V30 3069 O 289.06 -1.64092 1.06642 0
M  V30 3070 C 289.359 0.872106 3.46596 0
M  V30 3071 C 289.025 2.31632 3.86856 0
M  V30 3072 C 287.687 2.71111 3.97558 0
M  V30 3073 C 290.039 3.25494 4.07066 0
M  V30 3074 C 287.367 4.03553 4.25866 0
M  V30 3075 C 289.719 4.57531 4.36862 0
M  V30 3076 C 288.383 4.96828 4.45778 0
M  V30 3077 H 287.653 0.214377 0.709312 0
M  V30 3078 H 290.3 1.18544 1.50398 0
M  V30 3079 H 288.605 0.18996 3.91339 0
M  V30 3080 H 290.302 0.577442 3.96821 0
M  V30 3081 H 286.892 2.00008 3.79071 0
M  V30 3082 H 291.076 2.9619 3.98227 0
M  V30 3083 H 286.332 4.33665 4.30981 0
M  V30 3084 H 290.506 5.30254 4.51446 0
M  V30 3085 H 288.133 5.99482 4.67468 0
M  V30 3086 N 289.708 -1.40897 0.706093 0
M  V30 3087 C 290.658 -2.27987 0.0240746 0
M  V30 3088 C 291.642 -1.42759 -0.742204 0
M  V30 3089 O 292.834 -1.65936 -0.615966 0
M  V30 3090 C 289.963 -3.31186 -0.903907 0
M  V30 3091 C 289.049 -4.2389 -0.133318 0
M  V30 3092 N 289.44 -4.98113 0.878444 0
M  V30 3093 C 287.738 -4.44485 -0.367269 0
M  V30 3094 C 288.439 -5.6604 1.34064 0
M  V30 3095 N 287.415 -5.39522 0.664565 0
M  V30 3096 H 291.217 -2.82812 0.799658 0
M  V30 3097 H 288.731 -1.53235 0.537845 0
M  V30 3098 H 290.728 -3.92413 -1.40775 0
M  V30 3099 H 289.388 -2.77922 -1.67897 0
M  V30 3100 H 290.399 -5.02364 1.25901 0
M  V30 3101 H 287.076 -4.02213 -1.1194 0
M  V30 3102 H 288.466 -6.35524 2.1808 0
M  V30 3103 N 291.186 -0.45159 -1.50991 0
M  V30 3104 C 292.432 0.110237 -2.025 0
M  V30 3105 C 292.765 1.41109 -1.33424 0
M  V30 3106 O 292.04 1.89135 -0.453659 0
M  V30 3107 C 292.323 0.314271 -3.58726 0
M  V30 3108 C 292.176 -1.00623 -4.38401 0
M  V30 3109 C 293.495 1.07767 -4.26702 0
M  V30 3110 H 290.614 0.0385897 -0.735989 0
M  V30 3111 H 293.256 -0.593374 -1.80497 0
M  V30 3112 H 291.406 0.913601 -3.77605 0
M  V30 3113 H 293.078 -1.64064 -4.31139 0
M  V30 3114 H 291.321 -1.6075 -4.02917 0
M  V30 3115 H 291.992 -0.817341 -5.45915 0
M  V30 3116 H 294.468 0.56986 -4.12179 0
M  V30 3117 H 293.344 1.18921 -5.35863 0
M  V30 3118 H 293.605 2.10939 -3.88532 0
M  V30 3119 N 292.664 1.56529 -0.183458 0
M  V30 3120 C 293.912 1.96855 0.457452 0
M  V30 3121 C 294.233 1.07104 1.62953 0
M  V30 3122 O 293.503 0.139887 1.954 0
M  V30 3123 H 292.083 0.72693 0.171992 0
M  V30 3124 H 294.745 1.93056 -0.267476 0
M  V30 3125 H 293.841 3.01423 0.809368 0
M  V30 3126 N 294.142 -0.090211 1.57342 0
M  V30 3127 C 295.367 -0.810082 1.90925 0
M  V30 3128 C 295.792 -1.71248 0.778187 0
M  V30 3129 O 295.15 -1.79278 -0.269991 0
M  V30 3130 C 295.198 -1.59529 3.23393 0
M  V30 3131 O 294.302 -2.70461 3.11327 0
M  V30 3132 H 293.643 -0.222231 0.625707 0
M  V30 3133 H 296.173 -0.0639716 2.045 0
M  V30 3134 H 296.183 -1.97847 3.5682 0
M  V30 3135 H 294.858 -0.933055 4.05299 0
M  V30 3136 H 293.435 -2.35135 2.89423 0
M  V30 3137 N 295.62 -1.53406 -0.361157 0
M  V30 3138 C 296.868 -1.69467 -1.10115 0
M  V30 3139 C 297.189 -0.451352 -1.89705 0
M  V30 3140 O 296.459 0.534636 -1.88463 0
M  V30 3141 H 295.039 -0.624749 -0.409508 0
M  V30 3142 H 297.701 -1.90609 -0.406699 0
M  V30 3143 H 296.797 -2.55774 -1.78847 0
M  V30 3144 N 297.098 0.621204 -1.44841 0
M  V30 3145 C 298.338 1.39201 -1.49674 0
M  V30 3146 C 298.702 1.91561 -0.129764 0
M  V30 3147 O 299.903 2.68748 -0.0527814 0
M  V30 3148 C 298.174 2.519 -2.53537 0
M  V30 3149 S 299.733 3.39916 -2.77494 0
M  V30 3150 H 296.551 0.474758 -0.529269 0
M  V30 3151 H 299.153 0.718171 -1.81831 0
M  V30 3152 H 297.857 2.11761 -3.51547 0
M  V30 3153 H 297.388 3.241 -2.22986 0
M  V30 3154 H 299.403 4.49646 -2.0984 0
M  V30 3155 N 298.576 1.31904 0.862503 0
M  V30 3156 C 299.804 1.24998 1.64873 0
M  V30 3157 C 300.219 -0.183425 1.87907 0
M  V30 3158 O 299.576 -1.11794 1.44251 0
M  V30 3159 C 299.627 1.99829 3.01248 0
M  V30 3160 O 299.348 3.37575 2.79239 0
M  V30 3161 C 300.849 1.99852 3.95694 0
M  V30 3162 H 298.069 0.431599 0.513773 0
M  V30 3163 H 300.613 1.73901 1.07604 0
M  V30 3164 H 298.768 1.54668 3.55185 0
M  V30 3165 H 299.182 3.75776 3.65914 0
M  V30 3166 H 300.656 2.56709 4.88676 0
M  V30 3167 H 301.133 0.982852 4.28062 0
M  V30 3168 H 301.739 2.44926 3.47694 0
M  V30 3169 N 300.054 -1.07777 1.14986 0
M  V30 3170 C 301.331 -1.7699 0.832695 0
M  V30 3171 C 301.711 -2.001 -0.672561 0
M  V30 3172 O 301.059 -1.61598 -1.6155 0
M  V30 3173 C 301.269 -3.08139 1.63863 0
M  V30 3174 C 302.617 -3.8256 1.84208 0
M  V30 3175 O 303.641 -3.17939 1.60603 0
M  V30 3176 O 302.5 -4.98612 2.23714 0
M  V30 3177 H 299.594 -0.768389 0.305791 0
M  V30 3178 H 302.14 -1.14182 1.25541 0
M  V30 3179 H 300.912 -2.86909 2.6608 0
M  V30 3180 H 300.535 -3.78678 1.21197 0
M  V30 3181 N 301.532 -0.945985 -1.26051 0
M  V30 3182 C 302.943 -0.638096 -1.75457 0
M  V30 3183 C 303.294 0.846672 -1.76991 0
M  V30 3184 O 302.419 1.66262 -1.38513 0
M  V30 3185 C 303.014 -1.15157 -3.18629 0
M  V30 3186 C 301.573 -0.894004 -3.65629 0
M  V30 3187 C 300.72 -1.29967 -2.44957 0
M  V30 3188 H 303.671 -1.12376 -1.1206 0
M  V30 3189 H 303.692 -0.507615 -3.77099 0
M  V30 3190 H 303.204 -2.23222 -3.1748 0
M  V30 3191 H 301.305 0.172057 -3.72203 0
M  V30 3192 H 301.418 -1.52439 -4.54202 0
M  V30 3193 H 299.782 -0.718078 -2.44368 0
M  V30 3194 H 300.565 -2.38935 -2.46505 0
M  V30 3195 N 303.011 1.40521 -0.713556 0
M  V30 3196 C 303.921 2.34522 -0.0606667 0
M  V30 3197 C 304.937 1.57193 0.74607 0
M  V30 3198 O 306.113 1.89591 0.679493 0
M  V30 3199 C 303.178 3.36081 0.851491 0
M  V30 3200 C 302.239 4.29286 0.0349339 0
M  V30 3201 C 301.472 5.25994 0.903649 0
M  V30 3202 O 301.695 5.28616 2.14292 0
M  V30 3203 O 300.629 6.00918 0.343723 0
M  V30 3204 H 304.455 2.91968 -0.835972 0
M  V30 3205 H 302.04 1.41681 -0.47402 0
M  V30 3206 H 303.922 3.98369 1.37404 0
M  V30 3207 H 302.597 2.81052 1.60598 0
M  V30 3208 H 301.504 3.70289 -0.532633 0
M  V30 3209 H 302.837 4.87462 -0.681287 0
M  V30 3210 N 304.489 0.459591 1.5075 0
M  V30 3211 C 305.717 -0.0973749 2.06671 0
M  V30 3212 C 306.132 -1.34524 1.32472 0
M  V30 3213 O 305.489 -1.7827 0.390634 0
M  V30 3214 C 305.54 -0.39714 3.59312 0
M  V30 3215 O 305.261 0.801214 4.30711 0
M  V30 3216 C 306.762 -1.00234 4.31819 0
M  V30 3217 H 303.982 0.00195854 0.670997 0
M  V30 3218 H 306.526 0.645072 1.94059 0
M  V30 3219 H 304.681 -1.08951 3.71764 0
M  V30 3220 H 305.095 0.538857 5.21725 0
M  V30 3221 H 306.569 -1.16193 5.39632 0
M  V30 3222 H 307.046 -1.98939 3.91561 0
M  V30 3223 H 307.652 -0.348699 4.23868 0
M  V30 3224 N 305.967 -1.56429 0.191757 0
M  V30 3225 C 307.214 -1.97485 -0.447891 0
M  V30 3226 C 307.542 -1.07852 -1.61859 0
M  V30 3227 O 306.797 -0.116903 -1.95351 0
M  V30 3228 C 307.096 -3.44449 -0.953384 0
M  V30 3229 C 306.762 -4.50781 0.103586 0
M  V30 3230 C 305.424 -4.79584 0.394023 0
M  V30 3231 C 307.776 -5.1471 0.819946 0
M  V30 3232 C 305.104 -5.69607 1.40585 0
M  V30 3233 C 307.456 -6.05827 1.8209 0
M  V30 3234 C 306.12 -6.32987 2.11857 0
M  V30 3235 H 305.39 -0.722648 -0.163895 0
M  V30 3236 H 308.037 -1.89322 0.28802 0
M  V30 3237 H 306.342 -3.49666 -1.76751 0
M  V30 3238 H 308.039 -3.73569 -1.45765 0
M  V30 3239 H 304.629 -4.28394 -0.132951 0
M  V30 3240 H 308.813 -4.92552 0.608789 0
M  V30 3241 H 304.069 -5.88926 1.64243 0
M  V30 3242 H 308.243 -6.54424 2.38123 0
M  V30 3243 H 305.87 -7.02544 2.90407 0
M  V30 3244 N 307.445 0.0818655 -1.57387 0
M  V30 3245 C 308.691 0.784074 -1.8703 0
M  V30 3246 C 309.024 1.77729 -0.782689 0
M  V30 3247 O 308.299 1.93384 0.208051 0
M  V30 3248 C 308.582 1.50105 -3.27323 0
M  V30 3249 C 308.435 0.524925 -4.46727 0
M  V30 3250 C 309.754 2.44843 -3.65705 0
M  V30 3251 H 306.873 0.283582 -0.680257 0
M  V30 3252 H 309.515 0.0474352 -1.89941 0
M  V30 3253 H 307.665 2.12897 -3.24972 0
M  V30 3254 H 309.337 -0.0970111 -4.61198 0
M  V30 3255 H 307.58 -0.160606 -4.33503 0
M  V30 3256 H 308.251 1.064 -5.41648 0
M  V30 3257 H 310.727 1.92135 -3.69085 0
M  V30 3258 H 309.603 2.92018 -4.64776 0
M  V30 3259 H 309.864 3.29197 -2.95096 0
M  V30 3260 N 308.923 1.53595 0.353017 0
M  V30 3261 C 309.855 1.77219 1.45348 0
M  V30 3262 C 310.868 0.65324 1.49119 0
M  V30 3263 O 312.057 0.929775 1.52373 0
M  V30 3264 C 309.157 1.84841 2.84055 0
M  V30 3265 C 308.33 3.14649 3.03833 0
M  V30 3266 C 307.389 3.13351 4.22727 0
M  V30 3267 O 306.415 3.87107 4.17297 0
M  V30 3268 N 307.617 2.35052 5.30783 0
M  V30 3269 H 310.382 2.72178 1.25457 0
M  V30 3270 H 307.943 1.52528 0.542833 0
M  V30 3271 H 309.935 1.81435 3.61751 0
M  V30 3272 H 308.505 0.971114 2.97133 0
M  V30 3273 H 307.725 3.31256 2.13689 0
M  V30 3274 H 309.013 4.00411 3.13925 0
M  V30 3275 H 308.411 1.74663 5.38061 0
M  V30 3276 H 306.968 2.37453 6.07009 0
M  V30 3277 N 310.401 -0.613514 1.45168 0
M  V30 3278 C 311.364 -1.7065 1.53007 0
M  V30 3279 C 312.364 -1.5548 0.410184 0
M  V30 3280 O 313.554 -1.60656 0.673455 0
M  V30 3281 C 310.686 -3.09875 1.42093 0
M  V30 3282 H 311.879 -1.65068 2.50385 0
M  V30 3283 H 309.432 -0.828728 1.32521 0
M  V30 3284 H 310.167 -3.21039 0.458769 0
M  V30 3285 H 309.952 -3.22293 2.23315 0
M  V30 3286 H 311.442 -3.895 1.50598 0
M  V30 3287 N 311.879 -1.3236 -0.855495 0
M  V30 3288 C 313.128 -1.22226 -1.60448 0
M  V30 3289 C 313.441 0.214733 -1.94418 0
M  V30 3290 O 314.647 0.437917 -2.67945 0
M  V30 3291 C 313.103 -2.14063 -2.89318 0
M  V30 3292 C 312.711 -3.62839 -2.62777 0
M  V30 3293 C 314.455 -2.12764 -3.67331 0
M  V30 3294 C 312.362 -4.4664 -3.87643 0
M  V30 3295 H 311.292 -0.453904 -0.602069 0
M  V30 3296 H 313.943 -1.57314 -0.944698 0
M  V30 3297 H 312.325 -1.71889 -3.5675 0
M  V30 3298 H 313.499 -4.1335 -2.03662 0
M  V30 3299 H 311.814 -3.66261 -1.98096 0
M  V30 3300 H 314.411 -2.72611 -4.59987 0
M  V30 3301 H 314.754 -1.11841 -4.00995 0
M  V30 3302 H 315.287 -2.53214 -3.06802 0
M  V30 3303 H 312.026 -5.48373 -3.5912 0
M  V30 3304 H 311.546 -4.0088 -4.46156 0
M  V30 3305 H 313.225 -4.59597 -4.55389 0
M  V30 3306 N 313.357 1.07166 -1.15556 0
M  V30 3307 C 314.582 1.84053 -0.955988 0
M  V30 3308 C 315.007 1.81586 0.490739 0
M  V30 3309 O 314.365 1.21018 1.34997 0
M  V30 3310 C 314.413 3.28957 -1.47714 0
M  V30 3311 O 313.517 4.06795 -0.677593 0
M  V30 3312 H 312.858 0.569842 -0.340847 0
M  V30 3313 H 315.388 1.35178 -1.53584 0
M  V30 3314 H 315.398 3.79788 -1.4908 0
M  V30 3315 H 314.073 3.30068 -2.53037 0
M  V30 3316 H 312.65 3.6561 -0.733721 0
M  V30 3317 N 314.835 0.952656 1.25548 0
M  V30 3318 C 316.112 0.523818 1.88456 0
M  V30 3319 C 316.492 -0.998871 1.85973 0
M  V30 3320 O 315.84 -1.86381 1.3219 0
M  V30 3321 C 316.05 1.0982 3.31271 0
M  V30 3322 C 317.398 1.17385 4.08051 0
M  V30 3323 O 318.422 1.04961 3.40384 0
M  V30 3324 O 317.281 1.36852 5.29088 0
M  V30 3325 H 314.375 0.172485 0.808813 0
M  V30 3326 H 316.921 1.04596 1.33633 0
M  V30 3327 H 315.693 2.1415 3.27499 0
M  V30 3328 H 315.316 0.559191 3.93648 0
M  V30 3329 N 316.313 -1.40141 0.720998 0
M  V30 3330 C 317.276 -2.29058 0.0805834 0
M  V30 3331 C 318.276 -1.45632 -0.681758 0
M  V30 3332 O 319.466 -1.6648 -0.512856 0
M  V30 3333 C 316.598 -3.28925 -0.895593 0
M  V30 3334 H 317.791 -2.87191 0.863793 0
M  V30 3335 H 315.344 -1.48553 0.485975 0
M  V30 3336 H 316.079 -2.75822 -1.70566 0
M  V30 3337 H 315.864 -3.90519 -0.351766 0
M  V30 3338 H 317.354 -3.95494 -1.34069 0
M  V30 3339 N 317.792 -0.46758 -1.50504 0
M  V30 3340 C 319.208 -0.121533 -1.59137 0
M  V30 3341 C 319.408 1.3717 -1.47603 0
M  V30 3342 O 318.464 2.14464 -1.33272 0
M  V30 3343 C 319.777 -0.6686 -2.93173 0
M  V30 3344 C 321.325 -0.631716 -3.06559 0
M  V30 3345 C 321.8 -1.15627 -4.43164 0
M  V30 3346 N 323.291 -1.11553 -4.49567 0
M  V30 3347 C 324.026 -1.49195 -5.5365 0
M  V30 3348 N 323.522 -1.94269 -6.65005 0
M  V30 3349 N 325.315 -1.4082 -5.44175 0
M  V30 3350 H 317.466 -1.4388 -1.56245 0
M  V30 3351 H 319.729 -0.594784 -0.738198 0
M  V30 3352 H 319.435 -1.71453 -3.07078 0
M  V30 3353 H 319.309 -0.11021 -3.77039 0
M  V30 3354 H 321.696 0.405297 -2.92304 0
M  V30 3355 H 321.777 -1.22687 -2.24458 0
M  V30 3356 H 321.421 -2.1919 -4.58168 0
M  V30 3357 H 321.351 -0.537365 -5.23851 0
M  V30 3358 H 323.842 -0.784895 -3.69659 0
M  V30 3359 H 324.155 -2.21148 -7.40482 0
M  V30 3360 H 322.5 -1.98219 -6.66134 0
M  V30 3361 H 325.691 -1.0545 -4.56068 0
M  V30 3362 H 325.864 -1.70481 -6.25172 0
M  V30 3363 N 319.27 1.56325 -0.20005 0
M  V30 3364 C 320.51 1.99619 0.439519 0
M  V30 3365 C 320.874 1.08423 1.58456 0
M  V30 3366 O 322.075 1.40973 2.28867 0
M  V30 3367 C 320.346 3.46314 0.883258 0
M  V30 3368 S 321.905 4.11634 1.51997 0
M  V30 3369 H 318.723 0.697007 0.140363 0
M  V30 3370 H 321.325 1.93118 -0.304282 0
M  V30 3371 H 320.029 4.10381 0.0398967 0
M  V30 3372 H 319.56 3.56643 1.6604 0
M  V30 3373 H 321.575 4.09049 2.8088 0
M  V30 3374 N 320.748 -0.0735177 1.57428 0
M  V30 3375 C 321.994 -0.774145 1.87443 0
M  V30 3376 C 322.327 -1.77311 0.792103 0
M  V30 3377 O 321.602 -1.93492 -0.197793 0
M  V30 3378 C 321.885 -1.48367 3.28115 0
M  V30 3379 C 321.738 -0.501227 4.46999 0
M  V30 3380 C 323.057 -2.429 3.66998 0
M  V30 3381 H 320.176 -0.279971 0.681752 0
M  V30 3382 H 322.818 -0.0373616 1.89963 0
M  V30 3383 H 320.968 -2.11171 3.26097 0
M  V30 3384 H 322.64 0.121468 4.6114 0
M  V30 3385 H 320.883 0.183593 4.33411 0
M  V30 3386 H 321.554 -1.03526 5.42205 0
M  V30 3387 H 324.03 -1.90175 3.70098 0
M  V30 3388 H 322.906 -2.89549 4.66318 0
M  V30 3389 H 323.167 -3.27628 2.96837 0
M  V30 3390 N 322.226 -1.5378 -0.344866 0
M  V30 3391 C 323.473 -1.70963 -1.08526 0
M  V30 3392 C 323.801 -0.472126 -1.88683 0
M  V30 3393 O 323.056 0.546116 -1.87926 0
M  V30 3394 C 323.355 -2.92407 -2.05506 0
M  V30 3395 C 323.021 -4.28066 -1.41671 0
M  V30 3396 C 321.683 -4.64951 -1.2399 0
M  V30 3397 C 324.035 -5.12344 -0.956726 0
M  V30 3398 C 321.363 -5.83733 -0.589277 0
M  V30 3399 C 323.715 -6.3179 -0.320015 0
M  V30 3400 C 322.379 -6.67372 -0.130881 0
M  V30 3401 H 321.649 -0.625598 -0.397124 0
M  V30 3402 H 324.296 -1.87995 -0.36469 0
M  V30 3403 H 322.601 -2.69973 -2.8394 0
M  V30 3404 H 324.298 -3.02895 -2.62784 0
M  V30 3405 H 320.888 -3.99034 -1.56429 0
M  V30 3406 H 325.072 -4.8438 -1.08118 0
M  V30 3407 H 320.328 -6.09877 -0.431344 0
M  V30 3408 H 324.502 -6.96386 0.0445072 0
M  V30 3409 H 322.129 -7.59273 0.375318 0
M  V30 3410 N 323.704 0.605807 -1.45491 0
M  V30 3411 C 324.981 1.36522 -1.40075 0
M  V30 3412 C 325.361 2.10976 -0.0722744 0
M  V30 3413 O 324.709 2.08007 0.945808 0
M  V30 3414 C 324.919 2.31056 -2.61561 0
M  V30 3415 C 326.267 2.93608 -3.06724 0
M  V30 3416 O 327.291 2.41376 -2.61946 0
M  V30 3417 O 326.15 3.88421 -3.84437 0
M  V30 3418 H 323.244 0.612248 -0.555951 0
M  V30 3419 H 325.79 0.628747 -1.57623 0
M  V30 3420 H 324.562 1.75311 -3.49831 0
M  V30 3421 H 324.185 3.12081 -2.46356 0
M  V30 3422 N 325.182 1.32811 0.848464 0
M  V30 3423 C 326.115 1.16601 1.96162 0
M  V30 3424 C 327.093 0.0638855 1.62474 0
M  V30 3425 O 328.277 0.224348 1.8716 0
M  V30 3426 C 325.404 0.786333 3.29446 0
M  V30 3427 C 324.45 1.89459 3.8211 0
M  V30 3428 S 325.283 3.50395 4.04949 0
M  V30 3429 C 326.439 3.14413 5.41198 0
M  V30 3430 H 326.672 2.10832 2.09612 0
M  V30 3431 H 324.205 1.17543 1.00115 0
M  V30 3432 H 326.163 0.574044 4.06466 0
M  V30 3433 H 324.824 -0.137218 3.138 0
M  V30 3434 H 324.017 1.58207 4.78526 0
M  V30 3435 H 323.619 2.06304 3.11953 0
M  V30 3436 H 325.911 2.64642 6.23675 0
M  V30 3437 H 326.854 4.09874 5.77416 0
M  V30 3438 H 327.262 2.51266 5.05495 0
M  V30 3439 N 326.66 -1.06551 1.16123 0
M  V30 3440 C 327.908 -1.78947 0.939267 0
M  V30 3441 C 328.229 -1.87532 -0.534476 0
M  V30 3442 O 327.499 -1.38211 -1.38833 0
M  V30 3443 H 326.079 -0.662807 0.344523 0
M  V30 3444 H 328.741 -1.28725 1.46342 0
M  V30 3445 H 327.837 -2.81117 1.35572 0
M  V30 3446 N 328.138 -0.959301 -1.25041 0
M  V30 3447 C 329.101 -0.487677 -2.23952 0
M  V30 3448 C 330.101 0.41119 -1.55454 0
M  V30 3449 O 331.291 0.207825 -1.72956 0
M  V30 3450 C 328.423 0.294807 -3.39623 0
M  V30 3451 H 329.616 -1.36198 -2.67189 0
M  V30 3452 H 327.169 -0.743042 -1.37508 0
M  V30 3453 H 327.904 1.18658 -3.01813 0
M  V30 3454 H 327.689 -0.35012 -3.90534 0
M  V30 3455 H 329.179 0.614089 -4.1306 0
M  V30 3456 N 329.616 1.39756 -0.72842 0
M  V30 3457 C 330.526 2.34444 -0.0855374 0
M  V30 3458 C 331.542 1.57976 0.729356 0
M  V30 3459 O 332.718 1.90301 0.659346 0
M  V30 3460 C 329.783 3.36965 0.815798 0
M  V30 3461 C 328.844 4.29299 -0.0105996 0
M  V30 3462 C 328.077 5.26923 0.84781 0
M  V30 3463 O 328.3 5.30859 2.08673 0
M  V30 3464 O 327.234 6.01249 0.279969 0
M  V30 3465 H 331.06 2.91065 -0.866892 0
M  V30 3466 H 328.645 1.4117 -0.48902 0
M  V30 3467 H 330.527 3.99804 1.33171 0
M  V30 3468 H 329.202 2.82739 1.57608 0
M  V30 3469 H 328.109 3.69703 -0.571877 0
M  V30 3470 H 329.442 4.86712 -0.73295 0
M  V30 3471 N 331.094 0.475555 1.50254 0
M  V30 3472 C 332.34 -0.0780073 2.0265 0
M  V30 3473 C 332.673 -1.38968 1.35652 0
M  V30 3474 O 331.948 -1.8839 0.483691 0
M  V30 3475 C 332.231 -0.257161 3.59181 0
M  V30 3476 C 332.084 1.07585 4.36744 0
M  V30 3477 C 333.403 -1.00965 4.28362 0
M  V30 3478 H 330.522 -0.0268758 0.73651 0
M  V30 3479 H 333.164 0.622015 1.7953 0
M  V30 3480 H 331.314 -0.853412 3.79011 0
M  V30 3481 H 332.986 1.70902 4.28474 0
M  V30 3482 H 331.229 1.6714 4.00308 0
M  V30 3483 H 331.9 0.904088 5.44546 0
M  V30 3484 H 334.376 -0.504214 4.13034 0
M  V30 3485 H 333.252 -1.10381 5.37687 0
M  V30 3486 H 333.513 -2.04731 3.91839 0
M  V30 3487 N 332.573 -1.56217 0.208337 0
M  V30 3488 C 333.821 -1.97558 -0.426076 0
M  V30 3489 C 334.142 -1.09683 -1.61229 0
M  V30 3490 O 333.412 -0.170956 -1.95153 0
M  V30 3491 H 331.992 -0.729575 -0.160405 0
M  V30 3492 H 334.654 -1.92606 0.298155 0
M  V30 3493 H 333.75 -3.02672 -0.761312 0
M  V30 3494 N 334.051 0.0651679 -1.57465 0
M  V30 3495 C 335.298 0.763063 -1.87573 0
M  V30 3496 C 335.626 1.77242 -0.800961 0
M  V30 3497 O 334.881 1.94651 0.202316 0
M  V30 3498 C 335.18 1.50081 -3.24362 0
M  V30 3499 C 334.846 0.630816 -4.46466 0
M  V30 3500 C 333.508 0.391082 -4.79608 0
M  V30 3501 C 335.86 0.0279465 -5.21193 0
M  V30 3502 C 333.188 -0.460894 -5.84887 0
M  V30 3503 C 335.54 -0.811522 -6.27373 0
M  V30 3504 C 334.204 -1.06106 -6.59013 0
M  V30 3505 H 333.474 0.279224 -0.686378 0
M  V30 3506 H 336.121 0.0236726 -1.91485 0
M  V30 3507 H 334.426 2.31258 -3.16271 0
M  V30 3508 H 336.123 2.04571 -3.44894 0
M  V30 3509 H 332.713 0.8278 -4.2053 0
M  V30 3510 H 336.897 0.200262 -4.95896 0
M  V30 3511 H 332.153 -0.662907 -6.07796 0
M  V30 3512 H 336.327 -1.28537 -6.84435 0
M  V30 3513 H 333.954 -1.723 -7.40417 0
M  V30 3514 N 335.529 1.53961 0.336706 0
M  V30 3515 C 336.754 1.75797 1.10046 0
M  V30 3516 C 337.179 0.498985 1.81361 0
M  V30 3517 O 336.537 -0.548769 1.72795 0
M  V30 3518 C 336.585 2.94257 2.08436 0
M  V30 3519 O 335.689 2.64883 3.16087 0
M  V30 3520 H 335.03 0.582936 0.317934 0
M  V30 3521 H 337.56 2.00945 0.38501 0
M  V30 3522 H 337.57 3.21237 2.51537 0
M  V30 3523 H 336.245 3.85564 1.55927 0
M  V30 3524 H 334.822 2.48812 2.77753 0
M  V30 3525 N 337.007 -0.598083 1.45811 0
M  V30 3526 C 337.94 -1.7223 1.49706 0
M  V30 3527 C 338.918 -1.58732 0.352535 0
M  V30 3528 O 340.102 -1.80162 0.554438 0
M  V30 3529 C 337.229 -3.10148 1.3611 0
M  V30 3530 C 336.275 -3.42209 2.54549 0
M  V30 3531 S 337.108 -3.35989 4.16979 0
M  V30 3532 C 338.264 -4.76471 4.05865 0
M  V30 3533 H 338.497 -1.68665 2.44826 0
M  V30 3534 H 336.03 -0.775541 1.33509 0
M  V30 3535 H 337.988 -3.8972 1.28953 0
M  V30 3536 H 336.649 -3.11219 0.424451 0
M  V30 3537 H 335.842 -4.42652 2.40988 0
M  V30 3538 H 335.444 -2.70173 2.58617 0
M  V30 3539 H 337.736 -5.665 3.71596 0
M  V30 3540 H 338.679 -4.95089 5.06253 0
M  V30 3541 H 339.087 -4.52599 3.37364 0
M  V30 3542 N 338.485 -1.33259 -0.841409 0
M  V30 3543 C 339.715 -1.2742 -1.62628 0
M  V30 3544 C 340.123 0.157604 -1.88542 0
M  V30 3545 O 339.466 1.10938 -1.46419 0
M  V30 3546 C 339.528 -1.97797 -3.00194 0
M  V30 3547 C 339.192 -3.47109 -2.97261 0
M  V30 3548 C 340.189 -4.42358 -2.73159 0
M  V30 3549 C 337.874 -3.89247 -3.17478 0
M  V30 3550 C 339.868 -5.77718 -2.69296 0
M  V30 3551 C 337.555 -5.24713 -3.13241 0
M  V30 3552 C 338.553 -6.1876 -2.89181 0
M  V30 3553 O 338.241 -7.51745 -2.84843 0
M  V30 3554 H 337.973 -0.440436 -0.512827 0
M  V30 3555 H 340.527 -1.76153 -1.05638 0
M  V30 3556 H 338.757 -1.43652 -3.59028 0
M  V30 3557 H 340.446 -1.8549 -3.61038 0
M  V30 3558 H 341.212 -4.11127 -2.57294 0
M  V30 3559 H 337.091 -3.16456 -3.35226 0
M  V30 3560 H 340.635 -6.51097 -2.50436 0
M  V30 3561 H 336.532 -5.55569 -3.28654 0
M  V30 3562 H 337.3 -7.61262 -3.00702 0
M  V30 3563 N 339.963 1.05934 -1.16686 0
M  V30 3564 C 340.893 2.1546 -0.899949 0
M  V30 3565 C 341.874 1.69391 0.155154 0
M  V30 3566 O 343.059 1.94199 0.00648693 0
M  V30 3567 C 340.189 3.44939 -0.404241 0
M  V30 3568 C 339.143 4.04536 -1.39767 0
M  V30 3569 C 338.469 5.29268 -0.760216 0
M  V30 3570 C 339.769 4.42893 -2.76845 0
M  V30 3571 H 341.463 2.38046 -1.81588 0
M  V30 3572 H 339.009 1.14404 -0.874514 0
M  V30 3573 H 340.962 4.20901 -0.204971 0
M  V30 3574 H 339.686 3.21983 0.547206 0
M  V30 3575 H 338.345 3.30635 -1.58355 0
M  V30 3576 H 337.993 5.02611 0.197831 0
M  V30 3577 H 337.693 5.70101 -1.42332 0
M  V30 3578 H 339.217 6.07924 -0.57105 0
M  V30 3579 H 340.631 5.09921 -2.62019 0
M  V30 3580 H 339.028 4.94721 -3.39663 0
M  V30 3581 H 340.098 3.53584 -3.31823 0
M  V30 3582 N 341.441 0.965919 1.2453 0
M  V30 3583 C 342.371 0.513476 2.27784 0
M  V30 3584 C 343.352 -0.445974 1.6415 0
M  V30 3585 O 344.537 -0.342485 1.91156 0
M  V30 3586 C 341.667 -0.198839 3.4673 0
M  V30 3587 C 340.621 0.676456 4.2262 0
M  V30 3588 C 339.947 -0.167248 5.34438 0
M  V30 3589 C 341.247 1.96017 4.84123 0
M  V30 3590 H 342.941 1.3765 2.65881 0
M  V30 3591 H 340.487 0.663321 1.27813 0
M  V30 3592 H 342.44 -0.526567 4.18097 0
M  V30 3593 H 341.164 -1.0962 3.07654 0
M  V30 3594 H 339.823 0.98743 3.53052 0
M  V30 3595 H 339.471 -1.0647 4.91603 0
M  V30 3596 H 339.171 0.415181 5.86131 0
M  V30 3597 H 340.695 -0.489688 6.08633 0
M  V30 3598 H 342.109 1.69814 5.47573 0
M  V30 3599 H 340.506 2.48918 5.4604 0
M  V30 3600 H 341.576 2.65622 4.05676 0
M  V30 3601 N 342.919 -1.39368 0.735821 0
M  V30 3602 C 344.196 -1.94465 0.210395 0
M  V30 3603 C 344.576 -1.67254 -1.28799 0
M  V30 3604 O 343.924 -1.00123 -2.05396 0
M  V30 3605 C 344.134 -3.4472 0.544897 0
M  V30 3606 C 345.482 -4.21708 0.494689 0
M  V30 3607 O 346.506 -3.52922 0.482136 0
M  V30 3608 O 345.365 -5.44299 0.489947 0
M  V30 3609 H 342.459 -0.826096 0.0386666 0
M  V30 3610 H 345.005 -1.48863 0.814735 0
M  V30 3611 H 343.777 -3.57963 1.58045 0
M  V30 3612 H 343.4 -3.97502 -0.08837 0
M  V30 3613 N 344.397 -0.483516 -1.5 0
M  V30 3614 C 345.646 0.0689102 -2.01582 0
M  V30 3615 C 345.959 1.39655 -1.36952 0
M  V30 3616 O 347.165 2.03465 -1.79762 0
M  V30 3617 C 345.621 0.173302 -3.59483 0
M  V30 3618 C 345.229 -1.14665 -4.33077 0
M  V30 3619 C 346.973 0.677024 -4.19066 0
M  V30 3620 C 344.88 -1.00537 -5.82792 0
M  V30 3621 H 343.81 0.0295277 -0.753422 0
M  V30 3622 H 346.461 -0.620295 -1.72698 0
M  V30 3623 H 344.843 0.926569 -3.85007 0
M  V30 3624 H 346.017 -1.91184 -4.19268 0
M  V30 3625 H 344.332 -1.58244 -3.85159 0
M  V30 3626 H 346.929 0.799952 -5.28682 0
M  V30 3627 H 347.272 1.67151 -3.81269 0
M  V30 3628 H 347.805 -0.0192083 -3.97795 0
M  V30 3629 H 344.544 -1.9736 -6.25083 0
M  V30 3630 H 344.064 -0.280776 -5.99142 0
M  V30 3631 H 345.743 -0.677 -6.43448 0
M  V30 3632 N 345.875 1.56104 -0.216619 0
M  V30 3633 C 347.123 1.97781 0.415593 0
M  V30 3634 C 347.444 1.10536 1.60645 0
M  V30 3635 O 346.714 0.181303 1.95059 0
M  V30 3636 H 345.294 0.730415 0.156534 0
M  V30 3637 H 347.956 1.92445 -0.308366 0
M  V30 3638 H 347.052 3.03072 0.74525 0
M  V30 3639 N 347.353 -0.0568162 1.57498 0
M  V30 3640 C 348.601 -0.751617 1.87604 0
M  V30 3641 C 348.922 -1.77351 0.81066 0
M  V30 3642 O 348.192 -1.95254 -0.159018 0
M  V30 3643 H 346.772 -0.280583 0.692302 0
M  V30 3644 H 349.434 -0.0293483 1.94878 0
M  V30 3645 H 348.53 -1.25852 2.856 0
M  V30 3646 N 348.832 -1.54138 -0.328536 0
M  V30 3647 C 350.08 -1.71765 -1.06496 0
M  V30 3648 C 350.401 -0.49149 -1.88704 0
M  V30 3649 O 349.671 0.494539 -1.89555 0
M  V30 3650 H 348.251 -0.633295 -0.396164 0
M  V30 3651 H 350.913 -1.91429 -0.366176 0
M  V30 3652 H 350.009 -2.5951 -1.73381 0
M  V30 3653 N 350.31 0.590341 -1.46126 0
M  V30 3654 C 351.557 1.34882 -1.5104 0
M  V30 3655 C 351.885 1.93849 -0.159021 0
M  V30 3656 O 351.14 1.76544 0.844436 0
M  V30 3657 C 351.439 2.5032 -2.55097 0
M  V30 3658 C 351.105 2.09394 -3.99331 0
M  V30 3659 C 349.767 1.97947 -4.38601 0
M  V30 3660 C 352.119 1.77712 -4.89967 0
M  V30 3661 C 349.447 1.53065 -5.66381 0
M  V30 3662 C 351.799 1.34312 -6.18177 0
M  V30 3663 C 350.463 1.21436 -6.56361 0
M  V30 3664 H 349.733 0.493568 -0.552695 0
M  V30 3665 H 352.38 0.665539 -1.79563 0
M  V30 3666 H 350.685 3.24062 -2.20207 0
M  V30 3667 H 352.382 3.08541 -2.56132 0
M  V30 3668 H 348.972 2.19235 -3.68285 0
M  V30 3669 H 353.156 1.85445 -4.60352 0
M  V30 3670 H 348.412 1.41733 -5.94745 0
M  V30 3671 H 352.586 1.08849 -6.87841 0
M  V30 3672 H 350.213 0.864345 -7.5527 0
M  V30 3673 N 351.788 1.33704 0.83433 0
M  V30 3674 C 353.199 1.22813 1.4062 0
M  V30 3675 C 353.55 -0.151107 1.95617 0
M  V30 3676 O 352.675 -1.05092 1.89168 0
M  V30 3677 C 353.27 2.22355 2.55624 0
M  V30 3678 C 351.829 2.1529 3.08751 0
M  V30 3679 C 350.976 2.09589 1.8157 0
M  V30 3680 H 353.927 1.45236 0.639702 0
M  V30 3681 H 353.948 1.83391 3.33389 0
M  V30 3682 H 353.46 3.22728 2.15566 0
M  V30 3683 H 351.561 1.18235 3.53343 0
M  V30 3684 H 351.674 3.06038 3.68616 0
M  V30 3685 H 350.038 1.55134 2.02004 0
M  V30 3686 H 350.821 3.11777 1.43701 0
M  V30 3687 N 353.266 -1.05314 1.17247 0
M  V30 3688 C 354.514 -1.77941 0.958194 0
M  V30 3689 C 354.835 -1.88089 -0.514556 0
M  V30 3690 O 354.105 -1.39676 -1.37359 0
M  V30 3691 H 352.685 -0.659116 0.351533 0
M  V30 3692 H 355.347 -1.27166 1.47699 0
M  V30 3693 H 354.443 -2.79663 1.38546 0
M  V30 3694 N 354.744 -0.972509 -1.24016 0
M  V30 3695 C 355.969 -0.654417 -1.96805 0
M  V30 3696 C 356.394 0.770398 -1.716 0
M  V30 3697 O 355.752 1.52361 -0.982647 0
M  V30 3698 C 355.8 -0.941031 -3.48105 0
M  V30 3699 O 354.904 -0.0289472 -4.1239 0
M  V30 3700 H 354.245 -0.24692 -0.616382 0
M  V30 3701 H 356.775 -1.30396 -1.57664 0
M  V30 3702 H 356.785 -0.87452 -3.98517 0
M  V30 3703 H 355.46 -1.97939 -3.65777 0
M  V30 3704 H 354.037 -0.149192 -3.72601 0
M  V30 3705 N 356.222 1.38976 -0.743202 0
M  V30 3706 C 357.132 2.3434 -0.110399 0
M  V30 3707 C 358.148 1.58741 0.712559 0
M  V30 3708 O 359.324 1.9099 0.639125 0
M  V30 3709 C 356.389 3.37812 0.780012 0
M  V30 3710 C 355.45 4.29263 -0.0561319 0
M  V30 3711 C 354.683 5.27793 0.791875 0
M  V30 3712 O 354.906 5.33043 2.03031 0
M  V30 3713 O 353.84 6.01512 0.216183 0
M  V30 3714 H 357.666 2.90129 -0.897714 0
M  V30 3715 H 355.251 1.40643 -0.503966 0
M  V30 3716 H 357.133 4.01194 1.28923 0
M  V30 3717 H 355.808 2.84395 1.546 0
M  V30 3718 H 354.715 3.69076 -0.611056 0
M  V30 3719 H 356.048 4.85907 -0.784531 0
M  V30 3720 N 357.7 0.491464 1.49741 0
M  V30 3721 C 358.977 -0.118984 1.95238 0
M  V30 3722 C 359.357 -1.55044 1.43264 0
M  V30 3723 O 358.705 -2.19287 0.642287 0
M  V30 3724 C 358.915 -0.0414187 3.48975 0
M  V30 3725 C 360.263 -0.220133 4.24029 0
M  V30 3726 O 361.287 -0.117055 3.56008 0
M  V30 3727 O 360.146 -0.430567 5.44801 0
M  V30 3728 H 357.24 -0.100536 0.820866 0
M  V30 3729 H 359.786 0.553322 1.60426 0
M  V30 3730 H 358.558 0.957214 3.79412 0
M  V30 3731 H 358.181 -0.754292 3.9038 0
M  V30 3732 N 359.178 -1.55987 0.224894 0
M  V30 3733 C 360.424 -1.98684 -0.406502 0
M  V30 3734 C 360.757 -1.11248 -1.59177 0
M  V30 3735 O 360.032 -0.170909 -1.93748 0
M  V30 3736 C 360.315 -3.50218 -0.837808 0
M  V30 3737 C 360.168 -4.48426 0.351332 0
M  V30 3738 C 361.487 -4.06243 -1.69278 0
M  V30 3739 H 358.606 -0.722337 -0.146283 0
M  V30 3740 H 361.248 -1.87255 0.321799 0
M  V30 3741 H 359.398 -3.60089 -1.45837 0
M  V30 3742 H 361.07 -4.50562 0.989526 0
M  V30 3743 H 359.313 -4.22159 0.998207 0
M  V30 3744 H 359.984 -5.52 0.00655905 0
M  V30 3745 H 362.46 -3.99337 -1.16914 0
M  V30 3746 H 361.336 -5.12581 -1.96346 0
M  V30 3747 H 361.597 -3.53332 -2.65723 0
M  V30 3748 N 360.656 0.0484629 -1.57525 0
M  V30 3749 C 361.603 1.05504 -2.05275 0
M  V30 3750 C 362.573 1.37084 -0.937927 0
M  V30 3751 O 363.758 1.47754 -1.2072 0
M  V30 3752 C 360.898 2.35676 -2.52093 0
M  V30 3753 C 360.011 2.10423 -3.77288 0
M  V30 3754 C 359.146 3.34327 -4.12794 0
M  V30 3755 C 358.185 3.04542 -5.30962 0
M  V30 3756 N 357.322 4.20841 -5.61994 0
M  V30 3757 H 362.162 0.640885 -2.91027 0
M  V30 3758 H 359.699 0.304854 -1.43906 0
M  V30 3759 H 361.657 3.11709 -2.77297 0
M  V30 3760 H 360.287 2.7485 -1.69285 0
M  V30 3761 H 359.339 1.24976 -3.59284 0
M  V30 3762 H 360.651 1.84438 -4.63448 0
M  V30 3763 H 359.805 4.1874 -4.39024 0
M  V30 3764 H 358.544 3.63408 -3.25247 0
M  V30 3765 H 357.549 2.18528 -5.04505 0
M  V30 3766 H 358.774 2.76758 -6.20146 0
M  V30 3767 H 356.72 4.4991 -4.77406 0
M  V30 3768 H 356.637 3.98212 -6.42622 0
M  V30 3769 H 357.905 5.06184 -5.92789 0
M  V30 3770 N 362.134 1.5431 0.320358 0
M  V30 3771 C 363.064 1.86912 1.3995 0
M  V30 3772 C 364.045 0.726211 1.53819 0
M  V30 3773 O 365.23 0.980233 1.67646 0
M  V30 3774 C 362.36 2.09932 2.7667 0
M  V30 3775 C 361.314 3.25776 2.77586 0
M  V30 3776 C 360.64 3.34173 4.17412 0
M  V30 3777 C 361.94 4.6335 2.41048 0
M  V30 3778 H 363.634 2.77292 1.12914 0
M  V30 3779 H 361.18 1.33421 0.541738 0
M  V30 3780 H 363.133 2.31324 3.52232 0
M  V30 3781 H 361.857 1.16304 3.0519 0
M  V30 3782 H 360.516 3.04276 2.04479 0
M  V30 3783 H 360.164 2.38098 4.43078 0
M  V30 3784 H 359.864 4.12033 4.18931 0
M  V30 3785 H 361.388 3.57803 4.94782 0
M  V30 3786 H 362.802 4.84602 3.06324 0
M  V30 3787 H 361.199 5.43782 2.53813 0
M  V30 3788 H 362.269 4.65381 1.36193 0
M  V30 3789 N 363.613 -0.582584 1.46437 0
M  V30 3790 C 364.56 -1.69164 1.5701 0
M  V30 3791 C 365.53 -1.60847 0.414403 0
M  V30 3792 O 366.715 -1.80058 0.631171 0
M  V30 3793 C 363.855 -3.075 1.56646 0
M  V30 3794 C 362.968 -3.2644 2.82951 0
M  V30 3795 C 362.103 -4.55026 2.7409 0
M  V30 3796 C 361.142 -4.6731 3.95333 0
M  V30 3797 N 360.279 -5.87221 3.84858 0
M  V30 3798 H 365.119 -1.59464 2.51744 0
M  V30 3799 H 362.656 -0.777186 1.24893 0
M  V30 3800 H 364.614 -3.8757 1.5442 0
M  V30 3801 H 363.244 -3.16096 0.654439 0
M  V30 3802 H 362.296 -2.39974 2.95155 0
M  V30 3803 H 363.608 -3.31385 3.72808 0
M  V30 3804 H 362.762 -5.43324 2.6997 0
M  V30 3805 H 361.501 -4.52519 1.81873 0
M  V30 3806 H 360.506 -3.77429 3.99784 0
M  V30 3807 H 361.731 -4.71595 4.88646 0
M  V30 3808 H 359.677 -5.85712 2.95427 0
M  V30 3809 H 359.594 -5.93435 4.6837 0
M  V30 3810 H 360.862 -6.7795 3.84713 0
M  V30 3811 N 365.091 -1.34144 -0.827227 0
M  V30 3812 C 366.338 -1.26258 -1.58319 0
M  V30 3813 C 366.666 0.168595 -1.93768 0
M  V30 3814 O 365.921 1.12877 -1.59866 0
M  V30 3815 C 366.22 -2.09464 -2.89585 0
M  V30 3816 C 365.886 -3.58521 -2.73448 0
M  V30 3817 C 364.548 -3.99155 -2.68754 0
M  V30 3818 C 366.9 -4.53189 -2.57428 0
M  V30 3819 C 364.228 -5.32656 -2.45957 0
M  V30 3820 C 366.58 -5.86864 -2.36163 0
M  V30 3821 C 365.244 -6.26667 -2.29879 0
M  V30 3822 H 364.514 -0.462013 -0.579332 0
M  V30 3823 H 367.161 -1.65845 -0.95748 0
M  V30 3824 H 365.466 -1.62692 -3.56425 0
M  V30 3825 H 367.163 -2.00712 -3.47154 0
M  V30 3826 H 363.753 -3.26264 -2.77939 0
M  V30 3827 H 367.937 -4.22696 -2.60081 0
M  V30 3828 H 363.193 -5.62519 -2.39546 0
M  V30 3829 H 367.367 -6.59813 -2.22754 0
M  V30 3830 H 364.994 -7.30049 -2.11975 0
M  V30 3831 N 366.569 1.04691 -1.17803 0
M  V30 3832 C 367.479 2.16057 -0.914151 0
M  V30 3833 C 368.495 1.73589 0.119503 0
M  V30 3834 O 369.671 2.01308 -0.0609468 0
M  V30 3835 C 366.736 3.4394 -0.436603 0
M  V30 3836 C 365.797 4.00825 -1.53746 0
M  V30 3837 C 365.03 5.22604 -1.0826 0
M  V30 3838 O 365.253 5.70367 0.0612244 0
M  V30 3839 O 364.187 5.7186 -1.87775 0
M  V30 3840 H 368.013 2.41169 -1.84584 0
M  V30 3841 H 365.598 1.1453 -0.959334 0
M  V30 3842 H 367.48 4.21024 -0.178057 0
M  V30 3843 H 366.155 3.20316 0.466869 0
M  V30 3844 H 365.062 3.25158 -1.84995 0
M  V30 3845 H 366.395 4.28778 -2.41683 0
M  V30 3846 N 368.047 0.979072 1.23499 0
M  V30 3847 C 368.957 0.526431 2.28617 0
M  V30 3848 C 369.973 -0.418126 1.68901 0
M  V30 3849 O 371.149 -0.288372 1.99325 0
M  V30 3850 C 368.214 -0.165235 3.46306 0
M  V30 3851 C 367.275 0.82056 4.21385 0
M  V30 3852 C 366.508 0.161807 5.33455 0
M  V30 3853 O 366.731 -1.04742 5.60701 0
M  V30 3854 O 365.665 0.859708 5.95729 0
M  V30 3855 H 369.491 1.4006 2.69475 0
M  V30 3856 H 367.076 0.746643 1.29405 0
M  V30 3857 H 368.958 -0.553287 4.17752 0
M  V30 3858 H 367.633 -1.01419 3.07402 0
M  V30 3859 H 366.54 1.25929 3.52268 0
M  V30 3860 H 367.873 1.63828 4.64135 0
M  V30 3861 N 369.525 -1.3858 0.750561 0
M  V30 3862 C 370.774 -1.99424 0.302172 0
M  V30 3863 C 371.087 -1.60254 -1.12152 0
M  V30 3864 O 372.293 -2.14046 -1.67023 0
M  V30 3865 C 370.749 -3.56558 0.489307 0
M  V30 3866 C 370.357 -4.04682 1.92189 0
M  V30 3867 C 372.101 -4.24374 0.103478 0
M  V30 3868 C 370.008 -5.54446 2.05775 0
M  V30 3869 H 368.938 -0.746046 0.10923 0
M  V30 3870 H 371.589 -1.58383 0.92667 0
M  V30 3871 H 369.971 -3.95472 -0.204329 0
M  V30 3872 H 371.145 -3.77065 2.64875 0
M  V30 3873 H 369.46 -3.4958 2.26236 0
M  V30 3874 H 372.057 -5.34384 0.183787 0
M  V30 3875 H 372.4 -4.05468 -0.943481 0
M  V30 3876 H 372.933 -3.90688 0.748854 0
M  V30 3877 H 369.672 -5.78252 3.08714 0
M  V30 3878 H 369.192 -5.83816 1.37546 0
M  V30 3879 H 370.871 -6.20099 1.84626 0
M  V30 3880 N 371.003 -0.499398 -1.49478 0
M  V30 3881 C 372.231 0.0425456 -2.06856 0
M  V30 3882 C 372.646 1.30964 -1.35992 0
M  V30 3883 O 372.003 1.77172 -0.437762 0
M  V30 3884 C 372.054 0.301735 -3.60239 0
M  V30 3885 O 371.775 -0.915127 -4.28436 0
M  V30 3886 C 373.276 0.887499 -4.34325 0
M  V30 3887 H 370.496 -0.0197482 -0.670709 0
M  V30 3888 H 373.04 -0.696297 -1.92281 0
M  V30 3889 H 371.195 0.990556 -3.74522 0
M  V30 3890 H 371.609 -0.676993 -5.20113 0
M  V30 3891 H 373.083 1.01845 -5.42523 0
M  V30 3892 H 373.56 1.88488 -3.96698 0
M  V30 3893 H 374.166 0.236196 -4.24644 0
M  V30 3894 N 372.481 1.55866 -0.233164 0
M  V30 3895 C 373.729 1.9821 0.394593 0
M  V30 3896 C 374.05 1.12234 1.59463 0
M  V30 3897 O 373.32 0.201981 1.94856 0
M  V30 3898 H 371.9 0.732034 0.148778 0
M  V30 3899 H 374.562 1.92107 -0.32876 0
M  V30 3900 H 373.658 3.03845 0.713063 0
M  V30 3901 N 373.959 -0.0401083 1.57549 0
M  V30 3902 C 375.205 -0.734211 1.89043 0
M  V30 3903 C 375.538 -1.75591 0.829535 0
M  V30 3904 O 374.813 -1.93868 -0.156706 0
M  V30 3905 C 375.096 -1.41374 3.31188 0
M  V30 3906 C 374.949 -0.406299 4.47961 0
M  V30 3907 C 376.268 -2.35061 3.72068 0
M  V30 3908 H 373.387 -0.265447 0.687537 0
M  V30 3909 H 376.029 0.00294087 1.9 0
M  V30 3910 H 374.179 -2.04206 3.30503 0
M  V30 3911 H 375.851 0.219255 4.60779 0
M  V30 3912 H 374.094 0.275485 4.32924 0
M  V30 3913 H 374.765 -0.920022 5.44279 0
M  V30 3914 H 377.241 -1.82282 3.74049 0
M  V30 3915 H 376.117 -2.79593 4.72355 0
M  V30 3916 H 376.378 -3.21258 3.0372 0
M  V30 3917 N 375.437 -1.54477 -0.31217 0
M  V30 3918 C 376.686 -1.72438 -1.04633 0
M  V30 3919 C 376.999 -0.511163 -1.88803 0
M  V30 3920 O 378.205 -0.572341 -2.65399 0
M  V30 3921 C 376.661 -3.05043 -1.9099 0
M  V30 3922 C 376.269 -4.33806 -1.11877 0
M  V30 3923 C 378.013 -3.32364 -2.64073 0
M  V30 3924 C 375.92 -5.57467 -1.97445 0
M  V30 3925 H 374.85 -0.642647 -0.394361 0
M  V30 3926 H 377.501 -1.80966 -0.303929 0
M  V30 3927 H 375.883 -2.90451 -2.69173 0
M  V30 3928 H 377.057 -4.59199 -0.383843 0
M  V30 3929 H 375.372 -4.13336 -0.504252 0
M  V30 3930 H 377.969 -4.21951 -3.28423 0
M  V30 3931 H 378.312 -2.50745 -3.32314 0
M  V30 3932 H 378.845 -3.47875 -1.92944 0
M  V30 3933 H 375.584 -6.41722 -1.33692 0
M  V30 3934 H 375.104 -5.36277 -2.6864 0
M  V30 3935 H 376.783 -5.94303 -2.5576 0
M  V30 3936 N 376.915 0.57481 -1.46744 0
M  V30 3937 C 377.863 1.70435 -1.58286 0
M  V30 3938 C 378.857 1.63287 -0.450956 0
M  V30 3939 O 380.063 1.68685 -0.628121 0
M  V30 3940 H 376.438 0.56364 -0.497809 0
M  V30 3941 H 378.409 1.57833 -2.53242 0
M  V30 3942 C 377.158 3.08815 -1.59776 0
M  V30 3943 H 376.481 3.1499 -2.46214 0
M  V30 3944 H 377.921 3.87588 -1.71905 0
M  V30 3945 C 376.38 3.35301 -0.327812 0
M  V30 3946 O 376.91 3.97511 0.57861 0
M  V30 3947 N 375.116 2.89816 -0.213274 0
M  V30 3948 H 374.663 2.39371 -0.951798 0
M  V30 3949 H 374.621 3.0791 0.63553 0
M  V30 3950 N 378.394 1.34581 0.820102 0
M  V30 3951 C 379.805 1.24298 1.39309 0
M  V30 3952 C 380.156 -0.130351 1.95767 0
M  V30 3953 O 379.281 -1.0308 1.90272 0
M  V30 3954 C 379.876 2.25054 2.53251 0
M  V30 3955 C 378.435 2.18552 3.0645 0
M  V30 3956 C 377.582 2.11503 1.79337 0
M  V30 3957 H 380.533 1.45906 0.624262 0
M  V30 3958 H 380.554 1.86917 3.31425 0
M  V30 3959 H 380.066 3.24996 2.1213 0
M  V30 3960 H 378.167 1.21976 3.52069 0
M  V30 3961 H 378.28 3.0993 3.65349 0
M  V30 3962 H 376.644 1.57268 2.00347 0
M  V30 3963 H 377.427 3.13284 1.40386 0
M  V30 3964 N 379.872 -1.04064 1.18357 0
M  V30 3965 C 380.835 -2.10243 0.912707 0
M  V30 3966 C 381.835 -1.60477 -0.101928 0
M  V30 3967 O 383.025 -1.73703 0.131517 0
M  V30 3968 C 380.157 -3.38893 0.369387 0
M  V30 3969 H 381.35 -2.35706 1.85426 0
M  V30 3970 H 378.903 -1.20489 0.995594 0
M  V30 3971 H 379.638 -3.19094 -0.578776 0
M  V30 3972 H 379.423 -3.76331 1.1008 0
M  V30 3973 H 380.913 -4.17128 0.198575 0
M  V30 3974 N 381.35 -0.985608 -1.22978 0
M  V30 3975 C 382.28 -0.549649 -2.26939 0
M  V30 3976 C 383.261 0.419803 -1.64838 0
M  V30 3977 O 384.446 0.31203 -1.91677 0
M  V30 3978 C 381.576 0.143652 -3.47003 0
M  V30 3979 C 380.53 -0.743606 -4.21491 0
M  V30 3980 C 379.856 0.0822027 -5.34637 0
M  V30 3981 C 381.156 -2.03694 -4.80943 0
M  V30 3982 H 382.85 -1.41862 -2.63658 0
M  V30 3983 H 380.396 -0.683571 -1.26741 0
M  V30 3984 H 382.349 0.459985 -4.18882 0
M  V30 3985 H 381.073 1.04711 -3.09359 0
M  V30 3986 H 379.732 -1.04347 -3.51436 0
M  V30 3987 H 379.38 0.986359 -4.93234 0
M  V30 3988 H 379.08 -0.508377 -5.85397 0
M  V30 3989 H 380.604 0.392797 -6.09335 0
M  V30 3990 H 382.018 -1.78504 -5.44802 0
M  V30 3991 H 380.415 -2.57573 -5.42011 0
M  V30 3992 H 381.485 -2.72042 -4.01399 0
M  V30 3993 N 382.828 1.3818 -0.7579 0
M  V30 3994 C 384.105 1.94106 -0.241306 0
M  V30 3995 C 384.485 1.69282 1.26122 0
M  V30 3996 O 383.833 1.03378 2.03777 0
M  V30 3997 C 384.043 3.43809 -0.59967 0
M  V30 3998 C 385.391 4.20868 -0.561717 0
M  V30 3999 O 386.415 3.5211 -0.538222 0
M  V30 4000 O 385.274 5.43451 -0.576478 0
M  V30 4001 H 382.368 0.825376 -0.0518042 0
M  V30 4002 H 384.914 1.47548 -0.838315 0
M  V30 4003 H 383.686 3.55403 -1.6372 0
M  V30 4004 H 383.309 3.97592 0.0251197 0
M  V30 4005 N 384.306 0.507319 1.49211 0
M  V30 4006 C 385.253 -0.267728 2.29242 0
M  V30 4007 C 386.223 -0.954609 1.35928 0
M  V30 4008 O 387.408 -0.960046 1.64887 0
M  V30 4009 C 384.548 -1.32243 3.18756 0
M  V30 4010 C 383.661 -0.64669 4.27132 0
M  V30 4011 C 382.796 -1.68238 5.03855 0
M  V30 4012 C 381.835 -0.98885 6.0406 0
M  V30 4013 N 380.972 -1.96903 6.73924 0
M  V30 4014 H 385.812 0.420968 2.95012 0
M  V30 4015 H 383.349 0.219443 1.45454 0
M  V30 4016 H 385.307 -1.94599 3.69036 0
M  V30 4017 H 383.937 -1.97981 2.54958 0
M  V30 4018 H 382.989 0.0902926 3.80293 0
M  V30 4019 H 384.301 -0.101058 4.98698 0
M  V30 4020 H 383.455 -2.38081 5.58034 0
M  V30 4021 H 382.194 -2.26187 4.32077 0
M  V30 4022 H 381.199 -0.276222 5.49106 0
M  V30 4023 H 382.424 -0.415767 6.77826 0
M  V30 4024 H 380.37 -2.53803 6.04913 0
M  V30 4025 H 380.287 -1.47423 7.41487 0
M  V30 4026 H 381.555 -2.66015 7.32705 0
M  V30 4027 N 385.784 -1.5574 0.241426 0
M  V30 4028 C 387.014 -2.02913 -0.38857 0
M  V30 4029 C 387.422 -1.12014 -1.52478 0
M  V30 4030 O 386.765 -0.125903 -1.83268 0
M  V30 4031 C 386.827 -3.4636 -0.963075 0
M  V30 4032 C 386.491 -4.56982 0.0401916 0
M  V30 4033 C 387.488 -5.12941 0.847766 0
M  V30 4034 C 385.173 -5.0203 0.164699 0
M  V30 4035 C 387.167 -6.12437 1.76636 0
M  V30 4036 C 384.854 -6.01358 1.0868 0
M  V30 4037 C 385.852 -6.5644 1.88616 0
M  V30 4038 O 385.54 -7.53831 2.79273 0
M  V30 4039 H 385.272 -0.668983 -0.0971452 0
M  V30 4040 H 387.826 -2.02198 0.361248 0
M  V30 4041 H 386.056 -3.44206 -1.76235 0
M  V30 4042 H 387.745 -3.77065 -1.50257 0
M  V30 4043 H 388.511 -4.78974 0.762133 0
M  V30 4044 H 384.39 -4.58824 -0.447411 0
M  V30 4045 H 387.934 -6.55355 2.39071 0
M  V30 4046 H 383.831 -6.34746 1.17338 0
M  V30 4047 H 384.599 -7.71428 2.73572 0
M  V30 4048 N 387.262 0.0317525 -1.57568 0
M  V30 4049 C 388.509 0.723104 -1.89149 0
M  V30 4050 C 388.837 1.75504 -0.838377 0
M  V30 4051 O 388.092 1.95037 0.160982 0
M  V30 4052 C 388.391 1.43167 -3.27472 0
M  V30 4053 C 388.057 0.535972 -4.47703 0
M  V30 4054 C 386.719 0.289262 -4.8033 0
M  V30 4055 C 389.071 -0.0826125 -5.21135 0
M  V30 4056 C 386.399 -0.584853 -5.83778 0
M  V30 4057 C 388.751 -0.944414 -6.25511 0
M  V30 4058 C 387.415 -1.20061 -6.56614 0
M  V30 4059 H 386.685 0.264602 -0.692146 0
M  V30 4060 H 389.332 -0.0169496 -1.91492 0
M  V30 4061 H 387.637 2.24497 -3.21105 0
M  V30 4062 H 389.334 1.97209 -3.49155 0
M  V30 4063 H 385.924 0.738414 -4.22191 0
M  V30 4064 H 390.108 0.0950302 -4.96209 0
M  V30 4065 H 385.364 -0.79168 -6.06253 0
M  V30 4066 H 389.538 -1.43026 -6.81554 0
M  V30 4067 H 387.165 -1.87967 -7.36595 0
M  V30 4068 N 388.74 1.54641 0.303973 0
M  V30 4069 C 390.151 1.64811 0.877163 0
M  V30 4070 C 390.502 0.554838 1.88191 0
M  V30 4071 O 389.627 -0.309033 2.14182 0
M  V30 4072 C 390.222 2.9876 1.59775 0
M  V30 4073 C 388.781 3.11061 2.11938 0
M  V30 4074 C 387.928 2.60479 0.951097 0
M  V30 4075 H 390.879 1.58493 0.0810486 0
M  V30 4076 H 390.9 2.90017 2.46314 0
M  V30 4077 H 390.412 3.7831 0.866226 0
M  V30 4078 H 388.513 2.36225 2.88146 0
M  V30 4079 H 388.626 4.17171 2.35595 0
M  V30 4080 H 386.99 2.16859 1.33583 0
M  V30 4081 H 387.773 3.42504 0.233581 0
M  V30 4082 N 390.218 -0.567019 1.47046 0
M  V30 4083 C 391.443 -1.3551 1.57009 0
M  V30 4084 C 391.868 -1.86841 0.217259 0
M  V30 4085 O 391.226 -1.62435 -0.805268 0
M  V30 4086 C 391.274 -2.50777 2.5912 0
M  V30 4087 O 390.378 -3.52706 2.13711 0
M  V30 4088 H 389.719 -0.402919 0.52778 0
M  V30 4089 H 392.249 -0.686241 1.92748 0
M  V30 4090 H 392.259 -2.97481 2.79229 0
M  V30 4091 H 390.934 -2.12771 3.57353 0
M  V30 4092 H 389.511 -3.12374 2.03659 0
M  V30 4093 N 391.696 -1.35014 -0.812953 0
M  V30 4094 C 392.973 -1.18502 -1.55617 0
M  V30 4095 C 393.353 0.238421 -2.09749 0
M  V30 4096 O 392.701 1.2411 -1.91857 0
M  V30 4097 C 392.911 -2.24783 -2.66971 0
M  V30 4098 C 394.259 -2.60268 -3.35478 0
M  V30 4099 O 395.283 -2.23648 -2.77236 0
M  V30 4100 O 394.142 -3.2321 -4.40678 0
M  V30 4101 H 391.236 -0.459984 -0.687272 0
M  V30 4102 H 393.782 -1.46677 -0.853464 0
M  V30 4103 H 392.554 -3.20284 -2.24798 0
M  V30 4104 H 392.177 -1.97841 -3.44884 0
M  V30 4105 N 393.175 1.03435 -1.18907 0
M  V30 4106 C 394.4 1.80919 -1.01406 0
M  V30 4107 C 394.825 1.83055 0.432721 0
M  V30 4108 O 394.183 1.25252 1.31079 0
M  V30 4109 C 394.231 3.24091 -1.58105 0
M  V30 4110 O 393.335 4.04434 -0.806669 0
M  V30 4111 H 392.676 0.558709 -0.358803 0
M  V30 4112 H 395.206 1.30223 -1.57807 0
M  V30 4113 H 395.216 3.74853 -1.61087 0
M  V30 4114 H 393.891 3.21851 -2.6341 0
M  V30 4115 H 392.468 3.63091 -0.849666 0
M  V30 4116 N 394.653 0.992116 1.22453 0
M  V30 4117 C 395.901 0.666215 1.90804 0
M  V30 4118 C 396.222 -0.804152 1.77647 0
M  V30 4119 O 395.492 -1.57629 1.16318 0
M  V30 4120 H 394.072 0.243423 0.706225 0
M  V30 4121 H 396.734 1.25845 1.48825 0
M  V30 4122 H 395.83 0.928069 2.97982 0
M  V30 4123 N 396.131 -1.37776 0.765217 0
M  V30 4124 C 397.377 -2.00145 0.327072 0
M  V30 4125 C 397.71 -1.60607 -1.09175 0
M  V30 4126 O 396.985 -0.849127 -1.74986 0
M  V30 4127 C 397.268 -3.57109 0.46319 0
M  V30 4128 C 397.121 -4.06576 1.92395 0
M  V30 4129 C 398.44 -4.39888 -0.136473 0
M  V30 4130 H 395.559 -0.727113 0.120316 0
M  V30 4131 H 398.201 -1.63549 0.967039 0
M  V30 4132 H 396.351 -3.88414 -0.0816358 0
M  V30 4133 H 398.023 -3.85864 2.52798 0
M  V30 4134 H 396.266 -3.59011 2.43503 0
M  V30 4135 H 396.937 -5.15639 1.97028 0
M  V30 4136 H 399.413 -4.14803 0.328317 0
M  V30 4137 H 398.289 -5.48899 -0.0110582 0
M  V30 4138 H 398.55 -4.24758 -1.22608 0
M  V30 4139 N 397.609 -0.515225 -1.4894 0
M  V30 4140 C 399.025 -0.172099 -1.58669 0
M  V30 4141 C 399.225 1.32405 -1.51892 0
M  V30 4142 O 398.281 2.10116 -1.40027 0
M  V30 4143 C 399.594 -0.761533 -2.90897 0
M  V30 4144 C 401.142 -0.728926 -3.04394 0
M  V30 4145 C 401.617 -1.29667 -4.39261 0
M  V30 4146 N 403.108 -1.25799 -4.4579 0
M  V30 4147 C 403.843 -1.66733 -5.48623 0
M  V30 4148 N 403.339 -2.15327 -6.58488 0
M  V30 4149 N 405.132 -1.58061 -5.39419 0
M  V30 4150 H 397.283 -1.48778 -1.51588 0
M  V30 4151 H 399.546 -0.617968 -0.718901 0
M  V30 4152 H 399.252 -1.81136 -3.01468 0
M  V30 4153 H 399.126 -0.230106 -3.76497 0
M  V30 4154 H 401.513 0.312098 -2.93445 0
M  V30 4155 H 401.594 -1.29766 -2.20442 0
M  V30 4156 H 401.238 -2.33655 -4.50963 0
M  V30 4157 H 401.168 -0.703752 -5.21876 0
M  V30 4158 H 403.659 -0.902102 -3.66975 0
M  V30 4159 H 403.972 -2.44594 -7.33071 0
M  V30 4160 H 402.317 -2.19311 -6.59491 0
M  V30 4161 H 405.508 -1.19906 -4.52482 0
M  V30 4162 H 405.681 -1.90284 -6.19432 0
M  V30 4163 N 399.087 1.5561 -0.249682 0
M  V30 4164 C 400.336 1.98187 0.37479 0
M  V30 4165 C 400.649 1.14111 1.58865 0
M  V30 4166 O 401.855 1.46714 2.28445 0
M  V30 4167 C 400.311 3.52661 0.718192 0
M  V30 4168 C 399.919 4.45481 -0.474428 0
M  V30 4169 C 401.663 4.03888 1.3067 0
M  V30 4170 C 399.57 5.91303 -0.107026 0
M  V30 4171 H 398.5 0.740159 0.143808 0
M  V30 4172 H 401.151 1.80125 -0.350336 0
M  V30 4173 H 399.533 3.66429 1.50152 0
M  V30 4174 H 400.707 4.43473 -1.25172 0
M  V30 4175 H 399.022 4.04751 -0.978052 0
M  V30 4176 H 401.619 5.10358 1.59496 0
M  V30 4177 H 401.962 3.51401 2.23211 0
M  V30 4178 H 402.495 3.93457 0.586211 0
M  V30 4179 H 399.234 6.47833 -0.999642 0
M  V30 4180 H 398.754 5.9644 0.634013 0
M  V30 4181 H 400.433 6.46258 0.309807 0
M  V30 4182 N 400.565 -0.0233959 1.57583 0
M  V30 4183 C 401.814 -0.712133 1.8871 0
M  V30 4184 C 402.127 -1.76217 0.848944 0
M  V30 4185 O 403.333 -2.50389 1.04964 0
M  V30 4186 C 401.789 -1.3177 3.3491 0
M  V30 4187 C 401.397 -0.303715 4.46969 0
M  V30 4188 C 403.141 -1.98598 3.75179 0
M  V30 4189 C 401.048 -0.917945 5.84233 0
M  V30 4190 H 399.978 -0.269735 0.704101 0
M  V30 4191 H 402.629 0.0333114 1.8347 0
M  V30 4192 H 401.011 -2.11304 3.34913 0
M  V30 4193 H 402.185 0.465325 4.58445 0
M  V30 4194 H 400.5 0.2628 4.1557 0
M  V30 4195 H 403.097 -2.45416 4.75053 0
M  V30 4196 H 403.44 -2.80659 3.07468 0
M  V30 4197 H 403.973 -1.25831 3.77374 0
M  V30 4198 H 400.712 -0.136633 6.55358 0
M  V30 4199 H 400.232 -1.65669 5.76467 0
M  V30 4200 H 401.911 -1.4236 6.31144 0
M  V30 4201 N 402.043 -1.548 -0.295768 0
M  V30 4202 C 403.006 -1.85363 -1.34808 0
M  V30 4203 C 404.006 -0.726817 -1.43436 0
M  V30 4204 O 405.196 -0.995088 -1.42981 0
M  V30 4205 C 402.328 -2.03859 -2.73229 0
M  V30 4206 H 403.521 -2.7941 -1.08949 0
M  V30 4207 H 401.074 -1.46942 -0.532702 0
M  V30 4208 H 401.809 -1.12117 -3.04303 0
M  V30 4209 H 401.594 -2.8588 -2.68356 0
M  V30 4210 H 403.084 -2.28857 -3.49305 0
M  V30 4211 N 403.521 0.559213 -1.47345 0
M  V30 4212 C 404.431 1.69388 -1.62311 0
M  V30 4213 C 405.447 1.6648 -0.505993 0
M  V30 4214 O 406.623 1.85964 -0.773262 0
M  V30 4215 C 403.688 3.05894 -1.63185 0
M  V30 4216 C 402.749 3.19885 -2.86307 0
M  V30 4217 C 401.982 4.49879 -2.87131 0
M  V30 4218 O 402.205 5.35217 -1.97229 0
M  V30 4219 O 401.139 4.67618 -3.78968 0
M  V30 4220 H 404.965 1.59706 -2.58317 0
M  V30 4221 H 402.55 0.728989 -1.30407 0
M  V30 4222 H 404.432 3.87133 -1.66451 0
M  V30 4223 H 403.107 3.15964 -0.70345 0
M  V30 4224 H 402.014 2.38052 -2.88587 0
M  V30 4225 H 403.347 3.14718 -3.78435 0
M  V30 4226 N 404.999 1.35443 0.805782 0
M  V30 4227 C 406.41 1.25768 1.37983 0
M  V30 4228 C 406.761 -0.10958 1.95894 0
M  V30 4229 O 405.886 -1.01056 1.91355 0
M  V30 4230 C 406.481 2.27727 2.5085 0
M  V30 4231 C 405.04 2.2179 3.04115 0
M  V30 4232 C 404.187 2.13393 1.77084 0
M  V30 4233 H 407.138 1.4656 0.608752 0
M  V30 4234 H 407.159 1.90422 3.29424 0
M  V30 4235 H 406.671 3.27227 2.08671 0
M  V30 4236 H 404.772 1.25703 3.50756 0
M  V30 4237 H 404.885 3.13788 3.62042 0
M  V30 4238 H 403.249 1.59384 1.98668 0
M  V30 4239 H 404.032 3.14755 1.37056 0
M  V30 4240 N 406.477 -1.02803 1.19454 0
M  V30 4241 C 407.725 -1.75869 0.995722 0
M  V30 4242 C 408.046 -1.89138 -0.474543 0
M  V30 4243 O 407.316 -1.42558 -1.34366 0
M  V30 4244 H 405.896 -0.651511 0.365435 0
M  V30 4245 H 408.558 -1.24004 1.50363 0
M  V30 4246 H 407.654 -2.76661 1.44447 0
M  V30 4247 N 407.956 -0.998596 -1.21925 0
M  V30 4248 C 409.372 -0.710303 -1.42923 0
M  V30 4249 C 409.572 0.716933 -1.88314 0
M  V30 4250 O 408.628 1.48712 -2.04062 0
M  V30 4251 C 409.941 -1.72072 -2.466 0
M  V30 4252 C 411.489 -1.73681 -2.60392 0
M  V30 4253 C 411.964 -2.73601 -3.67296 0
M  V30 4254 N 413.455 -2.7223 -3.7476 0
M  V30 4255 C 414.19 -3.46206 -4.57087 0
M  V30 4256 N 413.686 -4.29802 -5.43362 0
M  V30 4257 N 415.479 -3.34886 -4.51451 0
M  V30 4258 H 407.63 -1.92028 -0.9077 0
M  V30 4259 H 409.893 -0.828487 -0.460775 0
M  V30 4260 H 409.599 -2.74231 -2.20206 0
M  V30 4261 H 409.473 -1.51818 -3.45299 0
M  V30 4262 H 411.86 -0.722173 -2.86127 0
M  V30 4263 H 411.941 -1.98005 -1.61949 0
M  V30 4264 H 411.585 -3.75217 -3.42307 0
M  V30 4265 H 411.515 -2.46545 -4.65321 0
M  V30 4266 H 414.006 -2.11576 -3.1312 0
M  V30 4267 H 414.319 -4.83061 -6.03218 0
M  V30 4268 H 412.664 -4.33887 -5.42925 0
M  V30 4269 H 415.855 -2.69015 -3.83078 0
M  V30 4270 H 416.028 -3.92796 -5.15379 0
M  V30 4271 N 409.434 1.37368 -0.772513 0
M  V30 4272 C 410.664 2.03647 -0.348082 0
M  V30 4273 C 411.072 1.58392 1.03482 0
M  V30 4274 O 410.415 0.760921 1.672 0
M  V30 4275 C 410.477 3.58131 -0.313404 0
M  V30 4276 C 410.141 4.2652 -1.64102 0
M  V30 4277 C 411.138 4.50587 -2.5936 0
M  V30 4278 C 408.823 4.64335 -1.91567 0
M  V30 4279 C 410.817 5.11526 -3.80289 0
M  V30 4280 C 408.504 5.24996 -3.12766 0
M  V30 4281 C 409.502 5.48529 -4.06946 0
M  V30 4282 O 409.19 6.07921 -5.26011 0
M  V30 4283 H 408.922 0.660538 -0.143753 0
M  V30 4284 H 411.476 1.76669 -1.04772 0
M  V30 4285 H 409.706 3.84159 0.442617 0
M  V30 4286 H 411.395 4.05813 0.0840613 0
M  V30 4287 H 412.161 4.21784 -2.39423 0
M  V30 4288 H 408.04 4.45353 -1.19088 0
M  V30 4289 H 411.584 5.29811 -4.53813 0
M  V30 4290 H 407.481 5.53223 -3.32588 0
M  V30 4291 H 408.249 6.26398 -5.26847 0
M  V30 4292 N 410.912 0.523116 1.48665 0
M  V30 4293 C 412.142 -0.00961724 2.06598 0
M  V30 4294 C 412.55 -1.29333 1.38093 0
M  V30 4295 O 411.893 -1.77846 0.46007 0
M  V30 4296 C 411.955 -0.311135 3.58151 0
M  V30 4297 C 411.619 0.878092 4.48485 0
M  V30 4298 C 412.616 1.77464 4.88674 0
M  V30 4299 C 410.301 1.08315 4.90483 0
M  V30 4300 C 412.295 2.86021 5.69623 0
M  V30 4301 C 409.982 2.17187 5.71203 0
M  V30 4302 C 410.98 3.05873 6.10681 0
M  V30 4303 O 410.668 4.12862 6.89783 0
M  V30 4304 H 410.4 0.0272658 0.67545 0
M  V30 4305 H 412.954 0.726156 1.92136 0
M  V30 4306 H 411.184 -1.10079 3.70701 0
M  V30 4307 H 412.873 -0.785125 3.98234 0
M  V30 4308 H 413.639 1.62813 4.56855 0
M  V30 4309 H 409.518 0.402149 4.59243 0
M  V30 4310 H 413.062 3.55272 6.00356 0
M  V30 4311 H 408.959 2.31824 6.02435 0
M  V30 4312 H 409.727 4.10487 7.08126 0
M  V30 4313 N 412.39 -1.55475 0.257931 0
M  V30 4314 C 413.636 -1.99502 -0.364266 0
M  V30 4315 C 413.969 -1.146 -1.56782 0
M  V30 4316 O 413.244 -0.211968 -1.93342 0
M  V30 4317 C 413.527 -3.51917 -0.763333 0
M  V30 4318 C 413.38 -4.4758 0.446371 0
M  V30 4319 C 414.699 -4.09742 -1.60623 0
M  V30 4320 H 411.818 -0.725277 -0.130929 0
M  V30 4321 H 414.46 -1.8653 0.361446 0
M  V30 4322 H 412.61 -3.63101 -1.38166 0
M  V30 4323 H 414.282 -4.48362 1.08487 0
M  V30 4324 H 412.525 -4.19947 1.08753 0
M  V30 4325 H 413.196 -5.51862 0.123645 0
M  V30 4326 H 415.672 -4.01727 -1.08418 0
M  V30 4327 H 414.548 -5.16631 -1.85429 0
M  V30 4328 H 414.809 -3.58889 -2.58169 0
M  V30 4329 N 413.868 0.0150385 -1.57593 0
M  V30 4330 C 414.831 0.995996 -2.06428 0
M  V30 4331 C 415.831 1.2818 -0.970903 0
M  V30 4332 O 417.021 1.22949 -1.23406 0
M  V30 4333 C 414.153 2.32506 -2.49307 0
M  V30 4334 H 415.346 0.573873 -2.94358 0
M  V30 4335 H 412.899 0.262186 -1.54085 0
M  V30 4336 H 413.634 2.79438 -1.64575 0
M  V30 4337 H 413.419 2.13087 -3.29145 0
M  V30 4338 H 414.909 3.02906 -2.87468 0
M  V30 4339 N 415.346 1.54954 0.287554 0
M  V30 4340 C 416.571 1.79209 1.04397 0
M  V30 4341 C 416.996 0.556431 1.79682 0
M  V30 4342 O 416.354 -0.493518 1.74454 0
M  V30 4343 C 416.402 3.00739 1.98969 0
M  V30 4344 O 415.506 2.74805 3.075 0
M  V30 4345 H 414.847 0.592755 0.299227 0
M  V30 4346 H 417.377 2.02068 0.320886 0
M  V30 4347 H 417.387 3.29077 2.4119 0
M  V30 4348 H 416.062 3.90329 1.43582 0
M  V30 4349 H 414.639 2.57523 2.69697 0
M  V30 4350 N 416.824 -0.551391 1.4764 0
M  V30 4351 C 417.787 -1.64007 1.60107 0
M  V30 4352 C 418.787 -1.53601 0.47576 0
M  V30 4353 O 419.977 -1.57655 0.740988 0
M  V30 4354 C 417.109 -3.03569 1.55108 0
M  V30 4355 H 418.302 -1.543 2.57161 0
M  V30 4356 H 415.855 -0.771776 1.35917 0
M  V30 4357 H 416.59 -3.18804 0.594519 0
M  V30 4358 H 416.375 -3.12532 2.36783 0
M  V30 4359 H 417.865 -3.82762 1.66982 0
M  V30 4360 N 418.302 -1.35869 -0.798587 0
M  V30 4361 C 419.549 -1.29588 -1.55606 0
M  V30 4362 C 419.877 0.127456 -1.94082 0
M  V30 4363 O 419.132 1.09461 -1.62225 0
M  V30 4364 C 419.431 -2.1556 -2.85077 0
M  V30 4365 C 419.097 -3.6424 -2.65781 0
M  V30 4366 C 417.759 -4.04766 -2.60227 0
M  V30 4367 C 420.111 -4.58547 -2.47758 0
M  V30 4368 C 417.439 -5.37753 -2.34603 0
M  V30 4369 C 419.791 -5.91742 -2.23662 0
M  V30 4370 C 418.455 -6.31402 -2.16534 0
M  V30 4371 H 417.725 -0.474197 -0.569402 0
M  V30 4372 H 420.372 -1.67839 -0.922086 0
M  V30 4373 H 418.677 -1.70216 -3.52893 0
M  V30 4374 H 420.374 -2.08031 -3.42818 0
M  V30 4375 H 416.964 -3.32086 -2.70956 0
M  V30 4376 H 421.148 -4.28117 -2.51056 0
M  V30 4377 H 416.404 -5.67474 -2.2756 0
M  V30 4378 H 420.578 -6.6439 -2.08708 0
M  V30 4379 H 418.205 -7.34381 -1.96441 0
M  V30 4380 N 419.78 1.02168 -1.19998 0
M  V30 4381 C 421.008 1.79296 -1.03249 0
M  V30 4382 C 421.423 1.84103 0.418502 0
M  V30 4383 O 420.78 1.29031 1.29063 0
M  V30 4384 C 420.831 3.24007 -1.60319 0
M  V30 4385 O 420.552 3.19512 -2.99739 0
M  V30 4386 C 422.053 4.17704 -1.48453 0
M  V30 4387 H 419.273 0.564016 -0.363493 0
M  V30 4388 H 421.817 1.28639 -1.58973 0
M  V30 4389 H 419.972 3.7183 -1.08727 0
M  V30 4390 H 420.386 4.10306 -3.26725 0
M  V30 4391 H 421.86 5.17104 -1.93153 0
M  V30 4392 H 422.337 4.37029 -0.436193 0
M  V30 4393 H 422.943 3.7576 -1.99211 0
M  V30 4394 N 421.258 1.00505 1.21394 0
M  V30 4395 C 422.188 0.585684 2.26035 0
M  V30 4396 C 423.169 -0.393525 1.65485 0
M  V30 4397 O 424.354 -0.281497 1.92149 0
M  V30 4398 C 421.484 -0.0884283 3.47187 0
M  V30 4399 C 420.438 0.810567 4.20254 0
M  V30 4400 C 419.764 0.00286382 5.347 0
M  V30 4401 C 421.064 2.1132 4.77641 0
M  V30 4402 H 422.758 1.46039 2.61368 0
M  V30 4403 H 420.304 0.703648 1.25638 0
M  V30 4404 H 422.257 -0.393286 4.19561 0
M  V30 4405 H 420.981 -0.997766 3.10986 0
M  V30 4406 H 419.64 1.09925 3.49731 0
M  V30 4407 H 419.288 -0.907765 4.94741 0
M  V30 4408 H 418.988 0.601444 5.84514 0
M  V30 4409 H 420.512 -0.295808 6.09883 0
M  V30 4410 H 421.926 1.87148 5.41893 0
M  V30 4411 H 420.323 2.66164 5.37845 0
M  V30 4412 H 421.393 2.78393 3.9702 0
M  V30 4413 N 422.737 -1.36956 0.779787 0
M  V30 4414 C 423.7 -2.2851 0.177662 0
M  V30 4415 C 424.7 -1.48393 -0.619377 0
M  V30 4416 O 425.89 -1.68505 -0.441785 0
M  V30 4417 C 423.022 -3.32428 -0.755279 0
M  V30 4418 H 424.215 -2.83269 0.984823 0
M  V30 4419 H 421.768 -1.46358 0.548544 0
M  V30 4420 H 422.503 -2.82808 -1.58714 0
M  V30 4421 H 422.288 -3.91659 -0.185817 0
M  V30 4422 H 423.778 -4.00824 -1.17174 0
M  V30 4423 N 424.215 -0.530993 -1.48385 0
M  V30 4424 C 425.461 0.00274135 -2.028 0
M  V30 4425 C 425.794 1.33838 -1.40716 0
M  V30 4426 O 425.069 1.86465 -0.553277 0
M  V30 4427 C 425.352 0.123676 -3.59888 0
M  V30 4428 C 425.205 -1.2372 -4.3245 0
M  V30 4429 C 426.524 0.849967 -4.31814 0
M  V30 4430 H 423.643 -0.000477758 -0.737 0
M  V30 4431 H 426.285 -0.688217 -1.77098 0
M  V30 4432 H 424.435 0.712157 -3.81917 0
M  V30 4433 H 426.107 -1.86687 -4.21836 0
M  V30 4434 H 424.35 -1.81882 -3.93829 0
M  V30 4435 H 425.021 -1.10557 -5.40815 0
M  V30 4436 H 427.497 0.350572 -4.14621 0
M  V30 4437 H 426.373 0.903486 -5.41413 0
M  V30 4438 H 426.634 1.90047 -3.99167 0
M  V30 4439 N 425.693 1.55336 -0.266172 0
M  V30 4440 C 426.641 2.23587 0.641228 0
M  V30 4441 C 427.635 1.22986 1.16494 0
M  V30 4442 O 428.841 1.40943 1.1196 0
M  V30 4443 H 425.216 0.717452 0.225315 0
M  V30 4444 H 427.187 2.9837 0.0426561 0
M  V30 4445 C 425.936 2.96369 1.81826 0
M  V30 4446 H 425.259 3.73563 1.42445 0
M  V30 4447 H 426.699 3.47459 2.42998 0
M  V30 4448 C 425.158 2.0133 2.70125 0
M  V30 4449 O 425.688 1.55875 3.70224 0
M  V30 4450 N 423.894 1.6802 2.37102 0
M  V30 4451 H 423.441 2.05181 1.55751 0
M  V30 4452 H 423.399 1.047 2.96454 0
M  V30 4453 N 427.171 -0.0066808 1.57599 0
M  V30 4454 C 428.42 -0.692078 1.89455 0
M  V30 4455 C 428.733 -1.75306 0.867586 0
M  V30 4456 O 429.939 -2.49262 1.07614 0
M  V30 4457 C 428.395 -1.2821 3.36289 0
M  V30 4458 C 428.003 -0.256291 4.47266 0
M  V30 4459 C 429.747 -1.94608 3.77264 0
M  V30 4460 C 427.654 -0.855927 5.85173 0
M  V30 4461 H 426.584 -0.262252 0.706923 0
M  V30 4462 H 429.235 0.052769 1.83424 0
M  V30 4463 H 427.617 -2.0774 3.37135 0
M  V30 4464 H 428.791 0.513923 4.57925 0
M  V30 4465 H 427.106 0.306862 4.15268 0
M  V30 4466 H 429.703 -2.40364 4.77629 0
M  V30 4467 H 430.046 -2.77382 3.10427 0
M  V30 4468 H 430.579 -1.21822 3.78688 0
M  V30 4469 H 427.318 -0.0671161 6.55466 0
M  V30 4470 H 426.838 -1.59546 5.78191 0
M  V30 4471 H 428.517 -1.35658 6.32618 0
M  V30 4472 N 428.649 -1.55105 -0.279332 0
M  V30 4473 C 429.898 -1.74618 -1.00952 0
M  V30 4474 C 430.211 -0.551096 -1.87676 0
M  V30 4475 O 431.417 -0.628507 -2.64125 0
M  V30 4476 C 429.873 -3.09025 -1.84476 0
M  V30 4477 C 429.481 -4.36081 -1.0265 0
M  V30 4478 C 431.225 -3.37891 -2.56963 0
M  V30 4479 C 429.132 -5.6153 -1.85576 0
M  V30 4480 H 428.062 -0.650868 -0.38064 0
M  V30 4481 H 430.713 -1.81569 -0.265475 0
M  V30 4482 H 429.095 -2.96095 -2.62952 0
M  V30 4483 H 430.269 -4.59909 -0.286354 0
M  V30 4484 H 428.584 -4.14312 -0.416464 0
M  V30 4485 H 431.181 -4.28822 -3.19399 0
M  V30 4486 H 431.524 -2.57737 -3.26921 0
M  V30 4487 H 432.057 -3.5189 -1.85522 0
M  V30 4488 H 428.796 -6.44413 -1.2005 0
M  V30 4489 H 428.316 -5.41854 -2.57204 0
M  V30 4490 H 429.995 -5.99594 -2.43096 0
M  V30 4491 N 430.127 0.543554 -1.4793 0
M  V30 4492 C 431.09 1.63156 -1.60975 0
M  V30 4493 C 432.09 1.53346 -0.483899 0
M  V30 4494 O 433.28 1.5726 -0.749339 0
M  V30 4495 C 430.412 3.02743 -1.56716 0
M  V30 4496 H 431.605 1.52934 -2.57975 0
M  V30 4497 H 429.158 0.764557 -1.36324 0
M  V30 4498 H 429.893 3.18484 -0.611418 0
M  V30 4499 H 429.678 3.11272 -2.38438 0
M  V30 4500 H 431.168 3.81871 -1.6901 0
M  V30 4501 N 431.605 1.3629 0.791371 0
M  V30 4502 C 432.552 1.30458 1.90393 0
M  V30 4503 C 433.522 0.173632 1.6519 0
M  V30 4504 O 434.707 0.35983 1.87376 0
M  V30 4505 C 431.847 1.09777 3.27174 0
M  V30 4506 C 430.96 2.31929 3.64462 0
M  V30 4507 C 430.095 2.04276 4.90352 0
M  V30 4508 C 429.134 3.224 5.20312 0
M  V30 4509 N 428.271 2.94424 6.37385 0
M  V30 4510 H 433.111 2.25589 1.94714 0
M  V30 4511 H 430.648 1.12122 0.952216 0
M  V30 4512 H 432.606 0.958133 4.06049 0
M  V30 4513 H 431.236 0.183014 3.22281 0
M  V30 4514 H 430.288 2.56703 2.80727 0
M  V30 4515 H 431.6 3.20085 3.82553 0
M  V30 4516 H 430.754 1.87231 5.77087 0
M  V30 4517 H 429.493 1.13428 4.74326 0
M  V30 4518 H 428.498 3.40005 4.32061 0
M  V30 4519 H 429.723 4.14071 5.38258 0
M  V30 4520 H 427.669 2.06185 6.22755 0
M  V30 4521 H 427.586 3.76118 6.55798 0
M  V30 4522 H 428.854 2.80953 7.27108 0
M  V30 4523 N 433.083 -1.0153 1.20538 0
M  V30 4524 C 434.03 -2.10098 0.955383 0
M  V30 4525 C 435 -1.65702 -0.114878 0
M  V30 4526 O 436.185 -1.90776 0.0301118 0
M  V30 4527 C 433.325 -3.41236 0.514969 0
M  V30 4528 C 432.438 -3.99102 1.65353 0
M  V30 4529 C 431.573 -5.18306 1.16329 0
M  V30 4530 C 430.612 -5.68258 2.27485 0
M  V30 4531 N 429.749 -6.78722 1.7967 0
M  V30 4532 H 434.589 -2.30818 1.88486 0
M  V30 4533 H 432.126 -1.13189 0.939499 0
M  V30 4534 H 434.084 -4.16504 0.240935 0
M  V30 4535 H 432.714 -3.20585 -0.377512 0
M  V30 4536 H 431.766 -3.20918 2.04245 0
M  V30 4537 H 433.078 -4.32177 2.49047 0
M  V30 4538 H 432.232 -6.00782 0.845302 0
M  V30 4539 H 430.971 -4.86799 0.296254 0
M  V30 4540 H 429.976 -4.84385 2.60099 0
M  V30 4541 H 431.201 -6.01798 3.14667 0
M  V30 4542 H 429.147 -6.49042 0.95295 0
M  V30 4543 H 429.064 -7.10996 2.56944 0
M  V30 4544 H 430.332 -7.64759 1.50875 0
M  V30 4545 N 434.561 -1.01147 -1.20859 0
M  V30 4546 C 435.81 -0.693214 -1.89413 0
M  V30 4547 C 436.123 0.779969 -1.79376 0
M  V30 4548 O 437.329 1.21057 -2.43017 0
M  V30 4549 C 435.785 -1.18949 -3.39675 0
M  V30 4550 C 435.393 -2.68921 -3.58309 0
M  V30 4551 C 437.137 -0.94642 -4.13815 0
M  V30 4552 C 435.044 -3.12056 -5.0237 0
M  V30 4553 H 433.974 -0.255595 -0.709357 0
M  V30 4554 H 436.625 -1.22349 -1.36759 0
M  V30 4555 H 435.007 -0.587228 -3.91622 0
M  V30 4556 H 436.181 -3.34652 -3.16772 0
M  V30 4557 H 434.496 -2.91314 -2.97532 0
M  V30 4558 H 437.093 -1.24417 -5.20023 0
M  V30 4559 H 437.436 0.117219 -4.16135 0
M  V30 4560 H 437.969 -1.5118 -3.67953 0
M  V30 4561 H 434.708 -4.17674 -5.05202 0
M  V30 4562 H 434.228 -2.51041 -5.44737 0
M  V30 4563 H 435.907 -3.04403 -5.70918 0
M  V30 4564 N 436.039 1.36541 -0.78704 0
M  V30 4565 C 437.285 1.99599 -0.358872 0
M  V30 4566 C 437.618 1.62323 1.06606 0
M  V30 4567 O 436.893 0.876858 1.73613 0
M  V30 4568 C 437.176 3.56327 -0.519944 0
M  V30 4569 C 437.029 4.03464 -1.98839 0
M  V30 4570 C 438.348 4.4005 0.0664737 0
M  V30 4571 H 435.467 0.725107 -0.131869 0
M  V30 4572 H 438.109 1.6199 -0.992936 0
M  V30 4573 H 436.259 3.88495 0.0198321 0
M  V30 4574 H 437.931 3.81793 -2.58905 0
M  V30 4575 H 436.174 3.55092 -2.49183 0
M  V30 4576 H 436.845 5.12439 -2.05207 0
M  V30 4577 H 439.321 4.14228 -0.394267 0
M  V30 4578 H 438.197 5.48847 -0.0762682 0
M  V30 4579 H 438.458 4.26655 1.15835 0
M  V30 4580 N 437.518 0.538854 1.48102 0
M  V30 4581 C 438.448 -0.207654 2.32575 0
M  V30 4582 C 439.429 -0.926559 1.4265 0
M  V30 4583 O 440.614 -0.91061 1.71527 0
M  V30 4584 C 437.744 -1.24957 3.24042 0
M  V30 4585 C 436.698 -0.648263 4.23062 0
M  V30 4586 C 436.024 -1.79348 5.03725 0
M  V30 4587 C 437.324 0.385897 5.20872 0
M  V30 4588 H 439.018 0.497534 2.95237 0
M  V30 4589 H 436.564 0.240715 1.41974 0
M  V30 4590 H 438.517 -1.77983 3.81969 0
M  V30 4591 H 437.241 -1.98446 2.59397 0
M  V30 4592 H 435.9 -0.139452 3.66335 0
M  V30 4593 H 435.548 -2.51696 4.35498 0
M  V30 4594 H 435.248 -1.39702 5.70751 0
M  V30 4595 H 436.772 -2.32735 5.64506 0
M  V30 4596 H 438.186 -0.057607 5.73271 0
M  V30 4597 H 436.583 0.700227 5.96001 0
M  V30 4598 H 437.653 1.28848 4.67468 0
M  V30 4599 N 438.996 -1.55193 0.274407 0
M  V30 4600 C 439.943 -2.225 -0.613374 0
M  V30 4601 C 440.913 -1.19823 -1.15029 0
M  V30 4602 O 442.098 -1.48362 -1.19973 0
M  V30 4603 C 439.238 -2.94927 -1.79199 0
M  V30 4604 C 438.351 -4.12322 -1.28899 0
M  V30 4605 C 437.486 -4.72394 -2.42934 0
M  V30 4606 C 436.525 -5.81984 -1.89634 0
M  V30 4607 N 435.662 -6.36123 -2.9714 0
M  V30 4608 H 440.502 -2.97982 -0.032756 0
M  V30 4609 H 438.039 -1.47099 -0.00440146 0
M  V30 4610 H 439.997 -3.35134 -2.48478 0
M  V30 4611 H 438.627 -2.2187 -2.34465 0
M  V30 4612 H 437.679 -3.7724 -0.489327 0
M  V30 4613 H 438.991 -4.91355 -0.858587 0
M  V30 4614 H 438.145 -5.15317 -3.20208 0
M  V30 4615 H 436.884 -3.92636 -2.8929 0
M  V30 4616 H 435.889 -5.38511 -1.1084 0
M  V30 4617 H 437.114 -6.6361 -1.44215 0
M  V30 4618 H 435.06 -5.59259 -3.42878 0
M  V30 4619 H 434.977 -7.10427 -2.58515 0
M  V30 4620 H 436.245 -6.83704 -3.74391 0
M  V30 4621 N 440.474 -0.00167713 -1.576 0
M  V30 4622 C 441.384 1.00548 -2.1196 0
M  V30 4623 C 442.4 1.3758 -1.06526 0
M  V30 4624 O 443.576 1.46278 -1.38436 0
M  V30 4625 C 440.641 2.27809 -2.6135 0
M  V30 4626 C 439.702 1.97074 -3.81393 0
M  V30 4627 C 438.935 3.18267 -4.28417 0
M  V30 4628 O 439.158 4.30009 -3.74765 0
M  V30 4629 O 438.092 3.02167 -5.20556 0
M  V30 4630 H 441.918 0.573373 -2.98238 0
M  V30 4631 H 439.503 0.217255 -1.47812 0
M  V30 4632 H 441.385 3.02568 -2.93309 0
M  V30 4633 H 440.06 2.70254 -1.78169 0
M  V30 4634 H 438.967 1.19785 -3.54404 0
M  V30 4635 H 440.3 1.59464 -4.65652 0
M  V30 4636 N 441.952 1.55251 0.271103 0
M  V30 4637 C 442.884 1.84675 1.35749 0
M  V30 4638 C 443.897 0.731366 1.45447 0
M  V30 4639 O 445.086 1.00924 1.4723 0
M  V30 4640 C 442.186 1.99638 2.73857 0
M  V30 4641 C 441.359 3.30312 2.86727 0
M  V30 4642 C 440.418 3.35318 4.05522 0
M  V30 4643 O 439.444 4.08682 3.96191 0
M  V30 4644 N 440.646 2.62857 5.17577 0
M  V30 4645 H 443.411 2.78445 1.10853 0
M  V30 4646 H 440.972 1.55191 0.461218 0
M  V30 4647 H 442.964 2.00355 3.51625 0
M  V30 4648 H 441.534 1.12725 2.91568 0
M  V30 4649 H 440.754 3.42118 1.95829 0
M  V30 4650 H 442.042 4.16488 2.92258 0
M  V30 4651 H 441.44 2.02939 5.28046 0
M  V30 4652 H 439.997 2.69295 5.93568 0
M  V30 4653 N 443.43 -0.535701 1.48216 0
M  V30 4654 C 444.658 -1.31671 1.59594 0
M  V30 4655 C 445.073 -1.87083 0.254056 0
M  V30 4656 O 444.43 -1.66112 -0.755854 0
M  V30 4657 C 444.481 -2.47158 2.63809 0
M  V30 4658 O 444.202 -1.94032 3.92789 0
M  V30 4659 C 445.703 -3.39062 2.85573 0
M  V30 4660 H 442.923 -0.400623 0.538277 0
M  V30 4661 H 445.467 -0.646827 1.94001 0
M  V30 4662 H 443.622 -3.10043 2.32276 0
M  V30 4663 H 444.036 -2.69585 4.49916 0
M  V30 4664 H 445.51 -4.16459 3.62306 0
M  V30 4665 H 445.987 -3.93941 1.94184 0
M  V30 4666 H 446.593 -2.81975 3.18387 0
M  V30 4667 N 444.908 -1.36708 -0.784132 0
M  V30 4668 C 446.156 -1.30972 -1.53918 0
M  V30 4669 C 446.477 0.109086 -1.94695 0
M  V30 4670 O 445.747 1.05048 -1.65353 0
M  V30 4671 H 444.327 -0.481819 -0.570841 0
M  V30 4672 H 446.989 -1.71063 -0.934002 0
M  V30 4673 H 446.085 -1.94061 -2.44431 0
M  V30 4674 N 446.386 1.0089 -1.21074 0
M  V30 4675 C 447.611 1.78727 -1.05221 0
M  V30 4676 C 448.036 1.83932 0.393795 0
M  V30 4677 O 447.394 1.28004 1.28393 0
M  V30 4678 C 447.442 3.20665 -1.64944 0
M  V30 4679 O 446.546 4.02632 -0.892273 0
M  V30 4680 H 445.887 0.550973 -0.370574 0
M  V30 4681 H 448.417 1.26847 -1.60534 0
M  V30 4682 H 448.427 3.71352 -1.69002 0
M  V30 4683 H 447.102 3.16191 -2.70177 0
M  V30 4684 H 445.679 3.61207 -0.926492 0
M  V30 4685 N 447.864 1.01787 1.20321 0
M  V30 4686 C 449.141 0.622978 1.85414 0
M  V30 4687 C 449.521 -0.898887 1.91006 0
M  V30 4688 O 448.869 -1.79112 1.41884 0
M  V30 4689 C 449.079 1.27226 3.24984 0
M  V30 4690 C 450.427 1.3885 4.01255 0
M  V30 4691 O 451.451 1.22857 3.34342 0
M  V30 4692 O 450.31 1.64705 5.2109 0
M  V30 4693 H 447.404 0.215116 0.798533 0
M  V30 4694 H 449.95 1.11533 1.27901 0
M  V30 4695 H 448.722 2.31209 3.15687 0
M  V30 4696 H 448.345 0.767069 3.90131 0
M  V30 4697 N 449.342 -1.36122 0.79427 0
M  V30 4698 C 450.619 -1.93398 0.292685 0
M  V30 4699 C 450.999 -1.72567 -1.21589 0
M  V30 4700 O 450.347 -1.08745 -2.00965 0
M  V30 4701 C 450.557 -3.42099 0.690614 0
M  V30 4702 C 451.905 -4.19231 0.673105 0
M  V30 4703 O 452.929 -3.50559 0.631389 0
M  V30 4704 O 451.788 -5.41732 0.720362 0
M  V30 4705 H 448.882 -0.823712 0.0736693 0
M  V30 4706 H 451.428 -1.45273 0.87714 0
M  V30 4707 H 450.2 -3.50938 1.73085 0
M  V30 4708 H 449.823 -3.97519 0.0803036 0
M  V30 4709 N 450.82 -0.546701 -1.47814 0
M  V30 4710 C 451.73 0.21026 -2.33656 0
M  V30 4711 C 452.746 0.922413 -1.47538 0
M  V30 4712 O 453.922 0.893652 -1.80488 0
M  V30 4713 C 450.987 1.23348 -3.24016 0
M  V30 4714 C 450.048 0.529883 -4.26017 0
M  V30 4715 C 449.281 1.50435 -5.12059 0
M  V30 4716 O 449.504 2.73837 -5.00369 0
M  V30 4717 O 448.438 1.03459 -5.92942 0
M  V30 4718 H 452.264 -0.493605 -2.99662 0
M  V30 4719 H 449.849 -0.307427 -1.46203 0
M  V30 4720 H 451.731 1.82438 -3.79861 0
M  V30 4721 H 450.406 1.91945 -2.60651 0
M  V30 4722 H 449.313 -0.101948 -3.73961 0
M  V30 4723 H 450.646 -0.11445 -4.92067 0
M  V30 4724 N 452.299 1.55045 -0.282633 0
M  V30 4725 C 453.576 1.9179 0.384166 0
M  V30 4726 C 453.956 1.20778 1.73136 0
M  V30 4727 O 453.304 0.33719 2.25998 0
M  V30 4728 C 453.514 3.45149 0.517014 0
M  V30 4729 C 454.862 4.17064 0.796427 0
M  V30 4730 O 455.886 3.51084 0.601535 0
M  V30 4731 O 454.745 5.33837 1.16962 0
M  V30 4732 H 451.839 0.799483 0.211558 0
M  V30 4733 H 454.385 1.66474 -0.32934 0
M  V30 4734 H 453.157 3.88922 -0.430772 0
M  V30 4735 H 452.78 3.76443 1.2797 0
M  V30 4736 N 453.777 0.010035 1.57597 0
M  V30 4737 C 454.687 -0.994226 2.12491 0
M  V30 4738 C 455.703 -1.37013 1.07254 0
M  V30 4739 O 456.879 -1.45542 1.3921 0
M  V30 4740 C 453.944 -2.2642 2.62555 0
M  V30 4741 C 453.005 -1.95049 3.82432 0
M  V30 4742 C 452.238 -3.15991 4.30099 0
M  V30 4743 O 452.461 -4.28015 3.7704 0
M  V30 4744 O 451.395 -2.99403 5.22151 0
M  V30 4745 H 455.221 -0.557549 2.98538 0
M  V30 4746 H 452.806 -0.209413 1.47925 0
M  V30 4747 H 454.688 -3.01009 2.9491 0
M  V30 4748 H 453.363 -2.69306 1.796 0
M  V30 4749 H 452.27 -1.17904 3.55034 0
M  V30 4750 H 453.603 -1.56992 4.66491 0
M  V30 4751 N 455.255 -1.55392 -0.262866 0
M  V30 4752 C 456.48 -1.80847 -1.01533 0
M  V30 4753 C 456.905 -0.584946 -1.78774 0
M  V30 4754 O 456.263 0.465701 -1.75217 0
M  V30 4755 C 456.311 -3.03866 -1.94159 0
M  V30 4756 O 455.415 -2.79662 -3.03089 0
M  V30 4757 H 454.756 -0.597441 -0.289759 0
M  V30 4758 H 457.286 -2.02553 -0.288698 0
M  V30 4759 H 457.296 -3.32872 -2.35924 0
M  V30 4760 H 455.971 -3.92564 -1.37354 0
M  V30 4761 H 454.548 -2.61781 -2.65566 0
M  V30 4762 N 456.733 0.527833 -1.48498 0
M  V30 4763 C 457.958 1.313 -1.60546 0
M  V30 4764 C 458.383 1.86199 -0.26672 0
M  V30 4765 O 457.741 1.64513 0.761918 0
M  V30 4766 C 457.789 2.43818 -2.65678 0
M  V30 4767 O 456.893 3.46916 -2.22987 0
M  V30 4768 H 456.234 0.388784 -0.538277 0
M  V30 4769 H 458.764 0.634896 -1.945 0
M  V30 4770 H 458.774 2.89973 -2.87018 0
M  V30 4771 H 457.449 2.03222 -3.62869 0
M  V30 4772 H 456.026 3.06864 -2.11869 0
M  V30 4773 N 458.211 1.37122 0.776871 0
M  V30 4774 C 459.121 1.34651 1.9211 0
M  V30 4775 C 460.137 0.246824 1.7224 0
M  V30 4776 O 461.313 0.48134 1.95563 0
M  V30 4777 C 458.378 1.14748 3.2716 0
M  V30 4778 C 457.439 2.34308 3.5972 0
M  V30 4779 C 456.672 2.15345 4.88326 0
M  V30 4780 O 456.895 1.13507 5.58992 0
M  V30 4781 O 455.829 3.03414 5.1983 0
M  V30 4782 H 459.655 2.31013 1.97146 0
M  V30 4783 H 457.24 1.17799 0.918901 0
M  V30 4784 H 459.122 1.05616 4.0795 0
M  V30 4785 H 457.797 0.214562 3.22988 0
M  V30 4786 H 456.704 2.49011 2.79185 0
M  V30 4787 H 458.037 3.26149 3.68629 0
M  V30 4788 N 459.689 -1.00246 1.21608 0
M  V30 4789 C 460.621 -2.09244 0.935401 0
M  V30 4790 C 461.634 -1.62592 -0.0823594 0
M  V30 4791 O 462.823 -1.77865 0.150456 0
M  V30 4792 C 459.923 -3.36724 0.383453 0
M  V30 4793 C 459.096 -4.1245 1.45615 0
M  V30 4794 C 458.155 -5.18219 0.912991 0
M  V30 4795 O 457.181 -5.46337 1.59701 0
M  V30 4796 N 458.383 -5.7987 -0.270478 0
M  V30 4797 H 461.148 -2.33905 1.87373 0
M  V30 4798 H 458.709 -1.16748 1.12167 0
M  V30 4799 H 460.701 -4.047 0.00562157 0
M  V30 4800 H 459.271 -3.09201 -0.459758 0
M  V30 4801 H 458.491 -3.39241 2.00772 0
M  V30 4802 H 459.779 -4.59819 2.17817 0
M  V30 4803 H 459.177 -5.59381 -0.843195 0
M  V30 4804 H 457.734 -6.49126 -0.589794 0
M  V30 4805 N 461.167 -1.02423 -1.1978 0
M  V30 4806 C 462.395 -0.737456 -1.93311 0
M  V30 4807 C 462.81 0.703023 -1.75223 0
M  V30 4808 O 462.167 1.47761 -1.07112 0
M  V30 4809 C 462.218 -1.0733 -3.45199 0
M  V30 4810 O 461.939 -2.4572 -3.62702 0
M  V30 4811 C 463.44 -0.80866 -4.35862 0
M  V30 4812 H 460.66 -0.2702 -0.614193 0
M  V30 4813 H 463.204 -1.36747 -1.52054 0
M  V30 4814 H 461.359 -0.488545 -3.84307 0
M  V30 4815 H 461.773 -2.58081 -4.56612 0
M  V30 4816 H 463.247 -1.09365 -5.41057 0
M  V30 4817 H 463.724 0.257025 -4.38447 0
M  V30 4818 H 464.33 -1.37592 -4.02428 0
M  V30 4819 N 462.645 1.35699 -0.801477 0
M  V30 4820 C 463.892 1.98913 -0.379459 0
M  V30 4821 C 464.22 1.63592 1.05204 0
M  V30 4822 O 463.475 0.888563 1.74365 0
M  V30 4823 C 463.774 3.53828 -0.504041 0
M  V30 4824 C 463.44 4.09002 -1.8981 0
M  V30 4825 C 462.102 4.23783 -2.27951 0
M  V30 4826 C 464.454 4.38939 -2.81038 0
M  V30 4827 C 461.782 4.65816 -3.56696 0
M  V30 4828 C 464.134 4.82409 -4.09224 0
M  V30 4829 C 462.798 4.95395 -4.4737 0
M  V30 4830 H 462.068 0.727874 -0.138854 0
M  V30 4831 H 464.715 1.61994 -1.02128 0
M  V30 4832 H 463.02 3.91175 0.221242 0
M  V30 4833 H 464.717 4.00687 -0.158361 0
M  V30 4834 H 461.307 3.97946 -1.59176 0
M  V30 4835 H 465.491 4.27077 -2.52821 0
M  V30 4836 H 460.747 4.74059 -3.86106 0
M  V30 4837 H 464.921 5.04535 -4.80018 0
M  V30 4838 H 462.548 5.27724 -5.47185 0
M  V30 4839 N 464.123 0.554532 1.47522 0
M  V30 4840 C 465.056 -0.242442 2.26908 0
M  V30 4841 C 466.034 -0.922722 1.33883 0
M  V30 4842 O 467.218 -0.942244 1.63261 0
M  V30 4843 C 464.345 -1.34525 3.10839 0
M  V30 4844 C 463.391 -0.773805 4.19422 0
M  V30 4845 S 464.224 0.377525 5.34168 0
M  V30 4846 C 465.38 -0.727164 6.21662 0
M  V30 4847 H 465.613 0.431218 2.94156 0
M  V30 4848 H 463.146 0.3408 1.50592 0
M  V30 4849 H 465.104 -1.97683 3.59766 0
M  V30 4850 H 463.765 -1.99073 2.42958 0
M  V30 4851 H 462.958 -1.60187 4.77866 0
M  V30 4852 H 462.56 -0.218448 3.73361 0
M  V30 4853 H 464.852 -1.61992 6.57849 0
M  V30 4854 H 465.795 -0.180135 7.07871 0
M  V30 4855 H 466.203 -1.01863 5.55233 0
M  V30 4856 N 465.601 -1.54893 0.290851 0
M  V30 4857 C 466.831 -2.04047 -0.323818 0
M  V30 4858 C 467.239 -1.16809 -1.48837 0
M  V30 4859 O 466.582 -0.184145 -1.82775 0
M  V30 4860 C 466.644 -3.49248 -0.852395 0
M  V30 4861 C 466.308 -4.56623 0.185557 0
M  V30 4862 C 467.305 -5.09985 1.01053 0
M  V30 4863 C 464.99 -5.01252 0.324332 0
M  V30 4864 C 466.984 -6.06507 1.96031 0
M  V30 4865 C 464.671 -5.97596 1.27757 0
M  V30 4866 C 465.669 -6.50107 2.09405 0
M  V30 4867 O 465.357 -7.44565 3.03114 0
M  V30 4868 H 465.089 -0.671735 -0.0758129 0
M  V30 4869 H 467.643 -2.00947 0.425393 0
M  V30 4870 H 465.873 -3.49639 -1.65195 0
M  V30 4871 H 467.562 -3.81654 -1.38185 0
M  V30 4872 H 468.328 -4.76307 0.914129 0
M  V30 4873 H 464.207 -4.60015 -0.301213 0
M  V30 4874 H 467.751 -6.47418 2.598 0
M  V30 4875 H 463.648 -6.30691 1.37473 0
M  V30 4876 H 464.416 -7.62334 2.97976 0
M  V30 4877 N 467.08 -0.0183926 -1.57589 0
M  V30 4878 C 468.31 0.67207 -1.95363 0
M  V30 4879 C 468.718 1.66807 -0.892872 0
M  V30 4880 O 468.061 1.83204 0.134958 0
M  V30 4881 C 468.123 1.44397 -3.29226 0
M  V30 4882 C 467.787 0.607511 -4.52944 0
M  V30 4883 C 468.784 -0.112657 -5.19778 0
M  V30 4884 C 466.469 0.548068 -4.99301 0
M  V30 4885 C 468.463 -0.881057 -6.31281 0
M  V30 4886 C 466.15 -0.224044 -6.10689 0
M  V30 4887 C 467.148 -0.937323 -6.76538 0
M  V30 4888 O 466.836 -1.6968 -7.85789 0
M  V30 4889 H 466.568 0.190925 -0.648478 0
M  V30 4890 H 469.122 -0.0711994 -2.05277 0
M  V30 4891 H 467.352 2.23214 -3.15773 0
M  V30 4892 H 469.041 2.02152 -3.51979 0
M  V30 4893 H 469.807 -0.0759998 -4.8494 0
M  V30 4894 H 465.686 1.09281 -4.4786 0
M  V30 4895 H 469.23 -1.43832 -6.82611 0
M  V30 4896 H 465.127 -0.262457 -6.44966 0
M  V30 4897 H 465.895 -1.61544 -8.024 0
M  V30 4898 N 468.558 1.5553 0.254621 0
M  V30 4899 C 469.804 1.77262 0.985193 0
M  V30 4900 C 470.137 0.582286 1.85265 0
M  V30 4901 O 469.412 -0.419666 1.89919 0
M  V30 4902 C 469.695 3.0881 1.85225 0
M  V30 4903 C 469.548 4.38233 1.0135 0
M  V30 4904 C 470.867 3.3653 2.83612 0
M  V30 4905 H 467.986 0.644906 0.356742 0
M  V30 4906 H 470.628 1.88264 0.256236 0
M  V30 4907 H 468.778 2.99562 2.47376 0
M  V30 4908 H 470.45 4.59463 0.411269 0
M  V30 4909 H 468.693 4.32636 0.317574 0
M  V30 4910 H 469.364 5.26644 1.65379 0
M  V30 4911 H 471.84 3.45691 2.31596 0
M  V30 4912 H 470.716 4.29805 3.41407 0
M  V30 4913 H 470.977 2.57064 3.59681 0
M  V30 4914 N 470.036 -0.519951 1.48776 0
M  V30 4915 C 470.984 -1.64443 1.64503 0
M  V30 4916 C 471.978 -1.61501 0.511248 0
M  V30 4917 O 473.184 -1.66238 0.690294 0
M  V30 4918 H 469.559 -0.544776 0.518385 0
M  V30 4919 H 471.53 -1.48325 2.58925 0
M  V30 4920 C 470.279 -3.02673 1.71127 0
M  V30 4921 H 469.602 -3.05635 2.57735 0
M  V30 4922 H 471.042 -3.80941 1.86172 0
M  V30 4923 C 469.501 -3.33854 0.452032 0
M  V30 4924 O 470.031 -3.99385 -0.430678 0
M  V30 4925 N 468.237 -2.88825 0.32069 0
M  V30 4926 H 467.784 -2.35674 1.03998 0
M  V30 4927 H 467.742 -3.10056 -0.520814 0
M  V30 4928 N 471.514 -1.37532 -0.769588 0
M  V30 4929 C 472.791 -1.23392 -1.51768 0
M  V30 4930 C 473.171 0.17157 -2.10402 0
M  V30 4931 O 472.519 1.17943 -1.95708 0
M  V30 4932 C 472.729 -2.33163 -2.59685 0
M  V30 4933 C 474.077 -2.70809 -3.27028 0
M  V30 4934 O 475.101 -2.32355 -2.69981 0
M  V30 4935 O 473.96 -3.37066 -4.30173 0
M  V30 4936 H 471.054 -0.481617 -0.67229 0
M  V30 4937 H 473.6 -1.49318 -0.806368 0
M  V30 4938 H 472.372 -3.27273 -2.14494 0
M  V30 4939 H 471.995 -2.08713 -3.38415 0
M  V30 4940 N 472.992 0.995999 -1.22138 0
M  V30 4941 C 474.24 1.73167 -1.042 0
M  V30 4942 C 474.561 1.90329 0.42423 0
M  V30 4943 O 473.831 1.4607 1.30539 0
M  V30 4944 H 472.411 0.641593 -0.38258 0
M  V30 4945 H 475.073 1.19974 -1.53598 0
M  V30 4946 H 474.169 2.72734 -1.51731 0
M  V30 4947 N 474.47 1.03057 1.19235 0
M  V30 4948 C 475.716 0.729098 1.89241 0
M  V30 4949 C 476.049 -0.740573 1.79525 0
M  V30 4950 O 475.324 -1.53946 1.18874 0
M  V30 4951 C 475.607 1.18304 3.40112 0
M  V30 4952 C 475.46 2.71406 3.5869 0
M  V30 4953 C 476.779 0.765161 4.33397 0
M  V30 4954 H 473.898 0.266338 0.687192 0
M  V30 4955 H 476.54 1.28079 1.40341 0
M  V30 4956 H 474.69 0.713672 3.81889 0
M  V30 4957 H 476.362 3.26303 3.26074 0
M  V30 4958 H 474.605 3.11717 3.01687 0
M  V30 4959 H 475.276 2.98225 4.64506 0
M  V30 4960 H 477.752 1.16889 3.99345 0
M  V30 4961 H 476.628 1.11065 5.37546 0
M  V30 4962 H 476.889 -0.332372 4.40849 0
M  V30 4963 N 475.948 -1.35272 0.808662 0
M  V30 4964 C 477.178 -2.02652 0.401953 0
M  V30 4965 C 477.586 -1.6108 -0.992462 0
M  V30 4966 O 476.929 -0.804984 -1.65123 0
M  V30 4967 C 476.991 -3.57174 0.408246 0
M  V30 4968 C 476.655 -4.22019 1.75353 0
M  V30 4969 C 477.652 -4.43552 2.71215 0
M  V30 4970 C 475.337 -4.59093 2.03811 0
M  V30 4971 C 477.331 -5.01264 3.93717 0
M  V30 4972 C 475.018 -5.16519 3.26576 0
M  V30 4973 C 476.016 -5.37546 4.21347 0
M  V30 4974 O 475.704 -5.93761 5.41944 0
M  V30 4975 H 475.436 -0.656495 0.161216 0
M  V30 4976 H 477.99 -1.73829 1.0942 0
M  V30 4977 H 476.22 -3.85197 -0.340608 0
M  V30 4978 H 477.909 -4.05893 0.0235623 0
M  V30 4979 H 478.675 -4.15288 2.50522 0
M  V30 4980 H 474.554 -4.42039 1.30854 0
M  V30 4981 H 478.098 -5.17592 4.67701 0
M  V30 4982 H 473.995 -5.4421 3.47139 0
M  V30 4983 H 474.763 -6.1221 5.43269 0
M  V30 4984 N 477.426 -0.562348 -1.47226 0
M  V30 4985 C 478.674 -0.0401371 -2.0206 0
M  V30 4986 C 478.995 1.3165 -1.43852 0
M  V30 4987 O 478.265 1.85976 -0.615599 0
M  V30 4988 H 476.845 -0.0118479 -0.746906 0
M  V30 4989 H 479.507 -0.73352 -1.8057 0
M  V30 4990 H 478.603 0.0441254 -3.12069 0
M  V30 4991 N 478.904 1.54736 -0.299062 0
M  V30 4992 C 480.129 2.04975 0.316254 0
M  V30 4993 C 480.554 1.17501 1.46885 0
M  V30 4994 O 479.912 0.178678 1.80417 0
M  V30 4995 C 479.96 3.52672 0.751997 0
M  V30 4996 O 479.064 3.68226 1.85697 0
M  V30 4997 H 478.405 0.661126 0.0617175 0
M  V30 4998 H 480.935 1.99805 -0.440341 0
M  V30 4999 H 480.945 3.94488 1.04133 0
M  V30 5000 H 479.62 4.158 -0.0911482 0
M  V30 5001 H 478.197 3.38316 1.56834 0
M  V30 5002 N 480.382 0.0267497 1.57577 0
M  V30 5003 C 481.629 -0.652404 1.91703 0
M  V30 5004 C 481.957 -1.72271 0.902936 0
M  V30 5005 O 481.212 -1.955 -0.0884843 0
M  V30 5006 C 481.511 -1.30914 3.3256 0
M  V30 5007 C 481.177 -0.369441 4.49384 0
M  V30 5008 C 479.839 -0.110791 4.81072 0
M  V30 5009 C 482.191 0.275971 5.20469 0
M  V30 5010 C 479.519 0.801116 5.81205 0
M  V30 5011 C 481.871 1.17592 6.21575 0
M  V30 5012 C 480.535 1.44348 6.51705 0
M  V30 5013 H 479.805 -0.238732 0.70149 0
M  V30 5014 H 482.452 0.0880091 1.91298 0
M  V30 5015 H 480.757 -2.12425 3.29216 0
M  V30 5016 H 482.454 -1.84115 3.56234 0
M  V30 5017 H 479.044 -0.581211 4.24641 0
M  V30 5018 H 483.228 0.0892 4.9622 0
M  V30 5019 H 478.484 1.01614 6.02897 0
M  V30 5020 H 482.658 1.68223 6.75777 0
M  V30 5021 H 480.285 2.15176 7.29111 0
M  V30 5022 N 481.861 -1.55662 -0.24637 0
M  V30 5023 C 482.809 -1.91186 -1.3248 0
M  V30 5024 C 483.803 -0.790996 -1.49799 0
M  V30 5025 O 485.009 -0.975617 -1.51267 0
M  V30 5026 H 481.384 -0.607207 -0.443626 0
M  V30 5027 H 483.355 -2.81221 -0.997853 0
M  V30 5028 C 482.104 -2.22349 -2.67313 0
M  V30 5029 H 481.427 -3.08097 -2.54786 0
M  V30 5030 H 482.867 -2.51107 -3.41645 0
M  V30 5031 C 481.326 -1.04001 -3.20446 0
M  V30 5032 O 481.856 -0.28828 -4.00664 0
M  V30 5033 N 480.062 -0.830494 -2.7848 0
M  V30 5034 H 479.609 -1.4435 -2.13356 0
M  V30 5035 H 479.567 -0.0403258 -3.14374 0
M  V30 5036 N 483.339 0.512053 -1.4905 0
M  V30 5037 C 484.579 1.27715 -1.59588 0
M  V30 5038 C 484.943 1.90071 -0.271502 0
M  V30 5039 O 486.144 2.67616 -0.251987 0
M  V30 5040 C 484.415 2.32399 -2.71524 0
M  V30 5041 S 485.974 3.18396 -3.01943 0
M  V30 5042 H 482.792 0.43419 -0.563027 0
M  V30 5043 H 485.394 0.581315 -1.86657 0
M  V30 5044 H 484.098 1.85101 -3.66287 0
M  V30 5045 H 483.629 3.06667 -2.46412 0
M  V30 5046 H 485.644 4.32842 -2.42616 0
M  V30 5047 N 484.817 1.37938 0.762283 0
M  V30 5048 C 486.066 1.32989 1.51647 0
M  V30 5049 C 486.379 -0.0802922 1.95435 0
M  V30 5050 O 487.585 -0.252295 2.70325 0
M  V30 5051 C 486.041 2.33485 2.73885 0
M  V30 5052 C 485.649 3.80079 2.37157 0
M  V30 5053 C 487.393 2.37563 3.51801 0
M  V30 5054 C 485.3 4.72283 3.55954 0
M  V30 5055 H 484.23 0.494301 0.56937 0
M  V30 5056 H 486.881 1.63448 0.834083 0
M  V30 5057 H 485.263 1.96056 3.44061 0
M  V30 5058 H 486.437 4.26398 1.74704 0
M  V30 5059 H 484.752 3.79037 1.72395 0
M  V30 5060 H 487.349 3.0365 4.40114 0
M  V30 5061 H 487.692 1.39199 3.92338 0
M  V30 5062 H 488.225 2.73747 2.8863 0
M  V30 5063 H 484.964 5.7181 3.2049 0
M  V30 5064 H 484.484 4.30663 4.1748 0
M  V30 5065 H 486.163 4.89876 4.22647 0
M  V30 5066 N 486.295 -0.989507 1.22664 0
M  V30 5067 C 487.225 -2.09847 1.02404 0
M  V30 5068 C 488.206 -1.70007 -0.0561303 0
M  V30 5069 O 489.391 -1.93906 0.106748 0
M  V30 5070 C 486.521 -3.41996 0.604663 0
M  V30 5071 C 485.475 -3.95699 1.63115 0
M  V30 5072 C 484.801 -5.23936 1.0675 0
M  V30 5073 C 486.101 -4.25999 3.02196 0
M  V30 5074 H 487.795 -2.27054 1.95158 0
M  V30 5075 H 485.341 -1.09111 0.939727 0
M  V30 5076 H 487.294 -4.1899 0.45002 0
M  V30 5077 H 486.018 -3.24626 -0.35855 0
M  V30 5078 H 484.677 -3.2084 1.77362 0
M  V30 5079 H 484.325 -5.02909 0.0955422 0
M  V30 5080 H 484.025 -5.60833 1.75328 0
M  V30 5081 H 485.549 -6.0356 0.924516 0
M  V30 5082 H 486.963 -4.93777 2.91303 0
M  V30 5083 H 485.36 -4.74076 3.67929 0
M  V30 5084 H 486.43 -3.33636 3.51873 0
M  V30 5085 N 487.773 -1.03688 -1.18687 0
M  V30 5086 C 489.003 -0.756819 -1.92239 0
M  V30 5087 C 489.411 0.689374 -1.76194 0
M  V30 5088 O 488.754 1.48126 -1.08648 0
M  V30 5089 C 488.816 -1.03851 -3.44173 0
M  V30 5090 C 488.48 -2.47785 -3.83994 0
M  V30 5091 C 489.477 -3.4595 -3.88091 0
M  V30 5092 C 487.162 -2.82397 -4.154 0
M  V30 5093 C 489.156 -4.76779 -4.23038 0
M  V30 5094 C 486.843 -4.13433 -4.50018 0
M  V30 5095 C 487.841 -5.10434 -4.53813 0
M  V30 5096 O 487.529 -6.39122 -4.87625 0
M  V30 5097 H 487.261 -0.275678 -0.617234 0
M  V30 5098 H 489.815 -1.38658 -1.51536 0
M  V30 5099 H 488.045 -0.351612 -3.85098 0
M  V30 5100 H 489.734 -0.746846 -3.9897 0
M  V30 5101 H 490.5 -3.20549 -3.63969 0
M  V30 5102 H 486.379 -2.07568 -4.11627 0
M  V30 5103 H 489.923 -5.52488 -4.25914 0
M  V30 5104 H 485.82 -4.38604 -4.736 0
M  V30 5105 H 486.588 -6.43715 -5.05542 0
M  V30 5106 N 489.251 1.34841 -0.815825 0
M  V30 5107 C 490.528 1.92908 -0.323416 0
M  V30 5108 C 490.908 1.74479 1.18828 0
M  V30 5109 O 490.256 1.11928 1.99209 0
M  V30 5110 C 490.466 3.40957 -0.744952 0
M  V30 5111 C 491.814 4.18107 -0.739716 0
M  V30 5112 O 492.838 3.49511 -0.68708 0
M  V30 5113 O 491.697 5.40517 -0.806456 0
M  V30 5114 H 488.791 0.822436 -0.0867646 0
M  V30 5115 H 491.337 1.4386 -0.90014 0
M  V30 5116 H 490.109 3.4814 -1.78646 0
M  V30 5117 H 489.732 3.97341 -0.143535 0
M  V30 5118 N 490.729 0.570148 1.46925 0
M  V30 5119 C 491.679 -0.190921 2.27199 0
M  V30 5120 C 492.663 -0.873457 1.35128 0
M  V30 5121 O 493.855 -0.769627 1.59392 0
M  V30 5122 C 490.984 -1.21204 3.21192 0
M  V30 5123 C 490.07 -0.532261 4.20747 0
M  V30 5124 N 490.461 0.405038 5.04176 0
M  V30 5125 C 488.759 -0.784582 4.39045 0
M  V30 5126 C 489.46 0.801149 5.76157 0
M  V30 5127 N 488.436 0.153082 5.43384 0
M  V30 5128 H 492.238 0.529535 2.8909 0
M  V30 5129 H 489.752 0.391019 1.57622 0
M  V30 5130 H 491.749 -1.77135 3.77398 0
M  V30 5131 H 490.409 -1.93345 2.6086 0
M  V30 5132 H 491.42 0.779903 5.11994 0
M  V30 5133 H 488.097 -1.49352 3.89872 0
M  V30 5134 H 489.487 1.57208 6.5325 0
M  V30 5135 N 492.207 -1.54576 0.307264 0
M  V30 5136 C 493.17 -2.22423 -0.553224 0
M  V30 5137 C 494.17 -1.21231 -1.05639 0
M  V30 5138 O 495.36 -1.45923 -0.951419 0
M  V30 5139 C 492.492 -2.91552 -1.76664 0
M  V30 5140 H 493.685 -2.99874 0.0396484 0
M  V30 5141 H 491.238 -1.56192 0.0581629 0
M  V30 5142 H 491.973 -2.18196 -2.39918 0
M  V30 5143 H 491.758 -3.65738 -1.41343 0
M  V30 5144 H 493.248 -3.43292 -2.37783 0
M  V30 5145 N 493.685 -0.035106 -1.57561 0
M  V30 5146 C 494.635 0.954034 -2.0708 0
M  V30 5147 C 495.619 1.2818 -0.972558 0
M  V30 5148 O 496.811 1.26691 -1.23606 0
M  V30 5149 C 493.94 2.23442 -2.60631 0
M  V30 5150 C 493.026 1.93475 -3.77396 0
M  V30 5151 N 493.417 1.33802 -4.87781 0
M  V30 5152 C 491.715 2.23434 -3.85996 0
M  V30 5153 C 492.416 1.21103 -5.68954 0
M  V30 5154 N 491.392 1.70855 -5.16052 0
M  V30 5155 H 495.194 0.487731 -2.89825 0
M  V30 5156 H 492.708 0.169759 -1.6151 0
M  V30 5157 H 494.705 2.95183 -2.94402 0
M  V30 5158 H 493.365 2.70693 -1.79319 0
M  V30 5159 H 494.376 1.01227 -5.07911 0
M  V30 5160 H 491.053 2.73317 -3.15601 0
M  V30 5161 H 492.443 0.749105 -6.67711 0
M  V30 5162 N 495.163 1.55791 0.238111 0
M  V30 5163 C 496.409 1.78297 0.966337 0
M  V30 5164 C 496.742 0.601903 1.84637 0
M  V30 5165 O 496.017 -0.399499 1.90353 0
M  V30 5166 C 496.3 3.10758 1.81939 0
M  V30 5167 C 496.153 4.39283 0.966958 0
M  V30 5168 C 497.472 3.39519 2.80027 0
M  V30 5169 H 494.591 0.648654 0.349882 0
M  V30 5170 H 497.233 1.88525 0.236253 0
M  V30 5171 H 495.383 3.02168 2.44185 0
M  V30 5172 H 497.055 4.59873 0.362514 0
M  V30 5173 H 495.298 4.32948 0.271669 0
M  V30 5174 H 495.969 5.28368 1.59784 0
M  V30 5175 H 498.445 3.48128 2.27917 0
M  V30 5176 H 497.321 4.33402 3.36829 0
M  V30 5177 H 497.582 2.60864 3.56934 0
M  V30 5178 N 496.642 -0.504142 1.49319 0
M  V30 5179 C 497.589 -1.60603 1.65756 0
M  V30 5180 C 498.559 -1.58425 0.499082 0
M  V30 5181 O 499.744 -1.76459 0.725728 0
M  V30 5182 C 496.884 -2.98764 1.72726 0
M  V30 5183 C 495.997 -3.10982 2.99857 0
M  V30 5184 C 495.132 -4.39857 2.97824 0
M  V30 5185 C 494.171 -4.45697 4.19548 0
M  V30 5186 N 493.308 -5.65995 4.15444 0
M  V30 5187 H 498.148 -1.45895 2.59843 0
M  V30 5188 H 495.685 -0.709891 1.28837 0
M  V30 5189 H 497.643 -3.78839 1.74747 0
M  V30 5190 H 496.273 -3.12183 0.821075 0
M  V30 5191 H 495.325 -2.23991 3.07461 0
M  V30 5192 H 496.637 -3.11157 3.89849 0
M  V30 5193 H 495.791 -5.2825 2.98391 0
M  V30 5194 H 494.53 -4.42242 2.05604 0
M  V30 5195 H 493.535 -3.55707 4.19229 0
M  V30 5196 H 494.76 -4.4503 5.12957 0
M  V30 5197 H 492.706 -5.69229 3.26059 0
M  V30 5198 H 492.623 -5.67773 4.99169 0
M  V30 5199 H 493.891 -6.56604 4.20109 0
M  V30 5200 N 498.12 -1.38341 -0.754957 0
M  V30 5201 C 499.531 -1.30803 -1.3322 0
M  V30 5202 C 499.882 0.0368 -1.96165 0
M  V30 5203 O 499.007 0.938844 -1.94974 0
M  V30 5204 C 499.602 -2.3688 -2.42225 0
M  V30 5205 C 498.161 -2.32925 -2.95674 0
M  V30 5206 C 497.308 -2.19819 -1.69042 0
M  V30 5207 H 500.259 -1.48719 -0.553937 0
M  V30 5208 H 500.28 -2.02517 -3.22129 0
M  V30 5209 H 499.792 -3.34747 -1.96383 0
M  V30 5210 H 497.893 -1.38635 -3.45848 0
M  V30 5211 H 498.006 -3.27008 -3.50146 0
M  V30 5212 H 496.37 -1.66648 -1.92615 0
M  V30 5213 H 497.153 -3.19625 -1.25279 0
M  V30 5214 N 499.598 0.982988 -1.23187 0
M  V30 5215 C 500.528 2.09301 -1.03515 0
M  V30 5216 C 501.509 1.70035 0.0471136 0
M  V30 5217 O 502.694 1.93847 -0.117029 0
M  V30 5218 C 499.824 3.4167 -0.622791 0
M  V30 5219 C 498.778 3.94828 -1.65211 0
M  V30 5220 C 498.104 5.23362 -1.09527 0
M  V30 5221 C 499.404 4.2439 -3.04451 0
M  V30 5222 H 501.098 2.26016 -1.96359 0
M  V30 5223 H 498.644 1.08611 -0.945501 0
M  V30 5224 H 500.597 4.18746 -0.472233 0
M  V30 5225 H 499.321 3.24811 0.341329 0
M  V30 5226 H 497.98 3.19895 -1.79061 0
M  V30 5227 H 497.628 5.02852 -0.122211 0
M  V30 5228 H 497.328 5.59895 -1.783 0
M  V30 5229 H 498.852 6.03062 -0.956511 0
M  V30 5230 H 500.266 4.92225 -2.93917 0
M  V30 5231 H 498.663 4.72118 -3.70438 0
M  V30 5232 H 499.733 3.31765 -3.53638 0
M  V30 5233 N 501.076 1.04316 1.18135 0
M  V30 5234 C 502.006 0.657299 2.24058 0
M  V30 5235 C 502.987 -0.340678 1.66654 0
M  V30 5236 O 504.172 -0.220223 1.92947 0
M  V30 5237 C 501.302 0.0220715 3.47293 0
M  V30 5238 C 500.256 0.943857 4.17463 0
M  V30 5239 C 499.582 0.172973 5.3442 0
M  V30 5240 C 500.882 2.26409 4.70677 0
M  V30 5241 H 502.576 1.5428 2.56589 0
M  V30 5242 H 500.122 0.743263 1.23335 0
M  V30 5243 H 502.075 -0.259607 4.206 0
M  V30 5244 H 500.799 -0.898323 3.14003 0
M  V30 5245 H 499.458 1.20996 3.46057 0
M  V30 5246 H 499.106 -0.749907 4.97379 0
M  V30 5247 H 498.806 0.787098 5.82304 0
M  V30 5248 H 500.33 -0.101628 6.10515 0
M  V30 5249 H 501.744 2.04294 5.35665 0
M  V30 5250 H 500.141 2.8314 5.29105 0
M  V30 5251 H 501.211 2.90883 3.87962 0
M  V30 5252 N 502.554 -1.34406 0.822964 0
M  V30 5253 C 503.486 -2.28305 0.202375 0
M  V30 5254 C 504.499 -1.5103 -0.60777 0
M  V30 5255 O 505.688 -1.73057 -0.437444 0
M  V30 5256 C 502.788 -3.30836 -0.734911 0
M  V30 5257 C 501.961 -4.37388 0.0324177 0
M  V30 5258 C 501.02 -5.1968 -0.825803 0
M  V30 5259 O 500.046 -5.68556 -0.270771 0
M  V30 5260 N 501.248 -5.39393 -2.14558 0
M  V30 5261 H 504.013 -2.82201 1.00909 0
M  V30 5262 H 501.574 -1.4693 0.67993 0
M  V30 5263 H 503.566 -3.82786 -1.31365 0
M  V30 5264 H 502.136 -2.77334 -1.44238 0
M  V30 5265 H 501.356 -3.86152 0.792469 0
M  V30 5266 H 502.644 -5.05702 0.560633 0
M  V30 5267 H 502.042 -5.01357 -2.62025 0
M  V30 5268 H 500.599 -5.94461 -2.67318 0
M  V30 5269 N 504.032 -0.577932 -1.46621 0
M  V30 5270 C 504.979 0.158048 -2.30258 0
M  V30 5271 C 505.949 0.888669 -1.40328 0
M  V30 5272 O 507.134 0.880283 -1.6928 0
M  V30 5273 C 504.274 1.16884 -3.24703 0
M  V30 5274 C 503.387 0.442163 -4.29731 0
M  V30 5275 C 502.522 1.44007 -5.11308 0
M  V30 5276 C 501.561 0.69952 -6.0809 0
M  V30 5277 N 500.698 1.64525 -6.82551 0
M  V30 5278 H 505.538 -0.561242 -2.92667 0
M  V30 5279 H 503.075 -0.288591 -1.44241 0
M  V30 5280 H 505.033 1.7677 -3.779 0
M  V30 5281 H 503.663 1.85591 -2.64113 0
M  V30 5282 H 502.715 -0.271632 -3.79429 0
M  V30 5283 H 504.027 -0.136992 -4.98612 0
M  V30 5284 H 503.181 2.11186 -5.68758 0
M  V30 5285 H 501.92 2.05315 -4.42377 0
M  V30 5286 H 500.925 0.0139217 -5.49798 0
M  V30 5287 H 502.15 0.091894 -6.79038 0
M  V30 5288 H 500.096 2.24653 -6.16334 0
M  V30 5289 H 500.013 1.11878 -7.47676 0
M  V30 5290 H 501.281 2.30754 -7.44562 0
M  V30 5291 N 505.51 1.54411 -0.315457 0
M  V30 5292 C 506.926 1.59556 0.037464 0
M  V30 5293 C 507.126 1.33217 1.5118 0
M  V30 5294 O 506.182 1.11264 2.26664 0
M  V30 5295 C 507.495 2.98372 -0.373477 0
M  V30 5296 C 509.043 3.11324 -0.323452 0
M  V30 5297 C 509.518 4.52472 -0.709433 0
M  V30 5298 N 511.009 4.58437 -0.662524 0
M  V30 5299 C 511.744 5.65751 -0.933474 0
M  V30 5300 N 511.24 6.81039 -1.27114 0
M  V30 5301 N 513.033 5.55489 -0.859573 0
M  V30 5302 H 505.184 1.6979 -1.27614 0
M  V30 5303 H 507.447 0.793732 -0.518356 0
M  V30 5304 H 507.153 3.22618 -1.40037 0
M  V30 5305 H 507.027 3.76264 0.265615 0
M  V30 5306 H 509.414 2.86818 0.694223 0
M  V30 5307 H 509.495 2.35555 -0.997367 0
M  V30 5308 H 509.139 4.7771 -1.72498 0
M  V30 5309 H 509.069 5.26598 -0.0132923 0
M  V30 5310 H 511.56 3.75636 -0.413065 0
M  V30 5311 H 511.873 7.58816 -1.46348 0
M  V30 5312 H 510.218 6.82555 -1.30932 0
M  V30 5313 H 513.409 4.64299 -0.595324 0
M  V30 5314 H 513.582 6.39036 -1.0741 0
M  V30 5315 N 506.988 0.0434614 1.5754 0
M  V30 5316 C 508.399 -0.493343 1.80064 0
M  V30 5317 C 508.75 -1.71388 0.955023 0
M  V30 5318 O 507.875 -2.15736 0.169434 0
M  V30 5319 C 508.47 -0.90179 3.26578 0
M  V30 5320 C 507.029 -1.38362 3.50047 0
M  V30 5321 C 506.176 -0.355129 2.75017 0
M  V30 5322 H 509.127 0.2694 1.56397 0
M  V30 5323 H 509.148 -1.76523 3.37075 0
M  V30 5324 H 508.66 -0.013271 3.88098 0
M  V30 5325 H 506.761 -2.29159 2.93798 0
M  V30 5326 H 506.874 -1.3811 4.58762 0
M  V30 5327 H 505.238 -0.826348 2.40922 0
M  V30 5328 H 506.021 0.525172 3.39259 0
M  V30 5329 N 508.466 -1.55915 -0.229846 0
M  V30 5330 C 509.413 -1.91734 -1.28478 0
M  V30 5331 C 510.383 -0.773539 -1.46988 0
M  V30 5332 O 511.568 -1.02871 -1.60693 0
M  V30 5333 C 508.708 -2.23224 -2.63182 0
M  V30 5334 C 507.821 -3.50497 -2.52539 0
M  V30 5335 C 506.956 -3.71474 -3.79711 0
M  V30 5336 C 505.995 -4.92289 -3.63755 0
M  V30 5337 N 505.132 -5.09698 -4.82858 0
M  V30 5338 H 509.972 -2.81692 -0.972308 0
M  V30 5339 H 507.509 -1.39429 -0.468815 0
M  V30 5340 H 509.467 -2.3949 -3.41614 0
M  V30 5341 H 508.097 -1.36451 -2.92542 0
M  V30 5342 H 507.149 -3.4247 -1.65585 0
M  V30 5343 H 508.461 -4.39079 -2.36666 0
M  V30 5344 H 507.615 -3.87791 -4.66586 0
M  V30 5345 H 506.354 -2.81157 -3.985 0
M  V30 5346 H 505.359 -4.7593 -2.75264 0
M  V30 5347 H 506.584 -5.84083 -3.46445 0
M  V30 5348 H 504.53 -4.22322 -5.01976 0
M  V30 5349 H 504.447 -5.92399 -4.69681 0
M  V30 5350 H 505.715 -5.30443 -5.71183 0
M  V30 5351 N 509.944 0.496216 -1.49584 0
M  V30 5352 C 511.355 1.07765 -1.52459 0
M  V30 5353 C 511.706 1.93679 -0.31353 0
M  V30 5354 O 510.831 2.08588 0.576186 0
M  V30 5355 C 511.426 1.96111 -2.76271 0
M  V30 5356 C 509.985 2.49409 -2.81908 0
M  V30 5357 C 509.132 1.27142 -2.46435 0
M  V30 5358 H 512.083 0.279914 -1.56212 0
M  V30 5359 H 512.104 2.80862 -2.56704 0
M  V30 5360 H 511.616 1.33555 -3.64396 0
M  V30 5361 H 509.717 3.1559 -1.98074 0
M  V30 5362 H 509.83 2.86234 -3.84196 0
M  V30 5363 H 508.194 1.59818 -1.98319 0
M  V30 5364 H 508.977 0.662866 -3.3684 0
M  V30 5365 N 511.423 1.38739 0.74761 0
M  V30 5366 C 512.7 1.25791 1.49786 0
M  V30 5367 C 513.08 -0.138075 2.10648 0
M  V30 5368 O 512.428 -1.14815 1.9756 0
M  V30 5369 C 512.638 2.37265 2.55942 0
M  V30 5370 C 513.986 2.75978 3.22679 0
M  V30 5371 O 515.01 2.36621 2.6625 0
M  V30 5372 O 513.869 3.43867 4.24756 0
M  V30 5373 H 510.963 0.492251 0.664543 0
M  V30 5374 H 513.509 1.50582 0.782511 0
M  V30 5375 H 512.281 3.30644 2.0926 0
M  V30 5376 H 511.904 2.14071 3.35051 0
M  V30 5377 N 512.901 -0.976442 1.23707 0
M  V30 5378 C 513.811 -2.10359 1.03856 0
M  V30 5379 C 514.827 -1.73991 -0.0180919 0
M  V30 5380 O 516.003 -2.0061 0.178211 0
M  V30 5381 C 513.068 -3.40809 0.636387 0
M  V30 5382 C 512.129 -3.91179 1.76854 0
M  V30 5383 C 511.362 -5.15404 1.38546 0
M  V30 5384 O 511.585 -5.69754 0.27142 0
M  V30 5385 O 510.519 -5.5994 2.20797 0
M  V30 5386 H 514.345 -2.29997 1.98331 0
M  V30 5387 H 511.93 -1.08742 1.02448 0
M  V30 5388 H 513.812 -4.19269 0.423223 0
M  V30 5389 H 512.487 -3.22493 -0.279322 0
M  V30 5390 H 511.394 -3.13819 2.03638 0
M  V30 5391 H 512.727 -4.13958 2.6627 0
M  V30 5392 N 514.379 -1.04941 -1.1758 0
M  V30 5393 C 515.326 -0.648155 -2.21512 0
M  V30 5394 C 516.296 0.348431 -1.62404 0
M  V30 5395 O 517.481 0.240419 -1.89279 0
M  V30 5396 C 514.621 -0.0264291 -3.4509 0
M  V30 5397 C 513.734 -1.07154 -4.185 0
M  V30 5398 C 512.869 -0.417403 -5.29558 0
M  V30 5399 C 511.908 -1.447 -5.94751 0
M  V30 5400 N 511.045 -0.817203 -6.97328 0
M  V30 5401 H 515.885 -1.53891 -2.55189 0
M  V30 5402 H 513.422 -0.769699 -1.25356 0
M  V30 5403 H 515.38 0.351456 -4.15717 0
M  V30 5404 H 514.01 0.827802 -3.12005 0
M  V30 5405 H 513.062 -1.56728 -3.46613 0
M  V30 5406 H 514.374 -1.8532 -4.63096 0
M  V30 5407 H 513.528 0.0142061 -6.06698 0
M  V30 5408 H 512.267 0.396265 -4.86087 0
M  V30 5409 H 511.272 -1.88865 -5.16343 0
M  V30 5410 H 512.497 -2.26252 -6.40302 0
M  V30 5411 H 510.443 -0.0239995 -6.55996 0
M  V30 5412 H 510.36 -1.53644 -7.40223 0
M  V30 5413 H 511.628 -0.410283 -7.7842 0
M  V30 5414 N 515.857 1.33968 -0.830081 0
M  V30 5415 C 517.087 2.01987 -0.434142 0
M  V30 5416 C 517.495 1.62639 0.96671 0
M  V30 5417 O 516.838 0.831151 1.63822 0
M  V30 5418 C 516.9 3.5648 -0.465018 0
M  V30 5419 C 516.564 4.19176 -1.82045 0
M  V30 5420 C 517.561 4.39181 -2.78237 0
M  V30 5421 C 515.246 4.55792 -2.11089 0
M  V30 5422 C 517.24 4.94937 -4.01642 0
M  V30 5423 C 514.927 5.11258 -3.34752 0
M  V30 5424 C 515.925 5.30775 -4.29845 0
M  V30 5425 O 515.613 5.85064 -5.51322 0
M  V30 5426 H 515.345 0.653847 -0.171639 0
M  V30 5427 H 517.899 1.72066 -1.12171 0
M  V30 5428 H 516.129 3.8569 0.279284 0
M  V30 5429 H 517.818 4.05804 -0.0881334 0
M  V30 5430 H 518.584 4.11249 -2.57097 0
M  V30 5431 H 514.463 4.39901 -1.3787 0
M  V30 5432 H 518.007 5.10086 -4.75876 0
M  V30 5433 H 513.904 5.38619 -3.55753 0
M  V30 5434 H 514.672 6.03489 -5.5294 0
M  V30 5435 N 517.335 0.585699 1.46312 0
M  V30 5436 C 518.565 0.0780166 2.06453 0
M  V30 5437 C 518.973 -1.2336 1.43454 0
M  V30 5438 O 518.316 -1.75734 0.535086 0
M  V30 5439 C 518.378 -0.158951 3.59148 0
M  V30 5440 C 518.042 1.06752 4.44357 0
M  V30 5441 C 519.039 1.98031 4.80708 0
M  V30 5442 C 516.724 1.2902 4.85447 0
M  V30 5443 C 518.718 3.09924 5.5698 0
M  V30 5444 C 516.405 2.41218 5.61478 0
M  V30 5445 C 517.403 3.31499 5.97158 0
M  V30 5446 O 517.091 4.41747 6.71651 0
M  V30 5447 H 516.823 0.0558894 0.673686 0
M  V30 5448 H 519.377 0.806994 1.88883 0
M  V30 5449 H 517.607 -0.942575 3.75037 0
M  V30 5450 H 519.296 -0.615513 4.01206 0
M  V30 5451 H 520.062 1.82043 4.49539 0
M  V30 5452 H 515.941 0.596567 4.57124 0
M  V30 5453 H 519.485 3.80415 5.84748 0
M  V30 5454 H 515.382 2.57167 5.9206 0
M  V30 5455 H 516.15 4.40152 6.90079 0
M  V30 5456 N 518.813 -1.54241 0.323641 0
M  V30 5457 C 520.038 -2.05452 -0.283605 0
M  V30 5458 C 520.463 -1.19823 -1.44997 0
M  V30 5459 O 519.821 -0.207358 -1.8011 0
M  V30 5460 C 519.869 -3.53823 -0.695795 0
M  V30 5461 O 518.973 -3.71134 -1.79815 0
M  V30 5462 H 518.314 -0.662024 -0.0511917 0
M  V30 5463 H 520.844 -1.99079 0.472073 0
M  V30 5464 H 520.854 -3.96094 -0.978434 0
M  V30 5465 H 519.529 -4.15602 0.157287 0
M  V30 5466 H 518.106 -3.40768 -1.51431 0
M  V30 5467 N 520.291 -0.0518155 -1.57515 0
M  V30 5468 C 521.516 0.634896 -1.97443 0
M  V30 5469 C 521.941 1.63546 -0.929207 0
M  V30 5470 O 521.299 1.80981 0.107484 0
M  V30 5471 C 521.347 1.29765 -3.36442 0
M  V30 5472 O 520.451 2.41333 -3.34413 0
M  V30 5473 H 519.792 0.164994 -0.643174 0
M  V30 5474 H 522.322 -0.120407 -2.04245 0
M  V30 5475 H 522.332 1.64918 -3.73184 0
M  V30 5476 H 521.007 0.564361 -4.12053 0
M  V30 5477 H 519.584 2.08122 -3.09418 0
M  V30 5478 N 521.769 1.56035 0.221574 0
M  V30 5479 C 522.994 1.83476 0.967026 0
M  V30 5480 C 523.419 0.632139 1.7716 0
M  V30 5481 O 522.777 -0.419082 1.7639 0
M  V30 5482 C 522.825 3.08907 1.86034 0
M  V30 5483 O 521.929 2.876 2.95567 0
M  V30 5484 H 521.27 0.604913 0.273817 0
M  V30 5485 H 523.8 2.03247 0.234893 0
M  V30 5486 H 523.81 3.3901 2.27016 0
M  V30 5487 H 522.485 3.96068 1.26898 0
M  V30 5488 H 521.062 2.6873 2.58532 0
M  V30 5489 N 523.247 -0.488276 1.49845 0
M  V30 5490 C 524.496 -1.23826 1.59217 0
M  V30 5491 C 524.809 -1.93439 0.289966 0
M  V30 5492 O 526.015 -2.70229 0.262382 0
M  V30 5493 C 524.471 -2.24902 2.80976 0
M  V30 5494 C 524.079 -1.6117 4.18005 0
M  V30 5495 C 525.823 -3.00648 2.99685 0
M  V30 5496 C 523.73 -2.60431 5.3097 0
M  V30 5497 H 522.66 -0.465858 0.592868 0
M  V30 5498 H 525.311 -0.510645 1.76252 0
M  V30 5499 H 523.693 -3.0088 2.57463 0
M  V30 5500 H 524.867 -0.910968 4.51706 0
M  V30 5501 H 523.182 -0.97767 4.0476 0
M  V30 5502 H 525.779 -3.74903 3.81251 0
M  V30 5503 H 526.122 -3.5902 2.10738 0
M  V30 5504 H 526.655 -2.31784 3.23297 0
M  V30 5505 H 523.394 -2.06823 6.22017 0
M  V30 5506 H 522.914 -3.28707 5.01709 0
M  V30 5507 H 524.593 -3.22606 5.60834 0
M  V30 5508 N 524.725 -1.39134 -0.740242 0
M  V30 5509 C 525.971 -1.37278 -1.50088 0
M  V30 5510 C 526.326 0.0329967 -1.92372 0
M  V30 5511 O 525.619 0.998447 -1.63529 0
M  V30 5512 C 525.813 -2.27457 -2.75678 0
M  V30 5513 C 525.642 -3.76662 -2.45674 0
M  V30 5514 C 524.412 -4.45617 -2.38229 0
M  V30 5515 C 526.61 -4.6877 -2.11563 0
M  V30 5516 N 524.592 -5.80187 -2.00641 0
M  V30 5517 C 525.963 -5.91951 -1.84376 0
M  V30 5518 C 528.018 -4.56843 -1.97987 0
M  V30 5519 C 526.721 -7.04538 -1.4498 0
M  V30 5520 C 528.747 -5.69347 -1.59994 0
M  V30 5521 C 528.109 -6.91597 -1.33687 0
M  V30 5522 H 524.208 -0.557611 -0.548265 0
M  V30 5523 H 526.792 -1.74638 -0.860784 0
M  V30 5524 H 524.963 -1.92263 -3.37475 0
M  V30 5525 H 526.695 -2.16631 -3.41838 0
M  V30 5526 H 523.45 -3.98993 -2.5515 0
M  V30 5527 H 523.874 -6.51387 -1.84454 0
M  V30 5528 H 528.516 -3.62868 -2.16995 0
M  V30 5529 H 526.234 -7.98419 -1.24712 0
M  V30 5530 H 529.82 -5.62104 -1.50102 0
M  V30 5531 H 528.7 -7.77176 -1.04728 0
M  V30 5532 N 526.204 0.969867 -1.24223 0
M  V30 5533 C 527.452 1.70918 -1.0785 0
M  V30 5534 C 527.773 1.91186 0.383763 0
M  V30 5535 O 527.043 1.48806 1.27411 0
M  V30 5536 H 525.623 0.633334 -0.396103 0
M  V30 5537 H 528.285 1.16689 -1.56108 0
M  V30 5538 H 527.381 2.69455 -1.57482 0
M  V30 5539 N 527.682 1.05563 1.17022 0
M  V30 5540 C 529.093 0.793475 1.69 0
M  V30 5541 C 529.444 -0.683882 1.83895 0
M  V30 5542 O 528.569 -1.53116 1.5292 0
M  V30 5543 C 529.164 1.43376 3.06967 0
M  V30 5544 C 527.723 1.21956 3.56095 0
M  V30 5545 C 526.87 1.51494 2.3226 0
M  V30 5546 H 529.821 1.22008 1.01487 0
M  V30 5547 H 529.842 0.845068 3.70997 0
M  V30 5548 H 529.354 2.50899 2.96093 0
M  V30 5549 H 527.455 0.163749 3.7224 0
M  V30 5550 H 527.568 1.92713 4.38633 0
M  V30 5551 H 525.932 0.935175 2.3691 0
M  V30 5552 H 526.715 2.60159 2.23992 0
M  V30 5553 N 529.16 -1.33526 0.837174 0
M  V30 5554 C 530.388 -2.02047 0.445494 0
M  V30 5555 C 530.803 -1.62995 -0.952788 0
M  V30 5556 O 530.16 -0.842447 -1.61892 0
M  V30 5557 C 530.211 -3.57221 0.554577 0
M  V30 5558 O 529.932 -3.94863 1.89776 0
M  V30 5559 C 531.433 -4.43012 0.159634 0
M  V30 5560 H 528.653 -0.647221 0.177048 0
M  V30 5561 H 531.197 -1.70492 1.12928 0
M  V30 5562 H 529.352 -3.87315 -0.0812781 0
M  V30 5563 H 529.766 -4.89569 1.88208 0
M  V30 5564 H 531.24 -5.51253 0.28701 0
M  V30 5565 H 531.717 -4.29916 -0.898289 0
M  V30 5566 H 532.323 -4.18274 0.769855 0
M  V30 5567 N 530.638 -0.59345 -1.46 0
M  V30 5568 C 531.878 -0.0859747 -2.04219 0
M  V30 5569 C 532.242 1.25432 -1.45364 0
M  V30 5570 O 533.443 1.85168 -1.9485 0
M  V30 5571 C 531.714 -0.0324314 -3.57385 0
M  V30 5572 S 533.273 0.415908 -4.36824 0
M  V30 5573 H 530.091 -0.0426872 -0.709717 0
M  V30 5574 H 532.693 -0.788369 -1.78899 0
M  V30 5575 H 531.397 -1.01166 -3.97735 0
M  V30 5576 H 530.928 0.6924 -3.87259 0
M  V30 5577 H 532.943 1.66844 -4.67309 0
M  V30 5578 N 532.116 1.54067 -0.331816 0
M  V30 5579 C 533.393 1.92915 0.322955 0
M  V30 5580 C 533.773 1.26225 1.69205 0
M  V30 5581 O 533.121 0.408919 2.24811 0
M  V30 5582 C 533.331 3.46619 0.406946 0
M  V30 5583 C 534.679 4.19386 0.663339 0
M  V30 5584 O 535.703 3.5282 0.489536 0
M  V30 5585 O 534.562 5.37288 0.999193 0
M  V30 5586 H 531.656 0.805808 0.186016 0
M  V30 5587 H 534.202 1.65342 -0.382135 0
M  V30 5588 H 532.974 3.87354 -0.554287 0
M  V30 5589 H 532.597 3.80324 1.15929 0
M  V30 5590 N 533.594 0.0601682 1.57485 0
M  V30 5591 C 534.842 -0.610386 1.92662 0
M  V30 5592 C 535.163 -1.70849 0.939981 0
M  V30 5593 O 534.433 -1.95895 -0.0137455 0
M  V30 5594 H 533.013 -0.228457 0.711208 0
M  V30 5595 H 535.675 0.115288 1.94559 0
M  V30 5596 H 534.771 -1.0432 2.94149 0
M  V30 5597 N 535.072 -1.5615 -0.213296 0
M  V30 5598 C 536.002 -1.96109 -1.26742 0
M  V30 5599 C 536.983 -0.830448 -1.48451 0
M  V30 5600 O 538.168 -1.09339 -1.60495 0
M  V30 5601 C 535.298 -2.28492 -2.61551 0
M  V30 5602 C 534.252 -3.44124 -2.54485 0
M  V30 5603 C 533.578 -3.62134 -3.93399 0
M  V30 5604 C 534.878 -4.78855 -2.08556 0
M  V30 5605 H 536.572 -2.84412 -0.935434 0
M  V30 5606 H 534.118 -1.36836 -0.44854 0
M  V30 5607 H 536.071 -2.55039 -3.3546 0
M  V30 5608 H 534.795 -1.37052 -2.96453 0
M  V30 5609 H 533.454 -3.17639 -1.83033 0
M  V30 5610 H 533.102 -2.68055 -4.25623 0
M  V30 5611 H 532.802 -4.39913 -3.89551 0
M  V30 5612 H 534.326 -3.91038 -4.68958 0
M  V30 5613 H 535.74 -5.04552 -2.72213 0
M  V30 5614 H 534.137 -5.59975 -2.1575 0
M  V30 5615 H 535.207 -4.73657 -1.03811 0
M  V30 5616 N 536.55 0.480323 -1.50102 0
M  V30 5617 C 537.827 1.24159 -1.51142 0
M  V30 5618 C 538.207 2.09605 -0.250818 0
M  V30 5619 O 537.555 2.15274 0.766118 0
M  V30 5620 C 537.765 2.08057 -2.80202 0
M  V30 5621 C 539.113 2.66556 -3.30504 0
M  V30 5622 O 540.137 2.18308 -2.81461 0
M  V30 5623 O 538.996 3.54442 -4.15973 0
M  V30 5624 H 536.09 0.562928 -0.605839 0
M  V30 5625 H 538.636 0.492899 -1.62384 0
M  V30 5626 H 537.408 1.45032 -3.6343 0
M  V30 5627 H 537.031 2.90079 -2.71919 0
M  V30 5628 N 538.028 1.39524 0.732853 0
M  V30 5629 C 539.444 1.21176 1.03868 0
M  V30 5630 C 539.644 0.0748448 2.01361 0
M  V30 5631 O 538.7 -0.57281 2.45917 0
M  V30 5632 C 540.013 2.54667 1.59892 0
M  V30 5633 C 541.561 2.6153 1.71962 0
M  V30 5634 C 542.036 3.95248 2.31394 0
M  V30 5635 N 543.527 3.96899 2.38801 0
M  V30 5636 C 544.262 4.97138 2.85729 0
M  V30 5637 N 543.758 6.07775 3.32537 0
M  V30 5638 N 545.551 4.84516 2.84957 0
M  V30 5639 H 537.702 2.12225 0.086304 0
M  V30 5640 H 539.965 0.942614 0.100907 0
M  V30 5641 H 539.671 3.38423 0.95721 0
M  V30 5642 H 539.545 2.74538 2.58668 0
M  V30 5643 H 541.932 1.78156 2.35254 0
M  V30 5644 H 542.013 2.45507 0.718327 0
M  V30 5645 H 541.657 4.79054 1.68729 0
M  V30 5646 H 541.587 4.08593 3.32204 0
M  V30 5647 H 544.078 3.16998 2.05719 0
M  V30 5648 H 544.391 6.8017 3.66862 0
M  V30 5649 H 542.736 6.11366 3.30541 0
M  V30 5650 H 545.927 3.97185 2.47713 0
M  V30 5651 H 546.1 5.62783 3.21215 0
M  V30 5652 N 539.506 -0.963266 1.24736 0
M  V30 5653 C 540.755 -1.70115 1.08369 0
M  V30 5654 C 541.068 -1.91939 -0.376688 0
M  V30 5655 O 542.274 -2.6334 -0.660624 0
M  V30 5656 C 540.73 -3.06218 1.89099 0
M  V30 5657 C 540.338 -2.92221 3.39574 0
M  V30 5658 C 542.082 -3.83848 1.81275 0
M  V30 5659 C 539.989 -4.23662 4.12631 0
M  V30 5660 H 538.919 -0.637944 0.401924 0
M  V30 5661 H 541.57 -1.07304 1.48856 0
M  V30 5662 H 539.952 -3.69884 1.41429 0
M  V30 5663 H 541.126 -2.37541 3.94856 0
M  V30 5664 H 539.441 -2.28054 3.48397 0
M  V30 5665 H 542.038 -4.81188 2.33158 0
M  V30 5666 H 542.381 -4.08949 0.778895 0
M  V30 5667 H 542.914 -3.26918 2.26649 0
M  V30 5668 H 539.653 -4.03753 5.16395 0
M  V30 5669 H 539.173 -4.78141 3.62135 0
M  V30 5670 H 540.852 -4.92256 4.19873 0
M  V30 5671 N 540.985 -1.06182 -1.16461 0
M  V30 5672 C 542.231 -0.779015 -1.87241 0
M  V30 5673 C 542.564 0.692715 -1.81425 0
M  V30 5674 O 541.839 1.5074 -1.22913 0
M  V30 5675 C 542.122 -1.2728 -3.36856 0
M  V30 5676 C 541.975 -2.80821 -3.51368 0
M  V30 5677 C 543.294 -0.879799 -4.31216 0
M  V30 5678 H 540.413 -0.284464 -0.679889 0
M  V30 5679 H 543.055 -1.31755 -1.36896 0
M  V30 5680 H 541.205 -0.814673 -3.79862 0
M  V30 5681 H 542.877 -3.34833 -3.17308 0
M  V30 5682 H 541.12 -3.19606 -2.93316 0
M  V30 5683 H 541.791 -3.10435 -4.56436 0
M  V30 5684 H 544.267 -1.27436 -3.96105 0
M  V30 5685 H 543.143 -1.25278 -5.34412 0
M  V30 5686 H 543.404 0.215372 -4.41575 0
M  V30 5687 N 542.463 1.3308 -0.844243 0
M  V30 5688 C 543.373 2.32876 -0.283922 0
M  V30 5689 C 544.389 1.63589 0.592846 0
M  V30 5690 O 545.565 1.95205 0.495693 0
M  V30 5691 C 542.63 3.42667 0.527283 0
M  V30 5692 C 541.691 4.27664 -0.374394 0
M  V30 5693 C 540.924 5.32212 0.39819 0
M  V30 5694 O 541.147 5.46635 1.62932 0
M  V30 5695 O 540.081 6.01458 -0.2306 0
M  V30 5696 H 543.907 2.82671 -1.11045 0
M  V30 5697 H 541.492 1.36518 -0.606903 0
M  V30 5698 H 543.374 4.09652 0.988078 0
M  V30 5699 H 542.049 2.95079 1.33078 0
M  V30 5700 H 540.956 3.63526 -0.883144 0
M  V30 5701 H 542.289 4.78749 -1.1428 0
M  V30 5702 N 543.941 0.601185 1.45683 0
M  V30 5703 C 545.357 0.264315 1.57396 0
M  V30 5704 C 545.557 -1.23324 1.59353 0
M  V30 5705 O 544.613 -2.01594 1.52039 0
M  V30 5706 C 545.926 0.929839 2.85962 0
M  V30 5707 C 547.474 0.905156 2.99626 0
M  V30 5708 C 547.949 1.55057 4.30954 0
M  V30 5709 N 549.44 1.51576 4.37697 0
M  V30 5710 C 550.175 1.98436 5.37969 0
M  V30 5711 N 549.671 2.53352 6.44813 0
M  V30 5712 N 551.464 1.89242 5.29286 0
M  V30 5713 H 543.615 1.57363 1.42656 0
M  V30 5714 H 545.878 0.658831 0.681649 0
M  V30 5715 H 545.584 1.98404 2.90394 0
M  V30 5716 H 545.458 0.449224 3.74515 0
M  V30 5717 H 547.845 -0.14048 2.94765 0
M  V30 5718 H 547.926 1.42397 2.12501 0
M  V30 5719 H 547.57 2.5955 4.36573 0
M  V30 5720 H 547.5 1.00682 5.16886 0
M  V30 5721 H 549.991 1.11452 3.61091 0
M  V30 5722 H 550.304 2.86918 7.17564 0
M  V30 5723 H 548.649 2.57388 6.45582 0
M  V30 5724 H 551.84 1.46083 4.44722 0
M  V30 5725 H 552.013 2.26075 6.07284 0
M  V30 5726 N 545.419 -1.53889 0.339982 0
M  V30 5727 C 546.659 -2.02765 -0.258011 0
M  V30 5728 C 547.023 -1.22249 -1.48051 0
M  V30 5729 O 548.224 -1.61007 -2.15245 0
M  V30 5730 C 546.495 -3.5286 -0.567872 0
M  V30 5731 S 548.054 -4.23647 -1.14318 0
M  V30 5732 H 544.872 -0.706814 -0.0770389 0
M  V30 5733 H 547.474 -1.89594 0.476917 0
M  V30 5734 H 546.178 -4.09073 0.329745 0
M  V30 5735 H 545.709 -3.70144 -1.33256 0
M  V30 5736 H 547.724 -4.32676 -2.42911 0
M  V30 5737 N 546.897 -0.0685191 -1.57451 0
M  V30 5738 C 548.174 0.642167 -1.84758 0
M  V30 5739 C 548.554 1.87991 -0.960344 0
M  V30 5740 O 547.902 2.28485 -0.0257894 0
M  V30 5741 C 548.112 0.982946 -3.34872 0
M  V30 5742 C 549.46 1.35784 -4.02303 0
M  V30 5743 O 550.484 1.07477 -3.39598 0
M  V30 5744 O 549.343 1.88681 -5.12895 0
M  V30 5745 H 546.437 0.318625 -0.763156 0
M  V30 5746 H 548.983 -0.0992015 -1.6941 0
M  V30 5747 H 547.755 0.10372 -3.91163 0
M  V30 5748 H 547.378 1.78119 -3.55471 0
M  V30 5749 N 548.375 1.56261 0.205012 0
M  V30 5750 C 549.305 1.96779 1.257 0
M  V30 5751 C 550.286 0.838309 1.48008 0
M  V30 5752 O 551.471 1.10189 1.59913 0
M  V30 5753 C 548.601 2.29876 2.60335 0
M  V30 5754 C 547.555 3.45469 2.52656 0
M  V30 5755 C 546.881 3.64215 3.91473 0
M  V30 5756 C 548.181 4.79954 2.06014 0
M  V30 5757 H 549.875 2.84904 0.920338 0
M  V30 5758 H 547.421 1.37072 0.441277 0
M  V30 5759 H 549.374 2.56814 3.34102 0
M  V30 5760 H 548.098 1.38622 2.95722 0
M  V30 5761 H 546.757 3.18605 1.81345 0
M  V30 5762 H 546.405 2.70309 4.24196 0
M  V30 5763 H 546.105 4.41973 3.87213 0
M  V30 5764 H 547.629 3.93519 4.66878 0
M  V30 5765 H 549.043 5.05989 2.69533 0
M  V30 5766 H 547.44 5.61111 2.12777 0
M  V30 5767 H 548.51 4.74201 1.01297 0
M  V30 5768 N 549.853 -0.472356 1.50355 0
M  V30 5769 C 551.264 -1.05326 1.54154 0
M  V30 5770 C 551.615 -1.93155 0.344303 0
M  V30 5771 O 550.74 -2.09479 -0.542928 0
M  V30 5772 C 551.335 -1.91691 2.79356 0
M  V30 5773 C 549.894 -2.44892 2.8584 0
M  V30 5774 C 549.041 -1.23205 2.48426 0
M  V30 5775 H 551.992 -0.255027 1.56637 0
M  V30 5776 H 552.013 -2.76742 2.6114 0
M  V30 5777 H 551.525 -1.27741 3.66475 0
M  V30 5778 H 549.626 -3.12399 2.0307 0
M  V30 5779 H 549.739 -2.80086 3.88701 0
M  V30 5780 H 548.103 -1.56643 2.00836 0
M  V30 5781 H 548.886 -0.609194 3.37852 0
M  V30 5782 N 551.331 -1.39911 -0.725443 0
M  V30 5783 C 552.241 -1.41688 -1.8698 0
M  V30 5784 C 553.257 -0.310579 -1.71206 0
M  V30 5785 O 554.433 -0.55359 -1.93642 0
M  V30 5786 C 551.498 -1.26811 -3.22676 0
M  V30 5787 C 550.559 -2.47497 -3.50776 0
M  V30 5788 C 549.792 -2.3332 -4.79997 0
M  V30 5789 O 550.015 -1.34175 -5.54394 0
M  V30 5790 O 548.949 -3.22498 -5.08211 0
M  V30 5791 H 552.775 -2.38171 -1.88436 0
M  V30 5792 H 550.36 -1.21128 -0.874548 0
M  V30 5793 H 552.242 -1.20684 -4.03749 0
M  V30 5794 H 550.917 -0.334289 -3.21969 0
M  V30 5795 H 549.824 -2.59201 -2.69751 0
M  V30 5796 H 551.157 -3.39606 -3.5627 0
M  V30 5797 N 552.809 0.956637 -1.25245 0
M  V30 5798 C 553.742 2.05232 -0.99775 0
M  V30 5799 C 554.72 1.62439 0.0723137 0
M  V30 5800 O 555.904 1.88381 -0.066926 0
M  V30 5801 C 553.031 3.34871 -0.507861 0
M  V30 5802 C 552.077 3.96625 -1.56815 0
M  V30 5803 S 552.91 4.32853 -3.15276 0
M  V30 5804 C 554.066 5.65613 -2.68017 0
M  V30 5805 H 554.299 2.26521 -1.9255 0
M  V30 5806 H 551.832 1.09601 -1.08752 0
M  V30 5807 H 553.79 4.09845 -0.231858 0
M  V30 5808 H 552.451 3.11551 0.399356 0
M  V30 5809 H 551.644 4.90087 -1.17604 0
M  V30 5810 H 551.246 3.28124 -1.79473 0
M  V30 5811 H 553.538 6.43635 -2.11518 0
M  V30 5812 H 554.481 6.09693 -3.60112 0
M  V30 5813 H 554.889 5.24751 -2.0808 0
M  V30 5814 N 554.287 1.06798 1.15896 0
M  V30 5815 C 555.237 0.653213 2.18443 0
M  V30 5816 C 556.221 -0.318763 1.57711 0
M  V30 5817 O 557.413 -0.133388 1.76497 0
M  V30 5818 C 554.542 0.0465785 3.43268 0
M  V30 5819 C 553.628 1.04336 4.11066 0
M  V30 5820 N 554.019 2.22084 4.54436 0
M  V30 5821 C 552.317 0.875433 4.37324 0
M  V30 5822 C 553.018 2.85276 5.06944 0
M  V30 5823 N 551.994 2.12973 5.00143 0
M  V30 5824 H 555.796 1.55011 2.49698 0
M  V30 5825 H 553.31 0.940384 1.32403 0
M  V30 5826 H 555.307 -0.26843 4.16035 0
M  V30 5827 H 553.967 -0.845504 3.13499 0
M  V30 5828 H 554.978 2.59833 4.48004 0
M  V30 5829 H 551.655 0.0357721 4.17485 0
M  V30 5830 H 553.045 3.85223 5.50503 0
M  V30 5831 N 555.766 -1.3263 0.851289 0
M  V30 5832 C 557.012 -1.9766 0.453694 0
M  V30 5833 C 557.345 -1.67225 -0.987396 0
M  V30 5834 O 556.62 -0.958693 -1.69232 0
M  V30 5835 C 556.903 -3.5344 0.68936 0
M  V30 5836 C 556.756 -3.93517 2.17862 0
M  V30 5837 C 558.075 -4.39866 0.143555 0
M  V30 5838 H 555.194 -0.717989 0.166314 0
M  V30 5839 H 557.836 -1.57068 1.06909 0
M  V30 5840 H 555.986 -3.88147 0.165546 0
M  V30 5841 H 557.658 -3.69006 2.76826 0
M  V30 5842 H 555.901 -3.42798 2.65841 0
M  V30 5843 H 556.572 -5.02065 2.29422 0
M  V30 5844 H 559.048 -4.11875 0.591451 0
M  V30 5845 H 557.924 -5.47858 0.338043 0
M  V30 5846 H 558.185 -4.31696 -0.953466 0
M  V30 5847 N 557.244 -0.608902 -1.45362 0
M  V30 5848 C 558.492 -0.104401 -2.0183 0
M  V30 5849 C 558.813 1.27007 -1.47967 0
M  V30 5850 O 558.083 1.83924 -0.674455 0
M  V30 5851 H 556.663 -0.0356042 -0.746151 0
M  V30 5852 H 559.325 -0.790596 -1.78145 0
M  V30 5853 H 558.421 -0.0551793 -3.12051 0
M  V30 5854 N 558.722 1.53707 -0.348139 0
M  V30 5855 C 559.999 1.93247 0.302475 0
M  V30 5856 C 560.379 1.28012 1.67857 0
M  V30 5857 O 559.727 0.43274 2.24365 0
M  V30 5858 C 559.937 3.47031 0.370159 0
M  V30 5859 C 561.285 4.20066 0.61882 0
M  V30 5860 O 562.309 3.53319 0.452087 0
M  V30 5861 O 561.168 5.38318 0.94215 0
M  V30 5862 H 558.262 0.807736 0.177458 0
M  V30 5863 H 560.808 1.64927 -0.399651 0
M  V30 5864 H 559.58 3.86745 -0.59534 0
M  V30 5865 H 559.203 3.81532 1.11888 0
M  V30 5866 N 560.2 0.0768682 1.57412 0
M  V30 5867 C 561.446 -0.585926 1.94778 0
M  V30 5868 C 561.801 -1.66912 0.956982 0
M  V30 5869 O 561.094 -1.9159 -0.0199454 0
M  V30 5870 C 561.288 -1.20268 3.36557 0
M  V30 5871 C 561.117 -0.18076 4.49337 0
M  V30 5872 C 559.887 0.236362 5.04747 0
M  V30 5873 C 562.085 0.583978 5.10974 0
M  V30 5874 N 560.067 1.24846 6.01071 0
M  V30 5875 C 561.438 1.44841 6.02844 0
M  V30 5876 C 563.493 0.639492 4.93776 0
M  V30 5877 C 562.196 2.36343 6.79363 0
M  V30 5878 C 564.222 1.54204 5.70942 0
M  V30 5879 C 563.584 2.39414 6.62465 0
M  V30 5880 H 559.683 -0.185281 0.759734 0
M  V30 5881 H 562.267 0.155193 1.9408 0
M  V30 5882 H 560.438 -1.9137 3.37982 0
M  V30 5883 H 562.17 -1.82636 3.61146 0
M  V30 5884 H 558.925 -0.14777 4.73369 0
M  V30 5885 H 559.349 1.75217 6.53933 0
M  V30 5886 H 563.991 -0.00510074 4.228 0
M  V30 5887 H 561.709 3.01836 7.49614 0
M  V30 5888 H 565.295 1.5899 5.59655 0
M  V30 5889 H 564.175 3.0812 7.21132 0
M  V30 5890 N 561.678 -1.56367 -0.196722 0
M  V30 5891 C 562.611 -1.89475 -1.2718 0
M  V30 5892 C 563.589 -0.754667 -1.44026 0
M  V30 5893 O 564.773 -1.00551 -1.59442 0
M  V30 5894 C 561.9 -2.12352 -2.63864 0
M  V30 5895 C 560.946 -3.35053 -2.63897 0
M  V30 5896 S 561.779 -4.90228 -2.15492 0
M  V30 5897 C 562.935 -5.16171 -3.54004 0
M  V30 5898 H 563.168 -2.80365 -0.989075 0
M  V30 5899 H 560.701 -1.49125 -0.40014 0
M  V30 5900 H 562.659 -2.26214 -3.42545 0
M  V30 5901 H 561.32 -1.22214 -2.89349 0
M  V30 5902 H 560.513 -3.48182 -3.64397 0
M  V30 5903 H 560.115 -3.20176 -1.93296 0
M  V30 5904 H 562.407 -5.06591 -4.49857 0
M  V30 5905 H 563.35 -6.17938 -3.45771 0
M  V30 5906 H 563.758 -4.43814 -3.48841 0
M  V30 5907 N 563.156 0.464375 -1.50603 0
M  V30 5908 C 564.086 1.56944 -1.72889 0
M  V30 5909 C 565.067 1.59979 -0.577997 0
M  V30 5910 O 566.252 1.76138 -0.817855 0
M  V30 5911 C 563.382 2.95225 -1.8292 0
M  V30 5912 C 562.336 3.07056 -2.98162 0
M  V30 5913 C 561.662 4.47051 -2.93343 0
M  V30 5914 C 562.962 2.83648 -4.38567 0
M  V30 5915 H 564.656 1.38547 -2.65415 0
M  V30 5916 H 562.202 0.665082 -1.27721 0
M  V30 5917 H 564.155 3.72467 -1.97095 0
M  V30 5918 H 562.879 3.14793 -0.870209 0
M  V30 5919 H 561.538 2.32248 -2.83648 0
M  V30 5920 H 561.186 4.63547 -1.95276 0
M  V30 5921 H 560.886 4.55902 -3.70712 0
M  V30 5922 H 562.41 5.26304 -3.09575 0
M  V30 5923 H 563.824 3.50636 -4.53572 0
M  V30 5924 H 562.221 3.03937 -5.17438 0
M  V30 5925 H 563.291 1.79451 -4.50472 0
M  V30 5926 N 564.634 1.40294 0.718013 0
M  V30 5927 C 565.881 1.3844 1.47786 0
M  V30 5928 C 566.209 -0.0140838 1.94495 0
M  V30 5929 O 565.464 -0.998165 1.68331 0
M  V30 5930 C 565.763 2.31814 2.72024 0
M  V30 5931 C 565.429 3.79117 2.44093 0
M  V30 5932 C 564.091 4.19249 2.36185 0
M  V30 5933 C 566.443 4.72212 2.20602 0
M  V30 5934 C 563.771 5.50516 2.02851 0
M  V30 5935 C 566.123 6.03775 1.88781 0
M  V30 5936 C 564.787 6.42953 1.79354 0
M  V30 5937 H 564.057 0.506588 0.540786 0
M  V30 5938 H 566.704 1.72929 0.822663 0
M  V30 5939 H 565.009 1.90501 3.42369 0
M  V30 5940 H 566.706 2.27664 3.30106 0
M  V30 5941 H 563.296 3.47318 2.51133 0
M  V30 5942 H 567.48 4.42026 2.25669 0
M  V30 5943 H 562.736 5.79776 1.94088 0
M  V30 5944 H 566.91 6.75428 1.69617 0
M  V30 5945 H 564.537 7.44584 1.53291 0
M  V30 5946 N 566.112 -0.949982 1.2575 0
M  V30 5947 C 567.022 -2.08109 1.08295 0
M  V30 5948 C 568.038 -1.7399 0.0188181 0
M  V30 5949 O 569.214 -2.00187 0.220724 0
M  V30 5950 C 566.279 -3.39383 0.708534 0
M  V30 5951 C 565.34 -3.8734 1.85111 0
M  V30 5952 C 564.573 -5.12349 1.49447 0
M  V30 5953 O 564.796 -5.6905 0.392212 0
M  V30 5954 O 563.73 -5.5513 2.32624 0
M  V30 5955 H 567.556 -2.25738 2.03165 0
M  V30 5956 H 565.141 -1.06545 1.04731 0
M  V30 5957 H 567.023 -4.18277 0.512061 0
M  V30 5958 H 565.698 -3.23013 -0.210854 0
M  V30 5959 H 564.605 -3.09429 2.10248 0
M  V30 5960 H 565.938 -4.08216 2.74991 0
M  V30 5961 N 567.59 -1.07411 -1.15328 0
M  V30 5962 C 568.538 -0.689316 -2.22151 0
M  V30 5963 C 569.532 0.300156 -1.6672 0
M  V30 5964 O 570.738 0.163804 -1.79253 0
M  V30 5965 H 567.113 -0.204834 -0.723566 0
M  V30 5966 H 569.084 -1.59988 -2.51886 0
M  V30 5967 C 567.833 -0.103848 -3.47545 0
M  V30 5968 H 567.156 -0.856367 -3.90521 0
M  V30 5969 H 568.596 0.127725 -4.23808 0
M  V30 5970 C 567.055 1.15563 -3.1646 0
M  V30 5971 O 567.585 2.242 -3.33312 0
M  V30 5972 N 565.791 1.06203 -2.70498 0
M  V30 5973 H 565.338 0.177933 -2.56985 0
M  V30 5974 H 565.296 1.90553 -2.50074 0
M  V30 5975 N 569.068 1.32177 -0.85831 0
M  V30 5976 C 570.001 2.26823 -0.25035 0
M  V30 5977 C 570.979 1.50571 0.61378 0
M  V30 5978 O 572.163 1.79682 0.569777 0
M  V30 5979 C 569.29 3.32472 0.646556 0
M  V30 5980 C 568.336 4.26255 -0.144675 0
M  V30 5981 S 569.169 5.13608 -1.5155 0
M  V30 5982 C 570.325 6.22778 -0.624408 0
M  V30 5983 H 570.558 2.7804 -1.05267 0
M  V30 5984 H 568.091 1.39764 -0.656152 0
M  V30 5985 H 570.049 3.93817 1.15837 0
M  V30 5986 H 568.71 2.80031 1.42272 0
M  V30 5987 H 567.903 5.01114 0.538613 0
M  V30 5988 H 567.505 3.69346 -0.588198 0
M  V30 5989 H 569.797 6.77287 0.169846 0
M  V30 5990 H 570.74 6.95233 -1.34376 0
M  V30 5991 H 571.148 5.64156 -0.197128 0
M  V30 5992 N 570.547 0.616602 1.45037 0
M  V30 5993 C 571.795 0.115103 2.01772 0
M  V30 5994 C 572.116 -1.2622 1.48639 0
M  V30 5995 O 571.386 -1.83563 0.684199 0
M  V30 5996 H 569.966 0.0395607 0.745952 0
M  V30 5997 H 572.628 0.800032 1.77723 0
M  V30 5998 H 571.724 0.0717274 3.12018 0
M  V30 5999 N 572.025 -1.5352 0.356285 0
M  V30 6000 C 572.988 -2.24071 -0.482182 0
M  V30 6001 C 573.988 -1.24531 -1.01729 0
M  V30 6002 O 575.178 -1.48876 -0.904513 0
M  V30 6003 C 572.31 -2.97025 -1.67299 0
M  V30 6004 H 573.503 -2.99596 0.135031 0
M  V30 6005 H 571.056 -1.55928 0.107825 0
M  V30 6006 H 571.791 -2.25719 -2.32855 0
M  V30 6007 H 571.576 -3.7005 -1.29636 0
M  V30 6008 H 573.066 -3.50683 -2.26741 0
M  V30 6009 N 573.503 -0.0852151 -1.57369 0
M  V30 6010 C 574.733 0.588605 -1.98038 0
M  V30 6011 C 575.141 1.62869 -0.962817 0
M  V30 6012 O 574.484 1.83611 0.057134 0
M  V30 6013 C 574.546 1.30303 -3.35054 0
M  V30 6014 C 574.21 0.414855 -4.55113 0
M  V30 6015 C 575.207 -0.333011 -5.18832 0
M  V30 6016 C 572.892 0.335804 -5.01176 0
M  V30 6017 C 574.886 -1.14801 -6.26976 0
M  V30 6018 C 572.573 -0.482857 -6.09189 0
M  V30 6019 C 573.571 -1.22342 -6.71953 0
M  V30 6020 O 573.259 -2.02855 -7.77885 0
M  V30 6021 H 572.991 0.163249 -0.655992 0
M  V30 6022 H 575.545 -0.1582 -2.0479 0
M  V30 6023 H 573.775 2.0962 -3.24956 0
M  V30 6024 H 575.464 1.87041 -3.60237 0
M  V30 6025 H 576.23 -0.281611 -4.84182 0
M  V30 6026 H 572.109 0.901869 -4.52092 0
M  V30 6027 H 575.653 -1.72654 -6.75897 0
M  V30 6028 H 571.55 -0.535773 -6.43273 0
M  V30 6029 H 572.318 -1.95432 -7.94826 0
M  V30 6030 N 574.981 1.5647 0.188427 0
M  V30 6031 C 576.209 1.85131 0.923803 0
M  V30 6032 C 576.624 0.668537 1.76567 0
M  V30 6033 O 575.981 -0.362662 1.7886 0
M  V30 6034 C 576.032 3.12661 1.81453 0
M  V30 6035 O 575.753 4.26378 1.00665 0
M  V30 6036 C 577.254 3.54548 2.66103 0
M  V30 6037 H 574.474 0.614624 0.269218 0
M  V30 6038 H 577.018 2.03581 0.193671 0
M  V30 6039 H 575.173 2.96088 2.49821 0
M  V30 6040 H 575.587 4.99041 1.61425 0
M  V30 6041 H 577.061 4.4673 3.24247 0
M  V30 6042 H 577.538 2.77853 3.40139 0
M  V30 6043 H 578.144 3.73674 2.03096 0
M  V30 6044 N 576.459 -0.456382 1.50847 0
M  V30 6045 C 577.705 -1.20914 1.62811 0
M  V30 6046 C 578.038 -1.91301 0.334304 0
M  V30 6047 O 577.313 -1.82775 -0.665098 0
M  V30 6048 C 577.596 -2.24122 2.81853 0
M  V30 6049 C 577.449 -1.57944 4.21158 0
M  V30 6050 C 578.768 -3.25295 2.96431 0
M  V30 6051 H 575.887 -0.438233 0.592554 0
M  V30 6052 H 578.529 -0.50091 1.83278 0
M  V30 6053 H 576.679 -2.84524 2.64534 0
M  V30 6054 H 578.351 -1.01025 4.50102 0
M  V30 6055 H 576.594 -0.882185 4.24735 0
M  V30 6056 H 577.265 -2.33014 5.00408 0
M  V30 6057 H 579.741 -2.7493 3.12335 0
M  V30 6058 H 578.617 -3.94822 3.81322 0
M  V30 6059 H 578.878 -3.90286 2.07676 0
M  V30 6060 N 577.937 -1.40673 -0.710563 0
M  V30 6061 C 578.9 -1.4108 -1.80635 0
M  V30 6062 C 579.9 -0.303783 -1.57904 0
M  V30 6063 O 581.09 -0.562937 -1.64853 0
M  V30 6064 C 578.222 -1.20748 -3.18799 0
M  V30 6065 H 579.415 -2.38612 -1.81671 0
M  V30 6066 H 576.968 -1.26595 -0.916704 0
M  V30 6067 H 577.703 -0.239964 -3.23411 0
M  V30 6068 H 577.488 -2.00941 -3.36698 0
M  V30 6069 H 578.978 -1.23833 -3.98817 0
M  V30 6070 N 579.415 0.9433 -1.26252 0
M  V30 6071 C 580.378 2.02326 -1.07689 0
M  V30 6072 C 581.378 1.60779 -0.0259174 0
M  V30 6073 O 582.568 1.72108 -0.269134 0
M  V30 6074 C 579.7 3.34886 -0.63752 0
M  V30 6075 H 580.893 2.20225 -2.0357 0
M  V30 6076 H 578.446 1.12197 -1.08819 0
M  V30 6077 H 579.181 3.22684 0.323377 0
M  V30 6078 H 578.966 3.66393 -1.39637 0
M  V30 6079 H 580.456 4.14231 -0.529418 0
M  V30 6080 N 580.893 1.08022 1.14757 0
M  V30 6081 C 581.856 0.71048 2.1791 0
M  V30 6082 C 582.856 -0.252731 1.58801 0
M  V30 6083 O 584.046 -0.0327915 1.74169 0
M  V30 6084 C 581.178 0.0483203 3.40866 0
M  V30 6085 H 582.371 1.62384 2.52134 0
M  V30 6086 H 579.924 0.877595 1.29337 0
M  V30 6087 H 580.659 -0.876959 3.12218 0
M  V30 6088 H 580.444 0.741189 3.85031 0
M  V30 6089 H 581.934 -0.195471 4.17142 0
M  V30 6090 N 582.371 -1.3172 0.865308 0
M  V30 6091 C 583.596 -2.01591 0.487415 0
M  V30 6092 C 584.021 -1.6455 -0.911307 0
M  V30 6093 O 583.379 -0.851689 -1.6005 0
M  V30 6094 C 583.427 -3.54759 0.646401 0
M  V30 6095 O 582.531 -4.11185 -0.316284 0
M  V30 6096 H 581.872 -0.634884 0.194468 0
M  V30 6097 H 584.402 -1.68024 1.16744 0
M  V30 6098 H 584.412 -4.04438 0.537932 0
M  V30 6099 H 583.087 -3.8106 1.66632 0
M  V30 6100 H 581.664 -3.72543 -0.163162 0
M  V30 6101 N 583.85 -0.624285 -1.44708 0
M  V30 6102 C 585.077 -0.132919 -2.06473 0
M  V30 6103 C 585.493 1.18967 -1.46602 0
M  V30 6104 O 584.85 1.72824 -0.586341 0
M  V30 6105 C 584.901 -0.00465418 -3.615 0
M  V30 6106 O 584.622 -1.27494 -4.19138 0
M  V30 6107 C 586.123 0.516213 -4.40284 0
M  V30 6108 H 583.343 -0.0765201 -0.666623 0
M  V30 6109 H 585.887 -0.856751 -1.85688 0
M  V30 6110 H 584.042 0.669583 -3.8157 0
M  V30 6111 H 584.456 -1.11536 -5.12504 0
M  V30 6112 H 585.93 0.554994 -5.49203 0
M  V30 6113 H 586.407 1.5419 -4.11245 0
M  V30 6114 H 587.013 -0.124542 -4.25118 0
M  V30 6115 N 585.328 1.53329 -0.364422 0
M  V30 6116 C 586.575 2.01239 0.225634 0
M  V30 6117 C 586.903 1.25172 1.48869 0
M  V30 6118 O 586.158 0.333289 1.92841 0
M  V30 6119 C 586.457 3.52911 0.564661 0
M  V30 6120 C 586.123 4.46837 -0.603936 0
M  V30 6121 C 584.785 4.72234 -0.924585 0
M  V30 6122 C 587.137 5.02409 -1.38691 0
M  V30 6123 C 584.465 5.50454 -2.0302 0
M  V30 6124 C 586.817 5.81836 -2.48293 0
M  V30 6125 C 585.481 6.0552 -2.80894 0
M  V30 6126 H 584.751 0.736386 0.0825654 0
M  V30 6127 H 587.398 1.84948 -0.496645 0
M  V30 6128 H 585.703 3.67144 1.36794 0
M  V30 6129 H 587.4 3.87455 1.03344 0
M  V30 6130 H 583.99 4.27217 -0.343983 0
M  V30 6131 H 588.174 4.82735 -1.15243 0
M  V30 6132 H 583.43 5.67024 -2.28678 0
M  V30 6133 H 587.604 6.23905 -3.0938 0
M  V30 6134 H 585.231 6.65916 -3.66688 0
M  V30 6135 N 586.806 0.0935595 1.57322 0
M  V30 6136 C 587.754 -0.883457 2.15169 0
M  V30 6137 C 588.748 -1.29324 1.09415 0
M  V30 6138 O 589.954 -1.26795 1.27762 0
M  V30 6139 H 586.329 -0.302923 0.688289 0
M  V30 6140 H 588.3 -0.370845 2.96087 0
M  V30 6141 C 587.049 -2.13345 2.74552 0
M  V30 6142 H 586.372 -1.82702 3.55612 0
M  V30 6143 H 587.812 -2.7977 3.18598 0
M  V30 6144 C 586.271 -2.90646 1.70371 0
M  V30 6145 O 586.801 -3.85133 1.14173 0
M  V30 6146 N 585.007 -2.54157 1.40899 0
M  V30 6147 H 584.554 -1.77391 1.86789 0
M  V30 6148 H 584.512 -3.06178 0.714301 0
M  V30 6149 N 588.284 -1.56567 -0.180126 0
M  V30 6150 C 589.532 -1.81133 -0.896392 0
M  V30 6151 C 589.853 -0.669114 -1.83161 0
M  V30 6152 O 589.123 0.311616 -1.93406 0
M  V30 6153 H 587.703 -0.668172 -0.333999 0
M  V30 6154 H 590.365 -1.94048 -0.182051 0
M  V30 6155 H 589.461 -2.74854 -1.47857 0
M  V30 6156 N 589.762 0.448376 -1.51087 0
M  V30 6157 C 591.009 1.19872 -1.63209 0
M  V30 6158 C 591.337 1.91451 -0.343062 0
M  V30 6159 O 590.592 1.83789 0.672321 0
M  V30 6160 C 590.891 2.24866 -2.77795 0
M  V30 6161 C 590.557 1.70378 -4.17471 0
M  V30 6162 C 589.219 1.55241 -4.55471 0
M  V30 6163 C 591.571 1.30203 -5.04675 0
M  V30 6164 C 588.899 0.983844 -5.78392 0
M  V30 6165 C 591.251 0.747798 -6.28165 0
M  V30 6166 C 589.915 0.583233 -6.64947 0
M  V30 6167 H 589.185 0.438642 -0.597222 0
M  V30 6168 H 591.832 0.49136 -1.85089 0
M  V30 6169 H 590.137 3.01598 -2.50092 0
M  V30 6170 H 591.834 2.82723 -2.84374 0
M  V30 6171 H 588.424 1.83134 -3.87505 0
M  V30 6172 H 592.608 1.40723 -4.75932 0
M  V30 6173 H 587.864 0.844007 -6.05546 0
M  V30 6174 H 592.038 0.427927 -6.95084 0
M  V30 6175 H 589.665 0.140532 -7.6007 0
M  V30 6176 N 591.24 1.41047 0.703093 0
M  V30 6177 C 592.172 1.38228 1.82827 0
M  V30 6178 C 593.185 0.285637 1.60275 0
M  V30 6179 O 594.374 0.54685 1.69917 0
M  V30 6180 C 591.474 1.13136 3.19458 0
M  V30 6181 C 590.647 2.34695 3.69103 0
M  V30 6182 C 589.706 2.05574 4.84382 0
M  V30 6183 O 588.732 2.78549 4.96386 0
M  V30 6184 N 589.934 1.04135 5.71083 0
M  V30 6185 H 592.699 2.35203 1.85741 0
M  V30 6186 H 590.26 1.35562 0.885125 0
M  V30 6187 H 592.252 0.916183 3.94193 0
M  V30 6188 H 590.822 0.247836 3.11616 0
M  V30 6189 H 590.042 2.71963 2.85359 0
M  V30 6190 H 591.33 3.15705 3.99009 0
M  V30 6191 H 590.728 0.43722 5.64008 0
M  V30 6192 H 589.285 0.886078 6.45749 0
M  V30 6193 N 592.718 -0.936591 1.26751 0
M  V30 6194 C 594.134 -1.21095 1.03963 0
M  V30 6195 C 594.334 -2.00156 -0.232372 0
M  V30 6196 O 593.39 -2.3434 -0.940274 0
M  V30 6197 C 594.703 -1.96775 2.27377 0
M  V30 6198 C 596.251 -2.09749 2.32324 0
M  V30 6199 C 596.726 -2.88832 3.55443 0
M  V30 6200 N 598.217 -2.96404 3.55948 0
M  V30 6201 C 598.952 -3.58036 4.47881 0
M  V30 6202 N 598.448 -4.21132 5.50109 0
M  V30 6203 N 600.241 -3.55353 4.35523 0
M  V30 6204 H 592.392 -0.408173 2.08441 0
M  V30 6205 H 594.655 -0.243139 0.91629 0
M  V30 6206 H 594.361 -1.46094 3.19921 0
M  V30 6207 H 594.235 -2.97424 2.31989 0
M  V30 6208 H 596.622 -2.5962 1.40291 0
M  V30 6209 H 596.703 -1.08347 2.31721 0
M  V30 6210 H 596.347 -2.39647 4.47808 0
M  V30 6211 H 596.277 -3.90499 3.53296 0
M  V30 6212 H 598.768 -2.51552 2.82011 0
M  V30 6213 H 599.081 -4.66071 6.16439 0
M  V30 6214 H 597.426 -4.19705 5.53961 0
M  V30 6215 H 600.617 -3.05256 3.54875 0
M  V30 6216 H 600.79 -4.03097 5.07363 0
M  V30 6217 N 594.196 -1.08629 -1.14182 0
M  V30 6218 C 595.607 -0.838003 -1.66836 0
M  V30 6219 C 595.958 0.634885 -1.85644 0
M  V30 6220 O 595.083 1.49008 -1.56926 0
M  V30 6221 C 595.678 -1.51465 -3.03058 0
M  V30 6222 C 594.237 -1.31355 -3.52736 0
M  V30 6223 C 593.384 -1.57599 -2.28162 0
M  V30 6224 H 596.335 -1.24656 -0.982165 0
M  V30 6225 H 596.356 -0.943134 -3.68626 0
M  V30 6226 H 595.868 -2.58661 -2.89337 0
M  V30 6227 H 593.969 -0.262384 -3.71675 0
M  V30 6228 H 594.082 -2.04275 -4.33369 0
M  V30 6229 H 592.446 -0.997659 -2.34348 0
M  V30 6230 H 593.229 -2.66006 -2.17015 0
M  V30 6231 N 595.674 1.31259 -0.872281 0
M  V30 6232 C 596.902 2.00795 -0.498907 0
M  V30 6233 C 597.317 1.65464 0.909238 0
M  V30 6234 O 596.674 0.885073 1.59602 0
M  V30 6235 C 596.725 3.55625 -0.649092 0
M  V30 6236 O 596.446 3.89692 -2.00179 0
M  V30 6237 C 597.947 4.42434 -0.277034 0
M  V30 6238 H 595.167 0.642299 -0.194145 0
M  V30 6239 H 597.711 1.67438 -1.17408 0
M  V30 6240 H 595.866 3.87394 -0.0214402 0
M  V30 6241 H 596.28 4.84407 -2.01122 0
M  V30 6242 H 597.754 5.50299 -0.433064 0
M  V30 6243 H 598.231 4.32146 0.783989 0
M  V30 6244 H 598.837 4.16086 -0.880483 0
M  V30 6245 N 597.152 0.631951 1.44375 0
M  V30 6246 C 598.401 0.134214 2.01253 0
M  V30 6247 C 598.714 -1.25171 1.50305 0
M  V30 6248 O 599.92 -1.8435 1.99317 0
M  V30 6249 C 598.376 0.189187 3.59402 0
M  V30 6250 C 597.984 1.57647 4.19346 0
M  V30 6251 C 599.728 -0.252044 4.23751 0
M  V30 6252 C 597.635 1.58651 5.69722 0
M  V30 6253 H 596.565 0.0464101 0.75257 0
M  V30 6254 H 599.216 0.790868 1.65582 0
M  V30 6255 H 597.598 -0.534584 3.92375 0
M  V30 6256 H 598.772 2.32389 3.97909 0
M  V30 6257 H 597.087 1.96186 3.67288 0
M  V30 6258 H 599.684 -0.264084 5.34047 0
M  V30 6259 H 600.027 -1.27951 3.96149 0
M  V30 6260 H 600.56 0.41926 3.95584 0
M  V30 6261 H 597.299 2.59237 6.0206 0
M  V30 6262 H 596.819 0.882039 5.93279 0
M  V30 6263 H 598.498 1.32082 6.33375 0
M  V30 6264 N 598.631 -1.53133 0.372548 0
M  V30 6265 C 599.861 -2.05476 -0.215202 0
M  V30 6266 C 600.269 -1.24534 -1.42436 0
M  V30 6267 O 599.612 -0.280771 -1.81542 0
M  V30 6268 C 599.674 -3.53276 -0.666068 0
M  V30 6269 C 599.338 -4.54998 0.427342 0
M  V30 6270 C 600.335 -5.03911 1.27944 0
M  V30 6271 C 598.02 -4.98828 0.589579 0
M  V30 6272 C 600.014 -5.95263 2.27905 0
M  V30 6273 C 597.701 -5.89984 1.59255 0
M  V30 6274 C 598.699 -6.38093 2.43571 0
M  V30 6275 O 598.387 -7.27451 3.42156 0
M  V30 6276 H 598.119 -0.67481 -0.040099 0
M  V30 6277 H 600.673 -1.98409 0.531312 0
M  V30 6278 H 598.903 -3.57904 -1.4643 0
M  V30 6279 H 600.592 -3.88442 -1.1776 0
M  V30 6280 H 601.358 -4.70792 1.16532 0
M  V30 6281 H 597.237 -4.60965 -0.0569456 0
M  V30 6282 H 600.781 -6.32736 2.93753 0
M  V30 6283 H 596.678 -6.22518 1.70711 0
M  V30 6284 H 597.446 -7.45467 3.37967 0
M  V30 6285 N 600.109 -0.101901 -1.5727 0
M  V30 6286 C 601.339 0.567568 -1.98651 0
M  V30 6287 C 601.747 1.61839 -0.980037 0
M  V30 6288 O 601.09 1.83661 0.0376564 0
M  V30 6289 C 601.152 1.26742 -3.36417 0
M  V30 6290 C 600.816 0.366561 -4.55528 0
M  V30 6291 C 601.813 -0.388022 -5.1845 0
M  V30 6292 C 599.498 0.282629 -5.01504 0
M  V30 6293 C 601.492 -1.21445 -6.25724 0
M  V30 6294 C 599.179 -0.547443 -6.08643 0
M  V30 6295 C 600.177 -1.29462 -6.70618 0
M  V30 6296 O 599.865 -2.11095 -7.7569 0
M  V30 6297 H 599.597 0.156282 -0.657687 0
M  V30 6298 H 602.151 -0.179912 -2.04611 0
M  V30 6299 H 600.381 2.06162 -3.27161 0
M  V30 6300 H 602.07 1.8321 -3.622 0
M  V30 6301 H 602.836 -0.332949 -4.83856 0
M  V30 6302 H 598.715 0.853868 -4.53023 0
M  V30 6303 H 602.259 -1.79814 -6.74027 0
M  V30 6304 H 598.156 -0.603971 -6.42668 0
M  V30 6305 H 598.924 -2.03851 -7.92709 0
M  V30 6306 N 601.587 1.56661 0.17182 0
M  V30 6307 C 602.833 1.82235 0.889845 0
M  V30 6308 C 603.166 0.679673 1.81918 0
M  V30 6309 O 602.441 -0.318404 1.91876 0
M  V30 6310 C 602.724 3.18195 1.68595 0
M  V30 6311 C 602.577 4.42989 0.779773 0
M  V30 6312 C 603.896 3.5109 2.65375 0
M  V30 6313 H 601.015 0.66291 0.322056 0
M  V30 6314 H 603.657 1.89358 0.15608 0
M  V30 6315 H 601.807 3.12253 2.3115 0
M  V30 6316 H 603.479 4.60997 0.16714 0
M  V30 6317 H 601.722 4.33711 0.0877964 0
M  V30 6318 H 602.393 5.3467 1.3723 0
M  V30 6319 H 604.869 3.57482 2.12946 0
M  V30 6320 H 603.745 4.47298 3.18144 0
M  V30 6321 H 604.006 2.75768 3.45549 0
M  V30 6322 N 603.065 -0.440357 1.51323 0
M  V30 6323 C 603.998 -1.55414 1.67098 0
M  V30 6324 C 604.976 -1.54108 0.518599 0
M  V30 6325 O 606.16 -1.7328 0.742054 0
M  V30 6326 C 603.287 -2.93996 1.68179 0
M  V30 6327 C 602.333 -3.13338 2.89347 0
M  V30 6328 S 603.166 -2.89957 4.50206 0
M  V30 6329 C 604.322 -4.30826 4.54027 0
M  V30 6330 H 604.555 -1.41798 2.61306 0
M  V30 6331 H 602.088 -0.629841 1.40969 0
M  V30 6332 H 604.046 -3.73878 1.69487 0
M  V30 6333 H 602.707 -3.04976 0.751542 0
M  V30 6334 H 601.9 -4.14652 2.86495 0
M  V30 6335 H 601.502 -2.41276 2.85766 0
M  V30 6336 H 603.794 -5.23977 4.29481 0
M  V30 6337 H 604.737 -4.38712 5.55822 0
M  V30 6338 H 605.145 -4.1434 3.83384 0
M  V30 6339 N 604.543 -1.41418 -0.695603 0
M  V30 6340 C 605.768 -1.44329 -1.48942 0
M  V30 6341 C 606.193 -0.0501579 -1.88033 0
M  V30 6342 O 605.551 0.946598 -1.54626 0
M  V30 6343 C 605.599 -2.3578 -2.72837 0
M  V30 6344 O 604.703 -1.81482 -3.70322 0
M  V30 6345 H 604.044 -0.489838 -0.44828 0
M  V30 6346 H 606.574 -1.85878 -0.855014 0
M  V30 6347 H 606.584 -2.51654 -3.21145 0
M  V30 6348 H 605.259 -3.37005 -2.43722 0
M  V30 6349 H 603.836 -1.75058 -3.29255 0
M  V30 6350 N 606.021 0.929856 -1.27246 0
M  V30 6351 C 607.269 1.674 -1.13233 0
M  V30 6352 C 607.59 1.92311 0.322744 0
M  V30 6353 O 606.86 1.52784 1.22612 0
M  V30 6354 H 605.44 0.620411 -0.416052 0
M  V30 6355 H 608.102 1.11663 -1.59741 0
M  V30 6356 H 607.198 2.64308 -1.65975 0
M  V30 6357 N 607.499 1.09233 1.13605 0
M  V30 6358 C 608.91 0.846839 1.6639 0
M  V30 6359 C 609.261 -0.625031 1.85978 0
M  V30 6360 O 608.386 -1.48173 1.57714 0
M  V30 6361 C 608.981 1.5307 3.0225 0
M  V30 6362 C 607.54 1.33223 3.52035 0
M  V30 6363 C 606.687 1.58806 2.27323 0
M  V30 6364 H 609.638 1.25175 0.975541 0
M  V30 6365 H 609.659 0.96267 3.68121 0
M  V30 6366 H 609.171 2.60192 2.87961 0
M  V30 6367 H 607.272 0.282091 3.71531 0
M  V30 6368 H 607.385 2.0657 4.32279 0
M  V30 6369 H 605.749 1.01007 2.33815 0
M  V30 6370 H 606.532 2.67153 2.15602 0
M  V30 6371 N 608.977 -1.30795 0.87923 0
M  V30 6372 C 609.94 -2.26563 0.346676 0
M  V30 6373 C 610.94 -1.52578 -0.507597 0
M  V30 6374 O 612.13 -1.71318 -0.315575 0
M  V30 6375 C 609.262 -3.37115 -0.506611 0
M  V30 6376 H 610.455 -2.75183 1.19223 0
M  V30 6377 H 608.008 -1.41886 0.655598 0
M  V30 6378 H 608.743 -2.93802 -1.37299 0
M  V30 6379 H 608.528 -3.91959 0.105218 0
M  V30 6380 H 610.018 -4.08412 -0.871192 0
M  V30 6381 N 610.455 -0.639598 -1.44038 0
M  V30 6382 C 611.701 -0.156248 -2.02799 0
M  V30 6383 C 612.056 1.21145 -1.49471 0
M  V30 6384 O 611.349 1.79406 -0.672608 0
M  V30 6385 C 611.543 -0.0925348 -3.5728 0
M  V30 6386 C 611.372 -1.45252 -4.25596 0
M  V30 6387 C 610.142 -2.04145 -4.62226 0
M  V30 6388 C 612.34 -2.38812 -4.55492 0
M  V30 6389 N 610.322 -3.3329 -5.15549 0
M  V30 6390 C 611.693 -3.52578 -5.09989 0
M  V30 6391 C 613.748 -2.37785 -4.3745 0
M  V30 6392 C 612.451 -4.65525 -5.48342 0
M  V30 6393 C 614.477 -3.49802 -4.76857 0
M  V30 6394 C 613.839 -4.62292 -5.31475 0
M  V30 6395 H 609.938 -0.101292 -0.775412 0
M  V30 6396 H 612.522 -0.844938 -1.75411 0
M  V30 6397 H 610.693 0.565459 -3.84262 0
M  V30 6398 H 612.425 0.400426 -4.02714 0
M  V30 6399 H 609.18 -1.56999 -4.4682 0
M  V30 6400 H 609.604 -3.9934 -5.46678 0
M  V30 6401 H 614.246 -1.52061 -3.94509 0
M  V30 6402 H 611.964 -5.51951 -5.90233 0
M  V30 6403 H 615.55 -3.50193 -4.64603 0
M  V30 6404 H 614.43 -5.47536 -5.61403 0
M  V30 6405 N 611.933 1.52934 -0.380664 0
M  V30 6406 C 612.865 2.23822 0.493581 0
M  V30 6407 C 613.878 1.25761 1.03383 0
M  V30 6408 O 615.067 1.5189 0.937633 0
M  V30 6409 C 612.167 2.9342 1.69582 0
M  V30 6410 C 611.34 4.18115 1.28445 0
M  V30 6411 C 610.399 4.70788 2.35042 0
M  V30 6412 O 609.425 5.34093 1.96807 0
M  V30 6413 N 610.627 4.49899 3.66839 0
M  V30 6414 H 613.392 2.99484 -0.11371 0
M  V30 6415 H 610.953 1.60577 -0.206587 0
M  V30 6416 H 612.945 3.2556 2.40401 0
M  V30 6417 H 611.515 2.21119 2.20965 0
M  V30 6418 H 610.735 3.92109 0.405503 0
M  V30 6419 H 612.023 4.99152 0.986132 0
M  V30 6420 H 611.421 3.99349 4.0067 0
M  V30 6421 H 609.978 4.86551 4.33718 0
M  V30 6422 N 613.412 0.11024 1.57214 0
M  V30 6423 C 614.342 -0.840002 2.17867 0
M  V30 6424 C 615.323 -1.28352 1.11624 0
M  V30 6425 O 616.508 -1.3477 1.39824 0
M  V30 6426 C 613.638 -2.09349 2.77111 0
M  V30 6427 C 612.592 -1.78807 3.8886 0
M  V30 6428 C 611.918 -3.11112 4.34872 0
M  V30 6429 C 613.218 -1.0632 5.11364 0
M  V30 6430 H 614.912 -0.334608 2.97524 0
M  V30 6431 H 612.458 -0.159502 1.43114 0
M  V30 6432 H 614.411 -2.76275 3.18198 0
M  V30 6433 H 613.135 -2.62198 1.9473 0
M  V30 6434 H 611.794 -1.14273 3.48335 0
M  V30 6435 H 611.442 -3.61877 3.49362 0
M  V30 6436 H 611.142 -2.91453 5.10224 0
M  V30 6437 H 612.666 -3.79171 4.78604 0
M  V30 6438 H 614.08 -1.63383 5.49526 0
M  V30 6439 H 612.477 -0.967876 5.92243 0
M  V30 6440 H 613.547 -0.0484569 4.84876 0
M  V30 6441 N 614.89 -1.56749 -0.16351 0
M  V30 6442 C 615.823 -1.9213 -1.23132 0
M  V30 6443 C 616.801 -0.785047 -1.42393 0
M  V30 6444 O 617.985 -1.0391 -1.57273 0
M  V30 6445 C 615.112 -2.17901 -2.59301 0
M  V30 6446 C 614.158 -3.40576 -2.5673 0
M  V30 6447 S 614.991 -4.94689 -2.05045 0
M  V30 6448 C 616.147 -5.23564 -3.42975 0
M  V30 6449 H 616.38 -2.824 -0.929383 0
M  V30 6450 H 613.913 -1.4994 -0.368418 0
M  V30 6451 H 615.871 -2.33429 -3.3767 0
M  V30 6452 H 614.532 -1.28324 -2.86691 0
M  V30 6453 H 613.725 -3.55833 -3.5693 0
M  V30 6454 H 613.327 -3.24204 -1.86462 0
M  V30 6455 H 615.619 -5.16019 -4.3901 0
M  V30 6456 H 616.562 -6.25134 -3.32586 0
M  V30 6457 H 616.97 -4.51113 -3.39348 0
M  V30 6458 N 616.368 0.432326 -1.51554 0
M  V30 6459 C 617.3 1.54357 -1.6943 0
M  V30 6460 C 618.313 1.52311 -0.574897 0
M  V30 6461 O 619.502 1.56997 -0.849369 0
M  V30 6462 C 616.602 2.93273 -1.69836 0
M  V30 6463 C 615.775 3.19768 -2.98442 0
M  V30 6464 C 614.834 4.38433 -2.90969 0
M  V30 6465 O 613.86 4.36842 -3.64908 0
M  V30 6466 N 615.062 5.42276 -2.07163 0
M  V30 6467 H 617.827 1.39426 -2.65293 0
M  V30 6468 H 615.388 0.621331 -1.49503 0
M  V30 6469 H 617.38 3.70687 -1.62399 0
M  V30 6470 H 615.95 3.01777 -0.815456 0
M  V30 6471 H 615.17 2.30607 -3.19709 0
M  V30 6472 H 616.458 3.343 -3.83563 0
M  V30 6473 H 615.856 5.46407 -1.46477 0
M  V30 6474 H 614.413 6.18524 -2.05601 0
M  V30 6475 N 617.846 1.41785 0.688094 0
M  V30 6476 C 618.778 1.40159 1.81351 0
M  V30 6477 C 619.791 0.30262 1.59963 0
M  V30 6478 O 620.98 0.564841 1.69327 0
M  V30 6479 C 618.08 1.16517 3.1824 0
M  V30 6480 C 617.253 2.38597 3.66593 0
M  V30 6481 C 616.312 2.10699 4.82174 0
M  V30 6482 O 615.338 2.83798 4.93404 0
M  V30 6483 N 616.54 1.10187 5.69947 0
M  V30 6484 H 619.305 2.3716 1.83236 0
M  V30 6485 H 616.866 1.36494 0.870697 0
M  V30 6486 H 618.858 0.957941 3.93199 0
M  V30 6487 H 617.428 0.280873 3.11336 0
M  V30 6488 H 616.648 2.74974 2.82459 0
M  V30 6489 H 617.936 3.19919 3.95638 0
M  V30 6490 H 617.334 0.497016 5.63512 0
M  V30 6491 H 615.891 0.954518 6.44773 0
M  V30 6492 N 619.324 -0.923095 1.27737 0
M  V30 6493 C 620.571 -1.67127 1.14345 0
M  V30 6494 C 620.899 -1.92017 -0.30982 0
M  V30 6495 O 620.154 -1.51185 -1.24264 0
M  V30 6496 C 620.453 -3.04125 1.8773 0
M  V30 6497 C 620.119 -2.98929 3.37568 0
M  V30 6498 C 618.781 -2.9722 3.78436 0
M  V30 6499 C 621.133 -2.89875 4.33154 0
M  V30 6500 C 618.461 -2.84244 5.13247 0
M  V30 6501 C 620.813 -2.7844 5.68026 0
M  V30 6502 C 619.477 -2.75083 6.08182 0
M  V30 6503 H 618.747 -0.611562 0.418417 0
M  V30 6504 H 621.394 -1.07618 1.584 0
M  V30 6505 H 619.699 -3.67366 1.36196 0
M  V30 6506 H 621.396 -3.609 1.74792 0
M  V30 6507 H 617.986 -3.0105 3.05069 0
M  V30 6508 H 622.17 -2.9029 4.02548 0
M  V30 6509 H 617.426 -2.80034 5.43499 0
M  V30 6510 H 621.6 -2.70401 6.4176 0
M  V30 6511 H 619.227 -2.64786 7.12596 0
M  V30 6512 N 620.802 -1.09834 -1.13024 0
M  V30 6513 C 621.734 -0.699379 -2.18269 0
M  V30 6514 C 622.747 0.260841 -1.60697 0
M  V30 6515 O 623.936 0.0462538 -1.7844 0
M  V30 6516 C 621.036 -0.0104537 -3.38898 0
M  V30 6517 C 620.209 -0.993275 -4.25973 0
M  V30 6518 C 619.268 -0.336982 -5.2512 0
M  V30 6519 O 618.294 -0.985892 -5.60597 0
M  V30 6520 N 619.496 0.90716 -5.73368 0
M  V30 6521 H 622.261 -1.60486 -2.5311 0
M  V30 6522 H 619.822 -0.986337 -1.28386 0
M  V30 6523 H 621.814 0.43991 -4.02302 0
M  V30 6524 H 620.384 0.797335 -3.0226 0
M  V30 6525 H 619.604 -1.62208 -3.5928 0
M  V30 6526 H 620.892 -1.65876 -4.81002 0
M  V30 6527 H 620.29 1.45384 -5.46699 0
M  V30 6528 H 618.847 1.30077 -6.38689 0
M  V30 6529 N 622.28 1.30327 -0.886154 0
M  V30 6530 C 623.228 2.30052 -0.343317 0
M  V30 6531 C 624.222 1.60212 0.550305 0
M  V30 6532 O 625.428 1.74674 0.434609 0
M  V30 6533 H 621.803 0.746306 -0.0923681 0
M  V30 6534 H 623.774 2.73294 -1.19804 0
M  V30 6535 C 622.523 3.45079 0.426107 0
M  V30 6536 H 621.846 3.99003 -0.25227 0
M  V30 6537 H 623.286 4.16931 0.771009 0
M  V30 6538 C 621.745 2.95195 1.62363 0
M  V30 6539 O 622.275 2.95323 2.723 0
M  V30 6540 N 620.481 2.51192 1.4612 0
M  V30 6541 H 620.028 2.51286 0.566832 0
M  V30 6542 H 619.986 2.18173 2.2638 0
M  V30 6543 N 623.758 0.647228 1.43697 0
M  V30 6544 C 625.169 0.238689 1.85168 0
M  V30 6545 C 625.52 -1.21345 1.54175 0
M  V30 6546 O 624.645 -1.92542 0.987743 0
M  V30 6547 C 625.24 0.426422 3.36106 0
M  V30 6548 C 623.799 0.0722541 3.76331 0
M  V30 6549 C 622.946 0.732153 2.6746 0
M  V30 6550 H 625.897 0.851309 1.33934 0
M  V30 6551 H 625.918 -0.32987 3.79067 0
M  V30 6552 H 625.43 1.48339 3.58632 0
M  V30 6553 H 623.531 -0.982355 3.59417 0
M  V30 6554 H 623.644 0.493541 4.76551 0
M  V30 6555 H 622.008 0.16594 2.54159 0
M  V30 6556 H 622.791 1.79204 2.92816 0
M  V30 6557 N 625.236 -1.5273 0.388769 0
M  V30 6558 C 626.513 -1.93981 -0.251133 0
M  V30 6559 C 626.893 -1.32418 -1.64404 0
M  V30 6560 O 626.241 -0.492074 -2.23139 0
M  V30 6561 C 626.451 -3.47891 -0.27802 0
M  V30 6562 C 627.799 -4.21559 -0.507229 0
M  V30 6563 O 628.823 -3.54394 -0.358252 0
M  V30 6564 O 627.682 -5.40626 -0.799094 0
M  V30 6565 H 624.776 -0.812157 -0.15598 0
M  V30 6566 H 627.322 -1.63809 0.443237 0
M  V30 6567 H 626.094 -3.8503 0.697669 0
M  V30 6568 H 625.717 -3.84364 -1.01733 0
M  V30 6569 N 626.714 -0.118576 -1.57153 0
M  V30 6570 C 627.961 0.539526 -1.9518 0
M  V30 6571 C 628.289 1.66714 -1.00184 0
M  V30 6572 O 627.544 1.95683 -0.0256482 0
M  V30 6573 C 627.843 1.11303 -3.39627 0
M  V30 6574 C 627.509 0.106809 -4.50773 0
M  V30 6575 C 626.171 -0.169876 -4.809 0
M  V30 6576 C 628.523 -0.57895 -5.17975 0
M  V30 6577 C 625.851 -1.13861 -5.75545 0
M  V30 6578 C 628.203 -1.53631 -6.13661 0
M  V30 6579 C 626.867 -1.82099 -6.42181 0
M  V30 6580 H 626.137 0.197427 -0.714215 0
M  V30 6581 H 628.784 -0.199391 -1.90459 0
M  V30 6582 H 627.089 1.92869 -3.4104 0
M  V30 6583 H 628.786 1.63032 -3.66363 0
M  V30 6584 H 625.376 0.332645 -4.27307 0
M  V30 6585 H 629.56 -0.378359 -4.94856 0
M  V30 6586 H 624.816 -1.36592 -5.95947 0
M  V30 6587 H 628.99 -2.07337 -6.64819 0
M  V30 6588 H 626.617 -2.57319 -7.15326 0
M  V30 6589 N 628.193 1.56834 0.155195 0
M  V30 6590 C 629.604 1.72421 0.716082 0
M  V30 6591 C 629.955 0.731685 1.82046 0
M  V30 6592 O 629.08 -0.103481 2.16152 0
M  V30 6593 C 629.675 3.12629 1.30571 0
M  V30 6594 C 628.234 3.29846 1.81325 0
M  V30 6595 C 627.381 2.68359 0.698494 0
M  V30 6596 H 630.332 1.58544 -0.0703861 0
M  V30 6597 H 630.353 3.12174 2.1755 0
M  V30 6598 H 629.865 3.84844 0.501701 0
M  V30 6599 H 627.966 2.62614 2.64319 0
M  V30 6600 H 628.079 4.37727 1.9476 0
M  V30 6601 H 626.443 2.28604 1.12305 0
M  V30 6602 H 627.226 3.43171 -0.0939366 0
M  V30 6603 N 629.671 -0.424282 1.51781 0
M  V30 6604 C 631.082 -1.00368 1.57427 0
M  V30 6605 C 631.433 -1.91962 0.40558 0
M  V30 6606 O 630.558 -2.111 -0.47601 0
M  V30 6607 C 631.153 -1.82707 2.85313 0
M  V30 6608 C 629.712 -2.35675 2.93487 0
M  V30 6609 C 628.859 -1.1524 2.5222 0
M  V30 6610 H 631.81 -0.205064 1.5737 0
M  V30 6611 H 631.831 -2.68294 2.69812 0
M  V30 6612 H 631.343 -1.16017 3.70353 0
M  V30 6613 H 629.444 -3.05781 2.12906 0
M  V30 6614 H 629.557 -2.67578 3.97415 0
M  V30 6615 H 627.921 -1.50174 2.05718 0
M  V30 6616 H 628.704 -0.5014 3.39619 0
M  V30 6617 N 631.149 -1.42148 -0.680565 0
M  V30 6618 C 632.059 -1.47565 -1.82378 0
M  V30 6619 C 633.075 -0.36489 -1.70131 0
M  V30 6620 O 634.251 -0.614916 -1.91783 0
M  V30 6621 C 631.316 -1.37013 -3.18478 0
M  V30 6622 C 630.377 -2.58532 -3.42724 0
M  V30 6623 C 629.61 -2.48473 -4.72331 0
M  V30 6624 O 629.833 -1.51745 -5.49845 0
M  V30 6625 O 628.767 -3.38503 -4.97694 0
M  V30 6626 H 632.593 -2.44045 -1.80764 0
M  V30 6627 H 630.178 -1.23849 -0.835569 0
M  V30 6628 H 632.06 -1.33468 -3.99705 0
M  V30 6629 H 630.735 -0.436552 -3.20743 0
M  V30 6630 H 629.642 -2.67652 -2.61368 0
M  V30 6631 H 630.975 -3.50769 -3.45286 0
M  V30 6632 N 632.627 0.916307 -1.28225 0
M  V30 6633 C 633.873 1.66765 -1.154 0
M  V30 6634 C 634.206 1.91912 0.297251 0
M  V30 6635 O 633.481 1.51766 1.21644 0
M  V30 6636 C 633.764 3.02715 -1.95028 0
M  V30 6637 C 633.617 2.84738 -3.48201 0
M  V30 6638 C 634.936 4.03215 -1.76369 0
M  V30 6639 H 632.055 0.605205 -0.42059 0
M  V30 6640 H 634.697 1.06255 -1.57512 0
M  V30 6641 H 632.847 3.54365 -1.59242 0
M  V30 6642 H 634.519 2.40118 -3.9388 0
M  V30 6643 H 632.762 2.19848 -3.73964 0
M  V30 6644 H 633.433 3.8127 -3.99171 0
M  V30 6645 H 635.909 3.60617 -2.07593 0
M  V30 6646 H 634.785 4.96306 -2.34459 0
M  V30 6647 H 635.046 4.36288 -0.71452 0
M  V30 6648 N 634.105 1.10431 1.1244 0
M  V30 6649 C 635.015 0.765502 2.21759 0
M  V30 6650 C 636.031 -0.236966 1.72379 0
M  V30 6651 O 637.207 -0.0757329 2.01258 0
M  V30 6652 C 634.272 0.202316 3.46109 0
M  V30 6653 C 633.333 1.26205 4.1033 0
M  V30 6654 C 632.566 0.725648 5.28744 0
M  V30 6655 O 632.789 -0.447942 5.68638 0
M  V30 6656 O 631.723 1.48555 5.83279 0
M  V30 6657 H 635.549 1.67801 2.53133 0
M  V30 6658 H 633.134 0.879443 1.20773 0
M  V30 6659 H 635.016 -0.107918 4.21262 0
M  V30 6660 H 633.691 -0.683052 3.16411 0
M  V30 6661 H 632.598 1.62514 3.36957 0
M  V30 6662 H 633.931 2.12044 4.44183 0
M  V30 6663 N 635.583 -1.29855 0.893053 0
M  V30 6664 C 636.493 -2.31661 0.370157 0
M  V30 6665 C 637.509 -1.65677 -0.531723 0
M  V30 6666 O 638.685 -1.9691 -0.422902 0
M  V30 6667 C 635.75 -3.44388 -0.399741 0
M  V30 6668 C 634.811 -4.2598 0.532861 0
M  V30 6669 C 634.044 -5.33324 -0.200388 0
M  V30 6670 O 634.267 -5.52305 -1.42531 0
M  V30 6671 O 633.201 -6.00188 0.453668 0
M  V30 6672 H 637.027 -2.78354 1.2146 0
M  V30 6673 H 634.612 -1.34171 0.657153 0
M  V30 6674 H 636.494 -4.13037 -0.835358 0
M  V30 6675 H 635.169 -2.99815 -1.22035 0
M  V30 6676 H 634.076 -3.59998 1.01746 0
M  V30 6677 H 635.409 -4.74178 1.3197 0
M  V30 6678 N 637.061 -0.65484 -1.43351 0
M  V30 6679 C 637.993 0.0744757 -2.29079 0
M  V30 6680 C 639.006 0.7855 -1.42596 0
M  V30 6681 O 640.195 0.642986 -1.66517 0
M  V30 6682 C 637.295 1.12859 -3.19556 0
M  V30 6683 C 636.468 0.495381 -4.34586 0
M  V30 6684 C 635.527 1.44659 -5.05925 0
M  V30 6685 O 634.553 0.954567 -5.61139 0
M  V30 6686 N 635.755 2.78051 -5.09576 0
M  V30 6687 H 638.52 -0.661346 -2.92312 0
M  V30 6688 H 636.081 -0.497744 -1.54059 0
M  V30 6689 H 638.073 1.76577 -3.64147 0
M  V30 6690 H 636.643 1.76636 -2.57912 0
M  V30 6691 H 635.863 -0.32092 -3.92892 0
M  V30 6692 H 637.151 0.0534203 -5.08772 0
M  V30 6693 H 636.549 3.20584 -4.66093 0
M  V30 6694 H 635.106 3.37068 -5.57878 0
M  V30 6695 N 638.539 1.52521 -0.396863 0
M  V30 6696 C 639.816 1.94112 0.240842 0
M  V30 6697 C 640.196 1.33288 1.637 0
M  V30 6698 O 639.544 0.503901 2.22875 0
M  V30 6699 C 639.754 3.48033 0.259567 0
M  V30 6700 C 641.102 4.21822 0.484866 0
M  V30 6701 O 642.126 3.54579 0.339453 0
M  V30 6702 O 640.985 5.41042 0.770412 0
M  V30 6703 H 638.079 0.812973 0.151671 0
M  V30 6704 H 640.625 1.63572 -0.451918 0
M  V30 6705 H 639.397 3.84655 -0.718078 0
M  V30 6706 H 639.02 3.84899 0.996937 0
M  V30 6707 N 640.017 0.126909 1.57088 0
M  V30 6708 C 640.98 -0.806097 2.14557 0
M  V30 6709 C 641.98 -1.18918 1.08236 0
M  V30 6710 O 643.17 -1.11339 1.33975 0
M  V30 6711 C 640.302 -2.09116 2.69227 0
M  V30 6712 H 641.495 -0.306522 2.98329 0
M  V30 6713 H 639.048 -0.122393 1.5582 0
M  V30 6714 H 639.783 -2.63486 1.89065 0
M  V30 6715 H 639.568 -1.82588 3.46993 0
M  V30 6716 H 641.058 -2.75794 3.13572 0
M  V30 6717 N 641.495 -1.56914 -0.146875 0
M  V30 6718 C 642.72 -1.87881 -0.878386 0
M  V30 6719 C 643.145 -0.715945 -1.73942 0
M  V30 6720 O 642.503 0.334447 -1.78189 0
M  V30 6721 C 642.551 -3.17431 -1.71084 0
M  V30 6722 O 641.655 -3.01374 -2.81509 0
M  V30 6723 H 640.996 -0.617289 -0.244644 0
M  V30 6724 H 643.526 -2.04136 -0.137654 0
M  V30 6725 H 643.536 -3.49455 -2.10582 0
M  V30 6726 H 642.211 -4.01671 -1.07856 0
M  V30 6727 H 640.788 -2.80758 -2.45416 0
M  V30 6728 N 642.974 0.416227 -1.52004 0
M  V30 6729 C 644.202 1.18573 -1.69553 0
M  V30 6730 C 644.617 1.84472 -0.401919 0
M  V30 6731 O 643.974 1.71593 0.621463 0
M  V30 6732 C 644.025 2.25413 -2.82615 0
M  V30 6733 O 643.746 1.62205 -4.06966 0
M  V30 6734 C 645.247 3.15297 -3.11613 0
M  V30 6735 H 642.467 0.356582 -0.56841 0
M  V30 6736 H 645.011 0.490618 -1.98528 0
M  V30 6737 H 643.166 2.90604 -2.56179 0
M  V30 6738 H 643.58 2.3298 -4.69916 0
M  V30 6739 H 645.054 3.86351 -3.94255 0
M  V30 6740 H 645.531 3.77264 -2.24874 0
M  V30 6741 H 646.137 2.55783 -3.39787 0
M  V30 6742 N 644.452 1.42507 0.673017 0
M  V30 6743 C 645.382 1.48916 1.79851 0
M  V30 6744 C 646.363 0.345566 1.66553 0
M  V30 6745 O 647.548 0.560116 1.85947 0
M  V30 6746 C 644.678 1.39258 3.18158 0
M  V30 6747 C 643.632 2.51662 3.46194 0
M  V30 6748 C 642.958 2.27062 4.84094 0
M  V30 6749 C 644.258 3.93968 3.42909 0
M  V30 6750 H 645.952 2.43114 1.74745 0
M  V30 6751 H 643.498 1.17013 0.839288 0
M  V30 6752 H 645.451 1.42349 3.96629 0
M  V30 6753 H 644.175 0.415542 3.23946 0
M  V30 6754 H 642.834 2.47891 2.70084 0
M  V30 6755 H 642.482 1.27648 4.86534 0
M  V30 6756 H 642.182 3.02398 5.03815 0
M  V30 6757 H 643.706 2.31905 5.64847 0
M  V30 6758 H 645.12 3.99332 4.11347 0
M  V30 6759 H 643.517 4.6917 3.74165 0
M  V30 6760 H 644.587 4.20512 2.41449 0
M  V30 6761 N 645.93 -0.909495 1.28709 0
M  V30 6762 C 647.341 -1.47419 1.14563 0
M  V30 6763 C 647.692 -1.94432 -0.262832 0
M  V30 6764 O 646.817 -1.82842 -1.15748 0
M  V30 6765 C 647.412 -2.67933 2.07358 0
M  V30 6766 C 645.971 -3.20568 1.97264 0
M  V30 6767 C 645.118 -1.93269 1.98852 0
M  V30 6768 H 648.069 -0.721787 1.41336 0
M  V30 6769 H 648.09 -3.43339 1.64007 0
M  V30 6770 H 647.602 -2.33685 3.09859 0
M  V30 6771 H 645.703 -3.59531 0.978157 0
M  V30 6772 H 645.816 -3.85529 2.84436 0
M  V30 6773 H 644.18 -2.10553 1.43317 0
M  V30 6774 H 644.963 -1.61312 3.0304 0
M  V30 6775 N 647.408 -1.11026 -1.11852 0
M  V30 6776 C 648.654 -0.857729 -1.83768 0
M  V30 6777 C 648.987 0.615143 -1.842 0
M  V30 6778 O 648.262 1.45391 -1.29196 0
M  V30 6779 C 648.545 -1.41453 -3.31154 0
M  V30 6780 C 648.398 -2.95471 -3.39142 0
M  V30 6781 C 649.717 -1.0619 -4.27097 0
M  V30 6782 H 646.836 -0.313044 -0.667212 0
M  V30 6783 H 649.478 -1.37443 -1.31185 0
M  V30 6784 H 647.628 -0.975052 -3.76065 0
M  V30 6785 H 649.3 -3.4799 -3.02821 0
M  V30 6786 H 647.543 -3.31759 -2.79497 0
M  V30 6787 H 648.214 -3.29515 -4.42859 0
M  V30 6788 H 650.69 -1.44122 -3.90344 0
M  V30 6789 H 649.566 -1.47832 -5.28618 0
M  V30 6790 H 649.827 0.0278912 -4.42091 0
M  V30 6791 N 648.886 1.2938 -0.899927 0
M  V30 6792 C 650.111 2.00228 -0.540692 0
M  V30 6793 C 650.536 1.66909 0.867359 0
M  V30 6794 O 649.894 0.893824 1.57735 0
M  V30 6795 C 649.942 3.52921 -0.740232 0
M  V30 6796 O 649.046 4.11879 0.207154 0
M  V30 6797 H 648.387 0.629505 -0.211233 0
M  V30 6798 H 650.917 1.6487 -1.21158 0
M  V30 6799 H 650.927 4.0287 -0.644973 0
M  V30 6800 H 649.602 3.76508 -1.76677 0
M  V30 6801 H 648.179 3.72845 0.0643315 0
M  V30 6802 N 650.364 0.662433 1.43002 0
M  V30 6803 C 651.604 0.183312 2.03576 0
M  V30 6804 C 651.968 -1.18354 1.51183 0
M  V30 6805 O 653.169 -1.7566 2.03462 0
M  V30 6806 C 651.44 0.202908 3.56824 0
M  V30 6807 S 652.999 -0.20702 4.38311 0
M  V30 6808 H 649.817 0.0765001 0.706872 0
M  V30 6809 H 652.419 0.872827 1.74934 0
M  V30 6810 H 651.123 1.20028 3.92456 0
M  V30 6811 H 650.654 -0.506845 3.90121 0
M  V30 6812 H 652.669 -1.44358 4.74737 0
M  V30 6813 N 651.842 -1.52309 0.404946 0
M  V30 6814 C 652.805 -2.25491 -0.410651 0
M  V30 6815 C 653.805 -1.27704 -0.977154 0
M  V30 6816 O 654.995 -1.51679 -0.856691 0
M  V30 6817 C 652.127 -3.02197 -1.57765 0
M  V30 6818 H 653.32 -2.99015 0.230277 0
M  V30 6819 H 650.873 -1.55506 0.157377 0
M  V30 6820 H 651.608 -2.33013 -2.25556 0
M  V30 6821 H 651.393 -3.73987 -1.17797 0
M  V30 6822 H 652.883 -3.57719 -2.15469 0
M  V30 6823 N 653.32 -0.135238 -1.57019 0
M  V30 6824 C 654.566 0.513232 -1.96818 0
M  V30 6825 C 654.921 1.63245 -1.01827 0
M  V30 6826 O 654.214 1.91532 -0.0511756 0
M  V30 6827 C 654.408 1.07694 -3.40788 0
M  V30 6828 C 654.237 0.0138667 -4.49698 0
M  V30 6829 C 653.007 -0.423532 -5.03522 0
M  V30 6830 C 655.205 -0.77322 -5.08454 0
M  V30 6831 N 653.187 -1.47068 -5.96024 0
M  V30 6832 C 654.558 -1.67115 -5.97053 0
M  V30 6833 C 656.613 -0.822313 -4.91063 0
M  V30 6834 C 655.316 -2.61395 -6.70123 0
M  V30 6835 C 657.342 -1.75288 -5.64826 0
M  V30 6836 C 656.704 -2.63836 -6.53123 0
M  V30 6837 H 652.803 0.156956 -0.766087 0
M  V30 6838 H 655.387 -0.227118 -1.93371 0
M  V30 6839 H 653.558 1.78694 -3.44852 0
M  V30 6840 H 655.29 1.69106 -3.67675 0
M  V30 6841 H 652.045 -0.0280202 -4.73592 0
M  V30 6842 H 652.469 -1.99366 -6.46979 0
M  V30 6843 H 657.111 -0.151822 -4.22527 0
M  V30 6844 H 654.829 -3.2945 -7.37895 0
M  V30 6845 H 658.415 -1.79652 -5.53368 0
M  V30 6846 H 657.295 -3.34672 -7.092 0
M  V30 6847 N 654.798 1.5699 0.138552 0
M  V30 6848 C 655.708 2.02174 1.19008 0
M  V30 6849 C 656.724 0.938622 1.46512 0
M  V30 6850 O 657.9 1.24872 1.58016 0
M  V30 6851 C 654.965 2.40045 2.50159 0
M  V30 6852 C 654.026 3.62346 2.30226 0
M  V30 6853 C 653.259 3.98401 3.55123 0
M  V30 6854 O 653.482 3.35019 4.61647 0
M  V30 6855 O 652.416 4.91606 3.47285 0
M  V30 6856 H 656.242 2.91954 0.836452 0
M  V30 6857 H 653.827 1.45293 0.347907 0
M  V30 6858 H 655.709 2.65225 3.27465 0
M  V30 6859 H 654.384 1.53417 2.85035 0
M  V30 6860 H 653.291 3.42341 1.50843 0
M  V30 6861 H 654.624 4.49617 2.00262 0
M  V30 6862 N 656.276 -0.40816 1.52223 0
M  V30 6863 C 657.501 -1.18127 1.70472 0
M  V30 6864 C 657.926 -1.83491 0.41384 0
M  V30 6865 O 657.284 -1.70047 -0.628778 0
M  V30 6866 C 657.332 -2.21935 2.84213 0
M  V30 6867 O 656.436 -3.28099 2.4985 0
M  V30 6868 H 655.777 -0.344781 0.56747 0
M  V30 6869 H 658.307 -0.478328 1.9893 0
M  V30 6870 H 658.317 -2.66248 3.09153 0
M  V30 6871 H 656.992 -1.73744 3.7787 0
M  V30 6872 H 655.569 -2.89058 2.35584 0
M  V30 6873 N 657.755 -1.42862 -0.66545 0
M  V30 6874 C 659.003 -1.43546 -1.42264 0
M  V30 6875 C 659.324 -0.0563116 -1.94919 0
M  V30 6876 O 658.594 0.906568 -1.73661 0
M  V30 6877 H 657.174 -0.528464 -0.527953 0
M  V30 6878 H 659.836 -1.78363 -0.785665 0
M  V30 6879 H 658.932 -2.14079 -2.27105 0
M  V30 6880 N 659.233 0.902656 -1.29189 0
M  V30 6881 C 660.166 2.00816 -1.0839 0
M  V30 6882 C 661.144 1.626 0.00335266 0
M  V30 6883 O 662.328 1.87928 -0.146765 0
M  V30 6884 C 659.455 3.32415 -0.649435 0
M  V30 6885 C 658.501 3.89617 -1.73496 0
M  V30 6886 S 659.334 4.19091 -3.33351 0
M  V30 6887 C 660.49 5.53736 -2.91766 0
M  V30 6888 H 660.723 2.18151 -2.01984 0
M  V30 6889 H 658.256 1.0489 -1.13303 0
M  V30 6890 H 660.214 4.08492 -0.405479 0
M  V30 6891 H 658.875 3.12964 0.266857 0
M  V30 6892 H 658.068 4.84658 -1.38284 0
M  V30 6893 H 657.67 3.20217 -1.93229 0
M  V30 6894 H 659.962 6.34085 -2.38627 0
M  V30 6895 H 660.905 5.93871 -3.85647 0
M  V30 6896 H 661.313 5.15453 -2.30149 0
M  V30 6897 N 660.711 1.11618 1.11262 0
M  V30 6898 C 661.658 0.7762 2.17356 0
M  V30 6899 C 662.628 -0.253152 1.6416 0
M  V30 6900 O 663.813 -0.129655 1.90359 0
M  V30 6901 C 660.953 0.227581 3.44349 0
M  V30 6902 C 660.066 1.31372 4.1154 0
M  V30 6903 C 659.201 0.72544 5.26223 0
M  V30 6904 C 658.24 1.7913 5.85302 0
M  V30 6905 N 657.377 1.22237 6.91377 0
M  V30 6906 H 662.217 1.68508 2.45783 0
M  V30 6907 H 659.754 0.841475 1.20655 0
M  V30 6908 H 661.712 -0.108483 4.17059 0
M  V30 6909 H 660.342 -0.644486 3.16301 0
M  V30 6910 H 659.394 1.7667 3.36885 0
M  V30 6911 H 660.706 2.12005 4.51504 0
M  V30 6912 H 659.86 0.339541 6.05749 0
M  V30 6913 H 658.599 -0.112188 4.87571 0
M  V30 6914 H 657.604 2.18648 5.04453 0
M  V30 6915 H 658.829 2.63199 6.26022 0
M  V30 6916 H 656.775 0.406423 6.5474 0
M  V30 6917 H 656.692 1.9654 7.30006 0
M  V30 6918 H 657.96 0.863426 7.74703 0
M  V30 6919 N 662.189 -1.289 0.906776 0
M  V30 6920 C 663.605 -1.47733 0.603902 0
M  V30 6921 C 663.805 -1.82568 -0.852702 0
M  V30 6922 O 662.861 -1.92642 -1.63234 0
M  V30 6923 C 664.174 -2.58522 1.53581 0
M  V30 6924 C 665.722 -2.72394 1.54177 0
M  V30 6925 C 666.197 -3.86318 2.46013 0
M  V30 6926 N 667.688 -3.93661 2.441 0
M  V30 6927 C 668.423 -4.81177 3.11859 0
M  V30 6928 N 667.919 -5.73333 3.88923 0
M  V30 6929 N 669.712 -4.74728 3.00981 0
M  V30 6930 H 661.863 -1.04567 1.84877 0
M  V30 6931 H 664.126 -0.520118 0.792579 0
M  V30 6932 H 663.832 -2.39667 2.57396 0
M  V30 6933 H 663.706 -3.55475 1.26165 0
M  V30 6934 H 666.093 -2.90641 0.511034 0
M  V30 6935 H 666.174 -1.75993 1.85634 0
M  V30 6936 H 665.818 -3.68826 3.49185 0
M  V30 6937 H 665.748 -4.82102 2.11862 0
M  V30 6938 H 668.239 -3.27751 1.88115 0
M  V30 6939 H 668.552 -6.36923 4.37663 0
M  V30 6940 H 666.897 -5.73196 3.93029 0
M  V30 6941 H 670.088 -4.01722 2.40286 0
M  V30 6942 H 670.261 -5.42719 3.54062 0
M  V30 6943 N 663.667 -0.670007 -1.42649 0
M  V30 6944 C 664.617 0.0339546 -2.27975 0
M  V30 6945 C 665.601 0.778295 -1.40824 0
M  V30 6946 O 666.793 0.657997 -1.64315 0
M  V30 6947 C 663.922 0.987899 -3.28779 0
M  V30 6948 C 663.008 0.241153 -4.23414 0
M  V30 6949 N 663.399 -0.751392 -5.00188 0
M  V30 6950 C 661.697 0.480269 -4.43407 0
M  V30 6951 C 662.398 -1.19615 -5.69269 0
M  V30 6952 N 661.374 -0.527045 -5.41039 0
M  V30 6953 H 665.176 -0.727425 -2.84756 0
M  V30 6954 H 662.69 -0.498673 -1.54554 0
M  V30 6955 H 664.687 1.50716 -3.88703 0
M  V30 6956 H 663.347 1.74916 -2.73559 0
M  V30 6957 H 664.358 -1.13075 -5.05405 0
M  V30 6958 H 661.035 1.2214 -3.99234 0
M  V30 6959 H 662.425 -2.01836 -6.40868 0
M  V30 6960 N 665.145 1.52092 -0.413018 0
M  V30 6961 C 666.561 1.59471 -0.0640836 0
M  V30 6962 C 666.761 1.42562 1.42402 0
M  V30 6963 O 665.817 1.25453 2.19129 0
M  V30 6964 C 667.13 2.95392 -0.562474 0
M  V30 6965 C 668.678 3.08637 -0.520788 0
M  V30 6966 C 669.153 4.47044 -0.995752 0
M  V30 6967 N 670.644 4.53296 -0.952732 0
M  V30 6968 C 671.379 5.58669 -1.29138 0
M  V30 6969 N 670.875 6.71576 -1.70168 0
M  V30 6970 N 672.668 5.48898 -1.2111 0
M  V30 6971 H 664.819 1.6133 -1.38153 0
M  V30 6972 H 667.082 0.75916 -0.567785 0
M  V30 6973 H 666.788 3.13059 -1.60271 0
M  V30 6974 H 666.662 3.77191 0.0257875 0
M  V30 6975 H 669.049 2.90652 0.510412 0
M  V30 6976 H 669.13 2.28735 -1.14515 0
M  V30 6977 H 668.774 4.65773 -2.0253 0
M  V30 6978 H 668.704 5.25448 -0.348162 0
M  V30 6979 H 671.195 3.72248 -0.651119 0
M  V30 6980 H 671.508 7.47973 -1.9431 0
M  V30 6981 H 669.853 6.72847 -1.74075 0
M  V30 6982 H 673.044 4.59573 -0.889396 0
M  V30 6983 H 673.217 6.30912 -1.47833 0
M  V30 6984 N 666.623 0.143563 1.56945 0
M  V30 6985 C 667.586 -0.783295 2.154 0
M  V30 6986 C 668.586 -1.17763 1.09492 0
M  V30 6987 O 669.776 -1.09912 1.35148 0
M  V30 6988 C 666.908 -2.06248 2.7143 0
M  V30 6989 H 668.101 -0.274863 2.98638 0
M  V30 6990 H 665.654 -0.105859 1.55941 0
M  V30 6991 H 666.389 -2.61466 1.91849 0
M  V30 6992 H 666.174 -1.78897 3.4891 0
M  V30 6993 H 667.664 -2.72453 3.16479 0
M  V30 6994 N 668.101 -1.57061 -0.130224 0
M  V30 6995 C 669.064 -1.98593 -1.14426 0
M  V30 6996 C 670.064 -0.874584 -1.34936 0
M  V30 6997 O 671.254 -1.14086 -1.31643 0
M  V30 6998 C 668.386 -2.31639 -2.50112 0
M  V30 6999 H 669.579 -2.89374 -0.787561 0
M  V30 7000 H 667.132 -1.51756 -0.374146 0
M  V30 7001 H 667.867 -1.43703 -2.90723 0
M  V30 7002 H 667.652 -3.12684 -2.36583 0
M  V30 7003 H 669.142 -2.64551 -3.23114 0
M  V30 7004 N 669.579 0.400081 -1.52437 0
M  V30 7005 C 670.819 1.15526 -1.68622 0
M  V30 7006 C 671.183 1.87533 -0.411744 0
M  V30 7007 O 672.384 2.6501 -0.449804 0
M  V30 7008 C 670.655 2.11618 -2.88015 0
M  V30 7009 S 672.214 2.95121 -3.24729 0
M  V30 7010 H 669.032 0.39123 -0.593683 0
M  V30 7011 H 671.634 0.441255 -1.90455 0
M  V30 7012 H 670.338 1.5742 -3.79008 0
M  V30 7013 H 669.869 2.87544 -2.68481 0
M  V30 7014 H 671.884 4.13653 -2.74055 0
M  V30 7015 N 671.057 1.43213 0.657864 0
M  V30 7016 C 672.02 1.47687 1.75275 0
M  V30 7017 C 673.02 0.362179 1.56668 0
M  V30 7018 O 674.21 0.623734 1.62651 0
M  V30 7019 C 671.342 1.32497 3.14098 0
M  V30 7020 H 672.535 2.4519 1.7269 0
M  V30 7021 H 670.088 1.2991 0.869087 0
M  V30 7022 H 670.823 0.359831 3.22298 0
M  V30 7023 H 670.608 2.13299 3.29008 0
M  V30 7024 H 672.098 1.38549 3.93946 0
M  V30 7025 N 672.536 -0.895792 1.29666 0
M  V30 7026 C 673.761 -1.68528 1.20885 0
M  V30 7027 C 674.186 -1.8673 -0.226595 0
M  V30 7028 O 673.544 -1.39044 -1.16347 0
M  V30 7029 C 673.592 -3.04512 1.93144 0
M  V30 7030 O 672.696 -3.92963 1.25115 0
M  V30 7031 H 672.037 -0.515371 0.418675 0
M  V30 7032 H 674.567 -1.11878 1.71302 0
M  V30 7033 H 674.577 -3.54628 2.0175 0
M  V30 7034 H 673.252 -2.90582 2.97548 0
M  V30 7035 H 671.829 -3.51399 1.24794 0
M  V30 7036 N 674.014 -1.12206 -1.10668 0
M  V30 7037 C 674.977 -0.790867 -2.15123 0
M  V30 7038 C 675.977 0.193618 -1.5963 0
M  V30 7039 O 677.167 -0.0318728 -1.74171 0
M  V30 7040 C 674.299 -0.174797 -3.40452 0
M  V30 7041 H 675.492 -1.7163 -2.45933 0
M  V30 7042 H 673.045 -0.924993 -1.2599 0
M  V30 7043 H 673.78 0.760478 -3.15257 0
M  V30 7044 H 673.565 -0.88358 -3.82015 0
M  V30 7045 H 675.055 0.0405162 -4.1758 0
M  V30 7046 N 675.492 1.28418 -0.913599 0
M  V30 7047 C 676.717 1.99643 -0.561899 0
M  V30 7048 C 677.142 1.67819 0.849608 0
M  V30 7049 O 676.5 0.910503 1.56779 0
M  V30 7050 C 676.548 3.52116 -0.777622 0
M  V30 7051 O 675.652 4.12076 0.163457 0
M  V30 7052 H 674.993 0.627229 -0.217898 0
M  V30 7053 H 677.523 1.63575 -1.229 0
M  V30 7054 H 677.533 4.02163 -0.687666 0
M  V30 7055 H 676.208 3.74613 -1.8066 0
M  V30 7056 H 674.785 3.72892 0.0247827 0
M  V30 7057 N 676.97 0.677563 1.42291 0
M  V30 7058 C 678.219 0.198173 2.00724 0
M  V30 7059 C 678.532 -1.20325 1.54211 0
M  V30 7060 O 679.738 -1.77916 2.05081 0
M  V30 7061 C 678.194 0.303432 3.58619 0
M  V30 7062 C 677.802 1.70909 4.14119 0
M  V30 7063 C 679.546 -0.117103 4.24338 0
M  V30 7064 C 677.453 1.76696 5.64387 0
M  V30 7065 H 676.383 0.070329 0.750713 0
M  V30 7066 H 679.034 0.843147 1.62982 0
M  V30 7067 H 677.416 -0.409482 3.93877 0
M  V30 7068 H 678.59 2.44931 3.90315 0
M  V30 7069 H 676.905 2.07771 3.6086 0
M  V30 7070 H 679.502 -0.0940471 5.34617 0
M  V30 7071 H 679.845 -1.15283 4.00019 0
M  V30 7072 H 680.378 0.5449 3.9405 0
M  V30 7073 H 677.117 2.7826 5.93508 0
M  V30 7074 H 676.637 1.07034 5.90173 0
M  V30 7075 H 678.316 1.52166 6.28852 0
M  V30 7076 N 678.448 -1.51871 0.421078 0
M  V30 7077 C 679.396 -2.28903 -0.413066 0
M  V30 7078 C 680.39 -1.3408 -1.03532 0
M  V30 7079 O 681.596 -1.5149 -0.972146 0
M  V30 7080 H 677.971 -0.736478 -0.152003 0
M  V30 7081 H 679.942 -2.97285 0.257695 0
M  V30 7082 C 678.691 -3.13156 -1.51091 0
M  V30 7083 H 678.014 -3.85997 -1.04145 0
M  V30 7084 H 679.454 -3.7014 -2.06814 0
M  V30 7085 C 677.913 -2.27482 -2.48503 0
M  V30 7086 O 678.443 -1.92325 -3.52667 0
M  V30 7087 N 676.649 -1.91019 -2.18998 0
M  V30 7088 H 676.196 -2.19808 -1.34322 0
M  V30 7089 H 676.154 -1.3399 -2.84419 0
M  V30 7090 N 679.926 -0.151884 -1.56866 0
M  V30 7091 C 681.172 0.498742 -1.96572 0
M  V30 7092 C 681.505 1.64194 -1.03702 0
M  V30 7093 O 680.78 1.94334 -0.0803432 0
M  V30 7094 C 681.063 1.00027 -3.45929 0
M  V30 7095 C 680.916 -0.141767 -4.49577 0
M  V30 7096 C 682.235 1.88044 -3.97904 0
M  V30 7097 H 679.354 0.17982 -0.714726 0
M  V30 7098 H 681.996 -0.234097 -1.88552 0
M  V30 7099 H 680.146 1.62476 -3.52894 0
M  V30 7100 H 681.818 -0.778269 -4.54687 0
M  V30 7101 H 680.061 -0.80019 -4.26356 0
M  V30 7102 H 680.732 0.250947 -5.51429 0
M  V30 7103 H 683.208 1.35416 -3.93449 0
M  V30 7104 H 682.084 2.20043 -5.02864 0
M  V30 7105 H 682.345 2.81916 -3.40552 0
M  V30 7106 O 681.443 1.61494 -0.0134355 0
M  V30 7107 H 682.134 1.84128 0.601368 0
M  V30 END ATOM
M  V30 BEGIN BOND
M  V30 END BOND
M  V30 END CTAB
M  END
$$$$
