drugbank_target|O43678 NADH dehydrogenase [ubiquinone] 1 alpha subcomplex subunit 2 (DB00157)
 OpenBabel12092119343D

  0  0  0     0  0            999 V3000
M  V30 BEGIN CTAB
M  V30 COUNTS 1556 1568 0 0 0
M  V30 BEGIN ATOM
M  V30 1 H -0.908 1.98254 -0.117106 0
M  V30 2 N 0 1.576 0 0
M  V30 3 C 0.933 2.03868 1.02534 0
M  V30 4 C 1.911 0.928543 1.3348 0
M  V30 5 O 3.095 1.19667 1.45644 0
M  V30 6 C 0.222 2.43627 2.35294 0
M  V30 7 C -0.732 3.65373 2.2001 0
M  V30 8 S 0.101 5.13292 1.52614 0
M  V30 9 C 1.257 5.56322 2.86805 0
M  V30 10 H 1.49 2.90518 0.631377 0
M  V30 11 H -0.977 1.52953 0.210867 0
M  V30 12 H 0.981 2.67203 3.11629 0
M  V30 13 H -0.358 1.57376 2.7183 0
M  V30 14 H -1.165 3.90944 3.18086 0
M  V30 15 H -1.563 3.418 1.51819 0
M  V30 16 H 0.729 5.58782 3.83104 0
M  V30 17 H 1.672 6.56266 2.65933 0
M  V30 18 H 2.08 4.83886 2.90714 0
M  V30 19 N 1.4781 -0.272755 1.55222 0
M  V30 20 C 2.4411 -1.32041 1.87344 0
M  V30 21 C 3.4411 -1.42342 0.74803 0
M  V30 22 O 4.6311 -1.41488 1.0162 0
M  V30 23 C 1.7631 -2.70173 2.07893 0
M  V30 24 H 2.9561 -1.04789 2.80997 0
M  V30 25 H 0.5091 -0.51083 1.47717 0
M  V30 26 H 1.2441 -3.02605 1.16622 0
M  V30 27 H 1.0291 -2.64082 2.89833 0
M  V30 28 H 2.5191 -3.45869 2.34017 0
M  V30 29 N 2.9562 -1.48159 -0.537278 0
M  V30 30 C 3.9192 -1.61665 -1.62472 0
M  V30 31 C 4.9192 -0.490395 -1.5314 0
M  V30 32 O 6.1092 -0.755998 -1.5694 0
M  V30 33 C 3.2412 -1.57997 -3.02076 0
M  V30 34 H 4.4342 -2.58621 -1.51839 0
M  V30 35 H 1.9872 -1.36647 -0.758771 0
M  V30 36 H 2.7222 -0.624913 -3.18222 0
M  V30 37 H 2.5072 -2.39755 -3.10258 0
M  V30 38 H 3.9972 -1.70627 -3.81151 0
M  V30 39 N 4.4343 0.785586 -1.36625 0
M  V30 40 C 5.3973 1.87999 -1.31107 0
M  V30 41 C 6.3973 1.59316 -0.217959 0
M  V30 42 O 7.5873 1.67656 -0.472977 0
M  V30 43 C 4.7193 3.24861 -1.03334 0
M  V30 44 H 5.9123 1.94307 -2.2844 0
M  V30 45 H 3.4653 0.983813 -1.21453 0
M  V30 46 H 4.2003 3.24235 -0.0647432 0
M  V30 47 H 3.9853 3.4707 -1.82441 0
M  V30 48 H 5.4753 4.04929 -1.02088 0
M  V30 49 N 5.9124 1.20967 1.01018 0
M  V30 50 C 6.8754 0.965918 2.07853 0
M  V30 51 C 7.8754 -0.0610545 1.60684 0
M  V30 52 O 9.0654 0.175681 1.73312 0
M  V30 53 C 6.1974 0.455513 3.37843 0
M  V30 54 H 7.3904 1.91365 2.3091 0
M  V30 55 H 4.9434 1.02594 1.17916 0
M  V30 56 H 5.6784 -0.497381 3.20463 0
M  V30 57 H 5.4634 1.19622 3.73407 0
M  V30 58 H 6.9534 0.304667 4.16487 0
M  V30 59 N 7.3905 -1.2043 1.01659 0
M  V30 60 C 8.3535 -2.21433 0.591616 0
M  V30 61 C 9.3535 -1.57203 -0.338226 0
M  V30 62 O 10.5435 -1.73737 -0.126918 0
M  V30 63 C 7.6755 -3.40628 -0.136058 0
M  V30 64 H 8.8685 -2.60545 1.48514 0
M  V30 65 H 6.4215 -1.33893 0.806379 0
M  V30 66 H 7.1565 -3.07019 -1.04449 0
M  V30 67 H 6.9415 -3.88475 0.531917 0
M  V30 68 H 8.4315 -4.15475 -0.420735 0
M  V30 69 N 8.8686 -0.792821 -1.36206 0
M  V30 70 C 10.0936 -0.377701 -2.03932 0
M  V30 71 C 10.5186 0.998947 -1.59382 0
M  V30 72 O 9.8766 1.64421 -0.763903 0
M  V30 73 C 9.9246 -0.453635 -3.57735 0
M  V30 74 O 9.0286 0.538151 -4.08874 0
M  V30 75 H 8.3696 -0.159855 -0.644471 0
M  V30 76 H 10.8996 -1.07488 -1.7409 0
M  V30 77 H 10.9096 -0.318464 -4.06755 0
M  V30 78 H 9.5846 -1.45784 -3.89512 0
M  V30 79 H 8.1616 0.364359 -3.71116 0
M  V30 80 N 10.3467 1.47872 -0.545128 0
M  V30 81 C 11.7627 1.5829 -0.204032 0
M  V30 82 C 11.9627 1.54529 1.29317 0
M  V30 83 O 11.0187 1.44232 2.07252 0
M  V30 84 C 12.3317 2.89304 -0.819987 0
M  V30 85 C 13.8797 3.02864 -0.790105 0
M  V30 86 C 14.3547 4.3656 -1.38491 0
M  V30 87 N 15.8457 4.43165 -1.34755 0
M  V30 88 C 16.5807 5.45153 -1.77753 0
M  V30 89 N 16.0767 6.54016 -2.2855 0
M  V30 90 N 17.8697 5.36125 -1.68897 0
M  V30 91 H 10.0207 1.4856 -1.51802 0
M  V30 92 H 12.2837 0.706305 -0.632327 0
M  V30 93 H 11.9897 2.97757 -1.87173 0
M  V30 94 H 11.8637 3.75957 -0.305915 0
M  V30 95 H 14.2507 2.94014 0.252913 0
M  V30 96 H 14.3317 2.17782 -1.34181 0
M  V30 97 H 13.9757 4.46164 -2.42693 0
M  V30 98 H 13.9057 5.20353 -0.808754 0
M  V30 99 H 16.3967 3.65083 -0.975855 0
M  V30 100 H 16.7097 7.27994 -2.59314 0
M  V30 101 H 15.0547 6.54938 -2.32553 0
M  V30 102 H 18.2457 4.49975 -1.28998 0
M  V30 103 H 18.4187 6.15472 -2.02726 0
M  V30 104 N 11.8248 0.280983 1.55075 0
M  V30 105 C 13.0728 -0.333455 1.9933 0
M  V30 106 C 13.3938 -1.55937 1.17085 0
M  V30 107 O 12.6638 -1.94143 0.261805 0
M  V30 108 H 11.2438 -0.126197 0.736263 0
M  V30 109 H 13.9058 0.387678 1.91005 0
M  V30 110 H 13.0018 -0.619292 3.05894 0
M  V30 111 N 13.3029 -1.57598 0.00835791 0
M  V30 112 C 14.5489 -1.91211 -0.675732 0
M  V30 113 C 14.8819 -0.883139 -1.72958 0
M  V30 114 O 14.1569 0.097016 -1.94258 0
M  V30 115 C 14.4399 -3.35379 -1.31123 0
M  V30 116 C 14.2929 -4.48999 -0.268356 0
M  V30 117 C 15.6119 -3.7912 -2.23508 0
M  V30 118 H 12.7309 -0.695374 -0.244179 0
M  V30 119 H 15.3729 -1.89901 0.0613655 0
M  V30 120 H 13.5229 -3.36626 -1.93946 0
M  V30 121 H 15.1949 -4.59887 0.360844 0
M  V30 122 H 13.4379 -4.31873 0.408482 0
M  V30 123 H 14.1089 -5.46851 -0.752218 0
M  V30 124 H 16.5849 -3.79477 -1.70693 0
M  V30 125 H 15.4609 -4.80729 -2.64936 0
M  V30 126 H 15.7219 -3.13455 -3.11766 0
M  V30 127 N 14.781 0.264519 -1.55364 0
M  V30 128 C 16.029 0.993021 -1.76021 0
M  V30 129 C 16.35 1.86511 -0.569099 0
M  V30 130 O 15.62 1.91438 0.415735 0
M  V30 131 H 14.2 0.369639 -0.649135 0
M  V30 132 H 16.862 0.286707 -1.9278 0
M  V30 133 H 15.958 1.62502 -2.66457 0
M  V30 134 N 16.2591 1.48442 0.529413 0
M  V30 135 C 17.2221 1.62524 1.61612 0
M  V30 136 C 18.2221 0.498509 1.52877 0
M  V30 137 O 19.4121 0.76431 1.56537 0
M  V30 138 C 16.5441 1.59597 3.01233 0
M  V30 139 H 17.7371 2.59423 1.50465 0
M  V30 140 H 15.2901 1.37047 0.751514 0
M  V30 141 H 16.0251 0.641781 3.17886 0
M  V30 142 H 15.8101 2.41397 3.08982 0
M  V30 143 H 17.3001 1.72646 3.80241 0
M  V30 144 N 17.7372 -0.778329 1.37039 0
M  V30 145 C 18.6842 -1.89139 1.32269 0
M  V30 146 C 19.6542 -1.65017 0.189387 0
M  V30 147 O 20.8392 -1.87024 0.377693 0
M  V30 148 C 17.9792 -3.26112 1.12894 0
M  V30 149 C 17.0922 -3.62233 2.35396 0
M  V30 150 C 16.2272 -4.8838 2.08946 0
M  V30 151 C 15.2662 -5.17212 3.2735 0
M  V30 152 N 14.4032 -6.34546 3.00492 0
M  V30 153 H 19.2432 -1.92552 2.27437 0
M  V30 154 H 16.7802 -0.941473 1.13025 0
M  V30 155 H 18.7382 -4.05116 0.996835 0
M  V30 156 H 17.3682 -3.22091 0.213758 0
M  V30 157 H 16.4202 -2.78265 2.5937 0
M  V30 158 H 17.7322 -3.79481 3.23721 0
M  V30 159 H 16.8862 -5.75274 1.92729 0
M  V30 160 H 15.6252 -4.73222 1.17949 0
M  V30 161 H 14.6302 -4.28796 3.44113 0
M  V30 162 H 15.8552 -5.34283 4.19188 0
M  V30 163 H 13.8012 -6.20759 2.12118 0
M  V30 164 H 13.7182 -6.52179 3.82358 0
M  V30 165 H 14.9862 -7.24394 2.87879 0
M  V30 166 N 19.2153 -1.21501 -1.00376 0
M  V30 167 C 20.1453 -0.999478 -2.11028 0
M  V30 168 C 21.1263 0.0759671 -1.6993 0
M  V30 169 O 22.3113 -0.0841106 -1.94018 0
M  V30 170 C 19.4413 -0.564709 -3.42678 0
M  V30 171 C 18.3953 -1.58486 -3.97576 0
M  V30 172 C 17.7213 -1.00628 -5.25146 0
M  V30 173 C 19.0213 -2.97204 -4.29496 0
M  V30 174 H 20.7153 -1.92495 -2.29317 0
M  V30 175 H 18.2613 -0.92693 -1.102 0
M  V30 176 H 20.2143 -0.401091 -4.19487 0
M  V30 177 H 18.9383 0.396411 -3.24185 0
M  V30 178 H 17.5973 -1.73606 -3.22888 0
M  V30 179 H 17.2453 -0.0368439 -5.02987 0
M  V30 180 H 16.9453 -1.68771 -5.62841 0
M  V30 181 H 18.4693 -0.854015 -6.04598 0
M  V30 182 H 19.8833 -2.8552 -4.97143 0
M  V30 183 H 18.2803 -3.62372 -4.78338 0
M  V30 184 H 19.3503 -3.47956 -3.3772 0
M  V30 185 N 20.6934 1.19889 -1.02296 0
M  V30 186 C 21.9414 1.89046 -0.714558 0
M  V30 187 C 22.2624 1.79636 0.758681 0
M  V30 188 O 21.5324 1.20292 1.54618 0
M  V30 189 H 20.1124 0.699802 -0.261317 0
M  V30 190 H 22.7744 1.45574 -1.29592 0
M  V30 191 H 21.8704 2.95524 -1.0036 0
M  V30 192 N 22.1715 0.800033 1.35784 0
M  V30 193 C 23.1015 0.220184 2.3246 0
M  V30 194 C 24.0825 -0.65073 1.57161 0
M  V30 195 O 25.2675 -0.582359 1.85263 0
M  V30 196 C 22.3975 -0.637353 3.41402 0
M  V30 197 C 21.3515 0.134531 4.27789 0
M  V30 198 C 20.6775 -0.844285 5.27992 0
M  V30 199 C 21.9775 1.32979 5.05088 0
M  V30 200 H 23.6715 1.02787 2.81203 0
M  V30 201 H 21.2175 0.495717 1.35199 0
M  V30 202 H 23.1705 -1.05302 4.08031 0
M  V30 203 H 21.8945 -1.47785 2.91251 0
M  V30 204 H 20.5535 0.531296 3.6273 0
M  V30 205 H 20.2015 -1.68011 4.74111 0
M  V30 206 H 19.9015 -0.332184 5.8666 0
M  V30 207 H 21.4255 -1.2583 5.97494 0
M  V30 208 H 22.8395 0.98934 5.64699 0
M  V30 209 H 21.2365 1.77593 5.7322 0
M  V30 210 H 22.3065 2.11978 4.36111 0
M  V30 211 N 23.6496 -1.47581 0.552962 0
M  V30 212 C 25.0656 -1.5818 0.212424 0
M  V30 213 C 25.2656 -1.55213 -1.28496 0
M  V30 214 O 24.3216 -1.45329 -2.06484 0
M  V30 215 C 25.6346 -2.88865 0.835318 0
M  V30 216 C 27.1826 -3.0244 0.806156 0
M  V30 217 C 27.6576 -4.35819 1.40804 0
M  V30 218 N 29.1486 -4.42444 1.37103 0
M  V30 219 C 29.8836 -5.44202 1.80641 0
M  V30 220 N 29.3796 -6.52795 2.32015 0
M  V30 221 N 31.1726 -5.35222 1.71738 0
M  V30 222 H 23.3236 -1.47753 1.52587 0
M  V30 223 H 25.5866 -0.702941 0.636064 0
M  V30 224 H 25.2926 -2.9676 1.88749 0
M  V30 225 H 25.1666 -3.7579 0.325848 0
M  V30 226 H 27.5536 -2.94144 -0.237317 0
M  V30 227 H 27.6346 -2.17068 1.35334 0
M  V30 228 H 27.2786 -4.44871 2.45056 0
M  V30 229 H 27.2086 -5.19916 0.836338 0
M  V30 230 H 29.6996 -3.6456 0.995202 0
M  V30 231 H 30.0126 -7.26609 2.63171 0
M  V30 232 H 28.3576 -6.53696 2.36023 0
M  V30 233 H 31.5486 -4.49284 1.31382 0
M  V30 234 H 31.7216 -6.14389 2.05987 0
M  V30 235 N 25.1277 -0.289203 -1.54924 0
M  V30 236 C 26.0377 0.601863 -2.26748 0
M  V30 237 C 27.0537 1.15834 -1.2984 0
M  V30 238 O 28.2297 1.18564 -1.62802 0
M  V30 239 C 25.2947 1.76299 -2.98529 0
M  V30 240 C 24.3557 1.24178 -4.10948 0
M  V30 241 C 23.5887 2.34757 -4.79296 0
M  V30 242 O 23.8117 3.54411 -4.46933 0
M  V30 243 O 22.7457 2.02115 -5.66951 0
M  V30 244 H 26.5717 0.0195879 -3.03694 0
M  V30 245 H 24.1567 -0.0560868 -1.49295 0
M  V30 246 H 26.0387 2.43973 -3.43592 0
M  V30 247 H 24.7137 2.33209 -2.24488 0
M  V30 248 H 23.6207 0.531104 -3.70311 0
M  V30 249 H 24.9537 0.718252 -4.86931 0
M  V30 250 N 26.6058 1.57591 -0.0167156 0
M  V30 251 C 27.8548 1.90461 0.663877 0
M  V30 252 C 28.1678 0.893515 1.73999 0
M  V30 253 O 29.3738 1.11302 2.47637 0
M  V30 254 C 27.8298 3.38155 1.23204 0
M  V30 255 C 27.4378 4.47597 0.189866 0
M  V30 256 C 29.1818 3.80111 1.88986 0
M  V30 257 C 27.0888 5.86379 0.768964 0
M  V30 258 H 26.0188 0.710738 0.251729 0
M  V30 259 H 28.6698 1.83326 -0.0799926 0
M  V30 260 H 27.0518 3.40182 2.02712 0
M  V30 261 H 28.2258 4.57112 -0.581846 0
M  V30 262 H 26.5408 4.14766 -0.368475 0
M  V30 263 H 29.1378 4.81145 2.33247 0
M  V30 264 H 29.4808 3.14511 2.72743 0
M  V30 265 H 30.0138 3.80454 1.16187 0
M  V30 266 H 26.7528 6.55493 -0.0301957 0
M  V30 267 H 26.2728 5.80496 1.50945 0
M  V30 268 H 27.9518 6.34563 1.26251 0
M  V30 269 N 28.0839 -0.256276 1.55502 0
M  V30 270 C 29.4999 -0.604325 1.47716 0
M  V30 271 C 29.6999 -1.88763 0.705039 0
M  V30 272 O 28.7559 -2.51445 0.230613 0
M  V30 273 C 30.0689 -0.715756 2.92057 0
M  V30 274 C 31.6169 -0.808706 3.02372 0
M  V30 275 C 32.0919 -0.951777 4.48001 0
M  V30 276 N 33.5829 -1.01688 4.519 0
M  V30 277 C 34.3179 -1.14668 5.61817 0
M  V30 278 N 33.8139 -1.24261 6.81565 0
M  V30 279 N 35.6069 -1.1791 5.49594 0
M  V30 280 H 27.7579 0.586291 2.04148 0
M  V30 281 H 30.0209 0.201015 0.926443 0
M  V30 282 H 29.7269 0.157027 3.51349 0
M  V30 283 H 29.6009 -1.59071 3.42018 0
M  V30 284 H 31.9879 -1.67195 2.43166 0
M  V30 285 H 32.0689 0.0912063 2.55637 0
M  V30 286 H 31.7129 -0.0931291 5.07815 0
M  V30 287 H 31.6429 -1.86659 4.92408 0
M  V30 288 H 34.1339 -0.954468 3.65648 0
M  V30 289 H 34.4469 -1.34046 7.61086 0
M  V30 290 H 32.7919 -1.21236 6.84344 0
M  V30 291 H 35.9829 -1.10057 4.54978 0
M  V30 292 H 36.1559 -1.27681 6.35296 0
M  V30 293 N 29.562 -1.4872 -0.521534 0
M  V30 294 C 30.811 -1.56419 -1.27341 0
M  V30 295 C 31.124 -0.246805 -1.94037 0
M  V30 296 O 32.33 -0.202122 -2.70747 0
M  V30 297 C 30.786 -2.75896 -2.31105 0
M  V30 298 C 30.394 -4.14311 -1.70441 0
M  V30 299 C 32.138 -2.92913 -3.07249 0
M  V30 300 C 30.045 -5.25038 -2.72194 0
M  V30 301 H 28.975 -0.582344 -0.478949 0
M  V30 302 H 31.626 -1.75071 -0.549779 0
M  V30 303 H 30.008 -2.50697 -3.06541 0
M  V30 304 H 31.182 -4.49564 -1.01136 0
M  V30 305 H 29.497 -4.02482 -1.06759 0
M  V30 306 H 32.094 -3.72805 -3.83302 0
M  V30 307 H 32.437 -2.02689 -3.63625 0
M  V30 308 H 32.97 -3.18054 -2.38928 0
M  V30 309 H 29.709 -6.17255 -2.20627 0
M  V30 310 H 29.229 -4.94263 -3.39801 0
M  V30 311 H 30.908 -5.53508 -3.35019 0
M  V30 312 N 31.0401 0.771051 -1.3745 0
M  V30 313 C 31.9901 1.87456 -1.29785 0
M  V30 314 C 32.9741 1.59827 -0.185541 0
M  V30 315 O 34.1661 1.71945 -0.419997 0
M  V30 316 C 31.2951 3.24935 -1.1078 0
M  V30 317 C 30.3811 3.58514 -2.26558 0
M  V30 318 N 30.7721 3.6327 -3.5195 0
M  V30 319 C 29.0701 3.88683 -2.18727 0
M  V30 320 C 29.7711 3.93616 -4.283 0
M  V30 321 N 28.7471 4.09551 -3.57448 0
M  V30 322 H 32.5491 1.89386 -2.24745 0
M  V30 323 H 30.0631 0.967531 -1.30432 0
M  V30 324 H 32.0601 4.03881 -1.03374 0
M  V30 325 H 30.7201 3.24268 -0.16738 0
M  V30 326 H 31.7311 3.45458 -3.85848 0
M  V30 327 H 28.4081 3.95834 -1.32746 0
M  V30 328 H 29.7981 4.04066 -5.36824 0
M  V30 329 N 32.5182 1.22032 0.997298 0
M  V30 330 C 33.4482 1.01065 2.10495 0
M  V30 331 C 34.4292 -0.0669542 1.69968 0
M  V30 332 O 35.6142 0.0943987 1.9397 0
M  V30 333 C 32.7442 0.582874 3.42374 0
M  V30 334 C 31.6982 1.60592 3.96729 0
M  V30 335 C 31.0242 1.03412 5.24605 0
M  V30 336 C 32.3242 2.99478 4.27914 0
M  V30 337 H 34.0182 1.93708 2.28292 0
M  V30 338 H 31.5642 0.932761 1.09707 0
M  V30 339 H 33.5172 0.423332 4.19268 0
M  V30 340 H 32.2412 -0.379213 3.24391 0
M  V30 341 H 30.9002 1.75316 3.21963 0
M  V30 342 H 30.5482 0.063518 5.0296 0
M  V30 343 H 30.2482 1.71754 5.61938 0
M  V30 344 H 31.7722 0.886066 6.04137 0
M  V30 345 H 33.1862 2.88153 4.95622 0
M  V30 346 H 31.5832 3.64903 4.76409 0
M  V30 347 H 32.6532 3.49742 3.3587 0
M  V30 348 N 33.9963 -1.19345 1.0293 0
M  V30 349 C 35.2363 -1.90738 0.734727 0
M  V30 350 C 35.6003 -1.7785 -0.723414 0
M  V30 351 O 36.8013 -2.43844 -1.13108 0
M  V30 352 C 35.0723 -3.37569 1.17396 0
M  V30 353 S 36.6313 -4.27176 1.00329 0
M  V30 354 H 33.4493 -0.658771 0.267474 0
M  V30 355 H 36.0513 -1.4428 1.31922 0
M  V30 356 H 34.7553 -3.44475 2.23081 0
M  V30 357 H 34.2863 -3.8906 0.582772 0
M  V30 358 H 36.3013 -4.96126 -0.0859152 0
M  V30 359 N 35.4744 -0.807222 -1.35358 0
M  V30 360 C 36.4064 -0.175717 -2.28525 0
M  V30 361 C 37.4194 0.625354 -1.5031 0
M  V30 362 O 38.6084 0.457611 -1.72535 0
M  V30 363 C 35.7084 0.773471 -3.29956 0
M  V30 364 C 34.8814 0.0186296 -4.37396 0
M  V30 365 C 33.9404 0.886395 -5.18681 0
M  V30 366 O 32.9664 0.337106 -5.68201 0
M  V30 367 N 34.1684 2.20839 -5.36852 0
M  V30 368 H 36.9334 -0.976091 -2.83359 0
M  V30 369 H 34.4944 -0.662737 -1.47714 0
M  V30 370 H 36.4864 1.35824 -3.81227 0
M  V30 371 H 35.0564 1.47465 -2.75632 0
M  V30 372 H 34.2764 -0.747349 -3.87051 0
M  V30 373 H 35.5644 -0.501577 -5.06322 0
M  V30 374 H 34.9624 2.67858 -4.98265 0
M  V30 375 H 33.5194 2.74237 -5.91301 0
M  V30 376 N 36.9525 1.47285 -0.560781 0
M  V30 377 C 38.3685 1.58065 -0.22081 0
M  V30 378 C 38.5685 1.55892 1.27671 0
M  V30 379 O 37.6245 1.46422 2.0571 0
M  V30 380 C 38.9375 2.88418 -0.850625 0
M  V30 381 C 40.4855 3.02009 -0.822184 0
M  V30 382 C 40.9605 4.35066 -1.43113 0
M  V30 383 N 42.4515 4.41711 -1.39448 0
M  V30 384 C 43.1865 5.43237 -1.83525 0
M  V30 385 N 42.6825 6.51555 -2.35474 0
M  V30 386 N 44.4755 5.34304 -1.74574 0
M  V30 387 H 36.6265 1.46941 -1.53369 0
M  V30 388 H 38.8895 0.699558 -0.639783 0
M  V30 389 H 38.5955 2.95755 -1.9032 0
M  V30 390 H 38.4695 3.75612 -0.345773 0
M  V30 391 H 40.8565 2.94266 0.221714 0
M  V30 392 H 40.9375 2.16347 -1.36483 0
M  V30 393 H 40.5815 4.43565 -2.47412 0
M  V30 394 H 40.5115 5.19465 -0.863899 0
M  V30 395 H 43.0025 3.64027 -1.01452 0
M  V30 396 H 43.3155 7.25203 -2.67021 0
M  V30 397 H 41.6605 6.52435 -2.39487 0
M  V30 398 H 44.8515 4.48581 -1.33763 0
M  V30 399 H 45.0245 6.13288 -2.09242 0
M  V30 400 N 38.4306 0.297415 1.54768 0
M  V30 401 C 39.6556 -0.318435 2.04941 0
M  V30 402 C 40.0806 -1.4701 1.17345 0
M  V30 403 O 39.4386 -1.80436 0.176758 0
M  V30 404 C 39.4866 -0.755749 3.52592 0
M  V30 405 O 38.5906 -1.86088 3.68028 0
M  V30 406 H 37.9316 -0.062421 0.661059 0
M  V30 407 H 40.4616 0.438215 1.99852 0
M  V30 408 H 40.4716 -1.04552 3.94376 0
M  V30 409 H 39.1466 0.0867233 4.1581 0
M  V30 410 H 37.7236 -1.57193 3.38149 0
M  V30 411 N 39.9087 -1.5758 0.0250728 0
M  V30 412 C 41.3197 -1.79476 -0.514323 0
M  V30 413 C 41.6707 -0.934956 -1.72491 0
M  V30 414 O 40.7957 -0.144245 -2.15919 0
M  V30 415 C 41.3907 -3.25503 -0.939842 0
M  V30 416 C 39.9497 -3.48408 -1.42438 0
M  V30 417 C 39.0967 -2.74583 -0.387201 0
M  V30 418 H 42.0477 -1.567 0.25113 0
M  V30 419 H 42.0687 -3.34992 -1.80445 0
M  V30 420 H 41.5807 -3.88056 -0.0585628 0
M  V30 421 H 39.6817 -2.91103 -2.32572 0
M  V30 422 H 39.7947 -4.57119 -1.43455 0
M  V30 423 H 38.1587 -2.39942 -0.854409 0
M  V30 424 H 38.9417 -3.39849 0.485543 0
M  V30 425 N 41.3868 0.248026 -1.55636 0
M  V30 426 C 42.6348 0.974295 -1.77065 0
M  V30 427 C 42.9558 1.85897 -0.588849 0
M  V30 428 O 42.2258 1.91868 0.395407 0
M  V30 429 H 40.8058 0.362733 -0.653019 0
M  V30 430 H 43.4678 0.266244 -1.93073 0
M  V30 431 H 42.5638 1.59667 -2.68166 0
M  V30 432 N 42.8649 1.48995 0.513639 0
M  V30 433 C 44.0899 1.61792 1.29762 0
M  V30 434 C 44.5149 0.284475 1.85936 0
M  V30 435 O 43.8729 -0.746185 1.65232 0
M  V30 436 C 43.9209 2.67993 2.41272 0
M  V30 437 O 43.0249 2.26287 3.44772 0
M  V30 438 H 42.3659 0.541963 0.38363 0
M  V30 439 H 44.8959 1.95097 0.616307 0
M  V30 440 H 44.9059 2.89772 2.87221 0
M  V30 441 H 43.5809 3.64791 1.9975 0
M  V30 442 H 42.1579 2.14788 3.04829 0
M  V30 443 N 44.343 -0.763751 1.37857 0
M  V30 444 C 45.275 -1.88664 1.30148 0
M  V30 445 C 46.288 -1.61365 0.215685 0
M  V30 446 O 47.477 -1.72134 0.472459 0
M  V30 447 C 44.577 -3.24075 0.991396 0
M  V30 448 C 43.75 -3.78958 2.18426 0
M  V30 449 C 42.809 -4.92862 1.8432 0
M  V30 450 O 41.835 -5.08027 2.56704 0
M  V30 451 N 43.037 -5.75071 0.792081 0
M  V30 452 H 45.802 -1.95791 2.26905 0
M  V30 453 H 43.363 -0.943226 1.31586 0
M  V30 454 H 45.355 -3.97804 0.743935 0
M  V30 455 H 43.925 -3.12399 0.112122 0
M  V30 456 H 43.145 -2.96913 2.59299 0
M  V30 457 H 44.433 -4.12357 2.98058 0
M  V30 458 H 43.831 -5.65375 0.191595 0
M  V30 459 H 42.388 -6.48991 0.60449 0
M  V30 460 N 45.8211 -1.22559 -0.990812 0
M  V30 461 C 47.0691 -1.04933 -1.72724 0
M  V30 462 C 47.3901 0.416158 -1.90508 0
M  V30 463 O 46.6601 1.29918 -1.46622 0
M  V30 464 H 45.2401 -0.385296 -0.639965 0
M  V30 465 H 47.9021 -1.54105 -1.19322 0
M  V30 466 H 46.9981 -1.52886 -2.72089 0
M  V30 467 N 47.2992 1.18797 -1.03562 0
M  V30 468 C 48.5452 1.8893 -0.737113 0
M  V30 469 C 48.8782 1.79837 0.732956 0
M  V30 470 O 48.1532 1.19525 1.5344 0
M  V30 471 C 48.4362 3.39607 -1.19745 0
M  V30 472 C 48.2892 3.57537 -2.72924 0
M  V30 473 C 49.6082 4.33069 -0.783526 0
M  V30 474 H 46.7272 0.686057 -0.269249 0
M  V30 475 H 49.3692 1.39797 -1.28673 0
M  V30 476 H 47.5192 3.81583 -0.729855 0
M  V30 477 H 49.1912 3.24688 -3.27682 0
M  V30 478 H 47.4342 3.00363 -3.12993 0
M  V30 479 H 48.1052 4.63238 -3.00191 0
M  V30 480 H 50.5812 3.98846 -1.18581 0
M  V30 481 H 49.4572 5.3707 -1.13343 0
M  V30 482 H 49.7182 4.40986 0.313681 0
M  V30 483 N 48.7773 0.814389 1.34928 0
M  V30 484 C 50.1933 0.499084 1.51596 0
M  V30 485 C 50.3933 -0.978319 1.76157 0
M  V30 486 O 49.4493 -1.76309 1.80752 0
M  V30 487 C 50.7623 1.35121 2.68631 0
M  V30 488 C 52.3103 1.34746 2.82511 0
M  V30 489 C 52.7853 2.18388 4.0258 0
M  V30 490 N 54.2763 2.15966 4.09772 0
M  V30 491 C 55.0113 2.77437 5.01813 0
M  V30 492 N 54.5073 3.47866 5.99134 0
M  V30 493 N 56.3003 2.67037 4.94619 0
M  V30 494 H 48.4513 1.7711 1.17243 0
M  V30 495 H 50.7143 0.754256 0.574284 0
M  V30 496 H 50.4203 2.40001 2.57085 0
M  V30 497 H 50.2943 1.00991 3.63429 0
M  V30 498 H 52.6813 0.30648 2.93504 0
M  V30 499 H 52.7623 1.72869 1.88547 0
M  V30 500 H 52.4063 3.2253 3.92347 0
M  V30 501 H 52.3363 1.77621 4.9574 0
M  V30 502 H 54.8273 1.64729 3.40107 0
M  V30 503 H 55.1403 3.92038 6.65977 0
M  V30 504 H 53.4853 3.51972 5.99284 0
M  V30 505 H 56.6763 2.11597 4.17546 0
M  V30 506 H 56.8493 3.15232 5.66156 0
M  V30 507 N 50.2554 -1.46986 0.568584 0
M  V30 508 C 51.5324 -1.95592 -0.0174074 0
M  V30 509 C 51.9124 -1.51124 -1.47393 0
M  V30 510 O 51.2604 -0.755329 -2.15655 0
M  V30 511 C 51.4704 -3.48719 0.139913 0
M  V30 512 C 52.8184 -4.246 0.000426376 0
M  V30 513 O 53.8424 -3.56135 0.0680316 0
M  V30 514 O 52.7014 -5.46302 -0.146988 0
M  V30 515 H 49.7954 -0.82498 -0.0577599 0
M  V30 516 H 52.3414 -1.57335 0.635909 0
M  V30 517 H 51.1134 -3.73927 1.15301 0
M  V30 518 H 50.7364 -3.93771 -0.550491 0
M  V30 519 N 51.7335 -0.305618 -1.54608 0
M  V30 520 C 52.9805 0.302298 -2.00231 0
M  V30 521 C 53.3085 1.5354 -1.19398 0
M  V30 522 O 52.5635 1.93973 -0.259423 0
M  V30 523 C 52.8625 0.698983 -3.50498 0
M  V30 524 C 52.5285 -0.432903 -4.48817 0
M  V30 525 C 51.1905 -0.743622 -4.75419 0
M  V30 526 C 53.5425 -1.19409 -5.07337 0
M  V30 527 C 50.8705 -1.81857 -5.57804 0
M  V30 528 C 53.2225 -2.25899 -5.90891 0
M  V30 529 C 51.8865 -2.57572 -6.15803 0
M  V30 530 H 51.1565 0.110619 -0.732697 0
M  V30 531 H 53.8035 -0.425674 -1.86709 0
M  V30 532 H 52.1085 1.50711 -3.61654 0
M  V30 533 H 53.8055 1.1806 -3.83227 0
M  V30 534 H 50.3955 -0.18063 -4.28219 0
M  V30 535 H 54.5795 -0.967295 -4.86782 0
M  V30 536 H 49.8355 -2.06864 -5.75341 0
M  V30 537 H 54.0095 -2.85335 -6.35261 0
M  V30 538 H 51.6365 -3.40998 -6.7943 0
M  V30 539 N 53.2116 1.57565 -0.0334293 0
M  V30 540 C 54.4606 1.91155 0.643639 0
M  V30 541 C 54.7736 0.91192 1.73042 0
M  V30 542 O 55.9796 1.13923 2.46442 0
M  V30 543 C 54.4356 3.39443 1.1961 0
M  V30 544 C 54.0436 4.47774 0.142381 0
M  V30 545 C 55.7876 3.82094 1.84944 0
M  V30 546 C 53.6946 5.87162 0.706727 0
M  V30 547 H 52.6246 0.713368 0.244176 0
M  V30 548 H 55.2756 1.8323 -0.0994323 0
M  V30 549 H 53.6576 3.42313 1.99092 0
M  V30 550 H 54.8316 4.56469 -0.630296 0
M  V30 551 H 53.1466 4.14352 -0.412446 0
M  V30 552 H 55.7436 4.83591 2.2813 0
M  V30 553 H 56.0866 3.17386 2.69392 0
M  V30 554 H 56.6196 3.81665 1.12145 0
M  V30 555 H 53.3586 6.55424 -0.0997178 0
M  V30 556 H 52.8786 5.82064 1.44779 0
M  V30 557 H 54.5576 6.35866 1.19514 0
M  V30 558 N 54.6897 -0.239769 1.55765 0
M  V30 559 C 55.5997 -1.31831 1.94056 0
M  V30 560 C 56.6157 -1.52275 0.841925 0
M  V30 561 O 57.7917 -1.65759 1.14394 0
M  V30 562 C 54.8567 -2.65156 2.23368 0
M  V30 563 C 53.9177 -2.53173 3.46701 0
M  V30 564 C 53.1507 -3.8014 3.74606 0
M  V30 565 O 53.3737 -4.82343 3.04469 0
M  V30 566 O 52.3077 -3.78344 4.68123 0
M  V30 567 H 56.1337 -1.02347 2.85935 0
M  V30 568 H 53.7187 -0.441123 1.42739 0
M  V30 569 H 55.6007 -3.43929 2.43497 0
M  V30 570 H 54.2757 -2.94358 1.34666 0
M  V30 571 H 53.1827 -1.72662 3.31871 0
M  V30 572 H 54.5157 -2.28915 4.35728 0
M  V30 573 N 56.1678 -1.49265 -0.50573 0
M  V30 574 C 57.1148 -1.65585 -1.6078 0
M  V30 575 C 58.0848 -0.497396 -1.58478 0
M  V30 576 O 59.2698 -0.72385 -1.76536 0
M  V30 577 C 56.4098 -1.72408 -2.98948 0
M  V30 578 C 55.5228 -2.99525 -3.11301 0
M  V30 579 C 54.6578 -2.97356 -4.40174 0
M  V30 580 C 53.6968 -4.19074 -4.46143 0
M  V30 581 N 52.8338 -4.14841 -5.66437 0
M  V30 582 H 57.6738 -2.59688 -1.46172 0
M  V30 583 H 55.2108 -1.28761 -0.711261 0
M  V30 584 H 57.1688 -1.74344 -3.79025 0
M  V30 585 H 55.7988 -0.817753 -3.1227 0
M  V30 586 H 54.8508 -3.07222 -2.24318 0
M  V30 587 H 56.1628 -3.89518 -3.11572 0
M  V30 588 H 55.3168 -2.97829 -5.28567 0
M  V30 589 H 54.0558 -2.05133 -4.42461 0
M  V30 590 H 53.0608 -4.1885 -3.56153 0
M  V30 591 H 54.2858 -5.12483 -4.45575 0
M  V30 592 H 52.2318 -3.25453 -5.69575 0
M  V30 593 H 52.1488 -4.98564 -5.68304 0
M  V30 594 H 53.4168 -4.1941 -6.57051 0
M  V30 595 N 57.6459 0.756429 -1.3826 0
M  V30 596 C 59.0619 1.0591 -1.19395 0
M  V30 597 C 59.2619 2.01459 -0.0406567 0
M  V30 598 O 58.3179 2.44909 0.614467 0
M  V30 599 C 59.6309 1.64191 -2.51916 0
M  V30 600 C 61.1789 1.76376 -2.58574 0
M  V30 601 C 61.6539 2.38069 -3.91264 0
M  V30 602 N 63.1449 2.45503 -3.92788 0
M  V30 603 C 63.8799 2.94126 -4.92217 0
M  V30 604 N 63.3759 3.42805 -6.02043 0
M  V30 605 N 65.1689 2.9314 -4.7961 0
M  V30 606 H 57.3199 0.122313 -2.12048 0
M  V30 607 H 59.5829 0.116892 -0.940766 0
M  V30 608 H 59.2889 1.01451 -3.3675 0
M  V30 609 H 59.1629 2.6329 -2.70108 0
M  V30 610 H 61.5499 2.38244 -1.74137 0
M  V30 611 H 61.6309 0.759894 -2.44252 0
M  V30 612 H 61.2749 1.76835 -4.76121 0
M  V30 613 H 61.2049 3.39091 -4.02895 0
M  V30 614 H 63.6959 2.1107 -3.13461 0
M  V30 615 H 64.0089 3.78354 -6.73846 0
M  V30 616 H 62.3539 3.4087 -6.05667 0
M  V30 617 H 65.5449 2.54419 -3.92923 0
M  V30 618 H 65.7179 3.30721 -5.5725 0
M  V30 619 N 59.124 1.23083 0.984299 0
M  V30 620 C 60.354 1.08556 1.75781 0
M  V30 621 C 60.762 -0.366171 1.85623 0
M  V30 622 O 60.105 -1.26524 1.33182 0
M  V30 623 C 60.167 1.63208 3.20318 0
M  V30 624 C 59.831 3.11922 3.33997 0
M  V30 625 C 60.828 4.09259 3.2063 0
M  V30 626 C 58.513 3.51552 3.58771 0
M  V30 627 C 60.507 5.4421 3.31835 0
M  V30 628 C 58.194 4.86649 3.69616 0
M  V30 629 C 59.192 5.82787 3.56157 0
M  V30 630 O 58.88 7.15431 3.66626 0
M  V30 631 H 58.612 0.380713 0.5586 0
M  V30 632 H 61.166 1.63321 1.2456 0
M  V30 633 H 59.396 1.0286 3.72769 0
M  V30 634 H 61.085 1.44216 3.79416 0
M  V30 635 H 61.851 3.79984 3.01392 0
M  V30 636 H 57.73 2.77239 3.6832 0
M  V30 637 H 61.274 6.1923 3.21247 0
M  V30 638 H 57.171 5.15601 3.88363 0
M  V30 639 H 57.939 7.23127 3.83445 0
M  V30 640 N 60.6021 -1.18246 1.0419 0
M  V30 641 C 61.8481 -1.88536 0.747122 0
M  V30 642 C 62.1811 -1.80223 -0.723409 0
M  V30 643 O 61.4561 -1.20337 -1.52804 0
M  V30 644 C 61.7391 -3.38968 1.21544 0
M  V30 645 C 61.5921 -3.56084 2.74816 0
M  V30 646 C 62.9111 -4.32648 0.806482 0
M  V30 647 H 60.0301 -0.684619 0.272883 0
M  V30 648 H 62.6721 -1.39113 1.29413 0
M  V30 649 H 60.8221 -3.8119 0.750081 0
M  V30 650 H 62.4941 -3.22946 3.29399 0
M  V30 651 H 60.7371 -2.98699 3.14582 0
M  V30 652 H 61.4081 -4.61639 3.02644 0
M  V30 653 H 63.8841 -3.98211 1.20695 0
M  V30 654 H 62.7601 -5.36462 1.1619 0
M  V30 655 H 63.0211 -4.41146 -0.29029 0
M  V30 656 N 62.0802 -0.821533 -1.34494 0
M  V30 657 C 62.9902 -0.244355 -2.33324 0
M  V30 658 C 64.0062 0.620527 -1.62559 0
M  V30 659 O 65.1822 0.528754 -1.94335 0
M  V30 660 C 62.2472 0.585368 -3.41723 0
M  V30 661 C 61.3082 -0.301752 -4.28238 0
M  V30 662 C 60.5412 0.488466 -5.3146 0
M  V30 663 O 60.7642 1.72186 -5.4379 0
M  V30 664 O 59.6982 -0.12848 -6.01763 0
M  V30 665 H 63.5242 -1.06231 -2.84515 0
M  V30 666 H 61.1092 -0.583645 -1.37528 0
M  V30 667 H 62.9912 1.05747 -4.07916 0
M  V30 668 H 61.6662 1.38068 -2.92778 0
M  V30 669 H 60.5732 -0.821315 -3.64973 0
M  V30 670 H 61.9062 -1.06138 -4.8062 0
M  V30 671 N 63.5583 1.46682 -0.576371 0
M  V30 672 C 64.4883 2.33028 0.148397 0
M  V30 673 C 65.4693 1.44961 0.889956 0
M  V30 674 O 66.6543 1.73789 0.866662 0
M  V30 675 C 63.7843 3.27117 1.1667 0
M  V30 676 C 62.7383 4.24575 0.540386 0
M  V30 677 C 62.0643 5.08126 1.6647 0
M  V30 678 C 63.3643 5.19722 -0.518331 0
M  V30 679 H 65.0583 2.93875 -0.572509 0
M  V30 680 H 62.6043 1.41315 -0.276768 0
M  V30 681 H 64.5573 3.86374 1.68204 0
M  V30 682 H 63.2813 2.64364 1.9178 0
M  V30 683 H 61.9403 3.66571 0.0461769 0
M  V30 684 H 61.5883 4.41762 2.40531 0
M  V30 685 H 61.2883 5.74122 1.25131 0
M  V30 686 H 62.8123 5.70246 2.18293 0
M  V30 687 H 64.2263 5.73232 -0.0883058 0
M  V30 688 H 62.6233 5.94026 -0.851679 0
M  V30 689 H 63.6933 4.64037 -1.40703 0
M  V30 690 N 65.0364 0.313813 1.54444 0
M  V30 691 C 65.9834 -0.55655 2.23989 0
M  V30 692 C 66.9534 -1.11943 1.22711 0
M  V30 693 O 68.1384 -1.16158 1.51367 0
M  V30 694 C 65.2784 -1.71635 2.99392 0
M  V30 695 C 64.3914 -1.18364 4.15468 0
M  V30 696 C 63.5264 -2.30834 4.78424 0
M  V30 697 C 62.5654 -1.74762 5.86622 0
M  V30 698 N 61.7024 -2.80855 6.43479 0
M  V30 699 H 66.5424 0.0430893 2.97969 0
M  V30 700 H 64.0794 0.0330359 1.47063 0
M  V30 701 H 66.0374 -2.39868 3.41349 0
M  V30 702 H 64.6674 -2.28742 2.27765 0
M  V30 703 H 63.7194 -0.393163 3.78363 0
M  V30 704 H 65.0314 -0.733262 4.93381 0
M  V30 705 H 64.1854 -3.0699 5.23299 0
M  V30 706 H 62.9244 -2.79204 3.99871 0
M  V30 707 H 61.9294 -0.970995 5.41158 0
M  V30 708 H 63.1544 -1.2728 6.67066 0
M  V30 709 H 61.1004 -3.28535 5.67804 0
M  V30 710 H 61.0174 -2.40351 7.16776 0
M  V30 711 H 62.2854 -3.5687 6.93011 0
M  V30 712 N 66.5145 -1.57545 0.0417849 0
M  V30 713 C 67.4615 -2.10977 -0.935805 0
M  V30 714 C 68.4315 -1.01486 -1.31491 0
M  V30 715 O 69.6165 -1.2898 -1.40602 0
M  V30 716 C 66.7565 -2.65169 -2.2086 0
M  V30 717 C 65.8695 -3.88714 -1.88482 0
M  V30 718 C 65.0045 -4.31254 -3.1015 0
M  V30 719 C 64.0435 -5.47524 -2.7365 0
M  V30 720 N 63.1805 -5.85162 -3.87982 0
M  V30 721 H 68.0205 -2.94218 -0.473249 0
M  V30 722 H 65.5575 -1.45415 -0.221981 0
M  V30 723 H 67.5155 -2.94685 -2.95325 0
M  V30 724 H 66.1455 -1.8474 -2.64709 0
M  V30 725 H 65.1975 -3.65849 -1.04205 0
M  V30 726 H 66.5095 -4.73245 -1.57608 0
M  V30 727 H 65.6635 -4.62273 -3.92923 0
M  V30 728 H 64.4025 -3.45516 -3.44195 0
M  V30 729 H 63.4075 -5.16187 -1.89291 0
M  V30 730 H 64.6325 -6.34971 -2.40807 0
M  V30 731 H 62.5785 -5.02377 -4.21846 0
M  V30 732 H 62.4955 -6.64362 -3.60775 0
M  V30 733 H 63.7635 -6.20791 -4.71422 0
M  V30 734 N 67.9926 0.231505 -1.5589 0
M  V30 735 C 68.9556 1.27028 -1.90779 0
M  V30 736 C 69.9556 1.40308 -0.785507 0
M  V30 737 O 71.1456 1.38744 -1.05336 0
M  V30 738 C 68.2776 2.64566 -2.14983 0
M  V30 739 H 69.4706 0.973017 -2.83677 0
M  V30 740 H 67.0236 0.471486 -1.49019 0
M  V30 741 H 67.7586 2.99406 -1.24604 0
M  V30 742 H 67.5436 2.56305 -2.96732 0
M  V30 743 H 69.0336 3.39543 -2.43105 0
M  V30 744 N 69.4707 1.49531 0.497807 0
M  V30 745 C 70.4187 1.66926 1.61983 0
M  V30 746 C 71.4127 0.535167 1.60724 0
M  V30 747 O 72.6187 0.714896 1.65195 0
M  V30 748 H 68.9937 0.526415 0.537021 0
M  V30 749 H 70.9647 2.61098 1.44465 0
M  V30 750 C 69.7137 1.75602 3.00099 0
M  V30 751 H 69.0367 2.62244 3.01775 0
M  V30 752 H 70.4767 1.91807 3.78135 0
M  V30 753 C 68.9357 0.501543 3.33146 0
M  V30 754 O 69.4657 -0.371342 3.9998 0
M  V30 755 N 67.6717 0.363531 2.88317 0
M  V30 756 H 67.2187 1.07485 2.34104 0
M  V30 757 H 67.1767 -0.474728 3.10795 0
M  V30 758 N 70.9488 -0.749086 1.3866 0
M  V30 759 C 72.3598 -1.32664 1.31366 0
M  V30 760 C 72.7108 -1.96179 -0.028484 0
M  V30 761 O 71.8358 -1.9537 -0.93057 0
M  V30 762 C 72.4308 -2.41219 2.37905 0
M  V30 763 C 70.9898 -2.94684 2.34176 0
M  V30 764 C 70.1368 -1.68108 2.20533 0
M  V30 765 H 73.0878 -0.547628 1.48952 0
M  V30 766 H 73.1088 -3.21268 2.0388 0
M  V30 767 H 72.6208 -1.94962 3.35576 0
M  V30 768 H 70.7218 -3.45258 1.401 0
M  V30 769 H 70.8348 -3.48757 3.2849 0
M  V30 770 H 69.1988 -1.91907 1.67463 0
M  V30 771 H 69.9818 -1.23923 3.20153 0
M  V30 772 N 72.4269 -1.23603 -0.977757 0
M  V30 773 C 73.7039 -0.977897 -1.69401 0
M  V30 774 C 74.0839 0.502738 -2.05026 0
M  V30 775 O 73.4319 1.47459 -1.74551 0
M  V30 776 C 73.6419 -1.89077 -2.93345 0
M  V30 777 C 74.9899 -2.15579 -3.65802 0
M  V30 778 O 76.0139 -1.86648 -3.03383 0
M  V30 779 O 74.8729 -2.64658 -4.78141 0
M  V30 780 H 71.9669 -0.369025 -0.740101 0
M  V30 781 H 74.5129 -1.34657 -1.03274 0
M  V30 782 H 73.2849 -2.89158 -2.63634 0
M  V30 783 H 72.9079 -1.52463 -3.67207 0
M  V30 784 N 73.905 1.17692 -1.04816 0
M  V30 785 C 74.835 2.23777 -0.666791 0
M  V30 786 C 75.816 1.66796 0.33361 0
M  V30 787 O 77.001 1.93039 0.212042 0
M  V30 788 C 74.131 3.47281 -0.0367933 0
M  V30 789 C 73.085 4.17059 -0.961546 0
M  V30 790 C 72.411 5.34342 -0.195626 0
M  V30 791 C 73.711 4.69713 -2.28402 0
M  V30 792 H 75.405 2.55933 -1.55367 0
M  V30 793 H 72.951 1.23019 -0.748484 0
M  V30 794 H 74.904 4.20706 0.241775 0
M  V30 795 H 73.628 3.14381 0.885004 0
M  V30 796 H 72.287 3.45541 -1.22462 0
M  V30 797 H 71.935 4.97692 0.728816 0
M  V30 798 H 71.635 5.81966 -0.811775 0
M  V30 799 H 73.159 6.10553 0.0757473 0
M  V30 800 H 74.573 5.34794 -2.06563 0
M  V30 801 H 72.97 5.279 -2.8538 0
M  V30 802 H 74.04 3.86726 -2.92525 0
M  V30 803 N 75.3831 0.828654 1.34056 0
M  V30 804 C 76.7941 0.477534 1.8049 0
M  V30 805 C 77.1451 -1.00258 1.6865 0
M  V30 806 O 76.2701 -1.78057 1.22982 0
M  V30 807 C 76.8651 0.860018 3.27703 0
M  V30 808 C 75.4241 0.561185 3.72193 0
M  V30 809 C 74.5711 1.07385 2.55663 0
M  V30 810 H 77.5221 1.0183 1.21722 0
M  V30 811 H 77.5431 0.166038 3.80138 0
M  V30 812 H 77.0551 1.93731 3.36288 0
M  V30 813 H 75.1561 -0.506465 3.69142 0
M  V30 814 H 75.2691 1.10926 4.66082 0
M  V30 815 H 73.6331 0.495149 2.49841 0
M  V30 816 H 74.4161 2.15771 2.67016 0
M  V30 817 N 76.8612 -1.46375 0.584142 0
M  V30 818 C 78.1102 -2.01585 0.0679741 0
M  V30 819 C 78.4232 -1.46109 -1.30045 0
M  V30 820 O 79.6292 -1.93148 -1.90804 0
M  V30 821 C 78.0852 -3.5983 0.0709207 0
M  V30 822 C 77.6932 -4.24303 1.43775 0
M  V30 823 C 79.4372 -4.22693 -0.391228 0
M  V30 824 C 77.3442 -5.74631 1.39834 0
M  V30 825 H 76.2742 -0.753689 0.0216421 0
M  V30 826 H 78.9252 -1.68093 0.736001 0
M  V30 827 H 77.3072 -3.90405 -0.663299 0
M  V30 828 H 78.4812 -4.05335 2.19181 0
M  V30 829 H 76.7962 -3.73539 1.84004 0
M  V30 830 H 79.3932 -5.3289 -0.439524 0
M  V30 831 H 79.7362 -3.91728 -1.40906 0
M  V30 832 H 80.2692 -3.96749 0.288974 0
M  V30 833 H 77.0082 -6.10258 2.39303 0
M  V30 834 H 76.5282 -5.95858 0.686505 0
M  V30 835 H 78.2072 -6.37375 1.11187 0
M  V30 836 N 78.3393 -0.321999 -1.54275 0
M  V30 837 C 79.2693 0.537411 -2.27231 0
M  V30 838 C 80.2503 1.12064 -1.27968 0
M  V30 839 O 81.4353 1.14606 -1.56777 0
M  V30 840 C 78.5653 1.69919 -3.02894 0
M  V30 841 C 77.5193 1.24534 -4.09482 0
M  V30 842 C 76.8453 2.49394 -4.72977 0
M  V30 843 C 78.1453 0.361335 -5.21049 0
M  V30 844 H 79.8393 -0.0711406 -2.99315 0
M  V30 845 H 77.3853 -0.0356555 -1.43956 0
M  V30 846 H 79.3383 2.30668 -3.52662 0
M  V30 847 H 78.0623 2.33431 -2.28424 0
M  V30 848 H 76.7213 0.660782 -3.60596 0
M  V30 849 H 76.3693 3.11265 -3.95124 0
M  V30 850 H 76.0693 2.19718 -5.44975 0
M  V30 851 H 77.5933 3.10908 -5.25517 0
M  V30 852 H 79.0073 0.875072 -5.66582 0
M  V30 853 H 77.4043 0.157428 -5.99893 0
M  V30 854 H 78.4743 -0.60822 -4.8107 0
M  V30 855 N 79.8174 1.5752 -0.0501392 0
M  V30 856 C 81.0664 1.91827 0.623328 0
M  V30 857 C 81.3794 0.930222 1.72065 0
M  V30 858 O 82.5854 1.1653 2.4522 0
M  V30 859 C 81.0414 3.40692 1.16003 0
M  V30 860 C 80.6494 4.479 0.0948811 0
M  V30 861 C 82.3934 3.84034 1.80881 0
M  V30 862 C 80.3004 5.87879 0.644411 0
M  V30 863 H 79.2304 0.715918 0.236596 0
M  V30 864 H 81.8814 1.83115 -0.118861 0
M  V30 865 H 80.2634 3.44405 1.9545 0
M  V30 866 H 81.4374 4.55775 -0.678675 0
M  V30 867 H 79.7524 4.13892 -0.45637 0
M  V30 868 H 82.3494 4.85984 2.22988 0
M  V30 869 H 82.6924 3.20225 2.6601 0
M  V30 870 H 83.2254 3.82833 1.0809 0
M  V30 871 H 79.9644 6.55282 -0.169229 0
M  V30 872 H 79.4844 5.83567 1.38598 0
M  V30 873 H 81.1634 6.37098 1.12763 0
M  V30 874 N 81.2955 -0.223234 1.56011 0
M  V30 875 C 82.7115 -0.572856 1.48965 0
M  V30 876 C 82.9115 -1.87225 0.74492 0
M  V30 877 O 81.9675 -2.50899 0.283896 0
M  V30 878 C 83.2805 -0.653646 2.9351 0
M  V30 879 C 84.8285 -0.744386 3.0402 0
M  V30 880 C 85.3035 -0.856535 4.49919 0
M  V30 881 N 86.7945 -0.9208 4.53955 0
M  V30 882 C 87.5295 -1.02726 5.64123 0
M  V30 883 N 87.0255 -1.09777 6.84047 0
M  V30 884 N 88.8185 -1.06226 5.51971 0
M  V30 885 H 80.9695 0.629462 2.02858 0
M  V30 886 H 83.2325 0.220621 0.921971 0
M  V30 887 H 82.9385 0.231518 3.50937 0
M  V30 888 H 82.8125 -1.51781 3.45315 0
M  V30 889 H 85.1995 -1.61999 2.46658 0
M  V30 890 H 85.2805 0.14541 2.55386 0
M  V30 891 H 84.9245 0.0146069 5.07898 0
M  V30 892 H 84.8545 -1.76172 4.96257 0
M  V30 893 H 87.3455 -0.876694 3.6759 0
M  V30 894 H 87.6585 -1.17872 7.63758 0
M  V30 895 H 86.0035 -1.06693 6.86762 0
M  V30 896 H 89.1945 -1.00382 4.5721 0
M  V30 897 H 89.3675 -1.14177 6.37862 0
M  V30 898 N 82.7736 -1.49793 -0.48987 0
M  V30 899 C 83.6836 -1.70036 -1.61632 0
M  V30 900 C 84.6996 -0.583102 -1.63939 0
M  V30 901 O 85.8756 -0.859169 -1.82154 0
M  V30 902 C 82.9406 -1.77277 -2.97949 0
M  V30 903 C 82.0016 -3.00918 -3.06181 0
M  V30 904 C 81.2346 -3.07804 -4.35996 0
M  V30 905 O 81.4576 -2.21982 -5.25433 0
M  V30 906 O 80.3916 -4.00369 -4.49431 0
M  V30 907 H 84.2176 -2.65486 -1.47482 0
M  V30 908 H 81.8026 -1.33666 -0.667362 0
M  V30 909 H 83.6846 -1.84329 -3.78947 0
M  V30 910 H 82.3596 -0.850076 -3.12339 0
M  V30 911 H 81.2666 -2.99377 -2.2433 0
M  V30 912 H 82.5996 -3.92704 -2.96723 0
M  V30 913 N 84.2517 0.741722 -1.39055 0
M  V30 914 C 85.4917 1.51385 -1.37338 0
M  V30 915 C 85.8557 1.91972 0.0330513 0
M  V30 916 O 87.0567 2.68229 0.175174 0
M  V30 917 C 85.3277 2.72481 -2.31276 0
M  V30 918 S 86.8867 3.62211 -2.47687 0
M  V30 919 H 83.7047 0.517906 -0.487129 0
M  V30 920 H 86.3067 0.86969 -1.7509 0
M  V30 921 H 85.0107 2.40793 -3.32336 0
M  V30 922 H 84.5417 3.41832 -1.94716 0
M  V30 923 H 86.5567 4.65812 -1.70978 0
M  V30 924 N 85.7298 1.2412 0.971189 0
M  V30 925 C 86.9548 1.10667 1.75407 0
M  V30 926 C 87.3798 -0.337048 1.85056 0
M  V30 927 O 86.7378 -1.24396 1.31892 0
M  V30 928 C 86.7858 1.74726 3.15441 0
M  V30 929 O 85.8898 1.01566 3.99697 0
M  V30 930 H 85.2308 0.387341 0.539317 0
M  V30 931 H 87.7608 1.64358 1.2185 0
M  V30 932 H 87.7708 1.80341 3.6598 0
M  V30 933 H 86.4458 2.79773 3.07734 0
M  V30 934 H 85.0228 1.03713 3.58187 0
M  V30 935 N 87.2079 -1.17134 1.05439 0
M  V30 936 C 88.4849 -1.83411 0.679699 0
M  V30 937 C 88.8649 -1.9368 -0.839726 0
M  V30 938 O 88.2129 -1.47325 -1.74664 0
M  V30 939 C 88.4229 -3.20918 1.37159 0
M  V30 940 C 89.7709 -3.96796 1.51123 0
M  V30 941 O 90.7949 -3.30406 1.3308 0
M  V30 942 O 89.6539 -5.15778 1.80651 0
M  V30 943 H 86.7479 -0.79154 0.239569 0
M  V30 944 H 89.2939 -1.24411 1.15413 0
M  V30 945 H 88.0659 -3.08428 2.40807 0
M  V30 946 H 87.6889 -3.87587 0.886674 0
M  V30 947 N 88.686 -0.835752 -1.33615 0
M  V30 948 C 89.932 -0.430596 -1.98176 0
M  V30 949 C 90.265 1.00684 -1.66061 0
M  V30 950 O 89.54 1.70339 -0.938877 0
M  V30 951 C 89.823 -0.648065 -3.5422 0
M  V30 952 C 89.676 -2.13255 -3.96033 0
M  V30 953 C 90.995 -0.0922113 -4.40003 0
M  V30 954 H 88.114 -0.157924 -0.719881 0
M  V30 955 H 90.756 -1.05069 -1.58305 0
M  V30 956 H 88.906 -0.120237 -3.88314 0
M  V30 957 H 90.578 -2.725 -3.72211 0
M  V30 958 H 88.821 -2.61823 -3.45878 0
M  V30 959 H 89.492 -2.23547 -5.04708 0
M  V30 960 H 91.968 -0.543343 -4.12537 0
M  V30 961 H 90.844 -0.274083 -5.48215 0
M  V30 962 H 91.105 1.00378 -4.30554 0
M  V30 963 N 90.1641 1.46063 -0.591896 0
M  V30 964 C 91.0961 2.28539 0.174001 0
M  V30 965 C 92.1091 1.39047 0.846753 0
M  V30 966 O 93.2981 1.63564 0.714774 0
M  V30 967 C 90.3981 3.14347 1.26645 0
M  V30 968 C 89.5711 4.32021 0.683856 0
M  V30 969 C 88.6301 4.99157 1.66518 0
M  V30 970 O 87.6561 5.56458 1.19763 0
M  V30 971 N 88.8581 4.97005 2.99943 0
M  V30 972 H 91.6231 2.94911 -0.533633 0
M  V30 973 H 89.1841 1.56077 -0.430294 0
M  V30 974 H 91.1761 3.56125 1.92242 0
M  V30 975 H 89.7461 2.49988 1.87682 0
M  V30 976 H 88.9661 3.93915 -0.1498 0
M  V30 977 H 90.2541 5.08059 0.274567 0
M  V30 978 H 89.6521 4.51714 3.40545 0
M  V30 979 H 88.2091 5.42696 3.61004 0
M  V30 980 N 91.6422 0.330177 1.54103 0
M  V30 981 C 93.0532 -0.15652 1.86043 0
M  V30 982 C 93.4042 -1.51086 1.2517 0
M  V30 983 O 92.5292 -2.09023 0.560217 0
M  V30 984 C 93.1242 -0.290784 3.3755 0
M  V30 985 C 91.6832 -0.721705 3.69416 0
M  V30 986 C 90.8302 0.152622 2.7688 0
M  V30 987 H 93.7812 0.550237 1.48856 0
M  V30 988 H 93.8022 -1.12058 3.63625 0
M  V30 989 H 93.3142 0.695068 3.81825 0
M  V30 990 H 91.4152 -1.71706 3.30678 0
M  V30 991 H 91.5282 -0.520869 4.7626 0
M  V30 992 H 89.8922 -0.372894 2.51956 0
M  V30 993 H 90.6752 1.13536 3.23982 0
M  V30 994 N 93.1203 -1.57491 0.0584922 0
M  V30 995 C 94.0673 -2.11958 -0.913376 0
M  V30 996 C 95.0373 -1.02875 -1.30407 0
M  V30 997 O 96.2223 -1.30464 -1.39226 0
M  V30 998 C 93.3623 -2.67497 -2.18035 0
M  V30 999 C 92.4753 -3.90691 -1.84349 0
M  V30 1000 C 91.6103 -4.3452 -3.05559 0
M  V30 1001 C 90.6493 -5.50395 -2.67827 0
M  V30 1002 N 89.7863 -5.89244 -3.81754 0
M  V30 1003 H 94.6263 -2.94704 -0.442017 0
M  V30 1004 H 92.1633 -1.45643 -0.206545 0
M  V30 1005 H 94.1213 -2.978 -2.92183 0
M  V30 1006 H 92.7513 -1.87537 -2.62735 0
M  V30 1007 H 91.8033 -3.66934 -1.00319 0
M  V30 1008 H 93.1153 -4.7489 -1.5258 0
M  V30 1009 H 92.2693 -4.66414 -3.87998 0
M  V30 1010 H 91.0083 -3.49147 -3.40511 0
M  V30 1011 H 90.0133 -5.18165 -1.83806 0
M  V30 1012 H 91.2383 -6.3749 -2.34059 0
M  V30 1013 H 89.1843 -5.06823 -4.16493 0
M  V30 1014 H 89.1013 -6.68151 -3.53708 0
M  V30 1015 H 90.3693 -6.25756 -4.64811 0
M  V30 1016 N 94.5984 0.214957 -1.56127 0
M  V30 1017 C 95.5284 1.2695 -1.95974 0
M  V30 1018 C 96.5094 1.48539 -0.828868 0
M  V30 1019 O 97.6944 1.60611 -1.09168 0
M  V30 1020 C 94.8244 2.61794 -2.28214 0
M  V30 1021 C 93.7784 2.54851 -3.43853 0
M  V30 1022 C 93.1044 3.93785 -3.61715 0
M  V30 1023 C 94.4044 2.09065 -4.78632 0
M  V30 1024 H 96.0984 0.93846 -2.84312 0
M  V30 1025 H 93.6444 0.449996 -1.36788 0
M  V30 1026 H 95.5974 3.35731 -2.54682 0
M  V30 1027 H 94.3214 2.96599 -1.36736 0
M  V30 1028 H 92.9804 1.8337 -3.17444 0
M  V30 1029 H 92.6284 4.25908 -2.67602 0
M  V30 1030 H 92.3284 3.90019 -4.39498 0
M  V30 1031 H 93.8524 4.69374 -3.90539 0
M  V30 1032 H 95.2664 2.7275 -5.04262 0
M  V30 1033 H 93.6634 2.16346 -5.59745 0
M  V30 1034 H 94.7334 1.04315 -4.73547 0
M  V30 1035 N 96.0765 1.50051 0.48192 0
M  V30 1036 C 97.3225 1.61706 1.2338 0
M  V30 1037 C 97.6775 0.308488 1.89911 0
M  V30 1038 O 96.9705 -0.692798 1.78636 0
M  V30 1039 C 97.1645 2.72717 2.30998 0
M  V30 1040 C 96.9935 4.14242 1.75024 0
M  V30 1041 C 95.7635 4.80786 1.55476 0
M  V30 1042 C 97.9615 4.98846 1.25128 0
M  V30 1043 N 95.9435 6.06563 0.946311 0
M  V30 1044 C 97.3145 6.15258 0.765382 0
M  V30 1045 C 99.3695 4.84702 1.13881 0
M  V30 1046 C 98.0725 7.19079 0.178113 0
M  V30 1047 C 100.098 5.8869 0.565486 0
M  V30 1048 C 99.4605 7.04343 0.0899105 0
M  V30 1049 H 95.5595 0.645958 0.440753 0
M  V30 1050 H 98.1435 1.8713 0.537624 0
M  V30 1051 H 96.3145 2.49033 2.98055 0
M  V30 1052 H 98.0465 2.73789 2.9803 0
M  V30 1053 H 94.8015 4.37899 1.80392 0
M  V30 1054 H 95.2255 6.73767 0.660812 0
M  V30 1055 H 99.8675 3.95583 1.49244 0
M  V30 1056 H 97.5855 8.07882 -0.187749 0
M  V30 1057 H 101.171 5.79808 0.480974 0
M  V30 1058 H 100.051 7.83433 -0.346782 0
M  V30 1059 N 97.5546 -0.734337 1.39446 0
M  V30 1060 C 98.5176 -1.83004 1.37994 0
M  V30 1061 C 99.5176 -1.58397 0.276938 0
M  V30 1062 O 100.708 -1.65785 0.534875 0
M  V30 1063 C 97.8396 -3.20802 1.1532 0
M  V30 1064 H 99.0326 -1.85694 2.35494 0
M  V30 1065 H 96.5856 -0.938059 1.25021 0
M  V30 1066 H 97.3206 -3.23772 0.185036 0
M  V30 1067 H 97.1056 -3.4006 1.95197 0
M  V30 1068 H 98.5956 -4.00862 1.17046 0
M  V30 1069 N 99.0327 -1.24633 -0.964593 0
M  V30 1070 C 100.449 -1.01239 -1.2338 0
M  V30 1071 C 100.649 0.2769 -1.99588 0
M  V30 1072 O 99.7047 0.992241 -2.32187 0
M  V30 1073 C 101.018 -2.22937 -2.01791 0
M  V30 1074 C 102.566 -2.27594 -2.14872 0
M  V30 1075 C 103.041 -3.48921 -2.96678 0
M  V30 1076 N 104.532 -3.49257 -3.04259 0
M  V30 1077 C 105.267 -4.39795 -3.67924 0
M  V30 1078 N 104.763 -5.40591 -4.33281 0
M  V30 1079 N 106.556 -4.275 -3.64966 0
M  V30 1080 H 98.7067 -2.0748 -0.454502 0
M  V30 1081 H 100.97 -0.910647 -0.26349 0
M  V30 1082 H 100.676 -3.16587 -1.53184 0
M  V30 1083 H 100.55 -2.25306 -3.02518 0
M  V30 1084 H 102.937 -1.34473 -2.6268 0
M  V30 1085 H 103.018 -2.2925 -1.13482 0
M  V30 1086 H 102.662 -4.42359 -2.49562 0
M  V30 1087 H 102.592 -3.4451 -3.98272 0
M  V30 1088 H 105.083 -2.76337 -2.57771 0
M  V30 1089 H 105.396 -6.05904 -4.79687 0
M  V30 1090 H 103.741 -5.44475 -4.3194 0
M  V30 1091 H 106.932 -3.47987 -3.13086 0
M  V30 1092 H 107.105 -4.98258 -4.14298 0
M  V30 1093 N 100.511 1.16574 -1.06058 0
M  V30 1094 C 101.741 1.90675 -0.795397 0
M  V30 1095 C 102.149 1.77547 0.653735 0
M  V30 1096 O 101.492 1.11611 1.45907 0
M  V30 1097 C 101.554 3.42011 -1.10764 0
M  V30 1098 C 101.218 3.78924 -2.55471 0
M  V30 1099 C 102.215 3.81042 -3.53699 0
M  V30 1100 C 99.8998 4.09626 -2.90708 0
M  V30 1101 C 101.894 4.13346 -4.85205 0
M  V30 1102 C 99.5808 4.41597 -4.22416 0
M  V30 1103 C 100.579 4.43436 -5.19474 0
M  V30 1104 O 100.267 4.74649 -6.48817 0
M  V30 1105 H 99.9988 0.611554 -0.288058 0
M  V30 1106 H 102.553 1.48711 -1.41683 0
M  V30 1107 H 100.783 3.84312 -0.429128 0
M  V30 1108 H 102.472 3.97384 -0.827077 0
M  V30 1109 H 103.238 3.57437 -3.27817 0
M  V30 1110 H 99.1168 4.07361 -2.15819 0
M  V30 1111 H 102.661 4.14696 -5.60957 0
M  V30 1112 H 98.5578 4.64667 -4.48056 0
M  V30 1113 H 99.3258 4.9247 -6.5377 0
M  V30 1114 N 101.989 0.842826 1.3317 0
M  V30 1115 C 102.952 0.284065 2.27433 0
M  V30 1116 C 103.952 -0.54948 1.5112 0
M  V30 1117 O 105.142 -0.362699 1.70382 0
M  V30 1118 C 102.274 -0.599384 3.35589 0
M  V30 1119 H 103.467 1.11589 2.78366 0
M  V30 1120 H 101.02 0.616221 1.4364 0
M  V30 1121 H 101.755 -1.45349 2.89904 0
M  V30 1122 H 101.54 -0.00291266 3.921 0
M  V30 1123 H 103.03 -0.983488 4.05854 0
M  V30 1124 N 103.467 -1.45747 0.599634 0
M  V30 1125 C 104.714 -2.02292 0.0917284 0
M  V30 1126 C 105.042 -1.46906 -1.27472 0
M  V30 1127 O 104.297 -0.630652 -1.8526 0
M  V30 1128 C 104.596 -3.57399 -0.00602758 0
M  V30 1129 C 104.262 -4.31902 1.29503 0
M  V30 1130 C 102.924 -4.51974 1.65144 0
M  V30 1131 C 105.276 -4.74551 2.15525 0
M  V30 1132 C 102.604 -5.11949 2.86574 0
M  V30 1133 C 104.956 -5.35868 3.36196 0
M  V30 1134 C 103.62 -5.54165 3.72099 0
M  V30 1135 H 102.89 -0.740239 0.0335658 0
M  V30 1136 H 105.537 -1.7491 0.779661 0
M  V30 1137 H 103.842 -3.84014 -0.777183 0
M  V30 1138 H 105.539 -3.98846 -0.415038 0
M  V30 1139 H 102.129 -4.16588 1.00761 0
M  V30 1140 H 106.313 -4.58784 1.8929 0
M  V30 1141 H 101.569 -5.24305 3.14507 0
M  V30 1142 H 105.743 -5.6787 4.03109 0
M  V30 1143 H 103.37 -6.00406 4.6628 0
M  V30 1144 N 104.945 -0.338344 -1.53925 0
M  V30 1145 C 106.193 0.259245 -2.0043 0
M  V30 1146 C 106.514 1.51484 -1.22791 0
M  V30 1147 O 105.784 1.93037 -0.33368 0
M  V30 1148 H 104.364 0.0987845 -0.740439 0
M  V30 1149 H 107.026 -0.458302 -1.89435 0
M  V30 1150 H 106.122 0.505334 -3.07982 0
M  V30 1151 N 106.423 1.57458 -0.0668435 0
M  V30 1152 C 107.355 2.09413 0.931601 0
M  V30 1153 C 108.368 1.02522 1.26464 0
M  V30 1154 O 109.557 1.30049 1.22269 0
M  V30 1155 C 106.657 2.53537 2.24882 0
M  V30 1156 C 105.83 3.83944 2.09537 0
M  V30 1157 C 104.889 4.14214 3.2452 0
M  V30 1158 O 103.915 4.83891 2.9973 0
M  V30 1159 N 105.117 3.67367 4.49469 0
M  V30 1160 H 107.882 2.95699 0.488048 0
M  V30 1161 H 105.443 1.61462 0.119009 0
M  V30 1162 H 107.435 2.70853 3.00701 0
M  V30 1163 H 106.005 1.72415 2.60753 0
M  V30 1164 H 105.225 3.76057 1.18215 0
M  V30 1165 H 106.513 4.69312 1.96529 0
M  V30 1166 H 105.911 3.11068 4.72497 0
M  V30 1167 H 104.468 3.89891 5.2233 0
M  V30 1168 N 107.901 -0.206675 1.56239 0
M  V30 1169 C 108.811 -1.27686 1.96808 0
M  V30 1170 C 109.827 -1.50455 0.874035 0
M  V30 1171 O 111.003 -1.63295 1.17884 0
M  V30 1172 C 108.068 -2.60358 2.28942 0
M  V30 1173 C 107.129 -2.45762 3.51994 0
M  V30 1174 C 106.362 -3.72108 3.82585 0
M  V30 1175 O 106.585 -4.75776 3.14631 0
M  V30 1176 O 105.519 -3.6833 4.76043 0
M  V30 1177 H 109.345 -0.962593 2.88041 0
M  V30 1178 H 106.93 -0.410746 1.43643 0
M  V30 1179 H 108.812 -3.38687 2.50737 0
M  V30 1180 H 107.487 -2.91435 1.4088 0
M  V30 1181 H 106.394 -1.65584 3.35459 0
M  V30 1182 H 107.727 -2.19621 4.40486 0
M  V30 1183 N 109.379 -1.50304 -0.473955 0
M  V30 1184 C 110.607 -1.64902 -1.24959 0
M  V30 1185 C 111.022 -0.331198 -1.85872 0
M  V30 1186 O 110.379 0.68652 -1.69095 0
M  V30 1187 C 110.43 -2.73803 -2.36038 0
M  V30 1188 O 110.151 -4.00477 -1.77624 0
M  V30 1189 C 111.652 -2.99349 -3.26964 0
M  V30 1190 H 108.872 -0.554383 -0.378022 0
M  V30 1191 H 111.416 -1.9651 -0.566054 0
M  V30 1192 H 109.571 -2.44898 -3.00173 0
M  V30 1193 H 109.985 -4.60678 -2.5075 0
M  V30 1194 H 111.459 -3.79217 -4.01121 0
M  V30 1195 H 111.936 -2.10307 -3.85574 0
M  V30 1196 H 112.542 -3.29774 -2.68569 0
M  V30 1197 N 110.857 0.726932 -1.39834 0
M  V30 1198 C 111.805 1.86235 -1.39353 0
M  V30 1199 C 112.799 1.67144 -0.275555 0
M  V30 1200 O 114.005 1.74387 -0.44601 0
M  V30 1201 H 110.38 0.613174 -0.43534 0
M  V30 1202 H 112.351 1.83756 -2.35109 0
M  V30 1203 C 111.1 3.23995 -1.26185 0
M  V30 1204 H 110.423 3.39285 -2.11484 0
M  V30 1205 H 111.863 4.03609 -1.29907 0
M  V30 1206 C 110.322 3.36888 0.0290018 0
M  V30 1207 O 110.852 3.89152 0.99619 0
M  V30 1208 N 109.058 2.90446 0.0947437 0
M  V30 1209 H 108.605 2.48102 -0.693035 0
M  V30 1210 H 108.563 2.99451 0.957932 0
M  V30 1211 N 112.336 1.25143 0.95797 0
M  V30 1212 C 113.582 1.09855 1.70469 0
M  V30 1213 C 113.915 -0.360187 1.90831 0
M  V30 1214 O 113.19 -1.26568 1.47685 0
M  V30 1215 C 113.473 1.8497 3.08963 0
M  V30 1216 C 113.326 3.38652 2.96032 0
M  V30 1217 C 114.645 1.63016 4.08795 0
M  V30 1218 H 111.764 0.400465 0.618706 0
M  V30 1219 H 114.406 1.53933 1.11376 0
M  V30 1220 H 112.556 1.47505 3.59409 0
M  V30 1221 H 114.228 3.85772 2.52938 0
M  V30 1222 H 112.471 3.66534 2.32025 0
M  V30 1223 H 113.142 3.8642 3.94187 0
M  V30 1224 H 115.618 1.95625 3.67247 0
M  V30 1225 H 114.494 2.18015 5.03747 0
M  V30 1226 H 114.755 0.570692 4.38401 0
M  V30 1227 N 113.814 -1.1601 1.06675 0
M  V30 1228 C 115.225 -1.68235 0.809565 0
M  V30 1229 C 115.576 -1.8454 -0.666303 0
M  V30 1230 O 114.701 -1.54374 -1.5165 0
M  V30 1231 C 115.296 -3.05585 1.46299 0
M  V30 1232 C 113.855 -3.54915 1.25349 0
M  V30 1233 C 113.002 -2.30804 1.53703 0
M  V30 1234 H 115.953 -1.00318 1.22971 0
M  V30 1235 H 115.974 -3.70174 0.880431 0
M  V30 1236 H 115.486 -2.93686 2.53713 0
M  V30 1237 H 113.587 -3.72067 0.199261 0
M  V30 1238 H 113.7 -4.36774 1.9689 0
M  V30 1239 H 112.064 -2.36007 0.957739 0
M  V30 1240 H 112.847 -2.21499 2.62284 0
M  V30 1241 N 115.292 -0.849877 -1.32721 0
M  V30 1242 C 116.222 -0.306308 -2.31482 0
M  V30 1243 C 117.203 0.591952 -1.59468 0
M  V30 1244 O 118.388 0.513199 -1.87296 0
M  V30 1245 C 115.518 0.510204 -3.43532 0
M  V30 1246 C 114.472 -0.293209 -4.26994 0
M  V30 1247 C 113.798 0.647743 -5.30762 0
M  V30 1248 C 115.098 -1.51634 -4.99804 0
M  V30 1249 H 116.792 -1.13153 -2.77195 0
M  V30 1250 H 114.338 -0.545553 -1.33266 0
M  V30 1251 H 116.291 0.900856 -4.11658 0
M  V30 1252 H 115.015 1.36874 -2.96535 0
M  V30 1253 H 113.674 -0.665555 -3.60508 0
M  V30 1254 H 113.322 1.50299 -4.8002 0
M  V30 1255 H 113.022 0.11422 -5.87489 0
M  V30 1256 H 114.546 1.03567 -6.01753 0
M  V30 1257 H 115.96 -1.19824 -5.60638 0
M  V30 1258 H 114.357 -1.98745 -5.66234 0
M  V30 1259 H 115.427 -2.28018 -4.27943 0
M  V30 1260 N 116.77 1.45427 -0.607355 0
M  V30 1261 C 117.718 2.32269 0.12411 0
M  V30 1262 C 118.712 1.45955 0.859854 0
M  V30 1263 O 119.918 1.6244 0.775447 0
M  V30 1264 H 116.293 0.749691 0.0588839 0
M  V30 1265 H 118.264 2.91743 -0.626762 0
M  V30 1266 C 117.013 3.29567 1.1082 0
M  V30 1267 H 116.336 3.95978 0.551492 0
M  V30 1268 H 117.776 3.93061 1.58995 0
M  V30 1269 C 116.235 2.56722 2.18164 0
M  V30 1270 O 116.765 2.34842 3.25902 0
M  V30 1271 N 114.971 2.16861 1.93442 0
M  V30 1272 H 114.518 2.34855 1.05834 0
M  V30 1273 H 114.476 1.68444 2.65469 0
M  V30 1274 N 118.248 0.346503 1.53744 0
M  V30 1275 C 119.196 -0.52422 2.26616 0
M  V30 1276 C 120.19 -1.09948 1.28871 0
M  V30 1277 O 121.396 -1.04488 1.46568 0
M  V30 1278 H 117.771 -0.187743 0.728187 0
M  V30 1279 H 119.742 0.11239 2.98188 0
M  V30 1280 C 118.491 -1.66186 3.05414 0
M  V30 1281 H 117.814 -1.22848 3.80458 0
M  V30 1282 H 119.254 -2.24622 3.59612 0
M  V30 1283 C 117.713 -2.59302 2.1509 0
M  V30 1284 O 118.243 -3.61628 1.74895 0
M  V30 1285 N 116.449 -2.28055 1.8011 0
M  V30 1286 H 115.996 -1.44883 2.12994 0
M  V30 1287 H 115.954 -2.90615 1.19958 0
M  V30 1288 N 119.726 -1.57421 0.075193 0
M  V30 1289 C 120.973 -1.93618 -0.593146 0
M  V30 1290 C 121.301 -0.955484 -1.69413 0
M  V30 1291 O 120.556 0.0283251 -1.9568 0
M  V30 1292 C 120.855 -3.36428 -1.20626 0
M  V30 1293 C 120.521 -4.50307 -0.231078 0
M  V30 1294 C 119.183 -4.81186 0.0371936 0
M  V30 1295 C 121.535 -5.19374 0.435888 0
M  V30 1296 C 118.863 -5.78466 0.979461 0
M  V30 1297 C 121.215 -6.17665 1.3665 0
M  V30 1298 C 119.879 -6.46958 1.6432 0
M  V30 1299 H 119.149 -0.708499 -0.217047 0
M  V30 1300 H 121.796 -1.90937 0.146793 0
M  V30 1301 H 120.101 -3.35592 -2.02201 0
M  V30 1302 H 121.798 -3.61727 -1.73073 0
M  V30 1303 H 118.388 -4.26227 -0.450357 0
M  V30 1304 H 122.572 -4.95711 0.241748 0
M  V30 1305 H 117.828 -5.99487 1.20106 0
M  V30 1306 H 122.002 -6.70284 1.88924 0
M  V30 1307 H 119.629 -7.2215 2.37494 0
M  V30 1308 N 121.204 0.198386 -1.56346 0
M  V30 1309 C 122.429 0.939682 -1.84891 0
M  V30 1310 C 122.854 1.76202 -0.658369 0
M  V30 1311 O 122.212 1.76993 0.392851 0
M  V30 1312 C 122.26 1.81428 -3.11635 0
M  V30 1313 O 121.364 2.91265 -2.91956 0
M  V30 1314 H 120.705 0.264807 -0.608912 0
M  V30 1315 H 123.235 0.204695 -2.03573 0
M  V30 1316 H 123.245 2.21958 -3.42343 0
M  V30 1317 H 121.92 1.21004 -3.97908 0
M  V30 1318 H 120.497 2.54514 -2.72538 0
M  V30 1319 N 122.682 1.50554 0.465978 0
M  V30 1320 C 123.645 1.69233 1.54574 0
M  V30 1321 C 124.645 0.562901 1.50626 0
M  V30 1322 O 125.835 0.830016 1.53155 0
M  V30 1323 C 122.967 1.7223 2.94193 0
M  V30 1324 H 124.16 2.65571 1.39327 0
M  V30 1325 H 121.713 1.40111 0.692711 0
M  V30 1326 H 122.448 0.77603 3.14878 0
M  V30 1327 H 122.233 2.54285 2.98466 0
M  V30 1328 H 123.723 1.88618 3.72576 0
M  V30 1329 N 124.16 -0.719506 1.40217 0
M  V30 1330 C 125.437 -1.47221 1.28784 0
M  V30 1331 C 125.817 -2.10883 -0.0956067 0
M  V30 1332 O 125.165 -1.99833 -1.10811 0
M  V30 1333 C 125.375 -2.5111 2.42373 0
M  V30 1334 C 126.723 -3.17053 2.82423 0
M  V30 1335 O 127.747 -2.61429 2.41937 0
M  V30 1336 O 126.606 -4.17742 3.52355 0
M  V30 1337 H 123.7 -0.654491 0.50554 0
M  V30 1338 H 126.246 -0.752014 1.52128 0
M  V30 1339 H 125.018 -2.02556 3.34793 0
M  V30 1340 H 124.641 -3.3067 2.20778 0
M  V30 1341 N 125.638 -1.25649 -0.95132 0
M  V30 1342 C 126.57 -1.02112 -2.05197 0
M  V30 1343 C 127.583 0.0150571 -1.62793 0
M  V30 1344 O 128.772 -0.223874 -1.77091 0
M  V30 1345 C 125.872 -0.522361 -3.3485 0
M  V30 1346 C 125.045 -1.62546 -4.06076 0
M  V30 1347 C 124.104 -1.12649 -5.14001 0
M  V30 1348 O 123.13 -1.82156 -5.39266 0
M  V30 1349 N 124.332 0.03047 -5.80492 0
M  V30 1350 H 127.097 -1.96885 -2.25957 0
M  V30 1351 H 124.658 -1.16899 -1.1201 0
M  V30 1352 H 126.65 -0.172961 -4.0433 0
M  V30 1353 H 125.22 0.33151 -3.10837 0
M  V30 1354 H 124.44 -2.14628 -3.30649 0
M  V30 1355 H 125.728 -2.36644 -4.50419 0
M  V30 1356 H 125.126 0.611169 -5.62389 0
M  V30 1357 H 123.683 0.320875 -6.5101 0
M  V30 1358 N 127.117 1.15442 -1.07289 0
M  V30 1359 C 128.363 1.86489 -0.796846 0
M  V30 1360 C 128.696 1.82078 0.675371 0
M  V30 1361 O 127.971 1.24346 1.4956 0
M  V30 1362 C 128.254 3.35626 -1.30489 0
M  V30 1363 C 128.107 3.48673 -2.84161 0
M  V30 1364 C 129.426 4.30357 -0.920907 0
M  V30 1365 H 126.545 0.677144 -0.290939 0
M  V30 1366 H 129.187 1.35633 -1.33056 0
M  V30 1367 H 127.337 3.79068 -0.850883 0
M  V30 1368 H 129.009 3.14099 -3.37846 0
M  V30 1369 H 127.252 2.90253 -3.22391 0
M  V30 1370 H 127.923 4.53453 -3.14777 0
M  V30 1371 H 130.399 3.94871 -1.3121 0
M  V30 1372 H 129.275 5.33193 -1.30372 0
M  V30 1373 H 129.536 4.4176 0.173226 0
M  V30 1374 N 128.595 0.856903 1.32268 0
M  V30 1375 C 129.823 0.475439 2.01363 0
M  V30 1376 C 130.238 -0.928486 1.64392 0
M  V30 1377 O 129.595 -1.60624 0.866387 0
M  V30 1378 C 129.646 0.607545 3.56358 0
M  V30 1379 O 129.367 1.95617 3.92002 0
M  V30 1380 C 130.868 0.225382 4.42727 0
M  V30 1381 H 128.088 0.186636 0.644521 0
M  V30 1382 H 130.632 1.15446 1.68797 0
M  V30 1383 H 128.787 -0.0237719 3.87393 0
M  V30 1384 H 129.201 1.95455 4.86721 0
M  V30 1385 H 130.675 0.368813 5.50767 0
M  V30 1386 H 131.152 -0.834369 4.31202 0
M  V30 1387 H 131.758 0.831864 4.17085 0
M  V30 1388 N 130.073 -1.45103 0.615059 0
M  V30 1389 C 131.489 -1.57137 0.279322 0
M  V30 1390 C 131.689 -1.60523 -1.21797 0
M  V30 1391 O 130.745 -1.53956 -2.00134 0
M  V30 1392 C 132.058 -2.85062 0.957083 0
M  V30 1393 C 133.606 -2.98749 0.933706 0
M  V30 1394 C 134.081 -4.29455 1.59162 0
M  V30 1395 N 135.572 -4.36231 1.55746 0
M  V30 1396 C 136.307 -5.36051 2.0356 0
M  V30 1397 N 135.803 -6.42367 2.59494 0
M  V30 1398 N 137.596 -5.27456 1.94284 0
M  V30 1399 H 129.747 -1.41148 1.58717 0
M  V30 1400 H 132.01 -0.675331 0.665306 0
M  V30 1401 H 131.716 -2.88488 2.01166 0
M  V30 1402 H 131.59 -3.7407 0.48494 0
M  V30 1403 H 133.977 -2.94886 -0.112347 0
M  V30 1404 H 134.058 -2.11132 1.44419 0
M  V30 1405 H 133.702 -4.34077 2.63704 0
M  V30 1406 H 133.632 -5.15901 1.0561 0
M  V30 1407 H 136.123 -3.60011 1.14893 0
M  V30 1408 H 136.436 -7.14793 2.93752 0
M  V30 1409 H 134.781 -6.43097 2.63537 0
M  V30 1410 H 137.972 -4.43308 1.5032 0
M  V30 1411 H 138.145 -6.05099 2.3186 0
M  V30 1412 N 131.551 -0.354651 -1.53558 0
M  V30 1413 C 132.514 0.484566 -2.24019 0
M  V30 1414 C 133.514 1.01861 -1.24422 0
M  V30 1415 O 134.704 0.906097 -1.4878 0
M  V30 1416 C 131.836 1.67615 -2.96847 0
M  V30 1417 H 133.029 -0.131843 -2.9961 0
M  V30 1418 H 130.582 -0.106165 -1.55939 0
M  V30 1419 H 131.317 2.33095 -2.25471 0
M  V30 1420 H 131.102 1.30029 -3.69912 0
M  V30 1421 H 132.592 2.27114 -3.50441 0
M  V30 1422 N 133.029 1.57378 -0.0835403 0
M  V30 1423 C 133.959 2.1641 0.87686 0
M  V30 1424 C 134.94 1.09429 1.30228 0
M  V30 1425 O 136.125 1.37516 1.37124 0
M  V30 1426 C 133.255 2.73517 2.14022 0
M  V30 1427 C 132.209 3.85769 1.85381 0
M  V30 1428 C 131.535 4.29529 3.18448 0
M  V30 1429 C 132.835 5.09486 1.14984 0
M  V30 1430 H 134.529 2.96914 0.385059 0
M  V30 1431 H 132.075 1.42823 0.18377 0
M  V30 1432 H 134.028 3.13463 2.81636 0
M  V30 1433 H 132.752 1.90252 2.65465 0
M  V30 1434 H 131.411 3.46345 1.20169 0
M  V30 1435 H 131.059 3.43169 3.67755 0
M  V30 1436 H 130.759 5.05204 3.00071 0
M  V30 1437 H 132.283 4.72099 3.8724 0
M  V30 1438 H 133.697 5.46674 1.72687 0
M  V30 1439 H 132.094 5.90515 1.06826 0
M  V30 1440 H 133.164 4.84724 0.130749 0
M  V30 1441 N 134.507 -0.190092 1.56449 0
M  V30 1442 C 135.417 -1.25591 1.98152 0
M  V30 1443 C 136.433 -1.49519 0.889944 0
M  V30 1444 O 137.609 -1.62036 1.19609 0
M  V30 1445 C 134.674 -2.57916 2.3169 0
M  V30 1446 C 133.735 -2.42015 3.5458 0
M  V30 1447 C 132.968 -3.6803 3.8651 0
M  V30 1448 O 133.191 -4.72413 3.1966 0
M  V30 1449 O 132.125 -3.6326 4.79923 0
M  V30 1450 H 135.951 -0.931988 2.89046 0
M  V30 1451 H 133.536 -0.395488 1.4407 0
M  V30 1452 H 135.418 -3.36008 2.54316 0
M  V30 1453 H 134.093 -2.89925 1.43963 0
M  V30 1454 H 133 -1.62017 3.37196 0
M  V30 1455 H 134.333 -2.14937 4.4279 0
M  V30 1456 N 135.985 -1.50799 -0.457987 0
M  V30 1457 C 136.933 -1.71162 -1.575 0
M  V30 1458 C 137.927 -0.577592 -1.59249 0
M  V30 1459 O 139.133 -0.758443 -1.63241 0
M  V30 1460 H 135.508 -0.540468 -0.522875 0
M  V30 1461 H 137.479 -2.64837 -1.37492 0
M  V30 1462 C 136.228 -1.83496 -2.95338 0
M  V30 1463 H 135.551 -2.70153 -2.94716 0
M  V30 1464 H 136.991 -2.01765 -3.72917 0
M  V30 1465 C 135.45 -0.589694 -3.31699 0
M  V30 1466 O 135.98 0.265163 -4.00824 0
M  V30 1467 N 134.186 -0.439845 -2.87252 0
M  V30 1468 H 133.733 -1.13655 -2.31172 0
M  V30 1469 H 133.691 0.392159 -3.11945 0
M  V30 1470 N 137.463 0.71206 -1.40597 0
M  V30 1471 C 138.709 1.47416 -1.39271 0
M  V30 1472 C 139.042 1.942 0.00388791 0
M  V30 1473 O 138.317 1.68403 0.973179 0
M  V30 1474 C 138.6 2.69774 -2.38525 0
M  V30 1475 C 138.453 2.28861 -3.87224 0
M  V30 1476 C 139.772 3.71939 -2.35264 0
M  V30 1477 H 136.891 0.534713 -0.5072 0
M  V30 1478 H 139.533 0.812375 -1.71757 0
M  V30 1479 H 137.683 3.26238 -2.10953 0
M  V30 1480 H 139.355 1.77852 -4.25636 0
M  V30 1481 H 137.598 1.60824 -4.02887 0
M  V30 1482 H 138.269 3.16584 -4.52193 0
M  V30 1483 H 140.745 3.25113 -2.59694 0
M  V30 1484 H 139.621 4.55186 -3.06753 0
M  V30 1485 H 139.882 4.20484 -1.36549 0
M  V30 1486 N 138.941 1.26152 0.944643 0
M  V30 1487 C 139.871 1.09902 2.06019 0
M  V30 1488 C 140.852 0.00519538 1.70099 0
M  V30 1489 O 142.037 0.176583 1.93396 0
M  V30 1490 C 139.167 0.727562 3.39594 0
M  V30 1491 C 138.121 1.77274 3.89561 0
M  V30 1492 C 137.447 1.25569 5.19747 0
M  V30 1493 C 138.747 3.17357 4.14827 0
M  V30 1494 H 140.441 2.03217 2.19871 0
M  V30 1495 H 137.987 0.978452 1.05652 0
M  V30 1496 H 139.94 0.600777 4.17095 0
M  V30 1497 H 138.664 -0.241287 3.25707 0
M  V30 1498 H 137.323 1.88814 3.14237 0
M  V30 1499 H 136.971 0.276783 5.02238 0
M  V30 1500 H 136.671 1.95433 5.54148 0
M  V30 1501 H 138.195 1.1415 5.99835 0
M  V30 1502 H 139.609 3.08914 4.82954 0
M  V30 1503 H 138.006 3.84781 4.60504 0
M  V30 1504 H 139.076 3.63673 3.20734 0
M  V30 1505 N 140.419 -1.14872 1.07899 0
M  V30 1506 C 141.644 -1.90202 0.826926 0
M  V30 1507 C 142.069 -1.77774 -0.614664 0
M  V30 1508 O 141.427 -1.11431 -1.43013 0
M  V30 1509 C 141.475 -3.38352 1.24702 0
M  V30 1510 O 140.579 -4.10497 0.39575 0
M  V30 1511 H 139.92 -0.591968 0.300782 0
M  V30 1512 H 142.45 -1.45437 1.43907 0
M  V30 1513 H 142.46 -3.89156 1.22563 0
M  V30 1514 H 141.135 -3.46715 2.29698 0
M  V30 1515 H 139.712 -3.69796 0.480117 0
M  V30 1516 N 141.898 -0.863906 -1.31812 0
M  V30 1517 C 143.146 -0.470904 -1.96537 0
M  V30 1518 C 143.467 0.978771 -1.68657 0
M  V30 1519 O 142.737 1.6853 -0.998717 0
M  V30 1520 H 141.317 -0.171148 -0.72713 0
M  V30 1521 H 143.979 -1.10236 -1.60729 0
M  V30 1522 H 143.075 -0.623616 -3.05806 0
M  V30 1523 N 143.376 1.44774 -0.622745 0
M  V30 1524 C 144.323 2.30635 0.0871679 0
M  V30 1525 C 145.293 1.42994 0.845097 0
M  V30 1526 O 146.478 1.71907 0.827812 0
M  V30 1527 C 143.618 3.28144 1.06844 0
M  V30 1528 C 142.731 4.30888 0.309809 0
M  V30 1529 C 141.866 5.15494 1.28215 0
M  V30 1530 C 140.905 6.09953 0.512198 0
M  V30 1531 N 140.042 6.87287 1.43458 0
M  V30 1532 H 144.882 2.90803 -0.650974 0
M  V30 1533 H 142.419 1.43286 -0.33281 0
M  V30 1534 H 144.377 3.83157 1.65066 0
M  V30 1535 H 143.007 2.69695 1.77382 0
M  V30 1536 H 142.059 3.78414 -0.388181 0
M  V30 1537 H 143.371 4.97955 -0.290254 0
M  V30 1538 H 142.525 5.74983 1.93596 0
M  V30 1539 H 141.264 4.48481 1.91614 0
M  V30 1540 H 140.269 5.49581 -0.155151 0
M  V30 1541 H 141.494 6.78999 -0.116958 0
M  V30 1542 H 139.44 6.2295 2.05594 0
M  V30 1543 H 139.357 7.50763 0.888335 0
M  V30 1544 H 140.625 7.51306 2.07749 0
M  V30 1545 N 144.854 0.36279 1.53368 0
M  V30 1546 C 145.817 -0.472679 2.24273 0
M  V30 1547 C 146.817 -1.012 1.24961 0
M  V30 1548 O 148.007 -0.898194 1.49259 0
M  V30 1549 C 145.139 -1.66039 2.97731 0
M  V30 1550 H 146.332 0.14773 2.99536 0
M  V30 1551 H 143.885 0.114434 1.55881 0
M  V30 1552 H 144.62 -2.31896 2.26704 0
M  V30 1553 H 144.405 -1.28066 3.70596 0
M  V30 1554 H 145.895 -2.25252 3.51641 0
M  V30 1555 O 146.371 -1.59827 0.231878 0
M  V30 1556 H 147.062 -1.90573 -0.346636 0
M  V30 END ATOM
M  V30 BEGIN BOND
M  V30 END BOND
M  V30 END CTAB
M  END
$$$$
