drugbank_target|P47712 Cytosolic phospholipase A2 (DB00588; DB00721; DB01103; DB04552; DB06311; DB13867)
 OpenBabel12092119363D

  0  0  0     0  0            999 V3000
M  V30 BEGIN CTAB
M  V30 COUNTS 11850 12000 0 0 0
M  V30 BEGIN ATOM
M  V30 1 H -0.908 1.98254 -0.117106 0
M  V30 2 N 0 1.576 0 0
M  V30 3 C 0.933 2.03868 1.02534 0
M  V30 4 C 1.911 0.928543 1.3348 0
M  V30 5 O 3.095 1.19667 1.45644 0
M  V30 6 C 0.222 2.43627 2.35294 0
M  V30 7 C -0.732 3.65373 2.2001 0
M  V30 8 S 0.101 5.13292 1.52614 0
M  V30 9 C 1.257 5.56322 2.86805 0
M  V30 10 H 1.49 2.90518 0.631377 0
M  V30 11 H -0.977 1.52953 0.210867 0
M  V30 12 H 0.981 2.67203 3.11629 0
M  V30 13 H -0.358 1.57376 2.7183 0
M  V30 14 H -1.165 3.90944 3.18086 0
M  V30 15 H -1.563 3.418 1.51819 0
M  V30 16 H 0.729 5.58782 3.83104 0
M  V30 17 H 1.672 6.56266 2.65933 0
M  V30 18 H 2.08 4.83886 2.90714 0
M  V30 19 N 1.4781 -0.272755 1.55222 0
M  V30 20 C 2.7031 -1.02683 1.80197 0
M  V30 21 C 3.1281 -1.79142 0.573551 0
M  V30 22 O 2.4861 -1.74917 -0.476849 0
M  V30 23 C 2.5341 -1.9609 3.02624 0
M  V30 24 O 1.6381 -3.04863 2.77727 0
M  V30 25 H 0.9791 -0.293557 0.595584 0
M  V30 26 H 3.5091 -0.30159 2.02365 0
M  V30 27 H 3.5191 -2.38039 3.31363 0
M  V30 28 H 2.1941 -1.39851 3.91682 0
M  V30 29 H 0.7711 -2.67228 2.60084 0
M  V30 30 N 2.9562 -1.48159 -0.537278 0
M  V30 31 C 4.2032 -1.55804 -1.29349 0
M  V30 32 C 4.5312 -0.228802 -1.9315 0
M  V30 33 O 3.7862 0.780242 -1.79473 0
M  V30 34 C 4.0852 -2.63956 -2.40961 0
M  V30 35 C 3.7512 -4.0662 -1.94861 0
M  V30 36 C 2.4132 -4.45452 -1.82006 0
M  V30 37 C 4.7652 -4.96055 -1.59933 0
M  V30 38 C 2.0932 -5.71531 -1.32547 0
M  V30 39 C 4.4452 -6.22617 -1.11939 0
M  V30 40 C 3.1092 -6.60312 -0.976951 0
M  V30 41 H 2.3792 -0.570129 -0.473322 0
M  V30 42 H 5.0262 -1.81845 -0.600372 0
M  V30 43 H 3.3312 -2.31747 -3.15912 0
M  V30 44 H 5.0282 -2.67089 -2.99107 0
M  V30 45 H 1.6182 -3.75949 -2.05815 0
M  V30 46 H 5.8022 -4.66738 -1.68728 0
M  V30 47 H 1.0582 -5.99468 -1.202 0
M  V30 48 H 5.2322 -6.91318 -0.839811 0
M  V30 49 H 2.8592 -7.57895 -0.591501 0
M  V30 50 N 4.4343 0.785586 -1.36625 0
M  V30 51 C 5.6833 1.53883 -1.30396 0
M  V30 52 C 5.9963 1.95271 0.113452 0
M  V30 53 O 7.2023 2.69858 0.298142 0
M  V30 54 C 5.6583 2.77808 -2.28802 0
M  V30 55 C 5.2663 2.43574 -3.75999 0
M  V30 56 C 7.0103 3.55783 -2.31558 0
M  V30 57 C 4.9173 3.63919 -4.66173 0
M  V30 58 H 3.8473 0.577678 -0.484566 0
M  V30 59 H 6.4983 0.861705 -1.62009 0
M  V30 60 H 4.8803 3.47339 -1.90188 0
M  V30 61 H 6.0543 1.81916 -4.23371 0
M  V30 62 H 4.3693 1.78803 -3.76056 0
M  V30 63 H 6.9663 4.45205 -2.96137 0
M  V30 64 H 7.3093 3.94644 -1.3252 0
M  V30 65 H 7.8423 2.93235 -2.68809 0
M  V30 66 H 4.5813 3.3015 -5.66287 0
M  V30 67 H 4.1013 4.2473 -4.23515 0
M  V30 68 H 5.7803 4.30901 -4.82632 0
M  V30 69 N 5.9124 1.20967 1.01018 0
M  V30 70 C 7.1894 0.93264 1.71934 0
M  V30 71 C 7.5694 -0.55692 2.03621 0
M  V30 72 O 6.9174 -1.52035 1.7058 0
M  V30 73 C 7.1274 1.81233 2.98254 0
M  V30 74 C 8.4754 2.05804 3.71389 0
M  V30 75 O 9.4994 1.78539 3.08225 0
M  V30 76 O 8.3584 2.51888 4.84989 0
M  V30 77 H 5.4524 0.349272 0.749625 0
M  V30 78 H 7.9984 1.31871 1.06808 0
M  V30 79 H 6.7704 2.82067 2.71208 0
M  V30 80 H 6.3934 1.42674 3.7112 0
M  V30 81 N 7.3905 -1.2043 1.01659 0
M  V30 82 C 8.8015 -1.71517 0.737482 0
M  V30 83 C 9.1525 -1.81547 -0.743973 0
M  V30 84 O 8.2775 -1.47803 -1.58061 0
M  V30 85 C 8.8725 -3.11515 1.33206 0
M  V30 86 C 7.4315 -3.59912 1.10183 0
M  V30 87 C 6.5785 -2.37116 1.43776 0
M  V30 88 H 9.5295 -1.05444 1.18606 0
M  V30 89 H 9.5505 -3.73575 0.722636 0
M  V30 90 H 9.0625 -3.04182 2.41028 0
M  V30 91 H 7.1635 -3.72577 0.0412756 0
M  V30 92 H 7.2765 -4.44731 1.78188 0
M  V30 93 H 5.6405 -2.39857 0.856778 0
M  V30 94 H 6.4235 -2.32424 2.52654 0
M  V30 95 N 8.8686 -0.792821 -1.36206 0
M  V30 96 C 10.0986 -0.378275 -2.03107 0
M  V30 97 C 10.5066 1.01119 -1.59911 0
M  V30 98 O 9.8496 1.66052 -0.785658 0
M  V30 99 C 9.9116 -0.366535 -3.57627 0
M  V30 100 C 9.5756 -1.70416 -4.24037 0
M  V30 101 C 10.5726 -2.6602 -4.46687 0
M  V30 102 C 8.2576 -1.98439 -4.6144 0
M  V30 103 C 10.2516 -3.8784 -5.05825 0
M  V30 104 C 7.9386 -3.20525 -5.20295 0
M  V30 105 C 8.9366 -4.15044 -5.42427 0
M  V30 106 O 8.6246 -5.34978 -6.00045 0
M  V30 107 H 8.3566 -0.153543 -0.658332 0
M  V30 108 H 10.9106 -1.07383 -1.75094 0
M  V30 109 H 9.1406 0.385539 -3.84773 0
M  V30 110 H 10.8296 0.0238088 -4.05893 0
M  V30 111 H 11.5956 -2.45658 -4.18183 0
M  V30 112 H 7.4746 -1.25686 -4.43536 0
M  V30 113 H 11.0186 -4.61628 -5.23015 0
M  V30 114 H 6.9156 -3.40764 -5.48225 0
M  V30 115 H 7.6836 -5.36088 -6.18508 0
M  V30 116 N 10.3467 1.47872 -0.545128 0
M  V30 117 C 11.2787 2.27869 0.246621 0
M  V30 118 C 12.2917 1.36282 0.890561 0
M  V30 119 O 13.4807 1.61207 0.766449 0
M  V30 120 C 10.5807 3.10159 1.36582 0
M  V30 121 C 9.7537 4.29627 0.820954 0
M  V30 122 C 8.8127 4.93607 1.82314 0
M  V30 123 O 7.8387 5.52366 1.37406 0
M  V30 124 N 9.0407 4.87211 3.15603 0
M  V30 125 H 11.8057 2.96459 -0.439539 0
M  V30 126 H 9.3667 1.57367 -0.380421 0
M  V30 127 H 11.3587 3.49829 2.03474 0
M  V30 128 H 9.9287 2.43891 1.9554 0
M  V30 129 H 9.1487 3.94192 -0.0244032 0
M  V30 130 H 10.4367 5.06928 0.436063 0
M  V30 131 H 9.8347 4.40651 3.54744 0
M  V30 132 H 8.3917 5.30937 3.78087 0
M  V30 133 N 11.8248 0.280983 1.55075 0
M  V30 134 C 12.7748 -0.618585 2.19448 0
M  V30 135 C 13.7588 -1.11401 1.16098 0
M  V30 136 O 14.9508 -1.0581 1.41891 0
M  V30 137 C 12.0798 -1.79951 2.92357 0
M  V30 138 C 11.1658 -1.321 4.03002 0
M  V30 139 N 11.5568 -0.559044 5.02701 0
M  V30 140 C 9.8548 -1.60346 4.16179 0
M  V30 141 C 10.5558 -0.306722 5.80891 0
M  V30 142 N 9.5318 -0.880825 5.36416 0
M  V30 143 H 13.3338 -0.0286638 2.93886 0
M  V30 144 H 10.8478 0.0848104 1.62178 0
M  V30 145 H 12.8448 -2.45531 3.36927 0
M  V30 146 H 11.5048 -2.39333 2.19431 0
M  V30 147 H 12.5158 -0.205827 5.17491 0
M  V30 148 H 9.1928 -2.20621 3.54447 0
M  V30 149 H 10.5828 0.30391 6.71212 0
M  V30 150 N 13.3029 -1.57598 0.00835791 0
M  V30 151 C 14.5519 -1.90107 -0.673968 0
M  V30 152 C 14.8649 -0.884275 -1.7447 0
M  V30 153 O 16.0709 -1.09987 -2.48224 0
M  V30 154 C 14.5269 -3.37497 -1.24995 0
M  V30 155 C 14.1349 -4.47491 -0.2136 0
M  V30 156 C 15.8789 -3.79104 -1.90999 0
M  V30 157 C 13.7859 -5.85963 -0.80005 0
M  V30 158 H 12.7159 -0.709393 -0.255495 0
M  V30 159 H 15.3669 -1.83365 0.0702693 0
M  V30 160 H 13.7489 -3.39102 -2.04513 0
M  V30 161 H 14.9229 -4.57414 0.557596 0
M  V30 162 H 13.2379 -4.14956 0.346474 0
M  V30 163 H 15.8349 -4.79901 -2.35795 0
M  V30 164 H 16.1779 -3.1306 -2.74407 0
M  V30 165 H 16.7109 -3.79833 -1.18203 0
M  V30 166 H 13.4499 -6.555 -0.00456708 0
M  V30 167 H 12.9699 -5.79687 -1.54021 0
M  V30 168 H 14.6489 -6.33884 -1.29615 0
M  V30 169 N 14.781 0.264519 -1.55364 0
M  V30 170 C 16.03 0.992812 -1.75574 0
M  V30 171 C 16.343 1.87142 -0.568979 0
M  V30 172 O 17.549 2.63513 -0.653682 0
M  V30 173 C 16.005 1.81519 -3.10771 0
M  V30 174 C 15.613 0.984839 -4.37041 0
M  V30 175 C 17.357 2.53727 -3.40327 0
M  V30 176 C 15.264 1.80209 -5.63275 0
M  V30 177 H 14.194 0.374412 -0.65447 0
M  V30 178 H 16.845 0.248138 -1.81815 0
M  V30 179 H 15.227 2.60115 -2.98591 0
M  V30 180 H 16.401 0.242455 -4.60162 0
M  V30 181 H 14.716 0.37691 -4.14691 0
M  V30 182 H 17.313 3.15292 -4.3185 0
M  V30 183 H 17.656 3.24447 -2.60845 0
M  V30 184 H 18.189 1.82156 -3.53644 0
M  V30 185 H 14.928 1.13896 -6.45529 0
M  V30 186 H 14.448 2.52022 -5.44284 0
M  V30 187 H 16.127 2.37364 -6.01887 0
M  V30 188 N 16.2591 1.48442 0.529413 0
M  V30 189 C 17.5051 1.5672 1.28711 0
M  V30 190 C 17.8381 0.2406 1.92704 0
M  V30 191 O 17.1131 -0.753454 1.79313 0
M  V30 192 C 17.3961 2.70587 2.37603 0
M  V30 193 C 17.2491 4.12953 1.78297 0
M  V30 194 C 18.5681 2.80212 3.39366 0
M  V30 195 H 15.6871 0.570474 0.466613 0
M  V30 196 H 18.3291 1.80617 0.589706 0
M  V30 197 H 16.4791 2.50342 2.97088 0
M  V30 198 H 18.1511 4.44639 1.22858 0
M  V30 199 H 16.3941 4.19927 1.0883 0
M  V30 200 H 17.0651 4.88448 2.57144 0
M  V30 201 H 19.5411 2.98553 2.89836 0
M  V30 202 H 18.4171 3.61611 4.12951 0
M  V30 203 H 18.6781 1.88393 3.99951 0
M  V30 204 N 17.7372 -0.778329 1.37039 0
M  V30 205 C 18.6472 -1.92253 1.34446 0
M  V30 206 C 19.6632 -1.72267 0.244991 0
M  V30 207 O 20.8392 -1.95615 0.479258 0
M  V30 208 C 17.9042 -3.27282 1.144 0
M  V30 209 C 16.9652 -3.59969 2.33925 0
M  V30 210 C 16.1982 -4.88555 2.14825 0
M  V30 211 O 16.4212 -5.59113 1.12912 0
M  V30 212 O 15.3552 -5.20153 3.02861 0
M  V30 213 H 19.1812 -1.97392 2.30803 0
M  V30 214 H 16.7662 -0.920154 1.17701 0
M  V30 215 H 18.6482 -4.08062 1.05182 0
M  V30 216 H 17.3232 -3.23011 0.211124 0
M  V30 217 H 16.2302 -2.7945 2.48714 0
M  V30 218 H 17.5632 -3.68976 3.25757 0
M  V30 219 N 19.2153 -1.21501 -1.00376 0
M  V30 220 C 20.1653 -0.942843 -2.07592 0
M  V30 221 C 21.1493 0.102384 -1.60574 0
M  V30 222 O 22.3413 -0.10671 -1.76678 0
M  V30 223 C 19.4703 -0.510729 -3.3948 0
M  V30 224 C 18.5563 -1.59009 -3.93163 0
M  V30 225 N 18.9473 -2.81544 -4.20198 0
M  V30 226 C 17.2453 -1.45925 -4.21452 0
M  V30 227 C 17.9463 -3.51261 -4.63671 0
M  V30 228 N 16.9223 -2.78703 -4.66718 0
M  V30 229 H 20.7243 -1.87378 -2.26421 0
M  V30 230 H 18.2383 -1.11093 -1.18458 0
M  V30 231 H 20.2353 -0.297101 -4.1584 0
M  V30 232 H 18.8953 0.413436 -3.22057 0
M  V30 233 H 19.9063 -3.18075 -4.08716 0
M  V30 234 H 16.5833 -0.600467 -4.13159 0
M  V30 235 H 17.9733 -4.56183 -4.93302 0
M  V30 236 N 20.6934 1.19889 -1.02296 0
M  V30 237 C 21.6254 2.22334 -0.556787 0
M  V30 238 C 22.6384 1.58674 0.364199 0
M  V30 239 O 23.8274 1.77768 0.161533 0
M  V30 240 C 20.9274 3.38257 0.208694 0
M  V30 241 C 20.1004 4.31504 -0.71577 0
M  V30 242 C 19.1594 5.262 0.00325597 0
M  V30 243 O 18.1854 5.65798 -0.621357 0
M  V30 244 N 19.3874 5.66303 1.27599 0
M  V30 245 H 22.1524 2.62957 -1.43784 0
M  V30 246 H 19.7134 1.34495 -0.901261 0
M  V30 247 H 21.7054 3.98616 0.699111 0
M  V30 248 H 20.2754 2.96472 0.991102 0
M  V30 249 H 19.4954 3.69016 -1.38638 0
M  V30 250 H 20.7834 4.9072 -1.34428 0
M  V30 251 H 20.1814 5.36155 1.80429 0
M  V30 252 H 18.7384 6.28942 1.71102 0
M  V30 253 N 22.1715 0.800033 1.35784 0
M  V30 254 C 23.4015 0.389041 2.02904 0
M  V30 255 C 23.8095 -1.0027 1.60445 0
M  V30 256 O 23.1525 -1.65633 0.794453 0
M  V30 257 C 23.2145 0.385495 3.57427 0
M  V30 258 C 22.8785 1.72662 4.23127 0
M  V30 259 C 23.8755 2.68385 4.4527 0
M  V30 260 C 21.5605 2.00883 4.60381 0
M  V30 261 C 23.5545 3.90517 5.03761 0
M  V30 262 C 21.2415 3.2328 5.18588 0
M  V30 263 C 22.2395 4.17915 5.40218 0
M  V30 264 O 21.9275 5.38153 5.97199 0
M  V30 265 H 21.6595 0.157032 0.657508 0
M  V30 266 H 24.2135 1.08311 1.74522 0
M  V30 267 H 22.4435 -0.365128 3.84972 0
M  V30 268 H 24.1325 -0.00228296 4.059 0
M  V30 269 H 24.8985 2.47872 4.16874 0
M  V30 270 H 20.7775 1.28037 4.42863 0
M  V30 271 H 24.3215 4.64395 5.2056 0
M  V30 272 H 20.2185 3.43667 5.4641 0
M  V30 273 H 20.9865 5.3936 6.15656 0
M  V30 274 N 23.6496 -1.47581 0.552962 0
M  V30 275 C 24.8746 -2.07378 0.0300593 0
M  V30 276 C 25.2996 -1.40355 -1.25229 0
M  V30 277 O 24.6576 -0.477099 -1.7491 0
M  V30 278 C 24.7056 -3.60274 -0.153231 0
M  V30 279 O 23.8096 -3.94041 -1.21678 0
M  V30 280 H 23.1506 -0.662158 0.0494182 0
M  V30 281 H 25.6806 -1.89662 0.767434 0
M  V30 282 H 25.6906 -4.0633 -0.368761 0
M  V30 283 H 24.3656 -4.08455 0.783397 0
M  V30 284 H 22.9426 -3.59735 -0.982079 0
M  V30 285 N 25.1277 -0.289203 -1.54924 0
M  V30 286 C 26.0777 0.606939 -2.19773 0
M  V30 287 C 27.0617 1.10783 -1.16687 0
M  V30 288 O 28.2537 1.05057 -1.4245 0
M  V30 289 C 25.3827 1.78398 -2.93307 0
M  V30 290 C 24.4687 1.29961 -4.03697 0
M  V30 291 N 24.8597 0.532377 -5.0299 0
M  V30 292 C 23.1577 1.58136 -4.17024 0
M  V30 293 C 23.8587 0.275912 -5.81045 0
M  V30 294 N 22.8347 0.852365 -5.36876 0
M  V30 295 H 26.6367 0.0130779 -2.93897 0
M  V30 296 H 24.1507 -0.09341 -1.62131 0
M  V30 297 H 26.1477 2.43741 -3.38225 0
M  V30 298 H 24.8077 2.38166 -2.20697 0
M  V30 299 H 25.8187 0.17838 -5.17593 0
M  V30 300 H 22.4957 2.18738 -3.55612 0
M  V30 301 H 23.8857 -0.339502 -6.71042 0
M  V30 302 N 26.6058 1.57591 -0.0167156 0
M  V30 303 C 27.5528 2.09462 0.969251 0
M  V30 304 C 28.5228 0.99381 1.33089 0
M  V30 305 O 29.7078 1.26726 1.42636 0
M  V30 306 C 26.8478 2.61622 2.25051 0
M  V30 307 C 25.9608 3.85666 1.94642 0
M  V30 308 C 25.0958 4.26266 3.16972 0
M  V30 309 C 24.1348 5.43101 2.82326 0
M  V30 310 N 23.2718 5.78915 3.97243 0
M  V30 311 H 28.1118 2.93428 0.519997 0
M  V30 312 H 25.6488 1.45044 0.245087 0
M  V30 313 H 27.6068 2.89949 2.99976 0
M  V30 314 H 26.2368 1.80505 2.67615 0
M  V30 315 H 25.2888 3.64145 1.10013 0
M  V30 316 H 26.6008 4.70678 1.65117 0
M  V30 317 H 25.7548 4.55963 4.00228 0
M  V30 318 H 24.4938 3.39996 3.49648 0
M  V30 319 H 23.4988 5.1311 1.97479 0
M  V30 320 H 24.7238 6.3106 2.50879 0
M  V30 321 H 22.6698 4.95602 4.29785 0
M  V30 322 H 22.5868 6.58539 3.71299 0
M  V30 323 H 23.8548 6.13212 4.81239 0
M  V30 324 N 28.0839 -0.256276 1.55502 0
M  V30 325 C 29.3309 -0.985619 1.76895 0
M  V30 326 C 29.6589 -1.85671 0.579355 0
M  V30 327 O 28.9139 -1.90744 -0.437651 0
M  V30 328 C 29.2129 -1.88432 3.03691 0
M  V30 329 C 28.8789 -1.16936 4.35473 0
M  V30 330 C 27.5409 -0.97173 4.71286 0
M  V30 331 C 29.8929 -0.661889 5.1698 0
M  V30 332 C 27.2209 -0.254179 5.86149 0
M  V30 333 C 29.5729 0.042149 6.32586 0
M  V30 334 C 28.2369 0.25134 6.67027 0
M  V30 335 H 27.5069 -0.360663 0.647304 0
M  V30 336 H 30.1539 -0.256483 1.89775 0
M  V30 337 H 28.4589 -2.68021 2.85783 0
M  V30 338 H 30.1559 -2.45015 3.1744 0
M  V30 339 H 26.7459 -1.33332 4.07333 0
M  V30 340 H 30.9299 -0.802145 4.89775 0
M  V30 341 H 26.1859 -0.0815408 6.11346 0
M  V30 342 H 30.3599 0.443049 6.94989 0
M  V30 343 H 27.9869 0.809314 7.5588 0
M  V30 344 N 29.562 -1.4872 -0.521534 0
M  V30 345 C 30.79 -1.60843 -1.30142 0
M  V30 346 C 31.205 -0.271897 -1.86832 0
M  V30 347 O 30.562 0.739969 -1.66825 0
M  V30 348 C 30.613 -2.66155 -2.4463 0
M  V30 349 O 30.334 -3.94623 -1.90275 0
M  V30 350 C 31.835 -2.88795 -3.36322 0
M  V30 351 H 29.055 -0.542075 -0.395468 0
M  V30 352 H 31.599 -1.94609 -0.628285 0
M  V30 353 H 29.754 -2.35224 -3.07812 0
M  V30 354 H 30.168 -4.52468 -2.65279 0
M  V30 355 H 31.642 -3.66264 -4.12983 0
M  V30 356 H 32.119 -1.97934 -3.9207 0
M  V30 357 H 32.725 -3.21063 -2.78924 0
M  V30 358 N 31.0401 0.771051 -1.3745 0
M  V30 359 C 32.2861 1.5319 -1.32894 0
M  V30 360 C 32.6191 1.94008 0.0862511 0
M  V30 361 O 31.8941 1.64124 1.04373 0
M  V30 362 C 32.1771 2.79648 -2.26868 0
M  V30 363 C 32.0301 2.45079 -3.77169 0
M  V30 364 C 33.3491 3.81583 -2.19277 0
M  V30 365 H 30.4681 0.555744 -0.484064 0
M  V30 366 H 33.1101 0.884492 -1.68157 0
M  V30 367 H 31.2601 3.34891 -1.96926 0
M  V30 368 H 32.9321 1.95745 -4.1771 0
M  V30 369 H 31.1751 1.77767 -3.95704 0
M  V30 370 H 31.8461 3.35478 -4.38359 0
M  V30 371 H 34.3221 3.35835 -2.45671 0
M  V30 372 H 33.1981 4.67787 -2.87171 0
M  V30 373 H 33.4591 4.25897 -1.18592 0
M  V30 374 N 32.5182 1.22032 0.997298 0
M  V30 375 C 33.7642 1.04376 1.73878 0
M  V30 376 C 34.0972 -0.420716 1.89588 0
M  V30 377 O 33.3722 -1.31202 1.43583 0
M  V30 378 C 33.6552 1.75047 3.14691 0
M  V30 379 C 33.5082 3.29062 3.06656 0
M  V30 380 C 34.8272 1.49928 4.13775 0
M  V30 381 H 31.9462 0.380578 0.631133 0
M  V30 382 H 34.5882 1.50312 1.16217 0
M  V30 383 H 32.7382 1.35996 3.63919 0
M  V30 384 H 34.4102 3.7753 2.65083 0
M  V30 385 H 32.6532 3.58967 2.43568 0
M  V30 386 H 33.3242 3.73683 4.06282 0
M  V30 387 H 35.8002 1.83842 3.73285 0
M  V30 388 H 34.6762 2.01878 5.10428 0
M  V30 389 H 34.9372 0.430929 4.39995 0
M  V30 390 N 33.9963 -1.19345 1.0293 0
M  V30 391 C 35.2423 -1.89318 0.727083 0
M  V30 392 C 35.5753 -1.79446 -0.742483 0
M  V30 393 O 34.8503 -1.1871 -1.54072 0
M  V30 394 C 35.1333 -3.40238 1.17942 0
M  V30 395 C 34.9863 -3.58979 2.71024 0
M  V30 396 C 36.3053 -4.33479 0.760548 0
M  V30 397 H 33.4243 -0.687475 0.265606 0
M  V30 398 H 36.0663 -1.40477 1.2793 0
M  V30 399 H 34.2163 -3.81964 0.709608 0
M  V30 400 H 35.8883 -3.26421 3.25955 0
M  V30 401 H 34.1313 -3.02018 3.11396 0
M  V30 402 H 34.8023 -4.64823 2.9773 0
M  V30 403 H 37.2783 -3.99469 1.16464 0
M  V30 404 H 36.1543 -5.37664 1.10493 0
M  V30 405 H 36.4153 -4.40813 -0.337063 0
M  V30 406 N 35.4744 -0.807222 -1.35358 0
M  V30 407 C 36.4044 -0.232509 -2.3234 0
M  V30 408 C 37.3854 0.642386 -1.57504 0
M  V30 409 O 38.5704 0.572526 -1.85569 0
M  V30 410 C 35.7004 0.619238 -3.41735 0
M  V30 411 C 34.6544 -0.157215 -4.27711 0
M  V30 412 C 33.9804 0.816273 -5.28433 0
M  V30 413 C 35.2804 -1.35656 -5.04376 0
M  V30 414 H 36.9744 -1.04276 -2.80654 0
M  V30 415 H 34.5204 -0.50288 -1.34934 0
M  V30 416 H 36.4734 1.03137 -4.08584 0
M  V30 417 H 35.1974 1.46239 -2.92031 0
M  V30 418 H 33.8564 -0.550525 -3.62443 0
M  V30 419 H 33.5044 1.65494 -4.74996 0
M  V30 420 H 33.2044 0.301067 -5.86828 0
M  V30 421 H 34.7284 1.22659 -5.98153 0
M  V30 422 H 36.1424 -1.01927 -5.64166 0
M  V30 423 H 34.5394 -1.8063 -5.7227 0
M  V30 424 H 35.6094 -2.14288 -4.34981 0
M  V30 425 N 36.9525 1.47285 -0.560781 0
M  V30 426 C 38.3685 1.58065 -0.22081 0
M  V30 427 C 38.5685 1.55892 1.27671 0
M  V30 428 O 37.6245 1.46422 2.0571 0
M  V30 429 C 38.9375 2.88418 -0.850625 0
M  V30 430 C 40.4855 3.02009 -0.822184 0
M  V30 431 C 40.9605 4.35066 -1.43113 0
M  V30 432 N 42.4515 4.41711 -1.39448 0
M  V30 433 C 43.1865 5.43237 -1.83525 0
M  V30 434 N 42.6825 6.51555 -2.35474 0
M  V30 435 N 44.4755 5.34304 -1.74574 0
M  V30 436 H 36.6265 1.46941 -1.53369 0
M  V30 437 H 38.8895 0.699558 -0.639783 0
M  V30 438 H 38.5955 2.95755 -1.9032 0
M  V30 439 H 38.4695 3.75612 -0.345773 0
M  V30 440 H 40.8565 2.94266 0.221714 0
M  V30 441 H 40.9375 2.16347 -1.36483 0
M  V30 442 H 40.5815 4.43565 -2.47412 0
M  V30 443 H 40.5115 5.19465 -0.863899 0
M  V30 444 H 43.0025 3.64027 -1.01452 0
M  V30 445 H 43.3155 7.25203 -2.67021 0
M  V30 446 H 41.6605 6.52435 -2.39487 0
M  V30 447 H 44.8515 4.48581 -1.33763 0
M  V30 448 H 45.0245 6.13288 -2.09242 0
M  V30 449 N 38.4306 0.297415 1.54768 0
M  V30 450 C 39.3936 -0.567375 2.22066 0
M  V30 451 C 40.3936 -1.06409 1.20556 0
M  V30 452 O 41.5836 -0.960691 1.45315 0
M  V30 453 C 38.7156 -1.78517 2.90421 0
M  V30 454 H 39.9086 0.0205534 2.99893 0
M  V30 455 H 37.4616 0.0482163 1.56226 0
M  V30 456 H 38.1966 -2.41303 2.16664 0
M  V30 457 H 37.9816 -1.43669 3.64831 0
M  V30 458 H 39.4716 -2.39964 3.41771 0
M  V30 459 N 39.9087 -1.5758 0.0250728 0
M  V30 460 C 41.1367 -1.9593 -0.664747 0
M  V30 461 C 41.5517 -0.901352 -1.65895 0
M  V30 462 O 40.9087 0.117255 -1.82123 0
M  V30 463 C 40.9597 -3.34342 -1.37468 0
M  V30 464 O 40.6807 -4.36079 -0.420324 0
M  V30 465 C 42.1817 -3.873 -2.1567 0
M  V30 466 H 39.4017 -0.645405 -0.183557 0
M  V30 467 H 41.9457 -2.04329 0.0836372 0
M  V30 468 H 40.1007 -3.27175 -2.0745 0
M  V30 469 H 40.5147 -5.16297 -0.923991 0
M  V30 470 H 41.9887 -4.86504 -2.60803 0
M  V30 471 H 42.4657 -3.21331 -2.99405 0
M  V30 472 H 43.0717 -3.97723 -1.50654 0
M  V30 473 N 41.3868 0.248026 -1.55636 0
M  V30 474 C 42.3338 1.30707 -1.90222 0
M  V30 475 C 43.3038 1.47881 -0.756332 0
M  V30 476 O 44.4888 1.61883 -1.00988 0
M  V30 477 C 41.6288 2.65769 -2.20138 0
M  V30 478 C 40.7418 2.56612 -3.47526 0
M  V30 479 C 39.8768 3.8402 -3.67017 0
M  V30 480 C 38.9158 3.69476 -4.8801 0
M  V30 481 N 38.0528 4.88774 -5.04029 0
M  V30 482 H 42.8928 1.00512 -2.80538 0
M  V30 483 H 40.4298 0.485055 -1.38873 0
M  V30 484 H 42.3878 3.44386 -2.35487 0
M  V30 485 H 41.0178 2.94115 -1.33027 0
M  V30 486 H 40.0698 1.69571 -3.40514 0
M  V30 487 H 41.3818 2.41774 -4.36287 0
M  V30 488 H 40.5358 4.7108 -3.8232 0
M  V30 489 H 39.2748 4.01754 -2.76487 0
M  V30 490 H 38.2798 2.80799 -4.72686 0
M  V30 491 H 39.5048 3.53238 -5.8 0
M  V30 492 H 37.4508 5.0687 -4.16435 0
M  V30 493 H 37.3678 4.76562 -5.86877 0
M  V30 494 H 38.6358 5.77335 -5.23741 0
M  V30 495 N 42.8649 1.48995 0.513639 0
M  V30 496 C 44.1109 1.58076 1.27042 0
M  V30 497 C 44.4439 0.261026 1.92438 0
M  V30 498 O 43.7189 -0.734393 1.80103 0
M  V30 499 C 44.0019 2.73091 2.34719 0
M  V30 500 C 43.8549 4.14821 1.73907 0
M  V30 501 C 45.1739 2.83796 3.36375 0
M  V30 502 H 42.2929 0.575391 0.460536 0
M  V30 503 H 44.9349 1.81232 0.570516 0
M  V30 504 H 43.0849 2.53479 2.94416 0
M  V30 505 H 44.7569 4.45917 1.18135 0
M  V30 506 H 42.9999 4.21058 1.0437 0
M  V30 507 H 43.6709 4.91147 2.51949 0
M  V30 508 H 46.1469 3.01611 2.86653 0
M  V30 509 H 45.0229 3.65971 4.09093 0
M  V30 510 H 45.2839 1.92624 3.9793 0
M  V30 511 N 44.343 -0.763751 1.37857 0
M  V30 512 C 45.571 -1.55293 1.36718 0
M  V30 513 C 45.986 -1.88745 -0.0455434 0
M  V30 514 O 45.343 -1.52039 -1.00947 0
M  V30 515 C 45.394 -2.85831 2.2132 0
M  V30 516 O 45.115 -2.5381 3.57089 0
M  V30 517 C 46.616 -3.80023 2.28249 0
M  V30 518 H 43.836 -0.480841 0.468009 0
M  V30 519 H 46.38 -0.946009 1.81303 0
M  V30 520 H 44.535 -3.42926 1.80223 0
M  V30 521 H 44.949 -3.37459 4.01524 0
M  V30 522 H 46.423 -4.68599 2.91752 0
M  V30 523 H 46.9 -4.1973 1.2932 0
M  V30 524 H 47.506 -3.28855 2.69693 0
M  V30 525 N 45.8211 -1.22559 -0.990812 0
M  V30 526 C 46.7681 -0.997519 -2.0813 0
M  V30 527 C 47.7381 0.0814702 -1.659 0
M  V30 528 O 48.9231 -0.0685424 -1.90677 0
M  V30 529 C 46.0631 -0.583615 -3.40129 0
M  V30 530 C 45.1761 -1.7336 -3.9569 0
M  V30 531 C 44.3111 -1.26748 -5.15857 0
M  V30 532 C 43.3501 -2.38888 -5.63559 0
M  V30 533 N 42.4871 -1.93308 -6.74964 0
M  V30 534 H 47.3271 -1.93099 -2.26973 0
M  V30 535 H 44.8641 -0.962114 -1.11273 0
M  V30 536 H 46.8221 -0.324801 -4.15934 0
M  V30 537 H 45.4521 0.312845 -3.2128 0
M  V30 538 H 44.5041 -2.10669 -3.16738 0
M  V30 539 H 45.8161 -2.57704 -4.27071 0
M  V30 540 H 44.9701 -0.966173 -5.98957 0
M  V30 541 H 43.7091 -0.394272 -4.86104 0
M  V30 542 H 42.7141 -2.69805 -4.79046 0
M  V30 543 H 43.9391 -3.26728 -5.95336 0
M  V30 544 H 41.8851 -1.08352 -6.4699 0
M  V30 545 H 41.8021 -2.71217 -7.05675 0
M  V30 546 H 43.0701 -1.66252 -7.61564 0
M  V30 547 N 47.2992 1.18797 -1.03562 0
M  V30 548 C 48.5472 1.88278 -0.734569 0
M  V30 549 C 48.8682 1.8043 0.739586 0
M  V30 550 O 48.1382 1.21925 1.53333 0
M  V30 551 H 46.7182 0.696991 -0.268725 0
M  V30 552 H 49.3802 1.44192 -1.31129 0
M  V30 553 H 48.4762 2.94443 -1.03489 0
M  V30 554 N 48.7773 0.814389 1.34928 0
M  V30 555 C 49.7403 0.235759 2.27984 0
M  V30 556 C 50.7403 -0.581412 1.49921 0
M  V30 557 O 51.9303 -0.398758 1.69575 0
M  V30 558 C 49.0623 -0.670433 3.34242 0
M  V30 559 H 50.2553 1.05659 2.80671 0
M  V30 560 H 47.8083 0.585614 1.44915 0
M  V30 561 H 48.5433 -1.51466 2.86755 0
M  V30 562 H 48.3283 -0.0860822 3.92005 0
M  V30 563 H 49.8183 -1.06935 4.03676 0
M  V30 564 N 50.2554 -1.46986 0.568584 0
M  V30 565 C 51.5024 -2.02441 0.0487986 0
M  V30 566 C 51.8304 -1.44169 -1.30559 0
M  V30 567 O 51.0854 -0.591213 -1.86556 0
M  V30 568 C 51.3844 -3.57306 -0.081836 0
M  V30 569 C 51.0504 -4.34552 1.20313 0
M  V30 570 C 49.7124 -4.55376 1.5552 0
M  V30 571 C 52.0644 -4.79016 2.05411 0
M  V30 572 C 49.3924 -5.17913 2.7565 0
M  V30 573 C 51.7444 -5.42879 3.24754 0
M  V30 574 C 50.4084 -5.61933 3.60261 0
M  V30 575 H 49.6784 -0.740785 0.0178567 0
M  V30 576 H 52.3254 -1.76525 0.742384 0
M  V30 577 H 50.6304 -3.8228 -0.858463 0
M  V30 578 H 52.3274 -3.97876 -0.499546 0
M  V30 579 H 48.9174 -4.18631 0.919014 0
M  V30 580 H 53.1014 -4.62696 1.79516 0
M  V30 581 H 48.3574 -5.30858 3.03315 0
M  V30 582 H 52.5314 -5.76293 3.90973 0
M  V30 583 H 50.1584 -6.10161 4.53439 0
M  V30 584 N 51.7335 -0.305618 -1.54608 0
M  V30 585 C 52.9815 0.301701 -1.99835 0
M  V30 586 C 53.3025 1.54054 -1.19551 0
M  V30 587 O 52.5725 1.93702 -0.292658 0
M  V30 588 H 51.1525 0.114468 -0.738178 0
M  V30 589 H 53.8145 -0.418016 -1.90364 0
M  V30 590 H 52.9105 0.570548 -3.06841 0
M  V30 591 N 53.2116 1.57565 -0.0334293 0
M  V30 592 C 54.4886 1.83282 0.683163 0
M  V30 593 C 54.8686 0.91823 1.90084 0
M  V30 594 O 54.2166 -0.025113 2.28486 0
M  V30 595 C 54.4266 3.32599 1.0573 0
M  V30 596 C 55.7746 3.99179 1.44711 0
M  V30 597 O 56.7986 3.3712 1.15015 0
M  V30 598 O 55.6576 5.08565 2.0006 0
M  V30 599 H 52.7516 0.755869 0.335546 0
M  V30 600 H 55.2976 1.69589 -0.0614402 0
M  V30 601 H 54.0696 3.90834 0.190828 0
M  V30 602 H 53.6926 3.51415 1.85993 0
M  V30 603 N 54.6897 -0.239769 1.55765 0
M  V30 604 C 55.6227 -1.32356 1.85895 0
M  V30 605 C 56.6007 -1.46053 0.714662 0
M  V30 606 O 57.7847 -1.62154 0.961157 0
M  V30 607 C 54.9117 -2.6962 2.04994 0
M  V30 608 C 53.9577 -2.73036 3.27648 0
M  V30 609 S 54.7907 -2.28929 4.84099 0
M  V30 610 C 55.9467 -3.68103 5.06212 0
M  V30 611 H 56.1797 -1.06601 2.77531 0
M  V30 612 H 53.7127 -0.441112 1.47965 0
M  V30 613 H 55.6707 -3.48653 2.16682 0
M  V30 614 H 54.3317 -2.92609 1.14188 0
M  V30 615 H 53.5247 -3.7386 3.38 0
M  V30 616 H 53.1267 -2.02052 3.14723 0
M  V30 617 H 55.4187 -4.63656 4.93993 0
M  V30 618 H 56.3617 -3.6268 6.08168 0
M  V30 619 H 56.7697 -3.60947 4.34025 0
M  V30 620 N 56.1678 -1.49265 -0.50573 0
M  V30 621 C 57.0978 -1.68495 -1.61653 0
M  V30 622 C 58.0788 -0.53366 -1.61512 0
M  V30 623 O 59.2638 -0.76897 -1.78327 0
M  V30 624 C 56.3938 -1.74709 -3.00157 0
M  V30 625 C 55.3478 -2.89581 -3.15162 0
M  V30 626 C 54.6738 -2.80903 -4.5497 0
M  V30 627 C 55.9738 -4.30578 -2.95634 0
M  V30 628 H 57.6678 -2.61493 -1.45814 0
M  V30 629 H 55.2138 -1.25838 -0.70005 0
M  V30 630 H 57.1668 -1.86748 -3.77761 0
M  V30 631 H 55.8908 -0.783067 -3.17074 0
M  V30 632 H 54.5498 -2.77136 -2.39982 0
M  V30 633 H 54.1978 -1.82419 -4.68756 0
M  V30 634 H 53.8978 -3.57999 -4.65951 0
M  V30 635 H 55.4218 -2.94944 -5.34641 0
M  V30 636 H 56.8358 -4.4373 -3.63011 0
M  V30 637 H 55.2328 -5.0886 -3.18091 0
M  V30 638 H 56.3028 -4.45352 -1.91806 0
M  V30 639 N 57.6459 0.756429 -1.3826 0
M  V30 640 C 58.9229 1.50584 -1.24835 0
M  V30 641 C 59.3029 2.10556 0.151485 0
M  V30 642 O 58.6509 1.96825 1.1607 0
M  V30 643 C 58.8609 2.57448 -2.3563 0
M  V30 644 C 60.2089 3.24429 -2.73917 0
M  V30 645 O 61.2329 2.67751 -2.34921 0
M  V30 646 O 60.0919 4.26937 -3.41156 0
M  V30 647 H 57.1859 0.667664 -0.48801 0
M  V30 648 H 59.7319 0.792083 -1.5008 0
M  V30 649 H 58.5039 2.11362 -3.29305 0
M  V30 650 H 58.1269 3.36408 -2.11933 0
M  V30 651 N 59.124 1.23083 0.984299 0
M  V30 652 C 60.352 1.08714 1.76037 0
M  V30 653 C 60.767 -0.361691 1.85303 0
M  V30 654 O 60.124 -1.25034 1.32939 0
M  V30 655 C 60.175 1.70206 3.18923 0
M  V30 656 O 59.896 3.09423 3.10144 0
M  V30 657 C 61.397 1.61227 4.12941 0
M  V30 658 H 58.617 0.380664 0.552572 0
M  V30 659 H 61.161 1.62853 1.23689 0
M  V30 660 H 59.316 1.20109 3.6831 0
M  V30 661 H 59.73 3.39188 4.00065 0
M  V30 662 H 61.204 2.08962 5.10919 0
M  V30 663 H 61.681 0.570375 4.35481 0
M  V30 664 H 62.287 2.10671 3.69456 0
M  V30 665 N 60.6021 -1.18246 1.0419 0
M  V30 666 C 62.0131 -1.69914 0.773698 0
M  V30 667 C 62.3641 -1.83085 -0.705297 0
M  V30 668 O 61.4891 -1.51123 -1.5489 0
M  V30 669 C 62.0841 -3.08619 1.39784 0
M  V30 670 C 60.6431 -3.57494 1.17792 0
M  V30 671 C 59.7901 -2.34013 1.48773 0
M  V30 672 H 62.7411 -1.02904 1.20816 0
M  V30 673 H 62.7621 -3.71958 0.801714 0
M  V30 674 H 62.2741 -2.99001 2.47426 0
M  V30 675 H 60.3751 -3.72406 0.120295 0
M  V30 676 H 60.4881 -4.40852 1.87581 0
M  V30 677 H 58.8521 -2.37986 0.907463 0
M  V30 678 H 59.6351 -2.27013 2.57527 0
M  V30 679 N 62.0802 -0.821533 -1.34494 0
M  V30 680 C 63.3572 -0.33159 -1.92769 0
M  V30 681 C 63.7372 1.18088 -1.74981 0
M  V30 682 O 63.0852 1.98733 -1.12772 0
M  V30 683 C 63.2952 -0.759398 -3.40638 0
M  V30 684 C 64.6432 -0.757433 -4.1779 0
M  V30 685 O 65.6672 -0.70189 -3.49216 0
M  V30 686 O 64.5262 -0.829361 -5.4017 0
M  V30 687 H 61.6202 -0.0902502 -0.822061 0
M  V30 688 H 64.1662 -0.906231 -1.43477 0
M  V30 689 H 62.9382 -1.8012 -3.47379 0
M  V30 690 H 62.5612 -0.160378 -3.97276 0
M  V30 691 N 63.5583 1.46682 -0.576371 0
M  V30 692 C 64.9693 1.86112 -0.148091 0
M  V30 693 C 65.3203 1.48073 1.2872 0
M  V30 694 O 64.4453 0.892656 1.97131 0
M  V30 695 C 65.0403 3.37786 -0.261982 0
M  V30 696 C 63.5993 3.76235 0.111384 0
M  V30 697 C 62.7463 2.70713 -0.60083 0
M  V30 698 H 65.6973 1.37927 -0.78497 0
M  V30 699 H 65.7183 3.77007 0.514364 0
M  V30 700 H 65.2303 3.6544 -1.30671 0
M  V30 701 H 63.3313 3.54198 1.15649 0
M  V30 702 H 63.4443 4.78391 -0.26052 0
M  V30 703 H 61.8083 2.54666 -0.0417783 0
M  V30 704 H 62.5913 3.01208 -1.64708 0
M  V30 705 N 65.0364 0.313813 1.54444 0
M  V30 706 C 66.2664 -0.293491 2.04505 0
M  V30 707 C 66.6744 -1.47086 1.19005 0
M  V30 708 O 66.0174 -1.82481 0.211257 0
M  V30 709 C 66.0794 -0.800455 3.50475 0
M  V30 710 C 65.7434 0.253322 4.56297 0
M  V30 711 C 66.7404 1.08612 5.08428 0
M  V30 712 C 64.4254 0.398708 5.00715 0
M  V30 713 C 66.4194 2.05013 6.0353 0
M  V30 714 C 64.1064 1.36614 5.95634 0
M  V30 715 C 65.1044 2.19033 6.46926 0
M  V30 716 O 64.7924 3.14134 7.39983 0
M  V30 717 H 64.5244 -0.0658325 0.672787 0
M  V30 718 H 67.0784 0.455177 2.00293 0
M  V30 719 H 65.3084 -1.59987 3.52053 0
M  V30 720 H 66.9974 -1.32504 3.83663 0
M  V30 721 H 67.7634 0.984736 4.74898 0
M  V30 722 H 63.6424 -0.23289 4.60411 0
M  V30 723 H 67.1864 2.69382 6.4349 0
M  V30 724 H 63.0834 1.4682 6.28581 0
M  V30 725 H 63.8514 3.0926 7.57826 0
M  V30 726 N 66.5145 -1.57545 0.0417849 0
M  V30 727 C 67.7605 -1.92601 -0.635021 0
M  V30 728 C 68.0935 -0.919627 -1.71045 0
M  V30 729 O 67.3685 0.0557892 -1.9442 0
M  V30 730 C 67.6515 -3.38085 -1.23979 0
M  V30 731 C 67.5045 -4.49467 -0.173057 0
M  V30 732 C 68.8235 -3.83776 -2.15416 0
M  V30 733 H 65.9425 -0.700397 -0.229374 0
M  V30 734 H 68.5845 -1.89728 0.101633 0
M  V30 735 H 66.7345 -3.40664 -1.86762 0
M  V30 736 H 68.4065 -4.59018 0.458312 0
M  V30 737 H 66.6495 -4.30909 0.499996 0
M  V30 738 H 67.3205 -5.48323 -0.636054 0
M  V30 739 H 69.7965 -3.83013 -1.62605 0
M  V30 740 H 68.6725 -4.8624 -2.54679 0
M  V30 741 H 68.9335 -3.19998 -3.05047 0
M  V30 742 N 67.9926 0.231505 -1.5589 0
M  V30 743 C 68.9026 1.308 -1.94752 0
M  V30 744 C 69.9186 1.51826 -0.849989 0
M  V30 745 O 71.0946 1.6515 -1.15271 0
M  V30 746 C 68.1596 2.63968 -2.24771 0
M  V30 747 C 67.2206 2.51331 -3.48039 0
M  V30 748 C 66.4536 3.78148 -3.76616 0
M  V30 749 O 66.6766 4.80722 -3.07022 0
M  V30 750 O 65.6106 3.75857 -4.70123 0
M  V30 751 H 69.4366 1.0083 -2.86474 0
M  V30 752 H 67.0216 0.433547 -1.42971 0
M  V30 753 H 68.9036 3.42633 -2.45318 0
M  V30 754 H 67.5786 2.9364 -1.36225 0
M  V30 755 H 66.4856 1.709 -3.32782 0
M  V30 756 H 67.8186 2.26601 -4.36936 0
M  V30 757 N 69.4707 1.49531 0.497807 0
M  V30 758 C 70.4007 1.6935 1.60757 0
M  V30 759 C 71.3817 0.542218 1.61227 0
M  V30 760 O 72.5667 0.778417 1.77917 0
M  V30 761 C 69.6967 1.76298 2.99226 0
M  V30 762 C 68.6507 2.91248 3.13622 0
M  V30 763 C 67.9767 2.83312 4.53474 0
M  V30 764 C 69.2767 4.3214 2.93346 0
M  V30 765 H 70.9707 2.62263 1.44425 0
M  V30 766 H 68.5167 1.26208 0.693367 0
M  V30 767 H 70.4697 1.88749 3.76765 0
M  V30 768 H 69.1937 0.799871 3.16654 0
M  V30 769 H 67.8527 2.78404 2.38509 0
M  V30 770 H 67.5007 1.84902 4.67782 0
M  V30 771 H 67.2007 3.60465 4.64046 0
M  V30 772 H 68.7247 2.97775 5.33069 0
M  V30 773 H 70.1387 4.45649 3.60652 0
M  V30 774 H 68.5357 5.1054 3.15387 0
M  V30 775 H 69.6057 4.46363 1.89441 0
M  V30 776 N 70.9488 -0.749086 1.3866 0
M  V30 777 C 72.1958 -1.50833 1.35114 0
M  V30 778 C 72.5238 -1.94415 -0.0574049 0
M  V30 779 O 71.7788 -1.66065 -1.03541 0
M  V30 780 C 72.0778 -2.7712 2.25697 0
M  V30 781 C 71.7438 -2.52477 3.73585 0
M  V30 782 C 70.4058 -2.45466 4.13884 0
M  V30 783 C 72.7578 -2.31066 4.67181 0
M  V30 784 C 70.0858 -2.15064 5.45861 0
M  V30 785 C 72.4378 -2.02183 5.9942 0
M  V30 786 C 71.1018 -1.93631 6.38798 0
M  V30 787 H 70.3718 -0.551936 0.494416 0
M  V30 788 H 73.0188 -0.860979 1.71054 0
M  V30 789 H 71.3238 -3.46528 1.82827 0
M  V30 790 H 73.0208 -3.35096 2.20254 0
M  V30 791 H 69.6108 -2.58807 3.41638 0
M  V30 792 H 73.7948 -2.35459 4.3689 0
M  V30 793 H 69.0508 -2.06954 5.75308 0
M  V30 794 H 73.2248 -1.8462 6.71482 0
M  V30 795 H 70.8518 -1.69839 7.40985 0
M  V30 796 N 72.4269 -1.23603 -0.977757 0
M  V30 797 C 73.6759 -1.06377 -1.71368 0
M  V30 798 C 73.9889 0.399062 -1.91486 0
M  V30 799 O 75.1949 0.691312 -2.62551 0
M  V30 800 C 73.6509 -1.85512 -3.08404 0
M  V30 801 C 73.2589 -3.36141 -2.96164 0
M  V30 802 C 75.0029 -1.76783 -3.85938 0
M  V30 803 C 72.9099 -4.07659 -4.28449 0
M  V30 804 H 71.8399 -0.394452 -0.642591 0
M  V30 805 H 74.4909 -1.47594 -1.09034 0
M  V30 806 H 72.8729 -1.37103 -3.71509 0
M  V30 807 H 74.0469 -3.92056 -2.42133 0
M  V30 808 H 72.3619 -3.45712 -2.32104 0
M  V30 809 H 74.9589 -2.27526 -4.83876 0
M  V30 810 H 75.3019 -0.731116 -4.0983 0
M  V30 811 H 75.8349 -2.22818 -3.2954 0
M  V30 812 H 72.5739 -5.11648 -4.09752 0
M  V30 813 H 72.0939 -3.5653 -4.82334 0
M  V30 814 H 73.7729 -4.141 -4.97122 0
M  V30 815 N 73.905 1.17692 -1.04816 0
M  V30 816 C 75.13 1.92327 -0.776207 0
M  V30 817 C 75.555 1.76082 0.661581 0
M  V30 818 O 74.913 1.076 1.45917 0
M  V30 819 C 74.961 3.41539 -1.15687 0
M  V30 820 O 74.065 4.11402 -0.286775 0
M  V30 821 H 73.406 0.599735 -0.284981 0
M  V30 822 H 75.936 1.49201 -1.4 0
M  V30 823 H 75.946 3.92269 -1.12202 0
M  V30 824 H 74.621 3.52684 -2.20425 0
M  V30 825 H 73.198 3.70939 -0.381903 0
M  V30 826 N 75.3831 0.828654 1.34056 0
M  V30 827 C 76.6111 0.43262 2.02326 0
M  V30 828 C 77.0261 -0.963147 1.62385 0
M  V30 829 O 76.3831 -1.62425 0.832121 0
M  V30 830 C 76.4341 0.53182 3.57567 0
M  V30 831 O 76.1551 1.87258 3.96063 0
M  V30 832 C 77.6561 0.131422 4.43105 0
M  V30 833 H 74.8761 0.172923 0.648335 0
M  V30 834 H 77.4201 1.1184 1.71208 0
M  V30 835 H 75.5751 -0.105938 3.87255 0
M  V30 836 H 75.9891 1.85087 4.90758 0
M  V30 837 H 77.4631 0.251904 5.51425 0
M  V30 838 H 77.9401 -0.925645 4.29335 0
M  V30 839 H 78.5461 0.743207 4.18756 0
M  V30 840 N 76.8612 -1.46375 0.584142 0
M  V30 841 C 78.0892 -2.06761 0.0759296 0
M  V30 842 C 78.5042 -1.43266 -1.22965 0
M  V30 843 O 77.8612 -0.538458 -1.74376 0
M  V30 844 C 77.9122 -3.61375 -0.0950384 0
M  V30 845 O 77.6332 -4.22495 1.15887 0
M  V30 846 C 79.1342 -4.38693 -0.637434 0
M  V30 847 H 76.3542 -0.668479 0.0581075 0
M  V30 848 H 78.8982 -1.8798 0.805218 0
M  V30 849 H 77.0532 -3.79578 -0.774554 0
M  V30 850 H 77.4672 -5.15385 0.973598 0
M  V30 851 H 78.9412 -5.47464 -0.706237 0
M  V30 852 H 79.4182 -4.06836 -1.65472 0
M  V30 853 H 80.0242 -4.25299 0.00725967 0
M  V30 854 N 78.3393 -0.321999 -1.54275 0
M  V30 855 C 79.7503 0.166384 -1.85957 0
M  V30 856 C 80.1013 1.51747 -1.24367 0
M  V30 857 O 79.2263 2.09317 -0.549124 0
M  V30 858 C 79.8213 0.308681 -3.37391 0
M  V30 859 C 78.3803 0.741286 -3.69028 0
M  V30 860 C 77.5273 -0.137937 -2.76957 0
M  V30 861 H 80.4783 -0.542335 -1.49146 0
M  V30 862 H 80.4993 1.13984 -3.63026 0
M  V30 863 H 80.0113 -0.674809 -3.82188 0
M  V30 864 H 78.1123 1.73458 -3.29762 0
M  V30 865 H 78.2253 0.546118 -4.75977 0
M  V30 866 H 76.5893 0.386251 -2.51754 0
M  V30 867 H 77.3723 -1.11816 -3.2458 0
M  V30 868 N 79.8174 1.5752 -0.0501392 0
M  V30 869 C 81.0944 1.83996 0.663685 0
M  V30 870 C 81.4744 0.938339 1.89099 0
M  V30 871 O 80.8224 -0.00087759 2.285 0
M  V30 872 C 81.0324 3.33702 1.02196 0
M  V30 873 C 82.3804 4.00691 1.40469 0
M  V30 874 O 83.4044 3.38321 1.11433 0
M  V30 875 O 82.2634 5.10658 1.94654 0
M  V30 876 H 79.3574 0.759385 0.32751 0
M  V30 877 H 81.9034 1.69514 -0.0794238 0
M  V30 878 H 80.6754 3.91015 0.149364 0
M  V30 879 H 80.2984 3.53368 1.82255 0
M  V30 880 N 81.2955 -0.223234 1.56011 0
M  V30 881 C 82.5205 -0.968978 1.83373 0
M  V30 882 C 82.9455 -1.77227 0.630254 0
M  V30 883 O 82.3035 -1.76345 -0.420959 0
M  V30 884 C 82.3515 -1.86363 3.08709 0
M  V30 885 O 81.4555 -2.95873 2.87285 0
M  V30 886 H 80.7965 -0.274461 0.604622 0
M  V30 887 H 83.3265 -0.237056 2.03222 0
M  V30 888 H 83.3365 -2.27376 3.38768 0
M  V30 889 H 82.0115 -1.27319 3.95933 0
M  V30 890 H 80.5885 -2.58818 2.68454 0
M  V30 891 N 82.7736 -1.49793 -0.48987 0
M  V30 892 C 84.1896 -1.36803 -0.822022 0
M  V30 893 C 84.3896 -0.409652 -1.97292 0
M  V30 894 O 83.4456 0.154614 -2.52026 0
M  V30 895 C 84.7586 -2.77768 -1.15175 0
M  V30 896 C 86.3066 -2.86549 -1.25931 0
M  V30 897 C 86.7816 -4.28306 -1.62228 0
M  V30 898 N 88.2726 -4.31169 -1.69256 0
M  V30 899 C 89.0076 -5.37832 -1.98807 0
M  V30 900 N 88.5036 -6.54726 -2.26507 0
M  V30 901 N 90.2966 -5.25258 -2.00152 0
M  V30 902 H 82.4476 -2.10691 0.268881 0
M  V30 903 H 84.7106 -0.946241 0.057728 0
M  V30 904 H 84.4166 -3.49648 -0.379335 0
M  V30 905 H 84.2906 -3.13836 -2.09253 0
M  V30 906 H 86.6776 -2.14899 -2.02243 0
M  V30 907 H 86.7586 -2.54049 -0.298776 0
M  V30 908 H 86.4026 -5.00486 -0.864622 0
M  V30 909 H 86.3326 -4.58279 -2.594 0
M  V30 910 H 88.8236 -3.4687 -1.49965 0
M  V30 911 H 89.1366 -7.31833 -2.48276 0
M  V30 912 H 87.4816 -6.57933 -2.23939 0
M  V30 913 H 90.6726 -4.32938 -1.77996 0
M  V30 914 H 90.8456 -6.08476 -2.22848 0
M  V30 915 N 84.2517 0.741722 -1.39055 0
M  V30 916 C 85.1987 1.85566 -1.37237 0
M  V30 917 C 86.1687 1.64457 -0.233072 0
M  V30 918 O 87.3537 1.85957 -0.427147 0
M  V30 919 C 84.4937 3.23004 -1.215 0
M  V30 920 C 83.6067 3.55864 -2.44918 0
M  V30 921 C 82.7417 4.82669 -2.21821 0
M  V30 922 C 81.7807 5.08351 -3.40948 0
M  V30 923 N 80.9177 6.26356 -3.17211 0
M  V30 924 H 85.7577 1.86455 -2.32462 0
M  V30 925 H 83.2947 0.911176 -1.15482 0
M  V30 926 H 85.2527 4.02331 -1.10389 0
M  V30 927 H 83.8827 3.21411 -0.29908 0
M  V30 928 H 82.9347 2.7129 -2.66657 0
M  V30 929 H 84.2467 3.70765 -3.33668 0
M  V30 930 H 83.4007 5.69962 -2.07914 0
M  V30 931 H 82.1397 4.69929 -1.30454 0
M  V30 932 H 81.1447 4.19522 -3.55361 0
M  V30 933 H 82.3697 5.22981 -4.33207 0
M  V30 934 H 80.3157 6.14917 -2.28502 0
M  V30 935 H 80.2327 6.41813 -3.99515 0
M  V30 936 H 81.5007 7.16506 -3.06984 0
M  V30 937 N 85.7298 1.2412 0.971189 0
M  V30 938 C 87.1458 1.00584 1.23916 0
M  V30 939 C 87.3458 -0.287481 1.99439 0
M  V30 940 O 86.4018 -1.00454 2.31658 0
M  V30 941 C 87.7148 2.21864 2.0297 0
M  V30 942 C 89.2628 2.26452 2.16076 0
M  V30 943 C 89.7378 3.47343 2.98524 0
M  V30 944 N 91.2288 3.47639 3.06107 0
M  V30 945 C 91.9638 4.37837 3.70251 0
M  V30 946 N 91.4598 5.38286 4.36142 0
M  V30 947 N 93.2528 4.25558 3.67228 0
M  V30 948 H 85.4038 2.07236 0.465499 0
M  V30 949 H 87.6668 0.909236 0.268315 0
M  V30 950 H 87.3728 3.15771 1.54861 0
M  V30 951 H 87.2468 2.23698 3.03709 0
M  V30 952 H 89.6338 1.33078 2.6339 0
M  V30 953 H 89.7148 2.28645 1.14696 0
M  V30 954 H 89.3588 4.41029 2.51905 0
M  V30 955 H 89.2888 3.42393 4.00093 0
M  V30 956 H 91.7798 2.74966 2.59233 0
M  V30 957 H 92.0928 6.03352 4.82894 0
M  V30 958 H 90.4378 5.42176 4.34822 0
M  V30 959 H 93.6288 3.46322 3.14927 0
M  V30 960 H 93.8018 4.96054 4.16935 0
M  V30 961 N 87.2079 -1.17134 1.05439 0
M  V30 962 C 88.4359 -1.91372 0.786414 0
M  V30 963 C 88.8509 -1.76955 -0.658202 0
M  V30 964 O 88.2079 -1.10838 -1.44987 0
M  V30 965 C 88.2589 -3.42356 1.1608 0
M  V30 966 O 87.9799 -3.56332 2.54871 0
M  V30 967 C 89.4809 -4.33663 0.919322 0
M  V30 968 H 86.7009 -0.607118 0.285743 0
M  V30 969 H 89.2449 -1.48525 1.40572 0
M  V30 970 H 87.3999 -3.82939 0.586191 0
M  V30 971 H 87.8139 -4.49896 2.69618 0
M  V30 972 H 89.2879 -5.38099 1.231 0
M  V30 973 H 89.7649 -4.38959 -0.145359 0
M  V30 974 H 90.3709 -3.98796 1.47789 0
M  V30 975 N 88.686 -0.835752 -1.33615 0
M  V30 976 C 90.102 -0.523139 -1.50783 0
M  V30 977 C 90.302 0.950171 -1.77691 0
M  V30 978 O 89.358 1.73411 -1.83534 0
M  V30 979 C 90.671 -1.39378 -2.66448 0
M  V30 980 C 92.219 -1.39223 -2.80332 0
M  V30 981 C 92.694 -2.24765 -3.99055 0
M  V30 982 N 94.185 -2.22458 -4.06284 0
M  V30 983 C 94.92 -2.85386 -4.97336 0
M  V30 984 N 94.416 -3.57354 -5.93523 0
M  V30 985 N 96.209 -2.74872 -4.90308 0
M  V30 986 H 88.36 -1.78952 -1.14411 0
M  V30 987 H 90.623 -0.763297 -0.562212 0
M  V30 988 H 90.329 -2.44061 -2.53234 0
M  V30 989 H 90.203 -1.0676 -3.61776 0
M  V30 990 H 92.59 -0.353136 -2.92979 0
M  V30 991 H 92.671 -1.75846 -1.85773 0
M  V30 992 H 92.315 -3.28732 -3.87167 0
M  V30 993 H 92.245 -1.85485 -4.92852 0
M  V30 994 H 94.736 -1.70119 -3.37443 0
M  V30 995 H 95.049 -4.02584 -6.59656 0
M  V30 996 H 93.394 -3.61461 -5.93608 0
M  V30 997 H 96.585 -2.18213 -4.14126 0
M  V30 998 H 96.758 -3.24199 -5.61069 0
M  V30 999 N 90.1641 1.46063 -0.591896 0
M  V30 1000 C 91.1141 2.27458 0.157172 0
M  V30 1001 C 92.0981 1.3641 0.853301 0
M  V30 1002 O 93.2901 1.60517 0.74588 0
M  V30 1003 C 90.4191 3.22956 1.16423 0
M  V30 1004 C 89.5051 4.2149 0.469742 0
M  V30 1005 N 89.8961 5.03519 -0.479839 0
M  V30 1006 C 88.1941 4.40161 0.719319 0
M  V30 1007 C 88.8951 5.74904 -0.886591 0
M  V30 1008 N 87.8711 5.43097 -0.233731 0
M  V30 1009 H 91.6731 2.88272 -0.572392 0
M  V30 1010 H 89.1871 1.57024 -0.414375 0
M  V30 1011 H 91.1841 3.79986 1.71513 0
M  V30 1012 H 89.8441 2.63701 1.89451 0
M  V30 1013 H 90.8551 5.1078 -0.855823 0
M  V30 1014 H 87.5321 3.92046 1.43548 0
M  V30 1015 H 88.9221 6.50844 -1.66888 0
M  V30 1016 N 91.6422 0.330177 1.54103 0
M  V30 1017 C 92.8892 -0.270405 2.00686 0
M  V30 1018 C 93.2172 -1.51621 1.21825 0
M  V30 1019 O 92.4722 -1.93536 0.29025 0
M  V30 1020 C 92.7712 -0.643134 3.51566 0
M  V30 1021 C 92.4372 0.504251 4.48072 0
M  V30 1022 C 91.0992 0.819163 4.74176 0
M  V30 1023 C 93.4512 1.27465 5.05373 0
M  V30 1024 C 90.7792 1.90708 5.5484 0
M  V30 1025 C 93.1312 2.35271 5.87223 0
M  V30 1026 C 91.7952 2.67336 6.11627 0
M  V30 1027 H 91.0652 -0.0989482 0.734364 0
M  V30 1028 H 93.7122 0.455324 1.86008 0
M  V30 1029 H 92.0172 -1.44938 3.64006 0
M  V30 1030 H 93.7142 -1.11949 3.85056 0
M  V30 1031 H 90.3042 0.248733 4.27878 0
M  V30 1032 H 94.4882 1.04462 4.85182 0
M  V30 1033 H 89.7442 2.15991 5.71977 0
M  V30 1034 H 93.9182 2.95405 6.30641 0
M  V30 1035 H 91.5452 3.51763 6.73919 0
M  V30 1036 N 93.1203 -1.57491 0.0584922 0
M  V30 1037 C 94.0683 -2.13148 -0.931168 0
M  V30 1038 C 95.0623 -1.06507 -1.31729 0
M  V30 1039 O 96.2683 -1.24906 -1.29609 0
M  V30 1040 H 92.6433 -0.68137 -0.31818 0
M  V30 1041 H 94.6143 -2.95187 -0.436707 0
M  V30 1042 C 93.3633 -2.69732 -2.19408 0
M  V30 1043 H 92.6863 -3.51454 -1.90578 0
M  V30 1044 H 94.1263 -3.12287 -2.86798 0
M  V30 1045 C 92.5853 -1.63855 -2.94369 0
M  V30 1046 O 93.1153 -1.05565 -3.87581 0
M  V30 1047 N 91.3213 -1.35202 -2.57233 0
M  V30 1048 H 90.8683 -1.82791 -1.81508 0
M  V30 1049 H 90.8263 -0.645922 -3.07693 0
M  V30 1050 N 94.5984 0.214957 -1.56127 0
M  V30 1051 C 95.5464 1.28601 -1.93816 0
M  V30 1052 C 96.5404 1.48175 -0.821016 0
M  V30 1053 O 97.7464 1.49271 -1.0059 0
M  V30 1054 H 94.1214 0.431302 -0.616022 0
M  V30 1055 H 96.0924 0.940991 -2.83175 0
M  V30 1056 C 94.8414 2.62779 -2.27689 0
M  V30 1057 H 94.1644 2.48527 -3.13168 0
M  V30 1058 H 95.6044 3.36517 -2.57939 0
M  V30 1059 C 94.0634 3.18285 -1.10436 0
M  V30 1060 O 94.5934 4.00002 -0.368945 0
M  V30 1061 N 92.7994 2.7675 -0.886433 0
M  V30 1062 H 92.3464 2.10404 -1.48619 0
M  V30 1063 H 92.3044 3.14229 -0.103656 0
M  V30 1064 N 96.0765 1.50051 0.48192 0
M  V30 1065 C 97.3535 1.51009 1.2432 0
M  V30 1066 C 97.7335 0.248587 2.09631 0
M  V30 1067 O 97.0815 -0.768409 2.15192 0
M  V30 1068 C 97.2915 2.79981 2.08355 0
M  V30 1069 C 98.6395 3.3022 2.66908 0
M  V30 1070 O 99.6635 2.81228 2.18607 0
M  V30 1071 O 98.5225 4.15595 3.54884 0
M  V30 1072 H 95.6165 0.605239 0.563573 0
M  V30 1073 H 98.1625 1.62332 0.494627 0
M  V30 1074 H 96.9345 3.63275 1.45419 0
M  V30 1075 H 96.5575 2.7161 2.90368 0
M  V30 1076 N 97.5546 -0.734337 1.39446 0
M  V30 1077 C 98.8036 -1.48937 1.36017 0
M  V30 1078 C 99.1166 -1.95557 -0.0409005 0
M  V30 1079 O 100.323 -2.70779 -0.19778 0
M  V30 1080 C 98.7786 -2.69125 2.38955 0
M  V30 1081 C 98.3866 -2.29452 3.8478 0
M  V30 1082 C 100.131 -3.46944 2.44603 0
M  V30 1083 C 98.0376 -3.46366 4.79358 0
M  V30 1084 H 96.9676 -0.559296 0.505672 0
M  V30 1085 H 99.6186 -0.800983 1.65095 0
M  V30 1086 H 98.0006 -3.40041 2.02948 0
M  V30 1087 H 99.1746 -1.66077 4.29831 0
M  V30 1088 H 97.4896 -1.64723 3.82433 0
M  V30 1089 H 100.087 -4.33907 3.12456 0
M  V30 1090 H 100.43 -3.89454 1.47076 0
M  V30 1091 H 100.963 -2.83056 2.79507 0
M  V30 1092 H 97.7016 -3.08905 5.78151 0
M  V30 1093 H 97.2216 -4.08719 4.38986 0
M  V30 1094 H 98.9006 -4.12691 4.98292 0
M  V30 1095 N 99.0327 -1.24633 -0.964593 0
M  V30 1096 C 99.9807 -1.03917 -2.08096 0
M  V30 1097 C 100.975 0.0268581 -1.69379 0
M  V30 1098 O 102.181 -0.127952 -1.79545 0
M  V30 1099 H 98.5557 -0.319044 -0.680966 0
M  V30 1100 H 100.527 -1.98581 -2.22729 0
M  V30 1101 C 99.2757 -0.663983 -3.41301 0
M  V30 1102 H 98.5987 -1.47605 -3.71555 0
M  V30 1103 H 100.039 -0.558663 -4.20303 0
M  V30 1104 C 98.4977 0.629169 -3.30973 0
M  V30 1105 O 99.0277 1.67404 -3.65156 0
M  V30 1106 N 97.2337 0.611057 -2.84103 0
M  V30 1107 H 96.7807 -0.239593 -2.56483 0
M  V30 1108 H 96.7387 1.47647 -2.77575 0
M  V30 1109 N 100.511 1.16574 -1.06058 0
M  V30 1110 C 101.922 1.68662 -0.800632 0
M  V30 1111 C 102.273 1.84184 0.67608 0
M  V30 1112 O 101.398 1.53568 1.52466 0
M  V30 1113 C 101.993 3.06356 -1.44676 0
M  V30 1114 C 100.552 3.55575 -1.23465 0
M  V30 1115 C 99.6988 2.31616 -1.52477 0
M  V30 1116 H 102.65 1.00969 -1.22438 0
M  V30 1117 H 102.671 3.70636 -0.860788 0
M  V30 1118 H 102.183 2.95027 -2.52152 0
M  V30 1119 H 100.284 3.72167 -0.179527 0
M  V30 1120 H 100.397 4.37812 -1.94571 0
M  V30 1121 H 98.7608 2.36512 -0.945209 0
M  V30 1122 H 99.5438 2.22887 -2.61106 0
M  V30 1123 N 101.989 0.842826 1.3317 0
M  V30 1124 C 103.235 0.441099 1.97945 0
M  V30 1125 C 103.568 -0.998024 1.66593 0
M  V30 1126 O 102.843 -1.69839 0.947898 0
M  V30 1127 C 103.126 0.666841 3.53872 0
M  V30 1128 C 102.979 2.15352 3.94897 0
M  V30 1129 C 104.298 0.115544 4.39948 0
M  V30 1130 H 101.417 0.161739 0.719034 0
M  V30 1131 H 104.059 1.05907 1.57746 0
M  V30 1132 H 102.209 0.140828 3.88245 0
M  V30 1133 H 103.881 2.7447 3.70761 0
M  V30 1134 H 102.124 2.63653 3.44484 0
M  V30 1135 H 102.795 2.26221 5.03516 0
M  V30 1136 H 105.271 0.565213 4.12243 0
M  V30 1137 H 104.147 0.303152 5.48062 0
M  V30 1138 H 104.408 -0.980935 4.3108 0
M  V30 1139 N 103.467 -1.45747 0.599634 0
M  V30 1140 C 104.713 -2.03153 0.100263 0
M  V30 1141 C 105.068 -1.46073 -1.25221 0
M  V30 1142 O 104.361 -0.622878 -1.81193 0
M  V30 1143 C 104.555 -3.57399 -0.00602758 0
M  V30 1144 C 104.384 -4.2944 1.3346 0
M  V30 1145 C 103.154 -4.6768 1.91321 0
M  V30 1146 C 105.352 -4.61905 2.2616 0
M  V30 1147 N 103.334 -5.24544 3.18946 0
M  V30 1148 C 104.705 -5.19518 3.3838 0
M  V30 1149 C 106.76 -4.43841 2.25631 0
M  V30 1150 C 105.463 -5.60972 4.50226 0
M  V30 1151 C 107.489 -4.86322 3.36518 0
M  V30 1152 C 106.851 -5.44021 4.4746 0
M  V30 1153 H 102.95 -0.777911 0.0798696 0
M  V30 1154 H 105.534 -1.77674 0.796244 0
M  V30 1155 H 103.705 -3.82556 -0.671212 0
M  V30 1156 H 105.437 -4.01457 -0.51133 0
M  V30 1157 H 102.192 -4.5098 1.44617 0
M  V30 1158 H 102.616 -5.57483 3.84112 0
M  V30 1159 H 107.258 -3.98552 1.41123 0
M  V30 1160 H 104.976 -6.0523 5.35464 0
M  V30 1161 H 108.562 -4.74084 3.37247 0
M  V30 1162 H 107.442 -5.76289 5.31846 0
M  V30 1163 N 104.945 -0.338344 -1.53925 0
M  V30 1164 C 105.893 0.536231 -2.26335 0
M  V30 1165 C 106.887 1.1063 -1.28286 0
M  V30 1166 O 108.093 1.05264 -1.46012 0
M  V30 1167 H 104.468 0.191602 -0.727181 0
M  V30 1168 H 106.439 -0.0965747 -2.98244 0
M  V30 1169 C 105.188 1.67803 -3.04528 0
M  V30 1170 H 104.511 1.24864 -3.79801 0
M  V30 1171 H 105.951 2.26526 -3.58416 0
M  V30 1172 C 104.41 2.60439 -2.13712 0
M  V30 1173 O 104.94 3.6255 -1.72975 0
M  V30 1174 N 103.146 2.29006 -1.78898 0
M  V30 1175 H 102.693 1.46011 -2.12223 0
M  V30 1176 H 102.651 2.91248 -1.18416 0
M  V30 1177 N 106.423 1.57458 -0.0668435 0
M  V30 1178 C 107.333 2.15937 0.916975 0
M  V30 1179 C 108.349 1.12123 1.33058 0
M  V30 1180 O 109.525 1.44366 1.40429 0
M  V30 1181 C 106.59 2.70547 2.16807 0
M  V30 1182 C 105.651 3.89215 1.81135 0
M  V30 1183 C 104.884 4.41211 3.0028 0
M  V30 1184 O 105.107 3.92225 4.14144 0
M  V30 1185 O 104.041 5.32605 2.80384 0
M  V30 1186 H 107.867 3.00354 0.449561 0
M  V30 1187 H 105.452 1.48584 0.155949 0
M  V30 1188 H 107.334 3.0557 2.90181 0
M  V30 1189 H 106.009 1.89192 2.62656 0
M  V30 1190 H 104.916 3.59054 1.05028 0
M  V30 1191 H 106.249 4.71848 1.40073 0
M  V30 1192 N 107.901 -0.206675 1.56239 0
M  V30 1193 C 109.129 -0.945345 1.8404 0
M  V30 1194 C 109.544 -1.77336 0.647885 0
M  V30 1195 O 108.901 -1.78425 -0.383511 0
M  V30 1196 C 108.952 -1.8509 3.10522 0
M  V30 1197 O 108.673 -1.05634 4.25174 0
M  V30 1198 C 110.174 -2.70222 3.51418 0
M  V30 1199 H 107.394 -0.276372 0.61144 0
M  V30 1200 H 109.938 -0.217417 2.03341 0
M  V30 1201 H 108.093 -2.53259 2.93153 0
M  V30 1202 H 108.507 -1.67238 4.97124 0
M  V30 1203 H 109.981 -3.29438 4.42916 0
M  V30 1204 H 110.458 -3.43358 2.73864 0
M  V30 1205 H 111.064 -2.07443 3.71278 0
M  V30 1206 N 109.379 -1.50304 -0.473955 0
M  V30 1207 C 110.626 -1.6115 -1.22625 0
M  V30 1208 C 110.954 -0.310517 -1.92005 0
M  V30 1209 O 110.209 0.703419 -1.82621 0
M  V30 1210 C 110.508 -2.73938 -2.29549 0
M  V30 1211 C 110.174 -4.14519 -1.7744 0
M  V30 1212 C 108.836 -4.5277 -1.62949 0
M  V30 1213 C 111.188 -5.02392 -1.3875 0
M  V30 1214 C 108.516 -5.76639 -1.08187 0
M  V30 1215 C 110.868 -6.26805 -0.854309 0
M  V30 1216 C 109.532 -6.63861 -0.696011 0
M  V30 1217 H 108.802 -0.589691 -0.448715 0
M  V30 1218 H 111.449 -1.84228 -0.522705 0
M  V30 1219 H 109.754 -2.44937 -3.05799 0
M  V30 1220 H 111.451 -2.79534 -2.87509 0
M  V30 1221 H 108.041 -3.8434 -1.89685 0
M  V30 1222 H 112.225 -4.73474 -1.4878 0
M  V30 1223 H 107.481 -6.04027 -0.946666 0
M  V30 1224 H 111.655 -6.94258 -0.545843 0
M  V30 1225 H 109.282 -7.59722 -0.26952 0
M  V30 1226 N 110.857 0.726932 -1.39834 0
M  V30 1227 C 111.767 1.87131 -1.41489 0
M  V30 1228 C 112.783 1.71239 -0.308757 0
M  V30 1229 O 113.959 1.93701 -0.551529 0
M  V30 1230 C 111.024 3.22811 -1.26468 0
M  V30 1231 C 110.085 3.51039 -2.47124 0
M  V30 1232 C 109.318 4.80245 -2.3281 0
M  V30 1233 O 109.541 5.54537 -1.33585 0
M  V30 1234 O 108.475 5.08554 -3.21957 0
M  V30 1235 H 112.301 1.8869 -2.3797 0
M  V30 1236 H 109.886 0.875837 -1.21035 0
M  V30 1237 H 111.768 4.03877 -1.20255 0
M  V30 1238 H 110.443 3.22005 -0.330862 0
M  V30 1239 H 109.35 2.70027 -2.58914 0
M  V30 1240 H 110.683 3.56632 -3.39227 0
M  V30 1241 N 112.336 1.25143 0.95797 0
M  V30 1242 C 113.583 1.09692 1.70217 0
M  V30 1243 C 113.911 -0.362654 1.91089 0
M  V30 1244 O 113.166 -1.28386 1.47701 0
M  V30 1245 C 113.465 1.79272 3.09187 0
M  V30 1246 C 113.131 3.29196 3.08125 0
M  V30 1247 C 111.793 3.70096 3.07543 0
M  V30 1248 C 114.145 4.24995 3.0171 0
M  V30 1249 C 111.473 5.05213 2.9829 0
M  V30 1250 C 113.825 5.60132 2.93999 0
M  V30 1251 C 112.489 6.00365 2.9175 0
M  V30 1252 H 111.759 0.401393 0.622868 0
M  V30 1253 H 114.406 1.55372 1.11945 0
M  V30 1254 H 112.711 1.26014 3.70982 0
M  V30 1255 H 114.408 1.64773 3.65583 0
M  V30 1256 H 110.998 2.96651 3.09348 0
M  V30 1257 H 115.182 3.9439 3.01281 0
M  V30 1258 H 110.438 5.35569 2.94916 0
M  V30 1259 H 114.612 6.3406 2.87996 0
M  V30 1260 H 112.239 7.05023 2.84336 0
M  V30 1261 N 113.814 -1.1601 1.06675 0
M  V30 1262 C 115.063 -1.85973 0.780818 0
M  V30 1263 C 115.376 -1.82819 -0.695444 0
M  V30 1264 O 116.582 -2.484 -1.09589 0
M  V30 1265 C 115.038 -3.33757 1.34665 0
M  V30 1266 C 114.646 -3.45374 2.85343 0
M  V30 1267 C 116.39 -4.0895 1.13843 0
M  V30 1268 C 114.297 -4.87266 3.35151 0
M  V30 1269 H 113.227 -0.696661 0.288407 0
M  V30 1270 H 115.878 -1.30903 1.28595 0
M  V30 1271 H 114.26 -3.88456 0.769274 0
M  V30 1272 H 115.434 -3.00816 3.49065 0
M  V30 1273 H 113.749 -2.83619 3.04876 0
M  V30 1274 H 116.346 -5.13654 1.4854 0
M  V30 1275 H 116.689 -4.16229 0.0770282 0
M  V30 1276 H 117.222 -3.605 1.68179 0
M  V30 1277 H 113.961 -4.85168 4.40786 0
M  V30 1278 H 113.481 -5.32433 2.76179 0
M  V30 1279 H 115.16 -5.56097 3.30704 0
M  V30 1280 N 115.292 -0.849877 -1.32721 0
M  V30 1281 C 116.222 -0.306308 -2.31482 0
M  V30 1282 C 117.203 0.591952 -1.59468 0
M  V30 1283 O 118.388 0.513199 -1.87296 0
M  V30 1284 C 115.518 0.510204 -3.43532 0
M  V30 1285 C 114.472 -0.293209 -4.26994 0
M  V30 1286 C 113.798 0.647743 -5.30762 0
M  V30 1287 C 115.098 -1.51634 -4.99804 0
M  V30 1288 H 116.792 -1.13153 -2.77195 0
M  V30 1289 H 114.338 -0.545553 -1.33266 0
M  V30 1290 H 116.291 0.900856 -4.11658 0
M  V30 1291 H 115.015 1.36874 -2.96535 0
M  V30 1292 H 113.674 -0.665555 -3.60508 0
M  V30 1293 H 113.322 1.50299 -4.8002 0
M  V30 1294 H 113.022 0.11422 -5.87489 0
M  V30 1295 H 114.546 1.03567 -6.01753 0
M  V30 1296 H 115.96 -1.19824 -5.60638 0
M  V30 1297 H 114.357 -1.98745 -5.66234 0
M  V30 1298 H 115.427 -2.28018 -4.27943 0
M  V30 1299 N 116.77 1.45427 -0.607355 0
M  V30 1300 C 118.047 1.9557 -0.0344566 0
M  V30 1301 C 118.427 1.54979 1.43334 0
M  V30 1302 O 117.775 0.812241 2.13576 0
M  V30 1303 C 117.985 3.48226 -0.232321 0
M  V30 1304 C 119.333 4.2445 -0.113001 0
M  V30 1305 O 120.357 3.55829 -0.162431 0
M  V30 1306 O 119.216 5.465 0.00209442 0
M  V30 1307 H 116.31 0.826222 0.0358667 0
M  V30 1308 H 118.856 1.55594 -0.6774 0
M  V30 1309 H 117.628 3.70739 -1.25174 0
M  V30 1310 H 117.251 3.95092 0.445896 0
M  V30 1311 N 118.248 0.346503 1.53744 0
M  V30 1312 C 119.659 -0.136779 1.86198 0
M  V30 1313 C 120.01 -1.49749 1.26766 0
M  V30 1314 O 119.135 -2.08417 0.582355 0
M  V30 1315 C 119.73 -0.254966 3.37839 0
M  V30 1316 C 118.289 -0.682482 3.70161 0
M  V30 1317 C 117.436 0.181981 2.76702 0
M  V30 1318 H 120.387 0.565994 1.48264 0
M  V30 1319 H 120.408 -1.08195 3.64793 0
M  V30 1320 H 119.92 0.735526 3.81066 0
M  V30 1321 H 118.021 -1.68189 3.3248 0
M  V30 1322 H 118.134 -0.470326 4.76786 0
M  V30 1323 H 116.498 -0.34615 2.52337 0
M  V30 1324 H 117.281 1.16966 3.2276 0
M  V30 1325 N 119.726 -1.57421 0.075193 0
M  V30 1326 C 120.674 -2.14124 -0.908508 0
M  V30 1327 C 121.668 -1.07898 -1.30592 0
M  V30 1328 O 122.874 -1.26273 -1.28277 0
M  V30 1329 H 119.249 -0.684707 -0.310935 0
M  V30 1330 H 121.22 -2.95634 -0.405374 0
M  V30 1331 C 119.969 -2.72044 -2.16535 0
M  V30 1332 H 119.292 -3.53456 -1.86839 0
M  V30 1333 H 120.732 -3.15311 -2.83469 0
M  V30 1334 C 119.191 -1.66968 -2.92615 0
M  V30 1335 O 119.721 -1.0967 -3.86439 0
M  V30 1336 N 117.927 -1.37923 -2.55784 0
M  V30 1337 H 117.474 -1.84706 -1.79559 0
M  V30 1338 H 117.432 -0.67852 -3.06991 0
M  V30 1339 N 121.204 0.198386 -1.56346 0
M  V30 1340 C 122.136 1.26987 -1.90806 0
M  V30 1341 C 123.149 1.41877 -0.798419 0
M  V30 1342 O 124.338 1.42362 -1.07682 0
M  V30 1343 C 121.438 2.64246 -2.12196 0
M  V30 1344 C 120.611 2.71007 -3.43328 0
M  V30 1345 C 119.67 3.89439 -3.5387 0
M  V30 1346 O 118.696 3.76695 -4.26719 0
M  V30 1347 N 119.898 5.04752 -2.86715 0
M  V30 1348 H 122.663 0.977433 -2.83313 0
M  V30 1349 H 120.224 0.388322 -1.57174 0
M  V30 1350 H 122.216 3.41896 -2.1654 0
M  V30 1351 H 120.786 2.85992 -1.26204 0
M  V30 1352 H 120.006 1.79657 -3.50881 0
M  V30 1353 H 121.294 2.72512 -4.29668 0
M  V30 1354 H 120.692 5.18004 -2.2735 0
M  V30 1355 H 119.249 5.8036 -2.96691 0
M  V30 1356 N 122.682 1.50554 0.465978 0
M  V30 1357 C 123.592 1.72585 1.58907 0
M  V30 1358 C 124.608 0.60911 1.6299 0
M  V30 1359 O 125.784 0.88804 1.80765 0
M  V30 1360 C 122.849 1.81995 2.95091 0
M  V30 1361 C 121.91 3.05751 3.01355 0
M  V30 1362 C 121.143 3.14702 4.31043 0
M  V30 1363 O 121.366 2.30313 5.21835 0
M  V30 1364 O 120.3 4.07468 4.43005 0
M  V30 1365 H 124.126 2.67799 1.43239 0
M  V30 1366 H 121.711 1.34711 0.646013 0
M  V30 1367 H 123.593 1.90335 3.75966 0
M  V30 1368 H 122.268 0.899659 3.10947 0
M  V30 1369 H 121.175 3.02908 2.19539 0
M  V30 1370 H 122.508 3.97375 2.90437 0
M  V30 1371 N 124.16 -0.719506 1.40217 0
M  V30 1372 C 125.108 -1.85493 1.40339 0
M  V30 1373 C 126.102 -1.66995 0.284415 0
M  V30 1374 O 127.308 -1.74148 0.455252 0
M  V30 1375 H 123.683 -0.610857 0.438586 0
M  V30 1376 H 125.654 -1.82506 2.36081 0
M  V30 1377 C 124.403 -3.23321 1.27901 0
M  V30 1378 H 123.726 -3.38159 2.1328 0
M  V30 1379 H 125.166 -4.02914 1.32045 0
M  V30 1380 C 123.625 -3.36898 -0.0111355 0
M  V30 1381 O 124.155 -3.89674 -0.975538 0
M  V30 1382 N 122.361 -2.90492 -0.0793393 0
M  V30 1383 H 121.908 -2.47731 0.706183 0
M  V30 1384 H 121.866 -2.99955 -0.942038 0
M  V30 1385 N 125.638 -1.25649 -0.95132 0
M  V30 1386 C 126.884 -1.10757 -1.69884 0
M  V30 1387 C 127.217 0.350061 -1.91019 0
M  V30 1388 O 126.492 1.25783 -1.48354 0
M  V30 1389 C 126.775 -1.86606 -3.07978 0
M  V30 1390 C 126.628 -3.40217 -2.94232 0
M  V30 1391 C 127.947 -1.65182 -4.07925 0
M  V30 1392 H 125.066 -0.40374 -0.616574 0
M  V30 1393 H 127.708 -1.54521 -1.10558 0
M  V30 1394 H 125.858 -1.49409 -3.58621 0
M  V30 1395 H 127.53 -3.87108 -2.50889 0
M  V30 1396 H 125.773 -3.67759 -2.30078 0
M  V30 1397 H 126.444 -3.88505 -3.92133 0
M  V30 1398 H 128.92 -1.9757 -3.66204 0
M  V30 1399 H 127.796 -2.20683 -5.02583 0
M  V30 1400 H 128.057 -0.593933 -4.38092 0
M  V30 1401 N 127.117 1.15442 -1.07289 0
M  V30 1402 C 128.047 2.22312 -0.714107 0
M  V30 1403 C 129.028 1.67467 0.298155 0
M  V30 1404 O 130.213 1.93445 0.171048 0
M  V30 1405 C 127.343 3.47124 -0.110448 0
M  V30 1406 C 126.297 4.14926 -1.04979 0
M  V30 1407 C 125.623 5.33807 -0.308924 0
M  V30 1408 C 126.923 4.64762 -2.38314 0
M  V30 1409 H 128.617 2.5258 -1.6076 0
M  V30 1410 H 126.163 1.21404 -0.77441 0
M  V30 1411 H 128.116 4.21124 0.152482 0
M  V30 1412 H 126.84 3.16187 0.81812 0
M  V30 1413 H 125.499 3.42866 -1.29764 0
M  V30 1414 H 125.147 4.99126 0.623084 0
M  V30 1415 H 124.847 5.80113 -0.935036 0
M  V30 1416 H 126.371 6.10576 -0.0537771 0
M  V30 1417 H 127.785 5.30292 -2.1786 0
M  V30 1418 H 126.182 5.21728 -2.96514 0
M  V30 1419 H 127.252 3.80434 -3.00663 0
M  V30 1420 N 128.595 0.856903 1.32268 0
M  V30 1421 C 129.505 0.306131 2.32594 0
M  V30 1422 C 130.521 -0.577209 1.64147 0
M  V30 1423 O 131.697 -0.477043 1.95669 0
M  V30 1424 C 128.762 -0.494561 3.43154 0
M  V30 1425 C 127.823 0.415186 4.27288 0
M  V30 1426 C 127.056 -0.347387 5.32568 0
M  V30 1427 O 127.279 -1.57708 5.48165 0
M  V30 1428 O 126.213 0.287982 6.01211 0
M  V30 1429 H 130.039 1.13737 2.81598 0
M  V30 1430 H 127.624 0.619902 1.35932 0
M  V30 1431 H 129.506 -0.948944 4.10576 0
M  V30 1432 H 128.181 -1.30257 2.96336 0
M  V30 1433 H 127.088 0.917793 3.62667 0
M  V30 1434 H 128.421 1.18844 4.77637 0
M  V30 1435 N 130.073 -1.45103 0.615059 0
M  V30 1436 C 131.322 -2.01396 0.110718 0
M  V30 1437 C 131.635 -1.48834 -1.26916 0
M  V30 1438 O 132.841 -1.97152 -1.86664 0
M  V30 1439 C 131.297 -3.59599 0.14723 0
M  V30 1440 C 130.905 -4.21158 1.52743 0
M  V30 1441 C 132.649 -4.23428 -0.30148 0
M  V30 1442 C 130.556 -5.71535 1.51992 0
M  V30 1443 H 129.486 -0.753061 0.0376241 0
M  V30 1444 H 132.137 -1.66494 0.77149 0
M  V30 1445 H 130.519 -3.91724 -0.580339 0
M  V30 1446 H 131.693 -4.00594 2.2773 0
M  V30 1447 H 130.008 -3.69552 1.91886 0
M  V30 1448 H 132.605 -5.33703 -0.326392 0
M  V30 1449 H 132.948 -3.94629 -1.32565 0
M  V30 1450 H 133.481 -3.96047 0.373065 0
M  V30 1451 H 130.22 -6.05044 2.52193 0
M  V30 1452 H 129.74 -5.94268 0.81274 0
M  V30 1453 H 131.419 -6.34873 1.24681 0
M  V30 1454 N 131.551 -0.354651 -1.53558 0
M  V30 1455 C 132.779 0.239515 -2.05509 0
M  V30 1456 C 133.194 1.4333 -1.2289 0
M  V30 1457 O 132.551 1.80538 -0.266899 0
M  V30 1458 C 132.602 0.643719 -3.55723 0
M  V30 1459 O 132.323 -0.502602 -4.35207 0
M  V30 1460 C 133.824 1.29743 -4.23889 0
M  V30 1461 H 131.044 0.0442697 -0.669538 0
M  V30 1462 H 133.588 -0.509856 -1.98042 0
M  V30 1463 H 131.743 1.34302 -3.63376 0
M  V30 1464 H 132.157 -0.178172 -5.24197 0
M  V30 1465 H 133.631 1.53091 -5.30346 0
M  V30 1466 H 134.108 2.25441 -3.76926 0
M  V30 1467 H 134.714 0.639865 -4.20459 0
M  V30 1468 N 133.029 1.57378 -0.0835403 0
M  V30 1469 C 133.959 2.1641 0.87686 0
M  V30 1470 C 134.94 1.09429 1.30228 0
M  V30 1471 O 136.125 1.37516 1.37124 0
M  V30 1472 C 133.255 2.73517 2.14022 0
M  V30 1473 C 132.209 3.85769 1.85381 0
M  V30 1474 C 131.535 4.29529 3.18448 0
M  V30 1475 C 132.835 5.09486 1.14984 0
M  V30 1476 H 134.529 2.96914 0.385059 0
M  V30 1477 H 132.075 1.42823 0.18377 0
M  V30 1478 H 134.028 3.13463 2.81636 0
M  V30 1479 H 132.752 1.90252 2.65465 0
M  V30 1480 H 131.411 3.46345 1.20169 0
M  V30 1481 H 131.059 3.43169 3.67755 0
M  V30 1482 H 130.759 5.05204 3.00071 0
M  V30 1483 H 132.283 4.72099 3.8724 0
M  V30 1484 H 133.697 5.46674 1.72687 0
M  V30 1485 H 132.094 5.90515 1.06826 0
M  V30 1486 H 133.164 4.84724 0.130749 0
M  V30 1487 N 134.507 -0.190092 1.56449 0
M  V30 1488 C 135.44 -1.26375 1.90012 0
M  V30 1489 C 136.418 -1.43705 0.760765 0
M  V30 1490 O 137.602 -1.59014 1.01226 0
M  V30 1491 C 134.729 -2.62962 2.13468 0
M  V30 1492 C 133.775 -2.62474 3.36169 0
M  V30 1493 S 134.608 -2.13412 4.91137 0
M  V30 1494 C 135.764 -3.51812 5.17667 0
M  V30 1495 H 135.997 -0.977181 2.80782 0
M  V30 1496 H 133.53 -0.393814 1.49293 0
M  V30 1497 H 135.488 -3.41583 2.27664 0
M  V30 1498 H 134.149 -2.88828 1.23439 0
M  V30 1499 H 133.342 -3.62918 3.49723 0
M  V30 1500 H 132.944 -1.91937 3.20992 0
M  V30 1501 H 135.236 -4.47706 5.08494 0
M  V30 1502 H 136.179 -3.43148 6.19399 0
M  V30 1503 H 136.587 -3.46956 4.45288 0
M  V30 1504 N 135.985 -1.50799 -0.457987 0
M  V30 1505 C 137.262 -1.52968 -1.21902 0
M  V30 1506 C 137.642 -0.281906 -2.09209 0
M  V30 1507 O 136.99 0.734076 -2.16388 0
M  V30 1508 C 137.2 -2.8326 -2.03875 0
M  V30 1509 C 138.548 -3.34425 -2.6162 0
M  V30 1510 O 139.572 -2.8467 -2.14106 0
M  V30 1511 O 138.431 -4.21188 -3.48228 0
M  V30 1512 H 135.525 -0.614129 -0.553873 0
M  V30 1513 H 138.071 -1.63098 -0.468739 0
M  V30 1514 H 136.843 -3.65543 -1.39621 0
M  V30 1515 H 136.466 -2.76195 -2.8601 0
M  V30 1516 N 137.463 0.71206 -1.40597 0
M  V30 1517 C 138.426 1.80785 -1.40888 0
M  V30 1518 C 139.426 1.57937 -0.302103 0
M  V30 1519 O 140.616 1.64913 -0.561182 0
M  V30 1520 C 137.748 3.18927 -1.20409 0
M  V30 1521 H 138.941 1.81924 -2.38419 0
M  V30 1522 H 136.494 0.91805 -1.26497 0
M  V30 1523 H 137.229 3.23436 -0.236522 0
M  V30 1524 H 137.014 3.36911 -2.00582 0
M  V30 1525 H 138.504 3.98949 -1.23408 0
M  V30 1526 N 138.941 1.26152 0.944643 0
M  V30 1527 C 139.889 1.07215 2.06417 0
M  V30 1528 C 140.883 9.2007e-05 1.694 0
M  V30 1529 O 142.089 0.1565 1.79318 0
M  V30 1530 H 138.464 0.329837 0.675805 0
M  V30 1531 H 140.435 2.02099 2.19541 0
M  V30 1532 C 139.184 0.718197 3.40202 0
M  V30 1533 H 138.507 1.53497 3.69159 0
M  V30 1534 H 139.947 0.625459 4.19361 0
M  V30 1535 C 138.406 -0.576435 3.31932 0
M  V30 1536 O 138.936 -1.61574 3.67773 0
M  V30 1537 N 137.142 -0.565781 2.85039 0
M  V30 1538 H 136.689 0.280367 2.5607 0
M  V30 1539 H 136.647 -1.43213 2.79888 0
M  V30 1540 N 140.419 -1.14872 1.07899 0
M  V30 1541 C 141.649 -1.89386 0.825631 0
M  V30 1542 C 142.057 -1.78565 -0.625406 0
M  V30 1543 O 141.4 -1.13918 -1.44113 0
M  V30 1544 C 141.462 -3.40206 1.16191 0
M  V30 1545 C 141.126 -3.74812 2.61467 0
M  V30 1546 C 142.123 -3.75367 3.59716 0
M  V30 1547 C 139.808 -4.0495 2.97189 0
M  V30 1548 C 141.802 -4.05574 4.9172 0
M  V30 1549 C 139.489 -4.34821 4.29388 0
M  V30 1550 C 140.487 -4.35116 5.26463 0
M  V30 1551 O 140.175 -4.64267 6.56286 0
M  V30 1552 H 139.907 -0.606894 0.297751 0
M  V30 1553 H 142.461 -1.46438 1.44031 0
M  V30 1554 H 140.691 -3.8358 0.490214 0
M  V30 1555 H 142.38 -3.96018 0.890193 0
M  V30 1556 H 143.146 -3.52176 3.33462 0
M  V30 1557 H 139.025 -4.03876 2.22273 0
M  V30 1558 H 142.569 -4.05719 5.67484 0
M  V30 1559 H 138.466 -4.5748 4.55392 0
M  V30 1560 H 139.234 -4.82007 6.61522 0
M  V30 1561 N 141.898 -0.863906 -1.31812 0
M  V30 1562 C 143.144 -0.472535 -1.97218 0
M  V30 1563 C 143.477 0.971394 -1.68159 0
M  V30 1564 O 142.752 1.68309 -0.974798 0
M  V30 1565 C 143.035 -0.723054 -3.52766 0
M  V30 1566 C 142.888 -2.21608 -3.91421 0
M  V30 1567 C 144.207 -0.185522 -4.39709 0
M  V30 1568 H 141.326 -0.173158 -0.71637 0
M  V30 1569 H 143.968 -1.08403 -1.56041 0
M  V30 1570 H 142.118 -0.202577 -3.87971 0
M  V30 1571 H 143.79 -2.80334 -3.66347 0
M  V30 1572 H 142.033 -2.691 -3.40246 0
M  V30 1573 H 142.704 -2.34203 -4.99853 0
M  V30 1574 H 145.18 -0.630726 -4.11292 0
M  V30 1575 H 144.056 -0.390306 -5.47511 0
M  V30 1576 H 144.317 0.912229 -4.32586 0
M  V30 1577 N 143.376 1.44774 -0.622745 0
M  V30 1578 C 144.309 2.27792 0.136329 0
M  V30 1579 C 145.287 1.38041 0.859264 0
M  V30 1580 O 146.471 1.67478 0.86506 0
M  V30 1581 C 143.598 3.16776 1.19878 0
M  V30 1582 C 142.644 4.22575 0.57731 0
M  V30 1583 S 143.477 5.31825 -0.626294 0
M  V30 1584 C 144.633 6.24377 0.436378 0
M  V30 1585 H 144.866 2.91824 -0.567967 0
M  V30 1586 H 142.399 1.48838 -0.410677 0
M  V30 1587 H 144.357 3.68596 1.80686 0
M  V30 1588 H 143.018 2.5198 1.87523 0
M  V30 1589 H 142.211 4.84818 1.37721 0
M  V30 1590 H 141.813 3.73974 0.0440439 0
M  V30 1591 H 144.105 6.64689 1.31128 0
M  V30 1592 H 145.048 7.07941 -0.150271 0
M  V30 1593 H 145.456 5.59381 0.758513 0
M  V30 1594 N 144.854 0.36279 1.53368 0
M  V30 1595 C 146.131 -0.284021 1.93527 0
M  V30 1596 C 146.511 -1.66628 1.29608 0
M  V30 1597 O 145.859 -2.23942 0.45413 0
M  V30 1598 C 146.069 -0.337028 3.47369 0
M  V30 1599 C 147.417 -0.578708 4.20638 0
M  V30 1600 O 148.441 -0.418352 3.53735 0
M  V30 1601 O 147.3 -0.89074 5.39192 0
M  V30 1602 H 144.394 -0.169743 0.809393 0
M  V30 1603 H 146.94 0.41537 1.64538 0
M  V30 1604 H 145.712 0.632217 3.86159 0
M  V30 1605 H 145.335 -1.08243 3.82582 0
M  V30 1606 N 146.332 -1.57332 0.0918853 0
M  V30 1607 C 147.242 -2.17368 -0.882505 0
M  V30 1608 C 148.258 -1.14226 -1.31257 0
M  V30 1609 O 149.434 -1.46582 -1.38115 0
M  V30 1610 C 146.499 -2.73962 -2.12476 0
M  V30 1611 C 145.56 -3.92048 -1.7492 0
M  V30 1612 C 144.793 -4.45933 -2.93223 0
M  V30 1613 O 145.016 -3.98764 -4.07852 0
M  V30 1614 O 143.95 -5.36999 -2.71875 0
M  V30 1615 H 147.776 -3.01031 -0.40172 0
M  V30 1616 H 145.361 -1.48813 -0.132291 0
M  V30 1617 H 147.243 -3.10147 -2.85283 0
M  V30 1618 H 145.918 -1.93347 -2.59613 0
M  V30 1619 H 144.825 -3.6068 -0.993025 0
M  V30 1620 H 146.158 -4.74017 -1.32548 0
M  V30 1621 N 147.81 0.181792 -1.56548 0
M  V30 1622 C 149.038 0.915947 -1.85521 0
M  V30 1623 C 149.453 1.76282 -0.676016 0
M  V30 1624 O 148.81 1.79012 0.355077 0
M  V30 1625 C 148.861 1.80126 -3.13427 0
M  V30 1626 O 148.582 0.988562 -4.26801 0
M  V30 1627 C 150.083 2.64597 -3.55673 0
M  V30 1628 H 147.303 0.26661 -0.61576 0
M  V30 1629 H 149.847 0.185039 -2.03661 0
M  V30 1630 H 148.002 2.48563 -2.97145 0
M  V30 1631 H 148.416 1.59308 -4.99721 0
M  V30 1632 H 149.89 3.2235 -4.48101 0
M  V30 1633 H 150.367 3.38958 -2.79292 0
M  V30 1634 H 150.973 2.0151 -3.74532 0
M  V30 1635 N 149.288 1.51039 0.449983 0
M  V30 1636 C 150.218 1.74379 1.55288 0
M  V30 1637 C 151.199 0.593236 1.5942 0
M  V30 1638 O 152.384 0.834625 1.7535 0
M  V30 1639 C 149.514 1.85728 2.93466 0
M  V30 1640 C 148.468 3.01078 3.04197 0
M  V30 1641 C 147.794 2.97595 4.44231 0
M  V30 1642 C 149.094 4.41254 2.7945 0
M  V30 1643 H 150.788 2.66725 1.36008 0
M  V30 1644 H 148.334 1.2835 0.652864 0
M  V30 1645 H 150.287 2.0064 3.70569 0
M  V30 1646 H 149.011 0.900207 3.13949 0
M  V30 1647 H 147.67 2.85851 2.29531 0
M  V30 1648 H 147.318 1.99691 4.61663 0
M  V30 1649 H 147.018 3.75046 4.52343 0
M  V30 1650 H 148.542 3.14583 5.23326 0
M  V30 1651 H 149.956 4.56897 3.46292 0
M  V30 1652 H 148.353 5.20315 2.98985 0
M  V30 1653 H 149.423 4.52164 1.75144 0
M  V30 1654 N 150.766 -0.704594 1.40972 0
M  V30 1655 C 152.014 -1.46169 1.39568 0
M  V30 1656 C 152.335 -1.95 0.00253745 0
M  V30 1657 O 151.605 -1.71095 -0.954114 0
M  V30 1658 H 150.185 -0.542326 0.513704 0
M  V30 1659 H 152.847 -0.834553 1.76128 0
M  V30 1660 H 151.943 -2.32922 2.07735 0
M  V30 1661 N 152.244 -1.26651 -0.937939 0
M  V30 1662 C 153.472 -1.15173 -1.7188 0
M  V30 1663 C 153.887 0.292668 -1.86518 0
M  V30 1664 O 153.244 1.20014 -1.37488 0
M  V30 1665 C 153.295 -1.81925 -3.12387 0
M  V30 1666 O 153.016 -3.2072 -2.98446 0
M  V30 1667 C 154.517 -1.76442 -4.06673 0
M  V30 1668 H 151.737 -0.400911 -0.538063 0
M  V30 1669 H 154.281 -1.67332 -1.1756 0
M  V30 1670 H 152.436 -1.33696 -3.63599 0
M  V30 1671 H 152.85 -3.53802 -3.872 0
M  V30 1672 H 154.324 -2.27781 -5.02812 0
M  V30 1673 H 154.801 -0.731608 -4.33064 0
M  V30 1674 H 155.407 -2.24238 -3.61382 0
M  V30 1675 N 153.722 1.14298 -1.08507 0
M  V30 1676 C 154.685 2.17607 -0.719711 0
M  V30 1677 C 155.685 1.58907 0.245997 0
M  V30 1678 O 156.875 1.74181 0.0254081 0
M  V30 1679 C 154.007 3.40842 -0.0627695 0
M  V30 1680 H 155.2 2.51443 -1.63452 0
M  V30 1681 H 152.753 1.28963 -0.88307 0
M  V30 1682 H 153.488 3.12587 0.863716 0
M  V30 1683 H 153.273 3.84713 -0.757504 0
M  V30 1684 H 154.763 4.17221 0.177786 0
M  V30 1685 N 155.201 0.870884 1.31352 0
M  V30 1686 C 156.429 0.49677 2.00848 0
M  V30 1687 C 156.844 -0.910998 1.65367 0
M  V30 1688 O 156.201 -1.59696 0.883374 0
M  V30 1689 C 156.252 0.645308 3.55694 0
M  V30 1690 O 155.973 1.99764 3.89905 0
M  V30 1691 C 157.474 0.272326 4.42463 0
M  V30 1692 H 154.694 0.193462 0.642506 0
M  V30 1693 H 157.238 1.1723 1.67563 0
M  V30 1694 H 155.393 0.0173176 3.87396 0
M  V30 1695 H 155.807 2.00607 4.84621 0
M  V30 1696 H 157.281 0.427208 5.50344 0
M  V30 1697 H 157.758 -0.788587 4.32062 0
M  V30 1698 H 158.364 0.876054 4.1618 0
M  V30 1699 N 156.679 -1.44442 0.630414 0
M  V30 1700 C 157.926 -2.02052 0.134617 0
M  V30 1701 C 158.254 -1.49576 -1.24327 0
M  V30 1702 O 157.509 -0.669806 -1.83881 0
M  V30 1703 C 157.808 -3.57332 0.0697835 0
M  V30 1704 C 157.474 -4.29058 1.38635 0
M  V30 1705 C 156.136 -4.4837 1.74694 0
M  V30 1706 C 158.488 -4.69872 2.25543 0
M  V30 1707 C 155.816 -5.05756 2.97369 0
M  V30 1708 C 158.168 -5.28616 3.47487 0
M  V30 1709 C 156.832 -5.46147 3.8377 0
M  V30 1710 H 156.102 -0.739361 0.0492598 0
M  V30 1711 H 158.749 -1.73217 0.816586 0
M  V30 1712 H 157.054 -3.85577 -0.695553 0
M  V30 1713 H 158.751 -3.99637 -0.330344 0
M  V30 1714 H 155.341 -4.14357 1.09574 0
M  V30 1715 H 159.525 -4.54666 1.98979 0
M  V30 1716 H 154.781 -5.17515 3.25558 0
M  V30 1717 H 158.955 -5.59192 4.15063 0
M  V30 1718 H 156.582 -5.9038 4.7891 0
M  V30 1719 N 158.157 -0.370918 -1.53173 0
M  V30 1720 C 159.385 0.217704 -2.05751 0
M  V30 1721 C 159.8 1.42018 -1.24404 0
M  V30 1722 O 159.157 1.80245 -0.286033 0
M  V30 1723 C 159.208 0.605954 -3.56385 0
M  V30 1724 O 158.929 -0.548734 -4.3465 0
M  V30 1725 C 160.43 1.2524 -4.25241 0
M  V30 1726 H 157.65 0.0371659 -0.66997 0
M  V30 1727 H 160.194 -0.530832 -1.9749 0
M  V30 1728 H 158.349 1.3044 -3.6478 0
M  V30 1729 H 158.763 -0.23376 -5.23979 0
M  V30 1730 H 160.237 1.47458 -5.3194 0
M  V30 1731 H 160.714 2.2143 -3.79296 0
M  V30 1732 H 161.32 0.595233 -4.21114 0
M  V30 1733 N 159.635 1.57281 -0.100228 0
M  V30 1734 C 160.881 1.94826 0.563101 0
M  V30 1735 C 161.214 0.982475 1.67514 0
M  V30 1736 O 160.489 0.0164069 1.94493 0
M  V30 1737 C 160.772 3.42453 1.11346 0
M  V30 1738 C 160.625 4.498 0.00612081 0
M  V30 1739 C 161.944 3.91506 2.01024 0
M  V30 1740 H 159.063 0.708428 0.203221 0
M  V30 1741 H 161.705 1.8922 -0.171979 0
M  V30 1742 H 159.855 3.47361 1.7399 0
M  V30 1743 H 161.527 4.57 -0.628357 0
M  V30 1744 H 159.77 4.28756 -0.659581 0
M  V30 1745 H 160.441 5.50306 0.432109 0
M  V30 1746 H 162.917 3.88784 1.48278 0
M  V30 1747 H 161.793 4.95358 2.36457 0
M  V30 1748 H 162.054 3.31099 2.92961 0
M  V30 1749 N 161.113 -0.173488 1.56642 0
M  V30 1750 C 162.338 -0.910149 1.86363 0
M  V30 1751 C 162.763 -1.75132 0.686318 0
M  V30 1752 O 162.121 -1.77595 -0.364643 0
M  V30 1753 C 162.169 -1.76447 3.14482 0
M  V30 1754 O 161.273 -2.86584 2.96553 0
M  V30 1755 H 160.614 -0.255086 0.613047 0
M  V30 1756 H 163.144 -0.172283 2.03873 0
M  V30 1757 H 163.154 -2.16483 3.45831 0
M  V30 1758 H 161.829 -1.14658 3.99783 0
M  V30 1759 H 160.406 -2.50146 2.76553 0
M  V30 1760 N 162.591 -1.51276 -0.441967 0
M  V30 1761 C 163.816 -1.67799 -1.21895 0
M  V30 1762 C 164.241 -0.372864 -1.84367 0
M  V30 1763 O 163.599 0.666501 -1.68604 0
M  V30 1764 C 163.647 -2.79199 -2.28211 0
M  V30 1765 O 162.751 -2.42479 -3.33583 0
M  V30 1766 H 162.092 -0.559649 -0.357336 0
M  V30 1767 H 164.622 -1.97815 -0.522522 0
M  V30 1768 H 164.632 -3.03146 -2.73069 0
M  V30 1769 H 163.307 -3.73906 -1.82118 0
M  V30 1770 H 161.884 -2.29087 -2.94234 0
M  V30 1771 N 164.069 0.697108 -1.41344 0
M  V30 1772 C 165.002 1.82134 -1.37486 0
M  V30 1773 C 165.98 1.60784 -0.242351 0
M  V30 1774 O 167.164 1.83553 -0.429012 0
M  V30 1775 C 164.291 3.18788 -1.14421 0
M  V30 1776 C 163.337 3.58932 -2.3037 0
M  V30 1777 S 164.17 3.63916 -3.92843 0
M  V30 1778 C 165.326 5.03298 -3.72078 0
M  V30 1779 H 165.559 1.85129 -2.32625 0
M  V30 1780 H 163.092 0.865671 -1.2785 0
M  V30 1781 H 165.05 3.97677 -1.018 0
M  V30 1782 H 163.711 3.13404 -0.20905 0
M  V30 1783 H 162.904 4.58202 -2.09922 0
M  V30 1784 H 162.506 2.87347 -2.39391 0
M  V30 1785 H 164.798 5.90753 -3.31688 0
M  V30 1786 H 165.741 5.28788 -4.70945 0
M  V30 1787 H 166.149 4.74764 -3.05384 0
M  V30 1788 N 165.547 1.27147 0.931209 0
M  V30 1789 C 166.494 1.09568 2.03134 0
M  V30 1790 C 167.464 -0.00222433 1.661 0
M  V30 1791 O 168.649 0.159439 1.90133 0
M  V30 1792 C 165.789 0.745231 3.36957 0
M  V30 1793 C 164.902 1.92041 3.86968 0
M  V30 1794 C 164.037 1.51216 5.09222 0
M  V30 1795 C 163.076 2.65504 5.5152 0
M  V30 1796 N 162.213 2.25291 6.64972 0
M  V30 1797 H 167.053 2.03708 2.17502 0
M  V30 1798 H 164.59 1.01411 1.06556 0
M  V30 1799 H 166.548 0.522878 4.1391 0
M  V30 1800 H 165.178 -0.159202 3.22407 0
M  V30 1801 H 164.23 2.25541 3.06326 0
M  V30 1802 H 165.542 2.77787 4.1429 0
M  V30 1803 H 164.696 1.25084 5.93666 0
M  V30 1804 H 163.435 0.625749 4.83669 0
M  V30 1805 H 162.44 2.92354 4.65628 0
M  V30 1806 H 163.665 3.54761 5.7907 0
M  V30 1807 H 161.611 1.39098 6.41083 0
M  V30 1808 H 161.528 3.04577 6.91931 0
M  V30 1809 H 162.796 2.02398 7.52765 0
M  V30 1810 N 167.025 -1.13721 1.09112 0
M  V30 1811 C 168.271 -1.85198 0.826414 0
M  V30 1812 C 168.604 -1.83129 -0.646319 0
M  V30 1813 O 167.879 -1.2671 -1.47563 0
M  V30 1814 C 168.162 -3.33507 1.35812 0
M  V30 1815 C 168.015 -3.44108 2.89672 0
M  V30 1816 C 169.334 -4.28838 0.989256 0
M  V30 1817 H 166.453 -0.67243 0.301675 0
M  V30 1818 H 169.095 -1.33499 1.35197 0
M  V30 1819 H 167.245 -3.77666 0.911082 0
M  V30 1820 H 168.917 -3.08684 3.428 0
M  V30 1821 H 167.16 -2.85087 3.26967 0
M  V30 1822 H 167.831 -4.48388 3.21951 0
M  V30 1823 H 170.307 -3.92734 1.37475 0
M  V30 1824 H 169.183 -5.31051 1.38838 0
M  V30 1825 H 169.444 -4.4198 -0.102924 0
M  V30 1826 N 168.503 -0.877838 -1.30888 0
M  V30 1827 C 169.751 -0.491723 -1.96027 0
M  V30 1828 C 170.072 0.960827 -1.69685 0
M  V30 1829 O 169.342 1.67462 -1.01654 0
M  V30 1830 H 167.922 -0.17885 -0.725273 0
M  V30 1831 H 170.584 -1.11935 -1.59551 0
M  V30 1832 H 169.68 -0.656016 -3.05128 0
M  V30 1833 N 169.982 1.44106 -0.638065 0
M  V30 1834 C 170.892 2.34513 0.0637334 0
M  V30 1835 C 171.908 1.53018 0.828346 0
M  V30 1836 O 173.084 1.85723 0.779036 0
M  V30 1837 C 170.149 3.31095 1.02844 0
M  V30 1838 C 169.21 4.28497 0.26244 0
M  V30 1839 C 168.443 5.20465 1.1812 0
M  V30 1840 O 168.666 5.16514 2.42011 0
M  V30 1841 O 167.6 5.98251 0.661774 0
M  V30 1842 H 171.426 2.95989 -0.68003 0
M  V30 1843 H 169.011 1.43994 -0.398252 0
M  V30 1844 H 170.893 3.90526 1.58327 0
M  V30 1845 H 169.568 2.72144 1.7527 0
M  V30 1846 H 168.475 3.72592 -0.335602 0
M  V30 1847 H 169.808 4.90388 -0.421936 0
M  V30 1848 N 171.46 0.379036 1.52974 0
M  V30 1849 C 172.407 -0.461048 2.26148 0
M  V30 1850 C 173.377 -1.06637 1.27349 0
M  V30 1851 O 174.562 -1.09633 1.56157 0
M  V30 1852 C 171.702 -1.58782 3.06402 0
M  V30 1853 C 170.815 -1.00636 4.20115 0
M  V30 1854 C 169.95 -2.10334 4.87784 0
M  V30 1855 C 168.989 -1.49724 5.93506 0
M  V30 1856 N 168.126 -2.5331 6.54812 0
M  V30 1857 H 172.966 0.169429 2.97518 0
M  V30 1858 H 170.503 0.0953806 1.4679 0
M  V30 1859 H 172.461 -2.25174 3.51215 0
M  V30 1860 H 171.091 -2.18876 2.37261 0
M  V30 1861 H 170.143 -0.232332 3.7969 0
M  V30 1862 H 171.455 -0.523343 4.96047 0
M  V30 1863 H 170.609 -2.84519 5.35849 0
M  V30 1864 H 169.348 -2.61992 4.11353 0
M  V30 1865 H 168.353 -0.740598 5.44789 0
M  V30 1866 H 169.578 -0.988732 6.71864 0
M  V30 1867 H 167.524 -3.04156 5.81227 0
M  V30 1868 H 167.441 -2.09734 7.26325 0
M  V30 1869 H 168.709 -3.27155 7.07524 0
M  V30 1870 N 172.938 -1.57226 0.108567 0
M  V30 1871 C 173.885 -2.14756 -0.845481 0
M  V30 1872 C 174.855 -1.06971 -1.27068 0
M  V30 1873 O 176.04 -1.34827 -1.35005 0
M  V30 1874 C 173.18 -2.74298 -2.09415 0
M  V30 1875 C 172.293 -3.96358 -1.71826 0
M  V30 1876 C 171.428 -4.44021 -2.9158 0
M  V30 1877 C 170.467 -5.58637 -2.50181 0
M  V30 1878 N 169.604 -6.01091 -3.62814 0
M  V30 1879 H 174.444 -2.95961 -0.348035 0
M  V30 1880 H 171.981 -1.46226 -0.160106 0
M  V30 1881 H 173.939 -3.06945 -2.82561 0
M  V30 1882 H 172.569 -1.95801 -2.56636 0
M  V30 1883 H 171.621 -3.69939 -0.885947 0
M  V30 1884 H 172.933 -4.79504 -1.37394 0
M  V30 1885 H 172.087 -4.78522 -3.72963 0
M  V30 1886 H 170.826 -3.59803 -3.29231 0
M  V30 1887 H 169.831 -5.23751 -1.67228 0
M  V30 1888 H 171.056 -6.44613 -2.13659 0
M  V30 1889 H 169.002 -5.19817 -4.00158 0
M  V30 1890 H 168.919 -6.79066 -3.32273 0
M  V30 1891 H 170.187 -6.40227 -4.44668 0
M  V30 1892 N 174.416 0.165178 -1.56732 0
M  V30 1893 C 175.326 1.22423 -2.00125 0
M  V30 1894 C 176.342 1.48084 -0.913619 0
M  V30 1895 O 177.518 1.60112 -1.22172 0
M  V30 1896 C 174.583 2.54197 -2.35764 0
M  V30 1897 C 173.644 2.36343 -3.58386 0
M  V30 1898 C 172.877 3.61834 -3.92316 0
M  V30 1899 O 173.1 4.67267 -3.27135 0
M  V30 1900 O 172.034 3.55579 -4.85641 0
M  V30 1901 H 175.86 0.885886 -2.90492 0
M  V30 1902 H 173.445 0.372518 -1.44681 0
M  V30 1903 H 175.327 3.3192 -2.59629 0
M  V30 1904 H 174.002 2.87598 -1.48557 0
M  V30 1905 H 172.909 1.56632 -3.39731 0
M  V30 1906 H 174.242 2.07865 -4.46154 0
M  V30 1907 N 175.894 1.51508 0.433938 0
M  V30 1908 C 177.14 1.64588 1.18484 0
M  V30 1909 C 177.473 0.362666 1.90784 0
M  V30 1910 O 176.748 -0.637892 1.83742 0
M  V30 1911 C 177.031 2.85149 2.19913 0
M  V30 1912 C 176.884 4.23456 1.51674 0
M  V30 1913 C 178.203 3.01227 3.20858 0
M  V30 1914 H 175.322 0.598994 0.429389 0
M  V30 1915 H 177.964 1.84002 0.473647 0
M  V30 1916 H 176.114 2.68729 2.80566 0
M  V30 1917 H 177.786 4.51552 0.943322 0
M  V30 1918 H 176.029 4.25998 0.819035 0
M  V30 1919 H 176.7 5.03812 2.2556 0
M  V30 1920 H 179.176 3.16382 2.70263 0
M  V30 1921 H 178.052 3.87141 3.89118 0
M  V30 1922 H 178.313 2.13447 3.8716 0
M  V30 1923 N 177.372 -0.689602 1.41712 0
M  V30 1924 C 178.783 -1.26973 1.36875 0
M  V30 1925 C 179.134 -1.96124 0.054748 0
M  V30 1926 O 178.259 -1.99141 -0.84687 0
M  V30 1927 C 178.854 -2.30912 2.47922 0
M  V30 1928 C 177.413 -2.84486 2.46464 0
M  V30 1929 C 176.56 -1.58603 2.27465 0
M  V30 1930 H 179.511 -0.48396 1.51141 0
M  V30 1931 H 179.532 -3.12331 2.17323 0
M  V30 1932 H 179.044 -1.80554 3.43543 0
M  V30 1933 H 177.145 -3.39005 1.54617 0
M  V30 1934 H 177.258 -3.34511 3.42986 0
M  V30 1935 H 175.622 -1.84632 1.75451 0
M  V30 1936 H 176.405 -1.10233 3.25121 0
M  V30 1937 N 178.85 -1.27639 -0.924453 0
M  V30 1938 C 180.097 -1.14167 -1.67249 0
M  V30 1939 C 180.425 0.311863 -1.91984 0
M  V30 1940 O 179.68 1.24425 -1.51053 0
M  V30 1941 C 179.979 -1.87407 -3.04325 0
M  V30 1942 C 179.645 -3.37249 -2.99289 0
M  V30 1943 C 178.307 -3.7812 -2.97622 0
M  V30 1944 C 180.659 -4.32845 -2.90336 0
M  V30 1945 C 177.987 -5.12944 -2.8479 0
M  V30 1946 C 180.339 -5.6773 -2.79045 0
M  V30 1947 C 179.003 -6.07889 -2.7573 0
M  V30 1948 H 178.273 -0.417766 -0.612007 0
M  V30 1949 H 180.92 -1.58286 -1.07786 0
M  V30 1950 H 179.225 -1.35805 -3.67511 0
M  V30 1951 H 180.922 -1.74408 -3.61086 0
M  V30 1952 H 177.512 -3.04748 -3.01374 0
M  V30 1953 H 181.696 -4.02239 -2.90719 0
M  V30 1954 H 176.952 -5.432 -2.80612 0
M  V30 1955 H 181.126 -6.41472 -2.71083 0
M  V30 1956 H 178.753 -7.12314 -2.65544 0
M  V30 1957 N 180.328 1.1314 -1.09713 0
M  V30 1958 C 181.577 1.83838 -0.829851 0
M  V30 1959 C 181.89 1.84599 0.646728 0
M  V30 1960 O 183.096 2.51218 1.02965 0
M  V30 1961 C 181.552 3.30069 -1.43466 0
M  V30 1962 C 181.16 3.37688 -2.94399 0
M  V30 1963 C 182.904 4.05788 -1.24645 0
M  V30 1964 C 180.811 4.78209 -3.47952 0
M  V30 1965 H 179.741 0.68877 -0.306777 0
M  V30 1966 H 182.392 1.27448 -1.3202 0
M  V30 1967 H 180.774 3.8628 -0.871996 0
M  V30 1968 H 181.948 2.91456 -3.56918 0
M  V30 1969 H 180.263 2.75436 -3.12289 0
M  V30 1970 H 182.86 5.09535 -1.62107 0
M  V30 1971 H 183.203 4.15878 -0.187357 0
M  V30 1972 H 183.736 3.55915 -1.77678 0
M  V30 1973 H 180.475 4.73311 -4.53495 0
M  V30 1974 H 179.995 5.24924 -2.90198 0
M  V30 1975 H 181.674 5.47133 -3.45332 0
M  V30 1976 N 181.806 0.884767 1.30421 0
M  V30 1977 C 183.053 0.503105 1.96151 0
M  V30 1978 C 183.381 -0.947676 1.69851 0
M  V30 1979 O 182.636 -1.68467 0.995861 0
M  V30 1980 C 182.935 0.724318 3.49983 0
M  V30 1981 C 182.601 2.15015 3.96332 0
M  V30 1982 C 181.263 2.54005 4.08699 0
M  V30 1983 C 183.615 3.07936 4.20505 0
M  V30 1984 C 180.943 3.85128 4.42599 0
M  V30 1985 C 183.295 4.3859 4.55874 0
M  V30 1986 C 181.959 4.77474 4.66449 0
M  V30 1987 H 181.229 0.184099 0.717766 0
M  V30 1988 H 183.876 1.12058 1.55291 0
M  V30 1989 H 182.181 0.0238086 3.91793 0
M  V30 1990 H 183.878 0.408617 3.98913 0
M  V30 1991 H 180.468 1.8375 3.87213 0
M  V30 1992 H 184.652 2.79033 4.10431 0
M  V30 1993 H 179.908 4.14996 4.48986 0
M  V30 1994 H 184.082 5.10629 4.7353 0
M  V30 1995 H 181.709 5.79115 4.92473 0
M  V30 1996 N 183.284 -1.43765 0.645699 0
M  V30 1997 C 184.232 -2.32516 -0.0624849 0
M  V30 1998 C 185.226 -1.48183 -0.820855 0
M  V30 1999 O 186.432 -1.64439 -0.732106 0
M  V30 2000 H 182.807 -0.750989 -0.0389864 0
M  V30 2001 H 184.778 -2.89979 0.703892 0
M  V30 2002 C 183.527 -3.32389 -1.02044 0
M  V30 2003 H 182.85 -3.97301 -0.446312 0
M  V30 2004 H 184.29 -3.97138 -1.48517 0
M  V30 2005 C 182.749 -2.62416 -2.11281 0
M  V30 2006 O 183.279 -2.434 -3.19561 0
M  V30 2007 N 181.485 -2.21913 -1.87624 0
M  V30 2008 H 181.032 -2.37578 -0.995703 0
M  V30 2009 H 180.99 -1.75424 -2.6091 0
M  V30 2010 N 184.763 -0.387143 -1.52771 0
M  V30 2011 C 185.695 0.484089 -2.2403 0
M  V30 2012 C 186.708 1.02849 -1.26198 0
M  V30 2013 O 187.897 0.931186 -1.52286 0
M  V30 2014 C 184.997 1.68337 -2.94136 0
M  V30 2015 C 184.17 1.26672 -4.18656 0
M  V30 2016 C 183.229 2.33045 -4.7178 0
M  V30 2017 O 182.255 1.94541 -5.34923 0
M  V30 2018 N 183.457 3.64929 -4.5145 0
M  V30 2019 H 186.222 -0.126404 -2.99433 0
M  V30 2020 H 183.783 -0.213392 -1.60488 0
M  V30 2021 H 185.775 2.39019 -3.26577 0
M  V30 2022 H 184.345 2.20025 -2.22053 0
M  V30 2023 H 183.565 0.388878 -3.92277 0
M  V30 2024 H 184.853 0.964964 -4.99566 0
M  V30 2025 H 184.251 3.98974 -4.01044 0
M  V30 2026 H 182.808 4.31651 -4.88386 0
M  V30 2027 N 186.241 1.57166 -0.116904 0
M  V30 2028 C 187.487 1.95412 0.542405 0
M  V30 2029 C 187.82 1.00019 1.66463 0
M  V30 2030 O 187.095 0.0370346 1.94465 0
M  V30 2031 C 187.378 3.43615 1.07708 0
M  V30 2032 C 187.231 4.49781 -0.0415868 0
M  V30 2033 C 188.55 3.93616 1.96861 0
M  V30 2034 H 185.669 0.710543 0.195696 0
M  V30 2035 H 188.311 1.89027 -0.192038 0
M  V30 2036 H 186.461 3.49187 1.70296 0
M  V30 2037 H 188.133 4.56308 -0.676793 0
M  V30 2038 H 186.376 4.28033 -0.705019 0
M  V30 2039 H 187.047 5.50733 0.373717 0
M  V30 2040 H 189.523 3.90335 1.44146 0
M  V30 2041 H 188.399 4.97838 2.3119 0
M  V30 2042 H 188.66 3.34188 2.89432 0
M  V30 2043 N 187.719 -0.156864 1.56817 0
M  V30 2044 C 188.947 -0.886316 1.86955 0
M  V30 2045 C 189.362 -1.75185 0.703975 0
M  V30 2046 O 188.719 -1.79555 -0.326552 0
M  V30 2047 C 188.77 -1.75117 3.16253 0
M  V30 2048 O 188.491 -0.920537 4.2832 0
M  V30 2049 C 189.992 -2.58905 3.59837 0
M  V30 2050 H 187.212 -0.25678 0.619923 0
M  V30 2051 H 189.756 -0.152615 2.0393 0
M  V30 2052 H 187.911 -2.43805 3.01062 0
M  V30 2053 H 188.325 -1.51337 5.02192 0
M  V30 2054 H 189.799 -3.1518 4.53172 0
M  V30 2055 H 190.276 -3.34472 2.84649 0
M  V30 2056 H 190.882 -1.95526 3.7769 0
M  V30 2057 N 189.197 -1.51736 -0.425897 0
M  V30 2058 C 190.107 -1.76738 -1.54275 0
M  V30 2059 C 191.123 -0.65211 -1.61318 0
M  V30 2060 O 192.299 -0.935654 -1.78346 0
M  V30 2061 C 189.364 -1.89755 -2.90162 0
M  V30 2062 C 188.425 -3.13633 -2.93143 0
M  V30 2063 C 187.658 -3.2602 -4.22548 0
M  V30 2064 O 187.881 -2.44067 -5.15546 0
M  V30 2065 O 186.815 -4.19071 -4.32046 0
M  V30 2066 H 190.641 -2.71502 -1.36089 0
M  V30 2067 H 188.226 -1.36376 -0.610069 0
M  V30 2068 H 190.108 -2.00236 -3.70788 0
M  V30 2069 H 188.783 -0.981785 -3.08452 0
M  V30 2070 H 187.69 -3.08622 -2.11431 0
M  V30 2071 H 189.023 -4.04936 -2.798 0
M  V30 2072 N 190.675 0.682077 -1.42076 0
M  V30 2073 C 191.608 1.80666 -1.3941 0
M  V30 2074 C 192.586 1.60518 -0.25939 0
M  V30 2075 O 193.77 1.83088 -0.448456 0
M  V30 2076 C 190.897 3.17556 -1.17796 0
M  V30 2077 C 189.943 3.56468 -2.34164 0
M  V30 2078 S 190.776 3.59729 -3.96681 0
M  V30 2079 C 191.932 4.99323 -3.77395 0
M  V30 2080 H 192.165 1.82652 -2.34575 0
M  V30 2081 H 189.698 0.852062 -1.2876 0
M  V30 2082 H 191.656 3.96575 -1.06012 0
M  V30 2083 H 190.317 3.13164 -0.242279 0
M  V30 2084 H 189.51 4.5595 -2.1477 0
M  V30 2085 H 189.112 2.84792 -2.42425 0
M  V30 2086 H 191.404 5.87202 -3.37935 0
M  V30 2087 H 192.347 5.23763 -4.76527 0
M  V30 2088 H 192.755 4.71498 -3.10403 0
M  V30 2089 N 192.153 1.28127 0.917671 0
M  V30 2090 C 193.399 1.15223 1.66888 0
M  V30 2091 C 193.732 -0.299293 1.9188 0
M  V30 2092 O 193.007 -1.21805 1.51637 0
M  V30 2093 C 193.29 1.94706 3.02922 0
M  V30 2094 C 193.143 3.47898 2.85109 0
M  V30 2095 C 194.462 1.75939 4.03402 0
M  V30 2096 H 191.581 0.419946 0.605652 0
M  V30 2097 H 194.223 1.57398 1.06423 0
M  V30 2098 H 192.373 1.58864 3.54534 0
M  V30 2099 H 194.045 3.93624 2.40537 0
M  V30 2100 H 192.288 3.7373 2.20246 0
M  V30 2101 H 192.959 3.98765 3.81694 0
M  V30 2102 H 195.435 2.07209 3.60837 0
M  V30 2103 H 194.311 2.33931 4.96556 0
M  V30 2104 H 194.572 0.709877 4.36364 0
M  V30 2105 N 193.631 -1.12557 1.10312 0
M  V30 2106 C 194.561 -2.20341 0.772798 0
M  V30 2107 C 195.542 -1.68198 -0.25365 0
M  V30 2108 O 196.727 -1.93831 -0.119699 0
M  V30 2109 C 193.857 -3.46709 0.202443 0
M  V30 2110 C 192.811 -4.11996 1.15943 0
M  V30 2111 C 192.137 -5.328 0.450345 0
M  V30 2112 C 193.437 -4.5828 2.50552 0
M  V30 2113 H 195.131 -2.48229 1.674 0
M  V30 2114 H 192.677 -1.19308 0.806326 0
M  V30 2115 H 194.63 -4.2138 -0.0407752 0
M  V30 2116 H 193.354 -3.18245 -0.734001 0
M  V30 2117 H 192.013 -3.39305 1.38808 0
M  V30 2118 H 191.661 -5.00602 -0.490531 0
M  V30 2119 H 191.361 -5.7743 1.08851 0
M  V30 2120 H 192.885 -6.10219 0.215642 0
M  V30 2121 H 194.299 -5.2433 2.31843 0
M  V30 2122 H 192.696 -5.13683 3.10242 0
M  V30 2123 H 193.766 -3.72329 3.10643 0
M  V30 2124 N 195.109 -0.891671 -1.2995 0
M  V30 2125 C 196.019 -0.367691 -2.31701 0
M  V30 2126 C 197.035 0.533486 -1.6562 0
M  V30 2127 O 198.211 0.424997 -1.96865 0
M  V30 2128 C 195.276 0.403406 -3.44345 0
M  V30 2129 C 194.337 -0.528328 -4.26037 0
M  V30 2130 C 193.57 0.206063 -5.33302 0
M  V30 2131 O 193.793 1.43119 -5.52153 0
M  V30 2132 O 192.727 -0.447281 -6.00236 0
M  V30 2133 H 196.553 -1.21163 -2.78484 0
M  V30 2134 H 194.138 -0.655725 -1.34241 0
M  V30 2135 H 196.02 0.839753 -4.12948 0
M  V30 2136 H 194.695 1.22354 -2.99685 0
M  V30 2137 H 193.602 -1.01362 -3.60106 0
M  V30 2138 H 194.935 -1.31465 -4.74318 0
M  V30 2139 N 196.587 1.43421 -0.653314 0
M  V30 2140 C 197.52 2.2803 0.0879804 0
M  V30 2141 C 198.498 1.39833 0.82979 0
M  V30 2142 O 199.682 1.69275 0.829341 0
M  V30 2143 C 196.809 3.19247 1.13132 0
M  V30 2144 C 195.855 4.23704 0.487546 0
M  V30 2145 S 196.688 5.30377 -0.738961 0
M  V30 2146 C 197.844 6.25162 0.30384 0
M  V30 2147 H 198.077 2.90554 -0.629739 0
M  V30 2148 H 195.61 1.47934 -0.442156 0
M  V30 2149 H 197.568 3.72346 1.72827 0
M  V30 2150 H 196.229 2.55901 1.82136 0
M  V30 2151 H 195.422 4.87631 1.27407 0
M  V30 2152 H 195.024 3.73983 -0.0352915 0
M  V30 2153 H 197.316 6.67321 1.17 0
M  V30 2154 H 198.259 7.07463 -0.300402 0
M  V30 2155 H 198.667 5.60864 0.63969 0
M  V30 2156 N 198.065 0.39524 1.52563 0
M  V30 2157 C 199.29 -0.187456 2.06551 0
M  V30 2158 C 199.715 -1.39249 1.26457 0
M  V30 2159 O 199.073 -1.78947 0.291151 0
M  V30 2160 C 199.121 -0.529985 3.56684 0
M  V30 2161 O 198.225 -1.62307 3.79118 0
M  V30 2162 H 197.566 -0.0202537 0.663691 0
M  V30 2163 H 200.096 0.564426 1.96661 0
M  V30 2164 H 200.106 -0.792598 4.00227 0
M  V30 2165 H 198.781 0.350987 4.14416 0
M  V30 2166 H 197.358 -1.3537 3.47461 0
M  V30 2167 N 199.544 -1.57102 0.125237 0
M  V30 2168 C 200.474 -2.18659 -0.819174 0
M  V30 2169 C 201.455 -1.12843 -1.27281 0
M  V30 2170 O 202.64 -1.41104 -1.33429 0
M  V30 2171 C 199.77 -2.79096 -2.06695 0
M  V30 2172 C 198.724 -3.90548 -1.75088 0
M  V30 2173 C 198.05 -4.37821 -3.06948 0
M  V30 2174 C 199.35 -5.12356 -1.01435 0
M  V30 2175 H 201.044 -2.9783 -0.306202 0
M  V30 2176 H 198.59 -1.4326 -0.145839 0
M  V30 2177 H 200.543 -3.2082 -2.73226 0
M  V30 2178 H 199.267 -1.97223 -2.60328 0
M  V30 2179 H 197.926 -3.49409 -1.10944 0
M  V30 2180 H 197.574 -3.52799 -3.58527 0
M  V30 2181 H 197.274 -5.12982 -2.86571 0
M  V30 2182 H 198.798 -4.822 -3.74587 0
M  V30 2183 H 200.212 -5.5106 -1.58132 0
M  V30 2184 H 198.609 -5.9314 -0.911319 0
M  V30 2185 H 199.679 -4.849 -0.00218681 0
M  V30 2186 N 201.022 0.148545 -1.56898 0
M  V30 2187 C 201.932 1.20293 -2.01412 0
M  V30 2188 C 202.948 1.47107 -0.929273 0
M  V30 2189 O 204.124 1.58807 -1.23863 0
M  V30 2190 C 201.189 2.51682 -2.38447 0
M  V30 2191 C 200.25 2.32529 -3.60872 0
M  V30 2192 C 199.483 3.57653 -3.96132 0
M  V30 2193 O 199.706 4.63771 -3.32073 0
M  V30 2194 O 198.64 3.50408 -4.89385 0
M  V30 2195 H 202.466 0.855025 -2.91416 0
M  V30 2196 H 200.051 0.357151 -1.45068 0
M  V30 2197 H 201.933 3.29147 -2.63135 0
M  V30 2198 H 200.608 2.86006 -1.51599 0
M  V30 2199 H 199.515 1.53019 -3.41373 0
M  V30 2200 H 200.848 2.03121 -4.48333 0
M  V30 2201 N 202.5 1.5196 0.417844 0
M  V30 2202 C 203.746 1.65836 1.16732 0
M  V30 2203 C 204.079 0.382881 1.90388 0
M  V30 2204 O 203.354 -0.618368 1.84408 0
M  V30 2205 C 203.637 2.87466 2.16876 0
M  V30 2206 C 203.49 4.25041 1.47174 0
M  V30 2207 C 204.809 3.04613 3.17646 0
M  V30 2208 H 201.928 0.603515 0.423011 0
M  V30 2209 H 204.57 1.84494 0.454105 0
M  V30 2210 H 202.72 2.71689 2.777 0
M  V30 2211 H 204.392 4.52527 0.895376 0
M  V30 2212 H 202.635 4.26843 0.773806 0
M  V30 2213 H 203.306 5.06176 2.20204 0
M  V30 2214 H 205.782 3.1923 2.66892 0
M  V30 2215 H 204.658 3.91247 3.8499 0
M  V30 2216 H 204.919 2.17541 3.84874 0
M  V30 2217 N 203.978 -0.674533 1.42435 0
M  V30 2218 C 205.218 -1.4466 1.44405 0
M  V30 2219 C 205.582 -1.91911 0.0585784 0
M  V30 2220 O 206.783 -2.68759 -0.0469991 0
M  V30 2221 C 205.054 -2.61136 2.44013 0
M  V30 2222 S 206.613 -3.49981 2.64687 0
M  V30 2223 H 203.431 -0.494074 0.511284 0
M  V30 2224 H 206.033 -0.785162 1.7904 0
M  V30 2225 H 204.737 -2.24662 3.43446 0
M  V30 2226 H 204.268 -3.32153 2.10803 0
M  V30 2227 H 206.283 -4.57124 1.93007 0
M  V30 2228 N 205.456 -1.28612 -0.910864 0
M  V30 2229 C 206.681 -1.1891 -1.69927 0
M  V30 2230 C 207.106 0.248372 -1.86453 0
M  V30 2231 O 206.464 1.17961 -1.37676 0
M  V30 2232 C 206.512 -1.89578 -3.06745 0
M  V30 2233 O 205.616 -1.20521 -3.94396 0
M  V30 2234 H 204.957 -0.412632 -0.520222 0
M  V30 2235 H 207.487 -1.69985 -1.1387 0
M  V30 2236 H 207.497 -1.97597 -3.56958 0
M  V30 2237 H 206.172 -2.94136 -2.94035 0
M  V30 2238 H 204.749 -1.20684 -3.52831 0
M  V30 2239 N 206.934 1.1197 -1.10907 0
M  V30 2240 C 208.174 1.85224 -0.864378 0
M  V30 2241 C 208.538 1.82411 0.599178 0
M  V30 2242 O 209.739 2.51057 0.960416 0
M  V30 2243 C 208.01 3.2868 -1.40371 0
M  V30 2244 S 209.569 4.1925 -1.29518 0
M  V30 2245 H 206.387 0.63878 -0.312219 0
M  V30 2246 H 208.989 1.3485 -1.41548 0
M  V30 2247 H 207.693 3.28289 -2.46281 0
M  V30 2248 H 207.224 3.84121 -0.849402 0
M  V30 2249 H 209.239 4.95539 -0.256059 0
M  V30 2250 N 208.412 0.89855 1.29475 0
M  V30 2251 C 209.823 0.572537 1.77705 0
M  V30 2252 C 210.174 -0.911778 1.73727 0
M  V30 2253 O 209.299 -1.71288 1.32247 0
M  V30 2254 C 209.894 1.03252 3.22683 0
M  V30 2255 C 208.453 0.757687 3.68695 0
M  V30 2256 C 207.6 1.20787 2.49612 0
M  V30 2257 H 210.551 1.08139 1.16153 0
M  V30 2258 H 210.572 0.367307 3.78723 0
M  V30 2259 H 210.084 2.11285 3.25546 0
M  V30 2260 H 208.185 -0.310079 3.71308 0
M  V30 2261 H 208.298 1.35476 4.59547 0
M  V30 2262 H 206.662 0.626888 2.46865 0
M  V30 2263 H 207.445 2.29622 2.55203 0
M  V30 2264 N 209.89 -1.43072 0.660911 0
M  V30 2265 C 211.167 -1.95307 0.107017 0
M  V30 2266 C 211.547 -1.60192 -1.37484 0
M  V30 2267 O 210.895 -0.890949 -2.10415 0
M  V30 2268 C 211.105 -3.47124 0.361402 0
M  V30 2269 C 212.453 -4.23738 0.270455 0
M  V30 2270 O 213.477 -3.54981 0.294382 0
M  V30 2271 O 212.336 -5.46131 0.200737 0
M  V30 2272 H 209.43 -0.826984 -0.00517729 0
M  V30 2273 H 211.976 -1.52972 0.734681 0
M  V30 2274 H 210.748 -3.65837 1.38848 0
M  V30 2275 H 210.371 -3.96475 -0.298953 0
M  V30 2276 N 211.368 -0.403325 -1.52352 0
M  V30 2277 C 212.298 0.416205 -2.29761 0
M  V30 2278 C 213.279 1.05123 -1.33728 0
M  V30 2279 O 214.464 1.06134 -1.62632 0
M  V30 2280 C 211.594 1.53624 -3.11475 0
M  V30 2281 C 210.548 1.02653 -4.15507 0
M  V30 2282 C 209.874 2.23971 -4.85532 0
M  V30 2283 C 211.174 0.08463 -5.22231 0
M  V30 2284 H 212.868 -0.229701 -2.98518 0
M  V30 2285 H 210.414 -0.111913 -1.43564 0
M  V30 2286 H 212.367 2.1165 -3.64393 0
M  V30 2287 H 211.091 2.20994 -2.40477 0
M  V30 2288 H 209.75 0.46871 -3.63591 0
M  V30 2289 H 209.398 2.89883 -4.11068 0
M  V30 2290 H 209.098 1.90521 -5.55856 0
M  V30 2291 H 210.622 2.82614 -5.41259 0
M  V30 2292 H 212.036 0.573509 -5.70424 0
M  V30 2293 H 210.433 -0.160783 -5.99885 0
M  V30 2294 H 211.503 -0.86237 -4.7717 0
M  V30 2295 N 212.846 1.57033 -0.133567 0
M  V30 2296 C 214.262 1.58035 0.222944 0
M  V30 2297 C 214.462 1.14713 1.6566 0
M  V30 2298 O 213.518 0.841218 2.38075 0
M  V30 2299 C 214.831 3.00691 -0.0236116 0
M  V30 2300 C 216.379 3.12973 0.0411512 0
M  V30 2301 C 216.854 4.57654 -0.177899 0
M  V30 2302 N 218.345 4.63033 -0.124365 0
M  V30 2303 C 219.08 5.72771 -0.268553 0
M  V30 2304 N 218.576 6.91206 -0.46972 0
M  V30 2305 N 220.369 5.61718 -0.2071 0
M  V30 2306 H 212.52 1.8349 -1.06981 0
M  V30 2307 H 214.783 0.848677 -0.422436 0
M  V30 2308 H 214.489 3.36726 -1.0153 0
M  V30 2309 H 214.363 3.70614 0.701808 0
M  V30 2310 H 216.75 2.76787 1.02338 0
M  V30 2311 H 216.831 2.45564 -0.716383 0
M  V30 2312 H 216.475 4.94542 -1.15717 0
M  V30 2313 H 216.405 5.23173 0.599797 0
M  V30 2314 H 218.896 3.7789 0.027011 0
M  V30 2315 H 219.209 7.70693 -0.570212 0
M  V30 2316 H 217.554 6.93156 -0.505876 0
M  V30 2317 H 220.745 4.68072 -0.0507986 0
M  V30 2318 H 220.918 6.47195 -0.322909 0
M  V30 2319 N 214.325 -0.140222 1.56975 0
M  V30 2320 C 215.572 -0.851687 1.83719 0
M  V30 2321 C 215.9 -1.80862 0.715485 0
M  V30 2322 O 215.155 -1.93464 -0.294956 0
M  V30 2323 C 215.454 -1.65386 3.16832 0
M  V30 2324 C 215.12 -0.843112 4.42947 0
M  V30 2325 C 213.782 -0.619464 4.77196 0
M  V30 2326 C 216.134 -0.276582 5.20466 0
M  V30 2327 C 213.462 0.181312 5.8642 0
M  V30 2328 C 215.814 0.51127 6.30531 0
M  V30 2329 C 214.478 0.745432 6.63325 0
M  V30 2330 H 213.748 -0.311654 0.672274 0
M  V30 2331 H 216.395 -0.115006 1.91154 0
M  V30 2332 H 214.7 -2.46084 3.04877 0
M  V30 2333 H 216.397 -2.20793 3.34741 0
M  V30 2334 H 212.987 -1.0275 4.16101 0
M  V30 2335 H 217.171 -0.436632 4.94376 0
M  V30 2336 H 212.427 0.372165 6.10266 0
M  V30 2337 H 216.601 0.957354 6.89788 0
M  V30 2338 H 214.228 1.36778 7.47794 0
M  V30 2339 N 215.803 -1.52179 -0.40978 0
M  V30 2340 C 217.028 -1.70347 -1.18308 0
M  V30 2341 C 217.453 -0.411887 -1.83535 0
M  V30 2342 O 216.811 0.630587 -1.6998 0
M  V30 2343 C 216.859 -2.83977 -2.22238 0
M  V30 2344 O 215.963 -2.495 -3.28365 0
M  V30 2345 H 215.304 -0.567103 -0.345384 0
M  V30 2346 H 217.834 -1.98879 -0.480445 0
M  V30 2347 H 217.844 -3.0887 -2.66577 0
M  V30 2348 H 216.519 -3.77685 -1.74146 0
M  V30 2349 H 215.096 -2.35277 -2.89308 0
M  V30 2350 N 217.281 0.66697 -1.42791 0
M  V30 2351 C 218.214 1.79177 -1.41318 0
M  V30 2352 C 219.192 1.60234 -0.276401 0
M  V30 2353 O 220.376 1.82602 -0.46785 0
M  V30 2354 C 217.503 3.16289 -1.21157 0
M  V30 2355 C 216.549 3.53964 -2.37932 0
M  V30 2356 S 217.382 3.55501 -4.00474 0
M  V30 2357 C 218.538 4.95292 -3.8267 0
M  V30 2358 H 218.771 1.80153 -2.365 0
M  V30 2359 H 216.304 0.838357 -1.29657 0
M  V30 2360 H 218.262 3.95428 -1.10212 0
M  V30 2361 H 216.923 3.1289 -0.275481 0
M  V30 2362 H 216.116 4.53646 -2.19594 0
M  V30 2363 H 215.718 2.82204 -2.45432 0
M  V30 2364 H 218.01 5.83584 -3.44145 0
M  V30 2365 H 218.953 5.18679 -4.82055 0
M  V30 2366 H 219.361 4.68179 -3.15386 0
M  V30 2367 N 218.759 1.29093 0.90403 0
M  V30 2368 C 219.722 1.1386 1.98919 0
M  V30 2369 C 220.722 0.0753457 1.60623 0
M  V30 2370 O 221.912 0.321931 1.71199 0
M  V30 2371 C 219.044 0.740198 3.32767 0
M  V30 2372 H 220.237 2.10246 2.13861 0
M  V30 2373 H 217.79 1.12218 1.08797 0
M  V30 2374 H 218.525 -0.223997 3.23525 0
M  V30 2375 H 218.31 1.50838 3.61926 0
M  V30 2376 H 219.8 0.656546 4.12407 0
M  V30 2377 N 220.237 -1.11381 1.11499 0
M  V30 2378 C 221.167 -2.19509 0.796125 0
M  V30 2379 C 222.148 -1.68458 -0.235796 0
M  V30 2380 O 223.333 -1.93947 -0.0991344 0
M  V30 2381 C 220.463 -3.46475 0.239205 0
M  V30 2382 C 219.417 -4.10744 1.20307 0
M  V30 2383 C 218.743 -5.32293 0.50683 0
M  V30 2384 C 220.043 -4.55597 2.55399 0
M  V30 2385 H 221.737 -2.46439 1.70024 0
M  V30 2386 H 219.283 -1.18446 0.818935 0
M  V30 2387 H 221.236 -4.214 0.00392006 0
M  V30 2388 H 219.96 -3.19006 -0.700206 0
M  V30 2389 H 218.619 -3.37813 1.42399 0
M  V30 2390 H 218.267 -5.01095 -0.437408 0
M  V30 2391 H 217.967 -5.76243 1.1497 0
M  V30 2392 H 219.491 -6.09956 0.280351 0
M  V30 2393 H 220.905 -5.21841 2.37391 0
M  V30 2394 H 219.302 -5.10363 3.15673 0
M  V30 2395 H 220.372 -3.69013 3.14575 0
M  V30 2396 N 221.715 -0.905404 -1.28997 0
M  V30 2397 C 222.955 -0.541232 -1.97104 0
M  V30 2398 C 223.319 0.896841 -1.69767 0
M  V30 2399 O 224.52 1.36817 -2.31375 0
M  V30 2400 C 222.791 -0.832134 -3.47578 0
M  V30 2401 S 224.35 -0.573127 -4.35041 0
M  V30 2402 H 221.168 -0.200576 -0.682122 0
M  V30 2403 H 223.77 -1.16906 -1.56694 0
M  V30 2404 H 222.474 -1.87687 -3.64968 0
M  V30 2405 H 222.005 -0.192636 -3.92928 0
M  V30 2406 H 224.02 0.579297 -4.92807 0
M  V30 2407 N 223.193 1.4272 -0.668489 0
M  V30 2408 C 224.47 1.95248 -0.117373 0
M  V30 2409 C 224.85 1.60919 1.36632 0
M  V30 2410 O 224.198 0.902095 2.09939 0
M  V30 2411 C 224.408 3.46927 -0.379806 0
M  V30 2412 C 225.756 4.23588 -0.292923 0
M  V30 2413 O 226.78 3.5482 -0.313204 0
M  V30 2414 O 225.639 5.46017 -0.229697 0
M  V30 2415 H 222.733 0.827 0.00079152 0
M  V30 2416 H 225.279 1.52581 -0.742783 0
M  V30 2417 H 224.051 3.65096 -1.40786 0
M  V30 2418 H 223.674 3.96627 0.277923 0
M  V30 2419 N 224.671 0.411399 1.52136 0
M  V30 2420 C 225.603 -0.448386 2.24771 0
M  V30 2421 C 226.616 -1.00828 1.27818 0
M  V30 2422 O 227.805 -0.906841 1.53749 0
M  V30 2423 C 224.905 -1.63636 2.96777 0
M  V30 2424 C 224.078 -1.19995 4.20618 0
M  V30 2425 C 223.137 -2.25509 4.75428 0
M  V30 2426 O 222.163 -1.86007 5.3795 0
M  V30 2427 N 223.365 -3.577 4.57199 0
M  V30 2428 H 226.13 0.174025 2.99194 0
M  V30 2429 H 223.691 0.238897 1.60128 0
M  V30 2430 H 225.683 -2.33793 3.30338 0
M  V30 2431 H 224.253 -2.16465 2.25526 0
M  V30 2432 H 223.473 -0.326421 3.92846 0
M  V30 2433 H 224.761 -0.885365 5.01038 0
M  V30 2434 H 224.159 -3.92543 4.07341 0
M  V30 2435 H 222.716 -4.23827 4.95191 0
M  V30 2436 N 226.149 -1.5696 0.141893 0
M  V30 2437 C 227.059 -2.20066 -0.812905 0
M  V30 2438 C 228.075 -1.18344 -1.27557 0
M  V30 2439 O 229.251 -1.50902 -1.33381 0
M  V30 2440 C 226.316 -2.80583 -2.03652 0
M  V30 2441 C 225.377 -3.97414 -1.62359 0
M  V30 2442 C 224.61 -4.55036 -2.78887 0
M  V30 2443 O 224.833 -4.11538 -3.94959 0
M  V30 2444 O 223.767 -5.45376 -2.54653 0
M  V30 2445 H 227.593 -3.02157 -0.305746 0
M  V30 2446 H 225.178 -1.49159 -0.0848799 0
M  V30 2447 H 227.06 -3.19067 -2.75272 0
M  V30 2448 H 225.735 -2.01508 -2.5333 0
M  V30 2449 H 224.642 -3.63656 -0.877775 0
M  V30 2450 H 225.975 -4.77994 -1.17401 0
M  V30 2451 N 227.627 0.131896 -1.57047 0
M  V30 2452 C 228.574 1.16236 -1.99393 0
M  V30 2453 C 229.544 1.41863 -0.863943 0
M  V30 2454 O 230.729 1.53946 -1.12718 0
M  V30 2455 C 227.869 2.48708 -2.39245 0
M  V30 2456 C 226.982 2.30127 -3.65603 0
M  V30 2457 C 226.117 3.55738 -3.94492 0
M  V30 2458 C 225.156 3.32259 -5.14073 0
M  V30 2459 N 224.293 4.50039 -5.38896 0
M  V30 2460 H 229.133 0.794251 -2.87221 0
M  V30 2461 H 226.67 0.380707 -1.42088 0
M  V30 2462 H 228.628 3.25969 -2.60384 0
M  V30 2463 H 227.258 2.83437 -1.54478 0
M  V30 2464 H 226.31 1.43845 -3.52154 0
M  V30 2465 H 227.622 2.08746 -4.5302 0
M  V30 2466 H 226.776 4.41423 -4.1621 0
M  V30 2467 H 225.515 3.80138 -3.05526 0
M  V30 2468 H 224.52 2.44963 -4.92212 0
M  V30 2469 H 225.745 3.09242 -6.04604 0
M  V30 2470 H 223.691 4.74584 -4.52886 0
M  V30 2471 H 223.608 4.31716 -6.2061 0
M  V30 2472 H 224.876 5.36895 -5.65123 0
M  V30 2473 N 229.106 1.52395 0.401703 0
M  V30 2474 C 230.334 1.70676 1.16949 0
M  V30 2475 C 230.749 0.419503 1.8408 0
M  V30 2476 O 230.106 -0.605061 1.72178 0
M  V30 2477 C 230.157 2.84753 2.22706 0
M  V30 2478 O 229.878 4.08495 1.58314 0
M  V30 2479 C 231.379 3.14608 3.12309 0
M  V30 2480 H 228.599 0.571787 0.351142 0
M  V30 2481 H 231.143 1.98987 0.471652 0
M  V30 2482 H 229.298 2.58941 2.88147 0
M  V30 2483 H 229.712 4.72117 2.28485 0
M  V30 2484 H 231.186 3.97923 3.82572 0
M  V30 2485 H 231.663 2.28464 3.75101 0
M  V30 2486 H 232.269 3.42212 2.52529 0
M  V30 2487 N 230.584 -0.659388 1.43143 0
M  V30 2488 C 231.831 -1.41935 1.44433 0
M  V30 2489 C 232.159 -1.94387 0.0663522 0
M  V30 2490 O 231.414 -1.72314 -0.927706 0
M  V30 2491 C 231.713 -2.62206 2.42864 0
M  V30 2492 C 231.379 -2.28208 3.88886 0
M  V30 2493 C 230.041 -2.18647 4.28657 0
M  V30 2494 C 232.393 -2.00887 4.8093 0
M  V30 2495 C 229.721 -1.79914 5.58433 0
M  V30 2496 C 232.073 -1.63653 6.11065 0
M  V30 2497 C 230.737 -1.52614 6.49819 0
M  V30 2498 H 230.007 -0.519376 0.528517 0
M  V30 2499 H 232.654 -0.750453 1.76183 0
M  V30 2500 H 230.959 -3.34199 2.04495 0
M  V30 2501 H 232.656 -3.2041 2.41119 0
M  V30 2502 H 229.246 -2.36557 3.57406 0
M  V30 2503 H 233.43 -2.07198 4.5098 0
M  V30 2504 H 228.686 -1.69948 5.87305 0
M  V30 2505 H 232.86 -1.41543 6.81864 0
M  V30 2506 H 230.487 -1.22371 7.50286 0
M  V30 2507 N 232.062 -1.29571 -0.897171 0
M  V30 2508 C 233.478 -1.07637 -1.17841 0
M  V30 2509 C 233.678 0.170713 -2.00776 0
M  V30 2510 O 232.734 0.867768 -2.3712 0
M  V30 2511 C 234.047 -2.3332 -1.8969 0
M  V30 2512 C 235.595 -2.38664 -2.02505 0
M  V30 2513 C 236.07 -3.64157 -2.77765 0
M  V30 2514 N 237.561 -3.64894 -2.85318 0
M  V30 2515 C 238.296 -4.58679 -3.44094 0
M  V30 2516 N 237.792 -5.62799 -4.04017 0
M  V30 2517 N 239.585 -4.46245 -3.41793 0
M  V30 2518 H 231.736 -2.09598 -0.343883 0
M  V30 2519 H 233.999 -0.923333 -0.214848 0
M  V30 2520 H 233.705 -3.24262 -1.36187 0
M  V30 2521 H 233.579 -2.41025 -2.9015 0
M  V30 2522 H 235.966 -1.48208 -2.55183 0
M  V30 2523 H 236.047 -2.34943 -1.01171 0
M  V30 2524 H 235.691 -4.54965 -2.25763 0
M  V30 2525 H 235.621 -3.65137 -3.7945 0
M  V30 2526 H 238.112 -2.89613 -2.42761 0
M  V30 2527 H 238.425 -6.3048 -4.46895 0
M  V30 2528 H 236.77 -5.66605 -4.02472 0
M  V30 2529 H 239.961 -3.64094 -2.94199 0
M  V30 2530 H 240.134 -5.19518 -3.87304 0
M  V30 2531 N 233.54 1.10788 -1.12088 0
M  V30 2532 C 234.472 2.16816 -0.743213 0
M  V30 2533 C 235.485 1.6119 0.228412 0
M  V30 2534 O 236.674 1.78497 0.0102931 0
M  V30 2535 C 233.774 3.38809 -0.0787313 0
M  V30 2536 C 232.947 4.23885 -1.0789 0
M  V30 2537 C 232.006 5.24334 -0.442713 0
M  V30 2538 O 231.032 5.58497 -1.09864 0
M  V30 2539 N 232.234 5.75079 0.791457 0
M  V30 2540 H 234.999 2.49825 -1.65552 0
M  V30 2541 H 232.56 1.26373 -1.012 0
M  V30 2542 H 234.552 4.03107 0.358766 0
M  V30 2543 H 233.122 3.03805 0.736275 0
M  V30 2544 H 232.342 3.55939 -1.69414 0
M  V30 2545 H 233.63 4.77562 -1.75533 0
M  V30 2546 H 233.028 5.49517 1.3434 0
M  V30 2547 H 231.585 6.4118 1.17183 0
M  V30 2548 N 235.018 0.912232 1.28515 0
M  V30 2549 C 235.95 0.35676 2.26406 0
M  V30 2550 C 236.963 -0.503933 1.54804 0
M  V30 2551 O 238.152 -0.319059 1.75625 0
M  V30 2552 C 235.252 -0.508825 3.35058 0
M  V30 2553 C 234.425 0.329007 4.36161 0
M  V30 2554 C 233.484 -0.471422 5.24084 0
M  V30 2555 O 232.51 0.115482 5.69083 0
M  V30 2556 N 233.712 -1.77479 5.52704 0
M  V30 2557 H 236.477 1.19818 2.74707 0
M  V30 2558 H 234.038 0.778022 1.4198 0
M  V30 2559 H 236.03 -1.051 3.90815 0
M  V30 2560 H 234.6 -1.25095 2.86478 0
M  V30 2561 H 233.82 1.05256 3.79888 0
M  V30 2562 H 235.108 0.90234 5.00735 0
M  V30 2563 H 234.506 -2.27417 5.17975 0
M  V30 2564 H 233.063 -2.26382 6.11224 0
M  V30 2565 N 236.496 -1.42363 0.676048 0
M  V30 2566 C 237.912 -1.55811 0.345718 0
M  V30 2567 C 238.112 -1.65544 -1.14879 0
M  V30 2568 O 237.168 -1.62306 -1.93424 0
M  V30 2569 C 238.481 -2.80746 1.07713 0
M  V30 2570 C 240.029 -2.9452 1.05958 0
M  V30 2571 C 240.504 -4.22318 1.77233 0
M  V30 2572 N 241.995 -4.29233 1.74108 0
M  V30 2573 C 242.73 -5.26935 2.26113 0
M  V30 2574 N 242.226 -6.30783 2.86505 0
M  V30 2575 N 244.019 -5.18741 2.1648 0
M  V30 2576 H 236.17 -1.34289 1.6456 0
M  V30 2577 H 238.433 -0.646506 0.69335 0
M  V30 2578 H 238.139 -2.79696 2.13221 0
M  V30 2579 H 238.013 -3.71676 0.64316 0
M  V30 2580 H 240.4 -2.95097 0.0128255 0
M  V30 2581 H 240.481 -2.04817 1.53244 0
M  V30 2582 H 240.125 -4.22502 2.81877 0
M  V30 2583 H 240.055 -5.10958 1.27396 0
M  V30 2584 H 242.546 -3.54814 1.30059 0
M  V30 2585 H 242.859 -7.01691 3.23805 0
M  V30 2586 H 241.204 -6.31341 2.90575 0
M  V30 2587 H 244.395 -4.36533 1.68987 0
M  V30 2588 H 244.568 -5.94721 2.57316 0
M  V30 2589 N 237.974 -0.419461 -1.51915 0
M  V30 2590 C 238.921 0.400927 -2.27291 0
M  V30 2591 C 239.891 1.03224 -1.30131 0
M  V30 2592 O 241.076 1.05455 -1.59009 0
M  V30 2593 C 238.216 1.50603 -3.10504 0
M  V30 2594 C 237.329 0.89462 -4.22635 0
M  V30 2595 C 236.464 1.97328 -4.93189 0
M  V30 2596 C 235.503 1.33935 -5.97267 0
M  V30 2597 N 234.64 2.3586 -6.61298 0
M  V30 2598 H 239.48 -0.248251 -2.96964 0
M  V30 2599 H 237.017 -0.134266 -1.46486 0
M  V30 2600 H 238.975 2.15783 -3.57062 0
M  V30 2601 H 237.605 2.12509 -2.42981 0
M  V30 2602 H 236.657 0.131583 -3.80172 0
M  V30 2603 H 237.969 0.391641 -4.9726 0
M  V30 2604 H 237.123 2.70211 -5.43204 0
M  V30 2605 H 235.862 2.50994 -4.18155 0
M  V30 2606 H 234.867 0.595896 -5.46561 0
M  V30 2607 H 236.092 0.810252 -6.74249 0
M  V30 2608 H 234.038 2.88639 -5.89087 0
M  V30 2609 H 233.955 1.90403 -7.3163 0
M  V30 2610 H 235.223 3.08282 -7.15949 0
M  V30 2611 N 239.452 1.56882 -0.150215 0
M  V30 2612 C 240.362 2.20494 0.801222 0
M  V30 2613 C 241.378 1.19019 1.26927 0
M  V30 2614 O 242.554 1.51607 1.32579 0
M  V30 2615 C 239.619 2.81659 2.02161 0
M  V30 2616 C 238.68 3.9827 1.60249 0
M  V30 2617 C 237.913 4.56508 2.7647 0
M  V30 2618 O 238.136 4.13627 3.92771 0
M  V30 2619 O 237.07 5.46719 2.51757 0
M  V30 2620 H 240.896 3.02315 0.289717 0
M  V30 2621 H 238.481 1.49202 0.0769684 0
M  V30 2622 H 240.363 3.20522 2.73576 0
M  V30 2623 H 239.038 2.02849 2.52258 0
M  V30 2624 H 237.945 3.64117 0.858477 0
M  V30 2625 H 239.278 4.78609 1.14864 0
M  V30 2626 N 240.93 -0.123565 1.57115 0
M  V30 2627 C 241.88 -1.1575 1.96433 0
M  V30 2628 C 242.864 -1.37313 0.838686 0
M  V30 2629 O 244.056 -1.38482 1.10235 0
M  V30 2630 C 241.185 -2.48526 2.36833 0
M  V30 2631 C 240.271 -2.30457 3.5602 0
M  V30 2632 N 240.662 -1.8219 4.71848 0
M  V30 2633 C 238.96 -2.61129 3.61563 0
M  V30 2634 C 239.661 -1.77721 5.53886 0
M  V30 2635 N 238.637 -2.21899 4.96248 0
M  V30 2636 H 242.439 -0.776797 2.83449 0
M  V30 2637 H 239.953 -0.331364 1.58983 0
M  V30 2638 H 241.95 -3.233 2.63216 0
M  V30 2639 H 240.61 -2.87358 1.5118 0
M  V30 2640 H 241.621 -1.51805 4.95152 0
M  V30 2641 H 238.298 -3.03678 2.86507 0
M  V30 2642 H 239.688 -1.41697 6.56789 0
M  V30 2643 N 242.408 -1.52605 -0.393616 0
M  V30 2644 C 243.657 -1.66649 -1.13627 0
M  V30 2645 C 243.97 -0.410364 -1.91247 0
M  V30 2646 O 245.176 -0.430854 -2.68059 0
M  V30 2647 C 243.632 -2.9449 -2.06891 0
M  V30 2648 C 243.24 -4.27266 -1.34714 0
M  V30 2649 C 244.984 -3.17899 -2.81319 0
M  V30 2650 C 242.891 -5.46217 -2.26717 0
M  V30 2651 H 241.821 -0.62084 -0.427871 0
M  V30 2652 H 244.472 -1.791 -0.399428 0
M  V30 2653 H 242.854 -2.75774 -2.84191 0
M  V30 2654 H 244.028 -4.56518 -0.626714 0
M  V30 2655 H 242.343 -4.10081 -0.722643 0
M  V30 2656 H 244.94 -4.03949 -3.50328 0
M  V30 2657 H 245.283 -2.32777 -3.45139 0
M  V30 2658 H 245.816 -3.37159 -2.11113 0
M  V30 2659 H 242.555 -6.33733 -1.67521 0
M  V30 2660 H 242.075 -5.21283 -2.96689 0
M  V30 2661 H 243.754 -5.7991 -2.86903 0
M  V30 2662 N 243.887 0.651787 -1.4349 0
M  V30 2663 C 245.303 0.96762 -1.26922 0
M  V30 2664 C 245.503 2.00602 -0.189982 0
M  V30 2665 O 244.559 2.48793 0.431107 0
M  V30 2666 C 245.872 1.45052 -2.63401 0
M  V30 2667 C 247.42 1.5671 -2.70945 0
M  V30 2668 C 247.895 2.0839 -4.07845 0
M  V30 2669 N 249.386 2.1569 -4.09917 0
M  V30 2670 C 250.121 2.56804 -5.12679 0
M  V30 2671 N 249.617 2.97203 -6.25813 0
M  V30 2672 N 251.41 2.56756 -5.00033 0
M  V30 2673 H 243.561 -0.0353158 -2.12371 0
M  V30 2674 H 245.824 0.0467858 -0.946845 0
M  V30 2675 H 245.53 0.761926 -3.43348 0
M  V30 2676 H 245.404 2.42529 -2.88894 0
M  V30 2677 H 247.791 2.2467 -1.9133 0
M  V30 2678 H 247.872 0.57662 -2.49216 0
M  V30 2679 H 247.516 1.41031 -4.87927 0
M  V30 2680 H 247.446 3.08271 -4.26938 0
M  V30 2681 H 249.937 1.87237 -3.28254 0
M  V30 2682 H 250.25 3.27328 -7.00055 0
M  V30 2683 H 248.595 2.95004 -6.29283 0
M  V30 2684 H 251.786 2.24572 -4.10713 0
M  V30 2685 H 251.959 2.88475 -5.80247 0
M  V30 2686 N 245.365 1.30045 0.890287 0
M  V30 2687 C 246.275 1.17885 2.02831 0
M  V30 2688 C 247.291 0.0999609 1.73713 0
M  V30 2689 O 248.467 0.313867 1.98939 0
M  V30 2690 C 245.532 0.866079 3.35708 0
M  V30 2691 C 244.593 2.02979 3.78283 0
M  V30 2692 C 243.826 1.73184 5.0482 0
M  V30 2693 O 244.049 0.657237 5.66601 0
M  V30 2694 O 242.983 2.58267 5.43674 0
M  V30 2695 H 246.809 2.13474 2.16015 0
M  V30 2696 H 244.394 1.09587 1.01543 0
M  V30 2697 H 246.276 0.706623 4.15433 0
M  V30 2698 H 244.951 -0.0599443 3.23644 0
M  V30 2699 H 243.858 2.24454 2.99285 0
M  V30 2700 H 245.191 2.93734 3.94944 0
M  V30 2701 N 246.843 -1.10192 1.12674 0
M  V30 2702 C 248.068 -1.86523 0.906853 0
M  V30 2703 C 248.493 -1.80221 -0.538711 0
M  V30 2704 O 247.851 -1.17396 -1.38158 0
M  V30 2705 C 247.899 -3.32758 1.3894 0
M  V30 2706 O 247.003 -4.08449 0.5695 0
M  V30 2707 H 246.344 -0.578678 0.325619 0
M  V30 2708 H 248.874 -1.39203 1.49946 0
M  V30 2709 H 248.884 -3.83608 1.38958 0
M  V30 2710 H 247.559 -3.36661 2.44197 0
M  V30 2711 H 246.136 -3.67427 0.636528 0
M  V30 2712 N 248.321 -0.919034 -1.28029 0
M  V30 2713 C 249.254 -0.355887 -2.25408 0
M  V30 2714 C 250.232 0.542874 -1.5327 0
M  V30 2715 O 251.416 0.485338 -1.82145 0
M  V30 2716 C 248.543 0.490759 -3.35126 0
M  V30 2717 C 247.589 -0.343358 -4.25116 0
M  V30 2718 S 248.422 -1.75344 -5.05979 0
M  V30 2719 C 249.578 -0.914244 -6.19187 0
M  V30 2720 H 249.811 -1.18123 -2.72826 0
M  V30 2721 H 247.344 -0.720636 -1.36551 0
M  V30 2722 H 249.302 0.973404 -3.98792 0
M  V30 2723 H 247.963 1.29054 -2.86363 0
M  V30 2724 H 247.156 0.304266 -5.03081 0
M  V30 2725 H 246.758 -0.759851 -3.662 0
M  V30 2726 H 249.05 -0.146282 -6.77342 0
M  V30 2727 H 249.993 -1.66661 -6.88208 0
M  V30 2728 H 250.401 -0.460082 -5.62622 0
M  V30 2729 N 249.799 1.42003 -0.683588 0
M  V30 2730 C 250.746 2.30798 -0.0107309 0
M  V30 2731 C 251.716 1.4645 0.783688 0
M  V30 2732 O 252.901 1.75263 0.754156 0
M  V30 2733 C 250.041 3.3238 0.928306 0
M  V30 2734 C 249.154 4.31814 0.126776 0
M  V30 2735 C 248.289 5.20468 1.06236 0
M  V30 2736 C 247.328 6.11577 0.253035 0
M  V30 2737 N 246.465 6.92754 1.14179 0
M  V30 2738 H 251.305 2.8778 -0.773727 0
M  V30 2739 H 248.842 1.41745 -0.393283 0
M  V30 2740 H 250.8 3.89813 1.48666 0
M  V30 2741 H 249.43 2.76976 1.65783 0
M  V30 2742 H 248.482 3.76427 -0.54833 0
M  V30 2743 H 249.794 4.96276 -0.501192 0
M  V30 2744 H 248.948 5.82677 1.69035 0
M  V30 2745 H 247.687 4.56204 1.7242 0
M  V30 2746 H 246.692 5.48428 -0.388108 0
M  V30 2747 H 247.917 6.77892 -0.404839 0
M  V30 2748 H 245.863 6.3111 1.78987 0
M  V30 2749 H 245.78 7.53855 0.569111 0
M  V30 2750 H 247.048 7.59441 1.75697 0
M  V30 2751 N 251.277 0.427512 1.51691 0
M  V30 2752 C 252.224 -0.388867 2.275 0
M  V30 2753 C 253.194 -1.02532 1.30677 0
M  V30 2754 O 254.379 -1.0461 1.59566 0
M  V30 2755 C 251.519 -1.48954 3.11298 0
M  V30 2756 C 250.632 -0.872194 4.23104 0
M  V30 2757 C 249.767 -1.94709 4.94228 0
M  V30 2758 C 248.806 -1.30766 5.97969 0
M  V30 2759 N 247.943 -2.32349 6.62539 0
M  V30 2760 H 252.783 0.263997 2.96828 0
M  V30 2761 H 250.32 0.142033 1.46413 0
M  V30 2762 H 252.278 -2.13887 3.58201 0
M  V30 2763 H 250.908 -2.11217 2.44105 0
M  V30 2764 H 249.96 -0.111419 3.80237 0
M  V30 2765 H 251.272 -0.365264 4.97461 0
M  V30 2766 H 250.426 -2.67327 5.44629 0
M  V30 2767 H 249.165 -2.48773 4.1948 0
M  V30 2768 H 248.17 -0.566902 5.4687 0
M  V30 2769 H 249.395 -0.774483 6.74669 0
M  V30 2770 H 247.341 -2.85511 5.90609 0
M  V30 2771 H 247.258 -1.8652 7.3263 0
M  V30 2772 H 248.526 -3.04481 7.17574 0
M  V30 2773 N 252.755 -1.56801 0.158532 0
M  V30 2774 C 253.685 -2.20347 -0.772609 0
M  V30 2775 C 254.666 -1.15518 -1.24859 0
M  V30 2776 O 255.851 -1.43902 -1.30406 0
M  V30 2777 C 252.981 -2.83417 -2.00729 0
M  V30 2778 C 251.935 -3.94174 -1.66765 0
M  V30 2779 C 251.261 -4.44233 -2.97592 0
M  V30 2780 C 252.561 -5.14392 -0.905447 0
M  V30 2781 H 254.255 -2.98413 -0.242959 0
M  V30 2782 H 251.801 -1.43537 -0.115419 0
M  V30 2783 H 253.754 -3.26543 -2.6636 0
M  V30 2784 H 252.478 -2.02701 -2.56086 0
M  V30 2785 H 251.137 -3.51684 -1.03508 0
M  V30 2786 H 250.785 -3.60325 -3.50963 0
M  V30 2787 H 250.485 -5.18945 -2.75626 0
M  V30 2788 H 252.009 -4.90037 -3.64274 0
M  V30 2789 H 253.423 -5.5429 -1.46408 0
M  V30 2790 H 251.82 -5.9494 -0.7853 0
M  V30 2791 H 252.89 -4.84795 0.100668 0
M  V30 2792 N 254.233 0.115231 -1.57178 0
M  V30 2793 C 255.163 1.1423 -2.03651 0
M  V30 2794 C 256.144 1.42967 -0.921655 0
M  V30 2795 O 257.329 1.53343 -1.19162 0
M  V30 2796 C 254.459 2.4675 -2.44401 0
M  V30 2797 C 253.413 2.32467 -3.59365 0
M  V30 2798 C 252.739 3.69984 -3.86026 0
M  V30 2799 C 254.039 1.78203 -4.90959 0
M  V30 2800 H 255.733 0.755749 -2.89705 0
M  V30 2801 H 253.279 0.362093 -1.39373 0
M  V30 2802 H 255.232 3.18854 -2.75517 0
M  V30 2803 H 253.956 2.87302 -1.55322 0
M  V30 2804 H 252.615 1.62811 -3.28463 0
M  V30 2805 H 252.263 4.08028 -2.94147 0
M  V30 2806 H 251.963 3.61279 -4.63412 0
M  V30 2807 H 253.487 4.43587 -4.19599 0
M  V30 2808 H 254.901 2.40128 -5.20587 0
M  V30 2809 H 253.298 1.8031 -5.72371 0
M  V30 2810 H 254.368 0.739876 -4.79222 0
M  V30 2811 N 255.711 1.52812 0.385517 0
M  V30 2812 C 256.959 1.67694 1.12797 0
M  V30 2813 C 257.28 0.421115 1.90399 0
M  V30 2814 O 256.55 -0.564551 1.87589 0
M  V30 2815 H 255.13 0.618155 0.419396 0
M  V30 2816 H 257.792 1.89938 0.436972 0
M  V30 2817 H 256.888 2.52896 1.82894 0
M  V30 2818 N 257.189 -0.644168 1.43834 0
M  V30 2819 C 258.6 -1.22554 1.40845 0
M  V30 2820 C 258.951 -1.9585 0.117115 0
M  V30 2821 O 258.076 -2.01734 -0.783086 0
M  V30 2822 C 258.671 -2.22907 2.55143 0
M  V30 2823 C 257.23 -2.76501 2.5539 0
M  V30 2824 C 256.377 -1.51287 2.32396 0
M  V30 2825 H 259.328 -0.43563 1.52604 0
M  V30 2826 H 259.349 -3.05259 2.2715 0
M  V30 2827 H 258.861 -1.69533 3.49114 0
M  V30 2828 H 256.962 -3.33914 1.65324 0
M  V30 2829 H 257.075 -3.23429 3.53455 0
M  V30 2830 H 255.439 -1.78957 1.81236 0
M  V30 2831 H 256.222 -0.998336 3.28463 0
M  V30 2832 N 258.668 -1.30515 -0.883378 0
M  V30 2833 C 259.615 -1.17032 -1.98927 0
M  V30 2834 C 260.585 -0.0594241 -1.65994 0
M  V30 2835 O 261.77 -0.229895 -1.8941 0
M  V30 2836 C 258.91 -0.869777 -3.33959 0
M  V30 2837 C 258.023 -2.06271 -3.79574 0
M  V30 2838 C 257.158 -1.70011 -5.03259 0
M  V30 2839 C 256.197 -2.8579 -5.41286 0
M  V30 2840 N 255.334 -2.49816 -6.56153 0
M  V30 2841 H 260.174 -2.1164 -2.09792 0
M  V30 2842 H 257.711 -1.05296 -1.02719 0
M  V30 2843 H 259.669 -0.676138 -4.11685 0
M  V30 2844 H 258.299 0.0394332 -3.22776 0
M  V30 2845 H 257.351 -2.36755 -2.97744 0
M  V30 2846 H 258.663 -2.92971 -4.03694 0
M  V30 2847 H 257.817 -1.47032 -5.88614 0
M  V30 2848 H 256.556 -0.804829 -4.81013 0
M  V30 2849 H 255.561 -3.09434 -4.54456 0
M  V30 2850 H 256.786 -3.76008 -5.65504 0
M  V30 2851 H 254.732 -1.62795 -6.35479 0
M  V30 2852 H 254.649 -3.30048 -6.8015 0
M  V30 2853 H 255.917 -2.30197 -7.44735 0
M  V30 2854 N 260.146 1.09593 -1.13257 0
M  V30 2855 C 261.094 2.18271 -0.803783 0
M  V30 2856 C 262.088 1.68054 0.213148 0
M  V30 2857 O 263.294 1.79862 0.0704699 0
M  V30 2858 H 259.669 0.711949 -0.242143 0
M  V30 2859 H 261.64 2.43235 -1.72856 0
M  V30 2860 C 260.389 3.46536 -0.28424 0
M  V30 2861 H 259.712 3.85545 -1.05807 0
M  V30 2862 H 261.152 4.23899 -0.0925945 0
M  V30 2863 C 259.611 3.22036 0.989684 0
M  V30 2864 O 260.141 3.44509 2.06584 0
M  V30 2865 N 258.347 2.7565 0.920086 0
M  V30 2866 H 257.894 2.57562 0.0442019 0
M  V30 2867 H 257.852 2.59635 1.77306 0
M  V30 2868 N 261.624 0.925811 1.2754 0
M  V30 2869 C 262.849 0.580924 1.99098 0
M  V30 2870 C 263.274 -0.833555 1.68622 0
M  V30 2871 O 262.632 -1.55903 0.925422 0
M  V30 2872 C 262.68 0.811186 3.51358 0
M  V30 2873 O 261.784 -0.124129 4.12213 0
M  V30 2874 H 261.125 0.223873 0.625122 0
M  V30 2875 H 263.655 1.24455 1.62395 0
M  V30 2876 H 263.665 0.72601 4.01489 0
M  V30 2877 H 262.34 1.84227 3.72872 0
M  V30 2878 H 260.917 0.0108006 3.72898 0
M  V30 2879 N 263.102 -1.41638 0.69111 0
M  V30 2880 C 264.012 -2.34588 0.0233487 0
M  V30 2881 C 265.028 -1.55987 -0.770984 0
M  V30 2882 O 266.204 -1.88486 -0.709569 0
M  V30 2883 C 263.269 -3.34684 -0.904851 0
M  V30 2884 C 262.33 -4.29176 -0.103225 0
M  V30 2885 C 261.563 -5.2449 -0.987216 0
M  V30 2886 O 261.786 -5.2514 -2.22674 0
M  V30 2887 O 260.72 -6.00295 -0.439281 0
M  V30 2888 H 264.546 -2.93261 0.789416 0
M  V30 2889 H 262.131 -1.42417 0.45142 0
M  V30 2890 H 264.013 -3.96133 -1.43724 0
M  V30 2891 H 262.688 -2.78461 -1.65049 0
M  V30 2892 H 261.595 -3.71089 0.473655 0
M  V30 2893 H 262.928 -4.88484 0.60365 0
M  V30 2894 N 264.58 -0.43555 -1.51462 0
M  V30 2895 C 265.828 0.131254 -2.01673 0
M  V30 2896 C 266.149 1.43368 -1.32177 0
M  V30 2897 O 265.419 1.90524 -0.455769 0
M  V30 2898 H 263.999 0.0514954 -0.745223 0
M  V30 2899 H 266.661 -0.577847 -1.86137 0
M  V30 2900 H 265.757 0.308446 -3.10572 0
M  V30 2901 N 266.058 1.56714 -0.166846 0
M  V30 2902 C 266.988 2.20754 0.760913 0
M  V30 2903 C 267.969 1.16178 1.24244 0
M  V30 2904 O 269.154 1.44592 1.29641 0
M  V30 2905 C 266.284 2.84478 1.99223 0
M  V30 2906 C 265.238 3.95053 1.64672 0
M  V30 2907 C 264.564 4.45805 2.95232 0
M  V30 2908 C 265.864 5.14865 0.878155 0
M  V30 2909 H 267.558 2.98537 0.22713 0
M  V30 2910 H 265.104 1.43596 0.107805 0
M  V30 2911 H 267.057 3.27951 2.64624 0
M  V30 2912 H 265.781 2.04056 2.55007 0
M  V30 2913 H 264.44 3.52228 1.01641 0
M  V30 2914 H 264.088 3.62181 3.49047 0
M  V30 2915 H 263.788 5.204 2.7287 0
M  V30 2916 H 265.312 4.91962 3.6167 0
M  V30 2917 H 266.726 5.55059 1.43466 0
M  V30 2918 H 265.123 5.95348 0.753738 0
M  V30 2919 H 266.193 4.84735 -0.126377 0
M  V30 2920 N 267.536 -0.106894 1.57237 0
M  V30 2921 C 268.486 -1.1366 1.9765 0
M  V30 2922 C 269.47 -1.36416 0.853203 0
M  V30 2923 O 270.662 -1.37305 1.11697 0
M  V30 2924 C 267.791 -2.46 2.39455 0
M  V30 2925 C 266.877 -2.26668 3.58445 0
M  V30 2926 N 267.268 -1.77176 4.73754 0
M  V30 2927 C 265.566 -2.57279 3.64312 0
M  V30 2928 C 266.267 -1.71836 5.5574 0
M  V30 2929 N 265.243 -2.16623 4.98573 0
M  V30 2930 H 269.045 -0.74669 2.84256 0
M  V30 2931 H 266.559 -0.314483 1.59326 0
M  V30 2932 H 268.556 -3.2049 2.6663 0
M  V30 2933 H 267.216 -2.85738 1.54219 0
M  V30 2934 H 268.227 -1.46545 4.96734 0
M  V30 2935 H 264.904 -3.00622 2.89711 0
M  V30 2936 H 266.294 -1.34723 6.58255 0
M  V30 2937 N 269.014 -1.53014 -0.377408 0
M  V30 2938 C 270.239 -1.72818 -1.14668 0
M  V30 2939 C 270.664 -0.450725 -1.8262 0
M  V30 2940 O 270.022 0.59439 -1.7128 0
M  V30 2941 C 270.07 -2.88627 -2.16164 0
M  V30 2942 O 269.174 -2.56409 -3.22998 0
M  V30 2943 H 268.515 -0.574301 -0.333278 0
M  V30 2944 H 271.045 -1.99853 -0.438152 0
M  V30 2945 H 271.055 -3.14455 -2.59966 0
M  V30 2946 H 269.73 -3.81294 -1.66095 0
M  V30 2947 H 268.307 -2.4136 -2.84253 0
M  V30 2948 N 270.492 0.636531 -1.44174 0
M  V30 2949 C 271.455 1.73063 -1.50273 0
M  V30 2950 C 272.455 1.56113 -0.385397 0
M  V30 2951 O 273.645 1.61707 -0.64781 0
M  V30 2952 C 270.777 3.12096 -1.37145 0
M  V30 2953 H 271.97 1.69031 -2.47727 0
M  V30 2954 H 269.523 0.849706 -1.31186 0
M  V30 2955 H 270.258 3.21728 -0.407636 0
M  V30 2956 H 270.043 3.25805 -2.18159 0
M  V30 2957 H 271.533 3.91846 -1.44382 0
M  V30 2958 N 271.97 1.30982 0.876444 0
M  V30 2959 C 273.386 1.09498 1.16113 0
M  V30 2960 C 273.586 -0.13875 2.01022 0
M  V30 2961 O 272.642 -0.829935 2.38471 0
M  V30 2962 C 273.955 2.36308 1.85954 0
M  V30 2963 C 275.503 2.41856 1.98683 0
M  V30 2964 C 275.978 3.6853 2.71937 0
M  V30 2965 N 277.469 3.69387 2.79477 0
M  V30 2966 C 278.204 4.64096 3.36753 0
M  V30 2967 N 277.7 5.69155 3.95012 0
M  V30 2968 N 279.493 4.51626 3.3465 0
M  V30 2969 H 271.644 2.10118 0.310494 0
M  V30 2970 H 273.907 0.926634 0.200131 0
M  V30 2971 H 273.613 3.26388 1.31011 0
M  V30 2972 H 273.487 2.4561 2.86278 0
M  V30 2973 H 275.874 1.52249 2.52793 0
M  V30 2974 H 275.955 2.36523 0.9742 0
M  V30 2975 H 275.599 4.58499 2.18496 0
M  V30 2976 H 275.529 3.71127 3.73593 0
M  V30 2977 H 278.02 2.93438 2.38123 0
M  V30 2978 H 278.333 6.3751 4.36808 0
M  V30 2979 H 276.678 5.72937 3.93406 0
M  V30 2980 H 279.869 3.68728 2.8837 0
M  V30 2981 H 280.042 5.25614 3.7899 0
M  V30 2982 N 273.449 -1.08991 1.13837 0
M  V30 2983 C 274.726 -1.77863 0.813876 0
M  V30 2984 C 275.106 -1.99375 -0.693746 0
M  V30 2985 O 274.454 -1.59875 -1.63255 0
M  V30 2986 C 274.664 -3.0986 1.60586 0
M  V30 2987 C 276.012 -3.84493 1.8014 0
M  V30 2988 O 277.036 -3.19624 1.57222 0
M  V30 2989 O 275.895 -5.00957 2.18413 0
M  V30 2990 H 272.989 -0.771589 0.297624 0
M  V30 2991 H 275.535 -1.15507 1.24323 0
M  V30 2992 H 274.307 -2.89715 2.63022 0
M  V30 2993 H 273.93 -3.79942 1.17173 0
M  V30 2994 N 274.927 -0.932562 -1.27047 0
M  V30 2995 C 276.173 -0.576412 -1.94436 0
M  V30 2996 C 276.506 0.880891 -1.73072 0
M  V30 2997 O 275.781 1.62905 -1.06264 0
M  V30 2998 C 276.064 -0.909031 -3.48437 0
M  V30 2999 C 275.917 -2.42044 -3.79123 0
M  V30 3000 C 277.236 -0.418341 -4.38107 0
M  V30 3001 H 274.355 -0.210888 -0.706184 0
M  V30 3002 H 276.997 -1.16522 -1.50075 0
M  V30 3003 H 275.147 -0.407947 -3.86352 0
M  V30 3004 H 276.819 -2.99359 -3.50973 0
M  V30 3005 H 275.062 -2.86758 -3.25503 0
M  V30 3006 H 275.733 -2.6037 -4.86736 0
M  V30 3007 H 278.209 -0.847856 -4.0737 0
M  V30 3008 H 277.085 -0.679981 -5.44672 0
M  V30 3009 H 277.346 0.681642 -4.36814 0
M  V30 3010 N 276.405 1.4127 -0.698611 0
M  V30 3011 C 277.816 1.84187 -0.305289 0
M  V30 3012 C 278.167 1.58449 1.15708 0
M  V30 3013 O 277.292 1.05651 1.88856 0
M  V30 3014 C 277.887 3.3435 -0.547314 0
M  V30 3015 C 276.446 3.75826 -0.207878 0
M  V30 3016 C 275.593 2.64647 -0.828099 0
M  V30 3017 H 278.544 1.30778 -0.89904 0
M  V30 3018 H 278.565 3.8001 0.192998 0
M  V30 3019 H 278.077 3.53051 -1.61172 0
M  V30 3020 H 276.178 3.62725 0.852143 0
M  V30 3021 H 276.291 4.74462 -0.665021 0
M  V30 3022 H 274.655 2.53395 -0.257458 0
M  V30 3023 H 275.438 2.86165 -1.89643 0
M  V30 3024 N 277.883 0.443576 1.51229 0
M  V30 3025 C 279.129 -0.120975 2.02439 0
M  V30 3026 C 279.462 -1.41815 1.32674 0
M  V30 3027 O 278.737 -1.89373 0.443622 0
M  V30 3028 C 279.02 -0.333291 3.58554 0
M  V30 3029 C 278.873 0.982968 4.38928 0
M  V30 3030 C 280.192 -1.10028 4.26124 0
M  V30 3031 H 277.311 -0.0424923 0.735774 0
M  V30 3032 H 279.953 0.583794 1.80809 0
M  V30 3033 H 278.103 -0.933614 3.77115 0
M  V30 3034 H 279.775 1.61775 4.32003 0
M  V30 3035 H 278.018 1.58611 4.03763 0
M  V30 3036 H 278.689 0.788379 5.46341 0
M  V30 3037 H 281.165 -0.591711 4.11871 0
M  V30 3038 H 280.041 -1.21761 5.35225 0
M  V30 3039 H 280.302 -2.12996 3.87408 0
M  V30 3040 N 279.361 -1.56624 0.175154 0
M  V30 3041 C 280.607 -1.9729 -0.469506 0
M  V30 3042 C 280.94 -1.06128 -1.62636 0
M  V30 3043 O 280.215 -0.109183 -1.94193 0
M  V30 3044 C 280.498 -3.47375 -0.948804 0
M  V30 3045 C 280.351 -4.49317 0.208491 0
M  V30 3046 C 281.67 -4.00652 -1.82116 0
M  V30 3047 H 278.789 -0.717317 -0.16919 0
M  V30 3048 H 281.431 -1.88184 0.262062 0
M  V30 3049 H 279.581 -3.55267 -1.57219 0
M  V30 3050 H 281.253 -4.53482 0.845682 0
M  V30 3051 H 279.496 -4.25121 0.863395 0
M  V30 3052 H 280.167 -5.51741 -0.169059 0
M  V30 3053 H 282.643 -3.95416 -1.2956 0
M  V30 3054 H 281.519 -5.06075 -2.12554 0
M  V30 3055 H 281.78 -3.44699 -2.7683 0
M  V30 3056 N 280.839 0.0985539 -1.57292 0
M  V30 3057 C 281.802 1.10402 -2.00858 0
M  V30 3058 C 282.802 1.33146 -0.901593 0
M  V30 3059 O 283.992 1.29318 -1.16716 0
M  V30 3060 C 281.124 2.45394 -2.36632 0
M  V30 3061 H 282.317 0.729099 -2.90902 0
M  V30 3062 H 279.87 0.343495 -1.52479 0
M  V30 3063 H 280.605 2.87769 -1.49531 0
M  V30 3064 H 280.39 2.30235 -3.17387 0
M  V30 3065 H 281.88 3.17718 -2.71007 0
M  V30 3066 N 282.317 1.53212 0.369288 0
M  V30 3067 C 283.566 1.68436 1.10961 0
M  V30 3068 C 283.879 0.440738 1.9057 0
M  V30 3069 O 285.085 0.473446 2.6734 0
M  V30 3070 C 283.541 2.97744 2.0218 0
M  V30 3071 C 283.149 4.29355 1.279 0
M  V30 3072 C 284.893 3.22334 2.76226 0
M  V30 3073 C 282.8 5.49755 2.17999 0
M  V30 3074 H 281.73 0.627568 0.41794 0
M  V30 3075 H 284.381 1.79713 0.370884 0
M  V30 3076 H 282.763 2.8026 2.79768 0
M  V30 3077 H 283.937 4.57458 0.554007 0
M  V30 3078 H 282.252 4.11179 0.657311 0
M  V30 3079 H 284.849 4.09471 3.43857 0
M  V30 3080 H 285.192 2.38238 3.41392 0
M  V30 3081 H 285.725 3.40475 2.05723 0
M  V30 3082 H 282.464 6.36318 1.57417 0
M  V30 3083 H 281.984 5.25937 2.88359 0
M  V30 3084 H 283.663 5.84401 2.77641 0
M  V30 3085 N 283.795 -0.628877 1.44509 0
M  V30 3086 C 284.725 -1.75187 1.54376 0
M  V30 3087 C 285.706 -1.65411 0.396618 0
M  V30 3088 O 286.891 -1.84137 0.617031 0
M  V30 3089 C 284.021 -3.13725 1.48976 0
M  V30 3090 C 282.975 -3.38291 2.62189 0
M  V30 3091 C 282.301 -4.76883 2.41841 0
M  V30 3092 C 283.601 -3.30632 4.04326 0
M  V30 3093 H 285.295 -1.67187 2.48373 0
M  V30 3094 H 282.841 -0.802909 1.19538 0
M  V30 3095 H 284.794 -3.92064 1.54478 0
M  V30 3096 H 283.518 -3.22515 0.514961 0
M  V30 3097 H 282.177 -2.62334 2.56079 0
M  V30 3098 H 281.825 -4.82378 1.42548 0
M  V30 3099 H 281.525 -4.94278 3.17747 0
M  V30 3100 H 283.049 -5.57449 2.49165 0
M  V30 3101 H 284.463 -3.98873 4.11793 0
M  V30 3102 H 282.86 -3.59561 4.80454 0
M  V30 3103 H 283.93 -2.28404 4.27738 0
M  V30 3104 N 285.273 -1.31445 -0.869486 0
M  V30 3105 C 286.521 -1.20918 -1.61936 0
M  V30 3106 C 286.842 0.232683 -1.93607 0
M  V30 3107 O 286.112 1.15352 -1.58338 0
M  V30 3108 H 284.692 -0.44454 -0.600328 0
M  V30 3109 H 287.354 -1.64776 -1.0409 0
M  V30 3110 H 286.45 -1.78124 -2.56278 0
M  V30 3111 N 286.751 1.08385 -1.14413 0
M  V30 3112 C 287.976 1.85057 -0.936413 0
M  V30 3113 C 288.401 1.81055 0.509971 0
M  V30 3114 O 287.759 1.1958 1.36273 0
M  V30 3115 C 287.807 3.30505 -1.44217 0
M  V30 3116 O 286.911 4.07491 -0.634409 0
M  V30 3117 H 286.252 0.573425 -0.334784 0
M  V30 3118 H 288.782 1.36799 -1.52142 0
M  V30 3119 H 288.792 3.81348 -1.45043 0
M  V30 3120 H 287.467 3.32734 -2.49522 0
M  V30 3121 H 286.044 3.66368 -0.694902 0
M  V30 3122 N 288.23 0.939286 1.26551 0
M  V30 3123 C 289.478 0.58469 1.93457 0
M  V30 3124 C 289.799 -0.878774 1.74076 0
M  V30 3125 O 289.069 -1.62421 1.09528 0
M  V30 3126 H 287.649 0.21325 0.715914 0
M  V30 3127 H 290.311 1.1942 1.54029 0
M  V30 3128 H 289.407 0.800849 3.0165 0
M  V30 3129 N 289.708 -1.40897 0.706093 0
M  V30 3130 C 290.956 -2.00657 0.241054 0
M  V30 3131 C 291.277 -1.56241 -1.16678 0
M  V30 3132 O 290.547 -0.79765 -1.78926 0
M  V30 3133 H 289.127 -0.742018 0.0861308 0
M  V30 3134 H 291.789 -1.72372 0.909604 0
M  V30 3135 H 290.885 -3.10958 0.266705 0
M  V30 3136 N 291.186 -0.45159 -1.50991 0
M  V30 3137 C 292.434 0.109857 -2.01801 0
M  V30 3138 C 292.755 1.41958 -1.3369 0
M  V30 3139 O 292.025 1.9003 -0.475951 0
M  V30 3140 H 290.605 0.0435884 -0.745727 0
M  V30 3141 H 293.267 -0.597557 -1.85514 0
M  V30 3142 H 292.363 0.275489 -3.10882 0
M  V30 3143 N 292.664 1.56529 -0.183458 0
M  V30 3144 C 293.911 1.97244 0.458357 0
M  V30 3145 C 294.239 1.06992 1.62428 0
M  V30 3146 O 293.494 0.106542 1.9541 0
M  V30 3147 C 293.793 3.43939 0.971637 0
M  V30 3148 C 293.459 4.5083 -0.0796784 0
M  V30 3149 C 292.121 4.79786 -0.368584 0
M  V30 3150 C 294.473 5.15138 -0.792638 0
M  V30 3151 C 291.801 5.70345 -1.37563 0
M  V30 3152 C 294.153 6.06784 -1.78875 0
M  V30 3153 C 292.817 6.34102 -2.08497 0
M  V30 3154 H 292.087 0.721768 0.167725 0
M  V30 3155 H 294.734 1.89472 -0.277976 0
M  V30 3156 H 293.039 3.48724 1.78602 0
M  V30 3157 H 294.736 3.72791 1.47744 0
M  V30 3158 H 291.326 4.28317 0.155668 0
M  V30 3159 H 295.51 4.92868 -0.582659 0
M  V30 3160 H 290.766 5.89789 -1.61118 0
M  V30 3161 H 294.94 6.55677 -2.3465 0
M  V30 3162 H 292.567 7.04074 -2.86678 0
M  V30 3163 N 294.142 -0.090211 1.57342 0
M  V30 3164 C 295.558 -0.444547 1.53284 0
M  V30 3165 C 295.758 -1.80238 0.900914 0
M  V30 3166 O 294.814 -2.4759 0.495513 0
M  V30 3167 C 296.127 -0.402543 2.97993 0
M  V30 3168 C 297.675 -0.48405 3.09234 0
M  V30 3169 C 298.15 -0.472144 4.5556 0
M  V30 3170 N 299.641 -0.532757 4.60126 0
M  V30 3171 C 300.376 -0.545462 5.708 0
M  V30 3172 N 299.872 -0.514082 6.9089 0
M  V30 3173 N 301.665 -0.59064 5.58988 0
M  V30 3174 H 293.816 0.799121 1.96794 0
M  V30 3175 H 296.079 0.297965 0.899956 0
M  V30 3176 H 295.785 0.528106 3.47712 0
M  V30 3177 H 295.659 -1.21969 3.56936 0
M  V30 3178 H 298.046 -1.40512 2.595 0
M  V30 3179 H 298.127 0.361328 2.53235 0
M  V30 3180 H 297.771 0.445 5.05947 0
M  V30 3181 H 297.701 -1.3348 5.09402 0
M  V30 3182 H 300.192 -0.562006 3.73698 0
M  V30 3183 H 300.505 -0.527195 7.71 0
M  V30 3184 H 298.85 -0.481054 6.93333 0
M  V30 3185 H 302.041 -0.61272 4.64073 0
M  V30 3186 H 302.214 -0.597073 6.45243 0
M  V30 3187 N 295.62 -1.53406 -0.361157 0
M  V30 3188 C 296.583 -1.79479 -1.42548 0
M  V30 3189 C 297.583 -0.665327 -1.4639 0
M  V30 3190 O 298.773 -0.933549 -1.47073 0
M  V30 3191 C 295.905 -1.92087 -2.8163 0
M  V30 3192 H 297.098 -2.74538 -1.20701 0
M  V30 3193 H 294.651 -1.4455 -0.594546 0
M  V30 3194 H 295.386 -0.991099 -3.08784 0
M  V30 3195 H 295.171 -2.74241 -2.80239 0
M  V30 3196 H 296.661 -2.13836 -3.58697 0
M  V30 3197 N 297.098 0.621204 -1.44841 0
M  V30 3198 C 298.031 1.7459 -1.46947 0
M  V30 3199 C 299.009 1.59273 -0.327238 0
M  V30 3200 O 300.193 1.81021 -0.525706 0
M  V30 3201 C 297.32 3.12274 -1.31159 0
M  V30 3202 C 296.366 3.46216 -2.49072 0
M  V30 3203 S 297.199 3.4258 -4.11581 0
M  V30 3204 C 298.355 4.82867 -3.98233 0
M  V30 3205 H 298.588 1.72538 -2.42111 0
M  V30 3206 H 296.121 0.796683 -1.32259 0
M  V30 3207 H 298.079 3.91722 -1.22737 0
M  V30 3208 H 296.74 3.11855 -0.374885 0
M  V30 3209 H 295.933 4.4643 -2.33915 0
M  V30 3210 H 295.535 2.74253 -2.54286 0
M  V30 3211 H 297.827 5.7234 -3.62537 0
M  V30 3212 H 298.77 5.0308 -4.98313 0
M  V30 3213 H 299.178 4.57908 -3.30121 0
M  V30 3214 N 298.576 1.31904 0.862503 0
M  V30 3215 C 299.822 1.22197 1.61851 0
M  V30 3216 C 300.155 -0.217641 1.92977 0
M  V30 3217 O 299.43 -1.15264 1.56666 0
M  V30 3218 C 299.713 2.07378 2.94391 0
M  V30 3219 C 299.566 3.59678 2.70096 0
M  V30 3220 C 300.885 1.92891 3.95577 0
M  V30 3221 H 298.004 0.445255 0.587296 0
M  V30 3222 H 300.646 1.6177 0.99651 0
M  V30 3223 H 298.796 1.73758 3.47477 0
M  V30 3224 H 300.468 4.03472 2.23625 0
M  V30 3225 H 298.711 3.82735 2.04197 0
M  V30 3226 H 299.382 4.14595 3.64438 0
M  V30 3227 H 301.858 2.22327 3.51724 0
M  V30 3228 H 300.734 2.54781 4.86187 0
M  V30 3229 H 300.995 0.894315 4.3296 0
M  V30 3230 N 300.054 -1.07777 1.14986 0
M  V30 3231 C 301.302 -1.79934 0.920235 0
M  V30 3232 C 301.623 -1.86955 -0.554336 0
M  V30 3233 O 300.893 -1.36731 -1.40291 0
M  V30 3234 H 299.473 -0.666424 0.337473 0
M  V30 3235 H 302.135 -1.3027 1.44968 0
M  V30 3236 H 301.231 -2.82539 1.32583 0
M  V30 3237 N 301.532 -0.945985 -1.26051 0
M  V30 3238 C 302.779 -0.596118 -1.93527 0
M  V30 3239 C 303.107 0.865559 -1.74179 0
M  V30 3240 O 302.362 1.63524 -1.0751 0
M  V30 3241 C 302.661 -0.890475 -3.46129 0
M  V30 3242 C 302.327 -2.3368 -3.85622 0
M  V30 3243 C 300.989 -2.73216 -3.96114 0
M  V30 3244 C 303.341 -3.27648 -4.05334 0
M  V30 3245 C 300.669 -4.05806 -4.2372 0
M  V30 3246 C 303.021 -4.59841 -4.3443 0
M  V30 3247 C 301.685 -4.99185 -4.43137 0
M  V30 3248 H 300.955 -0.218135 -0.708165 0
M  V30 3249 H 303.602 -1.1934 -1.49768 0
M  V30 3250 H 301.907 -0.210711 -3.91233 0
M  V30 3251 H 303.604 -0.598478 -3.96509 0
M  V30 3252 H 300.194 -2.02015 -3.78005 0
M  V30 3253 H 304.378 -2.98298 -3.96651 0
M  V30 3254 H 299.634 -4.35945 -4.28675 0
M  V30 3255 H 303.808 -5.32641 -4.48628 0
M  V30 3256 H 301.435 -6.01952 -4.64282 0
M  V30 3257 N 303.011 1.40521 -0.713556 0
M  V30 3258 C 304.236 2.05759 -0.26035 0
M  V30 3259 C 304.661 1.53403 1.08854 0
M  V30 3260 O 304.019 0.668535 1.68524 0
M  V30 3261 C 304.067 3.59745 -0.248122 0
M  V30 3262 O 303.171 4.05123 0.77131 0
M  V30 3263 H 302.512 0.652564 -0.122703 0
M  V30 3264 H 305.042 1.79958 -0.973467 0
M  V30 3265 H 305.052 4.07911 -0.0851129 0
M  V30 3266 H 303.727 3.97218 -1.2325 0
M  V30 3267 H 302.304 3.68422 0.57619 0
M  V30 3268 N 304.489 0.459591 1.5075 0
M  V30 3269 C 305.737 -0.0991532 2.01857 0
M  V30 3270 C 306.058 -1.41247 1.34441 0
M  V30 3271 O 305.328 -1.89775 0.486022 0
M  V30 3272 H 303.908 -0.039633 0.745948 0
M  V30 3273 H 306.57 0.607387 1.85194 0
M  V30 3274 H 305.666 -0.258998 3.11023 0
M  V30 3275 N 305.967 -1.56429 0.191757 0
M  V30 3276 C 307.213 -1.97777 -0.448554 0
M  V30 3277 C 307.546 -1.07847 -1.61501 0
M  V30 3278 O 306.821 -0.129774 -1.94067 0
M  V30 3279 C 307.104 -3.48362 -0.911906 0
M  V30 3280 C 306.957 -4.4907 0.256136 0
M  V30 3281 C 308.276 -4.02561 -1.77857 0
M  V30 3282 H 305.395 -0.719071 -0.161572 0
M  V30 3283 H 308.037 -1.87896 0.282007 0
M  V30 3284 H 306.187 -3.56914 -1.53442 0
M  V30 3285 H 307.859 -4.5256 0.893733 0
M  V30 3286 H 306.102 -4.24181 0.908436 0
M  V30 3287 H 306.773 -5.51889 -0.11053 0
M  V30 3288 H 309.249 -3.96767 -1.25359 0
M  V30 3289 H 308.125 -5.08301 -2.07174 0
M  V30 3290 H 308.386 -3.47616 -2.73158 0
M  V30 3291 N 307.445 0.0818655 -1.57387 0
M  V30 3292 C 308.378 1.12986 -1.98266 0
M  V30 3293 C 309.356 1.38123 -0.857954 0
M  V30 3294 O 310.54 1.51663 -1.1194 0
M  V30 3295 C 307.667 2.47632 -2.31076 0
M  V30 3296 C 306.713 2.38693 -3.53452 0
M  V30 3297 S 307.546 1.79071 -5.04672 0
M  V30 3298 C 308.702 3.15316 -5.40673 0
M  V30 3299 H 308.935 0.781435 -2.86846 0
M  V30 3300 H 306.468 0.290034 -1.51651 0
M  V30 3301 H 308.426 3.25089 -2.50654 0
M  V30 3302 H 307.087 2.79638 -1.43043 0
M  V30 3303 H 306.28 3.37964 -3.73893 0
M  V30 3304 H 305.882 1.69369 -3.33452 0
M  V30 3305 H 308.174 4.11613 -5.38127 0
M  V30 3306 H 309.117 2.99664 -6.41566 0
M  V30 3307 H 309.525 3.15457 -4.68132 0
M  V30 3308 N 308.923 1.53595 0.353017 0
M  V30 3309 C 309.87 1.80919 1.43308 0
M  V30 3310 C 310.84 0.654288 1.5267 0
M  V30 3311 O 312.025 0.897759 1.6836 0
M  V30 3312 C 309.165 2.01605 2.80089 0
M  V30 3313 C 308.278 3.29321 2.79593 0
M  V30 3314 C 307.413 3.40125 4.0803 0
M  V30 3315 C 306.452 4.61826 4.01725 0
M  V30 3316 N 305.589 4.69716 5.21834 0
M  V30 3317 H 310.429 2.73074 1.19308 0
M  V30 3318 H 307.966 1.35263 0.578131 0
M  V30 3319 H 309.924 2.11586 3.59565 0
M  V30 3320 H 308.554 1.12772 3.0246 0
M  V30 3321 H 307.606 3.28229 1.92276 0
M  V30 3322 H 308.918 4.18884 2.70809 0
M  V30 3323 H 308.072 3.49488 4.95927 0
M  V30 3324 H 306.811 2.48601 4.19582 0
M  V30 3325 H 305.816 4.52552 3.12213 0
M  V30 3326 H 307.041 5.54705 3.91764 0
M  V30 3327 H 304.987 3.81097 5.33948 0
M  V30 3328 H 304.904 5.53202 5.1527 0
M  V30 3329 H 306.172 4.83376 6.11529 0
M  V30 3330 N 310.401 -0.613514 1.45168 0
M  V30 3331 C 311.364 -1.7065 1.53007 0
M  V30 3332 C 312.364 -1.5548 0.410184 0
M  V30 3333 O 313.554 -1.60656 0.673455 0
M  V30 3334 C 310.686 -3.09875 1.42093 0
M  V30 3335 H 311.879 -1.65068 2.50385 0
M  V30 3336 H 309.432 -0.828728 1.32521 0
M  V30 3337 H 310.167 -3.21039 0.458769 0
M  V30 3338 H 309.952 -3.22293 2.23315 0
M  V30 3339 H 311.442 -3.895 1.50598 0
M  V30 3340 N 311.879 -1.3236 -0.855495 0
M  V30 3341 C 312.809 -1.23833 -1.97958 0
M  V30 3342 C 313.79 -0.122361 -1.69659 0
M  V30 3343 O 314.975 -0.30939 -1.9172 0
M  V30 3344 C 312.105 -0.959772 -3.33775 0
M  V30 3345 C 311.059 -2.03689 -3.76424 0
M  V30 3346 C 310.385 -1.61075 -5.09862 0
M  V30 3347 C 311.685 -3.4518 -3.9198 0
M  V30 3348 H 313.379 -2.1788 -2.0535 0
M  V30 3349 H 310.925 -1.04891 -0.986605 0
M  V30 3350 H 312.878 -0.886678 -4.11966 0
M  V30 3351 H 311.602 0.0163404 -3.26596 0
M  V30 3352 H 310.261 -2.10012 -3.00484 0
M  V30 3353 H 309.909 -0.622107 -4.99138 0
M  V30 3354 H 309.609 -2.33143 -5.39368 0
M  V30 3355 H 311.133 -1.55201 -5.90546 0
M  V30 3356 H 312.547 -3.4145 -4.60526 0
M  V30 3357 H 310.944 -4.1559 -4.32903 0
M  V30 3358 H 312.014 -3.84903 -2.94919 0
M  V30 3359 N 313.357 1.07166 -1.15556 0
M  V30 3360 C 314.587 1.83248 -0.954133 0
M  V30 3361 C 314.995 1.82449 0.500911 0
M  V30 3362 O 314.338 1.23575 1.35923 0
M  V30 3363 C 314.4 3.31393 -1.39351 0
M  V30 3364 C 314.064 3.5591 -2.86666 0
M  V30 3365 C 315.061 3.49695 -3.8472 0
M  V30 3366 C 312.746 3.83515 -3.24379 0
M  V30 3367 C 314.74 3.70737 -5.18491 0
M  V30 3368 C 312.427 4.04209 -4.58321 0
M  V30 3369 C 313.425 3.97815 -5.55186 0
M  V30 3370 O 313.113 4.17954 -6.86709 0
M  V30 3371 H 312.845 0.584941 -0.338851 0
M  V30 3372 H 315.399 1.36169 -1.53777 0
M  V30 3373 H 313.629 3.79292 -0.75329 0
M  V30 3374 H 315.318 3.88945 -1.16089 0
M  V30 3375 H 316.084 3.28368 -3.56931 0
M  V30 3376 H 311.963 3.87605 -2.49567 0
M  V30 3377 H 315.507 3.65663 -5.94085 0
M  V30 3378 H 311.404 4.25023 -4.85825 0
M  V30 3379 H 312.172 4.35291 -6.93155 0
M  V30 3380 N 314.835 0.952656 1.25548 0
M  V30 3381 C 315.745 0.47782 2.29682 0
M  V30 3382 C 316.761 -0.453859 1.67977 0
M  V30 3383 O 317.937 -0.330587 1.98668 0
M  V30 3384 C 315.002 -0.238655 3.45878 0
M  V30 3385 C 314.063 0.730994 4.23031 0
M  V30 3386 C 313.296 0.0486165 5.33678 0
M  V30 3387 O 313.519 -1.16612 5.58353 0
M  V30 3388 O 312.453 0.733152 5.97418 0
M  V30 3389 H 316.279 1.34312 2.72386 0
M  V30 3390 H 313.864 0.719026 1.30959 0
M  V30 3391 H 315.746 -0.641774 4.16484 0
M  V30 3392 H 314.421 -1.07916 3.05181 0
M  V30 3393 H 313.328 1.18428 3.5486 0
M  V30 3394 H 314.661 1.53946 4.67506 0
M  V30 3395 N 316.313 -1.40141 0.720998 0
M  V30 3396 C 317.538 -2.05618 0.271258 0
M  V30 3397 C 317.963 -1.53978 -1.08039 0
M  V30 3398 O 317.321 -0.677463 -1.68167 0
M  V30 3399 C 317.369 -3.59609 0.267197 0
M  V30 3400 O 316.473 -4.05526 -0.749814 0
M  V30 3401 H 315.814 -0.651904 0.126162 0
M  V30 3402 H 318.344 -1.79439 0.982997 0
M  V30 3403 H 318.354 -4.0786 0.106744 0
M  V30 3404 H 317.029 -3.96559 1.25354 0
M  V30 3405 H 315.606 -3.68722 -0.556644 0
M  V30 3406 N 317.792 -0.46758 -1.50504 0
M  V30 3407 C 319.04 0.0884469 -2.01906 0
M  V30 3408 C 319.361 1.40532 -1.35188 0
M  V30 3409 O 318.631 1.89515 -0.496079 0
M  V30 3410 H 317.211 0.0356765 -0.746148 0
M  V30 3411 H 319.873 -0.6172 -1.84869 0
M  V30 3412 H 318.969 0.2425 -3.11156 0
M  V30 3413 N 319.27 1.56325 -0.20005 0
M  V30 3414 C 320.519 1.96895 0.437652 0
M  V30 3415 C 320.832 1.08999 1.62415 0
M  V30 3416 O 322.038 1.39372 2.32997 0
M  V30 3417 C 320.494 3.50198 0.830025 0
M  V30 3418 C 320.102 4.46765 -0.332461 0
M  V30 3419 C 321.846 3.99526 1.43453 0
M  V30 3420 C 319.753 5.91344 0.0811468 0
M  V30 3421 H 318.683 0.735209 0.167282 0
M  V30 3422 H 321.334 1.81148 -0.292853 0
M  V30 3423 H 319.716 3.61467 1.61734 0
M  V30 3424 H 320.89 4.47231 -1.11 0
M  V30 3425 H 319.205 4.07657 -0.848789 0
M  V30 3426 H 321.802 5.05025 1.75652 0
M  V30 3427 H 322.145 3.44122 2.34277 0
M  V30 3428 H 322.678 3.91393 0.71109 0
M  V30 3429 H 319.417 6.50685 -0.793033 0
M  V30 3430 H 318.937 5.94121 0.823445 0
M  V30 3431 H 320.616 6.44945 0.515252 0
M  V30 3432 N 320.748 -0.0735177 1.57428 0
M  V30 3433 C 321.678 -1.0879 2.06608 0
M  V30 3434 C 322.659 -1.40473 0.959237 0
M  V30 3435 O 323.844 -1.5013 1.23185 0
M  V30 3436 C 320.974 -2.40183 2.50857 0
M  V30 3437 C 319.928 -2.22858 3.65402 0
M  V30 3438 C 319.254 -3.59619 3.957 0
M  V30 3439 C 320.554 -1.65123 4.95511 0
M  V30 3440 H 322.248 -0.678673 2.91607 0
M  V30 3441 H 319.794 -0.325013 1.40284 0
M  V30 3442 H 321.747 -3.11437 2.83874 0
M  V30 3443 H 320.471 -2.83083 1.62885 0
M  V30 3444 H 319.13 -1.54045 3.32664 0
M  V30 3445 H 318.778 -4.00086 3.04861 0
M  V30 3446 H 318.478 -3.48866 4.72828 0
M  V30 3447 H 320.002 -4.32306 4.31212 0
M  V30 3448 H 321.416 -2.26241 5.26771 0
M  V30 3449 H 319.813 -1.65071 5.7695 0
M  V30 3450 H 320.883 -0.612559 4.81015 0
M  V30 3451 N 322.226 -1.5378 -0.344866 0
M  V30 3452 C 323.503 -1.61589 -1.10219 0
M  V30 3453 C 323.883 -0.436316 -2.06542 0
M  V30 3454 O 323.231 0.571543 -2.21237 0
M  V30 3455 C 323.441 -2.97602 -1.82301 0
M  V30 3456 C 324.789 -3.5291 -2.36093 0
M  V30 3457 O 325.813 -2.99768 -1.924 0
M  V30 3458 O 324.672 -4.45859 -3.16026 0
M  V30 3459 H 321.766 -0.653522 -0.506792 0
M  V30 3460 H 324.312 -1.66126 -0.346465 0
M  V30 3461 H 323.084 -3.74893 -1.12121 0
M  V30 3462 H 322.707 -2.9665 -2.64735 0
M  V30 3463 N 323.704 0.605807 -1.45491 0
M  V30 3464 C 324.944 1.37606 -1.51142 0
M  V30 3465 C 325.308 1.91413 -0.150075 0
M  V30 3466 O 326.509 2.68677 -0.0812828 0
M  V30 3467 C 324.78 2.49197 -2.56195 0
M  V30 3468 S 326.339 3.36953 -2.81083 0
M  V30 3469 H 323.157 0.469118 -0.534275 0
M  V30 3470 H 325.759 0.698845 -1.82583 0
M  V30 3471 H 324.463 2.0802 -3.53773 0
M  V30 3472 H 323.994 3.21717 -2.26411 0
M  V30 3473 H 326.009 4.47395 -2.14598 0
M  V30 3474 N 325.182 1.32811 0.848464 0
M  V30 3475 C 326.145 1.22194 1.9391 0
M  V30 3476 C 327.145 0.143404 1.60159 0
M  V30 3477 O 328.335 0.394253 1.6968 0
M  V30 3478 C 325.467 0.88067 3.29328 0
M  V30 3479 H 326.66 2.19127 2.04752 0
M  V30 3480 H 324.213 1.16731 1.0394 0
M  V30 3481 H 324.948 -0.0865776 3.24184 0
M  V30 3482 H 324.733 1.66052 3.55203 0
M  V30 3483 H 326.223 0.830871 4.09251 0
M  V30 3484 N 326.66 -1.06551 1.16123 0
M  V30 3485 C 327.888 -1.83005 0.965237 0
M  V30 3486 C 328.303 -1.82423 -0.486542 0
M  V30 3487 O 327.66 -1.24152 -1.33763 0
M  V30 3488 C 327.711 -3.29733 1.48183 0
M  V30 3489 O 327.432 -3.30416 2.87674 0
M  V30 3490 C 328.933 -4.22926 1.32848 0
M  V30 3491 H 326.153 -0.577118 0.342309 0
M  V30 3492 H 328.697 -1.3445 1.54089 0
M  V30 3493 H 326.852 -3.75609 0.948517 0
M  V30 3494 H 327.266 -4.22149 3.11272 0
M  V30 3495 H 328.74 -5.23916 1.73827 0
M  V30 3496 H 329.217 -4.38346 0.273692 0
M  V30 3497 H 329.823 -3.82894 1.85127 0
M  V30 3498 N 328.138 -0.959301 -1.25041 0
M  V30 3499 C 329.368 -0.63303 -1.96663 0
M  V30 3500 C 329.776 0.800031 -1.71453 0
M  V30 3501 O 329.119 1.54736 -0.99008 0
M  V30 3502 C 329.181 -0.817523 -3.50081 0
M  V30 3503 C 328.845 -2.22863 -3.98975 0
M  V30 3504 C 329.842 -3.20569 -4.09306 0
M  V30 3505 C 327.527 -2.55407 -4.32519 0
M  V30 3506 C 329.521 -4.4891 -4.52503 0
M  V30 3507 C 327.208 -3.83976 -4.754 0
M  V30 3508 C 328.206 -4.8054 -4.85356 0
M  V30 3509 O 327.894 -6.06817 -5.27284 0
M  V30 3510 H 327.626 -0.235866 -0.633516 0
M  V30 3511 H 330.18 -1.2874 -1.60047 0
M  V30 3512 H 328.41 -0.105992 -3.86555 0
M  V30 3513 H 330.099 -0.491604 -4.02912 0
M  V30 3514 H 330.865 -2.96753 -3.83618 0
M  V30 3515 H 326.744 -1.8097 -4.23994 0
M  V30 3516 H 330.288 -5.24283 -4.60188 0
M  V30 3517 H 326.185 -4.07596 -5.00535 0
M  V30 3518 H 326.953 -6.10262 -5.45457 0
M  V30 3519 N 329.616 1.39756 -0.72842 0
M  V30 3520 C 330.862 2.00942 -0.273892 0
M  V30 3521 C 331.195 1.57656 1.13394 0
M  V30 3522 O 330.47 0.802434 1.77176 0
M  V30 3523 C 330.753 3.58211 -0.368346 0
M  V30 3524 C 330.606 4.11534 -1.81548 0
M  V30 3525 C 331.925 4.39372 0.253054 0
M  V30 3526 H 329.044 0.730047 -0.100996 0
M  V30 3527 H 331.686 1.66056 -0.923337 0
M  V30 3528 H 329.836 3.88061 0.184588 0
M  V30 3529 H 331.508 3.92431 -2.42478 0
M  V30 3530 H 329.751 3.65341 -2.33898 0
M  V30 3531 H 330.422 5.20682 -1.83288 0
M  V30 3532 H 332.898 4.15527 -0.218224 0
M  V30 3533 H 331.774 5.48677 0.156585 0
M  V30 3534 H 332.035 4.21358 1.33826 0
M  V30 3535 N 331.094 0.475555 1.50254 0
M  V30 3536 C 332.057 -0.305016 2.27161 0
M  V30 3537 C 333.057 -0.916519 1.32123 0
M  V30 3538 O 334.247 -0.785003 1.5551 0
M  V30 3539 C 331.379 -1.43496 3.09227 0
M  V30 3540 H 332.572 0.369511 2.97615 0
M  V30 3541 H 330.125 0.229747 1.54602 0
M  V30 3542 H 330.86 -2.14441 2.43281 0
M  V30 3543 H 330.645 -1.00223 3.79075 0
M  V30 3544 H 332.135 -1.98548 3.67381 0
M  V30 3545 N 332.573 -1.56217 0.208337 0
M  V30 3546 C 333.821 -1.97558 -0.426076 0
M  V30 3547 C 334.142 -1.09683 -1.61229 0
M  V30 3548 O 333.412 -0.170956 -1.95153 0
M  V30 3549 H 331.992 -0.729575 -0.160405 0
M  V30 3550 H 334.654 -1.92606 0.298155 0
M  V30 3551 H 333.75 -3.02672 -0.761312 0
M  V30 3552 N 334.051 0.0651679 -1.57465 0
M  V30 3553 C 334.981 1.07693 -2.07182 0
M  V30 3554 C 335.962 1.39962 -0.966673 0
M  V30 3555 O 337.147 1.49475 -1.2398 0
M  V30 3556 C 334.277 2.3885 -2.52127 0
M  V30 3557 C 333.231 2.20917 -3.66579 0
M  V30 3558 C 332.557 3.57515 -3.97601 0
M  V30 3559 C 333.857 1.62493 -4.9638 0
M  V30 3560 H 335.551 0.663199 -2.91962 0
M  V30 3561 H 333.097 0.317569 -1.40455 0
M  V30 3562 H 335.05 3.09928 -2.85522 0
M  V30 3563 H 333.774 2.82215 -1.64384 0
M  V30 3564 H 332.433 1.52279 -3.33477 0
M  V30 3565 H 332.081 3.98463 -3.06979 0
M  V30 3566 H 331.781 3.46353 -4.74672 0
M  V30 3567 H 333.305 4.30013 -4.33499 0
M  V30 3568 H 334.719 2.23445 -5.27963 0
M  V30 3569 H 333.116 1.62009 -5.77818 0
M  V30 3570 H 334.186 0.587041 -4.81333 0
M  V30 3571 N 335.529 1.53961 0.336706 0
M  V30 3572 C 336.754 1.75797 1.10046 0
M  V30 3573 C 337.179 0.498985 1.81361 0
M  V30 3574 O 336.537 -0.548769 1.72795 0
M  V30 3575 C 336.585 2.94257 2.08436 0
M  V30 3576 O 335.689 2.64883 3.16087 0
M  V30 3577 H 335.03 0.582936 0.317934 0
M  V30 3578 H 337.56 2.00945 0.38501 0
M  V30 3579 H 337.57 3.21237 2.51537 0
M  V30 3580 H 336.245 3.85564 1.55927 0
M  V30 3581 H 334.822 2.48812 2.77753 0
M  V30 3582 N 337.007 -0.598083 1.45811 0
M  V30 3583 C 338.255 -1.35413 1.50026 0
M  V30 3584 C 338.576 -1.94444 0.147177 0
M  V30 3585 O 337.846 -1.77701 -0.824571 0
M  V30 3586 H 336.426 -0.502727 0.552517 0
M  V30 3587 H 339.088 -0.701606 1.81834 0
M  V30 3588 H 338.184 -2.16871 2.2444 0
M  V30 3589 N 338.485 -1.33259 -0.841409 0
M  V30 3590 C 339.71 -1.2775 -1.63385 0
M  V30 3591 C 340.135 0.149188 -1.87507 0
M  V30 3592 O 339.493 1.10498 -1.43736 0
M  V30 3593 C 339.541 -2.05571 -2.96265 0
M  V30 3594 O 338.645 -1.41257 -3.87453 0
M  V30 3595 H 337.986 -0.439627 -0.497618 0
M  V30 3596 H 340.516 -1.75782 -1.04699 0
M  V30 3597 H 340.526 -2.16241 -3.45982 0
M  V30 3598 H 339.201 -3.09309 -2.7803 0
M  V30 3599 H 337.778 -1.39217 -3.45938 0
M  V30 3600 N 339.963 1.05934 -1.16686 0
M  V30 3601 C 341.191 1.8249 -0.974929 0
M  V30 3602 C 341.606 1.82679 0.476861 0
M  V30 3603 O 340.963 1.2486 1.33103 0
M  V30 3604 C 341.014 3.28943 -1.49929 0
M  V30 3605 O 340.735 3.28886 -2.89423 0
M  V30 3606 C 342.236 4.22215 -1.35089 0
M  V30 3607 H 339.456 0.575295 -0.345365 0
M  V30 3608 H 342 1.33631 -1.548 0
M  V30 3609 H 340.155 3.751 -0.968423 0
M  V30 3610 H 340.569 4.20493 -3.13506 0
M  V30 3611 H 342.043 5.22987 -1.76603 0
M  V30 3612 H 342.52 4.38195 -0.296935 0
M  V30 3613 H 343.126 3.81907 -1.87155 0
M  V30 3614 N 341.441 0.965919 1.2453 0
M  V30 3615 C 342.687 0.637349 1.93156 0
M  V30 3616 C 343.042 -0.818261 1.74133 0
M  V30 3617 O 342.335 -1.58079 1.08266 0
M  V30 3618 C 342.529 0.945428 3.44669 0
M  V30 3619 C 342.358 2.42944 3.78429 0
M  V30 3620 C 341.128 3.08895 3.9989 0
M  V30 3621 C 343.326 3.40941 3.8505 0
M  V30 3622 N 341.308 4.47052 4.20735 0
M  V30 3623 C 342.679 4.64448 4.10717 0
M  V30 3624 C 344.734 3.35624 3.67779 0
M  V30 3625 C 343.437 5.83292 4.20907 0
M  V30 3626 C 345.463 4.53818 3.79214 0
M  V30 3627 C 344.825 5.76114 4.05304 0
M  V30 3628 H 340.924 0.284034 0.728594 0
M  V30 3629 H 343.508 1.24041 1.50073 0
M  V30 3630 H 341.679 0.371193 3.86622 0
M  V30 3631 H 343.411 0.575613 4.00586 0
M  V30 3632 H 340.166 2.59432 3.96222 0
M  V30 3633 H 340.59 5.18634 4.35141 0
M  V30 3634 H 345.232 2.4211 3.46616 0
M  V30 3635 H 342.95 6.77236 4.40883 0
M  V30 3636 H 346.536 4.51263 3.67224 0
M  V30 3637 H 345.416 6.66045 4.13949 0
M  V30 3638 N 342.919 -1.39368 0.735821 0
M  V30 3639 C 344.149 -2.04498 0.293967 0
M  V30 3640 C 344.557 -1.55593 -1.07645 0
M  V30 3641 O 343.9 -0.716324 -1.69158 0
M  V30 3642 C 343.962 -3.58836 0.218342 0
M  V30 3643 C 343.626 -4.30721 1.52736 0
M  V30 3644 C 344.623 -4.57305 2.47322 0
M  V30 3645 C 342.308 -4.69251 1.79189 0
M  V30 3646 C 344.302 -5.21429 3.66593 0
M  V30 3647 C 341.989 -5.33104 2.98737 0
M  V30 3648 C 342.987 -5.59125 3.9226 0
M  V30 3649 O 342.675 -6.21653 5.09708 0
M  V30 3650 H 342.407 -0.664118 0.126189 0
M  V30 3651 H 344.961 -1.79385 1.00051 0
M  V30 3652 H 343.191 -3.8285 -0.544314 0
M  V30 3653 H 344.88 -4.05447 -0.191626 0
M  V30 3654 H 345.646 -4.27983 2.28156 0
M  V30 3655 H 341.525 -4.48354 1.07239 0
M  V30 3656 H 345.069 -5.41656 4.39607 0
M  V30 3657 H 340.966 -5.61846 3.17803 0
M  V30 3658 H 341.734 -6.40146 5.10054 0
M  V30 3659 N 344.397 -0.483516 -1.5 0
M  V30 3660 C 345.33 0.350427 -2.25493 0
M  V30 3661 C 346.308 0.985549 -1.29328 0
M  V30 3662 O 347.492 1.01906 -1.58579 0
M  V30 3663 C 344.619 1.49202 -3.04066 0
M  V30 3664 C 343.665 0.973036 -4.15252 0
M  V30 3665 S 344.498 -0.122237 -5.3536 0
M  V30 3666 C 345.654 1.02294 -6.17484 0
M  V30 3667 H 345.887 -0.290381 -2.95878 0
M  V30 3668 H 343.42 -0.268562 -1.52046 0
M  V30 3669 H 345.378 2.14623 -3.49925 0
M  V30 3670 H 344.039 2.10438 -2.33183 0
M  V30 3671 H 343.232 1.82804 -4.69679 0
M  V30 3672 H 342.834 0.396335 -3.71894 0
M  V30 3673 H 345.126 1.93195 -6.49371 0
M  V30 3674 H 346.069 0.517664 -7.06205 0
M  V30 3675 H 346.477 1.28238 -5.49741 0
M  V30 3676 N 345.875 1.56104 -0.216619 0
M  V30 3677 C 347.1 2.0301 0.424462 0
M  V30 3678 C 347.525 1.0955 1.52907 0
M  V30 3679 O 346.883 0.0827914 1.81111 0
M  V30 3680 C 346.931 3.4819 0.937883 0
M  V30 3681 O 346.035 3.57865 2.04955 0
M  V30 3682 H 345.376 0.656925 0.0966755 0
M  V30 3683 H 347.906 2.01859 -0.33381 0
M  V30 3684 H 347.916 3.88413 1.24897 0
M  V30 3685 H 346.591 4.15699 0.129387 0
M  V30 3686 H 345.168 3.29527 1.74546 0
M  V30 3687 N 347.353 -0.0568162 1.57498 0
M  V30 3688 C 348.581 -0.765626 1.92213 0
M  V30 3689 C 348.996 -1.70353 0.813961 0
M  V30 3690 O 348.353 -1.81268 -0.211701 0
M  V30 3691 C 348.404 -1.5465 3.2675 0
M  V30 3692 O 348.125 -0.646278 4.33307 0
M  V30 3693 C 349.626 -2.35497 3.75574 0
M  V30 3694 H 346.846 -0.216835 0.634999 0
M  V30 3695 H 349.39 -0.0226146 2.04487 0
M  V30 3696 H 347.545 -2.24165 3.15957 0
M  V30 3697 H 347.959 -1.19093 5.108 0
M  V30 3698 H 349.433 -2.85722 4.72299 0
M  V30 3699 H 349.91 -3.15692 3.05344 0
M  V30 3700 H 350.516 -1.7111 3.8936 0
M  V30 3701 N 348.832 -1.54138 -0.328536 0
M  V30 3702 C 349.762 -1.86167 -1.40939 0
M  V30 3703 C 350.743 -0.718044 -1.54202 0
M  V30 3704 O 351.928 -0.971328 -1.68163 0
M  V30 3705 C 349.058 -2.08461 -2.77779 0
M  V30 3706 C 348.012 -3.24299 -2.7931 0
M  V30 3707 C 347.338 -3.31955 -4.19178 0
M  V30 3708 C 348.638 -4.62065 -2.43502 0
M  V30 3709 H 350.332 -2.76689 -1.14383 0
M  V30 3710 H 347.878 -1.33132 -0.548806 0
M  V30 3711 H 349.831 -2.29453 -3.53454 0
M  V30 3712 H 348.555 -1.14684 -3.05802 0
M  V30 3713 H 347.214 -3.03187 -2.0609 0
M  V30 3714 H 346.862 -2.35745 -4.44335 0
M  V30 3715 H 346.562 -4.09805 -4.2111 0
M  V30 3716 H 348.086 -3.55175 -4.96672 0
M  V30 3717 H 349.5 -4.8297 -3.08889 0
M  V30 3718 H 347.897 -5.42429 -2.56693 0
M  V30 3719 H 348.967 -4.64652 -1.38659 0
M  V30 3720 N 350.31 0.590341 -1.46126 0
M  V30 3721 C 351.54 1.37304 -1.54373 0
M  V30 3722 C 351.948 1.88332 -0.181071 0
M  V30 3723 O 351.291 1.63852 0.830559 0
M  V30 3724 C 351.353 2.6012 -2.48149 0
M  V30 3725 C 351.017 2.30613 -3.94546 0
M  V30 3726 C 352.014 1.89915 -4.83971 0
M  V30 3727 C 349.699 2.42993 -4.39613 0
M  V30 3728 C 351.693 1.61981 -6.16475 0
M  V30 3729 C 349.38 2.14672 -5.72153 0
M  V30 3730 C 350.378 1.7423 -6.60404 0
M  V30 3731 O 350.066 1.46251 -7.90485 0
M  V30 3732 H 349.798 0.426086 -0.524811 0
M  V30 3733 H 352.352 0.72539 -1.92165 0
M  V30 3734 H 350.582 3.27664 -2.05361 0
M  V30 3735 H 352.271 3.22182 -2.46887 0
M  V30 3736 H 353.037 1.79872 -4.50412 0
M  V30 3737 H 348.916 2.73435 -3.71153 0
M  V30 3738 H 352.46 1.30341 -6.85315 0
M  V30 3739 H 348.357 2.24337 -6.05263 0
M  V30 3740 H 349.125 1.6016 -8.02677 0
M  V30 3741 N 351.788 1.33704 0.83433 0
M  V30 3742 C 353.013 1.28615 1.62705 0
M  V30 3743 C 353.438 -0.139242 1.87584 0
M  V30 3744 O 352.796 -1.09734 1.4432 0
M  V30 3745 C 352.844 2.07139 2.95171 0
M  V30 3746 O 351.948 1.4331 3.86699 0
M  V30 3747 H 351.289 0.44226 0.49528 0
M  V30 3748 H 353.819 1.76335 1.03766 0
M  V30 3749 H 353.829 2.18073 3.44831 0
M  V30 3750 H 352.504 3.10779 2.76386 0
M  V30 3751 H 351.081 1.4105 3.45195 0
M  V30 3752 N 353.266 -1.05314 1.17247 0
M  V30 3753 C 354.216 -2.11313 0.856196 0
M  V30 3754 C 355.2 -1.60013 -0.168694 0
M  V30 3755 O 356.392 -1.76968 0.0335624 0
M  V30 3756 C 353.521 -3.41301 0.369917 0
M  V30 3757 C 352.607 -3.99401 1.42616 0
M  V30 3758 N 352.998 -4.31481 2.63928 0
M  V30 3759 C 351.296 -4.27126 1.28373 0
M  V30 3760 C 351.997 -4.77799 3.31787 0
M  V30 3761 N 350.973 -4.77843 2.59166 0
M  V30 3762 H 354.775 -2.33976 1.77856 0
M  V30 3763 H 352.289 -1.2295 1.06099 0
M  V30 3764 H 354.286 -4.16713 0.124897 0
M  V30 3765 H 352.946 -3.20072 -0.546253 0
M  V30 3766 H 353.957 -4.21519 3.00902 0
M  V30 3767 H 350.634 -4.15289 0.429111 0
M  V30 3768 H 352.024 -5.11743 4.35395 0
M  V30 3769 N 354.744 -0.972509 -1.24016 0
M  V30 3770 C 356.155 -0.67517 -1.74064 0
M  V30 3771 C 356.506 0.808939 -1.78747 0
M  V30 3772 O 355.631 1.63286 -1.42009 0
M  V30 3773 C 356.226 -1.21889 -3.16115 0
M  V30 3774 C 354.785 -0.971358 -3.6365 0
M  V30 3775 C 353.932 -1.35134 -2.42145 0
M  V30 3776 H 356.883 -1.14727 -1.09651 0
M  V30 3777 H 356.904 -0.587489 -3.75937 0
M  V30 3778 H 356.416 -2.29906 -3.12674 0
M  V30 3779 H 354.517 0.0930686 -3.72484 0
M  V30 3780 H 354.63 -1.62039 -4.50866 0
M  V30 3781 H 352.994 -0.769751 -2.4279 0
M  V30 3782 H 353.777 -2.4411 -2.41381 0
M  V30 3783 N 356.222 1.38976 -0.743202 0
M  V30 3784 C 357.499 1.94351 -0.220705 0
M  V30 3785 C 357.879 1.67935 1.2791 0
M  V30 3786 O 357.227 1.01211 2.04862 0
M  V30 3787 C 357.437 3.44426 -0.563171 0
M  V30 3788 C 358.785 4.2144 -0.517046 0
M  V30 3789 O 359.809 3.52661 -0.500846 0
M  V30 3790 O 358.668 5.44032 -0.518806 0
M  V30 3791 H 355.762 0.825879 -0.043047 0
M  V30 3792 H 358.308 1.48429 -0.822618 0
M  V30 3793 H 357.08 3.5712 -1.59941 0
M  V30 3794 H 356.703 3.97543 0.0672883 0
M  V30 3795 N 357.7 0.491464 1.49741 0
M  V30 3796 C 358.947 -0.0564256 2.02421 0
M  V30 3797 C 359.275 -1.37872 1.37192 0
M  V30 3798 O 358.53 -1.89375 0.493508 0
M  V30 3799 C 358.829 -0.267329 3.56399 0
M  V30 3800 C 358.495 0.975775 4.40215 0
M  V30 3801 C 357.157 1.31655 4.62839 0
M  V30 3802 C 359.509 1.80251 4.89039 0
M  V30 3803 C 356.837 2.48375 5.31532 0
M  V30 3804 C 359.189 2.96116 5.59015 0
M  V30 3805 C 357.853 3.30585 5.79888 0
M  V30 3806 H 357.123 -0.0206476 0.740712 0
M  V30 3807 H 359.77 0.649686 1.80143 0
M  V30 3808 H 358.075 -1.05588 3.77304 0
M  V30 3809 H 359.772 -0.705549 3.94744 0
M  V30 3810 H 356.362 0.700315 4.2284 0
M  V30 3811 H 360.546 1.55239 4.71396 0
M  V30 3812 H 355.802 2.7533 5.45897 0
M  V30 3813 H 359.976 3.60509 5.95824 0
M  V30 3814 H 357.603 4.21132 6.32892 0
M  V30 3815 N 359.178 -1.55987 0.224894 0
M  V30 3816 C 360.589 -1.84553 -0.282345 0
M  V30 3817 C 360.94 -1.14634 -1.59227 0
M  V30 3818 O 360.065 -0.417155 -2.12341 0
M  V30 3819 C 360.66 -3.348 -0.519062 0
M  V30 3820 C 359.219 -3.63671 -0.970604 0
M  V30 3821 C 358.366 -2.77277 -0.0355261 0
M  V30 3822 H 361.317 -1.52245 0.448006 0
M  V30 3823 H 361.338 -3.55187 -1.36463 0
M  V30 3824 H 360.85 -3.8566 0.43449 0
M  V30 3825 H 358.951 -3.1827 -1.9374 0
M  V30 3826 H 359.064 -4.71631 -0.842698 0
M  V30 3827 H 357.428 -2.48846 -0.542927 0
M  V30 3828 H 358.211 -3.30937 0.913003 0
M  V30 3829 N 360.656 0.0484629 -1.57525 0
M  V30 3830 C 361.566 1.07241 -2.08654 0
M  V30 3831 C 362.582 1.409 -1.02095 0
M  V30 3832 O 363.758 1.50609 -1.33712 0
M  V30 3833 C 360.823 2.36008 -2.5397 0
M  V30 3834 C 359.884 2.09108 -3.7493 0
M  V30 3835 C 359.117 3.31736 -4.18075 0
M  V30 3836 O 359.34 4.41714 -3.60895 0
M  V30 3837 O 358.274 3.18576 -5.10679 0
M  V30 3838 H 362.1 0.667965 -2.96263 0
M  V30 3839 H 359.685 0.26417 -1.47046 0
M  V30 3840 H 361.567 3.11747 -2.83535 0
M  V30 3841 H 360.242 2.75786 -1.69481 0
M  V30 3842 H 359.149 1.31 -3.50414 0
M  V30 3843 H 360.482 1.74198 -4.60343 0
M  V30 3844 N 362.134 1.5431 0.320358 0
M  V30 3845 C 363.081 1.83918 1.39438 0
M  V30 3846 C 364.051 0.686525 1.51248 0
M  V30 3847 O 365.236 0.933269 1.66417 0
M  V30 3848 C 362.376 2.075 2.75749 0
M  V30 3849 C 361.489 3.35177 2.72544 0
M  V30 3850 C 360.624 3.48704 4.00723 0
M  V30 3851 C 359.663 4.70244 3.91838 0
M  V30 3852 N 358.8 4.80679 5.11754 0
M  V30 3853 H 363.64 2.75544 1.13489 0
M  V30 3854 H 361.177 1.36459 0.549309 0
M  V30 3855 H 363.135 2.19166 3.54996 0
M  V30 3856 H 361.765 1.19163 3 0
M  V30 3857 H 360.817 3.32233 1.85271 0
M  V30 3858 H 362.129 4.24534 2.61863 0
M  V30 3859 H 361.283 3.59928 4.88402 0
M  V30 3860 H 360.022 2.57445 4.14214 0
M  V30 3861 H 359.027 4.59072 3.02544 0
M  V30 3862 H 360.252 5.6289 3.7991 0
M  V30 3863 H 358.198 3.92337 5.25745 0
M  V30 3864 H 358.115 5.64007 5.0342 0
M  V30 3865 H 359.383 4.96239 6.01138 0
M  V30 3866 N 363.613 -0.582584 1.46437 0
M  V30 3867 C 364.861 -1.33814 1.51453 0
M  V30 3868 C 365.182 -1.94277 0.167792 0
M  V30 3869 O 364.452 -1.78566 -0.805677 0
M  V30 3870 H 363.032 -0.496838 0.557818 0
M  V30 3871 H 365.694 -0.682281 1.82568 0
M  V30 3872 H 364.79 -2.14479 2.26728 0
M  V30 3873 N 365.091 -1.34144 -0.827227 0
M  V30 3874 C 366.502 -1.23557 -1.39966 0
M  V30 3875 C 366.853 0.140731 -1.95695 0
M  V30 3876 O 365.978 1.04087 -1.89723 0
M  V30 3877 C 366.573 -2.23708 -2.54441 0
M  V30 3878 C 365.132 -2.16924 -3.07605 0
M  V30 3879 C 364.279 -2.10549 -1.80456 0
M  V30 3880 H 367.23 -1.45573 -0.631991 0
M  V30 3881 H 367.251 -1.85157 -3.32411 0
M  V30 3882 H 366.763 -3.23866 -2.13851 0
M  V30 3883 H 364.864 -1.20107 -3.52711 0
M  V30 3884 H 364.977 -3.07988 -3.66988 0
M  V30 3885 H 363.341 -1.56203 -2.01178 0
M  V30 3886 H 364.124 -3.12535 -1.42046 0
M  V30 3887 N 366.569 1.04691 -1.17803 0
M  V30 3888 C 367.479 2.16057 -0.914151 0
M  V30 3889 C 368.495 1.73589 0.119503 0
M  V30 3890 O 369.671 2.01308 -0.0609468 0
M  V30 3891 C 366.736 3.4394 -0.436603 0
M  V30 3892 C 365.797 4.00825 -1.53746 0
M  V30 3893 C 365.03 5.22604 -1.0826 0
M  V30 3894 O 365.253 5.70367 0.0612244 0
M  V30 3895 O 364.187 5.7186 -1.87775 0
M  V30 3896 H 368.013 2.41169 -1.84584 0
M  V30 3897 H 365.598 1.1453 -0.959334 0
M  V30 3898 H 367.48 4.21024 -0.178057 0
M  V30 3899 H 366.155 3.20316 0.466869 0
M  V30 3900 H 365.062 3.25158 -1.84995 0
M  V30 3901 H 366.395 4.28778 -2.41683 0
M  V30 3902 N 368.047 0.979072 1.23499 0
M  V30 3903 C 368.957 0.526431 2.28617 0
M  V30 3904 C 369.973 -0.418126 1.68901 0
M  V30 3905 O 371.149 -0.288372 1.99325 0
M  V30 3906 C 368.214 -0.165235 3.46306 0
M  V30 3907 C 367.275 0.82056 4.21385 0
M  V30 3908 C 366.508 0.161807 5.33455 0
M  V30 3909 O 366.731 -1.04742 5.60701 0
M  V30 3910 O 365.665 0.859708 5.95729 0
M  V30 3911 H 369.491 1.4006 2.69475 0
M  V30 3912 H 367.076 0.746643 1.29405 0
M  V30 3913 H 368.958 -0.553287 4.17752 0
M  V30 3914 H 367.633 -1.01419 3.07402 0
M  V30 3915 H 366.54 1.25929 3.52268 0
M  V30 3916 H 367.873 1.63828 4.64135 0
M  V30 3917 N 369.525 -1.3858 0.750561 0
M  V30 3918 C 370.774 -1.99424 0.302172 0
M  V30 3919 C 371.087 -1.60254 -1.12152 0
M  V30 3920 O 372.293 -2.14046 -1.67023 0
M  V30 3921 C 370.749 -3.56558 0.489307 0
M  V30 3922 C 370.357 -4.04682 1.92189 0
M  V30 3923 C 372.101 -4.24374 0.103478 0
M  V30 3924 C 370.008 -5.54446 2.05775 0
M  V30 3925 H 368.938 -0.746046 0.10923 0
M  V30 3926 H 371.589 -1.58383 0.92667 0
M  V30 3927 H 369.971 -3.95472 -0.204329 0
M  V30 3928 H 371.145 -3.77065 2.64875 0
M  V30 3929 H 369.46 -3.4958 2.26236 0
M  V30 3930 H 372.057 -5.34384 0.183787 0
M  V30 3931 H 372.4 -4.05468 -0.943481 0
M  V30 3932 H 372.933 -3.90688 0.748854 0
M  V30 3933 H 369.672 -5.78252 3.08714 0
M  V30 3934 H 369.192 -5.83816 1.37546 0
M  V30 3935 H 370.871 -6.20099 1.84626 0
M  V30 3936 N 371.003 -0.499398 -1.49478 0
M  V30 3937 C 371.951 0.293604 -2.3074 0
M  V30 3938 C 372.945 0.96427 -1.39277 0
M  V30 3939 O 374.151 0.892141 -1.56336 0
M  V30 3940 H 370.526 0.113541 -0.743379 0
M  V30 3941 H 372.497 -0.411772 -2.95545 0
M  V30 3942 C 371.246 1.3462 -3.20582 0
M  V30 3943 H 370.569 0.83954 -3.90886 0
M  V30 3944 H 372.009 1.87308 -3.80384 0
M  V30 3945 C 370.468 2.36351 -2.40083 0
M  V30 3946 O 370.998 3.422 -2.10385 0
M  V30 3947 N 369.204 2.0878 -2.02137 0
M  V30 3948 H 368.751 1.22723 -2.26488 0
M  V30 3949 H 368.709 2.77075 -1.48583 0
M  V30 3950 N 372.481 1.55866 -0.233164 0
M  V30 3951 C 373.391 2.24431 0.683217 0
M  V30 3952 C 374.407 1.2558 1.2044 0
M  V30 3953 O 375.583 1.58422 1.24356 0
M  V30 3954 C 372.648 2.91979 1.86947 0
M  V30 3955 C 371.709 4.06204 1.38912 0
M  V30 3956 C 370.942 4.70522 2.51883 0
M  V30 3957 O 371.165 4.33865 3.70293 0
M  V30 3958 O 370.099 5.59296 2.22423 0
M  V30 3959 H 373.925 3.03426 0.129059 0
M  V30 3960 H 371.51 1.494 -0.0022283 0
M  V30 3961 H 373.392 3.34573 2.56201 0
M  V30 3962 H 372.067 2.15935 2.41151 0
M  V30 3963 H 370.974 3.68155 0.664259 0
M  V30 3964 H 372.307 4.84025 0.893328 0
M  V30 3965 N 373.959 -0.0401083 1.57549 0
M  V30 3966 C 374.869 -1.06133 2.0922 0
M  V30 3967 C 375.885 -1.40356 1.0284 0
M  V30 3968 O 377.061 -1.49897 1.34509 0
M  V30 3969 C 374.126 -2.34658 2.55218 0
M  V30 3970 C 373.187 -2.07117 3.76033 0
M  V30 3971 C 372.42 -3.29514 4.19829 0
M  V30 3972 O 372.643 -4.39794 3.63232 0
M  V30 3973 O 371.577 -3.15863 5.12362 0
M  V30 3974 H 375.403 -0.652244 2.96613 0
M  V30 3975 H 372.988 -0.256368 1.47184 0
M  V30 3976 H 374.87 -3.10239 2.85184 0
M  V30 3977 H 373.545 -2.74883 1.70941 0
M  V30 3978 H 372.452 -1.29139 3.51104 0
M  V30 3979 H 373.785 -1.71754 4.61261 0
M  V30 3980 N 375.437 -1.54477 -0.31217 0
M  V30 3981 C 376.367 -1.87652 -1.38957 0
M  V30 3982 C 377.348 -0.734358 -1.53431 0
M  V30 3983 O 378.533 -0.98911 -1.67123 0
M  V30 3984 C 375.663 -2.11396 -2.75552 0
M  V30 3985 C 374.617 -3.27243 -2.75855 0
M  V30 3986 C 373.943 -3.36382 -4.15633 0
M  V30 3987 C 375.243 -4.64622 -2.38587 0
M  V30 3988 H 376.937 -2.77887 -1.11442 0
M  V30 3989 H 374.483 -1.33707 -0.534655 0
M  V30 3990 H 376.436 -2.33189 -3.51 0
M  V30 3991 H 375.16 -1.17921 -3.04569 0
M  V30 3992 H 373.819 -3.05356 -2.02863 0
M  V30 3993 H 373.467 -2.40445 -4.41809 0
M  V30 3994 H 373.167 -4.14249 -4.1674 0
M  V30 3995 H 374.691 -3.60422 -4.92877 0
M  V30 3996 H 376.105 -4.86219 -3.03749 0
M  V30 3997 H 374.502 -5.45121 -2.50925 0
M  V30 3998 H 375.572 -4.66097 -1.33723 0
M  V30 3999 N 376.915 0.57481 -1.46744 0
M  V30 4000 C 377.848 1.69827 -1.52427 0
M  V30 4001 C 378.826 1.58151 -0.377744 0
M  V30 4002 O 380.01 1.79257 -0.58303 0
M  V30 4003 C 377.137 3.07943 -1.41027 0
M  V30 4004 C 376.183 3.38116 -2.59961 0
M  V30 4005 S 377.016 3.29313 -4.22272 0
M  V30 4006 C 378.172 4.69953 -4.13394 0
M  V30 4007 H 378.405 1.64748 -2.47478 0
M  V30 4008 H 375.938 0.754203 -1.34726 0
M  V30 4009 H 377.896 3.87619 -1.35137 0
M  V30 4010 H 376.557 3.10504 -0.473909 0
M  V30 4011 H 375.75 4.38762 -2.47999 0
M  V30 4012 H 375.352 2.66024 -2.62882 0
M  V30 4013 H 377.644 5.60517 -3.80562 0
M  V30 4014 H 378.587 4.86972 -5.14066 0
M  V30 4015 H 378.995 4.47174 -3.44522 0
M  V30 4016 N 378.394 1.34581 0.820102 0
M  V30 4017 C 379.341 1.2639 1.93117 0
M  V30 4018 C 380.311 0.138554 1.65521 0
M  V30 4019 O 381.496 0.320004 1.88097 0
M  V30 4020 C 378.636 1.02812 3.29429 0
M  V30 4021 C 377.749 2.24146 3.693 0
M  V30 4022 C 376.884 1.93829 4.94574 0
M  V30 4023 C 375.923 3.1129 5.27034 0
M  V30 4024 N 375.06 2.80838 6.43486 0
M  V30 4025 H 379.9 2.21408 1.99455 0
M  V30 4026 H 377.437 1.10077 0.975784 0
M  V30 4027 H 379.395 0.871788 4.0799 0
M  V30 4028 H 378.025 0.114612 3.22596 0
M  V30 4029 H 377.077 2.50691 2.86109 0
M  V30 4030 H 378.389 3.11899 3.89257 0
M  V30 4031 H 377.543 1.74948 5.80929 0
M  V30 4032 H 376.282 1.03341 4.76626 0
M  V30 4033 H 375.287 3.30764 4.39175 0
M  V30 4034 H 376.512 4.02561 5.4692 0
M  V30 4035 H 374.458 1.92929 6.26988 0
M  V30 4036 H 374.375 3.62123 6.63629 0
M  V30 4037 H 375.643 2.65467 7.32903 0
M  V30 4038 N 379.872 -1.04064 1.18357 0
M  V30 4039 C 380.82 -2.14187 0.907007 0
M  V30 4040 C 381.814 -1.68879 -0.132725 0
M  V30 4041 O 383.02 -1.79993 0.0154248 0
M  V30 4042 H 379.395 -0.699585 0.275835 0
M  V30 4043 H 381.366 -2.34711 1.84264 0
M  V30 4044 C 380.115 -3.44785 0.449254 0
M  V30 4045 H 379.438 -3.80058 1.24081 0
M  V30 4046 H 380.878 -4.22974 0.294737 0
M  V30 4047 C 379.337 -3.26391 -0.834909 0
M  V30 4048 O 379.867 -3.53973 -1.89911 0
M  V30 4049 N 378.073 -2.79726 -0.787523 0
M  V30 4050 H 377.62 -2.5748 0.0787347 0
M  V30 4051 H 377.578 -2.67798 -1.64716 0
M  V30 4052 N 381.35 -0.985608 -1.22978 0
M  V30 4053 C 382.596 -0.65836 -1.91816 0
M  V30 4054 C 382.929 0.806692 -1.76653 0
M  V30 4055 O 382.204 1.58252 -1.13078 0
M  V30 4056 C 382.487 -1.056 -3.44268 0
M  V30 4057 C 382.34 -2.57906 -3.68516 0
M  V30 4058 C 383.659 -0.603781 -4.35939 0
M  V30 4059 H 380.778 -0.24065 -0.696604 0
M  V30 4060 H 383.42 -1.22783 -1.44998 0
M  V30 4061 H 381.57 -0.571445 -3.84274 0
M  V30 4062 H 383.242 -3.13976 -3.3796 0
M  V30 4063 H 381.485 -3.00305 -3.13048 0
M  V30 4064 H 382.156 -2.80779 -4.75255 0
M  V30 4065 H 384.632 -1.01987 -4.03408 0
M  V30 4066 H 383.508 -0.910383 -5.41298 0
M  V30 4067 H 383.769 0.495761 -4.39312 0
M  V30 4068 N 382.828 1.3818 -0.7579 0
M  V30 4069 C 384.053 2.04827 -0.325679 0
M  V30 4070 C 384.478 1.56788 1.03919 0
M  V30 4071 O 383.836 0.721811 1.66312 0
M  V30 4072 C 383.884 3.58774 -0.362447 0
M  V30 4073 O 382.988 4.07372 0.642033 0
M  V30 4074 H 382.329 0.64833 -0.143402 0
M  V30 4075 H 384.859 1.7677 -1.03023 0
M  V30 4076 H 384.869 4.07434 -0.214844 0
M  V30 4077 H 383.544 3.93096 -1.35824 0
M  V30 4078 H 382.121 3.70068 0.458688 0
M  V30 4079 N 384.306 0.507319 1.49211 0
M  V30 4080 C 385.256 -0.287112 2.26185 0
M  V30 4081 C 386.24 -0.929983 1.31302 0
M  V30 4082 O 387.432 -0.836538 1.55984 0
M  V30 4083 C 384.561 -1.34718 3.15763 0
M  V30 4084 C 383.647 -0.710235 4.18111 0
M  V30 4085 N 384.038 0.190836 5.0544 0
M  V30 4086 C 382.336 -0.97009 4.35322 0
M  V30 4087 C 383.037 0.55606 5.79036 0
M  V30 4088 N 382.013 -0.0775232 5.43545 0
M  V30 4089 H 385.815 0.406445 2.91076 0
M  V30 4090 H 383.329 0.323814 1.59139 0
M  V30 4091 H 385.326 -1.92982 3.69545 0
M  V30 4092 H 383.986 -2.04235 2.52424 0
M  V30 4093 H 384.997 0.562047 5.14841 0
M  V30 4094 H 381.674 -1.65753 3.83187 0
M  V30 4095 H 383.064 1.2936 6.5933 0
M  V30 4096 N 385.784 -1.5574 0.241426 0
M  V30 4097 C 386.732 -2.22538 -0.676718 0
M  V30 4098 C 387.726 -1.21117 -1.18436 0
M  V30 4099 O 388.932 -1.39144 -1.14188 0
M  V30 4100 H 385.307 -0.713776 -0.236701 0
M  V30 4101 H 387.278 -2.98264 -0.0901187 0
M  V30 4102 C 386.027 -2.93439 -1.86518 0
M  V30 4103 H 385.35 -3.7125 -1.4837 0
M  V30 4104 H 386.79 -3.43549 -2.48495 0
M  V30 4105 C 385.249 -1.97008 -2.73294 0
M  V30 4106 O 385.779 -1.49965 -3.72657 0
M  V30 4107 N 383.985 -1.64227 -2.39745 0
M  V30 4108 H 383.532 -2.02677 -1.58996 0
M  V30 4109 H 383.49 -0.999708 -2.98083 0
M  V30 4110 N 387.262 0.0317525 -1.57568 0
M  V30 4111 C 388.673 0.578692 -1.77505 0
M  V30 4112 C 389.024 1.75749 -0.872164 0
M  V30 4113 O 388.149 2.16298 -0.0663106 0
M  V30 4114 C 388.744 1.05658 -3.21904 0
M  V30 4115 C 387.303 1.54906 -3.43047 0
M  V30 4116 C 386.45 0.485939 -2.73009 0
M  V30 4117 H 389.401 -0.194475 -1.57504 0
M  V30 4118 H 389.422 1.92404 -3.28269 0
M  V30 4119 H 388.934 0.198422 -3.87592 0
M  V30 4120 H 387.035 2.42915 -2.82529 0
M  V30 4121 H 387.148 1.59841 -4.5165 0
M  V30 4122 H 385.512 0.940354 -2.36705 0
M  V30 4123 H 386.295 -0.362709 -3.41379 0
M  V30 4124 N 388.74 1.54641 0.303973 0
M  V30 4125 C 389.67 1.88386 1.3796 0
M  V30 4126 C 390.651 0.742485 1.5304 0
M  V30 4127 O 391.836 0.997959 1.66597 0
M  V30 4128 C 388.966 2.12854 2.74427 0
M  V30 4129 C 387.92 3.28702 2.74115 0
M  V30 4130 C 387.246 3.38582 4.13844 0
M  V30 4131 C 388.546 4.65881 2.3612 0
M  V30 4132 H 390.24 2.78474 1.09966 0
M  V30 4133 H 387.786 1.33988 0.527556 0
M  V30 4134 H 389.739 2.35047 3.49758 0
M  V30 4135 H 388.463 1.19535 3.03939 0
M  V30 4136 H 387.122 3.06428 2.0124 0
M  V30 4137 H 386.77 2.42784 4.40528 0
M  V30 4138 H 386.47 4.16453 4.14537 0
M  V30 4139 H 387.994 3.63031 4.90959 0
M  V30 4140 H 389.408 4.87823 3.01167 0
M  V30 4141 H 387.805 5.46444 2.48031 0
M  V30 4142 H 388.875 4.66799 1.3125 0
M  V30 4143 N 390.218 -0.567019 1.47046 0
M  V30 4144 C 391.148 -1.68482 1.61667 0
M  V30 4145 C 392.129 -1.6358 0.466418 0
M  V30 4146 O 393.314 -1.81354 0.694574 0
M  V30 4147 C 390.444 -3.07124 1.62148 0
M  V30 4148 C 389.398 -3.26867 2.76301 0
M  V30 4149 C 388.724 -4.66196 2.61849 0
M  V30 4150 C 390.024 -3.13186 4.17986 0
M  V30 4151 H 391.718 -1.56502 2.5524 0
M  V30 4152 H 389.264 -0.751486 1.22836 0
M  V30 4153 H 391.217 -3.8516 1.70968 0
M  V30 4154 H 389.941 -3.2004 0.651287 0
M  V30 4155 H 388.6 -2.51237 2.66975 0
M  V30 4156 H 388.248 -4.75898 1.62879 0
M  V30 4157 H 387.948 -4.80356 3.38425 0
M  V30 4158 H 389.472 -5.46379 2.72584 0
M  V30 4159 H 390.886 -3.81049 4.2834 0
M  V30 4160 H 389.283 -3.3886 4.95272 0
M  V30 4161 H 390.353 -2.10057 4.3704 0
M  V30 4162 N 391.696 -1.35014 -0.812953 0
M  V30 4163 C 392.626 -1.30069 -1.93919 0
M  V30 4164 C 393.607 -0.176275 -1.69184 0
M  V30 4165 O 394.792 -0.370227 -1.90638 0
M  V30 4166 C 391.922 -1.06547 -3.30552 0
M  V30 4167 C 390.876 -2.15561 -3.69753 0
M  V30 4168 C 390.202 -1.77214 -5.04479 0
M  V30 4169 C 391.502 -3.57476 -3.808 0
M  V30 4170 H 393.196 -2.24303 -1.98314 0
M  V30 4171 H 390.742 -1.07977 -0.952736 0
M  V30 4172 H 392.695 -1.01729 -4.08937 0
M  V30 4173 H 391.419 -0.0875719 -3.26483 0
M  V30 4174 H 390.078 -2.19466 -2.9365 0
M  V30 4175 H 389.726 -0.780589 -4.96906 0
M  V30 4176 H 389.426 -2.50184 -5.31678 0
M  V30 4177 H 390.95 -1.7391 -5.8531 0
M  V30 4178 H 392.364 -3.55929 -4.4943 0
M  V30 4179 H 390.761 -4.29152 -4.19462 0
M  V30 4180 H 391.831 -3.94091 -2.82525 0
M  V30 4181 N 393.175 1.03435 -1.18907 0
M  V30 4182 C 394.105 2.13503 -0.945448 0
M  V30 4183 C 395.086 1.69682 0.119189 0
M  V30 4184 O 396.271 1.94169 -0.034707 0
M  V30 4185 C 393.401 3.44004 -0.477316 0
M  V30 4186 C 392.355 4.0148 -1.48316 0
M  V30 4187 C 391.681 5.27537 -0.872311 0
M  V30 4188 C 392.981 4.36921 -2.86177 0
M  V30 4189 H 394.675 2.34141 -1.86597 0
M  V30 4190 H 392.221 1.12523 -0.898584 0
M  V30 4191 H 394.174 4.20372 -0.294204 0
M  V30 4192 H 392.898 3.23072 0.478786 0
M  V30 4193 H 391.557 3.27201 -1.65332 0
M  V30 4194 H 391.205 5.02917 0.0911752 0
M  V30 4195 H 390.905 5.66954 -1.54393 0
M  V30 4196 H 392.429 6.06576 -0.699871 0
M  V30 4197 H 393.843 5.04248 -2.72776 0
M  V30 4198 H 392.24 4.87405 -3.50081 0
M  V30 4199 H 393.31 3.46466 -3.39248 0
M  V30 4200 N 394.653 0.992116 1.22453 0
M  V30 4201 C 395.881 0.685944 1.95198 0
M  V30 4202 C 396.296 -0.749233 1.73297 0
M  V30 4203 O 395.653 -1.50549 1.03156 0
M  V30 4204 C 395.704 0.981395 3.47924 0
M  V30 4205 O 395.425 2.36018 3.6909 0
M  V30 4206 C 396.926 0.692815 4.37853 0
M  V30 4207 H 394.146 0.253821 0.621141 0
M  V30 4208 H 396.69 1.32668 1.55626 0
M  V30 4209 H 394.845 0.386481 3.85467 0
M  V30 4210 H 395.259 2.45884 4.63294 0
M  V30 4211 H 396.733 0.949818 5.43767 0
M  V30 4212 H 397.21 -0.373181 4.37612 0
M  V30 4213 H 397.816 1.26874 4.05935 0
M  V30 4214 N 396.131 -1.37776 0.765217 0
M  V30 4215 C 397.542 -1.82521 0.392819 0
M  V30 4216 C 397.893 -1.63789 -1.08017 0
M  V30 4217 O 397.018 -1.14542 -1.83601 0
M  V30 4218 C 397.613 -3.31358 0.706214 0
M  V30 4219 C 396.172 -3.74406 0.386952 0
M  V30 4220 C 395.319 -2.60394 0.953422 0
M  V30 4221 H 398.27 -1.2634 0.960412 0
M  V30 4222 H 398.291 -3.80498 -0.0114706 0
M  V30 4223 H 397.803 -3.44959 1.77833 0
M  V30 4224 H 395.904 -3.66377 -0.678112 0
M  V30 4225 H 396.017 -4.70749 0.890636 0
M  V30 4226 H 394.381 -2.51878 0.378064 0
M  V30 4227 H 395.164 -2.76791 2.03081 0
M  V30 4228 N 397.609 -0.515225 -1.4894 0
M  V30 4229 C 398.541 0.292481 -2.27326 0
M  V30 4230 C 399.554 0.917838 -1.3446 0
M  V30 4231 O 400.743 0.798772 -1.5963 0
M  V30 4232 C 397.843 1.42803 -3.07344 0
M  V30 4233 C 397.016 0.907347 -4.27885 0
M  V30 4234 C 396.075 1.92222 -4.89834 0
M  V30 4235 O 395.101 1.48506 -5.49486 0
M  V30 4236 N 396.303 3.25355 -4.80754 0
M  V30 4237 H 399.068 -0.379721 -2.97285 0
M  V30 4238 H 396.629 -0.348638 -1.58102 0
M  V30 4239 H 398.621 2.10481 -3.45658 0
M  V30 4240 H 397.191 2.00414 -2.39902 0
M  V30 4241 H 396.411 0.0550218 -3.94162 0
M  V30 4242 H 397.699 0.538108 -5.05946 0
M  V30 4243 H 397.097 3.6355 -4.33414 0
M  V30 4244 H 395.654 3.88707 -5.23211 0
M  V30 4245 N 399.087 1.5561 -0.249682 0
M  V30 4246 C 400.034 2.21496 0.648694 0
M  V30 4247 C 401.004 1.17977 1.16921 0
M  V30 4248 O 402.189 1.46434 1.22318 0
M  V30 4249 C 399.329 2.92039 1.83868 0
M  V30 4250 C 398.442 4.10219 1.35442 0
M  V30 4251 C 397.577 4.6847 2.50419 0
M  V30 4252 C 396.616 5.78893 1.98869 0
M  V30 4253 N 395.753 6.31315 3.07223 0
M  V30 4254 H 400.593 2.97892 0.0801582 0
M  V30 4255 H 398.13 1.47074 0.0278031 0
M  V30 4256 H 400.088 3.31138 2.53778 0
M  V30 4257 H 398.718 2.18111 2.37965 0
M  V30 4258 H 397.77 3.76413 0.54928 0
M  V30 4259 H 399.082 4.89927 0.936649 0
M  V30 4260 H 398.236 5.10158 3.28366 0
M  V30 4261 H 396.975 3.87984 2.95499 0
M  V30 4262 H 395.98 5.3668 1.19393 0
M  V30 4263 H 397.205 6.61232 1.54755 0
M  V30 4264 H 395.151 5.53733 3.51732 0
M  V30 4265 H 395.068 7.06224 2.69784 0
M  V30 4266 H 396.336 6.77662 3.8522 0
M  V30 4267 N 400.565 -0.0233959 1.57583 0
M  V30 4268 C 401.811 -0.714119 1.89811 0
M  V30 4269 C 402.144 -1.74702 0.848113 0
M  V30 4270 O 401.419 -1.94023 -0.136135 0
M  V30 4271 C 401.702 -1.37853 3.32669 0
M  V30 4272 C 401.555 -0.358764 4.48367 0
M  V30 4273 C 402.874 -2.31101 3.7454 0
M  V30 4274 H 399.993 -0.25814 0.690314 0
M  V30 4275 H 402.635 0.0230927 1.89986 0
M  V30 4276 H 400.785 -2.00689 3.3265 0
M  V30 4277 H 402.457 0.268115 4.6052 0
M  V30 4278 H 400.7 0.321387 4.32608 0
M  V30 4279 H 401.371 -0.862242 5.45224 0
M  V30 4280 H 403.847 -1.78304 3.75961 0
M  V30 4281 H 402.723 -2.74567 4.75294 0
M  V30 4282 H 402.984 -3.18018 3.0711 0
M  V30 4283 N 402.043 -1.548 -0.295768 0
M  V30 4284 C 402.99 -1.86113 -1.36494 0
M  V30 4285 C 403.96 -0.7105 -1.50137 0
M  V30 4286 O 405.145 -0.959626 -1.64912 0
M  V30 4287 C 402.285 -2.11861 -2.72413 0
M  V30 4288 C 401.398 -3.39471 -2.67177 0
M  V30 4289 C 400.533 -3.55035 -3.95125 0
M  V30 4290 C 399.572 -4.76418 -3.84308 0
M  V30 4291 N 398.709 -4.8876 -5.04042 0
M  V30 4292 H 403.549 -2.77314 -1.09091 0
M  V30 4293 H 401.086 -1.37315 -0.52753 0
M  V30 4294 H 403.044 -2.24786 -3.51464 0
M  V30 4295 H 401.674 -1.2392 -2.98066 0
M  V30 4296 H 400.726 -3.35139 -1.79962 0
M  V30 4297 H 402.038 -4.28646 -2.55076 0
M  V30 4298 H 401.192 -3.67653 -4.82614 0
M  V30 4299 H 399.931 -2.64002 -4.10066 0
M  V30 4300 H 398.936 -4.63827 -2.95202 0
M  V30 4301 H 400.161 -5.68863 -3.70906 0
M  V30 4302 H 398.107 -4.00652 -5.19436 0
M  V30 4303 H 398.024 -5.71945 -4.94384 0
M  V30 4304 H 399.292 -5.0574 -5.93167 0
M  V30 4305 N 403.521 0.559213 -1.47345 0
M  V30 4306 C 404.937 0.884943 -1.32819 0
M  V30 4307 C 405.137 1.98988 -0.317173 0
M  V30 4308 O 404.193 2.51031 0.272011 0
M  V30 4309 C 405.506 1.28007 -2.72093 0
M  V30 4310 C 407.054 1.39161 -2.80363 0
M  V30 4311 C 407.529 1.82031 -4.20272 0
M  V30 4312 N 409.02 1.89185 -4.22804 0
M  V30 4313 C 409.755 2.2368 -5.27973 0
M  V30 4314 N 409.251 2.56802 -6.43447 0
M  V30 4315 N 411.044 2.24436 -5.15349 0
M  V30 4316 H 403.195 -0.170304 -2.11716 0
M  V30 4317 H 405.458 -0.0135247 -0.947904 0
M  V30 4318 H 405.164 0.542027 -3.47498 0
M  V30 4319 H 405.038 2.23665 -3.03733 0
M  V30 4320 H 407.425 2.12048 -2.05231 0
M  V30 4321 H 407.506 0.41696 -2.52379 0
M  V30 4322 H 407.15 1.09715 -4.95908 0
M  V30 4323 H 407.08 2.80495 -4.45679 0
M  V30 4324 H 409.571 1.65982 -3.39497 0
M  V30 4325 H 409.884 2.82144 -7.19454 0
M  V30 4326 H 408.229 2.54387 -6.46771 0
M  V30 4327 H 411.42 1.97998 -4.24163 0
M  V30 4328 H 411.593 2.50989 -5.97418 0
M  V30 4329 N 404.999 1.35443 0.805782 0
M  V30 4330 C 406.229 1.31687 1.59192 0
M  V30 4331 C 406.637 -0.10756 1.88894 0
M  V30 4332 O 405.98 -1.07017 1.49309 0
M  V30 4333 C 406.042 2.05686 2.94845 0
M  V30 4334 C 405.706 3.54868 2.87954 0
M  V30 4335 C 406.703 4.49444 2.61335 0
M  V30 4336 C 404.388 3.97528 3.07046 0
M  V30 4337 C 406.382 5.84655 2.53885 0
M  V30 4338 C 404.069 5.32833 2.99219 0
M  V30 4339 C 405.067 6.26209 2.72674 0
M  V30 4340 O 404.755 7.59032 2.64811 0
M  V30 4341 H 404.487 0.453878 0.50097 0
M  V30 4342 H 407.041 1.78892 1.0093 0
M  V30 4343 H 405.271 1.5312 3.55093 0
M  V30 4344 H 406.96 1.94998 3.55993 0
M  V30 4345 H 407.726 4.17804 2.46303 0
M  V30 4346 H 403.605 3.25233 3.26718 0
M  V30 4347 H 407.149 6.57508 2.33086 0
M  V30 4348 H 403.046 5.64087 3.13809 0
M  V30 4349 H 403.814 7.68967 2.80413 0
M  V30 4350 N 406.477 -1.02803 1.19454 0
M  V30 4351 C 407.723 -1.76478 0.999171 0
M  V30 4352 C 408.056 -1.88456 -0.468828 0
M  V30 4353 O 407.331 -1.40198 -1.34814 0
M  V30 4354 C 407.614 -3.19044 1.66981 0
M  V30 4355 C 407.467 -3.14932 3.21151 0
M  V30 4356 C 408.786 -4.17456 1.39349 0
M  V30 4357 H 405.905 -0.640614 0.364393 0
M  V30 4358 H 408.547 -1.20005 1.47305 0
M  V30 4359 H 406.697 -3.67263 1.2669 0
M  V30 4360 H 408.369 -2.74605 3.70661 0
M  V30 4361 H 406.612 -2.52625 3.52652 0
M  V30 4362 H 407.283 -4.1566 3.63223 0
M  V30 4363 H 409.759 -3.77842 1.74283 0
M  V30 4364 H 408.635 -5.154 1.88823 0
M  V30 4365 H 408.896 -4.40949 0.318813 0
M  V30 4366 N 407.956 -0.998596 -1.21925 0
M  V30 4367 C 408.866 -0.562736 -2.27751 0
M  V30 4368 C 409.882 0.391203 -1.69545 0
M  V30 4369 O 411.058 0.256625 -1.99758 0
M  V30 4370 C 408.123 0.11012 -3.46525 0
M  V30 4371 C 407.184 -0.887495 -4.20026 0
M  V30 4372 C 406.417 -0.246654 -5.3313 0
M  V30 4373 O 406.64 0.958088 -5.62296 0
M  V30 4374 O 405.574 -0.954374 -5.94286 0
M  V30 4375 H 409.4 -1.44329 -2.67213 0
M  V30 4376 H 406.985 -0.767135 -1.28201 0
M  V30 4377 H 408.867 0.486756 -4.18579 0
M  V30 4378 H 407.542 0.965154 -3.08976 0
M  V30 4379 H 406.449 -1.31517 -3.5022 0
M  V30 4380 H 407.782 -1.71191 -4.6147 0
M  V30 4381 N 409.434 1.37368 -0.772513 0
M  V30 4382 C 410.659 2.0447 -0.347386 0
M  V30 4383 C 411.084 1.57882 1.0225 0
M  V30 4384 O 410.442 0.73941 1.65537 0
M  V30 4385 C 410.49 3.58369 -0.400479 0
M  V30 4386 O 409.594 4.0803 0.598789 0
M  V30 4387 H 408.935 0.646773 -0.15027 0
M  V30 4388 H 411.465 1.75667 -1.04892 0
M  V30 4389 H 411.475 4.07183 -0.258045 0
M  V30 4390 H 410.15 3.91633 -1.39986 0
M  V30 4391 H 408.727 3.70534 0.419411 0
M  V30 4392 N 410.912 0.523116 1.48665 0
M  V30 4393 C 411.842 -0.23231 2.32342 0
M  V30 4394 C 412.823 -0.941637 1.41659 0
M  V30 4395 O 414.008 -0.928751 1.70552 0
M  V30 4396 C 411.138 -1.28387 3.22698 0
M  V30 4397 C 410.092 -0.693098 4.22351 0
M  V30 4398 C 409.418 -1.8468 5.01794 0
M  V30 4399 C 410.718 0.33063 5.21252 0
M  V30 4400 H 412.412 0.466192 2.95748 0
M  V30 4401 H 409.958 0.225643 1.42221 0
M  V30 4402 H 411.911 -1.82024 3.80059 0
M  V30 4403 H 410.635 -2.01186 2.57278 0
M  V30 4404 H 409.294 -0.178299 3.66166 0
M  V30 4405 H 408.942 -2.56301 4.32804 0
M  V30 4406 H 408.642 -1.45747 5.69238 0
M  V30 4407 H 410.166 -2.38709 5.62006 0
M  V30 4408 H 411.58 -0.118407 5.73178 0
M  V30 4409 H 409.977 0.636974 5.9671 0
M  V30 4410 H 411.047 1.23883 4.68808 0
M  V30 4411 N 412.39 -1.55475 0.257931 0
M  V30 4412 C 413.636 -2.00237 -0.357338 0
M  V30 4413 C 413.991 -1.14313 -1.54759 0
M  V30 4414 O 413.284 -0.201187 -1.90541 0
M  V30 4415 C 413.478 -3.48183 -0.806433 0
M  V30 4416 C 413.307 -4.48422 0.338758 0
M  V30 4417 C 412.077 -4.98651 0.817011 0
M  V30 4418 C 414.275 -5.00827 1.16949 0
M  V30 4419 N 412.257 -5.82658 1.93346 0
M  V30 4420 C 413.628 -5.82113 2.13413 0
M  V30 4421 C 415.683 -4.83104 1.2048 0
M  V30 4422 C 414.386 -6.47566 3.13131 0
M  V30 4423 C 416.412 -5.49343 2.19034 0
M  V30 4424 C 415.774 -6.30427 3.14232 0
M  V30 4425 H 411.873 -0.776034 -0.0964083 0
M  V30 4426 H 414.457 -1.90995 0.37803 0
M  V30 4427 H 412.628 -3.57801 -1.51107 0
M  V30 4428 H 414.36 -3.79802 -1.39758 0
M  V30 4429 H 411.115 -4.71914 0.39925 0
M  V30 4430 H 411.539 -6.29356 2.49478 0
M  V30 4431 H 416.181 -4.20036 0.482634 0
M  V30 4432 H 413.899 -7.09793 3.8629 0
M  V30 4433 H 417.485 -5.37579 2.22485 0
M  V30 4434 H 416.365 -6.80777 3.89246 0
M  V30 4435 N 413.868 0.0150385 -1.57593 0
M  V30 4436 C 414.815 1.01126 -2.07466 0
M  V30 4437 C 415.785 1.35064 -0.966794 0
M  V30 4438 O 416.97 1.4516 -1.23827 0
M  V30 4439 C 414.11 2.30276 -2.57035 0
M  V30 4440 C 413.223 2.02373 -3.81666 0
M  V30 4441 C 412.358 3.25496 -4.19793 0
M  V30 4442 C 411.397 2.93211 -5.37303 0
M  V30 4443 N 410.534 4.08826 -5.70794 0
M  V30 4444 H 415.374 0.57901 -2.92321 0
M  V30 4445 H 412.911 0.27426 -1.44521 0
M  V30 4446 H 414.869 3.05757 -2.83846 0
M  V30 4447 H 413.499 2.71197 -1.75077 0
M  V30 4448 H 412.551 1.17327 -3.61854 0
M  V30 4449 H 413.863 1.74567 -4.67256 0
M  V30 4450 H 413.017 4.09333 -4.47807 0
M  V30 4451 H 411.756 3.56428 -3.32882 0
M  V30 4452 H 410.761 2.07777 -5.09027 0
M  V30 4453 H 411.986 2.63542 -6.25877 0
M  V30 4454 H 409.932 4.39682 -4.86842 0
M  V30 4455 H 409.849 3.84491 -6.50924 0
M  V30 4456 H 411.117 4.93496 -6.03392 0
M  V30 4457 N 415.346 1.54954 0.287554 0
M  V30 4458 C 416.293 1.86834 1.35505 0
M  V30 4459 C 417.263 0.718452 1.49758 0
M  V30 4460 O 418.448 0.968358 1.644 0
M  V30 4461 C 415.588 2.13303 2.71286 0
M  V30 4462 C 414.701 3.40883 2.65373 0
M  V30 4463 C 413.836 3.57125 3.93236 0
M  V30 4464 C 412.875 4.78449 3.81776 0
M  V30 4465 N 412.012 4.91426 5.01443 0
M  V30 4466 H 416.852 2.77889 1.07619 0
M  V30 4467 H 414.389 1.37593 0.520241 0
M  V30 4468 H 416.347 2.26646 3.50267 0
M  V30 4469 H 414.977 1.25499 2.97405 0
M  V30 4470 H 414.029 3.36088 1.78182 0
M  V30 4471 H 415.341 4.29993 2.52799 0
M  V30 4472 H 414.495 3.70207 4.80658 0
M  V30 4473 H 413.234 2.66173 4.0866 0
M  V30 4474 H 412.239 4.65386 2.92738 0
M  V30 4475 H 413.464 5.70822 3.67884 0
M  V30 4476 H 411.41 4.03401 5.17304 0
M  V30 4477 H 411.327 5.74559 4.91343 0
M  V30 4478 H 412.595 5.08879 5.90477 0
M  V30 4479 N 416.824 -0.551391 1.4764 0
M  V30 4480 C 417.771 -1.65796 1.60563 0
M  V30 4481 C 418.741 -1.59932 0.448428 0
M  V30 4482 O 419.926 -1.78679 0.669222 0
M  V30 4483 C 417.066 -3.04108 1.63133 0
M  V30 4484 C 416.179 -3.20365 2.89811 0
M  V30 4485 C 415.314 -4.49109 2.8368 0
M  V30 4486 C 414.353 -4.58819 4.05156 0
M  V30 4487 N 413.49 -5.78926 3.97227 0
M  V30 4488 H 418.33 -1.54088 2.5507 0
M  V30 4489 H 415.867 -0.75052 1.26513 0
M  V30 4490 H 417.825 -3.84207 1.62606 0
M  V30 4491 H 416.455 -3.14637 0.721341 0
M  V30 4492 H 415.507 -2.33659 3.00179 0
M  V30 4493 H 416.819 -3.23402 3.79753 0
M  V30 4494 H 415.973 -5.37475 2.81434 0
M  V30 4495 H 414.712 -4.4856 1.91431 0
M  V30 4496 H 413.717 -3.68864 4.077 0
M  V30 4497 H 414.942 -4.61124 4.98539 0
M  V30 4498 H 412.888 -5.79314 3.07785 0
M  V30 4499 H 412.805 -5.83367 4.80853 0
M  V30 4500 H 414.073 -6.69637 3.99007 0
M  V30 4501 N 418.302 -1.35869 -0.798587 0
M  V30 4502 C 419.527 -1.32883 -1.59238 0
M  V30 4503 C 419.952 0.0894587 -1.87887 0
M  V30 4504 O 419.31 1.05869 -1.47178 0
M  V30 4505 C 419.358 -2.14892 -2.89575 0
M  V30 4506 O 418.462 -1.53512 -3.82763 0
M  V30 4507 H 417.803 -0.455236 -0.48338 0
M  V30 4508 H 420.333 -1.79024 -0.990539 0
M  V30 4509 H 420.343 -2.27139 -3.38928 0
M  V30 4510 H 419.018 -3.17998 -2.68049 0
M  V30 4511 H 417.595 -1.50153 -3.41334 0
M  V30 4512 N 419.78 1.02168 -1.19998 0
M  V30 4513 C 421.005 1.79833 -1.03319 0
M  V30 4514 C 421.43 1.83504 0.413281 0
M  V30 4515 O 420.788 1.26635 1.29743 0
M  V30 4516 C 420.836 3.22396 -1.61533 0
M  V30 4517 O 419.94 4.03555 -0.849519 0
M  V30 4518 H 419.281 0.554872 -0.364709 0
M  V30 4519 H 421.811 1.28542 -1.59179 0
M  V30 4520 H 421.821 3.73124 -1.65054 0
M  V30 4521 H 420.496 3.19039 -2.66809 0
M  V30 4522 H 419.073 3.62169 -0.888129 0
M  V30 4523 N 421.258 1.00505 1.21394 0
M  V30 4524 C 422.506 0.686415 1.90086 0
M  V30 4525 C 422.827 -0.785264 1.7849 0
M  V30 4526 O 422.097 -1.56387 1.17983 0
M  V30 4527 H 420.677 0.2509 0.703604 0
M  V30 4528 H 423.339 1.27417 1.47482 0
M  V30 4529 H 422.435 0.959621 2.96981 0
M  V30 4530 N 422.737 -1.36956 0.779787 0
M  V30 4531 C 423.669 -2.28833 0.129639 0
M  V30 4532 C 424.682 -1.4902 -0.655511 0
M  V30 4533 O 425.871 -1.71578 -0.492279 0
M  V30 4534 C 422.971 -3.2833 -0.839792 0
M  V30 4535 C 422.144 -4.3727 -0.10675 0
M  V30 4536 C 421.203 -5.16789 -0.990717 0
M  V30 4537 O 420.229 -5.67406 -0.451516 0
M  V30 4538 N 421.431 -5.32294 -2.3161 0
M  V30 4539 H 424.196 -2.85268 0.918803 0
M  V30 4540 H 421.757 -1.49019 0.632841 0
M  V30 4541 H 423.749 -3.78413 -1.43477 0
M  V30 4542 H 422.319 -2.72605 -1.52988 0
M  V30 4543 H 421.539 -3.88478 0.669216 0
M  V30 4544 H 422.827 -5.07229 0.399464 0
M  V30 4545 H 422.225 -4.92768 -2.77843 0
M  V30 4546 H 420.782 -5.85656 -2.86095 0
M  V30 4547 N 424.215 -0.530993 -1.48385 0
M  V30 4548 C 425.626 -0.0907905 -1.86479 0
M  V30 4549 C 425.977 1.33213 -1.44044 0
M  V30 4550 O 425.102 1.99783 -0.831615 0
M  V30 4551 C 425.697 -0.157987 -3.38431 0
M  V30 4552 C 424.256 0.227026 -3.75715 0
M  V30 4553 C 423.403 -0.5173 -2.72432 0
M  V30 4554 H 426.354 -0.742186 -1.40276 0
M  V30 4555 H 426.375 0.630053 -3.75247 0
M  V30 4556 H 425.887 -1.19372 -3.69286 0
M  V30 4557 H 423.988 1.26486 -3.50474 0
M  V30 4558 H 424.101 -0.113288 -4.78966 0
M  V30 4559 H 422.465 0.0365527 -2.54674 0
M  V30 4560 H 423.248 -1.55368 -3.0613 0
M  V30 4561 N 425.693 1.55336 -0.266172 0
M  V30 4562 C 426.939 1.99692 0.353681 0
M  V30 4563 C 427.272 1.1543 1.56172 0
M  V30 4564 O 426.547 0.222218 1.93226 0
M  V30 4565 C 426.83 3.52316 0.74466 0
M  V30 4566 C 426.683 4.47337 -0.470101 0
M  V30 4567 C 428.002 4.10588 1.58447 0
M  V30 4568 H 425.121 0.725961 0.12708 0
M  V30 4569 H 427.763 1.86336 -0.371333 0
M  V30 4570 H 425.913 3.63829 1.36239 0
M  V30 4571 H 427.585 4.4778 -1.10864 0
M  V30 4572 H 425.828 4.19364 -1.10978 0
M  V30 4573 H 426.499 5.51788 -0.15291 0
M  V30 4574 H 428.975 4.02297 1.06286 0
M  V30 4575 H 427.851 5.17607 1.82686 0
M  V30 4576 H 428.112 3.60253 2.56262 0
M  V30 4577 N 427.171 -0.0066808 1.57599 0
M  V30 4578 C 428.399 -0.704087 1.94551 0
M  V30 4579 C 428.814 -1.67677 0.867746 0
M  V30 4580 O 428.171 -1.8185 -0.153925 0
M  V30 4581 C 428.222 -1.44177 3.31505 0
M  V30 4582 O 427.943 -0.508097 4.35144 0
M  V30 4583 C 429.444 -2.23429 3.82876 0
M  V30 4584 H 426.664 -0.196523 0.641576 0
M  V30 4585 H 429.208 0.042453 2.04456 0
M  V30 4586 H 427.363 -2.13999 3.22929 0
M  V30 4587 H 427.777 -1.02782 5.14331 0
M  V30 4588 H 429.251 -2.70552 4.8115 0
M  V30 4589 H 429.728 -3.05818 3.15233 0
M  V30 4590 H 430.334 -1.58636 3.94607 0
M  V30 4591 N 428.649 -1.55105 -0.279332 0
M  V30 4592 C 429.896 -1.75412 -1.01177 0
M  V30 4593 C 430.224 -0.551728 -1.86511 0
M  V30 4594 O 429.479 0.465919 -1.90073 0
M  V30 4595 C 429.778 -3.0086 -1.92919 0
M  V30 4596 C 429.444 -4.33689 -1.23387 0
M  V30 4597 C 428.106 -4.69792 -1.04159 0
M  V30 4598 C 430.458 -5.15941 -0.738562 0
M  V30 4599 C 427.786 -5.85707 -0.341166 0
M  V30 4600 C 430.138 -6.32579 -0.0517636 0
M  V30 4601 C 428.802 -6.67326 0.152292 0
M  V30 4602 H 428.072 -0.641879 -0.370233 0
M  V30 4603 H 430.719 -1.89373 -0.284627 0
M  V30 4604 H 429.024 -2.81773 -2.72234 0
M  V30 4605 H 430.721 -3.13768 -2.49701 0
M  V30 4606 H 427.311 -4.05309 -1.39364 0
M  V30 4607 H 431.495 -4.8853 -0.874764 0
M  V30 4608 H 426.751 -6.11157 -0.172287 0
M  V30 4609 H 430.925 -6.9557 0.339828 0
M  V30 4610 H 428.552 -7.56998 0.697014 0
M  V30 4611 N 430.127 0.543554 -1.4793 0
M  V30 4612 C 431.355 1.32516 -1.58894 0
M  V30 4613 C 431.77 1.87215 -0.244131 0
M  V30 4614 O 431.127 1.65709 0.764652 0
M  V30 4615 C 431.178 2.48554 -2.62494 0
M  V30 4616 O 430.899 1.96112 -3.91755 0
M  V30 4617 C 432.4 3.40572 -2.8377 0
M  V30 4618 H 429.62 0.403472 -0.536145 0
M  V30 4619 H 432.164 0.657106 -1.93655 0
M  V30 4620 H 430.319 3.1127 -2.30629 0
M  V30 4621 H 430.733 2.71967 -4.4848 0
M  V30 4622 H 432.207 4.18375 -3.60093 0
M  V30 4623 H 432.684 3.94965 -1.92092 0
M  V30 4624 H 433.29 2.8366 -3.16887 0
M  V30 4625 N 431.605 1.3629 0.791371 0
M  V30 4626 C 432.882 1.20962 1.53712 0
M  V30 4627 C 433.262 -0.205021 2.10102 0
M  V30 4628 O 432.61 -1.21042 1.93807 0
M  V30 4629 C 432.82 2.29002 2.63361 0
M  V30 4630 C 434.168 2.65572 3.31295 0
M  V30 4631 O 435.192 2.2803 2.73643 0
M  V30 4632 O 434.051 3.3018 4.35481 0
M  V30 4633 H 431.145 0.47086 0.679867 0
M  V30 4634 H 433.691 1.48016 0.830021 0
M  V30 4635 H 432.463 3.2382 2.19674 0
M  V30 4636 H 432.086 2.03303 3.41692 0
M  V30 4637 N 433.083 -1.0153 1.20538 0
M  V30 4638 C 434.332 -1.74558 1.01057 0
M  V30 4639 C 434.645 -1.90168 -0.457756 0
M  V30 4640 O 435.851 -2.60301 -0.771722 0
M  V30 4641 C 434.307 -3.13963 1.75941 0
M  V30 4642 C 433.915 -3.06361 3.26875 0
M  V30 4643 C 435.659 -3.91191 1.64832 0
M  V30 4644 C 433.566 -4.40782 3.94291 0
M  V30 4645 H 432.496 -0.654417 0.374505 0
M  V30 4646 H 435.147 -1.13521 1.44171 0
M  V30 4647 H 433.529 -3.75549 1.25614 0
M  V30 4648 H 434.703 -2.54074 3.84425 0
M  V30 4649 H 433.018 -2.42625 3.38411 0
M  V30 4650 H 435.615 -4.90644 2.12539 0
M  V30 4651 H 435.958 -4.11884 0.604745 0
M  V30 4652 H 436.491 -3.36236 2.12579 0
M  V30 4653 H 433.23 -4.25292 4.98805 0
M  V30 4654 H 432.75 -4.9307 3.41529 0
M  V30 4655 H 434.429 -5.09621 3.98617 0
M  V30 4656 N 434.561 -1.01147 -1.20859 0
M  V30 4657 C 435.808 -0.697865 -1.90095 0
M  V30 4658 C 436.136 0.772014 -1.78522 0
M  V30 4659 O 435.391 1.57595 -1.16027 0
M  V30 4660 C 435.69 -1.0727 -3.40922 0
M  V30 4661 C 435.356 -2.53792 -3.72693 0
M  V30 4662 C 434.018 -2.93829 -3.81075 0
M  V30 4663 C 436.37 -3.48674 -3.87397 0
M  V30 4664 C 433.698 -4.27696 -4.01613 0
M  V30 4665 C 436.05 -4.82223 -4.09444 0
M  V30 4666 C 434.714 -5.21973 -4.16054 0
M  V30 4667 H 433.984 -0.255367 -0.695607 0
M  V30 4668 H 436.631 -1.27111 -1.43231 0
M  V30 4669 H 434.936 -0.417799 -3.89566 0
M  V30 4670 H 436.633 -0.807818 -3.92779 0
M  V30 4671 H 433.223 -2.21768 -3.66765 0
M  V30 4672 H 437.407 -3.18904 -3.80281 0
M  V30 4673 H 432.663 -4.58055 -4.04964 0
M  V30 4674 H 436.837 -5.55672 -4.19763 0
M  V30 4675 H 434.464 -6.25717 -4.31721 0
M  V30 4676 N 436.039 1.36541 -0.78704 0
M  V30 4677 C 437.287 1.98911 -0.357633 0
M  V30 4678 C 437.608 1.62778 1.07371 0
M  V30 4679 O 436.878 0.900612 1.73971 0
M  V30 4680 H 435.458 0.735734 -0.129246 0
M  V30 4681 H 438.12 1.66776 -1.00855 0
M  V30 4682 H 437.216 3.08874 -0.447549 0
M  V30 4683 N 437.518 0.538854 1.48102 0
M  V30 4684 C 438.451 -0.266495 2.26639 0
M  V30 4685 C 439.429 -0.93687 1.32897 0
M  V30 4686 O 440.613 -0.959507 1.62252 0
M  V30 4687 C 437.74 -1.37814 3.09394 0
M  V30 4688 C 436.786 -0.818247 4.18577 0
M  V30 4689 S 437.619 0.320848 5.34538 0
M  V30 4690 C 438.775 -0.793059 6.20855 0
M  V30 4691 H 439.008 0.399994 2.94597 0
M  V30 4692 H 436.541 0.324808 1.50945 0
M  V30 4693 H 438.499 -2.01488 3.57649 0
M  V30 4694 H 437.16 -2.01639 2.40833 0
M  V30 4695 H 436.353 -1.65247 4.7614 0
M  V30 4696 H 435.955 -0.258036 3.73109 0
M  V30 4697 H 438.247 -1.68961 6.56093 0
M  V30 4698 H 439.19 -0.255204 7.0764 0
M  V30 4699 H 439.598 -1.07746 5.54122 0
M  V30 4700 N 438.996 -1.55193 0.274407 0
M  V30 4701 C 439.926 -2.25471 -0.607032 0
M  V30 4702 C 440.907 -1.24461 -1.15946 0
M  V30 4703 O 442.092 -1.53179 -1.19373 0
M  V30 4704 C 439.222 -2.97526 -1.79153 0
M  V30 4705 C 438.176 -4.05459 -1.37067 0
M  V30 4706 C 437.502 -4.65084 -2.6382 0
M  V30 4707 C 438.802 -5.19691 -0.521389 0
M  V30 4708 H 440.496 -2.99393 -0.0209343 0
M  V30 4709 H 438.042 -1.43997 -0.00862866 0
M  V30 4710 H 439.995 -3.45402 -2.41404 0
M  V30 4711 H 438.719 -2.21138 -2.40344 0
M  V30 4712 H 437.378 -3.58393 -0.771355 0
M  V30 4713 H 437.026 -3.85365 -3.23268 0
M  V30 4714 H 436.726 -5.37961 -2.36372 0
M  V30 4715 H 438.25 -5.15708 -3.26921 0
M  V30 4716 H 439.664 -5.63623 -1.04889 0
M  V30 4717 H 438.061 -5.99126 -0.341825 0
M  V30 4718 H 439.131 -4.82713 0.46 0
M  V30 4719 N 440.474 -0.00167713 -1.576 0
M  V30 4720 C 441.723 0.682021 -1.89819 0
M  V30 4721 C 442.036 1.74844 -0.876871 0
M  V30 4722 O 443.242 2.48688 -1.08934 0
M  V30 4723 C 441.698 1.26425 -3.36964 0
M  V30 4724 C 441.306 0.232568 -4.47396 0
M  V30 4725 C 443.05 1.92604 -3.78291 0
M  V30 4726 C 440.957 0.824882 -5.85619 0
M  V30 4727 H 439.887 0.258499 -0.708304 0
M  V30 4728 H 442.538 -0.0624957 -1.83394 0
M  V30 4729 H 440.92 2.05949 -3.38232 0
M  V30 4730 H 442.094 -0.5382 -4.57646 0
M  V30 4731 H 440.409 -0.32888 -4.15099 0
M  V30 4732 H 443.006 2.37827 -4.78897 0
M  V30 4733 H 443.349 2.75732 -3.11894 0
M  V30 4734 H 443.882 1.19812 -3.79328 0
M  V30 4735 H 440.621 0.0323542 -6.55492 0
M  V30 4736 H 440.141 1.56477 -5.79029 0
M  V30 4737 H 441.82 1.32301 -6.33329 0
M  V30 4738 N 441.952 1.55251 0.271103 0
M  V30 4739 C 443.2 1.75599 1.00047 0
M  V30 4740 C 443.521 0.561188 1.8675 0
M  V30 4741 O 442.791 -0.423846 1.9126 0
M  V30 4742 H 441.371 0.647562 0.372387 0
M  V30 4743 H 444.033 1.92656 0.294876 0
M  V30 4744 H 443.129 2.65766 1.6363 0
M  V30 4745 N 443.43 -0.535701 1.48216 0
M  V30 4746 C 444.34 -1.66785 1.64985 0
M  V30 4747 C 445.356 -1.65654 0.532414 0
M  V30 4748 O 446.532 -1.8471 0.80275 0
M  V30 4749 C 443.597 -3.0326 1.68031 0
M  V30 4750 C 442.658 -3.1529 2.9136 0
M  V30 4751 C 441.891 -4.45255 2.94252 0
M  V30 4752 O 442.114 -5.32011 2.05719 0
M  V30 4753 O 441.048 -4.6153 3.86359 0
M  V30 4754 H 444.874 -1.55576 2.60825 0
M  V30 4755 H 442.459 -0.70815 1.31551 0
M  V30 4756 H 444.341 -3.84436 1.72589 0
M  V30 4757 H 443.016 -3.14805 0.753628 0
M  V30 4758 H 441.923 -2.3343 2.92337 0
M  V30 4759 H 443.256 -3.08658 3.83394 0
M  V30 4760 N 444.908 -1.36708 -0.784132 0
M  V30 4761 C 446.136 -1.34398 -1.57305 0
M  V30 4762 C 446.551 0.0735577 -1.88657 0
M  V30 4763 O 445.908 1.03193 -1.50524 0
M  V30 4764 C 445.959 -2.17053 -2.89085 0
M  V30 4765 O 445.68 -3.53281 -2.59083 0
M  V30 4766 C 447.181 -2.22583 -3.83369 0
M  V30 4767 H 444.401 -0.460819 -0.487736 0
M  V30 4768 H 446.945 -1.79879 -0.972819 0
M  V30 4769 H 445.1 -1.75113 -3.45564 0
M  V30 4770 H 445.514 -3.9647 -3.43383 0
M  V30 4771 H 446.988 -2.84763 -4.72878 0
M  V30 4772 H 447.465 -1.23075 -4.21603 0
M  V30 4773 H 448.071 -2.64781 -3.32823 0
M  V30 4774 N 446.386 1.0089 -1.21074 0
M  V30 4775 C 447.316 2.1145 -0.990523 0
M  V30 4776 C 448.297 1.69897 0.0831699 0
M  V30 4777 O 449.482 1.94052 -0.0758853 0
M  V30 4778 C 446.612 3.42914 -0.550177 0
M  V30 4779 C 445.566 3.98244 -1.56799 0
M  V30 4780 C 444.892 5.25568 -0.984013 0
M  V30 4781 C 446.192 4.30752 -2.95381 0
M  V30 4782 H 447.886 2.3013 -1.91521 0
M  V30 4783 H 445.432 1.10592 -0.92225 0
M  V30 4784 H 447.385 4.19653 -0.383305 0
M  V30 4785 H 446.109 3.24014 0.41015 0
M  V30 4786 H 444.768 3.23621 -1.72236 0
M  V30 4787 H 444.416 5.02998 -0.0155216 0
M  V30 4788 H 444.116 5.63551 -1.66384 0
M  V30 4789 H 445.64 6.04955 -0.828378 0
M  V30 4790 H 447.054 4.98349 -2.8341 0
M  V30 4791 H 445.451 4.79869 -3.60341 0
M  V30 4792 H 446.521 3.39192 -3.46521 0
M  V30 4793 N 447.864 1.01787 1.20321 0
M  V30 4794 C 449.113 0.703249 1.89043 0
M  V30 4795 C 449.426 -0.770445 1.79787 0
M  V30 4796 O 450.632 -1.19767 2.43656 0
M  V30 4797 C 449.088 1.20749 3.3904 0
M  V30 4798 C 448.696 2.70817 3.56878 0
M  V30 4799 C 450.44 0.968352 4.13308 0
M  V30 4800 C 448.347 3.14716 5.00708 0
M  V30 4801 H 447.277 0.259354 0.707991 0
M  V30 4802 H 449.928 1.23072 1.36108 0
M  V30 4803 H 448.31 0.607989 3.91305 0
M  V30 4804 H 449.484 3.36327 3.14993 0
M  V30 4805 H 447.799 2.92888 2.95983 0
M  V30 4806 H 450.396 1.27173 5.19356 0
M  V30 4807 H 450.739 -0.095149 4.16191 0
M  V30 4808 H 451.272 1.53129 3.67146 0
M  V30 4809 H 448.011 4.20347 5.02979 0
M  V30 4810 H 447.531 2.53927 5.43398 0
M  V30 4811 H 449.21 3.07426 5.69296 0
M  V30 4812 N 449.342 -1.36122 0.79427 0
M  V30 4813 C 450.292 -2.27373 0.169017 0
M  V30 4814 C 451.276 -1.4719 -0.649913 0
M  V30 4815 O 452.468 -1.69518 -0.50919 0
M  V30 4816 C 449.597 -3.36264 -0.691455 0
M  V30 4817 C 448.683 -4.2388 0.13653 0
M  V30 4818 N 449.074 -4.91519 1.19345 0
M  V30 4819 C 447.372 -4.45921 -0.0838499 0
M  V30 4820 C 448.073 -5.56369 1.6979 0
M  V30 4821 N 447.049 -5.34204 1.00634 0
M  V30 4822 H 450.851 -2.77154 0.977897 0
M  V30 4823 H 448.365 -1.49504 0.634208 0
M  V30 4824 H 450.362 -4.00572 -1.15534 0
M  V30 4825 H 449.022 -2.88037 -1.49883 0
M  V30 4826 H 450.033 -4.9334 1.57594 0
M  V30 4827 H 446.71 -4.08518 -0.861341 0
M  V30 4828 H 448.1 -6.20368 2.58055 0
M  V30 4829 N 450.82 -0.546701 -1.47814 0
M  V30 4830 C 451.768 0.220048 -2.31557 0
M  V30 4831 C 452.762 0.919472 -1.42275 0
M  V30 4832 O 453.968 0.841953 -1.59095 0
M  V30 4833 H 450.343 0.0898334 -0.746615 0
M  V30 4834 H 452.314 -0.505589 -2.94086 0
M  V30 4835 C 451.063 1.24353 -3.24702 0
M  V30 4836 H 450.386 0.714758 -3.93359 0
M  V30 4837 H 451.826 1.75112 -3.8615 0
M  V30 4838 C 450.285 2.28593 -2.47481 0
M  V30 4839 O 450.815 3.35334 -2.21165 0
M  V30 4840 N 449.021 2.02244 -2.08676 0
M  V30 4841 H 448.568 1.15455 -2.30278 0
M  V30 4842 H 448.526 2.72207 -1.57323 0
M  V30 4843 N 452.299 1.55045 -0.282633 0
M  V30 4844 C 453.715 1.59441 0.0712997 0
M  V30 4845 C 453.915 1.2998 1.53972 0
M  V30 4846 O 452.971 1.06431 2.28973 0
M  V30 4847 C 454.284 2.99097 -0.310104 0
M  V30 4848 C 455.832 3.1194 -0.257343 0
M  V30 4849 C 456.307 4.53875 -0.613297 0
M  V30 4850 N 457.798 4.5974 -0.565134 0
M  V30 4851 C 458.533 5.67603 -0.81326 0
M  V30 4852 N 458.029 6.83582 -1.1264 0
M  V30 4853 N 459.822 5.57187 -0.741553 0
M  V30 4854 H 451.973 1.72458 -1.23984 0
M  V30 4855 H 454.236 0.804549 -0.501403 0
M  V30 4856 H 453.942 3.25516 -1.33163 0
M  V30 4857 H 453.816 3.75616 0.345366 0
M  V30 4858 H 456.203 2.85281 0.754905 0
M  V30 4859 H 456.284 2.37618 -0.947178 0
M  V30 4860 H 455.928 4.81261 -1.62327 0
M  V30 4861 H 455.858 5.26508 0.09841 0
M  V30 4862 H 458.349 3.76427 -0.333294 0
M  V30 4863 H 458.662 7.6175 -1.30219 0
M  V30 4864 H 457.007 6.85179 -1.16425 0
M  V30 4865 H 460.198 4.65457 -0.496705 0
M  V30 4866 H 460.371 6.41171 -0.938306 0
M  V30 4867 N 453.777 0.010035 1.57597 0
M  V30 4868 C 454.71 -1.01234 2.04516 0
M  V30 4869 C 455.688 -1.32886 0.937024 0
M  V30 4870 O 456.872 -1.44879 1.20592 0
M  V30 4871 C 453.999 -2.33738 2.45121 0
M  V30 4872 C 453.045 -2.17679 3.66767 0
M  V30 4873 S 453.878 -1.49343 5.14254 0
M  V30 4874 C 455.034 -2.83256 5.58137 0
M  V30 4875 H 455.267 -0.612866 2.90914 0
M  V30 4876 H 452.8 -0.201124 1.53084 0
M  V30 4877 H 454.758 -3.09922 2.69182 0
M  V30 4878 H 453.419 -2.70823 1.59103 0
M  V30 4879 H 452.612 -3.1559 3.92962 0
M  V30 4880 H 452.214 -1.4964 3.42759 0
M  V30 4881 H 454.506 -3.79538 5.6121 0
M  V30 4882 H 455.449 -2.61749 6.57946 0
M  V30 4883 H 455.857 -2.87627 4.85727 0
M  V30 4884 N 455.255 -1.55392 -0.262866 0
M  V30 4885 C 456.203 -1.8977 -1.345 0
M  V30 4886 C 457.197 -0.775063 -1.50629 0
M  V30 4887 O 458.403 -0.959519 -1.52293 0
M  V30 4888 H 454.778 -0.602467 -0.450041 0
M  V30 4889 H 456.749 -2.80147 -1.02762 0
M  V30 4890 C 455.498 -2.19501 -2.69657 0
M  V30 4891 H 454.821 -3.05378 -2.5804 0
M  V30 4892 H 456.261 -2.47469 -3.44289 0
M  V30 4893 C 454.72 -1.00597 -3.21531 0
M  V30 4894 O 455.25 -0.245768 -4.00947 0
M  V30 4895 N 453.456 -0.800911 -2.79345 0
M  V30 4896 H 453.003 -1.42079 -2.14875 0
M  V30 4897 H 452.961 -0.00697996 -3.14399 0
M  V30 4898 N 456.733 0.527833 -1.48498 0
M  V30 4899 C 457.961 1.30823 -1.6029 0
M  V30 4900 C 458.376 1.86945 -0.263974 0
M  V30 4901 O 457.733 1.6651 0.747034 0
M  V30 4902 C 457.784 2.45756 -2.65116 0
M  V30 4903 O 457.505 1.91946 -3.93813 0
M  V30 4904 C 459.006 3.37543 -2.87367 0
M  V30 4905 H 456.226 0.397763 -0.540394 0
M  V30 4906 H 458.77 0.636529 -1.94341 0
M  V30 4907 H 456.925 3.08806 -2.33917 0
M  V30 4908 H 457.339 2.67195 -4.51339 0
M  V30 4909 H 458.813 4.14532 -3.6451 0
M  V30 4910 H 459.29 3.92905 -1.9627 0
M  V30 4911 H 459.896 2.80283 -3.19878 0
M  V30 4912 N 458.211 1.37122 0.776871 0
M  V30 4913 C 459.439 1.3523 1.5659 0
M  V30 4914 C 459.854 -0.0635518 1.88693 0
M  V30 4915 O 459.211 -1.02394 1.51069 0
M  V30 4916 C 459.262 2.18583 2.8793 0
M  V30 4917 O 458.983 3.5465 2.57206 0
M  V30 4918 C 460.484 2.24612 3.82183 0
M  V30 4919 H 457.704 0.4634 0.485285 0
M  V30 4920 H 460.248 1.80392 0.963266 0
M  V30 4921 H 458.403 1.76943 3.4463 0
M  V30 4922 H 458.817 3.98286 3.41275 0
M  V30 4923 H 460.291 2.87267 4.71361 0
M  V30 4924 H 460.768 1.25309 4.20944 0
M  V30 4925 H 461.374 2.66543 3.31414 0
M  V30 4926 N 459.689 -1.00246 1.21608 0
M  V30 4927 C 460.619 -2.10921 1.00172 0
M  V30 4928 C 461.6 -1.69938 -0.0741587 0
M  V30 4929 O 462.785 -1.94009 0.0861753 0
M  V30 4930 C 459.915 -3.42618 0.568355 0
M  V30 4931 C 458.869 -3.97407 1.58909 0
M  V30 4932 C 458.195 -5.25038 1.01187 0
M  V30 4933 C 459.495 -4.2918 2.97661 0
M  V30 4934 H 461.189 -2.29112 1.92739 0
M  V30 4935 H 458.735 -1.10101 0.928102 0
M  V30 4936 H 460.688 -4.19444 0.405555 0
M  V30 4937 H 459.412 -3.24227 -0.392961 0
M  V30 4938 H 458.071 -3.22703 1.73949 0
M  V30 4939 H 457.719 -5.02982 0.0421965 0
M  V30 4940 H 457.419 -5.62661 1.6937 0
M  V30 4941 H 458.943 -6.04507 0.860448 0
M  V30 4942 H 460.357 -4.96839 2.86049 0
M  V30 4943 H 458.754 -4.77952 3.6288 0
M  V30 4944 H 459.824 -3.3735 3.48315 0
M  V30 4945 N 461.167 -1.02423 -1.1978 0
M  V30 4946 C 462.392 -0.7373 -1.93852 0
M  V30 4947 C 462.817 0.696923 -1.74713 0
M  V30 4948 O 462.175 1.48056 -1.04638 0
M  V30 4949 C 462.223 -1.08783 -3.438 0
M  V30 4950 O 461.327 -0.20383 -4.11896 0
M  V30 4951 H 460.668 -0.27284 -0.605355 0
M  V30 4952 H 463.198 -1.36966 -1.51992 0
M  V30 4953 H 463.208 -1.04276 -3.9445 0
M  V30 4954 H 461.883 -2.13274 -3.57053 0
M  V30 4955 H 460.46 -0.307091 -3.71633 0
M  V30 4956 N 462.645 1.35699 -0.801477 0
M  V30 4957 C 463.87 2.03687 -0.390678 0
M  V30 4958 C 464.295 1.60015 0.988778 0
M  V30 4959 O 463.653 0.774357 1.63931 0
M  V30 4960 C 463.701 3.57439 -0.476404 0
M  V30 4961 O 462.805 4.09208 0.512106 0
M  V30 4962 H 462.146 0.64344 -0.163956 0
M  V30 4963 H 464.676 1.73403 -1.08594 0
M  V30 4964 H 464.686 4.06544 -0.344357 0
M  V30 4965 H 463.361 3.88576 -1.48262 0
M  V30 4966 H 461.938 3.7134 0.340721 0
M  V30 4967 N 464.123 0.554532 1.47522 0
M  V30 4968 C 465.053 -0.182974 2.32782 0
M  V30 4969 C 466.034 -0.911377 1.43624 0
M  V30 4970 O 467.219 -0.892366 1.72483 0
M  V30 4971 C 464.349 -1.21513 3.25349 0
M  V30 4972 C 463.303 -0.603355 4.23726 0
M  V30 4973 C 462.629 -1.73995 5.05598 0
M  V30 4974 C 463.929 0.441121 5.20434 0
M  V30 4975 H 465.623 0.52882 2.94693 0
M  V30 4976 H 463.169 0.255759 1.41711 0
M  V30 4977 H 465.122 -1.73922 3.83835 0
M  V30 4978 H 463.846 -1.95683 2.61487 0
M  V30 4979 H 462.505 -0.10059 3.66462 0
M  V30 4980 H 462.153 -2.47063 4.38143 0
M  V30 4981 H 461.853 -1.3364 5.72201 0
M  V30 4982 H 463.377 -2.26735 5.66942 0
M  V30 4983 H 464.791 0.00319931 5.733 0
M  V30 4984 H 463.188 0.763402 5.95224 0
M  V30 4985 H 464.258 1.33799 4.66075 0
M  V30 4986 N 465.601 -1.54893 0.290851 0
M  V30 4987 C 466.548 -2.23138 -0.58974 0
M  V30 4988 C 467.518 -1.21036 -1.13752 0
M  V30 4989 O 468.703 -1.49626 -1.18392 0
M  V30 4990 C 465.843 -2.96811 -1.76061 0
M  V30 4991 C 464.956 -4.13665 -1.24519 0
M  V30 4992 C 464.091 -4.74944 -2.3791 0
M  V30 4993 C 463.13 -5.83963 -1.83451 0
M  V30 4994 N 462.267 -6.39239 -2.90376 0
M  V30 4995 H 467.107 -2.98 -0.00114915 0
M  V30 4996 H 464.644 -1.47096 0.0112006 0
M  V30 4997 H 466.602 -3.37751 -2.44909 0
M  V30 4998 H 465.232 -2.24344 -2.32098 0
M  V30 4999 H 464.284 -3.77737 -0.449288 0
M  V30 5000 H 465.596 -4.92238 -0.806424 0
M  V30 5001 H 464.75 -5.18684 -3.14724 0
M  V30 5002 H 463.489 -3.95682 -2.85109 0
M  V30 5003 H 462.494 -5.39657 -1.05122 0
M  V30 5004 H 463.719 -6.65103 -1.37169 0
M  V30 5005 H 461.665 -5.62864 -3.36927 0
M  V30 5006 H 461.582 -7.13129 -2.50965 0
M  V30 5007 H 462.85 -6.87637 -3.67118 0
M  V30 5008 N 467.08 -0.0183926 -1.57589 0
M  V30 5009 C 467.99 0.982943 -2.13015 0
M  V30 5010 C 469.006 1.36443 -1.07979 0
M  V30 5011 O 470.182 1.44802 -1.3998 0
M  V30 5012 C 467.247 2.25024 -2.63752 0
M  V30 5013 C 466.308 1.93018 -3.83461 0
M  V30 5014 C 465.541 3.13706 -4.31769 0
M  V30 5015 O 465.764 4.2601 -3.79305 0
M  V30 5016 O 464.698 2.96629 -5.23732 0
M  V30 5017 H 468.524 0.541709 -2.9883 0
M  V30 5018 H 466.109 0.201565 -1.48034 0
M  V30 5019 H 467.991 2.99441 -2.96502 0
M  V30 5020 H 466.666 2.68349 -1.81026 0
M  V30 5021 H 465.573 1.16019 -3.55655 0
M  V30 5022 H 466.906 1.54516 -4.67317 0
M  V30 5023 N 468.558 1.5553 0.254621 0
M  V30 5024 C 469.505 1.89666 1.31512 0
M  V30 5025 C 470.475 0.750057 1.482 0
M  V30 5026 O 471.66 1.00301 1.62309 0
M  V30 5027 C 468.8 2.19009 2.667 0
M  V30 5028 C 467.913 3.46435 2.58083 0
M  V30 5029 C 467.048 3.65386 3.85573 0
M  V30 5030 C 466.087 4.8644 3.71541 0
M  V30 5031 N 465.224 5.01952 4.90906 0
M  V30 5032 H 470.064 2.80109 1.017 0
M  V30 5033 H 467.601 1.38666 0.490938 0
M  V30 5034 H 469.559 2.34025 3.45381 0
M  V30 5035 H 468.189 1.31779 2.94676 0
M  V30 5036 H 467.241 3.39792 1.71013 0
M  V30 5037 H 468.553 4.35258 2.43622 0
M  V30 5038 H 467.707 3.80319 4.72697 0
M  V30 5039 H 466.446 2.74781 4.02922 0
M  V30 5040 H 465.451 4.71491 2.82801 0
M  V30 5041 H 466.676 5.78497 3.55694 0
M  V30 5042 H 464.622 4.14283 5.08631 0
M  V30 5043 H 464.539 5.84851 4.79046 0
M  V30 5044 H 465.807 5.21289 5.7955 0
M  V30 5045 N 470.036 -0.519951 1.48776 0
M  V30 5046 C 471.282 -1.27711 1.57536 0
M  V30 5047 C 471.615 -1.92547 0.252866 0
M  V30 5048 O 470.89 -1.7979 -0.742021 0
M  V30 5049 C 471.173 -2.35875 2.72094 0
M  V30 5050 C 471.026 -1.75664 4.1408 0
M  V30 5051 C 472.345 -3.37575 2.82367 0
M  V30 5052 H 469.464 -0.462971 0.573434 0
M  V30 5053 H 472.106 -0.578194 1.80989 0
M  V30 5054 H 470.256 -2.95488 2.52228 0
M  V30 5055 H 471.928 -1.20025 4.45412 0
M  V30 5056 H 470.171 -1.06154 4.20611 0
M  V30 5057 H 470.842 -2.54029 4.90075 0
M  V30 5058 H 473.318 -2.87929 3.00393 0
M  V30 5059 H 472.194 -4.1064 3.64233 0
M  V30 5060 H 472.455 -3.98743 1.90936 0
M  V30 5061 N 471.514 -1.37532 -0.769588 0
M  V30 5062 C 472.462 -1.33561 -1.90432 0
M  V30 5063 C 473.456 -0.224027 -1.67912 0
M  V30 5064 O 474.662 -0.392174 -1.75676 0
M  V30 5065 H 471.037 -0.416279 -0.626271 0
M  V30 5066 H 473.008 -2.29348 -1.90899 0
M  V30 5067 C 471.757 -1.16162 -3.27722 0
M  V30 5068 H 471.08 -2.00951 -3.45628 0
M  V30 5069 H 472.52 -1.17434 -4.07413 0
M  V30 5070 C 470.979 0.132583 -3.36639 0
M  V30 5071 O 471.509 1.11539 -3.85904 0
M  V30 5072 N 469.715 0.184013 -2.90017 0
M  V30 5073 H 469.262 -0.616415 -2.50116 0
M  V30 5074 H 469.22 1.04956 -2.96364 0
M  V30 5075 N 472.992 0.995999 -1.22138 0
M  V30 5076 C 474.22 1.77066 -1.07029 0
M  V30 5077 C 474.635 1.8495 0.379357 0
M  V30 5078 O 473.992 1.3174 1.26297 0
M  V30 5079 C 474.043 3.20533 -1.67155 0
M  V30 5080 O 473.764 3.13082 -3.06449 0
M  V30 5081 C 475.265 4.14461 -1.5728 0
M  V30 5082 H 472.485 0.556179 -0.375374 0
M  V30 5083 H 475.029 1.25238 -1.61666 0
M  V30 5084 H 473.184 3.6944 -1.16589 0
M  V30 5085 H 473.598 4.03283 -3.35355 0
M  V30 5086 H 475.072 5.1289 -2.04078 0
M  V30 5087 H 475.549 4.36005 -0.528795 0
M  V30 5088 H 476.155 3.71449 -2.07136 0
M  V30 5089 N 474.47 1.03057 1.19235 0
M  V30 5090 C 475.433 0.617418 2.20727 0
M  V30 5091 C 476.433 -0.319856 1.57587 0
M  V30 5092 O 477.623 -0.106633 1.73873 0
M  V30 5093 C 474.755 -0.096296 3.40764 0
M  V30 5094 H 475.948 1.51544 2.58794 0
M  V30 5095 H 473.501 0.821949 1.32942 0
M  V30 5096 H 474.236 -1.00859 3.08217 0
M  V30 5097 H 474.021 0.577217 3.87828 0
M  V30 5098 H 475.511 -0.372219 4.15938 0
M  V30 5099 N 475.948 -1.35272 0.808662 0
M  V30 5100 C 476.88 -2.28507 0.178149 0
M  V30 5101 C 477.893 -1.50377 -0.623754 0
M  V30 5102 O 479.082 -1.72583 -0.455774 0
M  V30 5103 C 476.182 -3.30038 -0.769959 0
M  V30 5104 C 475.355 -4.37398 -0.0139749 0
M  V30 5105 C 474.414 -5.18775 -0.880875 0
M  V30 5106 O 473.44 -5.68236 -0.331059 0
M  V30 5107 N 474.642 -5.37087 -2.20267 0
M  V30 5108 H 477.407 -2.83255 0.979106 0
M  V30 5109 H 474.968 -1.47643 0.664308 0
M  V30 5110 H 476.96 -3.81371 -1.35418 0
M  V30 5111 H 475.53 -2.75789 -1.47171 0
M  V30 5112 H 474.75 -3.86971 0.751468 0
M  V30 5113 H 476.038 -5.06268 0.506965 0
M  V30 5114 H 475.436 -4.9855 -2.67328 0
M  V30 5115 H 473.993 -5.91593 -2.73608 0
M  V30 5116 N 477.426 -0.562348 -1.47226 0
M  V30 5117 C 478.666 -0.0426374 -2.04356 0
M  V30 5118 C 479.03 1.28487 -1.42671 0
M  V30 5119 O 480.231 1.89259 -1.90878 0
M  V30 5120 C 478.502 0.0433826 -3.57374 0
M  V30 5121 S 480.061 0.508472 -4.35844 0
M  V30 5122 H 476.879 -0.0276234 -0.710463 0
M  V30 5123 H 479.481 -0.750245 -1.80531 0
M  V30 5124 H 478.185 -0.927072 -3.99792 0
M  V30 5125 H 477.716 0.774387 -3.85703 0
M  V30 5126 H 479.731 1.76719 -4.63665 0
M  V30 5127 N 478.904 1.54736 -0.299062 0
M  V30 5128 C 480.315 1.8569 0.193971 0
M  V30 5129 C 480.666 1.22101 1.53577 0
M  V30 5130 O 479.791 0.51799 2.10109 0
M  V30 5131 C 480.386 3.36895 0.358733 0
M  V30 5132 C 478.945 3.67887 0.795986 0
M  V30 5133 C 478.092 2.77131 -0.096807 0
M  V30 5134 H 481.043 1.49934 -0.520134 0
M  V30 5135 H 481.064 3.61294 1.19361 0
M  V30 5136 H 480.576 3.83148 -0.617998 0
M  V30 5137 H 478.677 3.27151 1.78334 0
M  V30 5138 H 478.79 4.75114 0.616718 0
M  V30 5139 H 477.154 2.51153 0.423581 0
M  V30 5140 H 477.937 3.26204 -1.06986 0
M  V30 5141 N 480.382 0.0267497 1.57577 0
M  V30 5142 C 481.312 -0.954308 2.13108 0
M  V30 5143 C 482.293 -1.34088 1.04663 0
M  V30 5144 O 483.478 -1.41992 1.32484 0
M  V30 5145 C 480.608 -2.23744 2.65624 0
M  V30 5146 C 479.562 -1.99168 3.78835 0
M  V30 5147 C 478.888 -3.33726 4.17769 0
M  V30 5148 C 480.188 -1.33277 5.0501 0
M  V30 5149 H 481.882 -0.491848 2.95332 0
M  V30 5150 H 479.428 -0.23514 1.42067 0
M  V30 5151 H 481.381 -2.92754 3.03106 0
M  V30 5152 H 480.105 -2.72151 1.80558 0
M  V30 5153 H 478.764 -1.32577 3.41788 0
M  V30 5154 H 478.412 -3.79888 3.29688 0
M  V30 5155 H 478.112 -3.18089 4.94058 0
M  V30 5156 H 479.636 -4.04008 4.57832 0
M  V30 5157 H 481.05 -1.92283 5.40093 0
M  V30 5158 H 479.447 -1.28045 5.8628 0
M  V30 5159 H 480.517 -0.305411 4.83937 0
M  V30 5160 N 481.861 -1.55662 -0.24637 0
M  V30 5161 C 483.272 -1.67953 -0.81539 0
M  V30 5162 C 483.623 -0.624302 -1.86002 0
M  V30 5163 O 482.748 0.229328 -2.15181 0
M  V30 5164 C 483.343 -3.04484 -1.48576 0
M  V30 5165 C 481.902 -3.18713 -2.00248 0
M  V30 5166 C 481.049 -2.6383 -0.853766 0
M  V30 5167 H 484 -1.58685 -0.0221692 0
M  V30 5168 H 484.021 -2.98959 -2.3538 0
M  V30 5169 H 483.533 -3.81264 -0.725222 0
M  V30 5170 H 481.634 -2.46757 -2.79181 0
M  V30 5171 H 481.747 -4.25628 -2.1995 0
M  V30 5172 H 480.111 -2.21667 -1.25442 0
M  V30 5173 H 480.894 -3.43135 -0.106302 0
M  V30 5174 N 483.339 0.512053 -1.4905 0
M  V30 5175 C 484.269 1.62365 -1.67809 0
M  V30 5176 C 485.25 1.61737 -0.526809 0
M  V30 5177 O 486.435 1.78651 -0.761404 0
M  V30 5178 C 483.565 3.00895 -1.73435 0
M  V30 5179 C 482.519 3.16387 -2.88242 0
M  V30 5180 C 481.845 4.56157 -2.78971 0
M  V30 5181 C 483.145 2.97457 -4.29321 0
M  V30 5182 H 484.839 1.46921 -2.60873 0
M  V30 5183 H 482.385 0.705379 -1.2554 0
M  V30 5184 H 484.338 3.78549 -1.85145 0
M  V30 5185 H 483.062 3.17403 -0.769619 0
M  V30 5186 H 481.721 2.41155 -2.76116 0
M  V30 5187 H 481.369 4.69525 -1.8043 0
M  V30 5188 H 481.069 4.67465 -3.5602 0
M  V30 5189 H 482.593 5.35886 -2.92675 0
M  V30 5190 H 484.007 3.64888 -4.42187 0
M  V30 5191 H 482.404 3.20245 -5.07507 0
M  V30 5192 H 483.474 1.93692 -4.44535 0
M  V30 5193 N 484.817 1.37938 0.762283 0
M  V30 5194 C 486.064 1.33668 1.52115 0
M  V30 5195 C 486.392 -0.0759538 1.94352 0
M  V30 5196 O 485.647 -1.05121 1.6507 0
M  V30 5197 C 485.946 2.23042 2.79261 0
M  V30 5198 C 485.612 3.71159 2.56031 0
M  V30 5199 C 484.274 4.11523 2.49404 0
M  V30 5200 C 486.626 4.64955 2.35513 0
M  V30 5201 C 483.954 5.43784 2.20263 0
M  V30 5202 C 486.306 5.97464 2.07894 0
M  V30 5203 C 484.97 6.36922 1.99718 0
M  V30 5204 H 484.24 0.489127 0.556629 0
M  V30 5205 H 486.887 1.70224 0.877262 0
M  V30 5206 H 485.192 1.79512 3.48256 0
M  V30 5207 H 486.889 2.17047 3.37182 0
M  V30 5208 H 483.479 3.39153 2.62056 0
M  V30 5209 H 487.663 4.34623 2.39617 0
M  V30 5210 H 482.919 5.73307 2.12435 0
M  V30 5211 H 487.093 6.6969 1.91019 0
M  V30 5212 H 484.72 7.39331 1.76902 0
M  V30 5213 N 486.295 -0.989507 1.22664 0
M  V30 5214 C 487.523 -1.76496 1.07967 0
M  V30 5215 C 487.938 -1.85148 -0.369543 0
M  V30 5216 O 487.295 -1.32408 -1.25596 0
M  V30 5217 C 487.346 -3.19642 1.68853 0
M  V30 5218 O 487.067 -3.11453 3.08105 0
M  V30 5219 C 488.568 -4.13621 1.59475 0
M  V30 5220 H 485.788 -0.55418 0.378319 0
M  V30 5221 H 488.332 -1.24378 1.62328 0
M  V30 5222 H 486.487 -3.68816 1.18547 0
M  V30 5223 H 486.901 -4.01499 3.37489 0
M  V30 5224 H 488.375 -5.11801 2.06795 0
M  V30 5225 H 488.852 -4.35718 0.55191 0
M  V30 5226 H 489.458 -3.70346 2.09103 0
M  V30 5227 N 487.773 -1.03688 -1.18687 0
M  V30 5228 C 489.013 -0.746858 -1.90267 0
M  V30 5229 C 489.377 0.712075 -1.78307 0
M  V30 5230 O 490.578 1.11553 -2.44559 0
M  V30 5231 C 488.849 -1.19543 -3.36815 0
M  V30 5232 S 490.408 -1.03047 -4.26529 0
M  V30 5233 H 487.226 -0.271663 -0.657054 0
M  V30 5234 H 489.828 -1.32838 -1.43437 0
M  V30 5235 H 488.532 -2.2527 -3.43047 0
M  V30 5236 H 488.063 -0.607533 -3.88681 0
M  V30 5237 H 490.078 0.0543232 -4.9617 0
M  V30 5238 N 489.251 1.34841 -0.815825 0
M  V30 5239 C 490.181 2.32187 -0.247298 0
M  V30 5240 C 491.162 1.5791 0.632344 0
M  V30 5241 O 492.347 1.8593 0.560698 0
M  V30 5242 C 489.477 3.42122 0.597466 0
M  V30 5243 C 488.431 4.27602 -0.184446 0
M  V30 5244 C 487.757 5.28942 0.782609 0
M  V30 5245 C 489.057 5.03502 -1.38865 0
M  V30 5246 H 490.751 2.79985 -1.06061 0
M  V30 5247 H 488.297 1.34611 -0.511461 0
M  V30 5248 H 490.25 4.09232 1.00533 0
M  V30 5249 H 488.974 2.92956 1.44376 0
M  V30 5250 H 487.633 3.62085 -0.573592 0
M  V30 5251 H 487.281 4.7604 1.62466 0
M  V30 5252 H 486.981 5.87008 0.263695 0
M  V30 5253 H 488.505 5.98922 1.18848 0
M  V30 5254 H 489.919 5.63506 -1.05518 0
M  V30 5255 H 488.316 5.71108 -1.8427 0
M  V30 5256 H 489.386 4.33608 -2.17054 0
M  V30 5257 N 490.729 0.570148 1.46925 0
M  V30 5258 C 491.679 -0.190921 2.27199 0
M  V30 5259 C 492.663 -0.873457 1.35128 0
M  V30 5260 O 493.855 -0.769627 1.59392 0
M  V30 5261 C 490.984 -1.21204 3.21192 0
M  V30 5262 C 490.07 -0.532261 4.20747 0
M  V30 5263 N 490.461 0.405038 5.04176 0
M  V30 5264 C 488.759 -0.784582 4.39045 0
M  V30 5265 C 489.46 0.801149 5.76157 0
M  V30 5266 N 488.436 0.153082 5.43384 0
M  V30 5267 H 492.238 0.529535 2.8909 0
M  V30 5268 H 489.752 0.391019 1.57622 0
M  V30 5269 H 491.749 -1.77135 3.77398 0
M  V30 5270 H 490.409 -1.93345 2.6086 0
M  V30 5271 H 491.42 0.779903 5.11994 0
M  V30 5272 H 488.097 -1.49352 3.89872 0
M  V30 5273 H 489.487 1.57208 6.5325 0
M  V30 5274 N 492.207 -1.54576 0.307264 0
M  V30 5275 C 493.453 -2.0056 -0.300612 0
M  V30 5276 C 493.786 -1.1953 -1.53057 0
M  V30 5277 O 493.061 -0.27337 -1.92569 0
M  V30 5278 C 493.344 -3.54167 -0.650987 0
M  V30 5279 C 493.197 -4.45933 0.588539 0
M  V30 5280 C 494.516 -4.14645 -1.47506 0
M  V30 5281 H 491.635 -0.729075 -0.107788 0
M  V30 5282 H 494.277 -1.85286 0.420606 0
M  V30 5283 H 492.427 -3.67313 -1.26544 0
M  V30 5284 H 494.099 -4.44683 1.22697 0
M  V30 5285 H 492.342 -4.16274 1.22058 0
M  V30 5286 H 493.013 -5.51189 0.299153 0
M  V30 5287 H 495.489 -4.04973 -0.955821 0
M  V30 5288 H 494.365 -5.22269 -1.68899 0
M  V30 5289 H 494.626 -3.66921 -2.4662 0
M  V30 5290 N 493.685 -0.035106 -1.57561 0
M  V30 5291 C 494.632 0.94474 -2.10578 0
M  V30 5292 C 495.602 1.3192 -1.00927 0
M  V30 5293 O 496.787 1.41147 -1.28382 0
M  V30 5294 C 493.927 2.21982 -2.64231 0
M  V30 5295 C 493.04 1.90128 -3.87911 0
M  V30 5296 C 492.175 3.11975 -4.29936 0
M  V30 5297 C 491.214 2.75968 -5.46359 0
M  V30 5298 N 490.351 3.90459 -5.83512 0
M  V30 5299 H 495.191 0.485717 -2.94015 0
M  V30 5300 H 492.728 0.228143 -1.4532 0
M  V30 5301 H 494.686 2.96572 -2.9343 0
M  V30 5302 H 493.316 2.6549 -1.83616 0
M  V30 5303 H 492.368 1.05755 -3.65404 0
M  V30 5304 H 493.68 1.59613 -4.72573 0
M  V30 5305 H 492.834 3.9488 -4.60603 0
M  V30 5306 H 491.573 3.45657 -3.44053 0
M  V30 5307 H 490.578 1.91478 -5.1538 0
M  V30 5308 H 491.803 2.43497 -6.33945 0
M  V30 5309 H 489.749 4.23971 -5.00584 0
M  V30 5310 H 489.666 3.63588 -6.62827 0
M  V30 5311 H 490.934 4.7405 -6.18787 0
M  V30 5312 N 495.163 1.55791 0.238111 0
M  V30 5313 C 496.574 1.68383 0.806472 0
M  V30 5314 C 496.925 0.634157 1.85669 0
M  V30 5315 O 496.05 -0.217913 2.153 0
M  V30 5316 C 496.645 3.05268 1.46959 0
M  V30 5317 C 495.204 3.1977 1.98555 0
M  V30 5318 C 494.351 2.64279 0.839763 0
M  V30 5319 H 497.302 1.58694 0.0137535 0
M  V30 5320 H 497.323 3.00203 2.33792 0
M  V30 5321 H 496.835 3.81643 0.704993 0
M  V30 5322 H 494.936 2.48234 2.77868 0
M  V30 5323 H 495.049 4.26788 2.17689 0
M  V30 5324 H 493.413 2.22329 1.24265 0
M  V30 5325 H 494.196 3.43187 0.0881032 0
M  V30 5326 N 496.642 -0.504142 1.49319 0
M  V30 5327 C 497.919 -1.26548 1.49147 0
M  V30 5328 C 498.299 -2.09977 0.21744 0
M  V30 5329 O 497.647 -2.14028 -0.800269 0
M  V30 5330 C 497.857 -2.12489 2.76857 0
M  V30 5331 C 499.205 -2.7178 3.26222 0
M  V30 5332 O 500.229 -2.22758 2.77952 0
M  V30 5333 O 499.088 -3.61015 4.10281 0
M  V30 5334 H 496.182 -0.572495 0.596806 0
M  V30 5335 H 498.728 -0.51867 1.61579 0
M  V30 5336 H 497.5 -1.50796 3.61077 0
M  V30 5337 H 497.123 -2.94368 2.6727 0
M  V30 5338 N 498.12 -1.38341 -0.754957 0
M  V30 5339 C 499.366 -1.34672 -1.51628 0
M  V30 5340 C 499.699 0.0636036 -1.94096 0
M  V30 5341 O 498.974 1.0245 -1.6533 0
M  V30 5342 C 499.257 -2.30116 -2.76981 0
M  V30 5343 C 499.11 -3.80003 -2.4066 0
M  V30 5344 C 500.429 -2.23715 -3.78998 0
M  V30 5345 H 497.548 -0.490517 -0.550056 0
M  V30 5346 H 500.19 -1.69178 -0.864807 0
M  V30 5347 H 498.34 -2.00821 -3.3257 0
M  V30 5348 H 500.012 -4.19966 -1.90856 0
M  V30 5349 H 498.255 -3.97751 -1.73137 0
M  V30 5350 H 498.926 -4.42244 -3.30339 0
M  V30 5351 H 501.402 -2.49574 -3.32945 0
M  V30 5352 H 500.278 -2.9261 -4.64403 0
M  V30 5353 H 500.539 -1.23554 -4.24484 0
M  V30 5354 N 499.598 0.982988 -1.23187 0
M  V30 5355 C 500.823 1.76455 -1.08988 0
M  V30 5356 C 501.248 1.84726 0.354691 0
M  V30 5357 O 500.606 1.30699 1.25649 0
M  V30 5358 C 500.654 3.17094 -1.71708 0
M  V30 5359 O 499.758 4.00648 -0.977477 0
M  V30 5360 H 499.099 0.542988 -0.382177 0
M  V30 5361 H 501.629 1.23413 -1.63188 0
M  V30 5362 H 501.639 3.67684 -1.76841 0
M  V30 5363 H 500.314 3.10389 -2.76823 0
M  V30 5364 H 498.891 3.59161 -1.0029 0
M  V30 5365 N 501.076 1.04316 1.18135 0
M  V30 5366 C 501.986 0.646876 2.25505 0
M  V30 5367 C 503.002 -0.328008 1.7088 0
M  V30 5368 O 504.178 -0.182309 2.00573 0
M  V30 5369 C 501.243 0.0185664 3.46695 0
M  V30 5370 C 500.304 1.04277 4.16443 0
M  V30 5371 C 499.537 0.444352 5.31847 0
M  V30 5372 O 499.76 -0.748735 5.65465 0
M  V30 5373 O 498.694 1.17428 5.90334 0
M  V30 5374 H 502.52 1.54147 2.61672 0
M  V30 5375 H 500.105 0.814188 1.25265 0
M  V30 5376 H 501.987 -0.331068 4.20097 0
M  V30 5377 H 500.662 -0.849814 3.12346 0
M  V30 5378 H 499.569 1.44425 3.45098 0
M  V30 5379 H 500.902 1.882 4.54798 0
M  V30 5380 N 502.554 -1.34406 0.822964 0
M  V30 5381 C 503.484 -2.32052 0.259608 0
M  V30 5382 C 504.465 -1.58243 -0.623961 0
M  V30 5383 O 505.65 -1.86224 -0.55083 0
M  V30 5384 C 502.78 -3.42434 -0.579314 0
M  V30 5385 C 501.734 -4.27499 0.20712 0
M  V30 5386 C 501.06 -5.29349 -0.754547 0
M  V30 5387 C 502.36 -5.02758 1.41533 0
M  V30 5388 H 504.054 -2.79418 1.07545 0
M  V30 5389 H 501.6 -1.34338 0.518593 0
M  V30 5390 H 503.553 -4.0976 -0.983612 0
M  V30 5391 H 502.277 -2.93717 -1.4282 0
M  V30 5392 H 500.936 -3.61776 0.592787 0
M  V30 5393 H 500.584 -4.76895 -1.59939 0
M  V30 5394 H 500.284 -5.8714 -0.232561 0
M  V30 5395 H 501.808 -5.99544 -1.1567 0
M  V30 5396 H 503.222 -5.62938 1.08504 0
M  V30 5397 H 501.619 -5.70123 1.87296 0
M  V30 5398 H 502.689 -4.32451 2.1935 0
M  V30 5399 N 504.032 -0.577932 -1.46621 0
M  V30 5400 C 504.965 0.206312 -2.27265 0
M  V30 5401 C 505.943 0.901306 -1.35334 0
M  V30 5402 O 507.127 0.916151 -1.64739 0
M  V30 5403 C 504.254 1.29563 -3.1294 0
M  V30 5404 C 503.3 0.706981 -4.206 0
M  V30 5405 S 504.133 -0.462459 -5.33499 0
M  V30 5406 C 505.289 0.628171 -6.2274 0
M  V30 5407 H 505.522 -0.477961 -2.93433 0
M  V30 5408 H 503.055 -0.364715 -1.50031 0
M  V30 5409 H 505.013 1.91935 -3.62865 0
M  V30 5410 H 503.674 1.95183 -2.46095 0
M  V30 5411 H 502.867 1.52565 -4.80354 0
M  V30 5412 H 502.469 0.159022 -3.73662 0
M  V30 5413 H 504.761 1.51506 -6.60342 0
M  V30 5414 H 505.704 0.0674961 -7.08068 0
M  V30 5415 H 506.112 0.930167 -5.56784 0
M  V30 5416 N 505.51 1.54411 -0.315457 0
M  V30 5417 C 506.757 2.00419 0.289543 0
M  V30 5418 C 507.085 1.20373 1.52776 0
M  V30 5419 O 506.34 0.271769 1.93804 0
M  V30 5420 C 506.639 3.50936 0.676652 0
M  V30 5421 C 506.305 4.48532 -0.461472 0
M  V30 5422 C 504.967 4.74936 -0.773879 0
M  V30 5423 C 507.319 5.06567 -1.22637 0
M  V30 5424 C 504.647 5.56634 -1.85405 0
M  V30 5425 C 506.999 5.89441 -2.29657 0
M  V30 5426 C 505.663 6.1415 -2.61488 0
M  V30 5427 H 504.933 0.733386 0.105951 0
M  V30 5428 H 507.58 1.86434 -0.437554 0
M  V30 5429 H 505.885 3.62606 1.48405 0
M  V30 5430 H 507.582 3.83971 1.15618 0
M  V30 5431 H 504.172 4.28096 -0.207893 0
M  V30 5432 H 508.356 4.86157 -0.998271 0
M  V30 5433 H 503.612 5.74012 -2.10523 0
M  V30 5434 H 507.786 6.33432 -2.89374 0
M  V30 5435 H 505.413 6.77245 -3.45317 0
M  V30 5436 N 506.988 0.0434614 1.5754 0
M  V30 5437 C 507.951 -0.918696 2.09982 0
M  V30 5438 C 508.951 -1.24488 1.01781 0
M  V30 5439 O 510.141 -1.18284 1.27885 0
M  V30 5440 C 507.273 -2.23093 2.57764 0
M  V30 5441 H 508.466 -0.464229 2.96285 0
M  V30 5442 H 506.019 -0.204818 1.54952 0
M  V30 5443 H 506.754 -2.73137 1.74832 0
M  V30 5444 H 506.539 -2.00724 3.36827 0
M  V30 5445 H 508.029 -2.92028 2.98512 0
M  V30 5446 N 508.466 -1.55915 -0.229846 0
M  V30 5447 C 509.743 -1.6932 -0.979295 0
M  V30 5448 C 510.123 -0.588321 -2.02736 0
M  V30 5449 O 509.471 0.40586 -2.24867 0
M  V30 5450 C 509.681 -3.10305 -1.59724 0
M  V30 5451 C 511.029 -3.6945 -2.09264 0
M  V30 5452 O 512.053 -3.13214 -1.69633 0
M  V30 5453 O 510.912 -4.68072 -2.82082 0
M  V30 5454 H 508.006 -0.689314 -0.456919 0
M  V30 5455 H 510.552 -1.68238 -0.222283 0
M  V30 5456 H 509.324 -3.82177 -0.840039 0
M  V30 5457 H 508.947 -3.1547 -2.42001 0
M  V30 5458 N 509.944 0.496216 -1.49584 0
M  V30 5459 C 511.19 1.24918 -1.60521 0
M  V30 5460 C 511.545 1.90197 -0.290352 0
M  V30 5461 O 510.838 1.77967 0.709813 0
M  V30 5462 C 511.032 2.3359 -2.705 0
M  V30 5463 C 510.861 1.78969 -4.12553 0
M  V30 5464 C 509.631 1.60057 -4.79281 0
M  V30 5465 C 511.829 1.29883 -4.97629 0
M  V30 5466 N 509.811 1.00415 -6.05632 0
M  V30 5467 C 511.182 0.824057 -6.14499 0
M  V30 5468 C 513.237 1.18501 -4.83593 0
M  V30 5469 C 511.94 0.246721 -7.18877 0
M  V30 5470 C 513.966 0.621634 -5.88124 0
M  V30 5471 C 513.328 0.157116 -7.04225 0
M  V30 5472 H 509.427 0.446896 -0.641722 0
M  V30 5473 H 512.011 0.555456 -1.86609 0
M  V30 5474 H 510.182 3.00418 -2.46178 0
M  V30 5475 H 511.914 3.00628 -2.70933 0
M  V30 5476 H 508.669 1.84562 -4.36158 0
M  V30 5477 H 509.093 0.725074 -6.73106 0
M  V30 5478 H 513.735 1.53012 -3.94141 0
M  V30 5479 H 511.453 -0.110651 -8.08024 0
M  V30 5480 H 515.039 0.536279 -5.79323 0
M  V30 5481 H 513.919 -0.272009 -7.83728 0
M  V30 5482 N 511.423 1.38739 0.74761 0
M  V30 5483 C 512.669 1.35475 1.50912 0
M  V30 5484 C 513.002 -0.0533093 1.94127 0
M  V30 5485 O 512.277 -1.01572 1.65871 0
M  V30 5486 C 512.56 2.31582 2.75757 0
M  V30 5487 C 512.413 3.81274 2.38642 0
M  V30 5488 C 513.732 2.25722 3.77806 0
M  V30 5489 H 510.851 0.493427 0.547447 0
M  V30 5490 H 513.493 1.69634 0.855823 0
M  V30 5491 H 511.643 2.02582 3.31501 0
M  V30 5492 H 513.315 4.20972 1.88626 0
M  V30 5493 H 511.558 3.98664 1.71025 0
M  V30 5494 H 512.229 4.4399 3.27989 0
M  V30 5495 H 514.705 2.51336 3.31616 0
M  V30 5496 H 513.581 2.95069 4.62845 0
M  V30 5497 H 513.842 1.25803 4.23823 0
M  V30 5498 N 512.901 -0.976442 1.23707 0
M  V30 5499 C 513.811 -2.10359 1.03856 0
M  V30 5500 C 514.827 -1.73991 -0.0180919 0
M  V30 5501 O 516.003 -2.0061 0.178211 0
M  V30 5502 C 513.068 -3.40809 0.636387 0
M  V30 5503 C 512.129 -3.91179 1.76854 0
M  V30 5504 C 511.362 -5.15404 1.38546 0
M  V30 5505 O 511.585 -5.69754 0.27142 0
M  V30 5506 O 510.519 -5.5994 2.20797 0
M  V30 5507 H 514.345 -2.29997 1.98331 0
M  V30 5508 H 511.93 -1.08742 1.02448 0
M  V30 5509 H 513.812 -4.19269 0.423223 0
M  V30 5510 H 512.487 -3.22493 -0.279322 0
M  V30 5511 H 511.394 -3.13819 2.03638 0
M  V30 5512 H 512.727 -4.13958 2.6627 0
M  V30 5513 N 514.379 -1.04941 -1.1758 0
M  V30 5514 C 515.626 -0.757989 -1.87779 0
M  V30 5515 C 515.954 0.714827 -1.80888 0
M  V30 5516 O 515.209 1.53824 -1.20982 0
M  V30 5517 C 515.508 -1.18062 -3.37337 0
M  V30 5518 C 515.174 -2.65521 -3.6443 0
M  V30 5519 C 513.836 -3.05804 -3.71534 0
M  V30 5520 C 516.188 -3.60822 -3.76108 0
M  V30 5521 C 513.516 -4.40256 -3.87803 0
M  V30 5522 C 515.868 -4.95005 -3.93895 0
M  V30 5523 C 514.532 -5.34945 -3.99237 0
M  V30 5524 H 513.802 -0.277368 -0.68713 0
M  V30 5525 H 516.449 -1.31603 -1.39115 0
M  V30 5526 H 514.754 -0.541525 -3.8804 0
M  V30 5527 H 516.451 -0.932368 -3.9001 0
M  V30 5528 H 513.041 -2.33324 -3.59524 0
M  V30 5529 H 517.225 -3.30841 -3.69943 0
M  V30 5530 H 512.481 -4.70707 -3.90186 0
M  V30 5531 H 516.655 -5.68746 -4.01872 0
M  V30 5532 H 514.282 -6.39135 -4.11596 0
M  V30 5533 N 515.857 1.33968 -0.830081 0
M  V30 5534 C 517.082 2.02813 -0.433796 0
M  V30 5535 C 517.507 1.62076 0.954614 0
M  V30 5536 O 516.865 0.808955 1.62252 0
M  V30 5537 C 516.913 3.56348 -0.552115 0
M  V30 5538 O 516.017 4.10202 0.425191 0
M  V30 5539 H 515.358 0.639817 -0.177567 0
M  V30 5540 H 517.888 1.7106 -1.12248 0
M  V30 5541 H 517.898 4.05722 -0.430513 0
M  V30 5542 H 516.573 3.85344 -1.56471 0
M  V30 5543 H 515.15 3.71979 0.261878 0
M  V30 5544 N 517.335 0.585699 1.46312 0
M  V30 5545 C 518.746 0.159938 1.86014 0
M  V30 5546 C 519.097 -1.27775 1.48889 0
M  V30 5547 O 518.222 -1.96559 0.90519 0
M  V30 5548 C 518.817 0.283485 3.37612 0
M  V30 5549 C 517.376 -0.0874256 3.76298 0
M  V30 5550 C 516.523 0.618055 2.70325 0
M  V30 5551 H 519.474 0.793737 1.37425 0
M  V30 5552 H 519.495 -0.490348 3.77327 0
M  V30 5553 H 519.007 1.32995 3.64601 0
M  V30 5554 H 517.108 -1.13391 3.54927 0
M  V30 5555 H 517.221 0.290975 4.78216 0
M  V30 5556 H 515.585 0.057993 2.54634 0
M  V30 5557 H 516.368 1.66623 3.00153 0
M  V30 5558 N 518.813 -1.54241 0.323641 0
M  V30 5559 C 520.043 -2.04687 -0.280464 0
M  V30 5560 C 520.451 -1.19939 -1.46326 0
M  V30 5561 O 519.794 -0.222872 -1.82343 0
M  V30 5562 C 519.856 -3.50978 -0.778123 0
M  V30 5563 C 519.52 -4.56127 0.282371 0
M  V30 5564 C 520.517 -5.07726 1.11847 0
M  V30 5565 C 518.202 -5.00451 0.430582 0
M  V30 5566 C 520.196 -6.02212 2.08851 0
M  V30 5567 C 517.883 -5.94752 1.40404 0
M  V30 5568 C 518.881 -6.45519 2.23147 0
M  V30 5569 O 518.569 -7.37968 3.1884 0
M  V30 5570 H 518.301 -0.673192 -0.0615473 0
M  V30 5571 H 520.855 -1.99999 0.467921 0
M  V30 5572 H 519.085 -3.53064 -1.57742 0
M  V30 5573 H 520.774 -3.84499 -1.30058 0
M  V30 5574 H 521.54 -4.74261 1.01496 0
M  V30 5575 H 517.419 -4.6055 -0.203569 0
M  V30 5576 H 520.963 -6.41761 2.73474 0
M  V30 5577 H 516.86 -6.27633 1.5082 0
M  V30 5578 H 517.628 -7.55841 3.14079 0
M  V30 5579 N 520.291 -0.0518155 -1.57515 0
M  V30 5580 C 521.201 0.937539 -2.15052 0
M  V30 5581 C 522.217 1.34121 -1.10849 0
M  V30 5582 O 523.393 1.418 -1.4302 0
M  V30 5583 C 520.458 2.19379 -2.68466 0
M  V30 5584 C 519.519 1.84841 -3.87469 0
M  V30 5585 C 518.752 3.04477 -4.38326 0
M  V30 5586 O 518.975 4.17868 -3.88256 0
M  V30 5587 O 517.909 2.85453 -5.29906 0
M  V30 5588 H 521.735 0.478201 -2.99912 0
M  V30 5589 H 519.32 0.17012 -1.48428 0
M  V30 5590 H 521.202 2.93084 -3.02787 0
M  V30 5591 H 519.877 2.64449 -1.86677 0
M  V30 5592 H 518.784 1.08449 -3.58036 0
M  V30 5593 H 520.117 1.44569 -4.7049 0
M  V30 5594 N 521.769 1.56035 0.221574 0
M  V30 5595 C 523.018 1.78245 0.944016 0
M  V30 5596 C 523.331 0.620371 1.85501 0
M  V30 5597 O 524.537 0.726103 2.6161 0
M  V30 5598 C 522.993 3.15659 1.7288 0
M  V30 5599 C 522.601 4.39591 0.863942 0
M  V30 5600 C 524.345 3.47195 2.44246 0
M  V30 5601 C 522.252 5.6803 1.64607 0
M  V30 5602 H 521.182 0.664547 0.356222 0
M  V30 5603 H 523.833 1.8243 0.197904 0
M  V30 5604 H 522.215 3.0565 2.51781 0
M  V30 5605 H 523.389 4.60655 0.115464 0
M  V30 5606 H 521.704 4.15572 0.262407 0
M  V30 5607 H 524.301 4.40381 3.03263 0
M  V30 5608 H 524.644 2.69693 3.1713 0
M  V30 5609 H 525.177 3.58533 1.72334 0
M  V30 5610 H 521.916 6.48425 0.960507 0
M  V30 5611 H 521.436 5.51027 2.36917 0
M  V30 5612 H 523.115 6.08203 2.20675 0
M  V30 5613 N 523.247 -0.488276 1.49845 0
M  V30 5614 C 524.495 -1.23911 1.59657 0
M  V30 5615 C 524.816 -1.92816 0.291005 0
M  V30 5616 O 524.086 -1.83328 -0.690485 0
M  V30 5617 H 522.666 -0.460357 0.588286 0
M  V30 5618 H 525.328 -0.564794 1.86537 0
M  V30 5619 H 524.424 -1.99625 2.39909 0
M  V30 5620 N 524.725 -1.39134 -0.740242 0
M  V30 5621 C 525.658 -1.3182 -1.86276 0
M  V30 5622 C 526.636 -0.192794 -1.61453 0
M  V30 5623 O 527.82 -0.372365 -1.84786 0
M  V30 5624 C 524.947 -1.04564 -3.22155 0
M  V30 5625 C 523.993 -2.19224 -3.65846 0
M  V30 5626 S 524.826 -3.81466 -3.75824 0
M  V30 5627 C 525.982 -3.56425 -5.14502 0
M  V30 5628 H 526.215 -2.26822 -1.92195 0
M  V30 5629 H 523.748 -1.25127 -0.904576 0
M  V30 5630 H 525.706 -0.895228 -4.00619 0
M  V30 5631 H 524.367 -0.112578 -3.13898 0
M  V30 5632 H 523.56 -1.95732 -4.6444 0
M  V30 5633 H 523.162 -2.30441 -2.94572 0
M  V30 5634 H 525.454 -3.13366 -6.00673 0
M  V30 5635 H 526.397 -4.54462 -5.43019 0
M  V30 5636 H 526.805 -2.90641 -4.8393 0
M  V30 5637 N 526.204 0.969867 -1.24223 0
M  V30 5638 C 527.167 2.04564 -1.03373 0
M  V30 5639 C 528.167 1.60798 0.00819206 0
M  V30 5640 O 529.357 1.72641 -0.232567 0
M  V30 5641 C 526.489 3.36163 -0.566343 0
M  V30 5642 H 527.682 2.24494 -1.98853 0
M  V30 5643 H 525.235 1.1448 -1.06415 0
M  V30 5644 H 525.97 3.21925 0.391751 0
M  V30 5645 H 525.755 3.69273 -1.31834 0
M  V30 5646 H 527.245 4.1526 -0.441435 0
M  V30 5647 N 527.682 1.05563 1.17022 0
M  V30 5648 C 528.629 0.659893 2.21165 0
M  V30 5649 C 529.599 -0.339813 1.62587 0
M  V30 5650 O 530.784 -0.230378 1.89404 0
M  V30 5651 C 527.924 0.0447297 3.45071 0
M  V30 5652 C 527.037 1.09372 4.17926 0
M  V30 5653 C 526.172 0.445481 5.29329 0
M  V30 5654 C 525.211 1.47852 5.93975 0
M  V30 5655 N 524.348 0.854172 6.96885 0
M  V30 5656 H 529.188 1.55243 2.54369 0
M  V30 5657 H 526.725 0.776336 1.24946 0
M  V30 5658 H 528.683 -0.329404 4.15898 0
M  V30 5659 H 527.313 -0.811244 3.1244 0
M  V30 5660 H 526.365 1.58564 3.45777 0
M  V30 5661 H 527.677 1.87773 4.62107 0
M  V30 5662 H 526.831 0.0179688 6.06697 0
M  V30 5663 H 525.57 -0.370481 4.86291 0
M  V30 5664 H 524.575 1.91601 5.15334 0
M  V30 5665 H 525.8 2.29645 6.39093 0
M  V30 5666 H 523.746 0.0587882 6.55974 0
M  V30 5667 H 523.663 1.57567 7.39397 0
M  V30 5668 H 524.931 0.451559 7.78191 0
M  V30 5669 N 529.16 -1.33526 0.837174 0
M  V30 5670 C 530.39 -2.01754 0.444848 0
M  V30 5671 C 530.798 -1.63149 -0.958072 0
M  V30 5672 O 530.141 -0.839827 -1.63379 0
M  V30 5673 C 530.203 -3.56228 0.483917 0
M  V30 5674 C 529.867 -4.18205 1.84265 0
M  V30 5675 C 530.864 -4.37699 2.80563 0
M  V30 5676 C 528.549 -4.54667 2.13503 0
M  V30 5677 C 530.543 -4.928 4.04261 0
M  V30 5678 C 528.23 -5.09475 3.37458 0
M  V30 5679 C 529.228 -5.28488 4.32654 0
M  V30 5680 O 528.916 -5.82132 5.54417 0
M  V30 5681 H 528.648 -0.652928 0.175104 0
M  V30 5682 H 531.202 -1.71469 1.13082 0
M  V30 5683 H 529.432 -3.85833 -0.258826 0
M  V30 5684 H 531.121 -4.05752 0.109653 0
M  V30 5685 H 531.887 -4.0988 2.59274 0
M  V30 5686 H 527.766 -4.39164 1.40201 0
M  V30 5687 H 531.31 -5.07555 4.78574 0
M  V30 5688 H 527.207 -5.36725 3.58604 0
M  V30 5689 H 527.975 -6.00548 5.56133 0
M  V30 5690 N 530.638 -0.59345 -1.46 0
M  V30 5691 C 531.886 -0.082988 -2.0193 0
M  V30 5692 C 532.207 1.28569 -1.46612 0
M  V30 5693 O 531.477 1.84629 -0.654909 0
M  V30 5694 H 530.057 -0.0276882 -0.746487 0
M  V30 5695 H 532.719 -0.771657 -1.78973 0
M  V30 5696 H 531.815 -0.022079 -3.12092 0
M  V30 5697 N 532.116 1.54067 -0.331816 0
M  V30 5698 C 533.344 2.05131 0.269996 0
M  V30 5699 C 533.759 1.20749 1.45138 0
M  V30 5700 O 533.116 0.240069 1.80914 0
M  V30 5701 C 533.167 3.54728 0.696456 0
M  V30 5702 O 532.888 4.35906 -0.43794 0
M  V30 5703 C 534.389 4.21916 1.36021 0
M  V30 5704 H 531.609 0.668807 0.0542042 0
M  V30 5705 H 534.153 1.98777 -0.4804 0
M  V30 5706 H 532.308 3.61342 1.39681 0
M  V30 5707 H 532.722 5.24404 -0.100334 0
M  V30 5708 H 534.196 5.28015 1.60947 0
M  V30 5709 H 534.673 3.73538 2.31011 0
M  V30 5710 H 535.279 4.19463 0.702212 0
M  V30 5711 N 533.594 0.0601682 1.57485 0
M  V30 5712 C 534.841 -0.611594 1.93043 0
M  V30 5713 C 535.169 -1.70317 0.939274 0
M  V30 5714 O 534.424 -1.95644 -0.046996 0
M  V30 5715 C 534.723 -1.23831 3.35262 0
M  V30 5716 C 534.389 -0.274037 4.50066 0
M  V30 5717 C 533.051 -0.00872394 4.81199 0
M  V30 5718 C 535.403 0.386308 5.19766 0
M  V30 5719 C 532.731 0.924218 5.79375 0
M  V30 5720 C 535.083 1.3075 6.1894 0
M  V30 5721 C 533.747 1.58139 6.48497 0
M  V30 5722 H 533.017 -0.223798 0.706396 0
M  V30 5723 H 535.664 0.128566 1.91068 0
M  V30 5724 H 533.969 -2.05394 3.33647 0
M  V30 5725 H 535.666 -1.76517 3.60059 0
M  V30 5726 H 532.256 -0.491008 4.25778 0
M  V30 5727 H 536.44 0.194436 4.95919 0
M  V30 5728 H 531.696 1.1438 6.00606 0
M  V30 5729 H 535.87 1.82519 6.72056 0
M  V30 5730 H 533.497 2.30593 7.24383 0
M  V30 5731 N 535.072 -1.5615 -0.213296 0
M  V30 5732 C 536.005 -1.88115 -1.29182 0
M  V30 5733 C 536.983 -0.739348 -1.44819 0
M  V30 5734 O 538.167 -0.988541 -1.605 0
M  V30 5735 C 535.294 -2.09541 -2.66102 0
M  V30 5736 C 534.34 -3.32236 -2.67436 0
M  V30 5737 S 535.173 -4.87915 -2.20679 0
M  V30 5738 C 536.329 -5.12387 -3.59458 0
M  V30 5739 H 536.562 -2.793 -1.01876 0
M  V30 5740 H 534.095 -1.48692 -0.415934 0
M  V30 5741 H 536.053 -2.22568 -3.44925 0
M  V30 5742 H 534.714 -1.19138 -2.90628 0
M  V30 5743 H 533.907 -3.44297 -3.6807 0
M  V30 5744 H 533.509 -3.18108 -1.96681 0
M  V30 5745 H 535.801 -5.01791 -4.55205 0
M  V30 5746 H 536.744 -6.14236 -3.52306 0
M  V30 5747 H 537.152 -4.40089 -3.53528 0
M  V30 5748 N 536.55 0.480323 -1.50102 0
M  V30 5749 C 537.513 1.56181 -1.6775 0
M  V30 5750 C 538.513 1.51156 -0.548503 0
M  V30 5751 O 539.703 1.5394 -0.815363 0
M  V30 5752 C 536.835 2.95823 -1.69415 0
M  V30 5753 H 538.028 1.41855 -2.6423 0
M  V30 5754 H 535.581 0.70605 -1.39444 0
M  V30 5755 H 536.316 3.15604 -0.745948 0
M  V30 5756 H 536.101 3.00878 -2.51425 0
M  V30 5757 H 537.591 3.74359 -1.85054 0
M  V30 5758 N 538.028 1.39524 0.732853 0
M  V30 5759 C 539.439 1.32905 1.31122 0
M  V30 5760 C 539.79 -0.00558708 1.96199 0
M  V30 5761 O 538.915 -0.907706 1.96443 0
M  V30 5762 C 539.51 2.40704 2.38426 0
M  V30 5763 C 538.069 2.37599 2.91931 0
M  V30 5764 C 537.216 2.2248 1.65523 0
M  V30 5765 H 540.167 1.49581 0.530207 0
M  V30 5766 H 540.188 2.07616 3.18867 0
M  V30 5767 H 539.7 3.37829 1.91033 0
M  V30 5768 H 537.801 1.44119 3.43599 0
M  V30 5769 H 537.914 3.32538 3.44899 0
M  V30 5770 H 536.278 1.69691 1.8994 0
M  V30 5771 H 537.061 3.21577 1.20178 0
M  V30 5772 N 539.506 -0.963266 1.24736 0
M  V30 5773 C 540.783 -1.68248 0.9976 0
M  V30 5774 C 541.163 -2.05599 -0.478776 0
M  V30 5775 O 540.511 -1.7626 -1.45412 0
M  V30 5776 C 540.721 -2.91118 1.92487 0
M  V30 5777 C 542.069 -3.63261 2.19833 0
M  V30 5778 O 543.093 -3.01184 1.90176 0
M  V30 5779 O 541.952 -4.75019 2.7022 0
M  V30 5780 H 539.046 -0.735744 0.377637 0
M  V30 5781 H 541.592 -1.01696 1.35853 0
M  V30 5782 H 540.364 -2.60242 2.92215 0
M  V30 5783 H 539.987 -3.65402 1.56738 0
M  V30 5784 N 540.985 -1.06182 -1.16461 0
M  V30 5785 C 541.915 -0.692861 -2.22984 0
M  V30 5786 C 542.896 0.314122 -1.67174 0
M  V30 5787 O 544.081 0.189499 -1.93273 0
M  V30 5788 C 541.211 -0.07732 -3.47214 0
M  V30 5789 C 540.165 -1.01015 -4.15909 0
M  V30 5790 C 539.491 -0.257973 -5.34077 0
M  V30 5791 C 540.791 -2.33868 -4.67015 0
M  V30 5792 H 542.485 -1.58343 -2.54102 0
M  V30 5793 H 540.031 -0.76279 -1.22137 0
M  V30 5794 H 541.984 0.19266 -4.20959 0
M  V30 5795 H 540.708 0.848254 -3.15392 0
M  V30 5796 H 539.367 -1.26486 -3.44088 0
M  V30 5797 H 539.015 0.670684 -4.98509 0
M  V30 5798 H 538.715 -0.879638 -5.80979 0
M  V30 5799 H 540.239 0.00448788 -6.106 0
M  V30 5800 H 541.653 -2.1279 -5.32347 0
M  V30 5801 H 540.05 -2.91522 -5.24533 0
M  V30 5802 H 541.12 -2.97019 -3.83286 0
M  V30 5803 N 542.463 1.3308 -0.844243 0
M  V30 5804 C 543.71 1.97605 -0.44255 0
M  V30 5805 C 544.038 1.66856 0.999458 0
M  V30 5806 O 543.293 0.943586 1.7145 0
M  V30 5807 C 543.592 3.52045 -0.616354 0
M  V30 5808 C 543.258 4.02757 -2.02726 0
M  V30 5809 C 541.92 4.16316 -2.41317 0
M  V30 5810 C 544.272 4.29776 -2.9486 0
M  V30 5811 C 541.6 4.54232 -3.71335 0
M  V30 5812 C 543.952 4.69146 -4.24364 0
M  V30 5813 C 542.616 4.80911 -4.62904 0
M  V30 5814 H 541.886 0.723088 -0.161941 0
M  V30 5815 H 544.533 1.58663 -1.0723 0
M  V30 5816 H 542.838 3.91681 0.0966812 0
M  V30 5817 H 544.535 3.99981 -0.285756 0
M  V30 5818 H 541.125 3.9268 -1.71756 0
M  V30 5819 H 545.309 4.18818 -2.6628 0
M  V30 5820 H 540.565 4.61535 -4.00993 0
M  V30 5821 H 544.739 4.89008 -4.95827 0
M  V30 5822 H 542.366 5.10048 -5.63698 0
M  V30 5823 N 543.941 0.601185 1.45683 0
M  V30 5824 C 545.189 0.0936957 2.01883 0
M  V30 5825 C 545.51 -1.2779 1.47291 0
M  V30 5826 O 544.78 -1.84279 0.664691 0
M  V30 5827 H 543.36 0.0316466 0.746329 0
M  V30 5828 H 546.022 0.781137 1.78562 0
M  V30 5829 H 545.118 0.0386297 3.12076 0
M  V30 5830 N 545.419 -1.53889 0.339982 0
M  V30 5831 C 546.644 -2.05741 -0.261798 0
M  V30 5832 C 547.069 -1.21354 -1.43718 0
M  V30 5833 O 546.427 -0.22645 -1.7988 0
M  V30 5834 C 546.475 -3.54542 -0.658228 0
M  V30 5835 O 545.579 -3.7302 -1.75869 0
M  V30 5836 H 544.92 -0.662529 -0.0441672 0
M  V30 5837 H 547.45 -1.98568 0.493161 0
M  V30 5838 H 547.46 -3.9711 -0.936368 0
M  V30 5839 H 546.135 -4.15412 0.201358 0
M  V30 5840 H 544.712 -3.42355 -1.47809 0
M  V30 5841 N 546.897 -0.0685191 -1.57451 0
M  V30 5842 C 547.844 0.899861 -2.12535 0
M  V30 5843 C 548.814 1.29749 -1.03703 0
M  V30 5844 O 549.999 1.38392 -1.31348 0
M  V30 5845 C 547.139 2.16328 -2.6888 0
M  V30 5846 C 546.252 1.81857 -3.91857 0
M  V30 5847 C 545.387 3.02786 -4.36457 0
M  V30 5848 C 544.426 2.64317 -5.5209 0
M  V30 5849 N 543.563 3.77994 -5.91663 0
M  V30 5850 H 548.403 0.423243 -2.94979 0
M  V30 5851 H 545.94 0.197268 -1.45771 0
M  V30 5852 H 547.898 2.90281 -2.99655 0
M  V30 5853 H 546.528 2.61536 -1.89206 0
M  V30 5854 H 545.58 0.979808 -3.67565 0
M  V30 5855 H 546.892 1.49553 -4.75852 0
M  V30 5856 H 546.046 3.85021 -4.68875 0
M  V30 5857 H 544.785 3.38281 -3.51308 0
M  V30 5858 H 543.79 1.80503 -5.19325 0
M  V30 5859 H 545.015 2.29995 -6.38967 0
M  V30 5860 H 542.961 4.13258 -5.09464 0
M  V30 5861 H 542.878 3.49447 -6.7039 0
M  V30 5862 H 544.146 4.60818 -6.28703 0
M  V30 5863 N 548.375 1.56261 0.205012 0
M  V30 5864 C 549.622 1.8004 0.926927 0
M  V30 5865 C 549.95 0.640086 1.83666 0
M  V30 5866 O 549.205 -0.374702 1.92079 0
M  V30 5867 C 549.504 3.09722 1.78345 0
M  V30 5868 C 549.17 4.39082 1.02555 0
M  V30 5869 C 547.832 4.74226 0.816256 0
M  V30 5870 C 550.184 5.18877 0.491559 0
M  V30 5871 C 547.512 5.86668 0.0613287 0
M  V30 5872 C 549.864 6.32105 -0.250107 0
M  V30 5873 C 548.528 6.6584 -0.470508 0
M  V30 5874 H 547.798 0.658812 0.339187 0
M  V30 5875 H 550.445 1.90515 0.19395 0
M  V30 5876 H 548.75 2.9444 2.5848 0
M  V30 5877 H 550.447 3.25324 2.34446 0
M  V30 5878 H 547.037 4.11497 1.19868 0
M  V30 5879 H 551.221 4.92147 0.640684 0
M  V30 5880 H 546.477 6.11283 -0.119501 0
M  V30 5881 H 550.651 6.93157 -0.671307 0
M  V30 5882 H 548.278 7.5281 -1.05739 0
M  V30 5883 N 549.853 -0.472356 1.50355 0
M  V30 5884 C 551.1 -1.22453 1.61281 0
M  V30 5885 C 551.428 -1.91972 0.31256 0
M  V30 5886 O 550.683 -1.82696 -0.701475 0
M  V30 5887 C 550.982 -2.29257 2.74182 0
M  V30 5888 C 550.648 -1.76999 4.14708 0
M  V30 5889 C 549.31 -1.62467 4.52944 0
M  V30 5890 C 551.662 -1.38215 5.0254 0
M  V30 5891 C 548.99 -1.07574 5.76754 0
M  V30 5892 C 551.342 -0.847638 6.26895 0
M  V30 5893 C 550.006 -0.688946 6.63935 0
M  V30 5894 H 549.276 -0.448087 0.590168 0
M  V30 5895 H 551.923 -0.520744 1.84284 0
M  V30 5896 H 550.228 -3.05538 2.45263 0
M  V30 5897 H 551.925 -2.87212 2.7984 0
M  V30 5898 H 548.515 -1.89276 3.84542 0
M  V30 5899 H 552.699 -1.48276 4.73633 0
M  V30 5900 H 547.955 -0.940237 6.04127 0
M  V30 5901 H 552.129 -0.538455 6.94315 0
M  V30 5902 H 549.756 -0.261435 7.5975 0
M  V30 5903 N 551.331 -1.39911 -0.725443 0
M  V30 5904 C 552.264 -1.33788 -1.84867 0
M  V30 5905 C 553.242 -0.209907 -1.61239 0
M  V30 5906 O 554.426 -0.391943 -1.8438 0
M  V30 5907 C 551.553 -1.07975 -3.21028 0
M  V30 5908 C 550.599 -2.23092 -3.635 0
M  V30 5909 S 551.432 -3.85431 -3.71757 0
M  V30 5910 C 552.588 -3.61862 -5.10692 0
M  V30 5911 H 552.821 -2.28848 -1.89779 0
M  V30 5912 H 550.354 -1.26079 -0.891254 0
M  V30 5913 H 552.312 -0.937669 -3.99647 0
M  V30 5914 H 550.973 -0.145865 -3.13761 0
M  V30 5915 H 550.166 -2.00647 -4.62338 0
M  V30 5916 H 549.768 -2.33553 -2.92112 0
M  V30 5917 H 552.06 -3.19719 -5.97316 0
M  V30 5918 H 553.003 -4.60196 -5.38169 0
M  V30 5919 H 553.411 -2.95757 -4.8082 0
M  V30 5920 N 552.809 0.956637 -1.25245 0
M  V30 5921 C 554.057 1.69764 -1.09657 0
M  V30 5922 C 554.378 1.91583 0.363464 0
M  V30 5923 O 553.648 1.50149 1.25825 0
M  V30 5924 H 552.228 0.629097 -0.402798 0
M  V30 5925 H 554.89 1.15026 -1.57337 0
M  V30 5926 H 553.986 2.67769 -1.60331 0
M  V30 5927 N 554.287 1.06798 1.15896 0
M  V30 5928 C 555.515 0.808694 1.90441 0
M  V30 5929 C 555.93 -0.637506 1.77711 0
M  V30 5930 O 555.287 -1.43684 1.12522 0
M  V30 5931 C 555.338 1.20068 3.40978 0
M  V30 5932 O 555.059 2.59013 3.53333 0
M  V30 5933 C 556.56 0.96987 4.3256 0
M  V30 5934 H 553.78 0.292809 0.603742 0
M  V30 5935 H 556.324 1.42296 1.46874 0
M  V30 5936 H 554.479 0.630842 3.82229 0
M  V30 5937 H 554.893 2.7485 4.46719 0
M  V30 5938 H 556.367 1.29371 5.36626 0
M  V30 5939 H 556.844 -0.0941209 4.39099 0
M  V30 5940 H 557.45 1.52433 3.97044 0
M  V30 5941 N 555.766 -1.3263 0.851289 0
M  V30 5942 C 557.012 -1.9766 0.453694 0
M  V30 5943 C 557.345 -1.67225 -0.987396 0
M  V30 5944 O 556.62 -0.958693 -1.69232 0
M  V30 5945 C 556.903 -3.5344 0.68936 0
M  V30 5946 C 556.756 -3.93517 2.17862 0
M  V30 5947 C 558.075 -4.39866 0.143555 0
M  V30 5948 H 555.194 -0.717989 0.166314 0
M  V30 5949 H 557.836 -1.57068 1.06909 0
M  V30 5950 H 555.986 -3.88147 0.165546 0
M  V30 5951 H 557.658 -3.69006 2.76826 0
M  V30 5952 H 555.901 -3.42798 2.65841 0
M  V30 5953 H 556.572 -5.02065 2.29422 0
M  V30 5954 H 559.048 -4.11875 0.591451 0
M  V30 5955 H 557.924 -5.47858 0.338043 0
M  V30 5956 H 558.185 -4.31696 -0.953466 0
M  V30 5957 N 557.244 -0.608902 -1.45362 0
M  V30 5958 C 558.49 -0.104762 -2.02529 0
M  V30 5959 C 558.823 1.26191 -1.47613 0
M  V30 5960 O 558.098 1.8327 -0.65134 0
M  V30 5961 C 558.381 -0.0672661 -3.60037 0
M  V30 5962 C 558.234 -1.4647 -4.25284 0
M  V30 5963 C 559.553 0.619877 -4.35713 0
M  V30 5964 H 556.672 -0.0395438 -0.735938 0
M  V30 5965 H 559.314 -0.781126 -1.73201 0
M  V30 5966 H 557.464 0.50871 -3.85155 0
M  V30 5967 H 559.136 -2.08785 -4.11347 0
M  V30 5968 H 557.379 -2.02502 -3.83634 0
M  V30 5969 H 558.05 -1.39069 -5.34195 0
M  V30 5970 H 560.526 0.130297 -4.15896 0
M  V30 5971 H 559.402 0.615224 -5.45441 0
M  V30 5972 H 559.663 1.68621 -4.0868 0
M  V30 5973 N 558.722 1.53707 -0.348139 0
M  V30 5974 C 559.669 2.25173 0.506518 0
M  V30 5975 C 560.639 1.25174 1.09182 0
M  V30 5976 O 561.824 1.53917 1.12757 0
M  V30 5977 C 558.964 3.03141 1.64923 0
M  V30 5978 C 558.077 4.18002 1.0908 0
M  V30 5979 C 557.212 4.83447 2.20119 0
M  V30 5980 C 556.251 5.90369 1.61651 0
M  V30 5981 N 555.388 6.49575 2.66451 0
M  V30 5982 H 560.228 2.97799 -0.109452 0
M  V30 5983 H 557.765 1.46953 -0.0657866 0
M  V30 5984 H 559.723 3.46607 2.32205 0
M  V30 5985 H 558.353 2.32803 2.23612 0
M  V30 5986 H 557.405 3.79145 0.308783 0
M  V30 5987 H 558.717 4.94892 0.623178 0
M  V30 5988 H 557.871 5.30008 2.95257 0
M  V30 5989 H 556.61 4.05991 2.70227 0
M  V30 5990 H 555.615 5.43186 0.850209 0
M  V30 5991 H 556.84 6.69735 1.1239 0
M  V30 5992 H 554.786 5.74981 3.15805 0
M  V30 5993 H 554.703 7.21952 2.24325 0
M  V30 5994 H 555.971 7.00789 3.41344 0
M  V30 5995 N 560.2 0.0768682 1.57412 0
M  V30 5996 C 561.147 -0.888577 2.13009 0
M  V30 5997 C 562.117 -1.29198 1.0439 0
M  V30 5998 O 563.302 -1.37694 1.3208 0
M  V30 5999 C 560.442 -2.14899 2.70023 0
M  V30 6000 C 559.555 -1.79777 3.92816 0
M  V30 6001 C 558.69 -3.00467 4.38056 0
M  V30 6002 C 557.729 -2.61385 5.53484 0
M  V30 6003 N 556.866 -3.74851 5.93659 0
M  V30 6004 H 561.706 -0.407593 2.95199 0
M  V30 6005 H 559.243 -0.189534 1.45874 0
M  V30 6006 H 561.201 -2.88688 3.0119 0
M  V30 6007 H 559.831 -2.60529 1.9059 0
M  V30 6008 H 558.883 -0.960301 3.68079 0
M  V30 6009 H 560.195 -1.47027 4.76639 0
M  V30 6010 H 559.349 -3.82529 4.7091 0
M  V30 6011 H 558.088 -3.36413 3.53097 0
M  V30 6012 H 557.093 -1.77746 5.20275 0
M  V30 6013 H 558.318 -2.26603 6.40178 0
M  V30 6014 H 556.264 -4.1055 5.11649 0
M  V30 6015 H 556.181 -3.45887 6.72234 0
M  V30 6016 H 557.449 -4.57477 6.31138 0
M  V30 6017 N 561.678 -1.56367 -0.196722 0
M  V30 6018 C 562.908 -1.84371 -0.932254 0
M  V30 6019 C 563.316 -0.657013 -1.77426 0
M  V30 6020 O 562.659 0.383576 -1.79651 0
M  V30 6021 C 562.721 -3.06454 -1.87952 0
M  V30 6022 C 562.385 -4.40425 -1.21962 0
M  V30 6023 C 563.382 -5.16457 -0.597343 0
M  V30 6024 C 561.067 -4.8716 -1.22396 0
M  V30 6025 C 563.061 -6.37399 0.0117913 0
M  V30 6026 C 560.748 -6.08038 -0.610995 0
M  V30 6027 C 561.746 -6.83 0.00580487 0
M  V30 6028 O 561.434 -8.01589 0.609173 0
M  V30 6029 H 561.166 -0.616377 -0.277589 0
M  V30 6030 H 563.72 -2.04329 -0.209452 0
M  V30 6031 H 561.95 -2.82377 -2.64197 0
M  V30 6032 H 563.639 -3.21118 -2.48271 0
M  V30 6033 H 564.405 -4.81445 -0.586142 0
M  V30 6034 H 560.284 -4.2877 -1.69345 0
M  V30 6035 H 563.828 -6.9585 0.493836 0
M  V30 6036 H 559.725 -6.42519 -0.619693 0
M  V30 6037 H 560.493 -8.16935 0.505919 0
M  V30 6038 N 563.156 0.464375 -1.50603 0
M  V30 6039 C 564.066 1.58723 -1.72754 0
M  V30 6040 C 565.082 1.62925 -0.610844 0
M  V30 6041 O 566.258 1.8067 -0.889963 0
M  V30 6042 C 563.323 2.94897 -1.82309 0
M  V30 6043 C 562.384 3.0103 -3.06071 0
M  V30 6044 C 561.617 4.30708 -3.1516 0
M  V30 6045 O 561.84 5.2159 -2.30868 0
M  V30 6046 O 560.774 4.42571 -4.0794 0
M  V30 6047 H 564.6 1.42954 -2.67951 0
M  V30 6048 H 562.185 0.644579 -1.3478 0
M  V30 6049 H 564.067 3.75764 -1.90735 0
M  V30 6050 H 562.742 3.10851 -0.902967 0
M  V30 6051 H 561.649 2.19217 -3.03142 0
M  V30 6052 H 562.982 2.90014 -3.97684 0
M  V30 6053 N 564.634 1.40294 0.718013 0
M  V30 6054 C 565.544 1.42678 1.86226 0
M  V30 6055 C 566.56 0.319655 1.71039 0
M  V30 6056 O 567.736 0.563852 1.93346 0
M  V30 6057 C 564.801 1.2852 3.21999 0
M  V30 6058 C 563.862 2.49354 3.49458 0
M  V30 6059 C 563.095 2.35863 4.78753 0
M  V30 6060 O 563.318 1.37114 5.53675 0
M  V30 6061 O 562.252 3.25189 5.06494 0
M  V30 6062 H 566.078 2.39167 1.87171 0
M  V30 6063 H 563.663 1.2159 0.868112 0
M  V30 6064 H 565.545 1.22824 4.03103 0
M  V30 6065 H 564.22 0.351359 3.21787 0
M  V30 6066 H 563.127 2.60628 2.68373 0
M  V30 6067 H 564.46 3.41491 3.54464 0
M  V30 6068 N 566.112 -0.949982 1.2575 0
M  V30 6069 C 567.06 -2.06869 1.06339 0
M  V30 6070 C 568.054 -1.69399 -0.00708901 0
M  V30 6071 O 569.26 -1.79383 0.148897 0
M  V30 6072 H 565.635 -0.677197 0.326969 0
M  V30 6073 H 567.606 -2.20396 2.01167 0
M  V30 6074 C 566.355 -3.40503 0.703769 0
M  V30 6075 H 565.678 -3.69807 1.51931 0
M  V30 6076 H 567.118 -4.19623 0.607677 0
M  V30 6077 C 565.577 -3.31685 -0.5905 0
M  V30 6078 O 566.107 -3.67085 -1.63131 0
M  V30 6079 N 564.313 -2.84797 -0.577859 0
M  V30 6080 H 563.86 -2.56186 0.26951 0
M  V30 6081 H 563.818 -2.79279 -1.44398 0
M  V30 6082 N 567.59 -1.07411 -1.15328 0
M  V30 6083 C 569.001 -0.820261 -1.67716 0
M  V30 6084 C 569.352 0.654539 -1.8496 0
M  V30 6085 O 568.477 1.50664 -1.55337 0
M  V30 6086 C 569.072 -1.48242 -3.04647 0
M  V30 6087 C 567.631 -1.27606 -3.5411 0
M  V30 6088 C 566.778 -1.5517 -2.29821 0
M  V30 6089 H 569.729 -1.23608 -0.995332 0
M  V30 6090 H 569.75 -0.903984 -3.69606 0
M  V30 6091 H 569.262 -2.55578 -2.92064 0
M  V30 6092 H 567.363 -0.222948 -3.71932 0
M  V30 6093 H 567.476 -1.99667 -4.35511 0
M  V30 6094 H 565.84 -0.972747 -2.35393 0
M  V30 6095 H 566.623 -2.63689 -2.19824 0
M  V30 6096 N 569.068 1.32177 -0.85831 0
M  V30 6097 C 569.998 2.31282 -0.321041 0
M  V30 6098 C 570.979 1.59841 0.581786 0
M  V30 6099 O 572.164 1.87619 0.501262 0
M  V30 6100 C 569.294 3.4385 0.48832 0
M  V30 6101 C 568.248 4.26799 -0.320391 0
M  V30 6102 C 567.574 5.31164 0.613934 0
M  V30 6103 C 568.874 4.98829 -1.54813 0
M  V30 6104 H 570.568 2.76469 -1.14915 0
M  V30 6105 H 568.114 1.32916 -0.554028 0
M  V30 6106 H 570.067 4.12224 0.874626 0
M  V30 6107 H 568.791 2.97401 1.34983 0
M  V30 6108 H 567.45 3.60077 -0.688497 0
M  V30 6109 H 567.098 4.80967 1.47239 0
M  V30 6110 H 566.798 5.8755 0.0768097 0
M  V30 6111 H 568.322 6.024 0.997336 0
M  V30 6112 H 569.736 5.59864 -1.23392 0
M  V30 6113 H 568.133 5.64957 -2.02346 0
M  V30 6114 H 569.203 4.26483 -2.30739 0
M  V30 6115 N 570.547 0.616602 1.45037 0
M  V30 6116 C 571.497 -0.118543 2.27692 0
M  V30 6117 C 572.481 -0.830025 1.37838 0
M  V30 6118 O 573.673 -0.718528 1.6176 0
M  V30 6119 C 570.802 -1.10924 3.24886 0
M  V30 6120 C 569.888 -0.398134 4.22227 0
M  V30 6121 N 570.279 0.565233 5.02632 0
M  V30 6122 C 568.577 -0.644506 4.41319 0
M  V30 6123 C 569.278 0.984043 5.73316 0
M  V30 6124 N 568.254 0.325879 5.42622 0
M  V30 6125 H 572.056 0.621239 2.87259 0
M  V30 6126 H 569.57 0.440968 1.56299 0
M  V30 6127 H 571.567 -1.65038 3.82842 0
M  V30 6128 H 570.227 -1.84948 2.66879 0
M  V30 6129 H 571.238 0.942395 5.09254 0
M  V30 6130 H 567.915 -1.36873 3.94426 0
M  V30 6131 H 569.305 1.77911 6.47918 0
M  V30 6132 N 572.025 -1.5352 0.356285 0
M  V30 6133 C 573.272 -2.01117 -0.236303 0
M  V30 6134 C 573.6 -1.24381 -1.49531 0
M  V30 6135 O 572.855 -0.323057 -1.93015 0
M  V30 6136 C 573.154 -3.52607 -0.583369 0
M  V30 6137 C 572.82 -4.47151 0.58023 0
M  V30 6138 C 571.482 -4.72718 0.899528 0
M  V30 6139 C 573.834 -5.03137 1.36024 0
M  V30 6140 C 571.162 -5.51523 2.00098 0
M  V30 6141 C 573.514 -5.83145 2.45204 0
M  V30 6142 C 572.178 -6.07001 2.77679 0
M  V30 6143 H 571.448 -0.735938 -0.0864695 0
M  V30 6144 H 574.095 -1.85209 0.48683 0
M  V30 6145 H 572.4 -3.66413 -1.38739 0
M  V30 6146 H 574.097 -3.86901 -1.05397 0
M  V30 6147 H 570.687 -4.27394 0.321322 0
M  V30 6148 H 574.871 -4.83339 1.12682 0
M  V30 6149 H 570.127 -5.68229 2.25668 0
M  V30 6150 H 574.301 -6.25537 3.06067 0
M  V30 6151 H 571.928 -6.67851 3.63151 0
M  V30 6152 N 573.503 -0.0852151 -1.57369 0
M  V30 6153 C 574.433 0.874556 -2.16503 0
M  V30 6154 C 575.414 1.30111 -1.09568 0
M  V30 6155 O 576.599 1.36977 -1.37662 0
M  V30 6156 C 573.729 2.13731 -2.73745 0
M  V30 6157 C 572.683 1.84971 -3.85966 0
M  V30 6158 C 572.009 3.17991 -4.29867 0
M  V30 6159 C 573.309 1.14442 -5.09608 0
M  V30 6160 H 575.003 0.381899 -2.96954 0
M  V30 6161 H 572.549 0.18225 -1.42842 0
M  V30 6162 H 574.502 2.81302 -3.13763 0
M  V30 6163 H 573.226 2.65263 -1.90534 0
M  V30 6164 H 571.885 1.19801 -3.46473 0
M  V30 6165 H 571.533 3.6739 -3.4356 0
M  V30 6166 H 571.233 2.99534 -5.05523 0
M  V30 6167 H 572.757 3.86737 -4.72511 0
M  V30 6168 H 574.171 1.72105 -5.46857 0
M  V30 6169 H 572.568 1.06197 -5.90629 0
M  V30 6170 H 573.638 0.12559 -4.84737 0
M  V30 6171 N 574.981 1.5647 0.188427 0
M  V30 6172 C 575.914 1.90146 1.26173 0
M  V30 6173 C 576.892 0.762294 1.43624 0
M  V30 6174 O 578.076 1.01395 1.58907 0
M  V30 6175 C 575.203 2.13748 2.62735 0
M  V30 6176 C 574.249 3.36448 2.62116 0
M  V30 6177 S 575.082 4.91364 2.12889 0
M  V30 6178 C 576.238 5.18041 3.51261 0
M  V30 6179 H 576.471 2.80886 0.974192 0
M  V30 6180 H 574.004 1.49335 0.392226 0
M  V30 6181 H 575.962 2.28028 3.41341 0
M  V30 6182 H 574.623 1.23747 2.88696 0
M  V30 6183 H 573.816 3.50109 3.62546 0
M  V30 6184 H 573.418 3.21196 1.91596 0
M  V30 6185 H 575.71 5.0897 4.47164 0
M  V30 6186 H 576.653 6.19764 3.42489 0
M  V30 6187 H 577.061 4.45657 3.46482 0
M  V30 6188 N 576.459 -0.456382 1.50847 0
M  V30 6189 C 577.707 -1.20497 1.62249 0
M  V30 6190 C 578.028 -1.92156 0.331839 0
M  V30 6191 O 577.298 -1.84751 -0.651443 0
M  V30 6192 H 575.878 -0.447775 0.597918 0
M  V30 6193 H 578.54 -0.525099 1.87693 0
M  V30 6194 H 577.636 -1.94492 2.44089 0
M  V30 6195 N 577.937 -1.40673 -0.710563 0
M  V30 6196 C 579.183 -1.39428 -1.47267 0
M  V30 6197 C 579.516 0.00182129 -1.942 0
M  V30 6198 O 578.791 0.971387 -1.68506 0
M  V30 6199 C 579.074 -2.38812 -2.6952 0
M  V30 6200 C 578.927 -3.87467 -2.28449 0
M  V30 6201 C 580.246 -2.3566 -3.71689 0
M  V30 6202 H 577.365 -0.507768 -0.534173 0
M  V30 6203 H 580.007 -1.71843 -0.810547 0
M  V30 6204 H 578.157 -2.113 -3.26013 0
M  V30 6205 H 579.829 -4.25825 -1.77399 0
M  V30 6206 H 578.072 -4.03058 -1.60395 0
M  V30 6207 H 578.743 -4.5253 -3.16103 0
M  V30 6208 H 581.219 -2.6004 -3.24836 0
M  V30 6209 H 580.095 -3.07237 -4.54859 0
M  V30 6210 H 580.356 -1.36996 -4.20339 0
M  V30 6211 N 579.415 0.9433 -1.26252 0
M  V30 6212 C 580.661 1.69226 -1.12846 0
M  V30 6213 C 581.016 1.8963 0.325282 0
M  V30 6214 O 580.309 1.46435 1.23561 0
M  V30 6215 C 580.503 3.07073 -1.82868 0
M  V30 6216 C 580.332 3.00118 -3.34902 0
M  V30 6217 C 579.102 3.03251 -4.04186 0
M  V30 6218 C 581.3 2.80418 -4.31127 0
M  V30 6219 N 579.282 2.86573 -5.42908 0
M  V30 6220 C 580.653 2.72287 -5.5701 0
M  V30 6221 C 582.708 2.65185 -4.21404 0
M  V30 6222 C 581.411 2.50479 -6.74279 0
M  V30 6223 C 583.437 2.4475 -5.38378 0
M  V30 6224 C 582.799 2.37349 -6.63208 0
M  V30 6225 H 578.898 0.626716 -0.467708 0
M  V30 6226 H 581.482 1.11645 -1.5951 0
M  V30 6227 H 579.653 3.62797 -1.38682 0
M  V30 6228 H 581.385 3.70816 -1.62103 0
M  V30 6229 H 578.14 3.12882 -3.55531 0
M  V30 6230 H 578.564 2.81408 -6.15742 0
M  V30 6231 H 583.206 2.69675 -3.25631 0
M  V30 6232 H 580.924 2.4473 -7.70151 0
M  V30 6233 H 584.51 2.33872 -5.32724 0
M  V30 6234 H 583.39 2.21746 -7.52196 0
M  V30 6235 N 580.893 1.08022 1.14757 0
M  V30 6236 C 582.141 0.805913 1.85336 0
M  V30 6237 C 582.462 -0.670162 1.83122 0
M  V30 6238 O 581.732 -1.48567 1.2769 0
M  V30 6239 H 580.312 0.295138 0.686223 0
M  V30 6240 H 582.974 1.36538 1.3908 0
M  V30 6241 H 582.07 1.14655 2.90277 0
M  V30 6242 N 582.371 -1.3172 0.865308 0
M  V30 6243 C 583.596 -2.01591 0.487415 0
M  V30 6244 C 584.021 -1.6455 -0.911307 0
M  V30 6245 O 583.379 -0.851689 -1.6005 0
M  V30 6246 C 583.427 -3.54759 0.646401 0
M  V30 6247 O 582.531 -4.11185 -0.316284 0
M  V30 6248 H 581.872 -0.634884 0.194468 0
M  V30 6249 H 584.402 -1.68024 1.16744 0
M  V30 6250 H 584.412 -4.04438 0.537932 0
M  V30 6251 H 583.087 -3.8106 1.66632 0
M  V30 6252 H 581.664 -3.72543 -0.163162 0
M  V30 6253 N 583.85 -0.624285 -1.44708 0
M  V30 6254 C 584.812 0.0749638 -2.29077 0
M  V30 6255 C 585.812 0.778965 -1.40673 0
M  V30 6256 O 587.003 0.624591 -1.62618 0
M  V30 6257 C 584.135 1.11663 -3.22094 0
M  V30 6258 H 585.327 -0.667013 -2.92388 0
M  V30 6259 H 582.88 -0.384098 -1.51507 0
M  V30 6260 H 583.615 1.88881 -2.63618 0
M  V30 6261 H 583.401 0.61583 -3.87234 0
M  V30 6262 H 584.891 1.60585 -3.8549 0
M  V30 6263 N 585.328 1.53329 -0.364422 0
M  V30 6264 C 586.575 2.01239 0.225634 0
M  V30 6265 C 586.903 1.25172 1.48869 0
M  V30 6266 O 586.158 0.333289 1.92841 0
M  V30 6267 C 586.457 3.52911 0.564661 0
M  V30 6268 C 586.123 4.46837 -0.603936 0
M  V30 6269 C 584.785 4.72234 -0.924585 0
M  V30 6270 C 587.137 5.02409 -1.38691 0
M  V30 6271 C 584.465 5.50454 -2.0302 0
M  V30 6272 C 586.817 5.81836 -2.48293 0
M  V30 6273 C 585.481 6.0552 -2.80894 0
M  V30 6274 H 584.751 0.736386 0.0825654 0
M  V30 6275 H 587.398 1.84948 -0.496645 0
M  V30 6276 H 585.703 3.67144 1.36794 0
M  V30 6277 H 587.4 3.87455 1.03344 0
M  V30 6278 H 583.99 4.27217 -0.343983 0
M  V30 6279 H 588.174 4.82735 -1.15243 0
M  V30 6280 H 583.43 5.67024 -2.28678 0
M  V30 6281 H 587.604 6.23905 -3.0938 0
M  V30 6282 H 585.231 6.65916 -3.66688 0
M  V30 6283 N 586.806 0.0935595 1.57322 0
M  V30 6284 C 588.031 -0.582324 1.99057 0
M  V30 6285 C 588.456 -1.61025 0.972242 0
M  V30 6286 O 587.814 -1.81202 -0.0594622 0
M  V30 6287 C 587.862 -1.20799 3.39765 0
M  V30 6288 O 586.966 -2.32382 3.40694 0
M  V30 6289 H 586.307 -0.147884 0.647323 0
M  V30 6290 H 588.837 0.174516 2.03854 0
M  V30 6291 H 588.847 -1.54966 3.77425 0
M  V30 6292 H 587.522 -0.454914 4.13405 0
M  V30 6293 H 586.099 -1.99845 3.14827 0
M  V30 6294 N 588.284 -1.56567 -0.180126 0
M  V30 6295 C 589.533 -1.80685 -0.896426 0
M  V30 6296 C 589.846 -0.669335 -1.83791 0
M  V30 6297 O 591.052 -0.795209 -2.59593 0
M  V30 6298 C 589.508 -3.20132 -1.6445 0
M  V30 6299 C 589.116 -4.41727 -0.747088 0
M  V30 6300 C 590.86 -3.53549 -2.34955 0
M  V30 6301 C 588.767 -5.72195 -1.49489 0
M  V30 6302 H 587.697 -0.673758 -0.338477 0
M  V30 6303 H 590.348 -1.8289 -0.149467 0
M  V30 6304 H 588.73 -3.12218 -2.43589 0
M  V30 6305 H 589.904 -4.608 0.00671129 0
M  V30 6306 H 588.219 -4.16122 -0.152134 0
M  V30 6307 H 590.816 -4.48267 -2.91481 0
M  V30 6308 H 591.159 -2.78006 -3.09868 0
M  V30 6309 H 591.692 -3.62976 -1.62768 0
M  V30 6310 H 588.431 -6.50743 -0.788251 0
M  V30 6311 H 587.951 -5.57115 -2.22224 0
M  V30 6312 H 589.63 -6.1384 -2.04472 0
M  V30 6313 N 589.762 0.448376 -1.51087 0
M  V30 6314 C 590.692 1.55102 -1.74544 0
M  V30 6315 C 591.673 1.59357 -0.594932 0
M  V30 6316 O 592.858 1.75261 -0.836491 0
M  V30 6317 C 589.988 2.93268 -1.86041 0
M  V30 6318 C 588.942 3.03877 -3.01402 0
M  V30 6319 C 588.268 4.43914 -2.98068 0
M  V30 6320 C 589.568 2.7898 -4.41551 0
M  V30 6321 H 591.262 1.35724 -2.66869 0
M  V30 6322 H 588.808 0.651498 -1.28419 0
M  V30 6323 H 590.761 3.70356 -2.01034 0
M  V30 6324 H 589.485 3.13853 -0.903548 0
M  V30 6325 H 588.144 2.29227 -2.86096 0
M  V30 6326 H 587.792 4.6145 -2.00182 0
M  V30 6327 H 587.492 4.51944 -3.75527 0
M  V30 6328 H 589.016 5.22991 -3.1514 0
M  V30 6329 H 590.43 3.45805 -4.57265 0
M  V30 6330 H 588.827 2.98431 -5.20633 0
M  V30 6331 H 589.897 1.74663 -4.5235 0
M  V30 6332 N 591.24 1.41047 0.703093 0
M  V30 6333 C 592.487 1.4 1.46309 0
M  V30 6334 C 592.815 0.00654574 1.94499 0
M  V30 6335 O 592.07 -0.980255 1.6938 0
M  V30 6336 C 592.369 2.34686 2.6955 0
M  V30 6337 C 592.035 3.81684 2.40058 0
M  V30 6338 C 590.697 4.21731 2.31725 0
M  V30 6339 C 593.049 4.74525 2.15581 0
M  V30 6340 C 590.377 5.52637 1.97001 0
M  V30 6341 C 592.729 6.05744 1.82366 0
M  V30 6342 C 591.393 6.44819 1.72524 0
M  V30 6343 H 590.663 0.512295 0.535382 0
M  V30 6344 H 593.31 1.73792 0.804275 0
M  V30 6345 H 591.615 1.94122 3.40329 0
M  V30 6346 H 593.312 2.31152 3.27673 0
M  V30 6347 H 589.902 3.49963 2.47435 0
M  V30 6348 H 594.086 4.44395 2.20968 0
M  V30 6349 H 589.342 5.81802 1.87928 0
M  V30 6350 H 593.516 6.77189 1.62444 0
M  V30 6351 H 591.143 7.46168 1.45385 0
M  V30 6352 N 592.718 -0.936591 1.26751 0
M  V30 6353 C 593.666 -2.0573 1.08527 0
M  V30 6354 C 594.66 -1.69397 0.0108784 0
M  V30 6355 O 595.866 -1.79215 0.167915 0
M  V30 6356 H 592.241 -0.673691 0.334133 0
M  V30 6357 H 594.212 -2.1825 2.03493 0
M  V30 6358 C 592.961 -3.39738 0.739845 0
M  V30 6359 H 592.284 -3.68174 1.55845 0
M  V30 6360 H 593.724 -4.18955 0.652149 0
M  V30 6361 C 592.183 -3.32292 -0.555288 0
M  V30 6362 O 592.713 -3.68794 -1.59229 0
M  V30 6363 N 590.919 -2.85394 -0.54762 0
M  V30 6364 H 590.466 -2.55886 0.296667 0
M  V30 6365 H 590.424 -2.80795 -1.41427 0
M  V30 6366 N 594.196 -1.08629 -1.14182 0
M  V30 6367 C 595.612 -0.814363 -1.3726 0
M  V30 6368 C 595.812 0.575271 -1.93114 0
M  V30 6369 O 594.868 1.33165 -2.1453 0
M  V30 6370 C 596.181 -1.8989 -2.33157 0
M  V30 6371 C 597.729 -1.92518 -2.46791 0
M  V30 6372 C 598.204 -3.00092 -3.45989 0
M  V30 6373 N 599.695 -2.99279 -3.53534 0
M  V30 6374 C 600.43 -3.79158 -4.30147 0
M  V30 6375 N 599.926 -4.68923 -5.09983 0
M  V30 6376 N 601.719 -3.67451 -4.25366 0
M  V30 6377 H 593.87 -1.98232 -0.762758 0
M  V30 6378 H 596.133 -0.860383 -0.398051 0
M  V30 6379 H 595.839 -2.89809 -1.99257 0
M  V30 6380 H 595.713 -1.77013 -3.33086 0
M  V30 6381 H 598.1 -0.932425 -2.79982 0
M  V30 6382 H 598.181 -2.09473 -1.46816 0
M  V30 6383 H 597.825 -3.99575 -3.13532 0
M  V30 6384 H 597.755 -2.80382 -4.45751 0
M  V30 6385 H 600.246 -2.3422 -2.96563 0
M  V30 6386 H 600.559 -5.26475 -5.65724 0
M  V30 6387 H 598.904 -4.72964 -5.09244 0
M  V30 6388 H 602.095 -2.9669 -3.62067 0
M  V30 6389 H 602.268 -4.29944 -4.84822 0
M  V30 6390 N 595.674 1.31259 -0.872281 0
M  V30 6391 C 596.92 1.96913 -0.485083 0
M  V30 6392 C 597.253 1.68774 0.960667 0
M  V30 6393 O 596.528 0.985495 1.67685 0
M  V30 6394 C 596.811 3.52299 -0.745502 0
M  V30 6395 C 596.664 3.90002 -2.24095 0
M  V30 6396 C 597.983 4.39582 -0.213516 0
M  V30 6397 H 595.102 0.715252 -0.177716 0
M  V30 6398 H 597.744 1.55347 -1.09395 0
M  V30 6399 H 595.894 3.87835 -0.227276 0
M  V30 6400 H 597.566 3.64555 -2.82661 0
M  V30 6401 H 595.809 3.38526 -2.71261 0
M  V30 6402 H 596.48 4.98352 -2.37381 0
M  V30 6403 H 598.956 4.10882 -0.656902 0
M  V30 6404 H 597.832 5.47251 -0.42516 0
M  V30 6405 H 598.093 4.33158 0.884666 0
M  V30 6406 N 597.152 0.631951 1.44375 0
M  V30 6407 C 598.082 -0.0593243 2.33425 0
M  V30 6408 C 599.063 -0.833964 1.48253 0
M  V30 6409 O 600.248 -0.799682 1.76971 0
M  V30 6410 C 597.378 -1.04096 3.31333 0
M  V30 6411 C 596.332 -0.377899 4.26328 0
M  V30 6412 C 595.658 -1.4695 5.14111 0
M  V30 6413 C 596.958 0.716371 5.17364 0
M  V30 6414 H 598.652 0.684287 2.91475 0
M  V30 6415 H 596.198 0.330518 1.40156 0
M  V30 6416 H 598.151 -1.53331 3.92514 0
M  V30 6417 H 596.875 -1.81547 2.71493 0
M  V30 6418 H 595.534 0.0938054 3.6648 0
M  V30 6419 H 595.182 -2.2349 4.50623 0
M  V30 6420 H 594.882 -1.03121 5.78481 0
M  V30 6421 H 596.406 -1.96363 5.78164 0
M  V30 6422 H 597.82 0.307089 5.72477 0
M  V30 6423 H 596.217 1.07784 5.90341 0
M  V30 6424 H 597.287 1.58316 4.58327 0
M  V30 6425 N 598.631 -1.53133 0.372548 0
M  V30 6426 C 599.879 -2.00958 -0.214534 0
M  V30 6427 C 600.2 -1.26135 -1.48711 0
M  V30 6428 O 599.47 -0.376597 -1.92246 0
M  V30 6429 H 598.05 -0.742456 -0.0822664 0
M  V30 6430 H 600.712 -1.88367 0.500385 0
M  V30 6431 H 599.808 -3.09031 -0.436605 0
M  V30 6432 N 600.109 -0.101901 -1.5727 0
M  V30 6433 C 601.355 0.561027 -1.94885 0
M  V30 6434 C 601.688 1.6741 -0.984258 0
M  V30 6435 O 600.963 1.94491 -0.0184767 0
M  V30 6436 C 601.246 1.10982 -3.42571 0
M  V30 6437 C 601.099 0.00133418 -4.498 0
M  V30 6438 C 602.418 2.00608 -3.9172 0
M  V30 6439 H 599.537 0.202467 -0.708644 0
M  V30 6440 H 602.179 -0.173992 -1.89202 0
M  V30 6441 H 600.329 1.73621 -3.47546 0
M  V30 6442 H 602.001 -0.63322 -4.56933 0
M  V30 6443 H 600.244 -0.664143 -4.28686 0
M  V30 6444 H 600.915 0.426253 -5.50352 0
M  V30 6445 H 603.391 1.47864 -3.88941 0
M  V30 6446 H 602.267 2.3593 -4.95609 0
M  V30 6447 H 602.528 2.92608 -3.3141 0
M  V30 6448 N 601.587 1.56661 0.17182 0
M  V30 6449 C 602.812 1.86459 0.908165 0
M  V30 6450 C 603.237 0.688181 1.75059 0
M  V30 6451 O 602.595 -0.362753 1.77634 0
M  V30 6452 C 602.643 3.14669 1.76112 0
M  V30 6453 O 601.747 2.96858 2.86268 0
M  V30 6454 H 601.088 0.613318 0.254434 0
M  V30 6455 H 603.618 2.03892 0.170113 0
M  V30 6456 H 603.628 3.46061 2.16115 0
M  V30 6457 H 602.303 3.99905 1.14233 0
M  V30 6458 H 600.88 2.76819 2.49852 0
M  V30 6459 N 603.065 -0.440357 1.51323 0
M  V30 6460 C 604.313 -1.18769 1.63518 0
M  V30 6461 C 604.634 -1.91793 0.352201 0
M  V30 6462 O 603.904 -1.85432 -0.631811 0
M  V30 6463 H 602.484 -0.441408 0.602634 0
M  V30 6464 H 605.146 -0.505162 1.8824 0
M  V30 6465 H 604.242 -1.91892 2.46138 0
M  V30 6466 N 604.543 -1.41418 -0.695603 0
M  V30 6467 C 605.768 -1.44329 -1.48942 0
M  V30 6468 C 606.193 -0.0501579 -1.88033 0
M  V30 6469 O 605.551 0.946598 -1.54626 0
M  V30 6470 C 605.599 -2.3578 -2.72837 0
M  V30 6471 O 604.703 -1.81482 -3.70322 0
M  V30 6472 H 604.044 -0.489838 -0.44828 0
M  V30 6473 H 606.574 -1.85878 -0.855014 0
M  V30 6474 H 606.584 -2.51654 -3.21145 0
M  V30 6475 H 605.259 -3.37005 -2.43722 0
M  V30 6476 H 603.836 -1.75058 -3.29255 0
M  V30 6477 N 606.021 0.929856 -1.27246 0
M  V30 6478 C 606.953 2.03434 -1.0558 0
M  V30 6479 C 607.966 1.62795 -0.0125762 0
M  V30 6480 O 609.155 1.76685 -0.2539 0
M  V30 6481 C 606.255 3.33915 -0.57912 0
M  V30 6482 C 605.428 4.03259 -1.69415 0
M  V30 6483 C 604.487 5.12014 -1.21357 0
M  V30 6484 O 603.513 5.36097 -1.91282 0
M  V30 6485 N 604.715 5.8046 -0.0680622 0
M  V30 6486 H 607.48 2.22583 -2.00691 0
M  V30 6487 H 605.041 1.1001 -1.18783 0
M  V30 6488 H 607.033 4.03978 -0.241563 0
M  V30 6489 H 605.603 3.11355 0.278703 0
M  V30 6490 H 604.823 3.26958 -2.20209 0
M  V30 6491 H 606.111 4.46337 -2.44255 0
M  V30 6492 H 605.509 5.63345 0.515626 0
M  V30 6493 H 604.066 6.51461 0.210332 0
M  V30 6494 N 607.499 1.09233 1.13605 0
M  V30 6495 C 608.724 0.849067 1.89224 0
M  V30 6496 C 609.149 -0.593875 1.78479 0
M  V30 6497 O 608.507 -1.41703 1.13092 0
M  V30 6498 C 608.555 1.28642 3.36873 0
M  V30 6499 O 607.659 0.44363 4.10007 0
M  V30 6500 H 607 0.30767 0.588417 0
M  V30 6501 H 609.53 1.45595 1.43748 0
M  V30 6502 H 609.54 1.27096 3.87699 0
M  V30 6503 H 608.215 2.33729 3.44011 0
M  V30 6504 H 606.792 0.523241 3.69211 0
M  V30 6505 N 608.977 -1.30795 0.87923 0
M  V30 6506 C 610.393 -1.48981 0.57243 0
M  V30 6507 C 610.593 -1.80719 -0.891236 0
M  V30 6508 O 609.649 -1.89136 -1.67283 0
M  V30 6509 C 610.962 -2.61721 1.48063 0
M  V30 6510 C 612.51 -2.75603 1.48365 0
M  V30 6511 C 612.985 -3.91449 2.37763 0
M  V30 6512 N 614.476 -3.98751 2.35695 0
M  V30 6513 C 615.211 -4.87684 3.01583 0
M  V30 6514 N 614.707 -5.81454 3.76674 0
M  V30 6515 N 616.5 -4.81005 2.90844 0
M  V30 6516 H 608.651 -1.08465 1.82617 0
M  V30 6517 H 610.914 -0.536813 0.781368 0
M  V30 6518 H 610.62 -2.45073 2.52254 0
M  V30 6519 H 610.494 -3.58071 1.18596 0
M  V30 6520 H 612.881 -2.9166 0.44927 0
M  V30 6521 H 612.962 -1.79891 1.81859 0
M  V30 6522 H 612.606 -3.76149 3.41283 0
M  V30 6523 H 612.536 -4.86487 2.01589 0
M  V30 6524 H 615.027 -3.31668 1.81121 0
M  V30 6525 H 615.34 -6.46063 4.24054 0
M  V30 6526 H 613.685 -5.81403 3.80782 0
M  V30 6527 H 616.876 -4.06728 2.31711 0
M  V30 6528 H 617.049 -5.50107 3.42471 0
M  V30 6529 N 610.455 -0.639598 -1.44038 0
M  V30 6530 C 611.703 -0.147188 -2.01563 0
M  V30 6531 C 612.024 1.2384 -1.50628 0
M  V30 6532 O 611.294 1.82452 -0.713316 0
M  V30 6533 H 609.874 -0.0514231 -0.745228 0
M  V30 6534 H 612.536 -0.828205 -1.76428 0
M  V30 6535 H 611.632 -0.121358 -3.11864 0
M  V30 6536 N 611.933 1.52934 -0.380664 0
M  V30 6537 C 613.158 2.06363 0.207157 0
M  V30 6538 C 613.583 1.25122 1.4045 0
M  V30 6539 O 612.941 0.274062 1.79217 0
M  V30 6540 C 612.989 3.56162 0.563996 0
M  V30 6541 O 612.093 3.77552 1.65917 0
M  V30 6542 H 611.434 0.663468 0.0265859 0
M  V30 6543 H 613.964 1.9719 -0.545635 0
M  V30 6544 H 613.974 3.99453 0.830752 0
M  V30 6545 H 612.649 4.14732 -0.311427 0
M  V30 6546 H 611.226 3.46154 1.3868 0
M  V30 6547 N 613.412 0.11024 1.57214 0
M  V30 6548 C 614.64 -0.557834 1.99238 0
M  V30 6549 C 615.055 -1.60778 0.989734 0
M  V30 6550 O 614.412 -1.82491 -0.0186092 0
M  V30 6551 C 614.463 -1.19189 3.41286 0
M  V30 6552 O 614.184 -0.183919 4.37714 0
M  V30 6553 C 615.685 -1.94413 3.98395 0
M  V30 6554 H 612.905 -0.148392 0.654386 0
M  V30 6555 H 615.449 0.193996 2.03578 0
M  V30 6556 H 613.604 -1.89456 3.37913 0
M  V30 6557 H 614.018 -0.643475 5.20538 0
M  V30 6558 H 615.492 -2.34116 4.99894 0
M  V30 6559 H 615.969 -2.81592 3.3705 0
M  V30 6560 H 616.575 -1.28928 4.05287 0
M  V30 6561 N 614.89 -1.56749 -0.16351 0
M  V30 6562 C 615.823 -1.9213 -1.23132 0
M  V30 6563 C 616.801 -0.785047 -1.42393 0
M  V30 6564 O 617.985 -1.0391 -1.57273 0
M  V30 6565 C 615.112 -2.17901 -2.59301 0
M  V30 6566 C 614.158 -3.40576 -2.5673 0
M  V30 6567 S 614.991 -4.94689 -2.05045 0
M  V30 6568 C 616.147 -5.23564 -3.42975 0
M  V30 6569 H 616.38 -2.824 -0.929383 0
M  V30 6570 H 613.913 -1.4994 -0.368418 0
M  V30 6571 H 615.871 -2.33429 -3.3767 0
M  V30 6572 H 614.532 -1.28324 -2.86691 0
M  V30 6573 H 613.725 -3.55833 -3.5693 0
M  V30 6574 H 613.327 -3.24204 -1.86462 0
M  V30 6575 H 615.619 -5.16019 -4.3901 0
M  V30 6576 H 616.562 -6.25134 -3.32586 0
M  V30 6577 H 616.97 -4.51113 -3.39348 0
M  V30 6578 N 616.368 0.432326 -1.51554 0
M  V30 6579 C 617.278 1.55023 -1.76082 0
M  V30 6580 C 618.294 1.61593 -0.645265 0
M  V30 6581 O 619.47 1.78742 -0.928086 0
M  V30 6582 C 616.535 2.90964 -1.88523 0
M  V30 6583 C 615.596 2.9447 -3.12388 0
M  V30 6584 C 614.829 4.23926 -3.24225 0
M  V30 6585 O 615.052 5.16576 -2.4188 0
M  V30 6586 O 613.986 4.33818 -4.17235 0
M  V30 6587 H 617.812 1.37238 -2.70923 0
M  V30 6588 H 615.397 0.615845 -1.36117 0
M  V30 6589 H 617.279 3.71633 -1.98662 0
M  V30 6590 H 615.954 3.08865 -0.9687 0
M  V30 6591 H 614.861 2.12737 -3.07723 0
M  V30 6592 H 616.194 2.81514 -4.03746 0
M  V30 6593 N 617.846 1.41785 0.688094 0
M  V30 6594 C 618.756 1.46596 1.83158 0
M  V30 6595 C 619.772 0.355862 1.70322 0
M  V30 6596 O 620.948 0.604737 1.92106 0
M  V30 6597 C 618.013 1.35322 3.192 0
M  V30 6598 C 617.074 2.56711 3.4409 0
M  V30 6599 C 616.307 2.45965 4.73642 0
M  V30 6600 O 616.53 1.48827 5.50642 0
M  V30 6601 O 615.464 3.35859 4.99482 0
M  V30 6602 H 619.29 2.43083 1.82056 0
M  V30 6603 H 616.875 1.23404 0.842126 0
M  V30 6604 H 618.757 1.31347 4.00407 0
M  V30 6605 H 617.432 0.419536 3.2097 0
M  V30 6606 H 616.339 2.66262 2.62784 0
M  V30 6607 H 617.672 3.48933 3.47141 0
M  V30 6608 N 619.324 -0.923095 1.27737 0
M  V30 6609 C 620.234 -2.05765 1.12685 0
M  V30 6610 C 621.25 -1.73911 0.0557197 0
M  V30 6611 O 622.426 -1.99674 0.263137 0
M  V30 6612 C 619.491 -3.37804 0.780363 0
M  V30 6613 C 618.552 -3.83326 1.93286 0
M  V30 6614 C 617.785 -5.09064 1.60281 0
M  V30 6615 O 618.008 -5.6809 0.512828 0
M  V30 6616 O 616.942 -5.50071 2.44347 0
M  V30 6617 H 620.768 -2.21378 2.07907 0
M  V30 6618 H 618.353 -1.04299 1.06968 0
M  V30 6619 H 620.235 -4.17097 0.600668 0
M  V30 6620 H 618.91 -3.23387 -0.142291 0
M  V30 6621 H 617.817 -3.049 2.16764 0
M  V30 6622 H 619.15 -4.02292 2.83588 0
M  V30 6623 N 620.802 -1.09834 -1.13024 0
M  V30 6624 C 621.732 -0.763451 -2.20666 0
M  V30 6625 C 622.713 0.260778 -1.68089 0
M  V30 6626 O 623.898 0.127915 -1.93778 0
M  V30 6627 C 621.028 -0.187744 -3.46792 0
M  V30 6628 C 619.982 -1.14196 -4.12484 0
M  V30 6629 C 619.308 -0.427755 -5.32986 0
M  V30 6630 C 620.608 -2.48607 -4.59338 0
M  V30 6631 H 622.302 -1.66347 -2.48936 0
M  V30 6632 H 619.848 -0.801261 -1.19649 0
M  V30 6633 H 621.801 0.0586375 -4.21359 0
M  V30 6634 H 620.525 0.747485 -3.17931 0
M  V30 6635 H 619.184 -1.37369 -3.3989 0
M  V30 6636 H 618.832 0.511747 -5.0039 0
M  V30 6637 H 618.532 -1.06403 -5.77886 0
M  V30 6638 H 620.056 -0.189772 -6.10305 0
M  V30 6639 H 621.47 -2.29618 -5.25308 0
M  V30 6640 H 619.867 -3.08062 -5.14993 0
M  V30 6641 H 620.937 -3.09062 -3.73642 0
M  V30 6642 N 622.28 1.30327 -0.886154 0
M  V30 6643 C 623.19 2.31854 -0.357866 0
M  V30 6644 C 624.206 1.65392 0.540502 0
M  V30 6645 O 625.382 1.96683 0.433339 0
M  V30 6646 C 622.447 3.44171 0.417999 0
M  V30 6647 C 621.508 4.26257 -0.510263 0
M  V30 6648 C 620.741 5.3321 0.228669 0
M  V30 6649 O 620.964 5.51542 1.45458 0
M  V30 6650 O 619.898 6.0042 -0.421832 0
M  V30 6651 H 623.724 2.78995 -1.19982 0
M  V30 6652 H 621.309 1.34518 -0.650028 0
M  V30 6653 H 623.191 4.12588 0.857251 0
M  V30 6654 H 621.866 2.99164 1.23623 0
M  V30 6655 H 620.773 3.60533 -0.99835 0
M  V30 6656 H 622.106 4.74871 -1.29454 0
M  V30 6657 N 623.758 0.647228 1.43697 0
M  V30 6658 C 624.706 -0.0600105 2.32523 0
M  V30 6659 C 625.7 -0.819277 1.48271 0
M  V30 6660 O 626.906 -0.730356 1.64517 0
M  V30 6661 H 623.281 -0.0381872 0.75103 0
M  V30 6662 H 625.252 0.706978 2.89904 0
M  V30 6663 C 624.001 -1.0169 3.32497 0
M  V30 6664 H 623.324 -0.442083 3.97348 0
M  V30 6665 H 624.764 -1.48095 3.97296 0
M  V30 6666 C 623.223 -2.11002 2.6264 0
M  V30 6667 O 623.753 -3.19302 2.4374 0
M  V30 6668 N 621.959 -1.87388 2.22113 0
M  V30 6669 H 621.506 -0.993174 2.37684 0
M  V30 6670 H 621.464 -2.60723 1.75701 0
M  V30 6671 N 625.236 -1.5273 0.388769 0
M  V30 6672 C 626.485 -2.00757 -0.194833 0
M  V30 6673 C 626.798 -1.27951 -1.47946 0
M  V30 6674 O 628.004 -1.66686 -2.14308 0
M  V30 6675 C 626.46 -3.57695 -0.397762 0
M  V30 6676 C 626.068 -4.394 0.873583 0
M  V30 6677 C 627.812 -4.14012 -0.937759 0
M  V30 6678 C 625.719 -5.87938 0.638962 0
M  V30 6679 H 624.649 -0.750101 -0.0765845 0
M  V30 6680 H 627.3 -1.76239 0.511086 0
M  V30 6681 H 625.682 -3.7846 -1.16552 0
M  V30 6682 H 626.856 -4.30403 1.64591 0
M  V30 6683 H 625.171 -3.94301 1.33849 0
M  V30 6684 H 627.768 -5.22645 -1.12899 0
M  V30 6685 H 628.111 -3.7007 -1.90666 0
M  V30 6686 H 628.644 -3.97137 -0.229588 0
M  V30 6687 H 625.383 -6.36202 1.57885 0
M  V30 6688 H 624.903 -5.99726 -0.094443 0
M  V30 6689 H 626.582 -6.46423 0.273299 0
M  V30 6690 N 626.714 -0.118576 -1.57153 0
M  V30 6691 C 627.942 0.54726 -1.99531 0
M  V30 6692 C 628.357 1.60251 -0.998246 0
M  V30 6693 O 627.714 1.82498 0.00893106 0
M  V30 6694 C 627.765 1.17378 -3.41913 0
M  V30 6695 O 627.486 0.160703 -4.37805 0
M  V30 6696 C 628.987 1.92297 -3.9942 0
M  V30 6697 H 626.207 0.144919 -0.655164 0
M  V30 6698 H 628.751 -0.20479 -2.03472 0
M  V30 6699 H 626.906 1.87661 -3.38913 0
M  V30 6700 H 627.32 0.61586 -5.20872 0
M  V30 6701 H 628.794 2.31462 -5.01128 0
M  V30 6702 H 629.271 2.79801 -3.38538 0
M  V30 6703 H 629.877 1.26777 -4.05965 0
M  V30 6704 N 628.193 1.56834 0.155195 0
M  V30 6705 C 629.421 1.87049 0.884326 0
M  V30 6706 C 629.836 0.705839 1.7511 0
M  V30 6707 O 629.193 -0.324641 1.79589 0
M  V30 6708 C 629.244 3.1644 1.74781 0
M  V30 6709 O 628.965 4.28417 0.915978 0
M  V30 6710 C 630.466 3.60113 2.58522 0
M  V30 6711 H 627.686 0.620196 0.25612 0
M  V30 6712 H 630.23 2.03946 0.150445 0
M  V30 6713 H 628.385 3.01321 2.43484 0
M  V30 6714 H 628.799 5.02353 1.50803 0
M  V30 6715 H 630.273 4.53508 3.14698 0
M  V30 6716 H 630.75 2.85005 3.34169 0
M  V30 6717 H 631.356 3.77898 1.95124 0
M  V30 6718 N 629.671 -0.424282 1.51781 0
M  V30 6719 C 630.618 -1.51591 1.74037 0
M  V30 6720 C 631.588 -1.55556 0.582358 0
M  V30 6721 O 632.773 -1.72364 0.818245 0
M  V30 6722 C 629.913 -2.89188 1.8832 0
M  V30 6723 C 629.026 -2.9465 3.1592 0
M  V30 6724 C 628.161 -4.23452 3.20721 0
M  V30 6725 C 627.2 -4.22831 4.42584 0
M  V30 6726 N 626.337 -5.43178 4.44862 0
M  V30 6727 H 631.177 -1.31917 2.67212 0
M  V30 6728 H 628.714 -0.640599 1.32419 0
M  V30 6729 H 630.672 -3.69044 1.94583 0
M  V30 6730 H 629.302 -3.07392 0.985402 0
M  V30 6731 H 628.354 -2.07378 3.18902 0
M  V30 6732 H 629.666 -2.90055 4.05795 0
M  V30 6733 H 628.82 -5.1169 3.25973 0
M  V30 6734 H 627.559 -4.30722 2.28757 0
M  V30 6735 H 626.564 -3.32984 4.37495 0
M  V30 6736 H 627.789 -4.17213 5.35826 0
M  V30 6737 H 625.735 -5.51145 3.55775 0
M  V30 6738 H 625.652 -5.40515 5.28563 0
M  V30 6739 H 626.92 -6.33412 4.54324 0
M  V30 6740 N 631.149 -1.42148 -0.680565 0
M  V30 6741 C 632.099 -1.41634 -1.78672 0
M  V30 6742 C 633.083 -0.288494 -1.58293 0
M  V30 6743 O 634.275 -0.530295 -1.68869 0
M  V30 6744 C 631.404 -1.31558 -3.17092 0
M  V30 6745 C 630.49 -2.49265 -3.43115 0
M  V30 6746 N 630.881 -3.74702 -3.39753 0
M  V30 6747 C 629.179 -2.43401 -3.73727 0
M  V30 6748 C 629.88 -4.52854 -3.651 0
M  V30 6749 N 628.856 -3.83181 -3.85582 0
M  V30 6750 H 632.658 -2.3652 -1.74458 0
M  V30 6751 H 630.172 -1.36415 -0.881171 0
M  V30 6752 H 632.169 -1.29272 -3.96351 0
M  V30 6753 H 630.829 -0.376696 -3.22508 0
M  V30 6754 H 631.84 -4.07378 -3.19787 0
M  V30 6755 H 628.517 -1.58062 -3.86423 0
M  V30 6756 H 629.907 -5.61827 -3.6851 0
M  V30 6757 N 632.627 0.916307 -1.28225 0
M  V30 6758 C 633.876 1.65975 -1.14608 0
M  V30 6759 C 634.189 1.93204 0.305191 0
M  V30 6760 O 635.395 2.65611 0.562432 0
M  V30 6761 C 633.851 2.98989 -2.00333 0
M  V30 6762 C 633.459 2.79417 -3.50186 0
M  V30 6763 C 635.203 3.76856 -1.95397 0
M  V30 6764 C 633.11 4.08056 -4.28071 0
M  V30 6765 H 632.04 0.622587 -0.425324 0
M  V30 6766 H 634.691 1.01705 -1.52736 0
M  V30 6767 H 633.073 3.6438 -1.5506 0
M  V30 6768 H 634.247 2.22723 -4.034 0
M  V30 6769 H 632.562 2.14966 -3.56621 0
M  V30 6770 H 635.159 4.72203 -2.50856 0
M  V30 6771 H 635.502 4.05776 -0.930137 0
M  V30 6772 H 636.035 3.1828 -2.38626 0
M  V30 6773 H 632.774 3.8431 -5.31024 0
M  V30 6774 H 632.294 4.64371 -3.79631 0
M  V30 6775 H 633.973 4.76333 -4.37854 0
M  V30 6776 N 634.105 1.10431 1.1244 0
M  V30 6777 C 635.351 0.847972 1.84221 0
M  V30 6778 C 635.684 -0.624903 1.83871 0
M  V30 6779 O 634.959 -1.46074 1.28423 0
M  V30 6780 C 635.242 1.39695 3.319 0
M  V30 6781 C 635.095 2.93668 3.40704 0
M  V30 6782 C 636.414 1.03924 4.27654 0
M  V30 6783 H 633.533 0.309502 0.668863 0
M  V30 6784 H 636.175 1.36745 1.31912 0
M  V30 6785 H 634.325 0.955095 3.76577 0
M  V30 6786 H 635.997 3.46379 3.04662 0
M  V30 6787 H 634.24 3.30272 2.81252 0
M  V30 6788 H 634.911 3.27162 4.446 0
M  V30 6789 H 637.387 1.42049 3.91102 0
M  V30 6790 H 636.263 1.45027 5.29394 0
M  V30 6791 H 636.524 -0.051336 4.4207 0
M  V30 6792 N 635.583 -1.29855 0.893053 0
M  V30 6793 C 636.808 -2.00512 0.530066 0
M  V30 6794 C 637.233 -1.66446 -0.876199 0
M  V30 6795 O 636.591 -0.885446 -1.58207 0
M  V30 6796 C 636.639 -3.53308 0.721505 0
M  V30 6797 O 635.743 -4.11764 -0.228994 0
M  V30 6798 H 635.084 -0.630617 0.207891 0
M  V30 6799 H 637.614 -1.6551 1.20282 0
M  V30 6800 H 637.624 -4.03206 0.623599 0
M  V30 6801 H 636.299 -3.77439 1.74678 0
M  V30 6802 H 634.876 -3.72805 -0.0841034 0
M  V30 6803 N 637.061 -0.65484 -1.43351 0
M  V30 6804 C 638.009 0.0476784 -2.32551 0
M  V30 6805 C 639.003 0.811403 -1.48703 0
M  V30 6806 O 640.209 0.721621 -1.64902 0
M  V30 6807 H 636.584 0.0342038 -0.751222 0
M  V30 6808 H 638.555 -0.722342 -2.89525 0
M  V30 6809 C 637.304 0.999251 -3.33032 0
M  V30 6810 H 636.627 0.421005 -3.97577 0
M  V30 6811 H 638.067 1.45986 -3.98076 0
M  V30 6812 C 636.526 2.09606 -2.63756 0
M  V30 6813 O 637.056 3.18004 -2.4543 0
M  V30 6814 N 635.262 1.86207 -2.23103 0
M  V30 6815 H 634.809 0.980555 -2.38208 0
M  V30 6816 H 634.767 2.59787 -1.77081 0
M  V30 6817 N 638.539 1.52521 -0.396863 0
M  V30 6818 C 639.816 1.94112 0.240842 0
M  V30 6819 C 640.196 1.33288 1.637 0
M  V30 6820 O 639.544 0.503901 2.22875 0
M  V30 6821 C 639.754 3.48033 0.259567 0
M  V30 6822 C 641.102 4.21822 0.484866 0
M  V30 6823 O 642.126 3.54579 0.339453 0
M  V30 6824 O 640.985 5.41042 0.770412 0
M  V30 6825 H 638.079 0.812973 0.151671 0
M  V30 6826 H 640.625 1.63572 -0.451918 0
M  V30 6827 H 639.397 3.84655 -0.718078 0
M  V30 6828 H 639.02 3.84899 0.996937 0
M  V30 6829 N 640.017 0.126909 1.57088 0
M  V30 6830 C 641.242 -0.53997 2.00248 0
M  V30 6831 C 641.667 -1.58927 1.00618 0
M  V30 6832 O 641.025 -1.81288 -0.0210131 0
M  V30 6833 C 641.073 -1.13565 3.4225 0
M  V30 6834 O 640.177 -2.25103 3.45547 0
M  V30 6835 H 639.518 -0.13412 0.650314 0
M  V30 6836 H 642.048 0.217718 2.03438 0
M  V30 6837 H 642.058 -1.46925 3.80627 0
M  V30 6838 H 640.733 -0.367122 4.14277 0
M  V30 6839 H 639.31 -1.93123 3.18995 0
M  V30 6840 N 641.495 -1.56914 -0.146875 0
M  V30 6841 C 642.72 -1.87881 -0.878386 0
M  V30 6842 C 643.145 -0.715945 -1.73942 0
M  V30 6843 O 642.503 0.334447 -1.78189 0
M  V30 6844 C 642.551 -3.17431 -1.71084 0
M  V30 6845 O 641.655 -3.01374 -2.81509 0
M  V30 6846 H 640.996 -0.617289 -0.244644 0
M  V30 6847 H 643.526 -2.04136 -0.137654 0
M  V30 6848 H 643.536 -3.49455 -2.10582 0
M  V30 6849 H 642.211 -4.01671 -1.07856 0
M  V30 6850 H 640.788 -2.80758 -2.45416 0
M  V30 6851 N 642.974 0.416227 -1.52004 0
M  V30 6852 C 644.251 1.17637 -1.56272 0
M  V30 6853 C 644.631 2.08352 -0.339493 0
M  V30 6854 O 643.979 2.1833 0.674124 0
M  V30 6855 C 644.189 1.95986 -2.88774 0
M  V30 6856 C 645.537 2.52299 -3.41512 0
M  V30 6857 O 646.561 2.06174 -2.90467 0
M  V30 6858 O 645.42 3.3648 -4.30631 0
M  V30 6859 H 642.514 0.536726 -0.629169 0
M  V30 6860 H 645.06 0.423583 -1.64329 0
M  V30 6861 H 643.832 1.29487 -3.69254 0
M  V30 6862 H 643.455 2.78285 -2.83978 0
M  V30 6863 N 644.452 1.42507 0.673017 0
M  V30 6864 C 645.677 1.4668 1.46627 0
M  V30 6865 C 646.102 0.080066 1.8793 0
M  V30 6866 O 645.46 -0.921879 1.56112 0
M  V30 6867 C 645.508 2.40091 2.69051 0
M  V30 6868 O 644.612 1.8735 3.67387 0
M  V30 6869 H 643.953 0.496908 0.44043 0
M  V30 6870 H 646.483 1.87215 0.825334 0
M  V30 6871 H 646.493 2.56731 3.17101 0
M  V30 6872 H 645.168 3.4084 2.3833 0
M  V30 6873 H 643.745 1.80274 3.26429 0
M  V30 6874 N 645.93 -0.909495 1.28709 0
M  V30 6875 C 647.207 -1.63865 1.06806 0
M  V30 6876 C 647.587 -2.07445 -0.391143 0
M  V30 6877 O 646.935 -1.82269 -1.37805 0
M  V30 6878 C 647.145 -2.82692 2.04661 0
M  V30 6879 C 648.493 -3.5361 2.35042 0
M  V30 6880 O 649.517 -2.92847 2.02779 0
M  V30 6881 O 648.376 -4.63131 2.90124 0
M  V30 6882 H 645.47 -0.719065 0.408502 0
M  V30 6883 H 648.016 -0.958424 1.40044 0
M  V30 6884 H 646.788 -2.47614 3.0299 0
M  V30 6885 H 646.411 -3.58426 1.72095 0
M  V30 6886 N 647.408 -1.11026 -1.11852 0
M  V30 6887 C 648.685 -0.768347 -1.79877 0
M  V30 6888 C 649.065 0.744261 -1.97545 0
M  V30 6889 O 648.413 1.67271 -1.55669 0
M  V30 6890 C 648.623 -1.52648 -3.13846 0
M  V30 6891 C 649.971 -1.70297 -3.88953 0
M  V30 6892 O 650.995 -1.49037 -3.23522 0
M  V30 6893 O 649.854 -2.05593 -5.06353 0
M  V30 6894 H 646.948 -0.277891 -0.778913 0
M  V30 6895 H 649.494 -1.21343 -1.18633 0
M  V30 6896 H 648.266 -2.55564 -2.96315 0
M  V30 6897 H 647.889 -1.07466 -3.82801 0
M  V30 6898 N 648.886 1.2938 -0.899927 0
M  V30 6899 C 649.796 2.31462 -0.382437 0
M  V30 6900 C 650.812 1.65956 0.522929 0
M  V30 6901 O 651.988 1.97131 0.412454 0
M  V30 6902 C 649.053 3.44595 0.381472 0
M  V30 6903 C 648.114 4.25692 -0.555444 0
M  V30 6904 C 647.347 5.33422 0.172102 0
M  V30 6905 O 647.57 5.53053 1.396 0
M  V30 6906 O 646.504 5.99939 -0.485491 0
M  V30 6907 H 650.33 2.77706 -1.22934 0
M  V30 6908 H 647.915 1.33821 -0.664259 0
M  V30 6909 H 649.797 4.13474 0.813442 0
M  V30 6910 H 648.472 3.00458 1.20443 0
M  V30 6911 H 647.379 3.59453 -1.03653 0
M  V30 6912 H 648.712 4.73471 -1.34483 0
M  V30 6913 N 650.364 0.662433 1.43002 0
M  V30 6914 C 651.589 0.186003 2.06564 0
M  V30 6915 C 652.014 -1.14314 1.49379 0
M  V30 6916 O 651.372 -1.70824 0.607346 0
M  V30 6917 C 651.42 0.118269 3.60406 0
M  V30 6918 O 650.524 -0.916859 4.02079 0
M  V30 6919 H 649.865 0.0990981 0.656563 0
M  V30 6920 H 652.395 0.907958 1.8335 0
M  V30 6921 H 652.405 -0.0619981 4.07953 0
M  V30 6922 H 651.08 1.08849 4.01403 0
M  V30 6923 H 649.657 -0.708635 3.66105 0
M  V30 6924 N 651.842 -1.52309 0.404946 0
M  V30 6925 C 652.792 -2.23717 -0.439864 0
M  V30 6926 C 653.776 -1.24692 -1.0169 0
M  V30 6927 O 654.968 -1.49951 -0.940409 0
M  V30 6928 C 652.097 -3.05898 -1.55825 0
M  V30 6929 C 651.183 -4.12331 -0.992188 0
M  V30 6930 N 651.574 -5.0557 -0.152424 0
M  V30 6931 C 649.872 -4.2774 -1.26312 0
M  V30 6932 C 650.573 -5.81474 0.162041 0
M  V30 6933 N 649.549 -5.41767 -0.44601 0
M  V30 6934 H 653.351 -2.93162 0.208084 0
M  V30 6935 H 650.865 -1.60969 0.215131 0
M  V30 6936 H 652.862 -3.55605 -2.17603 0
M  V30 6937 H 651.522 -2.37991 -2.20886 0
M  V30 6938 H 652.533 -5.17468 0.211556 0
M  V30 6939 H 649.21 -3.71062 -1.91362 0
M  V30 6940 H 650.6 -6.66585 0.843423 0
M  V30 6941 N 653.32 -0.135238 -1.57019 0
M  V30 6942 C 654.23 0.822226 -2.19719 0
M  V30 6943 C 655.246 1.28057 -1.17802 0
M  V30 6944 O 656.422 1.3402 -1.50335 0
M  V30 6945 C 653.487 2.0484 -2.79717 0
M  V30 6946 C 652.548 1.64042 -3.96723 0
M  V30 6947 C 651.781 2.80814 -4.53849 0
M  V30 6948 O 652.004 3.967 -4.0986 0
M  V30 6949 O 650.938 2.56963 -5.44292 0
M  V30 6950 H 654.764 0.318552 -3.02025 0
M  V30 6951 H 652.349 0.0912021 -1.49121 0
M  V30 6952 H 654.231 2.76622 -3.17897 0
M  V30 6953 H 652.906 2.54182 -2.00432 0
M  V30 6954 H 651.813 0.893182 -3.63281 0
M  V30 6955 H 653.146 1.19426 -4.77492 0
M  V30 6956 N 654.798 1.5699 0.138552 0
M  V30 6957 C 656.209 1.73171 0.697754 0
M  V30 6958 C 656.56 0.750952 1.8126 0
M  V30 6959 O 655.685 -0.080549 2.1625 0
M  V30 6960 C 656.28 3.13996 1.27248 0
M  V30 6961 C 654.839 3.3175 1.77816 0
M  V30 6962 C 653.986 2.69084 0.669991 0
M  V30 6963 H 656.937 1.5846 -0.0871979 0
M  V30 6964 H 656.958 3.14463 2.14227 0
M  V30 6965 H 656.47 3.85354 0.460855 0
M  V30 6966 H 654.571 2.65403 2.61519 0
M  V30 6967 H 654.684 4.39768 1.90107 0
M  V30 6968 H 653.048 2.29782 1.09874 0
M  V30 6969 H 653.831 3.43053 -0.130329 0
M  V30 6970 N 656.276 -0.40816 1.52223 0
M  V30 6971 C 657.223 -1.49737 1.75635 0
M  V30 6972 C 658.193 -1.5493 0.598824 0
M  V30 6973 O 659.378 -1.71487 0.83648 0
M  V30 6974 C 656.518 -2.87174 1.91376 0
M  V30 6975 C 655.631 -2.91283 3.19027 0
M  V30 6976 C 654.766 -4.20026 3.25195 0
M  V30 6977 C 653.805 -4.18113 4.47044 0
M  V30 6978 N 652.942 -5.38429 4.50598 0
M  V30 6979 H 657.782 -1.29075 2.68596 0
M  V30 6980 H 655.319 -0.626518 1.33091 0
M  V30 6981 H 657.277 -3.66959 1.98486 0
M  V30 6982 H 655.907 -3.06329 1.01795 0
M  V30 6983 H 654.959 -2.03984 3.21084 0
M  V30 6984 H 656.271 -2.85734 4.08849 0
M  V30 6985 H 655.425 -5.08204 3.31382 0
M  V30 6986 H 654.164 -4.28271 2.33313 0
M  V30 6987 H 653.169 -3.28325 4.41002 0
M  V30 6988 H 654.394 -4.11507 5.40221 0
M  V30 6989 H 652.34 -5.4734 3.616 0
M  V30 6990 H 652.257 -5.34879 5.34266 0
M  V30 6991 H 653.525 -6.28557 4.61016 0
M  V30 6992 N 657.755 -1.42862 -0.66545 0
M  V30 6993 C 659.003 -1.43546 -1.42264 0
M  V30 6994 C 659.324 -0.0563116 -1.94919 0
M  V30 6995 O 658.594 0.906568 -1.73661 0
M  V30 6996 H 657.174 -0.528464 -0.527953 0
M  V30 6997 H 659.836 -1.78363 -0.785665 0
M  V30 6998 H 658.932 -2.14079 -2.27105 0
M  V30 6999 N 659.233 0.902656 -1.29189 0
M  V30 7000 C 660.461 1.68639 -1.19869 0
M  V30 7001 C 660.876 1.87254 0.241121 0
M  V30 7002 O 660.233 1.40745 1.16177 0
M  V30 7003 C 660.284 3.07251 -1.90471 0
M  V30 7004 O 660.005 2.89488 -3.28829 0
M  V30 7005 C 661.506 4.01653 -1.8759 0
M  V30 7006 H 658.726 0.526802 -0.415596 0
M  V30 7007 H 661.27 1.12901 -1.7051 0
M  V30 7008 H 659.425 3.59774 -1.43672 0
M  V30 7009 H 659.839 3.77296 -3.64346 0
M  V30 7010 H 661.313 4.96339 -2.4156 0
M  V30 7011 H 661.79 4.30881 -0.850756 0
M  V30 7012 H 662.396 3.55061 -2.34119 0
M  V30 7013 N 660.711 1.11618 1.11262 0
M  V30 7014 C 661.621 0.78898 2.20935 0
M  V30 7015 C 662.637 -0.21867 1.7262 0
M  V30 7016 O 663.813 -0.0543826 2.01327 0
M  V30 7017 C 660.878 0.239014 3.45875 0
M  V30 7018 C 659.939 1.3055 4.08968 0
M  V30 7019 C 659.172 0.781687 5.27944 0
M  V30 7020 O 659.395 -0.387605 5.69082 0
M  V30 7021 O 658.329 1.54734 5.81671 0
M  V30 7022 H 662.155 1.70477 2.51339 0
M  V30 7023 H 659.74 0.892203 1.19834 0
M  V30 7024 H 661.622 -0.0632312 4.21353 0
M  V30 7025 H 660.297 -0.649454 3.17118 0
M  V30 7026 H 659.204 1.66079 3.35214 0
M  V30 7027 H 660.537 2.16743 4.41909 0
M  V30 7028 N 662.189 -1.289 0.906776 0
M  V30 7029 C 663.137 -2.29477 0.379873 0
M  V30 7030 C 664.131 -1.61068 -0.524747 0
M  V30 7031 O 665.337 -1.75344 -0.406765 0
M  V30 7032 H 661.712 -0.744742 0.10423 0
M  V30 7033 H 663.683 -2.71353 1.24137 0
M  V30 7034 C 662.432 -3.45713 -0.371154 0
M  V30 7035 H 661.755 -3.98551 0.315716 0
M  V30 7036 H 663.195 -4.18105 -0.704581 0
M  V30 7037 C 661.654 -2.9774 -1.57646 0
M  V30 7038 O 662.184 -2.99618 -2.67567 0
M  V30 7039 N 660.39 -2.53485 -1.42105 0
M  V30 7040 H 659.937 -2.52156 -0.526783 0
M  V30 7041 H 659.895 -2.21747 -2.22881 0
M  V30 7042 N 663.667 -0.670007 -1.42649 0
M  V30 7043 C 664.577 0.0114788 -2.34597 0
M  V30 7044 C 665.593 0.794055 -1.54825 0
M  V30 7045 O 666.769 0.737472 -1.87412 0
M  V30 7046 C 663.834 0.954436 -3.33304 0
M  V30 7047 C 662.895 0.166925 -4.28975 0
M  V30 7048 C 662.128 1.06497 -5.22967 0
M  V30 7049 O 662.351 2.30446 -5.21777 0
M  V30 7050 O 661.285 0.528347 -5.99577 0
M  V30 7051 H 665.111 -0.745794 -2.944 0
M  V30 7052 H 662.696 -0.430228 -1.43071 0
M  V30 7053 H 664.578 1.49589 -3.93956 0
M  V30 7054 H 663.253 1.69164 -2.7598 0
M  V30 7055 H 662.16 -0.418515 -3.71752 0
M  V30 7056 H 663.493 -0.531067 -4.89327 0
M  V30 7057 N 665.145 1.52092 -0.413018 0
M  V30 7058 C 666.422 1.94356 0.22024 0
M  V30 7059 C 666.802 1.35017 1.62277 0
M  V30 7060 O 666.15 0.527511 2.22328 0
M  V30 7061 C 666.36 3.48289 0.222638 0
M  V30 7062 C 667.708 4.22313 0.440098 0
M  V30 7063 O 668.732 3.54919 0.301826 0
M  V30 7064 O 667.591 5.41829 0.712984 0
M  V30 7065 H 664.685 0.814536 0.14304 0
M  V30 7066 H 667.231 1.63083 -0.469242 0
M  V30 7067 H 666.003 3.83872 -0.758836 0
M  V30 7068 H 665.626 3.85934 0.956057 0
M  V30 7069 N 666.623 0.143563 1.56945 0
M  V30 7070 C 667.586 -0.783295 2.154 0
M  V30 7071 C 668.586 -1.17763 1.09492 0
M  V30 7072 O 669.776 -1.09912 1.35148 0
M  V30 7073 C 666.908 -2.06248 2.7143 0
M  V30 7074 H 668.101 -0.274863 2.98638 0
M  V30 7075 H 665.654 -0.105859 1.55941 0
M  V30 7076 H 666.389 -2.61466 1.91849 0
M  V30 7077 H 666.174 -1.78897 3.4891 0
M  V30 7078 H 667.664 -2.72453 3.16479 0
M  V30 7079 N 668.101 -1.57061 -0.130224 0
M  V30 7080 C 669.349 -1.83893 -0.838313 0
M  V30 7081 C 669.67 -0.727046 -1.80939 0
M  V30 7082 O 668.94 0.249927 -1.94299 0
M  V30 7083 H 667.52 -0.67846 -0.312573 0
M  V30 7084 H 670.182 -1.94529 -0.120224 0
M  V30 7085 H 669.278 -2.79419 -1.39038 0
M  V30 7086 N 669.579 0.400081 -1.52437 0
M  V30 7087 C 670.804 1.17221 -1.71096 0
M  V30 7088 C 671.229 1.83269 -0.423565 0
M  V30 7089 O 670.587 1.70378 0.619751 0
M  V30 7090 C 670.635 2.20425 -2.85386 0
M  V30 7091 O 669.739 3.26769 -2.51586 0
M  V30 7092 H 669.08 0.341766 -0.569291 0
M  V30 7093 H 671.61 0.467772 -1.99181 0
M  V30 7094 H 671.62 2.64605 -3.10561 0
M  V30 7095 H 670.295 1.71737 -3.78786 0
M  V30 7096 H 668.872 2.87804 -2.37114 0
M  V30 7097 N 671.057 1.43213 0.657864 0
M  V30 7098 C 672.334 1.35063 1.41483 0
M  V30 7099 C 672.714 -0.0038314 2.111 0
M  V30 7100 O 672.062 -1.02018 2.04462 0
M  V30 7101 C 672.272 2.53061 2.40335 0
M  V30 7102 C 673.62 2.9594 3.04474 0
M  V30 7103 O 674.644 2.53074 2.50663 0
M  V30 7104 O 673.503 3.70184 4.02027 0
M  V30 7105 H 670.597 0.533517 0.631893 0
M  V30 7106 H 673.143 1.55253 0.685162 0
M  V30 7107 H 671.915 3.43283 1.87809 0
M  V30 7108 H 671.538 2.34945 3.20759 0
M  V30 7109 N 672.536 -0.895792 1.29666 0
M  V30 7110 C 673.766 -1.67757 1.20586 0
M  V30 7111 C 674.174 -1.87729 -0.235432 0
M  V30 7112 O 673.517 -1.41706 -1.16898 0
M  V30 7113 C 673.579 -3.08117 1.85215 0
M  V30 7114 C 673.243 -3.1136 3.3452 0
M  V30 7115 C 674.24 -2.91217 4.30684 0
M  V30 7116 C 671.925 -3.33302 3.75786 0
M  V30 7117 C 673.919 -2.92955 5.66089 0
M  V30 7118 C 671.606 -3.3467 5.11311 0
M  V30 7119 C 672.604 -3.14519 6.06273 0
M  V30 7120 O 672.292 -3.15684 7.39323 0
M  V30 7121 H 672.024 -0.530601 0.418854 0
M  V30 7122 H 674.578 -1.12831 1.71634 0
M  V30 7123 H 672.808 -3.64661 1.28683 0
M  V30 7124 H 674.497 -3.68399 1.70403 0
M  V30 7125 H 675.263 -2.74074 4.00136 0
M  V30 7126 H 671.142 -3.48025 3.02324 0
M  V30 7127 H 674.686 -2.77145 6.40185 0
M  V30 7128 H 670.583 -3.51346 5.41504 0
M  V30 7129 H 671.351 -3.31924 7.48177 0
M  V30 7130 N 674.014 -1.12206 -1.10668 0
M  V30 7131 C 674.946 -0.74552 -2.16736 0
M  V30 7132 C 675.959 0.226696 -1.61214 0
M  V30 7133 O 677.148 0.0083936 -1.78498 0
M  V30 7134 C 674.248 -0.0823368 -3.388 0
M  V30 7135 C 673.421 -1.08341 -4.2377 0
M  V30 7136 C 672.48 -0.448292 -5.24287 0
M  V30 7137 O 671.506 -1.10458 -5.58379 0
M  V30 7138 N 672.708 0.785336 -5.75163 0
M  V30 7139 H 675.473 -1.65818 -2.49649 0
M  V30 7140 H 673.034 -1.01335 -1.26265 0
M  V30 7141 H 675.026 0.354476 -4.03145 0
M  V30 7142 H 673.596 0.733041 -3.03884 0
M  V30 7143 H 672.816 -1.69792 -3.55759 0
M  V30 7144 H 674.104 -1.76042 -4.77375 0
M  V30 7145 H 673.502 1.33755 -5.4966 0
M  V30 7146 H 672.059 1.16501 -6.41304 0
M  V30 7147 N 675.492 1.28418 -0.913599 0
M  V30 7148 C 676.717 1.99643 -0.561899 0
M  V30 7149 C 677.142 1.67819 0.849608 0
M  V30 7150 O 676.5 0.910503 1.56779 0
M  V30 7151 C 676.548 3.52116 -0.777622 0
M  V30 7152 O 675.652 4.12076 0.163457 0
M  V30 7153 H 674.993 0.627229 -0.217898 0
M  V30 7154 H 677.523 1.63575 -1.229 0
M  V30 7155 H 677.533 4.02163 -0.687666 0
M  V30 7156 H 676.208 3.74613 -1.8066 0
M  V30 7157 H 674.785 3.72892 0.0247827 0
M  V30 7158 N 676.97 0.677563 1.42291 0
M  V30 7159 C 678.247 0.129803 1.95169 0
M  V30 7160 C 678.627 -1.35605 1.61786 0
M  V30 7161 O 677.975 -2.09361 0.915444 0
M  V30 7162 C 678.185 0.401889 3.46678 0
M  V30 7163 C 679.533 0.319889 4.23393 0
M  V30 7164 O 680.557 0.33579 3.54614 0
M  V30 7165 O 679.416 0.264459 5.4586 0
M  V30 7166 H 676.51 0.00447433 0.826988 0
M  V30 7167 H 679.056 0.752483 1.52105 0
M  V30 7168 H 677.828 1.43108 3.64192 0
M  V30 7169 H 677.451 -0.252662 3.96796 0
M  V30 7170 N 678.448 -1.51871 0.421078 0
M  V30 7171 C 679.396 -2.28903 -0.413066 0
M  V30 7172 C 680.39 -1.3408 -1.03532 0
M  V30 7173 O 681.596 -1.5149 -0.972146 0
M  V30 7174 H 677.971 -0.736478 -0.152003 0
M  V30 7175 H 679.942 -2.97285 0.257695 0
M  V30 7176 C 678.691 -3.13156 -1.51091 0
M  V30 7177 H 678.014 -3.85997 -1.04145 0
M  V30 7178 H 679.454 -3.7014 -2.06814 0
M  V30 7179 C 677.913 -2.27482 -2.48503 0
M  V30 7180 O 678.443 -1.92325 -3.52667 0
M  V30 7181 N 676.649 -1.91019 -2.18998 0
M  V30 7182 H 676.196 -2.19808 -1.34322 0
M  V30 7183 H 676.154 -1.3399 -2.84419 0
M  V30 7184 N 679.926 -0.151884 -1.56866 0
M  V30 7185 C 680.858 0.817008 -2.14144 0
M  V30 7186 C 681.871 1.20735 -1.0921 0
M  V30 7187 O 683.06 1.15058 -1.36469 0
M  V30 7188 C 680.16 2.10844 -2.65326 0
M  V30 7189 C 679.333 1.88471 -3.94712 0
M  V30 7190 C 678.392 3.01649 -4.31155 0
M  V30 7191 O 677.418 2.73127 -4.9939 0
M  V30 7192 N 678.62 4.28947 -3.91132 0
M  V30 7193 H 681.385 0.327448 -2.97906 0
M  V30 7194 H 678.946 0.0315313 -1.61869 0
M  V30 7195 H 680.938 2.85616 -2.86715 0
M  V30 7196 H 679.508 2.51049 -1.86262 0
M  V30 7197 H 678.728 0.977088 -3.81899 0
M  V30 7198 H 680.016 1.70866 -4.79252 0
M  V30 7199 H 679.414 4.54986 -3.36161 0
M  V30 7200 H 677.971 5.00484 -4.17563 0
M  V30 7201 N 681.404 1.57128 0.121893 0
M  V30 7202 C 682.367 1.99197 1.13372 0
M  V30 7203 C 683.367 0.881728 1.3447 0
M  V30 7204 O 684.557 1.14783 1.31036 0
M  V30 7205 C 681.689 2.32963 2.4888 0
M  V30 7206 H 682.882 2.89788 0.772204 0
M  V30 7207 H 680.435 1.51952 0.366093 0
M  V30 7208 H 681.17 1.45243 2.89957 0
M  V30 7209 H 680.955 3.13934 2.34921 0
M  V30 7210 H 682.445 2.66261 3.21706 0
M  V30 7211 N 682.882 -0.391992 1.52647 0
M  V30 7212 C 684.107 -1.16312 1.71716 0
M  V30 7213 C 684.532 -1.83042 0.433279 0
M  V30 7214 O 683.89 -1.70705 -0.610707 0
M  V30 7215 C 683.938 -2.18908 2.86551 0
M  V30 7216 O 683.042 -3.2543 2.53316 0
M  V30 7217 H 682.383 -0.338743 0.571095 0
M  V30 7218 H 684.913 -0.457202 1.99426 0
M  V30 7219 H 684.923 -2.62954 3.1196 0
M  V30 7220 H 683.598 -1.69726 3.79692 0
M  V30 7221 H 682.175 -2.86543 2.38637 0
M  V30 7222 N 684.36 -1.4356 -0.65026 0
M  V30 7223 C 685.606 -1.46545 -1.41054 0
M  V30 7224 C 685.961 -0.0894113 -1.92192 0
M  V30 7225 O 685.254 0.892427 -1.69547 0
M  V30 7226 C 685.448 -2.44528 -2.60654 0
M  V30 7227 C 685.277 -3.91524 -2.21222 0
M  V30 7228 C 684.047 -4.59866 -2.09408 0
M  V30 7229 C 686.245 -4.81276 -1.81323 0
M  V30 7230 N 684.227 -5.91772 -1.63337 0
M  V30 7231 C 685.598 -6.02478 -1.46356 0
M  V30 7232 C 687.653 -4.6851 -1.68532 0
M  V30 7233 C 686.356 -7.12332 -0.998805 0
M  V30 7234 C 688.382 -5.78369 -1.23461 0
M  V30 7235 C 687.744 -6.98699 -0.894337 0
M  V30 7236 H 683.843 -0.59135 -0.511693 0
M  V30 7237 H 686.427 -1.79759 -0.747978 0
M  V30 7238 H 684.598 -2.13336 -3.24565 0
M  V30 7239 H 686.33 -2.37932 -3.27369 0
M  V30 7240 H 683.085 -4.14412 -2.29259 0
M  V30 7241 H 683.509 -6.61799 -1.42655 0
M  V30 7242 H 688.151 -3.75933 -1.93479 0
M  V30 7243 H 685.869 -8.04734 -0.736835 0
M  V30 7244 H 689.455 -5.70512 -1.1405 0
M  V30 7245 H 688.335 -7.82263 -0.550901 0
M  V30 7246 N 685.838 0.888903 -1.30139 0
M  V30 7247 C 687.087 1.63507 -1.18103 0
M  V30 7248 C 687.4 1.93808 0.264141 0
M  V30 7249 O 688.606 2.66744 0.505966 0
M  V30 7250 C 687.062 2.94673 -2.0663 0
M  V30 7251 C 686.67 2.71926 -3.56034 0
M  V30 7252 C 688.414 3.72626 -2.03346 0
M  V30 7253 C 686.321 3.98884 -4.3663 0
M  V30 7254 H 685.251 0.613426 -0.438435 0
M  V30 7255 H 687.902 0.984427 -1.54859 0
M  V30 7256 H 686.284 3.61009 -1.62754 0
M  V30 7257 H 687.458 2.14116 -4.08033 0
M  V30 7258 H 685.773 2.07353 -3.61101 0
M  V30 7259 H 688.37 4.66775 -2.60816 0
M  V30 7260 H 688.713 4.03712 -1.016 0
M  V30 7261 H 689.246 3.13147 -2.45324 0
M  V30 7262 H 685.985 3.72959 -5.39056 0
M  V30 7263 H 685.505 4.56214 -3.89396 0
M  V30 7264 H 687.184 4.66938 -4.47859 0
M  V30 7265 N 687.317 1.12792 1.10072 0
M  V30 7266 C 688.267 0.768086 2.14673 0
M  V30 7267 C 689.251 -0.234716 1.59179 0
M  V30 7268 O 690.443 -0.039643 1.76956 0
M  V30 7269 C 687.572 0.228472 3.42539 0
M  V30 7270 C 686.658 1.25979 4.04957 0
M  V30 7271 N 687.049 2.4586 4.42025 0
M  V30 7272 C 685.347 1.10602 4.32069 0
M  V30 7273 C 686.048 3.11747 4.9111 0
M  V30 7274 N 685.024 2.39185 4.88151 0
M  V30 7275 H 688.826 1.68029 2.4113 0
M  V30 7276 H 686.34 1.00925 1.27232 0
M  V30 7277 H 688.337 -0.0475216 4.16873 0
M  V30 7278 H 686.997 -0.678136 3.1754 0
M  V30 7279 H 688.008 2.83215 4.33601 0
M  V30 7280 H 684.685 0.257021 4.16708 0
M  V30 7281 H 686.075 4.13862 5.29309 0
M  V30 7282 N 688.795 -1.27931 0.920396 0
M  V30 7283 C 690.211 -1.47085 0.619537 0
M  V30 7284 C 690.411 -1.83463 -0.833291 0
M  V30 7285 O 689.467 -1.94363 -1.61181 0
M  V30 7286 C 690.78 -2.56878 1.56314 0
M  V30 7287 C 692.328 -2.70743 1.57058 0
M  V30 7288 C 692.803 -3.83687 2.50097 0
M  V30 7289 N 694.294 -3.9105 2.48262 0
M  V30 7290 C 695.029 -4.77842 3.16945 0
M  V30 7291 N 694.525 -5.69176 3.94982 0
M  V30 7292 N 696.318 -4.71509 3.06 0
M  V30 7293 H 688.469 -1.02601 1.85975 0
M  V30 7294 H 690.732 -0.511682 0.798051 0
M  V30 7295 H 690.438 -2.36923 2.59923 0
M  V30 7296 H 690.312 -3.54117 1.29928 0
M  V30 7297 H 692.699 -2.90083 0.541832 0
M  V30 7298 H 692.78 -1.74015 1.8749 0
M  V30 7299 H 692.424 -3.65101 3.53077 0
M  V30 7300 H 692.354 -4.79827 2.16964 0
M  V30 7301 H 694.845 -3.25738 1.91581 0
M  V30 7302 H 695.158 -6.32245 4.44394 0
M  V30 7303 H 693.503 -5.68995 3.99086 0
M  V30 7304 H 696.694 -3.99151 2.44533 0
M  V30 7305 H 696.867 -5.38933 3.59799 0
M  V30 7306 N 690.273 -0.685099 -1.4193 0
M  V30 7307 C 691.206 0.0371639 -2.2817 0
M  V30 7308 C 692.184 0.798436 -1.41647 0
M  V30 7309 O 693.368 0.791428 -1.71081 0
M  V30 7310 C 690.495 1.05993 -3.21688 0
M  V30 7311 C 689.541 0.393043 -4.24685 0
M  V30 7312 S 690.374 -0.856921 -5.28599 0
M  V30 7313 C 691.53 0.164508 -6.25684 0
M  V30 7314 H 691.763 -0.694305 -2.89079 0
M  V30 7315 H 689.296 -0.474999 -1.46912 0
M  V30 7316 H 691.254 1.64489 -3.76103 0
M  V30 7317 H 689.915 1.7639 -2.59895 0
M  V30 7318 H 689.108 1.16513 -4.90348 0
M  V30 7319 H 688.71 -0.118589 -3.73812 0
M  V30 7320 H 691.002 1.02106 -6.69762 0
M  V30 7321 H 691.945 -0.457917 -7.06618 0
M  V30 7322 H 692.353 0.514596 -5.6215 0
M  V30 7323 N 691.751 1.51645 -0.429126 0
M  V30 7324 C 693 2.01203 0.141538 0
M  V30 7325 C 693.313 1.31828 1.44502 0
M  V30 7326 O 694.519 1.7231 2.09813 0
M  V30 7327 C 692.975 3.58624 0.302786 0
M  V30 7328 C 692.583 4.3693 -0.989775 0
M  V30 7329 C 694.327 4.16353 0.827661 0
M  V30 7330 C 692.234 5.86037 -0.794619 0
M  V30 7331 H 691.164 0.751867 0.05667 0
M  V30 7332 H 693.815 1.74822 -0.557633 0
M  V30 7333 H 692.197 3.81417 1.06476 0
M  V30 7334 H 693.371 4.25887 -1.75945 0
M  V30 7335 H 691.686 3.90614 -1.44256 0
M  V30 7336 H 694.283 5.25455 0.990026 0
M  V30 7337 H 694.626 3.74995 1.80787 0
M  V30 7338 H 695.159 3.97606 0.124213 0
M  V30 7339 H 691.898 6.31792 -1.74697 0
M  V30 7340 H 691.418 5.99765 -0.0645968 0
M  V30 7341 H 693.097 6.45471 -0.444591 0
M  V30 7342 N 693.229 0.160201 1.56784 0
M  V30 7343 C 694.162 -0.812797 2.13234 0
M  V30 7344 C 695.14 -1.2335 1.05942 0
M  V30 7345 O 696.324 -1.32725 1.33852 0
M  V30 7346 C 693.451 -2.09311 2.66283 0
M  V30 7347 C 692.497 -1.8173 3.85845 0
M  V30 7348 S 693.33 -0.996473 5.26147 0
M  V30 7349 C 694.486 -2.28769 5.82594 0
M  V30 7350 H 694.719 -0.332794 2.95432 0
M  V30 7351 H 692.252 -0.0542971 1.54304 0
M  V30 7352 H 694.21 -2.82854 2.97496 0
M  V30 7353 H 692.871 -2.54425 1.84192 0
M  V30 7354 H 692.064 -2.76699 4.21253 0
M  V30 7355 H 691.666 -1.16289 3.55462 0
M  V30 7356 H 693.958 -3.24319 5.9483 0
M  V30 7357 H 694.901 -1.97846 6.79899 0
M  V30 7358 H 695.309 -2.40021 5.10931 0
M  V30 7359 N 694.707 -1.5719 -0.113559 0
M  V30 7360 C 695.67 -1.99796 -1.12314 0
M  V30 7361 C 696.67 -0.888847 -1.34001 0
M  V30 7362 O 697.86 -1.15476 -1.30426 0
M  V30 7363 C 694.992 -2.34279 -2.47641 0
M  V30 7364 H 696.185 -2.90193 -0.756825 0
M  V30 7365 H 693.738 -1.52144 -0.358029 0
M  V30 7366 H 694.473 -1.46778 -2.89183 0
M  V30 7367 H 694.258 -3.15175 -2.33253 0
M  V30 7368 H 695.748 -2.67963 -3.2029 0
M  V30 7369 N 696.185 0.383891 -1.52853 0
M  V30 7370 C 697.115 1.47559 -1.80965 0
M  V30 7371 C 698.096 1.5669 -0.661986 0
M  V30 7372 O 699.281 1.71556 -0.910072 0
M  V30 7373 C 696.411 2.85114 -1.98312 0
M  V30 7374 C 695.365 2.9082 -3.14019 0
M  V30 7375 C 694.691 4.30873 -3.16627 0
M  V30 7376 C 695.991 2.60001 -4.52986 0
M  V30 7377 H 697.685 1.24283 -2.72386 0
M  V30 7378 H 695.231 0.596445 -1.31067 0
M  V30 7379 H 697.184 3.61496 -2.16561 0
M  V30 7380 H 695.908 3.09738 -1.03585 0
M  V30 7381 H 694.567 2.16886 -2.9556 0
M  V30 7382 H 694.215 4.52545 -2.19573 0
M  V30 7383 H 693.915 4.3561 -3.94357 0
M  V30 7384 H 695.439 5.09154 -3.37038 0
M  V30 7385 H 696.853 3.261 -4.71521 0
M  V30 7386 H 695.25 2.76081 -5.32822 0
M  V30 7387 H 696.32 1.5532 -4.59351 0
M  V30 7388 N 697.663 1.43903 0.642637 0
M  V30 7389 C 698.909 1.46296 1.40447 0
M  V30 7390 C 699.242 0.0908361 1.93987 0
M  V30 7391 O 698.517 -0.889884 1.72949 0
M  V30 7392 C 698.8 2.51399 2.57819 0
M  V30 7393 C 698.653 3.97926 2.09702 0
M  V30 7394 C 699.972 2.53125 3.60022 0
M  V30 7395 H 697.091 0.532676 0.509338 0
M  V30 7396 H 699.733 1.75515 0.727635 0
M  V30 7397 H 697.883 2.26614 3.1556 0
M  V30 7398 H 699.555 4.33804 1.5688 0
M  V30 7399 H 697.798 4.10252 1.40982 0
M  V30 7400 H 698.469 4.67096 2.94152 0
M  V30 7401 H 700.945 2.75242 3.12059 0
M  V30 7402 H 699.821 3.28589 4.39682 0
M  V30 7403 H 700.082 1.56895 4.13324 0
M  V30 7404 N 699.141 -0.881989 1.30609 0
M  V30 7405 C 700.366 -1.67236 1.22665 0
M  V30 7406 C 700.791 -1.8696 -0.206777 0
M  V30 7407 O 700.149 -1.4027 -1.14865 0
M  V30 7408 C 700.197 -3.02446 1.96363 0
M  V30 7409 O 699.301 -3.91614 1.29276 0
M  V30 7410 H 698.642 -0.510902 0.424117 0
M  V30 7411 H 701.172 -1.10055 1.72479 0
M  V30 7412 H 701.182 -3.52468 2.055 0
M  V30 7413 H 699.857 -2.8741 3.00613 0
M  V30 7414 H 698.434 -3.50055 1.28514 0
M  V30 7415 N 700.619 -1.13374 -1.09472 0
M  V30 7416 C 701.896 -0.806329 -1.78207 0
M  V30 7417 C 702.276 0.702191 -1.99079 0
M  V30 7418 O 701.624 1.63931 -1.59182 0
M  V30 7419 C 701.834 -1.59271 -3.10538 0
M  V30 7420 C 703.182 -1.78509 -3.85253 0
M  V30 7421 O 704.206 -1.55866 -3.20288 0
M  V30 7422 O 703.065 -2.16287 -5.01879 0
M  V30 7423 H 700.159 -0.29435 -0.772843 0
M  V30 7424 H 702.705 -1.23833 -1.16033 0
M  V30 7425 H 701.477 -2.61792 -2.90828 0
M  V30 7426 H 701.1 -1.15562 -3.80436 0
M  V30 7427 N 702.098 1.27442 -0.927168 0
M  V30 7428 C 703.323 1.99036 -0.583042 0
M  V30 7429 C 703.748 1.68711 0.83176 0
M  V30 7430 O 703.106 0.927081 1.55804 0
M  V30 7431 C 703.154 3.51271 -0.814925 0
M  V30 7432 O 702.258 4.12226 0.119742 0
M  V30 7433 H 701.599 0.624883 -0.224538 0
M  V30 7434 H 704.129 1.62263 -1.24628 0
M  V30 7435 H 704.139 4.01411 -0.730282 0
M  V30 7436 H 702.814 3.72676 -1.84623 0
M  V30 7437 H 701.391 3.72897 -0.0147688 0
M  V30 7438 N 703.576 0.692616 1.41565 0
M  V30 7439 C 704.539 0.0344174 2.29174 0
M  V30 7440 C 705.539 -0.710961 1.44229 0
M  V30 7441 O 706.729 -0.546293 1.65412 0
M  V30 7442 C 703.861 -0.961682 3.27054 0
M  V30 7443 H 705.054 0.805755 2.88873 0
M  V30 7444 H 702.607 0.455947 1.49502 0
M  V30 7445 H 703.342 -1.76089 2.72329 0
M  V30 7446 H 703.127 -0.430375 3.89731 0
M  V30 7447 H 704.617 -1.4201 3.92712 0
M  V30 7448 N 705.054 -1.51416 0.437162 0
M  V30 7449 C 705.984 -2.30631 -0.364922 0
M  V30 7450 C 706.965 -1.36037 -1.02118 0
M  V30 7451 O 708.15 -1.64956 -1.02485 0
M  V30 7452 C 705.28 -3.1482 -1.46648 0
M  V30 7453 C 704.234 -4.17691 -0.933717 0
M  V30 7454 C 703.56 -4.904 -2.13101 0
M  V30 7455 C 704.86 -5.2229 0.0317201 0
M  V30 7456 H 706.554 -2.97932 0.29614 0
M  V30 7457 H 704.1 -1.4328 0.143865 0
M  V30 7458 H 706.053 -3.69017 -2.03481 0
M  V30 7459 H 704.777 -2.4534 -2.15583 0
M  V30 7460 H 703.436 -3.64545 -0.387602 0
M  V30 7461 H 703.084 -4.17423 -2.80654 0
M  V30 7462 H 702.784 -5.59962 -1.78092 0
M  V30 7463 H 704.308 -5.4742 -2.70487 0
M  V30 7464 H 705.722 -5.7156 -0.446302 0
M  V30 7465 H 704.119 -5.99378 0.29437 0
M  V30 7466 H 705.189 -4.75131 0.968447 0
M  V30 7467 N 706.532 -0.168513 -1.56696 0
M  V30 7468 C 707.779 0.477158 -1.96798 0
M  V30 7469 C 708.107 1.63442 -1.05437 0
M  V30 7470 O 707.362 1.95503 -0.0878903 0
M  V30 7471 C 707.661 1.00441 -3.42996 0
M  V30 7472 C 707.327 -0.0366556 -4.50885 0
M  V30 7473 C 705.989 -0.322785 -4.80116 0
M  V30 7474 C 708.341 -0.743447 -5.1587 0
M  V30 7475 C 705.669 -1.32114 -5.71632 0
M  V30 7476 C 708.021 -1.73077 -6.08463 0
M  V30 7477 C 706.685 -2.02437 -6.36062 0
M  V30 7478 H 705.955 0.174604 -0.720135 0
M  V30 7479 H 708.602 -0.259884 -1.89728 0
M  V30 7480 H 706.907 1.81922 -3.47004 0
M  V30 7481 H 708.604 1.51294 -3.71364 0
M  V30 7482 H 705.194 0.196532 -4.28149 0
M  V30 7483 H 709.378 -0.535602 -4.93401 0
M  V30 7484 H 704.634 -1.55482 -5.913 0
M  V30 7485 H 708.808 -2.28382 -6.57886 0
M  V30 7486 H 706.435 -2.79946 -7.06777 0
M  V30 7487 N 708.01 1.57248 0.105221 0
M  V30 7488 C 708.958 2.02337 1.14728 0
M  V30 7489 C 709.952 0.922652 1.42069 0
M  V30 7490 O 711.158 1.10785 1.41869 0
M  V30 7491 H 707.533 0.644682 0.387155 0
M  V30 7492 H 709.504 2.89063 0.740607 0
M  V30 7493 C 708.253 2.45513 2.46209 0
M  V30 7494 H 707.576 3.29785 2.26013 0
M  V30 7495 H 709.016 2.80846 3.1765 0
M  V30 7496 C 707.475 1.3243 3.09781 0
M  V30 7497 O 708.005 0.647841 3.96442 0
M  V30 7498 N 706.211 1.07785 2.69872 0
M  V30 7499 H 705.758 1.62973 1.99493 0
M  V30 7500 H 705.716 0.323204 3.12734 0
M  V30 7501 N 709.488 -0.375779 1.53054 0
M  V30 7502 C 710.716 -1.14036 1.72637 0
M  V30 7503 C 711.131 -1.83342 0.450687 0
M  V30 7504 O 710.488 -1.7318 -0.575749 0
M  V30 7505 C 710.539 -2.17841 2.88492 0
M  V30 7506 O 710.26 -1.51358 4.11123 0
M  V30 7507 C 711.761 -3.06924 3.19863 0
M  V30 7508 H 708.981 -0.341386 0.577665 0
M  V30 7509 H 711.525 -0.437809 1.99759 0
M  V30 7510 H 709.68 -2.8371 2.63794 0
M  V30 7511 H 710.094 -2.20439 4.75928 0
M  V30 7512 H 711.568 -3.75763 4.04359 0
M  V30 7513 H 712.045 -3.71169 2.34798 0
M  V30 7514 H 712.651 -2.46684 3.46449 0
M  V30 7515 N 710.966 -1.44241 -0.634997 0
M  V30 7516 C 712.382 -1.28043 -0.952742 0
M  V30 7517 C 712.582 -0.21338 -2.00367 0
M  V30 7518 O 711.638 0.402042 -2.49279 0
M  V30 7519 C 712.951 -2.65076 -1.41968 0
M  V30 7520 C 714.499 -2.72755 -1.53537 0
M  V30 7521 C 714.974 -4.10249 -2.03616 0
M  V30 7522 N 716.465 -4.12406 -2.10892 0
M  V30 7523 C 717.2 -5.15641 -2.50803 0
M  V30 7524 N 716.696 -6.29239 -2.89879 0
M  V30 7525 N 718.489 -5.02995 -2.50903 0
M  V30 7526 H 710.64 -2.12315 0.060098 0
M  V30 7527 H 712.903 -0.947326 -0.0357325 0
M  V30 7528 H 712.609 -3.44213 -0.721804 0
M  V30 7529 H 712.483 -2.91704 -2.39141 0
M  V30 7530 H 714.87 -1.93939 -2.22422 0
M  V30 7531 H 714.951 -2.49872 -0.547496 0
M  V30 7532 H 714.595 -4.8954 -1.35327 0
M  V30 7533 H 714.525 -4.30507 -3.03268 0
M  V30 7534 H 717.016 -3.30417 -1.83393 0
M  V30 7535 H 717.329 -7.03827 -3.19135 0
M  V30 7536 H 715.674 -6.32683 -2.8764 0
M  V30 7537 H 718.865 -4.13306 -2.19763 0
M  V30 7538 H 719.038 -5.83574 -2.81683 0
M  V30 7539 N 712.444 0.87505 -1.31075 0
M  V30 7540 C 713.354 2.01441 -1.20244 0
M  V30 7541 C 714.37 1.73584 -0.120227 0
M  V30 7542 O 715.546 1.98559 -0.337063 0
M  V30 7543 C 712.611 3.34675 -0.905199 0
M  V30 7544 C 711.672 3.75889 -2.0738 0
M  V30 7545 C 710.905 5.02764 -1.79064 0
M  V30 7546 O 711.128 5.65795 -0.723318 0
M  V30 7547 O 710.062 5.40623 -2.64594 0
M  V30 7548 H 713.888 2.13509 -2.1598 0
M  V30 7549 H 711.473 1.00257 -1.10765 0
M  V30 7550 H 713.355 4.1458 -0.755057 0
M  V30 7551 H 712.03 3.23692 0.0221695 0
M  V30 7552 H 710.937 2.96645 -2.27931 0
M  V30 7553 H 712.27 3.91489 -2.98324 0
M  V30 7554 N 713.922 1.13953 1.08869 0
M  V30 7555 C 715.17 0.903023 1.80803 0
M  V30 7556 C 715.491 -0.572151 1.86417 0
M  V30 7557 O 714.761 -1.41589 1.35386 0
M  V30 7558 H 713.341 0.331099 0.669614 0
M  V30 7559 H 716.003 1.43719 1.31647 0
M  V30 7560 H 715.099 1.29881 2.83791 0
M  V30 7561 N 715.4 -1.26948 0.933913 0
M  V30 7562 C 716.816 -1.46419 0.635103 0
M  V30 7563 C 717.016 -1.84336 -0.813785 0
M  V30 7564 O 716.072 -1.96061 -1.59111 0
M  V30 7565 C 717.385 -2.55206 1.5903 0
M  V30 7566 C 718.933 -2.69062 1.5992 0
M  V30 7567 C 719.408 -3.81013 2.54152 0
M  V30 7568 N 720.899 -3.88395 2.52395 0
M  V30 7569 C 721.634 -4.74454 3.21996 0
M  V30 7570 N 721.13 -5.64954 4.00997 0
M  V30 7571 N 722.923 -4.68237 3.10983 0
M  V30 7572 H 715.074 -1.00622 1.87053 0
M  V30 7573 H 717.337 -0.503189 0.803433 0
M  V30 7574 H 717.043 -2.34153 2.62422 0
M  V30 7575 H 716.917 -3.52719 1.33677 0
M  V30 7576 H 719.304 -2.89492 0.572569 0
M  V30 7577 H 719.385 -1.72016 1.89325 0
M  V30 7578 H 719.029 -3.61336 3.5693 0
M  V30 7579 H 718.959 -4.77499 2.22041 0
M  V30 7580 H 721.45 -3.23687 1.95025 0
M  V30 7581 H 721.763 -6.27496 4.51074 0
M  V30 7582 H 720.108 -5.6473 4.05099 0
M  V30 7583 H 723.299 -3.96535 2.48753 0
M  V30 7584 H 723.472 -5.35087 3.65494 0
M  V30 7585 N 716.879 -0.700114 -1.41195 0
M  V30 7586 C 717.842 -0.0465706 -2.29153 0
M  V30 7587 C 718.842 0.703302 -1.44604 0
M  V30 7588 O 720.032 0.537513 -1.657 0
M  V30 7589 C 717.164 0.944324 -3.2756 0
M  V30 7590 H 718.357 -0.821064 -2.88442 0
M  V30 7591 H 715.91 -0.463869 -1.49258 0
M  V30 7592 H 716.645 1.74642 -2.73259 0
M  V30 7593 H 716.43 0.409701 -3.89954 0
M  V30 7594 H 717.92 1.39925 -3.9346 0
M  V30 7595 N 718.357 1.51182 -0.445186 0
M  V30 7596 C 719.605 2.01753 0.11841 0
M  V30 7597 C 719.926 1.33087 1.42523 0
M  V30 7598 O 719.196 0.467891 1.9023 0
M  V30 7599 H 717.776 0.745536 0.0467492 0
M  V30 7600 H 720.438 1.85765 -0.589688 0
M  V30 7601 H 719.534 3.10762 0.288665 0
M  V30 7602 N 719.835 0.176821 1.56605 0
M  V30 7603 C 720.782 -0.751312 2.18229 0
M  V30 7604 C 721.752 -1.22297 1.12395 0
M  V30 7605 O 722.937 -1.29015 1.40569 0
M  V30 7606 C 720.077 -1.97291 2.83143 0
M  V30 7607 C 719.19 -1.54431 4.03454 0
M  V30 7608 C 718.325 -2.72 4.56278 0
M  V30 7609 C 717.364 -2.25657 5.68986 0
M  V30 7610 N 716.501 -3.36338 6.16296 0
M  V30 7611 H 721.341 -0.219033 2.97194 0
M  V30 7612 H 718.878 -0.0963803 1.46784 0
M  V30 7613 H 720.836 -2.68949 3.1894 0
M  V30 7614 H 719.466 -2.4788 2.06773 0
M  V30 7615 H 718.518 -0.724273 3.73441 0
M  V30 7616 H 719.83 -1.16417 4.85024 0
M  V30 7617 H 718.984 -3.51806 4.94285 0
M  V30 7618 H 717.723 -3.13277 3.73777 0
M  V30 7619 H 716.728 -1.44299 5.30526 0
M  V30 7620 H 717.953 -1.85432 6.53293 0
M  V30 7621 H 715.899 -3.7718 5.36723 0
M  V30 7622 H 715.816 -3.02435 6.9287 0
M  V30 7623 H 717.084 -4.16413 6.58954 0
M  V30 7624 N 721.313 -1.57302 -0.09688 0
M  V30 7625 C 722.559 -1.86273 -0.801885 0
M  V30 7626 C 722.892 -0.765694 -1.78468 0
M  V30 7627 O 722.167 0.226495 -1.93177 0
M  V30 7628 C 722.45 -3.25876 -1.53221 0
M  V30 7629 C 722.303 -4.46205 -0.567529 0
M  V30 7630 C 723.622 -3.63352 -2.48321 0
M  V30 7631 H 720.741 -0.67752 -0.29006 0
M  V30 7632 H 723.383 -1.89887 -0.0655577 0
M  V30 7633 H 721.533 -3.22926 -2.15988 0
M  V30 7634 H 723.205 -4.6127 0.0529982 0
M  V30 7635 H 721.448 -4.33636 0.119233 0
M  V30 7636 H 722.119 -5.40608 -1.11564 0
M  V30 7637 H 724.595 -3.67234 -1.95648 0
M  V30 7638 H 723.471 -4.61968 -2.9644 0
M  V30 7639 H 723.732 -2.91941 -3.31998 0
M  V30 7640 N 722.791 0.367657 -1.53252 0
M  V30 7641 C 723.741 1.45035 -1.75923 0
M  V30 7642 C 724.725 1.48736 -0.613719 0
M  V30 7643 O 725.917 1.54012 -0.872313 0
M  V30 7644 C 723.046 2.82493 -1.9507 0
M  V30 7645 C 722.132 2.83279 -3.15617 0
M  V30 7646 N 722.523 2.53712 -4.37566 0
M  V30 7647 C 720.821 3.1444 -3.16297 0
M  V30 7648 C 721.522 2.62123 -5.19294 0
M  V30 7649 N 720.498 2.96747 -4.55458 0
M  V30 7650 H 724.3 1.21035 -2.6782 0
M  V30 7651 H 721.814 0.575822 -1.51849 0
M  V30 7652 H 723.811 3.60473 -2.0944 0
M  V30 7653 H 722.471 3.07459 -1.044 0
M  V30 7654 H 723.482 2.27344 -4.65333 0
M  V30 7655 H 720.159 3.44733 -2.35511 0
M  V30 7656 H 721.549 2.42628 -6.26563 0
M  V30 7657 N 724.269 1.44576 0.627338 0
M  V30 7658 C 725.217 1.52039 1.76031 0
M  V30 7659 C 726.211 0.391796 1.64807 0
M  V30 7660 O 727.417 0.5669 1.7084 0
M  V30 7661 H 723.792 0.477165 0.581221 0
M  V30 7662 H 725.763 2.47387 1.6686 0
M  V30 7663 C 724.512 1.48539 3.14375 0
M  V30 7664 H 723.835 2.34699 3.23661 0
M  V30 7665 H 725.275 1.57821 3.93534 0
M  V30 7666 C 723.734 0.20672 3.36265 0
M  V30 7667 O 724.264 -0.72154 3.95167 0
M  V30 7668 N 722.47 0.108654 2.90397 0
M  V30 7669 H 722.017 0.864884 2.42647 0
M  V30 7670 H 721.975 -0.746121 3.05418 0
M  V30 7671 N 725.747 -0.868086 1.31537 0
M  V30 7672 C 726.994 -1.62127 1.2133 0
M  V30 7673 C 727.322 -1.93158 -0.2281 0
M  V30 7674 O 726.577 -1.5632 -1.1774 0
M  V30 7675 C 726.876 -2.95889 2.0046 0
M  V30 7676 C 726.542 -2.84343 3.49943 0
M  V30 7677 C 725.204 -2.80901 3.90702 0
M  V30 7678 C 727.556 -2.71243 4.45058 0
M  V30 7679 C 724.884 -2.6222 5.24841 0
M  V30 7680 C 727.236 -2.54098 5.79325 0
M  V30 7681 C 725.9 -2.4904 6.19302 0
M  V30 7682 H 725.17 -0.593265 0.443979 0
M  V30 7683 H 727.817 -1.00803 1.62822 0
M  V30 7684 H 726.122 -3.61259 1.51655 0
M  V30 7685 H 727.819 -3.53161 1.89942 0
M  V30 7686 H 724.409 -2.8784 3.17563 0
M  V30 7687 H 728.593 -2.72956 4.14498 0
M  V30 7688 H 723.849 -2.56731 5.54887 0
M  V30 7689 H 728.023 -2.42938 6.52652 0
M  V30 7690 H 725.65 -2.34324 7.23185 0
M  V30 7691 N 727.225 -1.14528 -1.08264 0
M  V30 7692 C 728.158 -0.777154 -2.14559 0
M  V30 7693 C 729.136 0.242165 -1.60787 0
M  V30 7694 O 730.32 0.130882 -1.88045 0
M  V30 7695 C 727.447 -0.154092 -3.38349 0
M  V30 7696 C 726.493 -1.14382 -4.10876 0
M  V30 7697 S 727.326 -2.68173 -4.63512 0
M  V30 7698 C 728.482 -2.0726 -5.90588 0
M  V30 7699 H 728.715 -1.67748 -2.45454 0
M  V30 7700 H 726.248 -0.966661 -1.20395 0
M  V30 7701 H 728.206 0.19897 -4.10018 0
M  V30 7702 H 726.867 0.723688 -3.05649 0
M  V30 7703 H 726.06 -0.655908 -4.99714 0
M  V30 7704 H 725.662 -1.44095 -3.45127 0
M  V30 7705 H 727.954 -1.42895 -6.62259 0
M  V30 7706 H 728.897 -2.94227 -6.44078 0
M  V30 7707 H 729.305 -1.51935 -5.43669 0
M  V30 7708 N 728.703 1.26451 -0.940633 0
M  V30 7709 C 729.633 2.28773 -0.467479 0
M  V30 7710 C 730.614 1.63218 0.478955 0
M  V30 7711 O 731.799 1.90427 0.380929 0
M  V30 7712 C 728.929 3.46259 0.268656 0
M  V30 7713 C 727.883 4.23898 -0.591171 0
M  V30 7714 C 727.209 5.33993 0.274891 0
M  V30 7715 C 728.509 4.87974 -1.86223 0
M  V30 7716 H 730.203 2.68601 -1.32265 0
M  V30 7717 H 727.749 1.29123 -0.637436 0
M  V30 7718 H 729.702 4.16951 0.610696 0
M  V30 7719 H 728.426 3.05383 1.15796 0
M  V30 7720 H 727.085 3.54969 -0.916098 0
M  V30 7721 H 726.733 4.89358 1.16353 0
M  V30 7722 H 726.433 5.86849 -0.297006 0
M  V30 7723 H 727.957 6.07523 0.612213 0
M  V30 7724 H 729.371 5.50883 -1.58747 0
M  V30 7725 H 727.768 5.50945 -2.37866 0
M  V30 7726 H 728.838 4.10945 -2.57394 0
M  V30 7727 N 730.181 0.707592 1.40822 0
M  V30 7728 C 731.429 0.243189 2.00632 0
M  V30 7729 C 731.75 -1.16512 1.56365 0
M  V30 7730 O 731.02 -1.78841 0.799553 0
M  V30 7731 H 729.6 0.0869203 0.741926 0
M  V30 7732 H 732.262 0.911438 1.72275 0
M  V30 7733 H 731.358 0.270014 3.1093 0
M  V30 7734 N 731.66 -1.50943 0.453197 0
M  V30 7735 C 732.59 -2.31005 -0.34044 0
M  V30 7736 C 733.571 -1.37112 -1.00669 0
M  V30 7737 O 734.756 -1.66033 -1.0073 0
M  V30 7738 C 731.886 -3.16358 -1.433 0
M  V30 7739 C 730.84 -4.18658 -0.889363 0
M  V30 7740 C 730.166 -4.92633 -2.07887 0
M  V30 7741 C 731.466 -5.22227 0.0871142 0
M  V30 7742 H 733.16 -2.97601 0.327723 0
M  V30 7743 H 730.706 -1.43119 0.159054 0
M  V30 7744 H 732.659 -3.71155 -1.99555 0
M  V30 7745 H 731.383 -2.47613 -2.12968 0
M  V30 7746 H 730.042 -3.64936 -0.348915 0
M  V30 7747 H 729.69 -4.20376 -2.76211 0
M  V30 7748 H 729.39 -5.61819 -1.72143 0
M  V30 7749 H 730.914 -5.50258 -2.64666 0
M  V30 7750 H 732.328 -5.72001 -0.385656 0
M  V30 7751 H 730.725 -5.99032 0.357926 0
M  V30 7752 H 731.795 -4.74077 1.01879 0
M  V30 7753 N 733.138 -0.185124 -1.56509 0
M  V30 7754 C 734.086 0.756505 -2.19954 0
M  V30 7755 C 735.08 1.22725 -1.16769 0
M  V30 7756 O 736.286 1.1913 -1.34937 0
M  V30 7757 H 732.661 0.262279 -0.704779 0
M  V30 7758 H 734.632 0.197587 -2.97745 0
M  V30 7759 C 733.381 1.96975 -2.86524 0
M  V30 7760 H 732.704 1.61658 -3.65659 0
M  V30 7761 H 734.144 2.60719 -3.34367 0
M  V30 7762 C 732.603 2.80219 -1.87027 0
M  V30 7763 O 733.133 3.77821 -1.36433 0
M  V30 7764 N 731.339 2.4551 -1.55477 0
M  V30 7765 H 730.886 1.66199 -1.96813 0
M  V30 7766 H 730.844 3.01493 -0.891597 0
M  V30 7767 N 734.616 1.57351 0.0885366 0
M  V30 7768 C 735.546 2.05561 1.10757 0
M  V30 7769 C 736.527 0.945789 1.41382 0
M  V30 7770 O 737.712 1.21747 1.51299 0
M  V30 7771 C 734.842 2.48554 2.42566 0
M  V30 7772 C 733.796 3.63259 2.26334 0
M  V30 7773 C 733.122 3.9225 3.63378 0
M  V30 7774 C 734.422 4.93913 1.69844 0
M  V30 7775 H 736.116 2.90946 0.706468 0
M  V30 7776 H 733.662 1.39968 0.338385 0
M  V30 7777 H 735.615 2.8089 3.14132 0
M  V30 7778 H 734.339 1.60176 2.84625 0
M  V30 7779 H 732.998 3.31179 1.57213 0
M  V30 7780 H 732.646 3.0103 4.02976 0
M  V30 7781 H 732.346 4.69478 3.53362 0
M  V30 7782 H 733.87 4.27067 4.36401 0
M  V30 7783 H 735.284 5.24588 2.31258 0
M  V30 7784 H 733.681 5.75349 1.70569 0
M  V30 7785 H 734.751 4.80409 0.65843 0
M  V30 7786 N 736.094 -0.359525 1.53444 0
M  V30 7787 C 737.042 -1.46104 1.80987 0
M  V30 7788 C 738.036 -1.55181 0.679351 0
M  V30 7789 O 739.242 -1.57995 0.862405 0
M  V30 7790 H 735.617 -0.486835 0.573145 0
M  V30 7791 H 737.588 -1.2008 2.73173 0
M  V30 7792 C 736.337 -2.82855 2.02208 0
M  V30 7793 H 735.66 -2.76631 2.88644 0
M  V30 7794 H 737.1 -3.59091 2.25455 0
M  V30 7795 C 735.559 -3.27192 0.802931 0
M  V30 7796 O 736.089 -4.017 -0.00544286 0
M  V30 7797 N 734.295 -2.83807 0.624657 0
M  V30 7798 H 733.842 -2.23339 1.28364 0
M  V30 7799 H 733.8 -3.13828 -0.189641 0
M  V30 7800 N 737.572 -1.44907 -0.619662 0
M  V30 7801 C 738.8 -1.51795 -1.40591 0
M  V30 7802 C 739.215 -0.146553 -1.8823 0
M  V30 7803 O 738.572 0.849698 -1.61513 0
M  V30 7804 C 738.623 -2.49229 -2.61853 0
M  V30 7805 O 738.344 -3.81039 -2.16197 0
M  V30 7806 C 739.845 -2.65696 -3.54853 0
M  V30 7807 H 737.065 -0.514463 -0.430777 0
M  V30 7808 H 739.609 -1.8998 -0.756813 0
M  V30 7809 H 737.764 -2.14149 -3.2283 0
M  V30 7810 H 738.178 -4.33747 -2.94896 0
M  V30 7811 H 739.652 -3.37874 -4.36515 0
M  V30 7812 H 740.129 -1.71316 -4.0441 0
M  V30 7813 H 740.735 -3.01724 -2.99737 0
M  V30 7814 N 739.05 0.861098 -1.31996 0
M  V30 7815 C 740.275 1.65264 -1.2531 0
M  V30 7816 C 740.7 1.87265 0.177007 0
M  V30 7817 O 740.058 1.4208 1.12619 0
M  V30 7818 C 740.106 2.99284 -2.0115 0
M  V30 7819 O 739.21 3.89508 -1.3549 0
M  V30 7820 H 738.551 0.50409 -0.432192 0
M  V30 7821 H 741.081 1.07297 -1.74208 0
M  V30 7822 H 741.091 3.49154 -2.11081 0
M  V30 7823 H 739.766 2.82591 -3.05148 0
M  V30 7824 H 738.343 3.47966 -1.34066 0
M  V30 7825 N 740.528 1.15101 1.07655 0
M  V30 7826 C 741.758 0.946357 1.83651 0
M  V30 7827 C 742.166 -0.508641 1.82235 0
M  V30 7828 O 741.509 -1.36445 1.22997 0
M  V30 7829 C 741.571 1.37945 3.31981 0
M  V30 7830 C 741.235 2.85155 3.57122 0
M  V30 7831 C 742.232 3.83234 3.51323 0
M  V30 7832 C 739.917 3.2275 3.84887 0
M  V30 7833 C 741.911 5.16914 3.72932 0
M  V30 7834 C 739.598 4.56604 4.06148 0
M  V30 7835 C 740.596 5.53495 4.00165 0
M  V30 7836 O 740.284 6.84931 4.20861 0
M  V30 7837 H 740.016 0.336368 0.586372 0
M  V30 7838 H 742.57 1.53198 1.36819 0
M  V30 7839 H 740.8 0.737205 3.79608 0
M  V30 7840 H 742.489 1.14439 3.89434 0
M  V30 7841 H 743.255 3.55535 3.29878 0
M  V30 7842 H 739.134 2.47921 3.88659 0
M  V30 7843 H 742.678 5.92529 3.68178 0
M  V30 7844 H 738.575 4.84019 4.27078 0
M  V30 7845 H 739.343 6.91304 4.38226 0
M  V30 7846 N 742.006 -1.2595 0.947325 0
M  V30 7847 C 743.417 -1.75389 0.639963 0
M  V30 7848 C 743.768 -1.77081 -0.844788 0
M  V30 7849 O 742.893 -1.3869 -1.66114 0
M  V30 7850 C 743.488 -3.18506 1.15496 0
M  V30 7851 C 742.047 -3.65534 0.897894 0
M  V30 7852 C 741.194 -2.44818 1.30228 0
M  V30 7853 H 744.145 -1.1194 1.12495 0
M  V30 7854 H 744.166 -3.77045 0.511627 0
M  V30 7855 H 743.678 -3.17243 2.23559 0
M  V30 7856 H 741.779 -3.72221 -0.168096 0
M  V30 7857 H 741.892 -4.54039 1.52922 0
M  V30 7858 H 740.256 -2.44291 0.720678 0
M  V30 7859 H 741.039 -2.46251 2.39198 0
M  V30 7860 N 743.484 -0.715051 -1.40445 0
M  V30 7861 C 744.414 -0.0768699 -2.33373 0
M  V30 7862 C 745.395 0.746109 -1.52863 0
M  V30 7863 O 746.58 0.695142 -1.81332 0
M  V30 7864 C 743.71 0.846014 -3.36838 0
M  V30 7865 C 742.664 0.128694 -4.27806 0
M  V30 7866 C 741.99 1.16726 -5.21804 0
M  V30 7867 C 743.29 -1.01679 -5.12307 0
M  V30 7868 H 744.984 -0.853061 -2.8699 0
M  V30 7869 H 742.53 -0.41167 -1.3799 0
M  V30 7870 H 744.483 1.30185 -4.00786 0
M  V30 7871 H 743.207 1.6541 -2.81615 0
M  V30 7872 H 741.866 -0.307314 -3.6531 0
M  V30 7873 H 741.514 1.96838 -4.62887 0
M  V30 7874 H 741.214 0.692188 -5.83509 0
M  V30 7875 H 742.738 1.62321 -5.88629 0
M  V30 7876 H 744.152 -0.640337 -5.69713 0
M  V30 7877 H 742.549 -1.4202 -5.83053 0
M  V30 7878 H 743.619 -1.84769 -4.48317 0
M  V30 7879 N 744.962 1.50701 -0.461195 0
M  V30 7880 C 746.187 2.07171 0.0974773 0
M  V30 7881 C 746.612 1.32391 1.3362 0
M  V30 7882 O 745.97 0.368676 1.77512 0
M  V30 7883 C 746.018 3.58651 0.374409 0
M  V30 7884 O 745.122 3.85816 1.4567 0
M  V30 7885 H 744.463 0.663944 -0.00862047 0
M  V30 7886 H 746.993 1.94021 -0.649394 0
M  V30 7887 H 747.003 4.03295 0.617843 0
M  V30 7888 H 745.678 4.12498 -0.530829 0
M  V30 7889 H 744.255 3.53018 1.20136 0
M  V30 7890 N 746.441 0.193421 1.56409 0
M  V30 7891 C 747.852 -0.319471 1.83946 0
M  V30 7892 C 748.203 -1.61505 1.11403 0
M  V30 7893 O 747.328 -2.13139 0.374289 0
M  V30 7894 C 747.923 -0.586411 3.33686 0
M  V30 7895 C 746.482 -1.04368 3.61641 0
M  V30 7896 C 745.629 -0.0913834 2.77149 0
M  V30 7897 H 748.58 0.417242 1.53117 0
M  V30 7898 H 748.601 -1.43591 3.52366 0
M  V30 7899 H 748.113 0.356701 3.86457 0
M  V30 7900 H 746.214 -2.00113 3.14302 0
M  V30 7901 H 746.327 -0.937549 4.69837 0
M  V30 7902 H 744.691 -0.592954 2.47702 0
M  V30 7903 H 745.474 0.846142 3.32709 0
M  V30 7904 N 747.919 -1.57396 -0.0801906 0
M  V30 7905 C 748.849 -2.06145 -1.09665 0
M  V30 7906 C 749.83 -0.953273 -1.40878 0
M  V30 7907 O 751.015 -1.22548 -1.50651 0
M  V30 7908 C 748.145 -2.49836 -2.41245 0
M  V30 7909 C 747.099 -3.64454 -2.24405 0
M  V30 7910 C 746.425 -3.94172 -3.61293 0
M  V30 7911 C 747.725 -4.94807 -1.67223 0
M  V30 7912 H 749.419 -2.91316 -0.691028 0
M  V30 7913 H 746.965 -1.40145 -0.330957 0
M  V30 7914 H 748.918 -2.82552 -3.12638 0
M  V30 7915 H 747.642 -1.61683 -2.83771 0
M  V30 7916 H 746.301 -3.32008 -1.55454 0
M  V30 7917 H 745.949 -3.03163 -4.01374 0
M  V30 7918 H 745.649 -4.71345 -3.50867 0
M  V30 7919 H 747.173 -4.29376 -4.3413 0
M  V30 7920 H 748.587 -5.25807 -2.28472 0
M  V30 7921 H 746.984 -5.76245 -1.67515 0
M  V30 7922 H 748.054 -4.80751 -0.632944 0
M  V30 7923 N 749.397 0.351382 -1.53633 0
M  V30 7924 C 750.622 1.11718 -1.74739 0
M  V30 7925 C 751.047 1.81829 -0.481657 0
M  V30 7926 O 750.405 1.72264 0.565233 0
M  V30 7927 C 750.453 2.11234 -2.92254 0
M  V30 7928 O 749.557 3.186 -2.61855 0
M  V30 7929 H 748.898 0.323482 -0.579875 0
M  V30 7930 H 751.428 0.404167 -2.00568 0
M  V30 7931 H 751.438 2.54591 -3.18822 0
M  V30 7932 H 750.113 1.59599 -3.84058 0
M  V30 7933 H 748.69 2.80115 -2.4615 0
M  V30 7934 N 750.875 1.45233 0.611969 0
M  V30 7935 C 752.152 1.39495 1.37115 0
M  V30 7936 C 752.532 0.0633303 2.11005 0
M  V30 7937 O 751.88 -0.954617 2.07604 0
M  V30 7938 C 752.09 2.60579 2.32163 0
M  V30 7939 C 753.438 3.05477 2.94905 0
M  V30 7940 O 754.462 2.60921 2.42485 0
M  V30 7941 O 753.321 3.82787 3.90047 0
M  V30 7942 H 750.415 0.55335 0.614599 0
M  V30 7943 H 752.961 1.57355 0.635423 0
M  V30 7944 H 751.733 3.49085 1.76793 0
M  V30 7945 H 751.356 2.45031 3.13122 0
M  V30 7946 N 752.353 -0.854086 1.3245 0
M  V30 7947 C 753.6 -1.60831 1.23043 0
M  V30 7948 C 753.928 -1.93389 -0.2076 0
M  V30 7949 O 753.183 -1.5756 -1.16075 0
M  V30 7950 C 753.482 -2.93746 2.03587 0
M  V30 7951 C 753.148 -2.80615 3.52939 0
M  V30 7952 C 751.81 -2.76742 3.93659 0
M  V30 7953 C 754.162 -2.66507 4.4791 0
M  V30 7954 C 751.49 -2.56638 5.27592 0
M  V30 7955 C 753.842 -2.47939 5.81987 0
M  V30 7956 C 752.506 -2.42458 6.21909 0
M  V30 7957 H 751.776 -0.588523 0.450247 0
M  V30 7958 H 754.423 -0.990699 1.63882 0
M  V30 7959 H 752.728 -3.5963 1.55478 0
M  V30 7960 H 754.425 -3.51127 1.93677 0
M  V30 7961 H 751.015 -2.84456 3.20598 0
M  V30 7962 H 755.199 -2.68544 4.1737 0
M  V30 7963 H 750.455 -2.50831 5.57579 0
M  V30 7964 H 754.629 -2.36002 6.55192 0
M  V30 7965 H 752.256 -2.2664 7.2563 0
M  V30 7966 N 753.831 -1.1567 -1.07043 0
M  V30 7967 C 754.794 -0.858906 -2.12498 0
M  V30 7968 C 755.794 0.142735 -1.60165 0
M  V30 7969 O 756.984 -0.0872678 -1.73981 0
M  V30 7970 C 754.116 -0.283021 -3.39723 0
M  V30 7971 H 755.309 -1.79368 -2.40348 0
M  V30 7972 H 752.862 -0.964608 -1.22984 0
M  V30 7973 H 753.597 0.659796 -3.17517 0
M  V30 7974 H 753.382 -1.00467 -3.7901 0
M  V30 7975 H 754.872 -0.0923543 -4.17498 0
M  V30 7976 N 755.309 1.25446 -0.953992 0
M  V30 7977 C 756.537 1.97215 -0.625595 0
M  V30 7978 C 756.952 1.70911 0.802168 0
M  V30 7979 O 756.309 0.984782 1.5365 0
M  V30 7980 C 756.36 3.50777 -0.873943 0
M  V30 7981 O 756.081 3.76173 -2.24556 0
M  V30 7982 C 757.582 4.39776 -0.557845 0
M  V30 7983 H 754.802 0.628652 -0.2346 0
M  V30 7984 H 757.346 1.59632 -1.27819 0
M  V30 7985 H 755.501 3.86474 -0.267765 0
M  V30 7986 H 755.915 4.70636 -2.31522 0
M  V30 7987 H 757.389 5.46431 -0.782157 0
M  V30 7988 H 757.866 4.36257 0.507573 0
M  V30 7989 H 758.472 4.09644 -1.14332 0
M  V30 7990 N 756.787 0.722489 1.40064 0
M  V30 7991 C 757.719 0.0349057 2.29173 0
M  V30 7992 C 758.732 -0.716571 1.46182 0
M  V30 7993 O 759.921 -0.562806 1.69395 0
M  V30 7994 C 757.021 -0.974839 3.24577 0
M  V30 7995 C 756.194 -0.287471 4.36454 0
M  V30 7996 C 755.253 -1.20356 5.12251 0
M  V30 7997 O 754.279 -0.685753 5.65054 0
M  V30 7998 N 755.481 -2.53422 5.22262 0
M  V30 7999 H 758.246 0.800058 2.88824 0
M  V30 8000 H 755.807 0.57068 1.51509 0
M  V30 8001 H 757.799 -1.59002 3.72157 0
M  V30 8002 H 756.369 -1.6413 2.66046 0
M  V30 8003 H 755.589 0.508008 3.90913 0
M  V30 8004 H 756.877 0.189382 5.08447 0
M  V30 8005 H 756.275 -2.97981 4.80857 0
M  V30 8006 H 754.832 -3.10067 5.73325 0
M  V30 8007 N 758.265 -1.50454 0.469181 0
M  V30 8008 C 759.542 -1.9504 -0.147955 0
M  V30 8009 C 759.922 -1.40946 -1.57154 0
M  V30 8010 O 759.27 -0.609663 -2.20217 0
M  V30 8011 C 759.48 -3.48875 -0.0932198 0
M  V30 8012 C 760.828 -4.23655 -0.283056 0
M  V30 8013 O 761.852 -3.55795 -0.169892 0
M  V30 8014 O 760.711 -5.44102 -0.511396 0
M  V30 8015 H 757.805 -0.819283 -0.11271 0
M  V30 8016 H 760.351 -1.6123 0.529446 0
M  V30 8017 H 759.123 -3.80791 0.900784 0
M  V30 8018 H 758.746 -3.89217 -0.812161 0
M  V30 8019 N 759.743 -0.201713 -1.56304 0
M  V30 8020 C 760.968 0.443815 -2.02596 0
M  V30 8021 C 761.393 1.53945 -1.08086 0
M  V30 8022 O 760.751 1.81182 -0.0655056 0
M  V30 8023 C 760.799 0.971066 -3.47279 0
M  V30 8024 O 759.903 2.0836 -3.55893 0
M  V30 8025 H 759.244 0.10294 -0.655972 0
M  V30 8026 H 761.774 -0.314533 -2.02168 0
M  V30 8027 H 761.784 1.28598 -3.87204 0
M  V30 8028 H 760.459 0.169048 -4.15556 0
M  V30 8029 H 759.036 1.77683 -3.27846 0
M  V30 8030 N 761.222 1.57436 0.0718424 0
M  V30 8031 C 762.469 1.87248 0.771007 0
M  V30 8032 C 762.797 0.793441 1.7758 0
M  V30 8033 O 762.052 -0.210565 1.94564 0
M  V30 8034 C 762.351 3.23723 1.51455 0
M  V30 8035 C 762.017 4.46194 0.649736 0
M  V30 8036 C 760.679 4.79438 0.411409 0
M  V30 8037 C 763.031 5.21176 0.05004 0
M  V30 8038 C 760.359 5.85077 -0.436096 0
M  V30 8039 C 762.711 6.27712 -0.784919 0
M  V30 8040 C 761.375 6.59457 -1.03312 0
M  V30 8041 H 760.645 0.685188 0.282132 0
M  V30 8042 H 763.292 1.91474 0.0317896 0
M  V30 8043 H 761.597 3.15287 2.32597 0
M  V30 8044 H 763.294 3.44023 2.06031 0
M  V30 8045 H 759.884 4.20175 0.84562 0
M  V30 8046 H 764.068 4.95806 0.221282 0
M  V30 8047 H 759.324 6.08071 -0.637136 0
M  V30 8048 H 763.498 6.84974 -1.25635 0
M  V30 8049 H 761.125 7.4114 -1.6916 0
M  V30 8050 N 762.7 -0.34323 1.53817 0
M  V30 8051 C 763.977 -1.10047 1.61706 0
M  V30 8052 C 764.357 -2.06495 0.438514 0
M  V30 8053 O 763.705 -2.21297 -0.569188 0
M  V30 8054 C 763.915 -1.81985 2.97796 0
M  V30 8055 C 765.263 -2.35717 3.53161 0
M  V30 8056 O 766.287 -1.9208 2.99973 0
M  V30 8057 O 765.146 -3.15551 4.46195 0
M  V30 8058 H 762.24 -0.506096 0.654061 0
M  V30 8059 H 764.786 -0.344697 1.66162 0
M  V30 8060 H 763.558 -1.11722 3.75012 0
M  V30 8061 H 763.181 -2.64419 2.96931 0
M  V30 8062 N 764.178 -1.45556 -0.604258 0
M  V30 8063 C 765.455 -1.40221 -1.36373 0
M  V30 8064 C 765.835 -0.0745195 -2.10968 0
M  V30 8065 O 765.183 0.943594 -2.08107 0
M  V30 8066 C 765.393 -2.61807 -2.30777 0
M  V30 8067 C 766.741 -3.07037 -2.93281 0
M  V30 8068 O 767.765 -2.62203 -2.41097 0
M  V30 8069 O 766.624 -3.8485 -3.88011 0
M  V30 8070 H 763.718 -0.556602 -0.611656 0
M  V30 8071 H 766.264 -1.57689 -0.627069 0
M  V30 8072 H 765.036 -3.50017 -1.74939 0
M  V30 8073 H 764.659 -2.46688 -3.11818 0
M  V30 8074 N 765.656 0.84705 -1.32902 0
M  V30 8075 C 766.933 1.58583 -1.14503 0
M  V30 8076 C 767.313 2.09075 0.291724 0
M  V30 8077 O 766.661 1.88636 1.28952 0
M  V30 8078 C 766.871 2.72605 -2.17916 0
M  V30 8079 C 768.219 3.41993 -2.51646 0
M  V30 8080 O 769.243 2.82838 -2.1652 0
M  V30 8081 O 768.102 4.48761 -3.1189 0
M  V30 8082 H 765.196 0.698756 -0.442345 0
M  V30 8083 H 767.742 0.890516 -1.44457 0
M  V30 8084 H 766.514 2.32876 -3.14459 0
M  V30 8085 H 766.137 3.49807 -1.89 0
M  V30 8086 N 767.134 1.16236 1.06428 0
M  V30 8087 C 768.044 0.881976 2.1739 0
M  V30 8088 C 769.06 -0.145259 1.73393 0
M  V30 8089 O 770.236 0.0310558 2.01376 0
M  V30 8090 C 767.301 0.385496 3.4455 0
M  V30 8091 C 766.362 1.47779 4.03063 0
M  V30 8092 C 765.595 1.0049 5.24154 0
M  V30 8093 O 765.818 -0.145889 5.70213 0
M  V30 8094 O 764.752 1.79265 5.74585 0
M  V30 8095 H 768.578 1.80983 2.43883 0
M  V30 8096 H 766.163 0.942226 1.15942 0
M  V30 8097 H 768.045 0.115536 4.21242 0
M  V30 8098 H 766.72 -0.514369 3.19587 0
M  V30 8099 H 765.627 1.80147 3.27869 0
M  V30 8100 H 766.96 2.35291 4.32318 0
M  V30 8101 N 768.612 -1.24939 0.960631 0
M  V30 8102 C 769.542 -2.28 0.503815 0
M  V30 8103 C 770.523 -1.63959 -0.452928 0
M  V30 8104 O 771.708 -1.91009 -0.350585 0
M  V30 8105 C 768.838 -3.46643 -0.213535 0
M  V30 8106 C 767.792 -4.22903 0.658535 0
M  V30 8107 C 767.118 -5.34363 -0.189902 0
M  V30 8108 C 768.418 -4.84949 1.93963 0
M  V30 8109 H 770.112 -2.66462 1.36521 0
M  V30 8110 H 767.658 -1.28093 0.657897 0
M  V30 8111 H 769.611 -4.1787 -0.544286 0
M  V30 8112 H 768.335 -3.07187 -1.10923 0
M  V30 8113 H 766.994 -3.53467 0.972455 0
M  V30 8114 H 766.642 -4.91147 -1.08553 0
M  V30 8115 H 766.342 -5.86302 0.390331 0
M  V30 8116 H 767.866 -6.0842 -0.515484 0
M  V30 8117 H 769.28 -5.48288 1.67491 0
M  V30 8118 H 767.677 -5.47091 2.46601 0
M  V30 8119 H 768.747 -4.06799 2.639 0
M  V30 8120 N 770.09 -0.729906 -1.39679 0
M  V30 8121 C 771.367 -0.202149 -1.94553 0
M  V30 8122 C 771.747 1.29507 -1.66707 0
M  V30 8123 O 771.095 2.05819 -0.992517 0
M  V30 8124 C 771.305 -0.530279 -3.44948 0
M  V30 8125 C 772.653 -0.476808 -4.21914 0
M  V30 8126 O 773.677 -0.467171 -3.53123 0
M  V30 8127 O 772.536 -0.466869 -5.44502 0
M  V30 8128 H 769.63 -0.0351644 -0.826252 0
M  V30 8129 H 772.176 -0.808417 -1.49207 0
M  V30 8130 H 770.948 -1.56526 -3.5863 0
M  V30 8131 H 770.571 0.10522 -3.97461 0
M  V30 8132 N 771.568 1.50203 -0.477153 0
M  V30 8133 C 772.531 2.27194 0.302599 0
M  V30 8134 C 773.531 1.32221 0.915112 0
M  V30 8135 O 774.721 1.55593 0.783348 0
M  V30 8136 C 771.853 3.0938 1.43167 0
M  V30 8137 H 773.046 2.97575 -0.372678 0
M  V30 8138 H 770.599 1.54578 -0.231392 0
M  V30 8139 H 771.334 2.43509 2.14182 0
M  V30 8140 H 771.119 3.79181 0.998197 0
M  V30 8141 H 772.609 3.67592 1.98157 0
M  V30 8142 N 773.046 0.209999 1.56195 0
M  V30 8143 C 774.009 -0.691232 2.18528 0
M  V30 8144 C 775.009 -1.13013 1.14388 0
M  V30 8145 O 776.199 -1.04081 1.39688 0
M  V30 8146 C 773.331 -1.94551 2.79934 0
M  V30 8147 H 774.524 -0.147953 2.99535 0
M  V30 8148 H 772.077 -0.0396243 1.5625 0
M  V30 8149 H 772.812 -2.53094 2.02766 0
M  V30 8150 H 772.597 -1.63938 3.56184 0
M  V30 8151 H 774.087 -2.58785 3.2775 0
M  V30 8152 N 774.524 -1.57472 -0.0634922 0
M  V30 8153 C 775.77 -1.87932 -0.762194 0
M  V30 8154 C 776.103 -0.803377 -1.76804 0
M  V30 8155 O 775.378 0.185468 -1.93614 0
M  V30 8156 C 775.661 -3.29053 -1.46275 0
M  V30 8157 C 775.514 -4.47309 -0.472755 0
M  V30 8158 C 776.833 -3.68537 -2.40558 0
M  V30 8159 H 773.952 -0.683521 -0.275624 0
M  V30 8160 H 776.594 -1.89983 -0.0252651 0
M  V30 8161 H 774.744 -3.27435 -2.0909 0
M  V30 8162 H 776.416 -4.61053 0.150828 0
M  V30 8163 H 774.659 -4.33286 0.211187 0
M  V30 8164 H 775.33 -5.42853 -1.00072 0
M  V30 8165 H 777.806 -3.71302 -1.87814 0
M  V30 8166 H 776.682 -4.68152 -2.86574 0
M  V30 8167 H 776.943 -2.98917 -3.25731 0
M  V30 8168 N 776.003 0.335068 -1.53997 0
M  V30 8169 C 776.966 1.39481 -1.81872 0
M  V30 8170 C 777.966 1.4524 -0.690078 0
M  V30 8171 O 779.156 1.45467 -0.958377 0
M  V30 8172 C 776.288 2.78329 -1.9684 0
M  V30 8173 H 777.481 1.16024 -2.76547 0
M  V30 8174 H 775.034 0.569926 -1.45539 0
M  V30 8175 H 775.769 3.07058 -1.04337 0
M  V30 8176 H 775.554 2.75544 -2.78958 0
M  V30 8177 H 777.044 3.55016 -2.19894 0
M  V30 8178 N 777.481 1.45874 0.596531 0
M  V30 8179 C 778.758 1.40942 1.35627 0
M  V30 8180 C 779.138 0.0857066 2.10926 0
M  V30 8181 O 778.486 -0.932544 2.08605 0
M  V30 8182 C 778.696 2.63027 2.29386 0
M  V30 8183 C 780.044 3.08588 2.91649 0
M  V30 8184 O 781.068 2.63478 2.39704 0
M  V30 8185 O 779.927 3.86902 3.85965 0
M  V30 8186 H 777.021 0.559838 0.608696 0
M  V30 8187 H 779.567 1.5802 0.618698 0
M  V30 8188 H 778.339 3.5094 1.7308 0
M  V30 8189 H 777.962 2.48338 3.10506 0
M  V30 8190 N 778.959 -0.83999 1.33349 0
M  V30 8191 C 780.37 -1.41139 1.22216 0
M  V30 8192 C 780.721 -1.95551 -0.159398 0
M  V30 8193 O 779.846 -1.88721 -1.05893 0
M  V30 8194 C 780.441 -2.56564 2.21269 0
M  V30 8195 C 779 -3.09661 2.13979 0
M  V30 8196 C 778.147 -1.82457 2.08818 0
M  V30 8197 H 781.098 -0.645853 1.44964 0
M  V30 8198 H 781.119 -3.34163 1.81976 0
M  V30 8199 H 780.631 -2.16932 3.21811 0
M  V30 8200 H 778.732 -3.53841 1.16736 0
M  V30 8201 H 778.845 -3.6991 3.04472 0
M  V30 8202 H 777.209 -2.0266 1.54276 0
M  V30 8203 H 777.992 -1.45022 3.11165 0
M  V30 8204 N 780.437 -1.16799 -1.0581 0
M  V30 8205 C 781.714 -0.862616 -1.75551 0
M  V30 8206 C 782.094 0.6385 -2.01212 0
M  V30 8207 O 781.442 1.58784 -1.64317 0
M  V30 8208 C 781.652 -1.6907 -3.05314 0
M  V30 8209 C 783 -1.90675 -3.79379 0
M  V30 8210 O 784.024 -1.65976 -3.15167 0
M  V30 8211 O 782.883 -2.32145 -4.94743 0
M  V30 8212 H 779.977 -0.318789 -0.763088 0
M  V30 8213 H 782.523 -1.27461 -1.12034 0
M  V30 8214 H 781.295 -2.70912 -2.82352 0
M  V30 8215 H 780.918 -1.27606 -3.76567 0
M  V30 8216 N 781.915 1.24427 -0.967243 0
M  V30 8217 C 782.825 2.29109 -0.504592 0
M  V30 8218 C 783.841 1.68495 0.434224 0
M  V30 8219 O 785.017 1.99041 0.307379 0
M  V30 8220 C 782.082 3.46133 0.198273 0
M  V30 8221 C 781.143 4.22149 -0.780313 0
M  V30 8222 C 780.376 5.33585 -0.110896 0
M  V30 8223 O 780.599 5.59676 1.10088 0
M  V30 8224 O 779.533 5.96522 -0.802823 0
M  V30 8225 H 783.359 2.708 -1.37482 0
M  V30 8226 H 780.944 1.30111 -0.73426 0
M  V30 8227 H 782.826 4.17205 0.593124 0
M  V30 8228 H 781.501 3.0642 1.04347 0
M  V30 8229 H 780.408 3.53454 -1.22561 0
M  V30 8230 H 781.741 4.65677 -1.59392 0
M  V30 8231 N 783.393 0.737304 1.3929 0
M  V30 8232 C 784.64 0.286257 2.00467 0
M  V30 8233 C 784.968 -1.1272 1.58507 0
M  V30 8234 O 784.223 -1.7832 0.806257 0
M  V30 8235 C 784.522 0.338438 3.55794 0
M  V30 8236 C 784.188 1.70524 4.17411 0
M  V30 8237 C 782.85 2.07934 4.33955 0
M  V30 8238 C 785.202 2.60256 4.51571 0
M  V30 8239 C 782.53 3.34578 4.81948 0
M  V30 8240 C 784.882 3.86275 5.00974 0
M  V30 8241 C 783.546 4.23774 5.15725 0
M  V30 8242 H 782.816 0.104749 0.733559 0
M  V30 8243 H 785.463 0.944598 1.66582 0
M  V30 8244 H 783.768 -0.403478 3.89717 0
M  V30 8245 H 785.465 -0.0287255 4.0099 0
M  V30 8246 H 782.055 1.40439 4.04938 0
M  V30 8247 H 786.239 2.32624 4.38406 0
M  V30 8248 H 781.495 3.63572 4.91554 0
M  V30 8249 H 785.669 4.5596 5.26378 0
M  V30 8250 H 783.296 5.21972 5.52674 0
M  V30 8251 N 784.871 -1.49948 0.485112 0
M  V30 8252 C 785.781 -2.32587 -0.306697 0
M  V30 8253 C 786.797 -1.43598 -0.982632 0
M  V30 8254 O 787.973 -1.76638 -0.967519 0
M  V30 8255 C 785.038 -3.18638 -1.3664 0
M  V30 8256 C 784.099 -4.23462 -0.705589 0
M  V30 8257 C 783.332 -5.05401 -1.7148 0
M  V30 8258 O 783.555 -4.88618 -2.94293 0
M  V30 8259 O 782.489 -5.88157 -1.27889 0
M  V30 8260 H 786.315 -3.01447 0.369272 0
M  V30 8261 H 783.9 -1.47349 0.246709 0
M  V30 8262 H 785.782 -3.71992 -1.9799 0
M  V30 8263 H 784.457 -2.52491 -2.02559 0
M  V30 8264 H 783.364 -3.74063 -0.0527733 0
M  V30 8265 H 784.697 -4.92119 -0.0891187 0
M  V30 8266 N 786.349 -0.21828 -1.56081 0
M  V30 8267 C 787.765 0.137168 -1.59009 0
M  V30 8268 C 787.965 1.59215 -1.23503 0
M  V30 8269 O 787.021 2.33178 -0.968716 0
M  V30 8270 C 788.334 -0.186162 -3.00123 0
M  V30 8271 C 789.882 -0.128135 -3.12738 0
M  V30 8272 C 790.357 -0.425094 -4.56023 0
M  V30 8273 N 791.848 -0.374547 -4.61683 0
M  V30 8274 C 792.583 -0.57786 -5.70481 0
M  V30 8275 N 792.079 -0.842771 -6.87655 0
M  V30 8276 N 793.872 -0.510521 -5.59777 0
M  V30 8277 H 786.023 -1.16746 -1.77437 0
M  V30 8278 H 788.286 -0.467706 -0.824594 0
M  V30 8279 H 787.992 -1.19589 -3.30744 0
M  V30 8280 H 787.866 0.500388 -3.73866 0
M  V30 8281 H 790.253 0.872224 -2.81915 0
M  V30 8282 H 790.334 -0.848112 -2.41331 0
M  V30 8283 H 789.978 -1.42288 -4.87562 0
M  V30 8284 H 789.908 0.316038 -5.25651 0
M  V30 8285 H 792.399 -0.177356 -3.77484 0
M  V30 8286 H 792.712 -0.986095 -7.66483 0
M  V30 8287 H 791.057 -0.879929 -6.89407 0
M  V30 8288 H 794.248 -0.303813 -4.67113 0
M  V30 8289 H 794.421 -0.672378 -6.44502 0
M  V30 8290 N 787.827 1.57504 0.0551401 0
M  V30 8291 C 789.076 1.87237 0.750009 0
M  V30 8292 C 789.389 0.813268 1.77891 0
M  V30 8293 O 790.595 0.99898 2.52453 0
M  V30 8294 C 789.051 3.32187 1.38491 0
M  V30 8295 C 788.659 4.46267 0.393707 0
M  V30 8296 C 790.403 3.71101 2.06117 0
M  V30 8297 C 788.31 5.82265 1.03547 0
M  V30 8298 H 787.24 0.698524 0.283866 0
M  V30 8299 H 789.891 1.835 0.00365997 0
M  V30 8300 H 788.273 3.30588 2.18008 0
M  V30 8301 H 789.447 4.59289 -0.372865 0
M  V30 8302 H 787.762 4.16015 -0.17902 0
M  V30 8303 H 790.359 4.70012 2.54937 0
M  V30 8304 H 790.702 3.01751 2.86796 0
M  V30 8305 H 791.235 3.74762 1.33409 0
M  V30 8306 H 787.974 6.54949 0.268644 0
M  V30 8307 H 787.494 5.73012 1.7725 0
M  V30 8308 H 789.173 6.28148 1.55047 0
M  V30 8309 N 789.305 -0.326896 1.54172 0
M  V30 8310 C 790.535 -1.08328 1.75922 0
M  V30 8311 C 790.943 -1.82302 0.50622 0
M  V30 8312 O 790.286 -1.7581 -0.532581 0
M  V30 8313 C 790.348 -2.1294 2.8965 0
M  V30 8314 C 790.012 -1.58394 4.28673 0
M  V30 8315 C 791.009 -1.02747 5.09646 0
M  V30 8316 C 788.694 -1.62737 4.75207 0
M  V30 8317 C 790.688 -0.52169 6.35261 0
M  V30 8318 C 788.375 -1.11772 6.00791 0
M  V30 8319 C 789.373 -0.565819 6.80652 0
M  V30 8320 O 789.061 -0.0638146 8.03875 0
M  V30 8321 H 788.793 -0.3282 0.590983 0
M  V30 8322 H 791.347 -0.37972 2.0186 0
M  V30 8323 H 789.577 -2.86903 2.59275 0
M  V30 8324 H 791.266 -2.74274 2.99213 0
M  V30 8325 H 792.032 -0.987007 4.74851 0
M  V30 8326 H 787.911 -2.04635 4.13093 0
M  V30 8327 H 791.455 -0.0902544 6.97542 0
M  V30 8328 H 787.352 -1.15524 6.35078 0
M  V30 8329 H 788.12 -0.17955 8.18303 0
M  V30 8330 N 790.784 -1.46188 -0.588786 0
M  V30 8331 C 791.694 -1.58865 -1.72624 0
M  V30 8332 C 792.71 -0.472348 -1.67466 0
M  V30 8333 O 793.886 -0.735638 -1.87484 0
M  V30 8334 C 790.951 -1.56989 -3.0912 0
M  V30 8335 C 790.012 -2.79804 -3.25589 0
M  V30 8336 C 789.245 -2.78009 -4.55573 0
M  V30 8337 O 789.468 -1.86406 -5.39082 0
M  V30 8338 O 788.402 -3.6947 -4.75159 0
M  V30 8339 H 792.228 -2.55047 -1.64878 0
M  V30 8340 H 789.813 -1.28912 -0.755115 0
M  V30 8341 H 791.695 -1.58618 -3.90408 0
M  V30 8342 H 790.37 -0.639648 -3.17317 0
M  V30 8343 H 789.277 -2.83732 -2.43818 0
M  V30 8344 H 790.61 -3.72017 -3.22279 0
M  V30 8345 N 792.262 0.832906 -1.33792 0
M  V30 8346 C 793.673 1.40489 -1.22963 0
M  V30 8347 C 794.024 1.95633 0.149026 0
M  V30 8348 O 793.149 1.8928 1.04891 0
M  V30 8349 C 793.744 2.55387 -2.22627 0
M  V30 8350 C 792.303 3.08522 -2.15618 0
M  V30 8351 C 791.45 1.81347 -2.09782 0
M  V30 8352 H 794.401 0.638156 -1.45304 0
M  V30 8353 H 794.422 3.33193 -1.83746 0
M  V30 8354 H 793.934 2.15222 -3.22957 0
M  V30 8355 H 792.035 3.53217 -1.18611 0
M  V30 8356 H 792.148 3.6829 -3.0643 0
M  V30 8357 H 790.512 2.01839 -1.55349 0
M  V30 8358 H 791.295 1.43369 -3.1193 0
M  V30 8359 N 793.74 1.17359 1.05189 0
M  V30 8360 C 794.67 0.91365 2.14883 0
M  V30 8361 C 795.651 -0.144365 1.69486 0
M  V30 8362 O 796.836 0.00587861 1.94199 0
M  V30 8363 C 793.966 0.426196 3.44675 0
M  V30 8364 C 792.92 1.4234 4.03638 0
M  V30 8365 C 792.246 0.793902 5.28773 0
M  V30 8366 C 793.546 2.7966 4.41121 0
M  V30 8367 H 795.24 1.831 2.36885 0
M  V30 8368 H 792.786 0.881781 1.13845 0
M  V30 8369 H 794.739 0.231767 4.20762 0
M  V30 8370 H 793.463 -0.526693 3.22325 0
M  V30 8371 H 792.122 1.60457 3.2962 0
M  V30 8372 H 791.77 -0.165824 5.02727 0
M  V30 8373 H 791.47 1.45959 5.69183 0
M  V30 8374 H 792.994 0.609747 6.07548 0
M  V30 8375 H 794.408 2.6526 5.08242 0
M  V30 8376 H 792.805 3.42807 4.92548 0
M  V30 8377 H 793.875 3.34068 3.51464 0
M  V30 8378 N 795.218 -1.23913 0.973828 0
M  V30 8379 C 796.495 -1.87539 0.555729 0
M  V30 8380 C 796.875 -1.87641 -0.967162 0
M  V30 8381 O 796.223 -1.35335 -1.84111 0
M  V30 8382 C 796.433 -3.29359 1.15427 0
M  V30 8383 C 797.781 -4.06 1.24294 0
M  V30 8384 O 798.805 -3.38554 1.10723 0
M  V30 8385 O 797.664 -5.26689 1.45813 0
M  V30 8386 H 794.758 -0.805769 0.186188 0
M  V30 8387 H 797.304 -1.31838 1.06849 0
M  V30 8388 H 796.076 -3.23817 2.19678 0
M  V30 8389 H 795.699 -3.92642 0.625925 0
M  V30 8390 N 796.696 -0.74468 -1.38897 0
M  V30 8391 C 797.942 -0.297324 -2.00609 0
M  V30 8392 C 798.275 1.11547 -1.58968 0
M  V30 8393 O 797.55 1.76227 -0.823057 0
M  V30 8394 C 797.833 -0.410125 -3.57757 0
M  V30 8395 C 797.686 -1.86338 -4.09387 0
M  V30 8396 C 799.005 0.20176 -4.39637 0
M  V30 8397 H 796.124 -0.109509 -0.728819 0
M  V30 8398 H 798.766 -0.942653 -1.64967 0
M  V30 8399 H 796.916 0.139287 -3.8825 0
M  V30 8400 H 798.588 -2.47042 -3.89574 0
M  V30 8401 H 796.831 -2.38146 -3.62586 0
M  V30 8402 H 797.502 -1.89352 -5.18507 0
M  V30 8403 H 799.978 -0.266703 -4.15244 0
M  V30 8404 H 798.854 0.0925415 -5.48822 0
M  V30 8405 H 799.115 1.289 -4.22891 0
M  V30 8406 N 798.174 1.49689 -0.493057 0
M  V30 8407 C 799.121 2.28976 0.28959 0
M  V30 8408 C 800.091 1.35011 0.967536 0
M  V30 8409 O 801.276 1.63964 0.975736 0
M  V30 8410 C 798.416 3.1748 1.35279 0
M  V30 8411 C 797.529 4.26496 0.687418 0
M  V30 8412 C 796.664 5.02226 1.73038 0
M  V30 8413 C 795.703 6.03089 1.04645 0
M  V30 8414 N 794.84 6.72014 2.03325 0
M  V30 8415 H 799.68 2.954 -0.392798 0
M  V30 8416 H 797.217 1.45657 -0.205554 0
M  V30 8417 H 799.175 3.67162 1.98111 0
M  V30 8418 H 797.805 2.53057 2.00405 0
M  V30 8419 H 796.857 3.80362 -0.0540001 0
M  V30 8420 H 798.169 4.98578 0.14864 0
M  V30 8421 H 797.323 5.55737 2.43395 0
M  V30 8422 H 796.062 4.29899 2.303 0
M  V30 8423 H 795.067 5.48817 0.328606 0
M  V30 8424 H 796.292 6.77398 0.480428 0
M  V30 8425 H 794.238 6.02464 2.59564 0
M  V30 8426 H 794.155 7.40046 1.54492 0
M  V30 8427 H 795.423 7.30133 2.72995 0
M  V30 8428 N 799.652 0.226554 1.55963 0
M  V30 8429 C 800.877 -0.411527 2.03276 0
M  V30 8430 C 801.302 -1.52206 1.10521 0
M  V30 8431 O 800.66 -1.81054 0.0943217 0
M  V30 8432 C 800.708 -0.915694 3.4878 0
M  V30 8433 O 799.812 -2.02672 3.59163 0
M  V30 8434 H 799.153 -0.0924907 0.657527 0
M  V30 8435 H 801.683 0.346656 2.01642 0
M  V30 8436 H 801.693 -1.22421 3.892 0
M  V30 8437 H 800.368 -0.102915 4.15773 0
M  V30 8438 H 798.945 -1.72445 3.30632 0
M  V30 8439 N 801.13 -1.57531 -0.0467866 0
M  V30 8440 C 802.077 -2.05387 -1.05285 0
M  V30 8441 C 803.047 -0.939385 -1.36985 0
M  V30 8442 O 804.232 -1.20877 -1.47626 0
M  V30 8443 C 801.372 -2.52343 -2.35408 0
M  V30 8444 C 800.485 -3.77512 -2.10022 0
M  V30 8445 C 799.62 -4.1315 -3.33887 0
M  V30 8446 C 798.659 -5.31286 -3.03976 0
M  V30 8447 N 797.796 -5.62441 -4.20243 0
M  V30 8448 H 802.636 -2.91095 -0.637788 0
M  V30 8449 H 800.173 -1.43939 -0.303322 0
M  V30 8450 H 802.131 -2.77628 -3.11413 0
M  V30 8451 H 800.761 -1.69577 -2.7467 0
M  V30 8452 H 799.813 -3.59417 -1.24594 0
M  V30 8453 H 801.125 -4.63644 -1.83945 0
M  V30 8454 H 800.279 -4.39469 -4.18273 0
M  V30 8455 H 799.018 -3.25634 -3.63062 0
M  V30 8456 H 798.023 -5.04738 -2.17991 0
M  V30 8457 H 799.248 -6.20441 -2.76098 0
M  V30 8458 H 797.194 -4.77885 -4.49402 0
M  V30 8459 H 797.111 -6.43046 -3.97528 0
M  V30 8460 H 798.379 -5.93327 -5.05553 0
M  V30 8461 N 802.608 0.318715 -1.54344 0
M  V30 8462 C 803.555 1.39242 -1.84066 0
M  V30 8463 C 804.525 1.51175 -0.688134 0
M  V30 8464 O 805.71 1.66318 -0.935039 0
M  V30 8465 C 802.85 2.75528 -2.07794 0
M  V30 8466 C 801.963 2.72187 -3.35467 0
M  V30 8467 C 801.098 4.00352 -3.4913 0
M  V30 8468 C 800.137 3.91338 -4.7066 0
M  V30 8469 N 799.274 5.11242 -4.81224 0
M  V30 8470 H 804.114 1.13196 -2.75664 0
M  V30 8471 H 801.651 0.547857 -1.36517 0
M  V30 8472 H 803.609 3.54763 -2.19543 0
M  V30 8473 H 802.239 2.99873 -1.19482 0
M  V30 8474 H 801.291 1.84917 -3.3243 0
M  V30 8475 H 802.603 2.61411 -4.24812 0
M  V30 8476 H 801.757 4.88019 -3.60448 0
M  V30 8477 H 800.496 4.1394 -2.57886 0
M  V30 8478 H 799.501 3.02055 -4.59394 0
M  V30 8479 H 800.726 3.7931 -5.63294 0
M  V30 8480 H 798.672 5.25327 -3.92897 0
M  V30 8481 H 798.589 5.0282 -5.64543 0
M  V30 8482 H 799.857 6.0061 -4.96879 0
M  V30 8483 N 804.086 1.46499 0.581025 0
M  V30 8484 C 805.335 1.51162 1.3354 0
M  V30 8485 C 805.648 0.168433 1.94873 0
M  V30 8486 O 806.854 0.092883 2.71341 0
M  V30 8487 C 805.31 2.66362 2.42032 0
M  V30 8488 C 804.918 4.07109 1.86994 0
M  V30 8489 C 806.662 2.80297 3.188 0
M  V30 8490 C 804.569 5.13645 2.93125 0
M  V30 8491 H 803.499 0.562576 0.502021 0
M  V30 8492 H 806.15 1.72713 0.619863 0
M  V30 8493 H 804.532 2.38143 3.16392 0
M  V30 8494 H 805.706 4.45125 1.19166 0
M  V30 8495 H 804.021 3.97854 1.22887 0
M  V30 8496 H 806.618 3.5706 3.9801 0
M  V30 8497 H 806.961 1.87875 3.71495 0
M  V30 8498 H 807.494 3.0817 2.51547 0
M  V30 8499 H 804.233 6.07866 2.45315 0
M  V30 8500 H 803.753 4.80172 3.59437 0
M  V30 8501 H 805.432 5.39562 3.57046 0
M  V30 8502 N 805.565 -0.825799 1.34232 0
M  V30 8503 C 806.515 -1.92533 1.22128 0
M  V30 8504 C 807.499 -1.60444 0.121002 0
M  V30 8505 O 808.691 -1.73497 0.350385 0
M  V30 8506 C 805.82 -3.29134 0.975995 0
M  V30 8507 C 804.906 -3.6735 2.11931 0
M  V30 8508 N 805.297 -3.77154 3.37029 0
M  V30 8509 C 803.595 -3.97179 2.02891 0
M  V30 8510 C 804.296 -4.10552 4.12095 0
M  V30 8511 N 803.272 -4.23619 3.40658 0
M  V30 8512 H 807.074 -1.98287 2.16932 0
M  V30 8513 H 804.588 -1.01929 1.26429 0
M  V30 8514 H 806.585 -4.07717 0.870187 0
M  V30 8515 H 805.245 -3.24679 0.036606 0
M  V30 8516 H 806.256 -3.60723 3.71618 0
M  V30 8517 H 802.933 -4.00861 1.16692 0
M  V30 8518 H 804.323 -4.25365 5.2011 0
M  V30 8519 N 807.043 -1.17915 -1.04565 0
M  V30 8520 C 808.289 -0.972863 -1.77942 0
M  V30 8521 C 808.622 0.496753 -1.87739 0
M  V30 8522 O 807.897 1.3688 -1.38181 0
M  V30 8523 C 808.18 -1.62227 -3.21488 0
M  V30 8524 C 808.033 -3.16441 -3.19664 0
M  V30 8525 C 809.352 -1.33137 -4.19479 0
M  V30 8526 H 806.471 -0.354843 -0.645953 0
M  V30 8527 H 809.113 -1.45508 -1.22178 0
M  V30 8528 H 807.263 -1.21224 -3.69103 0
M  V30 8529 H 808.935 -3.66544 -2.80077 0
M  V30 8530 H 807.178 -3.48863 -2.57832 0
M  V30 8531 H 807.849 -3.57012 -4.21006 0
M  V30 8532 H 810.325 -1.68654 -3.80388 0
M  V30 8533 H 809.201 -1.81151 -5.18146 0
M  V30 8534 H 809.462 -0.253319 -4.41374 0
M  V30 8535 N 808.521 1.23394 -0.980386 0
M  V30 8536 C 809.767 1.92094 -0.650223 0
M  V30 8537 C 810.1 1.76309 0.814173 0
M  V30 8538 O 809.375 1.12406 1.5873 0
M  V30 8539 C 809.658 3.44713 -1.04139 0
M  V30 8540 C 809.511 3.69606 -2.56342 0
M  V30 8541 C 810.83 4.36191 -0.585296 0
M  V30 8542 H 807.949 0.697618 -0.237695 0
M  V30 8543 H 810.591 1.45517 -1.22167 0
M  V30 8544 H 808.741 3.84513 -0.55515 0
M  V30 8545 H 810.413 3.39288 -3.1254 0
M  V30 8546 H 808.656 3.14318 -2.98976 0
M  V30 8547 H 809.327 4.76441 -2.78762 0
M  V30 8548 H 811.803 4.03836 -1.00276 0
M  V30 8549 H 810.679 5.41679 -0.887428 0
M  V30 8550 H 810.94 4.39097 0.51438 0
M  V30 8551 N 809.999 0.752036 1.385 0
M  V30 8552 C 811.276 0.233075 1.94206 0
M  V30 8553 C 811.656 -1.26838 1.68746 0
M  V30 8554 O 811.004 -2.04214 1.02513 0
M  V30 8555 C 811.214 0.58509 3.44061 0
M  V30 8556 C 812.562 0.543871 4.21102 0
M  V30 8557 O 813.586 0.523291 3.52335 0
M  V30 8558 O 812.445 0.553436 5.4369 0
M  V30 8559 H 809.539 0.0483049 0.825588 0
M  V30 8560 H 812.085 0.832053 1.47902 0
M  V30 8561 H 810.857 1.62212 3.56094 0
M  V30 8562 H 810.48 -0.0419738 3.97578 0
M  V30 8563 N 811.477 -1.49425 0.500989 0
M  V30 8564 C 812.702 -2.07356 -0.0425154 0
M  V30 8565 C 813.127 -1.35887 -1.30063 0
M  V30 8566 O 812.485 -0.41561 -1.76472 0
M  V30 8567 C 812.533 -3.59518 -0.279188 0
M  V30 8568 O 811.637 -3.89542 -1.3539 0
M  V30 8569 H 810.978 -0.663482 0.0262207 0
M  V30 8570 H 813.508 -1.92231 0.700607 0
M  V30 8571 H 813.518 -4.04791 -0.5107 0
M  V30 8572 H 812.193 -4.10946 0.640009 0
M  V30 8573 H 810.77 -3.56079 -1.10734 0
M  V30 8574 N 812.955 -0.234822 -1.55841 0
M  V30 8575 C 814.203 0.392483 -1.98252 0
M  V30 8576 C 814.524 1.59344 -1.12404 0
M  V30 8577 O 813.794 1.94834 -0.204055 0
M  V30 8578 H 812.374 0.147999 -0.732192 0
M  V30 8579 H 815.036 -0.330804 -1.92072 0
M  V30 8580 H 814.132 0.709829 -3.03921 0
M  V30 8581 N 814.433 1.57553 0.0384317 0
M  V30 8582 C 815.363 2.0898 1.04161 0
M  V30 8583 C 816.344 0.99029 1.38301 0
M  V30 8584 O 817.529 1.26499 1.47349 0
M  V30 8585 C 814.659 2.56145 2.34536 0
M  V30 8586 C 813.613 3.70275 2.14663 0
M  V30 8587 C 812.939 4.03612 3.50715 0
M  V30 8588 C 814.239 4.99067 1.54045 0
M  V30 8589 H 815.933 2.93046 0.613548 0
M  V30 8590 H 813.479 1.40973 0.293684 0
M  V30 8591 H 815.432 2.90741 3.05037 0
M  V30 8592 H 814.156 1.6915 2.79385 0
M  V30 8593 H 812.815 3.36013 1.46597 0
M  V30 8594 H 812.463 3.13698 3.93195 0
M  V30 8595 H 812.163 4.80482 3.38247 0
M  V30 8596 H 813.687 4.40735 4.22593 0
M  V30 8597 H 815.101 5.3168 2.14451 0
M  V30 8598 H 813.498 5.80484 1.52178 0
M  V30 8599 H 814.568 4.8226 0.505259 0
M  V30 8600 N 815.911 -0.310526 1.54511 0
M  V30 8601 C 817.139 -1.06611 1.77318 0
M  V30 8602 C 817.554 -1.81265 0.528043 0
M  V30 8603 O 816.911 -1.75466 -0.50178 0
M  V30 8604 C 816.962 -2.05409 2.97472 0
M  V30 8605 O 816.683 -1.33785 4.17173 0
M  V30 8606 C 818.184 -2.93082 3.32593 0
M  V30 8607 H 815.404 -0.316578 0.591624 0
M  V30 8608 H 817.948 -0.352691 2.01436 0
M  V30 8609 H 816.103 -2.72266 2.7559 0
M  V30 8610 H 816.517 -2.00055 4.84849 0
M  V30 8611 H 817.991 -3.58274 4.19933 0
M  V30 8612 H 818.468 -3.60877 2.50329 0
M  V30 8613 H 819.074 -2.31768 3.566 0
M  V30 8614 N 817.389 -1.46805 -0.573248 0
M  V30 8615 C 818.636 -1.52604 -1.3311 0
M  V30 8616 C 818.964 -0.181633 -1.9365 0
M  V30 8617 O 818.219 0.823775 -1.77517 0
M  V30 8618 C 818.518 -2.58001 -2.47326 0
M  V30 8619 C 818.184 -4.01747 -2.04719 0
M  V30 8620 C 816.846 -4.40881 -1.92814 0
M  V30 8621 C 819.198 -4.92008 -1.71982 0
M  V30 8622 C 816.526 -5.68129 -1.46445 0
M  V30 8623 C 818.878 -6.19703 -1.27089 0
M  V30 8624 C 817.542 -6.57733 -1.13768 0
M  V30 8625 H 816.812 -0.558417 -0.487084 0
M  V30 8626 H 819.459 -1.80327 -0.644538 0
M  V30 8627 H 817.764 -2.23974 -3.2147 0
M  V30 8628 H 819.461 -2.59715 -3.05531 0
M  V30 8629 H 816.051 -3.70819 -2.14922 0
M  V30 8630 H 820.235 -4.62485 -1.8006 0
M  V30 8631 H 815.491 -5.96359 -1.34783 0
M  V30 8632 H 819.665 -6.89064 -1.00814 0
M  V30 8633 H 817.292 -7.56228 -0.776142 0
M  V30 8634 N 818.867 0.818669 -1.34668 0
M  V30 8635 C 819.815 1.95123 -1.26609 0
M  V30 8636 C 820.809 1.68611 -0.163348 0
M  V30 8637 O 822.015 1.76975 -0.328586 0
M  V30 8638 H 818.39 0.640871 -0.393431 0
M  V30 8639 H 820.361 1.99043 -2.22316 0
M  V30 8640 C 819.11 3.31697 -1.04272 0
M  V30 8641 H 818.433 3.52648 -1.8836 0
M  V30 8642 H 819.873 4.11382 -1.0267 0
M  V30 8643 C 818.332 3.35942 0.253858 0
M  V30 8644 O 818.862 3.81632 1.25378 0
M  V30 8645 N 817.068 2.89165 0.288447 0
M  V30 8646 H 816.615 2.52176 -0.525845 0
M  V30 8647 H 816.573 2.92387 1.15572 0
M  V30 8648 N 820.346 1.18468 1.03938 0
M  V30 8649 C 821.276 0.936389 2.13902 0
M  V30 8650 C 822.257 -0.126381 1.6963 0
M  V30 8651 O 823.442 0.0264757 1.94182 0
M  V30 8652 C 820.572 0.462729 3.44204 0
M  V30 8653 C 819.526 1.46613 4.02105 0
M  V30 8654 C 818.852 0.84994 5.27902 0
M  V30 8655 C 820.152 2.84323 4.3813 0
M  V30 8656 H 821.846 1.85602 2.3493 0
M  V30 8657 H 819.392 0.893806 1.12903 0
M  V30 8658 H 821.345 0.276382 4.20493 0
M  V30 8659 H 820.069 -0.492477 3.22866 0
M  V30 8660 H 818.728 1.63944 3.27899 0
M  V30 8661 H 818.376 -0.112493 5.02874 0
M  V30 8662 H 818.076 1.51988 5.67603 0
M  V30 8663 H 819.6 0.674152 6.06867 0
M  V30 8664 H 821.014 2.70636 5.054 0
M  V30 8665 H 819.411 3.48012 4.88884 0
M  V30 8666 H 820.481 3.37776 3.47901 0
M  V30 8667 N 821.824 -1.22873 0.986916 0
M  V30 8668 C 823.235 -1.73264 0.695438 0
M  V30 8669 C 823.586 -1.79679 -0.788023 0
M  V30 8670 O 822.711 -1.43905 -1.61618 0
M  V30 8671 C 823.306 -3.14671 1.2557 0
M  V30 8672 C 821.865 -3.62492 1.01373 0
M  V30 8673 C 821.012 -2.40551 1.37951 0
M  V30 8674 H 823.963 -1.08304 1.15999 0
M  V30 8675 H 823.984 -3.75226 0.631322 0
M  V30 8676 H 823.496 -3.0997 2.33539 0
M  V30 8677 H 821.597 -3.72567 -0.0495917 0
M  V30 8678 H 821.71 -4.48944 1.67289 0
M  V30 8679 H 820.074 -2.41875 0.798033 0
M  V30 8680 H 820.857 -2.38516 2.46911 0
M  V30 8681 N 823.302 -0.75937 -1.38099 0
M  V30 8682 C 824.532 -0.328634 -2.0397 0
M  V30 8683 C 824.94 1.04989 -1.57398 0
M  V30 8684 O 824.283 1.67918 -0.744932 0
M  V30 8685 C 824.345 -0.279216 -3.58414 0
M  V30 8686 C 824.009 -1.60025 -4.28067 0
M  V30 8687 C 825.006 -2.55048 -4.53041 0
M  V30 8688 C 822.691 -1.87128 -4.66142 0
M  V30 8689 C 824.685 -3.7539 -5.15132 0
M  V30 8690 C 822.372 -3.07742 -5.27956 0
M  V30 8691 C 823.37 -4.01694 -5.52387 0
M  V30 8692 O 823.058 -5.20186 -6.12912 0
M  V30 8693 H 822.79 -0.137443 -0.66188 0
M  V30 8694 H 825.344 -1.03082 -1.77661 0
M  V30 8695 H 823.574 0.479254 -3.83719 0
M  V30 8696 H 825.263 0.122781 -4.05714 0
M  V30 8697 H 826.029 -2.35387 -4.24049 0
M  V30 8698 H 821.908 -1.14833 -4.46469 0
M  V30 8699 H 825.452 -4.48737 -5.34117 0
M  V30 8700 H 821.349 -3.27294 -5.56371 0
M  V30 8701 H 822.117 -5.20846 -6.31397 0
M  V30 8702 N 824.78 1.49157 -0.508906 0
M  V30 8703 C 826.191 1.86593 -0.0630975 0
M  V30 8704 C 826.542 1.42051 1.35337 0
M  V30 8705 O 825.667 0.801866 2.00995 0
M  V30 8706 C 826.262 3.38629 -0.107729 0
M  V30 8707 C 824.821 3.75336 0.282776 0
M  V30 8708 C 823.968 2.7317 -0.4768 0
M  V30 8709 H 826.919 1.41362 -0.72128 0
M  V30 8710 H 826.94 3.74271 0.685689 0
M  V30 8711 H 826.452 3.71017 -1.13876 0
M  V30 8712 H 824.553 3.48558 1.31675 0
M  V30 8713 H 824.666 4.79081 -0.0421728 0
M  V30 8714 H 823.03 2.54591 0.0743552 0
M  V30 8715 H 823.813 3.08403 -1.50807 0
M  V30 8716 N 826.258 0.243083 1.55714 0
M  V30 8717 C 827.188 -0.652336 2.24203 0
M  V30 8718 C 828.169 -1.1843 1.221 0
M  V30 8719 O 829.354 -1.22435 1.50743 0
M  V30 8720 C 826.484 -1.85111 2.93856 0
M  V30 8721 C 825.438 -1.45208 4.02615 0
M  V30 8722 C 824.764 -2.73137 4.59674 0
M  V30 8723 C 826.064 -0.625988 5.18535 0
M  V30 8724 H 827.758 -0.0812504 2.9929 0
M  V30 8725 H 825.304 -0.0376388 1.43951 0
M  V30 8726 H 827.257 -2.48314 3.40468 0
M  V30 8727 H 825.981 -2.44751 2.16251 0
M  V30 8728 H 824.64 -0.843406 3.56766 0
M  V30 8729 H 824.288 -3.30967 3.78774 0
M  V30 8730 H 823.988 -2.47163 5.33089 0
M  V30 8731 H 825.512 -3.37245 5.09017 0
M  V30 8732 H 826.926 -1.16223 5.61396 0
M  V30 8733 H 825.323 -0.462465 5.98315 0
M  V30 8734 H 826.393 0.362652 4.83542 0
M  V30 8735 N 827.736 -1.57571 -0.0300757 0
M  V30 8736 C 828.985 -1.88407 -0.720126 0
M  V30 8737 C 829.298 -0.841466 -1.76575 0
M  V30 8738 O 830.504 -1.03902 -2.50832 0
M  V30 8739 C 828.96 -3.34348 -1.33188 0
M  V30 8740 C 828.568 -4.46837 -0.32266 0
M  V30 8741 C 830.312 -3.74333 -2.00187 0
M  V30 8742 C 828.219 -5.83838 -0.942703 0
M  V30 8743 H 827.149 -0.702952 -0.272718 0
M  V30 8744 H 829.8 -1.83482 0.0255337 0
M  V30 8745 H 828.182 -3.34014 -2.12721 0
M  V30 8746 H 829.356 -4.58638 0.445887 0
M  V30 8747 H 827.671 -4.15678 0.245181 0
M  V30 8748 H 830.268 -4.74008 -2.47428 0
M  V30 8749 H 830.611 -3.06275 -2.81959 0
M  V30 8750 H 831.144 -3.76837 -1.2743 0
M  V30 8751 H 827.883 -6.55294 -0.164413 0
M  V30 8752 H 827.403 -5.75759 -1.68111 0
M  V30 8753 H 829.082 -6.30535 -1.45034 0
M  V30 8754 N 829.214 0.302327 -1.54673 0
M  V30 8755 C 830.144 1.37759 -1.88533 0
M  V30 8756 C 831.125 1.52961 -0.744113 0
M  V30 8757 O 832.31 1.6649 -0.999731 0
M  V30 8758 C 829.44 2.74201 -2.13146 0
M  V30 8759 C 828.394 2.73765 -3.28993 0
M  V30 8760 C 827.72 4.13483 -3.39022 0
M  V30 8761 C 829.02 2.35624 -4.66132 0
M  V30 8762 H 830.714 1.0967 -2.78591 0
M  V30 8763 H 828.26 0.52613 -1.34044 0
M  V30 8764 H 830.213 3.49508 -2.35419 0
M  V30 8765 H 828.937 3.03812 -1.19858 0
M  V30 8766 H 827.596 2.00914 -3.06642 0
M  V30 8767 H 827.244 4.40269 -2.43253 0
M  V30 8768 H 826.944 4.14093 -4.16894 0
M  V30 8769 H 828.468 4.90572 -3.63553 0
M  V30 8770 H 829.882 3.00647 -4.88143 0
M  V30 8771 H 828.279 2.47449 -5.46707 0
M  V30 8772 H 829.349 1.30753 -4.66939 0
M  V30 8773 N 830.692 1.47107 0.565454 0
M  V30 8774 C 832.108 1.32443 0.890566 0
M  V30 8775 C 832.308 0.308735 1.99121 0
M  V30 8776 O 831.364 -0.28265 2.50913 0
M  V30 8777 C 832.677 2.71548 1.2916 0
M  V30 8778 C 834.225 2.7977 1.40349 0
M  V30 8779 C 834.7 4.19497 1.83811 0
M  V30 8780 N 836.191 4.21998 1.90975 0
M  V30 8781 C 836.926 5.2702 2.25916 0
M  V30 8782 N 836.422 6.42353 2.59527 0
M  V30 8783 N 838.215 5.14393 2.26619 0
M  V30 8784 H 830.366 2.11786 -0.161328 0
M  V30 8785 H 832.629 0.947952 -0.00950631 0
M  V30 8786 H 832.335 3.47265 0.556753 0
M  V30 8787 H 832.209 3.02782 2.24951 0
M  V30 8788 H 834.596 2.0433 2.12916 0
M  V30 8789 H 834.677 2.522 0.427655 0
M  V30 8790 H 834.321 4.95439 1.11816 0
M  V30 8791 H 834.251 4.44486 2.82382 0
M  V30 8792 H 836.742 3.38791 1.6742 0
M  V30 8793 H 837.055 7.18252 2.85191 0
M  V30 8794 H 835.4 6.45687 2.57126 0
M  V30 8795 H 838.591 4.2332 1.99794 0
M  V30 8796 H 838.764 5.96349 2.5352 0
M  V30 8797 N 832.17 -0.811516 1.35101 0
M  V30 8798 C 833.581 -1.38515 1.25182 0
M  V30 8799 C 833.932 -1.95846 -0.117883 0
M  V30 8800 O 833.057 -1.90925 -1.01866 0
M  V30 8801 C 833.652 -2.51813 2.26662 0
M  V30 8802 C 832.211 -3.05052 2.20499 0
M  V30 8803 C 831.358 -1.77987 2.12641 0
M  V30 8804 H 834.309 -0.614959 1.46301 0
M  V30 8805 H 834.33 -3.30228 1.89023 0
M  V30 8806 H 833.842 -2.10057 3.2634 0
M  V30 8807 H 831.943 -3.51285 1.24215 0
M  V30 8808 H 832.056 -3.63368 3.1225 0
M  V30 8809 H 830.42 -1.99342 1.5854 0
M  V30 8810 H 831.203 -1.38389 3.14171 0
M  V30 8811 N 833.648 -1.19017 -1.03309 0
M  V30 8812 C 834.58 -0.881847 -2.11556 0
M  V30 8813 C 835.593 0.123711 -1.62329 0
M  V30 8814 O 836.782 -0.105141 -1.7819 0
M  V30 8815 C 833.882 -0.297634 -3.37591 0
M  V30 8816 C 833.055 -1.35072 -4.16022 0
M  V30 8817 C 832.114 -0.780812 -5.20375 0
M  V30 8818 O 831.14 -1.45745 -5.50224 0
M  V30 8819 N 832.342 0.417964 -5.78993 0
M  V30 8820 H 835.107 -1.81359 -2.38598 0
M  V30 8821 H 832.668 -1.0916 -1.19565 0
M  V30 8822 H 834.66 0.097374 -4.04583 0
M  V30 8823 H 833.23 0.538299 -3.0793 0
M  V30 8824 H 832.45 -1.92074 -3.4424 0
M  V30 8825 H 833.738 -2.06044 -4.65213 0
M  V30 8826 H 833.136 0.985281 -5.57054 0
M  V30 8827 H 831.693 0.754802 -6.47415 0
M  V30 8828 N 835.127 1.22348 -0.993418 0
M  V30 8829 C 836.543 1.43222 -0.704238 0
M  V30 8830 C 836.743 1.88009 0.724909 0
M  V30 8831 O 835.799 2.03429 1.49575 0
M  V30 8832 C 837.112 2.47328 -1.71025 0
M  V30 8833 C 838.66 2.61126 -1.72576 0
M  V30 8834 C 839.135 3.68453 -2.72041 0
M  V30 8835 N 840.626 3.75911 -2.70639 0
M  V30 8836 C 841.361 4.58551 -3.44266 0
M  V30 8837 N 840.857 5.45179 -4.27495 0
M  V30 8838 N 842.65 4.52866 -3.32969 0
M  V30 8839 H 834.801 0.915832 -1.91641 0
M  V30 8840 H 837.064 0.464283 -0.826526 0
M  V30 8841 H 836.77 2.21366 -2.73295 0
M  V30 8842 H 836.644 3.45939 -1.50353 0
M  V30 8843 H 839.031 2.86431 -0.710037 0
M  V30 8844 H 839.112 1.62787 -1.97317 0
M  V30 8845 H 838.756 3.43895 -3.73763 0
M  V30 8846 H 838.686 4.66362 -2.4457 0
M  V30 8847 H 841.177 3.14014 -2.10247 0
M  V30 8848 H 841.49 6.0526 -4.80499 0
M  V30 8849 H 839.835 5.44759 -4.31582 0
M  V30 8850 H 843.026 3.84215 -2.67389 0
M  V30 8851 H 843.199 5.17039 -3.90608 0
M  V30 8852 N 836.605 0.766683 1.37694 0
M  V30 8853 C 837.853 0.328065 1.9942 0
M  V30 8854 C 838.174 -1.09775 1.61166 0
M  V30 8855 O 837.444 -1.75288 0.874686 0
M  V30 8856 H 836.024 0.11831 0.737572 0
M  V30 8857 H 838.686 0.983686 1.68255 0
M  V30 8858 H 837.782 0.401647 3.09505 0
M  V30 8859 N 838.083 -1.48885 0.516809 0
M  V30 8860 C 839.329 -2.02788 -0.0220928 0
M  V30 8861 C 839.662 -1.39433 -1.35175 0
M  V30 8862 O 838.937 -0.535459 -1.86984 0
M  V30 8863 C 839.22 -3.59753 -0.158012 0
M  V30 8864 C 839.073 -4.33611 1.19588 0
M  V30 8865 C 840.392 -4.30984 -0.891133 0
M  V30 8866 H 837.511 -0.736971 -0.00655488 0
M  V30 8867 H 840.153 -1.77746 0.671287 0
M  V30 8868 H 838.303 -3.8122 -0.748568 0
M  V30 8869 H 839.975 -4.23598 1.82653 0
M  V30 8870 H 838.218 -3.95547 1.78116 0
M  V30 8871 H 838.889 -5.41846 1.05391 0
M  V30 8872 H 841.365 -4.14267 -0.39012 0
M  V30 8873 H 840.241 -5.40527 -0.955107 0
M  V30 8874 H 840.502 -3.97336 -1.93847 0
M  V30 8875 N 839.561 -0.251338 -1.55583 0
M  V30 8876 C 840.838 0.422729 -1.90977 0
M  V30 8877 C 841.218 1.75534 -1.17265 0
M  V30 8878 O 840.566 2.26632 -0.291588 0
M  V30 8879 C 840.776 0.586448 -3.44037 0
M  V30 8880 C 842.124 0.880294 -4.15375 0
M  V30 8881 O 843.148 0.672148 -3.49801 0
M  V30 8882 O 842.007 1.27694 -5.31372 0
M  V30 8883 H 839.101 0.227622 -0.795058 0
M  V30 8884 H 841.647 -0.295733 -1.67103 0
M  V30 8885 H 840.419 -0.352327 -3.89711 0
M  V30 8886 H 840.042 1.35528 -3.73789 0
M  V30 8887 N 841.039 1.57585 0.0217189 0
M  V30 8888 C 841.969 2.10073 1.01939 0
M  V30 8889 C 842.95 1.0049 1.37243 0
M  V30 8890 O 844.135 1.28055 1.45999 0
M  V30 8891 C 841.265 2.58618 2.31806 0
M  V30 8892 C 840.219 3.72531 2.10724 0
M  V30 8893 C 839.545 4.07309 3.46415 0
M  V30 8894 C 840.845 5.00672 1.48743 0
M  V30 8895 H 842.539 2.9368 0.582432 0
M  V30 8896 H 840.085 1.41277 0.278715 0
M  V30 8897 H 842.038 2.9396 3.01936 0
M  V30 8898 H 840.762 1.72104 2.77575 0
M  V30 8899 H 839.421 3.37549 1.43025 0
M  V30 8900 H 839.069 3.17851 3.89846 0
M  V30 8901 H 838.769 4.84042 3.33132 0
M  V30 8902 H 840.293 4.45192 4.17895 0
M  V30 8903 H 841.707 5.33925 2.088 0
M  V30 8904 H 840.104 5.82065 1.46013 0
M  V30 8905 H 841.174 4.82769 0.45408 0
M  V30 8906 N 842.517 -0.29412 1.54831 0
M  V30 8907 C 843.766 -1.02614 1.73647 0
M  V30 8908 C 844.079 -1.88193 0.533162 0
M  V30 8909 O 845.285 -2.64713 0.603275 0
M  V30 8910 C 843.741 -1.87417 3.07251 0
M  V30 8911 C 843.349 -1.06806 4.35082 0
M  V30 8912 C 845.093 -2.60176 3.35423 0
M  V30 8913 C 843 -1.90926 5.59733 0
M  V30 8914 H 841.93 -0.386834 0.647206 0
M  V30 8915 H 844.581 -0.282789 1.81308 0
M  V30 8916 H 842.963 -2.65765 2.93572 0
M  V30 8917 H 844.137 -0.330226 4.59615 0
M  V30 8918 H 842.452 -0.455979 4.13896 0
M  V30 8919 H 845.049 -3.23476 4.25755 0
M  V30 8920 H 845.392 -3.29365 2.54606 0
M  V30 8921 H 845.925 -1.88871 3.50103 0
M  V30 8922 H 842.664 -1.26194 6.43238 0
M  V30 8923 H 842.184 -2.62363 5.39375 0
M  V30 8924 H 843.863 -2.48807 5.97247 0
M  V30 8925 N 843.995 -1.47404 -0.557645 0
M  V30 8926 C 845.244 -1.53268 -1.31118 0
M  V30 8927 C 845.557 -0.199414 -1.94581 0
M  V30 8928 O 846.763 -0.136039 -2.71159 0
M  V30 8929 C 845.219 -2.70178 -2.37764 0
M  V30 8930 C 844.827 -4.10032 -1.80493 0
M  V30 8931 C 846.571 -2.85334 -3.14301 0
M  V30 8932 C 844.478 -5.18244 -2.84916 0
M  V30 8933 H 843.408 -0.570491 -0.493007 0
M  V30 8934 H 846.059 -1.73678 -0.592308 0
M  V30 8935 H 844.441 -2.43147 -3.12563 0
M  V30 8936 H 845.615 -4.46964 -1.12069 0
M  V30 8937 H 843.93 -3.99759 -1.16542 0
M  V30 8938 H 846.527 -3.63347 -3.92279 0
M  V30 8939 H 846.87 -1.93761 -3.68459 0
M  V30 8940 H 847.403 -3.12133 -2.46613 0
M  V30 8941 H 844.142 -6.11691 -2.35614 0
M  V30 8942 H 843.662 -4.85829 -3.51753 0
M  V30 8943 H 845.341 -5.45174 -3.48417 0
M  V30 8944 N 845.473 0.80434 -1.35529 0
M  V30 8945 C 846.698 1.598 -1.32207 0
M  V30 8946 C 847.123 1.87848 0.0974226 0
M  V30 8947 O 846.481 1.46728 1.06492 0
M  V30 8948 C 846.529 2.90483 -2.13663 0
M  V30 8949 O 845.633 3.83411 -1.51888 0
M  V30 8950 H 844.974 0.485305 -0.453183 0
M  V30 8951 H 847.504 0.998119 -1.78602 0
M  V30 8952 H 847.514 3.39888 -2.257 0
M  V30 8953 H 846.189 2.69395 -3.16859 0
M  V30 8954 H 844.766 3.41967 -1.48704 0
M  V30 8955 N 846.951 1.19563 1.02676 0
M  V30 8956 C 848.198 0.999568 1.7611 0
M  V30 8957 C 848.526 -0.469432 1.8875 0
M  V30 8958 O 847.781 -1.36481 1.40255 0
M  V30 8959 C 848.08 1.61619 3.18769 0
M  V30 8960 C 847.746 3.11366 3.26132 0
M  V30 8961 C 846.408 3.52234 3.27848 0
M  V30 8962 C 848.76 4.07374 3.25109 0
M  V30 8963 C 846.088 4.87658 3.26201 0
M  V30 8964 C 848.44 5.42731 3.25002 0
M  V30 8965 C 847.104 5.83027 3.25017 0
M  V30 8966 H 846.374 0.365768 0.644434 0
M  V30 8967 H 849.021 1.48838 1.20497 0
M  V30 8968 H 847.326 1.04974 3.77476 0
M  V30 8969 H 849.023 1.43975 3.74262 0
M  V30 8970 H 845.613 2.78804 3.25525 0
M  V30 8971 H 849.797 3.76842 3.22961 0
M  V30 8972 H 845.053 5.18156 3.24537 0
M  V30 8973 H 849.227 6.16879 3.23161 0
M  V30 8974 H 846.854 6.87936 3.23494 0
M  V30 8975 N 848.429 -1.21819 0.999893 0
M  V30 8976 C 849.706 -1.86318 0.595384 0
M  V30 8977 C 850.086 -1.8965 -0.927143 0
M  V30 8978 O 849.434 -1.3921 -1.81199 0
M  V30 8979 C 849.644 -3.26837 1.22387 0
M  V30 8980 C 850.992 -4.03272 1.32878 0
M  V30 8981 O 852.016 -3.36129 1.1788 0
M  V30 8982 O 850.875 -5.23477 1.56952 0
M  V30 8983 H 847.969 -0.801638 0.203238 0
M  V30 8984 H 850.515 -1.29542 1.09622 0
M  V30 8985 H 849.287 -3.19084 2.26497 0
M  V30 8986 H 848.91 -3.91226 0.709069 0
M  V30 8987 N 849.908 -0.773975 -1.37286 0
M  V30 8988 C 851.155 -0.339306 -1.99637 0
M  V30 8989 C 851.483 1.08478 -1.61439 0
M  V30 8990 O 850.738 1.7612 -0.853252 0
M  V30 8991 C 851.037 -0.432651 -3.54772 0
M  V30 8992 C 850.703 -1.81531 -4.12744 0
M  V30 8993 C 849.365 -2.19366 -4.2829 0
M  V30 8994 C 851.717 -2.72137 -4.44512 0
M  V30 8995 C 849.045 -3.47239 -4.72908 0
M  V30 8996 C 851.397 -3.99421 -4.90556 0
M  V30 8997 C 850.061 -4.37298 -5.04308 0
M  V30 8998 H 849.331 -0.124161 -0.730524 0
M  V30 8999 H 851.978 -0.988432 -1.64019 0
M  V30 9000 H 850.283 0.30001 -3.9065 0
M  V30 9001 H 851.98 -0.0776 -4.00925 0
M  V30 9002 H 848.57 -1.51126 -4.01072 0
M  V30 9003 H 852.754 -2.44165 -4.32084 0
M  V30 9004 H 848.01 -3.76477 -4.81742 0
M  V30 9005 H 852.184 -4.69756 -5.14104 0
M  V30 9006 H 849.811 -5.36442 -5.38641 0
M  V30 9007 N 851.386 1.48609 -0.524698 0
M  V30 9008 C 852.611 2.07398 0.00952139 0
M  V30 9009 C 853.036 1.37939 1.27884 0
M  V30 9010 O 852.394 0.443633 1.75788 0
M  V30 9011 C 852.442 3.59916 0.221956 0
M  V30 9012 O 851.546 3.91647 1.29175 0
M  V30 9013 H 850.887 0.662981 -0.0367729 0
M  V30 9014 H 853.417 1.91092 -0.7311 0
M  V30 9015 H 853.427 4.05552 0.446236 0
M  V30 9016 H 852.102 4.09876 -0.705306 0
M  V30 9017 H 850.679 3.57796 1.05055 0
M  V30 9018 N 852.864 0.259585 1.55447 0
M  V30 9019 C 853.827 -0.621359 2.20617 0
M  V30 9020 C 854.827 -1.09317 1.17925 0
M  V30 9021 O 856.017 -0.995842 1.42929 0
M  V30 9022 C 853.149 -1.85546 2.85982 0
M  V30 9023 H 854.342 -0.0525833 2.99854 0
M  V30 9024 H 851.895 0.0101055 1.56297 0
M  V30 9025 H 852.63 -2.46515 2.10715 0
M  V30 9026 H 852.415 -1.52523 3.61219 0
M  V30 9027 H 853.905 -2.48227 3.35817 0
M  V30 9028 N 854.342 -1.57594 -0.0133615 0
M  V30 9029 C 855.758 -1.5527 -0.369255 0
M  V30 9030 C 855.958 -0.987751 -1.7563 0
M  V30 9031 O 855.014 -0.615683 -2.44879 0
M  V30 9032 C 856.327 -2.99602 -0.25672 0
M  V30 9033 C 857.875 -3.11227 -0.332647 0
M  V30 9034 C 858.35 -4.57321 -0.249387 0
M  V30 9035 N 859.841 -4.62177 -0.3077 0
M  V30 9036 C 860.576 -5.72781 -0.26641 0
M  V30 9037 N 860.072 -6.92575 -0.176494 0
M  V30 9038 N 861.865 -5.61204 -0.317295 0
M  V30 9039 H 854.016 -1.92662 0.894154 0
M  V30 9040 H 856.279 -0.884352 0.341505 0
M  V30 9041 H 855.985 -3.44723 0.697072 0
M  V30 9042 H 855.859 -3.6246 -1.04415 0
M  V30 9043 H 858.246 -2.66045 -1.27688 0
M  V30 9044 H 858.327 -2.51171 0.484412 0
M  V30 9045 H 857.971 -5.03174 0.691242 0
M  V30 9046 H 857.901 -5.15306 -1.08476 0
M  V30 9047 H 860.392 -3.75994 -0.379069 0
M  V30 9048 H 860.705 -7.72653 -0.150518 0
M  V30 9049 H 859.05 -6.94854 -0.142314 0
M  V30 9050 H 862.241 -4.66509 -0.385643 0
M  V30 9051 H 862.414 -6.47388 -0.28165 0
M  V30 9052 N 855.82 0.285905 -1.54985 0
M  V30 9053 C 857.231 0.857869 -1.65824 0
M  V30 9054 C 857.582 1.87531 -0.576763 0
M  V30 9055 O 856.707 2.14528 0.284016 0
M  V30 9056 C 857.302 1.56277 -3.00604 0
M  V30 9057 C 855.861 2.08294 -3.13513 0
M  V30 9058 C 855.008 0.920633 -2.61571 0
M  V30 9059 H 857.959 0.0625463 -1.58577 0
M  V30 9060 H 857.98 2.42912 -2.92872 0
M  V30 9061 H 857.492 0.822017 -3.79295 0
M  V30 9062 H 855.593 2.8537 -2.39572 0
M  V30 9063 H 855.706 2.3071 -4.19892 0
M  V30 9064 H 854.07 1.31043 -2.18403 0
M  V30 9065 H 854.853 0.193594 -3.42754 0
M  V30 9066 N 857.298 1.47698 0.54982 0
M  V30 9067 C 858.523 1.58579 1.33669 0
M  V30 9068 C 858.948 0.239049 1.86575 0
M  V30 9069 O 858.306 -0.786256 1.63364 0
M  V30 9070 C 858.354 2.62029 2.47736 0
M  V30 9071 O 857.458 2.17813 3.50188 0
M  V30 9072 H 856.799 0.532447 0.396732 0
M  V30 9073 H 859.329 1.93536 0.6637 0
M  V30 9074 H 859.339 2.82682 2.94202 0
M  V30 9075 H 858.014 3.59812 2.08586 0
M  V30 9076 H 856.591 2.07291 3.09976 0
M  V30 9077 N 858.776 -0.797141 1.35954 0
M  V30 9078 C 860.053 -1.54224 1.2031 0
M  V30 9079 C 860.433 -2.10013 -0.213926 0
M  V30 9080 O 859.781 -1.93292 -1.21862 0
M  V30 9081 C 859.991 -2.6433 2.27883 0
M  V30 9082 C 861.339 -3.32418 2.64165 0
M  V30 9083 O 862.363 -2.74607 2.26868 0
M  V30 9084 O 861.222 -4.36876 3.28331 0
M  V30 9085 H 858.316 -0.681857 0.467974 0
M  V30 9086 H 860.862 -0.836288 1.47663 0
M  V30 9087 H 859.634 -2.21044 3.22885 0
M  V30 9088 H 859.257 -3.42551 2.01853 0
M  V30 9089 N 860.254 -1.20106 -1.0204 0
M  V30 9090 C 861.479 -1.0351 -1.79723 0
M  V30 9091 C 861.904 0.411328 -1.83548 0
M  V30 9092 O 861.262 1.29608 -1.26773 0
M  V30 9093 C 861.31 -1.61876 -3.22224 0
M  V30 9094 O 860.414 -0.853813 -4.03465 0
M  V30 9095 H 859.755 -0.365299 -0.554484 0
M  V30 9096 H 862.285 -1.59316 -1.28373 0
M  V30 9097 H 862.295 -1.65451 -3.72948 0
M  V30 9098 H 860.97 -2.67148 -3.18755 0
M  V30 9099 H 859.547 -0.891983 -3.62075 0
M  V30 9100 N 861.732 1.21287 -1.00634 0
M  V30 9101 C 862.957 1.94925 -0.708441 0
M  V30 9102 C 863.382 1.73659 0.722783 0
M  V30 9103 O 862.74 1.02429 1.49593 0
M  V30 9104 C 862.788 3.45377 -1.03667 0
M  V30 9105 O 861.892 4.12153 -0.142661 0
M  V30 9106 H 861.233 0.609338 -0.263824 0
M  V30 9107 H 863.763 1.54008 -1.34695 0
M  V30 9108 H 863.773 3.95954 -0.984086 0
M  V30 9109 H 862.448 3.6018 -2.0795 0
M  V30 9110 H 861.025 3.72048 -0.251888 0
M  V30 9111 N 863.21 0.781244 1.36873 0
M  V30 9112 C 864.621 0.414093 1.8205 0
M  V30 9113 C 864.972 -1.06098 1.65039 0
M  V30 9114 O 864.097 -1.82251 1.16677 0
M  V30 9115 C 864.692 0.744837 3.30511 0
M  V30 9116 C 863.251 0.430621 3.73929 0
M  V30 9117 C 862.398 0.983746 2.59264 0
M  V30 9118 H 865.349 0.975091 1.2521 0
M  V30 9119 H 865.37 0.032936 3.80486 0
M  V30 9120 H 864.882 1.81847 3.42861 0
M  V30 9121 H 862.983 -0.635308 3.67144 0
M  V30 9122 H 863.096 0.945514 4.69677 0
M  V30 9123 H 861.46 0.407433 2.5142 0
M  V30 9124 H 862.243 2.06297 2.74402 0
M  V30 9125 N 864.689 -1.48329 0.532571 0
M  V30 9126 C 866.1 -1.86469 0.0927749 0
M  V30 9127 C 866.451 -1.44186 -1.3306 0
M  V30 9128 O 865.576 -0.833741 -1.99694 0
M  V30 9129 C 866.171 -3.38414 0.161588 0
M  V30 9130 C 864.73 -3.75739 -0.223028 0
M  V30 9131 C 863.877 -2.72377 0.520199 0
M  V30 9132 H 866.828 -1.40197 0.743678 0
M  V30 9133 H 866.849 -3.75314 -0.626059 0
M  V30 9134 H 866.361 -3.69159 1.19765 0
M  V30 9135 H 864.462 -3.50608 -1.26113 0
M  V30 9136 H 864.575 -4.78954 0.118385 0
M  V30 9137 H 862.939 -2.54678 -0.0338425 0
M  V30 9138 H 863.722 -3.05965 1.55694 0
M  V30 9139 N 866.167 -0.267825 -1.55308 0
M  V30 9140 C 867.414 0.351036 -1.99434 0
M  V30 9141 C 867.742 1.56406 -1.15618 0
M  V30 9142 O 866.997 1.94548 -0.212045 0
M  V30 9143 C 867.296 0.784247 -3.48689 0
M  V30 9144 C 866.962 -0.323328 -4.49739 0
M  V30 9145 C 865.624 -0.627467 -4.77091 0
M  V30 9146 C 867.976 -1.07002 -5.10098 0
M  V30 9147 C 865.304 -1.682 -5.62073 0
M  V30 9148 C 867.656 -2.11422 -5.96224 0
M  V30 9149 C 866.32 -2.42479 -6.21901 0
M  V30 9150 H 865.59 0.128453 -0.729781 0
M  V30 9151 H 868.237 -0.380018 -1.87692 0
M  V30 9152 H 866.542 1.59485 -3.57871 0
M  V30 9153 H 868.239 1.2737 -3.80234 0
M  V30 9154 H 864.829 -0.0761528 -4.28532 0
M  V30 9155 H 869.013 -0.848302 -4.88996 0
M  V30 9156 H 864.269 -1.92772 -5.80215 0
M  V30 9157 H 868.443 -2.69759 -6.4203 0
M  V30 9158 H 866.07 -3.24328 -6.87543 0
M  V30 9159 N 867.645 1.57599 0.00500368 0
M  V30 9160 C 868.592 2.08106 0.998025 0
M  V30 9161 C 869.562 0.975374 1.34446 0
M  V30 9162 O 870.747 1.24749 1.44369 0
M  V30 9163 C 867.887 2.58496 2.28635 0
M  V30 9164 C 867 3.82947 1.99939 0
M  V30 9165 C 866.135 4.21857 3.22816 0
M  V30 9166 C 865.174 5.39159 2.89783 0
M  V30 9167 N 864.311 5.73386 4.05183 0
M  V30 9168 H 869.151 2.92684 0.560385 0
M  V30 9169 H 866.688 1.44692 0.265053 0
M  V30 9170 H 868.646 2.85787 3.03943 0
M  V30 9171 H 867.276 1.768 2.70077 0
M  V30 9172 H 866.328 3.62594 1.1502 0
M  V30 9173 H 867.64 4.68358 1.71588 0
M  V30 9174 H 866.794 4.50404 4.06474 0
M  V30 9175 H 865.533 3.35145 3.54301 0
M  V30 9176 H 864.538 5.1034 2.04532 0
M  V30 9177 H 865.763 6.27543 2.59551 0
M  V30 9178 H 863.709 4.89632 4.36574 0
M  V30 9179 H 863.626 6.53359 3.80339 0
M  V30 9180 H 864.894 6.06522 4.89644 0
M  V30 9181 N 869.123 -0.277682 1.55134 0
M  V30 9182 C 870.033 -1.36524 1.90783 0
M  V30 9183 C 871.049 -1.54283 0.804542 0
M  V30 9184 O 872.225 -1.68499 1.10318 0
M  V30 9185 C 869.29 -2.70524 2.16835 0
M  V30 9186 C 868.351 -2.61552 3.40424 0
M  V30 9187 C 867.584 -3.89162 3.65224 0
M  V30 9188 O 867.807 -4.89624 2.92616 0
M  V30 9189 O 866.741 -3.89647 4.58758 0
M  V30 9190 H 870.567 -1.0929 2.83354 0
M  V30 9191 H 868.152 -0.475799 1.41621 0
M  V30 9192 H 870.034 -3.49765 2.35038 0
M  V30 9193 H 868.709 -2.97555 1.27448 0
M  V30 9194 H 867.616 -1.80704 3.27562 0
M  V30 9195 H 868.949 -2.39472 4.30016 0
M  V30 9196 N 870.601 -1.47988 -0.541979 0
M  V30 9197 C 871.531 -1.64503 -1.65713 0
M  V30 9198 C 872.512 -0.494116 -1.62765 0
M  V30 9199 O 873.697 -0.725256 -1.80149 0
M  V30 9200 C 870.827 -1.67337 -3.04328 0
M  V30 9201 C 869.781 -2.81809 -3.2213 0
M  V30 9202 C 869.107 -2.69724 -4.61685 0
M  V30 9203 C 870.407 -4.23241 -3.06046 0
M  V30 9204 H 872.101 -2.5786 -1.52147 0
M  V30 9205 H 869.647 -1.24094 -0.730529 0
M  V30 9206 H 871.6 -1.77481 -3.82202 0
M  V30 9207 H 870.324 -0.705514 -3.18889 0
M  V30 9208 H 868.983 -2.71201 -2.46669 0
M  V30 9209 H 868.631 -1.70934 -4.73065 0
M  V30 9210 H 868.331 -3.4653 -4.74543 0
M  V30 9211 H 869.855 -2.81818 -5.41674 0
M  V30 9212 H 871.269 -4.34746 -3.73723 0
M  V30 9213 H 869.666 -5.00952 -3.30405 0
M  V30 9214 H 870.736 -4.40543 -2.02609 0
M  V30 9215 N 872.079 0.78992 -1.36375 0
M  V30 9216 C 873.009 1.91683 -1.33341 0
M  V30 9217 C 873.99 1.68861 -0.204965 0
M  V30 9218 O 875.175 1.89982 -0.402531 0
M  V30 9219 C 872.305 3.28696 -1.12143 0
M  V30 9220 C 871.259 3.66041 -2.21806 0
M  V30 9221 C 870.585 5.01399 -1.85751 0
M  V30 9222 C 871.885 3.74677 -3.63888 0
M  V30 9223 H 873.579 1.94478 -2.27637 0
M  V30 9224 H 871.125 0.934271 -1.09578 0
M  V30 9225 H 873.078 4.07151 -1.08656 0
M  V30 9226 H 871.802 3.26287 -0.142974 0
M  V30 9227 H 870.461 2.89883 -2.24418 0
M  V30 9228 H 870.109 4.9551 -0.864817 0
M  V30 9229 H 869.809 5.27355 -2.59173 0
M  V30 9230 H 871.333 5.82274 -1.83819 0
M  V30 9231 H 872.747 4.43324 -3.63506 0
M  V30 9232 H 871.144 4.12118 -4.3621 0
M  V30 9233 H 872.214 2.75795 -3.9883 0
M  V30 9234 N 873.557 1.20646 1.01402 0
M  V30 9235 C 874.487 0.98155 2.11867 0
M  V30 9236 C 875.468 -0.0903712 1.6986 0
M  V30 9237 O 876.653 0.0676586 1.94082 0
M  V30 9238 C 873.783 0.535636 3.43145 0
M  V30 9239 C 872.737 1.55109 3.98905 0
M  V30 9240 C 872.063 0.961725 5.2598 0
M  V30 9241 C 873.363 2.93552 4.32001 0
M  V30 9242 H 875.057 1.90544 2.3094 0
M  V30 9243 H 872.603 0.917554 1.10982 0
M  V30 9244 H 874.556 0.365512 4.19812 0
M  V30 9245 H 873.28 -0.423882 3.23838 0
M  V30 9246 H 871.939 1.70862 3.24348 0
M  V30 9247 H 871.587 -0.00580108 5.03 0
M  V30 9248 H 871.287 1.63993 5.64252 0
M  V30 9249 H 872.811 0.802726 6.053 0
M  V30 9250 H 874.225 2.81295 4.99546 0
M  V30 9251 H 872.622 3.58303 4.81393 0
M  V30 9252 H 873.692 3.4508 3.40658 0
M  V30 9253 N 875.035 -1.20752 1.01276 0
M  V30 9254 C 875.998 -2.2162 0.584583 0
M  V30 9255 C 876.998 -1.57094 -0.343215 0
M  V30 9256 O 878.188 -1.73696 -0.132433 0
M  V30 9257 C 875.32 -3.40583 -0.146872 0
M  V30 9258 H 876.513 -2.61015 1.47686 0
M  V30 9259 H 874.066 -1.34148 0.802123 0
M  V30 9260 H 874.801 -3.06686 -1.05424 0
M  V30 9261 H 874.586 -3.88642 0.51958 0
M  V30 9262 H 876.076 -4.15339 -0.433924 0
M  V30 9263 N 876.513 -0.788492 -1.36457 0
M  V30 9264 C 877.423 -0.187385 -2.3385 0
M  V30 9265 C 878.439 0.659984 -1.60998 0
M  V30 9266 O 879.615 0.575986 -1.92988 0
M  V30 9267 C 876.68 0.668525 -3.40194 0
M  V30 9268 C 875.741 -0.197234 -4.28847 0
M  V30 9269 C 874.974 0.61792 -5.30111 0
M  V30 9270 O 875.197 1.85396 -5.3943 0
M  V30 9271 O 874.131 0.0183016 -6.01897 0
M  V30 9272 H 877.957 -0.992617 -2.87021 0
M  V30 9273 H 875.542 -0.549934 -1.3891 0
M  V30 9274 H 877.424 1.15663 -4.05216 0
M  V30 9275 H 876.099 1.45166 -2.89324 0
M  V30 9276 H 875.006 -0.73207 -3.66867 0
M  V30 9277 H 876.339 -0.943863 -4.83065 0
M  V30 9278 N 877.991 1.48044 -0.54043 0
M  V30 9279 C 878.938 2.29781 0.216597 0
M  V30 9280 C 879.908 1.38021 0.924094 0
M  V30 9281 O 881.093 1.66985 0.923078 0
M  V30 9282 C 878.233 3.21623 1.2511 0
M  V30 9283 C 877.346 4.28467 0.551384 0
M  V30 9284 C 876.481 5.07477 1.56972 0
M  V30 9285 C 875.52 6.06113 0.854048 0
M  V30 9286 N 874.657 6.78143 1.81842 0
M  V30 9287 H 879.497 2.94001 -0.486578 0
M  V30 9288 H 877.034 1.44929 -0.251789 0
M  V30 9289 H 878.992 3.73279 1.8633 0
M  V30 9290 H 877.622 2.59305 1.92252 0
M  V30 9291 H 876.674 3.79997 -0.174982 0
M  V30 9292 H 877.986 4.98799 -0.0100542 0
M  V30 9293 H 877.14 5.63199 2.25592 0
M  V30 9294 H 875.879 4.37008 2.16507 0
M  V30 9295 H 874.884 5.49585 0.153838 0
M  V30 9296 H 876.109 6.78584 0.264675 0
M  V30 9297 H 874.055 6.10417 2.40265 0
M  V30 9298 H 873.972 7.44587 1.3087 0
M  V30 9299 H 875.24 7.38448 2.49628 0
M  V30 9300 N 879.47 0.276058 1.55163 0
M  V30 9301 C 880.716 -0.333945 2.0064 0
M  V30 9302 C 881.071 -1.53414 1.16111 0
M  V30 9303 O 880.364 -1.90293 0.22341 0
M  V30 9304 C 880.558 -0.765744 3.491 0
M  V30 9305 C 880.387 0.391068 4.47996 0
M  V30 9306 C 879.157 0.875151 4.97664 0
M  V30 9307 C 881.355 1.22786 4.99428 0
M  V30 9308 N 879.337 2.00133 5.80362 0
M  V30 9309 C 880.708 2.20192 5.79582 0
M  V30 9310 C 882.763 1.26109 4.81665 0
M  V30 9311 C 881.466 3.20667 6.43868 0
M  V30 9312 C 883.492 2.2543 5.4675 0
M  V30 9313 C 882.854 3.21568 6.26716 0
M  V30 9314 H 878.953 -0.087345 0.777107 0
M  V30 9315 H 881.537 0.400294 1.90541 0
M  V30 9316 H 879.708 -1.46921 3.5954 0
M  V30 9317 H 881.44 -1.35316 3.81407 0
M  V30 9318 H 878.195 0.454297 4.71416 0
M  V30 9319 H 878.619 2.56806 6.26402 0
M  V30 9320 H 883.261 0.531622 4.19444 0
M  V30 9321 H 880.979 3.94547 7.05236 0
M  V30 9322 H 884.565 2.28744 5.34946 0
M  V30 9323 H 883.445 3.97164 6.76188 0
M  V30 9324 N 880.948 -1.576 0.00335426 0
M  V30 9325 C 881.911 -2.07576 -0.971838 0
M  V30 9326 C 882.911 -0.985796 -1.27038 0
M  V30 9327 O 884.101 -1.24833 -1.21501 0
M  V30 9328 C 881.233 -2.52003 -2.29581 0
M  V30 9329 H 882.426 -2.95008 -0.539481 0
M  V30 9330 H 879.979 -1.54381 -0.244186 0
M  V30 9331 H 880.714 -1.67825 -2.77498 0
M  V30 9332 H 880.499 -3.31609 -2.09231 0
M  V30 9333 H 881.989 -2.90983 -2.99531 0
M  V30 9334 N 882.426 0.269451 -1.5528 0
M  V30 9335 C 883.373 1.33316 -1.88403 0
M  V30 9336 C 884.343 1.48909 -0.735881 0
M  V30 9337 O 885.528 1.63259 -0.987479 0
M  V30 9338 C 882.668 2.68778 -2.16454 0
M  V30 9339 C 881.781 2.61377 -3.43956 0
M  V30 9340 C 880.916 3.89042 -3.6169 0
M  V30 9341 C 879.955 3.76166 -4.82872 0
M  V30 9342 N 879.092 4.95673 -4.97245 0
M  V30 9343 H 883.932 1.04368 -2.79126 0
M  V30 9344 H 881.469 0.504147 -1.38191 0
M  V30 9345 H 883.427 3.47599 -2.30719 0
M  V30 9346 H 882.057 2.9592 -1.28961 0
M  V30 9347 H 881.109 1.74247 -3.38145 0
M  V30 9348 H 882.421 2.47764 -4.32914 0
M  V30 9349 H 881.575 4.76304 -3.75791 0
M  V30 9350 H 880.314 4.05526 -2.70924 0
M  V30 9351 H 879.319 2.87287 -4.68771 0
M  V30 9352 H 880.544 3.61198 -5.75077 0
M  V30 9353 H 878.49 5.12561 -4.09411 0
M  V30 9354 H 878.407 4.84605 -5.80254 0
M  V30 9355 H 879.675 5.84498 -5.15735 0
M  V30 9356 N 883.904 1.48273 0.534124 0
M  V30 9357 C 884.837 1.57053 1.65559 0
M  V30 9358 C 885.815 0.421213 1.5705 0
M  V30 9359 O 886.999 0.632242 1.77581 0
M  V30 9360 C 884.126 1.49465 3.03937 0
M  V30 9361 C 883.172 2.69186 3.30819 0
M  V30 9362 S 884.005 4.31192 3.17543 0
M  V30 9363 C 885.161 4.26197 4.58375 0
M  V30 9364 H 885.394 2.51927 1.57861 0
M  V30 9365 H 882.927 1.36755 0.716763 0
M  V30 9366 H 884.885 1.45775 3.83745 0
M  V30 9367 H 883.546 0.559357 3.09079 0
M  V30 9368 H 882.739 2.60005 4.31756 0
M  V30 9369 H 882.341 2.70118 2.58674 0
M  V30 9370 H 884.633 3.95874 5.49809 0
M  V30 9371 H 885.576 5.27299 4.72611 0
M  V30 9372 H 885.984 3.56723 4.37503 0
M  V30 9373 N 885.382 -0.782676 1.36792 0
M  V30 9374 C 886.33 -1.91698 1.31737 0
M  V30 9375 C 887.324 -1.68118 0.207994 0
M  V30 9376 O 888.53 -1.76042 0.375393 0
M  V30 9377 H 884.905 -0.630215 0.410284 0
M  V30 9378 H 886.876 -1.93078 2.27516 0
M  V30 9379 C 885.625 -3.28816 1.13029 0
M  V30 9380 H 884.948 -3.4753 1.97643 0
M  V30 9381 H 886.388 -4.08515 1.13541 0
M  V30 9382 C 884.847 -3.36497 -0.1647 0
M  V30 9383 O 885.377 -3.84822 -1.15216 0
M  V30 9384 N 883.583 -2.89828 -0.211678 0
M  V30 9385 H 883.13 -2.50693 0.59252 0
M  V30 9386 H 883.088 -2.95349 -1.07779 0
M  V30 9387 N 886.86 -1.21182 -1.00761 0
M  V30 9388 C 887.807 -0.968741 -2.09485 0
M  V30 9389 C 888.777 0.104325 -1.65772 0
M  V30 9390 O 889.962 -0.0422587 -1.90753 0
M  V30 9391 C 887.102 -0.536686 -3.40901 0
M  V30 9392 C 886.215 -1.6789 -3.98041 0
M  V30 9393 C 885.35 -1.19627 -5.17555 0
M  V30 9394 C 884.389 -2.31099 -5.66798 0
M  V30 9395 N 883.526 -1.83988 -6.77564 0
M  V30 9396 H 888.366 -1.89952 -2.29613 0
M  V30 9397 H 885.903 -0.946688 -1.12589 0
M  V30 9398 H 887.861 -0.26745 -4.16342 0
M  V30 9399 H 886.491 0.357092 -3.20819 0
M  V30 9400 H 885.543 -2.06284 -3.19611 0
M  V30 9401 H 886.855 -2.51794 -4.30582 0
M  V30 9402 H 886.009 -0.883539 -6.00232 0
M  V30 9403 H 884.748 -0.327244 -4.86601 0
M  V30 9404 H 883.753 -2.63178 -4.82719 0
M  V30 9405 H 884.978 -3.18493 -5.99782 0
M  V30 9406 H 882.924 -0.994257 -6.48422 0
M  V30 9407 H 882.841 -2.61466 -7.09346 0
M  V30 9408 H 884.109 -1.55741 -7.63783 0
M  V30 9409 N 888.338 1.20213 -1.01915 0
M  V30 9410 C 889.268 2.25336 -0.612023 0
M  V30 9411 C 890.249 1.65933 0.374186 0
M  V30 9412 O 891.434 1.92464 0.259053 0
M  V30 9413 C 888.564 3.47267 0.047904 0
M  V30 9414 C 887.518 4.1928 -0.859557 0
M  V30 9415 C 886.844 5.3466 -0.0652655 0
M  V30 9416 C 888.144 4.75143 -2.1688 0
M  V30 9417 H 889.838 2.59645 -1.49079 0
M  V30 9418 H 887.384 1.24808 -0.718263 0
M  V30 9419 H 889.337 4.19991 0.344294 0
M  V30 9420 H 888.061 3.12129 0.961404 0
M  V30 9421 H 886.72 3.48425 -1.13999 0
M  V30 9422 H 886.368 4.95767 0.849964 0
M  V30 9423 H 886.068 5.83772 -0.669618 0
M  V30 9424 H 887.592 6.10187 0.224612 0
M  V30 9425 H 889.006 5.39672 -1.9346 0
M  V30 9426 H 887.403 5.34702 -2.72422 0
M  V30 9427 H 888.473 3.93744 -2.83008 0
M  V30 9428 N 889.816 0.795718 1.36037 0
M  V30 9429 C 891.227 0.433379 1.816 0
M  V30 9430 C 891.578 -1.04341 1.66155 0
M  V30 9431 O 890.703 -1.81004 1.18603 0
M  V30 9432 C 891.298 0.77985 3.29703 0
M  V30 9433 C 889.857 0.470256 3.73451 0
M  V30 9434 C 889.004 1.01119 2.58206 0
M  V30 9435 H 891.955 0.988317 1.24169 0
M  V30 9436 H 891.976 0.0732898 3.80429 0
M  V30 9437 H 891.488 1.85473 3.40913 0
M  V30 9438 H 889.589 -0.596332 3.67797 0
M  V30 9439 H 889.702 0.995276 4.68648 0
M  V30 9440 H 888.066 0.434077 2.50974 0
M  V30 9441 H 888.849 2.09196 2.72198 0
M  V30 9442 N 891.294 -1.47756 0.548274 0
M  V30 9443 C 892.541 -2.02489 0.0208955 0
M  V30 9444 C 892.869 -1.42356 -1.32533 0
M  V30 9445 O 892.124 -0.565448 -1.87353 0
M  V30 9446 C 892.423 -3.5716 -0.131069 0
M  V30 9447 C 892.089 -4.36169 1.14313 0
M  V30 9448 C 890.751 -4.57476 1.4923 0
M  V30 9449 C 893.103 -4.81801 1.9879 0
M  V30 9450 C 890.431 -5.21662 2.68487 0
M  V30 9451 C 892.783 -5.47303 3.17242 0
M  V30 9452 C 891.447 -5.66844 3.52483 0
M  V30 9453 H 890.717 -0.740961 0.00764621 0
M  V30 9454 H 893.364 -1.77531 0.717987 0
M  V30 9455 H 891.669 -3.8106 -0.911063 0
M  V30 9456 H 893.366 -3.9715 -0.55433 0
M  V30 9457 H 889.956 -4.19858 0.861235 0
M  V30 9458 H 894.14 -4.65126 1.73123 0
M  V30 9459 H 889.396 -5.34987 2.95971 0
M  V30 9460 H 893.57 -5.81626 3.82994 0
M  V30 9461 H 891.197 -6.16352 4.44988 0
M  V30 9462 N 892.772 -0.284283 -1.55015 0
M  V30 9463 C 894.183 0.211681 -1.85496 0
M  V30 9464 C 894.534 1.54735 -1.2063 0
M  V30 9465 O 893.659 2.10594 -0.497918 0
M  V30 9466 C 894.254 0.390864 -3.36538 0
M  V30 9467 C 892.813 0.831055 -3.67111 0
M  V30 9468 C 891.96 -0.0703581 -2.77211 0
M  V30 9469 H 894.911 -0.505803 -1.50424 0
M  V30 9470 H 894.932 1.22803 -3.60138 0
M  V30 9471 H 894.444 -0.581409 -3.8372 0
M  V30 9472 H 892.545 1.81447 -3.25434 0
M  V30 9473 H 892.658 0.662026 -4.74504 0
M  V30 9474 H 891.022 0.447528 -2.50737 0
M  V30 9475 H 891.805 -1.03868 -3.2721 0
M  V30 9476 N 894.251 1.57596 -0.0117121 0
M  V30 9477 C 895.198 2.09153 0.975897 0
M  V30 9478 C 896.168 0.989579 1.33404 0
M  V30 9479 O 897.353 1.26273 1.43038 0
M  V30 9480 C 894.493 2.60906 2.2588 0
M  V30 9481 C 893.606 3.85046 1.95866 0
M  V30 9482 C 892.741 4.25257 3.18323 0
M  V30 9483 C 891.78 5.42202 2.84049 0
M  V30 9484 N 890.917 5.77651 3.99079 0
M  V30 9485 H 895.757 2.93261 0.52931 0
M  V30 9486 H 893.294 1.44965 0.249691 0
M  V30 9487 H 895.252 2.88995 3.00895 0
M  V30 9488 H 893.882 1.79654 2.68187 0
M  V30 9489 H 892.934 3.63794 1.11168 0
M  V30 9490 H 894.246 4.70151 1.66611 0
M  V30 9491 H 893.4 4.5469 4.01674 0
M  V30 9492 H 892.139 3.38884 3.50726 0
M  V30 9493 H 891.144 5.1248 1.99107 0
M  V30 9494 H 892.369 6.3026 2.52881 0
M  V30 9495 H 890.315 4.94235 4.31356 0
M  V30 9496 H 890.232 6.57356 3.73388 0
M  V30 9497 H 891.5 6.11681 4.83183 0
M  V30 9498 N 895.729 -0.261212 1.5542 0
M  V30 9499 C 896.978 -0.989072 1.75785 0
M  V30 9500 C 897.291 -1.8702 0.572961 0
M  V30 9501 O 898.497 -2.63374 0.659289 0
M  V30 9502 C 896.953 -1.80857 3.11157 0
M  V30 9503 C 896.561 -0.975535 4.3725 0
M  V30 9504 C 898.305 -2.53003 3.40866 0
M  V30 9505 C 896.212 -1.7901 5.63657 0
M  V30 9506 H 895.142 -0.373019 0.655266 0
M  V30 9507 H 897.793 -0.244267 1.81867 0
M  V30 9508 H 896.175 -2.59479 2.99144 0
M  V30 9509 H 897.349 -0.232661 4.60212 0
M  V30 9510 H 895.664 -0.368083 4.1477 0
M  V30 9511 H 898.261 -3.14372 4.32521 0
M  V30 9512 H 898.604 -3.23891 2.61535 0
M  V30 9513 H 899.137 -1.81403 3.54031 0
M  V30 9514 H 895.876 -1.12522 6.4577 0
M  V30 9515 H 895.396 -2.50863 5.44819 0
M  V30 9516 H 897.075 -2.36082 6.0239 0
M  V30 9517 N 897.207 -1.48554 -0.526253 0
M  V30 9518 C 898.484 -1.47252 -1.28748 0
M  V30 9519 C 898.864 -0.186245 -2.10277 0
M  V30 9520 O 898.212 0.831954 -2.12816 0
M  V30 9521 C 898.422 -2.73672 -2.16575 0
M  V30 9522 C 899.77 -3.22151 -2.76593 0
M  V30 9523 O 900.794 -2.74614 -2.2686 0
M  V30 9524 O 899.653 -4.04877 -3.67066 0
M  V30 9525 H 896.747 -0.588242 -0.581292 0
M  V30 9526 H 899.293 -1.60792 -0.5426 0
M  V30 9527 H 898.065 -3.58798 -1.56139 0
M  V30 9528 H 897.688 -2.6287 -2.98304 0
M  V30 9529 N 898.685 0.775411 -1.37205 0
M  V30 9530 C 900.096 1.35147 -1.28811 0
M  V30 9531 C 900.447 1.96089 0.0659168 0
M  V30 9532 O 899.572 1.93558 0.967684 0
M  V30 9533 C 900.167 2.45715 -2.33258 0
M  V30 9534 C 898.726 2.99099 -2.2851 0
M  V30 9535 C 897.873 1.72286 -2.17285 0
M  V30 9536 H 900.824 0.575954 -1.4788 0
M  V30 9537 H 900.845 3.251 -1.97712 0
M  V30 9538 H 900.357 2.01331 -3.31795 0
M  V30 9539 H 898.458 3.47868 -1.33485 0
M  V30 9540 H 898.571 3.54962 -3.21774 0
M  V30 9541 H 896.935 1.95068 -1.6377 0
M  V30 9542 H 897.718 1.3001 -3.1773 0
M  V30 9543 N 900.163 1.21714 1.00117 0
M  V30 9544 C 901.393 1.06124 1.77261 0
M  V30 9545 C 901.801 -0.391717 1.85101 0
M  V30 9546 O 901.144 -1.28347 1.31426 0
M  V30 9547 C 901.206 1.58778 3.22536 0
M  V30 9548 C 900.87 3.07289 3.38264 0
M  V30 9549 C 901.867 4.04801 3.26239 0
M  V30 9550 C 899.552 3.46574 3.63582 0
M  V30 9551 C 901.546 5.39585 3.39303 0
M  V30 9552 C 899.233 4.81509 3.76288 0
M  V30 9553 C 900.231 5.77824 3.64155 0
M  V30 9554 O 899.919 7.1031 3.7645 0
M  V30 9555 H 899.651 0.372979 0.563793 0
M  V30 9556 H 902.205 1.61589 1.26799 0
M  V30 9557 H 900.435 0.977129 3.74151 0
M  V30 9558 H 902.124 1.38974 3.81367 0
M  V30 9559 H 902.89 3.75795 3.066 0
M  V30 9560 H 898.769 2.72137 3.72106 0
M  V30 9561 H 902.313 6.14744 3.2975 0
M  V30 9562 H 898.21 5.102 3.95432 0
M  V30 9563 H 898.978 7.17774 3.93374 0
M  V30 9564 N 901.641 -1.19671 1.02551 0
M  V30 9565 C 902.887 -1.89548 0.721069 0
M  V30 9566 C 903.22 -1.79209 -0.748176 0
M  V30 9567 O 902.495 -1.1822 -1.54448 0
M  V30 9568 C 902.778 -3.4061 1.16861 0
M  V30 9569 C 902.631 -3.59838 2.69883 0
M  V30 9570 C 903.95 -4.33718 0.746782 0
M  V30 9571 H 901.069 -0.688315 0.263422 0
M  V30 9572 H 903.711 -1.40883 1.27483 0
M  V30 9573 H 901.861 -3.82188 0.697477 0
M  V30 9574 H 903.533 -3.27454 3.24917 0
M  V30 9575 H 901.776 -3.03005 3.10435 0
M  V30 9576 H 902.447 -4.65766 2.96253 0
M  V30 9577 H 904.923 -3.99837 1.15195 0
M  V30 9578 H 903.799 -5.38012 1.08786 0
M  V30 9579 H 904.06 -4.40704 -0.351057 0
M  V30 9580 N 903.119 -0.802921 -1.35613 0
M  V30 9581 C 904.366 -0.381576 -1.98872 0
M  V30 9582 C 904.694 1.0503 -1.63704 0
M  V30 9583 O 903.949 1.7427 -0.890418 0
M  V30 9584 C 904.248 -0.507806 -3.53774 0
M  V30 9585 C 903.914 -1.90245 -4.088 0
M  V30 9586 C 902.576 -2.28401 -4.2354 0
M  V30 9587 C 904.928 -2.81504 -4.3864 0
M  V30 9588 C 902.256 -3.57192 -4.65436 0
M  V30 9589 C 904.608 -4.09737 -4.81973 0
M  V30 9590 C 903.272 -4.47897 -4.94919 0
M  V30 9591 H 902.542 -0.139629 -0.727726 0
M  V30 9592 H 905.189 -1.023 -1.61886 0
M  V30 9593 H 903.494 0.21708 -3.91198 0
M  V30 9594 H 905.191 -0.162625 -4.0067 0
M  V30 9595 H 901.781 -1.596 -3.97776 0
M  V30 9596 H 905.965 -2.53276 -4.26808 0
M  V30 9597 H 901.221 -3.86611 -4.73648 0
M  V30 9598 H 905.395 -4.80555 -5.04024 0
M  V30 9599 H 903.022 -5.47747 -5.27141 0
M  V30 9600 N 904.597 1.47463 -0.556102 0
M  V30 9601 C 905.874 1.9557 0.0339892 0
M  V30 9602 C 906.254 1.49869 1.48669 0
M  V30 9603 O 905.602 0.737019 2.16288 0
M  V30 9604 C 905.812 3.48826 -0.110343 0
M  V30 9605 C 907.16 4.24585 0.0355716 0
M  V30 9606 O 908.184 3.5618 -0.0378356 0
M  V30 9607 O 907.043 5.46158 0.193299 0
M  V30 9608 H 904.137 0.824461 0.0647521 0
M  V30 9609 H 906.683 1.57868 -0.622547 0
M  V30 9610 H 905.455 3.74891 -1.12126 0
M  V30 9611 H 905.078 3.9329 0.583855 0
M  V30 9612 N 906.075 0.2925 1.54862 0
M  V30 9613 C 907.491 -0.0611461 1.59483 0
M  V30 9614 C 907.691 -1.53141 1.30958 0
M  V30 9615 O 906.747 -2.28291 1.07887 0
M  V30 9616 C 908.06 0.329143 2.98893 0
M  V30 9617 C 909.608 0.2772 3.1177 0
M  V30 9618 C 910.083 0.642185 4.53475 0
M  V30 9619 N 911.574 0.594396 4.5937 0
M  V30 9620 C 912.309 0.849385 5.67074 0
M  V30 9621 N 911.805 1.1699 6.82851 0
M  V30 9622 N 913.598 0.777016 5.56704 0
M  V30 9623 H 905.749 1.25079 1.71665 0
M  V30 9624 H 908.012 0.506516 0.80134 0
M  V30 9625 H 907.718 1.35233 3.24661 0
M  V30 9626 H 907.592 -0.321442 3.75828 0
M  V30 9627 H 909.979 -0.736725 2.85756 0
M  V30 9628 H 910.06 0.962289 2.3701 0
M  V30 9629 H 909.704 1.65388 4.80218 0
M  V30 9630 H 909.634 -0.0648831 5.2656 0
M  V30 9631 H 912.125 0.357256 3.76208 0
M  V30 9632 H 912.438 1.35067 7.60905 0
M  V30 9633 H 910.783 1.20785 6.84424 0
M  V30 9634 H 913.974 0.526333 4.65132 0
M  V30 9635 H 914.147 0.979113 6.4056 0
M  V30 9636 N 907.553 -1.57587 0.0200696 0
M  V30 9637 C 908.463 -2.13119 -0.980676 0
M  V30 9638 C 909.479 -1.08124 -1.36328 0
M  V30 9639 O 910.655 -1.40134 -1.44653 0
M  V30 9640 C 907.72 -2.63991 -2.24743 0
M  V30 9641 C 906.781 -3.83667 -1.9261 0
M  V30 9642 C 906.014 -4.32103 -3.13246 0
M  V30 9643 O 906.237 -3.79758 -4.25606 0
M  V30 9644 O 905.171 -5.24047 -2.96072 0
M  V30 9645 H 908.997 -2.98887 -0.538528 0
M  V30 9646 H 906.582 -1.48055 -0.19999 0
M  V30 9647 H 908.464 -2.9682 -2.99125 0
M  V30 9648 H 907.139 -1.81311 -2.68157 0
M  V30 9649 H 906.046 -3.55778 -1.15641 0
M  V30 9650 H 907.379 -4.67482 -1.54019 0
M  V30 9651 N 909.032 0.252966 -1.55557 0
M  V30 9652 C 910.28 0.979912 -1.76754 0
M  V30 9653 C 910.601 1.86083 -0.582944 0
M  V30 9654 O 909.871 1.91742 0.401497 0
M  V30 9655 H 908.451 0.364805 -0.651864 0
M  V30 9656 H 911.113 0.272372 -1.92987 0
M  V30 9657 H 910.209 1.60518 -2.67657 0
M  V30 9658 N 910.51 1.48831 0.518367 0
M  V30 9659 C 911.44 1.67119 1.63075 0
M  V30 9660 C 912.421 0.519948 1.61958 0
M  V30 9661 O 913.606 0.753824 1.78972 0
M  V30 9662 C 910.736 1.72158 3.01627 0
M  V30 9663 C 909.69 2.86898 3.17606 0
M  V30 9664 C 909.016 2.77035 4.57335 0
M  V30 9665 C 910.316 4.28057 2.99274 0
M  V30 9666 H 912.01 2.60248 1.48025 0
M  V30 9667 H 909.556 1.2524 0.710694 0
M  V30 9668 H 911.509 1.83539 3.7933 0
M  V30 9669 H 910.233 0.756157 3.17726 0
M  V30 9670 H 908.892 2.75091 2.42323 0
M  V30 9671 H 908.54 1.78438 4.70286 0
M  V30 9672 H 908.24 3.54036 4.6897 0
M  V30 9673 H 909.764 2.904 5.37122 0
M  V30 9674 H 911.178 4.40636 3.6676 0
M  V30 9675 H 909.575 5.06145 3.22393 0
M  V30 9676 H 910.645 4.4371 1.95574 0
M  V30 9677 N 911.988 -0.768124 1.37614 0
M  V30 9678 C 912.935 -1.88151 1.33671 0
M  V30 9679 C 913.905 -1.64871 0.201645 0
M  V30 9680 O 915.09 -1.86739 0.391582 0
M  V30 9681 C 912.23 -3.25264 1.15314 0
M  V30 9682 C 911.343 -3.60473 2.38082 0
M  V30 9683 C 910.478 -4.86814 2.12569 0
M  V30 9684 C 909.517 -5.14765 3.31184 0
M  V30 9685 N 908.654 -6.32295 3.052 0
M  V30 9686 H 913.494 -1.90857 2.28862 0
M  V30 9687 H 911.031 -0.933048 1.13722 0
M  V30 9688 H 912.989 -4.04364 1.02691 0
M  V30 9689 H 911.619 -3.21924 0.237689 0
M  V30 9690 H 910.671 -2.7633 2.61431 0
M  V30 9691 H 911.983 -3.77065 3.26532 0
M  V30 9692 H 911.137 -5.73826 1.96999 0
M  V30 9693 H 909.876 -4.72333 1.21462 0
M  V30 9694 H 908.881 -4.26227 3.4729 0
M  V30 9695 H 910.106 -5.31153 4.23147 0
M  V30 9696 H 908.052 -6.19166 2.16726 0
M  V30 9697 H 907.969 -6.4932 3.87195 0
M  V30 9698 H 909.237 -7.22234 2.93254 0
M  V30 9699 N 913.466 -1.22244 -0.994698 0
M  V30 9700 C 914.376 -1.00722 -2.11878 0
M  V30 9701 C 915.392 0.043919 -1.73945 0
M  V30 9702 O 916.568 -0.148411 -2.00852 0
M  V30 9703 C 913.633 -0.585723 -3.41717 0
M  V30 9704 C 912.694 -1.71027 -3.93762 0
M  V30 9705 C 911.927 -1.30879 -5.17403 0
M  V30 9706 O 912.15 -0.18681 -5.70094 0
M  V30 9707 O 911.084 -2.1246 -5.63156 0
M  V30 9708 H 914.91 -1.94894 -2.32916 0
M  V30 9709 H 912.495 -1.00822 -1.10251 0
M  V30 9710 H 914.377 -0.360935 -4.19851 0
M  V30 9711 H 913.052 0.327166 -3.22042 0
M  V30 9712 H 911.959 -1.98956 -3.16808 0
M  V30 9713 H 913.292 -2.60096 -4.17865 0
M  V30 9714 N 914.944 1.19125 -1.03184 0
M  V30 9715 C 916.184 1.90582 -0.738785 0
M  V30 9716 C 916.548 1.78004 0.719627 0
M  V30 9717 O 917.749 2.44084 1.12589 0
M  V30 9718 C 916.02 3.37319 -1.18114 0
M  V30 9719 S 917.579 4.26962 -1.01238 0
M  V30 9720 H 914.397 0.6582 -0.268875 0
M  V30 9721 H 916.999 1.43999 -1.32229 0
M  V30 9722 H 915.703 3.43999 -2.23814 0
M  V30 9723 H 915.234 3.88935 -0.591051 0
M  V30 9724 H 917.249 4.96143 0.0753558 0
M  V30 9725 N 916.422 0.810101 1.35185 0
M  V30 9726 C 917.652 0.404109 2.02609 0
M  V30 9727 C 918.06 -0.990748 1.61186 0
M  V30 9728 O 917.403 -1.65038 0.80674 0
M  V30 9729 C 917.465 0.412047 3.57131 0
M  V30 9730 C 917.129 1.75802 4.21832 0
M  V30 9731 C 918.126 2.71687 4.43263 0
M  V30 9732 C 915.811 2.04299 4.58876 0
M  V30 9733 C 917.805 3.9425 5.00845 0
M  V30 9734 C 915.492 3.27125 5.16171 0
M  V30 9735 C 916.49 4.21918 5.37098 0
M  V30 9736 O 916.178 5.42576 5.93184 0
M  V30 9737 H 915.91 0.161914 0.656323 0
M  V30 9738 H 918.464 1.09605 1.73712 0
M  V30 9739 H 916.694 -0.336509 3.85233 0
M  V30 9740 H 918.383 0.0278817 4.0589 0
M  V30 9741 H 919.149 2.50964 4.15021 0
M  V30 9742 H 915.028 1.31324 4.41899 0
M  V30 9743 H 918.572 4.68251 5.17094 0
M  V30 9744 H 914.469 3.47718 5.43841 0
M  V30 9745 H 915.237 5.43921 6.11631 0
M  V30 9746 N 917.9 -1.47166 0.563914 0
M  V30 9747 C 919.146 -2.02756 0.0424338 0
M  V30 9748 C 919.479 -1.43662 -1.3067 0
M  V30 9749 O 918.754 -0.594676 -1.85186 0
M  V30 9750 C 919.037 -3.60074 -0.0434793 0
M  V30 9751 C 918.89 -4.29587 1.33323 0
M  V30 9752 C 920.209 -4.336 -0.753568 0
M  V30 9753 H 917.328 -0.736806 0.0168946 0
M  V30 9754 H 919.97 -1.75521 0.727496 0
M  V30 9755 H 918.12 -3.83409 -0.626906 0
M  V30 9756 H 919.792 -4.17573 1.96037 0
M  V30 9757 H 918.035 -3.8968 1.9061 0
M  V30 9758 H 918.706 -5.38218 1.22576 0
M  V30 9759 H 921.182 -4.15299 -0.258126 0
M  V30 9760 H 920.058 -5.43291 -0.782659 0
M  V30 9761 H 920.319 -4.03302 -1.81108 0
M  V30 9762 N 919.378 -0.300708 -1.54705 0
M  V30 9763 C 920.625 0.308654 -2.00134 0
M  V30 9764 C 920.953 1.53918 -1.1891 0
M  V30 9765 O 920.208 1.94054 -0.253263 0
M  V30 9766 C 920.507 0.710108 -3.50275 0
M  V30 9767 C 920.173 -0.418651 -4.48952 0
M  V30 9768 C 918.835 -0.728524 -4.75653 0
M  V30 9769 C 921.187 -1.17797 -5.07714 0
M  V30 9770 C 918.515 -1.80085 -5.58378 0
M  V30 9771 C 920.867 -2.24022 -5.91606 0
M  V30 9772 C 919.531 -2.55616 -6.16617 0
M  V30 9773 H 918.801 0.112945 -0.732342 0
M  V30 9774 H 921.448 -0.419744 -1.86843 0
M  V30 9775 H 919.753 1.51859 -3.61173 0
M  V30 9776 H 921.45 1.19277 -3.8285 0
M  V30 9777 H 918.04 -0.167034 -4.28274 0
M  V30 9778 H 922.224 -0.951835 -4.87087 0
M  V30 9779 H 917.48 -2.05036 -5.75995 0
M  V30 9780 H 921.654 -2.83317 -6.36164 0
M  V30 9781 H 919.281 -3.38839 -6.80509 0
M  V30 9782 N 920.856 1.57574 -0.0284266 0
M  V30 9783 C 921.803 2.10176 0.953658 0
M  V30 9784 C 922.773 1.00367 1.32347 0
M  V30 9785 O 923.958 1.27783 1.4169 0
M  V30 9786 C 921.098 2.63287 2.231 0
M  V30 9787 C 920.211 3.87102 1.91771 0
M  V30 9788 C 919.346 4.28609 3.13795 0
M  V30 9789 C 918.385 5.45184 2.78282 0
M  V30 9790 N 917.522 5.81851 3.92929 0
M  V30 9791 H 922.362 2.93806 0.498176 0
M  V30 9792 H 919.899 1.45222 0.234302 0
M  V30 9793 H 921.857 2.9217 2.97813 0
M  V30 9794 H 920.487 1.82489 2.66266 0
M  V30 9795 H 919.539 3.64952 1.07303 0
M  V30 9796 H 920.851 4.71892 1.61615 0
M  V30 9797 H 920.005 4.58925 3.96829 0
M  V30 9798 H 918.744 3.42585 3.47112 0
M  V30 9799 H 917.749 5.14563 1.93661 0
M  V30 9800 H 918.974 6.32907 2.46182 0
M  V30 9801 H 916.92 4.98782 4.2609 0
M  V30 9802 H 916.837 6.6128 3.66395 0
M  V30 9803 H 918.105 6.16772 4.76669 0
M  V30 9804 N 922.334 -0.244713 1.55689 0
M  V30 9805 C 923.745 -0.813603 1.6804 0
M  V30 9806 C 924.096 -1.85936 0.626281 0
M  V30 9807 O 923.221 -2.15206 -0.227038 0
M  V30 9808 C 923.816 -1.48252 3.04642 0
M  V30 9809 C 922.375 -1.99908 3.18926 0
M  V30 9810 C 921.522 -0.850958 2.6392 0
M  V30 9811 H 924.473 -0.0204805 1.58687 0
M  V30 9812 H 924.494 -2.35062 2.99209 0
M  V30 9813 H 924.006 -0.721164 3.81341 0
M  V30 9814 H 922.107 -2.78918 2.47054 0
M  V30 9815 H 922.22 -2.19497 4.25862 0
M  V30 9816 H 920.584 -1.25206 2.21801 0
M  V30 9817 H 921.367 -0.10265 3.43146 0
M  V30 9818 N 923.813 -1.49104 -0.510467 0
M  V30 9819 C 924.76 -1.65074 -1.61305 0
M  V30 9820 C 925.73 -0.492362 -1.58635 0
M  V30 9821 O 926.915 -0.718241 -1.76765 0
M  V30 9822 C 924.055 -1.71457 -2.99493 0
M  V30 9823 C 923.168 -2.98536 -3.12251 0
M  V30 9824 C 922.303 -2.95957 -4.41116 0
M  V30 9825 C 921.342 -4.17655 -4.47471 0
M  V30 9826 N 920.479 -4.13041 -5.67751 0
M  V30 9827 H 925.319 -2.59222 -1.46996 0
M  V30 9828 H 922.856 -1.28535 -0.715346 0
M  V30 9829 H 924.814 -1.7314 -3.79577 0
M  V30 9830 H 923.444 -0.807834 -3.12528 0
M  V30 9831 H 922.496 -3.06509 -2.25292 0
M  V30 9832 H 923.808 -3.88527 -3.12807 0
M  V30 9833 H 922.962 -2.96149 -5.2951 0
M  V30 9834 H 921.701 -2.03728 -4.4311 0
M  V30 9835 H 920.706 -4.17717 -3.57481 0
M  V30 9836 H 921.931 -5.11066 -4.472 0
M  V30 9837 H 919.877 -3.23643 -5.70606 0
M  V30 9838 H 919.794 -4.96757 -5.69884 0
M  V30 9839 H 921.062 -4.17322 -6.58379 0
M  V30 9840 N 925.291 0.760815 -1.38019 0
M  V30 9841 C 926.239 1.89578 -1.34771 0
M  V30 9842 C 927.233 1.67766 -0.234714 0
M  V30 9843 O 928.439 1.75423 -0.403352 0
M  V30 9844 H 924.814 0.623608 -0.420258 0
M  V30 9845 H 926.785 1.89434 -2.30558 0
M  V30 9846 C 925.534 3.26976 -1.18246 0
M  V30 9847 H 924.857 3.44342 -2.03147 0
M  V30 9848 H 926.297 4.06657 -1.20026 0
M  V30 9849 C 924.756 3.36717 0.111145 0
M  V30 9850 O 925.286 3.86607 1.09079 0
M  V30 9851 N 923.492 2.90128 0.165542 0
M  V30 9852 H 923.039 2.49719 -0.632328 0
M  V30 9853 H 922.997 2.97026 1.03067 0
M  V30 9854 N 926.769 1.22769 0.988202 0
M  V30 9855 C 928.18 1.0512 1.54294 0
M  V30 9856 C 928.531 -0.383904 1.92407 0
M  V30 9857 O 927.656 -1.26955 1.75246 0
M  V30 9858 C 928.251 1.90198 2.80375 0
M  V30 9859 C 926.81 1.76831 3.32276 0
M  V30 9860 C 925.957 1.86377 2.05326 0
M  V30 9861 H 928.908 1.36546 0.808758 0
M  V30 9862 H 928.929 1.42216 3.52923 0
M  V30 9863 H 928.441 2.9464 2.52605 0
M  V30 9864 H 926.542 0.751412 3.64945 0
M  V30 9865 H 926.655 2.59771 4.02562 0
M  V30 9866 H 925.019 1.2987 2.19103 0
M  V30 9867 H 925.802 2.9236 1.79946 0
M  V30 9868 N 928.247 -1.18576 1.03814 0
M  V30 9869 C 929.524 -1.8433 0.654358 0
M  V30 9870 C 929.904 -1.92504 -0.866338 0
M  V30 9871 O 929.252 -1.44904 -1.76678 0
M  V30 9872 C 929.462 -3.22778 1.32723 0
M  V30 9873 C 930.81 -3.98841 1.45641 0
M  V30 9874 O 931.834 -3.32209 1.28514 0
M  V30 9875 O 930.693 -5.18219 1.73526 0
M  V30 9876 H 927.787 -0.794766 0.228638 0
M  V30 9877 H 930.333 -1.25989 1.13687 0
M  V30 9878 H 929.105 -3.11717 2.36534 0
M  V30 9879 H 928.728 -3.88772 0.833176 0
M  V30 9880 N 929.725 -0.817259 -1.34754 0
M  V30 9881 C 930.658 -0.180483 -2.27485 0
M  V30 9882 C 931.636 0.659792 -1.48612 0
M  V30 9883 O 932.82 0.624761 -1.77845 0
M  V30 9884 C 929.947 0.748487 -3.30326 0
M  V30 9885 C 928.993 -0.0135304 -4.26498 0
M  V30 9886 S 929.826 -1.35685 -5.18025 0
M  V30 9887 C 930.982 -0.432605 -6.24403 0
M  V30 9888 H 931.215 -0.966677 -2.81145 0
M  V30 9889 H 928.748 -0.612864 -1.41716 0
M  V30 9890 H 930.706 1.27893 -3.90069 0
M  V30 9891 H 929.367 1.50816 -2.75524 0
M  V30 9892 H 928.56 0.692454 -4.9922 0
M  V30 9893 H 928.162 -0.474344 -3.7098 0
M  V30 9894 H 930.454 0.378035 -6.76444 0
M  V30 9895 H 931.397 -1.12934 -6.99036 0
M  V30 9896 H 931.805 -0.0235533 -5.64495 0
M  V30 9897 N 931.203 1.46865 -0.571711 0
M  V30 9898 C 932.113 2.33979 0.170571 0
M  V30 9899 C 933.129 1.49083 0.897239 0
M  V30 9900 O 934.305 1.81979 0.862888 0
M  V30 9901 C 931.37 3.26063 1.17831 0
M  V30 9902 C 930.431 4.26855 0.457499 0
M  V30 9903 C 929.664 5.14539 1.41722 0
M  V30 9904 O 929.887 5.04945 2.65305 0
M  V30 9905 O 928.821 5.94612 0.9338 0
M  V30 9906 H 932.647 2.98781 -0.544396 0
M  V30 9907 H 930.232 1.4566 -0.332198 0
M  V30 9908 H 932.114 3.82903 1.75965 0
M  V30 9909 H 930.789 2.63871 1.87493 0
M  V30 9910 H 929.696 3.73734 -0.165406 0
M  V30 9911 H 931.029 4.91802 -0.197953 0
M  V30 9912 N 932.681 0.308908 1.54543 0
M  V30 9913 C 933.628 -0.563659 2.23811 0
M  V30 9914 C 934.598 -1.12332 1.22355 0
M  V30 9915 O 935.783 -1.16638 1.50997 0
M  V30 9916 C 932.923 -1.72585 2.98845 0
M  V30 9917 C 932.036 -1.19682 4.1509 0
M  V30 9918 C 931.171 -2.32351 4.77688 0
M  V30 9919 C 930.21 -1.76623 5.86064 0
M  V30 9920 N 929.347 -2.82896 6.42584 0
M  V30 9921 H 934.187 0.0336288 2.97981 0
M  V30 9922 H 931.724 0.0283666 1.47073 0
M  V30 9923 H 933.682 -2.40951 3.40586 0
M  V30 9924 H 932.312 -2.29464 2.27037 0
M  V30 9925 H 931.364 -0.405173 3.78236 0
M  V30 9926 H 932.676 -0.748923 4.93146 0
M  V30 9927 H 931.83 -3.0865 5.22322 0
M  V30 9928 H 930.569 -2.80472 3.98982 0
M  V30 9929 H 929.574 -0.988171 5.40847 0
M  V30 9930 H 930.799 -1.29398 6.66658 0
M  V30 9931 H 928.745 -3.30336 5.66758 0
M  V30 9932 H 928.662 -2.42626 7.16009 0
M  V30 9933 H 929.93 -3.59068 6.91875 0
M  V30 9934 N 934.159 -1.57557 0.0367827 0
M  V30 9935 C 935.436 -1.83427 -0.679261 0
M  V30 9936 C 935.816 -0.922274 -1.89888 0
M  V30 9937 O 935.164 0.02025 -2.28491 0
M  V30 9938 C 935.374 -3.32823 -1.05022 0
M  V30 9939 C 936.722 -3.99486 -1.43861 0
M  V30 9940 O 937.746 -3.37364 -1.14297 0
M  V30 9941 O 936.605 -5.0899 -1.98977 0
M  V30 9942 H 933.699 -0.756581 -0.333936 0
M  V30 9943 H 936.245 -1.69575 0.0650494 0
M  V30 9944 H 935.017 -3.90874 -0.182509 0
M  V30 9945 H 934.64 -3.5181 -1.85244 0
M  V30 9946 N 935.637 0.236453 -1.55816 0
M  V30 9947 C 936.877 0.970249 -1.79904 0
M  V30 9948 C 937.241 1.8212 -0.607965 0
M  V30 9949 O 938.442 2.58759 -0.727833 0
M  V30 9950 C 936.713 1.79938 -3.088 0
M  V30 9951 S 938.272 2.59084 -3.54148 0
M  V30 9952 H 935.09 0.32618 -0.631765 0
M  V30 9953 H 937.692 0.237147 -1.94056 0
M  V30 9954 H 936.396 1.16412 -3.93544 0
M  V30 9955 H 935.927 2.57504 -2.97414 0
M  V30 9956 H 937.942 3.82315 -3.16306 0
M  V30 9957 N 937.115 1.49373 0.502552 0
M  V30 9958 C 938.526 1.52 1.0841 0
M  V30 9959 C 938.877 0.305317 1.9381 0
M  V30 9960 O 938.002 -0.585023 2.08342 0
M  V30 9961 C 938.597 2.75437 1.97281 0
M  V30 9962 C 937.156 2.80848 2.50602 0
M  V30 9963 C 936.303 2.45894 1.28186 0
M  V30 9964 H 939.254 1.56092 0.286533 0
M  V30 9965 H 939.275 2.55511 2.81947 0
M  V30 9966 H 938.787 3.63827 1.35098 0
M  V30 9967 H 936.888 1.96735 3.16427 0
M  V30 9968 H 937.001 3.82979 2.8786 0
M  V30 9969 H 935.365 1.97639 1.60657 0
M  V30 9970 H 936.148 3.36556 0.677139 0
M  V30 9971 N 938.594 -0.753485 1.38421 0
M  V30 9972 C 939.822 -1.54272 1.37868 0
M  V30 9973 C 940.237 -1.88774 -0.0315155 0
M  V30 9974 O 939.594 -1.52785 -0.998148 0
M  V30 9975 C 939.645 -2.84179 2.23438 0
M  V30 9976 O 939.366 -2.51149 3.58965 0
M  V30 9977 C 940.867 -3.78316 2.31067 0
M  V30 9978 H 938.087 -0.47735 0.47157 0
M  V30 9979 H 940.631 -0.932509 1.82001 0
M  V30 9980 H 938.786 -3.41577 1.82767 0
M  V30 9981 H 939.2 -3.34466 4.04021 0
M  V30 9982 H 940.674 -4.66418 2.95226 0
M  V30 9983 H 941.151 -4.18757 1.32436 0
M  V30 9984 H 941.757 -3.26842 2.72129 0
M  V30 9985 N 940.072 -1.23292 -0.981677 0
M  V30 9986 C 941.321 -1.05832 -1.71705 0
M  V30 9987 C 941.634 0.40514 -1.91358 0
M  V30 9988 O 942.84 0.699645 -2.6233 0
M  V30 9989 C 941.296 -1.84532 -3.08992 0
M  V30 9990 C 940.904 -3.35199 -2.9723 0
M  V30 9991 C 942.648 -1.75557 -3.86497 0
M  V30 9992 C 940.555 -4.06296 -4.29741 0
M  V30 9993 H 939.485 -0.39241 -0.64384 0
M  V30 9994 H 942.136 -1.47247 -1.09502 0
M  V30 9995 H 940.518 -1.35923 -3.71942 0
M  V30 9996 H 941.692 -3.91286 -2.43377 0
M  V30 9997 H 940.007 -3.44973 -2.332 0
M  V30 9998 H 942.604 -2.25989 -4.84596 0
M  V30 9999 H 942.947 -0.718101 -4.1006 0
M  V30 10000 H 943.48 -2.21771 -3.30246 0
M  V30 10001 H 940.219 -5.10344 -4.11375 0
M  V30 10002 H 939.739 -3.54997 -4.83464 0
M  V30 10003 H 941.418 -4.12519 -4.98434 0
M  V30 10004 N 941.55 1.18024 -1.04442 0
M  V30 10005 C 942.799 1.8743 -0.745185 0
M  V30 10006 C 943.112 1.81459 0.730206 0
M  V30 10007 O 944.318 2.46263 1.1431 0
M  V30 10008 C 942.774 3.36266 -1.28271 0
M  V30 10009 C 942.382 3.50757 -2.787 0
M  V30 10010 C 944.126 4.11048 -1.06018 0
M  V30 10011 C 942.033 4.93573 -3.25791 0
M  V30 10012 H 940.963 0.702038 -0.27506 0
M  V30 10013 H 943.614 1.33333 -1.26073 0
M  V30 10014 H 941.996 3.89853 -0.695002 0
M  V30 10015 H 943.17 3.07423 -3.43261 0
M  V30 10016 H 941.485 2.89385 -2.99408 0
M  V30 10017 H 944.082 5.16395 -1.38711 0
M  V30 10018 H 944.425 4.163 0.00241716 0
M  V30 10019 H 944.958 3.63644 -1.61269 0
M  V30 10020 H 941.697 4.93491 -4.31447 0
M  V30 10021 H 941.217 5.37607 -2.65968 0
M  V30 10022 H 942.896 5.62307 -3.20031 0
M  V30 10023 N 943.028 0.824394 1.34319 0
M  V30 10024 C 943.978 0.219624 2.2694 0
M  V30 10025 C 944.962 -0.616964 1.48601 0
M  V30 10026 O 946.154 -0.471303 1.7061 0
M  V30 10027 C 943.283 -0.616379 3.37721 0
M  V30 10028 C 942.369 0.230917 4.23471 0
M  V30 10029 N 942.76 1.30264 4.88738 0
M  V30 10030 C 941.058 0.0155016 4.45997 0
M  V30 10031 C 941.759 1.82141 5.52449 0
M  V30 10032 N 940.735 1.12508 5.3183 0
M  V30 10033 H 944.537 1.03939 2.74907 0
M  V30 10034 H 942.051 0.667353 1.48055 0
M  V30 10035 H 944.048 -1.06582 4.03046 0
M  V30 10036 H 942.708 -1.43429 2.91304 0
M  V30 10037 H 943.719 1.68545 4.89707 0
M  V30 10038 H 940.396 -0.770128 4.10336 0
M  V30 10039 H 941.786 2.7181 6.14466 0
M  V30 10040 N 944.506 -1.46559 0.579492 0
M  V30 10041 C 945.753 -2.02399 0.0638418 0
M  V30 10042 C 946.081 -1.45135 -1.29484 0
M  V30 10043 O 945.336 -0.605061 -1.86112 0
M  V30 10044 C 945.635 -3.57357 -0.0552803 0
M  V30 10045 C 945.301 -4.33646 1.23539 0
M  V30 10046 C 943.963 -4.54207 1.589 0
M  V30 10047 C 946.315 -4.77476 2.08965 0
M  V30 10048 C 943.643 -5.1585 2.79492 0
M  V30 10049 C 945.995 -5.4045 3.2878 0
M  V30 10050 C 944.659 -5.5924 3.64427 0
M  V30 10051 H 943.929 -0.740632 0.0233614 0
M  V30 10052 H 946.576 -1.75968 0.755482 0
M  V30 10053 H 944.881 -3.82907 -0.83003 0
M  V30 10054 H 946.578 -3.98237 -0.469964 0
M  V30 10055 H 943.168 -4.17937 0.9501 0
M  V30 10056 H 947.352 -4.61349 1.8295 0
M  V30 10057 H 942.608 -5.28589 3.07252 0
M  V30 10058 H 946.782 -5.73371 3.95245 0
M  V30 10059 H 944.409 -6.06775 4.57961 0
M  V30 10060 N 945.984 -0.3171 -1.54377 0
M  V30 10061 C 947.23 0.287836 -2.00747 0
M  V30 10062 C 947.563 1.52292 -1.20502 0
M  V30 10063 O 946.838 1.92391 -0.285626 0
M  V30 10064 C 947.121 0.628423 -3.54574 0
M  V30 10065 C 946.974 -0.616922 -4.45549 0
M  V30 10066 C 948.293 1.44862 -4.15575 0
M  V30 10067 H 945.412 0.103144 -0.729747 0
M  V30 10068 H 948.054 -0.432396 -1.85014 0
M  V30 10069 H 946.204 1.24203 -3.68111 0
M  V30 10070 H 947.876 -1.25526 -4.43893 0
M  V30 10071 H 946.119 -1.24706 -4.15489 0
M  V30 10072 H 946.79 -0.334243 -5.50987 0
M  V30 10073 H 949.266 0.930015 -4.05574 0
M  V30 10074 H 948.142 1.6557 -5.23333 0
M  V30 10075 H 948.403 2.44279 -3.68484 0
M  V30 10076 N 947.462 1.57535 -0.0451378 0
M  V30 10077 C 948.392 2.14208 0.929372 0
M  V30 10078 C 949.373 1.06221 1.32858 0
M  V30 10079 O 950.558 1.34132 1.40436 0
M  V30 10080 C 947.688 2.68217 2.20629 0
M  V30 10081 C 946.642 3.81134 1.94734 0
M  V30 10082 C 945.968 4.21636 3.28828 0
M  V30 10083 C 947.268 5.06531 1.27374 0
M  V30 10084 H 948.962 2.95886 0.457348 0
M  V30 10085 H 946.508 1.42332 0.218544 0
M  V30 10086 H 948.461 3.06502 2.89196 0
M  V30 10087 H 947.185 1.83722 2.70026 0
M  V30 10088 H 945.844 3.43312 1.28579 0
M  V30 10089 H 945.492 3.34099 3.76014 0
M  V30 10090 H 945.192 4.97736 3.12302 0
M  V30 10091 H 946.716 4.62516 3.98637 0
M  V30 10092 H 948.13 5.423 1.85967 0
M  V30 10093 H 946.527 5.87735 1.21194 0
M  V30 10094 H 947.597 4.84261 0.248913 0
M  V30 10095 N 948.94 -0.228186 1.55939 0
M  V30 10096 C 949.903 -1.26621 1.91049 0
M  V30 10097 C 950.903 -1.40141 0.788491 0
M  V30 10098 O 952.093 -1.3852 1.05631 0
M  V30 10099 C 949.225 -2.64108 2.15545 0
M  V30 10100 H 950.418 -0.966978 2.83883 0
M  V30 10101 H 947.971 -0.468313 1.49119 0
M  V30 10102 H 948.706 -2.99141 1.25241 0
M  V30 10103 H 948.491 -2.55673 2.97277 0
M  V30 10104 H 949.981 -3.39025 2.43827 0
M  V30 10105 N 950.418 -1.49637 -0.494624 0
M  V30 10106 C 951.366 -1.6727 -1.61627 0
M  V30 10107 C 952.36 -0.538587 -1.6061 0
M  V30 10108 O 953.566 -0.718411 -1.65042 0
M  V30 10109 H 949.941 -0.527557 -0.535899 0
M  V30 10110 H 951.912 -2.61405 -1.43909 0
M  V30 10111 C 950.661 -1.7624 -2.99725 0
M  V30 10112 H 949.984 -2.62886 -3.01216 0
M  V30 10113 H 951.424 -1.92611 -3.77726 0
M  V30 10114 C 949.883 -0.508632 -3.33038 0
M  V30 10115 O 950.413 0.362828 -4.00058 0
M  V30 10116 N 948.619 -0.369667 -2.88239 0
M  V30 10117 H 948.166 -1.07984 -2.33875 0
M  V30 10118 H 948.124 0.468112 -3.10896 0
M  V30 10119 N 951.896 0.746133 -1.38819 0
M  V30 10120 C 953.145 1.50085 -1.34749 0
M  V30 10121 C 953.458 1.95516 0.0574786 0
M  V30 10122 O 954.664 2.70601 0.22073 0
M  V30 10123 C 953.12 2.71141 -2.36665 0
M  V30 10124 C 952.728 2.32706 -3.82821 0
M  V30 10125 C 954.472 3.49005 -2.41652 0
M  V30 10126 C 952.379 3.50418 -4.76405 0
M  V30 10127 H 951.309 0.563563 -0.500912 0
M  V30 10128 H 953.96 0.814951 -1.6441 0
M  V30 10129 H 952.342 3.4175 -2.00058 0
M  V30 10130 H 953.516 1.69715 -4.28408 0
M  V30 10131 H 951.831 1.67959 -3.81023 0
M  V30 10132 H 954.428 4.36541 -3.08766 0
M  V30 10133 H 954.771 3.90687 -1.43769 0
M  V30 10134 H 955.304 2.85416 -2.77097 0
M  V30 10135 H 952.043 3.13795 -5.75511 0
M  V30 10136 H 951.563 4.12426 -4.35505 0
M  V30 10137 H 953.242 4.16901 -4.94775 0
M  V30 10138 N 953.375 1.23811 0.975125 0
M  V30 10139 C 954.323 1.02149 2.0897 0
M  V30 10140 C 955.317 -0.0412172 1.6935 0
M  V30 10141 O 956.523 0.112726 1.79647 0
M  V30 10142 H 952.898 0.313259 0.683647 0
M  V30 10143 H 954.869 1.96686 2.24404 0
M  V30 10144 C 953.618 0.635023 3.41852 0
M  V30 10145 H 952.941 1.44449 3.72793 0
M  V30 10146 H 954.381 0.52301 4.20762 0
M  V30 10147 C 952.84 -0.657207 3.30428 0
M  V30 10148 O 953.37 -1.70494 3.63723 0
M  V30 10149 N 951.576 -0.635122 2.83575 0
M  V30 10150 H 951.123 0.21784 2.56677 0
M  V30 10151 H 951.081 -1.49995 2.76313 0
M  V30 10152 N 954.853 -1.17469 1.05066 0
M  V30 10153 C 956.1 -1.87698 0.759987 0
M  V30 10154 C 956.428 -1.80964 -0.712902 0
M  V30 10155 O 955.683 -1.21146 -1.53695 0
M  V30 10156 C 955.982 -3.37211 1.18421 0
M  V30 10157 C 955.648 -3.64148 2.65909 0
M  V30 10158 C 954.31 -3.71209 3.06199 0
M  V30 10159 C 956.662 -3.75724 3.61222 0
M  V30 10160 C 953.99 -3.87334 4.40669 0
M  V30 10161 C 956.342 -3.93368 4.95424 0
M  V30 10162 C 955.006 -3.98667 5.3537 0
M  V30 10163 H 954.276 -0.686835 0.278099 0
M  V30 10164 H 956.923 -1.38975 1.31751 0
M  V30 10165 H 955.228 -3.87982 0.545654 0
M  V30 10166 H 956.925 -3.89911 0.936518 0
M  V30 10167 H 953.515 -3.59276 2.33707 0
M  V30 10168 H 957.699 -3.69591 3.31235 0
M  V30 10169 H 952.955 -3.89685 4.71122 0
M  V30 10170 H 957.129 -4.01267 5.69173 0
M  V30 10171 H 954.756 -4.10915 6.39572 0
M  V30 10172 N 956.331 -0.831506 -1.3388 0
M  V30 10173 C 957.747 -0.518349 -1.50948 0
M  V30 10174 C 957.947 0.955807 -1.77388 0
M  V30 10175 O 957.003 1.73993 -1.82983 0
M  V30 10176 C 958.316 -1.38531 -2.66889 0
M  V30 10177 C 959.864 -1.38332 -2.80772 0
M  V30 10178 C 960.339 -2.23497 -3.99766 0
M  V30 10179 N 961.83 -2.21167 -4.06988 0
M  V30 10180 C 962.565 -2.83805 -4.98239 0
M  V30 10181 N 962.061 -3.55468 -5.94655 0
M  V30 10182 N 963.854 -2.73314 -4.91178 0
M  V30 10183 H 956.005 -1.78588 -1.14978 0
M  V30 10184 H 958.268 -0.761508 -0.564633 0
M  V30 10185 H 957.974 -2.43255 -2.54007 0
M  V30 10186 H 957.848 -1.05611 -3.62114 0
M  V30 10187 H 960.235 -0.343832 -2.9309 0
M  V30 10188 H 960.316 -1.75256 -1.86331 0
M  V30 10189 H 959.96 -3.27501 -3.88208 0
M  V30 10190 H 959.89 -1.83919 -4.93438 0
M  V30 10191 H 962.381 -1.69046 -3.37982 0
M  V30 10192 H 962.694 -4.00487 -6.60931 0
M  V30 10193 H 961.039 -3.59575 -5.94753 0
M  V30 10194 H 964.23 -2.16897 -4.14817 0
M  V30 10195 H 964.403 -3.22416 -5.62096 0
M  V30 10196 N 957.809 1.4625 -0.587256 0
M  V30 10197 C 958.756 2.30354 0.143384 0
M  V30 10198 C 959.726 1.40891 0.879716 0
M  V30 10199 O 960.911 1.69837 0.869486 0
M  V30 10200 C 958.051 3.25441 1.14815 0
M  V30 10201 C 957.164 4.30004 0.414792 0
M  V30 10202 C 956.299 5.12214 1.40748 0
M  V30 10203 C 955.338 6.08523 0.660786 0
M  V30 10204 N 954.475 6.83585 1.60176 0
M  V30 10205 H 959.315 2.92304 -0.579866 0
M  V30 10206 H 956.852 1.44055 -0.29777 0
M  V30 10207 H 958.81 3.79018 1.7436 0
M  V30 10208 H 957.44 2.6529 1.83906 0
M  V30 10209 H 956.492 3.79248 -0.295787 0
M  V30 10210 H 957.804 4.98515 -0.168738 0
M  V30 10211 H 956.958 5.70091 2.0756 0
M  V30 10212 H 955.697 4.43675 2.02494 0
M  V30 10213 H 954.702 5.49796 -0.0210864 0
M  V30 10214 H 955.927 6.79083 0.0486551 0
M  V30 10215 H 953.873 6.17752 2.20724 0
M  V30 10216 H 953.79 7.48373 1.07115 0
M  V30 10217 H 955.058 7.46016 2.26009 0
M  V30 10218 N 959.287 0.325282 1.54207 0
M  V30 10219 C 960.517 -0.278285 2.04717 0
M  V30 10220 C 960.925 -1.46198 1.20095 0
M  V30 10221 O 960.268 -1.82319 0.224813 0
M  V30 10222 C 960.33 -0.774387 3.51061 0
M  V30 10223 C 959.994 0.287225 4.56096 0
M  V30 10224 C 960.991 1.12388 5.07607 0
M  V30 10225 C 958.676 0.435908 5.00405 0
M  V30 10226 C 960.67 2.09492 6.0199 0
M  V30 10227 C 958.357 1.41037 5.94602 0
M  V30 10228 C 959.355 2.23834 6.45281 0
M  V30 10229 O 959.043 3.19625 7.37628 0
M  V30 10230 H 958.775 -0.0608309 0.673257 0
M  V30 10231 H 961.329 0.470049 1.99949 0
M  V30 10232 H 959.559 -1.57366 3.53232 0
M  V30 10233 H 961.248 -1.29649 3.84637 0
M  V30 10234 H 962.014 1.02 4.74153 0
M  V30 10235 H 957.893 -0.198668 4.60572 0
M  V30 10236 H 961.437 2.74157 6.4147 0
M  V30 10237 H 957.334 1.51487 6.27473 0
M  V30 10238 H 958.102 3.14884 7.55507 0
M  V30 10239 N 960.765 -1.57509 0.0534917 0
M  V30 10240 C 962.181 -1.56696 -0.303067 0
M  V30 10241 C 962.381 -1.06135 -1.71282 0
M  V30 10242 O 961.437 -0.71899 -2.42047 0
M  V30 10243 C 962.75 -3.00421 -0.129418 0
M  V30 10244 C 964.298 -3.12358 -0.200346 0
M  V30 10245 C 964.773 -4.57967 -0.0551971 0
M  V30 10246 N 966.264 -4.63066 -0.111398 0
M  V30 10247 C 966.999 -5.73395 -0.0232344 0
M  V30 10248 N 966.495 -6.92701 0.11741 0
M  V30 10249 N 968.288 -5.62045 -0.078984 0
M  V30 10250 H 960.439 -1.88696 0.975064 0
M  V30 10251 H 962.702 -0.869072 0.378706 0
M  V30 10252 H 962.408 -3.41456 0.842653 0
M  V30 10253 H 962.282 -3.66563 -0.889476 0
M  V30 10254 H 964.669 -2.71221 -1.16289 0
M  V30 10255 H 964.75 -2.48891 0.590506 0
M  V30 10256 H 964.394 -4.9979 0.904034 0
M  V30 10257 H 964.324 -5.19443 -0.865223 0
M  V30 10258 H 966.815 -3.77263 -0.219256 0
M  V30 10259 H 967.128 -7.72597 0.177326 0
M  V30 10260 H 965.473 -6.94833 0.152526 0
M  V30 10261 H 968.664 -4.67725 -0.187434 0
M  V30 10262 H 968.837 -6.48 -0.00681731 0
M  V30 10263 N 962.243 0.219913 -1.56058 0
M  V30 10264 C 963.206 1.25606 -1.91718 0
M  V30 10265 C 964.206 1.39721 -0.795912 0
M  V30 10266 O 965.396 1.37958 -1.06364 0
M  V30 10267 C 962.528 2.62961 -2.16943 0
M  V30 10268 H 963.721 0.951909 -2.84392 0
M  V30 10269 H 961.274 0.460398 -1.49365 0
M  V30 10270 H 962.009 2.98472 -1.26826 0
M  V30 10271 H 961.794 2.54093 -2.98629 0
M  V30 10272 H 963.284 3.37727 -2.45622 0
M  V30 10273 N 963.721 1.49897 0.486681 0
M  V30 10274 C 965.132 1.53142 1.06792 0
M  V30 10275 C 965.483 0.325856 1.93475 0
M  V30 10276 O 964.608 -0.562893 2.08951 0
M  V30 10277 C 965.203 2.77514 1.94348 0
M  V30 10278 C 963.762 2.83491 2.47609 0
M  V30 10279 C 962.909 2.47239 1.2557 0
M  V30 10280 H 965.86 1.56387 0.269962 0
M  V30 10281 H 965.881 2.58487 2.79221 0
M  V30 10282 H 965.393 3.65239 1.31232 0
M  V30 10283 H 963.494 2.0008 3.14323 0
M  V30 10284 H 963.607 3.86011 2.83782 0
M  V30 10285 H 961.971 1.99332 1.58552 0
M  V30 10286 H 962.754 3.37255 0.641404 0
M  V30 10287 N 965.199 -0.738761 1.39212 0
M  V30 10288 C 966.447 -1.49529 1.35962 0
M  V30 10289 C 966.768 -1.94948 -0.0450152 0
M  V30 10290 O 966.038 -1.68717 -0.995552 0
M  V30 10291 H 964.618 -0.554692 0.500326 0
M  V30 10292 H 967.28 -0.877255 1.74041 0
M  V30 10293 H 966.376 -2.37919 2.01993 0
M  V30 10294 N 966.677 -1.24326 -0.968545 0
M  V30 10295 C 967.923 -1.08406 -1.71394 0
M  V30 10296 C 968.256 0.376353 -1.90518 0
M  V30 10297 O 967.531 1.27816 -1.46606 0
M  V30 10298 C 967.814 -1.82344 -3.1052 0
M  V30 10299 C 967.667 -3.3613 -2.98893 0
M  V30 10300 C 968.986 -1.59545 -4.10163 0
M  V30 10301 H 966.105 -0.395205 -0.622079 0
M  V30 10302 H 968.747 -1.52983 -1.12677 0
M  V30 10303 H 966.897 -1.44452 -3.60646 0
M  V30 10304 H 968.569 -3.83614 -2.56199 0
M  V30 10305 H 966.812 -3.64553 -2.35124 0
M  V30 10306 H 967.483 -3.83064 -3.97449 0
M  V30 10307 H 969.959 -1.92504 -3.68892 0
M  V30 10308 H 968.835 -2.13736 -5.05577 0
M  V30 10309 H 969.096 -0.533503 -4.38869 0
M  V30 10310 N 968.156 1.1691 -1.05688 0
M  V30 10311 C 969.567 1.68915 -0.795273 0
M  V30 10312 C 969.918 1.83968 0.681925 0
M  V30 10313 O 969.043 1.53083 1.52953 0
M  V30 10314 C 969.638 3.06814 -1.43703 0
M  V30 10315 C 968.197 3.55965 -1.22335 0
M  V30 10316 C 967.344 2.32099 -1.51741 0
M  V30 10317 H 970.295 1.01357 -1.22116 0
M  V30 10318 H 970.316 3.70907 -0.849016 0
M  V30 10319 H 969.828 2.95826 -2.51214 0
M  V30 10320 H 967.929 3.72222 -0.16771 0
M  V30 10321 H 968.042 4.38427 -1.9318 0
M  V30 10322 H 966.406 2.36811 -0.937696 0
M  V30 10323 H 967.189 2.23715 -2.60397 0
M  V30 10324 N 969.634 0.838594 1.33437 0
M  V30 10325 C 971.05 0.526347 1.50671 0
M  V30 10326 C 971.25 -0.946387 1.77893 0
M  V30 10327 O 970.306 -1.7302 1.83903 0
M  V30 10328 C 971.619 1.39945 2.6615 0
M  V30 10329 C 973.167 1.3982 2.80035 0
M  V30 10330 C 973.642 2.25614 3.98576 0
M  V30 10331 N 975.133 2.23322 4.0581 0
M  V30 10332 C 975.868 2.86443 4.96727 0
M  V30 10333 N 975.364 3.58616 5.92762 0
M  V30 10334 N 977.157 2.75915 4.89722 0
M  V30 10335 H 969.308 1.79195 1.1403 0
M  V30 10336 H 971.571 0.764491 0.560586 0
M  V30 10337 H 971.277 2.44599 2.52714 0
M  V30 10338 H 971.151 1.07529 3.61548 0
M  V30 10339 H 973.538 0.35937 2.92904 0
M  V30 10340 H 973.619 1.76241 1.85399 0
M  V30 10341 H 973.263 3.29555 3.86466 0
M  V30 10342 H 973.193 1.86533 4.92456 0
M  V30 10343 H 975.684 1.70836 3.37081 0
M  V30 10344 H 975.997 4.03987 6.58798 0
M  V30 10345 H 974.342 3.62724 5.92838 0
M  V30 10346 H 977.533 2.19094 4.13661 0
M  V30 10347 H 977.706 3.25393 5.60378 0
M  V30 10348 N 971.112 -1.45937 0.595003 0
M  V30 10349 C 972.022 -2.34221 -0.133325 0
M  V30 10350 C 973.038 -1.50491 -0.873407 0
M  V30 10351 O 974.214 -1.83328 -0.833828 0
M  V30 10352 C 971.279 -3.27896 -1.12628 0
M  V30 10353 C 970.34 -4.27529 -0.389532 0
M  V30 10354 C 969.573 -5.16729 -1.33519 0
M  V30 10355 O 969.796 -5.09102 -2.57238 0
M  V30 10356 O 968.73 -5.96023 -0.839084 0
M  V30 10357 H 972.556 -2.97877 0.591861 0
M  V30 10358 H 970.141 -1.45113 0.355329 0
M  V30 10359 H 972.023 -3.85654 -1.69851 0
M  V30 10360 H 970.698 -2.6682 -1.83272 0
M  V30 10361 H 969.605 -3.73424 0.224843 0
M  V30 10362 H 970.938 -4.91425 0.276169 0
M  V30 10363 N 972.59 -0.333456 -1.54032 0
M  V30 10364 C 973.818 0.267813 -2.05159 0
M  V30 10365 C 974.233 1.4501 -1.20903 0
M  V30 10366 O 973.59 1.80888 -0.241994 0
M  V30 10367 C 973.641 0.69268 -3.54802 0
M  V30 10368 O 973.362 -0.442579 -4.35859 0
M  V30 10369 C 974.863 1.35572 -4.2206 0
M  V30 10370 H 972.083 0.0534924 -0.668864 0
M  V30 10371 H 974.627 -0.482515 -1.98726 0
M  V30 10372 H 972.782 1.39297 -3.6149 0
M  V30 10373 H 973.196 -0.105915 -5.24393 0
M  V30 10374 H 974.67 1.60385 -5.28186 0
M  V30 10375 H 975.147 2.30614 -3.73783 0
M  V30 10376 H 975.753 0.697748 -4.19537 0
M  V30 10377 N 974.068 1.57479 -0.061844 0
M  V30 10378 C 974.978 2.15645 0.923826 0
M  V30 10379 C 975.994 1.117 1.33413 0
M  V30 10380 O 977.17 1.4392 1.40887 0
M  V30 10381 C 974.235 2.69857 2.17665 0
M  V30 10382 C 973.296 3.88638 1.8237 0
M  V30 10383 C 972.529 4.40256 3.01679 0
M  V30 10384 O 972.752 3.90908 4.15388 0
M  V30 10385 O 971.686 5.31713 2.82073 0
M  V30 10386 H 975.512 3.0021 0.459094 0
M  V30 10387 H 973.097 1.48534 0.160665 0
M  V30 10388 H 974.979 3.04647 2.9115 0
M  V30 10389 H 973.654 1.88357 2.63255 0
M  V30 10390 H 972.561 3.58719 1.06167 0
M  V30 10391 H 973.894 4.71401 1.4157 0
M  V30 10392 N 975.546 -0.211634 1.56173 0
M  V30 10393 C 976.456 -1.2831 1.96402 0
M  V30 10394 C 977.472 -1.50731 0.869254 0
M  V30 10395 O 978.648 -1.63669 1.17365 0
M  V30 10396 C 975.713 -2.61084 2.28114 0
M  V30 10397 C 974.774 -2.46879 3.51211 0
M  V30 10398 C 974.007 -3.73321 3.81401 0
M  V30 10399 O 974.23 -4.76773 3.13119 0
M  V30 10400 O 973.164 -3.69839 4.74871 0
M  V30 10401 H 976.99 -0.971733 2.87734 0
M  V30 10402 H 974.575 -0.415305 1.43512 0
M  V30 10403 H 976.457 -3.39481 2.49661 0
M  V30 10404 H 975.132 -2.91881 1.39954 0
M  V30 10405 H 974.039 -1.66648 3.34932 0
M  V30 10406 H 975.372 -2.21018 4.39786 0
M  V30 10407 N 977.024 -1.50153 -0.478725 0
M  V30 10408 C 977.934 -1.71232 -1.60364 0
M  V30 10409 C 978.95 -0.595269 -1.63501 0
M  V30 10410 O 980.126 -0.872683 -1.81511 0
M  V30 10411 C 977.191 -1.79487 -2.96623 0
M  V30 10412 C 976.252 -3.03185 -3.03937 0
M  V30 10413 C 975.485 -3.11036 -4.33696 0
M  V30 10414 O 975.708 -2.2588 -5.23769 0
M  V30 10415 O 974.642 -4.03698 -4.46443 0
M  V30 10416 H 978.468 -2.66575 -1.45505 0
M  V30 10417 H 976.053 -1.34158 -0.65741 0
M  V30 10418 H 977.935 -1.8714 -3.77567 0
M  V30 10419 H 976.61 -0.873264 -3.11698 0
M  V30 10420 H 975.517 -3.01036 -2.22099 0
M  V30 10421 H 976.85 -3.94898 -2.93796 0
M  V30 10422 N 978.502 0.731368 -1.39602 0
M  V30 10423 C 979.449 1.84541 -1.38612 0
M  V30 10424 C 980.419 1.64279 -0.245287 0
M  V30 10425 O 981.604 1.85635 -0.440954 0
M  V30 10426 C 978.744 3.22092 -1.23897 0
M  V30 10427 C 977.857 3.54034 -2.47555 0
M  V30 10428 C 976.992 4.81007 -2.25402 0
M  V30 10429 C 976.031 5.05804 -3.44716 0
M  V30 10430 N 975.168 6.23981 -3.21857 0
M  V30 10431 H 980.008 1.84722 -2.33841 0
M  V30 10432 H 977.545 0.902569 -1.16156 0
M  V30 10433 H 979.503 4.01499 -1.13376 0
M  V30 10434 H 978.133 3.2118 -0.322958 0
M  V30 10435 H 977.185 2.69301 -2.68665 0
M  V30 10436 H 978.497 3.68275 -3.36415 0
M  V30 10437 H 977.651 5.68401 -2.12143 0
M  V30 10438 H 976.39 4.68946 -1.33943 0
M  V30 10439 H 975.395 4.1687 -3.58468 0
M  V30 10440 H 976.62 5.19747 -4.37081 0
M  V30 10441 H 974.566 6.13202 -2.33065 0
M  V30 10442 H 974.483 6.38826 -4.04274 0
M  V30 10443 H 975.751 7.14205 -3.123 0
M  V30 10444 N 979.98 1.24838 0.961938 0
M  V30 10445 C 980.89 1.06304 2.09133 0
M  V30 10446 C 981.906 0.00221475 1.74 0
M  V30 10447 O 983.082 0.201611 2.00388 0
M  V30 10448 C 980.147 0.676117 3.40043 0
M  V30 10449 C 979.208 1.81407 3.89089 0
M  V30 10450 C 978.441 1.44551 5.13752 0
M  V30 10451 O 978.664 0.337894 5.69398 0
M  V30 10452 O 977.598 2.27316 5.57325 0
M  V30 10453 H 981.424 2.01001 2.27667 0
M  V30 10454 H 979.009 1.0371 1.07539 0
M  V30 10455 H 980.891 0.472124 4.18747 0
M  V30 10456 H 979.566 -0.241667 3.22797 0
M  V30 10457 H 978.473 2.07286 3.11421 0
M  V30 10458 H 979.806 2.71083 4.10822 0
M  V30 10459 N 981.458 -1.16348 1.06306 0
M  V30 10460 C 982.707 -1.8622 0.774909 0
M  V30 10461 C 983.02 -1.82598 -0.701245 0
M  V30 10462 O 984.226 -2.48051 -1.10377 0
M  V30 10463 C 982.682 -3.34182 1.33604 0
M  V30 10464 C 982.29 -3.46279 2.84245 0
M  V30 10465 C 984.034 -4.09309 1.12544 0
M  V30 10466 C 981.941 -4.88327 3.33602 0
M  V30 10467 H 980.871 -0.697574 0.286194 0
M  V30 10468 H 983.522 -1.31311 1.28179 0
M  V30 10469 H 981.904 -3.88698 0.756937 0
M  V30 10470 H 983.078 -3.01923 3.48108 0
M  V30 10471 H 981.393 -2.84585 3.03974 0
M  V30 10472 H 983.99 -5.14123 1.46909 0
M  V30 10473 H 984.333 -4.16251 0.0638129 0
M  V30 10474 H 984.866 -3.61032 1.67034 0
M  V30 10475 H 981.605 -4.86565 4.39244 0
M  V30 10476 H 981.125 -5.33307 2.74487 0
M  V30 10477 H 982.804 -5.57144 3.28937 0
M  V30 10478 N 982.937 -0.845659 -1.3299 0
M  V30 10479 C 983.9 -0.288905 -2.27372 0
M  V30 10480 C 984.9 0.546263 -1.51237 0
M  V30 10481 O 986.09 0.359072 -1.70459 0
M  V30 10482 C 983.222 0.59224 -3.35716 0
M  V30 10483 H 984.415 -1.12181 -2.78128 0
M  V30 10484 H 981.968 -0.619276 -1.43508 0
M  V30 10485 H 982.703 1.44732 -2.90212 0
M  V30 10486 H 982.488 -0.00543255 -3.921 0
M  V30 10487 H 983.978 0.974848 -4.06062 0
M  V30 10488 N 984.415 1.45619 -0.602734 0
M  V30 10489 C 985.692 1.9558 -0.0282472 0
M  V30 10490 C 986.072 1.54523 1.43826 0
M  V30 10491 O 985.42 0.805456 2.13833 0
M  V30 10492 C 985.63 3.48298 -0.221263 0
M  V30 10493 C 986.978 4.24483 -0.0995249 0
M  V30 10494 O 988.002 3.55879 -0.151132 0
M  V30 10495 O 986.861 5.46497 0.0194454 0
M  V30 10496 H 983.955 0.826104 0.0384897 0
M  V30 10497 H 986.501 1.55808 -0.672456 0
M  V30 10498 H 985.273 3.71134 -1.23997 0
M  V30 10499 H 984.896 3.94948 0.458437 0
M  V30 10500 N 985.893 0.34162 1.53853 0
M  V30 10501 C 987.14 -0.255484 2.00882 0
M  V30 10502 C 987.468 -1.50711 1.22949 0
M  V30 10503 O 986.723 -1.93315 0.304625 0
M  V30 10504 C 987.022 -0.616989 3.52034 0
M  V30 10505 C 986.688 0.537536 4.47684 0
M  V30 10506 C 985.35 0.854379 4.73554 0
M  V30 10507 C 987.702 1.31217 5.04412 0
M  V30 10508 C 985.03 1.94826 5.53407 0
M  V30 10509 C 987.382 2.39628 5.85458 0
M  V30 10510 C 986.046 2.71874 6.09623 0
M  V30 10511 H 985.316 -0.0934881 0.735079 0
M  V30 10512 H 987.963 0.469135 1.85665 0
M  V30 10513 H 986.268 -1.42229 3.65073 0
M  V30 10514 H 987.965 -1.09084 3.85878 0
M  V30 10515 H 984.555 0.280524 4.27681 0
M  V30 10516 H 988.739 1.08064 4.84392 0
M  V30 10517 H 983.995 2.20235 5.70356 0
M  V30 10518 H 988.169 3.00084 6.28429 0
M  V30 10519 H 985.796 3.56762 6.71286 0
M  V30 10520 N 987.371 -1.57444 0.0701946 0
M  V30 10521 C 988.648 -1.84826 -0.6402 0
M  V30 10522 C 989.028 -0.962344 -1.87889 0
M  V30 10523 O 988.376 -0.0282209 -2.28483 0
M  V30 10524 C 988.586 -3.34976 -0.979382 0
M  V30 10525 C 989.934 -4.02448 -1.35355 0
M  V30 10526 O 990.958 -3.39713 -1.07116 0
M  V30 10527 O 989.817 -5.13096 -1.88136 0
M  V30 10528 H 986.911 -0.763494 -0.317813 0
M  V30 10529 H 989.457 -1.69399 0.101004 0
M  V30 10530 H 988.229 -3.91173 -0.0995576 0
M  V30 10531 H 987.852 -3.5566 -1.7774 0
M  V30 10532 N 988.849 0.203349 -1.56283 0
M  V30 10533 C 990.098 0.92315 -1.79334 0
M  V30 10534 C 990.411 1.84765 -0.641977 0
M  V30 10535 O 991.617 2.60745 -0.756584 0
M  V30 10536 C 990.073 1.69184 -3.17655 0
M  V30 10537 C 989.681 0.812581 -4.40569 0
M  V30 10538 C 991.425 2.40177 -3.50022 0
M  V30 10539 C 989.332 1.57967 -5.69913 0
M  V30 10540 H 988.262 0.348442 -0.668659 0
M  V30 10541 H 990.913 0.1766 -1.82648 0
M  V30 10542 H 989.295 2.48197 -3.08568 0
M  V30 10543 H 990.469 0.0616956 -4.60759 0
M  V30 10544 H 988.784 0.21389 -4.1585 0
M  V30 10545 H 991.381 2.98103 -4.4389 0
M  V30 10546 H 991.724 3.13961 -2.73376 0
M  V30 10547 H 992.257 1.68138 -3.6052 0
M  V30 10548 H 988.996 0.884767 -6.49501 0
M  V30 10549 H 988.516 2.3047 -5.53754 0
M  V30 10550 H 990.195 2.13562 -6.10737 0
M  V30 10551 N 990.327 1.50405 0.470755 0
M  V30 10552 C 991.574 1.61411 1.22281 0
M  V30 10553 C 991.902 0.314603 1.91939 0
M  V30 10554 O 991.157 -0.699531 1.82771 0
M  V30 10555 C 991.456 2.74426 2.28965 0
M  V30 10556 C 991.122 4.14896 1.76557 0
M  V30 10557 C 989.784 4.53116 1.61985 0
M  V30 10558 C 992.136 5.02686 1.3768 0
M  V30 10559 C 989.464 5.76868 1.0696 0
M  V30 10560 C 991.816 6.26985 0.840967 0
M  V30 10561 C 990.48 6.64008 0.68188 0
M  V30 10562 H 989.75 0.590645 0.447459 0
M  V30 10563 H 992.397 1.84339 0.518783 0
M  V30 10564 H 990.702 2.45588 3.05277 0
M  V30 10565 H 992.399 2.80146 2.86914 0
M  V30 10566 H 988.989 3.84743 1.88867 0
M  V30 10567 H 993.173 4.7379 1.47772 0
M  V30 10568 H 988.429 6.04227 0.933808 0
M  V30 10569 H 992.603 6.94372 0.531066 0
M  V30 10570 H 990.23 7.59778 0.25335 0
M  V30 10571 N 991.805 -0.723954 1.39988 0
M  V30 10572 C 993.082 -1.4763 1.28316 0
M  V30 10573 C 993.462 -2.10852 -0.102302 0
M  V30 10574 O 992.81 -1.9948 -1.11445 0
M  V30 10575 C 993.02 -2.51878 2.41574 0
M  V30 10576 C 994.368 -3.17948 2.81415 0
M  V30 10577 O 995.392 -2.62195 2.41106 0
M  V30 10578 O 994.251 -4.18858 3.51027 0
M  V30 10579 H 991.345 -0.656092 0.50346 0
M  V30 10580 H 993.891 -0.75684 1.51888 0
M  V30 10581 H 992.663 -2.03618 3.34149 0
M  V30 10582 H 992.286 -3.3137 2.19727 0
M  V30 10583 N 993.283 -1.25346 -0.955304 0
M  V30 10584 C 994.56 -1.00829 -1.67609 0
M  V30 10585 C 994.94 0.465675 -2.059 0
M  V30 10586 O 994.288 1.44287 -1.77182 0
M  V30 10587 C 994.498 -1.94337 -2.89886 0
M  V30 10588 C 995.846 -2.22142 -3.61854 0
M  V30 10589 O 996.87 -1.9209 -2.99967 0
M  V30 10590 O 995.729 -2.73239 -4.73289 0
M  V30 10591 H 992.823 -0.382314 -0.733325 0
M  V30 10592 H 995.369 -1.36498 -1.00829 0
M  V30 10593 H 994.141 -2.93867 -2.58376 0
M  V30 10594 H 993.764 -1.59062 -3.64397 0
M  V30 10595 N 994.761 1.15782 -1.06922 0
M  V30 10596 C 996.172 1.68062 -0.813144 0
M  V30 10597 C 996.523 1.84681 0.662374 0
M  V30 10598 O 995.648 1.54696 1.51321 0
M  V30 10599 C 996.243 3.05273 -1.46949 0
M  V30 10600 C 994.802 3.54647 -1.26104 0
M  V30 10601 C 993.949 2.30477 -1.54194 0
M  V30 10602 H 996.9 1.00056 -1.23185 0
M  V30 10603 H 996.921 3.69986 -0.888308 0
M  V30 10604 H 996.433 2.93145 -2.54337 0
M  V30 10605 H 994.534 3.72024 -0.20718 0
M  V30 10606 H 994.647 4.36354 -1.97819 0
M  V30 10607 H 993.011 2.35803 -0.96276 0
M  V30 10608 H 993.794 2.2094 -2.62755 0
M  V30 10609 N 996.239 0.8527 1.3254 0
M  V30 10610 C 997.149 0.298744 2.3269 0
M  V30 10611 C 998.165 -0.582418 1.63963 0
M  V30 10612 O 999.341 -0.483253 1.95516 0
M  V30 10613 C 996.406 -0.505453 3.42996 0
M  V30 10614 C 995.467 0.401618 4.27417 0
M  V30 10615 C 994.7 -0.364294 5.32455 0
M  V30 10616 O 994.923 -1.59448 5.47661 0
M  V30 10617 O 993.857 0.268892 6.01299 0
M  V30 10618 H 997.683 1.12843 2.81958 0
M  V30 10619 H 995.268 0.615584 1.36128 0
M  V30 10620 H 997.15 -0.961974 4.10273 0
M  V30 10621 H 995.825 -1.31197 2.95921 0
M  V30 10622 H 994.732 0.906274 3.62957 0
M  V30 10623 H 996.065 1.17327 4.78012 0
M  V30 10624 N 997.718 -1.45297 0.610449 0
M  V30 10625 C 998.943 -2.07101 0.111414 0
M  V30 10626 C 999.368 -1.45161 -1.19625 0
M  V30 10627 O 998.726 -0.545368 -1.72903 0
M  V30 10628 C 998.774 -3.60598 -0.0117372 0
M  V30 10629 O 997.878 -3.98512 -1.06122 0
M  V30 10630 H 997.219 -0.659709 0.075364 0
M  V30 10631 H 999.749 -1.86504 0.841269 0
M  V30 10632 H 999.759 -4.07464 -0.209028 0
M  V30 10633 H 998.434 -4.05067 0.943076 0
M  V30 10634 H 997.011 -3.63312 -0.840158 0
M  V30 10635 N 999.196 -0.349774 -1.5367 0
M  V30 10636 C 1000.61 0.132815 -1.86227 0
M  V30 10637 C 1000.96 1.49479 -1.27084 0
M  V30 10638 O 1000.08 2.08292 -0.58679 0
M  V30 10639 C 1000.68 0.247775 -3.37893 0
M  V30 10640 C 999.237 0.674603 -3.70305 0
M  V30 10641 C 998.384 -0.187869 -2.76663 0
M  V30 10642 H 1001.33 -0.569148 -1.48143 0
M  V30 10643 H 1001.36 1.07418 -3.65023 0
M  V30 10644 H 1000.87 -0.743635 -3.80909 0
M  V30 10645 H 998.969 1.67481 -3.32837 0
M  V30 10646 H 999.082 0.460177 -4.76885 0
M  V30 10647 H 997.446 0.340779 -2.5241 0
M  V30 10648 H 998.229 -1.17653 -3.2251 0
M  V30 10649 N 1000.67 1.57404 -0.0785433 0
M  V30 10650 C 1001.92 1.93744 0.589024 0
M  V30 10651 C 1002.25 0.959087 1.69209 0
M  V30 10652 O 1001.5 -0.0241604 1.95685 0
M  V30 10653 C 1001.8 3.36684 1.1991 0
M  V30 10654 C 1001.47 4.50356 0.221493 0
M  V30 10655 C 1000.13 4.81177 -0.0474347 0
M  V30 10656 C 1002.48 5.1928 -0.446941 0
M  V30 10657 C 999.811 5.78257 -0.99177 0
M  V30 10658 C 1002.16 6.17372 -1.37964 0
M  V30 10659 C 1000.83 6.46607 -1.65697 0
M  V30 10660 H 1000.1 0.70896 0.215539 0
M  V30 10661 H 1002.74 1.90905 -0.150856 0
M  V30 10662 H 1001.05 3.36022 2.01486 0
M  V30 10663 H 1002.75 3.62095 1.72303 0
M  V30 10664 H 999.336 4.26322 0.441284 0
M  V30 10665 H 1003.52 4.95658 -0.252298 0
M  V30 10666 H 998.776 5.9923 -1.21381 0
M  V30 10667 H 1002.95 6.6988 -1.9035 0
M  V30 10668 H 1000.58 7.21643 -2.39031 0
M  V30 10669 N 1002.15 -0.195058 1.56388 0
M  V30 10670 C 1003.38 -0.935745 1.85091 0
M  V30 10671 C 1003.8 -1.76061 0.662118 0
M  V30 10672 O 1003.16 -1.77076 -0.389083 0
M  V30 10673 C 1003.21 -1.80764 3.1202 0
M  V30 10674 O 1002.31 -2.90643 2.92575 0
M  V30 10675 H 1001.65 -0.26351 0.609474 0
M  V30 10676 H 1004.18 -0.200362 2.03617 0
M  V30 10677 H 1004.19 -2.21229 3.42815 0
M  V30 10678 H 1002.87 -1.20157 3.98165 0
M  V30 10679 H 1001.44 -2.53934 2.73079 0
M  V30 10680 N 1003.63 -1.50653 -0.462772 0
M  V30 10681 C 1004.86 -1.65826 -1.23731 0
M  V30 10682 C 1005.27 -0.345002 -1.85621 0
M  V30 10683 O 1004.63 0.673935 -1.69601 0
M  V30 10684 C 1004.68 -2.7555 -2.33997 0
M  V30 10685 O 1004.4 -4.01785 -1.74643 0
M  V30 10686 C 1005.9 -3.0177 -3.2473 0
M  V30 10687 H 1003.12 -0.557177 -0.373892 0
M  V30 10688 H 1005.67 -1.96925 -0.551434 0
M  V30 10689 H 1003.82 -2.47122 -2.98345 0
M  V30 10690 H 1004.24 -4.62529 -2.4732 0
M  V30 10691 H 1005.71 -3.82188 -3.98292 0
M  V30 10692 H 1006.19 -2.13167 -3.84001 0
M  V30 10693 H 1006.79 -3.31761 -2.66111 0
M  V30 10694 N 1005.11 0.71652 -1.4037 0
M  V30 10695 C 1006.36 1.47638 -1.38597 0
M  V30 10696 C 1006.68 1.94496 0.0120141 0
M  V30 10697 O 1005.94 1.68437 0.996373 0
M  V30 10698 C 1006.24 2.71777 -2.32103 0
M  V30 10699 C 1005.9 2.43689 -3.79376 0
M  V30 10700 C 1004.57 2.35739 -4.195 0
M  V30 10701 C 1006.92 2.20099 -4.72447 0
M  V30 10702 C 1004.25 2.02265 -5.50732 0
M  V30 10703 C 1006.6 1.88138 -6.03976 0
M  V30 10704 C 1005.26 1.78669 -6.43143 0
M  V30 10705 H 1004.53 0.540246 -0.507163 0
M  V30 10706 H 1007.18 0.820822 -1.73017 0
M  V30 10707 H 1005.48 3.42166 -1.90865 0
M  V30 10708 H 1007.18 3.29864 -2.28015 0
M  V30 10709 H 1003.77 2.50763 -3.47585 0
M  V30 10710 H 1007.95 2.25198 -4.42266 0
M  V30 10711 H 1003.21 1.93471 -5.79982 0
M  V30 10712 H 1007.38 1.68898 -6.75608 0
M  V30 10713 H 1005.01 1.52498 -7.44747 0
M  V30 10714 N 1006.59 1.25851 0.948643 0
M  V30 10715 C 1007.53 1.06559 2.06756 0
M  V30 10716 C 1008.53 -0.00528632 1.69399 0
M  V30 10717 O 1009.73 0.150806 1.79367 0
M  V30 10718 H 1006.11 0.327689 0.676848 0
M  V30 10719 H 1008.08 2.01401 2.20182 0
M  V30 10720 C 1006.83 0.707392 3.40428 0
M  V30 10721 H 1006.15 1.52324 3.69645 0
M  V30 10722 H 1007.59 0.612142 4.19558 0
M  V30 10723 C 1006.05 -0.58697 3.31747 0
M  V30 10724 O 1006.58 -1.62741 3.67258 0
M  V30 10725 N 1004.79 -0.574828 2.84858 0
M  V30 10726 H 1004.33 0.272236 2.56157 0
M  V30 10727 H 1004.29 -1.441 2.79432 0
M  V30 10728 N 1008.06 -1.15214 1.07534 0
M  V30 10729 C 1009.31 -1.86043 0.799629 0
M  V30 10730 C 1009.64 -1.82435 -0.674356 0
M  V30 10731 O 1008.89 -1.24379 -1.51091 0
M  V30 10732 C 1009.19 -3.34623 1.25547 0
M  V30 10733 C 1008.86 -3.58425 2.73573 0
M  V30 10734 C 1007.52 -3.6463 3.14004 0
M  V30 10735 C 1009.87 -3.67977 3.6911 0
M  V30 10736 C 1007.2 -3.779 4.48786 0
M  V30 10737 C 1009.55 -3.82771 5.03656 0
M  V30 10738 C 1008.22 -3.87222 5.43705 0
M  V30 10739 H 1007.49 -0.680781 0.292605 0
M  V30 10740 H 1010.13 -1.36149 1.34669 0
M  V30 10741 H 1008.44 -3.86737 0.627828 0
M  V30 10742 H 1010.14 -3.87836 1.01901 0
M  V30 10743 H 1006.73 -3.54238 2.41275 0
M  V30 10744 H 1010.91 -3.62482 3.39 0
M  V30 10745 H 1006.17 -3.79604 4.79281 0
M  V30 10746 H 1010.34 -3.89104 5.77556 0
M  V30 10747 H 1007.97 -3.97256 6.48145 0
M  V30 10748 N 1009.54 -0.859717 -1.32086 0
M  V30 10749 C 1010.47 -0.265258 -2.2766 0
M  V30 10750 C 1011.49 0.565889 -1.52648 0
M  V30 10751 O 1012.68 0.389554 -1.74197 0
M  V30 10752 C 1009.78 0.643397 -3.32737 0
M  V30 10753 C 1008.95 -0.153024 -4.37132 0
M  V30 10754 C 1008.01 0.682176 -5.21759 0
M  V30 10755 O 1007.03 0.113878 -5.69086 0
M  V30 10756 N 1008.24 1.99602 -5.45105 0
M  V30 10757 H 1011 -1.08653 -2.79311 0
M  V30 10758 H 1008.56 -0.720191 -1.45 0
M  V30 10759 H 1010.55 1.20759 -3.86263 0
M  V30 10760 H 1009.12 1.36535 -2.81206 0
M  V30 10761 H 1008.34 -0.898657 -3.8382 0
M  V30 10762 H 1009.63 -0.699877 -5.03963 0
M  V30 10763 H 1009.03 2.481 -5.08393 0
M  V30 10764 H 1007.59 2.50823 -6.01607 0
M  V30 10765 N 1011.02 1.44971 -0.618145 0
M  V30 10766 C 1012.25 2.06228 -0.123985 0
M  V30 10767 C 1012.66 1.46166 1.20134 0
M  V30 10768 O 1012 0.574099 1.74499 0
M  V30 10769 C 1012.06 3.59413 0.0789098 0
M  V30 10770 C 1011.73 4.41869 -1.16624 0
M  V30 10771 C 1012.72 4.76177 -2.0869 0
M  V30 10772 C 1010.41 4.82453 -1.39802 0
M  V30 10773 C 1012.4 5.49938 -3.22254 0
M  V30 10774 C 1010.09 5.55965 -2.53665 0
M  V30 10775 C 1011.09 5.89626 -3.44718 0
M  V30 10776 O 1010.78 6.61644 -4.56598 0
M  V30 10777 H 1010.51 0.672274 -0.0708822 0
M  V30 10778 H 1013.06 1.87038 -0.848868 0
M  V30 10779 H 1011.29 3.77043 0.8588 0
M  V30 10780 H 1012.98 4.02478 0.52599 0
M  V30 10781 H 1013.75 4.45372 -1.92012 0
M  V30 10782 H 1009.63 4.55681 -0.698245 0
M  V30 10783 H 1013.17 5.76129 -3.93347 0
M  V30 10784 H 1009.07 5.86185 -2.70291 0
M  V30 10785 H 1009.84 6.80103 -4.55414 0
M  V30 10786 N 1012.5 0.357919 1.53482 0
M  V30 10787 C 1013.91 -0.122938 1.86295 0
M  V30 10788 C 1014.26 -1.48803 1.27875 0
M  V30 10789 O 1013.39 -2.07978 0.597828 0
M  V30 10790 C 1013.98 -0.229853 3.38019 0
M  V30 10791 C 1012.54 -0.654955 3.70658 0
M  V30 10792 C 1011.69 0.202539 2.76559 0
M  V30 10793 H 1014.64 0.576997 1.47839 0
M  V30 10794 H 1014.66 -1.05481 3.65587 0
M  V30 10795 H 1014.17 0.763825 3.80509 0
M  V30 10796 H 1012.27 -1.65714 3.33721 0
M  V30 10797 H 1012.38 -0.43488 4.77122 0
M  V30 10798 H 1010.75 -0.327388 2.52587 0
M  V30 10799 H 1011.53 1.19361 3.21882 0
M  V30 10800 N 1013.98 -1.5736 0.0868897 0
M  V30 10801 C 1014.92 -2.14793 -0.892571 0
M  V30 10802 C 1015.92 -1.08866 -1.29787 0
M  V30 10803 O 1017.12 -1.27223 -1.27335 0
M  V30 10804 H 1013.5 -0.686998 -0.305838 0
M  V30 10805 H 1015.47 -2.95927 -0.383393 0
M  V30 10806 C 1014.22 -2.73646 -2.14507 0
M  V30 10807 H 1013.54 -3.54835 -1.84207 0
M  V30 10808 H 1014.98 -3.17409 -2.81118 0
M  V30 10809 C 1013.44 -1.69138 -2.91366 0
M  V30 10810 O 1013.97 -1.12539 -3.85614 0
M  V30 10811 N 1012.18 -1.3982 -2.54752 0
M  V30 10812 H 1011.72 -1.86035 -1.78182 0
M  V30 10813 H 1011.68 -0.701316 -3.06478 0
M  V30 10814 N 1015.45 0.186762 -1.56489 0
M  V30 10815 C 1016.39 1.25565 -1.91745 0
M  V30 10816 C 1017.4 1.4128 -0.80894 0
M  V30 10817 O 1018.59 1.41558 -1.08737 0
M  V30 10818 C 1015.69 2.62662 -2.14154 0
M  V30 10819 C 1014.86 2.68448 -3.45333 0
M  V30 10820 C 1013.92 3.86798 -3.56754 0
M  V30 10821 O 1012.95 3.73514 -4.29507 0
M  V30 10822 N 1014.15 5.02607 -2.90459 0
M  V30 10823 H 1016.91 0.956351 -2.84032 0
M  V30 10824 H 1014.47 0.376631 -1.57458 0
M  V30 10825 H 1016.47 3.40277 -2.19075 0
M  V30 10826 H 1015.04 2.85046 -1.28326 0
M  V30 10827 H 1014.26 1.77044 -3.52206 0
M  V30 10828 H 1015.54 2.69311 -4.31682 0
M  V30 10829 H 1014.94 5.163 -2.31194 0
M  V30 10830 H 1013.5 5.78139 -3.00996 0
M  V30 10831 N 1016.93 1.50896 0.454776 0
M  V30 10832 C 1017.9 1.70377 1.53312 0
M  V30 10833 C 1018.9 0.57408 1.50203 0
M  V30 10834 O 1020.09 0.841374 1.52534 0
M  V30 10835 C 1017.22 1.74411 2.92905 0
M  V30 10836 H 1018.41 2.66599 1.37349 0
M  V30 10837 H 1015.96 1.40622 0.68228 0
M  V30 10838 H 1016.7 0.799408 3.14293 0
M  V30 10839 H 1016.48 2.56496 2.96568 0
M  V30 10840 H 1017.97 1.91382 3.71164 0
M  V30 10841 N 1018.41 -0.709066 1.40748 0
M  V30 10842 C 1019.66 -1.46901 1.39378 0
M  V30 10843 C 1019.99 -1.945 -0.0016993 0
M  V30 10844 O 1019.24 -1.68963 -0.987426 0
M  V30 10845 C 1019.54 -2.70543 2.33541 0
M  V30 10846 C 1019.21 -2.41674 3.80663 0
M  V30 10847 C 1017.87 -2.33511 4.20745 0
M  V30 10848 C 1020.22 -2.1759 4.73607 0
M  V30 10849 C 1017.55 -1.99342 5.51797 0
M  V30 10850 C 1019.9 -1.84933 6.04965 0
M  V30 10851 C 1018.56 -1.75256 6.44082 0
M  V30 10852 H 1017.83 -0.537549 0.510021 0
M  V30 10853 H 1020.48 -0.811635 1.7345 0
M  V30 10854 H 1018.79 -3.41149 1.92677 0
M  V30 10855 H 1020.48 -3.2865 2.29761 0
M  V30 10856 H 1017.07 -2.48917 3.4891 0
M  V30 10857 H 1021.26 -2.22849 4.43454 0
M  V30 10858 H 1016.51 -1.90392 5.81 0
M  V30 10859 H 1020.69 -1.65313 6.76494 0
M  V30 10860 H 1018.31 -1.48547 7.45545 0
M  V30 10861 N 1019.89 -1.26353 -0.941956 0
M  V30 10862 C 1020.84 -1.07842 -2.04056 0
M  V30 10863 C 1021.81 0.0163064 -1.66092 0
M  V30 10864 O 1022.99 -0.143313 -1.90261 0
M  V30 10865 C 1020.13 -0.716636 -3.37577 0
M  V30 10866 C 1019.24 -1.88754 -3.88582 0
M  V30 10867 C 1018.38 -1.46893 -5.10486 0
M  V30 10868 C 1017.42 -2.60819 -5.53751 0
M  V30 10869 N 1016.56 -2.19646 -6.66858 0
M  V30 10870 H 1021.4 -2.01856 -2.19221 0
M  V30 10871 H 1018.93 -1.00504 -1.07412 0
M  V30 10872 H 1020.89 -0.487768 -4.14339 0
M  V30 10873 H 1019.52 0.18653 -3.22261 0
M  V30 10874 H 1018.57 -2.22936 -3.08227 0
M  V30 10875 H 1019.88 -2.74264 -4.1663 0
M  V30 10876 H 1019.04 -1.20047 -5.94705 0
M  V30 10877 H 1017.78 -0.584721 -4.84182 0
M  V30 10878 H 1016.78 -2.88396 -4.6809 0
M  V30 10879 H 1018.01 -3.49838 -5.82057 0
M  V30 10880 H 1015.95 -1.33657 -6.4224 0
M  V30 10881 H 1015.87 -2.987 -6.94489 0
M  V30 10882 H 1017.14 -1.96009 -7.54454 0
M  V30 10883 N 1021.37 1.14642 -1.08144 0
M  V30 10884 C 1022.78 1.37604 -0.808537 0
M  V30 10885 C 1022.98 1.92868 0.583452 0
M  V30 10886 O 1022.04 2.13964 1.34073 0
M  V30 10887 C 1023.35 2.3396 -1.889 0
M  V30 10888 C 1024.9 2.47605 -1.9147 0
M  V30 10889 C 1025.38 3.47258 -2.98623 0
M  V30 10890 N 1026.87 3.548 -2.97777 0
M  V30 10891 C 1027.6 4.31751 -3.77331 0
M  V30 10892 N 1027.1 5.11966 -4.66757 0
M  V30 10893 N 1028.89 4.2692 -3.65645 0
M  V30 10894 H 1021.04 0.771154 -1.97906 0
M  V30 10895 H 1023.3 0.401694 -0.858688 0
M  V30 10896 H 1023.01 2.00484 -2.88962 0
M  V30 10897 H 1022.88 3.33833 -1.756 0
M  V30 10898 H 1025.27 2.80375 -0.920548 0
M  V30 10899 H 1025.35 1.47702 -2.08848 0
M  V30 10900 H 1025 3.15223 -3.98243 0
M  V30 10901 H 1024.93 4.46935 -2.7849 0
M  V30 10902 H 1027.42 2.97553 -2.3296 0
M  V30 10903 H 1027.73 5.67951 -5.24072 0
M  V30 10904 H 1026.08 5.11245 -4.70801 0
M  V30 10905 H 1029.27 3.63322 -2.95152 0
M  V30 10906 H 1029.44 4.8664 -4.27885 0
M  V30 10907 N 1022.85 0.866709 1.31628 0
M  V30 10908 C 1023.78 0.335762 2.31073 0
M  V30 10909 C 1024.76 -0.571597 1.60209 0
M  V30 10910 O 1025.94 -0.489306 1.87935 0
M  V30 10911 C 1023.07 -0.466416 3.44154 0
M  V30 10912 C 1022.03 0.347561 4.26586 0
M  V30 10913 C 1021.35 -0.5801 5.31544 0
M  V30 10914 C 1022.65 1.57986 4.97833 0
M  V30 10915 H 1024.35 1.16673 2.75731 0
M  V30 10916 H 1021.89 0.56248 1.3256 0
M  V30 10917 H 1023.84 -0.84836 4.12772 0
M  V30 10918 H 1022.57 -1.33086 2.98254 0
M  V30 10919 H 1021.23 0.71141 3.59631 0
M  V30 10920 H 1020.88 -1.44174 4.81895 0
M  V30 10921 H 1020.58 -0.0393965 5.87587 0
M  V30 10922 H 1022.1 -0.958958 6.03023 0
M  V30 10923 H 1023.51 1.26954 5.59067 0
M  V30 10924 H 1021.91 2.05939 5.63657 0
M  V30 10925 H 1022.98 2.3345 4.25005 0
M  V30 10926 N 1024.32 -1.44642 0.625825 0
M  V30 10927 C 1025.27 -2.27762 -0.104042 0
M  V30 10928 C 1026.26 -1.38364 -0.821232 0
M  V30 10929 O 1027.45 -1.62214 -0.708213 0
M  V30 10930 C 1024.58 -3.25585 -1.08853 0
M  V30 10931 C 1023.66 -4.22472 -0.371241 0
M  V30 10932 N 1024.06 -5.02262 0.597226 0
M  V30 10933 C 1022.35 -4.4172 -0.616392 0
M  V30 10934 C 1023.05 -5.72678 1.02053 0
M  V30 10935 N 1022.03 -5.42404 0.360423 0
M  V30 10936 H 1025.83 -2.86858 0.639517 0
M  V30 10937 H 1023.35 -1.56015 0.450911 0
M  V30 10938 H 1025.34 -3.83885 -1.62597 0
M  V30 10939 H 1024 -2.68051 -1.83245 0
M  V30 10940 H 1025.01 -5.08643 0.974803 0
M  V30 10941 H 1021.69 -3.9529 -1.34359 0
M  V30 10942 H 1023.08 -6.46772 1.82033 0
M  V30 10943 N 1025.8 -0.366053 -1.5329 0
M  V30 10944 C 1027.08 0.279902 -1.93587 0
M  V30 10945 C 1027.46 1.66352 -1.29963 0
M  V30 10946 O 1026.81 2.23845 -0.458895 0
M  V30 10947 C 1027.02 0.329634 -3.4744 0
M  V30 10948 C 1028.36 0.569754 -4.2076 0
M  V30 10949 O 1029.39 0.410823 -3.53823 0
M  V30 10950 O 1028.25 0.879262 -5.3938 0
M  V30 10951 H 1025.34 0.16802 -0.809752 0
M  V30 10952 H 1027.89 -0.418871 -1.64449 0
M  V30 10953 H 1026.66 -0.640434 -3.86023 0
M  V30 10954 H 1026.28 1.07428 -3.82812 0
M  V30 10955 N 1027.28 1.57312 -0.0952337 0
M  V30 10956 C 1028.21 2.17056 0.860753 0
M  V30 10957 C 1029.19 1.10394 1.29411 0
M  V30 10958 O 1030.38 1.38532 1.36098 0
M  V30 10959 C 1027.51 2.751 2.11984 0
M  V30 10960 C 1026.46 3.87136 1.8251 0
M  V30 10961 C 1025.79 4.31883 3.15247 0
M  V30 10962 C 1027.09 5.10326 1.11194 0
M  V30 10963 H 1028.78 2.97192 0.362983 0
M  V30 10964 H 1026.33 1.42955 0.173151 0
M  V30 10965 H 1028.28 3.15547 2.79299 0
M  V30 10966 H 1027 1.92219 2.64044 0
M  V30 10967 H 1025.66 3.47229 1.17592 0
M  V30 10968 H 1025.31 3.45893 3.65195 0
M  V30 10969 H 1025.01 5.0742 2.96309 0
M  V30 10970 H 1026.53 4.74964 3.83721 0
M  V30 10971 H 1027.95 5.47942 1.6862 0
M  V30 10972 H 1026.34 5.91293 1.02435 0
M  V30 10973 H 1027.41 4.84807 0.0947227 0
M  V30 10974 N 1028.76 -0.17846 1.56586 0
M  V30 10975 C 1029.69 -1.2496 1.90946 0
M  V30 10976 C 1030.67 -1.43136 0.771424 0
M  V30 10977 O 1031.85 -1.58258 1.02405 0
M  V30 10978 C 1028.98 -2.61368 2.15417 0
M  V30 10979 C 1028.03 -2.59969 3.3811 0
M  V30 10980 S 1028.86 -2.09756 4.9271 0
M  V30 10981 C 1030.01 -3.47956 5.20267 0
M  V30 10982 H 1030.25 -0.956287 2.815 0
M  V30 10983 H 1027.78 -0.382709 1.49582 0
M  V30 10984 H 1029.74 -3.39882 2.30197 0
M  V30 10985 H 1028.4 -2.87903 1.25582 0
M  V30 10986 H 1027.59 -3.60309 3.52411 0
M  V30 10987 H 1027.19 -1.89547 3.2241 0
M  V30 10988 H 1029.49 -4.43914 5.11807 0
M  V30 10989 H 1030.43 -3.38536 6.21932 0
M  V30 10990 H 1030.84 -3.43637 4.47855 0
M  V30 10991 N 1030.24 -1.51135 -0.446768 0
M  V30 10992 C 1031.19 -1.68152 -1.53977 0
M  V30 10993 C 1032.17 -0.53563 -1.51723 0
M  V30 10994 O 1033.36 -0.791134 -1.58335 0
M  V30 10995 C 1030.49 -1.80133 -2.92245 0
M  V30 10996 C 1029.58 -3.00476 -2.99291 0
M  V30 10997 N 1029.97 -4.23796 -2.76099 0
M  V30 10998 C 1028.27 -2.99536 -3.30445 0
M  V30 10999 C 1028.97 -5.04977 -2.88744 0
M  V30 11000 N 1027.94 -4.39428 -3.20006 0
M  V30 11001 H 1031.74 -2.61172 -1.34784 0
M  V30 11002 H 1029.26 -1.48653 -0.653923 0
M  V30 11003 H 1031.26 -1.90432 -3.70866 0
M  V30 11004 H 1029.92 -0.882879 -3.12467 0
M  V30 11005 H 1030.93 -4.52896 -2.51209 0
M  V30 11006 H 1027.6 -2.17286 -3.56501 0
M  V30 11007 H 1028.99 -6.13114 -2.74847 0
M  V30 11008 N 1031.71 0.701592 -1.41122 0
M  V30 11009 C 1032.96 1.4616 -1.40155 0
M  V30 11010 C 1033.29 1.94498 -0.00861553 0
M  V30 11011 O 1032.54 1.69484 0.978452 0
M  V30 11012 C 1032.84 2.693 -2.34973 0
M  V30 11013 C 1032.51 2.39652 -3.81939 0
M  V30 11014 C 1031.17 2.31277 -4.21977 0
M  V30 11015 C 1033.52 2.15076 -4.74755 0
M  V30 11016 C 1030.85 1.96413 -5.52846 0
M  V30 11017 C 1033.2 1.81722 -6.05937 0
M  V30 11018 C 1031.87 1.71838 -6.45002 0
M  V30 11019 H 1031.14 0.534837 -0.512865 0
M  V30 11020 H 1033.78 0.802425 -1.73878 0
M  V30 11021 H 1032.09 3.40123 -1.94484 0
M  V30 11022 H 1033.79 3.27427 -2.31501 0
M  V30 11023 H 1030.38 2.47063 -3.50226 0
M  V30 11024 H 1034.56 2.20495 -4.4463 0
M  V30 11025 H 1029.82 1.87308 -5.82001 0
M  V30 11026 H 1033.99 1.61723 -6.77362 0
M  V30 11027 H 1031.62 1.44591 -7.46323 0
M  V30 11028 N 1033.19 1.2685 0.935242 0
M  V30 11029 C 1034.14 1.08746 2.05614 0
M  V30 11030 C 1035.13 0.012681 1.69395 0
M  V30 11031 O 1036.34 0.169822 1.79197 0
M  V30 11032 H 1032.71 0.33485 0.673335 0
M  V30 11033 H 1034.69 2.03725 2.18033 0
M  V30 11034 C 1033.43 0.74346 3.39659 0
M  V30 11035 H 1032.76 1.56236 3.68008 0
M  V30 11036 H 1034.2 0.656607 4.18885 0
M  V30 11037 C 1032.66 -0.551751 3.32351 0
M  V30 11038 O 1033.19 -1.58836 3.68963 0
M  V30 11039 N 1031.39 -0.544583 2.85452 0
M  V30 11040 H 1030.94 0.29939 2.55854 0
M  V30 11041 H 1030.9 -1.41129 2.80945 0
M  V30 11042 N 1034.67 -1.14067 1.0875 0
M  V30 11043 C 1035.9 -1.89041 0.840902 0
M  V30 11044 C 1036.31 -1.78768 -0.60725 0
M  V30 11045 O 1035.67 -1.14945 -1.41753 0
M  V30 11046 C 1035.72 -3.38891 1.25838 0
M  V30 11047 O 1035.44 -3.48886 2.64972 0
M  V30 11048 C 1036.94 -4.30852 1.04315 0
M  V30 11049 H 1034.16 -0.598685 0.303014 0
M  V30 11050 H 1036.71 -1.44438 1.44769 0
M  V30 11051 H 1034.86 -3.81103 0.695627 0
M  V30 11052 H 1035.28 -4.41989 2.82393 0
M  V30 11053 H 1036.75 -5.34353 1.38461 0
M  V30 11054 H 1037.23 -4.39196 -0.0195784 0
M  V30 11055 H 1037.83 -3.944 1.59151 0
M  V30 11056 N 1036.15 -0.873678 -1.31166 0
M  V30 11057 C 1037.08 -0.348011 -2.30892 0
M  V30 11058 C 1038.06 0.563092 -1.60509 0
M  V30 11059 O 1039.24 0.479332 -1.88192 0
M  V30 11060 C 1036.37 0.448158 -3.44396 0
M  V30 11061 C 1035.33 -0.370179 -4.26396 0
M  V30 11062 C 1034.65 0.551903 -5.31844 0
M  V30 11063 C 1035.95 -1.60624 -4.96988 0
M  V30 11064 H 1037.65 -1.18134 -2.75109 0
M  V30 11065 H 1035.19 -0.569502 -1.3226 0
M  V30 11066 H 1037.15 0.826458 -4.13216 0
M  V30 11067 H 1035.87 1.31503 -2.98956 0
M  V30 11068 H 1034.53 -0.730472 -3.59249 0
M  V30 11069 H 1034.18 1.41616 -4.82653 0
M  V30 11070 H 1033.88 0.00823478 -5.87599 0
M  V30 11071 H 1035.4 0.926965 -6.03523 0
M  V30 11072 H 1036.82 -1.29917 -5.58386 0
M  V30 11073 H 1035.21 -2.08926 -5.62557 0
M  V30 11074 H 1036.28 -2.357 -4.23761 0
M  V30 11075 N 1037.63 1.44308 -0.633487 0
M  V30 11076 C 1038.57 2.32455 0.0821956 0
M  V30 11077 C 1039.57 1.47482 0.833388 0
M  V30 11078 O 1040.77 1.63812 0.746021 0
M  V30 11079 H 1037.15 0.750631 0.045352 0
M  V30 11080 H 1039.12 2.90566 -0.679282 0
M  V30 11081 C 1037.87 3.31512 1.04858 0
M  V30 11082 H 1037.19 3.96908 0.479979 0
M  V30 11083 H 1038.63 3.95865 1.51879 0
M  V30 11084 C 1037.09 2.60615 2.13498 0
M  V30 11085 O 1037.62 2.40682 3.21613 0
M  V30 11086 N 1035.83 2.20315 1.89499 0
M  V30 11087 H 1035.37 2.36726 1.01581 0
M  V30 11088 H 1035.33 1.73205 2.62388 0
M  V30 11089 N 1039.1 0.374177 1.53094 0
M  V30 11090 C 1040.05 -0.48326 2.27524 0
M  V30 11091 C 1041.05 -1.07606 1.30833 0
M  V30 11092 O 1042.25 -1.01827 1.48429 0
M  V30 11093 H 1038.63 -0.174578 0.731455 0
M  V30 11094 H 1040.6 0.166156 2.97937 0
M  V30 11095 C 1039.35 -1.6065 3.08362 0
M  V30 11096 H 1038.67 -1.15966 3.82612 0
M  V30 11097 H 1040.11 -2.18099 3.63606 0
M  V30 11098 C 1038.57 -2.55381 2.19732 0
M  V30 11099 O 1039.1 -3.58414 1.8139 0
M  V30 11100 N 1037.31 -2.24769 1.84194 0
M  V30 11101 H 1036.85 -1.41018 2.15573 0
M  V30 11102 H 1036.81 -2.88404 1.25181 0
M  V30 11103 N 1040.58 -1.57259 0.103575 0
M  V30 11104 C 1041.83 -1.93832 -0.55786 0
M  V30 11105 C 1042.14 -0.988087 -1.68808 0
M  V30 11106 O 1043.35 -1.24786 -2.41124 0
M  V30 11107 C 1041.81 -3.44433 -1.04373 0
M  V30 11108 C 1041.41 -4.47963 0.0571971 0
M  V30 11109 C 1043.16 -3.89953 -1.67742 0
M  V30 11110 C 1041.07 -5.89727 -0.444505 0
M  V30 11111 H 1040 -0.723536 -0.212161 0
M  V30 11112 H 1042.65 -1.82606 0.180944 0
M  V30 11113 H 1041.03 -3.50841 -1.83648 0
M  V30 11114 H 1042.2 -4.53209 0.83298 0
M  V30 11115 H 1040.52 -4.12104 0.596588 0
M  V30 11116 H 1043.11 -4.93272 -2.06365 0
M  V30 11117 H 1043.46 -3.2907 -2.54988 0
M  V30 11118 H 1043.99 -3.86281 -0.950342 0
M  V30 11119 H 1040.73 -6.5433 0.391543 0
M  V30 11120 H 1040.25 -5.87935 -1.18711 0
M  V30 11121 H 1041.93 -6.40558 -0.910739 0
M  V30 11122 N 1042.06 0.170153 -1.56679 0
M  V30 11123 C 1043.34 0.913938 -1.72935 0
M  V30 11124 C 1043.72 2.00342 -0.665293 0
M  V30 11125 O 1043.07 2.26252 0.319715 0
M  V30 11126 C 1043.28 1.47761 -3.16177 0
M  V30 11127 C 1044.62 1.95007 -3.7717 0
M  V30 11128 O 1045.65 1.57552 -3.19462 0
M  V30 11129 O 1044.51 2.64007 -4.78501 0
M  V30 11130 H 1041.6 0.43027 -0.706256 0
M  V30 11131 H 1044.15 0.157891 -1.68964 0
M  V30 11132 H 1042.92 0.69352 -3.85105 0
M  V30 11133 H 1042.54 2.2978 -3.24479 0
M  V30 11134 N 1043.54 1.5137 0.438746 0
M  V30 11135 C 1044.78 1.64211 1.19006 0
M  V30 11136 C 1045.12 0.356607 1.90898 0
M  V30 11137 O 1044.39 -0.643722 1.83539 0
M  V30 11138 C 1044.68 2.8445 2.20817 0
M  V30 11139 C 1044.53 4.22972 1.53018 0
M  V30 11140 C 1045.85 3.00207 3.21813 0
M  V30 11141 H 1042.97 0.597628 0.431288 0
M  V30 11142 H 1045.61 1.8385 0.479487 0
M  V30 11143 H 1043.76 2.67836 2.81418 0
M  V30 11144 H 1045.43 4.5125 0.957654 0
M  V30 11145 H 1043.67 4.25736 0.832556 0
M  V30 11146 H 1044.34 5.03094 2.27158 0
M  V30 11147 H 1046.82 3.15522 2.71266 0
M  V30 11148 H 1045.7 3.85904 3.90345 0
M  V30 11149 H 1045.96 2.12216 3.87836 0
M  V30 11150 N 1045.02 -0.694098 1.41492 0
M  V30 11151 C 1046.27 -1.4498 1.40227 0
M  V30 11152 C 1046.58 -1.95594 0.0151253 0
M  V30 11153 O 1047.78 -2.71234 -0.120146 0
M  V30 11154 C 1046.24 -2.62171 2.46565 0
M  V30 11155 C 1045.85 -2.18337 3.91194 0
M  V30 11156 C 1047.59 -3.39796 2.54439 0
M  V30 11157 C 1045.5 -3.32495 4.89082 0
M  V30 11158 H 1044.43 -0.544584 0.521483 0
M  V30 11159 H 1047.08 -0.75337 1.67322 0
M  V30 11160 H 1045.46 -3.34089 2.12604 0
M  V30 11161 H 1046.64 -1.53698 4.34412 0
M  V30 11162 H 1044.95 -1.53702 3.86994 0
M  V30 11163 H 1047.55 -4.2478 3.24755 0
M  V30 11164 H 1047.89 -3.85082 1.5817 0
M  V30 11165 H 1048.42 -2.74935 2.87499 0
M  V30 11166 H 1045.16 -2.92219 5.86761 0
M  V30 11167 H 1044.68 -3.95978 4.50512 0
M  V30 11168 H 1046.36 -3.98251 5.09907 0
M  V30 11169 N 1046.49 -1.27344 -0.928501 0
M  V30 11170 C 1047.44 -1.10001 -2.029 0
M  V30 11171 C 1048.41 -0.00131084 -1.661 0
M  V30 11172 O 1049.6 -0.163485 -1.90098 0
M  V30 11173 C 1046.74 -0.7524 -3.36798 0
M  V30 11174 C 1045.85 -1.92865 -3.86558 0
M  V30 11175 C 1044.98 -1.52299 -5.08899 0
M  V30 11176 C 1044.02 -2.66677 -5.50953 0
M  V30 11177 N 1043.16 -2.26706 -6.64491 0
M  V30 11178 H 1048 -2.0417 -2.17068 0
M  V30 11179 H 1045.54 -1.01637 -1.0634 0
M  V30 11180 H 1047.5 -0.531687 -4.13798 0
M  V30 11181 H 1046.13 0.15234 -3.2244 0
M  V30 11182 H 1045.18 -2.26192 -3.05845 0
M  V30 11183 H 1046.49 -2.78668 -4.13698 0
M  V30 11184 H 1045.64 -1.26348 -5.93398 0
M  V30 11185 H 1044.38 -0.636042 -4.83535 0
M  V30 11186 H 1043.39 -2.93344 -4.65004 0
M  V30 11187 H 1044.61 -3.55992 -5.78313 0
M  V30 11188 H 1042.56 -1.40462 -6.40786 0
M  V30 11189 H 1042.48 -3.06049 -6.91281 0
M  V30 11190 H 1043.74 -2.04 -7.52333 0
M  V30 11191 N 1047.97 1.13488 -1.09353 0
M  V30 11192 C 1048.88 2.2248 -0.744307 0
M  V30 11193 C 1049.9 1.72145 0.253404 0
M  V30 11194 O 1051.07 2.01176 0.0949339 0
M  V30 11195 C 1048.14 3.46286 -0.16928 0
M  V30 11196 C 1047.2 4.11516 -1.22284 0
M  V30 11197 C 1046.43 5.29412 -0.675161 0
M  V30 11198 O 1046.66 5.68185 0.502182 0
M  V30 11199 O 1045.59 5.8467 -1.42983 0
M  V30 11200 H 1049.42 2.54723 -1.65378 0
M  V30 11201 H 1047 1.21607 -0.867879 0
M  V30 11202 H 1048.88 4.2114 0.14811 0
M  V30 11203 H 1047.56 3.15745 0.713214 0
M  V30 11204 H 1046.47 3.38492 -1.59292 0
M  V30 11205 H 1047.8 4.46186 -2.07796 0
M  V30 11206 N 1049.45 0.880621 1.30701 0
M  V30 11207 C 1050.41 0.349087 2.26526 0
M  V30 11208 C 1051.41 -0.505973 1.52632 0
M  V30 11209 O 1052.6 -0.313751 1.71351 0
M  V30 11210 C 1049.74 -0.503023 3.37168 0
M  V30 11211 H 1050.93 1.19516 2.75056 0
M  V30 11212 H 1048.48 0.657107 1.41816 0
M  V30 11213 H 1049.22 -1.36986 2.93948 0
M  V30 11214 H 1049 0.109389 3.91947 0
M  V30 11215 H 1050.49 -0.866845 4.08504 0
M  V30 11216 N 1050.93 -1.4397 0.641131 0
M  V30 11217 C 1051.86 -2.27948 -0.10731 0
M  V30 11218 C 1052.84 -1.39124 -0.841615 0
M  V30 11219 O 1054.02 -1.68566 -0.843662 0
M  V30 11220 C 1051.15 -3.18277 -1.15835 0
M  V30 11221 C 1050.2 -4.23276 -0.52345 0
M  V30 11222 S 1051.03 -5.30984 0.693969 0
M  V30 11223 C 1052.19 -6.24882 -0.356831 0
M  V30 11224 H 1052.42 -2.91077 0.605083 0
M  V30 11225 H 1049.95 -1.48303 0.429598 0
M  V30 11226 H 1051.91 -3.70867 -1.75977 0
M  V30 11227 H 1050.57 -2.54348 -1.84299 0
M  V30 11228 H 1049.76 -4.86533 -1.31536 0
M  V30 11229 H 1049.37 -3.74 0.00358355 0
M  V30 11230 H 1051.66 -6.66305 -1.22653 0
M  V30 11231 H 1052.6 -7.07692 0.240412 0
M  V30 11232 H 1053.01 -5.60301 -0.687217 0
M  V30 11233 N 1052.41 -0.382291 -1.52893 0
M  V30 11234 C 1053.65 0.202433 -2.01787 0
M  V30 11235 C 1053.99 1.47044 -1.26853 0
M  V30 11236 O 1053.26 1.91007 -0.366969 0
M  V30 11237 C 1053.54 0.477471 -3.5692 0
M  V30 11238 C 1053.4 -0.805339 -4.42532 0
M  V30 11239 C 1054.72 1.27106 -4.21346 0
M  V30 11240 H 1051.84 0.0720998 -0.733465 0
M  V30 11241 H 1054.48 -0.510478 -1.83014 0
M  V30 11242 H 1052.63 1.08478 -3.73048 0
M  V30 11243 H 1054.3 -1.4424 -4.3817 0
M  V30 11244 H 1052.54 -1.42216 -4.09826 0
M  V30 11245 H 1053.21 -0.567635 -5.49074 0
M  V30 11246 H 1055.69 0.757161 -4.09153 0
M  V30 11247 H 1054.57 1.43225 -5.29885 0
M  V30 11248 H 1054.83 2.28431 -3.78513 0
M  V30 11249 N 1053.89 1.57202 -0.111913 0
M  V30 11250 C 1054.8 2.18475 0.854753 0
M  V30 11251 C 1055.81 1.15888 1.29792 0
M  V30 11252 O 1056.99 1.48329 1.36237 0
M  V30 11253 C 1054.05 2.76645 2.0897 0
M  V30 11254 C 1053.11 3.94244 1.69913 0
M  V30 11255 C 1052.35 4.49631 2.8752 0
M  V30 11256 O 1052.57 4.03926 4.02741 0
M  V30 11257 O 1051.5 5.40417 2.65015 0
M  V30 11258 H 1055.33 3.01519 0.363352 0
M  V30 11259 H 1052.91 1.4897 0.113329 0
M  V30 11260 H 1054.8 3.13755 2.81311 0
M  V30 11261 H 1053.47 1.96637 2.5713 0
M  V30 11262 H 1052.38 3.61915 0.947013 0
M  V30 11263 H 1053.71 4.75666 1.26501 0
M  V30 11264 N 1055.36 -0.161842 1.56767 0
M  V30 11265 C 1056.59 -0.896274 1.87034 0
M  V30 11266 C 1057.01 -1.74617 0.699314 0
M  V30 11267 O 1056.37 -1.77861 -0.351435 0
M  V30 11268 C 1056.42 -1.74105 3.15784 0
M  V30 11269 O 1055.52 -2.84372 2.98674 0
M  V30 11270 H 1054.86 -0.250523 0.614926 0
M  V30 11271 H 1057.39 -0.157127 2.03996 0
M  V30 11272 H 1057.4 -2.13907 3.4743 0
M  V30 11273 H 1056.08 -1.11684 4.00624 0
M  V30 11274 H 1054.66 -2.48084 2.78404 0
M  V30 11275 N 1056.84 -1.516 -0.430713 0
M  V30 11276 C 1058.09 -1.63829 -1.17657 0
M  V30 11277 C 1058.4 -0.363605 -1.92191 0
M  V30 11278 O 1059.61 -0.365358 -2.6903 0
M  V30 11279 C 1058.07 -2.89357 -2.14011 0
M  V30 11280 C 1057.67 -4.23854 -1.45094 0
M  V30 11281 C 1059.42 -3.10944 -2.88988 0
M  V30 11282 C 1057.32 -5.40526 -2.3997 0
M  V30 11283 H 1056.25 -0.610221 -0.442884 0
M  V30 11284 H 1058.91 -1.78073 -0.442984 0
M  V30 11285 H 1057.29 -2.68762 -2.90832 0
M  V30 11286 H 1058.46 -4.54854 -0.737853 0
M  V30 11287 H 1056.78 -4.08197 -0.822429 0
M  V30 11288 H 1059.37 -3.95286 -3.60074 0
M  V30 11289 H 1059.72 -2.24291 -3.50712 0
M  V30 11290 H 1060.25 -3.3191 -2.19272 0
M  V30 11291 H 1056.99 -6.29459 -1.82925 0
M  V30 11292 H 1056.51 -5.13893 -3.09313 0
M  V30 11293 H 1058.19 -5.72741 -3.00959 0
M  V30 11294 N 1058.32 0.686584 -1.41858 0
M  V30 11295 C 1059.23 1.83002 -1.46791 0
M  V30 11296 C 1060.25 1.70284 -0.357675 0
M  V30 11297 O 1061.42 1.92042 -0.606781 0
M  V30 11298 C 1058.49 3.19056 -1.35661 0
M  V30 11299 C 1057.55 3.43817 -2.57077 0
M  V30 11300 C 1056.78 4.7338 -2.46469 0
M  V30 11301 O 1057 5.50483 -1.49413 0
M  V30 11302 O 1055.94 4.99124 -3.36391 0
M  V30 11303 H 1059.76 1.81797 -2.43277 0
M  V30 11304 H 1057.35 0.840812 -1.23494 0
M  V30 11305 H 1059.23 4.00267 -1.31773 0
M  V30 11306 H 1057.91 3.20925 -0.422951 0
M  V30 11307 H 1056.81 2.625 -2.66541 0
M  V30 11308 H 1058.15 3.4677 -3.49302 0
M  V30 11309 N 1059.8 1.27835 0.921735 0
M  V30 11310 C 1061.03 1.17182 1.70153 0
M  V30 11311 C 1061.44 -0.273207 1.87217 0
M  V30 11312 O 1060.78 -1.19729 1.39322 0
M  V30 11313 C 1060.84 1.78969 3.11786 0
M  V30 11314 C 1060.5 3.28179 3.18037 0
M  V30 11315 C 1061.5 4.24729 2.99835 0
M  V30 11316 C 1059.19 3.68995 3.40805 0
M  V30 11317 C 1061.18 5.60071 3.04301 0
M  V30 11318 C 1058.87 5.04465 3.44904 0
M  V30 11319 C 1059.87 5.99813 3.2667 0
M  V30 11320 O 1059.55 7.32813 3.30515 0
M  V30 11321 H 1059.29 0.408079 0.538932 0
M  V30 11322 H 1061.84 1.69326 1.16266 0
M  V30 11323 H 1060.07 1.2131 3.6718 0
M  V30 11324 H 1061.76 1.62946 3.71757 0
M  V30 11325 H 1062.52 3.94533 2.8208 0
M  V30 11326 H 1058.4 2.9525 3.54045 0
M  V30 11327 H 1061.95 6.34471 2.89987 0
M  V30 11328 H 1057.84 5.34315 3.62185 0
M  V30 11329 H 1058.61 7.41338 3.4693 0
M  V30 11330 N 1061.28 -1.12907 1.09954 0
M  V30 11331 C 1062.69 -1.363 0.830326 0
M  V30 11332 C 1062.89 -1.93772 -0.552694 0
M  V30 11333 O 1061.95 -2.1607 -1.30652 0
M  V30 11334 C 1063.26 -2.30925 1.92598 0
M  V30 11335 C 1064.81 -2.44528 1.95385 0
M  V30 11336 C 1065.28 -3.42464 3.0411 0
M  V30 11337 N 1066.77 -3.50018 3.03384 0
M  V30 11338 C 1067.51 -4.25693 3.84152 0
M  V30 11339 N 1067.01 -5.04476 4.74843 0
M  V30 11340 N 1068.8 -4.21049 3.7239 0
M  V30 11341 H 1060.95 -0.739571 1.99108 0
M  V30 11342 H 1063.21 -0.387983 0.86497 0
M  V30 11343 H 1062.92 -1.95861 2.92115 0
M  V30 11344 H 1062.79 -3.30997 1.80889 0
M  V30 11345 H 1065.18 -2.78875 0.965037 0
M  V30 11346 H 1065.26 -1.44361 2.11172 0
M  V30 11347 H 1064.9 -3.08847 4.03207 0
M  V30 11348 H 1064.83 -4.42448 2.85565 0
M  V30 11349 H 1067.33 -2.93809 2.37665 0
M  V30 11350 H 1067.64 -5.59541 5.33042 0
M  V30 11351 H 1065.98 -5.0369 4.78875 0
M  V30 11352 H 1069.17 -3.5858 3.00895 0
M  V30 11353 H 1069.35 -4.79771 4.35572 0
M  V30 11354 N 1062.75 -0.88754 -1.30232 0
M  V30 11355 C 1064.17 -0.581904 -1.48614 0
M  V30 11356 C 1064.37 0.879711 -1.81282 0
M  V30 11357 O 1063.43 1.66076 -1.90198 0
M  V30 11358 C 1064.74 -1.49726 -2.60773 0
M  V30 11359 C 1066.29 -1.50117 -2.74653 0
M  V30 11360 C 1066.76 -2.40251 -3.89927 0
M  V30 11361 N 1068.25 -2.38229 -3.97242 0
M  V30 11362 C 1068.99 -3.04682 -4.85754 0
M  V30 11363 N 1068.48 -3.80369 -5.79043 0
M  V30 11364 N 1070.28 -2.93901 -4.79144 0
M  V30 11365 H 1062.43 -1.83304 -1.073 0
M  V30 11366 H 1064.69 -0.78477 -0.531826 0
M  V30 11367 H 1064.4 -2.5381 -2.43462 0
M  V30 11368 H 1064.27 -1.20874 -3.57308 0
M  V30 11369 H 1066.66 -0.467832 -2.91368 0
M  V30 11370 H 1066.74 -1.83001 -1.7873 0
M  V30 11371 H 1066.38 -3.43671 -3.73969 0
M  V30 11372 H 1066.31 -2.04682 -4.85194 0
M  V30 11373 H 1068.8 -1.83229 -3.30508 0
M  V30 11374 H 1069.12 -4.28159 -6.4335 0
M  V30 11375 H 1067.46 -3.84477 -5.78967 0
M  V30 11376 H 1070.65 -2.34296 -4.05245 0
M  V30 11377 H 1070.83 -3.45967 -5.47915 0
M  V30 11378 N 1064.23 1.43628 -0.648757 0
M  V30 11379 C 1065.16 2.29045 0.0841858 0
M  V30 11380 C 1066.18 1.42262 0.791537 0
M  V30 11381 O 1067.37 1.66243 0.650039 0
M  V30 11382 C 1064.47 3.19075 1.14212 0
M  V30 11383 C 1063.64 4.34372 0.513799 0
M  V30 11384 C 1062.7 5.05307 1.46803 0
M  V30 11385 O 1061.72 5.60729 0.978346 0
M  V30 11386 N 1062.93 5.08393 2.80209 0
M  V30 11387 H 1065.69 2.9259 -0.648948 0
M  V30 11388 H 1063.25 1.54268 -0.491209 0
M  V30 11389 H 1065.24 3.63395 1.78119 0
M  V30 11390 H 1063.81 2.57161 1.77728 0
M  V30 11391 H 1063.03 3.93024 -0.304262 0
M  V30 11392 H 1064.32 5.08745 0.0749871 0
M  V30 11393 H 1063.72 4.64729 3.22557 0
M  V30 11394 H 1062.28 5.56445 3.3943 0
M  V30 11395 N 1065.71 0.390394 1.52688 0
M  V30 11396 C 1066.66 -0.4591 2.28024 0
M  V30 11397 C 1067.65 -1.06212 1.31967 0
M  V30 11398 O 1068.86 -1.00247 1.49501 0
M  V30 11399 H 1065.23 -0.16681 0.733266 0
M  V30 11400 H 1067.2 0.197747 2.97744 0
M  V30 11401 C 1065.95 -1.5737 3.10048 0
M  V30 11402 H 1065.28 -1.11901 3.83821 0
M  V30 11403 H 1066.72 -2.1423 3.65898 0
M  V30 11404 C 1065.18 -2.53036 2.22429 0
M  V30 11405 O 1065.71 -3.5647 1.85181 0
M  V30 11406 N 1063.91 -2.22802 1.86567 0
M  V30 11407 H 1063.46 -1.38723 2.17057 0
M  V30 11408 H 1063.42 -2.87061 1.28233 0
M  V30 11409 N 1067.19 -1.57141 0.120249 0
M  V30 11410 C 1068.6 -1.82256 -0.404931 0
M  V30 11411 C 1068.95 -1.03748 -1.66526 0
M  V30 11412 O 1068.08 -0.274456 -2.14653 0
M  V30 11413 C 1068.67 -3.30588 -0.741431 0
M  V30 11414 C 1067.23 -3.56379 -1.21124 0
M  V30 11415 C 1066.38 -2.76421 -0.220569 0
M  V30 11416 H 1069.33 -1.54897 0.345361 0
M  V30 11417 H 1069.35 -3.45284 -1.59872 0
M  V30 11418 H 1068.86 -3.87701 0.176036 0
M  V30 11419 H 1066.96 -3.04625 -2.14556 0
M  V30 11420 H 1067.07 -4.64952 -1.1557 0
M  V30 11421 H 1065.44 -2.44666 -0.707857 0
M  V30 11422 H 1066.22 -3.36294 0.690018 0
M  V30 11423 N 1068.67 0.153526 -1.5685 0
M  V30 11424 C 1069.89 0.886343 -1.87507 0
M  V30 11425 C 1070.32 1.74244 -0.708565 0
M  V30 11426 O 1069.67 1.78045 0.341997 0
M  V30 11427 C 1069.72 1.72428 -3.16703 0
M  V30 11428 O 1068.83 2.82784 -3.00178 0
M  V30 11429 H 1068.17 0.247259 -0.616246 0
M  V30 11430 H 1070.7 0.146306 -2.04076 0
M  V30 11431 H 1070.71 2.12062 -3.4856 0
M  V30 11432 H 1069.38 1.09558 -4.01211 0
M  V30 11433 H 1067.96 2.46604 -2.79716 0
M  V30 11434 N 1070.14 1.51827 0.422667 0
M  V30 11435 C 1071.56 1.40328 0.760275 0
M  V30 11436 C 1071.76 0.497119 1.95272 0
M  V30 11437 O 1070.82 -0.0422083 2.52465 0
M  V30 11438 C 1072.13 2.82622 1.02689 0
M  V30 11439 C 1073.68 2.91874 1.13044 0
M  V30 11440 C 1074.15 4.35107 1.4299 0
M  V30 11441 N 1075.64 4.3828 1.49883 0
M  V30 11442 C 1076.38 5.46153 1.74655 0
M  V30 11443 N 1075.87 6.64165 1.9712 0
M  V30 11444 N 1077.67 5.33651 1.76558 0
M  V30 11445 H 1069.82 2.09285 -0.362455 0
M  V30 11446 H 1072.08 0.94273 -0.0998161 0
M  V30 11447 H 1071.79 3.50991 0.223226 0
M  V30 11448 H 1071.66 3.22844 1.95068 0
M  V30 11449 H 1074.05 2.23694 1.92471 0
M  V30 11450 H 1074.13 2.55128 0.185326 0
M  V30 11451 H 1073.77 5.03841 0.640848 0
M  V30 11452 H 1073.7 4.69377 2.38731 0
M  V30 11453 H 1076.19 3.53206 1.34366 0
M  V30 11454 H 1076.51 7.42165 2.15434 0
M  V30 11455 H 1074.85 6.67255 1.94413 0
M  V30 11456 H 1078.04 4.40436 1.58536 0
M  V30 11457 H 1078.22 6.17798 1.95525 0
M  V30 11458 N 1071.62 -0.679052 1.4222 0
M  V30 11459 C 1072.86 -1.45118 1.43945 0
M  V30 11460 C 1073.23 -1.91928 0.0524851 0
M  V30 11461 O 1074.43 -2.68743 -0.0555318 0
M  V30 11462 C 1072.7 -2.6191 2.43183 0
M  V30 11463 S 1074.26 -3.50819 2.63574 0
M  V30 11464 H 1071.08 -0.495695 0.509713 0
M  V30 11465 H 1073.68 -0.790842 1.7879 0
M  V30 11466 H 1072.38 -2.25752 3.42731 0
M  V30 11467 H 1071.91 -3.3282 2.09748 0
M  V30 11468 H 1073.93 -4.57735 1.91555 0
M  V30 11469 N 1073.1 -1.28322 -0.914942 0
M  V30 11470 C 1074.33 -1.1837 -1.70304 0
M  V30 11471 C 1074.75 0.254291 -1.86373 0
M  V30 11472 O 1074.11 1.18398 -1.37301 0
M  V30 11473 C 1074.16 -1.88603 -3.07346 0
M  V30 11474 O 1073.26 -1.19268 -3.94777 0
M  V30 11475 H 1072.6 -0.410978 -0.52153 0
M  V30 11476 H 1075.13 -1.69622 -1.14409 0
M  V30 11477 H 1075.14 -1.96463 -3.57584 0
M  V30 11478 H 1073.82 -2.93201 -2.94967 0
M  V30 11479 H 1072.39 -1.19563 -3.53212 0
M  V30 11480 N 1074.58 1.12322 -1.10551 0
M  V30 11481 C 1075.82 1.8413 -0.849932 0
M  V30 11482 C 1076.16 1.83938 0.622946 0
M  V30 11483 O 1075.43 1.28579 1.45937 0
M  V30 11484 C 1075.72 3.31751 -1.40048 0
M  V30 11485 C 1075.57 3.40391 -2.9403 0
M  V30 11486 C 1076.89 4.27543 -1.04379 0
M  V30 11487 H 1074.01 0.668533 -0.310213 0
M  V30 11488 H 1076.65 1.31766 -1.36886 0
M  V30 11489 H 1074.8 3.76475 -0.959102 0
M  V30 11490 H 1076.47 3.04294 -3.46703 0
M  V30 11491 H 1074.71 2.809 -3.30571 0
M  V30 11492 H 1075.38 4.44252 -3.27635 0
M  V30 11493 H 1077.86 3.90951 -1.42466 0
M  V30 11494 H 1076.74 5.2924 -1.4559 0
M  V30 11495 H 1077 4.42075 0.0466316 0
M  V30 11496 N 1076.06 0.894434 1.2976 0
M  V30 11497 C 1077.28 0.5322 2.00455 0
M  V30 11498 C 1077.71 -0.874427 1.66539 0
M  V30 11499 O 1077.06 -1.58113 0.887129 0
M  V30 11500 C 1077.11 0.725264 3.53231 0
M  V30 11501 O 1076.22 -0.224612 4.11788 0
M  V30 11502 H 1075.56 0.208562 0.630395 0
M  V30 11503 H 1078.09 1.20458 1.65382 0
M  V30 11504 H 1078.1 0.627889 4.0314 0
M  V30 11505 H 1076.77 1.75079 3.77253 0
M  V30 11506 H 1075.35 -0.0801361 3.72814 0
M  V30 11507 N 1077.53 -1.43282 0.656365 0
M  V30 11508 C 1078.46 -2.33492 -0.0196962 0
M  V30 11509 C 1079.45 -1.49647 -0.80868 0
M  V30 11510 O 1080.63 -1.78303 -0.769529 0
M  V30 11511 C 1077.76 -3.33052 -0.984574 0
M  V30 11512 C 1076.71 -4.26908 -0.305483 0
M  V30 11513 C 1076.04 -5.16531 -1.38202 0
M  V30 11514 C 1077.34 -5.16073 0.804081 0
M  V30 11515 H 1079.03 -2.90272 0.733661 0
M  V30 11516 H 1076.58 -1.39574 0.354259 0
M  V30 11517 H 1078.53 -3.9506 -1.46647 0
M  V30 11518 H 1077.26 -2.74535 -1.76913 0
M  V30 11519 H 1075.92 -3.66268 0.155995 0
M  V30 11520 H 1075.56 -4.54351 -2.1581 0
M  V30 11521 H 1075.26 -5.80148 -0.932878 0
M  V30 11522 H 1076.79 -5.81414 -1.86522 0
M  V30 11523 H 1078.2 -5.71873 0.404212 0
M  V30 11524 H 1076.6 -5.88427 1.17789 0
M  V30 11525 H 1077.67 -4.55574 1.66073 0
M  V30 11526 N 1079.01 -0.398486 -1.52479 0
M  V30 11527 C 1080.24 0.183059 -2.06591 0
M  V30 11528 C 1080.66 1.3898 -1.26753 0
M  V30 11529 O 1080.02 1.78885 -0.294959 0
M  V30 11530 C 1080.07 0.522392 -3.56796 0
M  V30 11531 O 1079.17 1.61499 -3.79462 0
M  V30 11532 H 1078.51 0.0188411 -0.663733 0
M  V30 11533 H 1081.04 -0.56861 -1.9654 0
M  V30 11534 H 1081.05 0.784078 -4.00395 0
M  V30 11535 H 1079.73 -0.359807 -4.14341 0
M  V30 11536 H 1078.31 1.3463 -3.47749 0
M  V30 11537 N 1080.49 1.57075 -0.12858 0
M  V30 11538 C 1081.44 2.17084 0.835308 0
M  V30 11539 C 1082.43 1.12268 1.26855 0
M  V30 11540 O 1083.64 1.30554 1.23917 0
M  V30 11541 H 1080.01 0.694866 0.287516 0
M  V30 11542 H 1081.99 2.96839 0.304798 0
M  V30 11543 C 1080.73 2.79237 2.07177 0
M  V30 11544 H 1080.06 3.59594 1.74735 0
M  V30 11545 H 1081.5 3.24751 2.72604 0
M  V30 11546 C 1079.96 1.76803 2.86779 0
M  V30 11547 O 1080.49 1.22723 3.82494 0
M  V30 11548 N 1078.69 1.46525 2.50956 0
M  V30 11549 H 1078.24 1.90694 1.73187 0
M  V30 11550 H 1078.2 0.782326 3.04511 0
M  V30 11551 N 1081.97 -0.145205 1.5693 0
M  V30 11552 C 1083.22 -0.858786 1.83719 0
M  V30 11553 C 1083.55 -1.80738 0.710452 0
M  V30 11554 O 1082.82 -1.92389 -0.285791 0
M  V30 11555 C 1083.11 -1.6317 3.2101 0
M  V30 11556 C 1082.96 -0.704472 4.44249 0
M  V30 11557 C 1084.28 -2.59377 3.55544 0
M  V30 11558 H 1081.4 -0.310757 0.66828 0
M  V30 11559 H 1084.04 -0.123918 1.89595 0
M  V30 11560 H 1082.19 -2.25816 3.16132 0
M  V30 11561 H 1083.86 -0.08887 4.61214 0
M  V30 11562 H 1082.1 -0.0141693 4.33798 0
M  V30 11563 H 1082.78 -1.28135 5.36922 0
M  V30 11564 H 1085.25 -2.06848 3.61044 0
M  V30 11565 H 1084.13 -3.10506 4.52634 0
M  V30 11566 H 1084.39 -3.40819 2.81594 0
M  V30 11567 N 1083.45 -1.52049 -0.414609 0
M  V30 11568 C 1084.36 -1.7788 -1.52958 0
M  V30 11569 C 1085.37 -0.66408 -1.60829 0
M  V30 11570 O 1086.55 -0.948882 -1.77646 0
M  V30 11571 C 1083.61 -1.91906 -2.88744 0
M  V30 11572 C 1082.68 -3.15803 -2.90804 0
M  V30 11573 C 1081.91 -3.29151 -4.20114 0
M  V30 11574 O 1082.13 -2.47892 -5.13718 0
M  V30 11575 O 1081.07 -4.2227 -4.28919 0
M  V30 11576 H 1084.89 -2.72506 -1.34067 0
M  V30 11577 H 1082.48 -1.36826 -0.599918 0
M  V30 11578 H 1084.36 -2.02986 -3.6929 0
M  V30 11579 H 1083.03 -1.00468 -3.07714 0
M  V30 11580 H 1081.94 -3.10185 -2.09131 0
M  V30 11581 H 1083.27 -4.07004 -2.76783 0
M  V30 11582 N 1084.93 0.6715 -1.42579 0
M  V30 11583 C 1085.89 1.76676 -1.46008 0
M  V30 11584 C 1086.89 1.57007 -0.347213 0
M  V30 11585 O 1088.08 1.63238 -0.608185 0
M  V30 11586 C 1085.21 3.15348 -1.29494 0
M  V30 11587 H 1086.4 1.75021 -2.43531 0
M  V30 11588 H 1083.96 0.881444 -1.29075 0
M  V30 11589 H 1084.69 3.22626 -0.32906 0
M  V30 11590 H 1084.48 3.31028 -2.10149 0
M  V30 11591 H 1085.97 3.95251 -1.34784 0
M  V30 11592 N 1086.4 1.28806 0.908124 0
M  V30 11593 C 1087.82 1.06634 1.18749 0
M  V30 11594 C 1088.02 -0.187729 2.00624 0
M  V30 11595 O 1087.08 -0.88784 2.36376 0
M  V30 11596 C 1088.39 2.31703 1.91661 0
M  V30 11597 C 1089.94 2.36939 2.04521 0
M  V30 11598 C 1090.41 3.61789 2.80843 0
M  V30 11599 N 1091.9 3.62462 2.88402 0
M  V30 11600 C 1092.64 4.55746 3.47971 0
M  V30 11601 N 1092.13 5.59353 4.08774 0
M  V30 11602 N 1093.93 4.43331 3.45564 0
M  V30 11603 H 1086.08 2.09299 0.36164 0
M  V30 11604 H 1088.34 0.921479 0.222668 0
M  V30 11605 H 1088.05 3.23096 1.38931 0
M  V30 11606 H 1087.92 2.38556 2.92183 0
M  V30 11607 H 1090.31 1.4604 2.5643 0
M  V30 11608 H 1090.39 2.34077 1.03159 0
M  V30 11609 H 1090.03 4.53035 2.29612 0
M  V30 11610 H 1089.96 3.61907 3.82532 0
M  V30 11611 H 1092.45 2.87544 2.45208 0
M  V30 11612 H 1092.77 6.26668 4.52224 0
M  V30 11613 H 1091.11 5.63173 4.07261 0
M  V30 11614 H 1094.3 3.61587 2.97276 0
M  V30 11615 H 1094.48 5.16216 3.91695 0
M  V30 11616 N 1087.88 -1.11734 1.11145 0
M  V30 11617 C 1089.3 -1.35412 0.844736 0
M  V30 11618 C 1089.5 -1.94347 -0.532111 0
M  V30 11619 O 1088.55 -2.17443 -1.28353 0
M  V30 11620 C 1089.87 -2.28869 1.95037 0
M  V30 11621 C 1091.41 -2.42442 1.97967 0
M  V30 11622 C 1091.89 -3.39219 3.07725 0
M  V30 11623 N 1093.38 -3.4678 3.07079 0
M  V30 11624 C 1094.12 -4.21595 3.88646 0
M  V30 11625 N 1093.61 -4.99411 4.80167 0
M  V30 11626 N 1095.4 -4.17075 3.76835 0
M  V30 11627 H 1087.56 -0.718412 1.99881 0
M  V30 11628 H 1089.82 -0.378787 0.869037 0
M  V30 11629 H 1089.52 -1.92752 2.94176 0
M  V30 11630 H 1089.4 -3.2906 1.84389 0
M  V30 11631 H 1091.79 -2.77835 0.994561 0
M  V30 11632 H 1091.87 -1.42113 2.12691 0
M  V30 11633 H 1091.51 -3.04553 4.0646 0
M  V30 11634 H 1091.44 -4.39394 2.90242 0
M  V30 11635 H 1093.93 -2.91272 2.40767 0
M  V30 11636 H 1094.24 -5.53856 5.38946 0
M  V30 11637 H 1092.59 -4.98582 4.84191 0
M  V30 11638 H 1095.78 -3.55369 3.04681 0
M  V30 11639 H 1095.95 -4.75125 4.40637 0
M  V30 11640 N 1089.36 -0.901303 -1.29284 0
M  V30 11641 C 1090.61 -0.528043 -1.95494 0
M  V30 11642 C 1090.93 0.92597 -1.71044 0
M  V30 11643 O 1090.19 1.67185 -1.01723 0
M  V30 11644 C 1090.49 -0.768828 -3.49033 0
M  V30 11645 C 1090.15 -2.20045 -3.93562 0
M  V30 11646 C 1088.82 -2.59189 -4.05431 0
M  V30 11647 C 1091.17 -3.13266 -4.1655 0
M  V30 11648 C 1088.5 -3.90733 -4.37658 0
M  V30 11649 C 1090.85 -4.4436 -4.50252 0
M  V30 11650 C 1089.51 -4.83375 -4.60331 0
M  V30 11651 H 1088.78 -0.193225 -0.715364 0
M  V30 11652 H 1091.43 -1.14027 -1.53851 0
M  V30 11653 H 1089.73 -0.0736997 -3.91731 0
M  V30 11654 H 1091.43 -0.459384 -3.9836 0
M  V30 11655 H 1088.02 -1.88666 -3.84842 0
M  V30 11656 H 1092.21 -2.84237 -4.06845 0
M  V30 11657 H 1087.46 -4.2068 -4.43665 0
M  V30 11658 H 1091.64 -5.16618 -4.66989 0
M  V30 11659 H 1089.26 -5.8534 -4.85058 0
M  V30 11660 N 1090.84 1.42931 -0.663954 0
M  V30 11661 C 1092.08 2.01683 -0.181738 0
M  V30 11662 C 1092.41 1.52437 1.20802 0
M  V30 11663 O 1091.67 0.71254 1.82267 0
M  V30 11664 C 1091.97 3.57072 -0.153163 0
M  V30 11665 C 1091.63 4.25706 -1.48612 0
M  V30 11666 C 1090.29 4.4417 -1.85111 0
M  V30 11667 C 1092.65 4.6448 -2.36448 0
M  V30 11668 C 1089.97 4.98677 -3.09092 0
M  V30 11669 C 1092.33 5.20362 -3.5973 0
M  V30 11670 C 1090.99 5.37041 -3.96412 0
M  V30 11671 H 1090.26 0.73801 -0.0665026 0
M  V30 11672 H 1092.91 1.71264 -0.856791 0
M  V30 11673 H 1091.21 3.87095 0.605372 0
M  V30 11674 H 1092.91 4.00299 0.236981 0
M  V30 11675 H 1089.5 4.11686 -1.19215 0
M  V30 11676 H 1093.68 4.49898 -2.09537 0
M  V30 11677 H 1088.94 5.09776 -3.37547 0
M  V30 11678 H 1093.11 5.49352 -4.28001 0
M  V30 11679 H 1090.74 5.79042 -4.92559 0
M  V30 11680 N 1092.32 0.406567 1.52266 0
M  V30 11681 C 1093.26 -0.43489 2.28498 0
M  V30 11682 C 1094.26 -1.04806 1.33086 0
M  V30 11683 O 1095.46 -0.986557 1.50556 0
M  V30 11684 H 1091.84 -0.159023 0.734994 0
M  V30 11685 H 1093.81 0.229316 2.97518 0
M  V30 11686 C 1092.56 -1.54073 3.117 0
M  V30 11687 H 1091.88 -1.07824 3.84986 0
M  V30 11688 H 1093.32 -2.10337 3.6815 0
M  V30 11689 C 1091.78 -2.50662 2.251 0
M  V30 11690 O 1092.31 -3.54486 1.88951 0
M  V30 11691 N 1090.52 -2.20811 1.8892 0
M  V30 11692 H 1090.06 -1.36413 2.18516 0
M  V30 11693 H 1090.02 -2.85684 1.3127 0
M  V30 11694 N 1093.79 -1.57004 0.136909 0
M  V30 11695 C 1094.74 -2.16246 -0.806607 0
M  V30 11696 C 1095.71 -1.09246 -1.25118 0
M  V30 11697 O 1096.9 -1.3724 -1.32551 0
M  V30 11698 C 1094.04 -2.78031 -2.04433 0
M  V30 11699 C 1093.15 -3.99393 -1.64649 0
M  V30 11700 C 1092.28 -4.49208 -2.83524 0
M  V30 11701 C 1091.32 -5.63059 -2.40064 0
M  V30 11702 N 1090.46 -6.07537 -3.51913 0
M  V30 11703 H 1095.3 -2.9654 -0.294596 0
M  V30 11704 H 1092.84 -1.46491 -0.133705 0
M  V30 11705 H 1094.8 -3.11992 -2.76978 0
M  V30 11706 H 1093.43 -2.00398 -2.53062 0
M  V30 11707 H 1092.48 -3.71477 -0.819077 0
M  V30 11708 H 1093.79 -4.81904 -1.28723 0
M  V30 11709 H 1092.94 -4.85171 -3.64271 0
M  V30 11710 H 1091.68 -3.65683 -3.22688 0
M  V30 11711 H 1090.69 -5.26682 -1.57754 0
M  V30 11712 H 1091.91 -6.48362 -2.01997 0
M  V30 11713 H 1089.86 -5.2695 -3.90717 0
M  V30 11714 H 1089.78 -6.84949 -3.1997 0
M  V30 11715 H 1091.04 -6.48143 -4.33048 0
M  V30 11716 N 1095.27 0.136881 -1.57004 0
M  V30 11717 C 1096.18 1.18793 -2.023 0
M  V30 11718 C 1097.2 1.46412 -0.94018 0
M  V30 11719 O 1098.37 1.57883 -1.2504 0
M  V30 11720 C 1095.44 2.49903 -2.40311 0
M  V30 11721 C 1094.5 2.29841 -3.6259 0
M  V30 11722 C 1093.73 3.54699 -3.98779 0
M  V30 11723 O 1093.96 4.61291 -3.3551 0
M  V30 11724 O 1092.89 3.46761 -4.91976 0
M  V30 11725 H 1096.72 0.833345 -2.92043 0
M  V30 11726 H 1094.3 0.346361 -1.4533 0
M  V30 11727 H 1096.18 3.27183 -2.65574 0
M  V30 11728 H 1094.86 2.84872 -1.5372 0
M  V30 11729 H 1093.77 1.50478 -3.42501 0
M  V30 11730 H 1095.1 1.99784 -4.4983 0
M  V30 11731 N 1096.75 1.52266 0.40654 0
M  V30 11732 C 1098 1.66452 1.15325 0
M  V30 11733 C 1098.33 0.395728 1.90432 0
M  V30 11734 O 1097.58 -0.621382 1.85573 0
M  V30 11735 C 1097.88 2.8389 2.1712 0
M  V30 11736 C 1097.55 4.22011 1.58801 0
M  V30 11737 C 1096.21 4.59579 1.42621 0
M  V30 11738 C 1098.56 5.08074 1.16236 0
M  V30 11739 C 1095.89 5.80885 0.823967 0
M  V30 11740 C 1098.24 6.29988 0.574284 0
M  V30 11741 C 1096.9 6.66303 0.399638 0
M  V30 11742 H 1096.17 0.609092 0.422005 0
M  V30 11743 H 1098.82 1.86374 0.440131 0
M  V30 11744 H 1097.13 2.58314 2.94586 0
M  V30 11745 H 1098.82 2.92063 2.74774 0
M  V30 11746 H 1095.41 3.92408 1.72378 0
M  V30 11747 H 1099.6 4.79631 1.27544 0
M  V30 11748 H 1094.85 6.07644 0.676694 0
M  V30 11749 H 1099.03 6.96 0.236081 0
M  V30 11750 H 1096.65 7.60169 -0.0691262 0
M  V30 11751 N 1098.23 -0.663929 1.42933 0
M  V30 11752 C 1099.16 -1.78899 1.50058 0
M  V30 11753 C 1100.14 -1.66329 0.356164 0
M  V30 11754 O 1101.32 -1.85587 0.571944 0
M  V30 11755 C 1098.45 -3.17265 1.41281 0
M  V30 11756 C 1097.41 -3.44584 2.53861 0
M  V30 11757 C 1096.73 -4.82638 2.3014 0
M  V30 11758 C 1098.03 -3.40394 3.96143 0
M  V30 11759 H 1099.73 -1.73194 2.44222 0
M  V30 11760 H 1097.27 -0.83182 1.17545 0
M  V30 11761 H 1099.23 -3.95715 1.44872 0
M  V30 11762 H 1097.95 -3.23675 0.43616 0
M  V30 11763 H 1096.61 -2.685 2.49606 0
M  V30 11764 H 1096.26 -4.85711 1.30743 0
M  V30 11765 H 1095.96 -5.01879 3.056 0
M  V30 11766 H 1097.48 -5.63359 2.35497 0
M  V30 11767 H 1098.9 -4.08796 4.01943 0
M  V30 11768 H 1097.29 -3.7117 4.71543 0
M  V30 11769 H 1098.36 -2.38767 4.22041 0
M  V30 11770 N 1099.71 -1.29285 -0.901281 0
M  V30 11771 C 1100.93 -1.20169 -1.69039 0
M  V30 11772 C 1101.36 0.234509 -1.86632 0
M  V30 11773 O 1100.71 1.16935 -1.38549 0
M  V30 11774 C 1100.76 -1.91852 -3.05328 0
M  V30 11775 O 1099.87 -1.23448 -3.9349 0
M  V30 11776 H 1099.21 -0.416486 -0.517141 0
M  V30 11777 H 1101.74 -1.70826 -1.12603 0
M  V30 11778 H 1101.75 -2.00244 -3.5548 0
M  V30 11779 H 1100.42 -2.96313 -2.91841 0
M  V30 11780 H 1099 -1.23303 -3.51924 0
M  V30 11781 N 1101.18 1.11143 -1.11736 0
M  V30 11782 C 1102.13 2.17274 -0.778513 0
M  V30 11783 C 1103.1 1.64186 0.251405 0
M  V30 11784 O 1104.29 1.90373 0.127629 0
M  V30 11785 C 1101.43 3.44324 -0.231246 0
M  V30 11786 C 1100.54 4.114 -1.31809 0
M  V30 11787 C 1099.67 5.26146 -0.73104 0
M  V30 11788 C 1098.71 5.85112 -1.79752 0
M  V30 11789 N 1097.85 6.91247 -1.22973 0
M  V30 11790 H 1102.69 2.45603 -1.68769 0
M  V30 11791 H 1100.23 1.20565 -0.842759 0
M  V30 11792 H 1102.19 4.1707 0.104045 0
M  V30 11793 H 1100.82 3.16369 0.641119 0
M  V30 11794 H 1099.87 3.36697 -1.77029 0
M  V30 11795 H 1101.18 4.51278 -2.12485 0
M  V30 11796 H 1100.33 6.05713 -0.345987 0
M  V30 11797 H 1099.07 4.87583 0.107 0
M  V30 11798 H 1098.08 5.0422 -2.19185 0
M  V30 11799 H 1099.3 6.25741 -2.63865 0
M  V30 11800 H 1097.25 6.54696 -0.41339 0
M  V30 11801 H 1097.17 7.29796 -1.97316 0
M  V30 11802 H 1098.43 7.74611 -0.87167 0
M  V30 11803 N 1102.66 0.908147 1.28804 0
M  V30 11804 C 1104.07 0.585727 1.77274 0
M  V30 11805 C 1104.42 -0.898842 1.744 0
M  V30 11806 O 1103.55 -1.70301 1.33516 0
M  V30 11807 C 1104.14 1.05647 3.21907 0
M  V30 11808 C 1102.7 0.785066 3.68122 0
M  V30 11809 C 1101.85 1.22638 2.48707 0
M  V30 11810 H 1104.8 1.09 1.15346 0
M  V30 11811 H 1104.82 0.395442 3.7844 0
M  V30 11812 H 1104.33 2.13698 3.23967 0
M  V30 11813 H 1102.44 -0.282477 3.71528 0
M  V30 11814 H 1102.55 1.38888 4.58527 0
M  V30 11815 H 1100.91 0.645217 2.46392 0
M  V30 11816 H 1101.7 2.31512 2.5349 0
M  V30 11817 N 1104.14 -1.42577 0.671525 0
M  V30 11818 C 1105.09 -2.30798 -0.00883676 0
M  V30 11819 C 1106.06 -1.4578 -0.796076 0
M  V30 11820 O 1107.24 -1.74617 -0.768987 0
M  V30 11821 C 1104.38 -3.31581 -0.956452 0
M  V30 11822 C 1103.5 -4.31691 -0.163381 0
M  V30 11823 C 1102.63 -5.19549 -1.10645 0
M  V30 11824 C 1101.67 -6.1134 -0.304876 0
M  V30 11825 N 1100.81 -6.91761 -1.20048 0
M  V30 11826 H 1105.65 -2.88426 0.749301 0
M  V30 11827 H 1103.18 -1.42074 0.381251 0
M  V30 11828 H 1105.14 -3.88539 -1.51966 0
M  V30 11829 H 1103.77 -2.75561 -1.68126 0
M  V30 11830 H 1102.82 -3.76879 0.516396 0
M  V30 11831 H 1104.14 -4.96683 0.459099 0
M  V30 11832 H 1103.29 -5.81223 -1.73969 0
M  V30 11833 H 1102.03 -4.54726 -1.76282 0
M  V30 11834 H 1101.03 -5.48738 0.341597 0
M  V30 11835 H 1102.26 -6.78211 0.347352 0
M  V30 11836 H 1100.2 -6.2957 -1.84331 0
M  V30 11837 H 1100.12 -7.53345 -0.633003 0
M  V30 11838 H 1101.39 -7.57924 -1.82129 0
M  V30 11839 N 1105.62 -0.414636 -1.52048 0
M  V30 11840 C 1106.58 0.396285 -2.25748 0
M  V30 11841 C 1107.58 0.969003 -1.28324 0
M  V30 11842 O 1108.77 0.847016 -1.52221 0
M  V30 11843 C 1105.9 1.55838 -3.03195 0
M  V30 11844 H 1107.1 -0.249311 -2.98862 0
M  V30 11845 H 1104.65 -0.167276 -1.55402 0
M  V30 11846 H 1105.38 2.24068 -2.34444 0
M  V30 11847 H 1105.17 1.15414 -3.74729 0
M  V30 11848 H 1106.66 2.13187 -3.59084 0
M  V30 11849 O 1107.14 1.58948 -0.285992 0
M  V30 11850 H 1107.83 1.9164 0.281753 0
M  V30 END ATOM
M  V30 BEGIN BOND
M  V30 END BOND
M  V30 END CTAB
M  END
$$$$
