drugbank_target|Q8IM15 HAP protein (DB11638)
 OpenBabel12092121113D

  0  0  0     0  0            999 V3000
M  V30 BEGIN CTAB
M  V30 COUNTS 7303 7391 0 0 0
M  V30 BEGIN ATOM
M  V30 1 H -0.908 1.98254 -0.117106 0
M  V30 2 N 0 1.576 0 0
M  V30 3 C 0.933 2.03868 1.02534 0
M  V30 4 C 1.911 0.928543 1.3348 0
M  V30 5 O 3.095 1.19667 1.45644 0
M  V30 6 C 0.222 2.43627 2.35294 0
M  V30 7 C -0.732 3.65373 2.2001 0
M  V30 8 S 0.101 5.13292 1.52614 0
M  V30 9 C 1.257 5.56322 2.86805 0
M  V30 10 H 1.49 2.90518 0.631377 0
M  V30 11 H -0.977 1.52953 0.210867 0
M  V30 12 H 0.981 2.67203 3.11629 0
M  V30 13 H -0.358 1.57376 2.7183 0
M  V30 14 H -1.165 3.90944 3.18086 0
M  V30 15 H -1.563 3.418 1.51819 0
M  V30 16 H 0.729 5.58782 3.83104 0
M  V30 17 H 1.672 6.56266 2.65933 0
M  V30 18 H 2.08 4.83886 2.90714 0
M  V30 19 N 1.4781 -0.272755 1.55222 0
M  V30 20 C 2.4261 -1.35705 1.88909 0
M  V30 21 C 3.4201 -1.5112 0.765456 0
M  V30 22 O 4.6261 -1.52901 0.949802 0
M  V30 23 H 1.0011 -0.453868 0.59959 0
M  V30 24 H 2.9721 -1.04544 2.79487 0
M  V30 25 C 1.7211 -2.71049 2.17779 0
M  V30 26 H 1.0441 -2.59979 3.03728 0
M  V30 27 H 2.4841 -3.45858 2.45272 0
M  V30 28 C 0.9431 -3.22165 0.985473 0
M  V30 29 O 1.4731 -4.01096 0.220233 0
M  V30 30 N -0.3209 -2.7985 0.783108 0
M  V30 31 H -0.7739 -2.15775 1.40708 0
M  V30 32 H -0.8159 -3.14397 -0.0130392 0
M  V30 33 N 2.9562 -1.48159 -0.537278 0
M  V30 34 C 3.8862 -1.65029 -1.6519 0
M  V30 35 C 4.8672 -0.499281 -1.62607 0
M  V30 36 O 6.0522 -0.730972 -1.79918 0
M  V30 37 C 3.1822 -1.68303 -3.03795 0
M  V30 38 C 2.1362 -2.8283 -3.21234 0
M  V30 39 C 1.4622 -2.71189 -4.60826 0
M  V30 40 C 2.7622 -4.24211 -3.04701 0
M  V30 41 H 4.4562 -2.58341 -1.51328 0
M  V30 42 H 2.0022 -1.24325 -0.726585 0
M  V30 43 H 3.9552 -1.78693 -3.81637 0
M  V30 44 H 2.6792 -0.715635 -3.18663 0
M  V30 45 H 1.3382 -2.71983 -2.45807 0
M  V30 46 H 0.9862 -1.72435 -4.7252 0
M  V30 47 H 0.6862 -3.48035 -4.7344 0
M  V30 48 H 2.2102 -2.83537 -5.40777 0
M  V30 49 H 3.6242 -4.3593 -3.72341 0
M  V30 50 H 2.0212 -5.01998 -3.28813 0
M  V30 51 H 3.0912 -4.41184 -2.01209 0
M  V30 52 N 4.4343 0.785586 -1.36625 0
M  V30 53 C 5.6623 1.57448 -1.3423 0
M  V30 54 C 6.0773 1.88649 0.0755653 0
M  V30 55 O 5.4343 1.50414 1.03354 0
M  V30 56 C 5.4853 2.89316 -2.16745 0
M  V30 57 O 5.2063 2.59459 -3.53005 0
M  V30 58 C 6.7073 3.83606 -2.22174 0
M  V30 59 H 3.9273 0.488226 -0.4603 0
M  V30 60 H 6.4713 0.974733 -1.79775 0
M  V30 61 H 4.6263 3.4575 -1.74745 0
M  V30 62 H 5.0403 3.43804 -3.96105 0
M  V30 63 H 6.5143 4.73181 -2.8426 0
M  V30 64 H 6.9913 4.21734 -1.22627 0
M  V30 65 H 7.5973 3.33104 -2.64427 0
M  V30 66 N 5.9124 1.20967 1.01018 0
M  V30 67 C 7.1614 1.01796 1.74128 0
M  V30 68 C 7.4744 -0.449691 1.90361 0
M  V30 69 O 8.6804 -0.76068 2.60626 0
M  V30 70 C 7.1364 1.7727 3.13215 0
M  V30 71 C 6.7444 3.28171 3.04972 0
M  V30 72 C 8.4884 1.66489 3.90489 0
M  V30 73 C 6.3954 3.96156 4.39107 0
M  V30 74 H 5.3254 0.377276 0.652824 0
M  V30 75 H 7.9764 1.44651 1.12909 0
M  V30 76 H 6.3584 1.27205 3.75013 0
M  V30 77 H 7.5324 3.85499 2.52443 0
M  V30 78 H 5.8474 3.39437 2.41188 0
M  V30 79 H 8.4444 2.14617 4.89738 0
M  V30 80 H 8.7874 0.6222 4.11624 0
M  V30 81 H 9.3204 2.14003 3.35332 0
M  V30 82 H 6.0594 5.00604 4.23174 0
M  V30 83 H 5.5794 3.43617 4.91617 0
M  V30 84 H 7.2584 4.00774 5.07926 0
M  V30 85 N 7.3905 -1.2043 1.01659 0
M  V30 86 C 8.3375 -2.23215 0.586822 0
M  V30 87 C 9.3075 -1.61382 -0.393085 0
M  V30 88 O 10.4925 -1.88544 -0.292525 0
M  V30 89 C 7.6325 -3.45032 -0.0687464 0
M  V30 90 C 6.7455 -4.21296 0.955724 0
M  V30 91 C 5.8805 -5.30507 0.271208 0
M  V30 92 C 4.9195 -5.98515 1.28244 0
M  V30 93 N 4.0565 -6.99316 0.62459 0
M  V30 94 H 8.8965 -2.59336 1.46796 0
M  V30 95 H 6.4335 -1.27431 0.734836 0
M  V30 96 H 8.3915 -4.1459 -0.465965 0
M  V30 97 H 7.0215 -3.09604 -0.913529 0
M  V30 98 H 6.0735 -3.50803 1.4711 0
M  V30 99 H 7.3855 -4.6803 1.72479 0
M  V30 100 H 6.5395 -6.06428 -0.18151 0
M  V30 101 H 5.2785 -4.8481 -0.530163 0
M  V30 102 H 4.2835 -5.21355 1.74554 0
M  V30 103 H 5.5085 -6.46298 2.08509 0
M  V30 104 H 3.4545 -6.55812 -0.156914 0
M  V30 105 H 3.3715 -7.44178 1.33172 0
M  V30 106 H 4.6395 -7.79255 0.195462 0
M  V30 107 N 8.8686 -0.792821 -1.36206 0
M  V30 108 C 9.7786 -0.194808 -2.3379 0
M  V30 109 C 10.7946 0.654869 -1.61206 0
M  V30 110 O 11.9706 0.569856 -1.9317 0
M  V30 111 C 9.0356 0.657721 -3.40404 0
M  V30 112 C 8.0966 -0.210849 -4.28782 0
M  V30 113 C 7.3296 0.601086 -5.30304 0
M  V30 114 O 7.5526 1.83682 -5.40016 0
M  V30 115 O 6.4866 -0.000808277 -6.019 0
M  V30 116 H 10.3126 -1.00172 -2.86704 0
M  V30 117 H 7.8976 -0.554341 -1.38735 0
M  V30 118 H 9.7796 1.14375 -4.05581 0
M  V30 119 H 8.4546 1.44247 -2.89784 0
M  V30 120 H 7.3616 -0.743714 -3.66633 0
M  V30 121 H 8.6946 -0.959195 -4.82763 0
M  V30 122 N 10.3467 1.47872 -0.545128 0
M  V30 123 C 11.2567 2.33633 0.212746 0
M  V30 124 C 12.2727 1.4744 0.923983 0
M  V30 125 O 13.4487 1.80393 0.895572 0
M  V30 126 C 10.5137 3.23884 1.23693 0
M  V30 127 C 9.5747 4.25961 0.534417 0
M  V30 128 C 8.8077 5.11899 1.5098 0
M  V30 129 O 9.0307 5.00077 2.7437 0
M  V30 130 O 7.9647 5.92831 1.0409 0
M  V30 131 H 11.7907 2.99714 -0.490416 0
M  V30 132 H 9.3757 1.46235 -0.305871 0
M  V30 133 H 11.2577 3.79666 1.82843 0
M  V30 134 H 9.9327 2.60446 1.92222 0
M  V30 135 H 8.8397 3.73972 -0.0979679 0
M  V30 136 H 10.1727 4.92079 -0.109213 0
M  V30 137 N 11.8248 0.280983 1.55075 0
M  V30 138 C 13.1018 -0.386207 1.91749 0
M  V30 139 C 13.4818 -1.73264 1.20594 0
M  V30 140 O 12.8298 -2.26034 0.334784 0
M  V30 141 C 13.0398 -0.520687 3.45094 0
M  V30 142 C 14.3878 -0.800865 4.16979 0
M  V30 143 O 15.4118 -0.605271 3.5102 0
M  V30 144 O 14.2708 -1.1753 5.33712 0
M  V30 145 H 11.3648 -0.212408 0.799257 0
M  V30 146 H 13.9108 0.327568 1.66509 0
M  V30 147 H 12.6828 0.426633 3.88967 0
M  V30 148 H 12.3058 -1.2837 3.76307 0
M  V30 149 N 13.3029 -1.57598 0.00835791 0
M  V30 150 C 14.5499 -1.90928 -0.674732 0
M  V30 151 C 14.8779 -0.88277 -1.73313 0
M  V30 152 O 14.1329 0.111294 -1.95383 0
M  V30 153 C 14.4319 -3.3101 -1.34787 0
M  V30 154 C 14.0979 -4.48922 -0.421861 0
M  V30 155 C 12.7599 -4.8091 -0.166927 0
M  V30 156 C 15.1119 -5.20755 0.215211 0
M  V30 157 C 12.4399 -5.821 0.733232 0
M  V30 158 C 14.7919 -6.22905 1.1033 0
M  V30 159 C 13.4559 -6.53346 1.36733 0
M  V30 160 H 12.7259 -0.698656 -0.246902 0
M  V30 161 H 15.3729 -1.91387 0.0656779 0
M  V30 162 H 13.6779 -3.26714 -2.16253 0
M  V30 163 H 15.3749 -3.54061 -1.8826 0
M  V30 164 H 11.9649 -4.23934 -0.630729 0
M  V30 165 H 16.1489 -4.9629 0.0312829 0
M  V30 166 H 11.4049 -6.04042 0.945712 0
M  V30 167 H 15.5789 -6.77694 1.60325 0
M  V30 168 H 13.2059 -7.31573 2.06652 0
M  V30 169 N 14.781 0.264519 -1.55364 0
M  V30 170 C 16.009 1.013 -1.80405 0
M  V30 171 C 16.424 1.79618 -0.581622 0
M  V30 172 O 15.781 1.76879 0.449468 0
M  V30 173 C 15.832 1.96487 -3.03439 0
M  V30 174 O 15.553 1.21341 -4.20961 0
M  V30 175 C 17.054 2.83079 -3.41147 0
M  V30 176 H 14.274 0.298875 -0.600762 0
M  V30 177 H 16.818 0.292736 -2.02394 0
M  V30 178 H 14.973 2.63965 -2.83551 0
M  V30 179 H 15.387 1.85573 -4.90574 0
M  V30 180 H 16.861 3.4565 -4.30384 0
M  V30 181 H 17.338 3.53286 -2.60932 0
M  V30 182 H 17.944 2.2108 -3.63323 0
M  V30 183 N 16.2591 1.48442 0.529413 0
M  V30 184 C 17.2071 1.63452 1.65487 0
M  V30 185 C 18.2011 0.500955 1.61823 0
M  V30 186 O 19.4071 0.679695 1.66674 0
M  V30 187 H 15.7821 0.514905 0.548066 0
M  V30 188 H 17.7531 2.57975 1.49971 0
M  V30 189 C 16.5021 1.69196 3.03756 0
M  V30 190 H 15.8251 2.55784 3.07269 0
M  V30 191 H 17.2651 1.83743 3.82119 0
M  V30 192 C 15.7241 0.430765 3.34135 0
M  V30 193 O 16.2541 -0.4561 3.99102 0
M  V30 194 N 14.4601 0.302293 2.89023 0
M  V30 195 H 14.0071 1.02496 2.36331 0
M  V30 196 H 13.9651 -0.540546 3.09718 0
M  V30 197 N 17.7372 -0.778329 1.37039 0
M  V30 198 C 18.9652 -1.56734 1.35063 0
M  V30 199 C 19.3802 -1.88686 -0.0655597 0
M  V30 200 O 18.7372 -1.5096 -1.02554 0
M  V30 201 C 18.7882 -2.88163 2.18276 0
M  V30 202 O 18.5092 -2.57583 3.54376 0
M  V30 203 C 20.0102 -3.82422 2.24206 0
M  V30 204 H 17.2302 -0.485778 0.462883 0
M  V30 205 H 19.7742 -0.965185 1.8029 0
M  V30 206 H 17.9292 -3.44818 1.76576 0
M  V30 207 H 18.3432 -3.41699 3.97922 0
M  V30 208 H 19.8172 -4.71667 2.86765 0
M  V30 209 H 20.2942 -4.21078 1.24861 0
M  V30 210 H 20.9002 -3.31697 2.6619 0
M  V30 211 N 19.2153 -1.21501 -1.00376 0
M  V30 212 C 20.4623 -1.03299 -1.74171 0
M  V30 213 C 20.7903 0.433326 -1.89612 0
M  V30 214 O 20.0453 1.33779 -1.42834 0
M  V30 215 C 20.3443 -1.67673 -3.15627 0
M  V30 216 C 20.0103 -3.17533 -3.2013 0
M  V30 217 C 18.6723 -3.58427 -3.21067 0
M  V30 218 C 21.0243 -4.13504 -3.17275 0
M  V30 219 C 18.3523 -4.93794 -3.16835 0
M  V30 220 C 20.7043 -5.48834 -3.14585 0
M  V30 221 C 19.3683 -5.89123 -3.13831 0
M  V30 222 H 18.6383 -0.377999 -0.637336 0
M  V30 223 H 21.2853 -1.51111 -1.17634 0
M  V30 224 H 19.5903 -1.12158 -3.75404 0
M  V30 225 H 21.2873 -1.51091 -3.71446 0
M  V30 226 H 17.8773 -2.84965 -3.20145 0
M  V30 227 H 22.0613 -3.82936 -3.15711 0
M  V30 228 H 17.3173 -5.24255 -3.1459 0
M  V30 229 H 21.4913 -6.22934 -3.1133 0
M  V30 230 H 19.1183 -6.93984 -3.10307 0
M  V30 231 N 20.6934 1.19889 -1.02296 0
M  V30 232 C 21.6264 2.21639 -0.543282 0
M  V30 233 C 22.6044 1.57275 0.412698 0
M  V30 234 O 23.7884 1.85568 0.331198 0
M  V30 235 C 20.9154 3.38057 0.208571 0
M  V30 236 C 19.9614 4.20751 -0.697933 0
M  V30 237 S 20.7944 4.89529 -2.17075 0
M  V30 238 C 21.9504 6.09363 -1.42923 0
M  V30 239 H 22.1834 2.61984 -1.40541 0
M  V30 240 H 19.7164 1.30041 -0.832387 0
M  V30 241 H 21.6744 4.05539 0.63624 0
M  V30 242 H 20.3354 2.96159 1.04635 0
M  V30 243 H 19.5284 5.03862 -0.117831 0
M  V30 244 H 19.1304 3.58556 -1.06366 0
M  V30 245 H 21.4224 6.73742 -0.712637 0
M  V30 246 H 22.3654 6.71845 -2.23673 0
M  V30 247 H 22.7734 5.56798 -0.929327 0
M  V30 248 N 22.1715 0.800033 1.35784 0
M  V30 249 C 23.1185 0.203848 2.29898 0
M  V30 250 C 24.0885 -0.658375 1.52495 0
M  V30 251 O 25.2735 -0.604832 1.8096 0
M  V30 252 C 22.4135 -0.64688 3.38983 0
M  V30 253 C 21.5265 0.235054 4.3136 0
M  V30 254 C 20.6615 -0.623054 5.27533 0
M  V30 255 C 19.7005 0.259682 6.11549 0
M  V30 256 N 18.8375 -0.558019 6.99879 0
M  V30 257 H 23.6775 1.01186 2.80295 0
M  V30 258 H 21.2145 0.51053 1.37957 0
M  V30 259 H 23.1725 -1.15521 4.00887 0
M  V30 260 H 21.8025 -1.42021 2.89879 0
M  V30 261 H 20.8545 0.861438 3.70518 0
M  V30 262 H 22.1665 0.914768 4.9034 0
M  V30 263 H 21.3205 -1.19678 5.94779 0
M  V30 264 H 20.0595 -1.33636 4.69034 0
M  V30 265 H 19.0645 0.845726 5.43256 0
M  V30 266 H 20.2895 0.970748 6.72126 0
M  V30 267 H 18.2355 -1.25542 6.43875 0
M  V30 268 H 18.1525 0.0637872 7.55973 0
M  V30 269 H 19.4205 -1.11523 7.71481 0
M  V30 270 N 23.6496 -1.47581 0.552962 0
M  V30 271 C 24.5976 -2.31648 -0.21023 0
M  V30 272 C 25.5916 -1.42663 -0.913432 0
M  V30 273 O 26.7976 -1.5945 -0.835201 0
M  V30 274 H 23.1726 -0.746989 -0.0866676 0
M  V30 275 H 25.1436 -2.93869 0.518051 0
M  V30 276 C 23.8926 -3.25226 -1.22976 0
M  V30 277 H 23.2156 -3.93658 -0.698077 0
M  V30 278 H 24.6556 -3.86889 -1.73473 0
M  V30 279 C 23.1146 -2.48448 -2.27542 0
M  V30 280 O 23.6446 -2.22585 -3.34393 0
M  V30 281 N 21.8506 -2.09532 -2.01357 0
M  V30 282 H 21.3976 -2.30765 -1.14478 0
M  V30 283 H 21.3556 -1.58476 -2.71538 0
M  V30 284 N 25.1277 -0.289203 -1.54924 0
M  V30 285 C 26.0377 0.601863 -2.26748 0
M  V30 286 C 27.0537 1.15834 -1.2984 0
M  V30 287 O 28.2297 1.18564 -1.62802 0
M  V30 288 C 25.2947 1.76299 -2.98529 0
M  V30 289 C 24.3557 1.24178 -4.10948 0
M  V30 290 C 23.5887 2.34757 -4.79296 0
M  V30 291 O 23.8117 3.54411 -4.46933 0
M  V30 292 O 22.7457 2.02115 -5.66951 0
M  V30 293 H 26.5717 0.0195879 -3.03694 0
M  V30 294 H 24.1567 -0.0560868 -1.49295 0
M  V30 295 H 26.0387 2.43973 -3.43592 0
M  V30 296 H 24.7137 2.33209 -2.24488 0
M  V30 297 H 23.6207 0.531104 -3.70311 0
M  V30 298 H 24.9537 0.718252 -4.86931 0
M  V30 299 N 26.6058 1.57591 -0.0167156 0
M  V30 300 C 27.5158 2.1291 0.98521 0
M  V30 301 C 28.5318 1.07834 1.36557 0
M  V30 302 O 29.7078 1.39826 1.44951 0
M  V30 303 C 26.7728 2.63512 2.25305 0
M  V30 304 C 25.8338 3.83256 1.93426 0
M  V30 305 C 25.0668 4.31435 3.14165 0
M  V30 306 O 25.2898 3.78851 4.26413 0
M  V30 307 O 24.2238 5.23416 2.97186 0
M  V30 308 H 28.0498 2.98772 0.544888 0
M  V30 309 H 25.6348 1.48012 0.203141 0
M  V30 310 H 27.5168 2.96183 2.99756 0
M  V30 311 H 26.1918 1.8074 2.68542 0
M  V30 312 H 25.0988 3.55531 1.16398 0
M  V30 313 H 26.4318 4.67153 1.55013 0
M  V30 314 N 28.0839 -0.256276 1.55502 0
M  V30 315 C 29.3089 -1.00766 1.81276 0
M  V30 316 C 29.7339 -1.78524 0.59252 0
M  V30 317 O 29.0919 -1.75413 -0.45827 0
M  V30 318 C 29.1399 -1.92869 3.04687 0
M  V30 319 O 28.2439 -3.019 2.80945 0
M  V30 320 H 27.5849 -0.287224 0.598664 0
M  V30 321 H 30.1149 -0.280109 2.02674 0
M  V30 322 H 30.1249 -2.34511 3.33869 0
M  V30 323 H 28.7999 -1.35689 3.93143 0
M  V30 324 H 27.3769 -2.64454 2.62904 0
M  V30 325 N 29.562 -1.4872 -0.521534 0
M  V30 326 C 30.809 -1.57168 -1.27689 0
M  V30 327 C 31.137 -0.249275 -1.92896 0
M  V30 328 O 30.392 0.761162 -1.80291 0
M  V30 329 C 30.691 -2.66497 -2.38148 0
M  V30 330 C 30.357 -4.08664 -1.90538 0
M  V30 331 C 29.019 -4.47357 -1.77271 0
M  V30 332 C 31.371 -4.97724 -1.54663 0
M  V30 333 C 28.699 -5.72905 -1.26478 0
M  V30 334 C 31.051 -6.2377 -1.05329 0
M  V30 335 C 29.715 -6.61311 -0.906861 0
M  V30 336 H 28.985 -0.575117 -0.467249 0
M  V30 337 H 31.632 -1.82472 -0.581051 0
M  V30 338 H 29.937 -2.35085 -3.13437 0
M  V30 339 H 31.634 -2.70246 -2.96257 0
M  V30 340 H 28.224 -3.78111 -2.01816 0
M  V30 341 H 32.408 -4.68501 -1.63768 0
M  V30 342 H 27.664 -6.00709 -1.13835 0
M  V30 343 H 31.838 -6.9217 -0.76644 0
M  V30 344 H 29.465 -7.5848 -0.511083 0
M  V30 345 N 31.0401 0.771051 -1.3745 0
M  V30 346 C 31.9881 1.90574 -1.33358 0
M  V30 347 C 32.9821 1.67936 -0.22224 0
M  V30 348 O 34.1881 1.75717 -0.390304 0
M  V30 349 H 30.5631 0.626714 -0.415612 0
M  V30 350 H 32.5341 1.91142 -2.29144 0
M  V30 351 C 31.2831 3.27845 -1.15813 0
M  V30 352 H 30.6061 3.45842 -2.00583 0
M  V30 353 H 32.0461 4.07538 -1.17 0
M  V30 354 C 30.5051 3.36625 0.136165 0
M  V30 355 O 31.0351 3.85785 1.11949 0
M  V30 356 N 29.2411 2.89997 0.187099 0
M  V30 357 H 28.7881 2.50182 -0.613753 0
M  V30 358 H 28.7461 2.96252 1.05272 0
M  V30 359 N 32.5182 1.22032 0.997298 0
M  V30 360 C 33.7462 1.06841 1.7718 0
M  V30 361 C 34.1612 -0.381325 1.84909 0
M  V30 362 O 33.5182 -1.26437 1.31605 0
M  V30 363 C 33.5692 1.66814 3.20711 0
M  V30 364 O 33.2902 3.06116 3.13408 0
M  V30 365 C 34.7912 1.56838 4.14628 0
M  V30 366 H 32.0112 0.374782 0.556578 0
M  V30 367 H 34.5552 1.61532 1.2541 0
M  V30 368 H 32.7102 1.16196 3.69564 0
M  V30 369 H 33.1242 3.34926 4.0364 0
M  V30 370 H 34.5982 2.03532 5.13107 0
M  V30 371 H 35.0752 0.524155 4.36061 0
M  V30 372 H 35.6812 2.06741 3.7167 0
M  V30 373 N 33.9963 -1.19345 1.0293 0
M  V30 374 C 35.2433 -1.89038 0.726008 0
M  V30 375 C 35.5713 -1.79649 -0.745427 0
M  V30 376 O 34.8263 -1.18354 -1.55855 0
M  V30 377 C 35.1253 -3.39292 1.12319 0
M  V30 378 C 34.7913 -3.68885 2.59297 0
M  V30 379 C 33.4533 -3.76671 2.99453 0
M  V30 380 C 35.8053 -3.82178 3.54386 0
M  V30 381 C 33.1333 -3.9522 4.33611 0
M  V30 382 C 35.4853 -4.0224 4.88248 0
M  V30 383 C 34.1493 -4.08259 5.28092 0
M  V30 384 H 33.4193 -0.691739 0.265665 0
M  V30 385 H 36.0663 -1.41328 1.29223 0
M  V30 386 H 34.3713 -3.88903 0.475584 0
M  V30 387 H 36.0683 -3.91536 0.866037 0
M  V30 388 H 32.6583 -3.63433 2.27189 0
M  V30 389 H 36.8423 -3.75505 3.24514 0
M  V30 390 H 32.0983 -3.98119 4.64016 0
M  V30 391 H 36.2723 -4.11468 5.61843 0
M  V30 392 H 33.8993 -4.22384 6.32057 0
M  V30 393 N 35.4744 -0.807222 -1.35358 0
M  V30 394 C 36.8904 -0.491038 -1.51858 0
M  V30 395 C 37.0904 0.987648 -1.75635 0
M  V30 396 O 36.1464 1.77265 -1.79815 0
M  V30 397 C 37.4594 -1.33695 -2.69344 0
M  V30 398 C 39.0074 -1.33246 -2.83222 0
M  V30 399 C 39.4824 -2.1625 -4.03733 0
M  V30 400 N 40.9734 -2.1379 -4.10911 0
M  V30 401 C 41.7084 -2.74772 -5.03277 0
M  V30 402 N 41.2044 -3.44684 -6.0097 0
M  V30 403 N 42.9974 -2.6441 -4.96028 0
M  V30 404 H 35.1484 -1.76485 -1.18181 0
M  V30 405 H 37.4114 -0.751199 -0.578276 0
M  V30 406 H 37.1174 -2.38634 -2.58354 0
M  V30 407 H 36.9914 -0.990618 -3.6396 0
M  V30 408 H 39.3784 -0.290911 -2.93663 0
M  V30 409 H 39.4594 -1.71866 -1.89461 0
M  V30 410 H 39.1034 -3.20445 -3.94052 0
M  V30 411 H 39.0334 -1.74989 -4.96675 0
M  V30 412 H 41.5244 -1.62923 -3.40976 0
M  V30 413 H 41.8374 -3.88501 -6.68047 0
M  V30 414 H 40.1824 -3.48788 -6.01142 0
M  V30 415 H 43.3734 -2.0938 -4.18662 0
M  V30 416 H 43.5464 -3.12225 -5.6782 0
M  V30 417 N 36.9525 1.47285 -0.560781 0
M  V30 418 C 38.1985 2.02764 -0.0381184 0
M  V30 419 C 38.5315 1.43384 1.30976 0
M  V30 420 O 37.8065 0.590733 1.85312 0
M  V30 421 C 38.0895 3.60064 0.0511427 0
M  V30 422 C 37.9425 4.2987 -1.32408 0
M  V30 423 C 39.2615 4.33439 0.762795 0
M  V30 424 H 36.3805 0.736841 -0.0153264 0
M  V30 425 H 39.0225 1.75675 -0.723759 0
M  V30 426 H 37.1725 3.83274 0.635065 0
M  V30 427 H 38.8445 4.17989 -1.95148 0
M  V30 428 H 37.0875 3.90085 -1.8978 0
M  V30 429 H 37.7585 5.38478 -1.21431 0
M  V30 430 H 40.2345 4.15243 0.266965 0
M  V30 431 H 39.1105 5.43124 0.794221 0
M  V30 432 H 39.3715 4.02915 1.81966 0
M  V30 433 N 38.4306 0.297415 1.54768 0
M  V30 434 C 39.6586 -0.315623 2.04478 0
M  V30 435 C 40.0736 -1.47792 1.17486 0
M  V30 436 O 39.4306 -1.81404 0.19971 0
M  V30 437 C 39.4816 -0.7753 3.53088 0
M  V30 438 O 39.2026 0.340732 4.36773 0
M  V30 439 C 40.7036 -1.45386 4.18781 0
M  V30 440 H 37.9236 -0.0690887 0.667434 0
M  V30 441 H 40.4676 0.436003 1.99798 0
M  V30 442 H 38.6226 -1.47696 3.58141 0
M  V30 443 H 39.0366 -0.0165035 5.24497 0
M  V30 444 H 40.5106 -1.72669 5.24299 0
M  V30 445 H 40.9876 -2.39275 3.68299 0
M  V30 446 H 41.5936 -0.795475 4.17795 0
M  V30 447 N 39.9087 -1.5758 0.0250728 0
M  V30 448 C 40.8557 -2.09973 -0.958129 0
M  V30 449 C 41.8257 -1.00085 -1.3256 0
M  V30 450 O 43.0107 -1.27481 -1.41962 0
M  V30 451 C 40.1507 -2.62812 -2.2366 0
M  V30 452 C 39.2637 -3.86693 -1.92594 0
M  V30 453 C 38.3987 -4.27941 -3.14707 0
M  V30 454 C 37.4377 -5.44591 -2.79442 0
M  V30 455 N 36.5747 -5.81014 -3.94167 0
M  V30 456 H 41.4147 -2.937 -0.504428 0
M  V30 457 H 38.9517 -1.45172 -0.237392 0
M  V30 458 H 40.9097 -2.91536 -2.98434 0
M  V30 459 H 39.5397 -1.81922 -2.66654 0
M  V30 460 H 38.5917 -3.64723 -1.0808 0
M  V30 461 H 39.9037 -4.71547 -1.62619 0
M  V30 462 H 39.0577 -4.58079 -3.97804 0
M  V30 463 H 37.7967 -3.41845 -3.4784 0
M  V30 464 H 36.8017 -5.1415 -1.94755 0
M  V30 465 H 38.0267 -6.32382 -2.47528 0
M  V30 466 H 35.9727 -4.97874 -4.2715 0
M  V30 467 H 35.8897 -6.60498 -3.67801 0
M  V30 468 H 37.1577 -6.15756 -4.7798 0
M  V30 469 N 41.3868 0.248026 -1.55636 0
M  V30 470 C 42.6328 0.97767 -1.77678 0
M  V30 471 C 42.9658 1.85016 -0.590135 0
M  V30 472 O 42.2408 1.90095 0.411611 0
M  V30 473 C 42.5238 1.83914 -3.09593 0
M  V30 474 C 42.3768 0.99491 -4.38659 0
M  V30 475 C 43.6958 2.82183 -3.37729 0
M  V30 476 H 40.8148 0.354005 -0.646413 0
M  V30 477 H 43.4568 0.248253 -1.88371 0
M  V30 478 H 41.6068 2.46104 -3.00608 0
M  V30 479 H 43.2788 0.391789 -4.59633 0
M  V30 480 H 41.5218 0.299231 -4.32767 0
M  V30 481 H 42.1928 1.63145 -5.2734 0
M  V30 482 H 44.6688 2.30129 -3.4667 0
M  V30 483 H 43.5448 3.39582 -4.31249 0
M  V30 484 H 43.8058 3.58588 -2.58586 0
M  V30 485 N 42.8649 1.48995 0.513639 0
M  V30 486 C 43.8119 1.6473 1.61656 0
M  V30 487 C 44.7819 0.488984 1.58739 0
M  V30 488 O 45.9669 0.714478 1.76918 0
M  V30 489 C 43.1069 1.7082 2.99858 0
M  V30 490 C 42.2199 2.9787 3.12885 0
M  V30 491 C 41.3549 2.95017 4.41744 0
M  V30 492 C 40.3939 4.16702 4.48359 0
M  V30 493 N 39.5309 4.11832 5.68629 0
M  V30 494 H 44.3709 2.58909 1.47547 0
M  V30 495 H 41.9079 1.28382 0.71808 0
M  V30 496 H 43.8659 1.72331 3.79944 0
M  V30 497 H 42.4959 0.801181 3.12699 0
M  V30 498 H 41.5479 3.06029 2.25944 0
M  V30 499 H 42.8599 3.8786 3.13633 0
M  V30 500 H 42.0139 2.95021 5.30139 0
M  V30 501 H 40.7529 2.02784 4.43542 0
M  V30 502 H 39.7579 4.16955 3.58369 0
M  V30 503 H 40.9829 5.10113 4.48287 0
M  V30 504 H 38.9289 3.22428 5.71293 0
M  V30 505 H 38.8459 4.95543 5.7094 0
M  V30 506 H 40.1139 4.1592 6.59266 0
M  V30 507 N 44.343 -0.763751 1.37857 0
M  V30 508 C 45.759 -1.06542 1.18832 0
M  V30 509 C 45.959 -2.01478 0.0299722 0
M  V30 510 O 45.015 -2.4458 -0.627447 0
M  V30 511 C 46.328 -1.65525 2.51042 0
M  V30 512 C 47.876 -1.77745 2.57635 0
M  V30 513 C 48.351 -2.4014 3.89996 0
M  V30 514 N 49.842 -2.47582 3.91481 0
M  V30 515 C 50.577 -2.96732 4.9065 0
M  V30 516 N 50.073 -3.45993 6.00217 0
M  V30 517 N 51.866 -2.95679 4.78048 0
M  V30 518 H 44.017 -0.133556 2.1198 0
M  V30 519 H 46.28 -0.121879 0.940133 0
M  V30 520 H 45.986 -1.03236 3.36207 0
M  V30 521 H 45.86 -2.64719 2.68707 0
M  V30 522 H 48.247 -2.39164 1.72872 0
M  V30 523 H 48.328 -0.772836 2.43846 0
M  V30 524 H 47.972 -1.79358 4.75177 0
M  V30 525 H 47.902 -3.41223 4.01092 0
M  V30 526 H 50.393 -2.1273 3.12337 0
M  V30 527 H 50.706 -3.81922 6.7183 0
M  V30 528 H 49.051 -3.44077 6.03851 0
M  V30 529 H 52.242 -2.56499 3.91568 0
M  V30 530 H 52.415 -3.33672 5.55488 0
M  V30 531 N 45.8211 -1.22559 -0.990812 0
M  V30 532 C 47.0671 -1.06303 -1.73411 0
M  V30 533 C 47.4221 0.397442 -1.8825 0
M  V30 534 O 46.7151 1.29062 -1.41611 0
M  V30 535 C 46.9091 -1.71011 -3.13831 0
M  V30 536 C 46.7381 -3.232 -3.12685 0
M  V30 537 C 45.5081 -3.92314 -3.18461 0
M  V30 538 C 47.7061 -4.20107 -2.96673 0
M  V30 539 N 45.6881 -5.31571 -3.07091 0
M  V30 540 C 47.0591 -5.46208 -2.93354 0
M  V30 541 C 49.1141 -4.10973 -2.8108 0
M  V30 542 C 47.8171 -6.64225 -2.76039 0
M  V30 543 C 49.8431 -5.28642 -2.65126 0
M  V30 544 C 49.2051 -6.53663 -2.62496 0
M  V30 545 H 45.3041 -0.443441 -0.644115 0
M  V30 546 H 47.8881 -1.55131 -1.17654 0
M  V30 547 H 46.0591 -1.2473 -3.67827 0
M  V30 548 H 47.7911 -1.47828 -3.76735 0
M  V30 549 H 44.5461 -3.43326 -3.26227 0
M  V30 550 H 44.9701 -6.0455 -3.0471 0
M  V30 551 H 49.6121 -3.15098 -2.8191 0
M  V30 552 H 47.3301 -7.60246 -2.73954 0
M  V30 553 H 50.9161 -5.23407 -2.54039 0
M  V30 554 H 49.7961 -7.43182 -2.50302 0
M  V30 555 N 47.2992 1.18797 -1.03562 0
M  V30 556 C 48.2472 2.24297 -0.615905 0
M  V30 557 C 49.2412 1.65643 0.354808 0
M  V30 558 O 50.4472 1.78618 0.22265 0
M  V30 559 H 46.8222 0.729909 -0.180934 0
M  V30 560 H 48.7932 2.5701 -1.5162 0
M  V30 561 C 47.5422 3.47698 0.0104735 0
M  V30 562 H 46.8652 3.93125 -0.727509 0
M  V30 563 H 48.3052 4.23159 0.266995 0
M  V30 564 C 46.7642 3.12489 1.25905 0
M  V30 565 O 47.2942 3.25761 2.35038 0
M  V30 566 N 45.5002 2.6686 1.15039 0
M  V30 567 H 45.0472 2.56261 0.262328 0
M  V30 568 H 45.0052 2.43674 1.98672 0
M  V30 569 N 48.7773 0.814389 1.34928 0
M  V30 570 C 49.7403 0.235759 2.27984 0
M  V30 571 C 50.7403 -0.581412 1.49921 0
M  V30 572 O 51.9303 -0.398758 1.69575 0
M  V30 573 C 49.0623 -0.670433 3.34242 0
M  V30 574 H 50.2553 1.05659 2.80671 0
M  V30 575 H 47.8083 0.585614 1.44915 0
M  V30 576 H 48.5433 -1.51466 2.86755 0
M  V30 577 H 48.3283 -0.0860822 3.92005 0
M  V30 578 H 49.8183 -1.06935 4.03676 0
M  V30 579 N 50.2554 -1.46986 0.568584 0
M  V30 580 C 51.2024 -2.30153 -0.172707 0
M  V30 581 C 52.1724 -1.39759 -0.897586 0
M  V30 582 O 53.3574 -1.68716 -0.891044 0
M  V30 583 C 50.4974 -3.23952 -1.1895 0
M  V30 584 C 49.6104 -4.29441 -0.469517 0
M  V30 585 C 48.7454 -5.1038 -1.47259 0
M  V30 586 C 47.7844 -6.07632 -0.738225 0
M  V30 587 N 46.9214 -6.8149 -1.68868 0
M  V30 588 H 51.7614 -2.93019 0.542596 0
M  V30 589 H 49.2984 -1.44422 0.279401 0
M  V30 590 H 51.2564 -3.76767 -1.79173 0
M  V30 591 H 49.8864 -2.62926 -1.87269 0
M  V30 592 H 48.9384 -3.79594 0.247467 0
M  V30 593 H 50.2504 -4.98689 0.105241 0
M  V30 594 H 49.4044 -5.67402 -2.14803 0
M  V30 595 H 48.1434 -4.4106 -2.08128 0
M  V30 596 H 47.1484 -5.49778 -0.0489293 0
M  V30 597 H 48.3734 -6.78966 -0.135129 0
M  V30 598 H 46.3194 -6.14891 -2.28573 0
M  V30 599 H 46.2364 -7.46948 -1.16636 0
M  V30 600 H 47.5044 -7.43078 -2.3549 0
M  V30 601 N 51.7335 -0.305618 -1.54608 0
M  V30 602 C 53.1495 0.0476228 -1.59529 0
M  V30 603 C 53.3495 1.52025 -1.32252 0
M  V30 604 O 52.4055 2.27368 -1.09818 0
M  V30 605 C 53.7185 -0.354471 -2.98603 0
M  V30 606 C 55.2665 -0.303622 -3.11524 0
M  V30 607 C 55.7415 -0.680608 -4.52915 0
M  V30 608 N 57.2325 -0.63332 -4.5885 0
M  V30 609 C 57.9675 -0.897432 -5.66334 0
M  V30 610 N 57.4635 -1.22775 -6.81834 0
M  V30 611 N 59.2565 -0.824186 -5.56025 0
M  V30 612 H 51.4075 -1.2653 -1.70599 0
M  V30 613 H 53.6705 -0.513291 -0.797017 0
M  V30 614 H 53.3765 -1.3798 -3.23503 0
M  V30 615 H 53.2505 0.289568 -3.76087 0
M  V30 616 H 55.6375 0.712472 -2.8637 0
M  V30 617 H 55.7185 -0.982348 -2.36185 0
M  V30 618 H 55.3625 -1.69453 -4.78799 0
M  V30 619 H 55.2925 0.0202385 -5.26596 0
M  V30 620 H 57.7835 -0.389138 -3.75891 0
M  V30 621 H 58.0965 -1.41513 -7.59733 0
M  V30 622 H 56.4415 -1.26583 -6.83375 0
M  V30 623 H 59.6325 -0.565748 -4.64669 0
M  V30 624 H 59.8055 -1.03338 -6.39707 0
M  V30 625 N 53.2116 1.57565 -0.0334293 0
M  V30 626 C 54.1416 2.13511 0.945265 0
M  V30 627 C 55.1226 1.05231 1.33643 0
M  V30 628 O 56.3076 1.33084 1.41429 0
M  V30 629 C 53.4376 2.6657 2.22616 0
M  V30 630 C 52.3916 3.79676 1.97561 0
M  V30 631 C 51.7176 4.1918 3.31952 0
M  V30 632 C 53.0176 5.0557 1.31135 0
M  V30 633 H 54.7116 2.95538 0.479325 0
M  V30 634 H 52.2576 1.42166 0.229115 0
M  V30 635 H 54.2106 3.04344 2.91466 0
M  V30 636 H 52.9346 1.8171 2.71384 0
M  V30 637 H 51.5936 3.42347 1.31127 0
M  V30 638 H 51.2416 3.31296 3.78487 0
M  V30 639 H 50.9416 4.95402 3.15992 0
M  V30 640 H 52.4656 4.59541 4.02063 0
M  V30 641 H 53.8796 5.40903 1.89992 0
M  V30 642 H 52.2766 5.86818 1.25559 0
M  V30 643 H 53.3466 4.84062 0.284894 0
M  V30 644 N 54.6897 -0.239769 1.55765 0
M  V30 645 C 55.9367 -0.966801 1.7793 0
M  V30 646 C 56.2647 -1.85046 0.599015 0
M  V30 647 O 55.5197 -1.91197 -0.417395 0
M  V30 648 C 55.8187 -1.852 3.05672 0
M  V30 649 C 55.4847 -1.1231 4.36689 0
M  V30 650 C 54.1467 -0.921689 4.72291 0
M  V30 651 C 56.4987 -0.607019 5.17653 0
M  V30 652 C 53.8267 -0.191996 5.86386 0
M  V30 653 C 56.1787 0.109241 6.32506 0
M  V30 654 C 54.8427 0.322073 6.66723 0
M  V30 655 H 54.1127 -0.353778 0.651093 0
M  V30 656 H 56.7597 -0.23634 1.90036 0
M  V30 657 H 55.0647 -2.64975 2.8861 0
M  V30 658 H 56.7617 -2.41635 3.20021 0
M  V30 659 H 53.3517 -1.29004 4.08725 0
M  V30 660 H 57.5357 -0.750153 4.90598 0
M  V30 661 H 52.7917 -0.0166949 6.11398 0
M  V30 662 H 56.9657 0.516737 6.9448 0
M  V30 663 H 54.5927 0.88944 7.54979 0
M  V30 664 N 56.1678 -1.49265 -0.50573 0
M  V30 665 C 57.1148 -1.65585 -1.6078 0
M  V30 666 C 58.0848 -0.497396 -1.58478 0
M  V30 667 O 59.2698 -0.72385 -1.76536 0
M  V30 668 C 56.4098 -1.72408 -2.98948 0
M  V30 669 C 55.5228 -2.99525 -3.11301 0
M  V30 670 C 54.6578 -2.97356 -4.40174 0
M  V30 671 C 53.6968 -4.19074 -4.46143 0
M  V30 672 N 52.8338 -4.14841 -5.66437 0
M  V30 673 H 57.6738 -2.59688 -1.46172 0
M  V30 674 H 55.2108 -1.28761 -0.711261 0
M  V30 675 H 57.1688 -1.74344 -3.79025 0
M  V30 676 H 55.7988 -0.817753 -3.1227 0
M  V30 677 H 54.8508 -3.07222 -2.24318 0
M  V30 678 H 56.1628 -3.89518 -3.11572 0
M  V30 679 H 55.3168 -2.97829 -5.28567 0
M  V30 680 H 54.0558 -2.05133 -4.42461 0
M  V30 681 H 53.0608 -4.1885 -3.56153 0
M  V30 682 H 54.2858 -5.12483 -4.45575 0
M  V30 683 H 52.2318 -3.25453 -5.69575 0
M  V30 684 H 52.1488 -4.98564 -5.68304 0
M  V30 685 H 53.4168 -4.1941 -6.57051 0
M  V30 686 N 57.6459 0.756429 -1.3826 0
M  V30 687 C 58.8949 1.51082 -1.3363 0
M  V30 688 C 59.2079 1.95467 0.0720068 0
M  V30 689 O 60.4139 2.7043 0.240834 0
M  V30 690 C 58.8699 2.72893 -2.34644 0
M  V30 691 C 58.4779 2.35544 -3.81081 0
M  V30 692 C 60.2219 3.50791 -2.39052 0
M  V30 693 C 58.1289 3.53948 -4.73787 0
M  V30 694 H 57.0589 0.56727 -0.49671 0
M  V30 695 H 59.7099 0.827147 -1.638 0
M  V30 696 H 58.0919 3.43227 -1.97513 0
M  V30 697 H 59.2659 1.72894 -4.27135 0
M  V30 698 H 57.5809 1.70786 -3.79764 0
M  V30 699 H 60.1779 4.38823 -3.05513 0
M  V30 700 H 60.5209 3.91745 -1.40861 0
M  V30 701 H 61.0539 2.87467 -2.74968 0
M  V30 702 H 57.7929 3.18064 -5.73163 0
M  V30 703 H 57.3129 4.15651 -4.32428 0
M  V30 704 H 58.9919 4.20566 -4.91663 0
M  V30 705 N 59.124 1.23083 0.984299 0
M  V30 706 C 60.054 1.03292 2.09411 0
M  V30 707 C 61.035 -0.048923 1.7003 0
M  V30 708 O 62.22 0.114967 1.93859 0
M  V30 709 C 59.35 0.619155 3.41736 0
M  V30 710 C 58.304 1.64791 3.95004 0
M  V30 711 C 57.63 1.0897 5.23478 0
M  V30 712 C 58.93 3.03999 4.24714 0
M  V30 713 H 60.624 1.96119 2.26225 0
M  V30 714 H 58.17 0.944344 1.08711 0
M  V30 715 H 60.123 0.467777 4.18796 0
M  V30 716 H 58.847 -0.344786 3.24775 0
M  V30 717 H 57.506 1.78721 3.20085 0
M  V30 718 H 57.154 0.11686 5.02864 0
M  V30 719 H 56.854 1.77704 5.60085 0
M  V30 720 H 58.378 0.950093 6.03163 0
M  V30 721 H 59.792 2.93393 4.92538 0
M  V30 722 H 58.189 3.69936 4.72512 0
M  V30 723 H 59.259 3.53285 3.32142 0
M  V30 724 N 60.6021 -1.18246 1.0419 0
M  V30 725 C 61.8491 -1.88257 0.746017 0
M  V30 726 C 62.1771 -1.80429 -0.726331 0
M  V30 727 O 61.4321 -1.2 -1.54591 0
M  V30 728 C 61.7311 -3.38082 1.15911 0
M  V30 729 C 61.3971 -3.66114 2.63195 0
M  V30 730 C 60.0591 -3.73474 3.03432 0
M  V30 731 C 62.4111 -3.78398 3.5842 0
M  V30 732 C 59.7391 -3.90599 4.37778 0
M  V30 733 C 62.0911 -3.97039 4.92487 0
M  V30 734 C 60.7551 -4.02635 5.32392 0
M  V30 735 H 60.0251 -0.688883 0.272987 0
M  V30 736 H 62.6721 -1.3995 1.30715 0
M  V30 737 H 60.9771 -3.88377 0.516806 0
M  V30 738 H 62.6741 -3.90596 0.907516 0
M  V30 739 H 59.2641 -3.61003 2.3103 0
M  V30 740 H 63.4481 -3.72042 3.28479 0
M  V30 741 H 58.7041 -3.93175 4.68213 0
M  V30 742 H 62.8781 -4.05486 5.66175 0
M  V30 743 H 60.5051 -4.15657 6.36501 0
M  V30 744 N 62.0802 -0.821533 -1.34494 0
M  V30 745 C 63.3262 -0.409552 -1.98622 0
M  V30 746 C 63.6592 1.0244 -1.64984 0
M  V30 747 O 62.9342 1.71325 -0.920758 0
M  V30 748 C 63.2172 -0.610458 -3.54888 0
M  V30 749 C 63.0702 -2.09043 -3.98273 0
M  V30 750 C 64.3892 -0.0455379 -4.40076 0
M  V30 751 H 61.5082 -0.15028 -0.721516 0
M  V30 752 H 64.1502 -1.03384 -1.59411 0
M  V30 753 H 62.3002 -0.079044 -3.8842 0
M  V30 754 H 63.9722 -2.68537 -3.75081 0
M  V30 755 H 62.2152 -2.58139 -3.48635 0
M  V30 756 H 62.8862 -2.18182 -5.07051 0
M  V30 757 H 65.3622 -0.499557 -4.1309 0
M  V30 758 H 64.2382 -0.215922 -5.48475 0
M  V30 759 H 64.4992 1.04939 -4.29465 0
M  V30 760 N 63.5583 1.46682 -0.576371 0
M  V30 761 C 64.7863 2.06798 -0.0649635 0
M  V30 762 C 65.2013 1.42612 1.23723 0
M  V30 763 O 64.5583 0.529203 1.74659 0
M  V30 764 C 64.6093 3.6132 0.114202 0
M  V30 765 O 64.3303 4.23104 -1.13644 0
M  V30 766 C 65.8313 4.38349 0.66069 0
M  V30 767 H 63.0513 0.668778 -0.0545616 0
M  V30 768 H 65.5953 1.88404 -0.795237 0
M  V30 769 H 63.7503 3.79162 0.794673 0
M  V30 770 H 64.1643 5.15894 -0.946253 0
M  V30 771 H 65.6383 5.47081 0.73526 0
M  V30 772 H 66.1153 4.05953 1.67627 0
M  V30 773 H 66.7213 4.25297 0.0152951 0
M  V30 774 N 65.0364 0.313813 1.54444 0
M  V30 775 C 66.2824 -0.292108 2.00685 0
M  V30 776 C 66.6154 -1.52548 1.20177 0
M  V30 777 O 65.8904 -1.92452 0.281531 0
M  V30 778 C 66.1734 -0.635968 3.5444 0
M  V30 779 C 66.0264 0.607437 4.4568 0
M  V30 780 C 67.3454 -1.45747 4.15266 0
M  V30 781 H 64.4644 -0.104697 0.729526 0
M  V30 782 H 67.1064 0.428457 1.85106 0
M  V30 783 H 65.2564 -1.24986 3.67846 0
M  V30 784 H 66.9284 1.24581 4.44159 0
M  V30 785 H 65.1714 1.23822 4.15753 0
M  V30 786 H 65.8424 0.322515 5.51057 0
M  V30 787 H 68.3184 -0.938645 4.05375 0
M  V30 788 H 67.1944 -1.66683 5.2298 0
M  V30 789 H 67.4554 -2.45063 3.67963 0
M  V30 790 N 66.5145 -1.57545 0.0417849 0
M  V30 791 C 67.7615 -1.92317 -0.634082 0
M  V30 792 C 68.0895 -0.919334 -1.71402 0
M  V30 793 O 67.3445 0.0698253 -1.95575 0
M  V30 794 C 67.6435 -3.33794 -1.27735 0
M  V30 795 C 67.3095 -4.49716 -0.326543 0
M  V30 796 C 65.9715 -4.81156 -0.0648814 0
M  V30 797 C 68.3235 -5.20182 0.325623 0
M  V30 798 C 65.6515 -5.80414 0.856539 0
M  V30 799 C 68.0035 -6.20424 1.23518 0
M  V30 800 C 66.6675 -6.50298 1.5056 0
M  V30 801 H 65.9375 -0.703736 -0.232027 0
M  V30 802 H 68.5845 -1.91205 0.106259 0
M  V30 803 H 66.8895 -3.31228 -2.09274 0
M  V30 804 H 68.5865 -3.57975 -1.80707 0
M  V30 805 H 65.1765 -4.25176 -0.540665 0
M  V30 806 H 69.3605 -4.96112 0.136546 0
M  V30 807 H 64.6165 -6.019 1.07363 0
M  V30 808 H 68.7905 -6.74141 1.74664 0
M  V30 809 H 66.4175 -7.27025 2.22123 0
M  V30 810 N 67.9926 0.231505 -1.5589 0
M  V30 811 C 69.2416 0.955346 -1.7764 0
M  V30 812 C 69.5546 1.85893 -0.608546 0
M  V30 813 O 70.7606 2.62067 -0.70943 0
M  V30 814 C 69.2166 1.74886 -3.14552 0
M  V30 815 C 68.8246 0.891915 -4.39032 0
M  V30 816 C 70.5686 2.46452 -3.45633 0
M  V30 817 C 68.4756 1.68221 -5.66971 0
M  V30 818 H 67.4056 0.360446 -0.662265 0
M  V30 819 H 70.0566 0.209516 -1.823 0
M  V30 820 H 68.4386 2.53723 -3.04041 0
M  V30 821 H 69.6126 0.144793 -4.60572 0
M  V30 822 H 67.9276 0.288863 -4.15397 0
M  V30 823 H 70.5246 3.06061 -4.38441 0
M  V30 824 H 70.8676 3.18841 -2.67668 0
M  V30 825 H 71.4006 1.74613 -3.57428 0
M  V30 826 H 68.1396 1.00178 -6.478 0
M  V30 827 H 67.6596 2.4042 -5.49507 0
M  V30 828 H 69.3386 2.24544 -6.06786 0
M  V30 829 N 69.4707 1.49531 0.497807 0
M  V30 830 C 70.7167 1.59415 1.25358 0
M  V30 831 C 71.0497 0.281422 1.9215 0
M  V30 832 O 70.3247 -0.715249 1.80871 0
M  V30 833 C 70.6077 2.75566 2.3181 0
M  V30 834 C 70.4607 4.16642 1.69498 0
M  V30 835 C 71.7797 2.87347 3.33346 0
M  V30 836 H 68.8987 0.580244 0.454408 0
M  V30 837 H 71.5407 1.81827 0.551262 0
M  V30 838 H 69.6907 2.56587 2.91711 0
M  V30 839 H 71.3627 4.47145 1.13399 0
M  V30 840 H 69.6057 4.22141 0.998978 0
M  V30 841 H 70.2767 4.93792 2.46725 0
M  V30 842 H 72.7527 3.04634 2.83438 0
M  V30 843 H 71.6287 3.70289 4.05188 0
M  V30 844 H 71.8897 1.96834 3.95865 0
M  V30 845 N 70.9488 -0.749086 1.3866 0
M  V30 846 C 71.8788 -1.8764 1.38973 0
M  V30 847 C 72.8598 -1.68178 0.255004 0
M  V30 848 O 74.0448 -1.88704 0.458754 0
M  V30 849 C 71.1748 -3.25222 1.21851 0
M  V30 850 C 70.1288 -3.59295 2.32575 0
M  V30 851 C 69.4548 -4.95663 2.00555 0
M  V30 852 C 70.7548 -3.63709 3.7485 0
M  V30 853 H 72.4488 -1.87635 2.3331 0
M  V30 854 H 69.9948 -0.901329 1.12303 0
M  V30 855 H 71.9478 -4.03746 1.20695 0
M  V30 856 H 70.6718 -3.25719 0.239775 0
M  V30 857 H 69.3308 -2.83093 2.32925 0
M  V30 858 H 68.9788 -4.92724 1.01154 0
M  V30 859 H 68.6788 -5.19429 2.74714 0
M  V30 860 H 70.2028 -5.7656 2.01024 0
M  V30 861 H 71.6168 -4.32338 3.76506 0
M  V30 862 H 70.0138 -3.98986 4.48252 0
M  V30 863 H 71.0838 -2.63834 4.06841 0
M  V30 864 N 72.4269 -1.23603 -0.977757 0
M  V30 865 C 73.3899 -1.02069 -2.05218 0
M  V30 866 C 74.3899 0.0184305 -1.60789 0
M  V30 867 O 75.5799 -0.221569 -1.72785 0
M  V30 868 C 72.7119 -0.544926 -3.36517 0
M  V30 869 H 73.9049 -1.9742 -2.25755 0
M  V30 870 H 71.4579 -1.05684 -1.15155 0
M  V30 871 H 72.1929 0.412241 -3.21669 0
M  V30 872 H 71.9779 -1.2948 -3.70105 0
M  V30 873 H 73.4679 -0.414985 -4.15533 0
M  V30 874 N 73.905 1.17692 -1.04816 0
M  V30 875 C 75.153 1.87488 -0.754497 0
M  V30 876 C 75.474 1.81205 0.720407 0
M  V30 877 O 74.744 1.23544 1.52032 0
M  V30 878 H 73.324 0.694101 -0.276102 0
M  V30 879 H 75.986 1.42793 -1.32651 0
M  V30 880 H 75.082 2.93328 -1.06606 0
M  V30 881 N 75.3831 0.828654 1.34056 0
M  V30 882 C 76.6311 0.41863 1.97717 0
M  V30 883 C 76.9521 -1.02314 1.66002 0
M  V30 884 O 76.2221 -1.71119 0.953683 0
M  V30 885 H 74.8021 0.151809 0.731412 0
M  V30 886 H 77.4641 1.05936 1.63596 0
M  V30 887 H 76.5601 0.542318 3.07352 0
M  V30 888 N 76.8612 -1.46375 0.584142 0
M  V30 889 C 78.1082 -2.02378 0.0702675 0
M  V30 890 C 78.4362 -1.45545 -1.29023 0
M  V30 891 O 77.6912 -0.610967 -1.85918 0
M  V30 892 C 77.9902 -3.57373 -0.0439342 0
M  V30 893 C 77.6562 -4.33252 1.24915 0
M  V30 894 C 76.3182 -4.53701 1.60341 0
M  V30 895 C 78.6702 -4.7681 2.1048 0
M  V30 896 C 75.9982 -5.1496 2.81128 0
M  V30 897 C 78.3502 -5.39404 3.30494 0
M  V30 898 C 77.0142 -5.5808 3.66201 0
M  V30 899 H 76.2842 -0.740554 0.0257127 0
M  V30 900 H 78.9312 -1.75727 0.761065 0
M  V30 901 H 77.2362 -3.83169 -0.817869 0
M  V30 902 H 78.9332 -3.98384 -0.457318 0
M  V30 903 H 75.5232 -4.17633 0.963364 0
M  V30 904 H 79.7072 -4.60766 1.84414 0
M  V30 905 H 74.9632 -5.27611 3.08928 0
M  V30 906 H 79.1372 -5.72114 3.97063 0
M  V30 907 H 76.7642 -6.05318 4.59885 0
M  V30 908 N 78.3393 -0.321999 -1.54275 0
M  V30 909 C 79.5643 0.285791 -2.05422 0
M  V30 910 C 79.9893 1.45124 -1.19669 0
M  V30 911 O 79.3473 1.80132 -0.205441 0
M  V30 912 C 79.3953 0.69956 -3.53749 0
M  V30 913 O 78.4993 1.8021 -3.70942 0
M  V30 914 H 77.8403 0.0518962 -0.661969 0
M  V30 915 H 80.3703 -0.469954 -1.9913 0
M  V30 916 H 80.3803 0.982649 -3.9599 0
M  V30 917 H 79.0553 -0.152864 -4.15619 0
M  V30 918 H 77.6323 1.51794 -3.40607 0
M  V30 919 N 79.8174 1.5752 -0.0501392 0
M  V30 920 C 81.0474 1.96678 0.632573 0
M  V30 921 C 81.4554 0.926298 1.64974 0
M  V30 922 O 80.7984 -0.09802 1.83438 0
M  V30 923 C 80.8604 3.32068 1.37735 0
M  V30 924 C 80.5244 4.54076 0.516131 0
M  V30 925 C 81.5214 5.19445 -0.217357 0
M  V30 926 C 79.2064 5.00304 0.44736 0
M  V30 927 C 81.2004 6.29378 -1.00807 0
M  V30 928 C 78.8874 6.10114 -0.347038 0
M  V30 929 C 79.8854 6.74512 -1.07344 0
M  V30 930 O 79.5734 7.82211 -1.85477 0
M  V30 931 H 79.3054 0.652193 0.177821 0
M  V30 932 H 81.8594 2.05091 -0.112543 0
M  V30 933 H 80.0894 3.20206 2.16807 0
M  V30 934 H 81.7784 3.55981 1.95019 0
M  V30 935 H 82.5444 4.84689 -0.173688 0
M  V30 936 H 78.4234 4.49971 1.00235 0
M  V30 937 H 81.9674 6.79575 -1.57556 0
M  V30 938 H 77.8644 6.44307 -0.392349 0
M  V30 939 H 78.6324 7.98982 -1.77678 0
M  V30 940 N 81.2955 -0.223234 1.56011 0
M  V30 941 C 82.5255 -0.963413 1.82762 0
M  V30 942 C 82.9335 -1.78516 0.626804 0
M  V30 943 O 82.2765 -1.78974 -0.414014 0
M  V30 944 C 82.3385 -1.93126 3.0322 0
M  V30 945 C 82.0025 -1.2942 4.38291 0
M  V30 946 C 82.9995 -0.684916 5.15369 0
M  V30 947 C 80.6845 -1.30647 4.85012 0
M  V30 948 C 82.6785 -0.0963971 6.37327 0
M  V30 949 C 80.3655 -0.71411 6.06913 0
M  V30 950 C 81.3635 -0.110123 6.82911 0
M  V30 951 O 81.0515 0.47303 8.02507 0
M  V30 952 H 80.7835 -0.288011 0.611576 0
M  V30 953 H 83.3375 -0.244103 2.03944 0
M  V30 954 H 81.5675 -2.68952 2.77852 0
M  V30 955 H 83.2565 -2.53685 3.16857 0
M  V30 956 H 84.0225 -0.667774 4.80381 0
M  V30 957 H 79.9015 -1.76598 4.25833 0
M  V30 958 H 83.4455 0.375657 6.96588 0
M  V30 959 H 79.3425 -0.728659 6.41374 0
M  V30 960 H 80.1105 0.367186 8.17676 0
M  V30 961 N 82.7736 -1.49793 -0.48987 0
M  V30 962 C 84.0226 -1.59085 -1.23995 0
M  V30 963 C 84.3356 -0.287907 -1.9347 0
M  V30 964 O 85.5416 -0.259506 -2.70257 0
M  V30 965 C 83.9976 -2.80736 -2.252 0
M  V30 966 C 83.6056 -4.17833 -1.61614 0
M  V30 967 C 85.3496 -2.99364 -3.00967 0
M  V30 968 C 83.2566 -5.30693 -2.60996 0
M  V30 969 H 82.1866 -0.592372 -0.466488 0
M  V30 970 H 84.8376 -1.76197 -0.51252 0
M  V30 971 H 83.2196 -2.57142 -3.01154 0
M  V30 972 H 84.3936 -4.51608 -0.915774 0
M  V30 973 H 82.7086 -4.04656 -0.981977 0
M  V30 974 H 85.3056 -3.80851 -3.75308 0
M  V30 975 H 85.6486 -2.10356 -3.59244 0
M  V30 976 H 86.1816 -3.2305 -2.32128 0
M  V30 977 H 82.9206 -6.21796 -2.07485 0
M  V30 978 H 82.4406 -5.01359 -3.2924 0
M  V30 979 H 84.1196 -5.6049 -3.23202 0
M  V30 980 N 84.2517 0.741722 -1.39055 0
M  V30 981 C 85.4987 1.50114 -1.35912 0
M  V30 982 C 85.8267 1.94443 0.0470937 0
M  V30 983 O 85.0817 1.66612 1.02659 0
M  V30 984 C 85.3807 2.7592 -2.27163 0
M  V30 985 C 85.0467 2.50493 -3.74919 0
M  V30 986 C 83.7087 2.43267 -4.1518 0
M  V30 987 C 86.0607 2.28585 -4.684 0
M  V30 988 C 83.3887 2.12166 -5.46994 0
M  V30 989 C 85.7407 1.99002 -6.00484 0
M  V30 990 C 84.4047 1.90241 -6.39816 0
M  V30 991 H 83.6747 0.549306 -0.497336 0
M  V30 992 H 86.3217 0.851896 -1.71508 0
M  V30 993 H 84.6267 3.45553 -1.84663 0
M  V30 994 H 86.3237 3.33923 -2.22028 0
M  V30 995 H 82.9137 2.56992 -3.43006 0
M  V30 996 H 87.0977 2.33139 -4.38132 0
M  V30 997 H 82.3537 2.03901 -5.76398 0
M  V30 998 H 86.5277 1.81057 -6.72452 0
M  V30 999 H 84.1547 1.65907 -7.41875 0
M  V30 1000 N 85.7298 1.2412 0.971189 0
M  V30 1001 C 86.6398 1.04747 2.09917 0
M  V30 1002 C 87.6558 -0.0107162 1.73997 0
M  V30 1003 O 88.8318 0.186714 2.00533 0
M  V30 1004 C 85.8968 0.650828 3.40537 0
M  V30 1005 C 84.9578 1.7851 3.90426 0
M  V30 1006 C 84.1908 1.40729 5.14812 0
M  V30 1007 O 84.4138 0.29557 5.69634 0
M  V30 1008 O 83.3478 2.23168 5.58999 0
M  V30 1009 H 87.1738 1.99304 2.29154 0
M  V30 1010 H 84.7588 1.02908 1.08307 0
M  V30 1011 H 86.6408 0.440992 4.19086 0
M  V30 1012 H 85.3158 -0.265649 3.22608 0
M  V30 1013 H 84.2228 2.04966 3.12953 0
M  V30 1014 H 85.5558 2.68023 4.12825 0
M  V30 1015 N 87.2079 -1.17134 1.05439 0
M  V30 1016 C 88.1559 -2.23289 0.651511 0
M  V30 1017 C 89.1499 -1.66186 -0.328411 0
M  V30 1018 O 90.3559 -1.78949 -0.194206 0
M  V30 1019 H 86.7309 -0.726938 0.192523 0
M  V30 1020 H 88.7019 -2.54565 1.55689 0
M  V30 1021 C 87.4509 -3.47671 0.0448436 0
M  V30 1022 H 86.7739 -3.91918 0.78996 0
M  V30 1023 H 88.2139 -4.2353 -0.19964 0
M  V30 1024 C 86.6729 -3.14453 -1.20918 0
M  V30 1025 O 87.2029 -3.29459 -2.29825 0
M  V30 1026 N 85.4089 -2.68657 -1.10779 0
M  V30 1027 H 84.9559 -2.56646 -0.221526 0
M  V30 1028 H 84.9139 -2.46804 -1.9477 0
M  V30 1029 N 88.686 -0.835752 -1.33615 0
M  V30 1030 C 89.933 -0.429959 -1.97883 0
M  V30 1031 C 90.261 1.01006 -1.66217 0
M  V30 1032 O 89.516 1.72047 -0.93265 0
M  V30 1033 C 89.815 -0.593925 -3.52431 0
M  V30 1034 C 89.481 -2.00158 -4.04039 0
M  V30 1035 C 88.143 -2.38662 -4.17844 0
M  V30 1036 C 90.495 -2.92117 -4.31644 0
M  V30 1037 C 87.823 -3.68435 -4.56588 0
M  V30 1038 C 90.175 -4.21368 -4.71838 0
M  V30 1039 C 88.839 -4.59833 -4.83849 0
M  V30 1040 H 88.109 -0.157333 -0.724104 0
M  V30 1041 H 90.756 -1.06217 -1.59343 0
M  V30 1042 H 89.061 0.121619 -3.91611 0
M  V30 1043 H 90.758 -0.260282 -4.00154 0
M  V30 1044 H 87.348 -1.69252 -3.93766 0
M  V30 1045 H 91.532 -2.63608 -4.20505 0
M  V30 1046 H 86.788 -3.98046 -4.64079 0
M  V30 1047 H 90.962 -4.92703 -4.92155 0
M  V30 1048 H 88.589 -5.60438 -5.13627 0
M  V30 1049 N 90.1641 1.46063 -0.591896 0
M  V30 1050 C 91.4101 2.02638 -0.0811191 0
M  V30 1051 C 91.7431 1.4613 1.27905 0
M  V30 1052 O 91.0181 0.629908 1.84017 0
M  V30 1053 C 91.3011 3.60091 -0.0252436 0
M  V30 1054 C 91.1541 4.26965 -1.41496 0
M  V30 1055 C 92.4731 4.3496 0.670685 0
M  V30 1056 H 89.5921 0.73635 -0.0309524 0
M  V30 1057 H 92.2341 1.741 -0.760859 0
M  V30 1058 H 90.3841 3.84535 0.553624 0
M  V30 1059 H 92.0561 4.13756 -2.0397 0
M  V30 1060 H 90.2991 3.85971 -1.98011 0
M  V30 1061 H 90.9701 5.35781 -1.32825 0
M  V30 1062 H 93.4461 4.15716 0.178825 0
M  V30 1063 H 92.3221 5.44686 0.678837 0
M  V30 1064 H 92.5831 4.06685 1.73379 0
M  V30 1065 N 91.6422 0.330177 1.54103 0
M  V30 1066 C 92.8892 -0.270405 2.00686 0
M  V30 1067 C 93.2172 -1.51621 1.21825 0
M  V30 1068 O 92.4722 -1.93536 0.29025 0
M  V30 1069 C 92.7712 -0.643134 3.51566 0
M  V30 1070 C 92.4372 0.504251 4.48072 0
M  V30 1071 C 91.0992 0.819163 4.74176 0
M  V30 1072 C 93.4512 1.27465 5.05373 0
M  V30 1073 C 90.7792 1.90708 5.5484 0
M  V30 1074 C 93.1312 2.35271 5.87223 0
M  V30 1075 C 91.7952 2.67336 6.11627 0
M  V30 1076 H 91.0652 -0.0989482 0.734364 0
M  V30 1077 H 93.7122 0.455324 1.86008 0
M  V30 1078 H 92.0172 -1.44938 3.64006 0
M  V30 1079 H 93.7142 -1.11949 3.85056 0
M  V30 1080 H 90.3042 0.248733 4.27878 0
M  V30 1081 H 94.4882 1.04462 4.85182 0
M  V30 1082 H 89.7442 2.15991 5.71977 0
M  V30 1083 H 93.9182 2.95405 6.30641 0
M  V30 1084 H 91.5452 3.51763 6.73919 0
M  V30 1085 N 93.1203 -1.57491 0.0584922 0
M  V30 1086 C 94.0523 -2.08916 -0.942694 0
M  V30 1087 C 95.0653 -1.0185 -1.27006 0
M  V30 1088 O 96.2543 -1.29398 -1.22957 0
M  V30 1089 C 93.3543 -2.52341 -2.26224 0
M  V30 1090 C 92.5273 -3.82827 -2.1157 0
M  V30 1091 C 91.5863 -4.12487 -3.26712 0
M  V30 1092 O 90.6123 -4.82295 -3.02292 0
M  V30 1093 N 91.8143 -3.64978 -4.5141 0
M  V30 1094 H 94.5793 -2.95437 -0.503722 0
M  V30 1095 H 92.1403 -1.61397 -0.12757 0
M  V30 1096 H 94.1323 -2.69254 -3.02133 0
M  V30 1097 H 92.7023 -1.7103 -2.61663 0
M  V30 1098 H 91.9223 -3.75425 -1.20208 0
M  V30 1099 H 93.2103 -4.68263 -1.99015 0
M  V30 1100 H 92.6083 -3.08558 -4.7414 0
M  V30 1101 H 91.1653 -3.87115 -5.2439 0
M  V30 1102 N 94.5984 0.214957 -1.56127 0
M  V30 1103 C 95.5454 1.26642 -1.92952 0
M  V30 1104 C 96.5154 1.46244 -0.78753 0
M  V30 1105 O 97.7004 1.59704 -1.04399 0
M  V30 1106 C 94.8404 2.6104 -2.25726 0
M  V30 1107 C 93.9534 2.49183 -3.52891 0
M  V30 1108 C 93.0884 3.76149 -3.7508 0
M  V30 1109 C 92.1274 3.59041 -4.95738 0
M  V30 1110 N 91.2644 4.77972 -5.14283 0
M  V30 1111 H 96.1044 0.945384 -2.82607 0
M  V30 1112 H 93.6414 0.455489 -1.3987 0
M  V30 1113 H 95.5994 3.39313 -2.42739 0
M  V30 1114 H 94.2294 2.91227 -1.39236 0
M  V30 1115 H 93.2814 1.6231 -3.44034 0
M  V30 1116 H 94.5934 2.32466 -4.41318 0
M  V30 1117 H 93.7474 4.62865 -3.92226 0
M  V30 1118 H 92.4864 3.95799 -2.84947 0
M  V30 1119 H 91.4914 2.7071 -4.78535 0
M  V30 1120 H 92.7164 3.40856 -5.87362 0
M  V30 1121 H 90.6624 4.97923 -4.27093 0
M  V30 1122 H 90.5794 4.64006 -5.96853 0
M  V30 1123 H 91.8474 5.66096 -5.35869 0
M  V30 1124 N 96.0765 1.50051 0.48192 0
M  V30 1125 C 97.0245 1.68635 1.60203 0
M  V30 1126 C 98.0185 0.552184 1.60148 0
M  V30 1127 O 99.2245 0.732377 1.64427 0
M  V30 1128 H 95.5995 0.532081 0.531407 0
M  V30 1129 H 97.5705 2.62616 1.41688 0
M  V30 1130 C 96.3195 1.78775 2.9822 0
M  V30 1131 H 95.6425 2.6543 2.98976 0
M  V30 1132 H 97.0825 1.95806 3.7608 0
M  V30 1133 C 95.5415 0.536849 3.32595 0
M  V30 1134 O 96.0715 -0.328897 4.00351 0
M  V30 1135 N 94.2775 0.394091 2.87915 0
M  V30 1136 H 93.8245 1.09962 2.32951 0
M  V30 1137 H 93.7825 -0.441737 3.11281 0
M  V30 1138 N 97.5546 -0.734337 1.39446 0
M  V30 1139 C 98.9706 -1.03997 1.21065 0
M  V30 1140 C 99.1706 -2.01369 0.0727019 0
M  V30 1141 O 98.2266 -2.45856 -0.575426 0
M  V30 1142 C 99.5396 -1.60163 2.54496 0
M  V30 1143 C 101.088 -1.7224 2.61347 0
M  V30 1144 C 101.563 -2.31814 3.95002 0
M  V30 1145 N 103.054 -2.39223 3.96644 0
M  V30 1146 C 103.789 -2.86258 4.96834 0
M  V30 1147 N 103.285 -3.33184 6.07421 0
M  V30 1148 N 105.078 -2.85473 4.84213 0
M  V30 1149 H 97.2286 -0.0885624 2.12215 0
M  V30 1150 H 99.4916 -0.10191 0.942506 0
M  V30 1151 H 99.1976 -0.960811 3.38321 0
M  V30 1152 H 99.0716 -2.5896 2.74262 0
M  V30 1153 H 101.459 -2.35443 1.77906 0
M  V30 1154 H 101.54 -0.720939 2.4543 0
M  V30 1155 H 101.184 -1.69238 4.78875 0
M  V30 1156 H 101.114 -3.32638 4.08239 0
M  V30 1157 H 103.605 -2.06057 3.16779 0
M  V30 1158 H 103.918 -3.67586 6.7978 0
M  V30 1159 H 102.263 -3.31191 6.11013 0
M  V30 1160 H 105.454 -2.48136 3.96921 0
M  V30 1161 H 105.627 -3.21814 5.62441 0
M  V30 1162 N 99.0327 -1.24633 -0.964593 0
M  V30 1163 C 99.9797 -1.04144 -2.05968 0
M  V30 1164 C 100.95 0.046262 -1.66036 0
M  V30 1165 O 102.135 -0.108972 -1.90489 0
M  V30 1166 C 99.2747 -0.65563 -3.38815 0
M  V30 1167 C 98.3877 -1.81714 -3.91923 0
M  V30 1168 C 97.5227 -1.37662 -5.13052 0
M  V30 1169 C 96.5617 -2.50788 -5.58365 0
M  V30 1170 N 95.6987 -2.07582 -6.70712 0
M  V30 1171 H 100.539 -1.9787 -2.22827 0
M  V30 1172 H 98.0757 -0.9855 -1.09208 0
M  V30 1173 H 100.034 -0.412954 -4.15151 0
M  V30 1174 H 98.6637 0.244627 -3.21872 0
M  V30 1175 H 97.7157 -2.1734 -3.12198 0
M  V30 1176 H 99.0277 -2.66705 -4.21509 0
M  V30 1177 H 98.1817 -1.093 -5.96773 0
M  V30 1178 H 96.9207 -0.497293 -4.85158 0
M  V30 1179 H 95.9257 -2.79906 -4.73215 0
M  V30 1180 H 97.1507 -3.39283 -5.88272 0
M  V30 1181 H 95.0967 -1.22051 -6.44546 0
M  V30 1182 H 95.0137 -2.86125 -6.99763 0
M  V30 1183 H 96.2817 -1.82369 -7.57867 0
M  V30 1184 N 100.511 1.16574 -1.06058 0
M  V30 1185 C 101.76 1.86385 -0.770944 0
M  V30 1186 C 102.073 1.82448 0.705129 0
M  V30 1187 O 103.279 2.47815 1.10905 0
M  V30 1188 C 101.735 3.34466 -1.32893 0
M  V30 1189 C 101.343 3.46883 -2.83507 0
M  V30 1190 C 103.087 4.09548 -1.11672 0
M  V30 1191 C 100.994 4.89036 -3.32562 0
M  V30 1192 H 99.9238 0.698181 -0.284709 0
M  V30 1193 H 102.575 1.31583 -1.27899 0
M  V30 1194 H 100.957 3.88859 -0.748662 0
M  V30 1195 H 102.131 3.02663 -3.47465 0
M  V30 1196 H 100.446 2.85232 -3.03368 0
M  V30 1197 H 103.043 5.14434 -1.45814 0
M  V30 1198 H 103.386 4.16264 -0.0549535 0
M  V30 1199 H 103.919 3.61387 -1.66265 0
M  V30 1200 H 100.658 4.87499 -4.38207 0
M  V30 1201 H 100.178 5.3389 -2.73351 0
M  V30 1202 H 101.857 5.57843 -3.2775 0
M  V30 1203 N 101.989 0.842826 1.3317 0
M  V30 1204 C 102.937 0.267495 2.31057 0
M  V30 1205 C 103.931 -0.602682 1.58316 0
M  V30 1206 O 105.137 -0.491803 1.73151 0
M  V30 1207 H 101.512 0.0677813 0.748939 0
M  V30 1208 H 103.483 1.10754 2.77085 0
M  V30 1209 C 102.232 -0.539331 3.43492 0
M  V30 1210 H 101.555 0.12095 3.99617 0
M  V30 1211 H 102.995 -0.90767 4.14171 0
M  V30 1212 C 101.454 -1.71981 2.89697 0
M  V30 1213 O 101.984 -2.81862 2.86211 0
M  V30 1214 N 100.19 -1.54299 2.46252 0
M  V30 1215 H 99.7369 -0.649143 2.49287 0
M  V30 1216 H 99.6949 -2.33431 2.10612 0
M  V30 1217 N 103.467 -1.45747 0.599634 0
M  V30 1218 C 104.417 -2.27538 -0.145107 0
M  V30 1219 C 105.401 -1.3686 -0.846055 0
M  V30 1220 O 106.593 -1.6091 -0.737357 0
M  V30 1221 C 103.722 -3.23569 -1.14708 0
M  V30 1222 C 102.808 -4.21734 -0.447383 0
M  V30 1223 N 103.199 -5.03257 0.506535 0
M  V30 1224 C 101.497 -4.40536 -0.695966 0
M  V30 1225 C 102.198 -5.74426 0.917068 0
M  V30 1226 N 101.174 -5.42966 0.26253 0
M  V30 1227 H 104.976 -2.87965 0.587672 0
M  V30 1228 H 102.49 -1.56803 0.422697 0
M  V30 1229 H 104.487 -3.8089 -1.69495 0
M  V30 1230 H 103.147 -2.64702 -1.8805 0
M  V30 1231 H 104.158 -5.10319 0.882899 0
M  V30 1232 H 100.835 -3.92802 -1.41467 0
M  V30 1233 H 102.225 -6.4995 1.70338 0
M  V30 1234 N 104.945 -0.338344 -1.53925 0
M  V30 1235 C 106.194 0.260732 -2.00008 0
M  V30 1236 C 106.507 1.52073 -1.23017 0
M  V30 1237 O 107.713 2.19672 -1.5955 0
M  V30 1238 C 106.169 0.51515 -3.56194 0
M  V30 1239 C 105.777 -0.728645 -4.42035 0
M  V30 1240 C 107.521 1.07337 -4.10706 0
M  V30 1241 C 105.428 -0.445315 -5.89721 0
M  V30 1242 H 104.358 0.101205 -0.747177 0
M  V30 1243 H 107.009 -0.452866 -1.77824 0
M  V30 1244 H 105.391 1.28932 -3.74423 0
M  V30 1245 H 106.565 -1.50352 -4.35581 0
M  V30 1246 H 104.88 -1.20813 -3.98489 0
M  V30 1247 H 107.477 1.30022 -5.18651 0
M  V30 1248 H 107.82 2.0273 -3.63602 0
M  V30 1249 H 108.353 0.360034 -3.96167 0
M  V30 1250 H 105.092 -1.36883 -6.41049 0
M  V30 1251 H 104.612 0.291569 -5.99091 0
M  V30 1252 H 106.291 -0.0606218 -6.46972 0
M  V30 1253 N 106.423 1.57458 -0.0668435 0
M  V30 1254 C 107.672 1.92477 0.602947 0
M  V30 1255 C 107.985 0.948419 1.71068 0
M  V30 1256 O 109.191 1.19124 2.43971 0
M  V30 1257 C 107.647 3.41903 1.12383 0
M  V30 1258 C 107.255 4.47975 0.04737 0
M  V30 1259 C 108.999 3.85931 1.76797 0
M  V30 1260 C 106.906 5.88529 0.582022 0
M  V30 1261 H 105.836 0.718387 0.22899 0
M  V30 1262 H 108.487 1.82978 -0.138276 0
M  V30 1263 H 106.869 3.46459 1.91787 0
M  V30 1264 H 108.043 4.55029 -0.726978 0
M  V30 1265 H 106.358 4.13384 -0.500243 0
M  V30 1266 H 108.955 4.88322 2.17821 0
M  V30 1267 H 109.298 3.23029 2.62599 0
M  V30 1268 H 109.831 3.83958 1.04024 0
M  V30 1269 H 106.57 6.55065 -0.238721 0
M  V30 1270 H 106.09 5.85004 1.324 0
M  V30 1271 H 107.769 6.38258 1.05999 0
M  V30 1272 N 107.901 -0.206675 1.56239 0
M  V30 1273 C 108.848 -1.25617 1.93621 0
M  V30 1274 C 109.818 -1.45824 0.795274 0
M  V30 1275 O 111.003 -1.59148 1.05245 0
M  V30 1276 C 108.143 -2.59839 2.27107 0
M  V30 1277 C 107.256 -2.47308 3.54207 0
M  V30 1278 C 106.391 -3.74155 3.7707 0
M  V30 1279 C 105.43 -3.56407 4.97635 0
M  V30 1280 N 104.567 -4.75238 5.1681 0
M  V30 1281 H 109.407 -0.930383 2.83104 0
M  V30 1282 H 106.944 -0.448065 1.4011 0
M  V30 1283 H 108.902 -3.38021 2.44535 0
M  V30 1284 H 107.532 -2.90485 1.40778 0
M  V30 1285 H 106.584 -1.60483 3.4489 0
M  V30 1286 H 107.896 -2.30122 4.42544 0
M  V30 1287 H 107.05 -4.60778 3.94675 0
M  V30 1288 H 105.789 -3.94282 2.87042 0
M  V30 1289 H 104.794 -2.68168 4.79964 0
M  V30 1290 H 106.019 -3.37736 5.89161 0
M  V30 1291 H 103.965 -4.95651 4.29728 0
M  V30 1292 H 103.882 -4.60835 5.99306 0
M  V30 1293 H 105.15 -5.63246 5.38864 0
M  V30 1294 N 109.379 -1.50304 -0.473955 0
M  V30 1295 C 110.607 -1.64902 -1.24959 0
M  V30 1296 C 111.022 -0.331198 -1.85872 0
M  V30 1297 O 110.379 0.68652 -1.69095 0
M  V30 1298 C 110.43 -2.73803 -2.36038 0
M  V30 1299 O 110.151 -4.00477 -1.77624 0
M  V30 1300 C 111.652 -2.99349 -3.26964 0
M  V30 1301 H 108.872 -0.554383 -0.378022 0
M  V30 1302 H 111.416 -1.9651 -0.566054 0
M  V30 1303 H 109.571 -2.44898 -3.00173 0
M  V30 1304 H 109.985 -4.60678 -2.5075 0
M  V30 1305 H 111.459 -3.79217 -4.01121 0
M  V30 1306 H 111.936 -2.10307 -3.85574 0
M  V30 1307 H 112.542 -3.29774 -2.68569 0
M  V30 1308 N 110.857 0.726932 -1.39834 0
M  V30 1309 C 112.082 1.52121 -1.40976 0
M  V30 1310 C 112.507 1.88098 -0.00826029 0
M  V30 1311 O 111.865 1.52479 0.980807 0
M  V30 1312 C 111.913 2.78021 -2.29644 0
M  V30 1313 O 111.017 3.74272 -1.73188 0
M  V30 1314 H 110.358 0.45908 -0.479731 0
M  V30 1315 H 112.888 0.896207 -1.83927 0
M  V30 1316 H 112.898 3.26671 -2.44438 0
M  V30 1317 H 111.573 2.51169 -3.31492 0
M  V30 1318 H 110.15 3.33073 -1.6768 0
M  V30 1319 N 112.336 1.25143 0.95797 0
M  V30 1320 C 113.283 1.05235 2.05412 0
M  V30 1321 C 114.253 -0.0374561 1.66058 0
M  V30 1322 O 115.438 0.119073 1.90428 0
M  V30 1323 C 112.578 0.673589 3.38462 0
M  V30 1324 C 111.691 1.8379 3.90954 0
M  V30 1325 C 110.826 1.40381 5.12315 0
M  V30 1326 C 109.865 2.53746 5.57027 0
M  V30 1327 N 109.002 2.11136 6.69601 0
M  V30 1328 H 113.842 1.99048 2.21774 0
M  V30 1329 H 111.379 0.991277 1.08683 0
M  V30 1330 H 113.337 0.434964 4.14926 0
M  V30 1331 H 111.967 -0.227554 3.21997 0
M  V30 1332 H 111.019 2.18992 3.11041 0
M  V30 1333 H 112.331 2.68937 4.20089 0
M  V30 1334 H 111.485 1.12464 5.96185 0
M  V30 1335 H 110.224 0.523015 4.84887 0
M  V30 1336 H 109.229 2.82412 4.71724 0
M  V30 1337 H 110.454 3.42398 5.86464 0
M  V30 1338 H 108.4 1.25468 6.4389 0
M  V30 1339 H 108.317 2.89832 6.98236 0
M  V30 1340 H 109.585 1.86385 7.56889 0
M  V30 1341 N 113.814 -1.1601 1.06675 0
M  V30 1342 C 115.044 -1.90251 0.805497 0
M  V30 1343 C 115.452 -1.77891 -0.64431 0
M  V30 1344 O 114.795 -1.12383 -1.45313 0
M  V30 1345 C 114.857 -3.41419 1.12576 0
M  V30 1346 C 114.521 -3.77564 2.57477 0
M  V30 1347 C 115.518 -3.79161 3.55715 0
M  V30 1348 C 113.203 -4.08079 2.92877 0
M  V30 1349 C 115.197 -4.10767 4.8739 0
M  V30 1350 C 112.884 -4.39351 4.24751 0
M  V30 1351 C 113.882 -4.40675 5.21818 0
M  V30 1352 O 113.57 -4.71202 6.51325 0
M  V30 1353 H 113.302 -0.610018 0.291297 0
M  V30 1354 H 115.856 -1.47958 1.4247 0
M  V30 1355 H 114.086 -3.84079 0.449503 0
M  V30 1356 H 115.775 -3.9694 0.84814 0
M  V30 1357 H 116.541 -3.55693 3.29708 0
M  V30 1358 H 112.42 -4.06211 2.17976 0
M  V30 1359 H 115.964 -4.11715 5.63148 0
M  V30 1360 H 111.861 -4.62285 4.50514 0
M  V30 1361 H 112.629 -4.88996 6.56373 0
M  V30 1362 N 115.292 -0.849877 -1.32721 0
M  V30 1363 C 116.517 -0.463856 -2.02146 0
M  V30 1364 C 116.942 0.930449 -1.63476 0
M  V30 1365 O 116.3 1.61033 -0.832952 0
M  V30 1366 C 116.348 -0.604955 -3.55489 0
M  V30 1367 O 115.452 0.36425 -4.10788 0
M  V30 1368 H 114.793 -0.187046 -0.637111 0
M  V30 1369 H 117.323 -1.14775 -1.69375 0
M  V30 1370 H 117.333 -0.490696 -4.05038 0
M  V30 1371 H 116.008 -1.62174 -3.82978 0
M  V30 1372 H 114.585 0.206628 -3.72327 0
M  V30 1373 N 116.77 1.45427 -0.607355 0
M  V30 1374 C 117.998 2.06614 -0.108814 0
M  V30 1375 C 118.413 1.45204 1.2067 0
M  V30 1376 O 117.77 0.566132 1.73497 0
M  V30 1377 C 117.821 3.61481 0.0375347 0
M  V30 1378 O 117.542 4.20598 -1.22593 0
M  V30 1379 C 119.043 4.39652 0.567561 0
M  V30 1380 H 116.263 0.66747 -0.0687351 0
M  V30 1381 H 118.807 1.86675 -0.835022 0
M  V30 1382 H 116.962 3.80762 0.714068 0
M  V30 1383 H 117.376 5.1377 -1.05547 0
M  V30 1384 H 118.85 5.48518 0.61905 0
M  V30 1385 H 119.327 4.09417 1.58978 0
M  V30 1386 H 119.933 4.25234 -0.0749202 0
M  V30 1387 N 118.248 0.346503 1.53744 0
M  V30 1388 C 119.494 -0.249473 2.0126 0
M  V30 1389 C 119.827 -1.49965 1.23386 0
M  V30 1390 O 119.102 -1.91811 0.32229 0
M  V30 1391 C 119.385 -0.560643 3.55709 0
M  V30 1392 C 119.238 0.701836 4.44291 0
M  V30 1393 C 120.557 -1.36905 4.18264 0
M  V30 1394 H 117.676 -0.0891987 0.731582 0
M  V30 1395 H 120.318 0.467624 1.84156 0
M  V30 1396 H 118.468 -1.17156 3.70414 0
M  V30 1397 H 120.14 1.33974 4.41417 0
M  V30 1398 H 118.383 1.32612 4.13033 0
M  V30 1399 H 119.054 0.43933 5.50249 0
M  V30 1400 H 121.53 -0.852448 4.07275 0
M  V30 1401 H 120.406 -1.55553 5.26398 0
M  V30 1402 H 120.667 -2.37203 3.73078 0
M  V30 1403 N 119.726 -1.57421 0.075193 0
M  V30 1404 C 120.974 -1.93236 -0.591974 0
M  V30 1405 C 121.295 -0.956241 -1.69944 0
M  V30 1406 O 120.565 -0.00494792 -1.95899 0
M  V30 1407 H 119.145 -0.713355 -0.22166 0
M  V30 1408 H 121.807 -1.9444 0.133848 0
M  V30 1409 H 120.903 -2.95131 -1.01509 0
M  V30 1410 N 121.204 0.198386 -1.56346 0
M  V30 1411 C 122.451 0.919286 -1.80431 0
M  V30 1412 C 122.779 1.83393 -0.647866 0
M  V30 1413 O 122.034 1.92236 0.366556 0
M  V30 1414 C 122.333 1.77031 -3.10475 0
M  V30 1415 C 121.999 1.00693 -4.39513 0
M  V30 1416 C 120.661 0.796145 -4.74568 0
M  V30 1417 C 123.013 0.469559 -5.19081 0
M  V30 1418 C 120.341 0.0364588 -5.86689 0
M  V30 1419 C 122.693 -0.2769 -6.31994 0
M  V30 1420 C 121.357 -0.49873 -6.65634 0
M  V30 1421 H 120.627 0.336391 -0.660244 0
M  V30 1422 H 123.274 0.185872 -1.90596 0
M  V30 1423 H 121.579 2.5723 -2.95533 0
M  V30 1424 H 123.276 2.33065 -3.26315 0
M  V30 1425 H 119.866 1.18122 -4.12001 0
M  V30 1426 H 124.05 0.619816 -4.92414 0
M  V30 1427 H 119.306 -0.145412 -6.11227 0
M  V30 1428 H 123.48 -0.700684 -6.92866 0
M  V30 1429 H 121.107 -1.0893 -7.52355 0
M  V30 1430 N 122.682 1.50554 0.465978 0
M  V30 1431 C 123.63 1.70324 1.58406 0
M  V30 1432 C 124.624 0.569139 1.59553 0
M  V30 1433 O 125.83 0.749776 1.63641 0
M  V30 1434 H 122.205 0.537688 0.525734 0
M  V30 1435 H 124.176 2.64104 1.38894 0
M  V30 1436 C 122.925 1.81928 2.96307 0
M  V30 1437 H 122.248 2.68586 2.96144 0
M  V30 1438 H 123.688 1.99784 3.73982 0
M  V30 1439 C 122.147 0.572095 3.32007 0
M  V30 1440 O 122.677 -0.286416 4.00678 0
M  V30 1441 N 120.883 0.424606 2.87481 0
M  V30 1442 H 120.43 1.12427 2.31771 0
M  V30 1443 H 120.388 -0.408697 3.11732 0
M  V30 1444 N 124.16 -0.719506 1.40217 0
M  V30 1445 C 125.409 -1.47486 1.37589 0
M  V30 1446 C 125.722 -1.9559 -0.0201568 0
M  V30 1447 O 126.928 -2.70973 -0.169049 0
M  V30 1448 C 125.384 -2.66575 2.41796 0
M  V30 1449 C 124.992 -2.25358 3.87192 0
M  V30 1450 C 126.736 -3.4433 2.48269 0
M  V30 1451 C 124.643 -3.41262 4.83005 0
M  V30 1452 H 123.573 -0.553901 0.511576 0
M  V30 1453 H 126.224 -0.783427 1.65936 0
M  V30 1454 H 124.606 -3.3787 2.06543 0
M  V30 1455 H 125.78 -1.61509 4.31569 0
M  V30 1456 H 124.095 -1.60657 3.84159 0
M  V30 1457 H 126.692 -4.30569 3.17041 0
M  V30 1458 H 127.035 -3.87872 1.51198 0
M  V30 1459 H 127.568 -2.80076 2.82493 0
M  V30 1460 H 124.307 -3.02755 5.81394 0
M  V30 1461 H 123.827 -4.0404 4.43297 0
M  V30 1462 H 125.506 -4.07383 5.02641 0
M  V30 1463 N 125.638 -1.25649 -0.95132 0
M  V30 1464 C 126.548 -1.08073 -2.08224 0
M  V30 1465 C 127.564 -0.0169666 -1.73992 0
M  V30 1466 O 128.74 -0.218593 -2.0021 0
M  V30 1467 C 125.805 -0.704922 -3.39458 0
M  V30 1468 C 124.866 -1.84699 -3.87537 0
M  V30 1469 C 124.099 -1.48902 -5.12508 0
M  V30 1470 O 124.322 -0.386156 -5.69091 0
M  V30 1471 O 123.256 -2.32033 -5.55378 0
M  V30 1472 H 127.082 -2.02924 -2.25954 0
M  V30 1473 H 124.667 -1.04618 -1.06656 0
M  V30 1474 H 126.549 -0.507609 -4.18332 0
M  V30 1475 H 125.224 0.214291 -3.2299 0
M  V30 1476 H 124.131 -2.09919 -3.09653 0
M  V30 1477 H 125.464 -2.74557 -4.08509 0
M  V30 1478 N 127.117 1.15442 -1.07289 0
M  V30 1479 C 128.065 2.22225 -0.686952 0
M  V30 1480 C 129.059 1.66688 0.30193 0
M  V30 1481 O 130.265 1.79236 0.165712 0
M  V30 1482 H 126.64 0.723783 -0.204064 0
M  V30 1483 H 128.611 2.52056 -1.5972 0
M  V30 1484 C 127.36 3.47556 -0.100149 0
M  V30 1485 H 126.683 3.90612 -0.852211 0
M  V30 1486 H 128.123 4.23794 0.132235 0
M  V30 1487 C 126.582 3.16337 1.159 0
M  V30 1488 O 127.112 3.33074 2.24555 0
M  V30 1489 N 125.318 2.70385 1.06491 0
M  V30 1490 H 124.865 2.56966 0.180668 0
M  V30 1491 H 124.823 2.49871 1.90819 0
M  V30 1492 N 128.595 0.856903 1.32268 0
M  V30 1493 C 129.82 0.474569 2.01897 0
M  V30 1494 C 130.245 -0.921766 1.63967 0
M  V30 1495 O 129.603 -1.60589 0.84148 0
M  V30 1496 C 129.651 0.623799 3.55164 0
M  V30 1497 O 128.755 -0.342459 4.10976 0
M  V30 1498 H 128.096 0.190422 0.63611 0
M  V30 1499 H 130.626 1.15672 1.68764 0
M  V30 1500 H 130.636 0.512169 4.04773 0
M  V30 1501 H 129.311 1.64202 3.82113 0
M  V30 1502 H 127.888 -0.18688 3.72431 0
M  V30 1503 N 130.073 -1.45103 0.615059 0
M  V30 1504 C 131.303 -2.06254 0.119596 0
M  V30 1505 C 131.711 -1.4591 -1.20445 0
M  V30 1506 O 131.054 -0.570384 -1.7462 0
M  V30 1507 C 131.116 -3.59396 -0.0865591 0
M  V30 1508 C 130.78 -4.42116 1.15683 0
M  V30 1509 C 131.777 -4.7662 2.07676 0
M  V30 1510 C 129.462 -4.82749 1.38775 0
M  V30 1511 C 131.456 -5.50622 3.21082 0
M  V30 1512 C 129.143 -5.56504 2.52481 0
M  V30 1513 C 130.141 -5.90358 3.43463 0
M  V30 1514 O 129.829 -6.62615 4.55189 0
M  V30 1515 H 129.561 -0.672423 0.0694512 0
M  V30 1516 H 132.115 -1.87219 0.844885 0
M  V30 1517 H 130.345 -3.76859 -0.866823 0
M  V30 1518 H 132.034 -4.02365 -0.534555 0
M  V30 1519 H 132.8 -4.4578 1.91063 0
M  V30 1520 H 128.679 -4.55829 0.688545 0
M  V30 1521 H 132.223 -5.76965 3.92119 0
M  V30 1522 H 128.12 -5.86759 2.69043 0
M  V30 1523 H 128.888 -6.81071 4.53966 0
M  V30 1524 N 131.551 -0.354651 -1.53558 0
M  V30 1525 C 132.828 0.294281 -1.93374 0
M  V30 1526 C 133.208 1.67313 -1.28723 0
M  V30 1527 O 132.556 2.24179 -0.442247 0
M  V30 1528 C 132.766 0.355445 -3.47185 0
M  V30 1529 C 134.114 0.601007 -4.20325 0
M  V30 1530 O 135.138 0.437106 -3.53508 0
M  V30 1531 O 133.997 0.919322 -5.38712 0
M  V30 1532 H 131.091 0.174033 -0.808481 0
M  V30 1533 H 133.637 -0.406638 -1.64756 0
M  V30 1534 H 132.409 -0.611729 -3.86489 0
M  V30 1535 H 132.032 1.1027 -3.82003 0
M  V30 1536 N 133.029 1.57378 -0.0835403 0
M  V30 1537 C 134.445 1.57246 0.273109 0
M  V30 1538 C 134.645 1.09385 1.69225 0
M  V30 1539 O 133.701 0.765051 2.40631 0
M  V30 1540 C 135.014 3.00614 0.0720628 0
M  V30 1541 C 136.562 3.12684 0.1407 0
M  V30 1542 C 137.037 4.57989 -0.0322094 0
M  V30 1543 N 138.528 4.63194 0.0230085 0
M  V30 1544 C 139.263 5.73335 -0.0861941 0
M  V30 1545 N 138.759 6.9235 -0.24958 0
M  V30 1546 N 140.552 5.62093 -0.0282886 0
M  V30 1547 H 132.703 1.86801 -1.0109 0
M  V30 1548 H 134.966 0.861687 -0.395222 0
M  V30 1549 H 134.672 3.39786 -0.907662 0
M  V30 1550 H 134.546 3.68193 0.81936 0
M  V30 1551 H 136.933 2.73391 1.11092 0
M  V30 1552 H 137.014 2.47719 -0.637896 0
M  V30 1553 H 136.658 4.97973 -0.999247 0
M  V30 1554 H 136.588 5.21 0.765937 0
M  V30 1555 H 139.079 3.77613 0.14722 0
M  V30 1556 H 139.392 7.72117 -0.324733 0
M  V30 1557 H 137.737 6.94415 -0.285097 0
M  V30 1558 H 140.928 4.67997 0.0981408 0
M  V30 1559 H 141.101 6.47895 -0.116845 0
M  V30 1560 N 134.507 -0.190092 1.56449 0
M  V30 1561 C 135.437 -1.23816 1.97969 0
M  V30 1562 C 136.418 -1.47201 0.852395 0
M  V30 1563 O 137.603 -1.58854 1.1171 0
M  V30 1564 C 134.733 -2.5813 2.3235 0
M  V30 1565 C 133.687 -2.49348 3.47864 0
M  V30 1566 C 133.013 -3.8798 3.67934 0
M  V30 1567 C 134.313 -2.01424 4.81898 0
M  V30 1568 H 136.007 -0.89311 2.85769 0
M  V30 1569 H 133.553 -0.428177 1.37487 0
M  V30 1570 H 135.506 -3.31637 2.59991 0
M  V30 1571 H 134.23 -2.94386 1.41438 0
M  V30 1572 H 132.889 -1.78297 3.20321 0
M  V30 1573 H 132.537 -4.21597 2.74344 0
M  V30 1574 H 132.237 -3.82978 4.45648 0
M  V30 1575 H 133.761 -4.63101 3.97957 0
M  V30 1576 H 135.175 -2.64693 5.08538 0
M  V30 1577 H 133.572 -2.07413 5.63116 0
M  V30 1578 H 134.642 -0.967677 4.75146 0
M  V30 1579 N 135.985 -1.50799 -0.457987 0
M  V30 1580 C 136.918 -1.65273 -1.57353 0
M  V30 1581 C 137.896 -0.500578 -1.54703 0
M  V30 1582 O 139.08 -0.721781 -1.74134 0
M  V30 1583 C 136.207 -1.64737 -2.95938 0
M  V30 1584 C 135.253 -2.8567 -3.16693 0
M  V30 1585 S 136.086 -4.46791 -2.95191 0
M  V30 1586 C 137.242 -4.48968 -4.36095 0
M  V30 1587 H 137.475 -2.59633 -1.44838 0
M  V30 1588 H 135.008 -1.40225 -0.64625 0
M  V30 1589 H 136.966 -1.65112 -3.7583 0
M  V30 1590 H 135.627 -0.715899 -3.05833 0
M  V30 1591 H 134.82 -2.81637 -4.17967 0
M  V30 1592 H 134.422 -2.8293 -2.44594 0
M  V30 1593 H 136.714 -4.23337 -5.28954 0
M  V30 1594 H 137.657 -5.50664 -4.45168 0
M  V30 1595 H 138.065 -3.78522 -4.18786 0
M  V30 1596 N 137.463 0.71206 -1.40597 0
M  V30 1597 C 138.41 1.82613 -1.41142 0
M  V30 1598 C 139.38 1.63925 -0.267903 0
M  V30 1599 O 140.565 1.85009 -0.466495 0
M  V30 1600 C 137.705 3.20354 -1.28324 0
M  V30 1601 C 136.818 3.50589 -2.52411 0
M  V30 1602 C 135.953 4.77855 -2.32009 0
M  V30 1603 C 134.992 5.01005 -3.51654 0
M  V30 1604 N 134.129 6.19487 -3.30425 0
M  V30 1605 H 138.969 1.81482 -2.36365 0
M  V30 1606 H 136.506 0.886475 -1.17388 0
M  V30 1607 H 138.464 3.99899 -1.18899 0
M  V30 1608 H 137.094 3.20705 -0.367189 0
M  V30 1609 H 136.146 2.65573 -2.72351 0
M  V30 1610 H 137.458 3.63604 -3.41458 0
M  V30 1611 H 136.612 5.65424 -2.19956 0
M  V30 1612 H 135.351 4.67056 -1.40392 0
M  V30 1613 H 134.356 4.1189 -3.64179 0
M  V30 1614 H 135.581 5.13674 -4.44202 0
M  V30 1615 H 133.527 6.09932 -2.41494 0
M  V30 1616 H 133.444 6.33194 -4.13039 0
M  V30 1617 H 134.712 7.09834 -3.22113 0
M  V30 1618 N 138.941 1.26152 0.944643 0
M  V30 1619 C 140.169 1.14259 1.72489 0
M  V30 1620 C 140.584 -0.302555 1.8636 0
M  V30 1621 O 139.941 -1.20741 1.36849 0
M  V30 1622 C 139.992 1.80266 3.13347 0
M  V30 1623 O 139.713 3.19133 3.00143 0
M  V30 1624 C 141.214 1.74283 4.07603 0
M  V30 1625 H 138.434 0.398051 0.540181 0
M  V30 1626 H 140.978 1.66706 1.18446 0
M  V30 1627 H 139.133 1.31766 3.64303 0
M  V30 1628 H 139.547 3.51744 3.89071 0
M  V30 1629 H 141.021 2.25111 5.04013 0
M  V30 1630 H 141.498 0.708631 4.33446 0
M  V30 1631 H 142.104 2.22319 3.62567 0
M  V30 1632 N 140.419 -1.14872 1.07899 0
M  V30 1633 C 141.668 -1.85135 0.800499 0
M  V30 1634 C 141.981 -1.83547 -0.676014 0
M  V30 1635 O 143.187 -2.49548 -1.06948 0
M  V30 1636 C 141.643 -3.3231 1.38197 0
M  V30 1637 C 141.251 -3.42329 2.8899 0
M  V30 1638 C 142.995 -4.0772 1.18174 0
M  V30 1639 C 140.902 -4.83684 3.403 0
M  V30 1640 H 139.832 -0.693563 0.29578 0
M  V30 1641 H 142.483 -1.29532 1.29976 0
M  V30 1642 H 140.865 -3.87618 0.810431 0
M  V30 1643 H 142.039 -2.97097 3.52236 0
M  V30 1644 H 140.354 -2.80369 3.07867 0
M  V30 1645 H 142.951 -5.12049 1.5398 0
M  V30 1646 H 143.294 -4.16124 0.12117 0
M  V30 1647 H 143.827 -3.58696 1.71994 0
M  V30 1648 H 140.566 -4.80465 4.45907 0
M  V30 1649 H 140.086 -5.29474 2.81811 0
M  V30 1650 H 141.765 -5.52558 3.36584 0
M  V30 1651 N 141.898 -0.863906 -1.31812 0
M  V30 1652 C 142.845 -0.313303 -2.28664 0
M  V30 1653 C 143.815 0.584868 -1.55462 0
M  V30 1654 O 145 0.517805 -1.83639 0
M  V30 1655 C 142.14 0.48441 -3.41683 0
M  V30 1656 C 141.253 -0.440594 -4.29747 0
M  V30 1657 C 140.388 0.370652 -5.29905 0
M  V30 1658 C 139.427 -0.551164 -6.09613 0
M  V30 1659 N 138.564 0.223462 -7.01744 0
M  V30 1660 H 143.404 -1.14444 -2.75148 0
M  V30 1661 H 140.941 -0.575769 -1.35364 0
M  V30 1662 H 142.899 0.962627 -4.05943 0
M  V30 1663 H 141.529 1.28029 -2.96325 0
M  V30 1664 H 140.581 -1.03724 -3.65986 0
M  V30 1665 H 141.893 -1.14767 -4.85417 0
M  V30 1666 H 141.047 0.911638 -5.99812 0
M  V30 1667 H 139.786 1.11105 -4.74876 0
M  V30 1668 H 138.791 -1.10396 -5.38603 0
M  V30 1669 H 140.016 -1.29032 -6.66729 0
M  V30 1670 H 137.962 0.946787 -6.49132 0
M  V30 1671 H 137.879 -0.424399 -7.54808 0
M  V30 1672 H 139.147 0.745876 -7.75923 0
M  V30 1673 N 143.376 1.44774 -0.622745 0
M  V30 1674 C 144.286 2.34433 0.0886031 0
M  V30 1675 C 145.302 1.52131 0.844529 0
M  V30 1676 O 146.478 1.84886 0.798691 0
M  V30 1677 C 143.543 3.29986 1.0635 0
M  V30 1678 C 142.604 4.28195 0.307873 0
M  V30 1679 C 141.837 5.19183 1.23633 0
M  V30 1680 O 142.06 5.13918 2.47476 0
M  V30 1681 O 140.994 5.97515 0.725189 0
M  V30 1682 H 144.82 2.96693 -0.648599 0
M  V30 1683 H 142.405 1.44408 -0.382957 0
M  V30 1684 H 144.287 3.88825 1.6246 0
M  V30 1685 H 142.962 2.70269 1.78146 0
M  V30 1686 H 141.869 3.72927 -0.296064 0
M  V30 1687 H 143.202 4.90808 -0.3699 0
M  V30 1688 N 144.854 0.36279 1.53368 0
M  V30 1689 C 145.804 -0.501391 2.22419 0
M  V30 1690 C 146.788 -1.0509 1.2184 0
M  V30 1691 O 147.98 -0.981404 1.47301 0
M  V30 1692 C 145.109 -1.64201 3.01484 0
M  V30 1693 C 144.195 -1.10552 4.09438 0
M  V30 1694 N 144.586 -0.291788 5.04958 0
M  V30 1695 C 142.884 -1.3806 4.24094 0
M  V30 1696 C 143.585 0.00162655 5.817 0
M  V30 1697 N 142.561 -0.595244 5.40331 0
M  V30 1698 H 146.363 0.127159 2.93625 0
M  V30 1699 H 143.877 0.170658 1.61501 0
M  V30 1700 H 145.874 -2.27326 3.49469 0
M  V30 1701 H 144.534 -2.27365 2.31809 0
M  V30 1702 H 145.545 0.0687731 5.17854 0
M  V30 1703 H 142.222 -2.01522 3.65644 0
M  V30 1704 H 143.612 0.659278 6.68658 0
M  V30 1705 N 146.332 -1.57332 0.0918853 0
M  V30 1706 C 147.279 -2.13847 -0.868211 0
M  V30 1707 C 148.249 -1.05618 -1.28196 0
M  V30 1708 O 149.434 -1.33387 -1.36427 0
M  V30 1709 C 146.574 -2.72062 -2.12312 0
M  V30 1710 C 145.687 -3.94514 -1.7602 0
M  V30 1711 C 144.822 -4.40903 -2.96273 0
M  V30 1712 C 143.861 -5.55953 -2.56092 0
M  V30 1713 N 142.998 -5.97209 -3.69169 0
M  V30 1714 H 147.838 -2.95575 -0.379406 0
M  V30 1715 H 145.375 -1.46048 -0.175606 0
M  V30 1716 H 147.333 -3.03931 -2.858 0
M  V30 1717 H 145.963 -1.93068 -2.58698 0
M  V30 1718 H 145.015 -3.68979 -0.925135 0
M  V30 1719 H 146.327 -4.7802 -1.42472 0
M  V30 1720 H 145.481 -4.74539 -3.78018 0
M  V30 1721 H 144.22 -3.56291 -3.33029 0
M  V30 1722 H 143.225 -5.21948 -1.72773 0
M  V30 1723 H 144.45 -6.42311 -2.20484 0
M  V30 1724 H 142.396 -5.15543 -4.05649 0
M  V30 1725 H 142.313 -6.75504 -3.39456 0
M  V30 1726 H 143.581 -6.35475 -4.51434 0
M  V30 1727 N 147.81 0.181792 -1.56548 0
M  V30 1728 C 148.74 1.22765 -1.98623 0
M  V30 1729 C 149.721 1.46747 -0.860189 0
M  V30 1730 O 150.906 1.58259 -1.12551 0
M  V30 1731 C 148.036 2.56894 -2.33715 0
M  V30 1732 C 146.99 2.475 -3.49182 0
M  V30 1733 C 146.316 3.86023 -3.69986 0
M  V30 1734 C 147.616 1.98866 -4.82959 0
M  V30 1735 H 149.31 0.877942 -2.86239 0
M  V30 1736 H 146.856 0.42088 -1.37712 0
M  V30 1737 H 148.809 3.30253 -2.61746 0
M  V30 1738 H 147.533 2.93632 -1.42997 0
M  V30 1739 H 146.192 1.76596 -3.21262 0
M  V30 1740 H 145.84 4.20136 -2.76576 0
M  V30 1741 H 145.54 3.80609 -4.47672 0
M  V30 1742 H 147.064 4.60984 -4.00407 0
M  V30 1743 H 148.478 2.61992 -5.09934 0
M  V30 1744 H 146.875 2.04424 -5.64208 0
M  V30 1745 H 147.945 0.942465 -4.75653 0
M  V30 1746 N 149.288 1.51039 0.449983 0
M  V30 1747 C 150.235 1.71439 1.54523 0
M  V30 1748 C 151.205 0.555871 1.56522 0
M  V30 1749 O 152.39 0.788871 1.73728 0
M  V30 1750 C 149.53 1.83384 2.92343 0
M  V30 1751 C 148.643 3.10873 2.9997 0
M  V30 1752 C 147.778 3.13488 4.28834 0
M  V30 1753 C 146.817 4.35343 4.30282 0
M  V30 1754 N 145.954 4.35579 5.5065 0
M  V30 1755 H 150.794 2.64934 1.36433 0
M  V30 1756 H 148.331 1.31312 0.662982 0
M  V30 1757 H 150.289 1.88291 3.72293 0
M  V30 1758 H 148.919 0.933086 3.0902 0
M  V30 1759 H 147.971 3.15336 2.12761 0
M  V30 1760 H 149.283 4.00814 2.96901 0
M  V30 1761 H 148.437 3.17241 5.17149 0
M  V30 1762 H 147.176 2.21414 4.34543 0
M  V30 1763 H 146.181 4.3178 3.40362 0
M  V30 1764 H 147.406 5.28668 4.26248 0
M  V30 1765 H 145.352 3.46369 5.57104 0
M  V30 1766 H 145.269 5.19313 5.49409 0
M  V30 1767 H 146.537 4.43507 6.41032 0
M  V30 1768 N 150.766 -0.704594 1.40972 0
M  V30 1769 C 151.714 -1.83994 1.42299 0
M  V30 1770 C 152.708 -1.66684 0.302111 0
M  V30 1771 O 153.914 -1.73655 0.473697 0
M  V30 1772 H 150.289 -0.606171 0.44504 0
M  V30 1773 H 152.26 -1.79992 2.38003 0
M  V30 1774 C 151.009 -3.21946 1.31323 0
M  V30 1775 H 150.332 -3.35878 2.16855 0
M  V30 1776 H 151.772 -4.01491 1.36311 0
M  V30 1777 C 150.231 -3.36891 0.0245977 0
M  V30 1778 O 150.761 -3.90687 -0.934153 0
M  V30 1779 N 148.967 -2.90559 -0.0485243 0
M  V30 1780 H 148.514 -2.46968 0.732419 0
M  V30 1781 H 148.472 -3.00937 -0.910171 0
M  V30 1782 N 152.244 -1.26651 -0.937939 0
M  V30 1783 C 153.474 -1.15006 -1.71631 0
M  V30 1784 C 153.882 0.297026 -1.86854 0
M  V30 1785 O 153.225 1.21493 -1.37786 0
M  V30 1786 C 153.287 -1.74984 -3.14039 0
M  V30 1787 C 152.951 -3.24103 -3.2219 0
M  V30 1788 C 153.948 -4.20877 -3.05219 0
M  V30 1789 C 151.633 -3.64625 -3.45476 0
M  V30 1790 C 153.627 -5.56151 -3.11408 0
M  V30 1791 C 151.314 -5.00032 -3.513 0
M  V30 1792 C 152.312 -5.95604 -3.34282 0
M  V30 1793 O 152 -7.28545 -3.3982 0
M  V30 1794 H 151.732 -0.401183 -0.544085 0
M  V30 1795 H 154.286 -1.67832 -1.18413 0
M  V30 1796 H 152.516 -1.16624 -3.68695 0
M  V30 1797 H 154.205 -1.58199 -3.73802 0
M  V30 1798 H 154.971 -3.90908 -2.87081 0
M  V30 1799 H 150.85 -2.90718 -3.57777 0
M  V30 1800 H 154.394 -6.30727 -2.98043 0
M  V30 1801 H 150.291 -5.29659 -3.68959 0
M  V30 1802 H 151.059 -7.3686 -3.56343 0
M  V30 1803 N 153.722 1.14298 -1.08507 0
M  V30 1804 C 154.971 1.84708 -0.810305 0
M  V30 1805 C 155.284 1.83903 0.666271 0
M  V30 1806 O 156.49 2.50112 1.05624 0
M  V30 1807 C 154.946 3.31572 -1.39957 0
M  V30 1808 C 154.554 3.40791 -2.90801 0
M  V30 1809 C 156.298 4.07087 -1.20334 0
M  V30 1810 C 154.205 4.81872 -3.4286 0
M  V30 1811 H 153.135 0.691985 -0.299454 0
M  V30 1812 H 155.786 1.28841 -1.30661 0
M  V30 1813 H 154.168 3.87183 -0.830976 0
M  V30 1814 H 155.342 2.95225 -3.53806 0
M  V30 1815 H 153.657 2.78732 -3.0935 0
M  V30 1816 H 156.254 5.11225 -1.56693 0
M  V30 1817 H 156.597 4.16054 -0.143237 0
M  V30 1818 H 157.13 3.57779 -1.73893 0
M  V30 1819 H 153.869 4.78094 -4.48449 0
M  V30 1820 H 153.389 5.27972 -2.84615 0
M  V30 1821 H 155.068 5.50765 -3.39509 0
M  V30 1822 N 155.201 0.870884 1.31352 0
M  V30 1823 C 156.148 0.325425 2.28494 0
M  V30 1824 C 157.118 -0.576615 1.5577 0
M  V30 1825 O 158.303 -0.508059 1.83911 0
M  V30 1826 C 155.443 -0.466283 3.41935 0
M  V30 1827 C 154.556 0.463378 4.29508 0
M  V30 1828 C 153.691 -0.342544 5.30094 0
M  V30 1829 C 152.73 0.583486 6.09313 0
M  V30 1830 N 151.867 -0.186244 7.01853 0
M  V30 1831 H 156.707 1.15901 2.74538 0
M  V30 1832 H 154.244 0.58294 1.35056 0
M  V30 1833 H 156.202 -0.941085 4.06447 0
M  V30 1834 H 154.832 -1.26456 2.97 0
M  V30 1835 H 153.884 1.05663 3.65431 0
M  V30 1836 H 155.196 1.1734 4.84802 0
M  V30 1837 H 154.35 -0.879816 6.00287 0
M  V30 1838 H 153.089 -1.08585 4.75458 0
M  V30 1839 H 152.094 1.13251 5.3801 0
M  V30 1840 H 153.319 1.32566 6.66035 0
M  V30 1841 H 151.265 -0.912348 6.49625 0
M  V30 1842 H 151.182 0.464422 7.54572 0
M  V30 1843 H 152.45 -0.704716 7.76308 0
M  V30 1844 N 156.679 -1.44442 0.630414 0
M  V30 1845 C 157.589 -2.34476 -0.0761693 0
M  V30 1846 C 158.605 -1.52576 -0.836449 0
M  V30 1847 O 159.781 -1.85307 -0.788874 0
M  V30 1848 C 156.846 -3.30545 -1.04599 0
M  V30 1849 C 155.907 -4.28352 -0.28516 0
M  V30 1850 C 155.14 -5.19831 -1.20878 0
M  V30 1851 O 155.363 -5.15223 -2.44747 0
M  V30 1852 O 154.297 -5.97892 -0.693491 0
M  V30 1853 H 158.123 -2.96345 0.664324 0
M  V30 1854 H 155.708 -1.44203 0.39061 0
M  V30 1855 H 157.59 -3.89681 -1.60396 0
M  V30 1856 H 156.265 -2.7121 -1.76711 0
M  V30 1857 H 155.172 -3.72764 0.315837 0
M  V30 1858 H 156.505 -4.90605 0.395924 0
M  V30 1859 N 158.157 -0.370918 -1.53173 0
M  V30 1860 C 159.382 0.220293 -2.06227 0
M  V30 1861 C 159.807 1.41243 -1.24225 0
M  V30 1862 O 159.165 1.79387 -0.262645 0
M  V30 1863 C 159.213 0.586663 -3.55796 0
M  V30 1864 O 158.317 1.68317 -3.76488 0
M  V30 1865 H 157.658 0.0308099 -0.663285 0
M  V30 1866 H 160.188 -0.533068 -1.97534 0
M  V30 1867 H 160.198 0.85617 -3.98916 0
M  V30 1868 H 158.873 -0.285013 -4.14922 0
M  V30 1869 H 157.45 1.40881 -3.45264 0
M  V30 1870 N 159.635 1.57281 -0.100228 0
M  V30 1871 C 160.881 1.94826 0.563101 0
M  V30 1872 C 161.214 0.982475 1.67514 0
M  V30 1873 O 160.489 0.0164069 1.94493 0
M  V30 1874 C 160.772 3.42453 1.11346 0
M  V30 1875 C 160.625 4.498 0.00612081 0
M  V30 1876 C 161.944 3.91506 2.01024 0
M  V30 1877 H 159.063 0.708428 0.203221 0
M  V30 1878 H 161.705 1.8922 -0.171979 0
M  V30 1879 H 159.855 3.47361 1.7399 0
M  V30 1880 H 161.527 4.57 -0.628357 0
M  V30 1881 H 159.77 4.28756 -0.659581 0
M  V30 1882 H 160.441 5.50306 0.432109 0
M  V30 1883 H 162.917 3.88784 1.48278 0
M  V30 1884 H 161.793 4.95358 2.36457 0
M  V30 1885 H 162.054 3.31099 2.92961 0
M  V30 1886 N 161.113 -0.173488 1.56642 0
M  V30 1887 C 162.06 -1.21482 1.96242 0
M  V30 1888 C 163.03 -1.44104 0.826027 0
M  V30 1889 O 164.215 -1.5688 1.08597 0
M  V30 1890 C 161.355 -2.54964 2.32567 0
M  V30 1891 C 160.468 -2.39739 3.59373 0
M  V30 1892 C 159.603 -3.66072 3.84921 0
M  V30 1893 C 158.642 -3.45771 5.05083 0
M  V30 1894 N 157.779 -4.64169 5.26775 0
M  V30 1895 H 162.619 -0.870123 2.85014 0
M  V30 1896 H 160.156 -0.418245 1.41029 0
M  V30 1897 H 162.114 -3.32758 2.5165 0
M  V30 1898 H 160.744 -2.87433 1.46908 0
M  V30 1899 H 159.796 -1.53131 3.48217 0
M  V30 1900 H 161.108 -2.20683 4.47326 0
M  V30 1901 H 160.262 -4.52303 4.0436 0
M  V30 1902 H 159.001 -3.88105 2.9534 0
M  V30 1903 H 158.006 -2.57927 4.85545 0
M  V30 1904 H 159.231 -3.25163 5.96193 0
M  V30 1905 H 157.177 -4.86425 4.40144 0
M  V30 1906 H 157.094 -4.48019 6.08946 0
M  V30 1907 H 158.362 -5.51689 5.5069 0
M  V30 1908 N 162.591 -1.51276 -0.441967 0
M  V30 1909 C 163.521 -1.752 -1.54361 0
M  V30 1910 C 164.502 -0.601682 -1.59103 0
M  V30 1911 O 165.687 -0.843913 -1.74905 0
M  V30 1912 C 162.817 -1.87282 -2.92477 0
M  V30 1913 C 161.771 -3.02687 -3.02596 0
M  V30 1914 C 161.097 -2.99947 -4.42647 0
M  V30 1915 C 162.397 -4.4273 -2.77106 0
M  V30 1916 H 164.091 -2.67442 -1.34592 0
M  V30 1917 H 161.637 -1.28694 -0.646048 0
M  V30 1918 H 163.59 -2.02602 -3.695 0
M  V30 1919 H 162.314 -0.916844 -3.13467 0
M  V30 1920 H 160.973 -2.87065 -2.28012 0
M  V30 1921 H 160.621 -2.02136 -4.60597 0
M  V30 1922 H 160.321 -3.77439 -4.50348 0
M  V30 1923 H 161.845 -3.17354 -5.2165 0
M  V30 1924 H 163.259 -4.58727 -3.43864 0
M  V30 1925 H 161.656 -5.21893 -2.96222 0
M  V30 1926 H 162.726 -4.53087 -1.72744 0
M  V30 1927 N 164.069 0.697108 -1.41344 0
M  V30 1928 C 165.316 1.45714 -1.40619 0
M  V30 1929 C 165.644 1.94494 -0.0147907 0
M  V30 1930 O 164.899 1.69794 0.973066 0
M  V30 1931 C 165.198 2.68553 -2.35826 0
M  V30 1932 C 164.864 2.38438 -3.82698 0
M  V30 1933 C 163.526 2.29936 -4.22709 0
M  V30 1934 C 165.878 2.13567 -4.75435 0
M  V30 1935 C 163.206 1.94656 -5.53467 0
M  V30 1936 C 165.558 1.79797 -6.06511 0
M  V30 1937 C 164.222 1.69789 -6.45545 0
M  V30 1938 H 163.492 0.533206 -0.51456 0
M  V30 1939 H 166.139 0.796901 -1.74131 0
M  V30 1940 H 164.444 3.39503 -1.95563 0
M  V30 1941 H 166.141 3.2669 -2.32539 0
M  V30 1942 H 162.731 2.4595 -3.51008 0
M  V30 1943 H 166.915 2.19082 -4.45328 0
M  V30 1944 H 162.171 1.8546 -5.82593 0
M  V30 1945 H 166.345 1.59572 -6.77872 0
M  V30 1946 H 163.972 1.4222 -7.46778 0
M  V30 1947 N 165.547 1.27147 0.931209 0
M  V30 1948 C 166.495 1.09398 2.05268 0
M  V30 1949 C 167.489 0.0180591 1.6939 0
M  V30 1950 O 168.695 0.17551 1.79142 0
M  V30 1951 H 165.07 0.336986 0.672268 0
M  V30 1952 H 167.041 2.04416 2.17386 0
M  V30 1953 C 165.79 0.75424 3.39421 0
M  V30 1954 H 165.113 1.57404 3.67511 0
M  V30 1955 H 166.553 0.669903 4.18674 0
M  V30 1956 C 165.012 -0.541197 3.32525 0
M  V30 1957 O 165.542 -1.57664 3.69466 0
M  V30 1958 N 163.748 -0.535517 2.85623 0
M  V30 1959 H 163.295 0.307511 2.55758 0
M  V30 1960 H 163.253 -1.40236 2.81392 0
M  V30 1961 N 167.025 -1.13721 1.09112 0
M  V30 1962 C 167.972 -2.19031 0.727591 0
M  V30 1963 C 168.942 -1.63555 -0.289656 0
M  V30 1964 O 170.127 -1.90023 -0.172026 0
M  V30 1965 C 167.267 -3.4477 0.15082 0
M  V30 1966 C 166.38 -4.14365 1.22172 0
M  V30 1967 C 165.515 -5.27709 0.608042 0
M  V30 1968 C 164.554 -5.89147 1.66047 0
M  V30 1969 N 163.691 -6.93929 1.06806 0
M  V30 1970 H 168.531 -2.49475 1.62991 0
M  V30 1971 H 166.068 -1.22499 0.81439 0
M  V30 1972 H 168.026 -4.16714 -0.201358 0
M  V30 1973 H 166.656 -3.14787 -0.714783 0
M  V30 1974 H 165.708 -3.40737 1.69122 0
M  V30 1975 H 167.02 -4.56114 2.01895 0
M  V30 1976 H 166.174 -6.06355 0.204523 0
M  V30 1977 H 164.913 -4.872 -0.220769 0
M  V30 1978 H 163.918 -5.09198 2.07357 0
M  V30 1979 H 165.143 -6.31729 2.49189 0
M  V30 1980 H 163.089 -6.55483 0.260476 0
M  V30 1981 H 163.006 -7.34202 1.8023 0
M  V30 1982 H 164.274 -7.76434 0.690644 0
M  V30 1983 N 168.503 -0.877838 -1.30888 0
M  V30 1984 C 169.751 -0.491723 -1.96027 0
M  V30 1985 C 170.072 0.960827 -1.69685 0
M  V30 1986 O 169.342 1.67462 -1.01654 0
M  V30 1987 H 167.922 -0.17885 -0.725273 0
M  V30 1988 H 170.584 -1.11935 -1.59551 0
M  V30 1989 H 169.68 -0.656016 -3.05128 0
M  V30 1990 N 169.982 1.44106 -0.638065 0
M  V30 1991 C 170.912 2.33448 0.0494287 0
M  V30 1992 C 171.893 1.48606 0.827672 0
M  V30 1993 O 173.078 1.77308 0.792173 0
M  V30 1994 C 170.208 3.31771 1.02691 0
M  V30 1995 C 169.162 4.26485 0.359823 0
M  V30 1996 C 168.488 5.14729 1.44769 0
M  V30 1997 C 169.788 5.17056 -0.738296 0
M  V30 1998 H 171.482 2.91183 -0.696636 0
M  V30 1999 H 169.028 1.40014 -0.336456 0
M  V30 2000 H 170.981 3.93161 1.51666 0
M  V30 2001 H 169.705 2.7226 1.80395 0
M  V30 2002 H 168.364 3.66437 -0.10934 0
M  V30 2003 H 168.012 4.51566 2.21578 0
M  V30 2004 H 167.712 5.78913 1.00668 0
M  V30 2005 H 169.236 5.78991 1.93911 0
M  V30 2006 H 170.65 5.72342 -0.331354 0
M  V30 2007 H 169.047 5.89879 -1.10286 0
M  V30 2008 H 170.117 4.57652 -1.60258 0
M  V30 2009 N 171.46 0.379036 1.52974 0
M  V30 2010 C 172.688 -0.20679 2.05864 0
M  V30 2011 C 173.103 -1.41356 1.25155 0
M  V30 2012 O 172.46 -1.8009 0.295588 0
M  V30 2013 C 172.511 -0.587045 3.56702 0
M  V30 2014 O 172.232 0.571776 4.34353 0
M  V30 2015 C 173.733 -1.22983 4.25899 0
M  V30 2016 H 170.953 -0.0336123 0.670158 0
M  V30 2017 H 173.497 0.541298 1.97206 0
M  V30 2018 H 171.652 -1.28504 3.65466 0
M  V30 2019 H 172.066 0.261544 5.23847 0
M  V30 2020 H 173.54 -1.44635 5.32715 0
M  V30 2021 H 174.017 -2.19416 3.80465 0
M  V30 2022 H 174.623 -0.572892 4.21424 0
M  V30 2023 N 172.938 -1.57226 0.108567 0
M  V30 2024 C 173.885 -2.14756 -0.845481 0
M  V30 2025 C 174.855 -1.06971 -1.27068 0
M  V30 2026 O 176.04 -1.34827 -1.35005 0
M  V30 2027 C 173.18 -2.74298 -2.09415 0
M  V30 2028 C 172.293 -3.96358 -1.71826 0
M  V30 2029 C 171.428 -4.44021 -2.9158 0
M  V30 2030 C 170.467 -5.58637 -2.50181 0
M  V30 2031 N 169.604 -6.01091 -3.62814 0
M  V30 2032 H 174.444 -2.95961 -0.348035 0
M  V30 2033 H 171.981 -1.46226 -0.160106 0
M  V30 2034 H 173.939 -3.06945 -2.82561 0
M  V30 2035 H 172.569 -1.95801 -2.56636 0
M  V30 2036 H 171.621 -3.69939 -0.885947 0
M  V30 2037 H 172.933 -4.79504 -1.37394 0
M  V30 2038 H 172.087 -4.78522 -3.72963 0
M  V30 2039 H 170.826 -3.59803 -3.29231 0
M  V30 2040 H 169.831 -5.23751 -1.67228 0
M  V30 2041 H 171.056 -6.44613 -2.13659 0
M  V30 2042 H 169.002 -5.19817 -4.00158 0
M  V30 2043 H 168.919 -6.79066 -3.32273 0
M  V30 2044 H 170.187 -6.40227 -4.44668 0
M  V30 2045 N 174.416 0.165178 -1.56732 0
M  V30 2046 C 175.363 1.2044 -1.96883 0
M  V30 2047 C 176.333 1.43664 -0.833657 0
M  V30 2048 O 177.518 1.56302 -1.09427 0
M  V30 2049 C 174.658 2.53727 -2.33916 0
M  V30 2050 C 173.771 2.3783 -3.6064 0
M  V30 2051 C 172.906 3.64026 -3.86857 0
M  V30 2052 C 171.945 3.43088 -5.06909 0
M  V30 2053 N 171.082 4.61369 -5.29229 0
M  V30 2054 H 175.922 0.854996 -2.85471 0
M  V30 2055 H 173.459 0.41076 -1.41249 0
M  V30 2056 H 175.417 3.31419 -2.53411 0
M  V30 2057 H 174.047 2.8665 -1.48431 0
M  V30 2058 H 173.099 1.51282 -3.49024 0
M  V30 2059 H 174.411 2.18308 -4.4849 0
M  V30 2060 H 173.565 4.50152 -4.06753 0
M  V30 2061 H 172.304 3.86533 -2.97394 0
M  V30 2062 H 171.309 2.55349 -4.86906 0
M  V30 2063 H 172.534 3.21997 -5.97909 0
M  V30 2064 H 170.48 4.84084 -4.42718 0
M  V30 2065 H 170.397 4.44783 -6.11313 0
M  V30 2066 H 171.665 5.48761 -5.53608 0
M  V30 2067 N 175.894 1.51508 0.433938 0
M  V30 2068 C 177.119 1.68443 1.21003 0
M  V30 2069 C 177.544 0.382636 1.84167 0
M  V30 2070 O 176.902 -0.65755 1.68956 0
M  V30 2071 C 176.95 2.80405 2.26727 0
M  V30 2072 O 176.054 2.44245 3.32292 0
M  V30 2073 H 175.395 0.561536 0.354363 0
M  V30 2074 H 177.925 1.9809 0.512024 0
M  V30 2075 H 177.935 3.0459 2.71457 0
M  V30 2076 H 176.61 3.74867 1.80132 0
M  V30 2077 H 175.187 2.30644 2.93015 0
M  V30 2078 N 177.372 -0.689602 1.41712 0
M  V30 2079 C 178.602 -1.47613 1.44548 0
M  V30 2080 C 179.01 -1.89132 0.0509034 0
M  V30 2081 O 178.353 -1.57741 -0.94146 0
M  V30 2082 C 178.415 -2.76596 2.2964 0
M  V30 2083 C 178.079 -2.57245 3.77722 0
M  V30 2084 C 179.076 -2.22804 4.69739 0
M  V30 2085 C 176.761 -2.727 4.2183 0
M  V30 2086 C 178.755 -2.04064 6.03851 0
M  V30 2087 C 176.442 -2.53576 5.56006 0
M  V30 2088 C 177.44 -2.1931 6.46832 0
M  V30 2089 O 177.128 -2.00359 7.78532 0
M  V30 2090 H 176.86 -0.461227 0.494212 0
M  V30 2091 H 179.414 -0.856045 1.86711 0
M  V30 2092 H 177.644 -3.41033 1.82301 0
M  V30 2093 H 179.333 -3.38424 2.24107 0
M  V30 2094 H 180.099 -2.10473 4.36951 0
M  V30 2095 H 175.978 -2.98353 3.51435 0
M  V30 2096 H 179.522 -1.77241 6.74708 0
M  V30 2097 H 175.419 -2.65499 5.88371 0
M  V30 2098 H 176.187 -2.15075 7.89737 0
M  V30 2099 N 178.85 -1.27639 -0.924453 0
M  V30 2100 C 179.78 -1.13166 -2.04244 0
M  V30 2101 C 180.761 -0.032256 -1.70069 0
M  V30 2102 O 181.946 -0.207328 -1.9309 0
M  V30 2103 C 179.076 -0.781496 -3.38393 0
M  V30 2104 C 178.03 -1.83449 -3.86692 0
M  V30 2105 C 177.356 -1.33822 -5.17683 0
M  V30 2106 C 178.656 -3.23917 -4.09726 0
M  V30 2107 H 180.35 -2.06689 -2.1661 0
M  V30 2108 H 177.896 -0.995136 -1.04082 0
M  V30 2109 H 179.849 -0.667057 -4.16087 0
M  V30 2110 H 178.573 0.189439 -3.2605 0
M  V30 2111 H 177.232 -1.93789 -3.11193 0
M  V30 2112 H 176.88 -0.35665 -5.01734 0
M  V30 2113 H 176.58 -2.04224 -5.50968 0
M  V30 2114 H 178.104 -1.23679 -5.97943 0
M  V30 2115 H 179.518 -3.16559 -4.77978 0
M  V30 2116 H 177.915 -3.92059 -4.54324 0
M  V30 2117 H 178.985 -3.68729 -3.14908 0
M  V30 2118 N 180.328 1.1314 -1.09713 0
M  V30 2119 C 181.576 1.84119 -0.833338 0
M  V30 2120 C 181.897 1.84097 0.642904 0
M  V30 2121 O 181.167 1.29881 1.46655 0
M  V30 2122 H 179.747 0.681766 -0.305293 0
M  V30 2123 H 182.409 1.37038 -1.38588 0
M  V30 2124 H 181.505 2.88543 -1.18951 0
M  V30 2125 N 181.806 0.884767 1.30421 0
M  V30 2126 C 183.031 0.517288 2.00845 0
M  V30 2127 C 183.456 -0.886779 1.65885 0
M  V30 2128 O 182.814 -1.58768 0.875354 0
M  V30 2129 C 182.862 0.698994 3.5376 0
M  V30 2130 O 181.966 -0.255208 4.1161 0
M  V30 2131 H 181.307 0.203872 0.631927 0
M  V30 2132 H 183.837 1.19225 1.66272 0
M  V30 2133 H 183.847 0.597912 4.03595 0
M  V30 2134 H 182.522 1.72271 3.78544 0
M  V30 2135 H 181.099 -0.10784 3.72744 0
M  V30 2136 N 183.284 -1.43765 0.645699 0
M  V30 2137 C 184.194 -2.34544 -0.0512957 0
M  V30 2138 C 185.21 -1.53455 -0.82022 0
M  V30 2139 O 186.386 -1.86133 -0.769176 0
M  V30 2140 C 183.451 -3.31636 -1.01087 0
M  V30 2141 C 182.512 -4.2863 -0.239712 0
M  V30 2142 C 181.745 -5.21084 -1.15358 0
M  V30 2143 O 181.968 -5.1779 -2.39269 0
M  V30 2144 O 180.902 -5.98593 -0.630038 0
M  V30 2145 H 184.728 -2.95624 0.695718 0
M  V30 2146 H 182.313 -1.43781 0.405882 0
M  V30 2147 H 184.195 -3.9136 -1.56254 0
M  V30 2148 H 182.87 -2.73069 -1.73824 0
M  V30 2149 H 181.777 -3.72408 0.355356 0
M  V30 2150 H 183.11 -4.90157 0.447936 0
M  V30 2151 N 184.763 -0.387143 -1.52771 0
M  V30 2152 C 186.01 0.195735 -2.01552 0
M  V30 2153 C 186.338 1.46995 -1.27369 0
M  V30 2154 O 185.593 1.92325 -0.361879 0
M  V30 2155 C 185.892 0.512209 -3.53711 0
M  V30 2156 C 185.558 -0.670202 -4.45891 0
M  V30 2157 C 184.22 -0.994586 -4.70809 0
M  V30 2158 C 186.572 -1.46134 -5.00294 0
M  V30 2159 C 183.9 -2.11169 -5.4738 0
M  V30 2160 C 186.252 -2.56903 -5.78086 0
M  V30 2161 C 184.916 -2.89852 -6.01284 0
M  V30 2162 H 184.186 0.0716246 -0.73753 0
M  V30 2163 H 186.833 -0.524046 -1.8419 0
M  V30 2164 H 185.138 1.31329 -3.69134 0
M  V30 2165 H 186.835 0.975804 -3.88946 0
M  V30 2166 H 183.425 -0.407366 -4.2666 0
M  V30 2167 H 187.609 -1.22397 -4.80971 0
M  V30 2168 H 182.865 -2.3707 -5.63567 0
M  V30 2169 H 187.039 -3.18608 -6.19243 0
M  V30 2170 H 184.666 -3.76533 -6.60399 0
M  V30 2171 N 186.241 1.57166 -0.116904 0
M  V30 2172 C 187.518 1.86645 0.585049 0
M  V30 2173 C 187.898 1.0177 1.84949 0
M  V30 2174 O 187.246 0.0960379 2.28298 0
M  V30 2175 C 187.456 3.37736 0.879507 0
M  V30 2176 C 188.804 4.06289 1.23348 0
M  V30 2177 O 189.828 3.42743 0.969836 0
M  V30 2178 O 188.687 5.18455 1.7282 0
M  V30 2179 H 185.781 0.772593 0.295007 0
M  V30 2180 H 188.327 1.69025 -0.151249 0
M  V30 2181 H 187.099 3.91296 -0.0166136 0
M  V30 2182 H 186.722 3.6078 1.67103 0
M  V30 2183 N 187.719 -0.156864 1.56817 0
M  V30 2184 C 188.667 -1.21319 1.98455 0
M  V30 2185 C 189.661 -1.45025 0.875444 0
M  V30 2186 O 190.867 -1.45435 1.0606 0
M  V30 2187 H 187.242 -0.408142 0.631605 0
M  V30 2188 H 189.213 -0.835244 2.86472 0
M  V30 2189 C 187.962 -2.54148 2.37285 0
M  V30 2190 H 187.285 -2.36733 3.22176 0
M  V30 2191 H 188.725 -3.26712 2.70251 0
M  V30 2192 C 187.184 -3.13967 1.22173 0
M  V30 2193 O 187.714 -3.98357 0.517149 0
M  V30 2194 N 185.92 -2.7327 0.988536 0
M  V30 2195 H 185.467 -2.04744 1.56326 0
M  V30 2196 H 185.425 -3.13628 0.220209 0
M  V30 2197 N 189.197 -1.51736 -0.425897 0
M  V30 2198 C 190.443 -1.65214 -1.1761 0
M  V30 2199 C 190.776 -0.372778 -1.90589 0
M  V30 2200 O 190.051 0.628139 -1.84078 0
M  V30 2201 C 190.334 -2.86312 -2.18398 0
M  V30 2202 C 190.187 -4.24254 -1.49426 0
M  V30 2203 C 191.506 -3.02925 -3.19256 0
M  V30 2204 H 188.625 -0.601263 -0.426206 0
M  V30 2205 H 191.267 -1.8425 -0.463882 0
M  V30 2206 H 189.417 -2.70213 -2.79137 0
M  V30 2207 H 191.089 -4.52046 -0.919362 0
M  V30 2208 H 189.332 -4.26426 -0.796432 0
M  V30 2209 H 190.003 -5.05001 -2.22885 0
M  V30 2210 H 192.479 -3.1781 -2.68581 0
M  V30 2211 H 191.355 -3.89199 -3.8706 0
M  V30 2212 H 191.616 -2.15497 -3.86023 0
M  V30 2213 N 190.675 0.682077 -1.42076 0
M  V30 2214 C 191.585 1.82535 -1.47371 0
M  V30 2215 C 192.601 1.7017 -0.363079 0
M  V30 2216 O 193.777 1.91848 -0.612875 0
M  V30 2217 C 190.842 3.18624 -1.36674 0
M  V30 2218 C 189.903 3.42999 -2.58167 0
M  V30 2219 C 189.136 4.72595 -2.4797 0
M  V30 2220 O 189.359 5.50006 -1.5116 0
M  V30 2221 O 188.293 4.98054 -3.37974 0
M  V30 2222 H 192.119 1.81023 -2.43853 0
M  V30 2223 H 189.704 0.836887 -1.2376 0
M  V30 2224 H 191.586 3.99847 -1.33043 0
M  V30 2225 H 190.261 3.20789 -0.433138 0
M  V30 2226 H 189.168 2.61653 -2.67373 0
M  V30 2227 H 190.501 3.45659 -3.50401 0
M  V30 2228 N 192.153 1.28127 0.917671 0
M  V30 2229 C 193.083 1.14248 2.03641 0
M  V30 2230 C 194.064 0.0412748 1.7005 0
M  V30 2231 O 195.249 0.217566 1.92977 0
M  V30 2232 C 192.379 0.799431 3.37974 0
M  V30 2233 C 191.333 1.85497 3.85713 0
M  V30 2234 C 190.659 1.36565 5.16966 0
M  V30 2235 C 191.959 3.26085 4.08002 0
M  V30 2236 H 193.653 2.07835 2.15511 0
M  V30 2237 H 191.199 1.00064 1.03553 0
M  V30 2238 H 193.152 0.689114 4.15727 0
M  V30 2239 H 191.876 -0.172145 3.26146 0
M  V30 2240 H 190.535 1.95437 3.10161 0
M  V30 2241 H 190.183 0.383253 5.01538 0
M  V30 2242 H 189.883 2.07143 5.49878 0
M  V30 2243 H 191.407 1.26848 5.97279 0
M  V30 2244 H 192.821 3.19089 4.76293 0
M  V30 2245 H 191.218 3.94462 4.52238 0
M  V30 2246 H 192.288 3.70394 3.12948 0
M  V30 2247 N 193.631 -1.12557 1.10312 0
M  V30 2248 C 194.578 -2.18247 0.750781 0
M  V30 2249 C 195.548 -1.63853 -0.272293 0
M  V30 2250 O 196.733 -1.90195 -0.151862 0
M  V30 2251 C 193.873 -3.44591 0.187379 0
M  V30 2252 C 192.986 -4.13046 1.2656 0
M  V30 2253 C 192.121 -5.27034 0.663978 0
M  V30 2254 C 191.16 -5.87353 1.72287 0
M  V30 2255 N 190.297 -6.92757 1.1416 0
M  V30 2256 H 195.137 -2.47732 1.65628 0
M  V30 2257 H 192.674 -1.21629 0.827337 0
M  V30 2258 H 194.632 -4.16904 -0.157148 0
M  V30 2259 H 193.262 -3.15527 -0.681355 0
M  V30 2260 H 192.314 -3.38924 1.72727 0
M  V30 2261 H 193.626 -4.53947 2.06721 0
M  V30 2262 H 192.78 -6.06104 0.268824 0
M  V30 2263 H 191.519 -4.87407 -0.169082 0
M  V30 2264 H 190.524 -5.06971 2.12746 0
M  V30 2265 H 191.749 -6.29051 2.55875 0
M  V30 2266 H 189.695 -6.5517 0.329984 0
M  V30 2267 H 189.612 -7.3225 1.88007 0
M  V30 2268 H 190.88 -7.75658 0.772956 0
M  V30 2269 N 195.109 -0.891671 -1.2995 0
M  V30 2270 C 196.386 -0.433307 -1.9074 0
M  V30 2271 C 196.766 1.08646 -1.80995 0
M  V30 2272 O 196.114 1.92476 -1.23147 0
M  V30 2273 C 196.324 -0.938895 -3.36134 0
M  V30 2274 C 197.672 -0.977829 -4.13187 0
M  V30 2275 O 198.696 -0.886015 -3.45005 0
M  V30 2276 O 197.555 -1.11453 -5.35015 0
M  V30 2277 H 194.649 -0.133699 -0.816121 0
M  V30 2278 H 197.195 -0.981011 -1.38471 0
M  V30 2279 H 195.967 -1.98281 -3.37343 0
M  V30 2280 H 195.59 -0.37074 -3.95868 0
M  V30 2281 N 196.587 1.43421 -0.653314 0
M  V30 2282 C 197.517 2.33487 0.0246656 0
M  V30 2283 C 198.498 1.49475 0.811863 0
M  V30 2284 O 199.683 1.78139 0.773322 0
M  V30 2285 C 196.813 3.32841 0.99166 0
M  V30 2286 C 195.767 4.26842 0.314568 0
M  V30 2287 C 195.093 5.16236 1.39302 0
M  V30 2288 C 196.393 5.16243 -0.793095 0
M  V30 2289 H 198.087 2.90427 -0.727481 0
M  V30 2290 H 195.633 1.39649 -0.351287 0
M  V30 2291 H 197.586 3.94747 1.47487 0
M  V30 2292 H 196.31 2.74158 1.77497 0
M  V30 2293 H 194.969 3.663 -0.148199 0
M  V30 2294 H 194.617 4.53891 2.16776 0
M  V30 2295 H 194.317 5.79948 0.945223 0
M  V30 2296 H 195.841 5.81015 1.87759 0
M  V30 2297 H 197.255 5.71958 -0.392039 0
M  V30 2298 H 195.652 5.88676 -1.16536 0
M  V30 2299 H 196.722 4.55927 -1.65103 0
M  V30 2300 N 198.065 0.39524 1.52563 0
M  V30 2301 C 199.028 -0.425001 2.25225 0
M  V30 2302 C 200.028 -0.985266 1.27079 0
M  V30 2303 O 201.218 -0.866332 1.5113 0
M  V30 2304 C 198.35 -1.59686 3.01186 0
M  V30 2305 H 199.543 0.211233 2.99155 0
M  V30 2306 H 197.096 0.147472 1.55603 0
M  V30 2307 H 197.831 -2.27035 2.31572 0
M  V30 2308 H 197.616 -1.20176 3.73229 0
M  V30 2309 H 199.106 -2.17743 3.5634 0
M  V30 2310 N 199.544 -1.57102 0.125237 0
M  V30 2311 C 200.492 -2.16905 -0.839927 0
M  V30 2312 C 201.486 -1.11998 -1.27094 0
M  V30 2313 O 202.692 -1.3029 -1.24195 0
M  V30 2314 H 199.067 -0.694252 -0.288995 0
M  V30 2315 H 201.038 -2.96774 -0.311115 0
M  V30 2316 C 199.787 -2.78795 -2.07771 0
M  V30 2317 H 199.11 -3.59221 -1.755 0
M  V30 2318 H 200.55 -3.2417 -2.73295 0
M  V30 2319 C 199.009 -1.76193 -2.87155 0
M  V30 2320 O 199.539 -1.21909 -3.82755 0
M  V30 2321 N 197.745 -1.45991 -2.51267 0
M  V30 2322 H 197.292 -1.90325 -1.73592 0
M  V30 2323 H 197.25 -0.775844 -3.04677 0
M  V30 2324 N 201.022 0.148545 -1.56898 0
M  V30 2325 C 202.268 0.862694 -1.83536 0
M  V30 2326 C 202.601 1.80889 -0.706604 0
M  V30 2327 O 201.876 1.92328 0.289885 0
M  V30 2328 C 202.159 1.63853 -3.20662 0
M  V30 2329 C 202.012 0.713925 -4.44098 0
M  V30 2330 C 203.331 2.60133 -3.54991 0
M  V30 2331 H 200.45 0.312179 -0.667618 0
M  V30 2332 H 203.092 0.127953 -1.89569 0
M  V30 2333 H 201.242 2.26489 -3.1565 0
M  V30 2334 H 202.914 0.098686 -4.61194 0
M  V30 2335 H 201.157 0.0234019 -4.33794 0
M  V30 2336 H 201.828 1.29278 -5.36648 0
M  V30 2337 H 204.304 2.07616 -3.60603 0
M  V30 2338 H 203.18 3.11468 -4.51972 0
M  V30 2339 H 203.441 3.41417 -2.80868 0
M  V30 2340 N 202.5 1.5196 0.417844 0
M  V30 2341 C 203.43 1.77634 1.51554 0
M  V30 2342 C 204.411 0.626918 1.58126 0
M  V30 2343 O 205.596 0.871632 1.7354 0
M  V30 2344 C 202.726 1.91911 2.8946 0
M  V30 2345 C 201.68 3.07463 2.97743 0
M  V30 2346 C 201.006 3.06951 4.37819 0
M  V30 2347 C 202.306 4.47082 2.70027 0
M  V30 2348 H 204 2.6955 1.3032 0
M  V30 2349 H 201.546 1.29706 0.625492 0
M  V30 2350 H 203.499 2.08455 3.6623 0
M  V30 2351 H 202.223 0.966598 3.11969 0
M  V30 2352 H 200.882 2.90656 2.23416 0
M  V30 2353 H 200.53 2.09438 4.57323 0
M  V30 2354 H 200.23 3.84556 4.44286 0
M  V30 2355 H 201.754 3.25613 5.16535 0
M  V30 2356 H 203.168 4.6414 3.36522 0
M  V30 2357 H 201.565 5.2654 2.87881 0
M  V30 2358 H 202.635 4.55777 1.65514 0
M  V30 2359 N 203.978 -0.674533 1.42435 0
M  V30 2360 C 205.203 -1.46784 1.46524 0
M  V30 2361 C 205.628 -1.87938 0.078066 0
M  V30 2362 O 204.986 -1.56014 -0.92354 0
M  V30 2363 C 205.034 -2.69307 2.39805 0
M  V30 2364 O 204.138 -3.67587 1.86959 0
M  V30 2365 H 203.479 -0.440959 0.496439 0
M  V30 2366 H 206.009 -0.827326 1.87127 0
M  V30 2367 H 206.019 -3.17374 2.56393 0
M  V30 2368 H 204.694 -2.38692 3.40586 0
M  V30 2369 H 203.271 -3.2662 1.79927 0
M  V30 2370 N 205.456 -1.28612 -0.910864 0
M  V30 2371 C 206.703 -1.15934 -1.66029 0
M  V30 2372 C 207.031 0.291483 -1.92303 0
M  V30 2373 O 206.286 1.22816 -1.52364 0
M  V30 2374 C 206.585 -1.90624 -3.0232 0
M  V30 2375 C 206.251 -3.40405 -2.95695 0
M  V30 2376 C 204.913 -3.81255 -2.93595 0
M  V30 2377 C 207.265 -4.359 -2.85728 0
M  V30 2378 C 204.593 -5.15936 -2.79334 0
M  V30 2379 C 206.945 -5.70657 -2.73007 0
M  V30 2380 C 205.609 -6.10779 -2.69267 0
M  V30 2381 H 204.879 -0.424234 -0.607541 0
M  V30 2382 H 207.526 -1.5942 -1.06101 0
M  V30 2383 H 205.831 -1.39696 -3.6605 0
M  V30 2384 H 207.528 -1.78228 -3.59215 0
M  V30 2385 H 204.118 -3.07927 -2.98125 0
M  V30 2386 H 208.302 -4.053 -2.86436 0
M  V30 2387 H 203.558 -5.46146 -2.74835 0
M  V30 2388 H 207.732 -6.44311 -2.64264 0
M  V30 2389 H 205.359 -7.1509 -2.57974 0
M  V30 2390 N 206.934 1.1197 -1.10907 0
M  V30 2391 C 208.182 1.83225 -0.852819 0
M  V30 2392 C 208.503 1.84769 0.623341 0
M  V30 2393 O 207.773 1.3143 1.45269 0
M  V30 2394 H 206.353 0.67849 -0.312507 0
M  V30 2395 H 209.015 1.3556 -1.40033 0
M  V30 2396 H 208.111 2.87265 -1.22005 0
M  V30 2397 N 208.412 0.89855 1.29475 0
M  V30 2398 C 209.322 0.379974 2.31502 0
M  V30 2399 C 210.338 -0.524695 1.659 0
M  V30 2400 O 211.514 -0.414551 1.97087 0
M  V30 2401 C 208.579 -0.385138 3.44554 0
M  V30 2402 C 207.64 0.550914 4.2575 0
M  V30 2403 C 206.873 -0.177778 5.33404 0
M  V30 2404 O 207.096 -1.40189 5.52904 0
M  V30 2405 O 206.03 0.479106 5.9999 0
M  V30 2406 H 209.856 1.22639 2.77837 0
M  V30 2407 H 207.441 0.662834 1.33891 0
M  V30 2408 H 209.323 -0.817841 4.13388 0
M  V30 2409 H 207.998 -1.20763 3.0033 0
M  V30 2410 H 206.905 1.03271 3.59564 0
M  V30 2411 H 208.238 1.33979 4.73614 0
M  V30 2412 N 209.89 -1.43072 0.660911 0
M  V30 2413 C 210.853 -2.29194 -0.0166406 0
M  V30 2414 C 211.853 -1.42609 -0.742912 0
M  V30 2415 O 213.043 -1.64155 -0.583004 0
M  V30 2416 C 210.175 -3.24831 -1.0343 0
M  V30 2417 H 211.368 -2.90596 0.741208 0
M  V30 2418 H 208.921 -1.5048 0.422532 0
M  V30 2419 H 209.656 -2.68339 -1.82111 0
M  V30 2420 H 209.441 -3.88676 -0.517082 0
M  V30 2421 H 210.931 -3.89451 -1.50723 0
M  V30 2422 N 211.368 -0.403325 -1.52352 0
M  V30 2423 C 212.315 0.425011 -2.26853 0
M  V30 2424 C 213.285 1.04598 -1.29029 0
M  V30 2425 O 214.47 1.07135 -1.57882 0
M  V30 2426 C 211.61 1.53888 -3.08889 0
M  V30 2427 C 210.723 0.939396 -4.21663 0
M  V30 2428 C 209.858 2.02547 -4.91068 0
M  V30 2429 C 208.897 1.40263 -5.95813 0
M  V30 2430 N 208.034 2.4286 -6.58759 0
M  V30 2431 H 212.874 -0.21674 -2.97211 0
M  V30 2432 H 210.411 -0.118722 -1.4662 0
M  V30 2433 H 212.369 2.19558 -3.54753 0
M  V30 2434 H 210.999 2.15074 -2.40714 0
M  V30 2435 H 210.051 0.171898 -3.80011 0
M  V30 2436 H 211.363 0.44436 -4.96817 0
M  V30 2437 H 210.517 2.75958 -5.40308 0
M  V30 2438 H 209.256 2.55415 -4.15469 0
M  V30 2439 H 208.261 0.653833 -5.45898 0
M  V30 2440 H 209.486 0.881719 -6.73352 0
M  V30 2441 H 207.432 2.94871 -5.85992 0
M  V30 2442 H 207.349 1.98152 -7.2957 0
M  V30 2443 H 208.617 3.15858 -7.12639 0
M  V30 2444 N 212.846 1.57033 -0.133567 0
M  V30 2445 C 213.776 2.1909 0.807567 0
M  V30 2446 C 214.757 1.13517 1.26681 0
M  V30 2447 O 215.942 1.41809 1.32679 0
M  V30 2448 C 213.072 2.80188 2.05212 0
M  V30 2449 C 212.026 3.91471 1.73015 0
M  V30 2450 C 211.352 4.39443 3.04622 0
M  V30 2451 C 212.652 5.12886 0.987168 0
M  V30 2452 H 214.346 2.97988 0.290403 0
M  V30 2453 H 211.892 1.43335 0.138239 0
M  V30 2454 H 213.845 3.22264 2.71521 0
M  V30 2455 H 212.569 1.98601 2.59278 0
M  V30 2456 H 211.228 3.49993 1.0909 0
M  V30 2457 H 210.876 3.54695 3.56651 0
M  V30 2458 H 210.576 5.14495 2.83847 0
M  V30 2459 H 212.1 4.8418 3.72024 0
M  V30 2460 H 213.514 5.51891 1.55208 0
M  V30 2461 H 211.911 5.93615 0.87985 0
M  V30 2462 H 212.981 4.84894 -0.0235286 0
M  V30 2463 N 214.325 -0.140222 1.56975 0
M  V30 2464 C 215.573 -0.850005 1.83356 0
M  V30 2465 C 215.894 -1.81399 0.71551 0
M  V30 2466 O 215.164 -1.94136 -0.262294 0
M  V30 2467 H 213.744 -0.316886 0.676456 0
M  V30 2468 H 216.406 -0.132608 1.94448 0
M  V30 2469 H 215.502 -1.40814 2.78528 0
M  V30 2470 N 215.803 -1.52179 -0.40978 0
M  V30 2471 C 217.08 -1.56769 -1.16974 0
M  V30 2472 C 217.46 -0.348322 -2.08206 0
M  V30 2473 O 216.808 0.664862 -2.18613 0
M  V30 2474 C 217.018 -2.89603 -1.9476 0
M  V30 2475 C 218.366 -3.42579 -2.50849 0
M  V30 2476 O 219.39 -2.91338 -2.04941 0
M  V30 2477 O 218.249 -4.32054 -3.34652 0
M  V30 2478 H 215.343 -0.631439 -0.534054 0
M  V30 2479 H 217.889 -1.64507 -0.416613 0
M  V30 2480 H 216.661 -3.698 -1.27921 0
M  V30 2481 H 216.284 -2.85155 -2.77079 0
M  V30 2482 N 217.281 0.66697 -1.42791 0
M  V30 2483 C 218.229 1.80157 -1.47127 0
M  V30 2484 C 219.223 1.65825 -0.346199 0
M  V30 2485 O 220.429 1.72338 -0.519572 0
M  V30 2486 H 216.804 0.594158 -0.460956 0
M  V30 2487 H 218.775 1.73619 -2.42692 0
M  V30 2488 C 217.524 3.18351 -1.39813 0
M  V30 2489 H 216.847 3.3001 -2.25684 0
M  V30 2490 H 218.287 3.97736 -1.46908 0
M  V30 2491 C 216.746 3.36707 -0.11391 0
M  V30 2492 O 217.276 3.93027 0.830241 0
M  V30 2493 N 215.482 2.90586 -0.0285295 0
M  V30 2494 H 215.029 2.4494 -0.79764 0
M  V30 2495 H 214.987 3.03245 0.830063 0
M  V30 2496 N 218.759 1.29093 0.90403 0
M  V30 2497 C 220.007 1.16583 1.65085 0
M  V30 2498 C 220.328 -0.283933 1.92922 0
M  V30 2499 O 219.598 -1.19509 1.55224 0
M  V30 2500 H 218.178 0.428467 0.611903 0
M  V30 2501 H 220.84 1.61959 1.08422 0
M  V30 2502 H 219.936 1.71266 2.6091 0
M  V30 2503 N 220.237 -1.11381 1.11499 0
M  V30 2504 C 221.169 -2.17207 0.731704 0
M  V30 2505 C 222.182 -1.61066 -0.236957 0
M  V30 2506 O 223.371 -1.78489 -0.0197591 0
M  V30 2507 C 220.471 -3.38846 0.0607624 0
M  V30 2508 C 219.644 -4.24451 1.0564 0
M  V30 2509 C 218.703 -5.24562 0.4149 0
M  V30 2510 O 217.729 -5.59071 1.069 0
M  V30 2511 N 218.931 -5.74651 -0.821943 0
M  V30 2512 H 221.696 -2.50699 1.64225 0
M  V30 2513 H 219.257 -1.26908 1.00529 0
M  V30 2514 H 221.249 -4.02911 -0.380139 0
M  V30 2515 H 219.819 -3.03411 -0.752376 0
M  V30 2516 H 219.039 -3.56833 1.67524 0
M  V30 2517 H 220.327 -4.78486 1.72998 0
M  V30 2518 H 219.725 -5.48797 -1.37252 0
M  V30 2519 H 218.282 -6.40549 -1.20582 0
M  V30 2520 N 221.715 -0.905404 -1.28997 0
M  V30 2521 C 222.662 -0.385892 -2.27551 0
M  V30 2522 C 223.632 0.535113 -1.57244 0
M  V30 2523 O 224.817 0.459119 -1.85194 0
M  V30 2524 C 221.957 0.375461 -3.43051 0
M  V30 2525 C 221.07 -0.577092 -4.28128 0
M  V30 2526 C 220.205 0.201879 -5.30816 0
M  V30 2527 C 219.244 -0.744829 -6.07551 0
M  V30 2528 N 218.381 9.42587e-05 -7.021 0
M  V30 2529 H 223.221 -1.23139 -2.71368 0
M  V30 2530 H 220.758 -0.618542 -1.33463 0
M  V30 2531 H 222.716 0.832992 -4.088 0
M  V30 2532 H 221.346 1.18537 -3.00248 0
M  V30 2533 H 220.398 -1.15315 -3.62501 0
M  V30 2534 H 221.71 -1.30152 -4.8152 0
M  V30 2535 H 220.864 0.720351 -6.02408 0
M  V30 2536 H 219.603 0.959413 -4.7817 0
M  V30 2537 H 218.608 -1.27475 -5.34818 0
M  V30 2538 H 219.833 -1.50178 -6.62286 0
M  V30 2539 H 217.779 0.739791 -6.51815 0
M  V30 2540 H 217.696 -0.664321 -7.53076 0
M  V30 2541 H 218.964 0.498644 -7.77903 0
M  V30 2542 N 223.193 1.4272 -0.668489 0
M  V30 2543 C 224.44 2.01624 -0.18814 0
M  V30 2544 C 224.768 1.5282 1.20317 0
M  V30 2545 O 224.023 0.718323 1.8204 0
M  V30 2546 C 224.322 3.57021 -0.164499 0
M  V30 2547 C 223.988 4.25232 -1.49962 0
M  V30 2548 C 222.65 4.4358 -1.8652 0
M  V30 2549 C 225.002 4.63727 -2.37921 0
M  V30 2550 C 222.33 4.97694 -3.10674 0
M  V30 2551 C 224.682 5.19218 -3.6138 0
M  V30 2552 C 223.346 5.3578 -3.98115 0
M  V30 2553 H 222.616 0.737795 -0.0688454 0
M  V30 2554 H 225.263 1.70991 -0.862225 0
M  V30 2555 H 223.568 3.87285 0.593079 0
M  V30 2556 H 225.265 4.00372 0.224271 0
M  V30 2557 H 221.855 4.11306 -1.20522 0
M  V30 2558 H 226.039 4.4923 -2.10964 0
M  V30 2559 H 221.295 5.08702 -3.39164 0
M  V30 2560 H 225.469 5.4799 -4.29743 0
M  V30 2561 H 223.096 5.77475 -4.94395 0
M  V30 2562 N 224.671 0.411399 1.52136 0
M  V30 2563 C 225.619 -0.427633 2.28635 0
M  V30 2564 C 226.613 -1.04383 1.33419 0
M  V30 2565 O 227.819 -0.981772 1.50868 0
M  V30 2566 H 224.194 -0.156689 0.735495 0
M  V30 2567 H 226.165 0.238761 2.97443 0
M  V30 2568 C 224.914 -1.53082 3.12188 0
M  V30 2569 H 224.237 -1.06601 3.85326 0
M  V30 2570 H 225.677 -2.09167 3.68816 0
M  V30 2571 C 224.136 -2.49946 2.25895 0
M  V30 2572 O 224.666 -3.53884 1.90076 0
M  V30 2573 N 222.872 -2.2021 1.8962 0
M  V30 2574 H 222.419 -1.35719 2.18948 0
M  V30 2575 H 222.377 -2.85266 1.32176 0
M  V30 2576 N 226.149 -1.5696 0.141893 0
M  V30 2577 C 227.396 -1.9596 -0.510492 0
M  V30 2578 C 227.724 -1.02648 -1.65208 0
M  V30 2579 O 226.979 -0.0546947 -1.95624 0
M  V30 2580 C 227.278 -3.41242 -1.06249 0
M  V30 2581 C 226.944 -4.50882 -0.0398791 0
M  V30 2582 C 225.606 -4.80595 0.241247 0
M  V30 2583 C 227.958 -5.17058 0.65578 0
M  V30 2584 C 225.286 -5.73792 1.22393 0
M  V30 2585 C 227.638 -6.11313 1.62724 0
M  V30 2586 C 226.302 -6.39407 1.91612 0
M  V30 2587 H 225.572 -0.717068 -0.186802 0
M  V30 2588 H 228.219 -1.90142 0.227643 0
M  V30 2589 H 226.524 -3.43866 -1.87785 0
M  V30 2590 H 228.221 -3.68742 -1.57576 0
M  V30 2591 H 224.811 -4.27754 -0.269174 0
M  V30 2592 H 228.995 -4.94239 0.451779 0
M  V30 2593 H 224.251 -5.93853 1.45424 0
M  V30 2594 H 228.425 -6.61668 2.17183 0
M  V30 2595 H 226.052 -7.11427 2.6791 0
M  V30 2596 N 227.627 0.131896 -1.57047 0
M  V30 2597 C 228.557 1.16384 -2.02428 0
M  V30 2598 C 229.538 1.43936 -0.90644 0
M  V30 2599 O 230.723 1.54599 -1.17528 0
M  V30 2600 C 227.853 2.49328 -2.4177 0
M  V30 2601 C 226.807 2.36266 -3.56879 0
M  V30 2602 C 226.133 3.74057 -3.8208 0
M  V30 2603 C 227.433 1.834 -4.89042 0
M  V30 2604 H 229.127 0.786433 -2.88887 0
M  V30 2605 H 226.673 0.376855 -1.38981 0
M  V30 2606 H 228.626 3.21759 -2.7212 0
M  V30 2607 H 227.35 2.88934 -1.52266 0
M  V30 2608 H 226.009 1.66286 -3.26718 0
M  V30 2609 H 225.657 4.11125 -2.89803 0
M  V30 2610 H 225.357 3.66174 -4.59554 0
M  V30 2611 H 226.881 4.48012 -4.1487 0
M  V30 2612 H 228.295 2.45636 -5.18011 0
M  V30 2613 H 226.692 1.8637 -5.70426 0
M  V30 2614 H 227.762 0.790662 -4.7841 0
M  V30 2615 N 229.106 1.52395 0.401703 0
M  V30 2616 C 230.353 1.66817 1.14796 0
M  V30 2617 C 230.681 0.401772 1.90305 0
M  V30 2618 O 229.936 -0.615487 1.85769 0
M  V30 2619 C 230.235 2.84578 2.16217 0
M  V30 2620 C 229.901 4.22513 1.5746 0
M  V30 2621 C 228.563 4.60029 1.41161 0
M  V30 2622 C 230.915 5.0844 1.14622 0
M  V30 2623 C 228.243 5.81144 0.80552 0
M  V30 2624 C 230.595 6.30167 0.55428 0
M  V30 2625 C 229.259 6.66426 0.378482 0
M  V30 2626 H 228.529 0.610428 0.420069 0
M  V30 2627 H 231.176 1.86512 0.434212 0
M  V30 2628 H 229.481 2.59248 2.93764 0
M  V30 2629 H 231.178 2.92933 2.73845 0
M  V30 2630 H 227.768 3.92953 1.71132 0
M  V30 2631 H 231.952 4.80034 1.26021 0
M  V30 2632 H 227.208 6.07855 0.657399 0
M  V30 2633 H 231.382 6.96071 0.213983 0
M  V30 2634 H 229.009 7.60143 -0.0932606 0
M  V30 2635 N 230.584 -0.659388 1.43143 0
M  V30 2636 C 231.534 -1.7655 1.44271 0
M  V30 2637 C 232.518 -1.57847 0.311961 0
M  V30 2638 O 233.71 -1.68064 0.555306 0
M  V30 2639 C 230.839 -3.15104 1.36251 0
M  V30 2640 C 229.925 -3.39377 2.54331 0
M  V30 2641 N 230.316 -3.34153 3.79704 0
M  V30 2642 C 228.614 -3.70072 2.48922 0
M  V30 2643 C 229.315 -3.58337 4.58225 0
M  V30 2644 N 228.291 -3.79851 3.88863 0
M  V30 2645 H 232.093 -1.70928 2.39083 0
M  V30 2646 H 229.607 -0.860823 1.37708 0
M  V30 2647 H 231.604 -3.94389 1.35141 0
M  V30 2648 H 230.264 -3.21913 0.424531 0
M  V30 2649 H 231.275 -3.13704 4.1208 0
M  V30 2650 H 227.952 -3.84034 1.63781 0
M  V30 2651 H 229.342 -3.60129 5.67236 0
M  V30 2652 N 232.062 -1.29571 -0.897171 0
M  V30 2653 C 233.29 -1.20583 -1.68129 0
M  V30 2654 C 233.705 0.233181 -1.87354 0
M  V30 2655 O 233.062 1.15579 -1.41236 0
M  V30 2656 C 233.113 -1.91772 -3.06441 0
M  V30 2657 O 232.834 -3.30053 -2.88091 0
M  V30 2658 C 234.335 -1.89291 -4.00854 0
M  V30 2659 H 231.555 -0.417826 -0.525036 0
M  V30 2660 H 234.099 -1.70987 -1.12177 0
M  V30 2661 H 232.254 -1.45196 -3.59161 0
M  V30 2662 H 232.668 -3.65942 -3.75748 0
M  V30 2663 H 234.142 -2.43662 -4.95311 0
M  V30 2664 H 234.619 -0.869014 -4.30517 0
M  V30 2665 H 235.225 -2.35622 -3.54066 0
M  V30 2666 N 233.54 1.10788 -1.12088 0
M  V30 2667 C 234.503 2.15207 -0.788577 0
M  V30 2668 C 235.503 1.59609 0.195317 0
M  V30 2669 O 236.693 1.74174 -0.0300193 0
M  V30 2670 C 233.825 3.4047 -0.171174 0
M  V30 2671 H 235.018 2.46116 -1.71368 0
M  V30 2672 H 232.571 1.26089 -0.923652 0
M  V30 2673 H 233.306 3.15176 0.763832 0
M  V30 2674 H 233.091 3.82109 -0.879514 0
M  V30 2675 H 234.581 4.17576 0.04496 0
M  V30 2676 N 235.018 0.912232 1.28515 0
M  V30 2677 C 236.243 0.559774 1.99703 0
M  V30 2678 C 236.668 -0.851393 1.67729 0
M  V30 2679 O 236.026 -1.56875 0.908834 0
M  V30 2680 C 236.074 0.773874 3.52198 0
M  V30 2681 O 235.178 -0.167842 4.12058 0
M  V30 2682 H 234.519 0.21723 0.627461 0
M  V30 2683 H 237.049 1.22725 1.63706 0
M  V30 2684 H 237.059 0.683386 4.02236 0
M  V30 2685 H 235.734 1.80261 3.74805 0
M  V30 2686 H 234.311 -0.0287509 3.72889 0
M  V30 2687 N 236.496 -1.42363 0.676048 0
M  V30 2688 C 237.721 -2.06377 0.205705 0
M  V30 2689 C 238.146 -1.50463 -1.12883 0
M  V30 2690 O 237.504 -0.623619 -1.70237 0
M  V30 2691 C 237.552 -3.60277 0.152655 0
M  V30 2692 O 236.656 -4.02935 -0.87845 0
M  V30 2693 H 235.997 -0.655588 0.105359 0
M  V30 2694 H 238.527 -1.82475 0.925412 0
M  V30 2695 H 238.537 -4.07993 -0.0230675 0
M  V30 2696 H 237.212 -4.00346 1.12675 0
M  V30 2697 H 235.789 -3.66764 -0.673668 0
M  V30 2698 N 237.974 -0.419461 -1.51915 0
M  V30 2699 C 238.922 0.415502 -2.28859 0
M  V30 2700 C 239.916 1.03674 -1.3397 0
M  V30 2701 O 241.122 0.973757 -1.51387 0
M  V30 2702 H 237.497 0.152786 -0.736315 0
M  V30 2703 H 239.468 -0.254531 -2.97312 0
M  V30 2704 C 238.217 1.51425 -3.12995 0
M  V30 2705 H 237.54 1.04556 -3.85886 0
M  V30 2706 H 238.98 2.07208 -3.6992 0
M  V30 2707 C 237.439 2.48745 -2.27217 0
M  V30 2708 O 237.969 3.52871 -1.9195 0
M  V30 2709 N 236.175 2.19202 -1.90785 0
M  V30 2710 H 235.722 1.34556 -2.19664 0
M  V30 2711 H 235.68 2.84561 -1.33687 0
M  V30 2712 N 239.452 1.56882 -0.150215 0
M  V30 2713 C 240.698 1.96518 0.500834 0
M  V30 2714 C 241.031 1.03527 1.64304 0
M  V30 2715 O 240.306 0.0782751 1.94342 0
M  V30 2716 C 240.589 3.45822 1.00395 0
M  V30 2717 C 240.442 4.49591 -0.136983 0
M  V30 2718 C 241.761 3.97704 1.88467 0
M  V30 2719 H 238.88 0.714535 0.18058 0
M  V30 2720 H 241.522 1.88577 -0.232091 0
M  V30 2721 H 239.672 3.5272 1.62851 0
M  V30 2722 H 241.344 4.5477 -0.77343 0
M  V30 2723 H 239.587 4.26441 -0.795652 0
M  V30 2724 H 240.258 5.51402 0.256815 0
M  V30 2725 H 242.734 3.93304 1.35834 0
M  V30 2726 H 241.61 5.0263 2.20578 0
M  V30 2727 H 241.871 3.40252 2.82279 0
M  V30 2728 N 240.93 -0.123565 1.57115 0
M  V30 2729 C 242.176 -0.828428 1.85765 0
M  V30 2730 C 242.531 -1.77709 0.737371 0
M  V30 2731 O 241.824 -1.89787 -0.262978 0
M  V30 2732 C 242.018 -1.62016 3.18568 0
M  V30 2733 C 241.847 -0.749663 4.43407 0
M  V30 2734 C 240.617 -0.406251 5.03664 0
M  V30 2735 C 242.815 -0.0693505 5.14253 0
M  V30 2736 N 240.797 0.475389 6.12057 0
M  V30 2737 C 242.168 0.671474 6.16353 0
M  V30 2738 C 244.223 0.00754393 4.97899 0
M  V30 2739 C 242.926 1.48197 7.03868 0
M  V30 2740 C 244.952 0.804845 5.85898 0
M  V30 2741 C 244.314 1.53388 6.87497 0
M  V30 2742 H 240.413 -0.280219 0.73007 0
M  V30 2743 H 242.997 -0.0924183 1.94481 0
M  V30 2744 H 241.168 -2.32724 3.10957 0
M  V30 2745 H 242.9 -2.27 3.35042 0
M  V30 2746 H 239.655 -0.747446 4.67665 0
M  V30 2747 H 240.079 0.907924 6.70884 0
M  V30 2748 H 244.721 -0.541741 4.19315 0
M  V30 2749 H 242.439 2.04242 7.81864 0
M  V30 2750 H 246.025 0.866642 5.75309 0
M  V30 2751 H 244.905 2.1409 7.5441 0
M  V30 2752 N 242.408 -1.52605 -0.393616 0
M  V30 2753 C 243.654 -1.67672 -1.14079 0
M  V30 2754 C 243.987 -0.413121 -1.89755 0
M  V30 2755 O 243.262 0.588952 -1.85369 0
M  V30 2756 C 243.545 -2.9088 -2.12276 0
M  V30 2757 C 243.398 -4.27329 -1.40394 0
M  V30 2758 C 244.717 -3.09628 -3.12759 0
M  V30 2759 H 241.836 -0.610168 -0.413356 0
M  V30 2760 H 244.478 -1.85193 -0.424696 0
M  V30 2761 H 242.628 -2.76073 -2.73342 0
M  V30 2762 H 244.3 -4.53894 -0.82327 0
M  V30 2763 H 242.543 -4.2802 -0.705801 0
M  V30 2764 H 243.214 -5.09615 -2.12123 0
M  V30 2765 H 245.69 -3.23436 -2.61779 0
M  V30 2766 H 244.566 -3.97322 -3.78717 0
M  V30 2767 H 244.827 -2.23637 -3.81365 0
M  V30 2768 N 243.887 0.651787 -1.4349 0
M  V30 2769 C 245.298 1.233 -1.40193 0
M  V30 2770 C 245.649 1.9591 -0.106727 0
M  V30 2771 O 244.774 2.01316 0.793773 0
M  V30 2772 C 245.369 2.24257 -2.53957 0
M  V30 2773 C 243.928 2.77852 -2.5392 0
M  V30 2774 C 243.075 1.52517 -2.3159 0
M  V30 2775 H 246.026 0.443717 -1.52371 0
M  V30 2776 H 246.047 3.0646 -2.25528 0
M  V30 2777 H 245.559 1.71382 -3.4821 0
M  V30 2778 H 243.66 3.34786 -1.63551 0
M  V30 2779 H 243.773 3.25299 -3.51735 0
M  V30 2780 H 242.137 1.79915 -1.80285 0
M  V30 2781 H 242.92 1.01574 -3.27929 0
M  V30 2782 N 245.365 1.30045 0.890287 0
M  V30 2783 C 246.59 1.21598 1.68014 0
M  V30 2784 C 247.015 -0.218678 1.86825 0
M  V30 2785 O 246.373 -1.15756 1.39536 0
M  V30 2786 C 246.421 1.94434 3.03691 0
M  V30 2787 O 245.525 1.2678 3.92429 0
M  V30 2788 H 244.866 0.420856 0.513592 0
M  V30 2789 H 247.396 1.71775 1.11151 0
M  V30 2790 H 247.406 2.03251 3.5377 0
M  V30 2791 H 246.081 2.98777 2.89318 0
M  V30 2792 H 244.658 1.26282 3.50866 0
M  V30 2793 N 246.843 -1.10192 1.12674 0
M  V30 2794 C 248.092 -1.81573 0.8783 0
M  V30 2795 C 248.405 -1.86249 -0.597557 0
M  V30 2796 O 249.611 -2.5386 -0.962681 0
M  V30 2797 C 248.067 -3.26149 1.52167 0
M  V30 2798 C 247.675 -3.29763 3.03249 0
M  V30 2799 C 249.419 -4.0234 1.3536 0
M  V30 2800 C 247.326 -4.68815 3.60508 0
M  V30 2801 H 246.256 -0.680394 0.324931 0
M  V30 2802 H 248.907 -1.23902 1.35353 0
M  V30 2803 H 247.289 -3.83832 0.974104 0
M  V30 2804 H 248.463 -2.8189 3.6452 0
M  V30 2805 H 246.778 -2.67059 3.19481 0
M  V30 2806 H 249.375 -5.05058 1.75559 0
M  V30 2807 H 249.718 -4.15235 0.297554 0
M  V30 2808 H 250.251 -3.51079 1.87052 0
M  V30 2809 H 246.99 -4.61121 4.65884 0
M  V30 2810 H 246.51 -5.17045 3.04014 0
M  V30 2811 H 248.189 -5.37785 3.59717 0
M  V30 2812 N 248.321 -0.919034 -1.28029 0
M  V30 2813 C 249.268 -0.410005 -2.27129 0
M  V30 2814 C 250.238 0.518405 -1.57803 0
M  V30 2815 O 251.423 0.439451 -1.8567 0
M  V30 2816 C 248.563 0.339054 -3.4343 0
M  V30 2817 C 247.676 -0.622468 -4.27492 0
M  V30 2818 C 246.811 0.145567 -5.31001 0
M  V30 2819 C 245.85 -0.809226 -6.06727 0
M  V30 2820 N 244.987 -0.0743728 -7.02061 0
M  V30 2821 H 249.827 -1.26011 -2.70047 0
M  V30 2822 H 247.364 -0.632663 -1.328 0
M  V30 2823 H 249.322 0.789586 -4.0966 0
M  V30 2824 H 247.952 1.15346 -3.01488 0
M  V30 2825 H 247.004 -1.19153 -3.61257 0
M  V30 2826 H 248.316 -1.35252 -4.80113 0
M  V30 2827 H 247.47 0.656417 -6.03139 0
M  V30 2828 H 246.209 0.908643 -4.79161 0
M  V30 2829 H 245.214 -1.3314 -5.33436 0
M  V30 2830 H 246.439 -1.57194 -6.60656 0
M  V30 2831 H 244.385 0.670616 -6.52563 0
M  V30 2832 H 244.302 -0.744157 -7.52329 0
M  V30 2833 H 245.57 0.416109 -7.78389 0
M  V30 2834 N 249.799 1.42003 -0.683588 0
M  V30 2835 C 251.039 2.03282 -0.213513 0
M  V30 2836 C 251.403 1.52924 1.16097 0
M  V30 2837 O 252.604 2.06048 1.7262 0
M  V30 2838 C 250.875 3.56483 -0.255856 0
M  V30 2839 S 252.434 4.3857 0.14193 0
M  V30 2840 H 249.252 0.705659 -0.0869853 0
M  V30 2841 H 251.854 1.73619 -0.8987 0
M  V30 2842 H 250.558 3.90631 -1.25841 0
M  V30 2843 H 250.089 3.90831 0.448875 0
M  V30 2844 H 252.104 4.76828 1.37295 0
M  V30 2845 N 251.277 0.427512 1.51691 0
M  V30 2846 C 252.505 -0.141191 2.06418 0
M  V30 2847 C 252.92 -1.37303 1.29589 0
M  V30 2848 O 252.277 -1.79059 0.352732 0
M  V30 2849 C 252.328 -0.473266 3.58389 0
M  V30 2850 O 252.049 0.709673 4.32314 0
M  V30 2851 C 253.55 -1.09371 4.29596 0
M  V30 2852 H 250.77 -0.0122747 0.670888 0
M  V30 2853 H 253.314 0.603764 1.95384 0
M  V30 2854 H 251.469 -1.16812 3.69369 0
M  V30 2855 H 251.883 0.42807 5.2275 0
M  V30 2856 H 253.357 -1.27613 5.37046 0
M  V30 2857 H 253.834 -2.072 3.87253 0
M  V30 2858 H 254.44 -0.43853 4.23033 0
M  V30 2859 N 252.755 -1.56801 0.158532 0
M  V30 2860 C 253.98 -2.01295 -0.499516 0
M  V30 2861 C 254.405 -1.03799 -1.56867 0
M  V30 2862 O 253.763 -0.0155162 -1.81293 0
M  V30 2863 C 253.811 -3.44469 -1.06647 0
M  V30 2864 O 252.915 -3.50012 -2.18095 0
M  V30 2865 H 252.256 -0.652884 -0.12099 0
M  V30 2866 H 254.786 -2.02958 0.258661 0
M  V30 2867 H 254.796 -3.8351 -1.39227 0
M  V30 2868 H 253.471 -4.14932 -0.283581 0
M  V30 2869 H 252.048 -3.22822 -1.86656 0
M  V30 2870 N 254.233 0.115231 -1.57178 0
M  V30 2871 C 255.143 1.15994 -2.03918 0
M  V30 2872 C 256.159 1.45103 -0.960268 0
M  V30 2873 O 257.335 1.56144 -1.27204 0
M  V30 2874 C 254.4 2.46568 -2.43732 0
M  V30 2875 C 253.461 2.24822 -3.65723 0
M  V30 2876 C 252.694 3.4917 -4.03629 0
M  V30 2877 O 252.917 4.56623 -3.41835 0
M  V30 2878 O 251.851 3.39949 -4.96708 0
M  V30 2879 H 255.677 0.793019 -2.93164 0
M  V30 2880 H 253.262 0.3263 -1.45793 0
M  V30 2881 H 255.144 3.23492 -2.70057 0
M  V30 2882 H 253.819 2.82726 -1.57631 0
M  V30 2883 H 252.726 1.45744 -3.44542 0
M  V30 2884 H 254.059 1.93566 -4.52541 0
M  V30 2885 N 255.711 1.52812 0.385517 0
M  V30 2886 C 256.936 1.72207 1.15583 0
M  V30 2887 C 257.361 0.441034 1.82857 0
M  V30 2888 O 256.719 -0.603465 1.70962 0
M  V30 2889 C 256.767 2.87476 2.17692 0
M  V30 2890 O 255.871 2.54693 3.24354 0
M  V30 2891 H 255.212 0.572526 0.336319 0
M  V30 2892 H 257.742 1.99618 0.448744 0
M  V30 2893 H 257.752 3.13072 2.6163 0
M  V30 2894 H 256.427 3.80408 1.68115 0
M  V30 2895 H 255.004 2.3985 2.85529 0
M  V30 2896 N 257.189 -0.644168 1.43834 0
M  V30 2897 C 258.429 -1.41565 1.47441 0
M  V30 2898 C 258.793 -1.91743 0.0992723 0
M  V30 2899 O 259.994 -2.68798 0.0100192 0
M  V30 2900 C 258.265 -2.55902 2.49498 0
M  V30 2901 S 259.824 -3.44287 2.72051 0
M  V30 2902 H 256.642 -0.483118 0.521649 0
M  V30 2903 H 259.244 -0.747008 1.80666 0
M  V30 2904 H 257.948 -2.17327 3.48134 0
M  V30 2905 H 257.479 -3.27607 2.17801 0
M  V30 2906 H 259.494 -4.52927 2.0266 0
M  V30 2907 N 258.668 -1.30515 -0.883378 0
M  V30 2908 C 259.578 -1.18959 -2.02203 0
M  V30 2909 C 260.594 -0.109172 -1.73657 0
M  V30 2910 O 261.77 -0.324413 -1.9877 0
M  V30 2911 C 258.835 -0.883871 -3.35244 0
M  V30 2912 C 257.896 -2.04982 -3.77201 0
M  V30 2913 C 257.129 -1.75859 -5.03894 0
M  V30 2914 O 257.352 -0.687276 -5.66244 0
M  V30 2915 O 256.286 -2.61146 -5.42297 0
M  V30 2916 H 260.112 -2.14616 -2.1488 0
M  V30 2917 H 257.697 -1.10124 -1.0096 0
M  V30 2918 H 259.579 -0.728644 -4.15053 0
M  V30 2919 H 258.254 0.0427798 -3.23672 0
M  V30 2920 H 257.161 -2.26038 -2.9809 0
M  V30 2921 H 258.494 -2.95825 -3.93381 0
M  V30 2922 N 260.146 1.09593 -1.13257 0
M  V30 2923 C 261.371 1.8604 -0.916732 0
M  V30 2924 C 261.796 1.80504 0.529146 0
M  V30 2925 O 261.154 1.18127 1.37534 0
M  V30 2926 C 261.202 3.32017 -1.40703 0
M  V30 2927 O 260.306 4.08141 -0.591153 0
M  V30 2928 H 259.647 0.576943 -0.328683 0
M  V30 2929 H 262.177 1.38405 -1.50682 0
M  V30 2930 H 262.187 3.82865 -1.4099 0
M  V30 2931 H 260.862 3.35361 -2.45979 0
M  V30 2932 H 259.439 3.67084 -0.656005 0
M  V30 2933 N 261.624 0.925811 1.2754 0
M  V30 2934 C 262.571 0.422045 2.26908 0
M  V30 2935 C 263.541 -0.510029 1.58076 0
M  V30 2936 O 264.726 -0.429599 1.85901 0
M  V30 2937 C 261.866 -0.320837 3.43605 0
M  V30 2938 C 260.979 0.64513 4.27156 0
M  V30 2939 C 260.114 -0.117405 5.3107 0
M  V30 2940 C 259.153 0.841391 6.0629 0
M  V30 2941 N 258.29 0.111604 7.02011 0
M  V30 2942 H 263.13 1.27441 2.69375 0
M  V30 2943 H 260.667 0.639697 1.32462 0
M  V30 2944 H 262.625 -0.76785 4.10073 0
M  V30 2945 H 261.255 -1.13745 3.02096 0
M  V30 2946 H 260.307 1.21067 3.6062 0
M  V30 2947 H 261.619 1.37797 4.79389 0
M  V30 2948 H 260.773 -0.624422 6.03478 0
M  V30 2949 H 259.512 -0.883219 4.79636 0
M  V30 2950 H 258.517 1.35967 5.32722 0
M  V30 2951 H 259.742 1.60696 6.59813 0
M  V30 2952 H 257.688 -0.635999 6.5291 0
M  V30 2953 H 257.605 0.784044 7.51923 0
M  V30 2954 H 258.873 -0.374823 7.78598 0
M  V30 2955 N 263.102 -1.41638 0.69111 0
M  V30 2956 C 264.05 -2.32597 0.0115199 0
M  V30 2957 C 265.044 -1.5072 -0.773296 0
M  V30 2958 O 266.25 -1.66685 -0.67942 0
M  V30 2959 H 262.625 -0.751849 -0.0150746 0
M  V30 2960 H 264.596 -2.87593 0.795791 0
M  V30 2961 C 263.345 -3.35467 -0.914172 0
M  V30 2962 H 262.668 -3.9852 -0.319687 0
M  V30 2963 H 264.108 -4.01662 -1.35808 0
M  V30 2964 C 262.567 -2.69004 -2.02826 0
M  V30 2965 O 263.097 -2.53444 -3.11655 0
M  V30 2966 N 261.303 -2.2777 -1.80469 0
M  V30 2967 H 260.85 -2.40626 -0.919615 0
M  V30 2968 H 260.808 -1.83635 -2.55197 0
M  V30 2969 N 264.58 -0.43555 -1.51462 0
M  V30 2970 C 265.53 0.394701 -2.24558 0
M  V30 2971 C 266.514 0.99157 -1.26715 0
M  V30 2972 O 267.706 0.910007 -1.51815 0
M  V30 2973 C 264.835 1.4963 -3.08975 0
M  V30 2974 C 263.921 0.908912 -4.14246 0
M  V30 2975 N 264.312 0.0505335 -5.05775 0
M  V30 2976 C 262.61 1.17668 -4.30198 0
M  V30 2977 C 263.311 -0.279161 -5.8103 0
M  V30 2978 N 262.287 0.336767 -5.42556 0
M  V30 2979 H 266.089 -0.267106 -2.92684 0
M  V30 2980 H 263.603 -0.247518 -1.60503 0
M  V30 2981 H 265.6 2.10394 -3.59917 0
M  V30 2982 H 264.26 2.16046 -2.42393 0
M  V30 2983 H 265.271 -0.31577 -5.16936 0
M  V30 2984 H 261.948 1.83847 -3.74842 0
M  V30 2985 H 263.338 -0.977553 -6.64751 0
M  V30 2986 N 266.058 1.56714 -0.166846 0
M  V30 2987 C 267.288 2.00828 0.48494 0
M  V30 2988 C 267.696 1.04612 1.57648 0
M  V30 2989 O 267.039 0.0383201 1.8366 0
M  V30 2990 C 267.101 3.4137 1.12723 0
M  V30 2991 C 266.765 4.56654 0.177886 0
M  V30 2992 C 267.762 5.16402 -0.60207 0
M  V30 2993 C 265.447 5.02244 0.0750139 0
M  V30 2994 C 267.441 6.20167 -1.47215 0
M  V30 2995 C 265.128 6.05859 -0.798649 0
M  V30 2996 C 266.126 6.64691 -1.57082 0
M  V30 2997 O 265.814 7.66297 -2.42989 0
M  V30 2998 H 265.546 0.663587 0.128953 0
M  V30 2999 H 268.1 2.03692 -0.264365 0
M  V30 3000 H 266.33 3.35406 1.92457 0
M  V30 3001 H 268.019 3.69466 1.68076 0
M  V30 3002 H 268.785 4.82065 -0.53274 0
M  V30 3003 H 264.664 4.56167 0.665812 0
M  V30 3004 H 268.208 6.66016 -2.07531 0
M  V30 3005 H 264.105 6.39621 -0.869199 0
M  V30 3006 H 264.873 7.83601 -2.36455 0
M  V30 3007 N 267.536 -0.106894 1.57237 0
M  V30 3008 C 268.813 -0.843526 1.76477 0
M  V30 3009 C 269.193 -1.97499 0.745464 0
M  V30 3010 O 268.541 -2.27357 -0.228306 0
M  V30 3011 C 268.751 -1.34903 3.21873 0
M  V30 3012 C 270.099 -1.79654 3.8472 0
M  V30 3013 O 271.123 -1.44554 3.2555 0
M  V30 3014 O 269.982 -2.44515 4.88748 0
M  V30 3015 H 267.076 -0.401468 0.723016 0
M  V30 3016 H 269.622 -0.0896927 1.69463 0
M  V30 3017 H 268.394 -0.53781 3.87586 0
M  V30 3018 H 268.017 -2.16522 3.33473 0
M  V30 3019 N 269.014 -1.53014 -0.377408 0
M  V30 3020 C 270.239 -1.72818 -1.14668 0
M  V30 3021 C 270.664 -0.450725 -1.8262 0
M  V30 3022 O 270.022 0.59439 -1.7128 0
M  V30 3023 C 270.07 -2.88627 -2.16164 0
M  V30 3024 O 269.174 -2.56409 -3.22998 0
M  V30 3025 H 268.515 -0.574301 -0.333278 0
M  V30 3026 H 271.045 -1.99853 -0.438152 0
M  V30 3027 H 271.055 -3.14455 -2.59966 0
M  V30 3028 H 269.73 -3.81294 -1.66095 0
M  V30 3029 H 268.307 -2.4136 -2.84253 0
M  V30 3030 N 270.492 0.636531 -1.44174 0
M  V30 3031 C 271.717 1.42847 -1.50364 0
M  V30 3032 C 272.142 1.87665 -0.127867 0
M  V30 3033 O 271.5 1.58408 0.88185 0
M  V30 3034 C 271.548 2.62854 -2.4686 0
M  V30 3035 O 270.652 3.62501 -1.9664 0
M  V30 3036 H 269.993 0.427642 -0.507955 0
M  V30 3037 H 272.523 0.777422 -1.89255 0
M  V30 3038 H 272.533 3.10465 -2.64718 0
M  V30 3039 H 271.208 2.29578 -3.46795 0
M  V30 3040 H 269.785 3.21735 -1.88523 0
M  V30 3041 N 271.97 1.30982 0.876444 0
M  V30 3042 C 272.917 1.18085 1.98304 0
M  V30 3043 C 273.887 0.0682263 1.6596 0
M  V30 3044 O 275.072 0.239937 1.89285 0
M  V30 3045 C 272.212 0.887475 3.33493 0
M  V30 3046 C 271.325 2.08281 3.78475 0
M  V30 3047 C 270.46 1.72678 5.0235 0
M  V30 3048 C 269.499 2.88657 5.39762 0
M  V30 3049 N 268.636 2.53292 6.54819 0
M  V30 3050 H 273.476 2.1275 2.08666 0
M  V30 3051 H 271.013 1.05839 1.02159 0
M  V30 3052 H 272.971 0.697961 4.1132 0
M  V30 3053 H 271.601 -0.022315 3.22792 0
M  V30 3054 H 270.653 2.3833 2.96484 0
M  V30 3055 H 271.965 2.95108 4.02135 0
M  V30 3056 H 271.119 1.50151 5.87826 0
M  V30 3057 H 269.858 0.830327 4.8058 0
M  V30 3058 H 268.863 3.1184 4.52809 0
M  V30 3059 H 270.088 3.79002 5.63502 0
M  V30 3060 H 268.034 1.66163 6.34607 0
M  V30 3061 H 267.951 3.3365 6.7839 0
M  V30 3062 H 269.219 2.34143 7.43503 0
M  V30 3063 N 273.449 -1.08991 1.13837 0
M  V30 3064 C 274.674 -1.85551 0.926585 0
M  V30 3065 C 275.099 -1.80782 -0.519566 0
M  V30 3066 O 274.457 -1.18855 -1.36906 0
M  V30 3067 C 274.505 -3.31266 1.42462 0
M  V30 3068 O 273.609 -4.07822 0.612789 0
M  V30 3069 H 272.95 -0.575192 0.331738 0
M  V30 3070 H 275.48 -1.37604 1.51414 0
M  V30 3071 H 275.49 -3.82112 1.43019 0
M  V30 3072 H 274.165 -3.34052 2.47754 0
M  V30 3073 H 272.742 -3.66731 0.675463 0
M  V30 3074 N 274.927 -0.932562 -1.27047 0
M  V30 3075 C 275.874 -0.434072 -2.26681 0
M  V30 3076 C 276.844 0.501639 -1.58344 0
M  V30 3077 O 278.029 0.419734 -1.86126 0
M  V30 3078 C 275.169 0.30261 -3.43771 0
M  V30 3079 C 274.282 -0.667774 -4.26808 0
M  V30 3080 C 273.417 0.0892393 -5.31125 0
M  V30 3081 C 272.456 -0.873532 -6.05835 0
M  V30 3082 N 271.593 -0.148832 -7.01942 0
M  V30 3083 H 276.433 -1.28868 -2.68695 0
M  V30 3084 H 273.97 -0.646713 -1.32121 0
M  V30 3085 H 275.928 0.746092 -4.10474 0
M  V30 3086 H 274.558 1.12142 -3.02695 0
M  V30 3087 H 273.61 -1.22978 -3.59973 0
M  V30 3088 H 274.922 -1.40337 -4.78651 0
M  V30 3089 H 274.076 0.592409 -6.03801 0
M  V30 3090 H 272.815 0.85777 -4.80097 0
M  V30 3091 H 271.82 -1.38791 -5.31994 0
M  V30 3092 H 273.045 -1.64193 -6.58952 0
M  V30 3093 H 270.991 0.601365 -6.53238 0
M  V30 3094 H 270.908 -0.82391 -7.51497 0
M  V30 3095 H 272.176 0.333527 -7.78786 0
M  V30 3096 N 276.405 1.4127 -0.698611 0
M  V30 3097 C 277.633 2.05503 -0.239992 0
M  V30 3098 C 278.048 1.52584 1.11191 0
M  V30 3099 O 277.405 0.675323 1.69545 0
M  V30 3100 C 277.456 3.60987 -0.192429 0
M  V30 3101 O 277.177 4.1195 -1.49094 0
M  V30 3102 C 278.678 4.42371 0.28681 0
M  V30 3103 H 275.898 0.661748 -0.111045 0
M  V30 3104 H 278.442 1.80987 -0.95205 0
M  V30 3105 H 276.597 3.84533 0.470472 0
M  V30 3106 H 277.011 5.06018 -1.38007 0
M  V30 3107 H 278.485 5.51344 0.26896 0
M  V30 3108 H 278.962 4.18699 1.32619 0
M  V30 3109 H 279.568 4.23897 -0.345201 0
M  V30 3110 N 277.883 0.443576 1.51229 0
M  V30 3111 C 279.113 -0.119117 2.06256 0
M  V30 3112 C 279.521 -1.36471 1.31043 0
M  V30 3113 O 278.864 -1.80034 0.365151 0
M  V30 3114 C 278.926 -0.500546 3.55998 0
M  V30 3115 C 278.59 0.639125 4.52509 0
M  V30 3116 C 279.587 1.51311 4.97394 0
M  V30 3117 C 277.272 0.821632 4.95535 0
M  V30 3118 C 279.266 2.55425 5.83984 0
M  V30 3119 C 276.953 1.86603 5.81913 0
M  V30 3120 C 277.951 2.73072 6.26036 0
M  V30 3121 O 277.639 3.75718 7.10698 0
M  V30 3122 H 277.371 -0.00857665 0.675946 0
M  V30 3123 H 279.925 0.623288 1.95715 0
M  V30 3124 H 278.155 -1.29575 3.64345 0
M  V30 3125 H 279.844 -0.995116 3.93513 0
M  V30 3126 H 280.61 1.38367 4.64844 0
M  V30 3127 H 276.489 0.158149 4.60729 0
M  V30 3128 H 280.033 3.22949 6.18344 0
M  V30 3129 H 275.93 1.99564 6.13876 0
M  V30 3130 H 276.698 3.72374 7.2889 0
M  V30 3131 N 279.361 -1.56624 0.175154 0
M  V30 3132 C 280.271 -2.21741 -0.766042 0
M  V30 3133 C 281.287 -1.21023 -1.25018 0
M  V30 3134 O 282.463 -1.53697 -1.3015 0
M  V30 3135 C 279.528 -2.84839 -1.97655 0
M  V30 3136 C 278.589 -4.00769 -1.53892 0
M  V30 3137 C 277.822 -4.60849 -2.69173 0
M  V30 3138 O 278.045 -4.19823 -3.86141 0
M  V30 3139 O 276.979 -5.50655 -2.43028 0
M  V30 3140 H 280.805 -3.02738 -0.241585 0
M  V30 3141 H 278.39 -1.49305 -0.053222 0
M  V30 3142 H 280.272 -3.24834 -2.68442 0
M  V30 3143 H 278.947 -2.06836 -2.48999 0
M  V30 3144 H 277.854 -3.65436 -0.80044 0
M  V30 3145 H 279.187 -4.80376 -1.07236 0
M  V30 3146 N 280.839 0.0985539 -1.57292 0
M  V30 3147 C 281.786 1.11981 -2.01814 0
M  V30 3148 C 282.756 1.39999 -0.89384 0
M  V30 3149 O 283.941 1.5152 -1.15958 0
M  V30 3150 C 281.081 2.43577 -2.44467 0
M  V30 3151 C 280.194 2.2232 -3.70402 0
M  V30 3152 C 279.329 3.4729 -4.01949 0
M  V30 3153 C 278.368 3.2128 -5.21005 0
M  V30 3154 N 277.505 4.38507 -5.48321 0
M  V30 3155 H 282.345 0.733149 -2.88841 0
M  V30 3156 H 279.882 0.350482 -1.42864 0
M  V30 3157 H 281.84 3.20373 -2.6724 0
M  V30 3158 H 280.47 2.80097 -1.60455 0
M  V30 3159 H 279.522 1.36343 -3.55126 0
M  V30 3160 H 280.834 1.99089 -4.57345 0
M  V30 3161 H 279.988 4.32495 -4.25479 0
M  V30 3162 H 278.727 3.73572 -3.13521 0
M  V30 3163 H 277.732 2.34468 -4.97298 0
M  V30 3164 H 278.957 2.96348 -6.11028 0
M  V30 3165 H 276.903 4.64871 -4.62851 0
M  V30 3166 H 276.82 4.18455 -6.29628 0
M  V30 3167 H 278.088 5.24787 -5.76385 0
M  V30 3168 N 282.317 1.53212 0.369288 0
M  V30 3169 C 283.594 1.59815 1.12776 0
M  V30 3170 C 283.974 0.403402 2.0721 0
M  V30 3171 O 283.322 -0.606667 2.20299 0
M  V30 3172 C 283.532 2.94664 1.87013 0
M  V30 3173 C 284.88 3.49109 2.41677 0
M  V30 3174 O 285.904 2.96669 1.97144 0
M  V30 3175 O 284.763 4.40775 3.23079 0
M  V30 3176 H 281.857 0.645376 0.517125 0
M  V30 3177 H 284.403 1.65553 0.37285 0
M  V30 3178 H 283.175 3.73061 1.18071 0
M  V30 3179 H 282.798 2.92401 2.69421 0
M  V30 3180 N 283.795 -0.628877 1.44509 0
M  V30 3181 C 285.072 -1.38733 1.37886 0
M  V30 3182 C 285.452 -2.11065 0.0387008 0
M  V30 3183 O 284.8 -2.06476 -0.97878 0
M  V30 3184 C 285.01 -2.35188 2.57852 0
M  V30 3185 C 286.358 -2.9845 3.02014 0
M  V30 3186 O 287.382 -2.45513 2.58073 0
M  V30 3187 O 286.241 -3.94487 3.78209 0
M  V30 3188 H 283.335 -0.621015 0.54614 0
M  V30 3189 H 285.881 -0.653744 1.56602 0
M  V30 3190 H 284.653 -1.80855 3.46998 0
M  V30 3191 H 284.276 -3.1596 2.4136 0
M  V30 3192 N 285.273 -1.31445 -0.869486 0
M  V30 3193 C 286.501 -1.24122 -1.65534 0
M  V30 3194 C 286.916 0.193387 -1.87807 0
M  V30 3195 O 286.273 1.12557 -1.43656 0
M  V30 3196 C 286.324 -1.98229 -3.02304 0
M  V30 3197 O 286.045 -3.3609 -2.81026 0
M  V30 3198 C 287.546 -1.97751 -3.96749 0
M  V30 3199 H 284.766 -0.428868 -0.516055 0
M  V30 3200 H 287.31 -1.73328 -1.08525 0
M  V30 3201 H 285.465 -1.52782 -3.56001 0
M  V30 3202 H 285.879 -3.7383 -3.67902 0
M  V30 3203 H 287.353 -2.54114 -4.90031 0
M  V30 3204 H 287.83 -0.960137 -4.28577 0
M  V30 3205 H 288.436 -2.43079 -3.48988 0
M  V30 3206 N 286.751 1.08385 -1.14413 0
M  V30 3207 C 288.162 1.62258 -0.923535 0
M  V30 3208 C 288.513 1.88691 0.537595 0
M  V30 3209 O 287.638 1.64454 1.40655 0
M  V30 3210 C 288.233 2.94781 -1.67002 0
M  V30 3211 C 286.792 3.45437 -1.495 0
M  V30 3212 C 285.939 2.19668 -1.69238 0
M  V30 3213 H 288.89 0.916086 -1.2959 0
M  V30 3214 H 288.911 3.63229 -1.13334 0
M  V30 3215 H 288.423 2.7551 -2.73342 0
M  V30 3216 H 286.524 3.6981 -0.455097 0
M  V30 3217 H 286.637 4.22173 -2.2651 0
M  V30 3218 H 285.001 2.28849 -1.11804 0
M  V30 3219 H 285.784 2.02905 -2.7692 0
M  V30 3220 N 288.23 0.939286 1.26551 0
M  V30 3221 C 289.476 0.586715 1.94128 0
M  V30 3222 C 289.809 -0.8717 1.73537 0
M  V30 3223 O 289.084 -1.62339 1.07127 0
M  V30 3224 C 289.367 0.927497 3.4795 0
M  V30 3225 C 289.22 2.44052 3.77834 0
M  V30 3226 C 290.539 0.441569 4.37879 0
M  V30 3227 H 287.658 0.21463 0.705055 0
M  V30 3228 H 290.3 1.17316 1.49455 0
M  V30 3229 H 288.45 0.428431 3.8613 0
M  V30 3230 H 290.122 3.01216 3.4938 0
M  V30 3231 H 288.365 2.8848 3.23978 0
M  V30 3232 H 289.036 2.62947 4.85348 0
M  V30 3233 H 291.512 0.869448 4.06915 0
M  V30 3234 H 290.388 0.708856 5.44304 0
M  V30 3235 H 290.649 -0.658467 4.37169 0
M  V30 3236 N 289.708 -1.40897 0.706093 0
M  V30 3237 C 290.655 -2.30751 0.0474474 0
M  V30 3238 C 291.625 -1.47678 -0.76029 0
M  V30 3239 O 292.81 -1.76441 -0.726177 0
M  V30 3240 C 289.95 -3.33815 -0.875309 0
M  V30 3241 C 289.063 -4.31961 -0.0580623 0
M  V30 3242 C 288.198 -5.22093 -0.979425 0
M  V30 3243 C 287.237 -6.11902 -0.155706 0
M  V30 3244 N 286.374 -6.94482 -1.03144 0
M  V30 3245 H 291.214 -2.86513 0.819413 0
M  V30 3246 H 288.751 -1.41102 0.415783 0
M  V30 3247 H 290.709 -3.92129 -1.42446 0
M  V30 3248 H 289.339 -2.79579 -1.61356 0
M  V30 3249 H 288.391 -3.75507 0.608147 0
M  V30 3250 H 289.703 -4.95415 0.580082 0
M  V30 3251 H 288.857 -5.85292 -1.59744 0
M  V30 3252 H 287.596 -4.5889 -1.65141 0
M  V30 3253 H 286.601 -5.47742 0.475309 0
M  V30 3254 H 287.826 -6.77162 0.512635 0
M  V30 3255 H 285.772 -6.33877 -1.68924 0
M  V30 3256 H 285.689 -7.54665 -0.449108 0
M  V30 3257 H 286.957 -7.6214 -1.63593 0
M  V30 3258 N 291.186 -0.45159 -1.50991 0
M  V30 3259 C 292.116 0.342898 -2.30969 0
M  V30 3260 C 293.097 1.00815 -1.37005 0
M  V30 3261 O 294.282 1.00907 -1.65926 0
M  V30 3262 C 291.412 1.43637 -3.16205 0
M  V30 3263 C 290.366 0.893818 -4.18563 0
M  V30 3264 C 289.692 2.08411 -4.92411 0
M  V30 3265 C 290.992 -0.0815568 -5.22236 0
M  V30 3266 H 292.686 -0.324556 -2.97636 0
M  V30 3267 H 290.232 -0.157531 -1.43136 0
M  V30 3268 H 292.185 1.9995 -3.70942 0
M  V30 3269 H 290.909 2.13232 -2.47386 0
M  V30 3270 H 289.568 0.352798 -3.64898 0
M  V30 3271 H 289.216 2.76658 -4.20082 0
M  V30 3272 H 288.916 1.72741 -5.61636 0
M  V30 3273 H 290.44 2.65251 -5.49976 0
M  V30 3274 H 291.854 0.391742 -5.7196 0
M  V30 3275 H 290.251 -0.351551 -5.99069 0
M  V30 3276 H 291.321 -1.01374 -4.74185 0
M  V30 3277 N 292.664 1.56529 -0.183458 0
M  V30 3278 C 293.892 2.01623 0.464285 0
M  V30 3279 C 294.307 1.06366 1.55986 0
M  V30 3280 O 293.664 0.0665398 1.82379 0
M  V30 3281 C 293.715 3.46475 1.03139 0
M  V30 3282 O 293.436 4.38095 -0.0204675 0
M  V30 3283 C 294.937 4.0703 1.75617 0
M  V30 3284 H 292.157 0.660596 0.117704 0
M  V30 3285 H 294.701 2.02451 -0.288751 0
M  V30 3286 H 292.856 3.46383 1.73486 0
M  V30 3287 H 293.27 5.22973 0.399952 0
M  V30 3288 H 294.744 5.10271 2.10542 0
M  V30 3289 H 295.221 3.49819 2.65563 0
M  V30 3290 H 295.827 4.1086 1.09882 0
M  V30 3291 N 294.142 -0.090211 1.57342 0
M  V30 3292 C 295.367 -0.810082 1.90925 0
M  V30 3293 C 295.792 -1.71248 0.778187 0
M  V30 3294 O 295.15 -1.79278 -0.269991 0
M  V30 3295 C 295.198 -1.59529 3.23393 0
M  V30 3296 O 294.302 -2.70461 3.11327 0
M  V30 3297 H 293.643 -0.222231 0.625707 0
M  V30 3298 H 296.173 -0.0639716 2.045 0
M  V30 3299 H 296.183 -1.97847 3.5682 0
M  V30 3300 H 294.858 -0.933055 4.05299 0
M  V30 3301 H 293.435 -2.35135 2.89423 0
M  V30 3302 N 295.62 -1.53406 -0.361157 0
M  V30 3303 C 296.567 -1.80156 -1.44265 0
M  V30 3304 C 297.537 -0.646183 -1.53015 0
M  V30 3305 O 298.722 -0.888818 -1.68833 0
M  V30 3306 C 295.862 -2.00116 -2.81154 0
M  V30 3307 C 294.975 -3.27833 -2.81335 0
M  V30 3308 C 294.11 -3.37957 -4.09828 0
M  V30 3309 C 293.149 -4.59689 -4.04168 0
M  V30 3310 N 292.286 -4.66942 -5.24318 0
M  V30 3311 H 297.126 -2.72438 -1.20754 0
M  V30 3312 H 294.663 -1.34954 -0.585296 0
M  V30 3313 H 296.621 -2.09677 -3.60682 0
M  V30 3314 H 295.251 -1.11167 -3.03054 0
M  V30 3315 H 294.303 -3.27204 -1.94014 0
M  V30 3316 H 295.615 -4.17442 -2.73027 0
M  V30 3317 H 294.769 -3.46853 -4.97773 0
M  V30 3318 H 293.508 -2.46372 -4.20894 0
M  V30 3319 H 292.513 -4.50889 -3.14609 0
M  V30 3320 H 293.738 -5.5262 -3.947 0
M  V30 3321 H 291.684 -3.7826 -5.35962 0
M  V30 3322 H 291.601 -5.50462 -5.18197 0
M  V30 3323 H 292.869 -4.80127 -6.14084 0
M  V30 3324 N 297.098 0.621204 -1.44841 0
M  V30 3325 C 298.061 1.71459 -1.521 0
M  V30 3326 C 299.061 1.55696 -0.401933 0
M  V30 3327 O 300.251 1.61011 -0.664925 0
M  V30 3328 C 297.383 3.10624 -1.40447 0
M  V30 3329 H 298.576 1.66394 -2.49506 0
M  V30 3330 H 296.129 0.835745 -1.3208 0
M  V30 3331 H 296.864 3.21277 -0.441737 0
M  V30 3332 H 296.649 3.23473 -2.21602 0
M  V30 3333 H 298.139 3.90293 -1.4853 0
M  V30 3334 N 298.576 1.31904 0.862503 0
M  V30 3335 C 299.824 1.21776 1.61292 0
M  V30 3336 C 300.145 -0.222413 1.93727 0
M  V30 3337 O 299.415 -1.1451 1.58947 0
M  V30 3338 H 297.995 0.447717 0.597962 0
M  V30 3339 H 300.657 1.65326 1.03215 0
M  V30 3340 H 299.753 1.7948 2.5533 0
M  V30 3341 N 300.054 -1.07777 1.14986 0
M  V30 3342 C 301.282 -1.84018 0.945773 0
M  V30 3343 C 301.697 -1.81897 -0.505863 0
M  V30 3344 O 301.054 -1.22726 -1.35072 0
M  V30 3345 C 301.105 -3.31287 1.44677 0
M  V30 3346 O 300.826 -3.33449 2.84154 0
M  V30 3347 C 302.327 -4.24311 1.28355 0
M  V30 3348 H 299.547 -0.580716 0.336169 0
M  V30 3349 H 302.091 -1.36077 1.52654 0
M  V30 3350 H 300.246 -3.76594 0.908625 0
M  V30 3351 H 300.66 -4.25427 3.06777 0
M  V30 3352 H 302.134 -5.2573 1.68261 0
M  V30 3353 H 302.611 -4.38612 0.227184 0
M  V30 3354 H 303.217 -3.84836 1.81056 0
M  V30 3355 N 301.532 -0.945985 -1.26051 0
M  V30 3356 C 302.781 -0.591836 -1.92822 0
M  V30 3357 C 303.094 0.873956 -1.7499 0
M  V30 3358 O 304.3 1.33769 -2.36259 0
M  V30 3359 C 302.756 -1.00776 -3.45503 0
M  V30 3360 C 302.364 -2.4955 -3.7206 0
M  V30 3361 C 304.108 -0.725735 -4.1825 0
M  V30 3362 C 302.015 -2.84988 -5.18205 0
M  V30 3363 H 300.945 -0.217635 -0.721908 0
M  V30 3364 H 303.596 -1.14927 -1.43052 0
M  V30 3365 H 301.978 -0.378812 -3.94184 0
M  V30 3366 H 303.152 -3.1739 -3.34066 0
M  V30 3367 H 301.467 -2.75133 -3.12555 0
M  V30 3368 H 304.064 -0.966771 -5.25887 0
M  V30 3369 H 304.407 0.337639 -4.14929 0
M  V30 3370 H 304.94 -1.31463 -3.7545 0
M  V30 3371 H 301.679 -3.90307 -5.26631 0
M  V30 3372 H 301.199 -2.21813 -5.57278 0
M  V30 3373 H 302.878 -2.73712 -5.86252 0
M  V30 3374 N 303.011 1.40521 -0.713556 0
M  V30 3375 C 304.236 2.05759 -0.26035 0
M  V30 3376 C 304.661 1.53403 1.08854 0
M  V30 3377 O 304.019 0.668535 1.68524 0
M  V30 3378 C 304.067 3.59745 -0.248122 0
M  V30 3379 O 303.171 4.05123 0.77131 0
M  V30 3380 H 302.512 0.652564 -0.122703 0
M  V30 3381 H 305.042 1.79958 -0.973467 0
M  V30 3382 H 305.052 4.07911 -0.0851129 0
M  V30 3383 H 303.727 3.97218 -1.2325 0
M  V30 3384 H 302.304 3.68422 0.57619 0
M  V30 3385 N 304.489 0.459591 1.5075 0
M  V30 3386 C 305.737 -0.0991532 2.01857 0
M  V30 3387 C 306.058 -1.41247 1.34441 0
M  V30 3388 O 305.328 -1.89775 0.486022 0
M  V30 3389 H 303.908 -0.039633 0.745948 0
M  V30 3390 H 306.57 0.607387 1.85194 0
M  V30 3391 H 305.666 -0.258998 3.11023 0
M  V30 3392 N 305.967 -1.56429 0.191757 0
M  V30 3393 C 307.216 -1.9666 -0.448088 0
M  V30 3394 C 307.529 -1.08136 -1.62991 0
M  V30 3395 O 308.735 -1.38135 -2.33733 0
M  V30 3396 C 307.191 -3.49753 -0.848585 0
M  V30 3397 C 306.799 -4.46935 0.308764 0
M  V30 3398 C 308.543 -3.9876 -1.4557 0
M  V30 3399 C 306.45 -5.91293 -0.112506 0
M  V30 3400 H 305.38 -0.734312 -0.171179 0
M  V30 3401 H 308.031 -1.81301 0.283242 0
M  V30 3402 H 306.413 -3.60604 -1.63649 0
M  V30 3403 H 307.587 -4.47813 1.08627 0
M  V30 3404 H 305.902 -4.08102 0.827158 0
M  V30 3405 H 308.499 -5.04086 -1.78328 0
M  V30 3406 H 308.842 -3.42875 -2.36099 0
M  V30 3407 H 309.375 -3.9101 -0.731836 0
M  V30 3408 H 306.114 -6.51097 0.758514 0
M  V30 3409 H 305.634 -5.93676 -0.854941 0
M  V30 3410 H 307.313 -6.44663 -0.549448 0
M  V30 3411 N 307.445 0.0818655 -1.57387 0
M  V30 3412 C 308.692 0.782914 -1.86753 0
M  V30 3413 C 309.02 1.78082 -0.782118 0
M  V30 3414 O 308.275 1.94426 0.22295 0
M  V30 3415 C 308.574 1.53513 -3.22752 0
M  V30 3416 C 308.24 0.678134 -4.45771 0
M  V30 3417 C 306.902 0.441929 -4.79166 0
M  V30 3418 C 309.254 0.0832243 -5.21134 0
M  V30 3419 C 306.582 -0.398833 -5.85343 0
M  V30 3420 C 308.934 -0.744935 -6.28199 0
M  V30 3421 C 307.598 -0.991107 -6.60101 0
M  V30 3422 H 306.868 0.286489 -0.683378 0
M  V30 3423 H 309.515 0.0439808 -1.91449 0
M  V30 3424 H 307.82 2.34599 -3.138 0
M  V30 3425 H 309.517 2.08218 -3.42705 0
M  V30 3426 H 306.107 0.872357 -4.19628 0
M  V30 3427 H 310.291 0.252847 -4.95655 0
M  V30 3428 H 305.547 -0.598405 -6.08465 0
M  V30 3429 H 309.721 -1.21271 -6.8576 0
M  V30 3430 H 307.348 -1.64437 -7.42202 0
M  V30 3431 N 308.923 1.53595 0.353017 0
M  V30 3432 C 310.148 1.7462 1.11904 0
M  V30 3433 C 310.573 0.479721 1.8188 0
M  V30 3434 O 309.931 -0.567066 1.72204 0
M  V30 3435 C 309.979 2.92029 2.11545 0
M  V30 3436 O 309.083 2.61516 3.18878 0
M  V30 3437 H 308.424 0.579531 0.324099 0
M  V30 3438 H 310.954 2.00525 0.406301 0
M  V30 3439 H 310.964 3.18551 2.5493 0
M  V30 3440 H 309.639 3.83888 1.60008 0
M  V30 3441 H 308.216 2.45852 2.80377 0
M  V30 3442 N 310.401 -0.613514 1.45168 0
M  V30 3443 C 311.348 -1.72456 1.53387 0
M  V30 3444 C 312.318 -1.6169 0.380191 0
M  V30 3445 O 313.503 -1.81356 0.592836 0
M  V30 3446 C 310.643 -3.10753 1.50088 0
M  V30 3447 C 309.756 -3.32368 2.75963 0
M  V30 3448 C 308.891 -4.60737 2.64376 0
M  V30 3449 C 307.93 -4.7559 3.85332 0
M  V30 3450 N 307.067 -5.95253 3.72315 0
M  V30 3451 H 311.907 -1.64768 2.48305 0
M  V30 3452 H 309.444 -0.803503 1.23216 0
M  V30 3453 H 311.402 -3.90758 1.46164 0
M  V30 3454 H 310.032 -3.17413 0.587243 0
M  V30 3455 H 309.084 -2.4618 2.89999 0
M  V30 3456 H 310.396 -3.39218 3.65695 0
M  V30 3457 H 309.55 -5.48928 2.58385 0
M  V30 3458 H 308.289 -4.56275 1.72233 0
M  V30 3459 H 307.294 -3.85824 3.91688 0
M  V30 3460 H 308.519 -4.81854 4.78533 0
M  V30 3461 H 306.465 -5.91847 2.82937 0
M  V30 3462 H 306.382 -6.03236 4.55677 0
M  V30 3463 H 307.65 -6.85958 3.70246 0
M  V30 3464 N 311.879 -1.3236 -0.855495 0
M  V30 3465 C 313.156 -1.13491 -1.59309 0
M  V30 3466 C 313.536 0.30503 -2.08885 0
M  V30 3467 O 312.884 1.30151 -1.87811 0
M  V30 3468 C 313.094 -2.16176 -2.73987 0
M  V30 3469 C 314.442 -2.49463 -3.43589 0
M  V30 3470 O 315.466 -2.14715 -2.84211 0
M  V30 3471 O 314.325 -3.09027 -4.50738 0
M  V30 3472 H 311.419 -0.437887 -0.701559 0
M  V30 3473 H 313.965 -1.43887 -0.899696 0
M  V30 3474 H 312.737 -3.1297 -2.34873 0
M  V30 3475 H 312.36 -1.86769 -3.51003 0
M  V30 3476 N 313.357 1.07166 -1.15556 0
M  V30 3477 C 314.287 2.16403 -0.877046 0
M  V30 3478 C 315.268 1.69217 0.173111 0
M  V30 3479 O 316.453 1.94181 0.027084 0
M  V30 3480 C 313.583 3.45349 -0.367632 0
M  V30 3481 C 312.537 4.05995 -1.35468 0
M  V30 3482 C 311.863 5.30045 -0.704038 0
M  V30 3483 C 313.163 4.45804 -2.72132 0
M  V30 3484 H 314.857 2.39959 -1.79053 0
M  V30 3485 H 312.403 1.15325 -0.862331 0
M  V30 3486 H 314.356 4.21095 -0.160317 0
M  V30 3487 H 313.08 3.21385 0.581326 0
M  V30 3488 H 311.739 3.32296 -1.54839 0
M  V30 3489 H 311.387 5.02373 0.251128 0
M  V30 3490 H 311.087 5.71579 -1.36277 0
M  V30 3491 H 312.611 6.08495 -0.50654 0
M  V30 3492 H 314.025 5.12671 -2.56595 0
M  V30 3493 H 312.422 4.98296 -3.34397 0
M  V30 3494 H 313.492 3.57083 -3.28054 0
M  V30 3495 N 314.835 0.952656 1.25548 0
M  V30 3496 C 316.081 0.607272 1.93494 0
M  V30 3497 C 316.414 -0.853245 1.74452 0
M  V30 3498 O 315.689 -1.61194 1.08843 0
M  V30 3499 C 315.972 0.96435 3.46947 0
M  V30 3500 C 315.825 2.48045 3.75225 0
M  V30 3501 C 317.144 0.487987 4.37386 0
M  V30 3502 H 314.263 0.222096 0.702739 0
M  V30 3503 H 316.905 1.18895 1.48203 0
M  V30 3504 H 315.055 0.469361 3.85654 0
M  V30 3505 H 316.727 3.04905 3.46166 0
M  V30 3506 H 314.97 2.919 3.209 0
M  V30 3507 H 315.641 2.6808 4.82532 0
M  V30 3508 H 318.117 0.912558 4.0597 0
M  V30 3509 H 316.993 0.766547 5.43521 0
M  V30 3510 H 317.254 -0.612063 4.37843 0
M  V30 3511 N 316.313 -1.40141 0.720998 0
M  V30 3512 C 317.541 -2.05096 0.272656 0
M  V30 3513 C 317.956 -1.54334 -1.0875 0
M  V30 3514 O 317.313 -0.702211 -1.6845 0
M  V30 3515 C 317.364 -3.60636 0.249835 0
M  V30 3516 O 317.085 -4.09526 1.55629 0
M  V30 3517 C 318.586 -4.42772 -0.216396 0
M  V30 3518 H 315.806 -0.659897 0.121558 0
M  V30 3519 H 318.35 -1.79449 0.980723 0
M  V30 3520 H 316.505 -3.85232 -0.409237 0
M  V30 3521 H 316.919 -5.03758 1.4604 0
M  V30 3522 H 318.393 -5.51702 -0.181212 0
M  V30 3523 H 318.87 -4.20756 -1.25941 0
M  V30 3524 H 319.476 -4.23294 0.412596 0
M  V30 3525 N 317.792 -0.46758 -1.50504 0
M  V30 3526 C 319.041 0.0902868 -2.01498 0
M  V30 3527 C 319.354 1.411 -1.35463 0
M  V30 3528 O 320.56 2.0536 -1.77594 0
M  V30 3529 C 319.016 0.21142 -3.59278 0
M  V30 3530 C 318.624 -1.10065 -4.34269 0
M  V30 3531 C 320.368 0.721433 -4.18325 0
M  V30 3532 C 318.275 -0.943505 -5.83825 0
M  V30 3533 H 317.205 0.037517 -0.753066 0
M  V30 3534 H 319.856 -0.601943 -1.73346 0
M  V30 3535 H 318.238 0.967352 -3.84003 0
M  V30 3536 H 319.412 -1.86726 -4.21272 0
M  V30 3537 H 317.727 -1.5415 -3.86816 0
M  V30 3538 H 320.324 0.85598 -5.27804 0
M  V30 3539 H 320.667 1.71186 -3.79475 0
M  V30 3540 H 321.2 0.0229843 -3.97793 0
M  V30 3541 H 317.939 -1.90719 -6.27141 0
M  V30 3542 H 317.459 -0.217213 -5.99407 0
M  V30 3543 H 319.138 -0.608715 -6.4413 0
M  V30 3544 N 319.27 1.56325 -0.20005 0
M  V30 3545 C 320.518 1.97329 0.436547 0
M  V30 3546 C 320.839 1.08826 1.61808 0
M  V30 3547 O 320.109 0.160604 1.95241 0
M  V30 3548 H 318.689 0.728714 0.164272 0
M  V30 3549 H 321.351 1.92761 -0.287937 0
M  V30 3550 H 320.447 3.02264 0.777353 0
M  V30 3551 N 320.748 -0.0735177 1.57428 0
M  V30 3552 C 321.695 -1.08756 2.0357 0
M  V30 3553 C 322.665 -1.38559 0.916 0
M  V30 3554 O 323.85 -1.49656 1.18354 0
M  V30 3555 C 320.99 -2.39657 2.48311 0
M  V30 3556 C 320.103 -2.16399 3.73892 0
M  V30 3557 C 319.238 -3.40852 4.07423 0
M  V30 3558 C 318.277 -3.1295 5.2605 0
M  V30 3559 N 317.414 -4.29729 5.55228 0
M  V30 3560 H 322.254 -0.687104 2.8997 0
M  V30 3561 H 319.791 -0.327709 1.43403 0
M  V30 3562 H 321.749 -3.16081 2.72303 0
M  V30 3563 H 320.379 -2.77508 1.64891 0
M  V30 3564 H 319.431 -1.30676 3.57251 0
M  V30 3565 H 320.743 -1.91788 4.60455 0
M  V30 3566 H 319.897 -4.25671 4.32306 0
M  V30 3567 H 318.636 -3.68537 3.19425 0
M  V30 3568 H 317.641 -2.26526 5.00965 0
M  V30 3569 H 318.866 -2.86589 6.15665 0
M  V30 3570 H 316.812 -4.57448 4.70188 0
M  V30 3571 H 316.729 -4.08385 6.36206 0
M  V30 3572 H 317.997 -5.1555 5.84661 0
M  V30 3573 N 322.226 -1.5378 -0.344866 0
M  V30 3574 C 323.156 -1.84662 -1.42906 0
M  V30 3575 C 324.137 -0.701648 -1.54955 0
M  V30 3576 O 325.322 -0.953438 -1.69184 0
M  V30 3577 C 322.452 -2.05503 -2.79974 0
M  V30 3578 C 321.406 -3.21318 -2.82734 0
M  V30 3579 C 320.732 -3.2749 -4.22675 0
M  V30 3580 C 322.032 -4.59456 -2.48389 0
M  V30 3581 H 323.726 -2.75461 -1.17311 0
M  V30 3582 H 321.272 -1.32542 -0.562896 0
M  V30 3583 H 323.225 -2.25691 -3.55867 0
M  V30 3584 H 321.949 -1.11434 -3.07002 0
M  V30 3585 H 320.608 -3.00984 -2.09294 0
M  V30 3586 H 320.256 -2.31019 -4.4681 0
M  V30 3587 H 319.956 -4.05316 -4.25433 0
M  V30 3588 H 321.48 -3.49887 -5.00412 0
M  V30 3589 H 322.894 -4.79667 -3.13995 0
M  V30 3590 H 321.291 -5.39675 -2.62432 0
M  V30 3591 H 322.361 -4.63155 -1.4358 0
M  V30 3592 N 323.704 0.605807 -1.45491 0
M  V30 3593 C 324.929 1.39625 -1.53361 0
M  V30 3594 C 325.354 1.87351 -0.167645 0
M  V30 3595 O 324.712 1.60243 0.848051 0
M  V30 3596 C 324.76 2.57559 -2.5238 0
M  V30 3597 O 323.864 3.58248 -2.04285 0
M  V30 3598 H 323.205 0.416771 -0.516912 0
M  V30 3599 H 325.735 0.737103 -1.90861 0
M  V30 3600 H 325.745 3.0478 -2.71244 0
M  V30 3601 H 324.42 2.22171 -3.51586 0
M  V30 3602 H 322.997 3.17664 -1.95305 0
M  V30 3603 N 325.182 1.32811 0.848464 0
M  V30 3604 C 326.428 1.23907 1.60546 0
M  V30 3605 C 326.761 -0.197161 1.93197 0
M  V30 3606 O 326.036 -1.13596 1.5788 0
M  V30 3607 C 326.319 2.10489 2.92175 0
M  V30 3608 C 326.172 3.62522 2.66266 0
M  V30 3609 C 327.491 1.97075 3.93509 0
M  V30 3610 H 324.61 0.451459 0.58254 0
M  V30 3611 H 327.252 1.62818 0.979296 0
M  V30 3612 H 325.402 1.77434 3.45614 0
M  V30 3613 H 327.074 4.05821 2.19334 0
M  V30 3614 H 325.317 3.84879 2.00126 0
M  V30 3615 H 325.988 4.18437 3.6002 0
M  V30 3616 H 328.464 2.26045 3.49346 0
M  V30 3617 H 327.34 2.59923 4.83457 0
M  V30 3618 H 327.601 0.940186 4.31987 0
M  V30 3619 N 326.66 -1.06551 1.16123 0
M  V30 3620 C 328.071 -1.60768 0.949232 0
M  V30 3621 C 328.422 -1.89523 -0.507508 0
M  V30 3622 O 327.547 -1.66671 -1.38021 0
M  V30 3623 C 328.142 -2.92086 1.71671 0
M  V30 3624 C 326.701 -3.43015 1.54977 0
M  V30 3625 C 325.848 -2.16947 1.72711 0
M  V30 3626 H 328.799 -0.895354 1.31031 0
M  V30 3627 H 328.82 -3.6138 1.19099 0
M  V30 3628 H 328.332 -2.71127 2.7769 0
M  V30 3629 H 326.433 -3.69039 0.513873 0
M  V30 3630 H 326.546 -4.18516 2.33198 0
M  V30 3631 H 324.91 -2.27041 1.15431 0
M  V30 3632 H 325.693 -1.98473 2.80113 0
M  V30 3633 N 328.138 -0.959301 -1.25041 0
M  V30 3634 C 329.368 -0.63303 -1.96663 0
M  V30 3635 C 329.776 0.800031 -1.71453 0
M  V30 3636 O 329.119 1.54736 -0.99008 0
M  V30 3637 C 329.181 -0.817523 -3.50081 0
M  V30 3638 C 328.845 -2.22863 -3.98975 0
M  V30 3639 C 329.842 -3.20569 -4.09306 0
M  V30 3640 C 327.527 -2.55407 -4.32519 0
M  V30 3641 C 329.521 -4.4891 -4.52503 0
M  V30 3642 C 327.208 -3.83976 -4.754 0
M  V30 3643 C 328.206 -4.8054 -4.85356 0
M  V30 3644 O 327.894 -6.06817 -5.27284 0
M  V30 3645 H 327.626 -0.235866 -0.633516 0
M  V30 3646 H 330.18 -1.2874 -1.60047 0
M  V30 3647 H 328.41 -0.105992 -3.86555 0
M  V30 3648 H 330.099 -0.491604 -4.02912 0
M  V30 3649 H 330.865 -2.96753 -3.83618 0
M  V30 3650 H 326.744 -1.8097 -4.23994 0
M  V30 3651 H 330.288 -5.24283 -4.60188 0
M  V30 3652 H 326.185 -4.07596 -5.00535 0
M  V30 3653 H 326.953 -6.10262 -5.45457 0
M  V30 3654 N 329.616 1.39756 -0.72842 0
M  V30 3655 C 330.563 2.30647 -0.0841519 0
M  V30 3656 C 331.533 1.48869 0.7367 0
M  V30 3657 O 332.718 1.77574 0.698015 0
M  V30 3658 C 329.858 3.35165 0.822091 0
M  V30 3659 C 328.971 4.31999 -0.0106663 0
M  V30 3660 C 328.106 5.23585 0.896241 0
M  V30 3661 C 327.145 6.12072 0.0583381 0
M  V30 3662 N 326.282 6.96035 0.920818 0
M  V30 3663 H 331.122 2.85173 -0.864891 0
M  V30 3664 H 328.659 1.40422 -0.438179 0
M  V30 3665 H 330.617 3.94345 1.36189 0
M  V30 3666 H 329.247 2.8211 1.56888 0
M  V30 3667 H 328.299 3.74492 -0.66781 0
M  V30 3668 H 329.611 4.9443 -0.658825 0
M  V30 3669 H 328.765 5.87759 1.50412 0
M  V30 3670 H 327.504 4.61459 1.57819 0
M  V30 3671 H 326.509 5.46916 -0.562389 0
M  V30 3672 H 327.734 6.76261 -0.6203 0
M  V30 3673 H 325.68 6.36485 1.58818 0
M  V30 3674 H 325.597 7.55284 0.32899 0
M  V30 3675 H 326.865 7.64646 1.51447 0
M  V30 3676 N 331.094 0.475555 1.50254 0
M  V30 3677 C 332.341 -0.0778919 2.0235 0
M  V30 3678 C 332.669 -1.39319 1.35722 0
M  V30 3679 O 331.924 -1.89888 0.473395 0
M  V30 3680 C 332.223 -0.305114 3.56095 0
M  V30 3681 C 331.889 0.92903 4.41225 0
M  V30 3682 C 330.551 1.26739 4.6421 0
M  V30 3683 C 332.903 1.75054 4.90923 0
M  V30 3684 C 330.231 2.42724 5.34137 0
M  V30 3685 C 332.583 2.9017 5.62125 0
M  V30 3686 C 331.247 3.24416 5.83362 0
M  V30 3687 H 330.517 -0.0285027 0.740452 0
M  V30 3688 H 333.164 0.630543 1.80821 0
M  V30 3689 H 331.469 -1.09584 3.76163 0
M  V30 3690 H 333.166 -0.747377 3.93974 0
M  V30 3691 H 329.756 0.655428 4.23559 0
M  V30 3692 H 333.94 1.50231 4.73016 0
M  V30 3693 H 329.196 2.69525 5.48786 0
M  V30 3694 H 333.37 3.54169 5.99614 0
M  V30 3695 H 330.997 4.14396 6.37323 0
M  V30 3696 N 332.573 -1.56217 0.208337 0
M  V30 3697 C 333.822 -1.97124 -0.427204 0
M  V30 3698 C 334.135 -1.09859 -1.61835 0
M  V30 3699 O 335.341 -1.40606 -2.32255 0
M  V30 3700 C 333.797 -3.50633 -0.811442 0
M  V30 3701 C 333.405 -4.46582 0.35615 0
M  V30 3702 C 335.149 -4.00282 -1.41332 0
M  V30 3703 C 333.056 -5.91379 -0.0497852 0
M  V30 3704 H 331.986 -0.736086 -0.163381 0
M  V30 3705 H 334.637 -1.8099 0.302456 0
M  V30 3706 H 333.019 -3.62319 -1.59815 0
M  V30 3707 H 334.193 -4.46636 1.1337 0
M  V30 3708 H 332.508 -4.07202 0.870396 0
M  V30 3709 H 335.105 -5.0595 -1.72972 0
M  V30 3710 H 335.448 -3.45359 -2.32449 0
M  V30 3711 H 335.981 -3.91764 -0.690323 0
M  V30 3712 H 332.72 -6.50255 0.827529 0
M  V30 3713 H 332.24 -5.94549 -0.791926 0
M  V30 3714 H 333.919 -6.45209 -0.481042 0
M  V30 3715 N 334.051 0.0651679 -1.57465 0
M  V30 3716 C 334.961 1.09448 -2.07505 0
M  V30 3717 C 335.977 1.41974 -1.00595 0
M  V30 3718 O 337.153 1.52018 -1.32107 0
M  V30 3719 C 334.218 2.38689 -2.51453 0
M  V30 3720 C 333.279 2.13073 -3.72691 0
M  V30 3721 C 332.512 3.36152 -4.14533 0
M  V30 3722 O 332.735 4.45517 -3.56189 0
M  V30 3723 O 331.669 3.23974 -5.07272 0
M  V30 3724 H 335.495 0.69935 -2.95538 0
M  V30 3725 H 333.08 0.279752 -1.46757 0
M  V30 3726 H 334.962 3.14736 -2.80212 0
M  V30 3727 H 333.637 2.77568 -1.66546 0
M  V30 3728 H 332.544 1.34709 -3.49005 0
M  V30 3729 H 333.877 1.79071 -4.5847 0
M  V30 3730 N 335.529 1.53961 0.336706 0
M  V30 3731 C 336.462 1.77255 1.43722 0
M  V30 3732 C 337.44 0.62193 1.50236 0
M  V30 3733 O 338.624 0.857874 1.67847 0
M  V30 3734 C 335.751 1.87733 2.81912 0
M  V30 3735 C 334.797 3.09933 2.92991 0
M  V30 3736 S 335.63 4.68836 2.58753 0
M  V30 3737 C 336.786 4.82202 3.99039 0
M  V30 3738 H 337.019 2.70322 1.23748 0
M  V30 3739 H 334.552 1.44917 0.532777 0
M  V30 3740 H 336.51 1.94455 3.61521 0
M  V30 3741 H 335.171 0.956666 2.99177 0
M  V30 3742 H 334.364 3.1396 3.94265 0
M  V30 3743 H 333.966 3.01472 2.21338 0
M  V30 3744 H 336.258 4.64032 4.9364 0
M  V30 3745 H 337.201 5.84298 4.00002 0
M  V30 3746 H 337.609 4.10604 3.87382 0
M  V30 3747 N 337.007 -0.598083 1.45811 0
M  V30 3748 C 338.235 -1.38322 1.53866 0
M  V30 3749 C 338.65 -1.87992 0.174479 0
M  V30 3750 O 338.007 -1.62756 -0.825627 0
M  V30 3751 C 338.058 -2.58125 2.53089 0
M  V30 3752 O 337.779 -2.10516 3.84206 0
M  V30 3753 C 339.28 -3.50869 2.70935 0
M  V30 3754 H 336.5 -0.423093 0.520801 0
M  V30 3755 H 339.044 -0.728527 1.91083 0
M  V30 3756 H 337.199 -3.19615 2.18917 0
M  V30 3757 H 337.613 -2.88425 4.38077 0
M  V30 3758 H 339.087 -4.31451 3.44317 0
M  V30 3759 H 339.564 -4.01822 1.77301 0
M  V30 3760 H 340.17 -2.95225 3.06141 0
M  V30 3761 N 338.485 -1.33259 -0.841409 0
M  V30 3762 C 339.395 -1.25332 -1.98316 0
M  V30 3763 C 340.411 -0.164364 -1.73222 0
M  V30 3764 O 341.587 -0.387486 -1.97637 0
M  V30 3765 C 338.652 -0.990078 -3.32262 0
M  V30 3766 C 337.713 -2.16879 -3.70489 0
M  V30 3767 C 336.946 -1.91801 -4.98044 0
M  V30 3768 O 337.169 -0.867075 -5.63771 0
M  V30 3769 O 336.103 -2.78267 -5.33714 0
M  V30 3770 H 339.929 -2.21344 -2.07944 0
M  V30 3771 H 337.514 -1.1328 -0.974058 0
M  V30 3772 H 339.396 -0.860321 -4.12524 0
M  V30 3773 H 338.071 -0.0602155 -3.23644 0
M  V30 3774 H 336.978 -2.35407 -2.90748 0
M  V30 3775 H 338.311 -3.0819 -3.8377 0
M  V30 3776 N 339.963 1.05934 -1.16686 0
M  V30 3777 C 341.212 1.78188 -0.945085 0
M  V30 3778 C 341.525 1.88338 0.528021 0
M  V30 3779 O 342.731 2.57258 0.867799 0
M  V30 3780 C 341.187 3.20277 -1.64167 0
M  V30 3781 C 340.795 3.18281 -3.15279 0
M  V30 3782 C 342.539 3.97039 -1.502 0
M  V30 3783 C 340.446 4.55112 -3.7766 0
M  V30 3784 H 339.376 0.667866 -0.349959 0
M  V30 3785 H 342.027 1.18794 -1.39858 0
M  V30 3786 H 340.409 3.79952 -1.11589 0
M  V30 3787 H 341.583 2.68167 -3.74731 0
M  V30 3788 H 339.898 2.55018 -3.29173 0
M  V30 3789 H 342.495 4.98194 -1.94183 0
M  V30 3790 H 342.838 4.13845 -0.451461 0
M  V30 3791 H 343.371 3.43894 -1.99954 0
M  V30 3792 H 340.11 4.43512 -4.82677 0
M  V30 3793 H 339.63 5.05406 -3.22994 0
M  V30 3794 H 341.309 5.24064 -3.79428 0
M  V30 3795 N 341.441 0.965919 1.2453 0
M  V30 3796 C 342.687 0.62776 1.92839 0
M  V30 3797 C 343.02 -0.834694 1.75347 0
M  V30 3798 O 342.295 -1.60031 1.10546 0
M  V30 3799 C 342.578 1.00109 3.45905 0
M  V30 3800 C 342.431 2.52011 3.72573 0
M  V30 3801 C 343.75 0.53435 4.36844 0
M  V30 3802 H 340.869 0.229537 0.700344 0
M  V30 3803 H 343.511 1.2046 1.46933 0
M  V30 3804 H 341.661 0.510238 3.85135 0
M  V30 3805 H 343.333 3.08559 3.42912 0
M  V30 3806 H 341.576 2.95287 3.17786 0
M  V30 3807 H 342.247 2.73183 4.79661 0
M  V30 3808 H 344.723 0.955565 4.04979 0
M  V30 3809 H 343.599 0.824152 5.42678 0
M  V30 3810 H 343.86 -0.565589 4.38467 0
M  V30 3811 N 342.919 -1.39368 0.735821 0
M  V30 3812 C 344.167 -2.00101 0.283562 0
M  V30 3813 C 344.488 -1.5868 -1.13338 0
M  V30 3814 O 343.758 -0.835423 -1.77193 0
M  V30 3815 H 342.338 -0.740024 0.101851 0
M  V30 3816 H 345 -1.70404 0.945962 0
M  V30 3817 H 344.096 -3.10323 0.332604 0
M  V30 3818 N 344.397 -0.483516 -1.5 0
M  V30 3819 C 345.644 0.0671597 -2.02389 0
M  V30 3820 C 345.972 1.38597 -1.36459 0
M  V30 3821 O 345.227 1.89634 -0.483458 0
M  V30 3822 C 345.526 0.286226 -3.56252 0
M  V30 3823 C 345.192 -0.952416 -4.40726 0
M  V30 3824 C 343.854 -1.29199 -4.63531 0
M  V30 3825 C 346.206 -1.77655 -4.89988 0
M  V30 3826 C 343.534 -2.45553 -5.32842 0
M  V30 3827 C 345.886 -2.93147 -5.60578 0
M  V30 3828 C 344.55 -3.27505 -5.81633 0
M  V30 3829 H 343.82 0.0245755 -0.740592 0
M  V30 3830 H 346.467 -0.640124 -1.80485 0
M  V30 3831 H 344.772 1.07587 -3.76739 0
M  V30 3832 H 346.469 0.726473 -3.94365 0
M  V30 3833 H 343.059 -0.677881 -4.23205 0
M  V30 3834 H 347.243 -1.52737 -4.72213 0
M  V30 3835 H 342.499 -2.72431 -5.47349 0
M  V30 3836 H 346.673 -3.57344 -5.97727 0
M  V30 3837 H 344.3 -4.1777 -6.35116 0
M  V30 3838 N 345.875 1.56104 -0.216619 0
M  V30 3839 C 346.785 2.23694 0.706982 0
M  V30 3840 C 347.801 1.24295 1.21765 0
M  V30 3841 O 348.977 1.57094 1.2603 0
M  V30 3842 C 346.042 2.8998 1.90033 0
M  V30 3843 C 345.103 4.04708 1.43213 0
M  V30 3844 C 344.336 4.67824 2.56859 0
M  V30 3845 O 344.559 4.29913 3.74874 0
M  V30 3846 O 343.493 5.56905 2.28343 0
M  V30 3847 H 347.319 3.03272 0.161235 0
M  V30 3848 H 344.904 1.49394 0.0136177 0
M  V30 3849 H 346.786 3.31837 2.59735 0
M  V30 3850 H 345.461 2.13365 2.43428 0
M  V30 3851 H 344.368 3.6743 0.70327 0
M  V30 3852 H 345.701 4.83051 0.944615 0
M  V30 3853 N 347.353 -0.0568162 1.57498 0
M  V30 3854 C 348.764 -0.606858 1.76562 0
M  V30 3855 C 349.115 -1.77114 0.844094 0
M  V30 3856 O 348.24 -2.16376 0.0318911 0
M  V30 3857 C 348.835 -1.10766 3.20182 0
M  V30 3858 C 347.394 -1.60344 3.40539 0
M  V30 3859 C 346.541 -0.529311 2.72201 0
M  V30 3860 H 349.492 0.169393 1.57793 0
M  V30 3861 H 349.513 -1.97602 3.25167 0
M  V30 3862 H 349.025 -0.26006 3.87228 0
M  V30 3863 H 347.126 -2.47379 2.78629 0
M  V30 3864 H 347.239 -1.67006 4.4905 0
M  V30 3865 H 345.603 -0.977893 2.35179 0
M  V30 3866 H 346.386 0.308352 3.41912 0
M  V30 3867 N 348.832 -1.54138 -0.328536 0
M  V30 3868 C 350.079 -1.72105 -1.06706 0
M  V30 3869 C 350.407 -0.492111 -1.88171 0
M  V30 3870 O 349.662 0.526153 -1.88494 0
M  V30 3871 C 349.961 -2.9457 -2.02393 0
M  V30 3872 C 349.627 -4.29544 -1.37122 0
M  V30 3873 C 348.289 -4.6624 -1.19052 0
M  V30 3874 C 350.641 -5.1333 -0.902331 0
M  V30 3875 C 347.969 -5.84325 -0.527331 0
M  V30 3876 C 350.321 -6.32094 -0.252988 0
M  V30 3877 C 348.985 -6.67473 -0.0600901 0
M  V30 3878 H 348.255 -0.629775 -0.390466 0
M  V30 3879 H 350.902 -1.88372 -0.34473 0
M  V30 3880 H 349.207 -2.72969 -2.81061 0
M  V30 3881 H 350.904 -3.05665 -2.59557 0
M  V30 3882 H 347.494 -4.0067 -1.52188 0
M  V30 3883 H 351.678 -4.855 -1.02974 0
M  V30 3884 H 346.934 -6.103 -0.366634 0
M  V30 3885 H 351.108 -6.96299 0.118366 0
M  V30 3886 H 348.735 -7.58832 0.455828 0
M  V30 3887 N 350.31 0.590341 -1.46126 0
M  V30 3888 C 351.54 1.37304 -1.54373 0
M  V30 3889 C 351.948 1.88332 -0.181071 0
M  V30 3890 O 351.291 1.63852 0.830559 0
M  V30 3891 C 351.353 2.6012 -2.48149 0
M  V30 3892 C 351.017 2.30613 -3.94546 0
M  V30 3893 C 352.014 1.89915 -4.83971 0
M  V30 3894 C 349.699 2.42993 -4.39613 0
M  V30 3895 C 351.693 1.61981 -6.16475 0
M  V30 3896 C 349.38 2.14672 -5.72153 0
M  V30 3897 C 350.378 1.7423 -6.60404 0
M  V30 3898 O 350.066 1.46251 -7.90485 0
M  V30 3899 H 349.798 0.426086 -0.524811 0
M  V30 3900 H 352.352 0.72539 -1.92165 0
M  V30 3901 H 350.582 3.27664 -2.05361 0
M  V30 3902 H 352.271 3.22182 -2.46887 0
M  V30 3903 H 353.037 1.79872 -4.50412 0
M  V30 3904 H 348.916 2.73435 -3.71153 0
M  V30 3905 H 352.46 1.30341 -6.85315 0
M  V30 3906 H 348.357 2.24337 -6.05263 0
M  V30 3907 H 349.125 1.6016 -8.02677 0
M  V30 3908 N 351.788 1.33704 0.83433 0
M  V30 3909 C 353.013 1.28615 1.62705 0
M  V30 3910 C 353.438 -0.139242 1.87584 0
M  V30 3911 O 352.796 -1.09734 1.4432 0
M  V30 3912 C 352.844 2.07139 2.95171 0
M  V30 3913 O 351.948 1.4331 3.86699 0
M  V30 3914 H 351.289 0.44226 0.49528 0
M  V30 3915 H 353.819 1.76335 1.03766 0
M  V30 3916 H 353.829 2.18073 3.44831 0
M  V30 3917 H 352.504 3.10779 2.76386 0
M  V30 3918 H 351.081 1.4105 3.45195 0
M  V30 3919 N 353.266 -1.05314 1.17247 0
M  V30 3920 C 354.176 -2.16538 0.90268 0
M  V30 3921 C 355.192 -1.73523 -0.128707 0
M  V30 3922 O 356.368 -2.01337 0.0502701 0
M  V30 3923 C 353.433 -3.44167 0.418356 0
M  V30 3924 C 352.494 -4.01635 1.51618 0
M  V30 3925 C 351.727 -5.23171 1.05487 0
M  V30 3926 O 351.95 -5.70327 -0.0914715 0
M  V30 3927 O 350.884 -5.72848 1.8474 0
M  V30 3928 H 354.71 -2.42145 1.83302 0
M  V30 3929 H 352.295 -1.15037 0.953246 0
M  V30 3930 H 354.177 -4.21112 0.155726 0
M  V30 3931 H 352.852 -3.20063 -0.48385 0
M  V30 3932 H 351.759 -3.26135 1.83268 0
M  V30 3933 H 353.092 -4.30053 2.39405 0
M  V30 3934 N 354.744 -0.972509 -1.24016 0
M  V30 3935 C 355.969 -0.654417 -1.96805 0
M  V30 3936 C 356.394 0.770398 -1.716 0
M  V30 3937 O 355.752 1.52361 -0.982647 0
M  V30 3938 C 355.8 -0.941031 -3.48105 0
M  V30 3939 O 354.904 -0.0289472 -4.1239 0
M  V30 3940 H 354.245 -0.24692 -0.616382 0
M  V30 3941 H 356.775 -1.30396 -1.57664 0
M  V30 3942 H 356.785 -0.87452 -3.98517 0
M  V30 3943 H 355.46 -1.97939 -3.65777 0
M  V30 3944 H 354.037 -0.149192 -3.72601 0
M  V30 3945 N 356.222 1.38976 -0.743202 0
M  V30 3946 C 357.499 1.94351 -0.220705 0
M  V30 3947 C 357.879 1.67935 1.2791 0
M  V30 3948 O 357.227 1.01211 2.04862 0
M  V30 3949 C 357.437 3.44426 -0.563171 0
M  V30 3950 C 358.785 4.2144 -0.517046 0
M  V30 3951 O 359.809 3.52661 -0.500846 0
M  V30 3952 O 358.668 5.44032 -0.518806 0
M  V30 3953 H 355.762 0.825879 -0.043047 0
M  V30 3954 H 358.308 1.48429 -0.822618 0
M  V30 3955 H 357.08 3.5712 -1.59941 0
M  V30 3956 H 356.703 3.97543 0.0672883 0
M  V30 3957 N 357.7 0.491464 1.49741 0
M  V30 3958 C 358.946 -0.0565092 2.02721 0
M  V30 3959 C 359.279 -1.37522 1.37118 0
M  V30 3960 O 358.554 -1.87866 0.503645 0
M  V30 3961 C 358.837 -0.219051 3.59433 0
M  V30 3962 C 358.69 1.12211 4.35579 0
M  V30 3963 C 360.009 -0.964157 4.29409 0
M  V30 3964 H 357.128 -0.0190627 0.736753 0
M  V30 3965 H 359.77 0.641021 1.7886 0
M  V30 3966 H 357.92 -0.813165 3.79895 0
M  V30 3967 H 359.592 1.75437 4.26637 0
M  V30 3968 H 357.835 1.71377 3.98513 0
M  V30 3969 H 358.506 0.961794 5.43556 0
M  V30 3970 H 360.982 -0.460378 4.13545 0
M  V30 3971 H 359.858 -1.04671 5.38828 0
M  V30 3972 H 360.119 -2.00563 3.93988 0
M  V30 3973 N 359.178 -1.55987 0.224894 0
M  V30 3974 C 360.455 -1.90232 -0.455083 0
M  V30 3975 C 360.835 -1.14269 -1.77499 0
M  V30 3976 O 360.183 -0.253079 -2.27094 0
M  V30 3977 C 360.393 -3.42993 -0.644758 0
M  V30 3978 C 361.741 -4.13821 -0.950669 0
M  V30 3979 O 362.765 -3.4861 -0.731423 0
M  V30 3980 O 361.624 -5.29128 -1.36695 0
M  V30 3981 H 358.718 -0.79108 -0.241084 0
M  V30 3982 H 361.264 -1.67581 0.267327 0
M  V30 3983 H 360.036 -3.90252 0.28613 0
M  V30 3984 H 359.659 -3.71434 -1.41853 0
M  V30 3985 N 360.656 0.0484629 -1.57525 0
M  V30 3986 C 361.904 0.741657 -1.88 0
M  V30 3987 C 362.225 1.76918 -0.820054 0
M  V30 3988 O 361.495 1.95335 0.148661 0
M  V30 3989 H 360.075 0.276908 -0.69378 0
M  V30 3990 H 362.737 0.019013 -1.94891 0
M  V30 3991 H 361.833 1.24336 -2.86264 0
M  V30 3992 N 362.134 1.5431 0.320358 0
M  V30 3993 C 363.38 1.72924 1.05949 0
M  V30 3994 C 363.713 0.503185 1.87568 0
M  V30 3995 O 362.988 -0.499839 1.87968 0
M  V30 3996 C 363.271 3.00676 1.98156 0
M  V30 3997 C 363.124 4.3354 1.19845 0
M  V30 3998 C 364.443 3.24198 2.9763 0
M  V30 3999 H 361.562 0.629195 0.383774 0
M  V30 4000 H 364.204 1.87008 0.335854 0
M  V30 4001 H 362.354 2.888 2.59859 0
M  V30 4002 H 364.026 4.57305 0.605773 0
M  V30 4003 H 362.269 4.309 0.500784 0
M  V30 4004 H 362.94 5.19156 1.87567 0
M  V30 4005 H 365.416 3.35557 2.4605 0
M  V30 4006 H 364.292 4.14938 3.59329 0
M  V30 4007 H 364.553 2.41577 3.7026 0
M  V30 4008 N 363.613 -0.582584 1.46437 0
M  V30 4009 C 364.86 -1.34079 1.51753 0
M  V30 4010 C 365.188 -1.93762 0.169299 0
M  V30 4011 O 364.443 -1.76989 -0.835062 0
M  V30 4012 C 364.742 -2.48964 2.56421 0
M  V30 4013 C 364.408 -2.07273 4.00436 0
M  V30 4014 C 363.07 -1.95618 4.39644 0
M  V30 4015 C 365.422 -1.75111 4.90903 0
M  V30 4016 C 362.75 -1.5006 5.67185 0
M  V30 4017 C 365.102 -1.31032 6.18881 0
M  V30 4018 C 363.766 -1.17954 6.56996 0
M  V30 4019 H 363.036 -0.49063 0.555304 0
M  V30 4020 H 365.683 -0.656007 1.79913 0
M  V30 4021 H 363.988 -3.22889 2.21923 0
M  V30 4022 H 365.685 -3.07178 2.57765 0
M  V30 4023 H 362.275 -2.17279 3.69443 0
M  V30 4024 H 366.459 -1.83001 4.61329 0
M  V30 4025 H 361.715 -1.38577 5.95488 0
M  V30 4026 H 365.889 -1.052 6.88408 0
M  V30 4027 H 363.516 -0.824279 7.55718 0
M  V30 4028 N 365.091 -1.34144 -0.827227 0
M  V30 4029 C 366.339 -1.26009 -1.58007 0
M  V30 4030 C 366.66 0.170971 -1.94249 0
M  V30 4031 O 365.93 1.10256 -1.61927 0
M  V30 4032 H 364.51 -0.463414 -0.585881 0
M  V30 4033 H 367.172 -1.68005 -0.987951 0
M  V30 4034 H 366.268 -1.86187 -2.50481 0
M  V30 4035 N 366.569 1.04691 -1.17803 0
M  V30 4036 C 367.499 2.14494 -0.92275 0
M  V30 4037 C 368.48 1.69546 0.137179 0
M  V30 4038 O 369.665 1.94195 -0.0141108 0
M  V30 4039 C 366.795 3.44491 -0.440803 0
M  V30 4040 C 365.749 4.03031 -1.4405 0
M  V30 4041 C 365.075 5.28432 -0.81631 0
M  V30 4042 C 366.375 4.39932 -2.81527 0
M  V30 4043 H 368.069 2.36107 -1.84103 0
M  V30 4044 H 365.615 1.1347 -0.886599 0
M  V30 4045 H 367.568 4.2066 -0.249602 0
M  V30 4046 H 366.292 3.22546 0.513025 0
M  V30 4047 H 364.951 3.28937 -1.61853 0
M  V30 4048 H 364.599 5.02792 0.144511 0
M  V30 4049 H 364.299 5.68559 -1.48371 0
M  V30 4050 H 365.823 6.07284 -0.635496 0
M  V30 4051 H 367.237 5.07113 -2.67412 0
M  V30 4052 H 365.634 4.9109 -3.44892 0
M  V30 4053 H 366.704 3.50045 -3.35554 0
M  V30 4054 N 368.047 0.979072 1.23499 0
M  V30 4055 C 369.295 0.645941 1.91499 0
M  V30 4056 C 369.616 -0.822948 1.76784 0
M  V30 4057 O 368.886 -1.58854 1.14639 0
M  V30 4058 H 367.466 0.235919 0.708767 0
M  V30 4059 H 370.128 1.2426 1.50152 0
M  V30 4060 H 369.224 0.896411 2.9895 0
M  V30 4061 N 369.525 -1.3858 0.750561 0
M  V30 4062 C 370.771 -2.0095 0.31477 0
M  V30 4063 C 371.126 -1.58509 -1.09053 0
M  V30 4064 O 370.419 -0.8112 -1.7358 0
M  V30 4065 C 370.613 -3.55455 0.372373 0
M  V30 4066 C 370.442 -4.12898 1.78173 0
M  V30 4067 C 369.212 -4.44797 2.39757 0
M  V30 4068 C 371.41 -4.35366 2.7379 0
M  V30 4069 N 369.392 -4.87831 3.72685 0
M  V30 4070 C 370.763 -4.80775 3.91478 0
M  V30 4071 C 372.818 -4.1746 2.71351 0
M  V30 4072 C 371.521 -5.10155 5.07084 0
M  V30 4073 C 373.547 -4.47963 3.86113 0
M  V30 4074 C 372.909 -4.93593 5.02539 0
M  V30 4075 H 369.008 -0.765083 0.161776 0
M  V30 4076 H 371.592 -1.68246 0.979867 0
M  V30 4077 H 369.763 -3.87512 -0.26244 0
M  V30 4078 H 371.495 -4.04614 -0.0834479 0
M  V30 4079 H 368.25 -4.33135 1.91548 0
M  V30 4080 H 368.674 -5.13685 4.40972 0
M  V30 4081 H 373.316 -3.81372 1.82524 0
M  V30 4082 H 371.034 -5.45141 5.96529 0
M  V30 4083 H 374.62 -4.35717 3.85542 0
M  V30 4084 H 373.5 -5.16746 5.89867 0
M  V30 4085 N 371.003 -0.499398 -1.49478 0
M  V30 4086 C 371.95 0.279881 -2.29097 0
M  V30 4087 C 372.92 0.961805 -1.3542 0
M  V30 4088 O 374.105 0.968777 -1.64376 0
M  V30 4089 C 371.245 1.33932 -3.18051 0
M  V30 4090 C 370.358 0.669333 -4.26783 0
M  V30 4091 C 369.493 1.70907 -5.02955 0
M  V30 4092 C 368.532 1.02087 -6.03527 0
M  V30 4093 N 367.669 2.00474 -6.7287 0
M  V30 4094 H 372.509 -0.405317 -2.95231 0
M  V30 4095 H 370.046 -0.211726 -1.45568 0
M  V30 4096 H 372.004 1.96553 -3.67998 0
M  V30 4097 H 370.634 1.9933 -2.53904 0
M  V30 4098 H 369.686 -0.0701234 -3.80335 0
M  V30 4099 H 370.998 0.127503 -4.98637 0
M  V30 4100 H 370.152 2.41037 -5.56764 0
M  V30 4101 H 368.891 2.28476 -4.30871 0
M  V30 4102 H 367.896 0.305338 -5.48951 0
M  V30 4103 H 369.121 0.451708 -6.77596 0
M  V30 4104 H 367.067 2.57007 -6.03559 0
M  V30 4105 H 366.984 1.51353 -7.40694 0
M  V30 4106 H 368.252 2.69897 -7.31284 0
M  V30 4107 N 372.481 1.55866 -0.233164 0
M  V30 4108 C 373.758 1.90471 0.444988 0
M  V30 4109 C 374.138 1.15209 1.7689 0
M  V30 4110 O 373.486 0.265119 2.26957 0
M  V30 4111 C 373.696 3.4333 0.626559 0
M  V30 4112 C 375.044 4.14319 0.92871 0
M  V30 4113 O 376.068 3.48993 0.712926 0
M  V30 4114 O 374.927 5.29846 1.33887 0
M  V30 4115 H 372.021 0.792347 0.236885 0
M  V30 4116 H 374.567 1.67437 -0.276211 0
M  V30 4117 H 373.339 3.90095 -0.306822 0
M  V30 4118 H 372.962 3.72181 1.39881 0
M  V30 4119 N 373.959 -0.0401083 1.57549 0
M  V30 4120 C 374.889 -1.04384 2.08869 0
M  V30 4121 C 375.87 -1.38407 0.988817 0
M  V30 4122 O 377.055 -1.47483 1.26342 0
M  V30 4123 C 374.185 -2.34808 2.55895 0
M  V30 4124 C 373.139 -2.15057 3.70047 0
M  V30 4125 C 372.465 -3.51145 4.03239 0
M  V30 4126 C 373.765 -1.54576 4.98902 0
M  V30 4127 H 375.459 -0.616666 2.92981 0
M  V30 4128 H 373.005 -0.295184 1.40942 0
M  V30 4129 H 374.958 -3.05346 2.90417 0
M  V30 4130 H 373.682 -2.79565 1.68853 0
M  V30 4131 H 372.341 -1.46954 3.35857 0
M  V30 4132 H 371.989 -3.93529 3.13279 0
M  V30 4133 H 371.689 -3.38758 4.80122 0
M  V30 4134 H 373.213 -4.23062 4.40285 0
M  V30 4135 H 374.627 -2.15017 5.31451 0
M  V30 4136 H 373.024 -1.52796 5.80322 0
M  V30 4137 H 374.094 -0.51039 4.82206 0
M  V30 4138 N 375.437 -1.54477 -0.31217 0
M  V30 4139 C 376.662 -1.77526 -1.07235 0
M  V30 4140 C 377.087 -0.527775 -1.80544 0
M  V30 4141 O 376.445 0.52121 -1.73646 0
M  V30 4142 C 376.493 -2.97535 -2.03728 0
M  V30 4143 O 375.597 -2.69878 -3.11833 0
M  V30 4144 H 374.938 -0.58792 -0.30862 0
M  V30 4145 H 377.468 -2.01532 -0.352993 0
M  V30 4146 H 377.478 -3.25198 -2.46395 0
M  V30 4147 H 376.153 -3.87996 -1.49774 0
M  V30 4148 H 374.73 -2.53199 -2.7376 0
M  V30 4149 N 376.915 0.57481 -1.46744 0
M  V30 4150 C 378.164 1.32898 -1.51727 0
M  V30 4151 C 378.477 1.948 -0.176692 0
M  V30 4152 O 379.683 2.71299 -0.104385 0
M  V30 4153 C 378.139 2.40901 -2.67385 0
M  V30 4154 C 377.747 1.85266 -4.07898 0
M  V30 4155 C 379.491 3.17609 -2.81646 0
M  V30 4156 C 377.398 2.90945 -5.14883 0
M  V30 4157 H 376.328 0.499631 -0.564699 0
M  V30 4158 H 378.979 0.612536 -1.72975 0
M  V30 4159 H 377.361 3.15379 -2.39483 0
M  V30 4160 H 378.535 1.17278 -4.45626 0
M  V30 4161 H 376.85 1.21199 -3.98371 0
M  V30 4162 H 379.447 3.96493 -3.58744 0
M  V30 4163 H 379.79 3.70696 -1.89448 0
M  V30 4164 H 380.323 2.50239 -3.09233 0
M  V30 4165 H 377.062 2.42736 -6.089 0
M  V30 4166 H 376.582 3.57398 -4.81691 0
M  V30 4167 H 378.261 3.54755 -5.41071 0
M  V30 4168 N 378.394 1.34581 0.820102 0
M  V30 4169 C 379.642 1.26845 1.57336 0
M  V30 4170 C 379.963 -0.160667 1.94337 0
M  V30 4171 O 379.233 -1.09396 1.6251 0
M  V30 4172 H 377.813 0.466514 0.583415 0
M  V30 4173 H 380.475 1.68526 0.979027 0
M  V30 4174 H 379.571 1.87513 2.4949 0
M  V30 4175 N 379.872 -1.04064 1.18357 0
M  V30 4176 C 381.097 -1.81454 1.00445 0
M  V30 4177 C 381.522 -1.82823 -0.442423 0
M  V30 4178 O 380.88 -1.24555 -1.31741 0
M  V30 4179 C 380.928 -3.24925 1.56384 0
M  V30 4180 O 380.032 -4.04856 0.785209 0
M  V30 4181 H 379.373 -0.560604 0.355835 0
M  V30 4182 H 381.903 -1.31059 1.57114 0
M  V30 4183 H 381.913 -3.75702 1.59097 0
M  V30 4184 H 380.588 -3.23244 2.61699 0
M  V30 4185 H 379.165 -3.63537 0.830399 0
M  V30 4186 N 381.35 -0.985608 -1.22978 0
M  V30 4187 C 382.599 -0.652881 -1.90841 0
M  V30 4188 C 382.912 0.817842 -1.77681 0
M  V30 4189 O 384.118 1.26185 -2.40395 0
M  V30 4190 C 382.574 -1.11717 -3.42122 0
M  V30 4191 C 382.182 -2.6126 -3.63933 0
M  V30 4192 C 383.926 -0.85843 -4.1573 0
M  V30 4193 C 381.833 -3.0133 -5.08876 0
M  V30 4194 H 380.763 -0.240491 -0.714619 0
M  V30 4195 H 383.414 -1.1942 -1.39324 0
M  V30 4196 H 381.796 -0.504027 -3.92779 0
M  V30 4197 H 382.97 -3.27858 -3.23799 0
M  V30 4198 H 381.285 -2.84937 -3.03644 0
M  V30 4199 H 383.882 -1.13359 -5.22546 0
M  V30 4200 H 384.225 0.205461 -4.15793 0
M  V30 4201 H 384.758 -1.43341 -3.71077 0
M  V30 4202 H 381.497 -4.06864 -5.13947 0
M  V30 4203 H 381.017 -2.3943 -5.49939 0
M  V30 4204 H 382.696 -2.92224 -5.77247 0
M  V30 4205 N 382.828 1.3818 -0.7579 0
M  V30 4206 C 384.105 1.94106 -0.241306 0
M  V30 4207 C 384.485 1.69282 1.26122 0
M  V30 4208 O 383.833 1.03378 2.03777 0
M  V30 4209 C 384.043 3.43809 -0.59967 0
M  V30 4210 C 385.391 4.20868 -0.561717 0
M  V30 4211 O 386.415 3.5211 -0.538222 0
M  V30 4212 O 385.274 5.43451 -0.576478 0
M  V30 4213 H 382.368 0.825376 -0.0518042 0
M  V30 4214 H 384.914 1.47548 -0.838315 0
M  V30 4215 H 383.686 3.55403 -1.6372 0
M  V30 4216 H 383.309 3.97592 0.0251197 0
M  V30 4217 N 384.306 0.507319 1.49211 0
M  V30 4218 C 385.717 0.0611118 1.866 0
M  V30 4219 C 386.068 -1.35488 1.41907 0
M  V30 4220 O 385.193 -2.0108 0.799726 0
M  V30 4221 C 385.788 0.104125 3.3864 0
M  V30 4222 C 384.347 -0.28677 3.75306 0
M  V30 4223 C 383.494 0.473893 2.73221 0
M  V30 4224 H 386.445 0.719775 1.41439 0
M  V30 4225 H 386.466 -0.689672 3.74198 0
M  V30 4226 H 385.978 1.13482 3.71138 0
M  V30 4227 H 384.079 -1.32046 3.48417 0
M  V30 4228 H 384.192 0.0370745 4.79086 0
M  V30 4229 H 382.556 -0.0770644 2.54583 0
M  V30 4230 H 383.339 1.50478 3.08563 0
M  V30 4231 N 385.784 -1.5574 0.241426 0
M  V30 4232 C 387.014 -2.02913 -0.38857 0
M  V30 4233 C 387.422 -1.12014 -1.52478 0
M  V30 4234 O 386.765 -0.125903 -1.83268 0
M  V30 4235 C 386.827 -3.4636 -0.963075 0
M  V30 4236 C 386.491 -4.56982 0.0401916 0
M  V30 4237 C 387.488 -5.12941 0.847766 0
M  V30 4238 C 385.173 -5.0203 0.164699 0
M  V30 4239 C 387.167 -6.12437 1.76636 0
M  V30 4240 C 384.854 -6.01358 1.0868 0
M  V30 4241 C 385.852 -6.5644 1.88616 0
M  V30 4242 O 385.54 -7.53831 2.79273 0
M  V30 4243 H 385.272 -0.668983 -0.0971452 0
M  V30 4244 H 387.826 -2.02198 0.361248 0
M  V30 4245 H 386.056 -3.44206 -1.76235 0
M  V30 4246 H 387.745 -3.77065 -1.50257 0
M  V30 4247 H 388.511 -4.78974 0.762133 0
M  V30 4248 H 384.39 -4.58824 -0.447411 0
M  V30 4249 H 387.934 -6.55355 2.39071 0
M  V30 4250 H 383.831 -6.34746 1.17338 0
M  V30 4251 H 384.599 -7.71428 2.73572 0
M  V30 4252 N 387.262 0.0317525 -1.57568 0
M  V30 4253 C 388.511 0.722131 -1.8833 0
M  V30 4254 C 388.824 1.76664 -0.839587 0
M  V30 4255 O 390.03 2.50942 -1.03635 0
M  V30 4256 C 388.486 1.33544 -3.34207 0
M  V30 4257 C 388.094 0.327415 -4.46802 0
M  V30 4258 C 389.838 2.00585 -3.7412 0
M  V30 4259 C 387.745 0.948915 -5.83738 0
M  V30 4260 H 386.675 0.273466 -0.702661 0
M  V30 4261 H 389.326 -0.0235811 -1.83485 0
M  V30 4262 H 387.708 2.13077 -3.33788 0
M  V30 4263 H 388.882 -0.441006 -4.58685 0
M  V30 4264 H 387.197 -0.240758 -4.15703 0
M  V30 4265 H 389.794 2.47932 -4.73744 0
M  V30 4266 H 390.137 2.82285 -3.05975 0
M  V30 4267 H 390.67 1.27831 -3.76702 0
M  V30 4268 H 387.409 0.171387 -6.55276 0
M  V30 4269 H 386.929 1.68724 -5.7558 0
M  V30 4270 H 388.608 1.45705 -6.3038 0
M  V30 4271 N 388.74 1.54641 0.303973 0
M  V30 4272 C 389.986 1.74038 1.04109 0
M  V30 4273 C 390.319 0.523051 1.87024 0
M  V30 4274 O 389.594 -0.479874 1.88487 0
M  V30 4275 C 389.877 3.02761 1.94955 0
M  V30 4276 C 389.73 4.34787 1.1524 0
M  V30 4277 C 391.049 3.27336 2.94175 0
M  V30 4278 H 388.168 0.63323 0.377079 0
M  V30 4279 H 390.81 1.87354 0.316001 0
M  V30 4280 H 388.96 2.9154 2.56782 0
M  V30 4281 H 390.632 4.57922 0.557236 0
M  V30 4282 H 388.875 4.31407 0.455053 0
M  V30 4283 H 389.546 5.21116 1.8205 0
M  V30 4284 H 392.022 3.38148 2.42477 0
M  V30 4285 H 390.898 4.18726 3.54908 0
M  V30 4286 H 391.159 2.45491 3.67677 0
M  V30 4287 N 390.218 -0.567019 1.47046 0
M  V30 4288 C 391.128 -1.70247 1.6141 0
M  V30 4289 C 392.144 -1.66746 0.497157 0
M  V30 4290 O 393.32 -1.86371 0.763389 0
M  V30 4291 C 390.385 -3.06756 1.61561 0
M  V30 4292 C 389.446 -3.21399 2.84607 0
M  V30 4293 C 388.679 -4.51396 2.84741 0
M  V30 4294 O 388.902 -5.36255 1.94388 0
M  V30 4295 O 387.836 -4.69621 3.76483 0
M  V30 4296 H 391.662 -1.61073 2.57467 0
M  V30 4297 H 389.247 -0.735894 1.30019 0
M  V30 4298 H 391.129 -3.8801 1.64396 0
M  V30 4299 H 389.804 -3.16333 0.686684 0
M  V30 4300 H 388.711 -2.39579 2.8732 0
M  V30 4301 H 390.044 -3.16721 3.76761 0
M  V30 4302 N 391.696 -1.35014 -0.812953 0
M  V30 4303 C 392.626 -1.30069 -1.93919 0
M  V30 4304 C 393.607 -0.176275 -1.69184 0
M  V30 4305 O 394.792 -0.370227 -1.90638 0
M  V30 4306 C 391.922 -1.06547 -3.30552 0
M  V30 4307 C 390.876 -2.15561 -3.69753 0
M  V30 4308 C 390.202 -1.77214 -5.04479 0
M  V30 4309 C 391.502 -3.57476 -3.808 0
M  V30 4310 H 393.196 -2.24303 -1.98314 0
M  V30 4311 H 390.742 -1.07977 -0.952736 0
M  V30 4312 H 392.695 -1.01729 -4.08937 0
M  V30 4313 H 391.419 -0.0875719 -3.26483 0
M  V30 4314 H 390.078 -2.19466 -2.9365 0
M  V30 4315 H 389.726 -0.780589 -4.96906 0
M  V30 4316 H 389.426 -2.50184 -5.31678 0
M  V30 4317 H 390.95 -1.7391 -5.8531 0
M  V30 4318 H 392.364 -3.55929 -4.4943 0
M  V30 4319 H 390.761 -4.29152 -4.19462 0
M  V30 4320 H 391.831 -3.94091 -2.82525 0
M  V30 4321 N 393.175 1.03435 -1.18907 0
M  V30 4322 C 394.122 2.11591 -0.921837 0
M  V30 4323 C 395.092 1.65499 0.141226 0
M  V30 4324 O 396.277 1.908 0.000242829 0
M  V30 4325 C 393.417 3.42012 -0.460616 0
M  V30 4326 C 392.53 4.01682 -1.58982 0
M  V30 4327 C 391.665 5.20091 -1.08069 0
M  V30 4328 C 390.704 5.71805 -2.18416 0
M  V30 4329 N 389.841 6.81494 -1.68849 0
M  V30 4330 H 394.681 2.33787 -1.8479 0
M  V30 4331 H 392.218 1.1467 -0.921373 0
M  V30 4332 H 394.176 4.16834 -0.174642 0
M  V30 4333 H 392.806 3.19944 0.428467 0
M  V30 4334 H 391.858 3.24127 -1.99113 0
M  V30 4335 H 393.17 4.36084 -2.4214 0
M  V30 4336 H 392.324 6.02051 -0.749615 0
M  V30 4337 H 391.063 4.87209 -0.218771 0
M  V30 4338 H 390.068 4.88461 -2.5236 0
M  V30 4339 H 391.293 6.06728 -3.05054 0
M  V30 4340 H 389.239 6.50475 -0.849572 0
M  V30 4341 H 389.156 7.14994 -2.45601 0
M  V30 4342 H 390.424 7.67063 -1.38689 0
M  V30 4343 N 394.653 0.992116 1.22453 0
M  V30 4344 C 395.881 0.685944 1.95198 0
M  V30 4345 C 396.296 -0.749233 1.73297 0
M  V30 4346 O 395.653 -1.50549 1.03156 0
M  V30 4347 C 395.704 0.981395 3.47924 0
M  V30 4348 O 395.425 2.36018 3.6909 0
M  V30 4349 C 396.926 0.692815 4.37853 0
M  V30 4350 H 394.146 0.253821 0.621141 0
M  V30 4351 H 396.69 1.32668 1.55626 0
M  V30 4352 H 394.845 0.386481 3.85467 0
M  V30 4353 H 395.259 2.45884 4.63294 0
M  V30 4354 H 396.733 0.949818 5.43767 0
M  V30 4355 H 397.21 -0.373181 4.37612 0
M  V30 4356 H 397.816 1.26874 4.05935 0
M  V30 4357 N 396.131 -1.37776 0.765217 0
M  V30 4358 C 397.063 -2.28958 0.105361 0
M  V30 4359 C 398.076 -1.48316 -0.67128 0
M  V30 4360 O 399.265 -1.71046 -0.51045 0
M  V30 4361 C 396.365 -3.27421 -0.874569 0
M  V30 4362 C 395.538 -4.37132 -0.153123 0
M  V30 4363 C 394.597 -5.1571 -1.04547 0
M  V30 4364 O 393.623 -5.66896 -0.511672 0
M  V30 4365 N 394.825 -5.29808 -2.37243 0
M  V30 4366 H 397.59 -2.86227 0.888495 0
M  V30 4367 H 395.151 -1.49682 0.617 0
M  V30 4368 H 397.143 -3.7687 -1.47483 0
M  V30 4369 H 395.713 -2.70967 -1.55871 0
M  V30 4370 H 394.933 -3.89166 0.627975 0
M  V30 4371 H 396.221 -5.07625 0.345643 0
M  V30 4372 H 395.619 -4.89793 -2.83054 0
M  V30 4373 H 394.176 -5.82589 -2.9229 0
M  V30 4374 N 397.609 -0.515225 -1.4894 0
M  V30 4375 C 398.557 0.269115 -2.31038 0
M  V30 4376 C 399.551 0.949443 -1.40292 0
M  V30 4377 O 400.757 0.87551 -1.57273 0
M  V30 4378 H 397.132 0.10565 -0.744542 0
M  V30 4379 H 399.103 -0.443096 -2.95092 0
M  V30 4380 C 397.852 1.31213 -3.21991 0
M  V30 4381 H 397.175 0.798034 -3.91754 0
M  V30 4382 H 398.615 1.83263 -3.82349 0
M  V30 4383 C 397.074 2.33791 -2.42576 0
M  V30 4384 O 397.604 3.3995 -2.14003 0
M  V30 4385 N 395.81 2.06625 -2.0434 0
M  V30 4386 H 395.357 1.20314 -2.27777 0
M  V30 4387 H 395.315 2.75483 -1.51514 0
M  V30 4388 N 399.087 1.5561 -0.249682 0
M  V30 4389 C 400.034 2.21496 0.648694 0
M  V30 4390 C 401.004 1.17977 1.16921 0
M  V30 4391 O 402.189 1.46434 1.22318 0
M  V30 4392 C 399.329 2.92039 1.83868 0
M  V30 4393 C 398.442 4.10219 1.35442 0
M  V30 4394 C 397.577 4.6847 2.50419 0
M  V30 4395 C 396.616 5.78893 1.98869 0
M  V30 4396 N 395.753 6.31315 3.07223 0
M  V30 4397 H 400.593 2.97892 0.0801582 0
M  V30 4398 H 398.13 1.47074 0.0278031 0
M  V30 4399 H 400.088 3.31138 2.53778 0
M  V30 4400 H 398.718 2.18111 2.37965 0
M  V30 4401 H 397.77 3.76413 0.54928 0
M  V30 4402 H 399.082 4.89927 0.936649 0
M  V30 4403 H 398.236 5.10158 3.28366 0
M  V30 4404 H 396.975 3.87984 2.95499 0
M  V30 4405 H 395.98 5.3668 1.19393 0
M  V30 4406 H 397.205 6.61232 1.54755 0
M  V30 4407 H 395.151 5.53733 3.51732 0
M  V30 4408 H 395.068 7.06224 2.69784 0
M  V30 4409 H 396.336 6.77662 3.8522 0
M  V30 4410 N 400.565 -0.0233959 1.57583 0
M  V30 4411 C 401.814 -0.712133 1.8871 0
M  V30 4412 C 402.127 -1.76217 0.848944 0
M  V30 4413 O 403.333 -2.50389 1.04964 0
M  V30 4414 C 401.789 -1.3177 3.3491 0
M  V30 4415 C 401.397 -0.303715 4.46969 0
M  V30 4416 C 403.141 -1.98598 3.75179 0
M  V30 4417 C 401.048 -0.917945 5.84233 0
M  V30 4418 H 399.978 -0.269735 0.704101 0
M  V30 4419 H 402.629 0.0333114 1.8347 0
M  V30 4420 H 401.011 -2.11304 3.34913 0
M  V30 4421 H 402.185 0.465325 4.58445 0
M  V30 4422 H 400.5 0.2628 4.1557 0
M  V30 4423 H 403.097 -2.45416 4.75053 0
M  V30 4424 H 403.44 -2.80659 3.07468 0
M  V30 4425 H 403.973 -1.25831 3.77374 0
M  V30 4426 H 400.712 -0.136633 6.55358 0
M  V30 4427 H 400.232 -1.65669 5.76467 0
M  V30 4428 H 401.911 -1.4236 6.31144 0
M  V30 4429 N 402.043 -1.548 -0.295768 0
M  V30 4430 C 402.953 -1.89177 -1.38742 0
M  V30 4431 C 403.969 -0.786481 -1.55211 0
M  V30 4432 O 405.145 -1.08344 -1.69775 0
M  V30 4433 C 402.21 -2.13663 -2.73036 0
M  V30 4434 C 401.271 -3.37349 -2.65508 0
M  V30 4435 C 400.504 -3.60658 -3.93398 0
M  V30 4436 O 400.727 -2.86882 -4.93006 0
M  V30 4437 O 399.661 -4.54179 -3.94975 0
M  V30 4438 H 403.487 -2.82059 -1.12589 0
M  V30 4439 H 401.072 -1.41056 -0.492295 0
M  V30 4440 H 402.954 -2.3094 -3.52484 0
M  V30 4441 H 401.629 -1.23967 -2.99022 0
M  V30 4442 H 400.536 -3.25431 -1.84514 0
M  V30 4443 H 401.869 -4.27192 -2.44474 0
M  V30 4444 N 403.521 0.559213 -1.47345 0
M  V30 4445 C 404.453 1.68161 -1.55738 0
M  V30 4446 C 405.466 1.56636 -0.443744 0
M  V30 4447 O 406.655 1.6363 -0.713258 0
M  V30 4448 C 403.755 3.06611 -1.4437 0
M  V30 4449 C 402.928 3.4391 -2.70268 0
M  V30 4450 C 401.987 4.61515 -2.52765 0
M  V30 4451 O 401.013 4.66197 -3.26572 0
M  V30 4452 N 402.215 5.57883 -1.6046 0
M  V30 4453 H 404.98 1.61408 -2.52522 0
M  V30 4454 H 402.541 0.7458 -1.43699 0
M  V30 4455 H 404.533 3.83117 -1.30398 0
M  V30 4456 H 403.103 3.07602 -0.556766 0
M  V30 4457 H 402.323 2.56873 -2.99015 0
M  V30 4458 H 403.611 3.65605 -3.53851 0
M  V30 4459 H 403.009 5.56855 -0.996422 0
M  V30 4460 H 401.566 6.33723 -1.52441 0
M  V30 4461 N 404.999 1.35443 0.805782 0
M  V30 4462 C 405.962 1.28301 1.89925 0
M  V30 4463 C 406.962 0.194285 1.59622 0
M  V30 4464 O 408.152 0.448036 1.6834 0
M  V30 4465 C 405.284 0.984997 3.2636 0
M  V30 4466 H 406.477 2.2553 1.97677 0
M  V30 4467 H 404.03 1.19979 1.00173 0
M  V30 4468 H 404.765 0.016603 3.24296 0
M  V30 4469 H 404.55 1.77269 3.4974 0
M  V30 4470 H 406.04 0.960651 4.064 0
M  V30 4471 N 406.477 -1.02803 1.19454 0
M  V30 4472 C 407.723 -1.76478 0.999171 0
M  V30 4473 C 408.056 -1.88456 -0.468828 0
M  V30 4474 O 407.331 -1.40198 -1.34814 0
M  V30 4475 C 407.614 -3.19044 1.66981 0
M  V30 4476 C 407.467 -3.14932 3.21151 0
M  V30 4477 C 408.786 -4.17456 1.39349 0
M  V30 4478 H 405.905 -0.640614 0.364393 0
M  V30 4479 H 408.547 -1.20005 1.47305 0
M  V30 4480 H 406.697 -3.67263 1.2669 0
M  V30 4481 H 408.369 -2.74605 3.70661 0
M  V30 4482 H 406.612 -2.52625 3.52652 0
M  V30 4483 H 407.283 -4.1566 3.63223 0
M  V30 4484 H 409.759 -3.77842 1.74283 0
M  V30 4485 H 408.635 -5.154 1.88823 0
M  V30 4486 H 408.896 -4.40949 0.318813 0
M  V30 4487 N 407.956 -0.998596 -1.21925 0
M  V30 4488 C 409.186 -0.695276 -1.94549 0
M  V30 4489 C 409.594 0.745079 -1.73911 0
M  V30 4490 O 408.937 1.51507 -1.03881 0
M  V30 4491 C 408.999 -0.928485 -3.47303 0
M  V30 4492 C 408.663 -2.35443 -3.91683 0
M  V30 4493 C 409.66 -3.33428 -3.98901 0
M  V30 4494 C 407.345 -2.69038 -4.24174 0
M  V30 4495 C 409.339 -4.63079 -4.37992 0
M  V30 4496 C 407.026 -3.98906 -4.62944 0
M  V30 4497 C 408.024 -4.95738 -4.69822 0
M  V30 4498 O 407.712 -6.23285 -5.07711 0
M  V30 4499 H 407.444 -0.255902 -0.625692 0
M  V30 4500 H 409.998 -1.33767 -1.5587 0
M  V30 4501 H 408.228 -0.228917 -3.86022 0
M  V30 4502 H 409.917 -0.619539 -4.01144 0
M  V30 4503 H 410.683 -3.08807 -3.73983 0
M  V30 4504 H 406.562 -1.94367 -4.18022 0
M  V30 4505 H 410.106 -5.38658 -4.43275 0
M  V30 4506 H 406.003 -4.23314 -4.87314 0
M  V30 4507 H 406.771 -6.27306 -5.25766 0
M  V30 4508 N 409.434 1.37368 -0.772513 0
M  V30 4509 C 410.659 2.0447 -0.347386 0
M  V30 4510 C 411.084 1.57882 1.0225 0
M  V30 4511 O 410.442 0.73941 1.65537 0
M  V30 4512 C 410.49 3.58369 -0.400479 0
M  V30 4513 O 409.594 4.0803 0.598789 0
M  V30 4514 H 408.935 0.646773 -0.15027 0
M  V30 4515 H 411.465 1.75667 -1.04892 0
M  V30 4516 H 411.475 4.07183 -0.258045 0
M  V30 4517 H 410.15 3.91633 -1.39986 0
M  V30 4518 H 408.727 3.70534 0.419411 0
M  V30 4519 N 410.912 0.523116 1.48665 0
M  V30 4520 C 412.161 -0.01544 2.01694 0
M  V30 4521 C 412.474 -1.35975 1.40606 0
M  V30 4522 O 413.68 -1.98627 1.85093 0
M  V30 4523 C 412.136 -0.0779303 3.59816 0
M  V30 4524 C 411.744 1.26107 4.29885 0
M  V30 4525 C 413.488 -0.565678 4.20714 0
M  V30 4526 C 411.395 1.15954 5.79921 0
M  V30 4527 H 410.325 -0.00954163 0.75394 0
M  V30 4528 H 412.976 0.665865 1.70993 0
M  V30 4529 H 411.358 -0.824165 3.87329 0
M  V30 4530 H 412.532 2.02233 4.14051 0
M  V30 4531 H 410.847 1.68401 3.80828 0
M  V30 4532 H 413.444 -0.6595 5.30617 0
M  V30 4533 H 413.787 -1.56984 3.85567 0
M  V30 4534 H 414.32 0.12467 3.97605 0
M  V30 4535 H 411.059 2.13864 6.19631 0
M  V30 4536 H 410.579 0.439529 5.98187 0
M  V30 4537 H 412.258 0.847361 6.41427 0
M  V30 4538 N 412.39 -1.55475 0.257931 0
M  V30 4539 C 413.62 -2.03314 -0.367026 0
M  V30 4540 C 414.028 -1.13625 -1.51281 0
M  V30 4541 O 413.371 -0.145334 -1.83124 0
M  V30 4542 C 413.433 -3.47362 -0.926284 0
M  V30 4543 C 413.097 -4.56914 0.0886584 0
M  V30 4544 C 414.094 -5.12013 0.902123 0
M  V30 4545 C 411.779 -5.01827 0.217936 0
M  V30 4546 C 413.773 -6.10529 1.83122 0
M  V30 4547 C 411.46 -6.00172 1.15052 0
M  V30 4548 C 412.458 -6.54402 1.95568 0
M  V30 4549 O 412.146 -7.50827 2.87253 0
M  V30 4550 H 411.878 -0.669976 -0.0900443 0
M  V30 4551 H 414.432 -2.01804 0.382673 0
M  V30 4552 H 412.662 -3.46056 -1.72575 0
M  V30 4553 H 414.351 -3.78637 -1.46249 0
M  V30 4554 H 415.117 -4.78139 0.812891 0
M  V30 4555 H 410.996 -4.59272 -0.398721 0
M  V30 4556 H 414.54 -6.52783 2.46008 0
M  V30 4557 H 410.437 -6.33465 1.24064 0
M  V30 4558 H 411.205 -7.68483 2.81739 0
M  V30 4559 N 413.868 0.0150385 -1.57593 0
M  V30 4560 C 414.798 1.01047 -2.10503 0
M  V30 4561 C 415.779 1.36816 -1.01071 0
M  V30 4562 O 416.964 1.45455 -1.28672 0
M  V30 4563 C 414.094 2.30708 -2.59598 0
M  V30 4564 C 413.048 2.09142 -3.73421 0
M  V30 4565 C 412.374 3.44685 -4.08774 0
M  V30 4566 C 413.674 1.46619 -5.01298 0
M  V30 4567 H 415.368 0.569978 -2.93925 0
M  V30 4568 H 412.914 0.272724 -1.41394 0
M  V30 4569 H 414.867 3.00687 -2.95238 0
M  V30 4570 H 413.591 2.76843 -1.73279 0
M  V30 4571 H 412.25 1.41592 -3.38153 0
M  V30 4572 H 411.898 3.88495 -3.195 0
M  V30 4573 H 411.598 3.31077 -4.8545 0
M  V30 4574 H 413.122 4.16004 -4.4696 0
M  V30 4575 H 414.536 2.06535 -5.34805 0
M  V30 4576 H 412.933 1.43544 -5.82679 0
M  V30 4577 H 414.003 0.433611 -4.82957 0
M  V30 4578 N 415.346 1.54954 0.287554 0
M  V30 4579 C 416.757 1.65732 0.859634 0
M  V30 4580 C 417.108 0.574767 1.87592 0
M  V30 4581 O 416.233 -0.286299 2.14498 0
M  V30 4582 C 416.828 3.00438 1.56597 0
M  V30 4583 C 415.387 3.13292 2.08627 0
M  V30 4584 C 414.534 2.61473 0.923416 0
M  V30 4585 H 417.485 1.5857 0.0642338 0
M  V30 4586 H 417.506 2.92613 2.43224 0
M  V30 4587 H 417.018 3.79207 0.826053 0
M  V30 4588 H 415.119 2.39268 2.85625 0
M  V30 4589 H 415.232 4.19647 2.31157 0
M  V30 4590 H 413.596 2.18264 1.31275 0
M  V30 4591 H 414.379 3.42733 0.197241 0
M  V30 4592 N 416.824 -0.551391 1.4764 0
M  V30 4593 C 418.235 -1.13349 1.48354 0
M  V30 4594 C 418.586 -1.94709 0.241432 0
M  V30 4595 O 417.711 -2.06306 -0.653205 0
M  V30 4596 C 418.306 -2.0623 2.68802 0
M  V30 4597 C 416.865 -2.597 2.72457 0
M  V30 4598 C 416.012 -1.36201 2.41546 0
M  V30 4599 H 418.963 -0.337698 1.55065 0
M  V30 4600 H 418.984 -2.90196 2.46103 0
M  V30 4601 H 418.496 -1.46987 3.59188 0
M  V30 4602 H 416.597 -3.22724 1.86225 0
M  V30 4603 H 416.71 -3.00296 3.73308 0
M  V30 4604 H 415.074 -1.67068 1.9225 0
M  V30 4605 H 415.857 -0.787425 3.34147 0
M  V30 4606 N 418.302 -1.35869 -0.798587 0
M  V30 4607 C 419.212 -1.31578 -1.94228 0
M  V30 4608 C 420.228 -0.21939 -1.72611 0
M  V30 4609 O 421.404 -0.450167 -1.96305 0
M  V30 4610 C 418.469 -1.09528 -3.28944 0
M  V30 4611 C 417.53 -2.28556 -3.63402 0
M  V30 4612 C 416.763 -2.07549 -4.9169 0
M  V30 4613 O 416.986 -1.046 -5.60727 0
M  V30 4614 O 415.92 -2.95106 -5.24591 0
M  V30 4615 H 419.746 -2.27847 -2.00796 0
M  V30 4616 H 417.331 -1.16322 -0.937526 0
M  V30 4617 H 419.213 -0.991127 -4.09579 0
M  V30 4618 H 417.888 -0.16315 -3.23289 0
M  V30 4619 H 416.795 -2.44538 -2.83112 0
M  V30 4620 H 418.128 -3.20244 -3.73771 0
M  V30 4621 N 419.78 1.02168 -1.19998 0
M  V30 4622 C 420.728 2.12717 -0.940967 0
M  V30 4623 C 421.722 1.69069 0.105841 0
M  V30 4624 O 422.928 1.79946 -0.0440583 0
M  V30 4625 H 419.303 0.695108 -0.28693 0
M  V30 4626 H 421.274 2.3175 -1.87975 0
M  V30 4627 C 420.023 3.44027 -0.504049 0
M  V30 4628 H 419.346 3.78036 -1.30112 0
M  V30 4629 H 420.786 4.22452 -0.361991 0
M  V30 4630 C 419.245 3.27678 0.782878 0
M  V30 4631 O 419.775 3.56949 1.84256 0
M  V30 4632 N 417.981 2.80943 0.742921 0
M  V30 4633 H 417.528 2.57322 -0.119687 0
M  V30 4634 H 417.486 2.70385 1.60435 0
M  V30 4635 N 421.258 1.00505 1.21394 0
M  V30 4636 C 422.205 0.565496 2.23765 0
M  V30 4637 C 423.175 -0.408466 1.60999 0
M  V30 4638 O 424.36 -0.310503 1.88257 0
M  V30 4639 C 421.5 -0.101667 3.4495 0
M  V30 4640 C 420.613 0.915479 4.22188 0
M  V30 4641 C 419.748 0.220574 5.30742 0
M  V30 4642 C 418.787 1.22527 5.99711 0
M  V30 4643 N 417.924 0.557831 6.9988 0
M  V30 4644 H 422.764 1.44314 2.60725 0
M  V30 4645 H 420.301 0.722643 1.28126 0
M  V30 4646 H 422.259 -0.505504 4.14126 0
M  V30 4647 H 420.889 -0.94303 3.08718 0
M  V30 4648 H 419.941 1.43756 3.52191 0
M  V30 4649 H 421.253 1.68005 4.69655 0
M  V30 4650 H 420.407 -0.239368 6.06228 0
M  V30 4651 H 419.146 -0.576401 4.84282 0
M  V30 4652 H 418.151 1.69571 5.22997 0
M  V30 4653 H 419.376 2.02332 6.48258 0
M  V30 4654 H 417.322 -0.219486 6.55633 0
M  V30 4655 H 417.239 1.26065 7.45415 0
M  V30 4656 H 418.507 0.121095 7.79406 0
M  V30 4657 N 422.737 -1.36956 0.779787 0
M  V30 4658 C 423.685 -2.32053 0.15942 0
M  V30 4659 C 424.679 -1.55333 -0.675878 0
M  V30 4660 O 425.885 -1.70668 -0.57204 0
M  V30 4661 H 422.26 -0.751286 0.0327707 0
M  V30 4662 H 424.231 -2.8195 0.977078 0
M  V30 4663 C 422.98 -3.40602 -0.698977 0
M  V30 4664 H 422.303 -3.99746 -0.0655966 0
M  V30 4665 H 423.743 -4.09486 -1.09989 0
M  V30 4666 C 422.202 -2.81359 -1.85307 0
M  V30 4667 O 422.732 -2.72751 -2.94906 0
M  V30 4668 N 420.938 -2.38786 -1.65619 0
M  V30 4669 H 420.485 -2.45987 -0.764725 0
M  V30 4670 H 420.443 -1.99493 -2.43002 0
M  V30 4671 N 424.215 -0.530993 -1.48385 0
M  V30 4672 C 425.162 0.231223 -2.29639 0
M  V30 4673 C 426.132 0.932864 -1.37429 0
M  V30 4674 O 427.317 0.933692 -1.66394 0
M  V30 4675 C 424.457 1.27155 -3.2082 0
M  V30 4676 C 423.57 0.578655 -4.28107 0
M  V30 4677 C 422.705 1.602 -5.06467 0
M  V30 4678 C 421.744 0.892625 -6.05556 0
M  V30 4679 N 420.881 1.86157 -6.76971 0
M  V30 4680 H 425.721 -0.467848 -2.94305 0
M  V30 4681 H 423.258 -0.242556 -1.45086 0
M  V30 4682 H 425.216 1.88703 -3.72085 0
M  V30 4683 H 423.846 1.939 -2.58075 0
M  V30 4684 H 422.898 -0.150782 -3.80101 0
M  V30 4685 H 424.21 0.0217065 -4.98795 0
M  V30 4686 H 423.364 2.29173 -5.61751 0
M  V30 4687 H 422.103 2.19285 -4.35621 0
M  V30 4688 H 421.108 0.188829 -5.49476 0
M  V30 4689 H 422.333 0.307878 -6.78402 0
M  V30 4690 H 420.279 2.44147 -6.08875 0
M  V30 4691 H 420.196 1.35608 -7.43738 0
M  V30 4692 H 421.464 2.54325 -7.36844 0
M  V30 4693 N 425.693 1.55336 -0.266172 0
M  V30 4694 C 426.941 1.99003 0.35246 0
M  V30 4695 C 427.262 1.15591 1.57047 0
M  V30 4696 O 426.532 0.243268 1.94384 0
M  V30 4697 H 425.112 0.735025 0.133217 0
M  V30 4698 H 427.774 1.91367 -0.369434 0
M  V30 4699 H 426.87 3.05289 0.648453 0
M  V30 4700 N 427.171 -0.0066808 1.57599 0
M  V30 4701 C 428.401 -0.703066 1.94269 0
M  V30 4702 C 428.809 -1.68206 0.866222 0
M  V30 4703 O 428.152 -1.82966 -0.164087 0
M  V30 4704 C 428.214 -1.49616 3.26887 0
M  V30 4705 C 427.878 -0.679494 4.5192 0
M  V30 4706 C 428.875 0.0299508 5.19891 0
M  V30 4707 C 426.56 -0.627433 4.98366 0
M  V30 4708 C 428.554 0.780514 6.32603 0
M  V30 4709 C 426.241 0.126861 6.10968 0
M  V30 4710 C 427.239 0.829574 6.77943 0
M  V30 4711 O 426.927 1.57157 7.88389 0
M  V30 4712 H 426.659 -0.201217 0.645359 0
M  V30 4713 H 429.213 0.0385326 2.05364 0
M  V30 4714 H 427.443 -2.28209 3.12182 0
M  V30 4715 H 429.132 -2.07726 3.48719 0
M  V30 4716 H 429.898 -0.00115963 4.85 0
M  V30 4717 H 425.777 -1.16392 4.46065 0
M  V30 4718 H 429.321 1.32954 6.84813 0
M  V30 4719 H 425.218 0.159815 6.45302 0
M  V30 4720 H 425.986 1.48758 8.04868 0
M  V30 4721 N 428.649 -1.55105 -0.279332 0
M  V30 4722 C 429.579 -1.90557 -1.34945 0
M  V30 4723 C 430.56 -0.766738 -1.51839 0
M  V30 4724 O 431.745 -1.02434 -1.64988 0
M  V30 4725 C 428.875 -2.17193 -2.71006 0
M  V30 4726 C 427.829 -3.33021 -2.68851 0
M  V30 4727 C 427.155 -3.45123 -4.08405 0
M  V30 4728 C 428.455 -4.69578 -2.28678 0
M  V30 4729 H 430.149 -2.80188 -1.05522 0
M  V30 4730 H 427.695 -1.34811 -0.506173 0
M  V30 4731 H 429.648 -2.40581 -3.45975 0
M  V30 4732 H 428.372 -1.24355 -3.01999 0
M  V30 4733 H 427.031 -3.0959 -1.9634 0
M  V30 4734 H 426.679 -2.49762 -4.3661 0
M  V30 4735 H 426.379 -4.22995 -4.07859 0
M  V30 4736 H 427.903 -3.70796 -4.85121 0
M  V30 4737 H 429.317 -4.92553 -2.93368 0
M  V30 4738 H 427.714 -5.5032 -2.39306 0
M  V30 4739 H 428.784 -4.68828 -1.23807 0
M  V30 4740 N 430.127 0.543554 -1.4793 0
M  V30 4741 C 431.355 1.32516 -1.58894 0
M  V30 4742 C 431.77 1.87215 -0.244131 0
M  V30 4743 O 431.127 1.65709 0.764652 0
M  V30 4744 C 431.178 2.48554 -2.62494 0
M  V30 4745 O 430.899 1.96112 -3.91755 0
M  V30 4746 C 432.4 3.40572 -2.8377 0
M  V30 4747 H 429.62 0.403472 -0.536145 0
M  V30 4748 H 432.164 0.657106 -1.93655 0
M  V30 4749 H 430.319 3.1127 -2.30629 0
M  V30 4750 H 430.733 2.71967 -4.4848 0
M  V30 4751 H 432.207 4.18375 -3.60093 0
M  V30 4752 H 432.684 3.94965 -1.92092 0
M  V30 4753 H 433.29 2.8366 -3.16887 0
M  V30 4754 N 431.605 1.3629 0.791371 0
M  V30 4755 C 432.854 1.29742 1.54434 0
M  V30 4756 C 433.167 -0.121729 1.95221 0
M  V30 4757 O 434.373 -0.309579 2.69729 0
M  V30 4758 C 432.829 2.27623 2.78776 0
M  V30 4759 C 432.437 3.74963 2.45166 0
M  V30 4760 C 434.181 2.30047 3.56761 0
M  V30 4761 C 432.088 4.64626 3.65891 0
M  V30 4762 H 431.018 0.482113 0.579727 0
M  V30 4763 H 433.669 1.61642 0.868565 0
M  V30 4764 H 432.051 1.88714 3.48142 0
M  V30 4765 H 433.225 4.22596 1.83709 0
M  V30 4766 H 431.54 3.75295 1.80396 0
M  V30 4767 H 434.137 2.94247 4.46456 0
M  V30 4768 H 434.48 1.30846 3.95203 0
M  V30 4769 H 435.013 2.67563 2.94372 0
M  V30 4770 H 431.752 5.64883 3.32547 0
M  V30 4771 H 431.272 4.2171 4.26521 0
M  V30 4772 H 432.951 4.80801 4.32943 0
M  V30 4773 N 433.083 -1.0153 1.20538 0
M  V30 4774 C 434.331 -1.74803 1.01432 0
M  V30 4775 C 434.652 -1.8963 -0.454456 0
M  V30 4776 O 433.922 -1.43975 -1.32846 0
M  V30 4777 H 432.502 -0.647598 0.372324 0
M  V30 4778 H 435.164 -1.22402 1.5167 0
M  V30 4779 H 434.26 -2.75114 1.47373 0
M  V30 4780 N 434.561 -1.01147 -1.20859 0
M  V30 4781 C 435.809 -0.696486 -1.89719 0
M  V30 4782 C 436.13 0.775788 -1.78904 0
M  V30 4783 O 435.4 1.55759 -1.18811 0
M  V30 4784 H 433.98 -0.254628 -0.702263 0
M  V30 4785 H 436.642 -1.28197 -1.46804 0
M  V30 4786 H 435.738 -0.975357 -2.96468 0
M  V30 4787 N 436.039 1.36541 -0.78704 0
M  V30 4788 C 437.288 1.98552 -0.35494 0
M  V30 4789 C 437.601 1.63171 1.07864 0
M  V30 4790 O 438.807 2.18399 1.61289 0
M  V30 4791 C 437.263 3.55136 -0.583671 0
M  V30 4792 C 436.871 3.99444 -2.02851 0
M  V30 4793 C 438.615 4.2395 -0.215957 0
M  V30 4794 C 436.522 5.48796 -2.20403 0
M  V30 4795 H 435.452 0.742888 -0.128972 0
M  V30 4796 H 438.103 1.5587 -0.968337 0
M  V30 4797 H 436.485 3.95875 0.0994046 0
M  V30 4798 H 437.659 3.6991 -2.74779 0
M  V30 4799 H 435.974 3.43459 -2.35425 0
M  V30 4800 H 438.571 5.33709 -0.325405 0
M  V30 4801 H 438.914 4.07827 0.835646 0
M  V30 4802 H 439.447 3.88565 -0.852175 0
M  V30 4803 H 436.186 5.69864 -3.23937 0
M  V30 4804 H 435.706 5.79964 -1.52977 0
M  V30 4805 H 437.385 6.14986 -2.01002 0
M  V30 4806 N 437.518 0.538854 1.48102 0
M  V30 4807 C 438.428 -0.222648 2.33541 0
M  V30 4808 C 439.444 -0.930225 1.47047 0
M  V30 4809 O 440.62 -0.903211 1.80011 0
M  V30 4810 C 437.685 -1.25064 3.23357 0
M  V30 4811 C 436.746 -0.552469 4.2573 0
M  V30 4812 C 435.979 -1.53149 5.11254 0
M  V30 4813 O 436.202 -2.76487 4.9891 0
M  V30 4814 O 435.136 -1.06602 5.92385 0
M  V30 4815 H 438.962 0.477707 2.99919 0
M  V30 4816 H 436.547 0.299669 1.46364 0
M  V30 4817 H 438.429 -1.8445 3.78888 0
M  V30 4818 H 437.104 -1.93325 2.59629 0
M  V30 4819 H 436.011 0.082114 3.7401 0
M  V30 4820 H 437.344 0.0883526 4.92121 0
M  V30 4821 N 438.996 -1.55193 0.274407 0
M  V30 4822 C 439.906 -2.26164 -0.623473 0
M  V30 4823 C 440.922 -1.28729 -1.17068 0
M  V30 4824 O 442.098 -1.61663 -1.20112 0
M  V30 4825 C 439.163 -2.96833 -1.7914 0
M  V30 4826 C 438.224 -4.09745 -1.28093 0
M  V30 4827 C 437.457 -4.77034 -2.3932 0
M  V30 4828 O 437.68 -4.4353 -3.5866 0
M  V30 4829 O 436.614 -5.64996 -2.07516 0
M  V30 4830 H 440.44 -3.03661 -0.0485661 0
M  V30 4831 H 438.025 -1.49341 0.0418382 0
M  V30 4832 H 439.907 -3.41248 -2.4724 0
M  V30 4833 H 438.582 -2.22253 -2.35341 0
M  V30 4834 H 437.489 -3.69787 -0.566416 0
M  V30 4835 H 438.822 -4.86224 -0.764683 0
M  V30 4836 N 440.474 -0.00167713 -1.576 0
M  V30 4837 C 441.89 0.354422 -1.55615 0
M  V30 4838 C 442.09 1.74679 -1.00447 0
M  V30 4839 O 441.146 2.4428 -0.639022 0
M  V30 4840 C 442.459 0.22812 -2.99833 0
M  V30 4841 C 444.007 0.302934 -3.11531 0
M  V30 4842 C 444.482 0.205737 -4.57538 0
M  V30 4843 N 445.973 0.263584 -4.62449 0
M  V30 4844 C 446.708 0.211742 -5.73009 0
M  V30 4845 N 446.204 0.110399 -6.92712 0
M  V30 4846 N 447.997 0.263729 -5.61481 0
M  V30 4847 H 440.148 -0.912498 -1.918 0
M  V30 4848 H 442.411 -0.349928 -0.881053 0
M  V30 4849 H 442.117 -0.729934 -3.44042 0
M  V30 4850 H 441.991 1.00951 -3.6344 0
M  V30 4851 H 444.378 1.25143 -2.67251 0
M  V30 4852 H 444.459 -0.508357 -2.50698 0
M  V30 4853 H 444.103 -0.739225 -5.02492 0
M  V30 4854 H 444.033 1.03554 -5.16318 0
M  V30 4855 H 446.524 0.343173 -3.76339 0
M  V30 4856 H 446.837 0.0767828 -7.72762 0
M  V30 4857 H 445.182 0.0760025 -6.94958 0
M  V30 4858 H 448.373 0.34111 -4.66855 0
M  V30 4859 H 448.546 0.219862 -6.47627 0
M  V30 4860 N 441.952 1.55251 0.271103 0
M  V30 4861 C 443.199 1.75946 1.00245 0
M  V30 4862 C 443.527 0.561611 1.86215 0
M  V30 4863 O 442.782 -0.455832 1.90317 0
M  V30 4864 C 443.081 3.01879 1.91321 0
M  V30 4865 C 442.747 4.34337 1.21086 0
M  V30 4866 C 441.409 4.70338 1.01666 0
M  V30 4867 C 443.761 5.16325 0.71119 0
M  V30 4868 C 441.089 5.8588 0.310099 0
M  V30 4869 C 443.441 6.32597 0.0182157 0
M  V30 4870 C 442.105 6.67236 -0.18768 0
M  V30 4871 H 441.375 0.643833 0.366824 0
M  V30 4872 H 444.022 1.89521 0.27458 0
M  V30 4873 H 442.327 2.83212 2.70736 0
M  V30 4874 H 444.024 3.15088 2.48033 0
M  V30 4875 H 440.614 4.06043 1.37213 0
M  V30 4876 H 444.798 4.88987 0.848844 0
M  V30 4877 H 440.054 6.1124 0.139873 0
M  V30 4878 H 444.228 6.9538 -0.376711 0
M  V30 4879 H 441.855 7.56618 -0.73715 0
M  V30 4880 N 443.43 -0.535701 1.48216 0
M  V30 4881 C 444.677 -1.29183 1.55942 0
M  V30 4882 C 445.005 -1.93125 0.230857 0
M  V30 4883 O 444.26 -1.79556 -0.778331 0
M  V30 4884 C 444.559 -2.4068 2.64212 0
M  V30 4885 C 444.225 -1.94428 4.06827 0
M  V30 4886 C 442.887 -1.81532 4.45645 0
M  V30 4887 C 445.239 -1.59405 4.96225 0
M  V30 4888 C 442.567 -1.31939 5.71672 0
M  V30 4889 C 444.919 -1.11276 6.22736 0
M  V30 4890 C 443.583 -0.969924 6.60416 0
M  V30 4891 H 442.853 -0.472715 0.570632 0
M  V30 4892 H 445.5 -0.598437 1.81909 0
M  V30 4893 H 443.805 -3.15666 2.32083 0
M  V30 4894 H 445.502 -2.98822 2.67407 0
M  V30 4895 H 442.092 -2.05415 3.76168 0
M  V30 4896 H 446.276 -1.68231 4.66917 0
M  V30 4897 H 441.532 -1.19562 5.99596 0
M  V30 4898 H 445.706 -0.832453 6.91407 0
M  V30 4899 H 443.333 -0.583436 7.57958 0
M  V30 4900 N 444.908 -1.36708 -0.784132 0
M  V30 4901 C 446.185 -1.21776 -1.53069 0
M  V30 4902 C 446.565 0.193876 -2.10208 0
M  V30 4903 O 445.913 1.20012 -1.94446 0
M  V30 4904 C 446.123 -2.30395 -2.62143 0
M  V30 4905 C 447.471 -2.67325 -3.29882 0
M  V30 4906 O 448.495 -2.29478 -2.7243 0
M  V30 4907 O 447.354 -3.32485 -4.33724 0
M  V30 4908 H 444.448 -0.474459 -0.677361 0
M  V30 4909 H 446.994 -1.48454 -0.82216 0
M  V30 4910 H 445.766 -3.2498 -2.17953 0
M  V30 4911 H 445.389 -2.05112 -3.40609 0
M  V30 4912 N 446.386 1.0089 -1.21074 0
M  V30 4913 C 447.634 1.74262 -1.02358 0
M  V30 4914 C 447.955 1.89869 0.444393 0
M  V30 4915 O 447.225 1.44677 1.32081 0
M  V30 4916 H 445.805 0.645615 -0.375754 0
M  V30 4917 H 448.467 1.21596 -1.52317 0
M  V30 4918 H 447.563 2.74328 -1.4883 0
M  V30 4919 N 447.864 1.01787 1.20321 0
M  V30 4920 C 449.275 0.739307 1.71438 0
M  V30 4921 C 449.626 -0.742041 1.81627 0
M  V30 4922 O 448.751 -1.57903 1.47971 0
M  V30 4923 C 449.346 1.33538 3.11373 0
M  V30 4924 C 447.905 1.10566 3.59795 0
M  V30 4925 C 447.052 1.44028 2.36962 0
M  V30 4926 H 450.003 1.18718 1.05317 0
M  V30 4927 H 450.024 0.726611 3.73498 0
M  V30 4928 H 449.536 2.41352 3.03926 0
M  V30 4929 H 447.637 0.0452405 3.72573 0
M  V30 4930 H 447.75 1.78661 4.44542 0
M  V30 4931 H 446.114 0.85933 2.39766 0
M  V30 4932 H 446.897 2.52901 2.32155 0
M  V30 4933 N 449.342 -1.36122 0.79427 0
M  V30 4934 C 450.272 -2.32551 0.210328 0
M  V30 4935 C 451.253 -1.56884 -0.657386 0
M  V30 4936 O 452.438 -1.85014 -0.590207 0
M  V30 4937 C 449.568 -3.41128 -0.651819 0
M  V30 4938 C 448.522 -4.27842 0.116395 0
M  V30 4939 C 447.848 -5.2763 -0.86666 0
M  V30 4940 C 449.148 -5.05647 1.30837 0
M  V30 4941 H 450.842 -2.81636 1.01594 0
M  V30 4942 H 448.388 -1.35407 0.489981 0
M  V30 4943 H 450.341 -4.07581 -1.07031 0
M  V30 4944 H 449.065 -2.90622 -1.49019 0
M  V30 4945 H 447.724 -3.62952 0.515915 0
M  V30 4946 H 447.372 -4.73395 -1.70019 0
M  V30 4947 H 447.072 -5.86514 -0.35705 0
M  V30 4948 H 448.596 -5.96955 -1.28361 0
M  V30 4949 H 450.01 -5.65113 0.965393 0
M  V30 4950 H 448.407 -5.73967 1.75161 0
M  V30 4951 H 449.477 -4.37006 2.10128 0
M  V30 4952 N 450.82 -0.546701 -1.47814 0
M  V30 4953 C 451.768 0.220048 -2.31557 0
M  V30 4954 C 452.762 0.919472 -1.42275 0
M  V30 4955 O 453.968 0.841953 -1.59095 0
M  V30 4956 H 450.343 0.0898334 -0.746615 0
M  V30 4957 H 452.314 -0.505589 -2.94086 0
M  V30 4958 C 451.063 1.24353 -3.24702 0
M  V30 4959 H 450.386 0.714758 -3.93359 0
M  V30 4960 H 451.826 1.75112 -3.8615 0
M  V30 4961 C 450.285 2.28593 -2.47481 0
M  V30 4962 O 450.815 3.35334 -2.21165 0
M  V30 4963 N 449.021 2.02244 -2.08676 0
M  V30 4964 H 448.568 1.15455 -2.30278 0
M  V30 4965 H 448.526 2.72207 -1.57323 0
M  V30 4966 N 452.299 1.55045 -0.282633 0
M  V30 4967 C 453.529 2.03872 0.334635 0
M  V30 4968 C 453.937 1.16018 1.49454 0
M  V30 4969 O 453.28 0.174449 1.8287 0
M  V30 4970 C 453.342 3.48791 0.870905 0
M  V30 4971 C 453.006 4.56715 -0.161338 0
M  V30 4972 C 454.003 5.10513 -0.983466 0
M  V30 4973 C 451.688 5.01417 -0.297745 0
M  V30 4974 C 453.682 6.07538 -1.92811 0
M  V30 4975 C 451.369 5.98265 -1.24586 0
M  V30 4976 C 452.367 6.51208 -2.05954 0
M  V30 4977 O 452.055 7.46162 -2.99162 0
M  V30 4978 H 451.787 0.671324 0.0793742 0
M  V30 4979 H 454.341 2.01169 -0.41473 0
M  V30 4980 H 452.571 3.48758 1.67047 0
M  V30 4981 H 454.26 3.80916 1.40207 0
M  V30 4982 H 455.026 4.76785 -0.888856 0
M  V30 4983 H 450.905 4.59849 0.325604 0
M  V30 4984 H 454.449 6.48787 -2.56363 0
M  V30 4985 H 450.346 6.31412 -1.34126 0
M  V30 4986 H 451.114 7.63903 -2.93929 0
M  V30 4987 N 453.777 0.010035 1.57597 0
M  V30 4988 C 454.687 -0.994226 2.12491 0
M  V30 4989 C 455.703 -1.37013 1.07254 0
M  V30 4990 O 456.879 -1.45542 1.3921 0
M  V30 4991 C 453.944 -2.2642 2.62555 0
M  V30 4992 C 453.005 -1.95049 3.82432 0
M  V30 4993 C 452.238 -3.15991 4.30099 0
M  V30 4994 O 452.461 -4.28015 3.7704 0
M  V30 4995 O 451.395 -2.99403 5.22151 0
M  V30 4996 H 455.221 -0.557549 2.98538 0
M  V30 4997 H 452.806 -0.209413 1.47925 0
M  V30 4998 H 454.688 -3.01009 2.9491 0
M  V30 4999 H 453.363 -2.69306 1.796 0
M  V30 5000 H 452.27 -1.17904 3.55034 0
M  V30 5001 H 453.603 -1.56992 4.66491 0
M  V30 5002 N 455.255 -1.55392 -0.262866 0
M  V30 5003 C 456.202 -1.88966 -1.32516 0
M  V30 5004 C 457.172 -0.742187 -1.48596 0
M  V30 5005 O 458.357 -0.99439 -1.62839 0
M  V30 5006 C 455.497 -2.17592 -2.67858 0
M  V30 5007 C 454.61 -3.45061 -2.59917 0
M  V30 5008 C 453.745 -3.63336 -3.87505 0
M  V30 5009 C 452.784 -4.84462 -3.74116 0
M  V30 5010 N 451.921 -4.99342 -4.93561 0
M  V30 5011 H 456.761 -2.79566 -1.03184 0
M  V30 5012 H 454.298 -1.38404 -0.498285 0
M  V30 5013 H 456.256 -2.3219 -3.46617 0
M  V30 5014 H 454.886 -1.30215 -2.95371 0
M  V30 5015 H 453.938 -3.38881 -1.72812 0
M  V30 5016 H 455.25 -4.3396 -2.45926 0
M  V30 5017 H 454.404 -3.77807 -4.74707 0
M  V30 5018 H 453.143 -2.72641 -4.04374 0
M  V30 5019 H 452.148 -4.69985 -2.85297 0
M  V30 5020 H 453.373 -5.76603 -3.58757 0
M  V30 5021 H 451.319 -4.1158 -5.10821 0
M  V30 5022 H 451.236 -5.82303 -4.82141 0
M  V30 5023 H 452.504 -5.18208 -5.82306 0
M  V30 5024 N 456.733 0.527833 -1.48498 0
M  V30 5025 C 457.663 1.64136 -1.66077 0
M  V30 5026 C 458.644 1.62286 -0.509625 0
M  V30 5027 O 459.829 1.79449 -0.742413 0
M  V30 5028 C 456.959 3.02717 -1.70234 0
M  V30 5029 C 455.913 3.19426 -2.8487 0
M  V30 5030 C 455.239 4.5909 -2.74118 0
M  V30 5031 C 456.539 3.01993 -4.26142 0
M  V30 5032 H 458.233 1.4968 -2.593 0
M  V30 5033 H 455.779 0.718654 -1.24785 0
M  V30 5034 H 457.732 3.80491 -1.8112 0
M  V30 5035 H 456.456 3.18201 -0.735911 0
M  V30 5036 H 455.115 2.4407 -2.73542 0
M  V30 5037 H 454.763 4.71413 -1.7544 0
M  V30 5038 H 454.463 4.71214 -3.51042 0
M  V30 5039 H 455.987 5.3896 -2.86974 0
M  V30 5040 H 457.401 3.69558 -4.38292 0
M  V30 5041 H 455.798 3.2561 -5.04082 0
M  V30 5042 H 456.868 1.98396 -4.42456 0
M  V30 5043 N 458.211 1.37122 0.776871 0
M  V30 5044 C 459.159 1.32549 1.91138 0
M  V30 5045 C 460.153 0.215119 1.68029 0
M  V30 5046 O 461.359 0.382852 1.75881 0
M  V30 5047 H 457.734 0.412952 0.62847 0
M  V30 5048 H 459.705 2.28332 1.92112 0
M  V30 5049 C 458.454 1.14422 3.28333 0
M  V30 5050 H 457.777 1.99115 3.46689 0
M  V30 5051 H 459.217 1.15272 4.0803 0
M  V30 5052 C 457.676 -0.150434 3.36564 0
M  V30 5053 O 458.206 -1.13584 3.85307 0
M  V30 5054 N 456.412 -0.19939 2.89915 0
M  V30 5055 H 455.959 0.603142 2.5044 0
M  V30 5056 H 455.917 -1.06526 2.95803 0
M  V30 5057 N 459.689 -1.00246 1.21608 0
M  V30 5058 C 460.639 -2.07492 0.945051 0
M  V30 5059 C 461.623 -1.60585 -0.100675 0
M  V30 5060 O 462.815 -1.76667 0.10859 0
M  V30 5061 C 459.944 -3.39425 0.514342 0
M  V30 5062 C 459.03 -3.92993 1.59428 0
M  V30 5063 N 459.421 -4.19898 2.81991 0
M  V30 5064 C 457.719 -4.21297 1.46374 0
M  V30 5065 C 458.42 -4.63297 3.51754 0
M  V30 5066 N 457.396 -4.66421 2.79199 0
M  V30 5067 H 461.198 -2.26222 1.87619 0
M  V30 5068 H 458.712 -1.18339 1.11219 0
M  V30 5069 H 460.709 -4.15808 0.301527 0
M  V30 5070 H 459.369 -3.22101 -0.410008 0
M  V30 5071 H 460.38 -4.08377 3.1851 0
M  V30 5072 H 457.057 -4.13095 0.604863 0
M  V30 5073 H 458.447 -4.92816 4.56708 0
M  V30 5074 N 461.167 -1.02423 -1.1978 0
M  V30 5075 C 462.444 -0.632802 -1.85081 0
M  V30 5076 C 462.824 0.888745 -1.9148 0
M  V30 5077 O 462.172 1.78357 -1.42832 0
M  V30 5078 C 462.382 -1.28947 -3.24305 0
M  V30 5079 C 463.73 -1.40976 -4.00513 0
M  V30 5080 O 464.754 -1.24628 -3.33686 0
M  V30 5081 O 463.613 -1.67467 -5.20209 0
M  V30 5082 H 460.707 -0.219348 -0.79738 0
M  V30 5083 H 463.253 -1.12209 -1.27307 0
M  V30 5084 H 462.025 -2.3288 -3.14456 0
M  V30 5085 H 461.648 -0.787748 -3.89718 0
M  V30 5086 N 462.645 1.35699 -0.801477 0
M  V30 5087 C 463.575 2.32436 -0.222658 0
M  V30 5088 C 464.556 1.5723 0.649057 0
M  V30 5089 O 465.741 1.85324 0.580387 0
M  V30 5090 C 462.871 3.41469 0.633719 0
M  V30 5091 C 461.825 4.27774 -0.139083 0
M  V30 5092 C 461.151 5.28082 0.838666 0
M  V30 5093 C 462.451 5.04946 -1.33517 0
M  V30 5094 H 464.145 2.81094 -1.03086 0
M  V30 5095 H 461.691 1.35146 -0.497155 0
M  V30 5096 H 463.644 4.08143 1.04868 0
M  V30 5097 H 462.368 2.91408 1.47475 0
M  V30 5098 H 461.027 3.62673 -0.535156 0
M  V30 5099 H 460.675 4.7429 1.67506 0
M  V30 5100 H 460.375 5.86695 0.32594 0
M  V30 5101 H 461.899 5.97628 1.25194 0
M  V30 5102 H 463.313 5.64593 -0.995349 0
M  V30 5103 H 461.71 5.7303 -1.78202 0
M  V30 5104 H 462.78 4.35886 -2.12442 0
M  V30 5105 N 464.123 0.554532 1.47522 0
M  V30 5106 C 465.056 -0.242442 2.26908 0
M  V30 5107 C 466.034 -0.922722 1.33883 0
M  V30 5108 O 467.218 -0.942244 1.63261 0
M  V30 5109 C 464.345 -1.34525 3.10839 0
M  V30 5110 C 463.391 -0.773805 4.19422 0
M  V30 5111 S 464.224 0.377525 5.34168 0
M  V30 5112 C 465.38 -0.727164 6.21662 0
M  V30 5113 H 465.613 0.431218 2.94156 0
M  V30 5114 H 463.146 0.3408 1.50592 0
M  V30 5115 H 465.104 -1.97683 3.59766 0
M  V30 5116 H 463.765 -1.99073 2.42958 0
M  V30 5117 H 462.958 -1.60187 4.77866 0
M  V30 5118 H 462.56 -0.218448 3.73361 0
M  V30 5119 H 464.852 -1.61992 6.57849 0
M  V30 5120 H 465.795 -0.180135 7.07871 0
M  V30 5121 H 466.203 -1.01863 5.55233 0
M  V30 5122 N 465.601 -1.54893 0.290851 0
M  V30 5123 C 466.847 -2.00949 -0.314784 0
M  V30 5124 C 467.202 -1.1757 -1.52299 0
M  V30 5125 O 466.495 -0.241558 -1.90071 0
M  V30 5126 C 466.689 -3.49815 -0.732397 0
M  V30 5127 C 466.518 -4.47603 0.433799 0
M  V30 5128 C 465.288 -4.96806 0.922599 0
M  V30 5129 C 467.486 -4.98233 1.27546 0
M  V30 5130 N 465.468 -5.78426 2.05662 0
M  V30 5131 C 466.839 -5.77455 2.25712 0
M  V30 5132 C 468.894 -4.80439 1.307 0
M  V30 5133 C 467.597 -6.40778 3.26796 0
M  V30 5134 C 469.623 -5.44574 2.30637 0
M  V30 5135 C 468.985 -6.23619 3.27533 0
M  V30 5136 H 465.084 -0.777905 -0.0799257 0
M  V30 5137 H 467.668 -1.9015 0.418458 0
M  V30 5138 H 465.839 -3.60925 -1.43483 0
M  V30 5139 H 467.571 -3.82681 -1.31671 0
M  V30 5140 H 464.326 -4.70961 0.49926 0
M  V30 5141 H 464.75 -6.23923 2.62772 0
M  V30 5142 H 469.392 -4.18918 0.571622 0
M  V30 5143 H 467.11 -7.01439 4.01258 0
M  V30 5144 H 470.696 -5.32739 2.33838 0
M  V30 5145 H 469.576 -6.72367 4.03599 0
M  V30 5146 N 467.08 -0.0183926 -1.57589 0
M  V30 5147 C 468.012 0.995557 -2.06449 0
M  V30 5148 C 469.025 1.29556 -0.985849 0
M  V30 5149 O 470.214 1.2621 -1.26227 0
M  V30 5150 C 467.314 2.32572 -2.46502 0
M  V30 5151 C 466.487 2.21245 -3.77319 0
M  V30 5152 C 465.546 3.37104 -4.04039 0
M  V30 5153 O 464.572 3.14468 -4.74445 0
M  V30 5154 N 465.774 4.60553 -3.53372 0
M  V30 5155 H 468.539 0.578746 -2.94059 0
M  V30 5156 H 466.1 0.168603 -1.6102 0
M  V30 5157 H 468.092 3.08887 -2.61478 0
M  V30 5158 H 466.662 2.65931 -1.64315 0
M  V30 5159 H 465.882 1.29723 -3.72244 0
M  V30 5160 H 467.17 2.10868 -4.63047 0
M  V30 5161 H 466.568 4.81839 -2.96391 0
M  V30 5162 H 465.125 5.34072 -3.73644 0
M  V30 5163 N 468.558 1.5553 0.254621 0
M  V30 5164 C 469.804 1.77262 0.985193 0
M  V30 5165 C 470.137 0.582286 1.85265 0
M  V30 5166 O 469.412 -0.419666 1.89919 0
M  V30 5167 C 469.695 3.0881 1.85225 0
M  V30 5168 C 469.548 4.38233 1.0135 0
M  V30 5169 C 470.867 3.3653 2.83612 0
M  V30 5170 H 467.986 0.644906 0.356742 0
M  V30 5171 H 470.628 1.88264 0.256236 0
M  V30 5172 H 468.778 2.99562 2.47376 0
M  V30 5173 H 470.45 4.59463 0.411269 0
M  V30 5174 H 468.693 4.32636 0.317574 0
M  V30 5175 H 469.364 5.26644 1.65379 0
M  V30 5176 H 471.84 3.45691 2.31596 0
M  V30 5177 H 470.716 4.29805 3.41407 0
M  V30 5178 H 470.977 2.57064 3.59681 0
M  V30 5179 N 470.036 -0.519951 1.48776 0
M  V30 5180 C 471.313 -1.28123 1.47797 0
M  V30 5181 C 471.693 -2.10196 0.195157 0
M  V30 5182 O 471.041 -2.13167 -0.822925 0
M  V30 5183 C 471.251 -2.15413 2.74587 0
M  V30 5184 C 472.599 -2.75225 3.23321 0
M  V30 5185 O 473.623 -2.25694 2.75574 0
M  V30 5186 O 472.482 -3.65346 4.06429 0
M  V30 5187 H 469.576 -0.578793 0.590701 0
M  V30 5188 H 472.122 -0.535779 1.6102 0
M  V30 5189 H 470.894 -1.54617 3.59457 0
M  V30 5190 H 470.517 -2.97186 2.64132 0
M  V30 5191 N 471.514 -1.37532 -0.769588 0
M  V30 5192 C 472.444 -1.36172 -1.89682 0
M  V30 5193 C 473.425 -0.23001 -1.68538 0
M  V30 5194 O 474.61 -0.43069 -1.89364 0
M  V30 5195 C 471.74 -1.1701 -3.26995 0
M  V30 5196 C 470.694 -2.27216 -3.62708 0
M  V30 5197 C 470.02 -1.93174 -4.98586 0
M  V30 5198 C 471.32 -3.6941 -3.69234 0
M  V30 5199 H 473.014 -2.30499 -1.91078 0
M  V30 5200 H 470.56 -1.10953 -0.917902 0
M  V30 5201 H 472.513 -1.14688 -4.05493 0
M  V30 5202 H 471.237 -0.191395 -3.26039 0
M  V30 5203 H 469.896 -2.28697 -2.86519 0
M  V30 5204 H 469.544 -0.938281 -4.94171 0
M  V30 5205 H 469.244 -2.66973 -5.23449 0
M  V30 5206 H 470.768 -1.92443 -5.79481 0
M  V30 5207 H 472.182 -3.70047 -4.37879 0
M  V30 5208 H 470.579 -4.4228 -4.05597 0
M  V30 5209 H 471.649 -4.0288 -2.69844 0
M  V30 5210 N 472.992 0.995999 -1.22138 0
M  V30 5211 C 474.269 1.70834 -0.952642 0
M  V30 5212 C 474.649 2.04257 0.533119 0
M  V30 5213 O 473.997 1.72343 1.50034 0
M  V30 5214 C 474.207 2.96119 -1.84701 0
M  V30 5215 C 475.555 3.68962 -2.10124 0
M  V30 5216 O 476.579 3.0612 -1.82124 0
M  V30 5217 O 475.438 4.82017 -2.57531 0
M  V30 5218 H 472.532 0.745498 -0.357997 0
M  V30 5219 H 475.078 1.05262 -1.33109 0
M  V30 5220 H 473.85 2.67898 -2.85213 0
M  V30 5221 H 473.473 3.6943 -1.46995 0
M  V30 5222 N 474.47 1.03057 1.19235 0
M  V30 5223 C 475.716 0.729098 1.89241 0
M  V30 5224 C 476.049 -0.740573 1.79525 0
M  V30 5225 O 475.324 -1.53946 1.18874 0
M  V30 5226 C 475.607 1.18304 3.40112 0
M  V30 5227 C 475.46 2.71406 3.5869 0
M  V30 5228 C 476.779 0.765161 4.33397 0
M  V30 5229 H 473.898 0.266338 0.687192 0
M  V30 5230 H 476.54 1.28079 1.40341 0
M  V30 5231 H 474.69 0.713672 3.81889 0
M  V30 5232 H 476.362 3.26303 3.26074 0
M  V30 5233 H 474.605 3.11717 3.01687 0
M  V30 5234 H 475.276 2.98225 4.64506 0
M  V30 5235 H 477.752 1.16889 3.99345 0
M  V30 5236 H 476.628 1.11065 5.37546 0
M  V30 5237 H 476.889 -0.332372 4.40849 0
M  V30 5238 N 475.948 -1.35272 0.808662 0
M  V30 5239 C 476.898 -2.27181 0.193124 0
M  V30 5240 C 477.882 -1.47871 -0.634265 0
M  V30 5241 O 479.074 -1.70048 -0.491182 0
M  V30 5242 C 476.203 -3.36979 -0.655751 0
M  V30 5243 C 475.289 -4.23712 0.181481 0
M  V30 5244 N 475.68 -4.90225 1.24551 0
M  V30 5245 C 473.978 -4.45985 -0.0365493 0
M  V30 5246 C 474.679 -5.54537 1.75682 0
M  V30 5247 N 473.655 -5.33107 1.06294 0
M  V30 5248 H 477.457 -2.76101 1.00724 0
M  V30 5249 H 474.971 -1.48823 0.650029 0
M  V30 5250 H 476.968 -4.01774 -1.11279 0
M  V30 5251 H 475.628 -2.89611 -1.46819 0
M  V30 5252 H 476.639 -4.91641 1.62818 0
M  V30 5253 H 473.316 -4.09409 -0.817964 0
M  V30 5254 H 474.706 -6.17597 2.64621 0
M  V30 5255 N 477.426 -0.562348 -1.47226 0
M  V30 5256 C 478.673 -0.0402165 -2.0246 0
M  V30 5257 C 479.001 1.31169 -1.43614 0
M  V30 5258 O 478.256 1.86805 -0.5833 0
M  V30 5259 C 478.555 0.0969817 -3.57268 0
M  V30 5260 C 478.221 -1.1847 -4.35058 0
M  V30 5261 C 476.883 -1.53588 -4.56031 0
M  V30 5262 C 479.235 -2.03378 -4.79882 0
M  V30 5263 C 476.563 -2.73452 -5.19077 0
M  V30 5264 C 478.915 -3.2245 -5.44251 0
M  V30 5265 C 477.579 -3.57876 -5.63455 0
M  V30 5266 H 476.849 -0.0147163 -0.740854 0
M  V30 5267 H 479.496 -0.734895 -1.76838 0
M  V30 5268 H 477.801 0.87466 -3.81912 0
M  V30 5269 H 479.498 0.516408 -3.97661 0
M  V30 5270 H 476.088 -0.90126 -4.19017 0
M  V30 5271 H 480.272 -1.77553 -4.63453 0
M  V30 5272 H 475.528 -3.01062 -5.32139 0
M  V30 5273 H 479.702 -3.88526 -5.77945 0
M  V30 5274 H 477.329 -4.50849 -6.12078 0
M  V30 5275 N 478.904 1.54736 -0.299062 0
M  V30 5276 C 480.152 1.99706 0.31017 0
M  V30 5277 C 480.473 1.18896 1.54559 0
M  V30 5278 O 479.743 0.284445 1.93824 0
M  V30 5279 H 478.323 0.737686 0.117596 0
M  V30 5280 H 480.985 1.9054 -0.409943 0
M  V30 5281 H 480.081 3.06596 0.58355 0
M  V30 5282 N 480.382 0.0267497 1.57577 0
M  V30 5283 C 481.33 -0.973923 2.11229 0
M  V30 5284 C 482.324 -1.33849 1.03831 0
M  V30 5285 O 483.53 -1.321 1.22269 0
M  V30 5286 H 479.905 -0.331844 0.674821 0
M  V30 5287 H 481.876 -0.496092 2.94247 0
M  V30 5288 C 480.625 -2.24798 2.65257 0
M  V30 5289 H 479.948 -1.9762 3.47543 0
M  V30 5290 H 481.388 -2.93031 3.06445 0
M  V30 5291 C 479.847 -2.97611 1.57891 0
M  V30 5292 O 480.377 -3.89629 0.97735 0
M  V30 5293 N 478.583 -2.59905 1.29992 0
M  V30 5294 H 478.13 -1.85154 1.79097 0
M  V30 5295 H 478.088 -3.08932 0.583798 0
M  V30 5296 N 481.861 -1.55662 -0.24637 0
M  V30 5297 C 483.107 -1.77782 -0.975779 0
M  V30 5298 C 483.44 -0.592103 -1.84953 0
M  V30 5299 O 482.715 0.409588 -1.90138 0
M  V30 5300 C 482.998 -3.09788 -1.83584 0
M  V30 5301 C 482.851 -4.38764 -0.990241 0
M  V30 5302 C 484.17 -3.38029 -2.81823 0
M  V30 5303 H 481.289 -0.646789 -0.353317 0
M  V30 5304 H 483.931 -1.88398 -0.246248 0
M  V30 5305 H 482.081 -3.00869 -2.45784 0
M  V30 5306 H 483.753 -4.59675 -0.386897 0
M  V30 5307 H 481.996 -4.32798 -0.294626 0
M  V30 5308 H 482.667 -5.27514 -1.62584 0
M  V30 5309 H 485.143 -3.46915 -2.2976 0
M  V30 5310 H 484.019 -4.3161 -3.39122 0
M  V30 5311 H 484.28 -2.58968 -3.58313 0
M  V30 5312 N 483.339 0.512053 -1.4905 0
M  V30 5313 C 484.564 1.2959 -1.6193 0
M  V30 5314 C 484.989 1.85906 -0.286454 0
M  V30 5315 O 484.347 1.65312 0.744426 0
M  V30 5316 C 484.395 2.40987 -2.68249 0
M  V30 5317 O 483.499 3.44531 -2.26654 0
M  V30 5318 H 482.84 0.383053 -0.542371 0
M  V30 5319 H 485.37 0.614231 -1.95162 0
M  V30 5320 H 485.38 2.86913 -2.90078 0
M  V30 5321 H 484.055 1.99361 -3.65004 0
M  V30 5322 H 482.632 3.046 -2.15112 0
M  V30 5323 N 484.817 1.37938 0.762283 0
M  V30 5324 C 486.042 1.37059 1.55659 0
M  V30 5325 C 486.467 -0.0396123 1.88058 0
M  V30 5326 O 485.825 -1.01929 1.49934 0
M  V30 5327 C 485.873 2.22494 2.83776 0
M  V30 5328 O 484.977 1.63607 3.78559 0
M  V30 5329 H 484.318 0.467892 0.47114 0
M  V30 5330 H 486.848 1.81587 0.942725 0
M  V30 5331 H 486.858 2.36045 3.32786 0
M  V30 5332 H 485.533 3.24993 2.59524 0
M  V30 5333 H 484.11 1.5915 3.37233 0
M  V30 5334 N 486.295 -0.989507 1.22664 0
M  V30 5335 C 487.242 -2.08024 0.999733 0
M  V30 5336 C 488.212 -1.65909 -0.0797047 0
M  V30 5337 O 489.397 -1.90669 0.0705715 0
M  V30 5338 C 486.537 -3.40067 0.587234 0
M  V30 5339 C 485.65 -3.95505 1.73781 0
M  V30 5340 C 484.785 -5.15722 1.27297 0
M  V30 5341 C 483.824 -5.63305 2.39488 0
M  V30 5342 N 482.961 -6.74758 1.94026 0
M  V30 5343 H 487.801 -2.26768 1.9334 0
M  V30 5344 H 485.338 -1.11171 0.963297 0
M  V30 5345 H 487.296 -4.15899 0.329227 0
M  V30 5346 H 485.926 -3.21314 -0.309426 0
M  V30 5347 H 484.978 -3.16513 2.11006 0
M  V30 5348 H 486.29 -4.26797 2.58158 0
M  V30 5349 H 485.444 -5.98854 0.972546 0
M  V30 5350 H 484.183 -4.86061 0.399445 0
M  V30 5351 H 483.188 -4.78759 2.70315 0
M  V30 5352 H 484.413 -5.94988 3.27362 0
M  V30 5353 H 482.359 -6.46874 1.09041 0
M  V30 5354 H 482.276 -7.05386 2.71968 0
M  V30 5355 H 483.544 -7.61387 1.67062 0
M  V30 5356 N 487.773 -1.03688 -1.18687 0
M  V30 5357 C 488.72 -0.624624 -2.22187 0
M  V30 5358 C 489.69 0.365636 -1.62026 0
M  V30 5359 O 490.875 0.260481 -1.89014 0
M  V30 5360 C 488.015 0.0101738 -3.45099 0
M  V30 5361 C 487.128 -1.02709 -4.19613 0
M  V30 5362 C 486.263 -0.361213 -5.2997 0
M  V30 5363 C 485.302 -1.38384 -5.96252 0
M  V30 5364 N 484.439 -0.743196 -6.98155 0
M  V30 5365 H 489.279 -1.51176 -2.56807 0
M  V30 5366 H 486.816 -0.75636 -1.26165 0
M  V30 5367 H 488.774 0.395528 -4.15321 0
M  V30 5368 H 487.404 0.860848 -3.1111 0
M  V30 5369 H 486.456 -1.53043 -3.48256 0
M  V30 5370 H 487.768 -1.80398 -4.65036 0
M  V30 5371 H 486.922 0.0785537 -6.06649 0
M  V30 5372 H 485.661 0.447799 -4.8564 0
M  V30 5373 H 484.666 -1.83378 -5.18317 0
M  V30 5374 H 485.891 -2.19448 -6.42666 0
M  V30 5375 H 483.837 0.0455789 -6.55984 0
M  V30 5376 H 483.754 -1.45784 -7.41811 0
M  V30 5377 H 485.022 -0.327698 -7.78811 0
M  V30 5378 N 489.251 1.34841 -0.815825 0
M  V30 5379 C 490.214 2.27959 -0.238185 0
M  V30 5380 C 491.214 1.49983 0.579816 0
M  V30 5381 O 492.404 1.69617 0.396953 0
M  V30 5382 C 489.536 3.34314 0.666876 0
M  V30 5383 H 490.729 2.80558 -1.05958 0
M  V30 5384 H 488.282 1.44852 -0.587156 0
M  V30 5385 H 489.017 2.86916 1.5116 0
M  V30 5386 H 488.802 3.92014 0.0819106 0
M  V30 5387 H 490.292 4.0379 1.06506 0
M  V30 5388 N 490.729 0.570148 1.46925 0
M  V30 5389 C 491.677 -0.183181 2.31878 0
M  V30 5390 C 492.671 -0.896721 1.43719 0
M  V30 5391 O 493.877 -0.816536 1.60414 0
M  V30 5392 H 490.252 -0.077944 0.74795 0
M  V30 5393 H 492.223 0.552312 2.93244 0
M  V30 5394 C 490.972 -1.19172 3.2664 0
M  V30 5395 H 490.295 -0.652088 3.94446 0
M  V30 5396 H 491.735 -1.68946 3.88887 0
M  V30 5397 C 490.194 -2.24627 2.51086 0
M  V30 5398 O 490.724 -3.31773 2.26472 0
M  V30 5399 N 488.93 -1.98898 2.11867 0
M  V30 5400 H 488.477 -1.11777 2.32086 0
M  V30 5401 H 488.435 -2.6967 1.61634 0
M  V30 5402 N 492.207 -1.54576 0.307264 0
M  V30 5403 C 493.453 -2.0056 -0.300612 0
M  V30 5404 C 493.786 -1.1953 -1.53057 0
M  V30 5405 O 493.061 -0.27337 -1.92569 0
M  V30 5406 C 493.344 -3.54167 -0.650987 0
M  V30 5407 C 493.197 -4.45933 0.588539 0
M  V30 5408 C 494.516 -4.14645 -1.47506 0
M  V30 5409 H 491.635 -0.729075 -0.107788 0
M  V30 5410 H 494.277 -1.85286 0.420606 0
M  V30 5411 H 492.427 -3.67313 -1.26544 0
M  V30 5412 H 494.099 -4.44683 1.22697 0
M  V30 5413 H 492.342 -4.16274 1.22058 0
M  V30 5414 H 493.013 -5.51189 0.299153 0
M  V30 5415 H 495.489 -4.04973 -0.955821 0
M  V30 5416 H 494.365 -5.22269 -1.68899 0
M  V30 5417 H 494.626 -3.66921 -2.4662 0
M  V30 5418 N 493.685 -0.035106 -1.57561 0
M  V30 5419 C 494.934 0.641604 -1.91223 0
M  V30 5420 C 495.247 1.72944 -0.913761 0
M  V30 5421 O 496.453 2.46321 -1.14185 0
M  V30 5422 C 494.909 1.19249 -3.3957 0
M  V30 5423 C 494.517 0.137616 -4.47789 0
M  V30 5424 C 496.261 1.84537 -3.82291 0
M  V30 5425 C 494.168 0.700478 -5.87237 0
M  V30 5426 H 493.098 0.243417 -0.713627 0
M  V30 5427 H 495.749 -0.101382 -1.8322 0
M  V30 5428 H 494.131 1.98728 -3.42525 0
M  V30 5429 H 495.305 -0.635153 -4.56402 0
M  V30 5430 H 493.62 -0.416855 -4.14308 0
M  V30 5431 H 496.217 2.27616 -4.83834 0
M  V30 5432 H 496.56 2.69054 -3.17672 0
M  V30 5433 H 497.093 1.11739 -3.81784 0
M  V30 5434 H 493.832 -0.106693 -6.55413 0
M  V30 5435 H 493.352 1.4416 -5.82218 0
M  V30 5436 H 495.031 1.18837 -6.35993 0
M  V30 5437 N 495.163 1.55791 0.238111 0
M  V30 5438 C 496.093 1.94068 1.29846 0
M  V30 5439 C 497.074 0.806726 1.49753 0
M  V30 5440 O 498.259 1.06772 1.62214 0
M  V30 5441 C 495.389 2.24302 2.65153 0
M  V30 5442 C 494.343 3.40032 2.59927 0
M  V30 5443 C 493.669 3.55829 3.99111 0
M  V30 5444 C 494.969 4.75476 2.16148 0
M  V30 5445 H 496.663 2.82887 0.980563 0
M  V30 5446 H 494.209 1.36105 0.470253 0
M  V30 5447 H 496.162 2.4967 3.39475 0
M  V30 5448 H 494.886 1.32318 2.98596 0
M  V30 5449 H 493.545 3.14687 1.88063 0
M  V30 5450 H 493.193 2.6125 4.29834 0
M  V30 5451 H 492.893 4.3366 3.96501 0
M  V30 5452 H 494.417 3.83528 4.7512 0
M  V30 5453 H 495.831 5.00158 2.80205 0
M  V30 5454 H 494.228 5.56472 2.24631 0
M  V30 5455 H 495.298 4.71946 1.11333 0
M  V30 5456 N 496.642 -0.504142 1.49319 0
M  V30 5457 C 497.919 -1.26548 1.49147 0
M  V30 5458 C 498.299 -2.09977 0.21744 0
M  V30 5459 O 497.647 -2.14028 -0.800269 0
M  V30 5460 C 497.857 -2.12489 2.76857 0
M  V30 5461 C 499.205 -2.7178 3.26222 0
M  V30 5462 O 500.229 -2.22758 2.77952 0
M  V30 5463 O 499.088 -3.61015 4.10281 0
M  V30 5464 H 496.182 -0.572495 0.596806 0
M  V30 5465 H 498.728 -0.51867 1.61579 0
M  V30 5466 H 497.5 -1.50796 3.61077 0
M  V30 5467 H 497.123 -2.94368 2.6727 0
M  V30 5468 N 498.12 -1.38341 -0.754957 0
M  V30 5469 C 499.345 -1.37882 -1.5493 0
M  V30 5470 C 499.77 0.0296385 -1.88077 0
M  V30 5471 O 499.128 1.01133 -1.50472 0
M  V30 5472 C 499.176 -2.23996 -2.82592 0
M  V30 5473 O 498.28 -1.65612 -3.77686 0
M  V30 5474 H 497.621 -0.470384 -0.468652 0
M  V30 5475 H 500.151 -1.82084 -0.933082 0
M  V30 5476 H 500.161 -2.37806 -3.3153 0
M  V30 5477 H 498.836 -3.26365 -2.57796 0
M  V30 5478 H 497.413 -1.60936 -3.36384 0
M  V30 5479 N 499.598 0.982988 -1.23187 0
M  V30 5480 C 500.561 2.05649 -1.01198 0
M  V30 5481 C 501.561 1.6078 0.0252464 0
M  V30 5482 O 502.751 1.72878 -0.214243 0
M  V30 5483 C 499.883 3.36744 -0.530656 0
M  V30 5484 H 501.076 2.2659 -1.96461 0
M  V30 5485 H 498.629 1.15602 -1.05195 0
M  V30 5486 H 499.364 3.21492 0.425873 0
M  V30 5487 H 499.149 3.7065 -1.2791 0
M  V30 5488 H 500.639 4.15705 -0.397366 0
M  V30 5489 N 501.076 1.04316 1.18135 0
M  V30 5490 C 502.304 0.768117 1.92113 0
M  V30 5491 C 502.719 -0.675057 1.76319 0
M  V30 5492 O 502.076 -1.46038 1.09449 0
M  V30 5493 C 502.127 1.12808 3.43448 0
M  V30 5494 O 501.848 2.5146 3.58747 0
M  V30 5495 C 503.349 0.8779 4.3452 0
M  V30 5496 H 500.569 0.279937 0.609817 0
M  V30 5497 H 503.113 1.39149 1.49859 0
M  V30 5498 H 501.268 0.549623 3.83481 0
M  V30 5499 H 501.682 2.65313 4.52448 0
M  V30 5500 H 503.156 1.17959 5.39249 0
M  V30 5501 H 503.633 -0.187239 4.38801 0
M  V30 5502 H 504.239 1.43977 4.00188 0
M  V30 5503 N 502.554 -1.34406 0.822964 0
M  V30 5504 C 503.779 -2.0304 0.423034 0
M  V30 5505 C 504.204 -1.61568 -0.963196 0
M  V30 5506 O 503.562 -0.800339 -1.62678 0
M  V30 5507 C 503.61 -3.56636 0.53321 0
M  V30 5508 O 502.714 -4.09971 -0.446939 0
M  V30 5509 H 502.055 -0.64075 0.174171 0
M  V30 5510 H 504.585 -1.71653 1.11339 0
M  V30 5511 H 504.595 -4.05945 0.408991 0
M  V30 5512 H 503.27 -3.86168 1.54425 0
M  V30 5513 H 501.847 -3.71835 -0.281601 0
M  V30 5514 N 504.032 -0.577932 -1.46621 0
M  V30 5515 C 505.278 -0.0617793 -2.02706 0
M  V30 5516 C 505.611 1.29294 -1.44903 0
M  V30 5517 O 504.886 1.8461 -0.61232 0
M  V30 5518 C 505.169 0.00911824 -3.60099 0
M  V30 5519 C 505.022 -1.37416 -4.28295 0
M  V30 5520 C 506.341 0.712159 -4.343 0
M  V30 5521 H 503.46 -0.0239246 -0.736612 0
M  V30 5522 H 506.102 -0.744211 -1.74818 0
M  V30 5523 H 504.252 0.590292 -3.83989 0
M  V30 5524 H 505.924 -2.00013 -4.15683 0
M  V30 5525 H 504.167 -1.94319 -3.87843 0
M  V30 5526 H 504.838 -1.27707 -5.37024 0
M  V30 5527 H 507.314 0.218486 -4.15526 0
M  V30 5528 H 506.19 0.730782 -5.44014 0
M  V30 5529 H 506.451 1.77251 -4.05012 0
M  V30 5530 N 505.51 1.54411 -0.315457 0
M  V30 5531 C 506.759 1.99599 0.290395 0
M  V30 5532 C 507.072 1.20746 1.53882 0
M  V30 5533 O 508.278 1.56272 2.22017 0
M  V30 5534 C 506.734 3.5539 0.56797 0
M  V30 5535 C 506.342 4.43068 -0.662945 0
M  V30 5536 C 508.086 4.09067 1.13422 0
M  V30 5537 C 505.993 5.90317 -0.357722 0
M  V30 5538 H 504.923 0.745592 0.112286 0
M  V30 5539 H 507.574 1.78477 -0.426418 0
M  V30 5540 H 505.956 3.72468 1.34476 0
M  V30 5541 H 507.13 4.37765 -1.43869 0
M  V30 5542 H 505.445 4.00238 -1.14884 0
M  V30 5543 H 508.042 5.16663 1.37707 0
M  V30 5544 H 508.385 3.60552 2.08106 0
M  V30 5545 H 508.918 3.95589 0.418805 0
M  V30 5546 H 505.657 6.4301 -1.27351 0
M  V30 5547 H 505.177 5.98592 0.380472 0
M  V30 5548 H 506.856 6.4699 0.0354284 0
M  V30 5549 N 506.988 0.0434614 1.5754 0
M  V30 5550 C 508.216 -0.641835 1.96693 0
M  V30 5551 C 508.631 -1.64832 0.920652 0
M  V30 5552 O 507.988 -1.82247 -0.095993 0
M  V30 5553 C 508.039 -1.33557 3.35924 0
M  V30 5554 O 507.76 -0.369403 4.3654 0
M  V30 5555 C 509.261 -2.11135 3.89791 0
M  V30 5556 H 506.481 -0.176013 0.647503 0
M  V30 5557 H 509.025 0.107478 2.04217 0
M  V30 5558 H 507.18 -2.03617 3.29574 0
M  V30 5559 H 507.594 -0.863674 5.1734 0
M  V30 5560 H 509.068 -2.55107 4.89514 0
M  V30 5561 H 509.545 -2.95634 3.24803 0
M  V30 5562 H 510.151 -1.46002 3.99454 0
M  V30 5563 N 508.466 -1.55915 -0.229846 0
M  V30 5564 C 509.712 -1.78807 -0.956868 0
M  V30 5565 C 510.045 -0.611687 -1.84315 0
M  V30 5566 O 509.32 0.389398 -1.90562 0
M  V30 5567 C 509.603 -3.11718 -1.80288 0
M  V30 5568 C 509.456 -4.3979 -0.943649 0
M  V30 5569 C 510.775 -3.40999 -2.78222 0
M  V30 5570 H 507.894 -0.6505 -0.346437 0
M  V30 5571 H 510.536 -1.88648 -0.226252 0
M  V30 5572 H 508.686 -3.03459 -2.42579 0
M  V30 5573 H 510.358 -4.60059 -0.338121 0
M  V30 5574 H 508.601 -4.33086 -0.248705 0
M  V30 5575 H 509.272 -5.29208 -1.5698 0
M  V30 5576 H 511.748 -3.49332 -2.26067 0
M  V30 5577 H 510.624 -4.35183 -3.34526 0
M  V30 5578 H 510.885 -2.62754 -3.55546 0
M  V30 5579 N 509.944 0.496216 -1.49584 0
M  V30 5580 C 511.355 1.07765 -1.52459 0
M  V30 5581 C 511.706 1.93679 -0.31353 0
M  V30 5582 O 510.831 2.08588 0.576186 0
M  V30 5583 C 511.426 1.96111 -2.76271 0
M  V30 5584 C 509.985 2.49409 -2.81908 0
M  V30 5585 C 509.132 1.27142 -2.46435 0
M  V30 5586 H 512.083 0.279914 -1.56212 0
M  V30 5587 H 512.104 2.80862 -2.56704 0
M  V30 5588 H 511.616 1.33555 -3.64396 0
M  V30 5589 H 509.717 3.1559 -1.98074 0
M  V30 5590 H 509.83 2.86234 -3.84196 0
M  V30 5591 H 508.194 1.59818 -1.98319 0
M  V30 5592 H 508.977 0.662866 -3.3684 0
M  V30 5593 N 511.423 1.38739 0.74761 0
M  V30 5594 C 512.651 1.38521 1.53686 0
M  V30 5595 C 513.066 -0.0235129 1.88785 0
M  V30 5596 O 512.423 -0.991662 1.53207 0
M  V30 5597 C 512.474 2.24641 2.83229 0
M  V30 5598 O 512.195 3.60026 2.49625 0
M  V30 5599 C 513.696 2.32669 3.77333 0
M  V30 5600 H 510.916 0.473589 0.475347 0
M  V30 5601 H 513.46 1.82395 0.924786 0
M  V30 5602 H 511.615 1.84213 3.40799 0
M  V30 5603 H 512.029 4.05435 3.3275 0
M  V30 5604 H 513.503 2.97201 4.65162 0
M  V30 5605 H 513.98 1.3421 4.18192 0
M  V30 5606 H 514.586 2.73512 3.25685 0
M  V30 5607 N 512.901 -0.976442 1.23707 0
M  V30 5608 C 513.811 -2.10359 1.03856 0
M  V30 5609 C 514.827 -1.73991 -0.0180919 0
M  V30 5610 O 516.003 -2.0061 0.178211 0
M  V30 5611 C 513.068 -3.40809 0.636387 0
M  V30 5612 C 512.129 -3.91179 1.76854 0
M  V30 5613 C 511.362 -5.15404 1.38546 0
M  V30 5614 O 511.585 -5.69754 0.27142 0
M  V30 5615 O 510.519 -5.5994 2.20797 0
M  V30 5616 H 514.345 -2.29997 1.98331 0
M  V30 5617 H 511.93 -1.08742 1.02448 0
M  V30 5618 H 513.812 -4.19269 0.423223 0
M  V30 5619 H 512.487 -3.22493 -0.279322 0
M  V30 5620 H 511.394 -3.13819 2.03638 0
M  V30 5621 H 512.727 -4.13958 2.6627 0
M  V30 5622 N 514.379 -1.04941 -1.1758 0
M  V30 5623 C 515.626 -0.757989 -1.87779 0
M  V30 5624 C 515.954 0.714827 -1.80888 0
M  V30 5625 O 515.209 1.53824 -1.20982 0
M  V30 5626 C 515.508 -1.18062 -3.37337 0
M  V30 5627 C 515.174 -2.65521 -3.6443 0
M  V30 5628 C 513.836 -3.05804 -3.71534 0
M  V30 5629 C 516.188 -3.60822 -3.76108 0
M  V30 5630 C 513.516 -4.40256 -3.87803 0
M  V30 5631 C 515.868 -4.95005 -3.93895 0
M  V30 5632 C 514.532 -5.34945 -3.99237 0
M  V30 5633 H 513.802 -0.277368 -0.68713 0
M  V30 5634 H 516.449 -1.31603 -1.39115 0
M  V30 5635 H 514.754 -0.541525 -3.8804 0
M  V30 5636 H 516.451 -0.932368 -3.9001 0
M  V30 5637 H 513.041 -2.33324 -3.59524 0
M  V30 5638 H 517.225 -3.30841 -3.69943 0
M  V30 5639 H 512.481 -4.70707 -3.90186 0
M  V30 5640 H 516.655 -5.68746 -4.01872 0
M  V30 5641 H 514.282 -6.39135 -4.11596 0
M  V30 5642 N 515.857 1.33968 -0.830081 0
M  V30 5643 C 517.104 1.98063 -0.421566 0
M  V30 5644 C 517.432 1.65787 1.0171 0
M  V30 5645 O 516.687 0.925348 1.72441 0
M  V30 5646 C 516.986 3.52679 -0.57898 0
M  V30 5647 C 516.652 4.04884 -1.98443 0
M  V30 5648 C 515.314 4.18852 -2.36888 0
M  V30 5649 C 517.666 4.32879 -2.90285 0
M  V30 5650 C 514.994 4.58145 -3.66497 0
M  V30 5651 C 517.346 4.7362 -4.19364 0
M  V30 5652 C 516.01 4.85794 -4.57778 0
M  V30 5653 H 515.28 0.724765 -0.154262 0
M  V30 5654 H 517.927 1.59792 -1.05541 0
M  V30 5655 H 516.232 3.91556 0.138219 0
M  V30 5656 H 517.929 4.00261 -0.243317 0
M  V30 5657 H 514.519 3.9448 -1.67581 0
M  V30 5658 H 518.703 4.21619 -2.61823 0
M  V30 5659 H 513.959 4.65762 -3.96075 0
M  V30 5660 H 518.133 4.9424 -4.90612 0
M  V30 5661 H 515.76 5.15998 -5.58256 0
M  V30 5662 N 517.335 0.585699 1.46312 0
M  V30 5663 C 518.283 -0.158577 2.32059 0
M  V30 5664 C 519.277 -0.881427 1.44662 0
M  V30 5665 O 520.483 -0.799476 1.61271 0
M  V30 5666 H 516.858 -0.0700066 0.748734 0
M  V30 5667 H 518.829 0.583383 2.92642 0
M  V30 5668 C 517.578 -1.15701 3.27885 0
M  V30 5669 H 516.901 -0.610215 3.95116 0
M  V30 5670 H 518.341 -1.64812 3.90657 0
M  V30 5671 C 516.8 -2.21951 2.53455 0
M  V30 5672 O 517.33 -3.29352 2.29978 0
M  V30 5673 N 515.536 -1.9664 2.13965 0
M  V30 5674 H 515.083 -1.09309 2.33258 0
M  V30 5675 H 515.041 -2.6794 1.64485 0
M  V30 5676 N 518.813 -1.54241 0.323641 0
M  V30 5677 C 519.745 -2.21836 -0.576311 0
M  V30 5678 C 520.758 -1.21837 -1.07979 0
M  V30 5679 O 521.947 -1.48306 -0.99336 0
M  V30 5680 C 519.047 -2.86923 -1.80356 0
M  V30 5681 C 518.22 -4.1306 -1.43875 0
M  V30 5682 C 517.279 -4.6174 -2.52353 0
M  V30 5683 O 516.305 -5.26421 -2.16494 0
M  V30 5684 N 517.507 -4.35974 -3.83284 0
M  V30 5685 H 520.272 -2.997 0.00247987 0
M  V30 5686 H 517.833 -1.61233 0.146848 0
M  V30 5687 H 519.825 -3.16414 -2.52318 0
M  V30 5688 H 518.395 -2.12765 -2.29019 0
M  V30 5689 H 517.615 -3.90334 -0.550752 0
M  V30 5690 H 518.903 -4.95148 -1.17071 0
M  V30 5691 H 518.301 -3.84203 -4.15216 0
M  V30 5692 H 516.858 -4.70119 -4.51477 0
M  V30 5693 N 520.291 -0.0518155 -1.57515 0
M  V30 5694 C 521.538 0.621823 -1.92716 0
M  V30 5695 C 521.866 1.70813 -0.930229 0
M  V30 5696 O 521.121 1.95616 0.0573708 0
M  V30 5697 C 521.42 1.25607 -3.34601 0
M  V30 5698 C 521.086 0.297901 -4.49915 0
M  V30 5699 C 519.748 0.034243 -4.81188 0
M  V30 5700 C 522.1 -0.358738 -5.19964 0
M  V30 5701 C 519.428 -0.893479 -5.79857 0
M  V30 5702 C 521.78 -1.27466 -6.19625 0
M  V30 5703 C 520.444 -1.54698 -6.49326 0
M  V30 5704 H 519.714 0.227541 -0.705199 0
M  V30 5705 H 522.361 -0.118432 -1.91133 0
M  V30 5706 H 520.666 2.07161 -3.32553 0
M  V30 5707 H 522.363 1.78424 -3.59118 0
M  V30 5708 H 518.953 0.513581 -4.25512 0
M  V30 5709 H 523.137 -0.168133 -4.96015 0
M  V30 5710 H 518.393 -1.11193 -6.01204 0
M  V30 5711 H 522.567 -1.78953 -6.73015 0
M  V30 5712 H 520.194 -2.26748 -7.25596 0
M  V30 5713 N 521.769 1.56035 0.221574 0
M  V30 5714 C 523.015 1.79312 0.947372 0
M  V30 5715 C 523.348 0.621453 1.83988 0
M  V30 5716 O 522.623 -0.379287 1.90766 0
M  V30 5717 C 522.906 3.1267 1.78633 0
M  V30 5718 C 522.759 4.40284 0.920312 0
M  V30 5719 C 524.078 3.4247 2.7641 0
M  V30 5720 H 521.197 0.652328 0.342982 0
M  V30 5721 H 523.839 1.88765 0.216244 0
M  V30 5722 H 521.989 3.04741 2.40967 0
M  V30 5723 H 523.661 4.60232 0.313718 0
M  V30 5724 H 521.904 4.33212 0.225734 0
M  V30 5725 H 522.575 5.30033 1.54171 0
M  V30 5726 H 525.051 3.50526 2.24211 0
M  V30 5727 H 523.927 4.3695 3.32213 0
M  V30 5728 H 524.188 2.64635 3.54148 0
M  V30 5729 N 523.247 -0.488276 1.49845 0
M  V30 5730 C 524.157 -1.61451 1.70207 0
M  V30 5731 C 525.173 -1.63877 0.584846 0
M  V30 5732 O 526.349 -1.82063 0.861107 0
M  V30 5733 C 523.414 -2.9776 1.77594 0
M  V30 5734 C 522.475 -3.05861 3.01243 0
M  V30 5735 C 521.708 -4.35668 3.08268 0
M  V30 5736 O 521.931 -5.25197 2.22541 0
M  V30 5737 O 520.865 -4.49005 4.00847 0
M  V30 5738 H 524.691 -1.47199 2.65643 0
M  V30 5739 H 522.276 -0.665939 1.33737 0
M  V30 5740 H 524.158 -3.7875 1.84732 0
M  V30 5741 H 522.833 -3.12248 0.8534 0
M  V30 5742 H 521.74 -2.24012 2.99616 0
M  V30 5743 H 523.073 -2.96304 3.9302 0
M  V30 5744 N 524.725 -1.39134 -0.740242 0
M  V30 5745 C 525.95 -1.39518 -1.53459 0
M  V30 5746 C 526.375 0.00968883 -1.88098 0
M  V30 5747 O 525.733 0.995312 -1.51536 0
M  V30 5748 C 525.781 -2.26981 -2.802 0
M  V30 5749 O 524.885 -1.69609 -3.75908 0
M  V30 5750 H 524.226 -0.475328 -0.463637 0
M  V30 5751 H 526.756 -1.83064 -0.913717 0
M  V30 5752 H 526.766 -2.41309 -3.28989 0
M  V30 5753 H 525.441 -3.29081 -2.5432 0
M  V30 5754 H 524.018 -1.64495 -3.34658 0
M  V30 5755 N 526.204 0.969867 -1.24223 0
M  V30 5756 C 527.167 2.04564 -1.03373 0
M  V30 5757 C 528.167 1.60798 0.00819206 0
M  V30 5758 O 529.357 1.72641 -0.232567 0
M  V30 5759 C 526.489 3.36163 -0.566343 0
M  V30 5760 H 527.682 2.24494 -1.98853 0
M  V30 5761 H 525.235 1.1448 -1.06415 0
M  V30 5762 H 525.97 3.21925 0.391751 0
M  V30 5763 H 525.755 3.69273 -1.31834 0
M  V30 5764 H 527.245 4.1526 -0.441435 0
M  V30 5765 N 527.682 1.05563 1.17022 0
M  V30 5766 C 528.907 0.788437 1.91829 0
M  V30 5767 C 529.332 -0.650356 1.76499 0
M  V30 5768 O 528.69 -1.45229 1.08527 0
M  V30 5769 C 528.738 1.1786 3.40795 0
M  V30 5770 O 527.842 0.312965 4.11211 0
M  V30 5771 H 527.183 0.288794 0.597908 0
M  V30 5772 H 529.713 1.40948 1.48307 0
M  V30 5773 H 529.723 1.14697 3.91546 0
M  V30 5774 H 528.398 2.22666 3.51273 0
M  V30 5775 H 526.975 0.405515 3.70689 0
M  V30 5776 N 529.16 -1.33526 0.837174 0
M  V30 5777 C 530.406 -1.9813 0.432704 0
M  V30 5778 C 530.739 -1.66168 -1.00508 0
M  V30 5779 O 530.014 -0.94069 -1.70239 0
M  V30 5780 C 530.297 -3.54151 0.651834 0
M  V30 5781 C 530.15 -3.95806 2.13676 0
M  V30 5782 C 531.469 -4.39993 0.0968937 0
M  V30 5783 H 528.588 -0.719713 0.15869 0
M  V30 5784 H 531.23 -1.58193 1.05237 0
M  V30 5785 H 529.38 -3.88301 0.124369 0
M  V30 5786 H 531.052 -3.71921 2.72896 0
M  V30 5787 H 529.295 -3.45599 2.62191 0
M  V30 5788 H 529.966 -5.0447 2.24084 0
M  V30 5789 H 532.442 -4.12479 0.547733 0
M  V30 5790 H 531.318 -5.48186 0.279917 0
M  V30 5791 H 531.579 -4.3066 -0.9992 0
M  V30 5792 N 530.638 -0.59345 -1.46 0
M  V30 5793 C 531.885 -0.0831523 -2.02329 0
M  V30 5794 C 532.213 1.28093 -1.46364 0
M  V30 5795 O 531.468 1.85526 -0.622793 0
M  V30 5796 C 531.767 0.021178 -3.57394 0
M  V30 5797 C 531.433 -1.27671 -4.32448 0
M  V30 5798 C 530.095 -1.63227 -4.5267 0
M  V30 5799 C 532.447 -2.13511 -4.7546 0
M  V30 5800 C 529.775 -2.84401 -5.1316 0
M  V30 5801 C 532.127 -3.33922 -5.37289 0
M  V30 5802 C 530.791 -3.69747 -5.55737 0
M  V30 5803 H 530.061 -0.0304276 -0.740375 0
M  V30 5804 H 532.708 -0.772239 -1.75239 0
M  V30 5805 H 531.013 0.793454 -3.83682 0
M  V30 5806 H 532.71 0.431942 -3.98667 0
M  V30 5807 H 529.3 -0.989937 -4.17011 0
M  V30 5808 H 533.484 -1.87344 -4.59582 0
M  V30 5809 H 528.74 -3.12282 -5.25633 0
M  V30 5810 H 532.914 -4.00698 -5.69574 0
M  V30 5811 H 530.541 -4.6373 -6.02377 0
M  V30 5812 N 532.116 1.54067 -0.331816 0
M  V30 5813 C 533.063 2.24623 0.530372 0
M  V30 5814 C 534.033 1.24009 1.10503 0
M  V30 5815 O 535.218 1.52712 1.14384 0
M  V30 5816 C 532.358 3.01374 1.68129 0
M  V30 5817 C 531.471 4.16821 1.13507 0
M  V30 5818 C 530.606 4.81085 2.25234 0
M  V30 5819 C 529.645 5.88621 1.67903 0
M  V30 5820 N 528.782 6.46713 2.73326 0
M  V30 5821 H 533.622 2.97898 -0.0778607 0
M  V30 5822 H 531.159 1.47014 -0.0501965 0
M  V30 5823 H 533.117 3.44125 2.35868 0
M  V30 5824 H 531.747 2.30419 2.26069 0
M  V30 5825 H 530.799 3.78796 0.348979 0
M  V30 5826 H 532.111 4.94203 0.675633 0
M  V30 5827 H 531.265 5.26846 3.00862 0
M  V30 5828 H 530.004 4.03102 2.74518 0
M  V30 5829 H 529.009 5.42254 0.907773 0
M  V30 5830 H 530.234 6.68506 1.19487 0
M  V30 5831 H 528.18 5.71599 3.21886 0
M  V30 5832 H 528.097 7.19532 2.3197 0
M  V30 5833 H 529.365 6.97129 3.48758 0
M  V30 5834 N 533.594 0.0601682 1.57485 0
M  V30 5835 C 534.84 -0.612501 1.93329 0
M  V30 5836 C 535.173 -1.6996 0.939526 0
M  V30 5837 O 534.448 -1.94472 -0.0330957 0
M  V30 5838 C 534.731 -1.20025 3.39508 0
M  V30 5839 C 534.584 -0.12059 4.49638 0
M  V30 5840 C 535.903 -2.10923 3.86264 0
M  V30 5841 H 533.022 -0.221185 0.703027 0
M  V30 5842 H 535.664 0.123768 1.89596 0
M  V30 5843 H 533.814 -1.82774 3.42821 0
M  V30 5844 H 535.486 0.51185 4.58452 0
M  V30 5845 H 533.729 0.550251 4.30296 0
M  V30 5846 H 534.4 -0.572019 5.49028 0
M  V30 5847 H 536.876 -1.58124 3.84884 0
M  V30 5848 H 535.752 -2.48987 4.8918 0
M  V30 5849 H 536.013 -3.01292 3.23536 0
M  V30 5850 N 535.072 -1.5615 -0.213296 0
M  V30 5851 C 536.483 -1.69645 -0.779582 0
M  V30 5852 C 536.834 -0.663615 -1.84636 0
M  V30 5853 O 535.959 0.183633 -2.15619 0
M  V30 5854 C 536.554 -3.07567 -1.42084 0
M  V30 5855 C 535.113 -3.22889 -1.93442 0
M  V30 5856 C 534.26 -2.65581 -0.797612 0
M  V30 5857 H 537.211 -1.58696 0.0114951 0
M  V30 5858 H 537.232 -3.03884 -2.28986 0
M  V30 5859 H 536.744 -3.82716 -0.644187 0
M  V30 5860 H 534.845 -2.52623 -2.73884 0
M  V30 5861 H 534.958 -4.30197 -2.10872 0
M  V30 5862 H 533.322 -2.24278 -1.20712 0
M  V30 5863 H 534.105 -3.43284 -0.033494 0
M  V30 5864 N 536.55 0.480323 -1.50102 0
M  V30 5865 C 537.797 1.23307 -1.60629 0
M  V30 5866 C 538.125 1.92135 -0.302375 0
M  V30 5867 O 537.38 1.82321 0.711154 0
M  V30 5868 C 537.679 2.30708 -2.72963 0
M  V30 5869 C 537.345 1.79195 -4.13763 0
M  V30 5870 C 536.007 1.64867 -4.52076 0
M  V30 5871 C 538.359 1.40878 -5.018 0
M  V30 5872 C 535.687 1.10631 -5.76175 0
M  V30 5873 C 538.039 0.880872 -6.26437 0
M  V30 5874 C 536.703 0.724146 -6.6356 0
M  V30 5875 H 535.973 0.451211 -0.587784 0
M  V30 5876 H 538.62 0.53051 -1.84005 0
M  V30 5877 H 536.925 3.06834 -2.43639 0
M  V30 5878 H 538.622 2.88692 -2.78313 0
M  V30 5879 H 535.212 1.91313 -3.83533 0
M  V30 5880 H 539.396 1.50786 -4.7284 0
M  V30 5881 H 534.652 0.972263 -6.0362 0
M  V30 5882 H 538.826 0.575269 -6.9402 0
M  V30 5883 H 536.453 0.301722 -7.59601 0
M  V30 5884 N 538.028 1.39524 0.732853 0
M  V30 5885 C 538.958 1.41153 1.86005 0
M  V30 5886 C 539.939 0.274614 1.67869 0
M  V30 5887 O 541.124 0.480745 1.88155 0
M  V30 5888 C 538.254 1.25638 3.23778 0
M  V30 5889 C 537.208 2.36752 3.56556 0
M  V30 5890 C 536.534 2.06326 4.93289 0
M  V30 5891 C 537.834 3.79069 3.5931 0
M  V30 5892 H 539.528 2.35484 1.84899 0
M  V30 5893 H 537.074 1.13348 0.888162 0
M  V30 5894 H 539.027 1.25398 4.0231 0
M  V30 5895 H 537.751 0.277772 3.25417 0
M  V30 5896 H 536.41 2.36213 2.80355 0
M  V30 5897 H 536.058 1.06897 4.9151 0
M  V30 5898 H 535.758 2.80757 5.16187 0
M  V30 5899 H 537.282 2.07739 5.74175 0
M  V30 5900 H 538.696 3.81526 4.27914 0
M  V30 5901 H 537.093 4.52878 3.93728 0
M  V30 5902 H 538.163 4.09893 2.59068 0
M  V30 5903 N 539.506 -0.963266 1.24736 0
M  V30 5904 C 540.731 -1.74699 1.11781 0
M  V30 5905 C 541.156 -1.85267 -0.325258 0
M  V30 5906 O 540.514 -1.32681 -1.23553 0
M  V30 5907 C 540.562 -3.14322 1.76731 0
M  V30 5908 O 539.666 -3.99043 1.04109 0
M  V30 5909 H 539.007 -0.53684 0.390767 0
M  V30 5910 H 541.537 -1.20801 1.65131 0
M  V30 5911 H 541.547 -3.64824 1.82668 0
M  V30 5912 H 540.222 -3.05946 2.81726 0
M  V30 5913 H 538.799 -3.5752 1.05991 0
M  V30 5914 N 540.985 -1.06182 -1.16461 0
M  V30 5915 C 541.915 -0.692861 -2.22984 0
M  V30 5916 C 542.896 0.314122 -1.67174 0
M  V30 5917 O 544.081 0.189499 -1.93273 0
M  V30 5918 C 541.211 -0.07732 -3.47214 0
M  V30 5919 C 540.165 -1.01015 -4.15909 0
M  V30 5920 C 539.491 -0.257973 -5.34077 0
M  V30 5921 C 540.791 -2.33868 -4.67015 0
M  V30 5922 H 542.485 -1.58343 -2.54102 0
M  V30 5923 H 540.031 -0.76279 -1.22137 0
M  V30 5924 H 541.984 0.19266 -4.20959 0
M  V30 5925 H 540.708 0.848254 -3.15392 0
M  V30 5926 H 539.367 -1.26486 -3.44088 0
M  V30 5927 H 539.015 0.670684 -4.98509 0
M  V30 5928 H 538.715 -0.879638 -5.80979 0
M  V30 5929 H 540.239 0.00448788 -6.106 0
M  V30 5930 H 541.653 -2.1279 -5.32347 0
M  V30 5931 H 540.05 -2.91522 -5.24533 0
M  V30 5932 H 541.12 -2.97019 -3.83286 0
M  V30 5933 N 542.463 1.3308 -0.844243 0
M  V30 5934 C 543.693 2.01515 -0.455541 0
M  V30 5935 C 544.101 1.63655 0.949406 0
M  V30 5936 O 543.444 0.84848 1.62931 0
M  V30 5937 C 543.506 3.55967 -0.502801 0
M  V30 5938 C 543.17 4.17222 -1.86481 0
M  V30 5939 C 544.167 4.36205 -2.8288 0
M  V30 5940 C 541.852 4.53528 -2.15911 0
M  V30 5941 C 543.846 4.90649 -4.06869 0
M  V30 5942 C 541.533 5.07679 -3.40155 0
M  V30 5943 C 542.531 5.26186 -4.35451 0
M  V30 5944 O 542.219 5.79183 -5.57496 0
M  V30 5945 H 541.951 0.65199 -0.178565 0
M  V30 5946 H 544.505 1.70867 -1.1399 0
M  V30 5947 H 542.735 3.85965 0.23836 0
M  V30 5948 H 544.424 4.05688 -0.131169 0
M  V30 5949 H 545.19 4.085 -2.61444 0
M  V30 5950 H 541.069 4.38414 -1.42528 0
M  V30 5951 H 544.613 5.0501 -4.81259 0
M  V30 5952 H 540.51 5.34815 -3.61446 0
M  V30 5953 H 541.278 5.97591 -5.5931 0
M  V30 5954 N 543.941 0.601185 1.45683 0
M  V30 5955 C 545.187 0.0940202 2.02582 0
M  V30 5956 C 545.52 -1.26972 1.46941 0
M  V30 5957 O 544.795 -1.83613 0.641612 0
M  V30 5958 C 545.078 0.0481715 3.60068 0
M  V30 5959 C 544.931 1.44212 4.26055 0
M  V30 5960 C 546.25 -0.642975 4.35378 0
M  V30 5961 H 543.369 0.0356404 0.736138 0
M  V30 5962 H 546.011 0.771929 1.73612 0
M  V30 5963 H 544.161 -0.529128 3.8488 0
M  V30 5964 H 545.833 2.06601 4.12449 0
M  V30 5965 H 544.076 2.00465 3.84703 0
M  V30 5966 H 544.747 1.36234 5.34925 0
M  V30 5967 H 547.223 -0.152351 4.15821 0
M  V30 5968 H 546.099 -0.644141 5.45107 0
M  V30 5969 H 546.36 -1.70785 4.0778 0
M  V30 5970 N 545.419 -1.53889 0.339982 0
M  V30 5971 C 546.647 -2.05271 -0.259114 0
M  V30 5972 C 547.062 -1.21517 -1.44496 0
M  V30 5973 O 546.419 -0.24966 -1.80784 0
M  V30 5974 C 546.47 -3.55092 -0.677634 0
M  V30 5975 O 546.191 -4.35667 0.461051 0
M  V30 5976 C 547.692 -4.22631 -1.33782 0
M  V30 5977 H 544.912 -0.669085 -0.0506566 0
M  V30 5978 H 547.456 -1.9852 0.490935 0
M  V30 5979 H 545.611 -3.62077 -1.37763 0
M  V30 5980 H 546.025 -5.24343 0.128144 0
M  V30 5981 H 547.499 -5.28861 -1.58145 0
M  V30 5982 H 547.976 -3.74758 -2.29027 0
M  V30 5983 H 548.582 -4.19829 -0.679957 0
M  V30 5984 N 546.897 -0.0685191 -1.57451 0
M  V30 5985 C 548.125 0.610462 -1.97689 0
M  V30 5986 C 548.54 1.63346 -0.946758 0
M  V30 5987 O 547.897 1.82377 0.0669868 0
M  V30 5988 C 547.948 1.28196 -3.38006 0
M  V30 5989 O 547.669 0.299906 -4.37072 0
M  V30 5990 C 549.17 2.04907 -3.931 0
M  V30 5991 H 546.39 0.165689 -0.650222 0
M  V30 5992 H 548.934 -0.139953 -2.04021 0
M  V30 5993 H 547.089 1.98348 -3.32771 0
M  V30 5994 H 547.503 0.78126 -5.18649 0
M  V30 5995 H 548.977 2.47287 -4.93511 0
M  V30 5996 H 549.454 2.9043 -3.29465 0
M  V30 5997 H 550.06 1.39629 -4.01726 0
M  V30 5998 N 548.375 1.56261 0.205012 0
M  V30 5999 C 549.615 1.81823 0.933806 0
M  V30 6000 C 549.979 0.644534 1.80858 0
M  V30 6001 O 551.18 0.779819 2.5724 0
M  V30 6002 C 549.451 3.12362 1.7368 0
M  V30 6003 S 551.01 3.59296 2.51897 0
M  V30 6004 H 547.828 0.638209 0.313386 0
M  V30 6005 H 550.43 1.94495 0.198001 0
M  V30 6006 H 549.134 3.95809 1.08459 0
M  V30 6007 H 548.665 3.02542 2.5146 0
M  V30 6008 H 550.68 3.23945 3.75864 0
M  V30 6009 N 549.853 -0.472356 1.50355 0
M  V30 6010 C 551.101 -1.22211 1.60962 0
M  V30 6011 C 551.422 -1.92497 0.311439 0
M  V30 6012 O 550.692 -1.8405 -0.671002 0
M  V30 6013 H 549.272 -0.454092 0.593135 0
M  V30 6014 H 551.934 -0.544977 1.87126 0
M  V30 6015 H 551.03 -1.9707 2.42012 0
M  V30 6016 N 551.331 -1.39911 -0.725443 0
M  V30 6017 C 552.279 -1.39552 -1.86086 0
M  V30 6018 C 553.273 -0.277334 -1.67114 0
M  V30 6019 O 554.479 -0.447865 -1.74339 0
M  V30 6020 H 550.854 -0.435993 -0.612711 0
M  V30 6021 H 552.825 -2.35305 -1.83505 0
M  V30 6022 C 551.574 -1.26529 -3.2386 0
M  V30 6023 H 550.897 -2.11845 -3.3906 0
M  V30 6024 H 552.337 -1.30336 -4.03471 0
M  V30 6025 C 550.796 0.0254168 -3.3689 0
M  V30 6026 O 551.326 0.992048 -3.89257 0
M  V30 6027 N 549.532 0.0916528 -2.90455 0
M  V30 6028 H 549.079 -0.695675 -2.48028 0
M  V30 6029 H 549.037 0.954745 -2.99553 0
M  V30 6030 N 552.809 0.956637 -1.25245 0
M  V30 6031 C 554.037 1.73571 -1.12608 0
M  V30 6032 C 554.452 1.86063 0.320324 0
M  V30 6033 O 553.809 1.35691 1.22042 0
M  V30 6034 C 553.86 3.15053 -1.77268 0
M  V30 6035 O 553.581 3.03174 -3.16255 0
M  V30 6036 C 555.082 4.09248 -1.70386 0
M  V30 6037 H 552.302 0.543955 -0.392879 0
M  V30 6038 H 554.846 1.20031 -1.65568 0
M  V30 6039 H 553.001 3.65543 -1.28284 0
M  V30 6040 H 553.415 3.9241 -3.48015 0
M  V30 6041 H 554.889 5.06138 -2.20291 0
M  V30 6042 H 555.366 4.34102 -0.667239 0
M  V30 6043 H 555.972 3.64672 -2.18849 0
M  V30 6044 N 554.287 1.06798 1.15896 0
M  V30 6045 C 555.234 0.683314 2.20453 0
M  V30 6046 C 556.204 -0.32255 1.62938 0
M  V30 6047 O 557.389 -0.210276 1.89638 0
M  V30 6048 C 554.529 0.0813266 3.45004 0
M  V30 6049 C 553.642 1.13799 4.16742 0
M  V30 6050 C 552.777 0.501598 5.28826 0
M  V30 6051 C 551.816 1.54144 5.92373 0
M  V30 6052 N 550.953 0.928038 6.9594 0
M  V30 6053 H 555.793 1.57932 2.52708 0
M  V30 6054 H 553.33 0.789544 1.24115 0
M  V30 6055 H 555.288 -0.285274 4.16224 0
M  V30 6056 H 553.918 -0.77806 3.13283 0
M  V30 6057 H 552.97 1.62223 3.44075 0
M  V30 6058 H 554.282 1.92664 4.60089 0
M  V30 6059 H 553.436 0.0823162 6.06644 0
M  V30 6060 H 552.175 -0.318883 4.86656 0
M  V30 6061 H 551.18 1.97056 5.13273 0
M  V30 6062 H 552.405 2.3641 6.36621 0
M  V30 6063 H 550.351 0.12836 6.55874 0
M  V30 6064 H 550.268 1.65401 7.37685 0
M  V30 6065 H 551.536 0.534071 7.77668 0
M  V30 6066 N 555.766 -1.3263 0.851289 0
M  V30 6067 C 556.696 -2.31449 0.308771 0
M  V30 6068 C 557.677 -1.59531 -0.590255 0
M  V30 6069 O 558.862 -1.87351 -0.511205 0
M  V30 6070 C 555.992 -3.43586 -0.506548 0
M  V30 6071 C 554.946 -4.26963 0.297753 0
M  V30 6072 C 554.272 -5.30831 -0.642094 0
M  V30 6073 C 555.572 -4.99643 1.52166 0
M  V30 6074 H 557.266 -2.77074 1.13447 0
M  V30 6075 H 554.812 -1.33207 0.546971 0
M  V30 6076 H 556.765 -4.11754 -0.896474 0
M  V30 6077 H 555.489 -2.96681 -1.36558 0
M  V30 6078 H 554.148 -3.60437 0.669391 0
M  V30 6079 H 553.796 -4.8018 -1.49788 0
M  V30 6080 H 553.496 -5.87501 -0.107968 0
M  V30 6081 H 555.02 -6.01862 -1.02927 0
M  V30 6082 H 556.434 -5.6051 1.20421 0
M  V30 6083 H 554.831 -5.66022 1.99347 0
M  V30 6084 H 555.901 -4.27701 2.28474 0
M  V30 6085 N 557.244 -0.608902 -1.45362 0
M  V30 6086 C 558.655 -0.189511 -1.85736 0
M  V30 6087 C 559.006 1.2539 -1.50903 0
M  V30 6088 O 558.131 1.95094 -0.936347 0
M  V30 6089 C 558.726 -0.33716 -3.37118 0
M  V30 6090 C 557.285 0.0275487 -3.7639 0
M  V30 6091 C 556.432 -0.660983 -2.69307 0
M  V30 6092 H 559.383 -0.815499 -1.36144 0
M  V30 6093 H 559.404 0.430257 -3.7806 0
M  V30 6094 H 558.916 -1.38779 -3.62439 0
M  V30 6095 H 557.017 1.0773 -3.56686 0
M  V30 6096 H 557.13 -0.367018 -4.77692 0
M  V30 6097 H 555.494 -0.0984958 -2.54509 0
M  V30 6098 H 556.277 -1.71377 -2.97464 0
M  V30 6099 N 558.722 1.53707 -0.348139 0
M  V30 6100 C 559.95 2.05406 0.248224 0
M  V30 6101 C 560.365 1.22282 1.43849 0
M  V30 6102 O 559.722 0.259244 1.80649 0
M  V30 6103 C 559.773 3.55446 0.658793 0
M  V30 6104 O 559.494 4.35417 -0.484149 0
M  V30 6105 C 560.995 4.23335 1.31539 0
M  V30 6106 H 558.215 0.669344 0.0471075 0
M  V30 6107 H 560.759 1.98257 -0.501456 0
M  V30 6108 H 558.914 3.62803 1.35841 0
M  V30 6109 H 559.328 5.24268 -0.155949 0
M  V30 6110 H 560.802 5.29692 1.55338 0
M  V30 6111 H 561.279 3.75967 2.27036 0
M  V30 6112 H 561.885 4.20184 0.657683 0
M  V30 6113 N 560.2 0.0768682 1.57412 0
M  V30 6114 C 561.13 -0.886026 2.16037 0
M  V30 6115 C 562.111 -1.30691 1.08876 0
M  V30 6116 O 563.296 -1.37705 1.36934 0
M  V30 6117 C 560.426 -2.1518 2.72608 0
M  V30 6118 C 559.38 -1.87015 3.8498 0
M  V30 6119 C 558.706 -3.20266 4.28175 0
M  V30 6120 C 560.006 -1.17143 5.08994 0
M  V30 6121 H 561.7 -0.397642 2.96748 0
M  V30 6122 H 559.246 -0.189823 1.42743 0
M  V30 6123 H 561.199 -2.82962 3.12266 0
M  V30 6124 H 559.923 -2.66269 1.89125 0
M  V30 6125 H 558.582 -1.21636 3.45833 0
M  V30 6126 H 558.23 -3.69207 3.41607 0
M  V30 6127 H 557.93 -3.0221 5.03927 0
M  V30 6128 H 559.454 -3.89237 4.70454 0
M  V30 6129 H 560.868 -1.75003 5.45937 0
M  V30 6130 H 559.265 -1.09328 5.90057 0
M  V30 6131 H 560.335 -0.151295 4.84664 0
M  V30 6132 N 561.678 -1.56367 -0.196722 0
M  V30 6133 C 562.588 -1.97617 -1.2643 0
M  V30 6134 C 563.604 -0.883598 -1.49895 0
M  V30 6135 O 564.78 -1.18921 -1.62541 0
M  V30 6136 C 561.845 -2.30595 -2.58895 0
M  V30 6137 C 560.906 -3.53551 -2.43516 0
M  V30 6138 C 560.139 -3.84946 -3.69665 0
M  V30 6139 O 560.362 -3.17655 -4.73763 0
M  V30 6140 O 559.296 -4.78379 -3.65291 0
M  V30 6141 H 563.122 -2.88648 -0.944233 0
M  V30 6142 H 560.707 -1.43901 -0.401592 0
M  V30 6143 H 562.589 -2.52889 -3.37083 0
M  V30 6144 H 561.264 -1.42732 -2.90533 0
M  V30 6145 H 560.171 -3.36507 -1.63445 0
M  V30 6146 H 561.504 -4.41875 -2.16812 0
M  V30 6147 N 563.156 0.464375 -1.50603 0
M  V30 6148 C 564.386 1.23727 -1.65454 0
M  V30 6149 C 564.794 1.86119 -0.340032 0
M  V30 6150 O 564.137 1.70301 0.688706 0
M  V30 6151 C 564.199 2.38153 -2.69301 0
M  V30 6152 C 563.863 1.96345 -4.12671 0
M  V30 6153 C 564.86 1.48215 -4.98326 0
M  V30 6154 C 562.545 2.04861 -4.58625 0
M  V30 6155 C 564.539 1.09152 -6.27985 0
M  V30 6156 C 562.226 1.65409 -5.88288 0
M  V30 6157 C 563.224 1.17634 -6.72794 0
M  V30 6158 O 562.912 0.787312 -8.00035 0
M  V30 6159 H 562.644 0.380075 -0.559034 0
M  V30 6160 H 565.198 0.559919 -1.97621 0
M  V30 6161 H 563.428 3.09081 -2.32392 0
M  V30 6162 H 565.117 3.00099 -2.73304 0
M  V30 6163 H 565.883 1.41052 -4.64036 0
M  V30 6164 H 561.762 2.40996 -3.92991 0
M  V30 6165 H 565.306 0.717909 -6.93896 0
M  V30 6166 H 561.203 1.72233 -6.22098 0
M  V30 6167 H 561.971 0.915567 -8.13363 0
M  V30 6168 N 564.634 1.40294 0.718013 0
M  V30 6169 C 566.05 1.2227 1.02577 0
M  V30 6170 C 566.25 0.0961976 2.0127 0
M  V30 6171 O 565.306 -0.546695 2.46511 0
M  V30 6172 C 566.619 2.56348 1.57182 0
M  V30 6173 C 568.167 2.6334 1.69178 0
M  V30 6174 C 568.642 3.9768 2.27188 0
M  V30 6175 N 570.133 3.99409 2.34578 0
M  V30 6176 C 570.868 5.00141 2.8044 0
M  V30 6177 N 570.364 6.11268 3.26073 0
M  V30 6178 N 572.157 4.87511 2.79802 0
M  V30 6179 H 564.308 2.12304 0.0637899 0
M  V30 6180 H 566.571 0.943632 0.0909036 0
M  V30 6181 H 566.277 3.3942 0.921262 0
M  V30 6182 H 566.151 2.77266 2.55741 0
M  V30 6183 H 568.538 1.80641 2.33351 0
M  V30 6184 H 568.619 2.46255 0.692247 0
M  V30 6185 H 568.263 4.80817 1.63638 0
M  V30 6186 H 568.193 4.12093 3.27852 0
M  V30 6187 H 570.684 3.19162 2.02346 0
M  V30 6188 H 570.997 6.84023 3.59628 0
M  V30 6189 H 569.342 6.14837 3.24038 0
M  V30 6190 H 572.533 3.9979 2.43487 0
M  V30 6191 H 572.706 5.66158 3.15228 0
M  V30 6192 N 566.112 -0.949982 1.2575 0
M  V30 6193 C 567.337 -1.73503 1.13628 0
M  V30 6194 C 567.762 -1.85601 -0.30559 0
M  V30 6195 O 567.12 -1.33984 -1.22139 0
M  V30 6196 C 567.168 -3.1243 1.80055 0
M  V30 6197 O 566.272 -3.97916 1.08336 0
M  V30 6198 H 565.613 -0.532665 0.396439 0
M  V30 6199 H 568.143 -1.19043 1.66403 0
M  V30 6200 H 568.153 -3.62866 1.86527 0
M  V30 6201 H 566.828 -3.02941 2.84956 0
M  V30 6202 H 565.405 -3.56375 1.09777 0
M  V30 6203 N 567.59 -1.07411 -1.15328 0
M  V30 6204 C 569.001 -0.820261 -1.67716 0
M  V30 6205 C 569.352 0.654539 -1.8496 0
M  V30 6206 O 568.477 1.50664 -1.55337 0
M  V30 6207 C 569.072 -1.48242 -3.04647 0
M  V30 6208 C 567.631 -1.27606 -3.5411 0
M  V30 6209 C 566.778 -1.5517 -2.29821 0
M  V30 6210 H 569.729 -1.23608 -0.995332 0
M  V30 6211 H 569.75 -0.903984 -3.69606 0
M  V30 6212 H 569.262 -2.55578 -2.92064 0
M  V30 6213 H 567.363 -0.222948 -3.71932 0
M  V30 6214 H 567.476 -1.99667 -4.35511 0
M  V30 6215 H 565.84 -0.972747 -2.35393 0
M  V30 6216 H 566.623 -2.63689 -2.19824 0
M  V30 6217 N 569.068 1.32177 -0.85831 0
M  V30 6218 C 570.016 2.30729 -0.294442 0
M  V30 6219 C 571.01 1.59009 0.584165 0
M  V30 6220 O 572.216 1.73713 0.471562 0
M  V30 6221 H 568.591 0.748097 -0.0765171 0
M  V30 6222 H 570.562 2.75774 -1.1398 0
M  V30 6223 C 569.311 3.44098 0.499208 0
M  V30 6224 H 568.634 3.99449 -0.167579 0
M  V30 6225 H 570.074 4.15202 0.859273 0
M  V30 6226 C 568.533 2.91684 1.68588 0
M  V30 6227 O 569.063 2.89481 2.78503 0
M  V30 6228 N 567.269 2.48036 1.51415 0
M  V30 6229 H 566.816 2.50027 0.620006 0
M  V30 6230 H 566.774 2.13322 2.30957 0
M  V30 6231 N 570.547 0.616602 1.45037 0
M  V30 6232 C 571.494 -0.0969439 2.30596 0
M  V30 6233 C 572.464 -0.851151 1.42635 0
M  V30 6234 O 573.649 -0.835092 1.71554 0
M  V30 6235 C 570.789 -1.08234 3.27688 0
M  V30 6236 C 569.902 -0.328072 4.30752 0
M  V30 6237 C 569.037 -1.30399 5.14946 0
M  V30 6238 C 568.076 -0.538049 6.09731 0
M  V30 6239 N 567.213 -1.46371 6.86673 0
M  V30 6240 H 572.053 0.63864 2.91076 0
M  V30 6241 H 569.59 0.326733 1.43425 0
M  V30 6242 H 571.548 -1.66688 3.82454 0
M  V30 6243 H 570.178 -1.78523 2.68941 0
M  V30 6244 H 569.23 0.372136 3.78575 0
M  V30 6245 H 570.542 0.269142 4.98073 0
M  V30 6246 H 569.696 -1.96032 5.74157 0
M  V30 6247 H 568.435 -1.93514 4.47665 0
M  V30 6248 H 567.44 0.131852 5.49642 0
M  V30 6249 H 568.665 0.0881732 6.79043 0
M  V30 6250 H 566.611 -2.08233 6.22073 0
M  V30 6251 H 566.528 -0.920152 7.50379 0
M  V30 6252 H 567.796 -2.10932 7.50418 0
M  V30 6253 N 572.025 -1.5352 0.356285 0
M  V30 6254 C 573.271 -2.01414 -0.236653 0
M  V30 6255 C 573.604 -1.24339 -1.49176 0
M  V30 6256 O 572.879 -0.334496 -1.91602 0
M  V30 6257 C 573.162 -3.56059 -0.537982 0
M  V30 6258 C 573.015 -4.43835 0.730112 0
M  V30 6259 C 574.334 -4.19127 -1.34239 0
M  V30 6260 H 571.453 -0.732135 -0.0845386 0
M  V30 6261 H 574.095 -1.83854 0.479341 0
M  V30 6262 H 572.245 -3.71153 -1.14795 0
M  V30 6263 H 573.917 -4.40555 1.36782 0
M  V30 6264 H 572.16 -4.1218 1.3524 0
M  V30 6265 H 572.831 -5.49958 0.474358 0
M  V30 6266 H 575.307 -4.07809 -0.826498 0
M  V30 6267 H 574.183 -5.27378 -1.52198 0
M  V30 6268 H 574.444 -3.74581 -2.34822 0
M  V30 6269 N 573.503 -0.0852151 -1.57369 0
M  V30 6270 C 574.733 0.588605 -1.98038 0
M  V30 6271 C 575.141 1.62869 -0.962817 0
M  V30 6272 O 574.484 1.83611 0.057134 0
M  V30 6273 C 574.546 1.30303 -3.35054 0
M  V30 6274 C 574.21 0.414855 -4.55113 0
M  V30 6275 C 575.207 -0.333011 -5.18832 0
M  V30 6276 C 572.892 0.335804 -5.01176 0
M  V30 6277 C 574.886 -1.14801 -6.26976 0
M  V30 6278 C 572.573 -0.482857 -6.09189 0
M  V30 6279 C 573.571 -1.22342 -6.71953 0
M  V30 6280 O 573.259 -2.02855 -7.77885 0
M  V30 6281 H 572.991 0.163249 -0.655992 0
M  V30 6282 H 575.545 -0.1582 -2.0479 0
M  V30 6283 H 573.775 2.0962 -3.24956 0
M  V30 6284 H 575.464 1.87041 -3.60237 0
M  V30 6285 H 576.23 -0.281611 -4.84182 0
M  V30 6286 H 572.109 0.901869 -4.52092 0
M  V30 6287 H 575.653 -1.72654 -6.75897 0
M  V30 6288 H 571.55 -0.535773 -6.43273 0
M  V30 6289 H 572.318 -1.95432 -7.94826 0
M  V30 6290 N 574.981 1.5647 0.188427 0
M  V30 6291 C 576.209 1.85131 0.923803 0
M  V30 6292 C 576.624 0.668537 1.76567 0
M  V30 6293 O 575.981 -0.362662 1.7886 0
M  V30 6294 C 576.032 3.12661 1.81453 0
M  V30 6295 O 575.753 4.26378 1.00665 0
M  V30 6296 C 577.254 3.54548 2.66103 0
M  V30 6297 H 574.474 0.614624 0.269218 0
M  V30 6298 H 577.018 2.03581 0.193671 0
M  V30 6299 H 575.173 2.96088 2.49821 0
M  V30 6300 H 575.587 4.99041 1.61425 0
M  V30 6301 H 577.061 4.4673 3.24247 0
M  V30 6302 H 577.538 2.77853 3.40139 0
M  V30 6303 H 578.144 3.73674 2.03096 0
M  V30 6304 N 576.459 -0.456382 1.50847 0
M  V30 6305 C 577.389 -1.56025 1.73719 0
M  V30 6306 C 578.37 -1.5967 0.586473 0
M  V30 6307 O 579.555 -1.75702 0.827185 0
M  V30 6308 C 576.685 -2.94251 1.84483 0
M  V30 6309 C 575.639 -3.05471 2.99786 0
M  V30 6310 C 574.965 -4.45489 2.95709 0
M  V30 6311 C 576.265 -2.81318 4.40065 0
M  V30 6312 H 577.959 -1.37138 2.66146 0
M  V30 6313 H 575.505 -0.658299 1.28072 0
M  V30 6314 H 577.458 -3.71417 1.99067 0
M  V30 6315 H 576.182 -3.14328 0.886891 0
M  V30 6316 H 574.841 -2.30741 2.84876 0
M  V30 6317 H 574.489 -4.62505 1.97732 0
M  V30 6318 H 574.189 -4.53929 3.73125 0
M  V30 6319 H 575.713 -5.24655 3.12362 0
M  V30 6320 H 577.127 -3.48226 4.55425 0
M  V30 6321 H 575.524 -3.01188 5.19043 0
M  V30 6322 H 576.594 -1.7706 4.51418 0
M  V30 6323 N 577.937 -1.40673 -0.710563 0
M  V30 6324 C 578.847 -1.43663 -1.85467 0
M  V30 6325 C 579.863 -0.328721 -1.70867 0
M  V30 6326 O 581.039 -0.574098 -1.93044 0
M  V30 6327 C 578.104 -1.30226 -3.21313 0
M  V30 6328 C 577.165 -2.51204 -3.48131 0
M  V30 6329 C 576.398 -2.38398 -4.77495 0
M  V30 6330 O 576.621 -1.40048 -5.5294 0
M  V30 6331 O 575.555 -3.2787 -5.04762 0
M  V30 6332 H 579.381 -2.40156 -1.859 0
M  V30 6333 H 576.966 -1.22049 -0.861652 0
M  V30 6334 H 578.848 -1.2496 -4.02446 0
M  V30 6335 H 577.523 -0.368419 -3.21597 0
M  V30 6336 H 576.43 -2.62048 -2.66987 0
M  V30 6337 H 577.763 -3.43366 -3.52648 0
M  V30 6338 N 579.415 0.9433 -1.26252 0
M  V30 6339 C 580.826 1.50404 -1.10614 0
M  V30 6340 C 581.177 1.93666 0.31429 0
M  V30 6341 O 580.302 1.79709 1.20555 0
M  V30 6342 C 580.897 2.73336 -2.00182 0
M  V30 6343 C 579.456 3.25686 -1.88695 0
M  V30 6344 C 578.603 1.98474 -1.93658 0
M  V30 6345 H 581.554 0.759006 -1.39373 0
M  V30 6346 H 581.575 3.47567 -1.54847 0
M  V30 6347 H 581.087 2.41818 -3.03555 0
M  V30 6348 H 579.188 3.61998 -0.882489 0
M  V30 6349 H 579.301 3.92935 -2.74115 0
M  V30 6350 H 577.665 2.14278 -1.37684 0
M  V30 6351 H 578.448 1.6929 -2.98657 0
M  V30 6352 N 580.893 1.08022 1.14757 0
M  V30 6353 C 581.84 0.706657 2.19716 0
M  V30 6354 C 582.81 -0.30525 1.63271 0
M  V30 6355 O 583.995 -0.19015 1.8985 0
M  V30 6356 C 581.135 0.117914 3.44898 0
M  V30 6357 C 580.248 1.18212 4.15512 0
M  V30 6358 C 579.383 0.557659 5.28265 0
M  V30 6359 C 578.422 1.60418 5.90705 0
M  V30 6360 N 577.559 1.0018 6.94916 0
M  V30 6361 H 582.399 1.60603 2.51019 0
M  V30 6362 H 579.936 0.802664 1.23271 0
M  V30 6363 H 581.894 -0.241112 4.16503 0
M  V30 6364 H 580.524 -0.744788 3.1409 0
M  V30 6365 H 579.576 1.65863 3.42335 0
M  V30 6366 H 580.888 1.97533 4.5802 0
M  V30 6367 H 580.042 0.146654 6.06523 0
M  V30 6368 H 578.781 -0.267249 4.86967 0
M  V30 6369 H 577.786 2.02489 5.11154 0
M  V30 6370 H 579.011 2.43149 6.34078 0
M  V30 6371 H 576.957 0.197917 6.55701 0
M  V30 6372 H 576.874 1.73216 7.35889 0
M  V30 6373 H 578.142 0.616523 7.77058 0
M  V30 6374 N 582.371 -1.3172 0.865308 0
M  V30 6375 C 583.303 -2.27545 0.274906 0
M  V30 6376 C 584.316 -1.52887 -0.559413 0
M  V30 6377 O 585.505 -1.74361 -0.382166 0
M  V30 6378 C 582.605 -3.33006 -0.629286 0
M  V30 6379 C 581.778 -4.37063 0.171553 0
M  V30 6380 C 580.837 -5.22044 -0.660052 0
M  V30 6381 O 579.863 -5.69129 -0.0897527 0
M  V30 6382 N 581.065 -5.45946 -1.97289 0
M  V30 6383 H 583.83 -2.78848 1.09836 0
M  V30 6384 H 581.391 -1.44693 0.726331 0
M  V30 6385 H 583.383 -3.86772 -1.19121 0
M  V30 6386 H 581.953 -2.81782 -1.35342 0
M  V30 6387 H 581.173 -3.83436 0.914919 0
M  V30 6388 H 582.461 -5.03662 0.721235 0
M  V30 6389 H 581.859 -5.0944 -2.45942 0
M  V30 6390 H 580.416 -6.02665 -2.4827 0
M  V30 6391 N 583.85 -0.624285 -1.44708 0
M  V30 6392 C 585.08 -0.132726 -2.06173 0
M  V30 6393 C 585.488 1.19513 -1.46674 0
M  V30 6394 O 584.831 1.74254 -0.581491 0
M  V30 6395 C 584.893 0.0636732 -3.59444 0
M  V30 6396 C 584.557 -1.18496 -4.4137 0
M  V30 6397 C 585.553 -2.10706 -4.75288 0
M  V30 6398 C 583.239 -1.41846 -4.81856 0
M  V30 6399 C 585.233 -3.24582 -5.48567 0
M  V30 6400 C 582.92 -2.5602 -5.54885 0
M  V30 6401 C 583.918 -3.47215 -5.88159 0
M  V30 6402 O 583.606 -4.59399 -6.59703 0
M  V30 6403 H 583.338 -0.0737313 -0.671967 0
M  V30 6404 H 585.892 -0.856789 -1.86677 0
M  V30 6405 H 584.122 0.842809 -3.77404 0
M  V30 6406 H 585.811 0.508924 -4.02697 0
M  V30 6407 H 586.577 -1.93898 -4.44554 0
M  V30 6408 H 582.456 -0.717556 -4.55381 0
M  V30 6409 H 586 -3.95785 -5.74456 0
M  V30 6410 H 581.897 -2.72774 -5.85034 0
M  V30 6411 H 582.665 -4.58293 -6.78166 0
M  V30 6412 N 585.328 1.53329 -0.364422 0
M  V30 6413 C 586.258 2.28627 0.474543 0
M  V30 6414 C 587.239 1.31009 1.08492 0
M  V30 6415 O 588.424 1.59878 1.10239 0
M  V30 6416 C 585.554 3.07465 1.61501 0
M  V30 6417 C 584.508 4.1276 1.13194 0
M  V30 6418 C 583.834 4.79674 2.36255 0
M  V30 6419 C 585.134 5.21847 0.217507 0
M  V30 6420 H 586.828 2.99005 -0.153656 0
M  V30 6421 H 584.374 1.43803 -0.0753406 0
M  V30 6422 H 586.327 3.58889 2.20855 0
M  V30 6423 H 585.051 2.34775 2.27042 0
M  V30 6424 H 583.71 3.62281 0.56109 0
M  V30 6425 H 583.358 4.03557 3.00251 0
M  V30 6426 H 583.058 5.50827 2.04606 0
M  V30 6427 H 584.582 5.33892 2.96297 0
M  V30 6428 H 585.996 5.6878 0.718493 0
M  V30 6429 H 584.393 6.00099 -0.00806408 0
M  V30 6430 H 585.463 4.7921 -0.740653 0
M  V30 6431 N 586.806 0.0935595 1.57322 0
M  V30 6432 C 587.716 -0.880192 2.17462 0
M  V30 6433 C 588.732 -1.31135 1.14366 0
M  V30 6434 O 589.908 -1.37958 1.46729 0
M  V30 6435 C 586.973 -2.12184 2.74188 0
M  V30 6436 C 586.034 -1.74503 3.92234 0
M  V30 6437 C 585.267 -2.92748 4.46245 0
M  V30 6438 O 585.49 -4.07427 3.99198 0
M  V30 6439 O 584.424 -2.71303 5.37288 0
M  V30 6440 H 588.25 -0.398516 3.01074 0
M  V30 6441 H 585.835 -0.130707 1.48827 0
M  V30 6442 H 587.717 -2.84953 3.10451 0
M  V30 6443 H 586.392 -2.59407 1.93623 0
M  V30 6444 H 585.299 -0.989186 3.60785 0
M  V30 6445 H 586.632 -1.32044 4.74157 0
M  V30 6446 N 588.284 -1.56567 -0.180126 0
M  V30 6447 C 589.695 -1.7126 -0.743422 0
M  V30 6448 C 590.046 -0.70263 -1.83187 0
M  V30 6449 O 589.171 0.137856 -2.1596 0
M  V30 6450 C 589.766 -3.10512 -1.35528 0
M  V30 6451 C 588.325 -3.26919 -1.8655 0
M  V30 6452 C 587.472 -2.67213 -0.741099 0
M  V30 6453 H 590.423 -1.58636 0.0451543 0
M  V30 6454 H 590.444 -3.08673 -2.22489 0
M  V30 6455 H 589.956 -3.83997 -0.562862 0
M  V30 6456 H 588.057 -2.58376 -2.68464 0
M  V30 6457 H 588.17 -4.34574 -2.01699 0
M  V30 6458 H 586.534 -2.26788 -1.15927 0
M  V30 6459 H 587.317 -3.43277 0.0393291 0
M  V30 6460 N 589.762 0.448376 -1.51087 0
M  V30 6461 C 590.692 1.55102 -1.74544 0
M  V30 6462 C 591.673 1.59357 -0.594932 0
M  V30 6463 O 592.858 1.75261 -0.836491 0
M  V30 6464 C 589.988 2.93268 -1.86041 0
M  V30 6465 C 588.942 3.03877 -3.01402 0
M  V30 6466 C 588.268 4.43914 -2.98068 0
M  V30 6467 C 589.568 2.7898 -4.41551 0
M  V30 6468 H 591.262 1.35724 -2.66869 0
M  V30 6469 H 588.808 0.651498 -1.28419 0
M  V30 6470 H 590.761 3.70356 -2.01034 0
M  V30 6471 H 589.485 3.13853 -0.903548 0
M  V30 6472 H 588.144 2.29227 -2.86096 0
M  V30 6473 H 587.792 4.6145 -2.00182 0
M  V30 6474 H 587.492 4.51944 -3.75527 0
M  V30 6475 H 589.016 5.22991 -3.1514 0
M  V30 6476 H 590.43 3.45805 -4.57265 0
M  V30 6477 H 588.827 2.98431 -5.20633 0
M  V30 6478 H 589.897 1.74663 -4.5235 0
M  V30 6479 N 591.24 1.41047 0.703093 0
M  V30 6480 C 592.15 1.44645 1.84703 0
M  V30 6481 C 593.166 0.337778 1.7069 0
M  V30 6482 O 594.342 0.584327 1.92737 0
M  V30 6483 C 591.407 1.31928 3.20618 0
M  V30 6484 C 590.468 2.53047 3.46794 0
M  V30 6485 C 589.701 2.40927 4.76224 0
M  V30 6486 O 589.924 1.42978 5.5219 0
M  V30 6487 O 588.858 3.30543 5.03016 0
M  V30 6488 H 592.684 2.41139 1.84624 0
M  V30 6489 H 590.269 1.22504 0.855167 0
M  V30 6490 H 592.151 1.27092 4.01778 0
M  V30 6491 H 590.826 0.385469 3.21397 0
M  V30 6492 H 589.733 2.6346 2.65593 0
M  V30 6493 H 591.066 3.45231 3.50822 0
M  V30 6494 N 592.718 -0.936591 1.26751 0
M  V30 6495 C 593.666 -2.0573 1.08527 0
M  V30 6496 C 594.66 -1.69397 0.0108784 0
M  V30 6497 O 595.866 -1.79215 0.167915 0
M  V30 6498 H 592.241 -0.673691 0.334133 0
M  V30 6499 H 594.212 -2.1825 2.03493 0
M  V30 6500 C 592.961 -3.39738 0.739845 0
M  V30 6501 H 592.284 -3.68174 1.55845 0
M  V30 6502 H 593.724 -4.18955 0.652149 0
M  V30 6503 C 592.183 -3.32292 -0.555288 0
M  V30 6504 O 592.713 -3.68794 -1.59229 0
M  V30 6505 N 590.919 -2.85394 -0.54762 0
M  V30 6506 H 590.466 -2.55886 0.296667 0
M  V30 6507 H 590.424 -2.80795 -1.41427 0
M  V30 6508 N 594.196 -1.08629 -1.14182 0
M  V30 6509 C 595.445 -0.812271 -1.84621 0
M  V30 6510 C 595.758 0.664313 -1.83973 0
M  V30 6511 O 596.964 1.05357 -2.50224 0
M  V30 6512 C 595.42 -1.4031 -3.31423 0
M  V30 6513 C 595.028 -2.91164 -3.40481 0
M  V30 6514 C 596.772 -1.20767 -4.06959 0
M  V30 6515 C 594.679 -3.43373 -4.81507 0
M  V30 6516 H 593.609 -0.30019 -0.691666 0
M  V30 6517 H 596.26 -1.30798 -1.28701 0
M  V30 6518 H 594.642 -0.835096 -3.87094 0
M  V30 6519 H 595.816 -3.5412 -2.94848 0
M  V30 6520 H 594.131 -3.09646 -2.78403 0
M  V30 6521 H 596.728 -1.57237 -5.11058 0
M  V30 6522 H 597.071 -0.147664 -4.16038 0
M  V30 6523 H 597.604 -1.74274 -3.57594 0
M  V30 6524 H 594.343 -4.48958 -4.77616 0
M  V30 6525 H 593.863 -2.85176 -5.27669 0
M  V30 6526 H 595.542 -3.40095 -5.50404 0
M  V30 6527 N 595.674 1.31259 -0.872281 0
M  V30 6528 C 596.921 1.96622 -0.484365 0
M  V30 6529 C 597.249 1.68939 0.963841 0
M  V30 6530 O 596.504 0.97974 1.6941 0
M  V30 6531 C 596.803 3.50659 -0.690889 0
M  V30 6532 C 596.469 3.98366 -2.11224 0
M  V30 6533 C 595.131 4.11104 -2.50094 0
M  V30 6534 C 597.483 4.23425 -3.0391 0
M  V30 6535 C 594.811 4.46254 -3.80887 0
M  V30 6536 C 597.163 4.60039 -4.3422 0
M  V30 6537 C 595.827 4.70984 -4.73001 0
M  V30 6538 H 595.097 0.71949 -0.177242 0
M  V30 6539 H 597.744 1.56353 -1.10571 0
M  V30 6540 H 596.049 3.91798 0.0135782 0
M  V30 6541 H 597.746 3.99284 -0.370534 0
M  V30 6542 H 594.336 3.88949 -1.80047 0
M  V30 6543 H 598.52 4.13075 -2.75104 0
M  V30 6544 H 593.776 4.52926 -4.10692 0
M  V30 6545 H 597.95 4.78381 -5.06088 0
M  V30 6546 H 595.577 4.97977 -5.7439 0
M  V30 6547 N 597.152 0.631951 1.44375 0
M  V30 6548 C 598.377 0.142146 2.06912 0
M  V30 6549 C 598.802 -1.17456 1.4692 0
M  V30 6550 O 598.16 -1.72074 0.570975 0
M  V30 6551 C 598.208 0.0417952 3.60576 0
M  V30 6552 O 597.312 -1.00194 4.00044 0
M  V30 6553 H 596.653 0.0851491 0.658518 0
M  V30 6554 H 599.183 0.868863 1.85235 0
M  V30 6555 H 599.193 -0.148517 4.0773 0
M  V30 6556 H 597.868 1.0031 4.03622 0
M  V30 6557 H 596.445 -0.786131 3.64519 0
M  V30 6558 N 598.631 -1.53133 0.372548 0
M  V30 6559 C 599.594 -2.24569 -0.458389 0
M  V30 6560 C 600.594 -1.25603 -1.00402 0
M  V30 6561 O 601.784 -1.49827 -0.888672 0
M  V30 6562 C 598.916 -2.98783 -1.6414 0
M  V30 6563 H 600.109 -2.99436 0.166799 0
M  V30 6564 H 597.662 -1.55805 0.124357 0
M  V30 6565 H 598.397 -2.28176 -2.30448 0
M  V30 6566 H 598.182 -3.71404 -1.25704 0
M  V30 6567 H 599.672 -3.53068 -2.23008 0
M  V30 6568 N 600.109 -0.101901 -1.5727 0
M  V30 6569 C 601.039 0.851544 -2.17419 0
M  V30 6570 C 602.02 1.28942 -1.10941 0
M  V30 6571 O 603.205 1.35509 -1.39107 0
M  V30 6572 C 600.335 2.10816 -2.75996 0
M  V30 6573 C 599.289 1.80867 -3.87906 0
M  V30 6574 C 598.615 3.13413 -4.33216 0
M  V30 6575 C 599.915 1.0903 -5.10793 0
M  V30 6576 H 601.609 0.350381 -2.97343 0
M  V30 6577 H 599.155 0.16709 -1.43027 0
M  V30 6578 H 601.108 2.77959 -3.16729 0
M  V30 6579 H 599.832 2.63227 -1.93337 0
M  V30 6580 H 598.491 1.16119 -3.47724 0
M  V30 6581 H 598.139 3.63725 -3.47438 0
M  V30 6582 H 597.839 2.94155 -5.08671 0
M  V30 6583 H 599.363 3.81704 -4.76586 0
M  V30 6584 H 600.777 1.66295 -5.48652 0
M  V30 6585 H 599.174 0.99927 -5.91722 0
M  V30 6586 H 600.244 0.0741704 -4.84843 0
M  V30 6587 N 601.587 1.56661 0.17182 0
M  V30 6588 C 602.827 1.83762 0.895029 0
M  V30 6589 C 603.191 0.682752 1.79451 0
M  V30 6590 O 604.392 0.834208 2.55528 0
M  V30 6591 C 602.663 3.15976 1.67015 0
M  V30 6592 S 604.222 3.64558 2.44219 0
M  V30 6593 H 601.04 0.644713 0.299778 0
M  V30 6594 H 603.642 1.94871 0.156701 0
M  V30 6595 H 602.346 3.98021 1.00039 0
M  V30 6596 H 601.877 3.07807 2.44986 0
M  V30 6597 H 603.892 3.31845 3.68909 0
M  V30 6598 N 603.065 -0.440357 1.51323 0
M  V30 6599 C 603.998 -1.55414 1.67098 0
M  V30 6600 C 604.976 -1.54108 0.518599 0
M  V30 6601 O 606.16 -1.7328 0.742054 0
M  V30 6602 C 603.287 -2.93996 1.68179 0
M  V30 6603 C 602.333 -3.13338 2.89347 0
M  V30 6604 S 603.166 -2.89957 4.50206 0
M  V30 6605 C 604.322 -4.30826 4.54027 0
M  V30 6606 H 604.555 -1.41798 2.61306 0
M  V30 6607 H 602.088 -0.629841 1.40969 0
M  V30 6608 H 604.046 -3.73878 1.69487 0
M  V30 6609 H 602.707 -3.04976 0.751542 0
M  V30 6610 H 601.9 -4.14652 2.86495 0
M  V30 6611 H 601.502 -2.41276 2.85766 0
M  V30 6612 H 603.794 -5.23977 4.29481 0
M  V30 6613 H 604.737 -4.38712 5.55822 0
M  V30 6614 H 605.145 -4.1434 3.83384 0
M  V30 6615 N 604.543 -1.41418 -0.695603 0
M  V30 6616 C 605.473 -1.46035 -1.82197 0
M  V30 6617 C 606.454 -0.319025 -1.67082 0
M  V30 6618 O 607.639 -0.530462 -1.86815 0
M  V30 6619 C 604.769 -1.34179 -3.20333 0
M  V30 6620 C 603.723 -2.46123 -3.50154 0
M  V30 6621 C 603.049 -2.19332 -4.87645 0
M  V30 6622 C 604.349 -3.88463 -3.49133 0
M  V30 6623 H 606.043 -2.40303 -1.78591 0
M  V30 6624 H 603.589 -1.15663 -0.857797 0
M  V30 6625 H 605.542 -1.36021 -3.98844 0
M  V30 6626 H 604.266 -0.363952 -3.24566 0
M  V30 6627 H 602.925 -2.43563 -2.73994 0
M  V30 6628 H 602.573 -1.19891 -4.88503 0
M  V30 6629 H 602.273 -2.94344 -5.08562 0
M  V30 6630 H 603.797 -2.22889 -5.68465 0
M  V30 6631 H 605.211 -3.92738 -4.17648 0
M  V30 6632 H 603.608 -4.63158 -3.81582 0
M  V30 6633 H 604.678 -4.16617 -2.48109 0
M  V30 6634 N 606.021 0.929856 -1.27246 0
M  V30 6635 C 606.969 2.05151 -1.09616 0
M  V30 6636 C 607.963 1.69388 -0.0198617 0
M  V30 6637 O 609.169 1.79124 -0.177417 0
M  V30 6638 H 605.544 0.671909 -0.337701 0
M  V30 6639 H 607.515 2.17168 -2.04648 0
M  V30 6640 C 606.264 3.3934 -0.757851 0
M  V30 6641 H 605.587 3.67343 -1.57795 0
M  V30 6642 H 607.027 4.18603 -0.674358 0
M  V30 6643 C 605.486 3.32582 0.537658 0
M  V30 6644 O 606.016 3.69633 1.57271 0
M  V30 6645 N 604.222 2.8568 0.532478 0
M  V30 6646 H 603.769 2.55725 -0.310233 0
M  V30 6647 H 603.727 2.81541 1.39936 0
M  V30 6648 N 607.499 1.09233 1.13605 0
M  V30 6649 C 608.748 0.82205 1.84188 0
M  V30 6650 C 609.061 -0.654548 1.84323 0
M  V30 6651 O 610.267 -1.04029 2.50779 0
M  V30 6652 C 608.723 1.42066 3.30674 0
M  V30 6653 C 608.331 2.92965 3.38933 0
M  V30 6654 C 610.075 1.22924 4.06313 0
M  V30 6655 C 607.982 3.45922 4.79679 0
M  V30 6656 H 606.912 0.303854 0.690064 0
M  V30 6657 H 609.563 1.31479 1.28006 0
M  V30 6658 H 607.945 0.855613 3.86646 0
M  V30 6659 H 609.119 3.55679 2.92966 0
M  V30 6660 H 607.434 3.11118 2.76757 0
M  V30 6661 H 610.031 1.59945 5.10217 0
M  V30 6662 H 610.374 0.169726 4.15954 0
M  V30 6663 H 610.907 1.76168 3.56665 0
M  V30 6664 H 607.646 4.51484 4.75229 0
M  V30 6665 H 607.166 2.87971 5.26149 0
M  V30 6666 H 608.845 3.43009 5.48592 0
M  V30 6667 N 608.977 -1.30795 0.87923 0
M  V30 6668 C 610.223 -1.96653 0.495519 0
M  V30 6669 C 610.556 -1.69282 -0.951703 0
M  V30 6670 O 609.831 -0.994374 -1.6716 0
M  V30 6671 C 610.114 -3.51898 0.764174 0
M  V30 6672 C 609.967 -3.88808 2.2616 0
M  V30 6673 C 611.286 -4.39462 0.236825 0
M  V30 6674 H 608.405 -0.7143 0.181507 0
M  V30 6675 H 611.047 -1.54765 1.10217 0
M  V30 6676 H 609.197 -3.87709 0.247841 0
M  V30 6677 H 610.869 -3.63051 2.8459 0
M  V30 6678 H 609.112 -3.37082 2.73053 0
M  V30 6679 H 609.783 -4.97086 2.4002 0
M  V30 6680 H 612.259 -4.10528 0.678683 0
M  V30 6681 H 611.135 -5.47018 0.454176 0
M  V30 6682 H 611.396 -4.33621 -0.861683 0
M  V30 6683 N 610.455 -0.639598 -1.44038 0
M  V30 6684 C 611.866 -0.228866 -1.85292 0
M  V30 6685 C 612.217 1.22161 -1.53529 0
M  V30 6686 O 611.342 1.93064 -0.977518 0
M  V30 6687 C 611.937 -0.408592 -3.36327 0
M  V30 6688 C 610.496 -0.0522953 -3.76364 0
M  V30 6689 C 609.643 -0.717959 -2.67844 0
M  V30 6690 H 612.594 -0.844194 -1.34384 0
M  V30 6691 H 612.615 0.349968 -3.78887 0
M  V30 6692 H 612.127 -1.46435 -3.59414 0
M  V30 6693 H 610.228 1.0014 -3.58891 0
M  V30 6694 H 610.341 -0.468261 -4.76806 0
M  V30 6695 H 608.705 -0.152459 -2.54243 0
M  V30 6696 H 609.488 -1.77648 -2.93762 0
M  V30 6697 N 611.933 1.52934 -0.380664 0
M  V30 6698 C 613.182 2.00651 0.205477 0
M  V30 6699 C 613.495 1.27164 1.48623 0
M  V30 6700 O 614.701 1.65547 2.15189 0
M  V30 6701 C 613.157 3.57479 0.416726 0
M  V30 6702 C 612.765 4.39857 -0.850268 0
M  V30 6703 C 614.509 4.13509 0.959702 0
M  V30 6704 C 612.416 5.88269 -0.607773 0
M  V30 6705 H 611.346 0.749684 0.0805614 0
M  V30 6706 H 613.997 1.76508 -0.501732 0
M  V30 6707 H 612.379 3.77836 1.18557 0
M  V30 6708 H 613.553 4.31269 -1.62307 0
M  V30 6709 H 611.868 3.95005 -1.31756 0
M  V30 6710 H 614.465 5.22039 1.15669 0
M  V30 6711 H 614.808 3.69054 1.92626 0
M  V30 6712 H 615.341 3.9701 0.250645 0
M  V30 6713 H 612.08 6.3703 -1.54509 0
M  V30 6714 H 611.6 5.99667 0.126247 0
M  V30 6715 H 613.279 6.46558 -0.239014 0
M  V30 6716 N 613.412 0.11024 1.57214 0
M  V30 6717 C 614.689 -0.592956 1.86396 0
M  V30 6718 C 615.069 -1.85379 1.00985 0
M  V30 6719 O 614.417 -2.28337 0.0863592 0
M  V30 6720 C 614.627 -0.893816 3.3736 0
M  V30 6721 C 615.975 -1.25069 4.05762 0
M  V30 6722 O 616.999 -0.984356 3.42329 0
M  V30 6723 O 615.858 -1.75017 5.17718 0
M  V30 6724 H 612.952 -0.29828 0.771335 0
M  V30 6725 H 615.498 0.144083 1.69087 0
M  V30 6726 H 614.27 2.6031e-05 3.913 0
M  V30 6727 H 613.893 -1.68631 3.60068 0
M  V30 6728 N 614.89 -1.56749 -0.16351 0
M  V30 6729 C 615.82 -2.00042 -1.20438 0
M  V30 6730 C 616.801 -0.877256 -1.45733 0
M  V30 6731 O 617.986 -1.1439 -1.56935 0
M  V30 6732 C 615.116 -2.36697 -2.54149 0
M  V30 6733 C 614.07 -3.52046 -2.43408 0
M  V30 6734 C 613.396 -3.74466 -3.81679 0
M  V30 6735 C 614.696 -4.85247 -1.93216 0
M  V30 6736 H 616.39 -2.87244 -0.844477 0
M  V30 6737 H 613.936 -1.38194 -0.40478 0
M  V30 6738 H 615.889 -2.65582 -3.27176 0
M  V30 6739 H 614.613 -1.46414 -2.91943 0
M  V30 6740 H 613.272 -3.23301 -1.72834 0
M  V30 6741 H 612.92 -2.81461 -4.1688 0
M  V30 6742 H 612.62 -4.52084 -3.75359 0
M  V30 6743 H 614.144 -4.0576 -4.5628 0
M  V30 6744 H 615.558 -5.12957 -2.56023 0
M  V30 6745 H 613.955 -5.66556 -1.97825 0
M  V30 6746 H 615.025 -4.7672 -0.88689 0
M  V30 6747 N 616.368 0.432326 -1.51554 0
M  V30 6748 C 617.278 1.55023 -1.76082 0
M  V30 6749 C 618.294 1.61593 -0.645265 0
M  V30 6750 O 619.47 1.78742 -0.928086 0
M  V30 6751 C 616.535 2.90964 -1.88523 0
M  V30 6752 C 615.596 2.9447 -3.12388 0
M  V30 6753 C 614.829 4.23926 -3.24225 0
M  V30 6754 O 615.052 5.16576 -2.4188 0
M  V30 6755 O 613.986 4.33818 -4.17235 0
M  V30 6756 H 617.812 1.37238 -2.70923 0
M  V30 6757 H 615.397 0.615845 -1.36117 0
M  V30 6758 H 617.279 3.71633 -1.98662 0
M  V30 6759 H 615.954 3.08865 -0.9687 0
M  V30 6760 H 614.861 2.12737 -3.07723 0
M  V30 6761 H 616.194 2.81514 -4.03746 0
M  V30 6762 N 617.846 1.41785 0.688094 0
M  V30 6763 C 618.793 1.44221 1.80191 0
M  V30 6764 C 619.763 0.295688 1.63447 0
M  V30 6765 O 620.948 0.49783 1.84191 0
M  V30 6766 C 618.088 1.33743 3.1813 0
M  V30 6767 C 617.201 2.58325 3.46254 0
M  V30 6768 C 616.336 2.40086 4.73848 0
M  V30 6769 C 615.375 3.60107 4.94964 0
M  V30 6770 N 614.512 3.40892 6.13789 0
M  V30 6771 H 619.352 2.39411 1.77444 0
M  V30 6772 H 616.889 1.18876 0.866423 0
M  V30 6773 H 618.847 1.25669 3.97823 0
M  V30 6774 H 617.477 0.42157 3.20035 0
M  V30 6775 H 616.529 2.7682 2.60912 0
M  V30 6776 H 617.841 3.4758 3.57756 0
M  V30 6777 H 616.995 2.29522 5.61609 0
M  V30 6778 H 615.734 1.483 4.64606 0
M  V30 6779 H 614.739 3.71118 4.05649 0
M  V30 6780 H 615.964 4.52857 5.06061 0
M  V30 6781 H 613.91 2.51812 6.05745 0
M  V30 6782 H 613.827 4.23727 6.26092 0
M  V30 6783 H 615.095 3.34114 7.04264 0
M  V30 6784 N 619.324 -0.923095 1.27737 0
M  V30 6785 C 620.272 -2.04567 1.10703 0
M  V30 6786 C 621.266 -1.69375 0.0288445 0
M  V30 6787 O 622.472 -1.79027 0.186913 0
M  V30 6788 H 618.847 -0.670109 0.34126 0
M  V30 6789 H 620.818 -2.1608 2.05796 0
M  V30 6790 C 619.567 -3.38934 0.775837 0
M  V30 6791 H 618.89 -3.66501 1.59741 0
M  V30 6792 H 620.33 -4.18239 0.696548 0
M  V30 6793 C 618.789 -3.32863 -0.520012 0
M  V30 6794 O 619.319 -3.70462 -1.55308 0
M  V30 6795 N 617.525 -2.85958 -0.51732 0
M  V30 6796 H 617.072 -2.55557 0.32379 0
M  V30 6797 H 617.03 -2.82279 -1.38441 0
M  V30 6798 N 620.802 -1.09834 -1.13024 0
M  V30 6799 C 622.03 -0.858902 -1.8823 0
M  V30 6800 C 622.445 0.590164 -1.79339 0
M  V30 6801 O 621.802 1.4065 -1.16292 0
M  V30 6802 C 621.853 -1.29066 -3.37675 0
M  V30 6803 O 621.574 -2.6829 -3.46341 0
M  V30 6804 C 623.075 -1.08421 -4.29837 0
M  V30 6805 H 620.295 -0.308713 -0.595766 0
M  V30 6806 H 622.839 -1.4614 -1.4305 0
M  V30 6807 H 620.994 -0.731961 -3.80422 0
M  V30 6808 H 621.408 -2.86598 -4.39274 0
M  V30 6809 H 622.882 -1.43553 -5.33007 0
M  V30 6810 H 623.359 -0.0223315 -4.39194 0
M  V30 6811 H 623.965 -1.62907 -3.92863 0
M  V30 6812 N 622.28 1.30327 -0.886154 0
M  V30 6813 C 623.527 1.96097 -0.505192 0
M  V30 6814 C 623.855 1.69952 0.945868 0
M  V30 6815 O 623.11 0.997653 1.68361 0
M  V30 6816 C 623.409 3.49906 -0.728042 0
M  V30 6817 C 623.075 3.96103 -2.15437 0
M  V30 6818 C 621.737 4.08428 -2.5444 0
M  V30 6819 C 624.089 4.20177 -3.08384 0
M  V30 6820 C 621.417 4.42189 -3.85598 0
M  V30 6821 C 623.769 4.55407 -4.39075 0
M  V30 6822 C 622.433 4.65941 -4.7797 0
M  V30 6823 H 621.703 0.71757 -0.184863 0
M  V30 6824 H 624.35 1.55171 -1.12223 0
M  V30 6825 H 622.655 3.9179 -0.027978 0
M  V30 6826 H 624.352 3.98869 -0.412862 0
M  V30 6827 H 620.942 3.87017 -1.84162 0
M  V30 6828 H 625.126 4.10134 -2.7947 0
M  V30 6829 H 620.382 4.48544 -4.15473 0
M  V30 6830 H 624.556 4.72986 -5.11133 0
M  V30 6831 H 622.183 4.91856 -5.79639 0
M  V30 6832 N 623.758 0.647228 1.43697 0
M  V30 6833 C 625.004 0.158422 2.0218 0
M  V30 6834 C 625.337 -1.22233 1.50907 0
M  V30 6835 O 624.612 -1.81478 0.699702 0
M  V30 6836 C 624.895 0.1627 3.59732 0
M  V30 6837 C 624.748 1.57694 4.21251 0
M  V30 6838 C 626.067 -0.504138 4.37203 0
M  V30 6839 H 623.186 0.059042 0.734631 0
M  V30 6840 H 625.828 0.826772 1.71069 0
M  V30 6841 H 623.978 -0.406414 3.86368 0
M  V30 6842 H 625.65 2.19618 4.05667 0
M  V30 6843 H 623.893 2.12603 3.7813 0
M  V30 6844 H 624.564 1.53183 5.3032 0
M  V30 6845 H 627.04 -0.0199841 4.16095 0
M  V30 6846 H 625.916 -0.470394 5.46881 0
M  V30 6847 H 626.177 -1.57726 4.13007 0
M  V30 6848 N 625.236 -1.5273 0.388769 0
M  V30 6849 C 626.166 -2.29353 -0.438111 0
M  V30 6850 C 627.147 -1.32719 -1.06394 0
M  V30 6851 O 628.332 -1.61612 -1.07681 0
M  V30 6852 C 625.462 -3.09995 -1.56589 0
M  V30 6853 C 624.416 -4.14509 -1.06613 0
M  V30 6854 C 623.742 -4.83372 -2.28594 0
M  V30 6855 C 625.042 -5.22127 -0.134459 0
M  V30 6856 H 626.736 -2.98723 0.201206 0
M  V30 6857 H 624.282 -1.43665 0.0982089 0
M  V30 6858 H 626.235 -3.62357 -2.15118 0
M  V30 6859 H 624.959 -2.38357 -2.23279 0
M  V30 6860 H 623.618 -3.63128 -0.503383 0
M  V30 6861 H 623.266 -4.08283 -2.93792 0
M  V30 6862 H 622.966 -5.54012 -1.95817 0
M  V30 6863 H 624.49 -5.38538 -2.87766 0
M  V30 6864 H 625.904 -5.69851 -0.627914 0
M  V30 6865 H 624.301 -6.00011 0.103534 0
M  V30 6866 H 625.371 -4.77971 0.816798 0
M  V30 6867 N 626.714 -0.118576 -1.57153 0
M  V30 6868 C 627.962 0.538461 -1.94795 0
M  V30 6869 C 628.283 1.67243 -1.00274 0
M  V30 6870 O 627.553 1.95811 -0.0589692 0
M  V30 6871 H 626.133 0.201904 -0.719197 0
M  V30 6872 H 628.795 -0.187418 -1.93997 0
M  V30 6873 H 627.891 0.933315 -2.97818 0
M  V30 6874 N 628.193 1.56834 0.155195 0
M  V30 6875 C 629.47 1.73799 0.897395 0
M  V30 6876 C 629.85 0.684379 1.99698 0
M  V30 6877 O 629.198 -0.298111 2.26547 0
M  V30 6878 C 629.408 3.17572 1.44737 0
M  V30 6879 C 630.756 3.79014 1.91399 0
M  V30 6880 O 631.78 3.20951 1.54496 0
M  V30 6881 O 630.639 4.80998 2.59429 0
M  V30 6882 H 627.733 0.710329 0.423511 0
M  V30 6883 H 630.279 1.69107 0.141761 0
M  V30 6884 H 629.051 3.85749 0.656741 0
M  V30 6885 H 628.674 3.26657 2.26674 0
M  V30 6886 N 629.671 -0.424282 1.51781 0
M  V30 6887 C 631.082 -1.00368 1.57427 0
M  V30 6888 C 631.433 -1.91962 0.40558 0
M  V30 6889 O 630.558 -2.111 -0.47601 0
M  V30 6890 C 631.153 -1.82707 2.85313 0
M  V30 6891 C 629.712 -2.35675 2.93487 0
M  V30 6892 C 628.859 -1.1524 2.5222 0
M  V30 6893 H 631.81 -0.205064 1.5737 0
M  V30 6894 H 631.831 -2.68294 2.69812 0
M  V30 6895 H 631.343 -1.16017 3.70353 0
M  V30 6896 H 629.444 -3.05781 2.12906 0
M  V30 6897 H 629.557 -2.67578 3.97415 0
M  V30 6898 H 627.921 -1.50174 2.05718 0
M  V30 6899 H 628.704 -0.5014 3.39619 0
M  V30 6900 N 631.149 -1.42148 -0.680565 0
M  V30 6901 C 632.396 -1.4231 -1.44063 0
M  V30 6902 C 632.724 -0.037488 -1.94464 0
M  V30 6903 O 631.979 0.953184 -1.70918 0
M  V30 6904 C 632.278 -2.38945 -2.65782 0
M  V30 6905 C 631.944 -3.85455 -2.33956 0
M  V30 6906 C 630.606 -4.25364 -2.24987 0
M  V30 6907 C 632.958 -4.77895 -2.08004 0
M  V30 6908 C 630.286 -5.55701 -1.88184 0
M  V30 6909 C 632.638 -6.08568 -1.72706 0
M  V30 6910 C 631.302 -6.47482 -1.62244 0
M  V30 6911 H 630.572 -0.520748 -0.527164 0
M  V30 6912 H 633.219 -1.7505 -0.776524 0
M  V30 6913 H 631.524 -1.99511 -3.37198 0
M  V30 6914 H 633.221 -2.36336 -3.23954 0
M  V30 6915 H 629.811 -3.53855 -2.41836 0
M  V30 6916 H 633.995 -4.47854 -2.1387 0
M  V30 6917 H 629.251 -5.84718 -1.78648 0
M  V30 6918 H 633.425 -6.79688 -1.5165 0
M  V30 6919 H 631.052 -7.48387 -1.33496 0
M  V30 6920 N 632.627 0.916307 -1.28225 0
M  V30 6921 C 633.56 2.01954 -1.06254 0
M  V30 6922 C 634.538 1.62587 0.0205983 0
M  V30 6923 O 635.722 1.88073 -0.126824 0
M  V30 6924 C 632.849 3.33086 -0.614141 0
M  V30 6925 C 631.895 3.91435 -1.69354 0
M  V30 6926 S 632.728 4.22603 -3.28887 0
M  V30 6927 C 633.884 5.568 -2.85876 0
M  V30 6928 H 634.117 2.20281 -1.99659 0
M  V30 6929 H 631.65 1.06085 -1.12184 0
M  V30 6930 H 633.608 4.089 -0.36213 0
M  V30 6931 H 632.269 3.12664 0.300036 0
M  V30 6932 H 631.462 4.86098 -1.33136 0
M  V30 6933 H 631.064 3.22248 -1.89821 0
M  V30 6934 H 633.356 6.3658 -2.31888 0
M  V30 6935 H 634.299 5.97927 -3.79326 0
M  V30 6936 H 634.707 5.17865 -2.24669 0
M  V30 6937 N 634.105 1.10431 1.1244 0
M  V30 6938 C 635.521 0.836096 1.35947 0
M  V30 6939 C 635.721 -0.544475 1.94004 0
M  V30 6940 O 634.777 -1.29735 2.16622 0
M  V30 6941 C 636.09 1.93575 2.30107 0
M  V30 6942 C 637.638 1.9642 2.43697 0
M  V30 6943 C 638.113 3.05559 3.41171 0
M  V30 6944 N 639.604 3.04865 3.48728 0
M  V30 6945 C 640.339 3.85954 4.24061 0
M  V30 6946 N 639.835 4.76977 5.02458 0
M  V30 6947 N 641.628 3.74172 4.19466 0
M  V30 6948 H 633.779 1.9942 0.731124 0
M  V30 6949 H 636.042 0.866607 0.384312 0
M  V30 6950 H 635.748 2.92943 1.94621 0
M  V30 6951 H 635.622 1.8229 3.30227 0
M  V30 6952 H 638.009 0.97685 2.78463 0
M  V30 6953 H 638.09 2.11782 1.43465 0
M  V30 6954 H 637.734 4.04513 3.07135 0
M  V30 6955 H 637.664 2.87438 4.41234 0
M  V30 6956 H 640.155 2.38908 2.92799 0
M  V30 6957 H 640.468 5.35409 5.57277 0
M  V30 6958 H 638.813 4.81006 5.01655 0
M  V30 6959 H 642.004 3.02412 3.57302 0
M  V30 6960 H 642.177 4.37602 4.77921 0
M  V30 6961 N 635.583 -1.29855 0.893053 0
M  V30 6962 C 636.53 -2.27909 0.364161 0
M  V30 6963 C 637.5 -1.56726 -0.550093 0
M  V30 6964 O 638.685 -1.84747 -0.47677 0
M  V30 6965 C 635.825 -3.42678 -0.408178 0
M  V30 6966 C 634.938 -4.28659 0.536212 0
M  V30 6967 C 634.073 -5.30599 -0.252521 0
M  V30 6968 C 633.112 -6.08234 0.686822 0
M  V30 6969 N 632.249 -7.02068 -0.0670902 0
M  V30 6970 H 637.089 -2.72531 1.20544 0
M  V30 6971 H 634.626 -1.34047 0.605779 0
M  V30 6972 H 636.584 -4.07986 -0.871962 0
M  V30 6973 H 635.214 -2.99103 -1.21397 0
M  V30 6974 H 634.266 -3.63584 1.1185 0
M  V30 6975 H 635.578 -4.8274 1.25552 0
M  V30 6976 H 634.732 -6.01694 -0.777801 0
M  V30 6977 H 633.471 -4.77233 -1.005 0
M  V30 6978 H 632.476 -5.3601 1.22366 0
M  V30 6979 H 633.701 -6.63689 1.43852 0
M  V30 6980 H 631.647 -6.5108 -0.801955 0
M  V30 6981 H 631.564 -7.53675 0.59243 0
M  V30 6982 H 632.832 -7.77392 -0.572851 0
M  V30 6983 N 637.061 -0.65484 -1.43351 0
M  V30 6984 C 638.291 -0.176429 -2.05845 0
M  V30 6985 C 638.699 1.16375 -1.49176 0
M  V30 6986 O 638.042 1.72981 -0.618322 0
M  V30 6987 C 638.104 -0.0125844 -3.59498 0
M  V30 6988 C 637.768 -1.27831 -4.38758 0
M  V30 6989 C 638.765 -2.2074 -4.70712 0
M  V30 6990 C 636.45 -1.52035 -4.78739 0
M  V30 6991 C 638.444 -3.36145 -5.41558 0
M  V30 6992 C 636.131 -2.67732 -5.49329 0
M  V30 6993 C 637.129 -3.59612 -5.80662 0
M  V30 6994 O 636.817 -4.73289 -6.4981 0
M  V30 6995 H 636.549 -0.0879682 -0.670252 0
M  V30 6996 H 639.103 -0.896193 -1.84818 0
M  V30 6997 H 637.333 0.762567 -3.79107 0
M  V30 6998 H 639.022 0.423392 -4.03686 0
M  V30 6999 H 639.788 -2.03284 -4.40341 0
M  V30 7000 H 635.667 -0.813987 -4.53757 0
M  V30 7001 H 639.211 -4.07881 -5.65932 0
M  V30 7002 H 635.108 -2.85122 -5.79116 0
M  V30 7003 H 635.876 -4.72575 -6.68293 0
M  V30 7004 N 638.539 1.52521 -0.396863 0
M  V30 7005 C 639.786 2.01672 0.182898 0
M  V30 7006 C 640.114 1.28302 1.46181 0
M  V30 7007 O 639.369 0.374118 1.92091 0
M  V30 7008 C 639.668 3.5403 0.489677 0
M  V30 7009 C 639.334 4.45456 -0.698581 0
M  V30 7010 C 637.996 4.70166 -1.02454 0
M  V30 7011 C 640.348 4.99354 -1.49316 0
M  V30 7012 C 637.676 5.46024 -2.1465 0
M  V30 7013 C 640.028 5.76439 -2.60579 0
M  V30 7014 C 638.692 5.99426 -2.93675 0
M  V30 7015 H 637.962 0.737971 0.066927 0
M  V30 7016 H 640.609 1.83853 -0.535764 0
M  V30 7017 H 638.914 3.69963 1.28976 0
M  V30 7018 H 640.611 3.8956 0.951018 0
M  V30 7019 H 637.201 4.26392 -0.434525 0
M  V30 7020 H 641.385 4.80182 -1.25457 0
M  V30 7021 H 636.641 5.62046 -2.40654 0
M  V30 7022 H 640.815 6.17202 -3.22544 0
M  V30 7023 H 638.442 6.57988 -3.80731 0
M  V30 7024 N 640.017 0.126909 1.57088 0
M  V30 7025 C 641.245 -0.53667 1.99819 0
M  V30 7026 C 641.66 -1.5972 1.00673 0
M  V30 7027 O 641.017 -1.825 0.000747365 0
M  V30 7028 C 641.068 -1.15563 3.42531 0
M  V30 7029 O 640.789 -0.137483 4.37884 0
M  V30 7030 C 642.29 -1.90176 4.00435 0
M  V30 7031 H 639.51 -0.141443 0.655923 0
M  V30 7032 H 642.054 0.215578 2.03361 0
M  V30 7033 H 640.209 -1.85861 3.39904 0
M  V30 7034 H 640.623 -0.588229 5.21191 0
M  V30 7035 H 642.097 -2.28801 5.02349 0
M  V30 7036 H 642.574 -2.78002 3.40017 0
M  V30 7037 H 643.18 -1.24623 4.06632 0
M  V30 7038 N 641.495 -1.56914 -0.146875 0
M  V30 7039 C 642.741 -1.83628 -0.860741 0
M  V30 7040 C 643.074 -0.708528 -1.80813 0
M  V30 7041 O 642.349 0.287838 -1.92358 0
M  V30 7042 C 642.632 -3.20836 -1.63511 0
M  V30 7043 C 642.485 -4.44174 -0.709199 0
M  V30 7044 C 643.804 -3.55268 -2.59756 0
M  V30 7045 H 640.923 -0.667949 -0.311468 0
M  V30 7046 H 643.565 -1.89582 -0.125936 0
M  V30 7047 H 641.715 -3.15891 -2.26153 0
M  V30 7048 H 643.387 -4.61205 -0.0937781 0
M  V30 7049 H 641.63 -4.33796 -0.0187856 0
M  V30 7050 H 642.301 -5.36785 -1.28707 0
M  V30 7051 H 644.777 -3.60824 -2.07232 0
M  V30 7052 H 643.653 -4.52303 -3.10987 0
M  V30 7053 H 643.914 -2.81231 -3.41118 0
M  V30 7054 N 642.974 0.416227 -1.52004 0
M  V30 7055 C 644.204 1.18401 -1.69307 0
M  V30 7056 C 644.612 1.84943 -0.399072 0
M  V30 7057 O 643.955 1.72406 0.634177 0
M  V30 7058 C 644.017 2.29465 -2.76742 0
M  V30 7059 C 643.681 1.83117 -4.18709 0
M  V30 7060 C 644.678 1.32286 -5.02789 0
M  V30 7061 C 642.363 1.90167 -4.64911 0
M  V30 7062 C 644.357 0.891178 -6.31139 0
M  V30 7063 C 642.044 1.4661 -5.93253 0
M  V30 7064 C 643.042 0.961696 -6.76196 0
M  V30 7065 O 642.73 0.532388 -8.02135 0
M  V30 7066 H 642.462 0.362098 -0.570843 0
M  V30 7067 H 645.016 0.496764 -1.99302 0
M  V30 7068 H 643.246 3.01531 -2.42107 0
M  V30 7069 H 644.935 2.91252 -2.82713 0
M  V30 7070 H 645.701 1.26218 -4.68288 0
M  V30 7071 H 641.58 2.28371 -4.00459 0
M  V30 7072 H 645.124 0.496788 -6.95829 0
M  V30 7073 H 641.021 1.52355 -6.27263 0
M  V30 7074 H 641.789 0.656339 -8.15864 0
M  V30 7075 N 644.452 1.42507 0.673017 0
M  V30 7076 C 645.729 1.33554 1.42908 0
M  V30 7077 C 646.109 -0.0262211 2.11084 0
M  V30 7078 O 645.457 -1.04181 2.03368 0
M  V30 7079 C 645.667 2.50498 2.43006 0
M  V30 7080 C 647.015 2.92694 3.07596 0
M  V30 7081 O 648.039 2.50401 2.53333 0
M  V30 7082 O 646.898 3.65899 4.05931 0
M  V30 7083 H 643.992 0.526785 0.637516 0
M  V30 7084 H 646.538 1.54518 0.701591 0
M  V30 7085 H 645.31 3.41272 1.9144 0
M  V30 7086 H 644.933 2.3153 3.23233 0
M  V30 7087 N 645.93 -0.909495 1.28709 0
M  V30 7088 C 647.16 -1.69027 1.188 0
M  V30 7089 C 647.568 -1.87469 -0.255329 0
M  V30 7090 O 646.911 -1.40458 -1.18394 0
M  V30 7091 C 646.973 -3.10064 1.81936 0
M  V30 7092 C 646.637 -3.14891 3.31199 0
M  V30 7093 C 647.634 -2.95768 4.27571 0
M  V30 7094 C 645.319 -3.37269 3.7223 0
M  V30 7095 C 647.313 -2.98942 5.6295 0
M  V30 7096 C 645 -3.40074 5.07733 0
M  V30 7097 C 645.998 -3.20932 6.02903 0
M  V30 7098 O 645.686 -3.23507 7.35934 0
M  V30 7099 H 645.418 -0.535014 0.413203 0
M  V30 7100 H 647.972 -1.14645 1.70428 0
M  V30 7101 H 646.202 -3.66005 1.24808 0
M  V30 7102 H 647.891 -3.70185 1.66486 0
M  V30 7103 H 648.657 -2.78302 3.97206 0
M  V30 7104 H 644.536 -3.51212 2.98615 0
M  V30 7105 H 648.08 -2.83919 6.37209 0
M  V30 7106 H 643.977 -3.5707 5.37747 0
M  V30 7107 H 644.745 -3.3984 7.44615 0
M  V30 7108 N 647.408 -1.11026 -1.11852 0
M  V30 7109 C 648.685 -0.768347 -1.79877 0
M  V30 7110 C 649.065 0.744261 -1.97545 0
M  V30 7111 O 648.413 1.67271 -1.55669 0
M  V30 7112 C 648.623 -1.52648 -3.13846 0
M  V30 7113 C 649.971 -1.70297 -3.88953 0
M  V30 7114 O 650.995 -1.49037 -3.23522 0
M  V30 7115 O 649.854 -2.05593 -5.06353 0
M  V30 7116 H 646.948 -0.277891 -0.778913 0
M  V30 7117 H 649.494 -1.21343 -1.18633 0
M  V30 7118 H 648.266 -2.55564 -2.96315 0
M  V30 7119 H 647.889 -1.07466 -3.82801 0
M  V30 7120 N 648.886 1.2938 -0.899927 0
M  V30 7121 C 649.834 2.29675 -0.367698 0
M  V30 7122 C 650.828 1.60787 0.533282 0
M  V30 7123 O 652.034 1.75126 0.416058 0
M  V30 7124 H 648.409 0.745284 -0.100279 0
M  V30 7125 H 650.38 2.72008 -1.22696 0
M  V30 7126 C 649.129 3.45512 0.389483 0
M  V30 7127 H 648.452 3.98713 -0.294575 0
M  V30 7128 H 649.892 4.17725 0.726744 0
M  V30 7129 C 648.351 2.969 1.59223 0
M  V30 7130 O 648.881 2.98195 2.69152 0
M  V30 7131 N 647.087 2.52728 1.43447 0
M  V30 7132 H 646.634 2.51873 0.540148 0
M  V30 7133 H 646.592 2.20561 2.24054 0
M  V30 7134 N 650.364 0.662433 1.43002 0
M  V30 7135 C 651.314 -0.0460442 2.27954 0
M  V30 7136 C 652.298 -0.785753 1.40409 0
M  V30 7137 O 653.49 -0.666701 1.63964 0
M  V30 7138 C 650.619 -1.00532 3.2825 0
M  V30 7139 C 649.705 -0.263604 4.2328 0
M  V30 7140 N 650.096 0.724855 5.00579 0
M  V30 7141 C 648.394 -0.503778 4.43146 0
M  V30 7142 C 649.095 1.16594 5.69895 0
M  V30 7143 N 648.071 0.498345 5.41311 0
M  V30 7144 H 651.873 0.712314 2.85137 0
M  V30 7145 H 649.387 0.490469 1.54817 0
M  V30 7146 H 651.384 -1.52775 3.87899 0
M  V30 7147 H 650.044 -1.76364 2.72628 0
M  V30 7148 H 651.055 1.10393 5.05998 0
M  V30 7149 H 647.732 -1.24255 3.98581 0
M  V30 7150 H 649.122 1.98434 6.4193 0
M  V30 7151 N 651.842 -1.52309 0.404946 0
M  V30 7152 C 653.07 -2.06185 -0.171818 0
M  V30 7153 C 653.485 -1.27536 -1.39212 0
M  V30 7154 O 652.842 -0.326112 -1.79563 0
M  V30 7155 C 652.893 -3.57647 -0.526417 0
M  V30 7156 O 652.614 -4.3332 0.645417 0
M  V30 7157 C 654.115 -4.27925 -1.15736 0
M  V30 7158 H 651.335 -0.670632 -0.0222328 0
M  V30 7159 H 653.879 -1.96259 0.574692 0
M  V30 7160 H 652.034 -3.67595 -1.22282 0
M  V30 7161 H 652.448 -5.23328 0.35042 0
M  V30 7162 H 653.922 -5.35093 -1.35572 0
M  V30 7163 H 654.399 -3.84134 -2.12926 0
M  V30 7164 H 655.005 -4.22335 -0.501281 0
M  V30 7165 N 653.32 -0.135238 -1.57019 0
M  V30 7166 C 654.566 0.519563 -1.96032 0
M  V30 7167 C 654.899 1.65284 -1.01955 0
M  V30 7168 O 654.174 1.94408 -0.059727 0
M  V30 7169 C 654.457 1.0369 -3.44848 0
M  V30 7170 C 654.31 -0.0940754 -4.49702 0
M  V30 7171 C 655.629 1.92254 -3.95887 0
M  V30 7172 H 652.748 0.18739 -0.712779 0
M  V30 7173 H 655.39 -0.214086 -1.8879 0
M  V30 7174 H 653.54 1.66209 -3.5115 0
M  V30 7175 H 655.212 -0.73 -4.55487 0
M  V30 7176 H 653.455 -0.754924 -4.27181 0
M  V30 7177 H 654.126 0.309419 -5.51132 0
M  V30 7178 H 656.602 1.39581 -3.9199 0
M  V30 7179 H 655.478 2.25364 -5.00502 0
M  V30 7180 H 655.739 2.85513 -3.37543 0
M  V30 7181 N 654.798 1.5699 0.138552 0
M  V30 7182 C 656.046 1.83446 0.848053 0
M  V30 7183 C 656.367 0.71744 1.81322 0
M  V30 7184 O 655.637 -0.260228 1.94164 0
M  V30 7185 H 654.217 0.676792 0.316166 0
M  V30 7186 H 656.879 1.94462 0.130538 0
M  V30 7187 H 655.975 2.78677 1.40518 0
M  V30 7188 N 656.276 -0.40816 1.52223 0
M  V30 7189 C 657.523 -1.15502 1.66329 0
M  V30 7190 C 657.851 -1.90474 0.393701 0
M  V30 7191 O 657.106 -1.85507 -0.623356 0
M  V30 7192 C 657.405 -2.17422 2.83659 0
M  V30 7193 C 657.071 -1.5925 4.21841 0
M  V30 7194 C 655.733 -1.4311 4.59427 0
M  V30 7195 C 658.085 -1.16776 5.0795 0
M  V30 7196 C 655.413 -0.830148 5.80797 0
M  V30 7197 C 657.765 -0.580988 6.29926 0
M  V30 7198 C 656.429 -0.406729 6.6626 0
M  V30 7199 H 655.699 -0.422653 0.608642 0
M  V30 7200 H 658.346 -0.442114 1.86327 0
M  V30 7201 H 656.651 -2.94861 2.58001 0
M  V30 7202 H 658.348 -2.75084 2.9177 0
M  V30 7203 H 654.938 -1.72796 3.92224 0
M  V30 7204 H 659.122 -1.28055 4.79495 0
M  V30 7205 H 654.378 -0.68316 6.07571 0
M  V30 7206 H 658.552 -0.243488 6.95974 0
M  V30 7207 H 656.179 0.0610366 7.60175 0
M  V30 7208 N 657.755 -1.42862 -0.66545 0
M  V30 7209 C 658.718 -1.46756 -1.76055 0
M  V30 7210 C 659.718 -0.353866 -1.56858 0
M  V30 7211 O 660.908 -0.615099 -1.62979 0
M  V30 7212 C 658.04 -1.30829 -3.14796 0
M  V30 7213 H 659.233 -2.44271 -1.73987 0
M  V30 7214 H 656.786 -1.29447 -0.875965 0
M  V30 7215 H 657.521 -0.342733 -3.22484 0
M  V30 7216 H 657.306 -2.11551 -3.30134 0
M  V30 7217 H 658.796 -1.36458 -3.94676 0
M  V30 7218 N 659.233 0.902656 -1.29189 0
M  V30 7219 C 660.163 2.02294 -1.16616 0
M  V30 7220 C 661.144 1.6999 -0.0611175 0
M  V30 7221 O 662.329 1.9271 -0.240072 0
M  V30 7222 C 659.459 3.37018 -0.83882 0
M  V30 7223 C 658.413 3.83522 -1.89986 0
M  V30 7224 C 657.739 5.15337 -1.42589 0
M  V30 7225 C 659.039 4.04169 -3.30824 0
M  V30 7226 H 660.733 2.13071 -2.10336 0
M  V30 7227 H 658.279 1.02378 -1.01266 0
M  V30 7228 H 660.232 4.14895 -0.737584 0
M  V30 7229 H 658.956 3.26325 0.134071 0
M  V30 7230 H 657.615 3.07859 -1.99043 0
M  V30 7231 H 657.263 5.01056 -0.441759 0
M  V30 7232 H 656.963 5.47423 -2.13547 0
M  V30 7233 H 658.487 5.95758 -1.3381 0
M  V30 7234 H 659.901 4.72537 -3.24626 0
M  V30 7235 H 658.298 4.47604 -3.99713 0
M  V30 7236 H 659.368 3.08604 -3.74021 0
M  V30 7237 N 660.711 1.11618 1.11262 0
M  V30 7238 C 661.674 0.779447 2.15539 0
M  V30 7239 C 662.674 -0.202081 1.59525 0
M  V30 7240 O 663.864 0.0226356 1.74185 0
M  V30 7241 C 660.996 0.15674 3.40539 0
M  V30 7242 H 662.189 1.70324 2.4684 0
M  V30 7243 H 659.742 0.918298 1.26479 0
M  V30 7244 H 660.477 -0.777186 3.1485 0
M  V30 7245 H 660.262 0.863308 3.82478 0
M  V30 7246 H 661.752 -0.062661 4.17553 0
M  V30 7247 N 662.189 -1.289 0.906776 0
M  V30 7248 C 663.136 -2.2751 0.388313 0
M  V30 7249 C 664.106 -1.57301 -0.533439 0
M  V30 7250 O 665.291 -1.85243 -0.457148 0
M  V30 7251 C 662.431 -3.43091 -0.37181 0
M  V30 7252 C 661.544 -4.28066 0.581647 0
M  V30 7253 C 660.679 -5.30837 -0.19623 0
M  V30 7254 C 659.718 -6.07472 0.751294 0
M  V30 7255 N 658.855 -7.021 0.00737727 0
M  V30 7256 H 663.695 -2.71237 1.23428 0
M  V30 7257 H 661.232 -1.33397 0.619962 0
M  V30 7258 H 663.19 -4.08888 -0.828641 0
M  V30 7259 H 661.82 -3.00374 -1.18218 0
M  V30 7260 H 660.872 -3.62378 1.157 0
M  V30 7261 H 662.184 -4.81382 1.30665 0
M  V30 7262 H 661.338 -6.02485 -0.71394 0
M  V30 7263 H 660.077 -4.78272 -0.954324 0
M  V30 7264 H 659.082 -5.34682 1.28044 0
M  V30 7265 H 660.307 -6.62126 1.50883 0
M  V30 7266 H 658.253 -6.51894 -0.732854 0
M  V30 7267 H 658.17 -7.53004 0.672334 0
M  V30 7268 H 659.438 -7.77956 -0.490365 0
M  V30 7269 N 663.667 -0.670007 -1.42649 0
M  V30 7270 C 664.615 0.0230106 -2.32589 0
M  V30 7271 C 665.609 0.795585 -1.49555 0
M  V30 7272 O 666.815 0.70409 -1.65658 0
M  V30 7273 H 663.19 0.0262342 -0.751542 0
M  V30 7274 H 665.161 -0.753009 -2.88743 0
M  V30 7275 C 663.91 0.963872 -3.34073 0
M  V30 7276 H 663.233 0.378813 -3.98001 0
M  V30 7277 H 664.673 1.41755 -3.99602 0
M  V30 7278 C 663.132 2.06797 -2.65964 0
M  V30 7279 O 663.662 3.15383 -2.48789 0
M  V30 7280 N 661.868 1.83831 -2.25066 0
M  V30 7281 H 661.415 0.955235 -2.39234 0
M  V30 7282 H 661.373 2.57895 -1.79827 0
M  V30 7283 N 665.145 1.52092 -0.413018 0
M  V30 7284 C 666.075 2.30021 0.401567 0
M  V30 7285 C 667.056 1.34395 1.04269 0
M  V30 7286 O 668.241 1.63304 1.05097 0
M  V30 7287 C 665.371 3.12447 1.51638 0
M  V30 7288 C 664.325 4.16153 1.00005 0
M  V30 7289 C 663.651 4.86948 2.20875 0
M  V30 7290 C 664.951 5.22275 0.0513757 0
M  V30 7291 H 666.645 2.98365 -0.248704 0
M  V30 7292 H 664.191 1.4349 -0.121052 0
M  V30 7293 H 666.144 3.65733 2.09326 0
M  V30 7294 H 664.868 2.41879 2.19458 0
M  V30 7295 H 663.527 3.63882 0.445549 0
M  V30 7296 H 663.175 4.12905 2.8726 0
M  V30 7297 H 662.875 5.57057 1.86978 0
M  V30 7298 H 664.399 5.43048 2.79162 0
M  V30 7299 H 665.813 5.70778 0.537176 0
M  V30 7300 H 664.21 5.9977 -0.198977 0
M  V30 7301 H 665.28 4.76611 -0.892736 0
M  V30 7302 O 666.662 0.284301 1.58978 0
M  V30 7303 H 667.353 -0.283792 1.9161 0
M  V30 END ATOM
M  V30 BEGIN BOND
M  V30 END BOND
M  V30 END CTAB
M  END
$$$$
