drugbank_target|P99999 Cytochrome c (DB01017; DB02110; DB03317; DB03366; DB03934; DB03977; DB04249; DB11638)
 OpenBabel12092119453D

  0  0  0     0  0            999 V3000
M  V30 BEGIN CTAB
M  V30 COUNTS 1678 1694 0 0 0
M  V30 BEGIN ATOM
M  V30 1 H -0.908 1.98254 -0.117106 0
M  V30 2 N 0 1.576 0 0
M  V30 3 C 0.933 2.03868 1.02534 0
M  V30 4 C 1.911 0.928543 1.3348 0
M  V30 5 O 3.095 1.19667 1.45644 0
M  V30 6 C 0.222 2.43627 2.35294 0
M  V30 7 C -0.732 3.65373 2.2001 0
M  V30 8 S 0.101 5.13292 1.52614 0
M  V30 9 C 1.257 5.56322 2.86805 0
M  V30 10 H 1.49 2.90518 0.631377 0
M  V30 11 H -0.977 1.52953 0.210867 0
M  V30 12 H 0.981 2.67203 3.11629 0
M  V30 13 H -0.358 1.57376 2.7183 0
M  V30 14 H -1.165 3.90944 3.18086 0
M  V30 15 H -1.563 3.418 1.51819 0
M  V30 16 H 0.729 5.58782 3.83104 0
M  V30 17 H 1.672 6.56266 2.65933 0
M  V30 18 H 2.08 4.83886 2.90714 0
M  V30 19 N 1.4781 -0.272755 1.55222 0
M  V30 20 C 2.7261 -1.00234 1.75492 0
M  V30 21 C 3.0471 -1.8681 0.5592 0
M  V30 22 O 2.3171 -1.91215 -0.425882 0
M  V30 23 H 0.8971 -0.373076 0.647166 0
M  V30 24 H 3.5591 -0.296926 1.92625 0
M  V30 25 H 2.6551 -1.63913 2.65592 0
M  V30 26 N 2.9562 -1.48159 -0.537278 0
M  V30 27 C 4.2332 -1.46291 -1.29839 0
M  V30 28 C 4.6132 -0.170613 -2.10409 0
M  V30 29 O 3.9612 0.847746 -2.12192 0
M  V30 30 C 4.1712 -2.72055 -2.18603 0
M  V30 31 C 5.5192 -3.20087 -2.7898 0
M  V30 32 O 6.5432 -2.72921 -2.28894 0
M  V30 33 O 5.4022 -4.02138 -3.70064 0
M  V30 34 H 2.4962 -0.583906 -0.585647 0
M  V30 35 H 5.0422 -1.60384 -0.554534 0
M  V30 36 H 3.8142 -3.57628 -1.58801 0
M  V30 37 H 3.4372 -2.60646 -3.00249 0
M  V30 38 N 4.4343 0.785586 -1.36625 0
M  V30 39 C 5.6803 1.54591 -1.31261 0
M  V30 40 C 6.0133 1.93906 0.106823 0
M  V30 41 O 5.2883 1.63007 1.06108 0
M  V30 42 C 5.5713 2.82038 -2.23889 0
M  V30 43 C 5.4243 2.49066 -3.74548 0
M  V30 44 C 6.7433 3.83887 -2.15217 0
M  V30 45 H 3.8623 0.560846 -0.478143 0
M  V30 46 H 6.5043 0.902278 -1.67209 0
M  V30 47 H 4.6543 3.36961 -1.93363 0
M  V30 48 H 6.3263 2.00164 -4.15611 0
M  V30 49 H 4.5693 1.81954 -3.93796 0
M  V30 50 H 5.2403 3.40109 -4.34776 0
M  V30 51 H 7.7163 3.38421 -2.42096 0
M  V30 52 H 6.5923 4.70806 -2.82193 0
M  V30 53 H 6.8533 4.27131 -1.14068 0
M  V30 54 N 5.9124 1.20967 1.01018 0
M  V30 55 C 6.8224 0.980157 2.13143 0
M  V30 56 C 7.8384 -0.0660665 1.73875 0
M  V30 57 O 9.0144 0.122821 2.01025 0
M  V30 58 C 6.0794 0.54216 3.42435 0
M  V30 59 C 5.1404 1.65999 3.95908 0
M  V30 60 C 4.3734 1.2428 5.19028 0
M  V30 61 O 4.5964 0.114196 5.70286 0
M  V30 62 O 3.5304 2.05271 5.65816 0
M  V30 63 H 7.3564 1.91913 2.35379 0
M  V30 64 H 4.9414 0.994099 1.11526 0
M  V30 65 H 6.8234 0.30744 4.20277 0
M  V30 66 H 5.4984 -0.36815 3.216 0
M  V30 67 H 4.4054 1.94906 3.19316 0
M  V30 68 H 5.7384 2.54753 4.21143 0
M  V30 69 N 7.3905 -1.2043 1.01659 0
M  V30 70 C 8.3375 -2.23215 0.586822 0
M  V30 71 C 9.3075 -1.61382 -0.393085 0
M  V30 72 O 10.4925 -1.88544 -0.292525 0
M  V30 73 C 7.6325 -3.45032 -0.0687464 0
M  V30 74 C 6.7455 -4.21296 0.955724 0
M  V30 75 C 5.8805 -5.30507 0.271208 0
M  V30 76 C 4.9195 -5.98515 1.28244 0
M  V30 77 N 4.0565 -6.99316 0.62459 0
M  V30 78 H 8.8965 -2.59336 1.46796 0
M  V30 79 H 6.4335 -1.27431 0.734836 0
M  V30 80 H 8.3915 -4.1459 -0.465965 0
M  V30 81 H 7.0215 -3.09604 -0.913529 0
M  V30 82 H 6.0735 -3.50803 1.4711 0
M  V30 83 H 7.3855 -4.6803 1.72479 0
M  V30 84 H 6.5395 -6.06428 -0.18151 0
M  V30 85 H 5.2785 -4.8481 -0.530163 0
M  V30 86 H 4.2835 -5.21355 1.74554 0
M  V30 87 H 5.5085 -6.46298 2.08509 0
M  V30 88 H 3.4545 -6.55812 -0.156914 0
M  V30 89 H 3.3715 -7.44178 1.33172 0
M  V30 90 H 4.6395 -7.79255 0.195462 0
M  V30 91 N 8.8686 -0.792821 -1.36206 0
M  V30 92 C 10.1166 -0.366062 -1.98757 0
M  V30 93 C 10.4376 1.0668 -1.63231 0
M  V30 94 O 9.7076 1.73587 -0.907978 0
M  V30 95 H 8.2876 -0.132364 -0.735179 0
M  V30 96 H 10.9496 -1.01562 -1.66347 0
M  V30 97 H 10.0456 -0.460638 -3.08682 0
M  V30 98 N 10.3467 1.47872 -0.545128 0
M  V30 99 C 11.2937 2.29849 0.2093 0
M  V30 100 C 12.2637 1.38313 0.919707 0
M  V30 101 O 13.4487 1.67277 0.917772 0
M  V30 102 C 10.5887 3.22019 1.24088 0
M  V30 103 C 9.7017 4.2864 0.537778 0
M  V30 104 C 8.8367 5.07973 1.5536 0
M  V30 105 C 7.8757 6.06381 0.8348 0
M  V30 106 N 7.0127 6.78717 1.79688 0
M  V30 107 H 11.8527 2.93845 -0.49591 0
M  V30 108 H 9.3897 1.44848 -0.256389 0
M  V30 109 H 11.3477 3.73868 1.85144 0
M  V30 110 H 9.9777 2.59914 1.91428 0
M  V30 111 H 9.0297 3.7994 -0.187046 0
M  V30 112 H 10.3417 4.98793 -0.0258907 0
M  V30 113 H 9.4957 5.63912 2.23803 0
M  V30 114 H 8.2347 4.37693 2.15118 0
M  V30 115 H 7.2397 5.49631 0.136388 0
M  V30 116 H 8.4647 6.78665 0.24313 0
M  V30 117 H 6.4107 6.11177 2.38326 0
M  V30 118 H 6.3277 7.44998 1.28505 0
M  V30 119 H 7.5957 7.39237 2.47282 0
M  V30 120 N 11.8248 0.280983 1.55075 0
M  V30 121 C 12.7718 -0.603937 2.22758 0
M  V30 122 C 13.7418 -1.1452 1.20309 0
M  V30 123 O 14.9268 -1.19343 1.48869 0
M  V30 124 C 12.0668 -1.77947 2.95684 0
M  V30 125 C 11.1798 -1.2715 4.12864 0
M  V30 126 C 10.3148 -2.4093 4.7342 0
M  V30 127 C 9.3538 -1.87165 5.82783 0
M  V30 128 N 8.4908 -2.94441 6.37377 0
M  V30 129 H 13.3308 -0.020124 2.97993 0
M  V30 130 H 10.8678 0.00183425 1.471 0
M  V30 131 H 12.8258 -2.47055 3.36184 0
M  V30 132 H 11.4558 -2.33522 2.22861 0
M  V30 133 H 10.5078 -0.473331 3.77444 0
M  V30 134 H 11.8198 -0.837751 4.91715 0
M  V30 135 H 10.9738 -3.18021 5.1667 0
M  V30 136 H 9.7128 -2.87623 3.93859 0
M  V30 137 H 8.7178 -1.08556 5.38976 0
M  V30 138 H 9.9428 -1.41401 6.64216 0
M  V30 139 H 7.8888 -3.40505 5.60707 0
M  V30 140 H 7.8058 -2.55501 7.11516 0
M  V30 141 H 9.0738 -3.71489 6.85285 0
M  V30 142 N 13.3029 -1.57598 0.00835791 0
M  V30 143 C 14.5519 -1.90107 -0.673968 0
M  V30 144 C 14.8649 -0.884275 -1.7447 0
M  V30 145 O 16.0709 -1.09987 -2.48224 0
M  V30 146 C 14.5269 -3.37497 -1.24995 0
M  V30 147 C 14.1349 -4.47491 -0.2136 0
M  V30 148 C 15.8789 -3.79104 -1.90999 0
M  V30 149 C 13.7859 -5.85963 -0.80005 0
M  V30 150 H 12.7159 -0.709393 -0.255495 0
M  V30 151 H 15.3669 -1.83365 0.0702693 0
M  V30 152 H 13.7489 -3.39102 -2.04513 0
M  V30 153 H 14.9229 -4.57414 0.557596 0
M  V30 154 H 13.2379 -4.14956 0.346474 0
M  V30 155 H 15.8349 -4.79901 -2.35795 0
M  V30 156 H 16.1779 -3.1306 -2.74407 0
M  V30 157 H 16.7109 -3.79833 -1.18203 0
M  V30 158 H 13.4499 -6.555 -0.00456708 0
M  V30 159 H 12.9699 -5.79687 -1.54021 0
M  V30 160 H 14.6489 -6.33884 -1.29615 0
M  V30 161 N 14.781 0.264519 -1.55364 0
M  V30 162 C 16.028 0.994986 -1.7637 0
M  V30 163 C 16.356 1.85976 -0.5695 0
M  V30 164 O 15.611 1.90509 0.44776 0
M  V30 165 C 15.91 1.9004 -3.02687 0
M  V30 166 C 15.576 1.19243 -4.34847 0
M  V30 167 C 14.238 0.996709 -4.70764 0
M  V30 168 C 16.59 0.689296 -5.16622 0
M  V30 169 C 13.918 0.285261 -5.86006 0
M  V30 170 C 16.27 -0.00860079 -6.32599 0
M  V30 171 C 14.934 -0.215963 -6.67151 0
M  V30 172 H 14.204 0.364091 -0.645383 0
M  V30 173 H 16.851 0.266543 -1.89636 0
M  V30 174 H 15.156 2.69533 -2.84357 0
M  V30 175 H 16.853 2.46695 -3.16137 0
M  V30 176 H 13.443 1.3549 -4.06621 0
M  V30 177 H 17.627 0.828108 -4.89342 0
M  V30 178 H 12.883 0.113961 -6.11294 0
M  V30 179 H 17.057 -0.406186 -6.95214 0
M  V30 180 H 14.684 -0.769217 -7.56298 0
M  V30 181 N 16.2591 1.48442 0.529413 0
M  V30 182 C 17.5081 1.55742 1.28169 0
M  V30 183 C 17.8211 0.236511 1.94165 0
M  V30 184 O 19.0271 0.187761 2.7085 0
M  V30 185 C 17.4831 2.74667 2.32564 0
M  V30 186 C 17.0911 4.13402 1.72636 0
M  V30 187 C 18.8351 2.9128 3.08798 0
M  V30 188 C 16.7421 5.23587 2.74975 0
M  V30 189 H 15.6721 0.579796 0.48203 0
M  V30 190 H 18.3231 1.74776 0.559056 0
M  V30 191 H 16.7051 2.49067 3.07866 0
M  V30 192 H 17.8791 4.49022 1.03519 0
M  V30 193 H 16.1941 4.0191 1.08892 0
M  V30 194 H 18.7911 3.70767 3.85274 0
M  V30 195 H 19.1341 2.00757 3.64695 0
M  V30 196 H 19.6671 3.16782 2.40611 0
M  V30 197 H 16.4061 6.16076 2.23897 0
M  V30 198 H 15.9261 4.92454 3.42417 0
M  V30 199 H 17.6051 5.51724 3.37949 0
M  V30 200 N 17.7372 -0.778329 1.37039 0
M  V30 201 C 18.6702 -1.8984 1.26633 0
M  V30 202 C 19.6482 -1.61923 0.148197 0
M  V30 203 O 20.8322 -1.85742 0.321265 0
M  V30 204 C 17.9592 -3.24916 0.956403 0
M  V30 205 C 17.0052 -3.71752 2.09051 0
M  V30 206 S 17.8382 -3.86201 3.70957 0
M  V30 207 C 18.9942 -5.24135 3.42101 0
M  V30 208 H 19.2272 -1.98377 2.21436 0
M  V30 209 H 16.7602 -0.938738 1.22585 0
M  V30 210 H 18.7182 -4.02936 0.784409 0
M  V30 211 H 17.3792 -3.14089 0.0259713 0
M  V30 212 H 16.5722 -4.69661 1.8285 0
M  V30 213 H 16.1742 -3.00815 2.2223 0
M  V30 214 H 18.4662 -6.09086 2.96682 0
M  V30 215 H 19.4092 -5.55346 4.39314 0
M  V30 216 H 19.8172 -4.91761 2.77185 0
M  V30 217 N 19.2153 -1.21501 -1.00376 0
M  V30 218 C 20.1623 -0.975387 -2.09177 0
M  V30 219 C 21.1323 0.0990615 -1.65804 0
M  V30 220 O 22.3173 -0.0483147 -1.90739 0
M  V30 221 C 19.4573 -0.547507 -3.40729 0
M  V30 222 C 18.5703 -1.69153 -3.97506 0
M  V30 223 C 17.7053 -1.2127 -5.17172 0
M  V30 224 C 16.7443 -2.32897 -5.66061 0
M  V30 225 N 15.8813 -1.86138 -6.76976 0
M  V30 226 H 20.7213 -1.9068 -2.29009 0
M  V30 227 H 18.2583 -0.950257 -1.12288 0
M  V30 228 H 20.2163 -0.280667 -4.16255 0
M  V30 229 H 18.8463 0.346904 -3.20931 0
M  V30 230 H 17.8983 -2.07298 -3.18954 0
M  V30 231 H 19.2103 -2.5316 -4.29781 0
M  V30 232 H 18.3643 -0.902591 -5.99948 0
M  V30 233 H 17.1033 -0.342692 -4.86495 0
M  V30 234 H 16.1083 -2.64709 -4.81881 0
M  V30 235 H 17.3333 -3.20396 -5.98768 0
M  V30 236 H 15.2793 -1.01484 -6.48103 0
M  V30 237 H 15.1963 -2.63717 -7.08512 0
M  V30 238 H 16.4643 -1.58165 -7.63285 0
M  V30 239 N 20.6934 1.19889 -1.02296 0
M  V30 240 C 21.9334 1.91125 -0.724602 0
M  V30 241 C 22.2974 1.77464 0.732835 0
M  V30 242 O 23.4984 2.43241 1.144 0
M  V30 243 C 21.7694 3.38187 -1.15604 0
M  V30 244 S 23.3284 4.27702 -0.980621 0
M  V30 245 H 20.1464 0.66018 -0.263976 0
M  V30 246 H 22.7484 1.44978 -1.31155 0
M  V30 247 H 21.4524 3.45653 -2.21251 0
M  V30 248 H 20.9834 3.89363 -0.562131 0
M  V30 249 H 22.9984 4.96073 0.112225 0
M  V30 250 N 22.1715 0.800033 1.35784 0
M  V30 251 C 23.3965 0.388511 2.03729 0
M  V30 252 C 23.8215 -0.990481 1.5991 0
M  V30 253 O 23.1795 -1.64013 0.772612 0
M  V30 254 C 23.2275 0.4726 3.5749 0
M  V30 255 O 22.3315 -0.51646 4.09153 0
M  V30 256 H 21.6725 0.163271 0.643614 0
M  V30 257 H 24.2025 1.0841 1.73518 0
M  V30 258 H 24.2125 0.34003 4.06581 0
M  V30 259 H 22.8875 1.47848 3.88734 0
M  V30 260 H 21.4645 -0.344673 3.71304 0
M  V30 261 N 23.6496 -1.47581 0.552962 0
M  V30 262 C 24.5816 -2.27997 -0.234533 0
M  V30 263 C 25.5946 -1.36753 -0.883321 0
M  V30 264 O 26.7836 -1.61612 -0.757889 0
M  V30 265 C 23.8836 -3.10879 -1.34935 0
M  V30 266 C 23.0566 -4.30056 -0.798158 0
M  V30 267 C 22.1156 -4.94567 -1.79694 0
M  V30 268 O 21.1416 -5.53087 -1.34474 0
M  V30 269 N 22.3436 -4.88878 -3.13015 0
M  V30 270 H 25.1086 -2.96222 0.455255 0
M  V30 271 H 22.6696 -1.57163 0.388761 0
M  V30 272 H 24.6616 -3.50903 -2.01616 0
M  V30 273 H 23.2316 -2.44924 -1.94244 0
M  V30 274 H 22.4516 -3.94174 0.0453079 0
M  V30 275 H 23.7396 -5.07152 -0.409173 0
M  V30 276 H 23.1376 -4.42526 -3.52402 0
M  V30 277 H 21.6946 -5.32934 -3.75266 0
M  V30 278 N 25.1277 -0.289203 -1.54924 0
M  V30 279 C 26.3677 0.324536 -2.01807 0
M  V30 280 C 26.7317 1.5199 -1.17316 0
M  V30 281 O 27.9327 2.20422 -1.53843 0
M  V30 282 C 26.2037 0.683578 -3.50802 0
M  V30 283 S 27.7627 1.28185 -4.19659 0
M  V30 284 H 24.5807 0.100236 -0.703899 0
M  V30 285 H 27.1827 -0.414325 -1.91059 0
M  V30 286 H 25.8867 -0.195073 -4.09936 0
M  V30 287 H 25.4177 1.45354 -3.65562 0
M  V30 288 H 27.4327 2.57006 -4.24456 0
M  V30 289 N 26.6058 1.57591 -0.0167156 0
M  V30 290 C 27.5558 2.05953 0.978137 0
M  V30 291 C 28.5398 0.957532 1.29306 0
M  V30 292 O 29.7318 1.22119 1.28125 0
M  V30 293 C 26.8608 2.58006 2.26468 0
M  V30 294 C 25.9468 3.75113 1.97867 0
M  V30 295 N 26.3378 4.86187 1.39486 0
M  V30 296 C 24.6358 3.83363 2.27924 0
M  V30 297 C 25.3368 5.67502 1.27735 0
M  V30 298 N 24.3128 5.14023 1.76866 0
M  V30 299 H 28.1148 2.89236 0.521522 0
M  V30 300 H 25.6288 1.61301 0.188596 0
M  V30 301 H 27.6258 2.90937 2.98599 0
M  V30 302 H 26.2858 1.76148 2.72767 0
M  V30 303 H 27.2968 5.06695 1.07147 0
M  V30 304 H 23.9738 3.1239 2.76982 0
M  V30 305 H 25.3638 6.66791 0.826978 0
M  V30 306 N 28.0839 -0.256276 1.55502 0
M  V30 307 C 29.3119 -1.00342 1.8094 0
M  V30 308 C 29.7269 -1.79307 0.59114 0
M  V30 309 O 29.0839 -1.77114 -0.440081 0
M  V30 310 C 29.1349 -1.94875 3.04476 0
M  V30 311 O 28.8559 -1.19107 4.21598 0
M  V30 312 C 30.3569 -2.81266 3.42644 0
M  V30 313 H 27.5769 -0.295685 0.602338 0
M  V30 314 H 30.1209 -0.281998 2.02546 0
M  V30 315 H 28.2759 -2.62457 2.84947 0
M  V30 316 H 28.6899 -1.82969 4.91551 0
M  V30 317 H 30.1639 -3.43362 4.32211 0
M  V30 318 H 30.6409 -3.51897 2.62802 0
M  V30 319 H 31.2469 -2.1915 3.64491 0
M  V30 320 N 29.562 -1.4872 -0.521534 0
M  V30 321 C 30.808 -1.574 -1.27879 0
M  V30 322 C 31.141 -0.250817 -1.92573 0
M  V30 323 O 30.416 0.743934 -1.79711 0
M  V30 324 C 30.699 -2.71843 -2.36164 0
M  V30 325 C 30.552 -4.13893 -1.76105 0
M  V30 326 C 31.871 -2.82008 -3.37875 0
M  V30 327 H 28.99 -0.572941 -0.463581 0
M  V30 328 H 31.632 -1.80927 -0.580119 0
M  V30 329 H 29.782 -2.51914 -2.95756 0
M  V30 330 H 31.454 -4.45284 -1.20499 0
M  V30 331 H 29.697 -4.20498 -1.06601 0
M  V30 332 H 30.368 -4.89804 -2.5455 0
M  V30 333 H 32.844 -3.00086 -2.88249 0
M  V30 334 H 31.72 -3.63796 -4.11028 0
M  V30 335 H 31.981 -1.90511 -3.98946 0
M  V30 336 N 31.0401 0.771051 -1.3745 0
M  V30 337 C 31.9501 1.91538 -1.35464 0
M  V30 338 C 32.9661 1.72134 -0.254123 0
M  V30 339 O 34.1421 1.95358 -0.489626 0
M  V30 340 C 31.2071 3.26671 -1.16134 0
M  V30 341 C 30.2681 3.58723 -2.35831 0
M  V30 342 C 29.5011 4.87409 -2.17413 0
M  V30 343 O 29.7241 5.58506 -1.15876 0
M  V30 344 O 28.6581 5.18539 -3.05615 0
M  V30 345 H 32.4841 1.96165 -2.31847 0
M  V30 346 H 30.0691 0.9139 -1.18187 0
M  V30 347 H 31.9511 4.07499 -1.07345 0
M  V30 348 H 30.6261 3.22894 -0.228251 0
M  V30 349 H 29.5331 2.78127 -2.50192 0
M  V30 350 H 30.8661 3.67243 -3.27709 0
M  V30 351 N 32.5182 1.22032 0.997298 0
M  V30 352 C 33.4652 0.986467 2.08656 0
M  V30 353 C 34.4352 -0.0902671 1.65855 0
M  V30 354 O 35.6202 0.0584294 1.90711 0
M  V30 355 C 32.7602 0.565569 3.40434 0
M  V30 356 C 31.8732 1.71259 3.96604 0
M  V30 357 C 31.0082 1.24011 5.16522 0
M  V30 358 C 30.0472 2.35896 5.64818 0
M  V30 359 N 29.1842 1.89726 6.7598 0
M  V30 360 H 34.0242 1.91892 2.27994 0
M  V30 361 H 31.5612 0.956199 1.11782 0
M  V30 362 H 33.5192 0.302738 4.161 0
M  V30 363 H 32.1492 -0.329879 3.2111 0
M  V30 364 H 31.2012 2.08986 3.17851 0
M  V30 365 H 32.5132 2.55436 4.28432 0
M  V30 366 H 31.6672 0.934395 5.99461 0
M  V30 367 H 30.4062 0.368487 4.86306 0
M  V30 368 H 29.4112 2.67261 4.8047 0
M  V30 369 H 30.6362 3.23567 5.97061 0
M  V30 370 H 28.5822 1.0492 6.47555 0
M  V30 371 H 28.4992 2.67471 7.07103 0
M  V30 372 H 29.7672 1.62211 7.62435 0
M  V30 373 N 33.9963 -1.19345 1.0293 0
M  V30 374 C 35.2443 -1.88665 0.724574 0
M  V30 375 C 35.5653 -1.80036 -0.749144 0
M  V30 376 O 34.8353 -1.2111 -1.53978 0
M  V30 377 H 33.4153 -0.698406 0.265025 0
M  V30 378 H 36.0773 -1.44885 1.30362 0
M  V30 379 H 35.1733 -2.94987 1.01926 0
M  V30 380 N 35.4744 -0.807222 -1.35358 0
M  V30 381 C 36.7224 -0.387122 -1.98358 0
M  V30 382 C 37.0434 1.04942 -1.64354 0
M  V30 383 O 36.3134 1.72615 -0.926339 0
M  V30 384 H 34.8934 -0.140154 -0.733734 0
M  V30 385 H 37.5554 -1.0332 -1.6526 0
M  V30 386 H 36.6514 -0.493352 -3.08176 0
M  V30 387 N 36.9525 1.47285 -0.560781 0
M  V30 388 C 37.8995 2.30058 0.18491 0
M  V30 389 C 38.8695 1.39281 0.904986 0
M  V30 390 O 40.0545 1.68241 0.899979 0
M  V30 391 C 37.1945 3.23317 1.20666 0
M  V30 392 C 36.3075 4.29186 0.492285 0
M  V30 393 C 35.4425 5.09592 1.49964 0
M  V30 394 C 34.4815 6.07232 0.770439 0
M  V30 395 N 33.6185 6.80584 1.72479 0
M  V30 396 H 38.4585 2.93302 -0.527048 0
M  V30 397 H 35.9955 1.44568 -0.271738 0
M  V30 398 H 37.9535 3.75811 1.81168 0
M  V30 399 H 36.5835 2.61929 1.88661 0
M  V30 400 H 35.6355 3.7972 -0.227333 0
M  V30 401 H 36.9475 4.98738 -0.0787929 0
M  V30 402 H 36.1015 5.66254 2.17809 0
M  V30 403 H 34.8405 4.3995 2.10464 0
M  V30 404 H 33.8455 5.49745 0.0780846 0
M  V30 405 H 35.0705 6.78884 0.171134 0
M  V30 406 H 33.0165 6.1367 2.3183 0
M  V30 407 H 32.9335 7.46319 1.20596 0
M  V30 408 H 34.2015 7.41818 2.39428 0
M  V30 409 N 38.4306 0.297415 1.54768 0
M  V30 410 C 39.3806 -0.595275 2.20092 0
M  V30 411 C 40.3646 -1.10163 1.17273 0
M  V30 412 O 41.5566 -1.043 1.43006 0
M  V30 413 C 38.6856 -1.7684 2.94249 0
M  V30 414 C 37.7716 -1.27818 4.0438 0
M  V30 415 N 38.1626 -0.505695 5.03266 0
M  V30 416 C 36.4606 -1.55923 4.17857 0
M  V30 417 C 37.1616 -0.245094 5.81183 0
M  V30 418 N 36.1376 -0.823881 5.3732 0
M  V30 419 H 39.9396 0.00250837 2.939 0
M  V30 420 H 37.4536 0.102007 1.62079 0
M  V30 421 H 39.4506 -2.41944 3.39513 0
M  V30 422 H 38.1106 -2.36992 2.21957 0
M  V30 423 H 39.1216 -0.150928 5.1768 0
M  V30 424 H 35.7986 -2.16849 3.56767 0
M  V30 425 H 37.1886 0.375084 6.70852 0
M  V30 426 N 39.9087 -1.5758 0.0250728 0
M  V30 427 C 40.8557 -2.09973 -0.958129 0
M  V30 428 C 41.8257 -1.00085 -1.3256 0
M  V30 429 O 43.0107 -1.27481 -1.41962 0
M  V30 430 C 40.1507 -2.62812 -2.2366 0
M  V30 431 C 39.2637 -3.86693 -1.92594 0
M  V30 432 C 38.3987 -4.27941 -3.14707 0
M  V30 433 C 37.4377 -5.44591 -2.79442 0
M  V30 434 N 36.5747 -5.81014 -3.94167 0
M  V30 435 H 41.4147 -2.937 -0.504428 0
M  V30 436 H 38.9517 -1.45172 -0.237392 0
M  V30 437 H 40.9097 -2.91536 -2.98434 0
M  V30 438 H 39.5397 -1.81922 -2.66654 0
M  V30 439 H 38.5917 -3.64723 -1.0808 0
M  V30 440 H 39.9037 -4.71547 -1.62619 0
M  V30 441 H 39.0577 -4.58079 -3.97804 0
M  V30 442 H 37.7967 -3.41845 -3.4784 0
M  V30 443 H 36.8017 -5.1415 -1.94755 0
M  V30 444 H 38.0267 -6.32382 -2.47528 0
M  V30 445 H 35.9727 -4.97874 -4.2715 0
M  V30 446 H 35.8897 -6.60498 -3.67801 0
M  V30 447 H 37.1577 -6.15756 -4.7798 0
M  V30 448 N 41.3868 0.248026 -1.55636 0
M  V30 449 C 42.6148 0.993808 -1.81469 0
M  V30 450 C 43.0298 1.78991 -0.60064 0
M  V30 451 O 42.3868 1.77345 0.430682 0
M  V30 452 C 42.4378 1.93258 -3.05506 0
M  V30 453 O 42.1588 1.16869 -4.22224 0
M  V30 454 C 43.6598 2.79444 -3.4413 0
M  V30 455 H 40.8798 0.292486 -0.603898 0
M  V30 456 H 43.4238 0.271253 -2.02693 0
M  V30 457 H 41.5788 2.60943 -2.86335 0
M  V30 458 H 41.9928 1.80359 -4.92515 0
M  V30 459 H 43.4668 3.41066 -4.34026 0
M  V30 460 H 43.9438 3.50499 -2.64665 0
M  V30 461 H 44.5498 2.17214 -3.65648 0
M  V30 462 N 42.8649 1.48995 0.513639 0
M  V30 463 C 44.1129 1.57531 1.26604 0
M  V30 464 C 44.4339 0.258236 1.93283 0
M  V30 465 O 43.7039 -0.721502 1.8213 0
M  V30 466 H 42.2839 0.580387 0.470276 0
M  V30 467 H 44.9459 1.85552 0.596373 0
M  V30 468 H 44.0419 2.36486 2.03669 0
M  V30 469 N 44.343 -0.763751 1.37857 0
M  V30 470 C 45.754 -1.3405 1.29952 0
M  V30 471 C 46.105 -1.96138 -0.0492898 0
M  V30 472 O 45.23 -1.94372 -0.951239 0
M  V30 473 C 45.825 -2.43729 2.35333 0
M  V30 474 C 44.384 -2.97151 2.31037 0
M  V30 475 C 43.531 -1.70438 2.18738 0
M  V30 476 H 46.482 -0.563396 1.48363 0
M  V30 477 H 46.503 -3.23412 2.00462 0
M  V30 478 H 46.015 -1.9851 3.33489 0
M  V30 479 H 44.116 -3.46724 1.3643 0
M  V30 480 H 44.229 -3.52221 3.24772 0
M  V30 481 H 42.593 -1.93673 1.65418 0
M  V30 482 H 43.376 -1.27312 3.18821 0
M  V30 483 N 45.8211 -1.22559 -0.990812 0
M  V30 484 C 46.7691 -0.994798 -2.10253 0
M  V30 485 C 47.7631 0.0627798 -1.69284 0
M  V30 486 O 48.9691 -0.0898392 -1.79776 0
M  V30 487 H 45.3441 -0.304527 -0.687581 0
M  V30 488 H 47.3151 -1.93812 -2.26891 0
M  V30 489 C 46.0641 -0.591439 -3.42633 0
M  V30 490 H 45.3871 -1.3969 -3.74602 0
M  V30 491 H 46.8271 -0.469385 -4.21394 0
M  V30 492 C 45.2861 0.699232 -3.29564 0
M  V30 493 O 45.8161 1.75112 -3.61523 0
M  V30 494 N 44.0221 0.671182 -2.82743 0
M  V30 495 H 43.5691 -0.185136 -2.56934 0
M  V30 496 H 43.5271 1.53502 -2.7438 0
M  V30 497 N 47.2992 1.18797 -1.03562 0
M  V30 498 C 48.2292 2.24472 -0.643019 0
M  V30 499 C 49.2102 1.66433 0.351283 0
M  V30 500 O 50.3952 1.92803 0.232505 0
M  V30 501 C 47.5252 3.473 4.24935e-05 0
M  V30 502 C 46.4792 4.18055 -0.917257 0
M  V30 503 C 45.8052 5.34519 -0.138941 0
M  V30 504 C 47.1052 4.72109 -2.23407 0
M  V30 505 H 48.7992 2.57566 -1.52643 0
M  V30 506 H 46.3452 1.23806 -0.735394 0
M  V30 507 H 48.2982 4.20426 0.286383 0
M  V30 508 H 47.0222 3.13424 0.918299 0
M  V30 509 H 45.6812 3.46821 -1.1879 0
M  V30 510 H 45.3292 4.96891 0.781562 0
M  V30 511 H 45.0292 5.82794 -0.750005 0
M  V30 512 H 46.5532 6.10438 0.1405 0
M  V30 513 H 47.9672 5.36955 -2.00879 0
M  V30 514 H 46.3642 5.30897 -2.79765 0
M  V30 515 H 47.4342 3.89807 -2.88407 0
M  V30 516 N 48.7773 0.814389 1.34928 0
M  V30 517 C 49.7273 0.202752 2.27097 0
M  V30 518 C 50.7113 -0.62799 1.48139 0
M  V30 519 O 51.9033 -0.483969 1.70255 0
M  V30 520 C 49.0323 -0.64146 3.37254 0
M  V30 521 C 48.1183 0.19944 4.23631 0
M  V30 522 N 48.5093 1.26628 4.89693 0
M  V30 523 C 46.8073 -0.0176433 4.45997 0
M  V30 524 C 47.5083 1.78031 5.53787 0
M  V30 525 N 46.4843 1.08553 5.32651 0
M  V30 526 H 50.2863 1.01893 2.75672 0
M  V30 527 H 47.8003 0.656332 1.48546 0
M  V30 528 H 49.7973 -1.09575 4.02243 0
M  V30 529 H 48.4573 -1.4559 2.9023 0
M  V30 530 H 49.4683 1.64901 4.90946 0
M  V30 531 H 46.1453 -0.800601 4.09752 0
M  V30 532 H 47.5353 2.67236 6.16469 0
M  V30 533 N 50.2554 -1.46986 0.568584 0
M  V30 534 C 51.5034 -2.02041 0.0487022 0
M  V30 535 C 51.8244 -1.44408 -1.31039 0
M  V30 536 O 51.0944 -0.623477 -1.85714 0
M  V30 537 H 49.6744 -0.746849 0.015014 0
M  V30 538 H 52.3364 -1.80257 0.741168 0
M  V30 539 H 51.4324 -3.12085 -0.0308961 0
M  V30 540 N 51.7335 -0.305618 -1.54608 0
M  V30 541 C 52.6635 0.561482 -2.26649 0
M  V30 542 C 53.6445 1.13415 -1.26772 0
M  V30 543 O 54.8295 1.16262 -1.55553 0
M  V30 544 C 51.9595 1.73122 -3.01075 0
M  V30 545 C 50.9135 1.2887 -4.08138 0
M  V30 546 C 50.2395 2.54396 -4.70305 0
M  V30 547 C 51.5395 0.416578 -5.20636 0
M  V30 548 H 53.2335 -0.0393902 -2.99374 0
M  V30 549 H 50.7795 -0.020385 -1.43986 0
M  V30 550 H 52.7325 2.34396 -3.50195 0
M  V30 551 H 51.4565 2.3584 -2.25936 0
M  V30 552 H 50.1155 0.698991 -3.59875 0
M  V30 553 H 49.7635 3.15439 -3.918 0
M  V30 554 H 49.4635 2.25486 -5.42614 0
M  V30 555 H 50.9875 3.16464 -5.2219 0
M  V30 556 H 52.4015 0.935116 -5.65622 0
M  V30 557 H 50.7985 0.221046 -5.99693 0
M  V30 558 H 51.8685 -0.557162 -4.81688 0
M  V30 559 N 53.2116 1.57565 -0.0334293 0
M  V30 560 C 54.4586 1.91978 0.644272 0
M  V30 561 C 54.7866 0.910231 1.71887 0
M  V30 562 O 54.0416 -0.0801961 1.95536 0
M  V30 563 C 54.3406 3.33112 1.29504 0
M  V30 564 C 54.0066 4.49537 0.350388 0
M  V30 565 C 52.6686 4.81115 0.0903974 0
M  V30 566 C 55.0206 5.20347 -0.298032 0
M  V30 567 C 52.3486 5.8086 -0.825746 0
M  V30 568 C 54.7006 6.2107 -1.20226 0
M  V30 569 C 53.3646 6.51088 -1.4711 0
M  V30 570 H 52.6346 0.702496 0.235756 0
M  V30 571 H 55.2816 1.91259 -0.0961176 0
M  V30 572 H 53.5866 3.30113 2.11028 0
M  V30 573 H 55.2836 3.57011 1.82603 0
M  V30 574 H 51.8736 4.24883 0.563205 0
M  V30 575 H 56.0576 4.96178 -0.110234 0
M  V30 576 H 51.3136 6.02461 -1.04169 0
M  V30 577 H 55.4876 6.75057 -1.71086 0
M  V30 578 H 53.1146 7.28193 -2.18264 0
M  V30 579 N 54.6897 -0.239769 1.55765 0
M  V30 580 C 55.9377 -0.964892 1.77579 0
M  V30 581 C 56.2587 -1.85582 0.598699 0
M  V30 582 O 55.5287 -1.92075 -0.385226 0
M  V30 583 H 54.1087 -0.359265 0.654933 0
M  V30 584 H 56.7707 -0.256001 1.93211 0
M  V30 585 H 55.8667 -1.58243 2.69009 0
M  V30 586 N 56.1678 -1.49265 -0.50573 0
M  V30 587 C 57.5838 -1.35923 -0.836486 0
M  V30 588 C 57.7838 -0.388704 -1.97715 0
M  V30 589 O 56.8398 0.181336 -2.51848 0
M  V30 590 C 58.1528 -2.76531 -1.18115 0
M  V30 591 C 59.7008 -2.85197 -1.28964 0
M  V30 592 C 60.1758 -4.26561 -1.66761 0
M  V30 593 N 61.6668 -4.2935 -1.73819 0
M  V30 594 C 62.4018 -5.35693 -2.045 0
M  V30 595 N 61.8978 -6.52287 -2.33438 0
M  V30 596 N 63.6908 -5.23105 -2.05711 0
M  V30 597 H 55.8418 -2.10965 0.246519 0
M  V30 598 H 58.1048 -0.9468 0.0476887 0
M  V30 599 H 57.8108 -3.49226 -0.416398 0
M  V30 600 H 57.6848 -3.11599 -2.1257 0
M  V30 601 H 60.0718 -2.12742 -2.04511 0
M  V30 602 H 60.1528 -2.53718 -0.325704 0
M  V30 603 H 59.7968 -4.99541 -0.917656 0
M  V30 604 H 59.7268 -4.55502 -2.64246 0
M  V30 605 H 62.2178 -3.4526 -1.53635 0
M  V30 606 H 62.5308 -7.29158 -2.56024 0
M  V30 607 H 60.8758 -6.55521 -2.30905 0
M  V30 608 H 64.0668 -4.31026 -1.82577 0
M  V30 609 H 64.2398 -6.06078 -2.29289 0
M  V30 610 N 57.6459 0.756429 -1.3826 0
M  V30 611 C 58.5929 1.87011 -1.35261 0
M  V30 612 C 59.5629 1.64695 -0.215616 0
M  V30 613 O 60.7479 1.864 -0.407399 0
M  V30 614 C 57.8879 3.24275 -1.18068 0
M  V30 615 C 57.0009 3.58442 -2.41129 0
M  V30 616 C 56.1359 4.84994 -2.16689 0
M  V30 617 C 55.1749 5.11939 -3.35537 0
M  V30 618 N 54.3119 6.29685 -3.10549 0
M  V30 619 H 59.1519 1.8891 -2.30472 0
M  V30 620 H 56.6889 0.923373 -1.14509 0
M  V30 621 H 58.6469 4.03479 -1.06116 0
M  V30 622 H 57.2769 3.21711 -0.264973 0
M  V30 623 H 56.3289 2.74103 -2.63764 0
M  V30 624 H 57.6409 3.74283 -3.29717 0
M  V30 625 H 56.7949 5.72135 -2.01857 0
M  V30 626 H 55.5339 4.71286 -1.25462 0
M  V30 627 H 54.5389 4.23268 -3.50891 0
M  V30 628 H 55.7639 5.27546 -4.27635 0
M  V30 629 H 53.7099 6.17306 -2.21967 0
M  V30 630 H 53.6269 6.46014 -3.92686 0
M  V30 631 H 54.8949 7.19722 -2.99367 0
M  V30 632 N 59.124 1.23083 0.984299 0
M  V30 633 C 60.352 1.08714 1.76037 0
M  V30 634 C 60.767 -0.361691 1.85303 0
M  V30 635 O 60.124 -1.25034 1.32939 0
M  V30 636 C 60.175 1.70206 3.18923 0
M  V30 637 O 59.896 3.09423 3.10144 0
M  V30 638 C 61.397 1.61227 4.12941 0
M  V30 639 H 58.617 0.380664 0.552572 0
M  V30 640 H 61.161 1.62853 1.23689 0
M  V30 641 H 59.316 1.20109 3.6831 0
M  V30 642 H 59.73 3.39188 4.00065 0
M  V30 643 H 61.204 2.08962 5.10919 0
M  V30 644 H 61.681 0.570375 4.35481 0
M  V30 645 H 62.287 2.10671 3.69456 0
M  V30 646 N 60.6021 -1.18246 1.0419 0
M  V30 647 C 61.8501 -1.87886 0.744543 0
M  V30 648 C 62.1711 -1.8082 -0.730006 0
M  V30 649 O 61.4411 -1.22736 -1.52685 0
M  V30 650 H 60.0211 -0.695556 0.272417 0
M  V30 651 H 62.6831 -1.43494 1.31892 0
M  V30 652 H 61.7791 -2.9389 1.05049 0
M  V30 653 N 62.0802 -0.821533 -1.34494 0
M  V30 654 C 63.0122 -0.199946 -2.28326 0
M  V30 655 C 64.0252 0.609377 -1.50965 0
M  V30 656 O 65.2142 0.439285 -1.7301 0
M  V30 657 C 62.3142 0.738431 -3.30757 0
M  V30 658 C 61.4872 -0.0277632 -4.37391 0
M  V30 659 C 60.5462 0.831332 -5.19591 0
M  V30 660 O 59.5722 0.276822 -5.68526 0
M  V30 661 N 60.7742 2.15132 -5.39165 0
M  V30 662 H 63.5392 -1.00609 -2.82308 0
M  V30 663 H 61.1002 -0.678366 -1.47003 0
M  V30 664 H 63.0922 1.31773 -3.82646 0
M  V30 665 H 61.6622 1.44533 -2.7718 0
M  V30 666 H 60.8822 -0.788359 -3.86236 0
M  V30 667 H 62.1702 -0.555251 -5.05761 0
M  V30 668 H 61.5682 2.62559 -5.01078 0
M  V30 669 H 60.1252 2.6795 -5.94177 0
M  V30 670 N 63.5583 1.46682 -0.576371 0
M  V30 671 C 64.5213 2.28707 0.150239 0
M  V30 672 C 65.5213 1.38035 0.824794 0
M  V30 673 O 66.7113 1.60476 0.677719 0
M  V30 674 C 63.8433 3.18248 1.22192 0
M  V30 675 H 65.0363 2.94423 -0.570521 0
M  V30 676 H 62.5893 1.52688 -0.334078 0
M  V30 677 H 63.3243 2.57265 1.97447 0
M  V30 678 H 63.1093 3.85 0.742812 0
M  V30 679 H 64.5993 3.80001 1.73172 0
M  V30 680 N 65.0364 0.313813 1.54444 0
M  V30 681 C 66.4474 -0.176243 1.85866 0
M  V30 682 C 66.7984 -1.52405 1.23561 0
M  V30 683 O 65.9234 -2.09605 0.538016 0
M  V30 684 C 66.5184 -0.32657 3.37222 0
M  V30 685 C 65.0774 -0.760846 3.6863 0
M  V30 686 C 64.2244 0.123247 2.77026 0
M  V30 687 H 67.1754 0.534418 1.49431 0
M  V30 688 H 67.1964 -1.15908 3.62416 0
M  V30 689 H 66.7084 0.654531 3.82541 0
M  V30 690 H 64.8094 -1.75204 3.28838 0
M  V30 691 H 64.9224 -0.571353 4.75681 0
M  V30 692 H 63.2864 -0.399597 2.51546 0
M  V30 693 H 64.0694 1.10094 3.25168 0
M  V30 694 N 66.5145 -1.57545 0.0417849 0
M  V30 695 C 67.7625 -1.91937 -0.632829 0
M  V30 696 C 68.0835 -0.919978 -1.71934 0
M  V30 697 O 67.3535 0.0366064 -1.95866 0
M  V30 698 H 65.9335 -0.708493 -0.236742 0
M  V30 699 H 68.5955 -1.9468 0.0925745 0
M  V30 700 H 67.6915 -2.92912 -1.07746 0
M  V30 701 N 67.9926 0.231505 -1.5589 0
M  V30 702 C 69.2226 0.973092 -1.82248 0
M  V30 703 C 69.6306 1.78845 -0.617328 0
M  V30 704 O 68.9736 1.78752 0.423499 0
M  V30 705 C 69.0356 1.94732 -3.02192 0
M  V30 706 C 68.6996 1.31743 -4.37599 0
M  V30 707 C 69.6966 0.712238 -5.14998 0
M  V30 708 C 67.3816 1.33218 -4.84312 0
M  V30 709 C 69.3756 0.130195 -6.37267 0
M  V30 710 C 67.0626 0.746286 -6.06526 0
M  V30 711 C 68.0606 0.146337 -6.82843 0
M  V30 712 O 67.7486 -0.430465 -8.02747 0
M  V30 713 H 67.4806 0.29125 -0.61004 0
M  V30 714 H 70.0346 0.254915 -2.03812 0
M  V30 715 H 68.2646 2.70422 -2.76422 0
M  V30 716 H 69.9536 2.55362 -3.15508 0
M  V30 717 H 70.7196 0.69324 -4.8002 0
M  V30 718 H 66.5986 1.78854 -4.24891 0
M  V30 719 H 70.1426 -0.33871 -6.96777 0
M  V30 720 H 66.0396 0.762663 -6.40979 0
M  V30 721 H 66.8076 -0.323818 -8.17859 0
M  V30 722 N 69.4707 1.49531 0.497807 0
M  V30 723 C 70.6957 1.63159 1.28039 0
M  V30 724 C 71.1207 0.30418 1.85624 0
M  V30 725 O 70.4787 -0.728618 1.66015 0
M  V30 726 C 70.5267 2.70537 2.38416 0
M  V30 727 O 69.6307 2.29931 3.42353 0
M  V30 728 H 68.9717 0.546001 0.377861 0
M  V30 729 H 71.5017 1.9574 0.59558 0
M  V30 730 H 71.5117 2.92802 2.84132 0
M  V30 731 H 70.1867 3.6689 1.95869 0
M  V30 732 H 68.7637 2.18009 3.02533 0
M  V30 733 N 70.9488 -0.749086 1.3866 0
M  V30 734 C 72.1788 -1.53611 1.38157 0
M  V30 735 C 72.5868 -1.89177 -0.0293595 0
M  V30 736 O 71.9298 -1.53606 -1.00752 0
M  V30 737 C 71.9918 -2.86087 2.17702 0
M  V30 738 C 71.6558 -2.73034 3.66472 0
M  V30 739 C 72.6528 -2.42526 4.59866 0
M  V30 740 C 70.3378 -2.90345 4.09884 0
M  V30 741 C 72.3318 -2.29492 5.94653 0
M  V30 742 C 70.0188 -2.7693 5.4475 0
M  V30 743 C 71.0168 -2.46547 6.36949 0
M  V30 744 O 70.7048 -2.33199 7.69333 0
M  V30 745 H 70.4368 -0.481773 0.474205 0
M  V30 746 H 72.9908 -0.934465 1.82912 0
M  V30 747 H 71.2208 -3.48458 1.67672 0
M  V30 748 H 72.9098 -3.47625 2.09551 0
M  V30 749 H 73.6758 -2.28816 4.27631 0
M  V30 750 H 69.5548 -3.1299 3.38464 0
M  V30 751 H 73.0988 -2.05698 6.66584 0
M  V30 752 H 68.9958 -2.90215 5.76581 0
M  V30 753 H 69.7638 -2.48376 7.79905 0
M  V30 754 N 72.4269 -1.23603 -0.977757 0
M  V30 755 C 73.6549 -1.09646 -1.75458 0
M  V30 756 C 74.0699 0.351859 -1.85492 0
M  V30 757 O 73.4269 1.24327 -1.336 0
M  V30 758 C 73.4779 -1.71895 -3.18016 0
M  V30 759 O 73.1989 -3.11063 -3.08498 0
M  V30 760 C 74.6999 -1.63415 -4.12081 0
M  V30 761 H 71.9199 -0.38359 -0.550545 0
M  V30 762 H 74.4639 -1.63507 -1.22824 0
M  V30 763 H 72.6189 -1.22061 -3.67668 0
M  V30 764 H 73.0329 -3.41305 -3.9826 0
M  V30 765 H 74.5069 -2.11669 -5.09804 0
M  V30 766 H 74.9839 -0.593462 -4.35172 0
M  V30 767 H 75.5899 -2.12628 -3.68334 0
M  V30 768 N 73.905 1.17692 -1.04816 0
M  V30 769 C 74.868 2.19787 -0.650117 0
M  V30 770 C 75.868 1.58044 0.296427 0
M  V30 771 O 77.058 1.74012 0.0808097 0
M  V30 772 C 74.19 3.40869 0.0456987 0
M  V30 773 H 75.383 2.56516 -1.5537 0
M  V30 774 H 72.936 1.31708 -0.841594 0
M  V30 775 H 73.671 3.09681 0.962726 0
M  V30 776 H 73.456 3.86928 -0.634727 0
M  V30 777 H 74.946 4.16445 0.310432 0
M  V30 778 N 75.3831 0.828654 1.34056 0
M  V30 779 C 76.3461 0.259927 2.27721 0
M  V30 780 C 77.3461 -0.565478 1.50529 0
M  V30 781 O 78.5361 -0.38075 1.69988 0
M  V30 782 C 75.6681 -0.634944 3.34935 0
M  V30 783 H 76.8611 1.0863 2.79534 0
M  V30 784 H 74.4141 0.600951 1.44285 0
M  V30 785 H 75.1491 -1.48416 2.88346 0
M  V30 786 H 74.9341 -0.0444999 3.92075 0
M  V30 787 H 76.4241 -1.02648 4.04788 0
M  V30 788 N 76.8612 -1.46375 0.584142 0
M  V30 789 C 77.8092 -2.32042 -0.161047 0
M  V30 790 C 78.8032 -1.44569 -0.882966 0
M  V30 791 O 80.0092 -1.61186 -0.801191 0
M  V30 792 H 76.3842 -0.748659 -0.0708033 0
M  V30 793 H 78.3552 -2.92704 0.580269 0
M  V30 794 C 77.1042 -3.27762 -1.1605 0
M  V30 795 H 76.4272 -3.95051 -0.614419 0
M  V30 796 H 77.8672 -3.90481 -1.65228 0
M  V30 797 C 76.3262 -2.53218 -2.22221 0
M  V30 798 O 76.8562 -2.29628 -3.29597 0
M  V30 799 N 75.0622 -2.13756 -1.96868 0
M  V30 800 H 74.6092 -2.33142 -1.09557 0
M  V30 801 H 74.5672 -1.642 -2.68115 0
M  V30 802 N 78.3393 -0.321999 -1.54275 0
M  V30 803 C 79.2863 0.544664 -2.24281 0
M  V30 804 C 80.2563 1.1129 -1.23303 0
M  V30 805 O 81.4413 1.15354 -1.51981 0
M  V30 806 C 78.5813 1.70045 -3.00298 0
M  V30 807 C 77.6943 1.16159 -4.1609 0
M  V30 808 C 76.8293 2.28293 -4.79641 0
M  V30 809 C 75.8683 1.71648 -5.8754 0
M  V30 810 N 75.0053 2.77438 -6.44959 0
M  V30 811 H 79.8453 -0.0588907 -2.97942 0
M  V30 812 H 77.3823 -0.0408345 -1.47043 0
M  V30 813 H 79.3403 2.38054 -3.42616 0
M  V30 814 H 77.9703 2.27531 -2.28975 0
M  V30 815 H 77.0223 0.373092 -3.78566 0
M  V30 816 H 78.3343 0.707087 -4.93763 0
M  V30 817 H 77.4883 3.0421 -5.2492 0
M  V30 818 H 76.2273 2.77079 -4.01346 0
M  V30 819 H 75.2323 0.942282 -5.41665 0
M  V30 820 H 76.4573 1.23741 -6.67731 0
M  V30 821 H 74.4033 3.25519 -5.69538 0
M  V30 822 H 74.3203 2.36547 -7.1804 0
M  V30 823 H 75.5883 3.53189 -6.94894 0
M  V30 824 N 79.8174 1.5752 -0.0501392 0
M  V30 825 C 80.7654 2.12651 0.942459 0
M  V30 826 C 81.7594 1.05807 1.32292 0
M  V30 827 O 82.9654 1.24217 1.3027 0
M  V30 828 H 79.3404 0.679673 0.321789 0
M  V30 829 H 81.3114 2.94951 0.452356 0
M  V30 830 C 80.0604 2.68565 2.20836 0
M  V30 831 H 79.3834 3.50439 1.92439 0
M  V30 832 H 80.8234 3.10761 2.8845 0
M  V30 833 C 79.2824 1.62291 2.95234 0
M  V30 834 O 79.8124 1.03508 3.88135 0
M  V30 835 N 78.0184 1.33836 2.57946 0
M  V30 836 H 77.5654 1.81826 1.82475 0
M  V30 837 H 77.5234 0.629595 3.08032 0
M  V30 838 N 81.2955 -0.223234 1.56011 0
M  V30 839 C 82.2425 -1.27664 1.92277 0
M  V30 840 C 83.2125 -1.46659 0.779763 0
M  V30 841 O 84.3975 -1.60256 1.03551 0
M  V30 842 C 81.5375 -2.62234 2.24338 0
M  V30 843 C 80.6505 -2.51051 3.51564 0
M  V30 844 C 79.7855 -3.78133 3.7308 0
M  V30 845 C 78.8245 -3.61665 4.93827 0
M  V30 846 N 77.9615 -4.80693 5.11741 0
M  V30 847 H 82.8015 -0.960358 2.82101 0
M  V30 848 H 80.3385 -0.462901 1.39627 0
M  V30 849 H 82.2965 -3.40596 2.40936 0
M  V30 850 H 80.9265 -2.91961 1.3769 0
M  V30 851 H 79.9785 -1.64132 3.43169 0
M  V30 852 H 81.2905 -2.34803 4.40079 0
M  V30 853 H 80.4445 -4.64938 3.89766 0
M  V30 854 H 79.1835 -3.97304 2.82844 0
M  V30 855 H 78.1885 -2.73244 4.77093 0
M  V30 856 H 79.4135 -3.43966 5.85546 0
M  V30 857 H 77.3595 -5.00181 4.24446 0
M  V30 858 H 77.2765 -4.67165 5.94384 0
M  V30 859 H 78.5445 -5.6893 5.3286 0
M  V30 860 N 82.7736 -1.49793 -0.48987 0
M  V30 861 C 84.0216 -1.59525 -1.24081 0
M  V30 862 C 84.3426 -0.288953 -1.92847 0
M  V30 863 O 83.6126 0.692436 -1.83254 0
M  V30 864 H 82.1926 -0.587796 -0.460983 0
M  V30 865 H 84.8546 -1.86477 -0.566778 0
M  V30 866 H 83.9506 -2.39696 -1.99881 0
M  V30 867 N 84.2517 0.741722 -1.39055 0
M  V30 868 C 85.5007 1.49656 -1.35225 0
M  V30 869 C 85.8137 1.95533 0.0512708 0
M  V30 870 O 87.0197 2.7067 0.212138 0
M  V30 871 C 85.4757 2.70389 -2.37525 0
M  V30 872 C 85.0837 2.31489 -3.83558 0
M  V30 873 C 86.8277 3.48236 -2.42759 0
M  V30 874 C 84.7347 3.48903 -4.77515 0
M  V30 875 H 83.6647 0.56197 -0.502699 0
M  V30 876 H 86.3157 0.809727 -1.64668 0
M  V30 877 H 84.6977 3.41113 -2.01142 0
M  V30 878 H 85.8717 1.68354 -4.28945 0
M  V30 879 H 84.1867 1.66749 -3.81554 0
M  V30 880 H 86.7837 4.35558 -3.1015 0
M  V30 881 H 87.1267 3.90229 -1.45008 0
M  V30 882 H 87.6597 2.84535 -2.78002 0
M  V30 883 H 84.3987 3.11966 -5.76504 0
M  V30 884 H 83.9187 4.11041 -4.36813 0
M  V30 885 H 85.5977 4.15328 -4.96096 0
M  V30 886 N 85.7298 1.2412 0.971189 0
M  V30 887 C 86.9788 1.07284 1.70801 0
M  V30 888 C 87.2918 -0.388902 1.91695 0
M  V30 889 O 88.4978 -0.677379 2.62914 0
M  V30 890 C 86.9538 1.87145 3.07416 0
M  V30 891 C 86.5618 3.37707 2.94377 0
M  V30 892 C 88.3058 1.78828 3.84995 0
M  V30 893 C 86.2128 4.09925 4.26281 0
M  V30 894 H 85.1428 0.397854 0.64049 0
M  V30 895 H 87.7938 1.4817 1.0825 0
M  V30 896 H 86.1758 1.39071 3.70777 0
M  V30 897 H 87.3498 3.93335 2.4005 0
M  V30 898 H 85.6648 3.46938 2.30267 0
M  V30 899 H 88.2618 2.30089 4.82662 0
M  V30 900 H 88.6048 0.75284 4.09436 0
M  V30 901 H 89.1378 2.24563 3.28354 0
M  V30 902 H 85.8768 5.13813 4.07033 0
M  V30 903 H 85.3968 3.59083 4.80437 0
M  V30 904 H 87.0758 4.1673 4.94919 0
M  V30 905 N 87.2079 -1.17134 1.05439 0
M  V30 906 C 88.4539 -1.87979 0.776872 0
M  V30 907 C 88.8089 -1.7965 -0.688751 0
M  V30 908 O 88.1019 -1.19535 -1.4974 0
M  V30 909 C 88.2959 -3.36833 1.19491 0
M  V30 910 C 88.1249 -3.59653 2.69963 0
M  V30 911 C 86.8949 -3.76234 3.37307 0
M  V30 912 C 89.0929 -3.59091 3.68182 0
M  V30 913 N 87.0749 -3.86922 4.76618 0
M  V30 914 C 88.4459 -3.75659 4.93235 0
M  V30 915 C 90.5009 -3.42255 3.61616 0
M  V30 916 C 89.2039 -3.77133 6.12506 0
M  V30 917 C 91.2299 -3.45018 4.8033 0
M  V30 918 C 90.5919 -3.62096 6.04207 0
M  V30 919 H 86.6909 -0.705876 0.336546 0
M  V30 920 H 89.2749 -1.40602 1.34682 0
M  V30 921 H 87.4459 -3.82873 0.652884 0
M  V30 922 H 89.1779 -3.95305 0.866966 0
M  V30 923 H 85.9329 -3.76193 2.87708 0
M  V30 924 H 86.3569 -3.96055 5.49062 0
M  V30 925 H 90.9989 -3.27986 2.66805 0
M  V30 926 H 88.7169 -3.90186 7.07659 0
M  V30 927 H 92.3029 -3.33246 4.76905 0
M  V30 928 H 91.1829 -3.64142 6.94529 0
M  V30 929 N 88.686 -0.835752 -1.33615 0
M  V30 930 C 89.934 -0.429109 -1.97492 0
M  V30 931 C 90.255 1.01433 -1.66543 0
M  V30 932 O 89.525 1.70611 -0.962744 0
M  V30 933 H 88.105 -0.155686 -0.730596 0
M  V30 934 H 90.767 -1.06802 -1.63031 0
M  V30 935 H 89.863 -0.55861 -3.0706 0
M  V30 936 N 90.1641 1.46063 -0.591896 0
M  V30 937 C 91.0741 2.34192 0.13831 0
M  V30 938 C 92.0901 1.50305 0.876608 0
M  V30 939 O 93.2661 1.8315 0.837728 0
M  V30 940 C 90.3311 3.27656 1.13326 0
M  V30 941 C 89.3921 4.27445 0.39863 0
M  V30 942 C 88.6251 5.16443 1.34618 0
M  V30 943 O 88.8481 5.08553 2.58321 0
M  V30 944 O 87.7821 5.95843 0.851768 0
M  V30 945 H 91.6081 2.98002 -0.58552 0
M  V30 946 H 89.1931 1.45188 -0.352239 0
M  V30 947 H 91.0751 3.85291 1.70671 0
M  V30 948 H 89.7501 2.6643 1.83839 0
M  V30 949 H 88.6571 3.73471 -0.216895 0
M  V30 950 H 89.9901 4.91482 -0.265709 0
M  V30 951 N 91.6422 0.330177 1.54103 0
M  V30 952 C 92.9192 -0.325007 1.92881 0
M  V30 953 C 93.2992 -1.6934 1.26045 0
M  V30 954 O 92.6472 -2.24855 0.406526 0
M  V30 955 C 92.8572 -0.410634 3.46576 0
M  V30 956 C 94.2052 -0.667801 4.19316 0
M  V30 957 O 95.2292 -0.49329 3.52768 0
M  V30 958 O 94.0882 -1.00491 5.37181 0
M  V30 959 H 91.1822 -0.186873 0.80561 0
M  V30 960 H 93.7282 0.380376 1.65382 0
M  V30 961 H 92.5002 0.550164 3.87413 0
M  V30 962 H 92.1232 -1.16333 3.802 0
M  V30 963 N 93.1203 -1.57491 0.0584922 0
M  V30 964 C 94.3483 -1.97296 -0.623037 0
M  V30 965 C 94.7633 -0.936338 -1.63946 0
M  V30 966 O 94.1203 0.0785981 -1.82331 0
M  V30 967 C 94.1713 -3.37183 -1.30345 0
M  V30 968 O 93.8923 -4.36872 -0.32773 0
M  V30 969 C 95.3933 -3.91788 -2.07406 0
M  V30 970 H 92.6133 -0.649153 -0.169826 0
M  V30 971 H 95.1573 -2.04106 0.12696 0
M  V30 972 H 93.3123 -3.31502 -2.00463 0
M  V30 973 H 93.7263 -5.18141 -0.814269 0
M  V30 974 H 95.2003 -4.91926 -2.50425 0
M  V30 975 H 95.6773 -3.27609 -2.92521 0
M  V30 976 H 96.2833 -4.00829 -1.42184 0
M  V30 977 N 94.5984 0.214957 -1.56127 0
M  V30 978 C 95.5284 1.2695 -1.95974 0
M  V30 979 C 96.5094 1.48539 -0.828868 0
M  V30 980 O 97.6944 1.60611 -1.09168 0
M  V30 981 C 94.8244 2.61794 -2.28214 0
M  V30 982 C 93.7784 2.54851 -3.43853 0
M  V30 983 C 93.1044 3.93785 -3.61715 0
M  V30 984 C 94.4044 2.09065 -4.78632 0
M  V30 985 H 96.0984 0.93846 -2.84312 0
M  V30 986 H 93.6444 0.449996 -1.36788 0
M  V30 987 H 95.5974 3.35731 -2.54682 0
M  V30 988 H 94.3214 2.96599 -1.36736 0
M  V30 989 H 92.9804 1.8337 -3.17444 0
M  V30 990 H 92.6284 4.25908 -2.67602 0
M  V30 991 H 92.3284 3.90019 -4.39498 0
M  V30 992 H 93.8524 4.69374 -3.90539 0
M  V30 993 H 95.2664 2.7275 -5.04262 0
M  V30 994 H 93.6634 2.16346 -5.59745 0
M  V30 995 H 94.7334 1.04315 -4.73547 0
M  V30 996 N 96.0765 1.50051 0.48192 0
M  V30 997 C 97.0095 1.62749 1.59963 0
M  V30 998 C 97.9875 0.475903 1.5548 0
M  V30 999 O 99.1715 0.693986 1.7526 0
M  V30 1000 C 96.2985 1.60008 2.98522 0
M  V30 1001 C 95.3445 2.80596 3.21198 0
M  V30 1002 S 96.1775 4.42038 3.02262 0
M  V30 1003 C 97.3335 4.41973 4.43182 0
M  V30 1004 H 97.5665 2.57296 1.4895 0
M  V30 1005 H 95.0995 1.39179 0.668477 0
M  V30 1006 H 97.0575 1.59112 3.78409 0
M  V30 1007 H 95.7185 0.667153 3.06933 0
M  V30 1008 H 94.9115 2.74952 4.22395 0
M  V30 1009 H 94.5135 2.79003 2.49065 0
M  V30 1010 H 96.8055 4.14868 5.35622 0
M  V30 1011 H 97.7485 5.43512 4.53873 0
M  V30 1012 H 98.1565 3.71812 4.24755 0
M  V30 1013 N 97.5546 -0.734337 1.39446 0
M  V30 1014 C 98.4646 -1.87879 1.40495 0
M  V30 1015 C 99.4806 -1.714 0.299672 0
M  V30 1016 O 100.657 -1.93991 0.541249 0
M  V30 1017 C 97.7216 -3.23477 1.24754 0
M  V30 1018 C 96.7826 -3.52344 2.45259 0
M  V30 1019 C 96.0156 -4.81473 2.30259 0
M  V30 1020 O 96.2386 -5.55237 1.30643 0
M  V30 1021 O 95.1726 -5.10254 3.19256 0
M  V30 1022 H 98.9986 -1.89949 2.36966 0
M  V30 1023 H 96.5836 -0.882243 1.20569 0
M  V30 1024 H 98.4656 -4.04509 1.18111 0
M  V30 1025 H 97.1406 -3.22176 0.313781 0
M  V30 1026 H 96.0476 -2.71396 2.57478 0
M  V30 1027 H 97.3806 -3.58426 3.37331 0
M  V30 1028 N 99.0327 -1.24633 -0.964593 0
M  V30 1029 C 100.263 -1.11339 -1.74032 0
M  V30 1030 C 100.671 0.336593 -1.86182 0
M  V30 1031 O 100.014 1.24389 -1.35178 0
M  V30 1032 C 100.076 -1.68284 -3.1768 0
M  V30 1033 C 99.7397 -3.17196 -3.28992 0
M  V30 1034 C 100.737 -4.14308 -3.14078 0
M  V30 1035 C 98.4217 -3.57215 -3.53133 0
M  V30 1036 C 100.416 -5.4942 -3.23135 0
M  V30 1037 C 98.1027 -4.92468 -3.61827 0
M  V30 1038 C 99.1007 -5.8838 -3.46841 0
M  V30 1039 O 98.7887 -7.21173 -3.55197 0
M  V30 1040 H 98.5207 -0.389551 -0.552472 0
M  V30 1041 H 101.075 -1.65282 -1.21946 0
M  V30 1042 H 99.3047 -1.08777 -3.71085 0
M  V30 1043 H 100.994 -1.50234 -3.77074 0
M  V30 1044 H 101.76 -3.84731 -2.95308 0
M  V30 1045 H 97.6387 -2.83063 -3.63863 0
M  V30 1046 H 101.183 -6.24263 -3.11355 0
M  V30 1047 H 97.0797 -5.21714 -3.80111 0
M  V30 1048 H 97.8477 -7.29135 -3.71892 0
M  V30 1049 N 100.511 1.16574 -1.06058 0
M  V30 1050 C 101.441 2.23057 -0.690488 0
M  V30 1051 C 102.422 1.67141 0.315901 0
M  V30 1052 O 103.607 1.93253 0.191556 0
M  V30 1053 C 100.737 3.47222 -0.073625 0
M  V30 1054 C 99.6908 4.16016 -1.00573 0
M  V30 1055 C 99.0168 5.34104 -0.252289 0
M  V30 1056 C 100.317 4.67264 -2.33371 0
M  V30 1057 H 102.011 2.54271 -1.58072 0
M  V30 1058 H 99.5568 1.22218 -0.76149 0
M  V30 1059 H 101.51 4.20939 0.19714 0
M  V30 1060 H 100.234 3.15302 0.85161 0
M  V30 1061 H 98.8928 3.44223 -1.2612 0
M  V30 1062 H 98.5408 4.98437 0.675988 0
M  V30 1063 H 98.2408 5.81072 -0.873455 0
M  V30 1064 H 99.7648 6.10599 0.0109857 0
M  V30 1065 H 101.179 5.32573 -2.12223 0
M  V30 1066 H 99.5758 5.24843 -2.90963 0
M  V30 1067 H 100.646 3.83602 -2.96611 0
M  V30 1068 N 101.989 0.842826 1.3317 0
M  V30 1069 C 102.899 0.281444 2.32906 0
M  V30 1070 C 103.915 -0.594587 1.63526 0
M  V30 1071 O 105.091 -0.49777 1.95152 0
M  V30 1072 C 102.156 -0.530929 3.42611 0
M  V30 1073 C 101.217 0.369843 4.27704 0
M  V30 1074 C 100.45 -0.403853 5.3217 0
M  V30 1075 O 100.673 -1.63513 5.46461 0
M  V30 1076 O 99.6069 0.224199 6.01482 0
M  V30 1077 H 103.433 1.10744 2.82789 0
M  V30 1078 H 101.018 0.60545 1.36582 0
M  V30 1079 H 102.9 -0.992437 4.09547 0
M  V30 1080 H 101.575 -1.33392 2.94938 0
M  V30 1081 H 100.482 0.879275 3.6362 0
M  V30 1082 H 101.815 1.13771 4.78871 0
M  V30 1083 N 103.467 -1.45747 0.599634 0
M  V30 1084 C 104.415 -2.322 -0.136426 0
M  V30 1085 C 105.409 -1.45497 -0.867583 0
M  V30 1086 O 106.615 -1.62027 -0.78405 0
M  V30 1087 H 102.99 -0.749368 -0.0628588 0
M  V30 1088 H 104.961 -2.92072 0.611281 0
M  V30 1089 C 103.71 -3.28974 -1.12567 0
M  V30 1090 H 103.033 -3.9568 -0.572484 0
M  V30 1091 H 104.473 -3.92212 -1.61077 0
M  V30 1092 C 102.932 -2.55561 -2.19523 0
M  V30 1093 O 103.462 -2.33111 -3.27143 0
M  V30 1094 N 101.668 -2.15832 -1.94589 0
M  V30 1095 H 101.215 -2.3429 -1.07078 0
M  V30 1096 H 101.173 -1.67034 -2.66359 0
M  V30 1097 N 104.945 -0.338344 -1.53925 0
M  V30 1098 C 106.356 0.146651 -1.86123 0
M  V30 1099 C 106.707 1.5042 -1.2597 0
M  V30 1100 O 105.832 2.08723 -0.571294 0
M  V30 1101 C 106.427 0.272879 -3.37699 0
M  V30 1102 C 104.986 0.702103 -3.69794 0
M  V30 1103 C 104.133 -0.167304 -2.76795 0
M  V30 1104 H 107.084 -0.558123 -1.48562 0
M  V30 1105 H 107.105 1.10128 -3.64214 0
M  V30 1106 H 106.617 -0.715307 -3.81451 0
M  V30 1107 H 104.718 1.6995 -3.31584 0
M  V30 1108 H 104.831 0.495604 -4.7653 0
M  V30 1109 H 103.195 0.359527 -2.5215 0
M  V30 1110 H 103.978 -1.15253 -3.23375 0
M  V30 1111 N 106.423 1.57458 -0.0668435 0
M  V30 1112 C 107.37 2.12439 0.902122 0
M  V30 1113 C 108.34 1.03565 1.2986 0
M  V30 1114 O 109.525 1.312 1.38532 0
M  V30 1115 C 106.665 2.6865 2.16614 0
M  V30 1116 C 105.778 3.91663 1.82274 0
M  V30 1117 C 104.913 4.36134 3.0325 0
M  V30 1118 C 103.952 5.51808 2.64904 0
M  V30 1119 N 103.089 5.9126 3.78624 0
M  V30 1120 H 107.929 2.94934 0.426382 0
M  V30 1121 H 105.466 1.4575 0.198819 0
M  V30 1122 H 107.424 2.99346 2.90599 0
M  V30 1123 H 106.054 1.88928 2.61737 0
M  V30 1124 H 105.106 3.6746 0.983719 0
M  V30 1125 H 106.418 4.75693 1.50059 0
M  V30 1126 H 105.572 4.68465 3.85519 0
M  V30 1127 H 104.311 3.50948 3.38655 0
M  V30 1128 H 103.316 5.19133 1.81055 0
M  V30 1129 H 104.541 6.38722 2.30675 0
M  V30 1130 H 102.487 5.09024 4.138 0
M  V30 1131 H 102.404 6.70018 3.5016 0
M  V30 1132 H 103.672 6.28212 4.61486 0
M  V30 1133 N 107.901 -0.206675 1.56239 0
M  V30 1134 C 108.848 -1.25617 1.93621 0
M  V30 1135 C 109.818 -1.45824 0.795274 0
M  V30 1136 O 111.003 -1.59148 1.05245 0
M  V30 1137 C 108.143 -2.59839 2.27107 0
M  V30 1138 C 107.256 -2.47308 3.54207 0
M  V30 1139 C 106.391 -3.74155 3.7707 0
M  V30 1140 C 105.43 -3.56407 4.97635 0
M  V30 1141 N 104.567 -4.75238 5.1681 0
M  V30 1142 H 109.407 -0.930383 2.83104 0
M  V30 1143 H 106.944 -0.448065 1.4011 0
M  V30 1144 H 108.902 -3.38021 2.44535 0
M  V30 1145 H 107.532 -2.90485 1.40778 0
M  V30 1146 H 106.584 -1.60483 3.4489 0
M  V30 1147 H 107.896 -2.30122 4.42544 0
M  V30 1148 H 107.05 -4.60778 3.94675 0
M  V30 1149 H 105.789 -3.94282 2.87042 0
M  V30 1150 H 104.794 -2.68168 4.79964 0
M  V30 1151 H 106.019 -3.37736 5.89161 0
M  V30 1152 H 103.965 -4.95651 4.29728 0
M  V30 1153 H 103.882 -4.60835 5.99306 0
M  V30 1154 H 105.15 -5.63246 5.38864 0
M  V30 1155 N 109.379 -1.50304 -0.473955 0
M  V30 1156 C 110.609 -1.64663 -1.24778 0
M  V30 1157 C 111.017 -0.328174 -1.86332 0
M  V30 1158 O 110.36 0.699536 -1.69859 0
M  V30 1159 C 110.422 -2.6778 -2.39863 0
M  V30 1160 C 110.086 -4.11413 -1.98969 0
M  V30 1161 C 111.083 -4.97372 -1.51385 0
M  V30 1162 C 108.768 -4.57312 -2.07777 0
M  V30 1163 C 110.762 -6.27277 -1.13148 0
M  V30 1164 C 108.449 -5.87223 -1.69152 0
M  V30 1165 C 109.447 -6.72031 -1.21915 0
M  V30 1166 O 109.135 -7.99518 -0.838237 0
M  V30 1167 H 108.867 -0.556602 -0.383627 0
M  V30 1168 H 111.421 -1.9726 -0.572491 0
M  V30 1169 H 109.651 -2.30419 -3.10554 0
M  V30 1170 H 111.34 -2.71388 -3.01833 0
M  V30 1171 H 112.106 -4.63128 -1.44004 0
M  V30 1172 H 107.985 -3.91449 -2.43493 0
M  V30 1173 H 111.529 -6.93425 -0.762077 0
M  V30 1174 H 107.426 -6.20989 -1.76191 0
M  V30 1175 H 108.194 -8.12764 -0.967339 0
M  V30 1176 N 110.857 0.726932 -1.39834 0
M  V30 1177 C 112.106 1.48214 -1.36805 0
M  V30 1178 C 112.419 1.95576 0.0305291 0
M  V30 1179 O 113.625 2.7088 0.183417 0
M  V30 1180 C 112.081 2.67854 -2.40379 0
M  V30 1181 C 111.689 2.27408 -3.85992 0
M  V30 1182 C 113.433 3.45641 -2.46439 0
M  V30 1183 C 111.34 3.43819 -4.81189 0
M  V30 1184 H 110.27 0.556606 -0.508631 0
M  V30 1185 H 112.921 0.792216 -1.65518 0
M  V30 1186 H 111.303 3.3896 -2.04749 0
M  V30 1187 H 112.477 1.63795 -4.30706 0
M  V30 1188 H 110.792 1.62692 -3.83302 0
M  V30 1189 H 113.389 4.32244 -3.14753 0
M  V30 1190 H 113.732 3.88669 -1.49139 0
M  V30 1191 H 114.265 2.8157 -2.81004 0
M  V30 1192 H 111.004 3.05834 -5.79781 0
M  V30 1193 H 110.524 4.06385 -4.41148 0
M  V30 1194 H 112.203 4.10043 -5.00474 0
M  V30 1195 N 112.336 1.25143 0.95797 0
M  V30 1196 C 113.747 1.08851 1.51685 0
M  V30 1197 C 114.098 -0.33687 1.93286 0
M  V30 1198 O 113.223 -1.22644 1.7829 0
M  V30 1199 C 113.818 1.96978 2.75654 0
M  V30 1200 C 112.377 1.84881 3.27866 0
M  V30 1201 C 111.524 1.91329 2.0072 0
M  V30 1202 H 114.475 1.38478 0.77522 0
M  V30 1203 H 114.496 1.5078 3.4935 0
M  V30 1204 H 114.008 3.00712 2.45345 0
M  V30 1205 H 112.109 0.840182 3.63004 0
M  V30 1206 H 112.222 2.6951 3.96107 0
M  V30 1207 H 110.586 1.35174 2.15871 0
M  V30 1208 H 111.369 2.96661 1.72764 0
M  V30 1209 N 113.814 -1.1601 1.06675 0
M  V30 1210 C 115.062 -1.86264 0.784229 0
M  V30 1211 C 115.383 -1.82328 -0.691488 0
M  V30 1212 O 114.653 -1.25947 -1.50047 0
M  V30 1213 H 113.233 -0.689621 0.28711 0
M  V30 1214 H 115.895 -1.40664 1.34906 0
M  V30 1215 H 114.991 -2.91595 1.11259 0
M  V30 1216 N 115.292 -0.849877 -1.32721 0
M  V30 1217 C 116.52 -0.464754 -2.01613 0
M  V30 1218 C 116.935 0.937191 -1.63897 0
M  V30 1219 O 116.292 1.61081 -0.857856 0
M  V30 1220 C 116.343 -0.588638 -3.56675 0
M  V30 1221 O 116.064 -1.93535 -3.93034 0
M  V30 1222 C 117.565 -0.2019 -4.4284 0
M  V30 1223 H 114.785 -0.183215 -0.645502 0
M  V30 1224 H 117.329 -1.1455 -1.69407 0
M  V30 1225 H 115.484 0.0443159 -3.87375 0
M  V30 1226 H 115.898 -1.92871 -4.87751 0
M  V30 1227 H 117.372 -0.339599 -5.50954 0
M  V30 1228 H 117.849 0.857224 -4.30753 0
M  V30 1229 H 118.455 -0.809733 -4.17521 0
M  V30 1230 N 116.77 1.45427 -0.607355 0
M  V30 1231 C 117.717 2.3053 0.111625 0
M  V30 1232 C 118.687 1.4209 0.860216 0
M  V30 1233 O 119.872 1.71019 0.845998 0
M  V30 1234 C 117.012 3.26992 1.10319 0
M  V30 1235 C 116.125 4.30535 0.355493 0
M  V30 1236 C 115.26 5.14105 1.33676 0
M  V30 1237 C 114.299 6.09376 0.576862 0
M  V30 1238 N 113.436 6.85727 1.5074 0
M  V30 1239 H 118.276 2.91477 -0.620093 0
M  V30 1240 H 115.813 1.43631 -0.317594 0
M  V30 1241 H 117.771 3.81385 1.6912 0
M  V30 1242 H 116.401 2.67799 1.80232 0
M  V30 1243 H 115.453 3.78805 -0.348023 0
M  V30 1244 H 116.765 4.98235 -0.237423 0
M  V30 1245 H 115.919 5.72897 1.99684 0
M  V30 1246 H 114.658 4.46423 1.9636 0
M  V30 1247 H 113.663 5.49715 -0.0968519 0
M  V30 1248 H 114.888 6.79085 -0.0449341 0
M  V30 1249 H 112.834 6.20735 2.12189 0
M  V30 1250 H 112.751 7.49778 0.967913 0
M  V30 1251 H 114.019 7.4906 2.15706 0
M  V30 1252 N 118.248 0.346503 1.53744 0
M  V30 1253 C 119.181 -0.552023 2.21423 0
M  V30 1254 C 120.159 -1.09798 1.19929 0
M  V30 1255 O 121.343 -1.1577 1.4876 0
M  V30 1256 C 118.47 -1.75972 2.89398 0
M  V30 1257 C 117.516 -1.34295 4.04805 0
M  V30 1258 S 118.349 -0.360263 5.34287 0
M  V30 1259 C 119.505 -1.57473 6.05767 0
M  V30 1260 H 119.738 0.0228119 2.97291 0
M  V30 1261 H 117.271 0.130579 1.53847 0
M  V30 1262 H 119.229 -2.45256 3.2918 0
M  V30 1263 H 117.89 -2.30578 2.1329 0
M  V30 1264 H 117.083 -2.24349 4.51313 0
M  V30 1265 H 116.685 -0.729555 3.66815 0
M  V30 1266 H 118.977 -2.50875 6.29339 0
M  V30 1267 H 119.92 -1.15138 6.98676 0
M  V30 1268 H 120.328 -1.77212 5.35963 0
M  V30 1269 N 119.726 -1.57421 0.075193 0
M  V30 1270 C 120.975 -1.92794 -0.592731 0
M  V30 1271 C 121.288 -0.957478 -1.70563 0
M  V30 1272 O 122.494 -1.20417 -2.43335 0
M  V30 1273 C 120.95 -3.42495 -1.10569 0
M  V30 1274 C 120.558 -4.47994 -0.0236121 0
M  V30 1275 C 122.302 -3.86864 -1.74748 0
M  V30 1276 C 120.209 -5.88829 -0.550803 0
M  V30 1277 H 119.139 -0.719591 -0.225177 0
M  V30 1278 H 121.79 -1.82902 0.147978 0
M  V30 1279 H 120.172 -3.47471 -1.89947 0
M  V30 1280 H 121.346 -4.54637 0.751099 0
M  V30 1281 H 119.661 -4.13113 0.522159 0
M  V30 1282 H 122.258 -4.8947 -2.15229 0
M  V30 1283 H 122.601 -3.24417 -2.60882 0
M  V30 1284 H 123.134 -3.84504 -1.01986 0
M  V30 1285 H 119.873 -6.54929 0.273457 0
M  V30 1286 H 119.393 -5.85698 -1.29296 0
M  V30 1287 H 121.072 -6.38811 -1.02613 0
M  V30 1288 N 121.204 0.198386 -1.56346 0
M  V30 1289 C 122.451 0.919286 -1.80431 0
M  V30 1290 C 122.779 1.83393 -0.647866 0
M  V30 1291 O 122.034 1.92236 0.366556 0
M  V30 1292 C 122.333 1.77031 -3.10475 0
M  V30 1293 C 121.999 1.00693 -4.39513 0
M  V30 1294 C 120.661 0.796145 -4.74568 0
M  V30 1295 C 123.013 0.469559 -5.19081 0
M  V30 1296 C 120.341 0.0364588 -5.86689 0
M  V30 1297 C 122.693 -0.2769 -6.31994 0
M  V30 1298 C 121.357 -0.49873 -6.65634 0
M  V30 1299 H 120.627 0.336391 -0.660244 0
M  V30 1300 H 123.274 0.185872 -1.90596 0
M  V30 1301 H 121.579 2.5723 -2.95533 0
M  V30 1302 H 123.276 2.33065 -3.26315 0
M  V30 1303 H 119.866 1.18122 -4.12001 0
M  V30 1304 H 124.05 0.619816 -4.92414 0
M  V30 1305 H 119.306 -0.145412 -6.11227 0
M  V30 1306 H 123.48 -0.700684 -6.92866 0
M  V30 1307 H 121.107 -1.0893 -7.52355 0
M  V30 1308 N 122.682 1.50554 0.465978 0
M  V30 1309 C 123.928 1.62038 1.21949 0
M  V30 1310 C 124.261 0.322116 1.9151 0
M  V30 1311 O 123.536 -0.676723 1.82348 0
M  V30 1312 C 123.819 2.80421 2.25912 0
M  V30 1313 C 123.672 4.20144 1.60622 0
M  V30 1314 C 124.991 2.94354 3.27176 0
M  V30 1315 H 122.11 0.589752 0.441998 0
M  V30 1316 H 124.752 1.82956 0.51257 0
M  V30 1317 H 122.902 2.62717 2.86203 0
M  V30 1318 H 124.574 4.49449 1.03889 0
M  V30 1319 H 122.817 4.24165 0.909211 0
M  V30 1320 H 123.488 4.98914 2.36196 0
M  V30 1321 H 125.964 3.10578 2.76913 0
M  V30 1322 H 124.84 3.788 3.97242 0
M  V30 1323 H 125.101 2.05186 3.916 0
M  V30 1324 N 124.16 -0.719506 1.40217 0
M  V30 1325 C 125.408 -1.47641 1.3801 0
M  V30 1326 C 125.729 -1.94992 -0.018145 0
M  V30 1327 O 124.999 -1.70073 -0.972207 0
M  V30 1328 H 123.579 -0.547744 0.507923 0
M  V30 1329 H 126.241 -0.853187 1.75233 0
M  V30 1330 H 125.337 -2.35112 2.05253 0
M  V30 1331 N 125.638 -1.25649 -0.95132 0
M  V30 1332 C 126.887 -1.09988 -1.69073 0
M  V30 1333 C 127.2 0.358355 -1.92289 0
M  V30 1334 O 128.406 0.635466 -2.63958 0
M  V30 1335 C 126.862 -1.92012 -3.044 0
M  V30 1336 C 126.47 -3.42347 -2.88968 0
M  V30 1337 C 128.214 -1.8493 -3.82101 0
M  V30 1338 C 126.121 -4.16655 -4.19705 0
M  V30 1339 H 125.051 -0.407993 -0.63408 0
M  V30 1340 H 127.702 -1.49873 -1.05879 0
M  V30 1341 H 126.084 -1.44952 -3.68517 0
M  V30 1342 H 127.258 -3.97104 -2.33762 0
M  V30 1343 H 125.573 -3.50557 -2.24719 0
M  V30 1344 H 128.17 -2.37739 -4.78941 0
M  V30 1345 H 128.513 -0.817883 -4.08187 0
M  V30 1346 H 129.046 -2.29758 -3.2474 0
M  V30 1347 H 125.785 -5.20224 -3.98807 0
M  V30 1348 H 125.305 -3.66681 -4.74663 0
M  V30 1349 H 126.984 -4.24551 -4.88227 0
M  V30 1350 N 127.117 1.15442 -1.07289 0
M  V30 1351 C 128.064 2.20161 -0.692653 0
M  V30 1352 C 129.034 1.63073 0.31564 0
M  V30 1353 O 130.219 1.89725 0.202235 0
M  V30 1354 C 127.359 3.44967 -0.0959509 0
M  V30 1355 C 126.472 4.16256 -1.15564 0
M  V30 1356 C 125.607 5.28609 -0.524011 0
M  V30 1357 C 124.646 5.91715 -1.56653 0
M  V30 1358 N 123.783 6.9554 -0.957531 0
M  V30 1359 H 128.623 2.52037 -1.59002 0
M  V30 1360 H 126.16 1.2378 -0.794798 0
M  V30 1361 H 128.118 4.16341 0.267628 0
M  V30 1362 H 126.748 3.1361 0.764772 0
M  V30 1363 H 125.8 3.43385 -1.6368 0
M  V30 1364 H 127.112 4.59268 -1.94613 0
M  V30 1365 H 126.266 6.06604 -0.108032 0
M  V30 1366 H 125.005 4.86787 0.29825 0
M  V30 1367 H 124.01 5.12433 -1.9923 0
M  V30 1368 H 125.235 6.35614 -2.39107 0
M  V30 1369 H 123.181 6.55814 -0.156162 0
M  V30 1370 H 123.098 7.36977 -1.68526 0
M  V30 1371 H 124.366 7.77435 -0.567032 0
M  V30 1372 N 128.595 0.856903 1.32268 0
M  V30 1373 C 129.542 0.301172 2.28827 0
M  V30 1374 C 130.512 -0.593104 1.5515 0
M  V30 1375 O 131.697 -0.527537 1.83362 0
M  V30 1376 C 128.837 -0.502523 3.41422 0
M  V30 1377 C 127.95 0.417797 4.29975 0
M  V30 1378 C 127.085 -0.398749 5.29701 0
M  V30 1379 C 126.124 0.518827 6.09897 0
M  V30 1380 N 125.261 -0.260674 7.01616 0
M  V30 1381 H 130.101 1.12983 2.75751 0
M  V30 1382 H 127.638 0.568582 1.35667 0
M  V30 1383 H 129.596 -0.984141 4.05426 0
M  V30 1384 H 128.226 -1.29599 2.95642 0
M  V30 1385 H 127.278 1.01781 3.66531 0
M  V30 1386 H 128.59 1.12191 4.86019 0
M  V30 1387 H 127.744 -0.943435 5.9932 0
M  V30 1388 H 126.483 -1.13622 4.7428 0
M  V30 1389 H 125.488 1.07538 5.39181 0
M  V30 1390 H 126.713 1.25495 6.67404 0
M  V30 1391 H 124.659 -0.981198 6.4862 0
M  V30 1392 H 124.576 0.384364 7.55022 0
M  V30 1393 H 125.844 -0.787014 7.75517 0
M  V30 1394 N 130.073 -1.45103 0.615059 0
M  V30 1395 C 131.02 -2.30586 -0.0993978 0
M  V30 1396 C 131.99 -1.42544 -0.852669 0
M  V30 1397 O 133.175 -1.71465 -0.836917 0
M  V30 1398 C 130.315 -3.27572 -1.08583 0
M  V30 1399 C 129.428 -4.30717 -0.332656 0
M  V30 1400 C 128.563 -5.14807 -1.30947 0
M  V30 1401 C 127.602 -6.09673 -0.544538 0
M  V30 1402 N 126.739 -6.86517 -1.47101 0
M  V30 1403 H 131.579 -2.91144 0.635542 0
M  V30 1404 H 129.116 -1.4346 0.325206 0
M  V30 1405 H 131.074 -3.82276 -1.67095 0
M  V30 1406 H 129.704 -2.68751 -1.78809 0
M  V30 1407 H 128.756 -3.78615 0.368107 0
M  V30 1408 H 130.068 -4.98102 0.263842 0
M  V30 1409 H 129.222 -5.73948 -1.96643 0
M  V30 1410 H 127.961 -4.47458 -1.9399 0
M  V30 1411 H 126.966 -5.49656 0.126003 0
M  V30 1412 H 128.191 -6.79052 0.080947 0
M  V30 1413 H 126.137 -6.21851 -2.08895 0
M  V30 1414 H 126.054 -7.50281 -0.928137 0
M  V30 1415 H 127.322 -7.50194 -2.11731 0
M  V30 1416 N 131.551 -0.354651 -1.53558 0
M  V30 1417 C 132.461 0.50515 -2.29097 0
M  V30 1418 C 133.477 1.10223 -1.34636 0
M  V30 1419 O 134.653 1.11553 -1.67684 0
M  V30 1420 C 131.718 1.63479 -3.05738 0
M  V30 1421 C 130.779 1.06636 -4.15845 0
M  V30 1422 C 130.012 2.14217 -4.88822 0
M  V30 1423 O 130.235 3.35137 -4.61562 0
M  V30 1424 O 129.169 1.77887 -5.75013 0
M  V30 1425 H 132.995 -0.109237 -3.03503 0
M  V30 1426 H 130.58 -0.119357 -1.48922 0
M  V30 1427 H 132.462 2.2918 -3.5363 0
M  V30 1428 H 131.137 2.23478 -2.34178 0
M  V30 1429 H 130.044 0.373565 -3.7223 0
M  V30 1430 H 131.377 0.511081 -4.89539 0
M  V30 1431 N 133.029 1.57378 -0.0835403 0
M  V30 1432 C 133.939 2.16897 0.894021 0
M  V30 1433 C 134.955 1.13528 1.31861 0
M  V30 1434 O 136.131 1.45848 1.3889 0
M  V30 1435 C 133.196 2.72831 2.13925 0
M  V30 1436 C 132.257 3.91115 1.76997 0
M  V30 1437 C 131.49 4.44371 2.95584 0
M  V30 1438 O 131.713 3.96596 4.09961 0
M  V30 1439 O 130.647 5.35549 2.74719 0
M  V30 1440 H 134.473 3.00814 0.417679 0
M  V30 1441 H 132.058 1.48741 0.140181 0
M  V30 1442 H 133.94 3.0863 2.86924 0
M  V30 1443 H 132.615 1.91967 2.60635 0
M  V30 1444 H 131.522 3.60148 1.01214 0
M  V30 1445 H 132.855 4.73307 1.3506 0
M  V30 1446 N 134.507 -0.190092 1.56449 0
M  V30 1447 C 135.923 -0.54113 1.50146 0
M  V30 1448 C 136.123 -1.85603 0.784465 0
M  V30 1449 O 135.179 -2.5024 0.337051 0
M  V30 1450 C 136.492 -0.591241 2.9483 0
M  V30 1451 C 138.04 -0.679732 3.0553 0
M  V30 1452 C 138.515 -0.760908 4.51635 0
M  V30 1453 N 140.006 -0.824302 4.55806 0
M  V30 1454 C 140.741 -0.907365 5.66175 0
M  V30 1455 N 140.237 -0.952422 6.86222 0
M  V30 1456 N 142.03 -0.94494 5.541 0
M  V30 1457 H 134.181 0.67235 2.01478 0
M  V30 1458 H 136.444 0.240127 0.917084 0
M  V30 1459 H 136.15 0.305905 3.50367 0
M  V30 1460 H 136.024 -1.44422 3.48457 0
M  V30 1461 H 138.411 -1.56731 2.50039 0
M  V30 1462 H 138.492 0.199549 2.5502 0
M  V30 1463 H 138.136 0.122336 5.07753 0
M  V30 1464 H 138.066 -1.65606 4.99882 0
M  V30 1465 H 140.557 -0.798526 3.69367 0
M  V30 1466 H 140.87 -1.01645 7.66086 0
M  V30 1467 H 139.215 -0.921014 6.8887 0
M  V30 1468 H 142.406 -0.906612 4.59236 0
M  V30 1469 H 142.579 -1.00622 6.4014 0
M  V30 1470 N 135.985 -1.50799 -0.457987 0
M  V30 1471 C 136.948 -1.7005 -1.53674 0
M  V30 1472 C 137.948 -0.570881 -1.50325 0
M  V30 1473 O 139.138 -0.838126 -1.52712 0
M  V30 1474 C 136.27 -1.73788 -2.93276 0
M  V30 1475 H 137.463 -2.66306 -1.37917 0
M  V30 1476 H 135.016 -1.40477 -0.685271 0
M  V30 1477 H 135.751 -0.792717 -3.14462 0
M  V30 1478 H 135.536 -2.55864 -2.97113 0
M  V30 1479 H 137.026 -1.90591 -3.71571 0
M  V30 1480 N 137.463 0.71206 -1.40597 0
M  V30 1481 C 138.74 1.46536 -1.29563 0
M  V30 1482 C 139.12 2.10931 0.0844217 0
M  V30 1483 O 138.468 2.00418 1.0975 0
M  V30 1484 C 138.678 2.49821 -2.43701 0
M  V30 1485 C 140.026 3.15551 -2.841 0
M  V30 1486 O 141.05 2.60142 -2.4332 0
M  V30 1487 O 139.909 4.15867 -3.54566 0
M  V30 1488 H 137.003 0.651801 -0.509004 0
M  V30 1489 H 139.549 0.743935 -1.52524 0
M  V30 1490 H 138.321 2.00778 -3.35863 0
M  V30 1491 H 137.944 3.29495 -2.22528 0
M  V30 1492 N 138.941 1.26152 0.944643 0
M  V30 1493 C 139.871 1.09902 2.06019 0
M  V30 1494 C 140.852 0.00519538 1.70099 0
M  V30 1495 O 142.037 0.176583 1.93396 0
M  V30 1496 C 139.167 0.727562 3.39594 0
M  V30 1497 C 138.121 1.77274 3.89561 0
M  V30 1498 C 137.447 1.25569 5.19747 0
M  V30 1499 C 138.747 3.17357 4.14827 0
M  V30 1500 H 140.441 2.03217 2.19871 0
M  V30 1501 H 137.987 0.978452 1.05652 0
M  V30 1502 H 139.94 0.600777 4.17095 0
M  V30 1503 H 138.664 -0.241287 3.25707 0
M  V30 1504 H 137.323 1.88814 3.14237 0
M  V30 1505 H 136.971 0.276783 5.02238 0
M  V30 1506 H 136.671 1.95433 5.54148 0
M  V30 1507 H 138.195 1.1415 5.99835 0
M  V30 1508 H 139.609 3.08914 4.82954 0
M  V30 1509 H 138.006 3.84781 4.60504 0
M  V30 1510 H 139.076 3.63673 3.20734 0
M  V30 1511 N 140.419 -1.14872 1.07899 0
M  V30 1512 C 141.668 -1.85135 0.800499 0
M  V30 1513 C 141.981 -1.83547 -0.676014 0
M  V30 1514 O 143.187 -2.49548 -1.06948 0
M  V30 1515 C 141.643 -3.3231 1.38197 0
M  V30 1516 C 141.251 -3.42329 2.8899 0
M  V30 1517 C 142.995 -4.0772 1.18174 0
M  V30 1518 C 140.902 -4.83684 3.403 0
M  V30 1519 H 139.832 -0.693563 0.29578 0
M  V30 1520 H 142.483 -1.29532 1.29976 0
M  V30 1521 H 140.865 -3.87618 0.810431 0
M  V30 1522 H 142.039 -2.97097 3.52236 0
M  V30 1523 H 140.354 -2.80369 3.07867 0
M  V30 1524 H 142.951 -5.12049 1.5398 0
M  V30 1525 H 143.294 -4.16124 0.12117 0
M  V30 1526 H 143.827 -3.58696 1.71994 0
M  V30 1527 H 140.566 -4.80465 4.45907 0
M  V30 1528 H 140.086 -5.29474 2.81811 0
M  V30 1529 H 141.765 -5.52558 3.36584 0
M  V30 1530 N 141.898 -0.863906 -1.31812 0
M  V30 1531 C 142.861 -0.320212 -2.26952 0
M  V30 1532 C 143.861 0.525369 -1.51975 0
M  V30 1533 O 145.051 0.335547 -1.70938 0
M  V30 1534 C 142.183 0.545919 -3.365 0
M  V30 1535 H 143.376 -1.16004 -2.76556 0
M  V30 1536 H 140.929 -0.638995 -1.42641 0
M  V30 1537 H 141.664 1.40718 -2.92179 0
M  V30 1538 H 141.449 -0.0594674 -3.92055 0
M  V30 1539 H 142.939 0.918796 -4.07367 0
M  V30 1540 N 143.376 1.44774 -0.622745 0
M  V30 1541 C 144.606 2.06187 -0.130532 0
M  V30 1542 C 145.014 1.46547 1.19669 0
M  V30 1543 O 144.357 0.579636 1.74316 0
M  V30 1544 C 144.419 3.59437 0.0674983 0
M  V30 1545 C 144.083 4.41496 -1.18026 0
M  V30 1546 C 145.08 4.75512 -2.102 0
M  V30 1547 C 142.765 4.82007 -1.41333 0
M  V30 1548 C 144.759 5.48912 -3.23998 0
M  V30 1549 C 142.446 5.55157 -2.55429 0
M  V30 1550 C 143.444 5.88528 -3.46589 0
M  V30 1551 O 143.132 6.60191 -4.58697 0
M  V30 1552 H 142.864 0.672045 -0.0730162 0
M  V30 1553 H 145.418 1.86768 -0.854802 0
M  V30 1554 H 143.648 3.77314 0.846825 0
M  V30 1555 H 145.337 4.02642 0.513209 0
M  V30 1556 H 146.103 4.4476 -1.93425 0
M  V30 1557 H 141.982 4.55457 -0.712709 0
M  V30 1558 H 145.526 5.74877 -3.95174 0
M  V30 1559 H 141.423 5.85324 -2.72151 0
M  V30 1560 H 142.191 6.78654 -4.57571 0
M  V30 1561 N 144.854 0.36279 1.53368 0
M  V30 1562 C 145.784 -0.476976 2.28576 0
M  V30 1563 C 146.765 -1.08631 1.30894 0
M  V30 1564 O 147.95 -1.10409 1.59761 0
M  V30 1565 C 145.08 -1.61828 3.07293 0
M  V30 1566 C 144.034 -1.13633 4.1264 0
M  V30 1567 C 143.36 -2.36766 4.79423 0
M  V30 1568 C 144.66 -0.223061 5.21823 0
M  V30 1569 H 146.354 0.150474 2.99022 0
M  V30 1570 H 143.9 0.0738103 1.43811 0
M  V30 1571 H 145.853 -2.21237 3.58653 0
M  V30 1572 H 144.577 -2.27292 2.34533 0
M  V30 1573 H 143.236 -0.564945 3.62221 0
M  V30 1574 H 142.884 -3.0068 4.03238 0
M  V30 1575 H 142.584 -2.05192 5.50609 0
M  V30 1576 H 144.108 -2.96865 5.33576 0
M  V30 1577 H 145.522 -0.724545 5.68703 0
M  V30 1578 H 143.919 0.001678 6.001 0
M  V30 1579 H 144.989 0.735553 4.79289 0
M  V30 1580 N 146.332 -1.57332 0.0918853 0
M  V30 1581 C 147.279 -2.13847 -0.868211 0
M  V30 1582 C 148.249 -1.05618 -1.28196 0
M  V30 1583 O 149.434 -1.33387 -1.36427 0
M  V30 1584 C 146.574 -2.72062 -2.12312 0
M  V30 1585 C 145.687 -3.94514 -1.7602 0
M  V30 1586 C 144.822 -4.40903 -2.96273 0
M  V30 1587 C 143.861 -5.55953 -2.56092 0
M  V30 1588 N 142.998 -5.97209 -3.69169 0
M  V30 1589 H 147.838 -2.95575 -0.379406 0
M  V30 1590 H 145.375 -1.46048 -0.175606 0
M  V30 1591 H 147.333 -3.03931 -2.858 0
M  V30 1592 H 145.963 -1.93068 -2.58698 0
M  V30 1593 H 145.015 -3.68979 -0.925135 0
M  V30 1594 H 146.327 -4.7802 -1.42472 0
M  V30 1595 H 145.481 -4.74539 -3.78018 0
M  V30 1596 H 144.22 -3.56291 -3.33029 0
M  V30 1597 H 143.225 -5.21948 -1.72773 0
M  V30 1598 H 144.45 -6.42311 -2.20484 0
M  V30 1599 H 142.396 -5.15543 -4.05649 0
M  V30 1600 H 142.313 -6.75504 -3.39456 0
M  V30 1601 H 143.581 -6.35475 -4.51434 0
M  V30 1602 N 147.81 0.181792 -1.56548 0
M  V30 1603 C 148.757 1.22521 -1.95595 0
M  V30 1604 C 149.727 1.4454 -0.818373 0
M  V30 1605 O 150.912 1.57454 -1.07763 0
M  V30 1606 C 148.052 2.56193 -2.31212 0
M  V30 1607 C 147.165 2.41641 -3.58097 0
M  V30 1608 C 146.3 3.68108 -3.82975 0
M  V30 1609 C 145.339 3.48445 -5.03242 0
M  V30 1610 N 144.476 4.66956 -5.24306 0
M  V30 1611 H 149.316 0.885226 -2.84548 0
M  V30 1612 H 146.853 0.425718 -1.40805 0
M  V30 1613 H 148.811 3.34088 -2.49882 0
M  V30 1614 H 147.441 2.88208 -1.45382 0
M  V30 1615 H 146.493 1.54976 -3.474 0
M  V30 1616 H 147.805 2.23052 -4.46149 0
M  V30 1617 H 146.959 4.54441 -4.01956 0
M  V30 1618 H 145.698 3.89666 -2.93278 0
M  V30 1619 H 144.703 2.60499 -4.8417 0
M  V30 1620 H 145.928 3.2832 -5.9446 0
M  V30 1621 H 143.874 4.88752 -4.37559 0
M  V30 1622 H 143.791 4.51242 -6.06561 0
M  V30 1623 H 145.059 5.54602 -5.47756 0
M  V30 1624 N 149.288 1.51039 0.449983 0
M  V30 1625 C 150.251 1.70863 1.5277 0
M  V30 1626 C 151.251 0.578846 1.5002 0
M  V30 1627 O 152.441 0.846213 1.52266 0
M  V30 1628 C 149.573 1.75341 2.9235 0
M  V30 1629 H 150.766 2.67034 1.36502 0
M  V30 1630 H 148.319 1.40838 0.677812 0
M  V30 1631 H 149.054 0.809383 3.14037 0
M  V30 1632 H 148.839 2.57436 2.95752 0
M  V30 1633 H 150.329 1.92559 3.70555 0
M  V30 1634 N 150.766 -0.704594 1.40972 0
M  V30 1635 C 151.994 -1.49354 1.43182 0
M  V30 1636 C 152.409 -1.88768 0.0345508 0
M  V30 1637 O 151.766 -1.56184 -0.944081 0
M  V30 1638 C 151.817 -2.76187 2.33244 0
M  V30 1639 O 151.538 -2.38436 3.67532 0
M  V30 1640 C 153.039 -3.7 2.44162 0
M  V30 1641 H 150.259 -0.460559 0.487982 0
M  V30 1642 H 152.803 -0.868261 1.85153 0
M  V30 1643 H 150.958 -3.34974 1.94606 0
M  V30 1644 H 151.372 -3.20126 4.15475 0
M  V30 1645 H 152.846 -4.55803 3.11364 0
M  V30 1646 H 153.323 -4.13867 1.47006 0
M  V30 1647 H 153.929 -3.17121 2.83398 0
M  V30 1648 N 152.244 -1.26651 -0.937939 0
M  V30 1649 C 153.192 -1.08308 -2.05845 0
M  V30 1650 C 154.186 -0.0090757 -1.69398 0
M  V30 1651 O 155.392 -0.166007 -1.79233 0
M  V30 1652 H 151.767 -0.333416 -0.674046 0
M  V30 1653 H 153.738 -2.03261 -2.18467 0
M  V30 1654 C 152.487 -0.736229 -3.39816 0
M  V30 1655 H 151.81 -1.55453 -3.6834 0
M  V30 1656 H 153.25 -0.64769 -4.19024 0
M  V30 1657 C 151.709 0.558824 -3.32233 0
M  V30 1658 O 152.239 1.59621 -3.68624 0
M  V30 1659 N 150.445 0.550657 -2.85335 0
M  V30 1660 H 149.992 -0.293943 -2.55917 0
M  V30 1661 H 149.95 1.41726 -2.80644 0
M  V30 1662 N 153.722 1.14298 -1.08507 0
M  V30 1663 C 154.632 2.23027 -0.727753 0
M  V30 1664 C 155.648 1.71952 0.26619 0
M  V30 1665 O 156.824 2.011 0.109882 0
M  V30 1666 C 153.889 3.46403 -0.143541 0
M  V30 1667 C 152.95 4.12413 -1.19223 0
M  V30 1668 C 152.183 5.29899 -0.635798 0
M  V30 1669 O 152.406 5.67796 0.544393 0
M  V30 1670 O 151.34 5.85717 -1.38634 0
M  V30 1671 H 155.166 2.55945 -1.63481 0
M  V30 1672 H 152.751 1.22248 -0.858817 0
M  V30 1673 H 154.633 4.21018 0.179404 0
M  V30 1674 H 153.308 3.15206 0.736659 0
M  V30 1675 H 152.215 3.39667 -1.56772 0
M  V30 1676 H 153.548 4.47718 -2.04474 0
M  V30 1677 O 155.239 1.00442 1.26466 0
M  V30 1678 H 155.93 0.659114 1.82141 0
M  V30 END ATOM
M  V30 BEGIN BOND
M  V30 END BOND
M  V30 END CTAB
M  END
$$$$
