drugbank_target|P13507 Glucan 1,4-alpha-maltotetraohydrolase (DB02237; DB02379)
 OpenBabel12092119553D

  0  0  0     0  0            999 V3000
M  V30 BEGIN CTAB
M  V30 COUNTS 8169 8293 0 0 0
M  V30 BEGIN ATOM
M  V30 1 H -0.908 1.98254 -0.117106 0
M  V30 2 N 0 1.576 0 0
M  V30 3 C 0.933 2.03868 1.02534 0
M  V30 4 C 1.911 0.928543 1.3348 0
M  V30 5 O 3.095 1.19667 1.45644 0
M  V30 6 C 0.222 2.43627 2.35294 0
M  V30 7 C -0.732 3.65373 2.2001 0
M  V30 8 S 0.101 5.13292 1.52614 0
M  V30 9 C 1.257 5.56322 2.86805 0
M  V30 10 H 1.49 2.90518 0.631377 0
M  V30 11 H -0.977 1.52953 0.210867 0
M  V30 12 H 0.981 2.67203 3.11629 0
M  V30 13 H -0.358 1.57376 2.7183 0
M  V30 14 H -1.165 3.90944 3.18086 0
M  V30 15 H -1.563 3.418 1.51819 0
M  V30 16 H 0.729 5.58782 3.83104 0
M  V30 17 H 1.672 6.56266 2.65933 0
M  V30 18 H 2.08 4.83886 2.90714 0
M  V30 19 N 1.4781 -0.272755 1.55222 0
M  V30 20 C 2.7031 -1.02683 1.80197 0
M  V30 21 C 3.1281 -1.79142 0.573551 0
M  V30 22 O 2.4861 -1.74917 -0.476849 0
M  V30 23 C 2.5341 -1.9609 3.02624 0
M  V30 24 O 1.6381 -3.04863 2.77727 0
M  V30 25 H 0.9791 -0.293557 0.595584 0
M  V30 26 H 3.5091 -0.30159 2.02365 0
M  V30 27 H 3.5191 -2.38039 3.31363 0
M  V30 28 H 2.1941 -1.39851 3.91682 0
M  V30 29 H 0.7711 -2.67228 2.60084 0
M  V30 30 N 2.9562 -1.48159 -0.537278 0
M  V30 31 C 3.9062 -1.5854 -1.63857 0
M  V30 32 C 4.8902 -0.442969 -1.54682 0
M  V30 33 O 6.0822 -0.69401 -1.62827 0
M  V30 34 C 3.2112 -1.62144 -3.02596 0
M  V30 35 C 2.2972 -2.81841 -3.16901 0
M  V30 36 N 2.6882 -4.06337 -3.01204 0
M  V30 37 C 0.9862 -2.79021 -3.47942 0
M  V30 38 C 1.6872 -4.86606 -3.18731 0
M  V30 39 N 0.6632 -4.19288 -3.45974 0
M  V30 40 H 4.4652 -2.5255 -1.50319 0
M  V30 41 H 1.9792 -1.4443 -0.742555 0
M  V30 42 H 3.9762 -1.67674 -3.81695 0
M  V30 43 H 2.6362 -0.69245 -3.17231 0
M  V30 44 H 3.6472 -4.36888 -2.78117 0
M  V30 45 H 0.3242 -1.95347 -3.6898 0
M  V30 46 H 1.7142 -5.95385 -3.11394 0
M  V30 47 N 4.4343 0.785586 -1.36625 0
M  V30 48 C 5.6833 1.53883 -1.30396 0
M  V30 49 C 5.9963 1.95271 0.113452 0
M  V30 50 O 7.2023 2.69858 0.298142 0
M  V30 51 C 5.6583 2.77808 -2.28802 0
M  V30 52 C 5.2663 2.43574 -3.75999 0
M  V30 53 C 7.0103 3.55783 -2.31558 0
M  V30 54 C 4.9173 3.63919 -4.66173 0
M  V30 55 H 3.8473 0.577678 -0.484566 0
M  V30 56 H 6.4983 0.861705 -1.62009 0
M  V30 57 H 4.8803 3.47339 -1.90188 0
M  V30 58 H 6.0543 1.81916 -4.23371 0
M  V30 59 H 4.3693 1.78803 -3.76056 0
M  V30 60 H 6.9663 4.45205 -2.96137 0
M  V30 61 H 7.3093 3.94644 -1.3252 0
M  V30 62 H 7.8423 2.93235 -2.68809 0
M  V30 63 H 4.5813 3.3015 -5.66287 0
M  V30 64 H 4.1013 4.2473 -4.23515 0
M  V30 65 H 5.7803 4.30901 -4.82632 0
M  V30 66 N 5.9124 1.20967 1.01018 0
M  V30 67 C 6.8424 0.988272 2.11555 0
M  V30 68 C 7.8234 -0.0849778 1.69888 0
M  V30 69 O 9.0084 0.0738202 1.9406 0
M  V30 70 C 6.1384 0.546528 3.42973 0
M  V30 71 C 5.0924 1.56375 3.9841 0
M  V30 72 C 4.4184 0.97842 5.25672 0
M  V30 73 C 5.7184 2.94922 4.31066 0
M  V30 74 H 7.4124 1.91276 2.30334 0
M  V30 75 H 4.9584 0.921073 1.1069 0
M  V30 76 H 6.9114 0.378839 4.19694 0
M  V30 77 H 5.6354 -0.413598 3.23971 0
M  V30 78 H 4.2944 1.71891 3.23804 0
M  V30 79 H 3.9424 0.0101688 5.02999 0
M  V30 80 H 3.6424 1.65784 5.63728 0
M  V30 81 H 5.1664 0.821939 6.05043 0
M  V30 82 H 6.5804 2.8288 4.9865 0
M  V30 83 H 4.9774 3.5983 4.80253 0
M  V30 84 H 6.0474 3.4616 3.39561 0
M  V30 85 N 7.3905 -1.2043 1.01659 0
M  V30 86 C 8.8065 -1.41852 0.731442 0
M  V30 87 C 9.0065 -1.89358 -0.688898 0
M  V30 88 O 8.0625 -2.06247 -1.45666 0
M  V30 89 C 9.3755 -2.44019 1.75714 0
M  V30 90 C 10.9235 -2.57785 1.77527 0
M  V30 91 C 11.3985 -3.63194 2.79023 0
M  V30 92 N 12.8895 -3.70678 2.77763 0
M  V30 93 C 13.6245 -4.51897 3.52954 0
M  V30 94 N 13.1205 -5.36921 4.37821 0
M  V30 95 N 14.9135 -4.4643 3.41551 0
M  V30 96 H 7.0645 -0.879093 1.93354 0
M  V30 97 H 9.3275 -0.448425 0.835236 0
M  V30 98 H 9.0335 -2.1611 2.77469 0
M  V30 99 H 8.9075 -3.43007 1.56927 0
M  V30 100 H 11.2945 -2.85023 0.764569 0
M  V30 101 H 11.3755 -1.58992 2.00387 0
M  V30 102 H 11.0195 -3.36699 3.80258 0
M  V30 103 H 10.9495 -4.61609 2.53425 0
M  V30 104 H 13.4405 -3.09944 2.16201 0
M  V30 105 H 13.7535 -5.95981 4.91962 0
M  V30 106 H 12.0985 -5.36424 4.41899 0
M  V30 107 H 15.2895 -3.79042 2.74672 0
M  V30 108 H 15.4625 -5.09491 4.00404 0
M  V30 109 N 8.8686 -0.792821 -1.36206 0
M  V30 110 C 9.8316 -0.199459 -2.2833 0
M  V30 111 C 10.8316 0.605189 -1.48977 0
M  V30 112 O 12.0216 0.425685 -1.68919 0
M  V30 113 C 9.1536 0.723523 -3.33134 0
M  V30 114 H 10.3466 -1.01181 -2.82316 0
M  V30 115 H 7.8996 -0.562485 -1.45828 0
M  V30 116 H 8.6346 1.56008 -2.84309 0
M  V30 117 H 8.4196 0.148436 -3.91819 0
M  V30 118 H 9.9096 1.13344 -4.01924 0
M  V30 119 N 10.3467 1.47872 -0.545128 0
M  V30 120 C 11.3097 2.28337 0.198717 0
M  V30 121 C 12.3097 1.36255 0.853888 0
M  V30 122 O 13.4997 1.59003 0.711606 0
M  V30 123 C 10.6317 3.15585 1.28915 0
M  V30 124 H 11.8247 2.95567 -0.507941 0
M  V30 125 H 9.3777 1.53362 -0.301616 0
M  V30 126 H 10.1127 2.53019 2.02859 0
M  V30 127 H 9.8977 3.83337 0.824309 0
M  V30 128 H 11.3877 3.76243 1.81194 0
M  V30 129 N 11.8248 0.280983 1.55075 0
M  V30 130 C 13.0708 -0.33461 2.00021 0
M  V30 131 C 13.4038 -1.55063 1.16915 0
M  V30 132 O 12.6788 -1.93006 0.240646 0
M  V30 133 C 12.9618 -0.711007 3.53011 0
M  V30 134 C 12.8148 0.512766 4.46868 0
M  V30 135 C 14.1338 -1.54522 4.12081 0
M  V30 136 H 11.2528 -0.120147 0.727141 0
M  V30 137 H 13.8948 0.389097 1.85973 0
M  V30 138 H 12.0448 -1.32761 3.65112 0
M  V30 139 H 13.7168 1.15131 4.46702 0
M  V30 140 H 11.9598 1.14975 4.18286 0
M  V30 141 H 12.6308 0.205556 5.51617 0
M  V30 142 H 15.1068 -1.02442 4.03293 0
M  V30 143 H 13.9828 -1.77739 5.19327 0
M  V30 144 H 14.2438 -2.52813 3.62682 0
M  V30 145 N 13.3029 -1.57598 0.00835791 0
M  V30 146 C 14.2329 -2.1198 -0.979113 0
M  V30 147 C 15.2139 -1.03091 -1.35301 0
M  V30 148 O 16.3989 -1.30818 -1.43528 0
M  V30 149 C 13.5289 -2.62995 -2.26828 0
M  V30 150 C 12.4829 -3.76485 -2.03576 0
M  V30 151 C 11.8089 -4.13846 -3.38579 0
M  V30 152 C 13.1089 -5.0342 -1.39161 0
M  V30 153 H 14.8029 -2.94738 -0.526281 0
M  V30 154 H 12.3489 -1.41783 -0.251704 0
M  V30 155 H 14.3019 -2.99669 -2.96271 0
M  V30 156 H 13.0259 -1.7737 -2.7424 0
M  V30 157 H 11.6849 -3.40217 -1.36557 0
M  V30 158 H 11.3329 -3.25232 -3.83709 0
M  V30 159 H 11.0329 -4.90312 -3.23834 0
M  V30 160 H 12.5569 -4.53086 -4.09323 0
M  V30 161 H 13.9709 -5.37812 -1.98573 0
M  V30 162 H 12.3679 -5.84746 -1.34878 0
M  V30 163 H 13.4379 -4.83548 -0.361868 0
M  V30 164 N 14.781 0.264519 -1.55364 0
M  V30 165 C 15.744 1.31046 -1.88042 0
M  V30 166 C 16.744 1.41943 -0.755569 0
M  V30 167 O 17.934 1.40947 -1.02369 0
M  V30 168 C 15.066 2.69067 -2.09323 0
M  V30 169 H 16.259 1.03297 -2.81549 0
M  V30 170 H 13.812 0.502989 -1.47986 0
M  V30 171 H 14.547 3.01982 -1.18226 0
M  V30 172 H 14.332 2.62542 -2.91229 0
M  V30 173 H 15.822 3.44623 -2.35848 0
M  V30 174 N 16.2591 1.48442 0.529413 0
M  V30 175 C 17.2221 1.62524 1.61612 0
M  V30 176 C 18.2221 0.498509 1.52877 0
M  V30 177 O 19.4121 0.76431 1.56537 0
M  V30 178 C 16.5441 1.59597 3.01233 0
M  V30 179 H 17.7371 2.59423 1.50465 0
M  V30 180 H 15.2901 1.37047 0.751514 0
M  V30 181 H 16.0251 0.641781 3.17886 0
M  V30 182 H 15.8101 2.41397 3.08982 0
M  V30 183 H 17.3001 1.72646 3.80241 0
M  V30 184 N 17.7372 -0.778329 1.37039 0
M  V30 185 C 18.6702 -1.8984 1.26633 0
M  V30 186 C 19.6482 -1.61923 0.148197 0
M  V30 187 O 20.8322 -1.85742 0.321265 0
M  V30 188 C 17.9592 -3.24916 0.956403 0
M  V30 189 C 17.0052 -3.71752 2.09051 0
M  V30 190 S 17.8382 -3.86201 3.70957 0
M  V30 191 C 18.9942 -5.24135 3.42101 0
M  V30 192 H 19.2272 -1.98377 2.21436 0
M  V30 193 H 16.7602 -0.938738 1.22585 0
M  V30 194 H 18.7182 -4.02936 0.784409 0
M  V30 195 H 17.3792 -3.14089 0.0259713 0
M  V30 196 H 16.5722 -4.69661 1.8285 0
M  V30 197 H 16.1742 -3.00815 2.2223 0
M  V30 198 H 18.4662 -6.09086 2.96682 0
M  V30 199 H 19.4092 -5.55346 4.39314 0
M  V30 200 H 19.8172 -4.91761 2.77185 0
M  V30 201 N 19.2153 -1.21501 -1.00376 0
M  V30 202 C 20.1453 -0.999478 -2.11028 0
M  V30 203 C 21.1263 0.0759671 -1.6993 0
M  V30 204 O 22.3113 -0.0841106 -1.94018 0
M  V30 205 C 19.4413 -0.564709 -3.42678 0
M  V30 206 C 18.3953 -1.58486 -3.97576 0
M  V30 207 C 17.7213 -1.00628 -5.25146 0
M  V30 208 C 19.0213 -2.97204 -4.29496 0
M  V30 209 H 20.7153 -1.92495 -2.29317 0
M  V30 210 H 18.2613 -0.92693 -1.102 0
M  V30 211 H 20.2143 -0.401091 -4.19487 0
M  V30 212 H 18.9383 0.396411 -3.24185 0
M  V30 213 H 17.5973 -1.73606 -3.22888 0
M  V30 214 H 17.2453 -0.0368439 -5.02987 0
M  V30 215 H 16.9453 -1.68771 -5.62841 0
M  V30 216 H 18.4693 -0.854015 -6.04598 0
M  V30 217 H 19.8833 -2.8552 -4.97143 0
M  V30 218 H 18.2803 -3.62372 -4.78338 0
M  V30 219 H 19.3503 -3.47956 -3.3772 0
M  V30 220 N 20.6934 1.19889 -1.02296 0
M  V30 221 C 21.6234 2.25141 -0.619174 0
M  V30 222 C 22.6044 1.66051 0.368915 0
M  V30 223 O 23.7894 1.92546 0.252941 0
M  V30 224 C 20.9194 3.4728 0.0368783 0
M  V30 225 C 19.8734 4.19005 -0.872865 0
M  V30 226 C 19.1994 5.34637 -0.0822402 0
M  V30 227 C 20.4994 4.74452 -2.18387 0
M  V30 228 H 22.1934 2.59171 -1.49903 0
M  V30 229 H 19.7394 1.24579 -0.722222 0
M  V30 230 H 21.6924 4.20098 0.330958 0
M  V30 231 H 20.4164 3.12433 0.95149 0
M  V30 232 H 19.0754 3.48061 -1.15105 0
M  V30 233 H 18.7234 4.96034 0.83422 0
M  V30 234 H 18.4234 5.83557 -0.688149 0
M  V30 235 H 19.9474 6.10255 0.205238 0
M  V30 236 H 21.3614 5.39055 -1.95172 0
M  V30 237 H 19.7584 5.33834 -2.74119 0
M  V30 238 H 20.8284 3.92844 -2.84257 0
M  V30 239 N 22.1715 0.800033 1.35784 0
M  V30 240 C 23.5825 0.439142 1.81462 0
M  V30 241 C 23.9335 -1.03813 1.66485 0
M  V30 242 O 23.0585 -1.80626 1.19177 0
M  V30 243 C 23.6535 0.790314 3.29453 0
M  V30 244 C 22.2125 0.482111 3.733 0
M  V30 245 C 21.3595 1.01938 2.57883 0
M  V30 246 H 24.3105 0.992254 1.23855 0
M  V30 247 H 24.3315 0.0853677 3.80404 0
M  V30 248 H 23.8435 1.86554 3.40322 0
M  V30 249 H 21.9445 -0.584652 3.67984 0
M  V30 250 H 22.0575 1.01015 4.6833 0
M  V30 251 H 20.4215 0.442043 2.50835 0
M  V30 252 H 21.2045 2.10059 2.71533 0
M  V30 253 N 23.6496 -1.47581 0.552962 0
M  V30 254 C 24.5796 -2.32762 -0.185451 0
M  V30 255 C 25.5606 -1.43527 -0.912905 0
M  V30 256 O 26.7456 -1.72388 -0.894201 0
M  V30 257 C 23.8756 -3.25219 -1.21859 0
M  V30 258 C 22.8296 -4.23661 -0.607864 0
M  V30 259 C 22.1556 -5.05413 -1.74533 0
M  V30 260 C 23.4556 -5.20481 0.435582 0
M  V30 261 H 25.1496 -2.94749 0.525684 0
M  V30 262 H 22.6956 -1.41738 0.254251 0
M  V30 263 H 24.6486 -3.8365 -1.7433 0
M  V30 264 H 23.3726 -2.61279 -1.95961 0
M  V30 265 H 22.0316 -3.66451 -0.104489 0
M  V30 266 H 21.6796 -4.3788 -2.47529 0
M  V30 267 H 21.3796 -5.72059 -1.34249 0
M  V30 268 H 22.9036 -5.66701 -2.27338 0
M  V30 269 H 24.3176 -5.733 -0.00290157 0
M  V30 270 H 22.7146 -5.95305 0.757067 0
M  V30 271 H 23.7846 -4.66217 1.33303 0
M  V30 272 N 25.1277 -0.289203 -1.54924 0
M  V30 273 C 26.5387 0.205791 -1.85562 0
M  V30 274 C 26.8897 1.54351 -1.2112 0
M  V30 275 O 26.0147 2.10435 -0.504601 0
M  V30 276 C 26.6097 0.380177 -3.3666 0
M  V30 277 C 25.1687 0.819395 -3.67373 0
M  V30 278 C 24.3157 -0.079159 -2.77187 0
M  V30 279 H 27.2667 -0.510577 -1.50262 0
M  V30 280 H 27.2877 1.21659 -3.60526 0
M  V30 281 H 26.7997 -0.593589 -3.83534 0
M  V30 282 H 24.9007 1.80413 -3.26009 0
M  V30 283 H 25.0137 0.646957 -4.74712 0
M  V30 284 H 23.3777 0.439565 -2.50878 0
M  V30 285 H 24.1607 -1.04906 -3.26878 0
M  V30 286 N 26.6058 1.57591 -0.0167156 0
M  V30 287 C 27.8308 1.9598 0.67872 0
M  V30 288 C 28.2558 0.892546 1.65575 0
M  V30 289 O 27.6138 -0.147772 1.80697 0
M  V30 290 C 27.6618 3.33468 1.37227 0
M  V30 291 O 26.7658 3.28954 2.48722 0
M  V30 292 H 26.1068 0.639339 0.17928 0
M  V30 293 H 28.6368 2.04463 -0.0748802 0
M  V30 294 H 28.6468 3.69417 1.7319 0
M  V30 295 H 27.3218 4.10694 0.656007 0
M  V30 296 H 25.8988 3.04705 2.14963 0
M  V30 297 N 28.0839 -0.256276 1.55502 0
M  V30 298 C 29.0169 -1.34321 1.84481 0
M  V30 299 C 29.9949 -1.46802 0.699131 0
M  V30 300 O 31.1789 -1.63165 0.943904 0
M  V30 301 C 28.3059 -2.71779 2.02123 0
M  V30 302 C 27.3519 -2.76496 3.24734 0
M  V30 303 S 28.1849 -2.3405 4.81644 0
M  V30 304 C 29.3409 -3.73452 5.02279 0
M  V30 305 H 29.5739 -1.09539 2.76385 0
M  V30 306 H 27.1069 -0.45678 1.47489 0
M  V30 307 H 29.0649 -3.50932 2.12972 0
M  V30 308 H 27.7259 -2.93803 1.11078 0
M  V30 309 H 26.9189 -3.77424 3.34016 0
M  V30 310 H 26.5209 -2.05379 3.12563 0
M  V30 311 H 28.8129 -4.6887 4.89047 0
M  V30 312 H 29.7559 -3.6911 6.04287 0
M  V30 313 H 30.1639 -3.6553 4.30172 0
M  V30 314 N 29.562 -1.4872 -0.521534 0
M  V30 315 C 30.525 -1.63379 -1.60748 0
M  V30 316 C 31.525 -0.50661 -1.52611 0
M  V30 317 O 32.715 -0.772601 -1.5613 0
M  V30 318 C 29.847 -1.61192 -3.00383 0
M  V30 319 H 31.04 -2.60217 -1.49087 0
M  V30 320 H 28.593 -1.37444 -0.744235 0
M  V30 321 H 29.328 -0.65863 -3.17541 0
M  V30 322 H 29.113 -2.43032 -3.07698 0
M  V30 323 H 30.603 -1.7466 -3.7932 0
M  V30 324 N 31.0401 0.771051 -1.3745 0
M  V30 325 C 32.3171 1.519 -1.23231 0
M  V30 326 C 32.6971 2.10383 0.173809 0
M  V30 327 O 32.0451 1.95583 1.18151 0
M  V30 328 C 32.2551 2.59933 -2.32886 0
M  V30 329 C 33.6031 3.27316 -2.70461 0
M  V30 330 O 34.6271 2.70228 -2.32068 0
M  V30 331 O 33.4861 4.30531 -3.36608 0
M  V30 332 H 30.5801 0.672803 -0.480901 0
M  V30 333 H 33.1261 0.807957 -1.49232 0
M  V30 334 H 31.8981 2.14842 -3.27045 0
M  V30 335 H 31.5211 3.38637 -2.08353 0
M  V30 336 N 32.5182 1.22032 0.997298 0
M  V30 337 C 33.4502 0.944263 2.08845 0
M  V30 338 C 34.4632 -0.0754663 1.62625 0
M  V30 339 O 35.6522 0.157994 1.77799 0
M  V30 340 C 32.7522 0.397723 3.36558 0
M  V30 341 C 31.9252 1.47362 4.11829 0
M  V30 342 C 30.9842 0.934951 5.17827 0
M  V30 343 O 30.0102 1.62016 5.45655 0
M  V30 344 N 31.2122 -0.245895 5.79979 0
M  V30 345 H 33.9772 1.88363 2.33109 0
M  V30 346 H 31.5382 1.12661 1.16272 0
M  V30 347 H 33.5302 0.0227771 4.04694 0
M  V30 348 H 32.1002 -0.446646 3.09393 0
M  V30 349 H 31.3202 2.02208 3.38386 0
M  V30 350 H 32.6082 2.19764 4.58891 0
M  V30 351 H 32.0062 -0.819475 5.59733 0
M  V30 352 H 30.5632 -0.562272 6.4937 0
M  V30 353 N 33.9963 -1.19345 1.0293 0
M  V30 354 C 34.9593 -2.20793 0.615069 0
M  V30 355 C 35.9593 -1.57553 -0.321533 0
M  V30 356 O 37.1493 -1.73862 -0.108483 0
M  V30 357 C 34.2813 -3.40754 -0.0999222 0
M  V30 358 H 35.4743 -2.58955 1.51269 0
M  V30 359 H 33.0273 -1.3303 0.820534 0
M  V30 360 H 33.7623 -3.0811 -1.01187 0
M  V30 361 H 33.5473 -3.87889 0.57309 0
M  V30 362 H 35.0373 -4.15898 -0.376645 0
M  V30 363 N 35.4744 -0.807222 -1.35358 0
M  V30 364 C 36.7224 -0.387122 -1.98358 0
M  V30 365 C 37.0434 1.04942 -1.64354 0
M  V30 366 O 36.3134 1.72615 -0.926339 0
M  V30 367 H 34.8934 -0.140154 -0.733734 0
M  V30 368 H 37.5554 -1.0332 -1.6526 0
M  V30 369 H 36.6514 -0.493352 -3.08176 0
M  V30 370 N 36.9525 1.47285 -0.560781 0
M  V30 371 C 37.8995 2.30058 0.18491 0
M  V30 372 C 38.8695 1.39281 0.904986 0
M  V30 373 O 40.0545 1.68241 0.899979 0
M  V30 374 C 37.1945 3.23317 1.20666 0
M  V30 375 C 36.3075 4.29186 0.492285 0
M  V30 376 C 35.4425 5.09592 1.49964 0
M  V30 377 C 34.4815 6.07232 0.770439 0
M  V30 378 N 33.6185 6.80584 1.72479 0
M  V30 379 H 38.4585 2.93302 -0.527048 0
M  V30 380 H 35.9955 1.44568 -0.271738 0
M  V30 381 H 37.9535 3.75811 1.81168 0
M  V30 382 H 36.5835 2.61929 1.88661 0
M  V30 383 H 35.6355 3.7972 -0.227333 0
M  V30 384 H 36.9475 4.98738 -0.0787929 0
M  V30 385 H 36.1015 5.66254 2.17809 0
M  V30 386 H 34.8405 4.3995 2.10464 0
M  V30 387 H 33.8455 5.49745 0.0780846 0
M  V30 388 H 35.0705 6.78884 0.171134 0
M  V30 389 H 33.0165 6.1367 2.3183 0
M  V30 390 H 32.9335 7.46319 1.20596 0
M  V30 391 H 34.2015 7.41818 2.39428 0
M  V30 392 N 38.4306 0.297415 1.54768 0
M  V30 393 C 39.6556 -0.318435 2.04941 0
M  V30 394 C 40.0806 -1.4701 1.17345 0
M  V30 395 O 39.4386 -1.80436 0.176758 0
M  V30 396 C 39.4866 -0.755749 3.52592 0
M  V30 397 O 38.5906 -1.86088 3.68028 0
M  V30 398 H 37.9316 -0.062421 0.661059 0
M  V30 399 H 40.4616 0.438215 1.99852 0
M  V30 400 H 40.4716 -1.04552 3.94376 0
M  V30 401 H 39.1466 0.0867233 4.1581 0
M  V30 402 H 37.7236 -1.57193 3.38149 0
M  V30 403 N 39.9087 -1.5758 0.0250728 0
M  V30 404 C 41.3197 -1.79476 -0.514323 0
M  V30 405 C 41.6707 -0.934956 -1.72491 0
M  V30 406 O 40.7957 -0.144245 -2.15919 0
M  V30 407 C 41.3907 -3.25503 -0.939842 0
M  V30 408 C 39.9497 -3.48408 -1.42438 0
M  V30 409 C 39.0967 -2.74583 -0.387201 0
M  V30 410 H 42.0477 -1.567 0.25113 0
M  V30 411 H 42.0687 -3.34992 -1.80445 0
M  V30 412 H 41.5807 -3.88056 -0.0585628 0
M  V30 413 H 39.6817 -2.91103 -2.32572 0
M  V30 414 H 39.7947 -4.57119 -1.43455 0
M  V30 415 H 38.1587 -2.39942 -0.854409 0
M  V30 416 H 38.9417 -3.39849 0.485543 0
M  V30 417 N 41.3868 0.248026 -1.55636 0
M  V30 418 C 42.3348 1.32683 -1.91045 0
M  V30 419 C 43.3288 1.49883 -0.789401 0
M  V30 420 O 44.5348 1.51371 -0.974007 0
M  V30 421 H 40.9098 0.444272 -0.606734 0
M  V30 422 H 42.8808 1.00085 -2.81115 0
M  V30 423 C 41.6298 2.6755 -2.22064 0
M  V30 424 H 40.9528 2.55114 -3.07826 0
M  V30 425 H 42.3928 3.41912 -2.50743 0
M  V30 426 C 40.8518 3.20556 -1.0366 0
M  V30 427 O 41.3818 4.00695 -0.284016 0
M  V30 428 N 39.5878 2.78568 -0.82753 0
M  V30 429 H 39.1348 2.1351 -1.44123 0
M  V30 430 H 39.0928 3.14378 -0.0369803 0
M  V30 431 N 42.8649 1.48995 0.513639 0
M  V30 432 C 43.8279 1.64229 1.59879 0
M  V30 433 C 44.8279 0.514696 1.5234 0
M  V30 434 O 46.0179 0.78087 1.55718 0
M  V30 435 C 43.1499 1.62783 2.99524 0
M  V30 436 H 44.3429 2.61004 1.47705 0
M  V30 437 H 41.8959 1.37837 0.736936 0
M  V30 438 H 42.6309 0.675461 3.17188 0
M  V30 439 H 42.4159 2.4466 3.06404 0
M  V30 440 H 43.9059 1.76669 3.78388 0
M  V30 441 N 44.343 -0.763751 1.37857 0
M  V30 442 C 45.589 -1.52483 1.33704 0
M  V30 443 C 45.922 -1.94051 -0.0759612 0
M  V30 444 O 45.197 -1.64675 -1.03501 0
M  V30 445 C 45.48 -2.78441 2.28348 0
M  V30 446 C 45.333 -2.43075 3.78463 0
M  V30 447 C 46.652 -3.80415 2.21298 0
M  V30 448 H 43.771 -0.553169 0.487005 0
M  V30 449 H 46.413 -0.875562 1.68624 0
M  V30 450 H 44.563 -3.33842 1.987 0
M  V30 451 H 46.235 -1.93527 4.18742 0
M  V30 452 H 44.478 -1.75666 3.96641 0
M  V30 453 H 45.149 -3.33149 4.40132 0
M  V30 454 H 47.625 -3.34527 2.47449 0
M  V30 455 H 46.501 -4.66257 2.89647 0
M  V30 456 H 46.762 -4.25262 1.20849 0
M  V30 457 N 45.8211 -1.22559 -0.990812 0
M  V30 458 C 47.2371 -0.985996 -1.255 0
M  V30 459 C 47.4371 0.319173 -1.98956 0
M  V30 460 O 46.4931 1.04127 -2.3003 0
M  V30 461 C 47.8061 -2.18607 -2.06474 0
M  V30 462 C 49.3541 -2.22985 -2.19651 0
M  V30 463 C 49.8291 -3.4255 -3.04012 0
M  V30 464 N 51.3201 -3.42725 -3.11599 0
M  V30 465 C 52.0551 -4.31892 -3.7717 0
M  V30 466 N 51.5511 -5.31279 -4.44651 0
M  V30 467 N 53.3441 -4.19662 -3.73952 0
M  V30 468 H 45.4951 -2.06469 -0.49841 0
M  V30 469 H 47.7581 -0.904853 -0.282747 0
M  V30 470 H 47.4641 -3.13267 -1.59865 0
M  V30 471 H 47.3381 -2.18838 -3.07229 0
M  V30 472 H 49.7251 -1.28871 -2.65474 0
M  V30 473 H 49.8061 -2.26791 -1.18319 0
M  V30 474 H 49.4501 -4.36965 -2.58889 0
M  V30 475 H 49.3801 -3.35984 -4.0549 0
M  V30 476 H 51.8711 -2.70807 -2.63575 0
M  V30 477 H 52.1841 -5.95593 -4.92431 0
M  V30 478 H 50.5291 -5.3519 -4.43392 0
M  V30 479 H 53.7201 -3.41268 -3.20396 0
M  V30 480 H 53.8931 -4.89358 -4.24774 0
M  V30 481 N 47.2992 1.18797 -1.03562 0
M  V30 482 C 48.5292 1.92319 -0.754773 0
M  V30 483 C 48.9372 1.7612 0.691248 0
M  V30 484 O 48.2802 1.08491 1.48241 0
M  V30 485 C 48.3422 3.44284 -1.03484 0
M  V30 486 C 48.0062 3.84258 -2.47376 0
M  V30 487 C 49.0032 3.88459 -3.45537 0
M  V30 488 C 46.6882 4.15701 -2.81954 0
M  V30 489 C 48.6822 4.23545 -4.76328 0
M  V30 490 C 46.3692 4.50458 -4.12954 0
M  V30 491 C 47.3672 4.54356 -5.09951 0
M  V30 492 O 47.0552 4.88305 -6.38603 0
M  V30 493 H 46.7872 0.617527 -0.275021 0
M  V30 494 H 49.3412 1.51683 -1.38497 0
M  V30 495 H 47.5712 3.85135 -0.347513 0
M  V30 496 H 49.2602 3.99049 -0.7426 0
M  V30 497 H 50.0262 3.6431 -3.20162 0
M  V30 498 H 45.9052 4.11847 -2.0713 0
M  V30 499 H 49.4492 4.26502 -5.52035 0
M  V30 500 H 45.3462 4.74067 -4.38099 0
M  V30 501 H 46.1142 5.06227 -6.43177 0
M  V30 502 N 48.7773 0.814389 1.34928 0
M  V30 503 C 49.7273 0.202752 2.27097 0
M  V30 504 C 50.7113 -0.62799 1.48139 0
M  V30 505 O 51.9033 -0.483969 1.70255 0
M  V30 506 C 49.0323 -0.64146 3.37254 0
M  V30 507 C 48.1183 0.19944 4.23631 0
M  V30 508 N 48.5093 1.26628 4.89693 0
M  V30 509 C 46.8073 -0.0176433 4.45997 0
M  V30 510 C 47.5083 1.78031 5.53787 0
M  V30 511 N 46.4843 1.08553 5.32651 0
M  V30 512 H 50.2863 1.01893 2.75672 0
M  V30 513 H 47.8003 0.656332 1.48546 0
M  V30 514 H 49.7973 -1.09575 4.02243 0
M  V30 515 H 48.4573 -1.4559 2.9023 0
M  V30 516 H 49.4683 1.64901 4.90946 0
M  V30 517 H 46.1453 -0.800601 4.09752 0
M  V30 518 H 47.5353 2.67236 6.16469 0
M  V30 519 N 50.2554 -1.46986 0.568584 0
M  V30 520 C 51.5034 -2.02041 0.0487022 0
M  V30 521 C 51.8244 -1.44408 -1.31039 0
M  V30 522 O 51.0944 -0.623477 -1.85714 0
M  V30 523 H 49.6744 -0.746849 0.015014 0
M  V30 524 H 52.3364 -1.80257 0.741168 0
M  V30 525 H 51.4324 -3.12085 -0.0308961 0
M  V30 526 N 51.7335 -0.305618 -1.54608 0
M  V30 527 C 52.9815 0.301701 -1.99835 0
M  V30 528 C 53.3025 1.54054 -1.19551 0
M  V30 529 O 52.5725 1.93702 -0.292658 0
M  V30 530 H 51.1525 0.114468 -0.738178 0
M  V30 531 H 53.8145 -0.418016 -1.90364 0
M  V30 532 H 52.9105 0.570548 -3.06841 0
M  V30 533 N 53.2116 1.57565 -0.0334293 0
M  V30 534 C 54.4886 1.83282 0.683163 0
M  V30 535 C 54.8686 0.91823 1.90084 0
M  V30 536 O 54.2166 -0.025113 2.28486 0
M  V30 537 C 54.4266 3.32599 1.0573 0
M  V30 538 C 55.7746 3.99179 1.44711 0
M  V30 539 O 56.7986 3.3712 1.15015 0
M  V30 540 O 55.6576 5.08565 2.0006 0
M  V30 541 H 52.7516 0.755869 0.335546 0
M  V30 542 H 55.2976 1.69589 -0.0614402 0
M  V30 543 H 54.0696 3.90834 0.190828 0
M  V30 544 H 53.6926 3.51415 1.85993 0
M  V30 545 N 54.6897 -0.239769 1.55765 0
M  V30 546 C 55.5997 -1.31831 1.94056 0
M  V30 547 C 56.6157 -1.52275 0.841925 0
M  V30 548 O 57.7917 -1.65759 1.14394 0
M  V30 549 C 54.8567 -2.65156 2.23368 0
M  V30 550 C 53.9177 -2.53173 3.46701 0
M  V30 551 C 53.1507 -3.8014 3.74606 0
M  V30 552 O 53.3737 -4.82343 3.04469 0
M  V30 553 O 52.3077 -3.78344 4.68123 0
M  V30 554 H 56.1337 -1.02347 2.85935 0
M  V30 555 H 53.7187 -0.441123 1.42739 0
M  V30 556 H 55.6007 -3.43929 2.43497 0
M  V30 557 H 54.2757 -2.94358 1.34666 0
M  V30 558 H 53.1827 -1.72662 3.31871 0
M  V30 559 H 54.5157 -2.28915 4.35728 0
M  V30 560 N 56.1678 -1.49265 -0.50573 0
M  V30 561 C 57.4168 -1.57761 -1.25675 0
M  V30 562 C 57.7298 -0.267371 -1.93764 0
M  V30 563 O 58.9358 -0.230827 -2.70517 0
M  V30 564 C 57.3918 -2.78332 -2.28165 0
M  V30 565 C 56.9998 -4.16096 -1.66037 0
M  V30 566 C 58.7438 -2.96155 -3.04125 0
M  V30 567 C 56.6508 -5.27895 -2.6661 0
M  V30 568 H 55.5808 -0.587391 -0.472745 0
M  V30 569 H 58.2318 -1.75644 -0.53118 0
M  V30 570 H 56.6138 -2.53934 -3.03865 0
M  V30 571 H 57.7878 -4.50612 -0.963622 0
M  V30 572 H 56.1028 -4.03591 -1.02484 0
M  V30 573 H 58.6998 -3.76849 -3.79327 0
M  V30 574 H 59.0428 -2.06534 -3.61455 0
M  V30 575 H 59.5758 -3.2057 -2.35541 0
M  V30 576 H 56.3148 -6.1956 -2.14068 0
M  V30 577 H 55.8348 -4.97839 -3.34539 0
M  V30 578 H 57.5138 -5.57031 -3.29129 0
M  V30 579 N 57.6459 0.756429 -1.3826 0
M  V30 580 C 58.8949 1.51082 -1.3363 0
M  V30 581 C 59.2079 1.95467 0.0720068 0
M  V30 582 O 60.4139 2.7043 0.240834 0
M  V30 583 C 58.8699 2.72893 -2.34644 0
M  V30 584 C 58.4779 2.35544 -3.81081 0
M  V30 585 C 60.2219 3.50791 -2.39052 0
M  V30 586 C 58.1289 3.53948 -4.73787 0
M  V30 587 H 57.0589 0.56727 -0.49671 0
M  V30 588 H 59.7099 0.827147 -1.638 0
M  V30 589 H 58.0919 3.43227 -1.97513 0
M  V30 590 H 59.2659 1.72894 -4.27135 0
M  V30 591 H 57.5809 1.70786 -3.79764 0
M  V30 592 H 60.1779 4.38823 -3.05513 0
M  V30 593 H 60.5209 3.91745 -1.40861 0
M  V30 594 H 61.0539 2.87467 -2.74968 0
M  V30 595 H 57.7929 3.18064 -5.73163 0
M  V30 596 H 57.3129 4.15651 -4.32428 0
M  V30 597 H 58.9919 4.20566 -4.91663 0
M  V30 598 N 59.124 1.23083 0.984299 0
M  V30 599 C 60.054 1.03292 2.09411 0
M  V30 600 C 61.035 -0.048923 1.7003 0
M  V30 601 O 62.22 0.114967 1.93859 0
M  V30 602 C 59.35 0.619155 3.41736 0
M  V30 603 C 58.304 1.64791 3.95004 0
M  V30 604 C 57.63 1.0897 5.23478 0
M  V30 605 C 58.93 3.03999 4.24714 0
M  V30 606 H 60.624 1.96119 2.26225 0
M  V30 607 H 58.17 0.944344 1.08711 0
M  V30 608 H 60.123 0.467777 4.18796 0
M  V30 609 H 58.847 -0.344786 3.24775 0
M  V30 610 H 57.506 1.78721 3.20085 0
M  V30 611 H 57.154 0.11686 5.02864 0
M  V30 612 H 56.854 1.77704 5.60085 0
M  V30 613 H 58.378 0.950093 6.03163 0
M  V30 614 H 59.792 2.93393 4.92538 0
M  V30 615 H 58.189 3.69936 4.72512 0
M  V30 616 H 59.259 3.53285 3.32142 0
M  V30 617 N 60.6021 -1.18246 1.0419 0
M  V30 618 C 61.5341 -2.2142 0.592088 0
M  V30 619 C 62.5471 -1.59233 -0.338909 0
M  V30 620 O 63.7361 -1.78002 -0.133231 0
M  V30 621 C 60.8361 -3.38546 -0.154854 0
M  V30 622 C 60.0091 -4.3031 0.784328 0
M  V30 623 C 59.0681 -5.26138 0.0804583 0
M  V30 624 O 58.0941 -5.64738 0.711292 0
M  V30 625 N 59.2961 -5.68261 -1.18574 0
M  V30 626 H 62.0611 -2.60636 1.47949 0
M  V30 627 H 59.6221 -1.33044 0.922544 0
M  V30 628 H 61.6141 -3.99678 -0.635606 0
M  V30 629 H 60.1841 -2.98012 -0.943811 0
M  V30 630 H 59.4041 -3.66764 1.44491 0
M  V30 631 H 60.6921 -4.8852 1.42218 0
M  V30 632 H 60.0901 -5.38957 -1.71876 0
M  V30 633 H 58.6471 -6.31584 -1.61074 0
M  V30 634 N 62.0802 -0.821533 -1.34494 0
M  V30 635 C 63.3282 -0.408139 -1.97936 0
M  V30 636 C 63.6492 1.03193 -1.65457 0
M  V30 637 O 62.9192 1.71622 -0.944595 0
M  V30 638 H 61.4992 -0.147928 -0.732206 0
M  V30 639 H 64.1612 -1.05067 -1.64155 0
M  V30 640 H 63.2572 -0.52601 -3.07635 0
M  V30 641 N 63.5583 1.46682 -0.576371 0
M  V30 642 C 64.8053 2.02412 -0.0595339 0
M  V30 643 C 65.1333 1.44859 1.29793 0
M  V30 644 O 64.3883 0.601099 1.8624 0
M  V30 645 C 64.6873 3.57345 0.062886 0
M  V30 646 C 64.3533 4.33908 -1.22616 0
M  V30 647 C 63.0153 4.54544 -1.57933 0
M  V30 648 C 65.3673 4.77919 -2.07948 0
M  V30 649 C 62.6953 5.16444 -2.78393 0
M  V30 650 C 65.0473 5.41149 -3.27629 0
M  V30 651 C 63.7113 5.60014 -3.63236 0
M  V30 652 H 62.9813 0.74068 -0.021785 0
M  V30 653 H 65.6283 1.76128 -0.751735 0
M  V30 654 H 63.9333 3.82729 0.838178 0
M  V30 655 H 65.6303 3.98136 0.478439 0
M  V30 656 H 62.2203 4.18138 -0.941202 0
M  V30 657 H 66.4043 4.61738 -1.81967 0
M  V30 658 H 61.6603 5.29242 -3.06126 0
M  V30 659 H 65.8343 5.74211 -3.94023 0
M  V30 660 H 63.4613 6.07748 -4.56669 0
M  V30 661 N 65.0364 0.313813 1.54444 0
M  V30 662 C 65.9864 -0.571898 2.20711 0
M  V30 663 C 66.9704 -1.08913 1.18435 0
M  V30 664 O 68.1624 -1.02777 1.44104 0
M  V30 665 C 65.2914 -1.7371 2.96108 0
M  V30 666 C 64.3774 -1.23522 4.05713 0
M  V30 667 N 64.7684 -0.452288 5.03774 0
M  V30 668 C 63.0664 -1.51482 4.19487 0
M  V30 669 C 63.7674 -0.183438 5.81411 0
M  V30 670 N 62.7434 -0.766845 5.38164 0
M  V30 671 H 66.5454 0.0336802 2.93881 0
M  V30 672 H 64.0594 0.119192 1.61962 0
M  V30 673 H 66.0564 -2.38329 3.4206 0
M  V30 674 H 64.7164 -2.34625 2.24458 0
M  V30 675 H 65.7274 -0.0960131 5.17811 0
M  V30 676 H 62.4044 -2.13053 3.59047 0
M  V30 677 H 63.7944 0.446216 6.70417 0
M  V30 678 N 66.5145 -1.57545 0.0417849 0
M  V30 679 C 67.7605 -1.93424 -0.629168 0
M  V30 680 C 68.1155 -0.919564 -1.69002 0
M  V30 681 O 67.4085 0.0626178 -1.91498 0
M  V30 682 C 67.6025 -3.33794 -1.27735 0
M  V30 683 C 67.4315 -4.48822 -0.280806 0
M  V30 684 C 66.2015 -5.05148 0.123869 0
M  V30 685 C 68.3995 -5.12148 0.470012 0
M  V30 686 N 66.3815 -6.03703 1.11426 0
M  V30 687 C 67.7525 -6.05921 1.31377 0
M  V30 688 C 69.8075 -4.95078 0.529343 0
M  V30 689 C 68.5105 -6.84459 2.21152 0
M  V30 690 C 70.5365 -5.74235 1.41448 0
M  V30 691 C 69.8985 -6.67634 2.24598 0
M  V30 692 H 65.9975 -0.755418 -0.202158 0
M  V30 693 H 68.5815 -1.94378 0.111923 0
M  V30 694 H 66.7525 -3.33635 -1.98852 0
M  V30 695 H 68.4845 -3.56988 -1.90635 0
M  V30 696 H 65.2395 -4.72923 -0.253178 0
M  V30 697 H 65.6635 -6.57674 1.60607 0
M  V30 698 H 70.3055 -4.22683 -0.0992798 0
M  V30 699 H 68.0235 -7.56151 2.85063 0
M  V30 700 H 71.6095 -5.63057 1.46484 0
M  V30 701 H 70.4895 -7.27817 2.9198 0
M  V30 702 N 67.9926 0.231505 -1.5589 0
M  V30 703 C 68.9406 1.30649 -1.92441 0
M  V30 704 C 69.9346 1.49037 -0.805254 0
M  V30 705 O 71.1406 1.50329 -0.990007 0
M  V30 706 H 67.5156 0.437812 -0.611412 0
M  V30 707 H 69.4866 0.970973 -2.82161 0
M  V30 708 C 68.2356 2.65179 -2.24889 0
M  V30 709 H 67.5586 2.51835 -3.10514 0
M  V30 710 H 68.9986 3.39234 -2.54355 0
M  V30 711 C 67.4576 3.19439 -1.07054 0
M  V30 712 O 67.9876 4.00371 -0.326499 0
M  V30 713 N 66.1936 2.77675 -0.85703 0
M  V30 714 H 65.7406 2.11969 -1.46379 0
M  V30 715 H 65.6986 3.14321 -0.0703223 0
M  V30 716 N 69.4707 1.49531 0.497807 0
M  V30 717 C 70.7167 1.59415 1.25358 0
M  V30 718 C 71.0497 0.281422 1.9215 0
M  V30 719 O 70.3247 -0.715249 1.80871 0
M  V30 720 C 70.6077 2.75566 2.3181 0
M  V30 721 C 70.4607 4.16642 1.69498 0
M  V30 722 C 71.7797 2.87347 3.33346 0
M  V30 723 H 68.8987 0.580244 0.454408 0
M  V30 724 H 71.5407 1.81827 0.551262 0
M  V30 725 H 69.6907 2.56587 2.91711 0
M  V30 726 H 71.3627 4.47145 1.13399 0
M  V30 727 H 69.6057 4.22141 0.998978 0
M  V30 728 H 70.2767 4.93792 2.46725 0
M  V30 729 H 72.7527 3.04634 2.83438 0
M  V30 730 H 71.6287 3.70289 4.05188 0
M  V30 731 H 71.8897 1.96834 3.95865 0
M  V30 732 N 70.9488 -0.749086 1.3866 0
M  V30 733 C 72.1948 -1.51056 1.35314 0
M  V30 734 C 72.5278 -1.94121 -0.0553751 0
M  V30 735 O 71.8028 -1.65763 -1.01749 0
M  V30 736 C 72.0858 -2.76003 2.31288 0
M  V30 737 C 71.9388 -2.39047 3.8102 0
M  V30 738 C 73.2578 -3.78046 2.2532 0
M  V30 739 H 70.3768 -0.547972 0.492844 0
M  V30 740 H 73.0188 -0.857628 1.69543 0
M  V30 741 H 71.1688 -3.31716 2.02229 0
M  V30 742 H 72.8408 -1.89074 4.20771 0
M  V30 743 H 71.0838 -1.71449 3.98482 0
M  V30 744 H 71.7548 -3.28462 4.4364 0
M  V30 745 H 74.2308 -3.31884 2.50983 0
M  V30 746 H 73.1068 -4.63159 2.94576 0
M  V30 747 H 73.3678 -4.23957 1.25352 0
M  V30 748 N 72.4269 -1.23603 -0.977757 0
M  V30 749 C 73.8429 -0.999251 -1.24447 0
M  V30 750 C 74.0429 0.298053 -1.99283 0
M  V30 751 O 73.0989 1.01681 -2.31122 0
M  V30 752 C 74.4119 -2.20784 -2.04144 0
M  V30 753 C 75.9599 -2.25303 -2.17273 0
M  V30 754 C 76.4349 -3.45755 -3.00362 0
M  V30 755 N 77.9259 -3.4601 -3.07947 0
M  V30 756 C 78.6609 -4.35868 -3.72568 0
M  V30 757 N 78.1569 -5.35966 -4.38991 0
M  V30 758 N 79.9499 -4.23605 -3.6948 0
M  V30 759 H 72.1009 -2.06986 -0.476483 0
M  V30 760 H 74.3639 -0.907801 -0.273134 0
M  V30 761 H 74.0699 -3.14945 -1.56533 0
M  V30 762 H 73.9439 -2.22085 -3.04891 0
M  V30 763 H 76.3309 -1.3168 -2.64092 0
M  V30 764 H 76.4119 -2.28033 -1.15907 0
M  V30 765 H 76.0559 -4.39687 -2.5424 0
M  V30 766 H 75.9859 -3.40266 -4.01904 0
M  V30 767 H 78.4769 -2.73588 -2.60688 0
M  V30 768 H 78.7899 -6.00783 -4.86086 0
M  V30 769 H 77.1349 -5.39863 -4.37691 0
M  V30 770 H 80.3259 -3.44647 -3.16759 0
M  V30 771 H 80.4989 -4.93836 -4.1956 0
M  V30 772 N 73.905 1.17692 -1.04816 0
M  V30 773 C 74.815 2.25229 -0.65643 0
M  V30 774 C 75.831 1.71018 0.320761 0
M  V30 775 O 77.007 2.00649 0.173805 0
M  V30 776 C 74.072 3.46684 -0.0332629 0
M  V30 777 C 73.133 4.15997 -1.06042 0
M  V30 778 C 72.366 5.31654 -0.466893 0
M  V30 779 O 72.589 5.65777 0.724758 0
M  V30 780 O 71.523 5.89831 -1.1993 0
M  V30 781 H 75.349 2.61016 -1.55255 0
M  V30 782 H 72.934 1.24919 -0.81949 0
M  V30 783 H 74.816 4.20234 0.313256 0
M  V30 784 H 73.491 3.12703 0.836566 0
M  V30 785 H 72.398 3.44482 -1.45886 0
M  V30 786 H 73.731 4.53996 -1.90127 0
M  V30 787 N 75.3831 0.828654 1.34056 0
M  V30 788 C 76.3461 0.259927 2.27721 0
M  V30 789 C 77.3461 -0.565478 1.50529 0
M  V30 790 O 78.5361 -0.38075 1.69988 0
M  V30 791 C 75.6681 -0.634944 3.34935 0
M  V30 792 H 76.8611 1.0863 2.79534 0
M  V30 793 H 74.4141 0.600951 1.44285 0
M  V30 794 H 75.1491 -1.48416 2.88346 0
M  V30 795 H 74.9341 -0.0444999 3.92075 0
M  V30 796 H 76.4241 -1.02648 4.04788 0
M  V30 797 N 76.8612 -1.46375 0.584142 0
M  V30 798 C 78.2722 -1.86031 0.157959 0
M  V30 799 C 78.6232 -1.48753 -1.27933 0
M  V30 800 O 77.7482 -0.903098 -1.96655 0
M  V30 801 C 78.3432 -3.37642 0.279892 0
M  V30 802 C 76.9022 -3.76289 -0.09143 0
M  V30 803 C 76.0492 -2.7039 0.615178 0
M  V30 804 H 79.0002 -1.37509 0.792274 0
M  V30 805 H 79.0212 -3.77275 -0.494364 0
M  V30 806 H 78.5332 -3.64742 1.32607 0
M  V30 807 H 76.6342 -3.54806 -1.13769 0
M  V30 808 H 76.7472 -4.78246 0.285886 0
M  V30 809 H 75.1112 -2.5464 0.0552833 0
M  V30 810 H 75.8942 -3.0033 1.66303 0
M  V30 811 N 78.3393 -0.321999 -1.54275 0
M  V30 812 C 79.2873 0.560206 -2.25753 0
M  V30 813 C 80.2813 1.11984 -1.27106 0
M  V30 814 O 81.4873 1.06806 -1.44888 0
M  V30 815 H 77.8623 0.199304 -0.725108 0
M  V30 816 H 79.8333 -0.0649365 -2.98329 0
M  V30 817 C 78.5823 1.71023 -3.02731 0
M  V30 818 H 77.9053 1.28885 -3.78456 0
M  V30 819 H 79.3453 2.30314 -3.55993 0
M  V30 820 C 77.8043 2.62692 -2.10938 0
M  V30 821 O 78.3343 3.64364 -1.6912 0
M  V30 822 N 76.5403 2.30891 -1.76459 0
M  V30 823 H 76.0873 1.48253 -2.10663 0
M  V30 824 H 76.0453 2.92487 -1.1532 0
M  V30 825 N 79.8174 1.5752 -0.0501392 0
M  V30 826 C 81.0944 1.83996 0.663685 0
M  V30 827 C 81.4744 0.938339 1.89099 0
M  V30 828 O 80.8224 -0.00087759 2.285 0
M  V30 829 C 81.0324 3.33702 1.02196 0
M  V30 830 C 82.3804 4.00691 1.40469 0
M  V30 831 O 83.4044 3.38321 1.11433 0
M  V30 832 O 82.2634 5.10658 1.94654 0
M  V30 833 H 79.3574 0.759385 0.32751 0
M  V30 834 H 81.9034 1.69514 -0.0794238 0
M  V30 835 H 80.6754 3.91015 0.149364 0
M  V30 836 H 80.2984 3.53368 1.82255 0
M  V30 837 N 81.2955 -0.223234 1.56011 0
M  V30 838 C 82.5415 -0.944891 1.8012 0
M  V30 839 C 82.8965 -1.82039 0.622862 0
M  V30 840 O 82.1895 -1.8773 -0.383143 0
M  V30 841 C 82.3835 -1.81948 3.0762 0
M  V30 842 C 82.2125 -1.03014 4.37742 0
M  V30 843 C 80.9825 -0.72574 5.00061 0
M  V30 844 C 83.1805 -0.396256 5.12771 0
M  V30 845 N 81.1625 0.0851816 6.13841 0
M  V30 846 C 82.5335 0.278137 6.19376 0
M  V30 847 C 84.5885 -0.309117 4.9694 0
M  V30 848 C 83.2915 1.03133 7.11868 0
M  V30 849 C 85.3175 0.430607 5.8983 0
M  V30 850 C 84.6795 1.09355 6.9586 0
M  V30 851 H 80.7785 -0.326081 0.710771 0
M  V30 852 H 83.3625 -0.215914 1.93499 0
M  V30 853 H 81.5335 -2.52029 2.95527 0
M  V30 854 H 83.2655 -2.47848 3.19927 0
M  V30 855 H 80.0205 -1.04335 4.61964 0
M  V30 856 H 80.4445 0.479428 6.753 0
M  V30 857 H 85.0865 -0.807313 4.15021 0
M  V30 858 H 82.8045 1.54105 7.9327 0
M  V30 859 H 86.3905 0.499012 5.79656 0
M  V30 860 H 85.2705 1.65679 7.66499 0
M  V30 861 N 82.7736 -1.49793 -0.48987 0
M  V30 862 C 84.0036 -1.6333 -1.26518 0
M  V30 863 C 84.4116 -0.308392 -1.8667 0
M  V30 864 O 83.7546 0.717512 -1.69108 0
M  V30 865 C 83.8166 -2.6522 -2.4269 0
M  V30 866 C 83.4806 -4.09279 -2.03321 0
M  V30 867 C 84.4776 -4.95738 -1.56652 0
M  V30 868 C 82.1626 -4.55082 -2.12616 0
M  V30 869 C 84.1566 -6.26041 -1.19795 0
M  V30 870 C 81.8436 -5.85396 -1.75371 0
M  V30 871 C 82.8416 -6.707 -1.29036 0
M  V30 872 O 82.5296 -7.98584 -0.92299 0
M  V30 873 H 82.2616 -0.552502 -0.389509 0
M  V30 874 H 84.8156 -1.96642 -0.593381 0
M  V30 875 H 83.0456 -2.27112 -3.12981 0
M  V30 876 H 84.7346 -2.68171 -3.04695 0
M  V30 877 H 85.5006 -4.61575 -1.48908 0
M  V30 878 H 81.3796 -3.88844 -2.47631 0
M  V30 879 H 84.9236 -6.92578 -0.835582 0
M  V30 880 H 80.8206 -6.19085 -1.82768 0
M  V30 881 H 81.5886 -8.11692 -1.05349 0
M  V30 882 N 84.2517 0.741722 -1.39055 0
M  V30 883 C 85.1997 1.87702 -1.3737 0
M  V30 884 C 86.1937 1.67427 -0.257812 0
M  V30 885 O 87.3997 1.7485 -0.427489 0
M  V30 886 H 83.7747 0.617757 -0.428812 0
M  V30 887 H 85.7457 1.86239 -2.33147 0
M  V30 888 C 84.4947 3.25315 -1.22741 0
M  V30 889 H 83.8177 3.41509 -2.07873 0
M  V30 890 H 85.2577 4.04964 -1.25618 0
M  V30 891 C 83.7167 3.36838 0.0647316 0
M  V30 892 O 84.2467 3.88073 1.03741 0
M  V30 893 N 82.4527 2.90329 0.125544 0
M  V30 894 H 81.9997 2.48823 -0.666682 0
M  V30 895 H 81.9577 2.98418 0.989639 0
M  V30 896 N 85.7298 1.2412 0.971189 0
M  V30 897 C 86.9788 1.07284 1.70801 0
M  V30 898 C 87.2918 -0.388902 1.91695 0
M  V30 899 O 88.4978 -0.677379 2.62914 0
M  V30 900 C 86.9538 1.87145 3.07416 0
M  V30 901 C 86.5618 3.37707 2.94377 0
M  V30 902 C 88.3058 1.78828 3.84995 0
M  V30 903 C 86.2128 4.09925 4.26281 0
M  V30 904 H 85.1428 0.397854 0.64049 0
M  V30 905 H 87.7938 1.4817 1.0825 0
M  V30 906 H 86.1758 1.39071 3.70777 0
M  V30 907 H 87.3498 3.93335 2.4005 0
M  V30 908 H 85.6648 3.46938 2.30267 0
M  V30 909 H 88.2618 2.30089 4.82662 0
M  V30 910 H 88.6048 0.75284 4.09436 0
M  V30 911 H 89.1378 2.24563 3.28354 0
M  V30 912 H 85.8768 5.13813 4.07033 0
M  V30 913 H 85.3968 3.59083 4.80437 0
M  V30 914 H 87.0758 4.1673 4.94919 0
M  V30 915 N 87.2079 -1.17134 1.05439 0
M  V30 916 C 88.1379 -2.2342 0.678649 0
M  V30 917 C 89.1189 -1.66971 -0.32476 0
M  V30 918 O 90.3039 -1.93149 -0.201802 0
M  V30 919 C 87.4339 -3.47256 0.0552099 0
M  V30 920 C 86.3879 -4.16543 0.98365 0
M  V30 921 C 85.7139 -5.34231 0.223961 0
M  V30 922 C 87.0139 -4.68495 2.3089 0
M  V30 923 H 88.7079 -2.55105 1.56722 0
M  V30 924 H 86.2539 -1.2262 0.754998 0
M  V30 925 H 88.2069 -4.20828 -0.21946 0
M  V30 926 H 86.9309 -3.14846 -0.868319 0
M  V30 927 H 85.5899 -3.44887 1.24293 0
M  V30 928 H 85.2379 -4.98071 -0.702412 0
M  V30 929 H 84.9379 -5.81527 0.842627 0
M  V30 930 H 86.4619 -6.10585 -0.0433671 0
M  V30 931 H 87.8759 -5.33691 2.09396 0
M  V30 932 H 86.2729 -5.26379 2.88176 0
M  V30 933 H 87.3429 -3.85169 2.94572 0
M  V30 934 N 88.686 -0.835752 -1.33615 0
M  V30 935 C 90.102 -0.523139 -1.50783 0
M  V30 936 C 90.302 0.950171 -1.77691 0
M  V30 937 O 89.358 1.73411 -1.83534 0
M  V30 938 C 90.671 -1.39378 -2.66448 0
M  V30 939 C 92.219 -1.39223 -2.80332 0
M  V30 940 C 92.694 -2.24765 -3.99055 0
M  V30 941 N 94.185 -2.22458 -4.06284 0
M  V30 942 C 94.92 -2.85386 -4.97336 0
M  V30 943 N 94.416 -3.57354 -5.93523 0
M  V30 944 N 96.209 -2.74872 -4.90308 0
M  V30 945 H 88.36 -1.78952 -1.14411 0
M  V30 946 H 90.623 -0.763297 -0.562212 0
M  V30 947 H 90.329 -2.44061 -2.53234 0
M  V30 948 H 90.203 -1.0676 -3.61776 0
M  V30 949 H 92.59 -0.353136 -2.92979 0
M  V30 950 H 92.671 -1.75846 -1.85773 0
M  V30 951 H 92.315 -3.28732 -3.87167 0
M  V30 952 H 92.245 -1.85485 -4.92852 0
M  V30 953 H 94.736 -1.70119 -3.37443 0
M  V30 954 H 95.049 -4.02584 -6.59656 0
M  V30 955 H 93.394 -3.61461 -5.93608 0
M  V30 956 H 96.585 -2.18213 -4.14126 0
M  V30 957 H 96.758 -3.24199 -5.61069 0
M  V30 958 N 90.1641 1.46063 -0.591896 0
M  V30 959 C 91.0961 2.28539 0.174001 0
M  V30 960 C 92.1091 1.39047 0.846753 0
M  V30 961 O 93.2981 1.63564 0.714774 0
M  V30 962 C 90.3981 3.14347 1.26645 0
M  V30 963 C 89.5711 4.32021 0.683856 0
M  V30 964 C 88.6301 4.99157 1.66518 0
M  V30 965 O 87.6561 5.56458 1.19763 0
M  V30 966 N 88.8581 4.97005 2.99943 0
M  V30 967 H 91.6231 2.94911 -0.533633 0
M  V30 968 H 89.1841 1.56077 -0.430294 0
M  V30 969 H 91.1761 3.56125 1.92242 0
M  V30 970 H 89.7461 2.49988 1.87682 0
M  V30 971 H 88.9661 3.93915 -0.1498 0
M  V30 972 H 90.2541 5.08059 0.274567 0
M  V30 973 H 89.6521 4.51714 3.40545 0
M  V30 974 H 88.2091 5.42696 3.61004 0
M  V30 975 N 91.6422 0.330177 1.54103 0
M  V30 976 C 92.5742 -0.566902 2.22079 0
M  V30 977 C 93.5872 -1.07462 1.22294 0
M  V30 978 O 94.7762 -0.987065 1.48726 0
M  V30 979 C 91.8762 -1.79138 2.87685 0
M  V30 980 C 91.0492 -1.42123 4.13666 0
M  V30 981 C 90.1082 -2.50394 4.62806 0
M  V30 982 O 89.1342 -2.14261 5.27334 0
M  V30 983 N 90.3362 -3.81433 4.37595 0
M  V30 984 H 93.1012 0.0151844 2.99696 0
M  V30 985 H 90.6622 0.153681 1.61169 0
M  V30 986 H 92.6542 -2.50975 3.1748 0
M  V30 987 H 91.2242 -2.28115 2.13734 0
M  V30 988 H 90.4442 -0.534201 3.90564 0
M  V30 989 H 91.7322 -1.14971 4.9564 0
M  V30 990 H 91.1302 -4.13584 3.8596 0
M  V30 991 H 89.6872 -4.4948 4.72029 0
M  V30 992 N 93.1203 -1.57491 0.0584922 0
M  V30 993 C 94.0833 -2.1085 -0.898617 0
M  V30 994 C 95.0833 -1.02964 -1.23511 0
M  V30 995 O 96.2733 -1.29007 -1.17059 0
M  V30 996 C 93.4053 -2.59881 -2.20623 0
M  V30 997 H 94.5983 -2.96715 -0.435936 0
M  V30 998 H 92.1513 -1.55141 -0.190023 0
M  V30 999 H 92.8863 -1.77431 -2.71457 0
M  V30 1000 H 92.6713 -3.38727 -1.97501 0
M  V30 1001 H 94.1613 -3.01285 -2.89166 0
M  V30 1002 N 94.5984 0.214957 -1.56127 0
M  V30 1003 C 95.5614 1.24997 -1.92116 0
M  V30 1004 C 96.5614 1.39467 -0.800344 0
M  V30 1005 O 97.7514 1.37619 -1.06802 0
M  V30 1006 C 94.8834 2.62271 -2.17777 0
M  V30 1007 H 96.0764 0.942875 -2.84693 0
M  V30 1008 H 93.6294 0.455654 -1.49511 0
M  V30 1009 H 94.3644 2.98068 -1.27773 0
M  V30 1010 H 94.1494 2.53143 -2.99434 0
M  V30 1011 H 95.6394 3.36946 -2.46693 0
M  V30 1012 N 96.0765 1.50051 0.48192 0
M  V30 1013 C 97.3045 1.64237 1.25832 0
M  V30 1014 C 97.7195 0.321336 1.86045 0
M  V30 1015 O 97.0765 -0.695478 1.68729 0
M  V30 1016 C 97.1275 2.72548 2.37487 0
M  V30 1017 O 96.8485 3.99529 1.79745 0
M  V30 1018 C 98.3495 2.9761 3.28547 0
M  V30 1019 H 95.5695 0.55237 0.380957 0
M  V30 1020 H 98.1135 1.96207 0.576467 0
M  V30 1021 H 96.2685 2.43303 3.01467 0
M  V30 1022 H 96.6825 4.59342 2.5319 0
M  V30 1023 H 98.1565 3.77084 4.03127 0
M  V30 1024 H 98.6335 2.0826 3.86684 0
M  V30 1025 H 99.2395 3.28345 2.70314 0
M  V30 1026 N 97.5546 -0.734337 1.39446 0
M  V30 1027 C 98.8036 -1.48937 1.36017 0
M  V30 1028 C 99.1166 -1.95557 -0.0409005 0
M  V30 1029 O 100.323 -2.70779 -0.19778 0
M  V30 1030 C 98.7786 -2.69125 2.38955 0
M  V30 1031 C 98.3866 -2.29452 3.8478 0
M  V30 1032 C 100.131 -3.46944 2.44603 0
M  V30 1033 C 98.0376 -3.46366 4.79358 0
M  V30 1034 H 96.9676 -0.559296 0.505672 0
M  V30 1035 H 99.6186 -0.800983 1.65095 0
M  V30 1036 H 98.0006 -3.40041 2.02948 0
M  V30 1037 H 99.1746 -1.66077 4.29831 0
M  V30 1038 H 97.4896 -1.64723 3.82433 0
M  V30 1039 H 100.087 -4.33907 3.12456 0
M  V30 1040 H 100.43 -3.89454 1.47076 0
M  V30 1041 H 100.963 -2.83056 2.79507 0
M  V30 1042 H 97.7016 -3.08905 5.78151 0
M  V30 1043 H 97.2216 -4.08719 4.38986 0
M  V30 1044 H 98.9006 -4.12691 4.98292 0
M  V30 1045 N 99.0327 -1.24633 -0.964593 0
M  V30 1046 C 99.9957 -1.0424 -2.04124 0
M  V30 1047 C 100.996 0.00137563 -1.608 0
M  V30 1048 O 102.186 -0.239883 -1.7254 0
M  V30 1049 C 99.3177 -0.580588 -3.3592 0
M  V30 1050 H 100.511 -1.99803 -2.23649 0
M  V30 1051 H 98.0637 -1.06899 -1.14027 0
M  V30 1052 H 98.7987 0.3781 -3.22088 0
M  V30 1053 H 98.5837 -1.33398 -3.6871 0
M  V30 1054 H 100.074 -0.459034 -4.15069 0
M  V30 1055 N 100.511 1.16574 -1.06058 0
M  V30 1056 C 101.474 2.19085 -0.673392 0
M  V30 1057 C 102.474 1.5835 0.279648 0
M  V30 1058 O 103.664 1.74088 0.0623488 0
M  V30 1059 C 100.796 3.40899 0.00954234 0
M  V30 1060 H 101.989 2.54853 -1.58081 0
M  V30 1061 H 99.5418 1.30808 -0.855516 0
M  V30 1062 H 100.277 3.10684 0.929826 0
M  V30 1063 H 100.062 3.86233 -0.67573 0
M  V30 1064 H 101.552 4.1675 0.266245 0
M  V30 1065 N 101.989 0.842826 1.3317 0
M  V30 1066 C 103.266 0.362216 1.92217 0
M  V30 1067 C 103.646 -1.15289 1.76838 0
M  V30 1068 O 102.994 -1.96914 1.15919 0
M  V30 1069 C 103.204 0.813495 3.39387 0
M  V30 1070 C 104.552 0.823804 4.16532 0
M  V30 1071 O 105.576 0.757358 3.48055 0
M  V30 1072 O 104.435 0.915193 5.38782 0
M  V30 1073 H 101.529 0.103317 0.820521 0
M  V30 1074 H 104.075 0.928942 1.42017 0
M  V30 1075 H 102.847 1.85624 3.4447 0
M  V30 1076 H 102.47 0.223561 3.96971 0
M  V30 1077 N 103.467 -1.45747 0.599634 0
M  V30 1078 C 104.715 -2.01893 0.0915472 0
M  V30 1079 C 105.036 -1.47155 -1.27946 0
M  V30 1080 O 104.306 -0.66273 -1.84349 0
M  V30 1081 H 102.886 -0.746363 0.0308524 0
M  V30 1082 H 105.548 -1.78645 0.779237 0
M  V30 1083 H 104.644 -3.1208 0.0353086 0
M  V30 1084 N 104.945 -0.338344 -1.53925 0
M  V30 1085 C 106.192 0.259758 -2.00827 0
M  V30 1086 C 106.52 1.50973 -1.22628 0
M  V30 1087 O 105.775 1.93379 -0.300509 0
M  V30 1088 C 106.074 0.62448 -3.51902 0
M  V30 1089 C 105.74 -0.528006 -4.47798 0
M  V30 1090 C 104.402 -0.844298 -4.73735 0
M  V30 1091 C 106.754 -1.30143 -5.0469 0
M  V30 1092 C 104.082 -1.93648 -5.53821 0
M  V30 1093 C 106.434 -2.38382 -5.85967 0
M  V30 1094 C 105.098 -2.70576 -6.10201 0
M  V30 1095 H 104.368 0.0950523 -0.734878 0
M  V30 1096 H 107.015 -0.465182 -1.85764 0
M  V30 1097 H 105.32 1.43006 -3.64769 0
M  V30 1098 H 107.017 1.09905 -3.85645 0
M  V30 1099 H 103.607 -0.271421 -4.2774 0
M  V30 1100 H 107.791 -1.07033 -4.84621 0
M  V30 1101 H 103.047 -2.19021 -5.70824 0
M  V30 1102 H 107.221 -2.98746 -6.29066 0
M  V30 1103 H 104.848 -3.55333 -6.72044 0
M  V30 1104 N 106.423 1.57458 -0.0668435 0
M  V30 1105 C 107.648 1.9804 0.616027 0
M  V30 1106 C 108.073 0.944771 1.62652 0
M  V30 1107 O 107.431 -0.0902094 1.81075 0
M  V30 1108 C 107.479 3.37665 1.26549 0
M  V30 1109 O 106.583 3.36701 2.38131 0
M  V30 1110 H 105.924 0.644719 0.158849 0
M  V30 1111 H 108.454 2.04121 -0.139891 0
M  V30 1112 H 108.464 3.7474 1.6135 0
M  V30 1113 H 107.139 4.12573 0.525016 0
M  V30 1114 H 105.716 3.1139 2.0516 0
M  V30 1115 N 107.901 -0.206675 1.56239 0
M  V30 1116 C 108.864 -1.23976 1.92776 0
M  V30 1117 C 109.864 -1.39041 0.807729 0
M  V30 1118 O 111.054 -1.37051 1.0753 0
M  V30 1119 C 108.186 -2.61112 2.19165 0
M  V30 1120 H 109.379 -0.927764 2.85189 0
M  V30 1121 H 106.932 -0.447718 1.4975 0
M  V30 1122 H 107.667 -2.97386 1.29352 0
M  V30 1123 H 107.452 -2.51552 3.00772 0
M  V30 1124 H 108.942 -3.35633 2.48476 0
M  V30 1125 N 109.379 -1.50304 -0.473955 0
M  V30 1126 C 110.628 -1.60392 -1.22301 0
M  V30 1127 C 110.941 -0.308411 -1.93153 0
M  V30 1128 O 112.147 -0.288156 -2.69966 0
M  V30 1129 C 110.603 -2.83109 -2.2221 0
M  V30 1130 C 110.211 -4.19524 -1.57173 0
M  V30 1131 C 111.955 -3.0254 -2.97775 0
M  V30 1132 C 109.862 -5.33431 -2.55353 0
M  V30 1133 H 108.792 -0.597286 -0.460179 0
M  V30 1134 H 111.443 -1.76731 -0.493803 0
M  V30 1135 H 109.825 -2.60322 -2.9841 0
M  V30 1136 H 110.999 -4.52554 -0.867824 0
M  V30 1137 H 109.314 -4.05674 -0.939002 0
M  V30 1138 H 111.911 -3.84811 -3.71248 0
M  V30 1139 H 112.254 -2.14154 -3.56992 0
M  V30 1140 H 112.787 -3.25494 -2.28688 0
M  V30 1141 H 109.526 -6.23962 -2.00878 0
M  V30 1142 H 109.046 -5.04823 -3.23904 0
M  V30 1143 H 110.725 -5.63887 -3.17239 0
M  V30 1144 N 110.857 0.726932 -1.39834 0
M  V30 1145 C 112.103 1.48771 -1.38704 0
M  V30 1146 C 112.458 1.92394 0.0146387 0
M  V30 1147 O 111.751 1.64474 0.982797 0
M  V30 1148 C 111.945 2.73495 -2.30077 0
M  V30 1149 C 111.774 2.42068 -3.78989 0
M  V30 1150 C 110.544 2.33966 -4.4787 0
M  V30 1151 C 112.742 2.0708 -4.70768 0
M  V30 1152 N 110.724 1.95095 -5.82075 0
M  V30 1153 C 112.095 1.78719 -5.93683 0
M  V30 1154 C 114.15 1.93618 -4.58712 0
M  V30 1155 C 112.853 1.3825 -7.05889 0
M  V30 1156 C 114.879 1.54553 -5.70848 0
M  V30 1157 C 114.241 1.27082 -6.92842 0
M  V30 1158 H 110.34 0.542919 -0.562817 0
M  V30 1159 H 112.924 0.84408 -1.75452 0
M  V30 1160 H 111.095 3.35625 -1.95474 0
M  V30 1161 H 112.827 3.39755 -2.19883 0
M  V30 1162 H 109.582 2.51331 -4.0141 0
M  V30 1163 H 110.006 1.7823 -6.53118 0
M  V30 1164 H 114.648 2.13522 -3.64922 0
M  V30 1165 H 112.366 1.17088 -7.99572 0
M  V30 1166 H 115.952 1.44731 -5.6351 0
M  V30 1167 H 114.832 0.973069 -7.78139 0
M  V30 1168 N 112.336 1.25143 0.95797 0
M  V30 1169 C 113.269 0.995565 2.05338 0
M  V30 1170 C 114.247 -0.0740423 1.62431 0
M  V30 1171 O 115.431 0.0649212 1.88388 0
M  V30 1172 C 112.558 0.504298 3.34925 0
M  V30 1173 C 111.604 1.56393 3.96792 0
M  V30 1174 S 112.437 3.14815 4.33188 0
M  V30 1175 C 113.593 2.67415 5.65898 0
M  V30 1176 H 113.826 1.92309 2.26726 0
M  V30 1177 H 111.359 1.08635 1.09716 0
M  V30 1178 H 113.317 0.227497 4.09869 0
M  V30 1179 H 111.978 -0.402671 3.11508 0
M  V30 1180 H 111.171 1.17082 4.90212 0
M  V30 1181 H 110.773 1.79124 3.28315 0
M  V30 1182 H 113.065 2.10833 6.4386 0
M  V30 1183 H 114.008 3.59463 6.10076 0
M  V30 1184 H 114.416 2.07521 5.24972 0
M  V30 1185 N 113.814 -1.1601 1.06675 0
M  V30 1186 C 115.225 -1.68235 0.809565 0
M  V30 1187 C 115.576 -1.8454 -0.666303 0
M  V30 1188 O 114.701 -1.54374 -1.5165 0
M  V30 1189 C 115.296 -3.05585 1.46299 0
M  V30 1190 C 113.855 -3.54915 1.25349 0
M  V30 1191 C 113.002 -2.30804 1.53703 0
M  V30 1192 H 115.953 -1.00318 1.22971 0
M  V30 1193 H 115.974 -3.70174 0.880431 0
M  V30 1194 H 115.486 -2.93686 2.53713 0
M  V30 1195 H 113.587 -3.72067 0.199261 0
M  V30 1196 H 113.7 -4.36774 1.9689 0
M  V30 1197 H 112.064 -2.36007 0.957739 0
M  V30 1198 H 112.847 -2.21499 2.62284 0
M  V30 1199 N 115.292 -0.849877 -1.32721 0
M  V30 1200 C 116.538 -0.451591 -1.97708 0
M  V30 1201 C 116.871 0.989175 -1.6712 0
M  V30 1202 O 116.146 1.69334 -0.956891 0
M  V30 1203 C 116.429 -0.685598 -3.53513 0
M  V30 1204 C 116.282 -2.17444 -3.93749 0
M  V30 1205 C 117.601 -0.138874 -4.39881 0
M  V30 1206 H 114.72 -0.16555 -0.718166 0
M  V30 1207 H 117.362 -1.06742 -1.57182 0
M  V30 1208 H 115.512 -0.161416 -3.88165 0
M  V30 1209 H 117.184 -2.76433 -3.693 0
M  V30 1210 H 115.427 -2.65476 -3.43081 0
M  V30 1211 H 116.098 -2.28888 -5.02309 0
M  V30 1212 H 118.574 -0.587068 -4.11938 0
M  V30 1213 H 117.45 -0.332213 -5.47894 0
M  V30 1214 H 117.711 0.95806 -4.31594 0
M  V30 1215 N 116.77 1.45427 -0.607355 0
M  V30 1216 C 118.181 1.85756 -0.187535 0
M  V30 1217 C 118.532 1.5077 1.25551 0
M  V30 1218 O 117.657 0.93427 1.95193 0
M  V30 1219 C 118.252 3.37154 -0.333572 0
M  V30 1220 C 116.811 3.76387 0.0315542 0
M  V30 1221 C 115.958 2.69377 -0.658117 0
M  V30 1222 H 118.909 1.36231 -0.81405 0
M  V30 1223 H 118.93 3.78014 0.43428 0
M  V30 1224 H 118.442 3.62586 -1.38393 0
M  V30 1225 H 116.543 3.56571 1.0811 0
M  V30 1226 H 116.656 4.77731 -0.361935 0
M  V30 1227 H 115.02 2.5452 -0.0957873 0
M  V30 1228 H 115.803 2.97646 -1.7106 0
M  V30 1229 N 118.248 0.346503 1.53744 0
M  V30 1230 C 119.494 -0.242135 2.01954 0
M  V30 1231 C 119.849 -1.47962 1.22984 0
M  V30 1232 O 119.142 -1.89077 0.309924 0
M  V30 1233 C 119.336 -0.605809 3.52228 0
M  V30 1234 C 119.165 0.594882 4.45748 0
M  V30 1235 C 117.935 1.1011 4.93157 0
M  V30 1236 C 120.133 1.45425 4.93311 0
M  V30 1237 N 118.115 2.26381 5.70636 0
M  V30 1238 C 119.486 2.46383 5.68942 0
M  V30 1239 C 121.541 1.47935 4.75415 0
M  V30 1240 C 120.244 3.49684 6.28581 0
M  V30 1241 C 122.27 2.50119 5.35905 0
M  V30 1242 C 121.632 3.49803 6.11406 0
M  V30 1243 H 117.731 -0.0518296 0.780281 0
M  V30 1244 H 120.315 0.486736 1.88518 0
M  V30 1245 H 118.486 -1.30378 3.65864 0
M  V30 1246 H 120.218 -1.17789 3.87179 0
M  V30 1247 H 116.973 0.668721 4.68855 0
M  V30 1248 H 117.397 2.85094 6.14044 0
M  V30 1249 H 122.039 0.722274 4.16585 0
M  V30 1250 H 119.757 4.26285 6.86518 0
M  V30 1251 H 123.343 2.52892 5.23963 0
M  V30 1252 H 122.223 4.27576 6.5738 0
M  V30 1253 N 119.726 -1.57421 0.075193 0
M  V30 1254 C 121.142 -1.57099 -0.281444 0
M  V30 1255 C 121.342 -1.08486 -1.69803 0
M  V30 1256 O 120.398 -0.752279 -2.41033 0
M  V30 1257 C 121.711 -3.00571 -0.0880041 0
M  V30 1258 C 123.259 -3.12605 -0.157281 0
M  V30 1259 C 123.734 -4.57999 0.0079207 0
M  V30 1260 N 125.225 -4.63176 -0.0475725 0
M  V30 1261 C 125.96 -5.73373 0.0557876 0
M  V30 1262 N 125.456 -6.92473 0.21286 0
M  V30 1263 N 127.249 -5.621 -0.00152098 0
M  V30 1264 H 119.4 -1.87335 1.00098 0
M  V30 1265 H 121.663 -0.86377 0.390646 0
M  V30 1266 H 121.369 -3.40262 0.889629 0
M  V30 1267 H 121.243 -3.67754 -0.838875 0
M  V30 1268 H 123.63 -2.72798 -1.1254 0
M  V30 1269 H 123.711 -2.48053 0.62475 0
M  V30 1270 H 123.355 -4.98496 0.972824 0
M  V30 1271 H 123.285 -5.20586 -0.793556 0
M  V30 1272 H 125.776 -3.7753 -0.167244 0
M  V30 1273 H 126.089 -7.72279 0.283781 0
M  V30 1274 H 124.434 -6.94556 0.248267 0
M  V30 1275 H 127.625 -4.67938 -0.122958 0
M  V30 1276 H 127.798 -6.47948 0.0824844 0
M  V30 1277 N 121.204 0.198386 -1.56346 0
M  V30 1278 C 122.481 0.944982 -1.71258 0
M  V30 1279 C 122.861 2.0151 -0.629048 0
M  V30 1280 O 122.209 2.25639 0.360473 0
M  V30 1281 C 122.419 1.5344 -3.1346 0
M  V30 1282 C 123.767 2.01778 -3.73591 0
M  V30 1283 O 124.791 1.63288 -3.16568 0
M  V30 1284 O 123.65 2.72594 -4.73661 0
M  V30 1285 H 120.744 0.442939 -0.69838 0
M  V30 1286 H 123.29 0.188342 -1.68652 0
M  V30 1287 H 122.062 0.762869 -3.83792 0
M  V30 1288 H 121.685 2.35596 -3.20282 0
M  V30 1289 N 122.682 1.50554 0.465978 0
M  V30 1290 C 123.929 1.61798 1.21768 0
M  V30 1291 C 124.257 0.320696 1.91838 0
M  V30 1292 O 123.512 -0.693724 1.82992 0
M  V30 1293 C 123.811 2.75152 2.28093 0
M  V30 1294 C 123.477 4.15454 1.75239 0
M  V30 1295 C 122.139 4.53628 1.60546 0
M  V30 1296 C 124.491 5.03121 1.36083 0
M  V30 1297 C 121.819 5.77204 1.05128 0
M  V30 1298 C 124.171 6.27249 0.821056 0
M  V30 1299 C 122.835 6.64221 0.660795 0
M  V30 1300 H 122.105 0.592063 0.445582 0
M  V30 1301 H 124.752 1.84503 0.512927 0
M  V30 1302 H 123.057 2.46556 3.04496 0
M  V30 1303 H 124.754 2.81055 2.86023 0
M  V30 1304 H 121.344 3.85341 1.87644 0
M  V30 1305 H 125.528 4.74257 1.46267 0
M  V30 1306 H 120.784 6.0452 0.91462 0
M  V30 1307 H 124.958 6.94537 0.509018 0
M  V30 1308 H 122.585 7.59854 0.229226 0
M  V30 1309 N 124.16 -0.719506 1.40217 0
M  V30 1310 C 125.385 -1.51371 1.4178 0
M  V30 1311 C 125.81 -1.88091 0.0182355 0
M  V30 1312 O 125.168 -1.52997 -0.972707 0
M  V30 1313 C 125.216 -2.768 2.31115 0
M  V30 1314 O 124.32 -3.73349 1.7517 0
M  V30 1315 H 123.661 -0.456529 0.482159 0
M  V30 1316 H 126.191 -0.88644 1.844 0
M  V30 1317 H 126.201 -3.25371 2.46167 0
M  V30 1318 H 124.876 -2.49407 3.3282 0
M  V30 1319 H 123.453 -3.32179 1.69444 0
M  V30 1320 N 125.638 -1.25649 -0.95132 0
M  V30 1321 C 126.863 -1.13443 -1.73624 0
M  V30 1322 C 127.288 0.307565 -1.85568 0
M  V30 1323 O 126.646 1.22282 -1.33854 0
M  V30 1324 C 126.694 -1.79723 -3.12621 0
M  V30 1325 O 125.798 -1.07912 -3.98031 0
M  V30 1326 H 125.139 -0.395872 -0.533086 0
M  V30 1327 H 127.669 -1.66276 -1.1922 0
M  V30 1328 H 127.679 -1.86141 -3.63064 0
M  V30 1329 H 126.354 -2.84633 -3.03244 0
M  V30 1330 H 124.931 -1.09398 -3.56492 0
M  V30 1331 N 127.117 1.15442 -1.07289 0
M  V30 1332 C 128.363 1.8672 -0.806679 0
M  V30 1333 C 128.718 1.80723 0.660084 0
M  V30 1334 O 128.011 1.21902 1.47819 0
M  V30 1335 C 128.205 3.3489 -1.24834 0
M  V30 1336 C 128.034 3.55313 -2.7565 0
M  V30 1337 C 126.804 3.7082 -3.4325 0
M  V30 1338 C 129.002 3.53188 -3.73848 0
M  V30 1339 N 126.984 3.7929 -4.82713 0
M  V30 1340 C 128.355 3.67765 -4.99149 0
M  V30 1341 C 130.41 3.36459 -3.67015 0
M  V30 1342 C 129.113 3.6734 -6.18428 0
M  V30 1343 C 131.139 3.37333 -4.85758 0
M  V30 1344 C 130.501 3.52438 -6.09891 0
M  V30 1345 H 126.6 0.700433 -0.347733 0
M  V30 1346 H 129.184 1.38441 -1.36902 0
M  V30 1347 H 127.355 3.81786 -0.713713 0
M  V30 1348 H 129.087 3.93875 -0.929745 0
M  V30 1349 H 125.842 3.71568 -2.93656 0
M  V30 1350 H 126.266 3.8727 -5.55294 0
M  V30 1351 H 130.908 3.237 -2.71989 0
M  V30 1352 H 128.626 3.78878 -7.13777 0
M  V30 1353 H 132.212 3.25617 -4.82146 0
M  V30 1354 H 131.092 3.53047 -7.00234 0
M  V30 1355 N 128.595 0.856903 1.32268 0
M  V30 1356 C 129.82 0.474569 2.01897 0
M  V30 1357 C 130.245 -0.921766 1.63967 0
M  V30 1358 O 129.603 -1.60589 0.84148 0
M  V30 1359 C 129.651 0.623799 3.55164 0
M  V30 1360 O 128.755 -0.342459 4.10976 0
M  V30 1361 H 128.096 0.190422 0.63611 0
M  V30 1362 H 130.626 1.15672 1.68764 0
M  V30 1363 H 130.636 0.512169 4.04773 0
M  V30 1364 H 129.311 1.64202 3.82113 0
M  V30 1365 H 127.888 -0.18688 3.72431 0
M  V30 1366 N 130.073 -1.45103 0.615059 0
M  V30 1367 C 131.35 -1.95549 0.0448276 0
M  V30 1368 C 131.73 -1.55737 -1.4251 0
M  V30 1369 O 131.078 -0.823556 -2.13143 0
M  V30 1370 C 131.288 -3.48098 0.250785 0
M  V30 1371 C 132.636 -4.24384 0.135509 0
M  V30 1372 O 133.66 -3.55738 0.181299 0
M  V30 1373 O 132.519 -5.46493 0.0268878 0
M  V30 1374 H 129.613 -0.8264 -0.0314845 0
M  V30 1375 H 132.159 -1.55232 0.685642 0
M  V30 1376 H 130.931 -3.7007 1.27139 0
M  V30 1377 H 130.554 -3.95323 -0.424937 0
M  V30 1378 N 131.551 -0.354651 -1.53558 0
M  V30 1379 C 132.799 0.237972 -2.00694 0
M  V30 1380 C 133.12 1.50173 -1.24391 0
M  V30 1381 O 132.39 1.92673 -0.354135 0
M  V30 1382 H 130.97 0.0909256 -0.741446 0
M  V30 1383 H 133.632 -0.478368 -1.88938 0
M  V30 1384 H 132.728 0.47264 -3.085 0
M  V30 1385 N 133.029 1.57378 -0.0835403 0
M  V30 1386 C 134.254 1.98682 0.594987 0
M  V30 1387 C 134.679 0.961969 1.61641 0
M  V30 1388 O 134.037 -0.0709989 1.81161 0
M  V30 1389 C 134.085 3.38988 1.2296 0
M  V30 1390 O 133.189 3.39208 2.34546 0
M  V30 1391 H 132.53 0.646368 0.152002 0
M  V30 1392 H 135.06 2.03961 -0.161533 0
M  V30 1393 H 135.07 3.76431 1.57366 0
M  V30 1394 H 133.745 4.13107 0.481228 0
M  V30 1395 H 132.322 3.13548 2.01846 0
M  V30 1396 N 134.507 -0.190092 1.56449 0
M  V30 1397 C 135.454 -1.23557 1.94942 0
M  V30 1398 C 136.424 -1.44972 0.810696 0
M  V30 1399 O 137.609 -1.58023 1.06927 0
M  V30 1400 C 134.749 -2.57416 2.2985 0
M  V30 1401 C 133.862 -2.43537 3.5681 0
M  V30 1402 C 132.997 -3.70134 3.81017 0
M  V30 1403 C 132.036 -3.51109 5.01387 0
M  V30 1404 N 131.173 -4.6973 5.21822 0
M  V30 1405 H 136.013 -0.900304 2.84075 0
M  V30 1406 H 133.55 -0.43318 1.40577 0
M  V30 1407 H 135.508 -3.35409 2.48106 0
M  V30 1408 H 134.138 -2.88975 1.43852 0
M  V30 1409 H 133.19 -1.56816 3.46573 0
M  V30 1410 H 134.502 -2.25415 4.4496 0
M  V30 1411 H 133.656 -4.56566 3.9954 0
M  V30 1412 H 132.395 -3.91215 2.91207 0
M  V30 1413 H 131.4 -2.63063 4.82782 0
M  V30 1414 H 132.625 -3.31468 5.9271 0
M  V30 1415 H 130.571 -4.91065 4.34961 0
M  V30 1416 H 130.488 -4.54452 6.0416 0
M  V30 1417 H 131.756 -5.57499 5.44808 0
M  V30 1418 N 135.985 -1.50799 -0.457987 0
M  V30 1419 C 137.21 -1.66496 -1.23668 0
M  V30 1420 C 137.635 -0.353288 -1.84752 0
M  V30 1421 O 136.993 0.684346 -1.67888 0
M  V30 1422 C 137.041 -2.76763 -2.3116 0
M  V30 1423 O 136.145 -2.38928 -3.36136 0
M  V30 1424 H 135.486 -0.555828 -0.363252 0
M  V30 1425 H 138.016 -1.9725 -0.543474 0
M  V30 1426 H 138.026 -3.00232 -2.76269 0
M  V30 1427 H 136.701 -3.71954 -1.86073 0
M  V30 1428 H 135.278 -2.25953 -2.96647 0
M  V30 1429 N 137.463 0.71206 -1.40597 0
M  V30 1430 C 138.711 1.46907 -1.38791 0
M  V30 1431 C 139.032 1.94998 0.00780391 0
M  V30 1432 O 138.302 1.70587 0.963174 0
M  V30 1433 H 136.882 0.545043 -0.51082 0
M  V30 1434 H 139.544 0.843882 -1.75683 0
M  V30 1435 H 138.64 2.34021 -2.06496 0
M  V30 1436 N 138.941 1.26152 0.944643 0
M  V30 1437 C 140.189 1.11271 1.6871 0
M  V30 1438 C 140.51 -0.345166 1.91921 0
M  V30 1439 O 139.78 -1.24387 1.51343 0
M  V30 1440 H 138.36 0.408783 0.625224 0
M  V30 1441 H 141.022 1.58427 1.1352 0
M  V30 1442 H 140.118 1.62879 2.66227 0
M  V30 1443 N 140.419 -1.14872 1.07899 0
M  V30 1444 C 141.667 -1.85422 0.803941 0
M  V30 1445 C 141.988 -1.83051 -0.67211 0
M  V30 1446 O 141.258 -1.27532 -1.48703 0
M  V30 1447 H 139.838 -0.686537 0.294408 0
M  V30 1448 H 142.5 -1.39226 1.3639 0
M  V30 1449 H 141.596 -2.90399 1.14346 0
M  V30 1450 N 141.898 -0.863906 -1.31812 0
M  V30 1451 C 142.808 -0.318461 -2.32428 0
M  V30 1452 C 143.824 0.568496 -1.64451 0
M  V30 1453 O 145 0.46666 -1.95919 0
M  V30 1454 C 142.065 0.476355 -3.43412 0
M  V30 1455 C 141.126 -0.43784 -4.27061 0
M  V30 1456 C 140.359 0.319138 -5.32745 0
M  V30 1457 O 140.582 1.54799 -5.48993 0
M  V30 1458 O 139.516 -0.319861 -6.01049 0
M  V30 1459 H 143.342 -1.15229 -2.80991 0
M  V30 1460 H 140.927 -0.627103 -1.35602 0
M  V30 1461 H 142.809 0.927156 -4.11074 0
M  V30 1462 H 141.484 1.28683 -2.97022 0
M  V30 1463 H 140.391 -0.937013 -3.62175 0
M  V30 1464 H 141.724 -1.21375 -4.77 0
M  V30 1465 N 143.376 1.44774 -0.622745 0
M  V30 1466 C 144.624 2.01721 -0.123655 0
M  V30 1467 C 144.945 1.49172 1.25589 0
M  V30 1468 O 144.215 0.691974 1.83272 0
M  V30 1469 H 142.795 0.745777 -0.0427225 0
M  V30 1470 H 145.457 1.77382 -0.807559 0
M  V30 1471 H 144.553 3.11984 -0.0849534 0
M  V30 1472 N 144.854 0.36279 1.53368 0
M  V30 1473 C 146.084 -0.228281 2.05335 0
M  V30 1474 C 146.492 -1.43226 1.23625 0
M  V30 1475 O 145.835 -1.81717 0.269206 0
M  V30 1476 C 145.897 -0.688549 3.52845 0
M  V30 1477 C 145.561 0.398362 4.5526 0
M  V30 1478 C 146.558 1.24732 5.04716 0
M  V30 1479 C 144.243 0.557805 4.99193 0
M  V30 1480 C 146.237 2.2411 5.96702 0
M  V30 1481 C 143.924 1.55495 5.90986 0
M  V30 1482 C 144.922 2.39503 6.39631 0
M  V30 1483 O 144.61 3.37517 7.29615 0
M  V30 1484 H 144.342 -0.044395 0.674541 0
M  V30 1485 H 146.896 0.518668 1.98744 0
M  V30 1486 H 145.126 -1.48706 3.56964 0
M  V30 1487 H 146.815 -1.20231 3.87685 0
M  V30 1488 H 147.581 1.13532 4.71525 0
M  V30 1489 H 143.46 -0.0862959 4.60919 0
M  V30 1490 H 147.004 2.89718 6.34594 0
M  V30 1491 H 142.901 1.66744 6.23592 0
M  V30 1492 H 143.669 3.33213 7.47604 0
M  V30 1493 N 146.332 -1.57332 0.0918853 0
M  V30 1494 C 147.579 -1.94236 -0.572577 0
M  V30 1495 C 147.907 -0.973398 -1.6839 0
M  V30 1496 O 147.162 0.00756912 -1.95699 0
M  V30 1497 C 147.461 -3.37689 -1.17051 0
M  V30 1498 C 147.127 -4.50527 -0.183304 0
M  V30 1499 C 145.789 -4.81119 0.0882276 0
M  V30 1500 C 148.141 -5.18883 0.49095 0
M  V30 1501 C 145.469 -5.77395 1.04076 0
M  V30 1502 C 147.821 -6.1618 1.43193 0
M  V30 1503 C 146.485 -6.45179 1.71173 0
M  V30 1504 H 145.755 -0.710762 -0.209521 0
M  V30 1505 H 148.402 -1.9077 0.167036 0
M  V30 1506 H 146.707 -3.37718 -1.9863 0
M  V30 1507 H 148.404 -3.63543 -1.69227 0
M  V30 1508 H 144.994 -4.26681 -0.405124 0
M  V30 1509 H 149.178 -4.95427 0.294312 0
M  V30 1510 H 144.434 -5.98179 1.26457 0
M  V30 1511 H 148.608 -6.68243 1.96023 0
M  V30 1512 H 146.235 -7.1959 2.4514 0
M  V30 1513 N 147.81 0.181792 -1.56548 0
M  V30 1514 C 149.056 0.896803 -1.82562 0
M  V30 1515 C 149.411 1.80324 -0.670908 0
M  V30 1516 O 148.704 1.8868 0.333235 0
M  V30 1517 C 148.898 1.73728 -3.12335 0
M  V30 1518 C 148.727 0.913714 -4.4032 0
M  V30 1519 C 147.497 0.592903 -5.01809 0
M  V30 1520 C 149.695 0.260164 -5.13642 0
M  V30 1521 N 147.677 -0.247901 -6.13399 0
M  V30 1522 C 149.048 -0.442256 -6.18421 0
M  V30 1523 C 151.103 0.177253 -4.97584 0
M  V30 1524 C 149.806 -1.21971 -7.08883 0
M  V30 1525 C 151.832 -0.586839 -5.88481 0
M  V30 1526 C 151.194 -1.27766 -6.92716 0
M  V30 1527 H 147.293 0.307122 -0.719166 0
M  V30 1528 H 149.877 0.164535 -1.94004 0
M  V30 1529 H 148.048 2.44105 -3.02105 0
M  V30 1530 H 149.78 2.39279 -3.26386 0
M  V30 1531 H 146.535 0.920502 -4.64568 0
M  V30 1532 H 146.959 -0.658304 -6.73792 0
M  V30 1533 H 151.601 0.696993 -4.17015 0
M  V30 1534 H 149.319 -1.75083 -7.88905 0
M  V30 1535 H 152.905 -0.652522 -5.78129 0
M  V30 1536 H 151.785 -1.85943 -7.61836 0
M  V30 1537 N 149.288 1.51039 0.449983 0
M  V30 1538 C 150.238 1.67824 1.54335 0
M  V30 1539 C 151.222 0.5324 1.51836 0
M  V30 1540 O 152.414 0.787762 1.58503 0
M  V30 1541 C 149.543 1.7951 2.92628 0
M  V30 1542 C 148.629 2.99838 2.9993 0
M  V30 1543 N 149.02 4.23207 2.77001 0
M  V30 1544 C 147.318 2.98832 3.31082 0
M  V30 1545 C 148.019 5.04361 2.89818 0
M  V30 1546 N 146.995 4.38746 3.2094 0
M  V30 1547 H 150.797 2.60884 1.35339 0
M  V30 1548 H 148.311 1.48513 0.657085 0
M  V30 1549 H 150.308 1.89642 3.7127 0
M  V30 1550 H 148.968 0.876227 3.12654 0
M  V30 1551 H 149.979 4.5236 2.52172 0
M  V30 1552 H 146.656 2.16527 3.56963 0
M  V30 1553 H 148.046 6.12528 2.76151 0
M  V30 1554 N 150.766 -0.704594 1.40972 0
M  V30 1555 C 152.043 -1.45847 1.30338 0
M  V30 1556 C 152.423 -2.10973 -0.0732344 0
M  V30 1557 O 151.771 -2.00997 -1.08685 0
M  V30 1558 C 151.981 -2.48525 2.45023 0
M  V30 1559 C 153.329 -3.1404 2.8577 0
M  V30 1560 O 154.353 -2.58848 2.44696 0
M  V30 1561 O 153.212 -4.13981 3.56766 0
M  V30 1562 H 150.306 -0.649092 0.512454 0
M  V30 1563 H 152.852 -0.735836 1.52917 0
M  V30 1564 H 151.624 -1.98994 3.36923 0
M  V30 1565 H 151.247 -3.2831 2.24272 0
M  V30 1566 N 152.244 -1.26651 -0.937939 0
M  V30 1567 C 153.491 -1.12387 -1.6845 0
M  V30 1568 C 153.819 0.332208 -1.91642 0
M  V30 1569 O 153.074 1.2602 -1.49725 0
M  V30 1570 C 153.373 -1.84168 -3.06295 0
M  V30 1571 C 153.039 -3.34056 -3.02849 0
M  V30 1572 C 151.701 -3.74942 -3.01616 0
M  V30 1573 C 154.053 -4.29741 -2.9491 0
M  V30 1574 C 151.381 -5.09894 -2.90215 0
M  V30 1575 C 153.733 -5.64738 -2.8505 0
M  V30 1576 C 152.397 -6.0493 -2.82162 0
M  V30 1577 H 151.667 -0.411252 -0.616403 0
M  V30 1578 H 154.314 -1.57134 -1.09459 0
M  V30 1579 H 152.619 -1.319 -3.6893 0
M  V30 1580 H 154.316 -1.70569 -3.62915 0
M  V30 1581 H 150.906 -3.01534 -3.0459 0
M  V30 1582 H 155.09 -3.99133 -2.94969 0
M  V30 1583 H 150.346 -5.40194 -2.86358 0
M  V30 1584 H 154.52 -6.38561 -2.77872 0
M  V30 1585 H 152.147 -7.09457 -2.73084 0
M  V30 1586 N 153.722 1.14298 -1.08507 0
M  V30 1587 C 154.67 2.21483 -0.710483 0
M  V30 1588 C 155.664 1.66998 0.284234 0
M  V30 1589 O 156.87 1.79401 0.146692 0
M  V30 1590 H 153.245 0.721578 -0.211729 0
M  V30 1591 H 155.216 2.50348 -1.62384 0
M  V30 1592 C 153.965 3.4743 -0.137007 0
M  V30 1593 H 153.288 3.89686 -0.893592 0
M  V30 1594 H 154.728 4.2391 0.0872789 0
M  V30 1595 C 153.187 3.17548 1.12538 0
M  V30 1596 O 153.717 3.35437 2.21009 0
M  V30 1597 N 151.923 2.71499 1.03617 0
M  V30 1598 H 151.47 2.57143 0.153403 0
M  V30 1599 H 151.428 2.51881 1.88158 0
M  V30 1600 N 155.201 0.870884 1.31352 0
M  V30 1601 C 156.148 0.325425 2.28494 0
M  V30 1602 C 157.118 -0.576615 1.5577 0
M  V30 1603 O 158.303 -0.508059 1.83911 0
M  V30 1604 C 155.443 -0.466283 3.41935 0
M  V30 1605 C 154.556 0.463378 4.29508 0
M  V30 1606 C 153.691 -0.342544 5.30094 0
M  V30 1607 C 152.73 0.583486 6.09313 0
M  V30 1608 N 151.867 -0.186244 7.01853 0
M  V30 1609 H 156.707 1.15901 2.74538 0
M  V30 1610 H 154.244 0.58294 1.35056 0
M  V30 1611 H 156.202 -0.941085 4.06447 0
M  V30 1612 H 154.832 -1.26456 2.97 0
M  V30 1613 H 153.884 1.05663 3.65431 0
M  V30 1614 H 155.196 1.1734 4.84802 0
M  V30 1615 H 154.35 -0.879816 6.00287 0
M  V30 1616 H 153.089 -1.08585 4.75458 0
M  V30 1617 H 152.094 1.13251 5.3801 0
M  V30 1618 H 153.319 1.32566 6.66035 0
M  V30 1619 H 151.265 -0.912348 6.49625 0
M  V30 1620 H 151.182 0.464422 7.54572 0
M  V30 1621 H 152.45 -0.704716 7.76308 0
M  V30 1622 N 156.679 -1.44442 0.630414 0
M  V30 1623 C 157.627 -2.32437 -0.0871428 0
M  V30 1624 C 158.621 -1.47304 -0.836525 0
M  V30 1625 O 159.827 -1.63653 -0.749506 0
M  V30 1626 H 156.202 -0.750533 -0.0469495 0
M  V30 1627 H 158.173 -2.90709 0.673096 0
M  V30 1628 C 156.922 -3.31288 -1.05563 0
M  V30 1629 H 156.245 -3.96805 -0.488426 0
M  V30 1630 H 157.685 -3.9554 -1.52721 0
M  V30 1631 C 156.144 -2.6016 -2.14052 0
M  V30 1632 O 156.674 -2.39997 -3.22124 0
M  V30 1633 N 154.88 -2.19911 -1.89967 0
M  V30 1634 H 154.427 -2.36509 -1.02085 0
M  V30 1635 H 154.385 -1.72646 -2.62756 0
M  V30 1636 N 158.157 -0.370918 -1.53173 0
M  V30 1637 C 159.405 0.216673 -2.00935 0
M  V30 1638 C 159.726 1.48845 -1.25977 0
M  V30 1639 O 158.996 1.92286 -0.374551 0
M  V30 1640 H 157.576 0.0830565 -0.742368 0
M  V30 1641 H 160.238 -0.49838 -1.8842 0
M  V30 1642 H 159.334 0.439893 -3.08984 0
M  V30 1643 N 159.635 1.57281 -0.100228 0
M  V30 1644 C 161.051 1.57527 0.256416 0
M  V30 1645 C 161.251 1.11173 1.68056 0
M  V30 1646 O 160.307 0.79053 2.39806 0
M  V30 1647 C 161.62 3.00673 0.0401747 0
M  V30 1648 C 163.168 3.12815 0.107528 0
M  V30 1649 C 163.643 4.57929 -0.0807834 0
M  V30 1650 N 165.134 4.63193 -0.0261207 0
M  V30 1651 C 165.869 5.73212 -0.146999 0
M  V30 1652 N 165.365 6.92047 -0.322999 0
M  V30 1653 N 167.158 5.62031 -0.0879044 0
M  V30 1654 H 159.309 1.85718 -1.03065 0
M  V30 1655 H 161.572 0.857446 -0.404339 0
M  V30 1656 H 161.278 3.38804 -0.943649 0
M  V30 1657 H 161.152 3.69042 0.780262 0
M  V30 1658 H 163.539 2.74554 1.08186 0
M  V30 1659 H 163.62 2.47028 -0.664134 0
M  V30 1660 H 163.264 4.96886 -1.05201 0
M  V30 1661 H 163.194 5.21783 0.710635 0
M  V30 1662 H 165.685 3.77748 0.107161 0
M  V30 1663 H 165.998 7.7173 -0.406608 0
M  V30 1664 H 164.343 6.94074 -0.358733 0
M  V30 1665 H 167.534 4.68075 0.048498 0
M  V30 1666 H 167.707 6.47734 -0.185557 0
M  V30 1667 N 161.113 -0.173488 1.56642 0
M  V30 1668 C 162.343 -0.904781 1.85734 0
M  V30 1669 C 162.751 -1.76431 0.68328 0
M  V30 1670 O 162.094 -1.802 -0.356865 0
M  V30 1671 C 162.156 -1.83382 3.09211 0
M  V30 1672 C 161.82 -1.15411 4.42187 0
M  V30 1673 C 162.817 -0.520609 5.17287 0
M  V30 1674 C 160.502 -1.15151 4.88923 0
M  V30 1675 C 162.496 0.106412 6.37311 0
M  V30 1676 C 160.183 -0.520664 6.08878 0
M  V30 1677 C 161.181 0.107196 6.82916 0
M  V30 1678 O 160.869 0.728102 8.00596 0
M  V30 1679 H 160.601 -0.268408 0.62043 0
M  V30 1680 H 163.155 -0.179096 2.04618 0
M  V30 1681 H 161.385 -2.59976 2.86268 0
M  V30 1682 H 163.074 -2.43476 3.24768 0
M  V30 1683 H 163.84 -0.514606 4.82262 0
M  V30 1684 H 159.719 -1.62961 4.31236 0
M  V30 1685 H 163.263 0.597081 6.9504 0
M  V30 1686 H 159.16 -0.524242 6.43368 0
M  V30 1687 H 159.928 0.627138 8.16094 0
M  V30 1688 N 162.591 -1.51276 -0.441967 0
M  V30 1689 C 163.839 -1.63392 -1.18943 0
M  V30 1690 C 164.16 -0.350159 -1.9183 0
M  V30 1691 O 163.43 0.633784 -1.85364 0
M  V30 1692 H 162.01 -0.602164 -0.442049 0
M  V30 1693 H 164.672 -1.88186 -0.507165 0
M  V30 1694 H 163.768 -2.45934 -1.92154 0
M  V30 1695 N 164.069 0.697108 -1.41344 0
M  V30 1696 C 165.294 1.49096 -1.44171 0
M  V30 1697 C 165.719 1.88038 -0.0481568 0
M  V30 1698 O 165.077 1.54525 0.948243 0
M  V30 1699 C 165.125 2.73088 -2.3549 0
M  V30 1700 O 164.229 3.70514 -1.81088 0
M  V30 1701 H 163.57 0.448801 -0.489361 0
M  V30 1702 H 166.1 0.856992 -1.85787 0
M  V30 1703 H 166.11 3.21413 -2.51312 0
M  V30 1704 H 164.785 2.44081 -3.36745 0
M  V30 1705 H 163.362 3.29441 -1.74708 0
M  V30 1706 N 165.547 1.27147 0.931209 0
M  V30 1707 C 166.824 1.0401 1.65654 0
M  V30 1708 C 167.204 -0.426297 2.06751 0
M  V30 1709 O 166.552 -1.40879 1.79904 0
M  V30 1710 C 166.762 1.99834 2.86125 0
M  V30 1711 C 168.11 2.29007 3.57549 0
M  V30 1712 O 169.134 1.97779 2.96246 0
M  V30 1713 O 167.993 2.82222 4.67989 0
M  V30 1714 H 165.087 0.396239 0.725895 0
M  V30 1715 H 167.633 1.38397 0.982056 0
M  V30 1716 H 166.405 2.98744 2.52721 0
M  V30 1717 H 166.028 1.65987 3.61295 0
M  V30 1718 N 167.025 -1.13721 1.09112 0
M  V30 1719 C 167.988 -2.17222 0.731241 0
M  V30 1720 C 168.988 -1.59035 -0.237566 0
M  V30 1721 O 170.178 -1.74192 -0.0161704 0
M  V30 1722 C 167.31 -3.40804 0.0808443 0
M  V30 1723 H 168.503 -2.50573 1.64783 0
M  V30 1724 H 166.056 -1.28493 0.889897 0
M  V30 1725 H 166.791 -3.1304 -0.847127 0
M  V30 1726 H 166.576 -3.84306 0.777896 0
M  V30 1727 H 168.066 -4.1731 -0.155657 0
M  V30 1728 N 168.503 -0.877838 -1.30888 0
M  V30 1729 C 169.435 -0.296607 -2.27273 0
M  V30 1730 C 170.448 0.544799 -1.53414 0
M  V30 1731 O 171.637 0.365511 -1.74718 0
M  V30 1732 C 168.737 0.597481 -3.33592 0
M  V30 1733 C 167.91 -0.213251 -4.3688 0
M  V30 1734 C 166.969 0.610208 -5.2265 0
M  V30 1735 O 165.995 0.035441 -5.69189 0
M  V30 1736 N 167.197 1.92071 -5.47804 0
M  V30 1737 H 169.962 -1.12492 -2.77787 0
M  V30 1738 H 167.523 -0.740105 -1.43993 0
M  V30 1739 H 169.515 1.15425 -3.87891 0
M  V30 1740 H 168.085 1.32647 -2.83061 0
M  V30 1741 H 167.305 -0.951466 -3.82545 0
M  V30 1742 H 168.593 -0.769262 -5.02951 0
M  V30 1743 H 167.991 2.4107 -5.11763 0
M  V30 1744 H 166.548 2.42508 -6.05007 0
M  V30 1745 N 169.982 1.44106 -0.638065 0
M  V30 1746 C 170.912 2.33448 0.0494287 0
M  V30 1747 C 171.893 1.48606 0.827672 0
M  V30 1748 O 173.078 1.77308 0.792173 0
M  V30 1749 C 170.208 3.31771 1.02691 0
M  V30 1750 C 169.162 4.26485 0.359823 0
M  V30 1751 C 168.488 5.14729 1.44769 0
M  V30 1752 C 169.788 5.17056 -0.738296 0
M  V30 1753 H 171.482 2.91183 -0.696636 0
M  V30 1754 H 169.028 1.40014 -0.336456 0
M  V30 1755 H 170.981 3.93161 1.51666 0
M  V30 1756 H 169.705 2.7226 1.80395 0
M  V30 1757 H 168.364 3.66437 -0.10934 0
M  V30 1758 H 168.012 4.51566 2.21578 0
M  V30 1759 H 167.712 5.78913 1.00668 0
M  V30 1760 H 169.236 5.78991 1.93911 0
M  V30 1761 H 170.65 5.72342 -0.331354 0
M  V30 1762 H 169.047 5.89879 -1.10286 0
M  V30 1763 H 170.117 4.57652 -1.60258 0
M  V30 1764 N 171.46 0.379036 1.52974 0
M  V30 1765 C 172.876 0.0285448 1.59574 0
M  V30 1766 C 173.076 -1.45542 1.39355 0
M  V30 1767 O 172.132 -2.2187 1.20541 0
M  V30 1768 C 173.445 0.496535 2.96572 0
M  V30 1769 C 174.993 0.451909 3.0972 0
M  V30 1770 C 175.468 0.895924 4.49152 0
M  V30 1771 N 176.959 0.851522 4.55306 0
M  V30 1772 C 177.694 1.16661 5.61407 0
M  V30 1773 N 177.19 1.55166 6.752 0
M  V30 1774 N 178.983 1.08853 5.51459 0
M  V30 1775 H 171.134 1.34525 1.64367 0
M  V30 1776 H 173.397 0.550733 0.771619 0
M  V30 1777 H 173.103 1.53258 3.16552 0
M  V30 1778 H 172.977 -0.109802 3.7704 0
M  V30 1779 H 175.364 -0.575029 2.89443 0
M  V30 1780 H 175.445 1.09392 2.3123 0
M  V30 1781 H 175.089 1.92104 4.70168 0
M  V30 1782 H 175.019 0.23103 5.26093 0
M  V30 1783 H 177.51 0.568038 3.73606 0
M  V30 1784 H 177.823 1.776 7.52116 0
M  V30 1785 H 176.168 1.59044 6.76557 0
M  V30 1786 H 179.359 0.786803 4.6144 0
M  V30 1787 H 179.532 1.33742 6.34048 0
M  V30 1788 N 172.938 -1.57226 0.108567 0
M  V30 1789 C 173.87 -2.11809 -0.875752 0
M  V30 1790 C 174.883 -1.05839 -1.23701 0
M  V30 1791 O 176.072 -1.33245 -1.18778 0
M  V30 1792 C 173.172 -2.59411 -2.18081 0
M  V30 1793 C 172.345 -3.89364 -1.99284 0
M  V30 1794 C 171.404 -4.22672 -3.13424 0
M  V30 1795 O 170.43 -4.91668 -2.86795 0
M  V30 1796 N 171.632 -3.79154 -4.3957 0
M  V30 1797 H 174.397 -2.9689 -0.409477 0
M  V30 1798 H 171.958 -1.61721 -0.076158 0
M  V30 1799 H 173.95 -2.7873 -2.93414 0
M  V30 1800 H 172.52 -1.79268 -2.5609 0
M  V30 1801 H 171.74 -3.79059 -1.08203 0
M  V30 1802 H 173.028 -4.74358 -1.84017 0
M  V30 1803 H 172.426 -3.23486 -4.64083 0
M  V30 1804 H 170.983 -4.03602 -5.11809 0
M  V30 1805 N 174.416 0.165178 -1.56732 0
M  V30 1806 C 175.379 1.18822 -1.95995 0
M  V30 1807 C 176.379 1.3685 -0.84431 0
M  V30 1808 O 177.569 1.34152 -1.11126 0
M  V30 1809 C 174.701 2.5521 -2.26011 0
M  V30 1810 H 175.894 0.851825 -2.87548 0
M  V30 1811 H 173.447 0.407857 -1.50885 0
M  V30 1812 H 174.182 2.93852 -1.37191 0
M  V30 1813 H 173.967 2.43489 -3.07336 0
M  V30 1814 H 175.457 3.28927 -2.57288 0
M  V30 1815 N 175.894 1.51508 0.433938 0
M  V30 1816 C 176.857 1.72473 1.50949 0
M  V30 1817 C 177.857 0.594725 1.49398 0
M  V30 1818 O 179.047 0.862315 1.5136 0
M  V30 1819 C 176.179 1.78431 2.90474 0
M  V30 1820 H 177.372 2.68467 1.33662 0
M  V30 1821 H 174.925 1.41549 0.662836 0
M  V30 1822 H 175.66 0.842645 3.13161 0
M  V30 1823 H 175.445 2.60558 2.93005 0
M  V30 1824 H 176.935 1.96479 3.68491 0
M  V30 1825 N 177.372 -0.689602 1.41712 0
M  V30 1826 C 178.597 -1.48329 1.44959 0
M  V30 1827 C 179.022 -1.8801 0.0581283 0
M  V30 1828 O 178.38 -1.55026 -0.940035 0
M  V30 1829 C 178.428 -2.71835 2.36935 0
M  V30 1830 O 177.532 -3.69549 1.8305 0
M  V30 1831 H 176.873 -0.446199 0.491734 0
M  V30 1832 H 179.403 -0.847127 1.86239 0
M  V30 1833 H 179.413 -3.20076 2.53013 0
M  V30 1834 H 178.088 -2.42291 3.38035 0
M  V30 1835 H 176.665 -3.2851 1.76452 0
M  V30 1836 N 178.85 -1.27639 -0.924453 0
M  V30 1837 C 179.813 -1.10681 -2.00705 0
M  V30 1838 C 180.813 -0.0497823 -1.60723 0
M  V30 1839 O 182.003 -0.294654 -1.7169 0
M  V30 1840 C 179.135 -0.687164 -3.33902 0
M  V30 1841 H 180.328 -2.06817 -2.17179 0
M  V30 1842 H 177.881 -1.10473 -1.10569 0
M  V30 1843 H 178.616 0.275439 -3.23128 0
M  V30 1844 H 178.401 -1.45061 -3.6428 0
M  V30 1845 H 179.891 -0.590853 -4.13399 0
M  V30 1846 N 180.328 1.1314 -1.09713 0
M  V30 1847 C 181.258 2.20748 -0.761102 0
M  V30 1848 C 182.239 1.68061 0.262566 0
M  V30 1849 O 183.424 1.93765 0.129977 0
M  V30 1850 C 180.554 3.46812 -0.184054 0
M  V30 1851 C 179.508 4.12606 -1.13757 0
M  V30 1852 C 178.834 5.33031 -0.422083 0
M  V30 1853 C 180.134 4.59603 -2.48118 0
M  V30 1854 H 181.828 2.49113 -1.66082 0
M  V30 1855 H 179.374 1.19734 -0.799987 0
M  V30 1856 H 181.327 4.21353 0.0631215 0
M  V30 1857 H 180.051 3.17851 0.750868 0
M  V30 1858 H 178.71 3.40036 -1.37007 0
M  V30 1859 H 178.358 5.00335 0.517072 0
M  V30 1860 H 178.058 5.77999 -1.05788 0
M  V30 1861 H 179.582 6.10325 -0.183277 0
M  V30 1862 H 180.996 5.25552 -2.29059 0
M  V30 1863 H 179.393 5.15321 -3.07514 0
M  V30 1864 H 180.463 3.73971 -3.08665 0
M  V30 1865 N 181.806 0.884767 1.30421 0
M  V30 1866 C 183.054 0.502112 1.95763 0
M  V30 1867 C 183.375 -0.951815 1.70192 0
M  V30 1868 O 182.645 -1.6692 1.0254 0
M  V30 1869 H 181.225 0.182694 0.724315 0
M  V30 1870 H 183.887 1.1278 1.58955 0
M  V30 1871 H 182.983 0.672188 3.04775 0
M  V30 1872 N 183.284 -1.43765 0.645699 0
M  V30 1873 C 184.532 -2.01499 0.155731 0
M  V30 1874 C 184.853 -1.51151 -1.232 0
M  V30 1875 O 184.123 -0.721044 -1.82148 0
M  V30 1876 H 182.703 -0.745003 0.0545817 0
M  V30 1877 H 185.365 -1.76075 0.835677 0
M  V30 1878 H 184.461 -3.1181 0.134577 0
M  V30 1879 N 184.763 -0.387143 -1.52771 0
M  V30 1880 C 185.726 0.436939 -2.24997 0
M  V30 1881 C 186.726 0.991991 -1.26555 0
M  V30 1882 O 187.916 0.874335 -1.50669 0
M  V30 1883 C 185.048 1.61281 -3.00335 0
M  V30 1884 H 186.241 -0.195365 -2.99263 0
M  V30 1885 H 183.794 -0.139218 -1.55679 0
M  V30 1886 H 184.529 2.2826 -2.30364 0
M  V30 1887 H 184.314 1.22154 -3.72587 0
M  V30 1888 H 185.804 2.19629 -3.5518 0
M  V30 1889 N 186.241 1.57166 -0.116904 0
M  V30 1890 C 187.489 1.94737 0.540533 0
M  V30 1891 C 187.81 1.00096 1.67349 0
M  V30 1892 O 187.08 0.0568854 1.95817 0
M  V30 1893 H 185.66 0.718981 0.202669 0
M  V30 1894 H 188.322 1.94017 -0.185353 0
M  V30 1895 H 187.418 2.97719 0.936483 0
M  V30 1896 N 187.719 -0.156864 1.56817 0
M  V30 1897 C 188.965 -0.872416 1.83076 0
M  V30 1898 C 189.298 -1.81261 0.697001 0
M  V30 1899 O 188.573 -1.92171 -0.30008 0
M  V30 1900 C 188.856 -1.65551 3.19789 0
M  V30 1901 C 188.709 -0.737467 4.43713 0
M  V30 1902 C 190.028 -2.62012 3.53606 0
M  V30 1903 H 187.147 -0.315715 0.665953 0
M  V30 1904 H 189.789 -0.138004 1.89498 0
M  V30 1905 H 187.939 -2.28159 3.14445 0
M  V30 1906 H 189.611 -0.123143 4.61136 0
M  V30 1907 H 187.854 -0.0464067 4.33775 0
M  V30 1908 H 188.525 -1.32122 5.35955 0
M  V30 1909 H 191.001 -2.09525 3.59497 0
M  V30 1910 H 189.877 -3.13861 4.50314 0
M  V30 1911 H 190.138 -3.42902 2.79053 0
M  V30 1912 N 189.197 -1.51736 -0.425897 0
M  V30 1913 C 190.144 -1.73875 -1.51776 0
M  V30 1914 C 191.114 -0.580702 -1.55618 0
M  V30 1915 O 192.299 -0.81641 -1.72451 0
M  V30 1916 C 189.439 -1.88012 -2.89388 0
M  V30 1917 C 188.552 -3.15606 -2.94986 0
M  V30 1918 C 187.687 -3.20271 -4.23793 0
M  V30 1919 C 186.726 -4.42134 -4.23302 0
M  V30 1920 N 185.863 -4.44284 -5.43651 0
M  V30 1921 H 190.703 -2.67071 -1.32201 0
M  V30 1922 H 188.24 -1.32351 -0.642008 0
M  V30 1923 H 190.198 -1.9419 -3.69251 0
M  V30 1924 H 188.828 -0.98213 -3.07496 0
M  V30 1925 H 187.88 -3.18681 -2.07717 0
M  V30 1926 H 189.192 -4.05486 -2.90486 0
M  V30 1927 H 188.346 -3.25428 -5.12036 0
M  V30 1928 H 187.085 -2.28299 -4.30965 0
M  V30 1929 H 186.09 -4.3714 -3.3345 0
M  V30 1930 H 187.315 -5.35382 -4.17783 0
M  V30 1931 H 185.261 -3.55188 -5.51523 0
M  V30 1932 H 185.178 -5.27988 -5.41078 0
M  V30 1933 H 186.446 -4.53649 -6.33895 0
M  V30 1934 N 190.675 0.682077 -1.42076 0
M  V30 1935 C 191.921 1.44428 -1.42367 0
M  V30 1936 C 192.254 1.94164 -0.0373056 0
M  V30 1937 O 191.529 1.70429 0.937239 0
M  V30 1938 C 191.812 2.64654 -2.44194 0
M  V30 1939 C 191.665 2.20596 -3.91991 0
M  V30 1940 C 192.984 3.66865 -2.431 0
M  V30 1941 H 190.103 0.523834 -0.518428 0
M  V30 1942 H 192.745 0.77576 -1.73442 0
M  V30 1943 H 190.895 3.2169 -2.17826 0
M  V30 1944 H 192.567 1.68783 -4.29313 0
M  V30 1945 H 190.81 1.52242 -4.06208 0
M  V30 1946 H 191.481 3.06921 -4.58807 0
M  V30 1947 H 193.957 3.19531 -2.66532 0
M  V30 1948 H 192.833 4.48577 -3.16339 0
M  V30 1949 H 193.094 4.17493 -1.45437 0
M  V30 1950 N 192.153 1.28127 0.917671 0
M  V30 1951 C 193.083 1.14248 2.03641 0
M  V30 1952 C 194.064 0.0412748 1.7005 0
M  V30 1953 O 195.249 0.217566 1.92977 0
M  V30 1954 C 192.379 0.799431 3.37974 0
M  V30 1955 C 191.333 1.85497 3.85713 0
M  V30 1956 C 190.659 1.36565 5.16966 0
M  V30 1957 C 191.959 3.26085 4.08002 0
M  V30 1958 H 193.653 2.07835 2.15511 0
M  V30 1959 H 191.199 1.00064 1.03553 0
M  V30 1960 H 193.152 0.689114 4.15727 0
M  V30 1961 H 191.876 -0.172145 3.26146 0
M  V30 1962 H 190.535 1.95437 3.10161 0
M  V30 1963 H 190.183 0.383253 5.01538 0
M  V30 1964 H 189.883 2.07143 5.49878 0
M  V30 1965 H 191.407 1.26848 5.97279 0
M  V30 1966 H 192.821 3.19089 4.76293 0
M  V30 1967 H 191.218 3.94462 4.52238 0
M  V30 1968 H 192.288 3.70394 3.12948 0
M  V30 1969 N 193.631 -1.12557 1.10312 0
M  V30 1970 C 194.861 -1.87592 0.865617 0
M  V30 1971 C 195.269 -1.79851 -0.587389 0
M  V30 1972 O 194.612 -1.16949 -1.41664 0
M  V30 1973 C 194.674 -3.37665 1.23381 0
M  V30 1974 C 194.338 -3.69181 2.69359 0
M  V30 1975 C 195.335 -3.67652 3.67597 0
M  V30 1976 C 193.02 -3.98555 3.05711 0
M  V30 1977 C 195.014 -3.95053 5.00212 0
M  V30 1978 C 192.701 -4.25616 4.38514 0
M  V30 1979 C 193.699 -4.23851 5.35574 0
M  V30 1980 O 193.387 -4.50242 6.65986 0
M  V30 1981 H 193.119 -0.600442 0.310557 0
M  V30 1982 H 195.673 -1.4335 1.47105 0
M  V30 1983 H 193.903 -3.82454 0.571467 0
M  V30 1984 H 195.592 -3.94041 0.973994 0
M  V30 1985 H 196.358 -3.45024 3.40857 0
M  V30 1986 H 192.237 -3.99071 2.30789 0
M  V30 1987 H 195.781 -3.93591 5.75962 0
M  V30 1988 H 191.678 -4.47718 4.64994 0
M  V30 1989 H 192.446 -4.67867 6.71597 0
M  V30 1990 N 195.109 -0.891671 -1.2995 0
M  V30 1991 C 196.386 -0.433307 -1.9074 0
M  V30 1992 C 196.766 1.08646 -1.80995 0
M  V30 1993 O 196.114 1.92476 -1.23147 0
M  V30 1994 C 196.324 -0.938895 -3.36134 0
M  V30 1995 C 197.672 -0.977829 -4.13187 0
M  V30 1996 O 198.696 -0.886015 -3.45005 0
M  V30 1997 O 197.555 -1.11453 -5.35015 0
M  V30 1998 H 194.649 -0.133699 -0.816121 0
M  V30 1999 H 197.195 -0.981011 -1.38471 0
M  V30 2000 H 195.967 -1.98281 -3.37343 0
M  V30 2001 H 195.59 -0.37074 -3.95868 0
M  V30 2002 N 196.587 1.43421 -0.653314 0
M  V30 2003 C 197.833 2.02111 -0.166992 0
M  V30 2004 C 198.166 1.51423 1.21592 0
M  V30 2005 O 197.441 0.707389 1.8118 0
M  V30 2006 C 197.724 3.5966 -0.177948 0
M  V30 2007 C 197.577 4.20579 -1.59478 0
M  V30 2008 C 198.896 4.37413 0.4856 0
M  V30 2009 H 196.015 0.734374 -0.0621557 0
M  V30 2010 H 198.657 1.70717 -0.834016 0
M  V30 2011 H 196.807 3.86537 0.390032 0
M  V30 2012 H 198.479 4.04732 -2.21336 0
M  V30 2013 H 196.722 3.77226 -2.14204 0
M  V30 2014 H 197.393 5.29665 -1.5543 0
M  V30 2015 H 199.869 4.161 0.00234528 0
M  V30 2016 H 198.745 5.47075 0.447207 0
M  V30 2017 H 199.006 4.13672 1.55974 0
M  V30 2018 N 198.065 0.39524 1.52563 0
M  V30 2019 C 199.311 -0.185318 2.01952 0
M  V30 2020 C 199.644 -1.45964 1.28095 0
M  V30 2021 O 198.919 -1.90689 0.38315 0
M  V30 2022 C 199.202 -0.447193 3.57312 0
M  V30 2023 C 199.055 0.842828 4.41833 0
M  V30 2024 C 200.374 -1.23529 4.22408 0
M  V30 2025 H 197.493 -0.0658788 0.73405 0
M  V30 2026 H 200.135 0.525975 1.82575 0
M  V30 2027 H 198.285 -1.05312 3.73954 0
M  V30 2028 H 199.957 1.4795 4.36931 0
M  V30 2029 H 198.2 1.45686 4.08605 0
M  V30 2030 H 198.871 0.614165 5.48573 0
M  V30 2031 H 201.347 -0.722445 4.0978 0
M  V30 2032 H 200.223 -1.38727 5.3108 0
M  V30 2033 H 200.484 -2.25213 3.80436 0
M  V30 2034 N 199.544 -1.57102 0.125237 0
M  V30 2035 C 200.955 -1.82384 -0.399142 0
M  V30 2036 C 201.306 -1.04276 -1.66195 0
M  V30 2037 O 200.431 -0.281269 -2.14564 0
M  V30 2038 C 201.026 -3.30821 -0.730932 0
M  V30 2039 C 199.585 -3.56762 -1.19992 0
M  V30 2040 C 198.732 -2.7649 -0.211792 0
M  V30 2041 H 201.683 -1.54786 0.350277 0
M  V30 2042 H 201.704 -3.4579 -1.58775 0
M  V30 2043 H 201.216 -3.87643 0.188345 0
M  V30 2044 H 199.317 -3.05305 -2.13588 0
M  V30 2045 H 199.43 -4.65317 -1.14093 0
M  V30 2046 H 197.794 -2.4489 -0.700085 0
M  V30 2047 H 198.577 -3.36073 0.700691 0
M  V30 2048 N 201.022 0.148545 -1.56898 0
M  V30 2049 C 201.97 1.20265 -1.99096 0
M  V30 2050 C 202.964 1.44559 -0.883123 0
M  V30 2051 O 204.17 1.4487 -1.0683 0
M  V30 2052 H 200.545 0.404786 -0.63376 0
M  V30 2053 H 202.516 0.82004 -2.86911 0
M  V30 2054 C 201.265 2.52886 -2.3863 0
M  V30 2055 H 200.588 2.35021 -3.23427 0
M  V30 2056 H 202.028 3.25274 -2.7198 0
M  V30 2057 C 200.487 3.13315 -1.23837 0
M  V30 2058 O 201.017 3.98077 -0.538268 0
M  V30 2059 N 199.223 2.72742 -1.00301 0
M  V30 2060 H 198.77 2.03912 -1.5741 0
M  V30 2061 H 198.728 3.13507 -0.236838 0
M  V30 2062 N 202.5 1.5196 0.417844 0
M  V30 2063 C 203.45 1.7106 1.5074 0
M  V30 2064 C 204.434 0.564487 1.50673 0
M  V30 2065 O 205.626 0.821206 1.56797 0
M  V30 2066 C 202.755 1.85677 2.88754 0
M  V30 2067 C 201.841 3.06133 2.93502 0
M  V30 2068 N 202.232 4.28987 2.67962 0
M  V30 2069 C 200.53 3.05787 3.24669 0
M  V30 2070 C 201.231 5.10395 2.79055 0
M  V30 2071 N 200.207 4.45455 3.11561 0
M  V30 2072 H 204.009 2.63696 1.29775 0
M  V30 2073 H 201.523 1.49873 0.625436 0
M  V30 2074 H 203.52 1.97475 3.67164 0
M  V30 2075 H 202.18 0.942348 3.10725 0
M  V30 2076 H 203.191 4.57607 2.4252 0
M  V30 2077 H 199.868 2.2405 3.52289 0
M  V30 2078 H 201.258 6.18247 2.63097 0
M  V30 2079 N 203.978 -0.674533 1.42435 0
M  V30 2080 C 204.911 -1.79924 1.40366 0
M  V30 2081 C 205.889 -1.60378 0.267899 0
M  V30 2082 O 207.073 -1.82847 0.458159 0
M  V30 2083 C 204.2 -3.16927 1.19478 0
M  V30 2084 C 203.246 -3.55221 2.36051 0
M  V30 2085 S 204.079 -3.5762 3.98583 0
M  V30 2086 C 205.235 -4.97315 3.80038 0
M  V30 2087 H 205.468 -1.81405 2.35541 0
M  V30 2088 H 203.001 -0.845221 1.29211 0
M  V30 2089 H 204.959 -3.96007 1.08114 0
M  V30 2090 H 203.62 -3.13031 0.258883 0
M  V30 2091 H 202.813 -4.54804 2.17185 0
M  V30 2092 H 202.415 -2.83502 2.43932 0
M  V30 2093 H 204.707 -5.85401 3.41045 0
M  V30 2094 H 205.65 -5.21228 4.79298 0
M  V30 2095 H 206.058 -4.69845 3.12899 0
M  V30 2096 N 205.456 -1.28612 -0.910864 0
M  V30 2097 C 206.404 -1.1265 -2.03501 0
M  V30 2098 C 207.398 -0.0450054 -1.6934 0
M  V30 2099 O 208.604 -0.203988 -1.7884 0
M  V30 2100 H 204.979 -0.347639 -0.666822 0
M  V30 2101 H 206.95 -2.07849 -2.14106 0
M  V30 2102 C 205.699 -0.808143 -3.38178 0
M  V30 2103 H 205.022 -1.63231 -3.6496 0
M  V30 2104 H 206.462 -0.736426 -4.17556 0
M  V30 2105 C 204.921 0.488226 -3.33344 0
M  V30 2106 O 205.451 1.51766 -3.71927 0
M  V30 2107 N 203.657 0.490009 -2.86439 0
M  V30 2108 H 203.204 -0.348161 -2.55236 0
M  V30 2109 H 203.162 1.35741 -2.83587 0
M  V30 2110 N 206.934 1.1197 -1.10907 0
M  V30 2111 C 208.35 1.35591 -0.841852 0
M  V30 2112 C 208.55 1.94233 0.536246 0
M  V30 2113 O 207.606 2.1717 1.28816 0
M  V30 2114 C 208.919 2.29284 -1.94549 0
M  V30 2115 C 210.467 2.42862 -1.97451 0
M  V30 2116 C 210.942 3.39873 -3.07002 0
M  V30 2117 N 212.433 3.47433 -3.06341 0
M  V30 2118 C 213.168 4.22421 -3.87748 0
M  V30 2119 N 212.664 5.00432 -4.79103 0
M  V30 2120 N 214.457 4.17876 -3.75946 0
M  V30 2121 H 206.608 0.722664 -1.99728 0
M  V30 2122 H 208.871 0.380635 -0.868229 0
M  V30 2123 H 208.577 1.93378 -2.93765 0
M  V30 2124 H 208.451 3.29452 -1.83688 0
M  V30 2125 H 210.838 2.78046 -0.988645 0
M  V30 2126 H 210.919 1.42566 -2.12388 0
M  V30 2127 H 210.563 3.05417 -4.05811 0
M  V30 2128 H 210.493 4.40011 -2.89306 0
M  V30 2129 H 212.984 2.91784 -2.40147 0
M  V30 2130 H 213.297 5.55002 -5.37766 0
M  V30 2131 H 211.642 4.99612 -4.83128 0
M  V30 2132 H 214.833 3.56016 -3.03924 0
M  V30 2133 H 215.006 4.76061 -4.39624 0
M  V30 2134 N 208.412 0.89855 1.29475 0
M  V30 2135 C 209.66 0.522847 1.9522 0
M  V30 2136 C 209.981 -0.93371 1.71192 0
M  V30 2137 O 209.251 -1.65823 1.04305 0
M  V30 2138 H 207.831 0.190366 0.722336 0
M  V30 2139 H 210.493 1.14459 1.5775 0
M  V30 2140 H 209.589 0.704476 3.04045 0
M  V30 2141 N 209.89 -1.43072 0.660911 0
M  V30 2142 C 211.12 -2.05769 0.185153 0
M  V30 2143 C 211.528 -1.49668 -1.15742 0
M  V30 2144 O 210.871 -0.625649 -1.72717 0
M  V30 2145 C 210.933 -3.59489 0.0278237 0
M  V30 2146 C 210.597 -4.38212 1.2969 0
M  V30 2147 C 211.594 -4.69772 2.22734 0
M  V30 2148 C 209.279 -4.7809 1.54063 0
M  V30 2149 C 211.273 -5.40129 3.38437 0
M  V30 2150 C 208.96 -5.4819 2.70058 0
M  V30 2151 C 209.958 -5.79132 3.62071 0
M  V30 2152 O 209.646 -6.47798 4.76039 0
M  V30 2153 H 209.378 -0.669873 0.0908086 0
M  V30 2154 H 211.932 -1.84436 0.90402 0
M  V30 2155 H 210.162 -3.79426 -0.746489 0
M  V30 2156 H 211.851 -4.03862 -0.406275 0
M  V30 2157 H 212.617 -4.39476 2.05149 0
M  V30 2158 H 208.496 -4.53408 0.833215 0
M  V30 2159 H 212.04 -5.64198 4.10277 0
M  V30 2160 H 207.937 -5.77902 2.87574 0
M  V30 2161 H 208.705 -6.66283 4.75404 0
M  V30 2162 N 211.368 -0.403325 -1.52352 0
M  V30 2163 C 212.779 0.0675782 -1.86578 0
M  V30 2164 C 213.13 1.44941 -1.32236 0
M  V30 2165 O 212.255 2.06112 -0.659307 0
M  V30 2166 C 212.85 0.129404 -3.38553 0
M  V30 2167 C 211.409 0.544629 -3.72439 0
M  V30 2168 C 210.556 -0.284551 -2.75836 0
M  V30 2169 H 213.507 -0.620631 -1.46061 0
M  V30 2170 H 213.528 0.94581 -3.68558 0
M  V30 2171 H 213.04 -0.87645 -3.78074 0
M  V30 2172 H 211.141 1.55734 -3.38493 0
M  V30 2173 H 211.254 0.293046 -4.78203 0
M  V30 2174 H 209.618 0.252258 -2.53448 0
M  V30 2175 H 210.401 -1.28865 -3.18196 0
M  V30 2176 N 212.846 1.57033 -0.133567 0
M  V30 2177 C 214.123 1.87256 0.56522 0
M  V30 2178 C 214.503 1.03726 1.83859 0
M  V30 2179 O 213.851 0.120247 2.28183 0
M  V30 2180 C 214.061 3.3865 0.843636 0
M  V30 2181 C 215.409 4.07574 1.19032 0
M  V30 2182 O 216.433 3.43752 0.933429 0
M  V30 2183 O 215.292 5.20259 1.67312 0
M  V30 2184 H 212.386 0.775678 0.286796 0
M  V30 2185 H 214.932 1.68855 -0.169168 0
M  V30 2186 H 213.704 3.91257 -0.0581149 0
M  V30 2187 H 213.327 3.62532 1.63268 0
M  V30 2188 N 214.325 -0.140222 1.56975 0
M  V30 2189 C 215.272 -1.17292 1.98774 0
M  V30 2190 C 216.242 -1.4232 0.856408 0
M  V30 2191 O 217.427 -1.54541 1.119 0
M  V30 2192 C 214.567 -2.49973 2.37923 0
M  V30 2193 C 213.68 -2.32062 3.64378 0
M  V30 2194 C 212.815 -3.57825 3.926 0
M  V30 2195 C 211.854 -3.3498 5.12303 0
M  V30 2196 N 210.991 -4.52891 5.36502 0
M  V30 2197 H 215.831 -0.809472 2.86795 0
M  V30 2198 H 213.368 -0.388237 1.41884 0
M  V30 2199 H 215.326 -3.27346 2.58652 0
M  V30 2200 H 213.956 -2.84252 1.52972 0
M  V30 2201 H 213.008 -1.45711 3.51387 0
M  V30 2202 H 214.32 -2.11145 4.51906 0
M  V30 2203 H 213.474 -4.43624 4.13863 0
M  V30 2204 H 212.213 -3.81753 3.03506 0
M  V30 2205 H 211.218 -2.4757 4.90906 0
M  V30 2206 H 212.443 -3.12444 6.02956 0
M  V30 2207 H 210.389 -4.76979 4.50363 0
M  V30 2208 H 210.306 -4.35001 6.18312 0
M  V30 2209 H 211.574 -5.39884 5.62268 0
M  V30 2210 N 215.803 -1.52179 -0.40978 0
M  V30 2211 C 216.713 -1.78364 -1.52392 0
M  V30 2212 C 217.729 -0.669183 -1.60617 0
M  V30 2213 O 218.905 -0.954518 -1.77344 0
M  V30 2214 C 215.97 -1.92822 -2.88133 0
M  V30 2215 C 215.031 -3.16725 -2.898 0
M  V30 2216 C 214.264 -3.30483 -4.19067 0
M  V30 2217 O 214.487 -2.49522 -5.12928 0
M  V30 2218 O 213.421 -4.2363 -4.27576 0
M  V30 2219 H 217.247 -2.72931 -1.33201 0
M  V30 2220 H 214.832 -1.37016 -0.59557 0
M  V30 2221 H 216.714 -2.04157 -3.68643 0
M  V30 2222 H 215.389 -1.01444 -3.07393 0
M  V30 2223 H 214.296 -3.10848 -2.08146 0
M  V30 2224 H 215.629 -4.07881 -2.75489 0
M  V30 2225 N 217.281 0.66697 -1.42791 0
M  V30 2226 C 218.53 1.42278 -1.42968 0
M  V30 2227 C 218.843 1.9553 -0.0524489 0
M  V30 2228 O 220.049 2.71414 0.068363 0
M  V30 2229 C 218.505 2.57418 -2.51524 0
M  V30 2230 C 218.113 2.10832 -3.9529 0
M  V30 2231 C 219.857 3.34878 -2.60877 0
M  V30 2232 C 217.764 3.23101 -4.95338 0
M  V30 2233 H 216.694 0.534533 -0.531781 0
M  V30 2234 H 219.345 0.721302 -1.68729 0
M  V30 2235 H 217.727 3.29971 -2.18941 0
M  V30 2236 H 218.901 1.4538 -4.37266 0
M  V30 2237 H 217.216 1.46289 -3.89857 0
M  V30 2238 H 219.813 4.18505 -3.32802 0
M  V30 2239 H 220.156 3.81993 -1.6549 0
M  V30 2240 H 220.689 2.69398 -2.92693 0
M  V30 2241 H 217.428 2.80969 -5.9223 0
M  V30 2242 H 216.948 3.87309 -4.57987 0
M  V30 2243 H 218.627 3.88447 -5.17415 0
M  V30 2244 N 218.759 1.29093 0.90403 0
M  V30 2245 C 219.707 1.13727 2.02901 0
M  V30 2246 C 220.701 0.0539853 1.69314 0
M  V30 2247 O 221.907 0.213469 1.7873 0
M  V30 2248 H 218.282 0.35117 0.664969 0
M  V30 2249 H 220.253 2.08982 2.13001 0
M  V30 2250 C 219.002 0.826066 3.37745 0
M  V30 2251 H 218.325 1.65164 3.64089 0
M  V30 2252 H 219.765 0.758559 4.17159 0
M  V30 2253 C 218.224 -0.470541 3.33598 0
M  V30 2254 O 218.754 -1.49792 3.72727 0
M  V30 2255 N 216.96 -0.474812 2.86695 0
M  V30 2256 H 216.507 0.361692 2.55048 0
M  V30 2257 H 216.465 -1.34236 2.84303 0
M  V30 2258 N 220.237 -1.11381 1.11499 0
M  V30 2259 C 221.167 -2.19509 0.796125 0
M  V30 2260 C 222.148 -1.68458 -0.235796 0
M  V30 2261 O 223.333 -1.93947 -0.0991344 0
M  V30 2262 C 220.463 -3.46475 0.239205 0
M  V30 2263 C 219.417 -4.10744 1.20307 0
M  V30 2264 C 218.743 -5.32293 0.50683 0
M  V30 2265 C 220.043 -4.55597 2.55399 0
M  V30 2266 H 221.737 -2.46439 1.70024 0
M  V30 2267 H 219.283 -1.18446 0.818935 0
M  V30 2268 H 221.236 -4.214 0.00392006 0
M  V30 2269 H 219.96 -3.19006 -0.700206 0
M  V30 2270 H 218.619 -3.37813 1.42399 0
M  V30 2271 H 218.267 -5.01095 -0.437408 0
M  V30 2272 H 217.967 -5.76243 1.1497 0
M  V30 2273 H 219.491 -6.09956 0.280351 0
M  V30 2274 H 220.905 -5.21841 2.37391 0
M  V30 2275 H 219.302 -5.10363 3.15673 0
M  V30 2276 H 220.372 -3.69013 3.14575 0
M  V30 2277 N 221.715 -0.905404 -1.28997 0
M  V30 2278 C 223.126 -0.581953 -1.77398 0
M  V30 2279 C 223.477 0.902552 -1.74208 0
M  V30 2280 O 222.602 1.70584 -1.33154 0
M  V30 2281 C 223.197 -1.04961 -3.22131 0
M  V30 2282 C 221.756 -0.777229 -3.68288 0
M  V30 2283 C 220.903 -1.22109 -2.48967 0
M  V30 2284 H 223.854 -1.08754 -1.15578 0
M  V30 2285 H 223.875 -0.387387 -3.78523 0
M  V30 2286 H 223.387 -2.13008 -3.24421 0
M  V30 2287 H 221.488 0.290383 -3.71467 0
M  V30 2288 H 221.601 -1.37911 -4.58822 0
M  V30 2289 H 219.965 -0.639971 -2.46529 0
M  V30 2290 H 220.748 -2.30972 -2.53982 0
M  V30 2291 N 223.193 1.4272 -0.668489 0
M  V30 2292 C 224.156 2.292 0.00448567 0
M  V30 2293 C 225.156 1.43001 0.735339 0
M  V30 2294 O 226.346 1.64461 0.57429 0
M  V30 2295 C 223.478 3.25375 1.01705 0
M  V30 2296 H 224.671 2.90199 -0.756608 0
M  V30 2297 H 222.224 1.50254 -0.430506 0
M  V30 2298 H 222.959 2.69301 1.80686 0
M  V30 2299 H 222.744 3.88944 0.496463 0
M  V30 2300 H 224.234 3.90245 1.48655 0
M  V30 2301 N 224.671 0.411399 1.52136 0
M  V30 2302 C 225.919 -0.163322 2.01439 0
M  V30 2303 C 226.24 -1.45453 1.29879 0
M  V30 2304 O 225.51 -1.91225 0.4254 0
M  V30 2305 H 224.09 -0.0633447 0.744309 0
M  V30 2306 H 226.752 0.548161 1.87033 0
M  V30 2307 H 225.848 -0.357817 3.10042 0
M  V30 2308 N 226.149 -1.5696 0.141893 0
M  V30 2309 C 227.081 -2.13619 -0.830627 0
M  V30 2310 C 228.094 -1.08439 -1.21428 0
M  V30 2311 O 229.283 -1.35734 -1.15925 0
M  V30 2312 C 226.383 -2.63978 -2.12529 0
M  V30 2313 C 225.556 -3.93504 -1.9098 0
M  V30 2314 C 224.615 -4.29225 -3.04388 0
M  V30 2315 O 223.641 -4.97641 -2.76302 0
M  V30 2316 N 224.843 -3.88393 -4.31429 0
M  V30 2317 H 227.608 -2.97691 -0.34641 0
M  V30 2318 H 225.169 -1.61846 -0.0418375 0
M  V30 2319 H 227.161 -2.84891 -2.87436 0
M  V30 2320 H 225.731 -1.84659 -2.52229 0
M  V30 2321 H 224.951 -3.81269 -1.00139 0
M  V30 2322 H 226.239 -4.78154 -1.73914 0
M  V30 2323 H 225.637 -3.33257 -4.57117 0
M  V30 2324 H 224.194 -4.14368 -5.03133 0
M  V30 2325 N 227.627 0.131896 -1.57047 0
M  V30 2326 C 228.875 0.840269 -1.83804 0
M  V30 2327 C 229.196 1.81017 -0.72512 0
M  V30 2328 O 228.466 1.94272 0.251995 0
M  V30 2329 H 227.046 0.313294 -0.678127 0
M  V30 2330 H 229.708 0.122294 -1.94516 0
M  V30 2331 H 228.804 1.39335 -2.79271 0
M  V30 2332 N 229.106 1.52395 0.401703 0
M  V30 2333 C 230.353 1.66817 1.14796 0
M  V30 2334 C 230.681 0.401772 1.90305 0
M  V30 2335 O 229.936 -0.615487 1.85769 0
M  V30 2336 C 230.235 2.84578 2.16217 0
M  V30 2337 C 229.901 4.22513 1.5746 0
M  V30 2338 C 228.563 4.60029 1.41161 0
M  V30 2339 C 230.915 5.0844 1.14622 0
M  V30 2340 C 228.243 5.81144 0.80552 0
M  V30 2341 C 230.595 6.30167 0.55428 0
M  V30 2342 C 229.259 6.66426 0.378482 0
M  V30 2343 H 228.529 0.610428 0.420069 0
M  V30 2344 H 231.176 1.86512 0.434212 0
M  V30 2345 H 229.481 2.59248 2.93764 0
M  V30 2346 H 231.178 2.92933 2.73845 0
M  V30 2347 H 227.768 3.92953 1.71132 0
M  V30 2348 H 231.952 4.80034 1.26021 0
M  V30 2349 H 227.208 6.07855 0.657399 0
M  V30 2350 H 231.382 6.96071 0.213983 0
M  V30 2351 H 229.009 7.60143 -0.0932606 0
M  V30 2352 N 230.584 -0.659388 1.43143 0
M  V30 2353 C 231.83 -1.41984 1.45644 0
M  V30 2354 C 232.185 -1.92245 0.0771718 0
M  V30 2355 O 231.478 -1.68976 -0.903205 0
M  V30 2356 C 231.672 -2.62206 2.42864 0
M  V30 2357 C 231.501 -2.23711 3.90107 0
M  V30 2358 C 230.271 -2.12332 4.58523 0
M  V30 2359 C 232.469 -1.84384 4.80112 0
M  V30 2360 N 230.451 -1.67102 5.9072 0
M  V30 2361 C 231.822 -1.5019 6.01534 0
M  V30 2362 C 233.877 -1.71512 4.67427 0
M  V30 2363 C 232.58 -1.04414 7.11681 0
M  V30 2364 C 234.606 -1.27142 5.77572 0
M  V30 2365 C 233.968 -0.938808 6.98116 0
M  V30 2366 H 230.067 -0.515448 0.588079 0
M  V30 2367 H 232.651 -0.759409 1.79279 0
M  V30 2368 H 230.822 -3.25917 2.11265 0
M  V30 2369 H 232.554 -3.28877 2.35843 0
M  V30 2370 H 229.309 -2.31893 4.12944 0
M  V30 2371 H 229.733 -1.46866 6.60878 0
M  V30 2372 H 234.375 -1.95868 3.74694 0
M  V30 2373 H 232.093 -0.788061 8.04248 0
M  V30 2374 H 235.679 -1.17681 5.69774 0
M  V30 2375 H 234.559 -0.6007 7.81896 0
M  V30 2376 N 232.062 -1.29571 -0.897171 0
M  V30 2377 C 233.478 -1.07637 -1.17841 0
M  V30 2378 C 233.678 0.170713 -2.00776 0
M  V30 2379 O 232.734 0.867768 -2.3712 0
M  V30 2380 C 234.047 -2.3332 -1.8969 0
M  V30 2381 C 235.595 -2.38664 -2.02505 0
M  V30 2382 C 236.07 -3.64157 -2.77765 0
M  V30 2383 N 237.561 -3.64894 -2.85318 0
M  V30 2384 C 238.296 -4.58679 -3.44094 0
M  V30 2385 N 237.792 -5.62799 -4.04017 0
M  V30 2386 N 239.585 -4.46245 -3.41793 0
M  V30 2387 H 231.736 -2.09598 -0.343883 0
M  V30 2388 H 233.999 -0.923333 -0.214848 0
M  V30 2389 H 233.705 -3.24262 -1.36187 0
M  V30 2390 H 233.579 -2.41025 -2.9015 0
M  V30 2391 H 235.966 -1.48208 -2.55183 0
M  V30 2392 H 236.047 -2.34943 -1.01171 0
M  V30 2393 H 235.691 -4.54965 -2.25763 0
M  V30 2394 H 235.621 -3.65137 -3.7945 0
M  V30 2395 H 238.112 -2.89613 -2.42761 0
M  V30 2396 H 238.425 -6.3048 -4.46895 0
M  V30 2397 H 236.77 -5.66605 -4.02472 0
M  V30 2398 H 239.961 -3.64094 -2.94199 0
M  V30 2399 H 240.134 -5.19518 -3.87304 0
M  V30 2400 N 233.54 1.10788 -1.12088 0
M  V30 2401 C 234.488 2.19111 -0.780587 0
M  V30 2402 C 235.482 1.67818 0.230961 0
M  V30 2403 O 236.688 1.79777 0.0895427 0
M  V30 2404 H 233.063 0.714477 -0.234578 0
M  V30 2405 H 235.034 2.45055 -1.70266 0
M  V30 2406 C 233.783 3.46818 -0.24747 0
M  V30 2407 H 233.106 3.86646 -1.01712 0
M  V30 2408 H 234.546 4.23973 -0.0476291 0
M  V30 2409 C 233.005 3.20968 1.02378 0
M  V30 2410 O 233.535 3.42298 2.10226 0
M  V30 2411 N 231.741 2.74658 0.949271 0
M  V30 2412 H 231.288 2.57501 0.0715173 0
M  V30 2413 H 231.246 2.57739 1.80049 0
M  V30 2414 N 235.018 0.912232 1.28515 0
M  V30 2415 C 236.295 0.463597 1.90027 0
M  V30 2416 C 236.675 -1.05753 1.82701 0
M  V30 2417 O 236.023 -1.90492 1.26194 0
M  V30 2418 C 236.233 0.992253 3.34597 0
M  V30 2419 C 237.581 1.04344 4.11579 0
M  V30 2420 O 238.605 0.94079 3.43551 0
M  V30 2421 O 237.464 1.1995 5.33174 0
M  V30 2422 H 234.558 0.146666 0.813891 0
M  V30 2423 H 237.104 1.00292 1.36893 0
M  V30 2424 H 235.876 2.03623 3.34146 0
M  V30 2425 H 235.499 0.433672 3.95228 0
M  V30 2426 N 236.496 -1.42363 0.676048 0
M  V30 2427 C 237.736 -2.03392 0.20273 0
M  V30 2428 C 238.1 -1.52306 -1.16906 0
M  V30 2429 O 239.301 -2.05129 -1.73711 0
M  V30 2430 C 237.572 -3.56614 0.236947 0
M  V30 2431 S 239.131 -4.38489 -0.165186 0
M  V30 2432 H 235.949 -0.70611 0.0832418 0
M  V30 2433 H 238.551 -1.74093 0.88948 0
M  V30 2434 H 237.255 -3.91293 1.23767 0
M  V30 2435 H 236.786 -3.90587 -0.469596 0
M  V30 2436 H 238.801 -4.76093 -1.39822 0
M  V30 2437 N 237.974 -0.419461 -1.51915 0
M  V30 2438 C 238.937 0.389116 -2.25873 0
M  V30 2439 C 239.937 0.964924 -1.28631 0
M  V30 2440 O 241.127 0.842179 -1.52489 0
M  V30 2441 C 238.259 1.54874 -3.03689 0
M  V30 2442 H 239.452 -0.258799 -2.98781 0
M  V30 2443 H 237.005 -0.172209 -1.55348 0
M  V30 2444 H 237.74 2.23323 -2.35154 0
M  V30 2445 H 237.525 1.14223 -3.75094 0
M  V30 2446 H 239.015 2.12046 -3.59759 0
M  V30 2447 N 239.452 1.56882 -0.150215 0
M  V30 2448 C 240.729 1.87844 0.545327 0
M  V30 2449 C 241.109 1.0567 1.82749 0
M  V30 2450 O 240.457 0.144442 2.28043 0
M  V30 2451 C 240.667 3.39526 0.80767 0
M  V30 2452 C 242.015 4.08814 1.14703 0
M  V30 2453 O 243.039 3.44723 0.896917 0
M  V30 2454 O 241.898 5.22004 1.61784 0
M  V30 2455 H 238.992 0.778677 0.278553 0
M  V30 2456 H 241.538 1.68666 -0.187068 0
M  V30 2457 H 240.31 3.91173 -0.0996096 0
M  V30 2458 H 239.933 3.64243 1.59413 0
M  V30 2459 N 240.93 -0.123565 1.57115 0
M  V30 2460 C 242.341 -0.681198 1.73829 0
M  V30 2461 C 242.692 -1.80535 0.768214 0
M  V30 2462 O 241.817 -2.16317 -0.0599103 0
M  V30 2463 C 242.412 -1.24246 3.15196 0
M  V30 2464 C 240.971 -1.74643 3.33432 0
M  V30 2465 C 240.118 -0.644284 2.69711 0
M  V30 2466 H 243.069 0.102315 1.5837 0
M  V30 2467 H 243.09 -2.11216 3.16493 0
M  V30 2468 H 242.602 -0.424062 3.85776 0
M  V30 2469 H 240.703 -2.58974 2.67886 0
M  V30 2470 H 240.816 -1.85902 4.41562 0
M  V30 2471 H 239.18 -1.07676 2.3082 0
M  V30 2472 H 239.963 0.163058 3.42913 0
M  V30 2473 N 242.408 -1.52605 -0.393616 0
M  V30 2474 C 243.656 -1.67093 -1.13685 0
M  V30 2475 C 243.977 -0.411011 -1.90619 0
M  V30 2476 O 243.247 0.574491 -1.87287 0
M  V30 2477 H 241.827 -0.615923 -0.422668 0
M  V30 2478 H 244.489 -1.89704 -0.447039 0
M  V30 2479 H 243.585 -2.51922 -1.84232 0
M  V30 2480 N 243.887 0.651787 -1.4349 0
M  V30 2481 C 244.835 1.78586 -1.49029 0
M  V30 2482 C 245.829 1.65448 -0.363767 0
M  V30 2483 O 247.035 1.71777 -0.537821 0
M  V30 2484 H 243.41 0.589236 -0.467231 0
M  V30 2485 H 245.381 1.71035 -2.44519 0
M  V30 2486 C 244.13 3.16851 -1.43181 0
M  V30 2487 H 243.453 3.27598 -2.29171 0
M  V30 2488 H 244.893 3.96156 -1.51118 0
M  V30 2489 C 243.352 3.36568 -0.149616 0
M  V30 2490 O 243.882 3.93885 0.788509 0
M  V30 2491 N 242.088 2.90539 -0.0593484 0
M  V30 2492 H 241.635 2.4408 -0.823575 0
M  V30 2493 H 241.593 3.04108 0.797853 0
M  V30 2494 N 245.365 1.30045 0.890287 0
M  V30 2495 C 246.595 1.21296 1.67245 0
M  V30 2496 C 247.003 -0.227471 1.87828 0
M  V30 2497 O 246.346 -1.16296 1.422 0
M  V30 2498 C 246.408 1.86519 3.07329 0
M  V30 2499 C 246.072 3.35837 3.09939 0
M  V30 2500 C 247.069 4.31915 2.89389 0
M  V30 2501 C 244.754 3.77196 3.31706 0
M  V30 2502 C 246.748 5.67325 2.90552 0
M  V30 2503 C 244.435 5.12725 3.32499 0
M  V30 2504 C 245.433 6.076 3.11947 0
M  V30 2505 O 245.121 7.40655 3.12547 0
M  V30 2506 H 244.853 0.4211 0.528821 0
M  V30 2507 H 247.407 1.72111 1.12103 0
M  V30 2508 H 245.637 1.30228 3.64112 0
M  V30 2509 H 247.326 1.71963 3.67673 0
M  V30 2510 H 248.092 4.01294 2.72375 0
M  V30 2511 H 243.971 3.03796 3.4674 0
M  V30 2512 H 247.515 6.41354 2.74429 0
M  V30 2513 H 243.412 5.42988 3.49047 0
M  V30 2514 H 244.18 7.49577 3.28749 0
M  V30 2515 N 246.843 -1.10192 1.12674 0
M  V30 2516 C 248.254 -1.63707 0.897604 0
M  V30 2517 C 248.605 -1.87812 -0.567546 0
M  V30 2518 O 247.73 -1.62196 -1.43253 0
M  V30 2519 C 248.325 -2.974 1.62292 0
M  V30 2520 C 246.884 -3.47772 1.43986 0
M  V30 2521 C 246.031 -2.22332 1.65722 0
M  V30 2522 H 248.982 -0.936587 1.28116 0
M  V30 2523 H 249.003 -3.64986 1.07541 0
M  V30 2524 H 248.515 -2.79824 2.68924 0
M  V30 2525 H 246.616 -3.70487 0.396206 0
M  V30 2526 H 246.729 -4.25723 2.19765 0
M  V30 2527 H 245.093 -2.30599 1.08149 0
M  V30 2528 H 245.876 -2.07285 2.73657 0
M  V30 2529 N 248.321 -0.919034 -1.28029 0
M  V30 2530 C 249.269 -0.401753 -2.29104 0
M  V30 2531 C 250.263 0.509354 -1.61561 0
M  V30 2532 O 251.469 0.390014 -1.75724 0
M  V30 2533 H 247.844 -0.111331 -0.743713 0
M  V30 2534 H 249.815 -1.2672 -2.70156 0
M  V30 2535 C 248.564 0.338148 -3.46052 0
M  V30 2536 H 247.887 -0.353732 -3.98232 0
M  V30 2537 H 249.327 0.664653 -4.18758 0
M  V30 2538 C 247.786 1.54798 -2.99231 0
M  V30 2539 O 248.316 2.64696 -3.02157 0
M  V30 2540 N 246.522 1.3968 -2.54829 0
M  V30 2541 H 246.069 0.502698 -2.52647 0
M  V30 2542 H 246.027 2.20755 -2.23863 0
M  V30 2543 N 249.799 1.42003 -0.683588 0
M  V30 2544 C 251.076 1.95112 -0.138075 0
M  V30 2545 C 251.456 1.62359 1.34918 0
M  V30 2546 O 250.804 0.924311 2.08971 0
M  V30 2547 C 251.014 3.46505 -0.416581 0
M  V30 2548 C 252.362 4.23254 -0.337834 0
M  V30 2549 O 253.386 3.54468 -0.35082 0
M  V30 2550 O 252.245 5.45743 -0.287596 0
M  V30 2551 H 249.339 0.826961 -0.00797996 0
M  V30 2552 H 251.885 1.51784 -0.758924 0
M  V30 2553 H 250.657 3.63582 -1.4465 0
M  V30 2554 H 250.28 3.969 0.235839 0
M  V30 2555 N 251.277 0.427512 1.51691 0
M  V30 2556 C 252.517 -0.141524 2.03909 0
M  V30 2557 C 252.881 -1.40811 1.30523 0
M  V30 2558 O 254.082 -2.05676 1.73063 0
M  V30 2559 C 252.353 -0.364962 3.55532 0
M  V30 2560 S 253.912 -0.898812 4.29496 0
M  V30 2561 H 250.73 -0.0364542 0.710065 0
M  V30 2562 H 253.332 0.584659 1.86553 0
M  V30 2563 H 252.036 0.56336 4.06515 0
M  V30 2564 H 251.567 -1.1185 3.77164 0
M  V30 2565 H 253.582 -2.17747 4.45871 0
M  V30 2566 N 252.755 -1.56801 0.158532 0
M  V30 2567 C 254.032 -1.88131 -0.535357 0
M  V30 2568 C 254.412 -1.06638 -1.82186 0
M  V30 2569 O 253.76 -0.156533 -2.27963 0
M  V30 2570 C 253.97 -3.39949 -0.789653 0
M  V30 2571 C 255.318 -4.09416 -1.12533 0
M  V30 2572 O 256.342 -3.45194 -0.878622 0
M  V30 2573 O 255.201 -5.22855 -1.59014 0
M  V30 2574 H 252.295 -0.780143 -0.27442 0
M  V30 2575 H 254.841 -1.68564 0.19601 0
M  V30 2576 H 253.613 -3.91115 0.120353 0
M  V30 2577 H 253.236 -3.65084 -1.57479 0
M  V30 2578 N 254.233 0.115231 -1.57178 0
M  V30 2579 C 255.51 0.852873 -1.76027 0
M  V30 2580 C 255.89 1.97892 -0.73498 0
M  V30 2581 O 255.238 2.27232 0.24036 0
M  V30 2582 C 255.448 1.36608 -3.21153 0
M  V30 2583 C 256.796 1.81692 -3.83762 0
M  V30 2584 O 257.82 1.46278 -3.24779 0
M  V30 2585 O 256.679 2.47104 -4.87444 0
M  V30 2586 H 253.773 0.405296 -0.720877 0
M  V30 2587 H 256.319 0.0986785 -1.69413 0
M  V30 2588 H 255.091 0.558357 -3.87296 0
M  V30 2589 H 254.714 2.18287 -3.3232 0
M  V30 2590 N 255.711 1.52812 0.385517 0
M  V30 2591 C 256.959 1.67694 1.12797 0
M  V30 2592 C 257.28 0.421115 1.90399 0
M  V30 2593 O 256.55 -0.564551 1.87589 0
M  V30 2594 H 255.13 0.618155 0.419396 0
M  V30 2595 H 257.792 1.89938 0.436972 0
M  V30 2596 H 256.888 2.52896 1.82894 0
M  V30 2597 N 257.189 -0.644168 1.43834 0
M  V30 2598 C 258.466 -1.40188 1.36406 0
M  V30 2599 C 258.846 -2.11094 0.0163124 0
M  V30 2600 O 258.194 -2.05426 -1.00062 0
M  V30 2601 C 258.404 -2.3791 2.55343 0
M  V30 2602 C 259.752 -3.01637 2.98832 0
M  V30 2603 O 260.776 -2.48237 2.55455 0
M  V30 2604 O 259.635 -3.98477 3.74003 0
M  V30 2605 H 256.729 -0.626773 0.539523 0
M  V30 2606 H 259.275 -0.670317 1.559 0
M  V30 2607 H 258.047 -1.84525 3.4506 0
M  V30 2608 H 257.67 -3.18503 2.37995 0
M  V30 2609 N 258.668 -1.30515 -0.883378 0
M  V30 2610 C 260.084 -1.08881 -1.16692 0
M  V30 2611 C 260.284 0.149409 -2.00945 0
M  V30 2612 O 259.34 0.84257 -2.38027 0
M  V30 2613 C 260.653 -2.35319 -1.87204 0
M  V30 2614 C 262.201 -2.40799 -1.99962 0
M  V30 2615 C 262.676 -3.67083 -2.73887 0
M  V30 2616 N 264.167 -3.679 -2.81432 0
M  V30 2617 C 264.902 -4.62303 -3.3921 0
M  V30 2618 N 264.398 -5.67052 -3.98025 0
M  V30 2619 N 266.191 -4.49845 -3.3704 0
M  V30 2620 H 258.342 -2.09951 -0.321633 0
M  V30 2621 H 260.605 -0.92556 -0.205043 0
M  V30 2622 H 260.311 -3.25689 -1.3274 0
M  V30 2623 H 260.185 -2.44089 -2.87577 0
M  V30 2624 H 262.572 -1.50907 -2.53597 0
M  V30 2625 H 262.653 -2.36003 -0.98673 0
M  V30 2626 H 262.297 -4.57334 -2.20925 0
M  V30 2627 H 262.227 -3.69141 -3.75556 0
M  V30 2628 H 264.718 -2.92171 -2.39676 0
M  V30 2629 H 265.031 -6.35184 -4.40183 0
M  V30 2630 H 263.376 -5.70842 -3.96439 0
M  V30 2631 H 266.567 -3.67194 -2.90321 0
M  V30 2632 H 266.74 -5.23597 -3.81772 0
M  V30 2633 N 260.146 1.09593 -1.13257 0
M  V30 2634 C 261.393 1.81734 -0.893257 0
M  V30 2635 C 261.721 1.8563 0.580656 0
M  V30 2636 O 260.976 1.31906 1.44566 0
M  V30 2637 C 261.275 3.27802 -1.42411 0
M  V30 2638 C 260.941 3.44041 -2.91456 0
M  V30 2639 C 259.603 3.48181 -3.3215 0
M  V30 2640 C 261.955 3.48719 -3.87356 0
M  V30 2641 C 259.283 3.54575 -4.67433 0
M  V30 2642 C 261.635 3.56648 -5.2248 0
M  V30 2643 C 260.299 3.59055 -5.62704 0
M  V30 2644 H 259.569 0.665011 -0.326866 0
M  V30 2645 H 262.216 1.2912 -1.41422 0
M  V30 2646 H 260.521 3.83042 -0.823795 0
M  V30 2647 H 262.218 3.82149 -1.21503 0
M  V30 2648 H 258.808 3.41502 -2.58987 0
M  V30 2649 H 262.992 3.44763 -3.57004 0
M  V30 2650 H 258.248 3.54725 -4.97976 0
M  V30 2651 H 262.422 3.59212 -5.96607 0
M  V30 2652 H 260.049 3.63763 -6.67518 0
M  V30 2653 N 261.624 0.925811 1.2754 0
M  V30 2654 C 262.873 0.561084 1.93739 0
M  V30 2655 C 263.186 -0.901685 1.73577 0
M  V30 2656 O 264.392 -1.37511 2.34101 0
M  V30 2657 C 262.848 0.952668 3.47062 0
M  V30 2658 C 262.456 2.43599 3.75983 0
M  V30 2659 C 264.2 0.659103 4.19352 0
M  V30 2660 C 262.107 2.76707 5.22673 0
M  V30 2661 H 261.037 0.206122 0.725279 0
M  V30 2662 H 263.688 1.12637 1.44863 0
M  V30 2663 H 262.07 0.316053 3.94737 0
M  V30 2664 H 263.244 3.12035 3.39073 0
M  V30 2665 H 261.559 2.70125 3.16893 0
M  V30 2666 H 264.156 0.882985 5.27359 0
M  V30 2667 H 264.499 -0.403607 4.14339 0
M  V30 2668 H 265.032 1.25473 3.77494 0
M  V30 2669 H 261.771 3.8188 5.32774 0
M  V30 2670 H 261.291 2.12919 5.60737 0
M  V30 2671 H 262.97 2.6435 5.90532 0
M  V30 2672 N 263.102 -1.41638 0.69111 0
M  V30 2673 C 264.35 -2.00902 0.219758 0
M  V30 2674 C 264.671 -1.54994 -1.18329 0
M  V30 2675 O 263.941 -0.778628 -1.79762 0
M  V30 2676 H 262.521 -0.74289 0.0782558 0
M  V30 2677 H 265.183 -1.73327 0.891271 0
M  V30 2678 H 264.279 -3.11224 0.233708 0
M  V30 2679 N 264.58 -0.43555 -1.51462 0
M  V30 2680 C 265.828 0.131254 -2.01673 0
M  V30 2681 C 266.149 1.43368 -1.32177 0
M  V30 2682 O 265.419 1.90524 -0.455769 0
M  V30 2683 H 263.999 0.0514954 -0.745223 0
M  V30 2684 H 266.661 -0.577847 -1.86137 0
M  V30 2685 H 265.757 0.308446 -3.10572 0
M  V30 2686 N 266.058 1.56714 -0.166846 0
M  V30 2687 C 267.335 1.88412 0.525373 0
M  V30 2688 C 267.715 1.07602 1.81618 0
M  V30 2689 O 267.063 0.168621 2.27877 0
M  V30 2690 C 267.273 3.40363 0.771613 0
M  V30 2691 C 268.621 4.10007 1.1036 0
M  V30 2692 O 269.645 3.45655 0.860304 0
M  V30 2693 O 268.504 5.2369 1.56239 0
M  V30 2694 H 265.598 0.781587 0.270278 0
M  V30 2695 H 268.144 1.68458 -0.204946 0
M  V30 2696 H 266.916 3.91046 -0.141093 0
M  V30 2697 H 266.539 3.65914 1.55541 0
M  V30 2698 N 267.536 -0.106894 1.57237 0
M  V30 2699 C 268.499 -1.11466 2.0027 0
M  V30 2700 C 269.499 -1.33623 0.894519 0
M  V30 2701 O 270.689 -1.29935 1.16028 0
M  V30 2702 C 267.821 -2.46646 2.35327 0
M  V30 2703 H 269.014 -0.744516 2.90512 0
M  V30 2704 H 266.567 -0.351576 1.52295 0
M  V30 2705 H 267.302 -2.88558 1.48003 0
M  V30 2706 H 267.087 -2.31915 3.16161 0
M  V30 2707 H 268.577 -3.19151 2.69318 0
M  V30 2708 N 269.014 -1.53014 -0.377408 0
M  V30 2709 C 270.291 -1.59215 -1.13622 0
M  V30 2710 C 270.671 -0.392407 -2.07421 0
M  V30 2711 O 270.019 0.618342 -2.19975 0
M  V30 2712 C 270.229 -2.93669 -1.88573 0
M  V30 2713 C 271.577 -3.47822 -2.43526 0
M  V30 2714 O 272.601 -2.9562 -1.98715 0
M  V30 2715 O 271.46 -4.39055 -3.25412 0
M  V30 2716 H 268.554 -0.642625 -0.52054 0
M  V30 2717 H 271.1 -1.65353 -0.381625 0
M  V30 2718 H 269.872 -3.7243 -1.20048 0
M  V30 2719 H 269.495 -2.90968 -2.70968 0
M  V30 2720 N 270.492 0.636531 -1.44174 0
M  V30 2721 C 271.422 1.76003 -1.53444 0
M  V30 2722 C 272.403 1.65619 -0.387841 0
M  V30 2723 O 273.588 1.84461 -0.607257 0
M  V30 2724 C 270.718 3.14511 -1.4731 0
M  V30 2725 C 269.672 3.39677 -2.60391 0
M  V30 2726 C 268.998 4.78159 -2.39308 0
M  V30 2727 C 270.298 3.32772 -4.02567 0
M  V30 2728 H 271.992 1.68501 -2.47483 0
M  V30 2729 H 269.538 0.809237 -1.19111 0
M  V30 2730 H 271.491 3.92878 -1.52397 0
M  V30 2731 H 270.215 3.22783 -0.49785 0
M  V30 2732 H 268.874 2.63688 -2.54684 0
M  V30 2733 H 268.522 4.83128 -1.39988 0
M  V30 2734 H 268.222 4.95956 -3.15122 0
M  V30 2735 H 269.746 5.58762 -2.46205 0
M  V30 2736 H 271.16 4.01051 -4.09672 0
M  V30 2737 H 269.557 3.62104 -4.7854 0
M  V30 2738 H 270.627 2.30669 -4.2652 0
M  V30 2739 N 271.97 1.30982 0.876444 0
M  V30 2740 C 272.918 1.18006 2.00443 0
M  V30 2741 C 273.912 0.0898871 1.69161 0
M  V30 2742 O 275.118 0.251333 1.78237 0
M  V30 2743 H 271.493 0.365196 0.65737 0
M  V30 2744 H 273.464 2.13453 2.0852 0
M  V30 2745 C 272.213 0.897521 3.35916 0
M  V30 2746 H 271.536 1.7285 3.60504 0
M  V30 2747 H 272.976 0.846874 4.15456 0
M  V30 2748 C 271.435 -0.399674 3.34521 0
M  V30 2749 O 271.965 -1.41852 3.7582 0
M  V30 2750 N 270.171 -0.413893 2.87637 0
M  V30 2751 H 269.718 0.41571 2.54224 0
M  V30 2752 H 269.676 -1.28175 2.87086 0
M  V30 2753 N 273.449 -1.08991 1.13837 0
M  V30 2754 C 274.677 -1.85011 0.926202 0
M  V30 2755 C 275.092 -1.8135 -0.525127 0
M  V30 2756 O 274.449 -1.21287 -1.36366 0
M  V30 2757 C 274.5 -3.32802 1.41155 0
M  V30 2758 O 274.221 -3.36444 2.80601 0
M  V30 2759 C 275.722 -4.25649 1.23847 0
M  V30 2760 H 272.942 -0.584249 0.32999 0
M  V30 2761 H 275.486 -1.37688 1.51202 0
M  V30 2762 H 273.641 -3.77536 0.868631 0
M  V30 2763 H 274.055 -4.28657 3.02248 0
M  V30 2764 H 275.529 -5.27485 1.62675 0
M  V30 2765 H 276.006 -4.38828 0.18065 0
M  V30 2766 H 276.612 -3.86735 1.76964 0
M  V30 2767 N 274.927 -0.932562 -1.27047 0
M  V30 2768 C 276.175 -0.574422 -1.93765 0
M  V30 2769 C 276.496 0.887993 -1.73608 0
M  V30 2770 O 275.766 1.62999 -1.08665 0
M  V30 2771 H 274.346 -0.209451 -0.717035 0
M  V30 2772 H 277.008 -1.18601 -1.5466 0
M  V30 2773 H 276.104 -0.784841 -3.02071 0
M  V30 2774 N 276.405 1.4127 -0.698611 0
M  V30 2775 C 277.355 2.27997 -0.0119836 0
M  V30 2776 C 278.339 1.42363 0.749765 0
M  V30 2777 O 279.531 1.65607 0.624758 0
M  V30 2778 C 276.66 3.30702 0.921458 0
M  V30 2779 C 275.746 4.23814 0.155796 0
M  V30 2780 N 276.137 4.98572 -0.852015 0
M  V30 2781 C 274.435 4.44284 0.390836 0
M  V30 2782 C 275.136 5.66744 -1.3106 0
M  V30 2783 N 274.112 5.39867 -0.635944 0
M  V30 2784 H 277.914 2.83232 -0.784649 0
M  V30 2785 H 275.428 1.53518 -0.529711 0
M  V30 2786 H 277.425 3.91661 1.42854 0
M  V30 2787 H 276.085 2.77028 1.69369 0
M  V30 2788 H 277.096 5.03024 -1.23235 0
M  V30 2789 H 273.773 4.01614 1.14071 0
M  V30 2790 H 275.163 6.36672 -2.14707 0
M  V30 2791 N 277.883 0.443576 1.51229 0
M  V30 2792 C 279.294 -0.0180867 1.86691 0
M  V30 2793 C 279.645 -1.41384 1.36033 0
M  V30 2794 O 278.77 -2.04291 0.713722 0
M  V30 2795 C 279.365 -0.039597 3.38777 0
M  V30 2796 C 277.924 -0.445692 3.73752 0
M  V30 2797 C 277.071 0.357584 2.74985 0
M  V30 2798 H 280.022 0.659138 1.44364 0
M  V30 2799 H 280.043 -0.847761 3.70936 0
M  V30 2800 H 279.555 0.976382 3.75617 0
M  V30 2801 H 277.656 -1.46704 3.42503 0
M  V30 2802 H 277.769 -0.166155 4.78812 0
M  V30 2803 H 276.133 -0.184973 2.54027 0
M  V30 2804 H 276.916 1.37256 3.14668 0
M  V30 2805 N 279.361 -1.56624 0.175154 0
M  V30 2806 C 280.293 -2.15333 -0.785128 0
M  V30 2807 C 281.306 -1.1099 -1.19101 0
M  V30 2808 O 282.495 -1.38162 -1.13019 0
M  V30 2809 C 279.595 -2.68427 -2.06882 0
M  V30 2810 C 278.768 -3.97466 -1.8259 0
M  V30 2811 C 277.827 -4.35585 -2.95215 0
M  V30 2812 O 276.853 -5.03389 -2.65684 0
M  V30 2813 N 278.055 -3.97457 -4.23094 0
M  V30 2814 H 280.82 -2.98359 -0.283187 0
M  V30 2815 H 278.381 -1.61898 -0.00749817 0
M  V30 2816 H 280.373 -2.90924 -2.81328 0
M  V30 2817 H 278.943 -1.89968 -2.48256 0
M  V30 2818 H 278.163 -3.83307 -0.920287 0
M  V30 2819 H 279.451 -4.81736 -1.63733 0
M  V30 2820 H 278.849 -3.42878 -4.49945 0
M  V30 2821 H 277.406 -4.24947 -4.9423 0
M  V30 2822 N 280.839 0.0985539 -1.57292 0
M  V30 2823 C 282.085 0.803867 -1.86188 0
M  V30 2824 C 282.418 1.78549 -0.763794 0
M  V30 2825 O 281.693 1.93153 0.22855 0
M  V30 2826 C 281.976 1.53568 -3.25713 0
M  V30 2827 C 281.829 0.572277 -4.46145 0
M  V30 2828 C 283.148 2.48708 -3.63087 0
M  V30 2829 H 280.267 0.290781 -0.677211 0
M  V30 2830 H 282.909 0.0675783 -1.8988 0
M  V30 2831 H 281.059 2.16332 -3.22696 0
M  V30 2832 H 282.731 -0.0480894 -4.61275 0
M  V30 2833 H 280.974 -0.114618 -4.33649 0
M  V30 2834 H 281.645 1.12139 -5.40489 0
M  V30 2835 H 284.121 1.96039 -3.67026 0
M  V30 2836 H 282.997 2.96932 -4.61652 0
M  V30 2837 H 283.258 3.32309 -2.91588 0
M  V30 2838 N 282.317 1.53212 0.369288 0
M  V30 2839 C 283.547 1.72868 1.13139 0
M  V30 2840 C 283.955 0.455754 1.83629 0
M  V30 2841 O 283.298 -0.580861 1.74275 0
M  V30 2842 C 283.36 2.83667 2.20847 0
M  V30 2843 C 283.024 4.24142 1.70155 0
M  V30 2844 C 284.021 5.06619 1.16763 0
M  V30 2845 C 281.706 4.70539 1.7578 0
M  V30 2846 C 283.7 6.33581 0.696678 0
M  V30 2847 C 281.387 5.97481 1.28297 0
M  V30 2848 C 282.385 6.78833 0.753307 0
M  V30 2849 O 282.073 8.03393 0.285475 0
M  V30 2850 H 281.805 0.581707 0.344373 0
M  V30 2851 H 284.359 2.00736 0.435243 0
M  V30 2852 H 282.589 2.51265 2.93944 0
M  V30 2853 H 284.278 2.91536 2.82421 0
M  V30 2854 H 285.044 4.71948 1.11758 0
M  V30 2855 H 280.923 4.07293 2.15949 0
M  V30 2856 H 284.467 6.97027 0.282581 0
M  V30 2857 H 280.364 6.31651 1.32994 0
M  V30 2858 H 281.132 8.17497 0.405145 0
M  V30 2859 N 283.795 -0.628877 1.44509 0
M  V30 2860 C 285.043 -1.38565 1.4712 0
M  V30 2861 C 285.364 -1.94712 0.105899 0
M  V30 2862 O 284.634 -1.75912 -0.862079 0
M  V30 2863 H 283.214 -0.514333 0.541729 0
M  V30 2864 H 285.876 -0.740018 1.80305 0
M  V30 2865 H 284.972 -2.21583 2.19789 0
M  V30 2866 N 285.273 -1.31445 -0.869486 0
M  V30 2867 C 286.206 -1.13465 -1.97992 0
M  V30 2868 C 287.184 -0.0380291 -1.62556 0
M  V30 2869 O 288.368 -0.194544 -1.87493 0
M  V30 2870 C 285.495 -0.733822 -3.30655 0
M  V30 2871 C 284.541 -1.83356 -3.85075 0
M  V30 2872 S 285.374 -3.43909 -4.10472 0
M  V30 2873 C 286.53 -3.05763 -5.46132 0
M  V30 2874 H 286.763 -2.07471 -2.1294 0
M  V30 2875 H 284.296 -1.15936 -1.01972 0
M  V30 2876 H 286.254 -0.509306 -4.07328 0
M  V30 2877 H 284.915 0.187123 -3.13542 0
M  V30 2878 H 284.108 -1.50574 -4.80982 0
M  V30 2879 H 283.71 -2.01315 -3.15195 0
M  V30 2880 H 286.002 -2.54686 -6.27807 0
M  V30 2881 H 286.945 -4.00635 -5.83864 0
M  V30 2882 H 287.353 -2.43192 -5.09429 0
M  V30 2883 N 286.751 1.08385 -1.14413 0
M  V30 2884 C 287.998 1.80776 -0.912482 0
M  V30 2885 C 288.326 1.86236 0.560934 0
M  V30 2886 O 287.581 1.33431 1.43159 0
M  V30 2887 C 287.88 3.26273 -1.45879 0
M  V30 2888 C 287.546 3.4093 -2.95089 0
M  V30 2889 C 286.208 3.44638 -3.35824 0
M  V30 2890 C 288.56 3.44591 -3.91033 0
M  V30 2891 C 285.888 3.49597 -4.71167 0
M  V30 2892 C 288.24 3.51086 -5.26233 0
M  V30 2893 C 286.904 3.53067 -5.6648 0
M  V30 2894 H 286.174 0.661507 -0.333901 0
M  V30 2895 H 288.821 1.27613 -1.42784 0
M  V30 2896 H 287.126 3.82146 -0.864376 0
M  V30 2897 H 288.823 3.80839 -1.2555 0
M  V30 2898 H 285.413 3.38736 -2.62594 0
M  V30 2899 H 289.597 3.40957 -3.60641 0
M  V30 2900 H 284.853 3.49424 -5.0171 0
M  V30 2901 H 289.027 3.52864 -6.00383 0
M  V30 2902 H 286.654 3.56662 -6.71339 0
M  V30 2903 N 288.23 0.939286 1.26551 0
M  V30 2904 C 289.646 0.641304 1.46149 0
M  V30 2905 C 289.846 -0.805964 1.84679 0
M  V30 2906 O 288.902 -1.58278 1.96734 0
M  V30 2907 C 290.215 1.6011 2.54529 0
M  V30 2908 C 291.763 1.6106 2.68382 0
M  V30 2909 C 292.238 2.55765 3.79932 0
M  V30 2910 N 293.729 2.5404 3.87322 0
M  V30 2911 C 294.464 3.24004 4.73085 0
M  V30 2912 N 293.96 4.03388 5.63249 0
M  V30 2913 N 295.753 3.12965 4.66914 0
M  V30 2914 H 287.904 1.87478 0.998285 0
M  V30 2915 H 290.167 0.805559 0.499779 0
M  V30 2916 H 289.873 2.63412 2.33039 0
M  V30 2917 H 289.747 1.35171 3.52149 0
M  V30 2918 H 292.134 0.584835 2.89247 0
M  V30 2919 H 292.215 1.90053 1.71212 0
M  V30 2920 H 291.859 3.58458 3.5982 0
M  V30 2921 H 291.789 2.24063 4.76554 0
M  V30 2922 H 294.28 1.96396 3.22858 0
M  V30 2923 H 294.593 4.5373 6.25579 0
M  V30 2924 H 292.938 4.07489 5.63008 0
M  V30 2925 H 296.129 2.50432 3.95476 0
M  V30 2926 H 296.302 3.67759 5.33533 0
M  V30 2927 N 289.708 -1.40897 0.706093 0
M  V30 2928 C 290.985 -1.94868 0.169099 0
M  V30 2929 C 291.365 -1.64485 -1.32318 0
M  V30 2930 O 290.713 -0.95744 -2.07474 0
M  V30 2931 C 290.923 -3.45798 0.471654 0
M  V30 2932 C 292.271 -4.22663 0.405127 0
M  V30 2933 O 293.295 -3.53865 0.407168 0
M  V30 2934 O 292.154 -5.45216 0.374383 0
M  V30 2935 H 289.248 -0.82673 0.0211352 0
M  V30 2936 H 291.794 -1.50558 0.782976 0
M  V30 2937 H 290.566 -3.61235 1.50416 0
M  V30 2938 H 290.189 -3.97225 -0.172666 0
M  V30 2939 N 291.186 -0.45159 -1.50991 0
M  V30 2940 C 292.096 0.358431 -2.31846 0
M  V30 2941 C 293.112 1.01438 -1.41373 0
M  V30 2942 O 294.288 1.00663 -1.74439 0
M  V30 2943 C 291.353 1.43704 -3.15515 0
M  V30 2944 C 290.414 0.799742 -4.21785 0
M  V30 2945 C 289.647 1.82696 -5.01456 0
M  V30 2946 O 289.87 3.05105 -4.81941 0
M  V30 2947 O 288.804 1.40958 -5.85162 0
M  V30 2948 H 292.63 -0.302032 -3.02194 0
M  V30 2949 H 290.215 -0.213825 -1.47862 0
M  V30 2950 H 292.097 2.06227 -3.67489 0
M  V30 2951 H 290.772 2.08133 -2.47916 0
M  V30 2952 H 289.679 0.136084 -3.73852 0
M  V30 2953 H 291.012 0.198718 -4.91799 0
M  V30 2954 N 292.664 1.56529 -0.183458 0
M  V30 2955 C 293.911 1.97244 0.458357 0
M  V30 2956 C 294.239 1.06992 1.62428 0
M  V30 2957 O 293.494 0.106542 1.9541 0
M  V30 2958 C 293.793 3.43939 0.971637 0
M  V30 2959 C 293.459 4.5083 -0.0796784 0
M  V30 2960 C 292.121 4.79786 -0.368584 0
M  V30 2961 C 294.473 5.15138 -0.792638 0
M  V30 2962 C 291.801 5.70345 -1.37563 0
M  V30 2963 C 294.153 6.06784 -1.78875 0
M  V30 2964 C 292.817 6.34102 -2.08497 0
M  V30 2965 H 292.087 0.721768 0.167725 0
M  V30 2966 H 294.734 1.89472 -0.277976 0
M  V30 2967 H 293.039 3.48724 1.78602 0
M  V30 2968 H 294.736 3.72791 1.47744 0
M  V30 2969 H 291.326 4.28317 0.155668 0
M  V30 2970 H 295.51 4.92868 -0.582659 0
M  V30 2971 H 290.766 5.89789 -1.61118 0
M  V30 2972 H 294.94 6.55677 -2.3465 0
M  V30 2973 H 292.567 7.04074 -2.86678 0
M  V30 2974 N 294.142 -0.090211 1.57342 0
M  V30 2975 C 295.37 -0.806224 1.90546 0
M  V30 2976 C 295.785 -1.72041 0.777644 0
M  V30 2977 O 295.142 -1.80778 -0.250103 0
M  V30 2978 C 295.193 -1.61546 3.23396 0
M  V30 2979 O 294.914 -0.738043 4.31839 0
M  V30 2980 C 296.415 -2.4341 3.70495 0
M  V30 2981 H 293.635 -0.230256 0.630257 0
M  V30 2982 H 296.179 -0.0659843 2.04394 0
M  V30 2983 H 294.334 -2.30816 3.11131 0
M  V30 2984 H 294.748 -1.29901 5.08159 0
M  V30 2985 H 296.222 -2.95676 4.66133 0
M  V30 2986 H 296.699 -3.22098 2.98579 0
M  V30 2987 H 297.305 -1.79331 3.85643 0
M  V30 2988 N 295.62 -1.53406 -0.361157 0
M  V30 2989 C 296.568 -1.80832 -1.46296 0
M  V30 2990 C 297.562 -0.677699 -1.55253 0
M  V30 2991 O 298.768 -0.860723 -1.58087 0
M  V30 2992 H 295.143 -0.572627 -0.487445 0
M  V30 2993 H 297.114 -2.73045 -1.20371 0
M  V30 2994 C 295.863 -2.01907 -2.8307 0
M  V30 2995 H 295.186 -2.88349 -2.76938 0
M  V30 2996 H 296.626 -2.25072 -3.59331 0
M  V30 2997 C 295.085 -0.799449 -3.27277 0
M  V30 2998 O 295.615 0.00971761 -4.01699 0
M  V30 2999 N 293.821 -0.621637 -2.83873 0
M  V30 3000 H 293.368 -1.28126 -2.23476 0
M  V30 3001 H 293.326 0.19298 -3.13807 0
M  V30 3002 N 297.098 0.621204 -1.44841 0
M  V30 3003 C 298.028 1.74366 -1.55303 0
M  V30 3004 C 299.009 1.65199 -0.405385 0
M  V30 3005 O 300.194 1.83807 -0.626787 0
M  V30 3006 C 297.324 3.12931 -1.50637 0
M  V30 3007 C 296.278 3.36896 -2.63979 0
M  V30 3008 C 295.604 4.75594 -2.44366 0
M  V30 3009 C 296.904 3.28483 -4.06074 0
M  V30 3010 H 298.598 1.65867 -2.49256 0
M  V30 3011 H 296.144 0.796558 -1.19962 0
M  V30 3012 H 298.097 3.9124 -1.56555 0
M  V30 3013 H 296.821 3.22237 -0.532057 0
M  V30 3014 H 295.48 2.60972 -2.57467 0
M  V30 3015 H 295.128 4.81616 -1.45105 0
M  V30 3016 H 294.828 4.92586 -3.20364 0
M  V30 3017 H 296.352 5.5612 -2.52117 0
M  V30 3018 H 297.766 3.96684 -4.13902 0
M  V30 3019 H 296.163 3.57008 -4.82354 0
M  V30 3020 H 297.233 2.26133 -4.28943 0
M  V30 3021 N 298.576 1.31904 0.862503 0
M  V30 3022 C 299.992 1.10724 1.14945 0
M  V30 3023 C 300.192 -0.117421 2.01158 0
M  V30 3024 O 299.248 -0.804595 2.39338 0
M  V30 3025 C 300.561 2.38267 1.83437 0
M  V30 3026 C 302.109 2.43949 1.96106 0
M  V30 3027 C 302.584 3.71394 2.68013 0
M  V30 3028 N 304.075 3.72331 2.75543 0
M  V30 3029 C 304.81 4.67641 3.31812 0
M  V30 3030 N 304.306 5.73313 3.88953 0
M  V30 3031 N 306.099 4.5515 3.29841 0
M  V30 3032 H 298.25 2.10436 0.288191 0
M  V30 3033 H 300.513 0.928705 0.190292 0
M  V30 3034 H 300.219 3.27759 1.27542 0
M  V30 3035 H 300.093 2.48633 2.83657 0
M  V30 3036 H 302.48 1.54922 2.51164 0
M  V30 3037 H 302.561 2.37543 0.949059 0
M  V30 3038 H 302.205 4.60791 2.13621 0
M  V30 3039 H 302.135 3.75069 3.69636 0
M  V30 3040 H 304.626 2.95947 2.34997 0
M  V30 3041 H 304.939 6.42107 4.30022 0
M  V30 3042 H 303.284 5.77077 3.87308 0
M  V30 3043 H 306.475 3.71766 2.84443 0
M  V30 3044 H 306.648 5.29604 3.73394 0
M  V30 3045 N 300.054 -1.07777 1.14986 0
M  V30 3046 C 301.279 -1.84558 0.946213 0
M  V30 3047 C 301.704 -1.81323 -0.500362 0
M  V30 3048 O 301.062 -1.20301 -1.35637 0
M  V30 3049 C 301.11 -3.29736 1.45968 0
M  V30 3050 O 300.214 -4.07149 0.65601 0
M  V30 3051 H 299.555 -0.571641 0.33782 0
M  V30 3052 H 302.085 -1.35991 1.52865 0
M  V30 3053 H 302.095 -3.80574 1.47063 0
M  V30 3054 H 300.77 -3.31406 2.51283 0
M  V30 3055 H 299.347 -3.65994 0.714322 0
M  V30 3056 N 301.532 -0.945985 -1.26051 0
M  V30 3057 C 302.464 -0.416662 -2.25381 0
M  V30 3058 C 303.477 0.462712 -1.56086 0
M  V30 3059 O 304.666 0.272383 -1.7641 0
M  V30 3060 C 301.766 0.419812 -3.3629 0
M  V30 3061 C 300.939 -0.444531 -4.35135 0
M  V30 3062 C 299.998 0.332305 -5.2515 0
M  V30 3063 O 299.024 -0.266324 -5.68577 0
M  V30 3064 N 300.226 1.62763 -5.57215 0
M  V30 3065 H 302.991 -1.27059 -2.71433 0
M  V30 3066 H 300.552 -0.815392 -1.39868 0
M  V30 3067 H 302.544 0.947013 -3.93464 0
M  V30 3068 H 301.114 1.17456 -2.89694 0
M  V30 3069 H 300.334 -1.15291 -3.76964 0
M  V30 3070 H 301.622 -1.03478 -4.98166 0
M  V30 3071 H 301.02 2.13603 -5.23823 0
M  V30 3072 H 299.577 2.10097 -6.17011 0
M  V30 3073 N 303.011 1.40521 -0.713556 0
M  V30 3074 C 304.241 2.0494 -0.261395 0
M  V30 3075 C 304.649 1.53861 1.10107 0
M  V30 3076 O 303.992 0.689321 1.70276 0
M  V30 3077 C 304.054 3.59138 -0.161227 0
M  V30 3078 C 303.718 4.33096 -1.45865 0
M  V30 3079 C 304.715 4.61182 -2.40016 0
M  V30 3080 C 302.4 4.72043 -1.71701 0
M  V30 3081 C 304.394 5.27196 -3.58251 0
M  V30 3082 C 302.081 5.37789 -2.90218 0
M  V30 3083 C 303.079 5.65295 -3.83315 0
M  V30 3084 O 302.767 6.29683 -4.99754 0
M  V30 3085 H 302.499 0.666041 -0.115608 0
M  V30 3086 H 305.053 1.80954 -0.971849 0
M  V30 3087 H 303.283 3.81936 0.605153 0
M  V30 3088 H 304.972 4.05091 0.256105 0
M  V30 3089 H 305.738 4.31559 -2.21318 0
M  V30 3090 H 301.617 4.50003 -1.00092 0
M  V30 3091 H 305.161 5.48582 -4.30934 0
M  V30 3092 H 301.058 5.66831 -3.08825 0
M  V30 3093 H 301.826 6.4818 -4.99805 0
M  V30 3094 N 304.489 0.459591 1.5075 0
M  V30 3095 C 305.737 -0.0991532 2.01857 0
M  V30 3096 C 306.058 -1.41247 1.34441 0
M  V30 3097 O 305.328 -1.89775 0.486022 0
M  V30 3098 H 303.908 -0.039633 0.745948 0
M  V30 3099 H 306.57 0.607387 1.85194 0
M  V30 3100 H 305.666 -0.258998 3.11023 0
M  V30 3101 N 305.967 -1.56429 0.191757 0
M  V30 3102 C 306.93 -2.17707 -0.716688 0
M  V30 3103 C 307.93 -1.13061 -1.14341 0
M  V30 3104 O 309.12 -1.38464 -1.05704 0
M  V30 3105 C 306.252 -2.77644 -1.97804 0
M  V30 3106 H 307.445 -2.99342 -0.1829 0
M  V30 3107 H 304.998 -1.56193 -0.0578566 0
M  V30 3108 H 305.733 -1.99799 -2.55443 0
M  V30 3109 H 305.518 -3.54246 -1.68083 0
M  V30 3110 H 307.008 -3.24708 -2.62592 0
M  V30 3111 N 307.445 0.0818655 -1.57387 0
M  V30 3112 C 308.693 0.781368 -1.86384 0
M  V30 3113 C 309.014 1.78618 -0.782342 0
M  V30 3114 O 308.284 1.94976 0.190061 0
M  V30 3115 H 306.864 0.291562 -0.687751 0
M  V30 3116 H 309.526 0.060348 -1.94807 0
M  V30 3117 H 308.622 1.3038 -2.83562 0
M  V30 3118 N 308.923 1.53595 0.353017 0
M  V30 3119 C 310.171 1.70049 1.09215 0
M  V30 3120 C 310.492 0.461406 1.89463 0
M  V30 3121 O 309.762 -0.524633 1.88744 0
M  V30 3122 H 308.342 0.626912 0.40619 0
M  V30 3123 H 311.004 1.90822 0.396585 0
M  V30 3124 H 310.1 2.56718 1.77488 0
M  V30 3125 N 310.401 -0.613514 1.45168 0
M  V30 3126 C 311.648 -1.37268 1.48875 0
M  V30 3127 C 311.976 -1.94077 0.128161 0
M  V30 3128 O 311.231 -1.75178 -0.872416 0
M  V30 3129 C 311.53 -2.54347 2.51083 0
M  V30 3130 C 311.196 -2.1572 3.95949 0
M  V30 3131 C 309.858 -2.04899 4.35396 0
M  V30 3132 C 312.21 -1.85485 4.87078 0
M  V30 3133 C 309.538 -1.62057 5.63875 0
M  V30 3134 C 311.89 -1.4413 6.15962 0
M  V30 3135 C 310.554 -1.31863 6.54346 0
M  V30 3136 H 309.824 -0.502299 0.544773 0
M  V30 3137 H 312.471 -0.694021 1.78481 0
M  V30 3138 H 310.776 -3.27524 2.15024 0
M  V30 3139 H 312.473 -3.12577 2.51191 0
M  V30 3140 H 309.063 -2.25066 3.64751 0
M  V30 3141 H 313.247 -1.92745 4.57343 0
M  V30 3142 H 308.503 -1.51177 5.92415 0
M  V30 3143 H 312.677 -1.19778 6.86022 0
M  V30 3144 H 310.304 -0.984392 7.538 0
M  V30 3145 N 311.879 -1.3236 -0.855495 0
M  V30 3146 C 313.295 -1.11332 -1.14356 0
M  V30 3147 C 313.495 0.106751 -2.01217 0
M  V30 3148 O 312.551 0.791891 -2.39761 0
M  V30 3149 C 313.864 -2.39237 -1.82171 0
M  V30 3150 C 315.412 -2.44986 -1.9481 0
M  V30 3151 C 315.887 -3.7281 -2.66039 0
M  V30 3152 N 317.378 -3.73787 -2.73565 0
M  V30 3153 C 318.113 -4.69394 -3.29327 0
M  V30 3154 N 317.609 -5.75367 -3.85907 0
M  V30 3155 N 319.402 -4.56893 -3.27423 0
M  V30 3156 H 311.553 -2.10586 -0.277027 0
M  V30 3157 H 313.816 -0.929701 -0.185364 0
M  V30 3158 H 313.522 -3.28431 -1.25802 0
M  V30 3159 H 313.396 -2.50134 -2.82335 0
M  V30 3160 H 315.783 -1.56252 -2.50338 0
M  V30 3161 H 315.864 -2.38043 -0.936448 0
M  V30 3162 H 315.508 -4.61918 -2.11174 0
M  V30 3163 H 315.438 -3.77024 -3.67642 0
M  V30 3164 H 317.929 -2.97189 -2.33424 0
M  V30 3165 H 318.242 -6.44378 -4.26611 0
M  V30 3166 H 316.587 -5.79123 -3.84242 0
M  V30 3167 H 319.778 -3.73269 -2.82467 0
M  V30 3168 H 319.951 -5.31577 -3.7058 0
M  V30 3169 N 313.357 1.07166 -1.15556 0
M  V30 3170 C 314.604 1.79798 -0.931604 0
M  V30 3171 C 314.932 1.8682 0.54115 0
M  V30 3172 O 314.187 1.34942 1.41736 0
M  V30 3173 C 314.486 3.24707 -1.49332 0
M  V30 3174 C 314.152 3.37781 -2.98688 0
M  V30 3175 C 312.814 3.41057 -3.39461 0
M  V30 3176 C 315.166 3.40424 -3.94665 0
M  V30 3177 C 312.494 3.4458 -4.74849 0
M  V30 3178 C 314.846 3.45485 -5.29927 0
M  V30 3179 C 313.51 3.47039 -5.70193 0
M  V30 3180 H 312.78 0.657928 -0.340898 0
M  V30 3181 H 315.427 1.26091 -1.44129 0
M  V30 3182 H 313.732 3.81208 -0.904859 0
M  V30 3183 H 315.429 3.79486 -1.29582 0
M  V30 3184 H 312.019 3.35932 -2.66172 0
M  V30 3185 H 316.203 3.37113 -3.64237 0
M  V30 3186 H 311.459 3.44083 -5.05388 0
M  V30 3187 H 315.633 3.46476 -6.04092 0
M  V30 3188 H 313.26 3.49522 -6.75084 0
M  V30 3189 N 314.835 0.952656 1.25548 0
M  V30 3190 C 316.112 0.523818 1.88456 0
M  V30 3191 C 316.492 -0.998871 1.85973 0
M  V30 3192 O 315.84 -1.86381 1.3219 0
M  V30 3193 C 316.05 1.0982 3.31271 0
M  V30 3194 C 317.398 1.17385 4.08051 0
M  V30 3195 O 318.422 1.04961 3.40384 0
M  V30 3196 O 317.281 1.36852 5.29088 0
M  V30 3197 H 314.375 0.172485 0.808813 0
M  V30 3198 H 316.921 1.04596 1.33633 0
M  V30 3199 H 315.693 2.1415 3.27499 0
M  V30 3200 H 315.316 0.559191 3.93648 0
M  V30 3201 N 316.313 -1.40141 0.720998 0
M  V30 3202 C 317.56 -2.00787 0.262842 0
M  V30 3203 C 317.888 -1.5718 -1.14563 0
M  V30 3204 O 317.143 -0.785391 -1.79249 0
M  V30 3205 C 317.442 -3.56165 0.296892 0
M  V30 3206 C 317.108 -4.19373 1.65641 0
M  V30 3207 C 315.77 -4.36352 2.02855 0
M  V30 3208 C 318.122 -4.54578 2.54968 0
M  V30 3209 C 315.45 -4.8582 3.28931 0
M  V30 3210 C 317.802 -5.05447 3.80402 0
M  V30 3211 C 316.466 -5.20635 4.17726 0
M  V30 3212 H 315.736 -0.734731 0.0961807 0
M  V30 3213 H 318.383 -1.67673 0.925093 0
M  V30 3214 H 316.688 -3.8922 -0.448932 0
M  V30 3215 H 318.385 -4.00929 -0.0755208 0
M  V30 3216 H 314.975 -4.06549 1.35704 0
M  V30 3217 H 319.159 -4.41091 2.27491 0
M  V30 3218 H 314.415 -4.95764 3.57811 0
M  V30 3219 H 318.589 -5.31663 4.49786 0
M  V30 3220 H 316.216 -5.58728 5.15487 0
M  V30 3221 N 317.792 -0.46758 -1.50504 0
M  V30 3222 C 319.038 0.0887532 -2.02606 0
M  V30 3223 C 319.371 1.39686 -1.34913 0
M  V30 3224 O 318.646 1.88644 -0.473694 0
M  V30 3225 C 318.929 0.276206 -3.59039 0
M  V30 3226 C 318.782 -1.05267 -4.37309 0
M  V30 3227 C 320.101 1.03235 -4.27821 0
M  V30 3228 H 317.22 0.0307814 -0.736357 0
M  V30 3229 H 319.862 -0.612485 -1.79857 0
M  V30 3230 H 318.012 0.8735 -3.78553 0
M  V30 3231 H 319.684 -1.68628 -4.29374 0
M  V30 3232 H 317.927 -1.65015 -4.01189 0
M  V30 3233 H 318.598 -0.875197 -5.45018 0
M  V30 3234 H 321.074 0.526111 -4.12761 0
M  V30 3235 H 319.95 1.1323 -5.37094 0
M  V30 3236 H 320.211 2.06806 -3.90748 0
M  V30 3237 N 319.27 1.56325 -0.20005 0
M  V30 3238 C 320.686 1.58839 0.155716 0
M  V30 3239 C 320.886 1.21636 1.60645 0
M  V30 3240 O 319.942 0.941437 2.34293 0
M  V30 3241 C 321.255 3.0032 -0.151124 0
M  V30 3242 C 322.803 3.12866 -0.0916284 0
M  V30 3243 C 323.278 4.56488 -0.371845 0
M  V30 3244 N 324.769 4.62089 -0.320641 0
M  V30 3245 C 325.504 5.71116 -0.511243 0
M  V30 3246 N 325 6.88592 -0.762461 0
M  V30 3247 N 326.793 5.60335 -0.445157 0
M  V30 3248 H 318.944 1.78788 -1.14668 0
M  V30 3249 H 321.207 0.829996 -0.458051 0
M  V30 3250 H 320.913 3.32117 -1.15721 0
M  V30 3251 H 320.787 3.73257 0.543986 0
M  V30 3252 H 323.174 2.80878 0.905065 0
M  V30 3253 H 323.255 2.42304 -0.81989 0
M  V30 3254 H 322.899 4.89189 -1.36588 0
M  V30 3255 H 322.829 5.25246 0.377362 0
M  V30 3256 H 325.32 3.77665 -0.13329 0
M  V30 3257 H 325.633 7.67581 -0.896576 0
M  V30 3258 H 323.978 6.90387 -0.799412 0
M  V30 3259 H 327.169 4.67436 -0.249278 0
M  V30 3260 H 327.342 6.45243 -0.597116 0
M  V30 3261 N 320.748 -0.0735177 1.57428 0
M  V30 3262 C 321.996 -0.771472 1.86796 0
M  V30 3263 C 322.317 -1.78201 0.791804 0
M  V30 3264 O 321.587 -1.95074 -0.179718 0
M  V30 3265 H 320.167 -0.28791 0.689287 0
M  V30 3266 H 322.829 -0.0500161 1.94836 0
M  V30 3267 H 321.925 -1.28874 2.8425 0
M  V30 3268 N 322.226 -1.5378 -0.344866 0
M  V30 3269 C 323.456 -1.74646 -1.10374 0
M  V30 3270 C 323.864 -0.48491 -1.8288 0
M  V30 3271 O 323.207 0.553062 -1.75177 0
M  V30 3272 C 323.269 -2.87145 -2.16306 0
M  V30 3273 C 322.933 -4.26795 -1.63386 0
M  V30 3274 C 323.93 -5.08412 -1.08688 0
M  V30 3275 C 321.615 -4.73276 -1.68272 0
M  V30 3276 C 323.609 -6.34609 -0.595792 0
M  V30 3277 C 321.296 -5.99446 -1.18776 0
M  V30 3278 C 322.294 -6.79946 -0.645215 0
M  V30 3279 O 321.982 -8.03745 -0.157626 0
M  V30 3280 H 321.714 -0.587112 -0.335075 0
M  V30 3281 H 324.268 -2.01403 -0.403252 0
M  V30 3282 H 322.498 -2.55909 -2.89909 0
M  V30 3283 H 324.187 -2.95992 -2.77747 0
M  V30 3284 H 324.953 -4.73666 -1.04236 0
M  V30 3285 H 320.832 -4.10677 -2.09442 0
M  V30 3286 H 324.376 -6.97389 -0.171654 0
M  V30 3287 H 320.273 -6.33687 -1.22928 0
M  V30 3288 H 321.041 -8.18038 -0.275037 0
M  V30 3289 N 323.704 0.605807 -1.45491 0
M  V30 3290 C 324.667 1.69836 -1.5391 0
M  V30 3291 C 325.667 1.55261 -0.418424 0
M  V30 3292 O 326.857 1.60296 -0.681965 0
M  V30 3293 C 323.989 3.09117 -1.43734 0
M  V30 3294 H 325.182 1.63738 -2.51257 0
M  V30 3295 H 322.735 0.821689 -1.32959 0
M  V30 3296 H 323.47 3.20791 -0.475788 0
M  V30 3297 H 323.255 3.21104 -2.25021 0
M  V30 3298 H 324.745 3.88696 -1.52661 0
M  V30 3299 N 325.182 1.32811 0.848464 0
M  V30 3300 C 326.593 1.21315 1.41914 0
M  V30 3301 C 326.944 -0.171847 1.95446 0
M  V30 3302 O 326.069 -1.07093 1.88043 0
M  V30 3303 C 326.664 2.19631 2.57968 0
M  V30 3304 C 325.223 2.12003 3.11017 0
M  V30 3305 C 324.37 2.07651 1.83783 0
M  V30 3306 H 327.321 1.44549 0.655071 0
M  V30 3307 H 327.342 1.79845 3.35315 0
M  V30 3308 H 326.854 3.20423 2.18976 0
M  V30 3309 H 324.955 1.14481 3.54577 0
M  V30 3310 H 325.068 3.02111 3.71841 0
M  V30 3311 H 323.432 1.52983 2.03638 0
M  V30 3312 H 324.215 3.10235 1.47 0
M  V30 3313 N 326.66 -1.06551 1.16123 0
M  V30 3314 C 327.57 -2.17484 0.879662 0
M  V30 3315 C 328.586 -1.73377 -0.147104 0
M  V30 3316 O 329.762 -2.01379 0.0289128 0
M  V30 3317 C 326.827 -3.44591 0.381829 0
M  V30 3318 C 325.888 -4.0322 1.4735 0
M  V30 3319 C 325.121 -5.24261 0.999324 0
M  V30 3320 O 325.344 -5.70198 -0.151957 0
M  V30 3321 O 324.278 -5.74775 1.78653 0
M  V30 3322 H 328.104 -2.44075 1.80724 0
M  V30 3323 H 325.689 -1.16042 0.940992 0
M  V30 3324 H 327.571 -4.21254 0.111053 0
M  V30 3325 H 326.246 -3.19532 -0.51777 0
M  V30 3326 H 325.153 -3.2806 1.79798 0
M  V30 3327 H 326.486 -4.32568 2.34831 0
M  V30 3328 N 328.138 -0.959301 -1.25041 0
M  V30 3329 C 329.554 -0.664474 -1.4511 0
M  V30 3330 C 329.754 0.776481 -1.85938 0
M  V30 3331 O 328.81 1.55128 -1.99227 0
M  V30 3332 C 330.123 -1.64139 -2.5195 0
M  V30 3333 C 331.671 -1.65309 -2.65786 0
M  V30 3334 C 332.146 -2.61777 -3.75815 0
M  V30 3335 N 333.637 -2.60169 -3.83231 0
M  V30 3336 C 334.372 -3.31489 -4.6787 0
M  V30 3337 N 333.868 -4.12298 -5.56761 0
M  V30 3338 N 335.661 -3.20354 -4.61876 0
M  V30 3339 H 327.812 -1.89043 -0.968332 0
M  V30 3340 H 330.075 -0.813408 -0.4869 0
M  V30 3341 H 329.781 -2.67086 -2.28819 0
M  V30 3342 H 329.655 -1.40756 -3.49954 0
M  V30 3343 H 332.042 -0.630778 -2.8828 0
M  V30 3344 H 332.123 -1.92753 -1.68167 0
M  V30 3345 H 331.767 -3.64137 -3.54071 0
M  V30 3346 H 331.697 -2.31616 -4.72929 0
M  V30 3347 H 334.188 -2.01507 -3.19692 0
M  V30 3348 H 334.501 -4.63625 -6.18281 0
M  V30 3349 H 332.846 -4.16395 -5.56454 0
M  V30 3350 H 336.037 -2.56692 -3.91442 0
M  V30 3351 H 336.21 -3.76201 -5.27614 0
M  V30 3352 N 329.616 1.39756 -0.72842 0
M  V30 3353 C 330.862 2.00942 -0.273892 0
M  V30 3354 C 331.195 1.57656 1.13394 0
M  V30 3355 O 330.47 0.802434 1.77176 0
M  V30 3356 C 330.753 3.58211 -0.368346 0
M  V30 3357 C 330.606 4.11534 -1.81548 0
M  V30 3358 C 331.925 4.39372 0.253054 0
M  V30 3359 H 329.044 0.730047 -0.100996 0
M  V30 3360 H 331.686 1.66056 -0.923337 0
M  V30 3361 H 329.836 3.88061 0.184588 0
M  V30 3362 H 331.508 3.92431 -2.42478 0
M  V30 3363 H 329.751 3.65341 -2.33898 0
M  V30 3364 H 330.422 5.20682 -1.83288 0
M  V30 3365 H 332.898 4.15527 -0.218224 0
M  V30 3366 H 331.774 5.48677 0.156585 0
M  V30 3367 H 332.035 4.21358 1.33826 0
M  V30 3368 N 331.094 0.475555 1.50254 0
M  V30 3369 C 332.042 -0.330276 2.30243 0
M  V30 3370 C 333.036 -0.986306 1.37726 0
M  V30 3371 O 334.242 -0.9169 1.54897 0
M  V30 3372 H 330.617 -0.125353 0.741479 0
M  V30 3373 H 332.588 0.364702 2.96163 0
M  V30 3374 C 331.337 -1.39704 3.18399 0
M  V30 3375 H 330.66 -0.901621 3.89501 0
M  V30 3376 H 332.1 -1.93336 3.77355 0
M  V30 3377 C 330.559 -2.4014 2.36293 0
M  V30 3378 O 331.089 -3.45504 2.04914 0
M  V30 3379 N 329.295 -2.1197 1.98789 0
M  V30 3380 H 328.842 -1.2631 2.24507 0
M  V30 3381 H 328.8 -2.79403 1.44157 0
M  V30 3382 N 332.573 -1.56217 0.208337 0
M  V30 3383 C 333.798 -2.02782 -0.435222 0
M  V30 3384 C 334.223 -1.08738 -1.53485 0
M  V30 3385 O 333.581 -0.0731855 -1.81152 0
M  V30 3386 C 333.629 -3.47687 -0.956335 0
M  V30 3387 O 332.733 -3.56773 -2.06849 0
M  V30 3388 H 332.074 -0.656403 -0.100158 0
M  V30 3389 H 334.604 -2.02033 0.3231 0
M  V30 3390 H 334.614 -3.87745 -1.26955 0
M  V30 3391 H 333.289 -4.15624 -0.15143 0
M  V30 3392 H 331.866 -3.28597 -1.76292 0
M  V30 3393 N 334.051 0.0651679 -1.57465 0
M  V30 3394 C 335.297 0.758912 -1.88712 0
M  V30 3395 C 335.652 1.7485 -0.802819 0
M  V30 3396 O 334.945 1.90632 0.192359 0
M  V30 3397 C 335.139 1.50081 -3.24362 0
M  V30 3398 C 334.968 0.584579 -4.45884 0
M  V30 3399 C 333.738 0.219039 -5.04825 0
M  V30 3400 C 335.936 -0.121559 -5.14156 0
M  V30 3401 N 333.918 -0.702222 -6.09871 0
M  V30 3402 C 335.289 -0.899767 -6.13436 0
M  V30 3403 C 337.344 -0.192331 -4.97528 0
M  V30 3404 C 336.047 -1.74218 -6.97883 0
M  V30 3405 C 338.073 -1.02174 -5.82507 0
M  V30 3406 C 337.435 -1.78798 -6.8133 0
M  V30 3407 H 333.534 0.25293 -0.739967 0
M  V30 3408 H 336.118 0.0201744 -1.9469 0
M  V30 3409 H 334.289 2.21023 -3.1938 0
M  V30 3410 H 336.021 2.14409 -3.43236 0
M  V30 3411 H 332.776 0.57336 -4.70117 0
M  V30 3412 H 333.2 -1.15629 -6.67052 0
M  V30 3413 H 337.842 0.385741 -4.21037 0
M  V30 3414 H 335.56 -2.3312 -7.73745 0
M  V30 3415 H 339.146 -1.07957 -5.71696 0
M  V30 3416 H 338.026 -2.41942 -7.45945 0
M  V30 3417 N 335.529 1.53961 0.336706 0
M  V30 3418 C 336.462 1.77255 1.43722 0
M  V30 3419 C 337.44 0.62193 1.50236 0
M  V30 3420 O 338.624 0.857874 1.67847 0
M  V30 3421 C 335.751 1.87733 2.81912 0
M  V30 3422 C 334.797 3.09933 2.92991 0
M  V30 3423 S 335.63 4.68836 2.58753 0
M  V30 3424 C 336.786 4.82202 3.99039 0
M  V30 3425 H 337.019 2.70322 1.23748 0
M  V30 3426 H 334.552 1.44917 0.532777 0
M  V30 3427 H 336.51 1.94455 3.61521 0
M  V30 3428 H 335.171 0.956666 2.99177 0
M  V30 3429 H 334.364 3.1396 3.94265 0
M  V30 3430 H 333.966 3.01472 2.21338 0
M  V30 3431 H 336.258 4.64032 4.9364 0
M  V30 3432 H 337.201 5.84298 4.00002 0
M  V30 3433 H 337.609 4.10604 3.87382 0
M  V30 3434 N 337.007 -0.598083 1.45811 0
M  V30 3435 C 338.235 -1.38322 1.53866 0
M  V30 3436 C 338.65 -1.87992 0.174479 0
M  V30 3437 O 338.007 -1.62756 -0.825627 0
M  V30 3438 C 338.058 -2.58125 2.53089 0
M  V30 3439 O 337.779 -2.10516 3.84206 0
M  V30 3440 C 339.28 -3.50869 2.70935 0
M  V30 3441 H 336.5 -0.423093 0.520801 0
M  V30 3442 H 339.044 -0.728527 1.91083 0
M  V30 3443 H 337.199 -3.19615 2.18917 0
M  V30 3444 H 337.613 -2.88425 4.38077 0
M  V30 3445 H 339.087 -4.31451 3.44317 0
M  V30 3446 H 339.564 -4.01822 1.77301 0
M  V30 3447 H 340.17 -2.95225 3.06141 0
M  V30 3448 N 338.485 -1.33259 -0.841409 0
M  V30 3449 C 339.762 -1.15174 -1.58096 0
M  V30 3450 C 340.142 0.282858 -2.09196 0
M  V30 3451 O 339.49 1.28151 -1.89181 0
M  V30 3452 C 339.7 -2.1907 -2.71679 0
M  V30 3453 C 341.048 -2.53093 -3.40924 0
M  V30 3454 O 342.072 -2.17717 -2.81918 0
M  V30 3455 O 340.931 -3.1379 -4.47435 0
M  V30 3456 H 338.025 -0.445303 -0.696875 0
M  V30 3457 H 340.571 -1.44833 -0.884385 0
M  V30 3458 H 339.343 -3.15443 -2.31541 0
M  V30 3459 H 338.966 -1.90481 -3.49002 0
M  V30 3460 N 339.963 1.05934 -1.16686 0
M  V30 3461 C 341.188 1.83029 -0.975455 0
M  V30 3462 C 341.613 1.82096 0.471452 0
M  V30 3463 O 340.971 1.22443 1.33706 0
M  V30 3464 C 341.019 3.27372 -1.51195 0
M  V30 3465 O 340.123 4.06054 -0.720701 0
M  V30 3466 H 339.464 0.566194 -0.346872 0
M  V30 3467 H 341.994 1.33541 -1.55009 0
M  V30 3468 H 342.004 3.78186 -1.53099 0
M  V30 3469 H 340.679 3.27366 -2.56523 0
M  V30 3470 H 339.256 3.64812 -0.772458 0
M  V30 3471 N 341.441 0.965919 1.2453 0
M  V30 3472 C 342.404 0.499547 2.2369 0
M  V30 3473 C 343.404 -0.40294 1.5567 0
M  V30 3474 O 344.594 -0.19865 1.73064 0
M  V30 3475 C 341.726 -0.276792 3.39774 0
M  V30 3476 H 342.919 1.37613 2.66463 0
M  V30 3477 H 340.472 0.750324 1.37112 0
M  V30 3478 H 341.207 -1.17055 3.02438 0
M  V30 3479 H 340.992 0.370826 3.90343 0
M  V30 3480 H 342.482 -0.592175 4.1338 0
M  V30 3481 N 342.919 -1.39368 0.735821 0
M  V30 3482 C 344.196 -1.94465 0.210395 0
M  V30 3483 C 344.576 -1.67254 -1.28799 0
M  V30 3484 O 343.924 -1.00123 -2.05396 0
M  V30 3485 C 344.134 -3.4472 0.544897 0
M  V30 3486 C 345.482 -4.21708 0.494689 0
M  V30 3487 O 346.506 -3.52922 0.482136 0
M  V30 3488 O 345.365 -5.44299 0.489947 0
M  V30 3489 H 342.459 -0.826096 0.0386666 0
M  V30 3490 H 345.005 -1.48863 0.814735 0
M  V30 3491 H 343.777 -3.57963 1.58045 0
M  V30 3492 H 343.4 -3.97502 -0.08837 0
M  V30 3493 N 344.397 -0.483516 -1.5 0
M  V30 3494 C 345.345 0.318061 -2.30415 0
M  V30 3495 C 346.339 0.978988 -1.38247 0
M  V30 3496 O 347.545 0.908673 -1.55381 0
M  V30 3497 H 343.92 0.121419 -0.742133 0
M  V30 3498 H 345.891 -0.380403 -2.95965 0
M  V30 3499 C 344.64 1.38013 -3.19136 0
M  V30 3500 H 343.963 0.880952 -3.89973 0
M  V30 3501 H 345.403 1.91332 -3.78375 0
M  V30 3502 C 343.862 2.38884 -2.37563 0
M  V30 3503 O 344.392 3.44412 -2.06744 0
M  V30 3504 N 342.598 2.10912 -1.99911 0
M  V30 3505 H 342.145 1.25118 -2.25174 0
M  V30 3506 H 342.103 2.78635 -1.45636 0
M  V30 3507 N 345.875 1.56104 -0.216619 0
M  V30 3508 C 347.1 2.0301 0.424462 0
M  V30 3509 C 347.525 1.0955 1.52907 0
M  V30 3510 O 346.883 0.0827914 1.81111 0
M  V30 3511 C 346.931 3.4819 0.937883 0
M  V30 3512 O 346.035 3.57865 2.04955 0
M  V30 3513 H 345.376 0.656925 0.0966755 0
M  V30 3514 H 347.906 2.01859 -0.33381 0
M  V30 3515 H 347.916 3.88413 1.24897 0
M  V30 3516 H 346.591 4.15699 0.129387 0
M  V30 3517 H 345.168 3.29527 1.74546 0
M  V30 3518 N 347.353 -0.0568162 1.57498 0
M  V30 3519 C 348.6 -0.753104 1.87975 0
M  V30 3520 C 348.928 -1.76815 0.81035 0
M  V30 3521 O 348.183 -1.94756 -0.19199 0
M  V30 3522 C 348.482 -1.48359 3.25153 0
M  V30 3523 C 348.148 -0.60713 4.46794 0
M  V30 3524 C 346.81 -0.365642 4.79809 0
M  V30 3525 C 349.162 -0.000305978 5.212 0
M  V30 3526 C 346.49 0.491905 5.84634 0
M  V30 3527 C 348.842 0.844781 6.26934 0
M  V30 3528 C 347.506 1.096 6.58441 0
M  V30 3529 H 346.776 -0.27558 0.687849 0
M  V30 3530 H 349.423 -0.0135173 1.91495 0
M  V30 3531 H 347.728 -2.29577 3.17492 0
M  V30 3532 H 349.425 -2.02739 3.45974 0
M  V30 3533 H 346.015 -0.805487 4.20963 0
M  V30 3534 H 350.199 -0.173961 4.95995 0
M  V30 3535 H 345.455 0.695131 6.07436 0
M  V30 3536 H 349.629 1.32165 6.83744 0
M  V30 3537 H 347.256 1.76224 7.39492 0
M  V30 3538 N 348.832 -1.54138 -0.328536 0
M  V30 3539 C 350.072 -1.73827 -1.07534 0
M  V30 3540 C 350.436 -0.498777 -1.85408 0
M  V30 3541 O 351.637 -0.572937 -2.62623 0
M  V30 3542 C 349.908 -2.97573 -1.97952 0
M  V30 3543 S 351.467 -3.38143 -2.79652 0
M  V30 3544 H 348.285 -0.611287 -0.36311 0
M  V30 3545 H 350.887 -1.92306 -0.351931 0
M  V30 3546 H 349.591 -3.85939 -1.39569 0
M  V30 3547 H 349.122 -2.81603 -2.74706 0
M  V30 3548 H 351.137 -2.93052 -4.00418 0
M  V30 3549 N 350.31 0.590341 -1.46126 0
M  V30 3550 C 351.556 1.35082 -1.51264 0
M  V30 3551 C 351.889 1.93534 -0.160711 0
M  V30 3552 O 351.164 1.76045 0.826956 0
M  V30 3553 C 351.447 2.48588 -2.6053 0
M  V30 3554 C 351.3 1.95221 -4.05227 0
M  V30 3555 C 352.619 3.50662 -2.6594 0
M  V30 3556 H 349.738 0.489803 -0.550692 0
M  V30 3557 H 352.38 0.663887 -1.78024 0
M  V30 3558 H 350.53 3.07186 -2.37843 0
M  V30 3559 H 352.202 1.41139 -4.39178 0
M  V30 3560 H 350.445 1.26101 -4.15068 0
M  V30 3561 H 351.116 2.77121 -4.77397 0
M  V30 3562 H 353.592 3.01934 -2.86313 0
M  V30 3563 H 352.468 4.27551 -3.44226 0
M  V30 3564 H 352.729 4.07399 -1.71694 0
M  V30 3565 N 351.788 1.33704 0.83433 0
M  V30 3566 C 353.036 1.25169 1.58673 0
M  V30 3567 C 353.357 -0.18127 1.94156 0
M  V30 3568 O 352.627 -1.11113 1.6134 0
M  V30 3569 H 351.207 0.4603 0.58833 0
M  V30 3570 H 353.869 1.67478 0.996847 0
M  V30 3571 H 352.965 1.84856 2.51465 0
M  V30 3572 N 353.266 -1.05314 1.17247 0
M  V30 3573 C 354.176 -2.16538 0.90268 0
M  V30 3574 C 355.192 -1.73523 -0.128707 0
M  V30 3575 O 356.368 -2.01337 0.0502701 0
M  V30 3576 C 353.433 -3.44167 0.418356 0
M  V30 3577 C 352.494 -4.01635 1.51618 0
M  V30 3578 C 351.727 -5.23171 1.05487 0
M  V30 3579 O 351.95 -5.70327 -0.0914715 0
M  V30 3580 O 350.884 -5.72848 1.8474 0
M  V30 3581 H 354.71 -2.42145 1.83302 0
M  V30 3582 H 352.295 -1.15037 0.953246 0
M  V30 3583 H 354.177 -4.21112 0.155726 0
M  V30 3584 H 352.852 -3.20063 -0.48385 0
M  V30 3585 H 351.759 -3.26135 1.83268 0
M  V30 3586 H 353.092 -4.30053 2.39405 0
M  V30 3587 N 354.744 -0.972509 -1.24016 0
M  V30 3588 C 355.674 -0.525548 -2.27509 0
M  V30 3589 C 356.655 0.437262 -1.64384 0
M  V30 3590 O 357.84 0.332343 -1.91335 0
M  V30 3591 C 354.97 0.180448 -3.46831 0
M  V30 3592 C 353.924 -0.698859 -4.22256 0
M  V30 3593 C 353.25 0.138903 -5.3452 0
M  V30 3594 C 354.55 -1.98582 -4.83076 0
M  V30 3595 H 356.244 -1.39058 -2.65148 0
M  V30 3596 H 353.79 -0.67009 -1.27459 0
M  V30 3597 H 355.743 0.504387 -4.18371 0
M  V30 3598 H 354.467 1.07987 -3.08231 0
M  V30 3599 H 353.126 -1.00614 -3.52523 0
M  V30 3600 H 352.774 1.03862 -4.9216 0
M  V30 3601 H 352.474 -0.446259 -5.85903 0
M  V30 3602 H 353.998 0.457404 -6.08884 0
M  V30 3603 H 355.412 -1.72715 -5.46665 0
M  V30 3604 H 353.809 -2.5181 -5.44713 0
M  V30 3605 H 354.879 -2.67769 -4.04262 0
M  V30 3606 N 356.222 1.38976 -0.743202 0
M  V30 3607 C 357.468 2.01114 -0.304109 0
M  V30 3608 C 357.823 1.57929 1.09892 0
M  V30 3609 O 357.116 0.801983 1.74008 0
M  V30 3610 C 357.31 3.55647 -0.353517 0
M  V30 3611 C 357.139 4.13837 -1.75981 0
M  V30 3612 C 355.909 4.46062 -2.37395 0
M  V30 3613 C 358.107 4.36812 -2.71477 0
M  V30 3614 N 356.089 4.898 -3.70093 0
M  V30 3615 C 357.46 4.82844 -3.88923 0
M  V30 3616 C 359.515 4.18893 -2.69134 0
M  V30 3617 C 358.218 5.12837 -5.04371 0
M  V30 3618 C 360.244 4.50005 -3.83731 0
M  V30 3619 C 359.606 4.96251 -4.99914 0
M  V30 3620 H 355.705 0.765931 -0.157716 0
M  V30 3621 H 358.289 1.68763 -0.970931 0
M  V30 3622 H 356.46 3.87368 0.282987 0
M  V30 3623 H 358.192 4.04564 0.104904 0
M  V30 3624 H 354.947 4.34145 -1.89248 0
M  V30 3625 H 355.371 5.16016 -4.38242 0
M  V30 3626 H 360.013 3.82335 -1.80499 0
M  V30 3627 H 357.731 5.48297 -5.9363 0
M  V30 3628 H 361.317 4.37755 -3.83225 0
M  V30 3629 H 360.197 5.19867 -5.87118 0
M  V30 3630 N 357.7 0.491464 1.49741 0
M  V30 3631 C 358.647 -0.292027 2.28945 0
M  V30 3632 C 359.617 -0.968973 1.34908 0
M  V30 3633 O 360.802 -0.97748 1.6386 0
M  V30 3634 C 357.942 -1.35617 3.17336 0
M  V30 3635 C 357.055 -0.691957 4.26422 0
M  V30 3636 C 356.19 -1.73572 5.02042 0
M  V30 3637 C 355.229 -1.05286 6.02977 0
M  V30 3638 N 354.366 -2.0404 6.71798 0
M  V30 3639 H 359.206 0.389654 2.95442 0
M  V30 3640 H 356.743 0.204003 1.45679 0
M  V30 3641 H 358.701 -1.98502 3.66951 0
M  V30 3642 H 357.331 -2.00674 2.52844 0
M  V30 3643 H 356.383 0.0499523 3.80367 0
M  V30 3644 H 357.695 -0.153946 4.98562 0
M  V30 3645 H 356.849 -2.43987 5.55478 0
M  V30 3646 H 355.588 -2.30757 4.29654 0
M  V30 3647 H 354.593 -0.334446 5.48782 0
M  V30 3648 H 355.818 -0.487636 6.77347 0
M  V30 3649 H 353.764 -2.60205 6.02187 0
M  V30 3650 H 353.681 -1.55279 7.39881 0
M  V30 3651 H 354.949 -2.73772 7.29842 0
M  V30 3652 N 359.178 -1.55987 0.224894 0
M  V30 3653 C 360.426 -1.97998 -0.405099 0
M  V30 3654 C 360.747 -1.11387 -1.60056 0
M  V30 3655 O 360.017 -0.191645 -1.9496 0
M  V30 3656 H 358.597 -0.731235 -0.152658 0
M  V30 3657 H 361.259 -1.92279 0.318567 0
M  V30 3658 H 360.355 -3.03463 -0.729167 0
M  V30 3659 N 360.656 0.0484629 -1.57525 0
M  V30 3660 C 362.067 0.597486 -1.76881 0
M  V30 3661 C 362.418 1.76664 -0.853475 0
M  V30 3662 O 361.543 2.16357 -0.0433656 0
M  V30 3663 C 362.138 1.09066 -3.20765 0
M  V30 3664 C 360.697 1.58535 -3.41385 0
M  V30 3665 C 359.844 0.514868 -2.72478 0
M  V30 3666 H 362.795 -0.177758 -1.57701 0
M  V30 3667 H 362.816 1.95875 -3.2621 0
M  V30 3668 H 362.328 0.239521 -3.8736 0
M  V30 3669 H 360.429 2.45898 -2.79937 0
M  V30 3670 H 360.542 1.64622 -4.49929 0
M  V30 3671 H 358.906 0.965407 -2.35695 0
M  V30 3672 H 359.689 -0.32648 -3.41744 0
M  V30 3673 N 362.134 1.5431 0.320358 0
M  V30 3674 C 363.359 1.76954 1.08175 0
M  V30 3675 C 363.784 0.518193 1.80821 0
M  V30 3676 O 363.142 -0.530411 1.73368 0
M  V30 3677 C 363.19 2.96451 2.05303 0
M  V30 3678 O 362.294 2.68221 3.13259 0
M  V30 3679 H 361.635 0.586275 0.311733 0
M  V30 3680 H 364.165 2.01342 0.363676 0
M  V30 3681 H 364.175 3.23887 2.48116 0
M  V30 3682 H 362.85 3.87196 1.51829 0
M  V30 3683 H 361.427 2.51744 2.75099 0
M  V30 3684 N 363.613 -0.582584 1.46437 0
M  V30 3685 C 364.523 -1.71949 1.59595 0
M  V30 3686 C 365.539 -1.67264 0.479443 0
M  V30 3687 O 366.715 -1.87171 0.743579 0
M  V30 3688 C 363.78 -3.08452 1.58298 0
M  V30 3689 C 362.841 -3.244 2.81182 0
M  V30 3690 C 362.074 -4.54391 2.79937 0
M  V30 3691 O 362.297 -5.38287 1.8869 0
M  V30 3692 O 361.231 -4.73588 3.71481 0
M  V30 3693 H 365.057 -1.63795 2.55744 0
M  V30 3694 H 362.642 -0.749643 1.29231 0
M  V30 3695 H 364.524 -3.89732 1.60271 0
M  V30 3696 H 363.199 -3.17043 0.653094 0
M  V30 3697 H 362.106 -2.42613 2.84763 0
M  V30 3698 H 363.439 -3.20699 3.7338 0
M  V30 3699 N 365.091 -1.34144 -0.827227 0
M  V30 3700 C 366.321 -1.29138 -1.61267 0
M  V30 3701 C 366.729 0.137597 -1.88699 0
M  V30 3702 O 366.072 1.09379 -1.47587 0
M  V30 3703 C 366.134 -2.0097 -2.9808 0
M  V30 3704 C 365.798 -3.50242 -2.93563 0
M  V30 3705 C 366.795 -4.4523 -2.68452 0
M  V30 3706 C 364.48 -3.92592 -3.13331 0
M  V30 3707 C 366.474 -5.80542 -2.63154 0
M  V30 3708 C 364.161 -5.28005 -3.07658 0
M  V30 3709 C 365.159 -6.21792 -2.82602 0
M  V30 3710 O 364.847 -7.54723 -2.76853 0
M  V30 3711 H 364.579 -0.445851 -0.508127 0
M  V30 3712 H 367.133 -1.77263 -1.03763 0
M  V30 3713 H 365.363 -1.47451 -3.57484 0
M  V30 3714 H 367.052 -1.89309 -3.5905 0
M  V30 3715 H 367.818 -4.13832 -2.52919 0
M  V30 3716 H 363.697 -3.19994 -3.31851 0
M  V30 3717 H 367.241 -6.53717 -2.43516 0
M  V30 3718 H 363.138 -5.59023 -3.22743 0
M  V30 3719 H 363.906 -7.64409 -2.92611 0
M  V30 3720 N 366.569 1.04691 -1.17803 0
M  V30 3721 C 367.98 1.59238 -0.974689 0
M  V30 3722 C 368.331 1.90306 0.477292 0
M  V30 3723 O 367.456 1.68846 1.35352 0
M  V30 3724 C 368.051 2.89318 -1.76296 0
M  V30 3725 C 366.61 3.40506 -1.60414 0
M  V30 3726 C 365.757 2.14172 -1.76141 0
M  V30 3727 H 368.708 0.874395 -1.32439 0
M  V30 3728 H 368.729 3.5944 -1.24833 0
M  V30 3729 H 368.241 2.66675 -2.81968 0
M  V30 3730 H 366.342 3.68175 -0.572519 0
M  V30 3731 H 366.455 4.14753 -2.39827 0
M  V30 3732 H 364.819 2.25176 -1.19028 0
M  V30 3733 H 365.602 1.93992 -2.83235 0
M  V30 3734 N 368.047 0.979072 1.23499 0
M  V30 3735 C 368.995 0.510604 2.26926 0
M  V30 3736 C 369.989 -0.431691 1.63807 0
M  V30 3737 O 371.195 -0.30573 1.77385 0
M  V30 3738 H 367.57 0.146688 0.737554 0
M  V30 3739 H 369.541 1.39466 2.63803 0
M  V30 3740 C 368.29 -0.172658 3.47271 0
M  V30 3741 H 367.613 0.543331 3.96091 0
M  V30 3742 H 369.053 -0.464101 4.21452 0
M  V30 3743 C 367.512 -1.40345 3.06276 0
M  V30 3744 O 368.042 -2.49978 3.14442 0
M  V30 3745 N 366.248 -1.27362 2.61203 0
M  V30 3746 H 365.795 -0.381584 2.54758 0
M  V30 3747 H 365.753 -2.09822 2.34141 0
M  V30 3748 N 369.525 -1.3858 0.750561 0
M  V30 3749 C 370.771 -2.0095 0.31477 0
M  V30 3750 C 371.126 -1.58509 -1.09053 0
M  V30 3751 O 370.419 -0.8112 -1.7358 0
M  V30 3752 C 370.613 -3.55455 0.372373 0
M  V30 3753 C 370.442 -4.12898 1.78173 0
M  V30 3754 C 369.212 -4.44797 2.39757 0
M  V30 3755 C 371.41 -4.35366 2.7379 0
M  V30 3756 N 369.392 -4.87831 3.72685 0
M  V30 3757 C 370.763 -4.80775 3.91478 0
M  V30 3758 C 372.818 -4.1746 2.71351 0
M  V30 3759 C 371.521 -5.10155 5.07084 0
M  V30 3760 C 373.547 -4.47963 3.86113 0
M  V30 3761 C 372.909 -4.93593 5.02539 0
M  V30 3762 H 369.008 -0.765083 0.161776 0
M  V30 3763 H 371.592 -1.68246 0.979867 0
M  V30 3764 H 369.763 -3.87512 -0.26244 0
M  V30 3765 H 371.495 -4.04614 -0.0834479 0
M  V30 3766 H 368.25 -4.33135 1.91548 0
M  V30 3767 H 368.674 -5.13685 4.40972 0
M  V30 3768 H 373.316 -3.81372 1.82524 0
M  V30 3769 H 371.034 -5.45141 5.96529 0
M  V30 3770 H 374.62 -4.35717 3.85542 0
M  V30 3771 H 373.5 -5.16746 5.89867 0
M  V30 3772 N 371.003 -0.499398 -1.49478 0
M  V30 3773 C 372.28 0.108629 -1.95298 0
M  V30 3774 C 372.66 1.54282 -1.44084 0
M  V30 3775 O 372.008 2.18944 -0.653908 0
M  V30 3776 C 372.218 0.0229111 -3.48992 0
M  V30 3777 C 373.566 0.197643 -4.2414 0
M  V30 3778 O 374.59 0.0981735 -3.56065 0
M  V30 3779 O 373.449 0.401669 -5.45022 0
M  V30 3780 H 370.543 0.096181 -0.821388 0
M  V30 3781 H 373.089 -0.561822 -1.6013 0
M  V30 3782 H 371.861 -0.977321 -3.78899 0
M  V30 3783 H 371.484 0.733579 -3.90774 0
M  V30 3784 N 372.481 1.55866 -0.233164 0
M  V30 3785 C 373.727 1.99643 0.389148 0
M  V30 3786 C 374.082 1.11836 1.56558 0
M  V30 3787 O 373.375 0.170848 1.90837 0
M  V30 3788 C 373.569 3.46856 0.861724 0
M  V30 3789 C 373.398 4.48904 -0.267376 0
M  V30 3790 C 372.168 4.99888 -0.737577 0
M  V30 3791 C 374.366 5.02624 -1.08966 0
M  V30 3792 N 372.348 5.8566 -1.84052 0
M  V30 3793 C 373.719 5.85434 -2.04125 0
M  V30 3794 C 375.774 4.84959 -1.12779 0
M  V30 3795 C 374.477 6.52466 -3.02789 0
M  V30 3796 C 376.503 5.52759 -2.10266 0
M  V30 3797 C 375.865 6.35346 -3.04162 0
M  V30 3798 H 371.964 0.774402 0.108742 0
M  V30 3799 H 374.548 1.91572 -0.347596 0
M  V30 3800 H 372.719 3.55352 1.5678 0
M  V30 3801 H 374.451 3.77531 1.45783 0
M  V30 3802 H 371.206 4.7249 -0.324122 0
M  V30 3803 H 371.63 6.33246 -2.39434 0
M  V30 3804 H 376.272 4.20751 -0.415749 0
M  V30 3805 H 373.99 7.15849 -3.74948 0
M  V30 3806 H 377.576 5.41051 -2.13905 0
M  V30 3807 H 376.456 6.86883 -3.78366 0
M  V30 3808 N 373.959 -0.0401083 1.57549 0
M  V30 3809 C 375.375 -0.395556 1.54621 0
M  V30 3810 C 375.575 -1.77281 0.957799 0
M  V30 3811 O 374.631 -2.45888 0.574031 0
M  V30 3812 C 375.944 -0.307535 2.99123 0
M  V30 3813 C 377.492 -0.385425 3.10618 0
M  V30 3814 C 377.967 -0.326973 4.56831 0
M  V30 3815 N 379.458 -0.386102 4.61588 0
M  V30 3816 C 380.193 -0.363591 5.72246 0
M  V30 3817 N 379.689 -0.29402 6.92176 0
M  V30 3818 N 381.482 -0.412503 5.60584 0
M  V30 3819 H 373.633 0.861325 1.94152 0
M  V30 3820 H 375.896 0.326445 0.890021 0
M  V30 3821 H 375.602 0.638461 3.45856 0
M  V30 3822 H 375.476 -1.10552 3.60636 0
M  V30 3823 H 377.863 -1.32185 2.63839 0
M  V30 3824 H 377.944 0.44171 2.51957 0
M  V30 3825 H 377.588 0.605738 5.04275 0
M  V30 3826 H 377.518 -1.17207 5.13391 0
M  V30 3827 H 380.009 -0.442832 3.75296 0
M  V30 3828 H 380.322 -0.28164 7.72287 0
M  V30 3829 H 378.667 -0.260232 6.94513 0
M  V30 3830 H 381.858 -0.464769 4.65787 0
M  V30 3831 H 382.031 -0.391492 6.46816 0
M  V30 3832 N 375.437 -1.54477 -0.31217 0
M  V30 3833 C 376.385 -1.85395 -1.40469 0
M  V30 3834 C 377.379 -0.726749 -1.53019 0
M  V30 3835 O 378.585 -0.910582 -1.55269 0
M  V30 3836 H 374.96 -0.587845 -0.46898 0
M  V30 3837 H 376.931 -2.76736 -1.11623 0
M  V30 3838 C 375.68 -2.10811 -2.76503 0
M  V30 3839 H 375.003 -2.97014 -2.67625 0
M  V30 3840 H 376.443 -2.3639 -3.51988 0
M  V30 3841 C 374.902 -0.903165 -3.24568 0
M  V30 3842 O 375.432 -0.118085 -4.01526 0
M  V30 3843 N 373.638 -0.711634 -2.81752 0
M  V30 3844 H 373.185 -1.35171 -2.19286 0
M  V30 3845 H 373.143 0.0930473 -3.14262 0
M  V30 3846 N 376.915 0.57481 -1.46744 0
M  V30 3847 C 378.143 1.35856 -1.56047 0
M  V30 3848 C 378.558 1.87691 -0.204365 0
M  V30 3849 O 377.915 1.64049 0.79963 0
M  V30 3850 C 377.966 2.54066 -2.57163 0
M  V30 3851 O 377.687 2.04377 -3.87507 0
M  V30 3852 C 379.188 3.46514 -2.76483 0
M  V30 3853 H 376.408 0.414754 -0.527466 0
M  V30 3854 H 378.952 0.698035 -1.92218 0
M  V30 3855 H 377.107 3.16092 -2.23974 0
M  V30 3856 H 377.521 2.81419 -4.4261 0
M  V30 3857 H 378.995 4.25919 -3.51137 0
M  V30 3858 H 379.472 3.98951 -1.83671 0
M  V30 3859 H 380.078 2.90318 -3.10799 0
M  V30 3860 N 378.394 1.34581 0.820102 0
M  V30 3861 C 379.357 1.2628 1.91275 0
M  V30 3862 C 380.357 0.177344 1.59819 0
M  V30 3863 O 381.547 0.430156 1.68806 0
M  V30 3864 C 378.679 0.950327 3.27386 0
M  V30 3865 H 379.872 2.23421 2.00057 0
M  V30 3866 H 377.425 1.1891 1.0144 0
M  V30 3867 H 378.16 -0.0177938 3.24295 0
M  V30 3868 H 377.945 1.73549 3.51601 0
M  V30 3869 H 379.435 0.917492 4.07396 0
M  V30 3870 N 379.872 -1.04064 1.18357 0
M  V30 3871 C 381.097 -1.81454 1.00445 0
M  V30 3872 C 381.522 -1.82823 -0.442423 0
M  V30 3873 O 380.88 -1.24555 -1.31741 0
M  V30 3874 C 380.928 -3.24925 1.56384 0
M  V30 3875 O 380.032 -4.04856 0.785209 0
M  V30 3876 H 379.373 -0.560604 0.355835 0
M  V30 3877 H 381.903 -1.31059 1.57114 0
M  V30 3878 H 381.913 -3.75702 1.59097 0
M  V30 3879 H 380.588 -3.23244 2.61699 0
M  V30 3880 H 379.165 -3.63537 0.830399 0
M  V30 3881 N 381.35 -0.985608 -1.22978 0
M  V30 3882 C 382.596 -0.667998 -1.92118 0
M  V30 3883 C 382.951 0.790454 -1.75413 0
M  V30 3884 O 382.244 1.56336 -1.10768 0
M  V30 3885 C 382.438 -1.00014 -3.43121 0
M  V30 3886 C 382.267 -2.48933 -3.74516 0
M  V30 3887 C 381.037 -3.15218 -3.94925 0
M  V30 3888 C 383.235 -3.47024 -3.79577 0
M  V30 3889 N 381.217 -4.53689 -4.13569 0
M  V30 3890 C 382.588 -4.70923 -4.03276 0
M  V30 3891 C 384.643 -3.41432 -3.62393 0
M  V30 3892 C 383.346 -5.89914 -4.11574 0
M  V30 3893 C 385.372 -4.59793 -3.71947 0
M  V30 3894 C 384.734 -5.82489 -3.96088 0
M  V30 3895 H 380.833 -0.295589 -0.723983 0
M  V30 3896 H 383.417 -1.26413 -1.4808 0
M  V30 3897 H 381.588 -0.432655 -3.85983 0
M  V30 3898 H 383.32 -0.63927 -3.99619 0
M  V30 3899 H 380.075 -2.65702 -3.92045 0
M  V30 3900 H 380.499 -5.25492 -4.26834 0
M  V30 3901 H 385.141 -2.47594 -3.4272 0
M  V30 3902 H 382.859 -6.84164 -4.30053 0
M  V30 3903 H 386.445 -4.57048 -3.59998 0
M  V30 3904 H 385.325 -6.72546 -4.033 0
M  V30 3905 N 382.828 1.3818 -0.7579 0
M  V30 3906 C 383.76 2.2901 -0.0932177 0
M  V30 3907 C 384.773 1.47958 0.679136 0
M  V30 3908 O 385.962 1.70773 0.519514 0
M  V30 3909 C 383.062 3.26953 0.89192 0
M  V30 3910 C 382.235 4.37045 0.176303 0
M  V30 3911 C 381.294 5.15148 1.07281 0
M  V30 3912 O 380.32 5.66616 0.541728 0
M  V30 3913 N 381.522 5.28542 2.40049 0
M  V30 3914 H 384.287 2.86694 -0.873303 0
M  V30 3915 H 381.848 1.50007 -0.609054 0
M  V30 3916 H 383.84 3.76083 1.49479 0
M  V30 3917 H 382.41 2.70136 1.57306 0
M  V30 3918 H 381.63 3.89493 -0.607328 0
M  V30 3919 H 382.918 5.07801 -0.318718 0
M  V30 3920 H 382.316 4.88285 2.85647 0
M  V30 3921 H 380.873 5.8103 2.95376 0
M  V30 3922 N 384.306 0.507319 1.49211 0
M  V30 3923 C 385.238 -0.304532 2.27168 0
M  V30 3924 C 386.251 -0.924956 1.33972 0
M  V30 3925 O 387.44 -0.807227 1.59205 0
M  V30 3926 C 384.54 -1.44431 3.06583 0
M  V30 3927 C 383.713 -0.930026 4.27398 0
M  V30 3928 C 382.772 -1.94817 4.88807 0
M  V30 3929 O 381.798 -1.51418 5.4869 0
M  V30 3930 N 383 -3.279 4.79022 0
M  V30 3931 H 385.765 0.36395 2.97482 0
M  V30 3932 H 383.326 0.340249 1.58284 0
M  V30 3933 H 385.318 -2.12311 3.44537 0
M  V30 3934 H 383.888 -2.01684 2.38835 0
M  V30 3935 H 383.108 -0.0759244 3.94127 0
M  V30 3936 H 384.396 -0.564932 5.05654 0
M  V30 3937 H 383.794 -3.65843 4.3148 0
M  V30 3938 H 382.351 -3.91476 5.21142 0
M  V30 3939 N 385.784 -1.5574 0.241426 0
M  V30 3940 C 387.033 -1.97986 -0.385295 0
M  V30 3941 C 387.346 -1.13267 -1.59468 0
M  V30 3942 O 388.552 -1.45501 -2.2922 0
M  V30 3943 C 387.008 -3.52275 -0.736884 0
M  V30 3944 C 386.616 -4.45726 0.450796 0
M  V30 3945 C 388.36 -4.03189 -1.3281 0
M  V30 3946 C 386.267 -5.91352 0.0756662 0
M  V30 3947 H 385.197 -0.739386 -0.147731 0
M  V30 3948 H 387.848 -1.80308 0.340779 0
M  V30 3949 H 386.23 -3.65628 -1.52094 0
M  V30 3950 H 387.404 -4.44131 1.22819 0
M  V30 3951 H 385.719 -4.05264 0.956573 0
M  V30 3952 H 388.316 -5.09505 -1.62201 0
M  V30 3953 H 388.659 -3.50212 -2.25071 0
M  V30 3954 H 389.192 -3.93141 -0.607069 0
M  V30 3955 H 385.931 -6.48354 0.965272 0
M  V30 3956 H 385.451 -5.96095 -0.665635 0
M  V30 3957 H 387.13 -6.46084 -0.344075 0
M  V30 3958 N 387.262 0.0317525 -1.57568 0
M  V30 3959 C 388.511 0.722131 -1.8833 0
M  V30 3960 C 388.824 1.76664 -0.839587 0
M  V30 3961 O 390.03 2.50942 -1.03635 0
M  V30 3962 C 388.486 1.33544 -3.34207 0
M  V30 3963 C 388.094 0.327415 -4.46802 0
M  V30 3964 C 389.838 2.00585 -3.7412 0
M  V30 3965 C 387.745 0.948915 -5.83738 0
M  V30 3966 H 386.675 0.273466 -0.702661 0
M  V30 3967 H 389.326 -0.0235811 -1.83485 0
M  V30 3968 H 387.708 2.13077 -3.33788 0
M  V30 3969 H 388.882 -0.441006 -4.58685 0
M  V30 3970 H 387.197 -0.240758 -4.15703 0
M  V30 3971 H 389.794 2.47932 -4.73744 0
M  V30 3972 H 390.137 2.82285 -3.05975 0
M  V30 3973 H 390.67 1.27831 -3.76702 0
M  V30 3974 H 387.409 0.171387 -6.55276 0
M  V30 3975 H 386.929 1.68724 -5.7558 0
M  V30 3976 H 388.608 1.45705 -6.3038 0
M  V30 3977 N 388.74 1.54641 0.303973 0
M  V30 3978 C 389.687 1.85386 1.37479 0
M  V30 3979 C 390.657 0.702528 1.50512 0
M  V30 3980 O 391.842 0.950867 1.65418 0
M  V30 3981 C 388.982 2.10413 2.73533 0
M  V30 3982 C 388.095 3.38049 2.68974 0
M  V30 3983 C 387.23 3.52934 3.97002 0
M  V30 3984 C 386.269 4.74373 3.86829 0
M  V30 3985 N 385.406 4.8608 5.06627 0
M  V30 3986 H 390.246 2.76732 1.1056 0
M  V30 3987 H 387.783 1.37034 0.534805 0
M  V30 3988 H 389.741 2.22919 3.52652 0
M  V30 3989 H 388.371 1.22338 2.98719 0
M  V30 3990 H 387.423 3.3418 1.81736 0
M  V30 3991 H 388.735 4.27288 2.57346 0
M  V30 3992 H 387.889 3.65088 4.84557 0
M  V30 3993 H 386.628 2.61824 4.1146 0
M  V30 3994 H 385.633 4.62255 2.97658 0
M  V30 3995 H 386.858 5.66888 3.73918 0
M  V30 3996 H 384.804 3.97891 5.21554 0
M  V30 3997 H 384.721 5.69315 4.9741 0
M  V30 3998 H 385.989 5.02587 5.95841 0
M  V30 3999 N 390.218 -0.567019 1.47046 0
M  V30 4000 C 391.495 -1.3276 1.43646 0
M  V30 4001 C 391.875 -2.1071 0.128186 0
M  V30 4002 O 391.223 -2.10441 -0.890326 0
M  V30 4003 C 391.433 -2.2404 2.67595 0
M  V30 4004 C 392.781 -2.85372 3.14401 0
M  V30 4005 O 393.805 -2.34346 2.68254 0
M  V30 4006 O 392.664 -3.78091 3.946 0
M  V30 4007 H 389.758 -0.597293 0.571988 0
M  V30 4008 H 392.304 -0.586735 1.59234 0
M  V30 4009 H 391.076 -1.65975 3.54356 0
M  V30 4010 H 390.699 -3.05439 2.54544 0
M  V30 4011 N 391.696 -1.35014 -0.812953 0
M  V30 4012 C 392.942 -1.29129 -1.57154 0
M  V30 4013 C 393.297 0.134922 -1.91926 0
M  V30 4014 O 392.59 1.08373 -1.58006 0
M  V30 4015 C 392.784 -2.12524 -2.87347 0
M  V30 4016 C 392.613 -3.6311 -2.65294 0
M  V30 4017 C 391.383 -4.32363 -2.61516 0
M  V30 4018 C 393.581 -4.56897 -2.36114 0
M  V30 4019 N 391.563 -5.68735 -2.31113 0
M  V30 4020 C 392.934 -5.81345 -2.15494 0
M  V30 4021 C 394.989 -4.45706 -2.21925 0
M  V30 4022 C 393.692 -6.95862 -1.82122 0
M  V30 4023 C 395.718 -5.60066 -1.89948 0
M  V30 4024 C 395.08 -6.83539 -1.7016 0
M  V30 4025 H 391.179 -0.527764 -0.577052 0
M  V30 4026 H 393.763 -1.6983 -0.952146 0
M  V30 4027 H 391.934 -1.74104 -3.47192 0
M  V30 4028 H 393.666 -1.98207 -3.5284 0
M  V30 4029 H 390.421 -3.84907 -2.75941 0
M  V30 4030 H 390.845 -6.40694 -2.18724 0
M  V30 4031 H 395.487 -3.50855 -2.35925 0
M  V30 4032 H 393.205 -7.90685 -1.6686 0
M  V30 4033 H 396.791 -5.53357 -1.79687 0
M  V30 4034 H 395.671 -7.70531 -1.45777 0
M  V30 4035 N 393.175 1.03435 -1.18907 0
M  V30 4036 C 394.4 1.80919 -1.01406 0
M  V30 4037 C 394.825 1.83055 0.432721 0
M  V30 4038 O 394.183 1.25252 1.31079 0
M  V30 4039 C 394.231 3.24091 -1.58105 0
M  V30 4040 O 393.335 4.04434 -0.806669 0
M  V30 4041 H 392.676 0.558709 -0.358803 0
M  V30 4042 H 395.206 1.30223 -1.57807 0
M  V30 4043 H 395.216 3.74853 -1.61087 0
M  V30 4044 H 393.891 3.21851 -2.6341 0
M  V30 4045 H 392.468 3.63091 -0.849666 0
M  V30 4046 N 394.653 0.992116 1.22453 0
M  V30 4047 C 395.93 0.583508 1.86694 0
M  V30 4048 C 396.31 -0.9392 1.89056 0
M  V30 4049 O 395.658 -1.82081 1.38053 0
M  V30 4050 C 395.868 1.20304 3.2761 0
M  V30 4051 C 397.216 1.30308 4.0411 0
M  V30 4052 O 398.24 1.15737 3.36873 0
M  V30 4053 O 397.099 1.53615 5.24466 0
M  V30 4054 H 394.193 0.198129 0.802916 0
M  V30 4055 H 396.739 1.08794 1.30238 0
M  V30 4056 H 395.511 2.24461 3.2052 0
M  V30 4057 H 395.134 0.684144 3.9167 0
M  V30 4058 N 396.131 -1.37776 0.765217 0
M  V30 4059 C 397.547 -1.53297 0.444108 0
M  V30 4060 C 397.747 -1.72515 -1.04119 0
M  V30 4061 O 396.803 -1.74278 -1.82711 0
M  V30 4062 C 398.116 -2.73328 1.25349 0
M  V30 4063 C 399.664 -2.87185 1.24473 0
M  V30 4064 C 400.139 -4.10191 2.03733 0
M  V30 4065 N 401.63 -4.17291 2.01053 0
M  V30 4066 C 402.365 -5.11488 2.59166 0
M  V30 4067 N 401.861 -6.11285 3.26041 0
M  V30 4068 N 403.654 -5.03924 2.49032 0
M  V30 4069 H 395.805 -1.23552 1.72768 0
M  V30 4070 H 398.068 -0.601103 0.733062 0
M  V30 4071 H 397.774 -2.6557 2.30577 0
M  V30 4072 H 397.648 -3.66834 0.87823 0
M  V30 4073 H 400.035 -2.94418 0.20047 0
M  V30 4074 H 400.116 -1.94657 1.65959 0
M  V30 4075 H 399.76 -4.0372 3.08176 0
M  V30 4076 H 399.69 -5.01821 1.59633 0
M  V30 4077 H 402.181 -3.45825 1.5236 0
M  V30 4078 H 402.494 -6.79678 3.67774 0
M  V30 4079 H 400.839 -6.11583 3.30138 0
M  V30 4080 H 404.03 -4.24902 1.96407 0
M  V30 4081 H 404.203 -5.77152 2.94617 0
M  V30 4082 N 397.609 -0.515225 -1.4894 0
M  V30 4083 C 398.572 0.244681 -2.2789 0
M  V30 4084 C 399.572 0.881166 -1.34507 0
M  V30 4085 O 400.762 0.743497 -1.57537 0
M  V30 4086 C 397.894 1.35247 -3.12923 0
M  V30 4087 H 399.087 -0.448289 -2.96531 0
M  V30 4088 H 396.64 -0.270656 -1.53939 0
M  V30 4089 H 397.375 2.07916 -2.48881 0
M  V30 4090 H 397.16 0.901374 -3.81599 0
M  V30 4091 H 398.65 1.88737 -3.72516 0
M  V30 4092 N 399.087 1.5561 -0.249682 0
M  V30 4093 C 400.034 2.21496 0.648694 0
M  V30 4094 C 401.004 1.17977 1.16921 0
M  V30 4095 O 402.189 1.46434 1.22318 0
M  V30 4096 C 399.329 2.92039 1.83868 0
M  V30 4097 C 398.442 4.10219 1.35442 0
M  V30 4098 C 397.577 4.6847 2.50419 0
M  V30 4099 C 396.616 5.78893 1.98869 0
M  V30 4100 N 395.753 6.31315 3.07223 0
M  V30 4101 H 400.593 2.97892 0.0801582 0
M  V30 4102 H 398.13 1.47074 0.0278031 0
M  V30 4103 H 400.088 3.31138 2.53778 0
M  V30 4104 H 398.718 2.18111 2.37965 0
M  V30 4105 H 397.77 3.76413 0.54928 0
M  V30 4106 H 399.082 4.89927 0.936649 0
M  V30 4107 H 398.236 5.10158 3.28366 0
M  V30 4108 H 396.975 3.87984 2.95499 0
M  V30 4109 H 395.98 5.3668 1.19393 0
M  V30 4110 H 397.205 6.61232 1.54755 0
M  V30 4111 H 395.151 5.53733 3.51732 0
M  V30 4112 H 395.068 7.06224 2.69784 0
M  V30 4113 H 396.336 6.77662 3.8522 0
M  V30 4114 N 400.565 -0.0233959 1.57583 0
M  V30 4115 C 401.805 -0.71784 1.9138 0
M  V30 4116 C 402.169 -1.72216 0.848853 0
M  V30 4117 O 403.37 -2.46527 1.07134 0
M  V30 4118 C 401.641 -1.36489 3.30311 0
M  V30 4119 S 403.2 -2.0877 3.85954 0
M  V30 4120 H 400.018 -0.237676 0.670098 0
M  V30 4121 H 402.62 0.0276709 1.9548 0
M  V30 4122 H 401.324 -0.620782 4.05678 0
M  V30 4123 H 400.855 -2.14883 3.29528 0
M  V30 4124 H 402.87 -3.35988 3.65139 0
M  V30 4125 N 402.043 -1.548 -0.295768 0
M  V30 4126 C 403.454 -1.65274 -0.868411 0
M  V30 4127 C 403.805 -0.56481 -1.87894 0
M  V30 4128 O 402.93 0.29767 -2.14343 0
M  V30 4129 C 403.525 -2.99603 -1.58188 0
M  V30 4130 C 402.084 -3.12181 -2.10286 0
M  V30 4131 C 401.231 -2.6098 -0.93727 0
M  V30 4132 H 404.182 -1.58534 -0.0726422 0
M  V30 4133 H 404.203 -2.91319 -2.44772 0
M  V30 4134 H 403.715 -3.78764 -0.846151 0
M  V30 4135 H 401.816 -2.3775 -2.8689 0
M  V30 4136 H 401.929 -4.18415 -2.33379 0
M  V30 4137 H 400.293 -2.17564 -1.32431 0
M  V30 4138 H 401.076 -3.42623 -0.215414 0
M  V30 4139 N 403.521 0.559213 -1.47345 0
M  V30 4140 C 404.767 1.31843 -1.54095 0
M  V30 4141 C 405.1 1.93149 -0.201726 0
M  V30 4142 O 404.375 1.77759 0.789428 0
M  V30 4143 C 404.658 2.43006 -2.65744 0
M  V30 4144 C 404.511 1.86581 -4.09277 0
M  V30 4145 C 405.83 3.44943 -2.73318 0
M  V30 4146 H 402.949 0.478012 -0.560957 0
M  V30 4147 H 405.591 0.625977 -1.79392 0
M  V30 4148 H 403.741 3.02072 -2.44305 0
M  V30 4149 H 405.413 1.31792 -4.42073 0
M  V30 4150 H 403.656 1.17268 -4.17649 0
M  V30 4151 H 404.327 2.66933 -4.83168 0
M  V30 4152 H 406.803 2.95793 -2.92653 0
M  V30 4153 H 405.679 4.20153 -3.53218 0
M  V30 4154 H 405.94 4.03665 -1.80296 0
M  V30 4155 N 404.999 1.35443 0.805782 0
M  V30 4156 C 406.246 1.28761 1.56291 0
M  V30 4157 C 406.574 -0.137747 1.94012 0
M  V30 4158 O 405.829 -1.1032 1.61642 0
M  V30 4159 C 406.128 2.14045 2.86216 0
M  V30 4160 C 405.794 3.62826 2.67709 0
M  V30 4161 C 404.456 4.0338 2.6237 0
M  V30 4162 C 406.808 4.57227 2.50186 0
M  V30 4163 C 404.136 5.36501 2.37451 0
M  V30 4164 C 406.488 5.90547 2.26797 0
M  V30 4165 C 405.152 6.30245 2.1988 0
M  V30 4166 H 404.422 0.471171 0.571908 0
M  V30 4167 H 407.069 1.67347 0.930974 0
M  V30 4168 H 405.374 1.68342 3.53791 0
M  V30 4169 H 407.071 2.0621 3.43917 0
M  V30 4170 H 403.661 3.30644 2.72713 0
M  V30 4171 H 407.845 4.2678 2.53323 0
M  V30 4172 H 403.101 5.66259 2.30567 0
M  V30 4173 H 407.275 6.63274 2.12228 0
M  V30 4174 H 404.902 7.33328 2.00333 0
M  V30 4175 N 406.477 -1.02803 1.19454 0
M  V30 4176 C 407.754 -1.73299 0.907013 0
M  V30 4177 C 408.134 -2.02772 -0.587086 0
M  V30 4178 O 407.482 -1.68304 -1.54551 0
M  V30 4179 C 407.692 -3.00912 1.76785 0
M  V30 4180 C 409.04 -3.74403 2.00268 0
M  V30 4181 O 410.064 -3.10841 1.73943 0
M  V30 4182 O 408.923 -4.88675 2.4466 0
M  V30 4183 H 406.017 -0.754727 0.338106 0
M  V30 4184 H 408.563 -1.08754 1.30271 0
M  V30 4185 H 407.335 -2.75366 2.7801 0
M  V30 4186 H 406.958 -3.73197 1.37149 0
M  V30 4187 N 407.956 -0.998596 -1.21925 0
M  V30 4188 C 409.203 -0.677663 -1.90824 0
M  V30 4189 C 409.531 0.790905 -1.77693 0
M  V30 4190 O 408.786 1.58817 -1.14349 0
M  V30 4191 C 409.085 -1.03648 -3.42041 0
M  V30 4192 C 408.751 -2.49825 -3.75364 0
M  V30 4193 C 407.413 -2.8977 -3.8417 0
M  V30 4194 C 409.765 -3.44545 -3.91073 0
M  V30 4195 C 407.093 -4.23412 -4.06127 0
M  V30 4196 C 409.445 -4.77853 -4.14535 0
M  V30 4197 C 408.109 -5.17531 -4.21566 0
M  V30 4198 H 407.379 -0.247975 -0.698276 0
M  V30 4199 H 410.026 -1.25584 -1.44571 0
M  V30 4200 H 408.331 -0.376457 -3.89987 0
M  V30 4201 H 410.028 -0.766113 -3.93614 0
M  V30 4202 H 406.618 -2.17866 -3.69097 0
M  V30 4203 H 410.802 -3.14853 -3.83642 0
M  V30 4204 H 406.058 -4.53734 -4.09799 0
M  V30 4205 H 410.232 -5.51189 -4.25633 0
M  V30 4206 H 407.859 -6.21102 -4.38333 0
M  V30 4207 N 409.434 1.37368 -0.772513 0
M  V30 4208 C 410.397 2.28601 -0.165541 0
M  V30 4209 C 411.397 1.48062 0.627238 0
M  V30 4210 O 412.587 1.68268 0.450715 0
M  V30 4211 C 409.719 3.32023 0.772897 0
M  V30 4212 H 410.912 2.83787 -0.969787 0
M  V30 4213 H 408.465 1.46647 -0.540775 0
M  V30 4214 H 409.2 2.81962 1.60212 0
M  V30 4215 H 408.985 3.91555 0.206585 0
M  V30 4216 H 410.475 4.00197 1.19298 0
M  V30 4217 N 410.912 0.523116 1.48665 0
M  V30 4218 C 411.842 -0.23231 2.32342 0
M  V30 4219 C 412.823 -0.941637 1.41659 0
M  V30 4220 O 414.008 -0.928751 1.70552 0
M  V30 4221 C 411.138 -1.28387 3.22698 0
M  V30 4222 C 410.092 -0.693098 4.22351 0
M  V30 4223 C 409.418 -1.8468 5.01794 0
M  V30 4224 C 410.718 0.33063 5.21252 0
M  V30 4225 H 412.412 0.466192 2.95748 0
M  V30 4226 H 409.958 0.225643 1.42221 0
M  V30 4227 H 411.911 -1.82024 3.80059 0
M  V30 4228 H 410.635 -2.01186 2.57278 0
M  V30 4229 H 409.294 -0.178299 3.66166 0
M  V30 4230 H 408.942 -2.56301 4.32804 0
M  V30 4231 H 408.642 -1.45747 5.69238 0
M  V30 4232 H 410.166 -2.38709 5.62006 0
M  V30 4233 H 411.58 -0.118407 5.73178 0
M  V30 4234 H 409.977 0.636974 5.9671 0
M  V30 4235 H 411.047 1.23883 4.68808 0
M  V30 4236 N 412.39 -1.55475 0.257931 0
M  V30 4237 C 413.337 -2.21837 -0.636939 0
M  V30 4238 C 414.307 -1.18596 -1.16294 0
M  V30 4239 O 415.492 -1.47081 -1.21539 0
M  V30 4240 C 412.632 -2.9301 -1.82317 0
M  V30 4241 C 411.745 -4.10931 -1.33265 0
M  V30 4242 C 410.88 -4.69791 -2.47931 0
M  V30 4243 C 409.919 -5.7994 -1.95796 0
M  V30 4244 N 409.056 -6.32935 -3.0387 0
M  V30 4245 H 413.896 -2.9793 -0.0643591 0
M  V30 4246 H 411.433 -1.47086 -0.0200031 0
M  V30 4247 H 413.391 -3.3248 -2.52018 0
M  V30 4248 H 412.021 -2.1937 -2.36805 0
M  V30 4249 H 411.073 -3.76699 -0.52931 0
M  V30 4250 H 412.385 -4.90417 -0.910654 0
M  V30 4251 H 411.539 -5.11892 -3.25656 0
M  V30 4252 H 410.278 -3.89545 -2.93438 0
M  V30 4253 H 409.283 -5.37305 -1.16546 0
M  V30 4254 H 410.508 -6.62043 -1.51246 0
M  V30 4255 H 408.454 -5.55591 -3.48791 0
M  V30 4256 H 408.371 -7.07645 -2.66035 0
M  V30 4257 H 409.639 -6.79695 -3.81621 0
M  V30 4258 N 413.868 0.0150385 -1.57593 0
M  V30 4259 C 414.778 1.02791 -2.10882 0
M  V30 4260 C 415.794 1.38702 -1.0506 0
M  V30 4261 O 416.97 1.47739 -1.36877 0
M  V30 4262 C 414.035 2.30568 -2.58919 0
M  V30 4263 C 413.096 2.01108 -3.79281 0
M  V30 4264 C 412.329 3.22794 -4.25018 0
M  V30 4265 O 412.552 4.33959 -3.70183 0
M  V30 4266 O 411.486 3.07672 -5.17322 0
M  V30 4267 H 415.312 0.604973 -2.97613 0
M  V30 4268 H 412.897 0.23292 -1.47573 0
M  V30 4269 H 414.779 3.05662 -2.90084 0
M  V30 4270 H 413.454 2.72129 -1.75293 0
M  V30 4271 H 412.361 1.23537 -3.53114 0
M  V30 4272 H 413.694 1.64394 -4.63935 0
M  V30 4273 N 415.346 1.54954 0.287554 0
M  V30 4274 C 416.762 1.46469 0.633964 0
M  V30 4275 C 416.962 0.666865 1.90145 0
M  V30 4276 O 416.018 0.179906 2.51858 0
M  V30 4277 C 417.331 2.90556 0.774454 0
M  V30 4278 C 418.879 3.00681 0.869462 0
M  V30 4279 C 419.354 4.45993 1.04184 0
M  V30 4280 N 420.845 4.4976 1.10772 0
M  V30 4281 C 421.58 5.59393 1.25964 0
M  V30 4282 N 421.076 6.78923 1.37968 0
M  V30 4283 N 422.869 5.47107 1.28959 0
M  V30 4284 H 415.02 2.05288 -0.545041 0
M  V30 4285 H 417.283 0.930305 -0.182308 0
M  V30 4286 H 416.989 3.51594 -0.086207 0
M  V30 4287 H 416.863 3.38743 1.6593 0
M  V30 4288 H 419.25 2.39749 1.7206 0
M  V30 4289 H 419.331 2.55769 -0.0396831 0
M  V30 4290 H 418.975 5.07524 0.195422 0
M  V30 4291 H 418.905 4.88548 1.96542 0
M  V30 4292 H 421.396 3.63651 1.02794 0
M  V30 4293 H 421.709 7.58231 1.49353 0
M  V30 4294 H 420.054 6.81763 1.34999 0
M  V30 4295 H 423.245 4.52668 1.19202 0
M  V30 4296 H 423.418 6.32595 1.40455 0
M  V30 4297 N 416.824 -0.551391 1.4764 0
M  V30 4298 C 417.757 -1.6738 1.5511 0
M  V30 4299 C 418.735 -1.5753 0.402856 0
M  V30 4300 O 419.919 -1.78307 0.611475 0
M  V30 4301 C 417.046 -3.05661 1.45908 0
M  V30 4302 C 416.092 -3.33938 2.65307 0
M  V30 4303 S 416.925 -3.22553 4.27457 0
M  V30 4304 C 418.081 -4.63317 4.20818 0
M  V30 4305 H 418.314 -1.6079 2.50068 0
M  V30 4306 H 415.847 -0.732674 1.35909 0
M  V30 4307 H 417.805 -3.8542 1.41286 0
M  V30 4308 H 416.466 -3.09711 0.523248 0
M  V30 4309 H 415.659 -4.34761 2.54948 0
M  V30 4310 H 415.261 -2.61809 2.67081 0
M  V30 4311 H 417.553 -5.54391 3.89431 0
M  V30 4312 H 418.496 -4.78732 5.21748 0
M  V30 4313 H 418.904 -4.41636 3.51593 0
M  V30 4314 N 418.302 -1.35869 -0.798587 0
M  V30 4315 C 419.234 -1.25305 -1.91915 0
M  V30 4316 C 420.247 -0.174548 -1.61862 0
M  V30 4317 O 421.436 -0.428499 -1.73281 0
M  V30 4318 C 418.536 -0.9086 -3.26493 0
M  V30 4319 C 417.709 -2.08711 -3.84394 0
M  V30 4320 C 416.768 -1.71717 -4.97393 0
M  V30 4321 O 415.794 -2.43692 -5.14396 0
M  V30 4322 N 416.996 -0.645473 -5.769 0
M  V30 4323 H 419.761 -2.21849 -2.01502 0
M  V30 4324 H 417.322 -1.29143 -0.976408 0
M  V30 4325 H 419.314 -0.642455 -3.99568 0
M  V30 4326 H 417.884 -0.0325815 -3.12583 0
M  V30 4327 H 417.104 -2.51659 -3.03416 0
M  V30 4328 H 418.392 -2.87468 -4.19809 0
M  V30 4329 H 417.79 -0.047648 -5.6568 0
M  V30 4330 H 416.347 -0.43913 -6.50319 0
M  V30 4331 N 419.78 1.02168 -1.19998 0
M  V30 4332 C 420.728 2.12717 -0.940967 0
M  V30 4333 C 421.722 1.69069 0.105841 0
M  V30 4334 O 422.928 1.79946 -0.0440583 0
M  V30 4335 H 419.303 0.695108 -0.28693 0
M  V30 4336 H 421.274 2.3175 -1.87975 0
M  V30 4337 C 420.023 3.44027 -0.504049 0
M  V30 4338 H 419.346 3.78036 -1.30112 0
M  V30 4339 H 420.786 4.22452 -0.361991 0
M  V30 4340 C 419.245 3.27678 0.782878 0
M  V30 4341 O 419.775 3.56949 1.84256 0
M  V30 4342 N 417.981 2.80943 0.742921 0
M  V30 4343 H 417.528 2.57322 -0.119687 0
M  V30 4344 H 417.486 2.70385 1.60435 0
M  V30 4345 N 421.258 1.00505 1.21394 0
M  V30 4346 C 422.506 0.686415 1.90086 0
M  V30 4347 C 422.827 -0.785264 1.7849 0
M  V30 4348 O 422.097 -1.56387 1.17983 0
M  V30 4349 H 420.677 0.2509 0.703604 0
M  V30 4350 H 423.339 1.27417 1.47482 0
M  V30 4351 H 422.435 0.959621 2.96981 0
M  V30 4352 N 422.737 -1.36956 0.779787 0
M  V30 4353 C 423.962 -2.04283 0.358224 0
M  V30 4354 C 424.387 -1.58422 -1.01411 0
M  V30 4355 O 423.745 -0.748179 -1.65142 0
M  V30 4356 C 423.793 -3.58152 0.419479 0
M  V30 4357 O 422.897 -4.08342 -0.577142 0
M  V30 4358 H 422.238 -0.645967 0.153698 0
M  V30 4359 H 424.768 -1.75108 1.05822 0
M  V30 4360 H 424.778 -4.07041 0.279636 0
M  V30 4361 H 423.453 -3.90886 1.42061 0
M  V30 4362 H 422.03 -3.70751 -0.399755 0
M  V30 4363 N 424.215 -0.530993 -1.48385 0
M  V30 4364 C 425.464 0.00474348 -2.01699 0
M  V30 4365 C 425.777 1.35227 -1.41325 0
M  V30 4366 O 426.983 1.97643 -1.86144 0
M  V30 4367 C 425.439 0.0588473 -3.59852 0
M  V30 4368 C 425.047 -1.28385 -4.2921 0
M  V30 4369 C 426.791 0.543358 -4.21008 0
M  V30 4370 C 424.698 -1.19028 -5.79298 0
M  V30 4371 H 423.628 0.00554317 -0.75398 0
M  V30 4372 H 426.279 -0.674924 -1.70637 0
M  V30 4373 H 424.661 0.803612 -3.8776 0
M  V30 4374 H 425.835 -2.04426 -4.12973 0
M  V30 4375 H 424.15 -1.70418 -3.7993 0
M  V30 4376 H 426.747 0.631351 -5.3096 0
M  V30 4377 H 427.09 1.54937 -3.86394 0
M  V30 4378 H 427.623 -0.145754 -3.97533 0
M  V30 4379 H 424.362 -2.17147 -6.18488 0
M  V30 4380 H 423.882 -0.471246 -5.97946 0
M  V30 4381 H 425.561 -0.881365 -6.40969 0
M  V30 4382 N 425.693 1.55336 -0.266172 0
M  V30 4383 C 426.656 2.20878 0.612001 0
M  V30 4384 C 427.656 1.18388 1.08816 0
M  V30 4385 O 428.846 1.4335 0.989774 0
M  V30 4386 C 425.978 2.86765 1.84332 0
M  V30 4387 H 427.171 2.99873 0.0398718 0
M  V30 4388 H 424.724 1.56291 -0.0167309 0
M  V30 4389 H 425.459 2.11759 2.45619 0
M  V30 4390 H 425.244 3.61862 1.5099 0
M  V30 4391 H 426.734 3.36867 2.46801 0
M  V30 4392 N 427.171 -0.0066808 1.57599 0
M  V30 4393 C 428.448 -0.729586 1.81484 0
M  V30 4394 C 428.828 -1.92359 0.869558 0
M  V30 4395 O 428.176 -2.28348 -0.0832533 0
M  V30 4396 C 428.386 -1.1416 3.29801 0
M  V30 4397 C 429.734 -1.54823 3.95367 0
M  V30 4398 O 430.758 -1.23558 3.34084 0
M  V30 4399 O 429.617 -2.12937 5.03309 0
M  V30 4400 H 426.711 -0.354674 0.747085 0
M  V30 4401 H 429.257 0.0182609 1.6969 0
M  V30 4402 H 428.029 -0.290231 3.90222 0
M  V30 4403 H 427.652 -1.94876 3.46568 0
M  V30 4404 N 428.649 -1.55105 -0.279332 0
M  V30 4405 C 429.895 -1.76597 -1.00921 0
M  V30 4406 C 430.25 -0.556831 -1.84166 0
M  V30 4407 O 429.543 0.450573 -1.86227 0
M  V30 4408 C 429.737 -3.0086 -1.92919 0
M  V30 4409 C 429.566 -4.33744 -1.18728 0
M  V30 4410 C 428.336 -4.9712 -0.905545 0
M  V30 4411 C 430.534 -5.11009 -0.580857 0
M  V30 4412 N 428.516 -6.13749 -0.136169 0
M  V30 4413 C 429.887 -6.19976 0.0546661 0
M  V30 4414 C 431.942 -4.95502 -0.488067 0
M  V30 4415 C 430.645 -7.15123 0.774028 0
M  V30 4416 C 432.671 -5.90999 0.217688 0
M  V30 4417 C 432.033 -6.9935 0.841975 0
M  V30 4418 H 428.132 -0.698553 -0.351493 0
M  V30 4419 H 430.716 -1.92595 -0.285531 0
M  V30 4420 H 428.887 -2.86249 -2.62519 0
M  V30 4421 H 430.619 -3.10784 -2.59221 0
M  V30 4422 H 427.374 -4.57903 -1.20921 0
M  V30 4423 H 427.798 -6.7659 0.235665 0
M  V30 4424 H 432.44 -4.11841 -0.956406 0
M  V30 4425 H 430.158 -7.9831 1.25407 0
M  V30 4426 H 433.744 -5.81078 0.289717 0
M  V30 4427 H 432.624 -7.71973 1.37939 0
M  V30 4428 N 430.127 0.543554 -1.4793 0
M  V30 4429 C 431.074 1.64942 -1.6144 0
M  V30 4430 C 432.044 1.59692 -0.456903 0
M  V30 4431 O 433.229 1.78321 -0.678688 0
M  V30 4432 C 430.369 3.03238 -1.64744 0
M  V30 4433 C 429.482 3.18823 -2.91506 0
M  V30 4434 C 428.617 4.47599 -2.86057 0
M  V30 4435 C 427.656 4.56664 -4.07584 0
M  V30 4436 N 426.793 5.76811 -4.00292 0
M  V30 4437 H 431.633 1.52733 -2.55884 0
M  V30 4438 H 429.17 0.7438 -1.2691 0
M  V30 4439 H 431.128 3.83339 -1.64641 0
M  V30 4440 H 429.758 3.1425 -0.738017 0
M  V30 4441 H 428.81 2.32064 -3.01414 0
M  V30 4442 H 430.122 3.21384 -3.81463 0
M  V30 4443 H 429.276 5.35975 -2.84281 0
M  V30 4444 H 428.015 4.47538 -1.93807 0
M  V30 4445 H 427.02 3.66697 -4.09651 0
M  V30 4446 H 428.245 4.58474 -5.00978 0
M  V30 4447 H 426.191 5.77673 -3.10853 0
M  V30 4448 H 426.108 5.80808 -4.8394 0
M  V30 4449 H 427.376 6.67512 -4.02553 0
M  V30 4450 N 431.605 1.3629 0.791371 0
M  V30 4451 C 432.555 1.26988 1.89362 0
M  V30 4452 C 433.539 0.161795 1.60084 0
M  V30 4453 O 434.731 0.394426 1.72549 0
M  V30 4454 C 431.86 1.05944 3.26544 0
M  V30 4455 C 430.946 2.21211 3.61838 0
M  V30 4456 N 431.337 3.46518 3.68455 0
M  V30 4457 C 429.635 2.12933 3.91887 0
M  V30 4458 C 430.336 4.2241 3.99931 0
M  V30 4459 N 429.312 3.51329 4.14812 0
M  V30 4460 H 433.114 2.21908 1.92702 0
M  V30 4461 H 430.628 1.28982 0.986787 0
M  V30 4462 H 432.625 0.973666 4.05371 0
M  V30 4463 H 431.285 0.119223 3.24481 0
M  V30 4464 H 432.296 3.80677 3.51148 0
M  V30 4465 H 428.973 1.26855 3.97761 0
M  V30 4466 H 430.363 5.30767 4.1199 0
M  V30 4467 N 433.083 -1.0153 1.20538 0
M  V30 4468 C 434.331 -1.74803 1.01432 0
M  V30 4469 C 434.652 -1.8963 -0.454456 0
M  V30 4470 O 433.922 -1.43975 -1.32846 0
M  V30 4471 H 432.502 -0.647598 0.372324 0
M  V30 4472 H 435.164 -1.22402 1.5167 0
M  V30 4473 H 434.26 -2.75114 1.47373 0
M  V30 4474 N 434.561 -1.01147 -1.20859 0
M  V30 4475 C 435.491 -0.597663 -2.25722 0
M  V30 4476 C 436.472 0.384744 -1.65692 0
M  V30 4477 O 437.657 0.271303 -1.92296 0
M  V30 4478 C 434.787 0.0700149 -3.47229 0
M  V30 4479 C 433.741 -0.832843 -4.19819 0
M  V30 4480 C 433.067 -0.0312202 -5.34691 0
M  V30 4481 C 434.367 -2.1385 -4.76514 0
M  V30 4482 H 436.061 -1.47423 -2.60589 0
M  V30 4483 H 433.607 -0.710301 -1.25263 0
M  V30 4484 H 435.56 0.37103 -4.19763 0
M  V30 4485 H 434.284 0.981259 -3.11511 0
M  V30 4486 H 432.943 -1.11778 -3.49144 0
M  V30 4487 H 432.591 0.881515 -4.95215 0
M  V30 4488 H 432.291 -0.632434 -5.84187 0
M  V30 4489 H 433.815 0.26346 -6.10031 0
M  V30 4490 H 435.229 -1.9002 -5.40893 0
M  V30 4491 H 433.626 -2.69012 -5.36426 0
M  V30 4492 H 434.696 -2.80495 -3.95538 0
M  V30 4493 N 436.039 1.36541 -0.78704 0
M  V30 4494 C 436.987 2.31965 -0.171724 0
M  V30 4495 C 437.981 1.55689 0.667631 0
M  V30 4496 O 439.187 1.70969 0.562981 0
M  V30 4497 H 435.562 0.751101 -0.0367545 0
M  V30 4498 H 437.533 2.81428 -0.992017 0
M  V30 4499 C 436.282 3.40968 0.680904 0
M  V30 4500 H 435.605 3.99775 0.0443961 0
M  V30 4501 H 437.045 4.10063 1.07815 0
M  V30 4502 C 435.504 2.82338 1.83813 0
M  V30 4503 O 436.034 2.74311 2.93456 0
M  V30 4504 N 434.24 2.39661 1.6435 0
M  V30 4505 H 433.787 2.46389 0.751668 0
M  V30 4506 H 433.745 2.00779 2.4194 0
M  V30 4507 N 437.518 0.538854 1.48102 0
M  V30 4508 C 438.766 0.00798599 2.02098 0
M  V30 4509 C 439.087 -1.33922 1.41739 0
M  V30 4510 O 438.357 -1.86932 0.585934 0
M  V30 4511 H 436.937 -3.62179e-05 0.747 0
M  V30 4512 H 439.599 0.7047 1.81714 0
M  V30 4513 H 438.695 -0.0937672 3.11959 0
M  V30 4514 N 438.996 -1.55193 0.274407 0
M  V30 4515 C 439.944 -2.23924 -0.629362 0
M  V30 4516 C 440.938 -1.23602 -1.1584 0
M  V30 4517 O 442.144 -1.41535 -1.11211 0
M  V30 4518 H 438.519 -0.718637 -0.221507 0
M  V30 4519 H 440.49 -2.98388 -0.0268322 0
M  V30 4520 C 439.239 -2.97329 -1.80252 0
M  V30 4521 H 438.562 -3.74313 -1.40462 0
M  V30 4522 H 440.002 -3.48743 -2.41152 0
M  V30 4523 C 438.461 -2.0276 -2.69054 0
M  V30 4524 O 438.991 -1.57836 -3.69392 0
M  V30 4525 N 437.197 -1.69275 -2.36208 0
M  V30 4526 H 436.744 -2.06004 -1.54661 0
M  V30 4527 H 436.702 -1.06271 -2.95895 0
M  V30 4528 N 440.474 -0.00167713 -1.576 0
M  V30 4529 C 441.885 0.54091 -1.78693 0
M  V30 4530 C 442.236 1.7386 -0.909247 0
M  V30 4531 O 441.361 2.16109 -0.112176 0
M  V30 4532 C 441.956 0.98806 -3.24072 0
M  V30 4533 C 440.515 1.47594 -3.46256 0
M  V30 4534 C 439.662 0.42792 -2.73978 0
M  V30 4535 H 442.613 -0.22784 -1.57056 0
M  V30 4536 H 442.634 1.85398 -3.32277 0
M  V30 4537 H 442.146 0.116164 -3.87926 0
M  V30 4538 H 440.247 2.36868 -2.87618 0
M  V30 4539 H 440.36 1.50225 -4.54939 0
M  V30 4540 H 438.724 0.889934 -2.38647 0
M  V30 4541 H 439.507 -0.435038 -3.40532 0
M  V30 4542 N 441.952 1.55251 0.271103 0
M  V30 4543 C 443.229 1.66664 1.02384 0
M  V30 4544 C 443.609 0.534363 2.04225 0
M  V30 4545 O 442.957 -0.465337 2.23712 0
M  V30 4546 C 443.167 3.05961 1.67895 0
M  V30 4547 C 444.515 3.63772 2.18986 0
M  V30 4548 O 445.539 3.08606 1.77878 0
M  V30 4549 O 444.398 4.60429 2.94393 0
M  V30 4550 H 441.492 0.676957 0.475035 0
M  V30 4551 H 444.038 1.67589 0.26681 0
M  V30 4552 H 442.81 3.79815 0.941071 0
M  V30 4553 H 442.433 3.08943 2.5028 0
M  V30 4554 N 443.43 -0.535701 1.48216 0
M  V30 4555 C 444.841 -1.11769 1.49548 0
M  V30 4556 C 445.192 -1.94442 0.26207 0
M  V30 4557 O 444.317 -2.06987 -0.631287 0
M  V30 4558 C 444.912 -2.03367 2.70975 0
M  V30 4559 C 443.471 -2.56795 2.75196 0
M  V30 4560 C 442.618 -1.33631 2.42977 0
M  V30 4561 H 445.569 -0.321232 1.55415 0
M  V30 4562 H 445.59 -2.87569 2.49167 0
M  V30 4563 H 445.102 -1.43169 3.60727 0
M  V30 4564 H 443.203 -3.20731 1.89638 0
M  V30 4565 H 443.316 -2.9632 3.76472 0
M  V30 4566 H 441.68 -1.6502 1.94012 0
M  V30 4567 H 442.463 -0.75194 3.34964 0
M  V30 4568 N 444.908 -1.36708 -0.784132 0
M  V30 4569 C 446.324 -1.17237 -1.08294 0
M  V30 4570 C 446.524 -5.93947e-05 -2.015 0
M  V30 4571 O 445.58 0.663686 -2.43622 0
M  V30 4572 C 446.893 -2.48557 -1.69233 0
M  V30 4573 C 448.441 -2.54968 -1.8155 0
M  V30 4574 C 448.916 -3.86388 -2.45904 0
M  V30 4575 N 450.407 -3.87762 -2.53367 0
M  V30 4576 C 451.142 -4.86191 -3.03983 0
M  V30 4577 N 450.638 -5.95015 -3.54866 0
M  V30 4578 N 452.431 -4.73606 -3.02743 0
M  V30 4579 H 444.582 -2.11758 -0.16501 0
M  V30 4580 H 446.845 -0.93822 -0.135822 0
M  V30 4581 H 446.551 -3.34638 -1.08215 0
M  V30 4582 H 446.425 -2.64748 -2.68679 0
M  V30 4583 H 448.812 -1.69302 -2.41704 0
M  V30 4584 H 448.893 -2.42672 -0.80895 0
M  V30 4585 H 448.537 -4.72462 -1.86392 0
M  V30 4586 H 448.467 -3.95982 -3.4714 0
M  V30 4587 H 450.958 -3.09145 -2.17343 0
M  V30 4588 H 451.271 -6.66086 -3.91854 0
M  V30 4589 H 449.616 -5.98676 -3.53003 0
M  V30 4590 H 452.807 -3.87717 -2.62284 0
M  V30 4591 H 452.98 -5.50473 -3.41881 0
M  V30 4592 N 446.386 1.0089 -1.21074 0
M  V30 4593 C 447.632 1.7497 -1.03717 0
M  V30 4594 C 447.987 1.8764 0.425344 0
M  V30 4595 O 447.28 1.39679 1.3115 0
M  V30 4596 C 447.474 3.16335 -1.66334 0
M  V30 4597 C 447.303 3.17449 -3.18522 0
M  V30 4598 C 446.073 3.2425 -3.87543 0
M  V30 4599 C 448.271 3.02877 -4.15656 0
M  V30 4600 N 446.253 3.14949 -5.26954 0
M  V30 4601 C 447.624 3.0143 -5.41793 0
M  V30 4602 C 449.679 2.8715 -4.06755 0
M  V30 4603 C 448.382 2.85869 -6.60054 0
M  V30 4604 C 450.408 2.72944 -5.24648 0
M  V30 4605 C 449.77 2.72171 -6.49694 0
M  V30 4606 H 445.869 0.650627 -0.43383 0
M  V30 4607 H 448.453 1.19944 -1.53367 0
M  V30 4608 H 446.624 3.69638 -1.19256 0
M  V30 4609 H 448.356 3.78888 -1.42219 0
M  V30 4610 H 445.111 3.31288 -3.38446 0
M  V30 4611 H 445.535 3.13651 -5.9996 0
M  V30 4612 H 450.177 2.86557 -3.10878 0
M  V30 4613 H 447.895 2.8521 -7.56096 0
M  V30 4614 H 451.481 2.61782 -5.19578 0
M  V30 4615 H 450.361 2.61307 -7.39384 0
M  V30 4616 N 447.864 1.01787 1.20321 0
M  V30 4617 C 449.28 0.732951 1.41774 0
M  V30 4618 C 449.48 -0.686883 1.89431 0
M  V30 4619 O 448.536 -1.45446 2.06402 0
M  V30 4620 C 449.849 1.75973 2.43832 0
M  V30 4621 C 451.397 1.77802 2.57596 0
M  V30 4622 C 451.872 2.7941 3.62897 0
M  V30 4623 N 453.363 2.78157 3.70382 0
M  V30 4624 C 454.098 3.53434 4.51521 0
M  V30 4625 N 453.594 4.38392 5.36455 0
M  V30 4626 N 455.387 3.42026 4.46066 0
M  V30 4627 H 447.538 1.93447 0.877035 0
M  V30 4628 H 449.801 0.835712 0.447536 0
M  V30 4629 H 449.507 2.77699 2.15815 0
M  V30 4630 H 449.381 1.57292 3.4284 0
M  V30 4631 H 451.768 0.767602 2.84942 0
M  V30 4632 H 451.849 2.00557 1.58779 0
M  V30 4633 H 451.493 3.80616 3.36295 0
M  V30 4634 H 451.423 2.53916 4.61339 0
M  V30 4635 H 453.914 2.16531 3.09714 0
M  V30 4636 H 454.227 4.92596 5.95457 0
M  V30 4637 H 452.572 4.4247 5.35953 0
M  V30 4638 H 455.763 2.75075 3.78749 0
M  V30 4639 H 455.936 4.00946 5.09064 0
M  V30 4640 N 449.342 -1.36122 0.79427 0
M  V30 4641 C 450.252 -2.33769 0.197296 0
M  V30 4642 C 451.268 -1.61276 -0.653153 0
M  V30 4643 O 452.444 -1.9323 -0.5678 0
M  V30 4644 C 449.509 -3.40474 -0.654098 0
M  V30 4645 C 448.57 -4.28759 0.215411 0
M  V30 4646 C 447.803 -5.30368 -0.595443 0
M  V30 4647 O 448.026 -5.40211 -1.83107 0
M  V30 4648 O 446.96 -6.019 0.00721351 0
M  V30 4649 H 450.786 -2.86597 1.00478 0
M  V30 4650 H 448.371 -1.38676 0.555818 0
M  V30 4651 H 450.253 -4.05703 -1.13944 0
M  V30 4652 H 448.928 -2.89937 -1.43938 0
M  V30 4653 H 447.835 -3.66554 0.747615 0
M  V30 4654 H 449.168 -4.82661 0.964332 0
M  V30 4655 N 450.82 -0.546701 -1.47814 0
M  V30 4656 C 452.066 -0.0187684 -2.02791 0
M  V30 4657 C 452.399 1.32338 -1.42128 0
M  V30 4658 O 451.674 1.85867 -0.573023 0
M  V30 4659 C 451.957 0.0854985 -3.59998 0
M  V30 4660 C 451.81 -1.283 -4.31114 0
M  V30 4661 C 453.129 0.80412 -4.32691 0
M  V30 4662 H 450.248 -0.0082946 -0.736953 0
M  V30 4663 H 452.89 -0.706962 -1.76358 0
M  V30 4664 H 451.04 0.671609 -3.82651 0
M  V30 4665 H 452.712 -1.91151 -4.19832 0
M  V30 4666 H 450.955 -1.86049 -3.91878 0
M  V30 4667 H 451.626 -1.16287 -5.39612 0
M  V30 4668 H 454.102 0.306576 -4.14969 0
M  V30 4669 H 452.978 0.846011 -5.42341 0
M  V30 4670 H 453.239 1.85802 -4.01161 0
M  V30 4671 N 452.299 1.55045 -0.282633 0
M  V30 4672 C 453.262 2.21515 0.588539 0
M  V30 4673 C 454.262 1.19535 1.07554 0
M  V30 4674 O 455.452 1.44391 0.974514 0
M  V30 4675 C 452.584 2.88704 1.8128 0
M  V30 4676 H 453.777 2.99899 0.00806397 0
M  V30 4677 H 451.33 1.56265 -0.0333067 0
M  V30 4678 H 452.065 2.14352 2.43359 0
M  V30 4679 H 451.85 3.63443 1.47144 0
M  V30 4680 H 453.34 3.39465 2.43214 0
M  V30 4681 N 453.777 0.010035 1.57597 0
M  V30 4682 C 455.023 -0.673697 1.91283 0
M  V30 4683 C 455.356 -1.72863 0.884979 0
M  V30 4684 O 454.631 -1.94268 -0.0949487 0
M  V30 4685 C 454.914 -1.30766 3.35518 0
M  V30 4686 C 454.767 -0.263578 4.49027 0
M  V30 4687 C 456.086 -2.23105 3.79358 0
M  V30 4688 H 453.205 -0.243439 0.695634 0
M  V30 4689 H 455.847 0.0633864 1.89894 0
M  V30 4690 H 453.997 -1.93588 3.36832 0
M  V30 4691 H 455.669 0.365738 4.59848 0
M  V30 4692 H 453.912 0.413077 4.31829 0
M  V30 4693 H 454.583 -0.746398 5.4693 0
M  V30 4694 H 457.059 -1.70289 3.79659 0
M  V30 4695 H 455.935 -2.64424 4.81011 0
M  V30 4696 H 456.196 -3.11433 3.13787 0
M  V30 4697 N 455.255 -1.55392 -0.262866 0
M  V30 4698 C 456.483 -1.80513 -1.01108 0
M  V30 4699 C 456.898 -0.583533 -1.79556 0
M  V30 4700 O 456.255 0.447585 -1.76926 0
M  V30 4701 C 456.306 -3.03648 -1.96164 0
M  V30 4702 O 456.027 -4.2109 -1.20893 0
M  V30 4703 C 457.528 -3.41448 -2.82715 0
M  V30 4704 H 454.748 -0.601079 -0.298236 0
M  V30 4705 H 457.292 -2.02425 -0.290582 0
M  V30 4706 H 455.447 -2.83832 -2.63663 0
M  V30 4707 H 455.861 -4.90771 -1.85051 0
M  V30 4708 H 457.335 -4.30751 -3.45192 0
M  V30 4709 H 457.812 -2.61308 -3.53008 0
M  V30 4710 H 458.418 -3.63559 -2.20693 0
M  V30 4711 N 456.733 0.527833 -1.48498 0
M  V30 4712 C 457.98 1.28354 -1.56625 0
M  V30 4713 C 458.308 1.93 -0.241096 0
M  V30 4714 O 457.563 1.79967 0.768798 0
M  V30 4715 C 457.862 2.39275 -2.65485 0
M  V30 4716 C 457.528 1.92268 -4.07853 0
M  V30 4717 C 456.19 1.79166 -4.46602 0
M  V30 4718 C 458.542 1.56771 -4.97064 0
M  V30 4719 C 455.87 1.28905 -5.72364 0
M  V30 4720 C 458.222 1.07972 -6.23318 0
M  V30 4721 C 456.886 0.934887 -6.60921 0
M  V30 4722 H 456.156 0.469682 -0.573131 0
M  V30 4723 H 458.803 0.588781 -1.82224 0
M  V30 4724 H 457.108 3.1443 -2.33754 0
M  V30 4725 H 458.805 2.974 -2.68988 0
M  V30 4726 H 455.395 2.03417 -3.77252 0
M  V30 4727 H 459.579 1.65753 -4.67803 0
M  V30 4728 H 454.835 1.16381 -6.00221 0
M  V30 4729 H 459.009 0.795775 -6.91838 0
M  V30 4730 H 456.636 0.543231 -7.58257 0
M  V30 4731 N 458.211 1.37122 0.776871 0
M  V30 4732 C 459.457 1.32243 1.53752 0
M  V30 4733 C 459.79 -0.0944745 1.9397 0
M  V30 4734 O 459.065 -1.05068 1.6368 0
M  V30 4735 C 459.348 2.25681 2.80607 0
M  V30 4736 C 459.201 3.76127 2.46676 0
M  V30 4737 C 460.52 2.17657 3.82509 0
M  V30 4738 H 457.639 0.481704 0.557791 0
M  V30 4739 H 460.281 1.6778 0.891612 0
M  V30 4740 H 458.431 1.95505 3.35723 0
M  V30 4741 H 460.103 4.16877 1.97513 0
M  V30 4742 H 458.346 3.94946 1.79443 0
M  V30 4743 H 459.017 4.36933 3.37333 0
M  V30 4744 H 461.493 2.44245 3.36873 0
M  V30 4745 H 460.369 2.85185 4.69 0
M  V30 4746 H 460.63 1.16785 4.26396 0
M  V30 4747 N 459.689 -1.00246 1.21608 0
M  V30 4748 C 460.966 -1.71336 0.943568 0
M  V30 4749 C 461.346 -2.03972 -0.543943 0
M  V30 4750 O 460.694 -1.71545 -1.50946 0
M  V30 4751 C 460.904 -2.97094 1.83128 0
M  V30 4752 C 462.252 -3.70071 2.08165 0
M  V30 4753 O 463.276 -3.07081 1.80498 0
M  V30 4754 O 462.135 -4.83376 2.54971 0
M  V30 4755 H 459.229 -0.747386 0.354039 0
M  V30 4756 H 461.775 -1.05967 1.32549 0
M  V30 4757 H 460.547 -2.69407 2.83788 0
M  V30 4758 H 460.17 -3.70204 1.45034 0
M  V30 4759 N 461.167 -1.02423 -1.1978 0
M  V30 4760 C 462.115 -0.594474 -2.24875 0
M  V30 4761 C 463.109 0.370598 -1.65296 0
M  V30 4762 O 464.315 0.239684 -1.78397 0
M  V30 4763 H 460.69 -0.173961 -0.731602 0
M  V30 4764 H 462.661 -1.4916 -2.58445 0
M  V30 4765 C 461.41 0.0436512 -3.47673 0
M  V30 4766 H 460.733 -0.689963 -3.93801 0
M  V30 4767 H 462.173 0.307362 -4.22884 0
M  V30 4768 C 460.632 1.28881 -3.11274 0
M  V30 4769 O 461.162 2.38135 -3.23503 0
M  V30 4770 N 459.368 1.1758 -2.6575 0
M  V30 4771 H 458.915 0.286769 -2.55999 0
M  V30 4772 H 458.873 2.00988 -2.41767 0
M  V30 4773 N 462.645 1.35699 -0.801477 0
M  V30 4774 C 463.595 2.2728 -0.181073 0
M  V30 4775 C 464.579 1.47533 0.642098 0
M  V30 4776 O 465.771 1.69785 0.500193 0
M  V30 4777 C 462.9 3.36626 0.673612 0
M  V30 4778 C 461.986 4.23802 -0.159008 0
M  V30 4779 N 462.377 4.90879 -1.2195 0
M  V30 4780 C 460.675 4.45959 0.0602005 0
M  V30 4781 C 461.376 5.5546 -1.72738 0
M  V30 4782 N 460.352 5.33663 -1.03465 0
M  V30 4783 H 464.154 2.76632 -0.992582 0
M  V30 4784 H 461.668 1.49166 -0.642127 0
M  V30 4785 H 463.665 4.01179 1.13408 0
M  V30 4786 H 462.325 2.88828 1.48353 0
M  V30 4787 H 463.336 4.92497 -1.60209 0
M  V30 4788 H 460.013 4.08969 0.839664 0
M  V30 4789 H 461.403 6.18991 -2.61342 0
M  V30 4790 N 464.123 0.554532 1.47522 0
M  V30 4791 C 465.4 -0.0360704 1.95567 0
M  V30 4792 C 465.78 -1.48828 1.49711 0
M  V30 4793 O 465.128 -2.16366 0.734717 0
M  V30 4794 C 465.338 0.106631 3.48837 0
M  V30 4795 C 466.686 -0.0400899 4.24581 0
M  V30 4796 O 467.71 0.0340453 3.56184 0
M  V30 4797 O 466.569 -0.199111 5.46137 0
M  V30 4798 H 463.663 -0.0656294 0.824392 0
M  V30 4799 H 466.209 0.620867 1.57935 0
M  V30 4800 H 464.981 1.11727 3.7501 0
M  V30 4801 H 464.604 -0.58804 3.93227 0
M  V30 4802 N 465.601 -1.54893 0.290851 0
M  V30 4803 C 466.829 -2.04343 -0.324288 0
M  V30 4804 C 467.244 -1.16859 -1.48289 0
M  V30 4805 O 466.601 -0.192018 -1.81487 0
M  V30 4806 C 466.652 -3.52756 -0.79026 0
M  V30 4807 O 466.373 -4.36913 0.322213 0
M  V30 4808 C 467.874 -4.18161 -1.4716 0
M  V30 4809 H 465.094 -0.667135 -0.0719173 0
M  V30 4810 H 467.638 -1.99981 0.427529 0
M  V30 4811 H 465.793 -3.57511 -1.49213 0
M  V30 4812 H 466.207 -5.24486 -0.0387372 0
M  V30 4813 H 467.681 -5.23562 -1.7489 0
M  V30 4814 H 468.158 -3.67282 -2.40834 0
M  V30 4815 H 468.764 -4.17454 -0.813178 0
M  V30 4816 N 467.08 -0.0183926 -1.57589 0
M  V30 4817 C 468.328 0.661253 -1.90976 0
M  V30 4818 C 468.649 1.73281 -0.894353 0
M  V30 4819 O 467.919 1.9579 0.0656788 0
M  V30 4820 H 466.499 0.247233 -0.704901 0
M  V30 4821 H 469.161 -0.0636639 -1.94796 0
M  V30 4822 H 468.257 1.12083 -2.9128 0
M  V30 4823 N 468.558 1.5553 0.254621 0
M  V30 4824 C 469.788 1.80784 1.00004 0
M  V30 4825 C 470.196 0.59071 1.79742 0
M  V30 4826 O 469.539 -0.449988 1.78103 0
M  V30 4827 C 469.601 2.99268 1.99196 0
M  V30 4828 C 469.265 4.35595 1.38224 0
M  V30 4829 C 470.262 5.13884 0.788611 0
M  V30 4830 C 467.947 4.82281 1.40393 0
M  V30 4831 C 469.941 6.37004 0.224783 0
M  V30 4832 C 467.628 6.05351 0.836243 0
M  V30 4833 C 468.626 6.82551 0.24769 0
M  V30 4834 O 468.314 8.03297 -0.311249 0
M  V30 4835 H 468.046 0.60565 0.300274 0
M  V30 4836 H 470.6 2.03411 0.285143 0
M  V30 4837 H 468.83 2.72377 2.74496 0
M  V30 4838 H 470.519 3.11682 2.60018 0
M  V30 4839 H 471.285 4.78938 0.764423 0
M  V30 4840 H 467.164 4.22189 1.85142 0
M  V30 4841 H 470.708 6.97203 -0.235235 0
M  V30 4842 H 466.605 6.39776 0.857733 0
M  V30 4843 H 467.373 8.1825 -0.20237 0
M  V30 4844 N 470.036 -0.519951 1.48776 0
M  V30 4845 C 471.261 -1.30447 1.6124 0
M  V30 4846 C 471.686 -1.86055 0.276591 0
M  V30 4847 O 471.044 -1.64915 -0.753183 0
M  V30 4848 C 471.092 -2.42406 2.66967 0
M  V30 4849 O 470.196 -3.45728 2.24824 0
M  V30 4850 H 469.537 -0.385924 0.540332 0
M  V30 4851 H 472.067 -0.624572 1.94834 0
M  V30 4852 H 472.077 -2.88447 2.88552 0
M  V30 4853 H 470.752 -2.01294 3.63941 0
M  V30 4854 H 469.329 -3.05737 2.13494 0
M  V30 4855 N 471.514 -1.37532 -0.769588 0
M  V30 4856 C 472.925 -1.29382 -1.346 0
M  V30 4857 C 473.276 0.0576039 -1.96115 0
M  V30 4858 O 472.401 0.95947 -1.93967 0
M  V30 4859 C 472.996 -2.34298 -2.44724 0
M  V30 4860 C 471.555 -2.29776 -2.98128 0
M  V30 4861 C 470.702 -2.18013 -1.71364 0
M  V30 4862 H 473.653 -1.48123 -0.56968 0
M  V30 4863 H 473.674 -1.99089 -3.24259 0
M  V30 4864 H 473.186 -3.32645 -1.99922 0
M  V30 4865 H 471.287 -1.34959 -3.47299 0
M  V30 4866 H 471.4 -3.23276 -3.53595 0
M  V30 4867 H 469.764 -1.64595 -1.94372 0
M  V30 4868 H 470.547 -3.18278 -1.28662 0
M  V30 4869 N 472.992 0.995999 -1.22138 0
M  V30 4870 C 474.24 1.73167 -1.042 0
M  V30 4871 C 474.561 1.90329 0.42423 0
M  V30 4872 O 473.831 1.4607 1.30539 0
M  V30 4873 H 472.411 0.641593 -0.38258 0
M  V30 4874 H 475.073 1.19974 -1.53598 0
M  V30 4875 H 474.169 2.72734 -1.51731 0
M  V30 4876 N 474.47 1.03057 1.19235 0
M  V30 4877 C 475.402 0.570932 2.21975 0
M  V30 4878 C 476.415 -0.354088 1.58903 0
M  V30 4879 O 477.604 -0.150211 1.77867 0
M  V30 4880 C 474.704 -0.187152 3.38383 0
M  V30 4881 C 473.877 0.743231 4.31039 0
M  V30 4882 C 472.936 0.0302493 5.26191 0
M  V30 4883 O 471.962 0.657371 5.65391 0
M  V30 4884 N 473.164 -1.23991 5.67104 0
M  V30 4885 H 475.929 1.45456 2.62036 0
M  V30 4886 H 473.49 0.909807 1.33918 0
M  V30 4887 H 475.482 -0.673715 3.99053 0
M  V30 4888 H 474.052 -0.972205 2.97098 0
M  V30 4889 H 473.272 1.40985 3.68126 0
M  V30 4890 H 474.56 1.3755 4.89854 0
M  V30 4891 H 473.958 -1.77011 5.37293 0
M  V30 4892 H 472.515 -1.67093 6.30018 0
M  V30 4893 N 475.948 -1.35272 0.808662 0
M  V30 4894 C 476.896 -2.31663 0.208606 0
M  V30 4895 C 477.89 -1.56731 -0.642778 0
M  V30 4896 O 479.096 -1.71843 -0.53571 0
M  V30 4897 H 475.471 -0.750421 0.0486993 0
M  V30 4898 H 477.442 -2.79814 1.03666 0
M  V30 4899 C 476.191 -3.42008 -0.626573 0
M  V30 4900 H 475.514 -3.99795 0.0192103 0
M  V30 4901 H 476.954 -4.11727 -1.01278 0
M  V30 4902 C 475.413 -2.85226 -1.79298 0
M  V30 4903 O 475.943 -2.78945 -2.89055 0
M  V30 4904 N 474.149 -2.42245 -1.60516 0
M  V30 4905 H 473.696 -2.47554 -0.712375 0
M  V30 4906 H 473.654 -2.04603 -2.38715 0
M  V30 4907 N 477.426 -0.562348 -1.47226 0
M  V30 4908 C 478.674 -0.0401371 -2.0206 0
M  V30 4909 C 478.995 1.3165 -1.43852 0
M  V30 4910 O 478.265 1.85976 -0.615599 0
M  V30 4911 H 476.845 -0.0118479 -0.746906 0
M  V30 4912 H 479.507 -0.73352 -1.8057 0
M  V30 4913 H 478.603 0.0441254 -3.12069 0
M  V30 4914 N 478.904 1.54736 -0.299062 0
M  V30 4915 C 480.152 1.99706 0.31017 0
M  V30 4916 C 480.473 1.18896 1.54559 0
M  V30 4917 O 479.743 0.284445 1.93824 0
M  V30 4918 H 478.323 0.737686 0.117596 0
M  V30 4919 H 480.985 1.9054 -0.409943 0
M  V30 4920 H 480.081 3.06596 0.58355 0
M  V30 4921 N 480.382 0.0267497 1.57577 0
M  V30 4922 C 481.314 -0.984594 2.06974 0
M  V30 4923 C 482.327 -1.29032 0.992705 0
M  V30 4924 O 483.516 -1.25539 1.26895 0
M  V30 4925 C 480.616 -2.31262 2.47732 0
M  V30 4926 C 479.789 -2.1924 3.78487 0
M  V30 4927 C 478.848 -3.34956 4.05821 0
M  V30 4928 O 477.874 -3.11948 4.76106 0
M  V30 4929 N 479.076 -4.58672 3.55809 0
M  V30 4930 H 481.841 -0.563143 2.94362 0
M  V30 4931 H 479.402 -0.160061 1.61107 0
M  V30 4932 H 481.394 -3.07496 2.63112 0
M  V30 4933 H 479.964 -2.65056 1.65723 0
M  V30 4934 H 479.184 -1.27747 3.72927 0
M  V30 4935 H 480.472 -2.08409 4.64158 0
M  V30 4936 H 479.87 -4.8026 2.98942 0
M  V30 4937 H 478.427 -5.32083 3.76472 0
M  V30 4938 N 481.861 -1.55662 -0.24637 0
M  V30 4939 C 482.811 -1.86753 -1.30795 0
M  V30 4940 C 483.795 -0.728445 -1.43466 0
M  V30 4941 O 484.987 -0.99038 -1.46699 0
M  V30 4942 C 482.116 -2.16618 -2.66329 0
M  V30 4943 C 481.202 -3.36855 -2.57661 0
M  V30 4944 N 481.593 -4.56111 -2.18624 0
M  V30 4945 C 479.891 -3.39976 -2.88673 0
M  V30 4946 C 480.592 -5.38247 -2.20601 0
M  V30 4947 N 479.568 -4.77322 -2.60124 0
M  V30 4948 H 483.37 -2.76486 -0.996642 0
M  V30 4949 H 480.884 -1.55896 -0.454994 0
M  V30 4950 H 482.881 -2.37057 -3.42942 0
M  V30 4951 H 481.541 -1.28185 -2.98327 0
M  V30 4952 H 482.552 -4.81726 -1.9016 0
M  V30 4953 H 479.229 -2.61815 -3.25206 0
M  V30 4954 H 480.619 -6.43657 -1.92756 0
M  V30 4955 N 483.339 0.512053 -1.4905 0
M  V30 4956 C 484.289 1.61142 -1.61298 0
M  V30 4957 C 485.273 1.53908 -0.46916 0
M  V30 4958 O 486.465 1.61625 -0.721547 0
M  V30 4959 C 483.594 2.998 -1.67256 0
M  V30 4960 C 482.68 3.12072 -2.87179 0
M  V30 4961 N 483.071 2.94263 -4.11391 0
M  V30 4962 C 481.369 3.43156 -2.84886 0
M  V30 4963 C 482.07 3.10426 -4.91946 0
M  V30 4964 N 481.046 3.38808 -4.251 0
M  V30 4965 H 484.848 1.46011 -2.55065 0
M  V30 4966 H 482.362 0.717934 -1.45669 0
M  V30 4967 H 484.359 3.78794 -1.74128 0
M  V30 4968 H 483.019 3.1601 -0.746195 0
M  V30 4969 H 484.03 2.70661 -4.41546 0
M  V30 4970 H 480.707 3.65611 -2.01581 0
M  V30 4971 H 482.097 3.01243 -6.00585 0
M  V30 4972 N 484.817 1.37938 0.762283 0
M  V30 4973 C 486.063 1.34873 1.52253 0
M  V30 4974 C 486.418 -0.0635972 1.92295 0
M  V30 4975 O 485.711 -1.02434 1.61919 0
M  V30 4976 C 485.905 2.23042 2.79261 0
M  V30 4977 C 485.734 3.72706 2.51635 0
M  V30 4978 C 484.504 4.41771 2.45289 0
M  V30 4979 C 486.702 4.65345 2.18994 0
M  V30 4980 N 484.684 5.76921 2.09846 0
M  V30 4981 C 486.055 5.88943 1.9377 0
M  V30 4982 C 488.11 4.53636 2.0523 0
M  V30 4983 C 486.813 7.02142 1.5617 0
M  V30 4984 C 488.839 5.6673 1.69031 0
M  V30 4985 C 488.201 6.89383 1.44673 0
M  V30 4986 H 484.3 0.548818 0.557067 0
M  V30 4987 H 486.884 1.73247 0.888458 0
M  V30 4988 H 485.055 1.8687 3.40491 0
M  V30 4989 H 486.787 2.11165 3.45241 0
M  V30 4990 H 483.542 3.94883 2.61465 0
M  V30 4991 H 483.966 6.4837 1.94794 0
M  V30 4992 H 488.608 3.5937 2.2274 0
M  V30 4993 H 486.326 7.96334 1.37399 0
M  V30 4994 H 489.912 5.59645 1.59026 0
M  V30 4995 H 488.792 7.75411 1.17079 0
M  V30 4996 N 486.295 -0.989507 1.22664 0
M  V30 4997 C 487.258 -2.06183 1.00106 0
M  V30 4998 C 488.258 -1.60765 -0.0337726 0
M  V30 4999 O 489.448 -1.72989 0.205072 0
M  V30 5000 C 486.58 -3.37021 0.51279 0
M  V30 5001 H 487.773 -2.27629 1.95256 0
M  V30 5002 H 485.326 -1.16158 1.0458 0
M  V30 5003 H 486.061 -3.21261 -0.442917 0
M  V30 5004 H 485.846 -3.71323 1.25942 0
M  V30 5005 H 487.336 -4.1591 0.375315 0
M  V30 5006 N 487.773 -1.03688 -1.18687 0
M  V30 5007 C 488.703 -0.645407 -2.24403 0
M  V30 5008 C 489.684 0.349511 -1.66471 0
M  V30 5009 O 490.869 0.230453 -1.92828 0
M  V30 5010 C 487.999 -0.00365337 -3.473 0
M  V30 5011 C 486.953 -0.921705 -4.17958 0
M  V30 5012 C 486.279 -0.144629 -5.34504 0
M  V30 5013 C 487.579 -2.23909 -4.71871 0
M  V30 5014 H 489.273 -1.52917 -2.57404 0
M  V30 5015 H 486.819 -0.736711 -1.23728 0
M  V30 5016 H 488.772 0.281908 -4.20456 0
M  V30 5017 H 487.496 0.914963 -3.13522 0
M  V30 5018 H 486.155 -1.19159 -3.46694 0
M  V30 5019 H 485.803 0.776274 -4.96974 0
M  V30 5020 H 485.503 -0.756206 -5.82714 0
M  V30 5021 H 487.027 0.134004 -6.10453 0
M  V30 5022 H 488.441 -2.0145 -5.36741 0
M  V30 5023 H 486.838 -2.8033 -5.30599 0
M  V30 5024 H 487.908 -2.88822 -3.895 0
M  V30 5025 N 489.251 1.34841 -0.815825 0
M  V30 5026 C 490.183 2.28409 -0.190265 0
M  V30 5027 C 491.196 1.50705 0.615771 0
M  V30 5028 O 492.385 1.72822 0.446616 0
M  V30 5029 C 489.485 3.30441 0.752446 0
M  V30 5030 C 488.658 4.37399 -0.00922152 0
M  V30 5031 C 487.717 5.19234 0.853351 0
M  V30 5032 O 486.743 5.68404 0.300919 0
M  V30 5033 N 487.945 5.38248 2.17416 0
M  V30 5034 H 490.71 2.82732 -0.994114 0
M  V30 5035 H 488.271 1.47289 -0.672129 0
M  V30 5036 H 490.263 3.82084 1.33394 0
M  V30 5037 H 488.833 2.76565 1.45707 0
M  V30 5038 H 488.053 3.86567 -0.771979 0
M  V30 5039 H 489.341 5.05992 -0.533807 0
M  V30 5040 H 488.739 4.99961 2.6468 0
M  V30 5041 H 487.296 5.93035 2.70467 0
M  V30 5042 N 490.729 0.570148 1.46925 0
M  V30 5043 C 492.006 -0.0153259 1.95594 0
M  V30 5044 C 492.386 -1.47232 1.51281 0
M  V30 5045 O 491.734 -2.15574 0.757624 0
M  V30 5046 C 491.944 0.143624 3.48704 0
M  V30 5047 C 493.292 0.00494484 4.246 0
M  V30 5048 O 494.316 0.0718214 3.56128 0
M  V30 5049 O 493.175 -0.141175 5.46318 0
M  V30 5050 H 490.269 -0.0568819 0.825041 0
M  V30 5051 H 492.815 0.637583 1.57267 0
M  V30 5052 H 491.587 1.15699 3.73804 0
M  V30 5053 H 491.21 -0.5463 3.93829 0
M  V30 5054 N 492.207 -1.54576 0.307264 0
M  V30 5055 C 493.455 -1.99867 -0.299574 0
M  V30 5056 C 493.776 -1.19714 -1.53927 0
M  V30 5057 O 493.046 -0.29472 -1.9367 0
M  V30 5058 H 491.626 -0.738299 -0.113683 0
M  V30 5059 H 494.288 -1.9032 0.420042 0
M  V30 5060 H 493.384 -3.06901 -0.567283 0
M  V30 5061 N 493.685 -0.035106 -1.57561 0
M  V30 5062 C 494.615 0.942993 -2.13612 0
M  V30 5063 C 495.596 1.33531 -1.05373 0
M  V30 5064 O 496.781 1.41287 -1.33235 0
M  V30 5065 C 493.911 2.22332 -2.66807 0
M  V30 5066 C 492.865 1.97156 -3.79886 0
M  V30 5067 C 492.191 3.31506 -4.19533 0
M  V30 5068 C 493.491 1.30596 -5.05709 0
M  V30 5069 H 495.185 0.476179 -2.95589 0
M  V30 5070 H 492.731 0.227602 -1.4219 0
M  V30 5071 H 494.684 2.91142 -3.04654 0
M  V30 5072 H 493.408 2.7119 -1.81999 0
M  V30 5073 H 492.067 1.30763 -3.42486 0
M  V30 5074 H 491.715 3.78134 -3.31698 0
M  V30 5075 H 491.415 3.15465 -4.95738 0
M  V30 5076 H 492.939 4.01574 -4.59968 0
M  V30 5077 H 494.353 1.89416 -5.41105 0
M  V30 5078 H 492.75 1.24934 -5.86951 0
M  V30 5079 H 493.82 0.279742 -4.84092 0
M  V30 5080 N 495.163 1.55791 0.238111 0
M  V30 5081 C 496.412 1.77234 0.962868 0
M  V30 5082 C 496.725 0.600661 1.86149 0
M  V30 5083 O 497.931 0.698315 2.62366 0
M  V30 5084 C 496.387 3.13808 1.76218 0
M  V30 5085 C 495.995 4.3865 0.910518 0
M  V30 5086 C 497.739 3.44585 2.47914 0
M  V30 5087 C 495.646 5.66252 1.70623 0
M  V30 5088 H 494.576 0.660731 0.36325 0
M  V30 5089 H 497.227 1.8221 0.217242 0
M  V30 5090 H 495.609 3.02963 2.55009 0
M  V30 5091 H 496.783 4.60507 0.164316 0
M  V30 5092 H 495.098 4.15271 0.30647 0
M  V30 5093 H 497.695 4.3714 3.07917 0
M  V30 5094 H 498.038 2.66314 3.19973 0
M  V30 5095 H 498.571 3.56685 1.76127 0
M  V30 5096 H 495.31 6.47369 1.02923 0
M  V30 5097 H 494.83 5.48483 2.42748 0
M  V30 5098 H 496.509 6.05829 2.27114 0
M  V30 5099 N 496.642 -0.504142 1.49319 0
M  V30 5100 C 498.058 -0.835039 1.36012 0
M  V30 5101 C 498.258 -1.97674 0.390808 0
M  V30 5102 O 497.314 -2.51867 -0.178655 0
M  V30 5103 C 498.627 -1.17821 2.76656 0
M  V30 5104 C 500.175 -1.2866 2.85334 0
M  V30 5105 C 500.65 -1.66307 4.26739 0
M  V30 5106 N 502.141 -1.73362 4.29534 0
M  V30 5107 C 502.876 -2.0393 5.35911 0
M  V30 5108 N 502.372 -2.32744 6.52535 0
M  V30 5109 N 504.165 -2.05155 5.23324 0
M  V30 5110 H 496.316 0.248764 2.10938 0
M  V30 5111 H 498.579 0.0486962 0.946748 0
M  V30 5112 H 498.285 -0.412682 3.4927 0
M  V30 5113 H 498.159 -2.12239 3.11825 0
M  V30 5114 H 500.546 -2.04285 2.1296 0
M  V30 5115 H 500.627 -0.323004 2.53752 0
M  V30 5116 H 500.271 -0.91234 4.99639 0
M  V30 5117 H 500.201 -2.63761 4.55782 0
M  V30 5118 H 502.692 -1.53268 3.45424 0
M  V30 5119 H 503.005 -2.55248 7.2943 0
M  V30 5120 H 501.35 -2.30207 6.55767 0
M  V30 5121 H 504.541 -1.82119 4.3122 0
M  V30 5122 H 504.714 -2.28644 6.06322 0
M  V30 5123 N 498.12 -1.38341 -0.754957 0
M  V30 5124 C 499.052 -1.31347 -1.87831 0
M  V30 5125 C 500.065 -0.225955 -1.61224 0
M  V30 5126 O 501.254 -0.48341 -1.7183 0
M  V30 5127 C 498.354 -1.01201 -3.23437 0
M  V30 5128 C 497.527 -2.20834 -3.77559 0
M  V30 5129 C 496.586 -1.87454 -4.91678 0
M  V30 5130 O 495.612 -2.59934 -5.06382 0
M  V30 5131 N 496.814 -0.828682 -5.74555 0
M  V30 5132 H 499.579 -2.28147 -1.94342 0
M  V30 5133 H 497.14 -1.32184 -0.934828 0
M  V30 5134 H 499.132 -0.769249 -3.97322 0
M  V30 5135 H 497.702 -0.132011 -3.12321 0
M  V30 5136 H 496.922 -2.61184 -2.95256 0
M  V30 5137 H 498.21 -3.00678 -4.10451 0
M  V30 5138 H 497.608 -0.227591 -5.65242 0
M  V30 5139 H 496.165 -0.645802 -6.48593 0
M  V30 5140 N 499.598 0.982988 -1.23187 0
M  V30 5141 C 500.561 2.05649 -1.01198 0
M  V30 5142 C 501.561 1.6078 0.0252464 0
M  V30 5143 O 502.751 1.72878 -0.214243 0
M  V30 5144 C 499.883 3.36744 -0.530656 0
M  V30 5145 H 501.076 2.2659 -1.96461 0
M  V30 5146 H 498.629 1.15602 -1.05195 0
M  V30 5147 H 499.364 3.21492 0.425873 0
M  V30 5148 H 499.149 3.7065 -1.2791 0
M  V30 5149 H 500.639 4.15705 -0.397366 0
M  V30 5150 N 501.076 1.04316 1.18135 0
M  V30 5151 C 502.306 0.767003 1.91835 0
M  V30 5152 C 502.714 -0.68002 1.76557 0
M  V30 5153 O 502.057 -1.47548 1.09432 0
M  V30 5154 C 502.119 1.05674 3.43618 0
M  V30 5155 C 501.783 2.49818 3.82675 0
M  V30 5156 C 502.78 3.48003 3.86251 0
M  V30 5157 C 500.465 2.84596 4.13897 0
M  V30 5158 C 502.459 4.79016 4.20503 0
M  V30 5159 C 500.146 4.15813 4.4782 0
M  V30 5160 C 501.144 5.12834 4.51099 0
M  V30 5161 O 500.832 6.41699 4.84229 0
M  V30 5162 H 500.564 0.278948 0.615763 0
M  V30 5163 H 503.118 1.3946 1.50798 0
M  V30 5164 H 501.348 0.372029 3.84906 0
M  V30 5165 H 503.037 0.767994 3.98568 0
M  V30 5166 H 503.803 3.22475 3.62264 0
M  V30 5167 H 499.682 2.09748 4.1052 0
M  V30 5168 H 503.226 5.54739 4.22978 0
M  V30 5169 H 499.123 4.41109 4.71268 0
M  V30 5170 H 499.891 6.46387 5.02121 0
M  V30 5171 N 502.554 -1.34406 0.822964 0
M  V30 5172 C 503.517 -2.2783 0.250271 0
M  V30 5173 C 504.517 -1.50288 -0.571854 0
M  V30 5174 O 505.707 -1.69825 -0.387952 0
M  V30 5175 C 502.839 -3.34663 -0.649137 0
M  V30 5176 H 504.032 -2.79992 1.07444 0
M  V30 5177 H 501.585 -1.44539 0.594829 0
M  V30 5178 H 502.32 -2.87714 -1.49637 0
M  V30 5179 H 502.105 -3.92052 -0.0611199 0
M  V30 5180 H 503.595 -4.04349 -1.04363 0
M  V30 5181 N 504.032 -0.577932 -1.46621 0
M  V30 5182 C 505.262 -0.0670668 -2.06491 0
M  V30 5183 C 505.67 1.24119 -1.42798 0
M  V30 5184 O 505.013 1.76016 -0.525759 0
M  V30 5185 C 505.075 0.177995 -3.59059 0
M  V30 5186 C 504.739 -1.04394 -4.44917 0
M  V30 5187 C 505.736 -1.95479 -4.81751 0
M  V30 5188 C 503.421 -1.26444 -4.86125 0
M  V30 5189 C 505.415 -3.06965 -5.58615 0
M  V30 5190 C 503.102 -2.38237 -5.62749 0
M  V30 5191 C 504.1 -3.28327 -5.98908 0
M  V30 5192 O 503.788 -4.38179 -6.73984 0
M  V30 5193 H 503.52 -0.0523159 -0.673973 0
M  V30 5194 H 506.074 -0.796966 -1.89308 0
M  V30 5195 H 504.304 0.962451 -3.74531 0
M  V30 5196 H 505.993 0.636782 -4.00874 0
M  V30 5197 H 506.759 -1.79657 -4.50498 0
M  V30 5198 H 502.638 -0.572316 -4.57434 0
M  V30 5199 H 506.182 -3.77309 -5.86757 0
M  V30 5200 H 502.079 -2.54023 -5.93416 0
M  V30 5201 H 502.847 -4.36486 -6.92403 0
M  V30 5202 N 505.51 1.54411 -0.315457 0
M  V30 5203 C 506.759 1.99599 0.290395 0
M  V30 5204 C 507.072 1.20746 1.53882 0
M  V30 5205 O 508.278 1.56272 2.22017 0
M  V30 5206 C 506.734 3.5539 0.56797 0
M  V30 5207 C 506.342 4.43068 -0.662945 0
M  V30 5208 C 508.086 4.09067 1.13422 0
M  V30 5209 C 505.993 5.90317 -0.357722 0
M  V30 5210 H 504.923 0.745592 0.112286 0
M  V30 5211 H 507.574 1.78477 -0.426418 0
M  V30 5212 H 505.956 3.72468 1.34476 0
M  V30 5213 H 507.13 4.37765 -1.43869 0
M  V30 5214 H 505.445 4.00238 -1.14884 0
M  V30 5215 H 508.042 5.16663 1.37707 0
M  V30 5216 H 508.385 3.60552 2.08106 0
M  V30 5217 H 508.918 3.95589 0.418805 0
M  V30 5218 H 505.657 6.4301 -1.27351 0
M  V30 5219 H 505.177 5.98592 0.380472 0
M  V30 5220 H 506.856 6.4699 0.0354284 0
M  V30 5221 N 506.988 0.0434614 1.5754 0
M  V30 5222 C 507.918 -0.931651 2.14109 0
M  V30 5223 C 508.899 -1.32971 1.06079 0
M  V30 5224 O 510.084 -1.40579 1.33982 0
M  V30 5225 C 507.214 -2.20914 2.67982 0
M  V30 5226 C 506.168 -1.95139 3.80926 0
M  V30 5227 C 505.494 -3.29276 4.21285 0
M  V30 5228 C 506.794 -1.27913 5.06395 0
M  V30 5229 H 508.488 -0.460497 2.95837 0
M  V30 5230 H 506.034 -0.220058 1.42309 0
M  V30 5231 H 507.987 -2.89522 3.06194 0
M  V30 5232 H 506.711 -2.70221 1.83434 0
M  V30 5233 H 505.37 -1.28945 3.43175 0
M  V30 5234 H 505.018 -3.76369 3.33699 0
M  V30 5235 H 504.718 -3.12831 4.97404 0
M  V30 5236 H 506.242 -3.99129 4.62091 0
M  V30 5237 H 507.656 -1.86544 5.42102 0
M  V30 5238 H 506.053 -1.2182 5.87605 0
M  V30 5239 H 507.123 -0.254066 4.84234 0
M  V30 5240 N 508.466 -1.55915 -0.229846 0
M  V30 5241 C 509.694 -1.82617 -0.972562 0
M  V30 5242 C 510.109 -0.621488 -1.78278 0
M  V30 5243 O 509.466 0.409956 -1.77836 0
M  V30 5244 C 509.517 -3.0774 -1.89679 0
M  V30 5245 O 509.238 -4.23559 -1.11934 0
M  V30 5246 C 510.739 -3.47368 -2.75409 0
M  V30 5247 H 507.959 -0.60727 -0.285419 0
M  V30 5248 H 510.503 -2.02996 -0.247579 0
M  V30 5249 H 508.658 -2.89361 -2.57583 0
M  V30 5250 H 509.072 -4.94586 -1.74599 0
M  V30 5251 H 510.546 -4.37977 -3.35977 0
M  V30 5252 H 511.023 -2.68737 -3.47386 0
M  V30 5253 H 511.629 -3.68158 -2.12931 0
M  V30 5254 N 509.944 0.496216 -1.49584 0
M  V30 5255 C 511.169 1.27865 -1.63295 0
M  V30 5256 C 511.594 1.85592 -0.306156 0
M  V30 5257 O 510.952 1.66092 0.726851 0
M  V30 5258 C 511 2.38128 -2.7079 0
M  V30 5259 O 510.104 3.42108 -2.30296 0
M  V30 5260 H 509.445 0.377279 -0.546403 0
M  V30 5261 H 511.975 0.593497 -1.95803 0
M  V30 5262 H 511.985 2.8382 -2.93104 0
M  V30 5263 H 510.66 1.95479 -3.67098 0
M  V30 5264 H 509.237 3.02301 -2.18331 0
M  V30 5265 N 511.423 1.38739 0.74761 0
M  V30 5266 C 512.834 1.31507 1.32524 0
M  V30 5267 C 513.185 -0.0263963 1.96182 0
M  V30 5268 O 512.31 -0.92849 1.95469 0
M  V30 5269 C 512.905 2.38162 2.40966 0
M  V30 5270 C 511.464 2.34489 2.94434 0
M  V30 5271 C 510.611 2.20712 1.67873 0
M  V30 5272 H 513.562 1.4901 0.546043 0
M  V30 5273 H 513.583 2.04222 3.21051 0
M  V30 5274 H 513.095 3.35783 1.94605 0
M  V30 5275 H 511.196 1.40467 3.45108 0
M  V30 5276 H 511.309 3.28861 3.48407 0
M  V30 5277 H 509.673 1.67667 1.91729 0
M  V30 5278 H 510.456 3.20285 1.23582 0
M  V30 5279 N 512.901 -0.976442 1.23707 0
M  V30 5280 C 514.149 -1.71487 1.06942 0
M  V30 5281 C 514.47 -1.9098 -0.393897 0
M  V30 5282 O 513.74 -1.48128 -1.28198 0
M  V30 5283 H 512.32 -0.635425 0.392739 0
M  V30 5284 H 514.982 -1.17515 1.55487 0
M  V30 5285 H 514.078 -2.70286 1.56051 0
M  V30 5286 N 514.379 -1.04941 -1.1758 0
M  V30 5287 C 515.607 -0.778294 -1.91703 0
M  V30 5288 C 516.022 0.665697 -1.76675 0
M  V30 5289 O 515.379 1.45456 -1.10222 0
M  V30 5290 C 515.43 -1.14628 -3.42845 0
M  V30 5291 O 515.151 -2.53359 -3.57409 0
M  V30 5292 C 516.652 -0.900931 -4.34049 0
M  V30 5293 H 513.872 -0.283167 -0.608323 0
M  V30 5294 H 516.416 -1.39942 -1.49119 0
M  V30 5295 H 514.571 -0.569953 -3.83184 0
M  V30 5296 H 514.985 -2.67709 -4.51035 0
M  V30 5297 H 516.459 -1.20817 -5.38616 0
M  V30 5298 H 516.936 0.163966 -4.38894 0
M  V30 5299 H 517.542 -1.46097 -3.99419 0
M  V30 5300 N 515.857 1.33968 -0.830081 0
M  V30 5301 C 517.268 1.80439 -0.479455 0
M  V30 5302 C 517.619 1.68756 1.00079 0
M  V30 5303 O 516.744 1.23171 1.77927 0
M  V30 5304 C 517.339 3.27611 -0.863505 0
M  V30 5305 C 515.898 3.72133 -0.565145 0
M  V30 5306 C 515.045 2.55549 -1.07657 0
M  V30 5307 H 517.996 1.21614 -1.0196 0
M  V30 5308 H 518.017 3.8012 -0.170083 0
M  V30 5309 H 517.529 3.36082 -1.94089 0
M  V30 5310 H 515.63 3.69196 0.502536 0
M  V30 5311 H 515.743 4.65963 -1.11422 0
M  V30 5312 H 514.107 2.49788 -0.497807 0
M  V30 5313 H 514.89 2.66786 -2.16055 0
M  V30 5314 N 517.335 0.585699 1.46312 0
M  V30 5315 C 518.581 0.0725284 2.0267 0
M  V30 5316 C 518.914 -1.28523 1.45586 0
M  V30 5317 O 518.189 -1.84283 0.622101 0
M  V30 5318 C 518.472 0.0099788 3.60099 0
M  V30 5319 C 518.325 1.39685 4.27561 0
M  V30 5320 C 519.644 -0.689117 4.34671 0
M  V30 5321 H 516.763 0.0278307 0.736474 0
M  V30 5322 H 519.405 0.753472 1.74421 0
M  V30 5323 H 517.555 -0.56992 3.84297 0
M  V30 5324 H 519.227 2.02215 4.14617 0
M  V30 5325 H 517.47 1.96374 3.86807 0
M  V30 5326 H 518.141 1.30553 5.36339 0
M  V30 5327 H 520.617 -0.196446 4.15636 0
M  V30 5328 H 519.493 -0.701921 5.44393 0
M  V30 5329 H 519.754 -1.75101 4.05946 0
M  V30 5330 N 518.813 -1.54241 0.323641 0
M  V30 5331 C 520.059 -2.00867 -0.279323 0
M  V30 5332 C 520.392 -1.21146 -1.5178 0
M  V30 5333 O 519.667 -0.29378 -1.92269 0
M  V30 5334 C 519.95 -3.54837 -0.613387 0
M  V30 5335 C 519.803 -4.45284 0.635803 0
M  V30 5336 C 521.122 -4.16186 -1.43099 0
M  V30 5337 H 518.241 -0.730177 -0.100049 0
M  V30 5338 H 520.883 -1.84829 0.440235 0
M  V30 5339 H 519.033 -3.68634 -1.22641 0
M  V30 5340 H 520.705 -4.43357 1.27406 0
M  V30 5341 H 518.948 -4.14956 1.26466 0
M  V30 5342 H 519.619 -5.5084 0.357597 0
M  V30 5343 H 522.095 -4.05964 -0.912814 0
M  V30 5344 H 520.971 -5.24031 -1.6335 0
M  V30 5345 H 521.232 -3.69516 -2.42715 0
M  V30 5346 N 520.291 -0.0518155 -1.57515 0
M  V30 5347 C 521.521 0.63048 -1.96745 0
M  V30 5348 C 521.929 1.64875 -0.928054 0
M  V30 5349 O 521.272 1.83449 0.0960678 0
M  V30 5350 C 521.334 1.37381 -3.32215 0
M  V30 5351 C 520.998 0.511298 -4.54131 0
M  V30 5352 C 521.995 -0.222884 -5.19422 0
M  V30 5353 C 519.68 0.442035 -5.00351 0
M  V30 5354 C 521.674 -1.01476 -6.2927 0
M  V30 5355 C 519.361 -0.35353 -6.10077 0
M  V30 5356 C 520.359 -1.08062 -6.74397 0
M  V30 5357 O 520.047 -1.8631 -7.82013 0
M  V30 5358 H 519.779 0.177126 -0.652382 0
M  V30 5359 H 522.333 -0.114726 -2.05079 0
M  V30 5360 H 520.563 2.16466 -3.20436 0
M  V30 5361 H 522.252 1.9464 -3.56188 0
M  V30 5362 H 523.018 -0.178846 -4.8467 0
M  V30 5363 H 518.897 0.997562 -4.50077 0
M  V30 5364 H 522.441 -1.58279 -6.79407 0
M  V30 5365 H 518.338 -0.399205 -6.44264 0
M  V30 5366 H 519.106 -1.78528 -7.98793 0
M  V30 5367 N 521.769 1.56035 0.221574 0
M  V30 5368 C 523.015 1.80221 0.942973 0
M  V30 5369 C 523.37 0.624799 1.81973 0
M  V30 5370 O 522.663 -0.381145 1.87771 0
M  V30 5371 C 522.857 3.07813 1.8162 0
M  V30 5372 C 522.686 4.37852 1.02548 0
M  V30 5373 C 521.456 5.00138 0.720418 0
M  V30 5374 C 523.654 5.12813 0.390799 0
M  V30 5375 N 521.636 6.13831 -0.0917139 0
M  V30 5376 C 523.007 6.19346 -0.284728 0
M  V30 5377 C 525.062 4.96972 0.303828 0
M  V30 5378 C 523.765 7.11758 -1.03891 0
M  V30 5379 C 525.791 5.89784 -0.436883 0
M  V30 5380 C 525.153 6.95743 -1.10095 0
M  V30 5381 H 521.252 0.711117 0.325325 0
M  V30 5382 H 523.836 1.93522 0.213854 0
M  V30 5383 H 522.007 2.95795 2.51714 0
M  V30 5384 H 523.739 3.20191 2.47508 0
M  V30 5385 H 520.494 4.62075 1.03843 0
M  V30 5386 H 520.918 6.75249 -0.486615 0
M  V30 5387 H 525.56 4.15107 0.802896 0
M  V30 5388 H 523.278 7.93105 -1.54949 0
M  V30 5389 H 526.864 5.79603 -0.505181 0
M  V30 5390 H 525.744 7.66322 -1.66495 0
M  V30 5391 N 523.247 -0.488276 1.49845 0
M  V30 5392 C 524.472 -1.26997 1.63971 0
M  V30 5393 C 524.897 -1.85427 0.315994 0
M  V30 5394 O 524.255 -1.66475 -0.718032 0
M  V30 5395 C 524.303 -2.36689 2.72049 0
M  V30 5396 O 523.407 -3.40882 2.32107 0
M  V30 5397 H 522.748 -0.374376 0.548396 0
M  V30 5398 H 525.278 -0.583104 1.96115 0
M  V30 5399 H 525.288 -2.82262 2.94605 0
M  V30 5400 H 523.963 -1.93529 3.68129 0
M  V30 5401 H 522.54 -3.01139 2.19931 0
M  V30 5402 N 524.725 -1.39134 -0.740242 0
M  V30 5403 C 525.675 -1.33928 -1.84519 0
M  V30 5404 C 526.659 -0.221097 -1.59374 0
M  V30 5405 O 527.851 -0.458195 -1.70967 0
M  V30 5406 C 524.98 -1.17991 -3.22387 0
M  V30 5407 C 524.066 -2.34488 -3.53378 0
M  V30 5408 N 524.457 -3.59954 -3.5534 0
M  V30 5409 C 522.755 -2.27331 -3.83714 0
M  V30 5410 C 523.456 -4.36962 -3.83978 0
M  V30 5411 N 522.432 -3.66482 -4.01487 0
M  V30 5412 H 526.234 -2.28907 -1.84333 0
M  V30 5413 H 523.748 -1.32555 -0.938237 0
M  V30 5414 H 525.745 -1.12345 -4.01478 0
M  V30 5415 H 524.405 -0.23957 -3.23815 0
M  V30 5416 H 525.416 -3.93448 -3.36778 0
M  V30 5417 H 522.093 -1.41531 -3.92779 0
M  V30 5418 H 523.483 -5.45692 -3.92008 0
M  V30 5419 N 526.204 0.969867 -1.24223 0
M  V30 5420 C 527.137 2.06279 -0.975926 0
M  V30 5421 C 528.115 1.62353 0.0895385 0
M  V30 5422 O 529.299 1.88442 -0.0469418 0
M  V30 5423 C 526.426 3.35391 -0.472315 0
M  V30 5424 C 525.472 3.98266 -1.526 0
M  V30 5425 S 526.305 4.36172 -3.10667 0
M  V30 5426 C 527.461 5.68423 -2.62003 0
M  V30 5427 H 527.694 2.28551 -1.90137 0
M  V30 5428 H 525.227 1.10748 -1.07584 0
M  V30 5429 H 527.185 4.10068 -0.188376 0
M  V30 5430 H 525.846 3.1111 0.432378 0
M  V30 5431 H 525.039 4.91307 -1.12399 0
M  V30 5432 H 524.641 3.30009 -1.75983 0
M  V30 5433 H 526.933 6.45842 -2.0468 0
M  V30 5434 H 527.876 6.13478 -3.53625 0
M  V30 5435 H 528.284 5.26928 -2.02502 0
M  V30 5436 N 527.682 1.05563 1.17022 0
M  V30 5437 C 528.912 0.787307 1.91011 0
M  V30 5438 C 529.32 -0.661256 1.77268 0
M  V30 5439 O 528.663 -1.46379 1.10991 0
M  V30 5440 C 528.725 1.09313 3.42478 0
M  V30 5441 C 528.389 2.53863 3.80004 0
M  V30 5442 C 529.386 3.52081 3.82538 0
M  V30 5443 C 527.071 2.88969 4.10855 0
M  V30 5444 C 529.065 4.83449 4.15399 0
M  V30 5445 C 526.752 4.2054 4.43384 0
M  V30 5446 C 527.75 5.17589 4.45635 0
M  V30 5447 O 527.438 6.46799 4.77395 0
M  V30 5448 H 527.17 0.285463 0.61277 0
M  V30 5449 H 529.724 1.41051 1.49311 0
M  V30 5450 H 527.954 0.412833 3.8449 0
M  V30 5451 H 529.643 0.810224 3.97731 0
M  V30 5452 H 530.409 3.26299 3.58823 0
M  V30 5453 H 526.288 2.1409 4.08272 0
M  V30 5454 H 529.832 5.59194 4.1707 0
M  V30 5455 H 525.729 4.46083 4.66563 0
M  V30 5456 H 526.497 6.51677 4.95237 0
M  V30 5457 N 529.16 -1.33526 0.837174 0
M  V30 5458 C 530.437 -1.92369 0.354065 0
M  V30 5459 C 530.817 -1.76348 -1.16038 0
M  V30 5460 O 530.165 -1.15083 -1.97403 0
M  V30 5461 C 530.375 -3.39728 0.799101 0
M  V30 5462 C 531.723 -4.16877 0.806139 0
M  V30 5463 O 532.747 -3.48373 0.742597 0
M  V30 5464 O 531.606 -5.39166 0.892345 0
M  V30 5465 H 528.7 -0.820952 0.0998378 0
M  V30 5466 H 531.246 -1.42409 0.922913 0
M  V30 5467 H 530.018 -3.45254 1.84162 0
M  V30 5468 H 529.641 -3.97062 0.206731 0
M  V30 5469 N 530.638 -0.59345 -1.46 0
M  V30 5470 C 531.884 -0.0916503 -2.03193 0
M  V30 5471 C 532.239 1.25839 -1.45541 0
M  V30 5472 O 531.532 1.81455 -0.615191 0
M  V30 5473 C 531.726 0.021178 -3.57394 0
M  V30 5474 C 531.555 -1.31638 -4.30002 0
M  V30 5475 C 530.325 -1.89336 -4.68487 0
M  V30 5476 C 532.523 -2.242 -4.62859 0
M  V30 5477 N 530.505 -3.1672 -5.25891 0
M  V30 5478 C 531.876 -3.36175 -5.20948 0
M  V30 5479 C 533.931 -2.23748 -4.44794 0
M  V30 5480 C 532.634 -4.47844 -5.62875 0
M  V30 5481 C 534.66 -3.34454 -4.87744 0
M  V30 5482 C 534.022 -4.4515 -5.45913 0
M  V30 5483 H 530.121 -0.0765713 -0.778242 0
M  V30 5484 H 532.705 -0.788705 -1.7801 0
M  V30 5485 H 530.876 0.687423 -3.82268 0
M  V30 5486 H 532.608 0.528343 -4.01236 0
M  V30 5487 H 529.363 -1.42704 -4.51589 0
M  V30 5488 H 529.787 -3.81746 -5.59106 0
M  V30 5489 H 534.429 -1.39433 -3.99147 0
M  V30 5490 H 532.147 -5.32894 -6.07495 0
M  V30 5491 H 535.733 -3.35234 -4.75509 0
M  V30 5492 H 534.613 -5.29398 -5.78539 0
M  V30 5493 N 532.116 1.54067 -0.331816 0
M  V30 5494 C 533.364 2.00319 0.267739 0
M  V30 5495 C 533.685 1.22148 1.52003 0
M  V30 5496 O 532.955 0.325494 1.93177 0
M  V30 5497 H 531.535 0.740014 0.101922 0
M  V30 5498 H 534.197 1.89628 -0.450267 0
M  V30 5499 H 533.293 3.07765 0.518385 0
M  V30 5500 N 533.594 0.0601682 1.57485 0
M  V30 5501 C 534.824 -0.620037 1.97076 0
M  V30 5502 C 535.232 -1.64381 0.936784 0
M  V30 5503 O 534.575 -1.83497 -0.0863377 0
M  V30 5504 C 534.637 -1.35617 3.32939 0
M  V30 5505 C 534.301 -0.487208 4.54396 0
M  V30 5506 C 535.298 0.250428 5.19297 0
M  V30 5507 C 532.983 -0.415494 5.00579 0
M  V30 5508 C 534.977 1.04812 6.28723 0
M  V30 5509 C 532.664 0.385879 6.0988 0
M  V30 5510 C 533.662 1.11637 6.73815 0
M  V30 5511 O 533.35 1.90454 7.81014 0
M  V30 5512 H 533.082 -0.173664 0.653312 0
M  V30 5513 H 535.636 0.1256 2.05016 0
M  V30 5514 H 533.866 -2.14763 3.2158 0
M  V30 5515 H 535.555 -1.92749 3.57215 0
M  V30 5516 H 536.321 0.204546 4.84568 0
M  V30 5517 H 532.2 -0.973679 4.506 0
M  V30 5518 H 535.744 1.6188 6.78558 0
M  V30 5519 H 531.641 0.433366 6.44044 0
M  V30 5520 H 532.409 1.82762 7.97835 0
M  V30 5521 N 535.072 -1.5615 -0.213296 0
M  V30 5522 C 536.32 -1.79191 -0.934612 0
M  V30 5523 C 536.641 -0.630112 -1.84539 0
M  V30 5524 O 535.911 0.35257 -1.92701 0
M  V30 5525 H 534.491 -0.660937 -0.348097 0
M  V30 5526 H 537.153 -1.93618 -0.22317 0
M  V30 5527 H 536.249 -2.71656 -1.53654 0
M  V30 5528 N 536.55 0.480323 -1.50102 0
M  V30 5529 C 537.827 1.24159 -1.51142 0
M  V30 5530 C 538.207 2.09605 -0.250818 0
M  V30 5531 O 537.555 2.15274 0.766118 0
M  V30 5532 C 537.765 2.08057 -2.80202 0
M  V30 5533 C 539.113 2.66556 -3.30504 0
M  V30 5534 O 540.137 2.18308 -2.81461 0
M  V30 5535 O 538.996 3.54442 -4.15973 0
M  V30 5536 H 536.09 0.562928 -0.605839 0
M  V30 5537 H 538.636 0.492899 -1.62384 0
M  V30 5538 H 537.408 1.45032 -3.6343 0
M  V30 5539 H 537.031 2.90079 -2.71919 0
M  V30 5540 N 538.028 1.39524 0.732853 0
M  V30 5541 C 539.275 1.36865 1.49246 0
M  V30 5542 C 539.603 -0.0347118 1.94469 0
M  V30 5543 O 538.858 -1.01596 1.67262 0
M  V30 5544 C 539.157 2.28916 2.74468 0
M  V30 5545 C 538.823 3.76506 2.481 0
M  V30 5546 C 537.485 4.16721 2.40619 0
M  V30 5547 C 539.837 4.69846 2.25598 0
M  V30 5548 C 537.165 5.48334 2.08679 0
M  V30 5549 C 539.517 6.01739 1.95174 0
M  V30 5550 C 538.181 6.41015 1.86163 0
M  V30 5551 H 537.451 0.500824 0.546129 0
M  V30 5552 H 540.098 1.72047 0.840958 0
M  V30 5553 H 538.403 1.86859 3.4437 0
M  V30 5554 H 540.1 2.2415 3.32502 0
M  V30 5555 H 536.69 3.44635 2.54803 0
M  V30 5556 H 540.874 4.39608 2.30344 0
M  V30 5557 H 536.13 5.77685 2.00226 0
M  V30 5558 H 540.304 6.73591 1.76771 0
M  V30 5559 H 537.931 7.42917 1.61179 0
M  V30 5560 N 539.506 -0.963266 1.24736 0
M  V30 5561 C 540.755 -1.70115 1.08369 0
M  V30 5562 C 541.068 -1.91939 -0.376688 0
M  V30 5563 O 542.274 -2.6334 -0.660624 0
M  V30 5564 C 540.73 -3.06218 1.89099 0
M  V30 5565 C 540.338 -2.92221 3.39574 0
M  V30 5566 C 542.082 -3.83848 1.81275 0
M  V30 5567 C 539.989 -4.23662 4.12631 0
M  V30 5568 H 538.919 -0.637944 0.401924 0
M  V30 5569 H 541.57 -1.07304 1.48856 0
M  V30 5570 H 539.952 -3.69884 1.41429 0
M  V30 5571 H 541.126 -2.37541 3.94856 0
M  V30 5572 H 539.441 -2.28054 3.48397 0
M  V30 5573 H 542.038 -4.81188 2.33158 0
M  V30 5574 H 542.381 -4.08949 0.778895 0
M  V30 5575 H 542.914 -3.26918 2.26649 0
M  V30 5576 H 539.653 -4.03753 5.16395 0
M  V30 5577 H 539.173 -4.78141 3.62135 0
M  V30 5578 H 540.852 -4.92256 4.19873 0
M  V30 5579 N 540.985 -1.06182 -1.16461 0
M  V30 5580 C 542.401 -0.785065 -1.38956 0
M  V30 5581 C 542.601 0.616103 -1.9185 0
M  V30 5582 O 541.657 1.37686 -2.11657 0
M  V30 5583 C 542.97 -1.84902 -2.37132 0
M  V30 5584 C 544.518 -1.8724 -2.50819 0
M  V30 5585 C 544.993 -2.92686 -3.52277 0
M  V30 5586 N 546.484 -2.91712 -3.59803 0
M  V30 5587 C 547.219 -3.69949 -4.38093 0
M  V30 5588 N 546.715 -4.58 -5.19815 0
M  V30 5589 N 548.508 -3.58346 -4.33064 0
M  V30 5590 H 540.659 -1.96569 -0.804634 0
M  V30 5591 H 542.922 -0.851747 -0.416211 0
M  V30 5592 H 542.628 -2.85518 -2.0536 0
M  V30 5593 H 542.502 -1.69908 -3.36766 0
M  V30 5594 H 544.889 -0.872827 -2.81897 0
M  V30 5595 H 544.97 -2.06311 -1.51226 0
M  V30 5596 H 544.614 -3.92835 -3.21937 0
M  V30 5597 H 544.544 -2.70864 -4.51598 0
M  V30 5598 H 547.035 -2.27876 -3.01464 0
M  V30 5599 H 547.348 -5.14357 -5.76764 0
M  V30 5600 H 545.693 -4.62056 -5.19162 0
M  V30 5601 H 548.884 -2.88943 -3.68279 0
M  V30 5602 H 549.057 -4.19563 -4.93833 0
M  V30 5603 N 542.463 1.3308 -0.844243 0
M  V30 5604 C 543.395 2.27954 -0.238671 0
M  V30 5605 C 544.408 1.51978 0.583665 0
M  V30 5606 O 545.597 1.73731 0.409857 0
M  V30 5607 C 542.697 3.31963 0.682185 0
M  V30 5608 C 541.87 4.37281 -0.101998 0
M  V30 5609 C 540.929 5.20928 0.743022 0
M  V30 5610 O 539.955 5.68914 0.180285 0
M  V30 5611 N 541.157 5.42738 2.0595 0
M  V30 5612 H 543.922 2.8056 -1.05386 0
M  V30 5613 H 541.483 1.4583 -0.70322 0
M  V30 5614 H 543.475 3.84828 1.25259 0
M  V30 5615 H 542.045 2.79594 1.39808 0
M  V30 5616 H 541.265 3.84843 -0.853802 0
M  V30 5617 H 542.553 5.04746 -0.641015 0
M  V30 5618 H 541.951 5.05463 2.54016 0
M  V30 5619 H 540.508 5.98639 2.57827 0
M  V30 5620 N 543.941 0.601185 1.45683 0
M  V30 5621 C 544.871 -0.108824 2.33246 0
M  V30 5622 C 545.852 -0.865223 1.46451 0
M  V30 5623 O 547.037 -0.83704 1.75235 0
M  V30 5624 C 544.167 -1.11101 3.2905 0
M  V30 5625 C 543.121 -0.468244 4.25431 0
M  V30 5626 C 542.447 -1.57822 5.10878 0
M  V30 5627 C 543.747 0.606469 5.18767 0
M  V30 5628 H 545.441 0.622306 2.92861 0
M  V30 5629 H 542.987 0.300714 1.40825 0
M  V30 5630 H 544.94 -1.61622 3.89174 0
M  V30 5631 H 543.664 -1.87265 2.67581 0
M  V30 5632 H 542.323 0.0160484 3.66596 0
M  V30 5633 H 541.971 -2.32998 4.45781 0
M  V30 5634 H 541.671 -1.15369 5.76163 0
M  V30 5635 H 543.195 -2.08583 5.73869 0
M  V30 5636 H 544.609 0.185589 5.73 0
M  V30 5637 H 543.006 0.952381 5.92494 0
M  V30 5638 H 544.076 1.48559 4.61582 0
M  V30 5639 N 545.419 -1.53889 0.339982 0
M  V30 5640 C 546.668 -2.00035 -0.258604 0
M  V30 5641 C 546.981 -1.23179 -1.51942 0
M  V30 5642 O 548.187 -1.59784 -2.19503 0
M  V30 5643 C 546.643 -3.56249 -0.511359 0
M  V30 5644 C 546.251 -4.41957 0.733349 0
M  V30 5645 C 547.995 -4.1082 -1.069 0
M  V30 5646 C 545.902 -5.89673 0.451591 0
M  V30 5647 H 544.832 -0.747284 -0.10041 0
M  V30 5648 H 547.483 -1.77776 0.454758 0
M  V30 5649 H 545.865 -3.7456 -1.28533 0
M  V30 5650 H 547.039 -4.35421 1.50815 0
M  V30 5651 H 545.354 -3.9836 1.21237 0
M  V30 5652 H 547.951 -5.18789 -1.2947 0
M  V30 5653 H 548.294 -3.63817 -2.02343 0
M  V30 5654 H 548.827 -3.96205 -0.355817 0
M  V30 5655 H 545.566 -6.40903 1.37565 0
M  V30 5656 H 545.086 -5.99122 -0.285193 0
M  V30 5657 H 546.765 -6.46965 0.0675067 0
M  V30 5658 N 546.897 -0.0685191 -1.57451 0
M  V30 5659 C 547.829 0.929372 -2.09512 0
M  V30 5660 C 548.842 1.26354 -1.02657 0
M  V30 5661 O 550.031 1.2213 -1.30179 0
M  V30 5662 C 547.131 2.24612 -2.53777 0
M  V30 5663 C 546.304 2.09128 -3.84167 0
M  V30 5664 C 545.363 3.24079 -4.14559 0
M  V30 5665 O 544.389 2.99215 -4.8421 0
M  V30 5666 N 545.591 4.49077 -3.67845 0
M  V30 5667 H 548.356 0.484901 -2.95751 0
M  V30 5668 H 545.917 0.11729 -1.61475 0
M  V30 5669 H 547.909 3.00412 -2.71172 0
M  V30 5670 H 546.479 2.60569 -1.72692 0
M  V30 5671 H 545.699 1.17815 -3.76182 0
M  V30 5672 H 546.987 1.9603 -4.69521 0
M  V30 5673 H 546.385 4.72165 -3.11571 0
M  V30 5674 H 544.942 5.21915 -3.90446 0
M  V30 5675 N 548.375 1.56261 0.205012 0
M  V30 5676 C 549.621 1.80306 0.9283 0
M  V30 5677 C 549.954 0.640932 1.83319 0
M  V30 5678 O 549.229 -0.359032 1.91158 0
M  V30 5679 C 549.512 3.14547 1.75306 0
M  V30 5680 C 549.365 4.41236 0.873562 0
M  V30 5681 C 550.684 3.45382 2.72762 0
M  V30 5682 H 547.803 0.655929 0.336044 0
M  V30 5683 H 550.445 1.88984 0.196211 0
M  V30 5684 H 548.595 3.0728 2.37721 0
M  V30 5685 H 550.267 4.60539 0.264887 0
M  V30 5686 H 548.51 4.33427 0.179773 0
M  V30 5687 H 549.181 5.31639 1.48541 0
M  V30 5688 H 551.657 3.52884 2.20481 0
M  V30 5689 H 550.533 4.40449 3.2756 0
M  V30 5690 H 550.794 2.68377 3.51321 0
M  V30 5691 N 549.853 -0.472356 1.50355 0
M  V30 5692 C 551.269 -0.806001 1.37753 0
M  V30 5693 C 551.469 -1.968 0.432649 0
M  V30 5694 O 550.525 -2.52189 -0.12519 0
M  V30 5695 C 551.838 -1.11926 2.79093 0
M  V30 5696 C 553.386 -1.22579 2.87999 0
M  V30 5697 C 553.861 -1.57218 4.3017 0
M  V30 5698 N 555.352 -1.64212 4.33115 0
M  V30 5699 C 556.087 -1.92517 5.40116 0
M  V30 5700 N 555.583 -2.1885 6.57325 0
M  V30 5701 N 557.376 -1.94008 5.27558 0
M  V30 5702 H 549.527 0.293451 2.10363 0
M  V30 5703 H 551.79 0.0687672 0.945503 0
M  V30 5704 H 551.496 -0.338504 3.50067 0
M  V30 5705 H 551.37 -2.05577 3.16256 0
M  V30 5706 H 553.757 -1.99722 2.17245 0
M  V30 5707 H 553.838 -0.269107 2.54381 0
M  V30 5708 H 553.482 -0.806154 5.01461 0
M  V30 5709 H 553.412 -2.54034 4.61275 0
M  V30 5710 H 555.903 -1.45906 3.48597 0
M  V30 5711 H 556.216 -2.39718 7.3468 0
M  V30 5712 H 554.561 -2.16245 6.60502 0
M  V30 5713 H 557.752 -1.72931 4.34986 0
M  V30 5714 H 557.925 -2.15731 6.11035 0
M  V30 5715 N 551.331 -1.39911 -0.725443 0
M  V30 5716 C 552.747 -1.21725 -1.03224 0
M  V30 5717 C 552.947 -0.0855224 -2.01318 0
M  V30 5718 O 552.003 0.55976 -2.46217 0
M  V30 5719 C 553.316 -2.55511 -1.58539 0
M  V30 5720 C 554.864 -2.62439 -1.70572 0
M  V30 5721 C 555.339 -3.9647 -2.29294 0
M  V30 5722 N 556.83 -3.98159 -2.36692 0
M  V30 5723 C 557.565 -4.98647 -2.83088 0
M  V30 5724 N 557.061 -6.0953 -3.2931 0
M  V30 5725 N 558.854 -4.8602 -2.82384 0
M  V30 5726 H 551.005 -2.12267 -0.075048 0
M  V30 5727 H 553.268 -0.943136 -0.0959066 0
M  V30 5728 H 552.974 -3.38926 -0.939249 0
M  V30 5729 H 552.848 -2.75905 -2.57208 0
M  V30 5730 H 555.235 -1.79401 -2.34306 0
M  V30 5731 H 555.316 -2.45885 -0.705297 0
M  V30 5732 H 554.96 -4.79942 -1.66186 0
M  V30 5733 H 554.89 -4.10349 -3.30032 0
M  V30 5734 H 557.381 -3.18085 -2.04035 0
M  V30 5735 H 557.694 -6.82106 -3.6325 0
M  V30 5736 H 556.039 -6.1311 -3.27294 0
M  V30 5737 H 559.23 -3.98493 -2.45603 0
M  V30 5738 H 559.403 -5.64478 -3.18226 0
M  V30 5739 N 552.809 0.956637 -1.25245 0
M  V30 5740 C 553.772 2.03457 -1.05537 0
M  V30 5741 C 554.772 1.60798 -0.00886317 0
M  V30 5742 O 555.962 1.72384 -0.250865 0
M  V30 5743 C 553.094 3.35543 -0.601965 0
M  V30 5744 H 554.287 2.22372 -2.01223 0
M  V30 5745 H 551.84 1.13344 -1.07623 0
M  V30 5746 H 552.575 3.22323 0.357584 0
M  V30 5747 H 552.36 3.67854 -1.35743 0
M  V30 5748 H 553.85 4.14769 -0.485454 0
M  V30 5749 N 554.287 1.06798 1.15896 0
M  V30 5750 C 555.25 0.687328 2.18651 0
M  V30 5751 C 556.25 -0.269559 1.58524 0
M  V30 5752 O 557.44 -0.0512627 1.74125 0
M  V30 5753 C 554.572 0.0121642 3.40898 0
M  V30 5754 H 555.765 1.59701 2.53842 0
M  V30 5755 H 553.318 0.863828 1.3026 0
M  V30 5756 H 554.053 -0.910025 3.1127 0
M  V30 5757 H 553.838 0.700309 3.85795 0
M  V30 5758 H 555.328 -0.239703 4.16911 0
M  V30 5759 N 555.766 -1.3263 0.851289 0
M  V30 5760 C 557.014 -1.96978 0.452128 0
M  V30 5761 C 557.335 -1.67715 -0.99482 0
M  V30 5762 O 556.605 -0.98259 -1.69476 0
M  V30 5763 H 555.185 -0.72873 0.164202 0
M  V30 5764 H 557.847 -1.61774 1.08698 0
M  V30 5765 H 556.943 -3.06387 0.594407 0
M  V30 5766 N 557.244 -0.608902 -1.45362 0
M  V30 5767 C 558.49 -0.104762 -2.02529 0
M  V30 5768 C 558.823 1.26191 -1.47613 0
M  V30 5769 O 558.098 1.8327 -0.65134 0
M  V30 5770 C 558.381 -0.0672661 -3.60037 0
M  V30 5771 C 558.234 -1.4647 -4.25284 0
M  V30 5772 C 559.553 0.619877 -4.35713 0
M  V30 5773 H 556.672 -0.0395438 -0.735938 0
M  V30 5774 H 559.314 -0.781126 -1.73201 0
M  V30 5775 H 557.464 0.50871 -3.85155 0
M  V30 5776 H 559.136 -2.08785 -4.11347 0
M  V30 5777 H 557.379 -2.02502 -3.83634 0
M  V30 5778 H 558.05 -1.39069 -5.34195 0
M  V30 5779 H 560.526 0.130297 -4.15896 0
M  V30 5780 H 559.402 0.615224 -5.45441 0
M  V30 5781 H 559.663 1.68621 -4.0868 0
M  V30 5782 N 558.722 1.53707 -0.348139 0
M  V30 5783 C 560.138 1.596 0.00361134 0
M  V30 5784 C 560.338 1.36394 1.4832 0
M  V30 5785 O 559.394 1.16046 2.24253 0
M  V30 5786 C 560.707 2.97512 -0.436682 0
M  V30 5787 C 562.255 3.10568 -0.389416 0
M  V30 5788 C 562.73 4.50866 -0.805249 0
M  V30 5789 N 564.221 4.56929 -0.759616 0
M  V30 5790 C 564.956 5.63643 -1.05327 0
M  V30 5791 N 564.452 6.78189 -1.41531 0
M  V30 5792 N 566.245 5.5354 -0.977207 0
M  V30 5793 H 558.396 1.67044 -1.31187 0
M  V30 5794 H 560.659 0.782559 -0.535075 0
M  V30 5795 H 560.365 3.19575 -1.46849 0
M  V30 5796 H 560.239 3.76742 0.185744 0
M  V30 5797 H 562.626 2.88226 0.633228 0
M  V30 5798 H 562.707 2.33387 -1.04711 0
M  V30 5799 H 562.351 4.73943 -1.82593 0
M  V30 5800 H 562.281 5.26452 -0.124989 0
M  V30 5801 H 564.772 3.74675 -0.49265 0
M  V30 5802 H 565.085 7.55541 -1.62411 0
M  V30 5803 H 563.43 6.79624 -1.45381 0
M  V30 5804 H 566.621 4.62932 -0.693675 0
M  V30 5805 H 566.794 6.36614 -1.2094 0
M  V30 5806 N 560.2 0.0768682 1.57412 0
M  V30 5807 C 561.163 -0.873949 2.11884 0
M  V30 5808 C 562.163 -1.22301 1.04398 0
M  V30 5809 O 563.353 -1.15545 1.30365 0
M  V30 5810 C 560.485 -2.17575 2.62438 0
M  V30 5811 H 561.678 -0.401278 2.97203 0
M  V30 5812 H 559.231 -0.171904 1.55352 0
M  V30 5813 H 559.966 -2.69368 1.80587 0
M  V30 5814 H 559.751 -1.93534 3.41009 0
M  V30 5815 H 561.241 -2.85631 3.04639 0
M  V30 5816 N 561.678 -1.56367 -0.196722 0
M  V30 5817 C 562.955 -1.71359 -0.943159 0
M  V30 5818 C 563.335 -0.631192 -2.01443 0
M  V30 5819 O 562.683 0.358071 -2.25677 0
M  V30 5820 C 562.893 -3.13623 -1.53106 0
M  V30 5821 C 564.241 -3.73806 -2.01381 0
M  V30 5822 O 565.265 -3.16742 -1.62951 0
M  V30 5823 O 564.124 -4.73951 -2.7209 0
M  V30 5824 H 561.218 -0.698851 -0.442195 0
M  V30 5825 H 563.764 -1.68672 -0.186547 0
M  V30 5826 H 562.536 -3.83873 -0.758785 0
M  V30 5827 H 562.159 -3.20532 -2.35255 0
M  V30 5828 N 563.156 0.464375 -1.50603 0
M  V30 5829 C 564.381 1.24372 -1.65971 0
M  V30 5830 C 564.806 1.84901 -0.345453 0
M  V30 5831 O 564.164 1.67596 0.691457 0
M  V30 5832 C 564.212 2.32331 -2.7578 0
M  V30 5833 O 563.316 3.37146 -2.375 0
M  V30 5834 H 562.657 0.365604 -0.554283 0
M  V30 5835 H 565.187 0.55183 -1.97018 0
M  V30 5836 H 565.197 2.77539 -2.99059 0
M  V30 5837 H 563.872 1.87648 -3.71162 0
M  V30 5838 H 562.449 2.97602 -2.24694 0
M  V30 5839 N 564.634 1.40294 0.718013 0
M  V30 5840 C 565.597 1.4012 1.81381 0
M  V30 5841 C 566.597 0.295405 1.58063 0
M  V30 5842 O 567.787 0.554187 1.6515 0
M  V30 5843 C 564.919 1.19056 3.19435 0
M  V30 5844 H 566.112 2.37645 1.82933 0
M  V30 5845 H 563.665 1.26107 0.923405 0
M  V30 5846 H 564.4 0.222809 3.23534 0
M  V30 5847 H 564.185 1.99152 3.37758 0
M  V30 5848 H 565.675 1.21716 3.99468 0
M  V30 5849 N 566.112 -0.949982 1.2575 0
M  V30 5850 C 567.361 -1.68956 1.10168 0
M  V30 5851 C 567.674 -1.92327 -0.356309 0
M  V30 5852 O 568.88 -2.64026 -0.632657 0
M  V30 5853 C 567.336 -3.04196 1.92336 0
M  V30 5854 C 566.944 -2.88603 3.42655 0
M  V30 5855 C 568.688 -3.81904 1.85336 0
M  V30 5856 C 566.595 -4.19262 4.17101 0
M  V30 5857 H 565.525 -0.633645 0.408668 0
M  V30 5858 H 568.176 -1.05719 1.49986 0
M  V30 5859 H 566.558 -3.68363 1.45344 0
M  V30 5860 H 567.732 -2.3334 3.97353 0
M  V30 5861 H 566.047 -2.24345 3.50796 0
M  V30 5862 H 568.644 -4.78688 2.38248 0
M  V30 5863 H 568.987 -4.08099 0.822226 0
M  V30 5864 H 569.52 -3.24495 2.30104 0
M  V30 5865 H 566.259 -3.98254 5.20648 0
M  V30 5866 H 565.779 -4.74273 3.67186 0
M  V30 5867 H 567.458 -4.87775 4.25071 0
M  V30 5868 N 567.59 -1.07411 -1.15328 0
M  V30 5869 C 568.815 -0.818856 -1.90551 0
M  V30 5870 C 569.24 0.622194 -1.77512 0
M  V30 5871 O 568.598 1.43484 -1.10824 0
M  V30 5872 C 568.646 -1.23267 -3.38877 0
M  V30 5873 O 567.75 -0.378345 -4.10661 0
M  V30 5874 H 567.091 -0.29827 -0.593238 0
M  V30 5875 H 569.621 -1.43289 -1.46046 0
M  V30 5876 H 569.631 -1.20912 -3.89672 0
M  V30 5877 H 568.306 -2.28226 -3.47686 0
M  V30 5878 H 566.883 -0.464437 -3.69996 0
M  V30 5879 N 569.068 1.32177 -0.85831 0
M  V30 5880 C 570.315 1.97125 -0.463484 0
M  V30 5881 C 570.643 1.67907 0.981705 0
M  V30 5882 O 569.898 0.961717 1.70439 0
M  V30 5883 C 570.197 3.51372 -0.653658 0
M  V30 5884 C 569.863 4.00584 -2.06987 0
M  V30 5885 C 568.525 4.13733 -2.4572 0
M  V30 5886 C 570.877 4.26624 -2.99402 0
M  V30 5887 C 568.205 4.50268 -3.76132 0
M  V30 5888 C 570.557 4.64618 -4.29316 0
M  V30 5889 C 569.221 4.75975 -4.67979 0
M  V30 5890 H 568.491 0.72133 -0.169601 0
M  V30 5891 H 571.138 1.57517 -1.08907 0
M  V30 5892 H 569.443 3.91761 0.0551328 0
M  V30 5893 H 571.14 3.99655 -0.328163 0
M  V30 5894 H 567.73 3.90837 -1.75911 0
M  V30 5895 H 571.914 4.1597 -2.70708 0
M  V30 5896 H 567.17 4.57256 -4.05865 0
M  V30 5897 H 571.344 4.83722 -5.00985 0
M  V30 5898 H 568.971 5.04041 -5.69076 0
M  V30 5899 N 570.547 0.616602 1.45037 0
M  V30 5900 C 571.497 -0.118543 2.27692 0
M  V30 5901 C 572.481 -0.830025 1.37838 0
M  V30 5902 O 573.673 -0.718528 1.6176 0
M  V30 5903 C 570.802 -1.10924 3.24886 0
M  V30 5904 C 569.888 -0.398134 4.22227 0
M  V30 5905 N 570.279 0.565233 5.02632 0
M  V30 5906 C 568.577 -0.644506 4.41319 0
M  V30 5907 C 569.278 0.984043 5.73316 0
M  V30 5908 N 568.254 0.325879 5.42622 0
M  V30 5909 H 572.056 0.621239 2.87259 0
M  V30 5910 H 569.57 0.440968 1.56299 0
M  V30 5911 H 571.567 -1.65038 3.82842 0
M  V30 5912 H 570.227 -1.84948 2.66879 0
M  V30 5913 H 571.238 0.942395 5.09254 0
M  V30 5914 H 567.915 -1.36873 3.94426 0
M  V30 5915 H 569.305 1.77911 6.47918 0
M  V30 5916 N 572.025 -1.5352 0.356285 0
M  V30 5917 C 573.25 -2.06007 -0.239961 0
M  V30 5918 C 573.675 -1.22872 -1.42422 0
M  V30 5919 O 573.033 -0.245516 -1.7963 0
M  V30 5920 C 573.081 -3.5522 -0.620587 0
M  V30 5921 O 572.185 -3.74864 -1.71902 0
M  V30 5922 H 571.526 -0.662961 -0.0371377 0
M  V30 5923 H 574.056 -1.98033 0.514194 0
M  V30 5924 H 574.066 -3.98081 -0.894197 0
M  V30 5925 H 572.741 -4.15175 0.245407 0
M  V30 5926 H 571.318 -3.43904 -1.44169 0
M  V30 5927 N 573.503 -0.0852151 -1.57369 0
M  V30 5928 C 574.751 0.579658 -1.93609 0
M  V30 5929 C 575.072 1.69332 -0.967043 0
M  V30 5930 O 574.342 1.95892 -0.0174215 0
M  V30 5931 H 572.922 0.217113 -0.714752 0
M  V30 5932 H 575.584 -0.146226 -1.94351 0
M  V30 5933 H 574.68 0.996276 -2.95771 0
M  V30 5934 N 574.981 1.5647 0.188427 0
M  V30 5935 C 576.211 1.84863 0.922463 0
M  V30 5936 C 576.619 0.666413 1.77075 0
M  V30 5937 O 575.962 -0.374044 1.79852 0
M  V30 5938 C 576.024 3.07447 1.86324 0
M  V30 5939 C 575.688 4.41066 1.19625 0
M  V30 5940 C 576.685 5.16767 0.569946 0
M  V30 5941 C 574.37 4.87802 1.19811 0
M  V30 5942 C 576.364 6.37384 -0.045594 0
M  V30 5943 C 574.051 6.08353 0.57874 0
M  V30 5944 C 575.049 6.82987 -0.0420259 0
M  V30 5945 O 574.737 8.01254 -0.651675 0
M  V30 5946 H 574.469 0.61784 0.274316 0
M  V30 5947 H 577.023 2.04437 0.198613 0
M  V30 5948 H 575.253 2.83774 2.62696 0
M  V30 5949 H 576.942 3.2243 2.46564 0
M  V30 5950 H 577.708 4.81749 0.560601 0
M  V30 5951 H 573.587 4.29662 1.67069 0
M  V30 5952 H 577.131 6.95578 -0.530731 0
M  V30 5953 H 573.028 6.42838 0.58561 0
M  V30 5954 H 573.796 8.16655 -0.549236 0
M  V30 5955 N 576.459 -0.456382 1.50847 0
M  V30 5956 C 577.684 -1.2349 1.66628 0
M  V30 5957 C 578.109 -1.84715 0.355254 0
M  V30 5958 O 577.467 -1.67961 -0.682559 0
M  V30 5959 C 577.515 -2.30865 2.77009 0
M  V30 5960 O 576.619 -3.35882 2.39285 0
M  V30 5961 H 575.96 -0.36266 0.556214 0
M  V30 5962 H 578.49 -0.541374 1.97308 0
M  V30 5963 H 578.5 -2.75949 3.00526 0
M  V30 5964 H 577.175 -1.85677 3.72152 0
M  V30 5965 H 575.752 -2.96406 2.26269 0
M  V30 5966 N 577.937 -1.40673 -0.710563 0
M  V30 5967 C 579.185 -1.38947 -1.46759 0
M  V30 5968 C 579.506 0.00572879 -1.94999 0
M  V30 5969 O 578.776 0.961358 -1.70689 0
M  V30 5970 H 577.356 -0.5114 -0.544499 0
M  V30 5971 H 580.018 -1.75773 -0.842012 0
M  V30 5972 H 579.114 -2.06745 -2.33801 0
M  V30 5973 N 579.415 0.9433 -1.26252 0
M  V30 5974 C 580.345 2.05902 -1.10122 0
M  V30 5975 C 581.326 1.70099 -0.00700552 0
M  V30 5976 O 582.511 1.93377 -0.178641 0
M  V30 5977 C 579.641 3.39516 -0.731175 0
M  V30 5978 C 578.595 3.89372 -1.77688 0
M  V30 5979 C 577.921 5.19613 -1.26122 0
M  V30 5980 C 579.221 4.14489 -3.17799 0
M  V30 5981 H 580.915 2.19655 -2.03451 0
M  V30 5982 H 578.461 1.05548 -0.979576 0
M  V30 5983 H 580.414 4.17031 -0.605215 0
M  V30 5984 H 579.138 3.25733 0.23782 0
M  V30 5985 H 577.797 3.14036 -1.89148 0
M  V30 5986 H 577.445 5.02208 -0.282128 0
M  V30 5987 H 577.145 5.53939 -1.96023 0
M  V30 5988 H 578.669 5.99713 -1.14789 0
M  V30 5989 H 580.083 4.82625 -3.09428 0
M  V30 5990 H 578.48 4.60094 -3.85271 0
M  V30 5991 H 579.55 3.20347 -3.64014 0
M  V30 5992 N 580.893 1.08022 1.14757 0
M  V30 5993 C 582.139 0.808705 1.85978 0
M  V30 5994 C 582.472 -0.663764 1.82504 0
M  V30 5995 O 581.747 -1.48765 1.25296 0
M  V30 5996 C 582.03 1.32623 3.34788 0
M  V30 5997 C 581.883 2.86375 3.46856 0
M  V30 5998 C 583.202 0.948291 4.29762 0
M  V30 5999 H 580.321 0.295244 0.675278 0
M  V30 6000 H 582.963 1.33917 1.34783 0
M  V30 6001 H 581.113 0.875002 3.78518 0
M  V30 6002 H 582.785 3.39839 3.11941 0
M  V30 6003 H 581.028 3.24232 2.88194 0
M  V30 6004 H 581.699 3.17658 4.51439 0
M  V30 6005 H 584.175 1.33722 3.94028 0
M  V30 6006 H 583.051 1.33765 5.32352 0
M  V30 6007 H 583.312 -0.145094 4.41862 0
M  V30 6008 N 582.371 -1.3172 0.865308 0
M  V30 6009 C 583.334 -2.26918 0.322627 0
M  V30 6010 C 584.334 -1.52031 -0.523751 0
M  V30 6011 O 585.524 -1.70973 -0.333727 0
M  V30 6012 C 582.656 -3.36558 -0.542338 0
M  V30 6013 H 583.849 -2.76432 1.16298 0
M  V30 6014 H 581.402 -1.42573 0.640512 0
M  V30 6015 H 582.137 -2.92329 -1.40407 0
M  V30 6016 H 581.922 -3.92048 0.0636395 0
M  V30 6017 H 583.412 -4.07465 -0.91446 0
M  V30 6018 N 583.85 -0.624285 -1.44708 0
M  V30 6019 C 585.077 -0.132919 -2.06473 0
M  V30 6020 C 585.493 1.18967 -1.46602 0
M  V30 6021 O 584.85 1.72824 -0.586341 0
M  V30 6022 C 584.901 -0.00465418 -3.615 0
M  V30 6023 O 584.622 -1.27494 -4.19138 0
M  V30 6024 C 586.123 0.516213 -4.40284 0
M  V30 6025 H 583.343 -0.0765201 -0.666623 0
M  V30 6026 H 585.887 -0.856751 -1.85688 0
M  V30 6027 H 584.042 0.669583 -3.8157 0
M  V30 6028 H 584.456 -1.11536 -5.12504 0
M  V30 6029 H 585.93 0.554994 -5.49203 0
M  V30 6030 H 586.407 1.5419 -4.11245 0
M  V30 6031 H 587.013 -0.124542 -4.25118 0
M  V30 6032 N 585.328 1.53329 -0.364422 0
M  V30 6033 C 586.574 2.01537 0.225969 0
M  V30 6034 C 586.907 1.25128 1.48515 0
M  V30 6035 O 586.182 0.344653 1.91422 0
M  V30 6036 C 586.465 3.56339 0.519092 0
M  V30 6037 C 586.318 4.43441 -0.753639 0
M  V30 6038 C 587.637 4.19833 1.32015 0
M  V30 6039 H 584.756 0.732573 0.0806548 0
M  V30 6040 H 587.398 1.83597 -0.489084 0
M  V30 6041 H 585.548 3.71756 1.12825 0
M  V30 6042 H 587.22 4.39823 -1.39116 0
M  V30 6043 H 585.463 4.11457 -1.37424 0
M  V30 6044 H 586.134 5.49699 -0.503517 0
M  V30 6045 H 588.61 4.08242 0.804859 0
M  V30 6046 H 587.486 5.28177 1.49399 0
M  V30 6047 H 587.747 3.75821 2.32832 0
M  V30 6048 N 586.806 0.0935595 1.57322 0
M  V30 6049 C 588.031 -0.582324 1.99057 0
M  V30 6050 C 588.456 -1.61025 0.972242 0
M  V30 6051 O 587.814 -1.81202 -0.0594622 0
M  V30 6052 C 587.862 -1.20799 3.39765 0
M  V30 6053 O 586.966 -2.32382 3.40694 0
M  V30 6054 H 586.307 -0.147884 0.647323 0
M  V30 6055 H 588.837 0.174516 2.03854 0
M  V30 6056 H 588.847 -1.54966 3.77425 0
M  V30 6057 H 587.522 -0.454914 4.13405 0
M  V30 6058 H 586.099 -1.99845 3.14827 0
M  V30 6059 N 588.284 -1.56567 -0.180126 0
M  V30 6060 C 589.532 -1.81133 -0.896392 0
M  V30 6061 C 589.853 -0.669114 -1.83161 0
M  V30 6062 O 589.123 0.311616 -1.93406 0
M  V30 6063 H 587.703 -0.668172 -0.333999 0
M  V30 6064 H 590.365 -1.94048 -0.182051 0
M  V30 6065 H 589.461 -2.74854 -1.47857 0
M  V30 6066 N 589.762 0.448376 -1.51087 0
M  V30 6067 C 590.987 1.22605 -1.6728 0
M  V30 6068 C 591.412 1.84524 -0.365045 0
M  V30 6069 O 590.77 1.6832 0.673642 0
M  V30 6070 C 590.818 2.29393 -2.78229 0
M  V30 6071 O 589.922 3.34608 -2.41063 0
M  V30 6072 H 589.263 0.359705 -0.558129 0
M  V30 6073 H 591.793 0.530903 -1.97592 0
M  V30 6074 H 591.803 2.74352 -3.01986 0
M  V30 6075 H 590.478 1.83701 -3.73131 0
M  V30 6076 H 589.055 2.95202 -2.27838 0
M  V30 6077 N 591.24 1.41047 0.703093 0
M  V30 6078 C 592.172 1.38228 1.82827 0
M  V30 6079 C 593.185 0.285637 1.60275 0
M  V30 6080 O 594.374 0.54685 1.69917 0
M  V30 6081 C 591.474 1.13136 3.19458 0
M  V30 6082 C 590.647 2.34695 3.69103 0
M  V30 6083 C 589.706 2.05574 4.84382 0
M  V30 6084 O 588.732 2.78549 4.96386 0
M  V30 6085 N 589.934 1.04135 5.71083 0
M  V30 6086 H 592.699 2.35203 1.85741 0
M  V30 6087 H 590.26 1.35562 0.885125 0
M  V30 6088 H 592.252 0.916183 3.94193 0
M  V30 6089 H 590.822 0.247836 3.11616 0
M  V30 6090 H 590.042 2.71963 2.85359 0
M  V30 6091 H 591.33 3.15705 3.99009 0
M  V30 6092 H 590.728 0.43722 5.64008 0
M  V30 6093 H 589.285 0.886078 6.45749 0
M  V30 6094 N 592.718 -0.936591 1.26751 0
M  V30 6095 C 593.65 -2.03991 1.045 0
M  V30 6096 C 594.663 -1.628 0.00394261 0
M  V30 6097 O 595.852 -1.76817 0.244526 0
M  V30 6098 C 592.952 -3.34218 0.561403 0
M  V30 6099 C 592.125 -4.04151 1.67274 0
M  V30 6100 C 591.184 -5.12651 1.1864 0
M  V30 6101 O 590.21 -5.37104 1.88437 0
M  V30 6102 N 591.412 -5.80488 0.037278 0
M  V30 6103 H 594.177 -2.23644 1.99508 0
M  V30 6104 H 591.738 -1.10638 1.18198 0
M  V30 6105 H 593.73 -4.04101 0.220136 0
M  V30 6106 H 592.3 -3.11203 -0.295211 0
M  V30 6107 H 591.52 -3.28121 2.18472 0
M  V30 6108 H 592.808 -4.47626 2.41885 0
M  V30 6109 H 592.206 -5.63064 -0.545494 0
M  V30 6110 H 590.763 -6.5134 -0.244877 0
M  V30 6111 N 594.196 -1.08629 -1.14182 0
M  V30 6112 C 595.424 -0.838889 -1.8913 0
M  V30 6113 C 595.839 0.609153 -1.78703 0
M  V30 6114 O 595.196 1.41876 -1.14794 0
M  V30 6115 C 595.247 -1.25477 -3.39025 0
M  V30 6116 O 594.968 -2.64601 -3.49167 0
M  V30 6117 C 596.469 -1.03856 -4.30963 0
M  V30 6118 H 593.689 -0.302377 -0.599007 0
M  V30 6119 H 596.233 -1.44615 -1.44592 0
M  V30 6120 H 594.388 -0.691571 -3.81177 0
M  V30 6121 H 594.802 -2.81922 -4.42289 0
M  V30 6122 H 596.276 -1.37892 -5.345 0
M  V30 6123 H 596.753 0.0242522 -4.39193 0
M  V30 6124 H 597.359 -1.58731 -3.94569 0
M  V30 6125 N 595.674 1.31259 -0.872281 0
M  V30 6126 C 596.604 2.30929 -0.345554 0
M  V30 6127 C 597.585 1.60449 0.5648 0
M  V30 6128 O 598.77 1.8814 0.481335 0
M  V30 6129 C 595.9 3.44348 0.451823 0
M  V30 6130 C 594.854 4.26435 -0.365641 0
M  V30 6131 C 594.18 5.31785 0.557562 0
M  V30 6132 C 595.48 4.97159 -1.60095 0
M  V30 6133 H 597.174 2.75234 -1.17841 0
M  V30 6134 H 594.72 1.3232 -0.568094 0
M  V30 6135 H 596.673 4.13128 0.830854 0
M  V30 6136 H 595.397 2.98816 1.31821 0
M  V30 6137 H 594.056 3.59326 -0.726649 0
M  V30 6138 H 593.704 4.82502 1.4213 0
M  V30 6139 H 593.404 5.87598 0.0144878 0
M  V30 6140 H 594.928 6.03424 0.933387 0
M  V30 6141 H 596.342 5.58523 -1.29323 0
M  V30 6142 H 594.739 5.62779 -2.08327 0
M  V30 6143 H 595.809 4.24012 -2.35249 0
M  V30 6144 N 597.152 0.631951 1.44375 0
M  V30 6145 C 598.398 0.13697 2.02337 0
M  V30 6146 C 598.731 -1.23826 1.49602 0
M  V30 6147 O 598.006 -1.8221 0.680415 0
M  V30 6148 C 598.289 0.124536 3.59885 0
M  V30 6149 C 598.142 1.53217 4.229 0
M  V30 6150 C 599.461 -0.550481 4.36644 0
M  V30 6151 H 596.58 0.051247 0.735216 0
M  V30 6152 H 599.222 0.808581 1.71936 0
M  V30 6153 H 597.372 -0.44737 3.85916 0
M  V30 6154 H 599.044 2.15303 4.07973 0
M  V30 6155 H 597.287 2.0858 3.80364 0
M  V30 6156 H 597.958 1.4755 5.31914 0
M  V30 6157 H 600.434 -0.0641154 4.16051 0
M  V30 6158 H 599.31 -0.528371 5.46351 0
M  V30 6159 H 599.571 -1.62097 4.11311 0
M  V30 6160 N 598.631 -1.53133 0.372548 0
M  V30 6161 C 599.877 -2.01654 -0.215277 0
M  V30 6162 C 600.21 -1.25914 -1.47849 0
M  V30 6163 O 599.485 -0.3548 -1.91237 0
M  V30 6164 C 599.768 -3.56609 -0.500187 0
M  V30 6165 C 599.621 -4.43036 0.777145 0
M  V30 6166 C 600.94 -4.20528 -1.29786 0
M  V30 6167 H 598.059 -0.732991 -0.0767686 0
M  V30 6168 H 600.701 -1.83335 0.498814 0
M  V30 6169 H 598.851 -3.7235 -1.10852 0
M  V30 6170 H 600.523 -4.39079 1.41447 0
M  V30 6171 H 598.766 -4.10723 1.39604 0
M  V30 6172 H 599.437 -5.49424 0.532662 0
M  V30 6173 H 601.913 -4.08663 -0.783198 0
M  V30 6174 H 600.789 -5.28962 -1.46596 0
M  V30 6175 H 601.05 -3.77051 -2.30836 0
M  V30 6176 N 600.109 -0.101901 -1.5727 0
M  V30 6177 C 601.072 0.840129 -2.13247 0
M  V30 6178 C 602.072 1.20625 -1.06331 0
M  V30 6179 O 603.262 1.13456 -1.32186 0
M  V30 6180 C 600.394 2.13372 -2.65867 0
M  V30 6181 H 601.587 0.353945 -2.97804 0
M  V30 6182 H 599.14 0.147167 -1.55606 0
M  V30 6183 H 599.875 2.66461 -1.84849 0
M  V30 6184 H 599.66 1.88085 -3.44044 0
M  V30 6185 H 601.15 2.80748 -3.09145 0
M  V30 6186 N 601.587 1.56661 0.17182 0
M  V30 6187 C 602.517 1.99401 1.21498 0
M  V30 6188 C 603.498 0.869516 1.46197 0
M  V30 6189 O 604.683 1.13556 1.57539 0
M  V30 6190 C 601.813 2.35346 2.55401 0
M  V30 6191 C 600.767 3.5075 2.45272 0
M  V30 6192 C 600.093 3.72437 3.8366 0
M  V30 6193 C 601.393 4.84216 1.95787 0
M  V30 6194 H 603.087 2.86792 0.859699 0
M  V30 6195 H 600.633 1.37977 0.412103 0
M  V30 6196 H 602.586 2.63843 3.2858 0
M  V30 6197 H 601.31 1.44864 2.92715 0
M  V30 6198 H 599.969 3.2238 1.74547 0
M  V30 6199 H 599.617 2.79246 4.18367 0
M  V30 6200 H 599.317 4.50087 3.77751 0
M  V30 6201 H 600.841 4.03334 4.58426 0
M  V30 6202 H 602.255 5.11592 2.5874 0
M  V30 6203 H 600.652 5.65498 2.00827 0
M  V30 6204 H 601.722 4.76243 0.912159 0
M  V30 6205 N 603.065 -0.440357 1.51323 0
M  V30 6206 C 604.013 -1.55492 1.72988 0
M  V30 6207 C 605.007 -1.58564 0.596138 0
M  V30 6208 O 606.213 -1.62345 0.777443 0
M  V30 6209 H 602.588 -0.516532 0.546533 0
M  V30 6210 H 604.559 -1.34392 2.66423 0
M  V30 6211 C 603.308 -2.93176 1.86931 0
M  V30 6212 H 602.631 -2.91543 2.73574 0
M  V30 6213 H 604.071 -3.70537 2.06103 0
M  V30 6214 C 602.53 -3.30988 0.628365 0
M  V30 6215 O 603.06 -4.01106 -0.218367 0
M  V30 6216 N 601.266 -2.86719 0.473339 0
M  V30 6217 H 600.813 -2.2983 1.16345 0
M  V30 6218 H 600.771 -3.12381 -0.355727 0
M  V30 6219 N 604.543 -1.41418 -0.695603 0
M  V30 6220 C 605.768 -1.44329 -1.48942 0
M  V30 6221 C 606.193 -0.0501579 -1.88033 0
M  V30 6222 O 605.551 0.946598 -1.54626 0
M  V30 6223 C 605.599 -2.3578 -2.72837 0
M  V30 6224 O 604.703 -1.81482 -3.70322 0
M  V30 6225 H 604.044 -0.489838 -0.44828 0
M  V30 6226 H 606.574 -1.85878 -0.855014 0
M  V30 6227 H 606.584 -2.51654 -3.21145 0
M  V30 6228 H 605.259 -3.37005 -2.43722 0
M  V30 6229 H 603.836 -1.75058 -3.29255 0
M  V30 6230 N 606.021 0.929856 -1.27246 0
M  V30 6231 C 607.298 1.65544 -1.04186 0
M  V30 6232 C 607.678 2.06796 0.424097 0
M  V30 6233 O 607.026 1.80053 1.40688 0
M  V30 6234 C 607.236 2.85912 -2.00138 0
M  V30 6235 C 608.584 3.57305 -2.29387 0
M  V30 6236 O 609.608 2.96036 -1.98094 0
M  V30 6237 O 608.467 4.67688 -2.82719 0
M  V30 6238 H 605.561 0.725473 -0.397011 0
M  V30 6239 H 608.107 0.980583 -1.38501 0
M  V30 6240 H 606.879 2.52403 -2.99013 0
M  V30 6241 H 606.502 3.61118 -1.66371 0
M  V30 6242 N 607.499 1.09233 1.13605 0
M  V30 6243 C 608.429 0.751738 2.21068 0
M  V30 6244 C 609.41 -0.269688 1.67948 0
M  V30 6245 O 610.595 -0.13819 1.93708 0
M  V30 6246 C 607.725 0.16935 3.46887 0
M  V30 6247 C 606.679 1.12007 4.13084 0
M  V30 6248 C 606.005 0.399483 5.33206 0
M  V30 6249 C 607.305 2.46168 4.6065 0
M  V30 6250 H 608.999 1.65024 2.49815 0
M  V30 6251 H 606.545 0.794905 1.20072 0
M  V30 6252 H 608.498 -0.0809824 4.21322 0
M  V30 6253 H 607.222 -0.764335 3.1753 0
M  V30 6254 H 605.881 1.35564 3.40614 0
M  V30 6255 H 605.529 -0.538277 5.00112 0
M  V30 6256 H 605.229 1.03337 5.78442 0
M  V30 6257 H 606.753 0.157403 6.10397 0
M  V30 6258 H 608.167 2.26829 5.26518 0
M  V30 6259 H 606.564 3.05326 5.1662 0
M  V30 6260 H 607.634 3.07076 3.75276 0
M  V30 6261 N 608.977 -1.30795 0.87923 0
M  V30 6262 C 610.225 -1.95974 0.493809 0
M  V30 6263 C 610.546 -1.69787 -0.959021 0
M  V30 6264 O 609.816 -1.01832 -1.67353 0
M  V30 6265 H 608.396 -0.725083 0.179622 0
M  V30 6266 H 611.058 -1.59432 1.12105 0
M  V30 6267 H 610.154 -3.05058 0.659263 0
M  V30 6268 N 610.455 -0.639598 -1.44038 0
M  V30 6269 C 611.403 0.0723409 -2.32487 0
M  V30 6270 C 612.397 0.827129 -1.47834 0
M  V30 6271 O 613.603 0.73907 -1.64127 0
M  V30 6272 H 609.978 0.0421696 -0.750817 0
M  V30 6273 H 611.949 -0.691593 -2.90275 0
M  V30 6274 C 610.698 1.03452 -3.31953 0
M  V30 6275 H 610.021 0.46315 -3.97108 0
M  V30 6276 H 611.461 1.502 -3.96505 0
M  V30 6277 C 609.92 2.12392 -2.61518 0
M  V30 6278 O 610.45 3.2059 -2.42044 0
M  V30 6279 N 608.656 1.88563 -2.21116 0
M  V30 6280 H 608.203 1.00577 -2.37154 0
M  V30 6281 H 608.161 2.61651 -1.74316 0
M  V30 6282 N 611.933 1.52934 -0.380664 0
M  V30 6283 C 613.344 1.86457 0.0952684 0
M  V30 6284 C 613.695 1.3007 1.46889 0
M  V30 6285 O 612.82 0.628636 2.07068 0
M  V30 6286 C 613.415 3.38323 0.179648 0
M  V30 6287 C 611.974 3.71589 0.599858 0
M  V30 6288 C 611.121 2.76228 -0.243572 0
M  V30 6289 H 614.072 1.46966 -0.59888 0
M  V30 6290 H 614.093 3.67113 1.00042 0
M  V30 6291 H 613.605 3.79333 -0.820228 0
M  V30 6292 H 611.706 3.36144 1.60742 0
M  V30 6293 H 611.819 4.77715 0.364003 0
M  V30 6294 H 610.183 2.53045 0.289855 0
M  V30 6295 H 610.966 3.20074 -1.24127 0
M  V30 6296 N 613.412 0.11024 1.57214 0
M  V30 6297 C 614.66 -0.548783 1.94506 0
M  V30 6298 C 614.981 -1.67772 0.99386 0
M  V30 6299 O 614.251 -1.9584 0.0485841 0
M  V30 6300 H 612.831 -0.205715 0.718116 0
M  V30 6301 H 615.493 0.177127 1.94093 0
M  V30 6302 H 614.589 -0.949096 2.97319 0
M  V30 6303 N 614.89 -1.56749 -0.16351 0
M  V30 6304 C 615.822 -1.93587 -1.22705 0
M  V30 6305 C 616.835 -0.829824 -1.40063 0
M  V30 6306 O 618.024 -1.10826 -1.39928 0
M  V30 6307 C 615.124 -2.1803 -2.59454 0
M  V30 6308 C 614.297 -3.4928 -2.63292 0
M  V30 6309 C 613.356 -3.62457 -3.8146 0
M  V30 6310 O 612.382 -4.35004 -3.67096 0
M  V30 6311 N 613.584 -2.97888 -4.9824 0
M  V30 6312 H 616.349 -2.8542 -0.914081 0
M  V30 6313 H 613.91 -1.58 -0.353214 0
M  V30 6314 H 615.902 -2.24102 -3.36987 0
M  V30 6315 H 614.472 -1.32543 -2.8311 0
M  V30 6316 H 613.692 -3.54795 -1.71796 0
M  V30 6317 H 614.98 -4.35632 -2.62873 0
M  V30 6318 H 614.378 -2.38833 -5.12811 0
M  V30 6319 H 612.935 -3.09545 -5.73607 0
M  V30 6320 N 616.368 0.432326 -1.51554 0
M  V30 6321 C 617.614 1.18309 -1.64714 0
M  V30 6322 C 617.947 1.90745 -0.364696 0
M  V30 6323 O 617.222 1.8381 0.635936 0
M  V30 6324 C 617.505 2.1961 -2.85383 0
M  V30 6325 C 617.358 1.51223 -4.23617 0
M  V30 6326 C 618.677 3.20538 -3.01569 0
M  V30 6327 H 615.796 0.428751 -0.599451 0
M  V30 6328 H 618.438 0.471689 -1.84052 0
M  V30 6329 H 616.588 2.8028 -2.69027 0
M  V30 6330 H 618.26 0.938516 -4.51652 0
M  V30 6331 H 616.503 0.814501 -4.26085 0
M  V30 6332 H 617.174 2.25024 -5.04052 0
M  V30 6333 H 619.65 2.69926 -3.16669 0
M  V30 6334 H 618.526 3.88706 -3.87555 0
M  V30 6335 H 618.787 3.86933 -2.13859 0
M  V30 6336 N 617.846 1.41785 0.688094 0
M  V30 6337 C 618.809 1.43936 1.78368 0
M  V30 6338 C 619.809 0.328866 1.57401 0
M  V30 6339 O 620.999 0.589093 1.63937 0
M  V30 6340 C 618.131 1.25804 3.16838 0
M  V30 6341 H 619.324 2.41472 1.77852 0
M  V30 6342 H 616.877 1.28037 0.896448 0
M  V30 6343 H 617.612 0.291386 3.22988 0
M  V30 6344 H 617.397 2.06272 3.33458 0
M  V30 6345 H 618.887 1.30162 3.96797 0
M  V30 6346 N 619.324 -0.923095 1.27737 0
M  V30 6347 C 620.549 -1.71054 1.17283 0
M  V30 6348 C 620.974 -1.86208 -0.266153 0
M  V30 6349 O 620.332 -1.36545 -1.1927 0
M  V30 6350 C 620.38 -3.0854 1.86642 0
M  V30 6351 O 619.484 -3.95528 1.16752 0
M  V30 6352 H 618.825 -0.524136 0.407649 0
M  V30 6353 H 621.355 -1.15487 1.6889 0
M  V30 6354 H 621.365 -3.58828 1.94182 0
M  V30 6355 H 620.04 -2.96828 2.91317 0
M  V30 6356 H 618.617 -3.53967 1.17312 0
M  V30 6357 N 620.802 -1.09834 -1.13024 0
M  V30 6358 C 622.05 -0.835297 -1.8403 0
M  V30 6359 C 622.371 0.640944 -1.84165 0
M  V30 6360 O 621.641 1.46517 -1.30037 0
M  V30 6361 H 620.221 -0.306018 -0.681441 0
M  V30 6362 H 622.883 -1.38734 -1.36891 0
M  V30 6363 H 621.979 -1.19258 -2.88416 0
M  V30 6364 N 622.28 1.30327 -0.886154 0
M  V30 6365 C 623.505 2.0079 -0.519425 0
M  V30 6366 C 623.93 1.65979 0.885013 0
M  V30 6367 O 623.288 0.877043 1.58675 0
M  V30 6368 C 623.336 3.53686 -0.702758 0
M  V30 6369 O 622.44 4.11637 0.250828 0
M  V30 6370 H 621.781 0.63171 -0.204544 0
M  V30 6371 H 624.311 1.66145 -1.19402 0
M  V30 6372 H 624.321 4.03531 -0.602207 0
M  V30 6373 H 622.996 3.78361 -1.72673 0
M  V30 6374 H 621.573 3.72755 0.103873 0
M  V30 6375 N 623.758 0.647228 1.43697 0
M  V30 6376 C 625.005 0.158188 2.01881 0
M  V30 6377 C 625.333 -1.22573 1.51017 0
M  V30 6378 O 624.588 -1.83086 0.69122 0
M  V30 6379 C 624.887 0.111481 3.57226 0
M  V30 6380 C 624.553 1.43633 4.27411 0
M  V30 6381 C 623.215 1.79915 4.463 0
M  V30 6382 C 625.567 2.31011 4.67208 0
M  V30 6383 C 622.895 3.03251 5.02251 0
M  V30 6384 C 625.247 3.53633 5.24525 0
M  V30 6385 C 623.911 3.90118 5.41631 0
M  V30 6386 H 623.181 0.0578851 0.738736 0
M  V30 6387 H 625.828 0.836746 1.72252 0
M  V30 6388 H 624.133 -0.650507 3.86362 0
M  V30 6389 H 625.83 -0.283682 3.99995 0
M  V30 6390 H 622.42 1.14403 4.1305 0
M  V30 6391 H 626.604 2.04272 4.52313 0
M  V30 6392 H 621.86 3.31575 5.13681 0
M  V30 6393 H 626.034 4.21561 5.5431 0
M  V30 6394 H 623.661 4.85768 5.84751 0
M  V30 6395 N 625.236 -1.5273 0.388769 0
M  V30 6396 C 626.461 -2.0647 -0.19621 0
M  V30 6397 C 626.886 -1.25865 -1.39784 0
M  V30 6398 O 626.244 -0.283562 -1.79069 0
M  V30 6399 C 626.292 -3.56456 -0.5451 0
M  V30 6400 O 625.396 -3.78426 -1.63912 0
M  V30 6401 H 624.737 -0.663599 -0.023067 0
M  V30 6402 H 627.267 -1.96898 0.556084 0
M  V30 6403 H 627.277 -3.99888 -0.809557 0
M  V30 6404 H 625.952 -4.14561 0.333417 0
M  V30 6405 H 624.529 -3.46884 -1.36842 0
M  V30 6406 N 626.714 -0.118576 -1.57153 0
M  V30 6407 C 627.624 0.845484 -2.18835 0
M  V30 6408 C 628.64 1.29299 -1.16438 0
M  V30 6409 O 629.816 1.35607 -1.48905 0
M  V30 6410 C 626.881 2.07795 -2.77529 0
M  V30 6411 C 625.942 1.6824 -3.9496 0
M  V30 6412 C 625.175 2.85612 -4.50845 0
M  V30 6413 O 625.398 4.01025 -4.05629 0
M  V30 6414 O 624.332 2.62721 -5.41536 0
M  V30 6415 H 628.158 0.350568 -3.0167 0
M  V30 6416 H 625.743 0.107013 -1.49016 0
M  V30 6417 H 627.625 2.79978 -3.14945 0
M  V30 6418 H 626.3 2.56294 -1.97725 0
M  V30 6419 H 625.207 0.931663 -3.62313 0
M  V30 6420 H 626.54 1.24484 -4.76198 0
M  V30 6421 N 628.193 1.56834 0.155195 0
M  V30 6422 C 629.156 1.96748 1.17571 0
M  V30 6423 C 630.156 0.853006 1.3631 0
M  V30 6424 O 631.346 1.11978 1.33441 0
M  V30 6425 C 628.478 2.27631 2.53765 0
M  V30 6426 H 629.671 2.88085 0.833498 0
M  V30 6427 H 627.224 1.51141 0.398242 0
M  V30 6428 H 627.959 1.39059 2.92973 0
M  V30 6429 H 627.744 3.0888 2.41527 0
M  V30 6430 H 629.234 2.59377 3.27282 0
M  V30 6431 N 629.671 -0.424282 1.51781 0
M  V30 6432 C 630.917 -1.17434 1.6534 0
M  V30 6433 C 631.25 -1.90549 0.374806 0
M  V30 6434 O 630.525 -1.84145 -0.626179 0
M  V30 6435 C 630.808 -2.18093 2.86544 0
M  V30 6436 C 630.661 -1.48975 4.24413 0
M  V30 6437 C 631.98 -3.18934 3.03264 0
M  V30 6438 H 629.099 -0.425566 0.601716 0
M  V30 6439 H 631.741 -0.461921 1.84299 0
M  V30 6440 H 629.891 -2.78849 2.7051 0
M  V30 6441 H 631.563 -0.914551 4.52143 0
M  V30 6442 H 629.806 -0.791893 4.26511 0
M  V30 6443 H 630.477 -2.22347 5.05238 0
M  V30 6444 H 632.953 -2.68243 3.18096 0
M  V30 6445 H 631.829 -3.86645 3.89611 0
M  V30 6446 H 632.09 -3.85793 2.15908 0
M  V30 6447 N 631.149 -1.42148 -0.680565 0
M  V30 6448 C 632.097 -1.45401 -1.81552 0
M  V30 6449 C 633.091 -0.33036 -1.66147 0
M  V30 6450 O 634.297 -0.503103 -1.72826 0
M  V30 6451 H 630.672 -0.455265 -0.59853 0
M  V30 6452 H 632.643 -2.41024 -1.75926 0
M  V30 6453 C 631.392 -1.36769 -3.19671 0
M  V30 6454 H 630.715 -2.22525 -3.32149 0
M  V30 6455 H 632.155 -1.43106 -3.9912 0
M  V30 6456 C 630.614 -0.0817752 -3.36801 0
M  V30 6457 O 631.144 0.867707 -3.92216 0
M  V30 6458 N 629.35 -0.000799811 -2.906 0
M  V30 6459 H 628.897 -0.774231 -2.4569 0
M  V30 6460 H 628.855 0.858961 -3.02439 0
M  V30 6461 N 632.627 0.916307 -1.28225 0
M  V30 6462 C 633.59 1.99996 -1.11957 0
M  V30 6463 C 634.59 1.60688 -0.0600152 0
M  V30 6464 O 635.78 1.71499 -0.30558 0
M  V30 6465 C 632.912 3.33458 -0.708411 0
M  V30 6466 H 634.105 2.15858 -2.08196 0
M  V30 6467 H 631.658 1.09863 -1.11175 0
M  V30 6468 H 632.393 3.23297 0.254859 0
M  V30 6469 H 632.178 3.63349 -1.47377 0
M  V30 6470 H 633.668 4.13014 -0.617164 0
M  V30 6471 N 634.105 1.10431 1.1244 0
M  V30 6472 C 635.33 0.869089 1.88313 0
M  V30 6473 C 635.755 -0.574912 1.79099 0
M  V30 6474 O 635.113 -1.40496 1.14589 0
M  V30 6475 C 635.161 1.32208 3.3549 0
M  V30 6476 O 634.265 0.487092 4.09513 0
M  V30 6477 H 633.606 0.313894 0.585121 0
M  V30 6478 H 636.136 1.47111 1.42195 0
M  V30 6479 H 636.146 1.31201 3.86329 0
M  V30 6480 H 634.821 2.37364 3.41513 0
M  V30 6481 H 633.398 0.562372 3.68635 0
M  V30 6482 N 635.583 -1.29855 0.893053 0
M  V30 6483 C 636.531 -2.29867 0.355512 0
M  V30 6484 C 637.525 -1.60502 -0.541801 0
M  V30 6485 O 638.731 -1.74902 -0.425339 0
M  V30 6486 H 635.106 -0.745805 0.0963247 0
M  V30 6487 H 637.077 -2.72655 1.21252 0
M  V30 6488 C 635.826 -3.453 -0.407801 0
M  V30 6489 H 635.149 -3.98864 0.273426 0
M  V30 6490 H 636.589 -4.17334 -0.748887 0
M  V30 6491 C 635.048 -2.96051 -1.60795 0
M  V30 6492 O 635.578 -2.96763 -2.7073 0
M  V30 6493 N 633.784 -2.51963 -1.44786 0
M  V30 6494 H 633.331 -2.51583 -0.553498 0
M  V30 6495 H 633.289 -2.1937 -2.2522 0
M  V30 6496 N 637.061 -0.65484 -1.43351 0
M  V30 6497 C 638.309 -0.168559 -2.01396 0
M  V30 6498 C 638.63 1.22235 -1.51933 0
M  V30 6499 O 637.9 1.81685 -0.732627 0
M  V30 6500 H 636.48 -0.0593244 -0.744641 0
M  V30 6501 H 639.142 -0.846871 -1.75539 0
M  V30 6502 H 638.238 -0.154428 -3.11718 0
M  V30 6503 N 638.539 1.52521 -0.396863 0
M  V30 6504 C 639.471 2.24333 0.469814 0
M  V30 6505 C 640.484 1.2685 1.02043 0
M  V30 6506 O 641.673 1.52876 0.92147 0
M  V30 6507 C 638.773 2.95202 1.66461 0
M  V30 6508 C 637.946 4.19454 1.24003 0
M  V30 6509 C 637.005 4.73255 2.30036 0
M  V30 6510 O 636.031 5.36151 1.91131 0
M  V30 6511 N 637.233 4.53765 3.62047 0
M  V30 6512 H 639.998 2.99347 -0.145468 0
M  V30 6513 H 637.559 1.60348 -0.223606 0
M  V30 6514 H 639.551 3.28092 2.36934 0
M  V30 6515 H 638.121 2.2345 2.18607 0
M  V30 6516 H 637.341 3.92517 0.363892 0
M  V30 6517 H 638.629 5.0017 0.933135 0
M  V30 6518 H 638.027 4.03576 3.96412 0
M  V30 6519 H 636.584 4.91124 4.28533 0
M  V30 6520 N 640.017 0.126909 1.57088 0
M  V30 6521 C 641.263 -0.529952 1.95753 0
M  V30 6522 C 641.596 -1.65823 1.01077 0
M  V30 6523 O 640.871 -1.94437 0.0494162 0
M  V30 6524 C 641.154 -1.05517 3.44294 0
M  V30 6525 C 641.007 0.0702253 4.49745 0
M  V30 6526 C 642.326 -1.9435 3.94862 0
M  V30 6527 H 639.445 -0.191168 0.711775 0
M  V30 6528 H 642.087 0.204071 1.88901 0
M  V30 6529 H 640.237 -1.68069 3.50264 0
M  V30 6530 H 641.909 0.705834 4.55868 0
M  V30 6531 H 640.152 0.732259 4.27575 0
M  V30 6532 H 640.823 -0.338642 5.5096 0
M  V30 6533 H 643.299 -1.41658 3.91244 0
M  V30 6534 H 642.175 -2.28015 4.993 0
M  V30 6535 H 642.436 -2.87299 3.36024 0
M  V30 6536 N 641.495 -1.56914 -0.146875 0
M  V30 6537 C 642.911 -1.51582 -0.499518 0
M  V30 6538 C 643.111 -0.83535 -1.83369 0
M  V30 6539 O 642.167 -0.405932 -2.49216 0
M  V30 6540 C 643.48 -2.96349 -0.509711 0
M  V30 6541 C 645.028 -3.07288 -0.595217 0
M  V30 6542 C 645.503 -4.53562 -0.636071 0
M  V30 6543 N 646.994 -4.57906 -0.69829 0
M  V30 6544 C 647.729 -5.68462 -0.750886 0
M  V30 6545 N 647.225 -6.88588 -0.76282 0
M  V30 6546 N 649.018 -5.56496 -0.791777 0
M  V30 6547 H 641.169 -1.99547 0.727656 0
M  V30 6548 H 643.432 -0.910113 0.265327 0
M  V30 6549 H 643.138 -3.4939 0.402409 0
M  V30 6550 H 643.012 -3.52307 -1.34758 0
M  V30 6551 H 645.399 -2.54266 -1.49776 0
M  V30 6552 H 645.48 -2.54373 0.2698 0
M  V30 6553 H 645.124 -5.07222 0.262313 0
M  V30 6554 H 645.054 -5.04259 -1.51758 0
M  V30 6555 H 647.545 -3.71429 -0.696362 0
M  V30 6556 H 647.858 -7.68598 -0.804804 0
M  V30 6557 H 646.203 -6.91148 -0.730694 0
M  V30 6558 H 649.394 -4.61562 -0.779624 0
M  V30 6559 H 649.567 -6.42671 -0.829301 0
M  V30 6560 N 642.974 0.416227 -1.52004 0
M  V30 6561 C 644.22 1.16555 -1.6596 0
M  V30 6562 C 644.553 1.90347 -0.384906 0
M  V30 6563 O 643.828 1.84474 0.616405 0
M  V30 6564 C 644.111 2.1657 -2.87696 0
M  V30 6565 C 643.964 1.46722 -4.25197 0
M  V30 6566 C 645.283 3.17321 -3.04951 0
M  V30 6567 H 642.402 0.422369 -0.603965 0
M  V30 6568 H 645.044 0.452141 -1.84542 0
M  V30 6569 H 643.194 2.77411 -2.71985 0
M  V30 6570 H 644.866 0.89056 -4.52622 0
M  V30 6571 H 643.109 0.769263 -4.26925 0
M  V30 6572 H 643.78 2.19665 -5.0641 0
M  V30 6573 H 646.256 2.66552 -3.19514 0
M  V30 6574 H 645.132 3.84573 -3.91656 0
M  V30 6575 H 645.393 3.84643 -2.17951 0
M  V30 6576 N 644.452 1.42507 0.673017 0
M  V30 6577 C 645.698 1.44282 1.43367 0
M  V30 6578 C 646.053 0.0588239 1.9231 0
M  V30 6579 O 645.346 -0.919288 1.68106 0
M  V30 6580 C 645.54 2.40351 2.64511 0
M  V30 6581 C 645.369 3.87955 2.27423 0
M  V30 6582 C 644.139 4.56476 2.16697 0
M  V30 6583 C 646.337 4.7833 1.88957 0
M  V30 6584 N 644.319 5.89099 1.72731 0
M  V30 6585 C 645.69 6.00073 1.55923 0
M  V30 6586 C 647.745 4.65769 1.75965 0
M  V30 6587 C 646.448 7.10652 1.112 0
M  V30 6588 C 648.474 5.76332 1.32647 0
M  V30 6589 C 647.836 6.97188 1.00538 0
M  V30 6590 H 643.935 0.583134 0.521036 0
M  V30 6591 H 646.519 1.78547 0.776481 0
M  V30 6592 H 644.69 2.08145 3.27918 0
M  V30 6593 H 646.422 2.32694 3.31113 0
M  V30 6594 H 643.177 4.10712 2.35823 0
M  V30 6595 H 643.601 6.59446 1.53166 0
M  V30 6596 H 648.243 3.72808 1.99435 0
M  V30 6597 H 645.961 8.0346 0.864768 0
M  V30 6598 H 649.547 5.68625 1.23112 0
M  V30 6599 H 648.427 7.81287 0.675283 0
M  V30 6600 N 645.93 -0.909495 1.28709 0
M  V30 6601 C 647.346 -1.18862 1.06508 0
M  V30 6602 C 647.546 -2.00604 -0.189864 0
M  V30 6603 O 646.602 -2.36281 -0.890355 0
M  V30 6604 C 647.915 -1.91908 2.31499 0
M  V30 6605 C 649.463 -2.04773 2.36721 0
M  V30 6606 C 649.938 -2.81228 3.6149 0
M  V30 6607 N 651.429 -2.88787 3.62155 0
M  V30 6608 C 652.164 -3.48455 4.55375 0
M  V30 6609 N 651.66 -4.09369 5.58918 0
M  V30 6610 N 653.453 -3.46035 4.42963 0
M  V30 6611 H 645.604 -0.363867 2.0926 0
M  V30 6612 H 647.867 -0.223649 0.921241 0
M  V30 6613 H 647.573 -1.39275 3.22948 0
M  V30 6614 H 647.447 -2.92436 2.38245 0
M  V30 6615 H 649.834 -2.56585 1.45767 0
M  V30 6616 H 649.915 -1.03408 2.33967 0
M  V30 6617 H 649.559 -2.30094 4.5279 0
M  V30 6618 H 649.489 -3.82917 3.61499 0
M  V30 6619 H 651.98 -2.45514 2.87283 0
M  V30 6620 H 652.293 -4.52891 6.26187 0
M  V30 6621 H 650.638 -4.0786 5.62739 0
M  V30 6622 H 653.829 -2.9766 3.6127 0
M  V30 6623 H 654.002 -3.92244 5.15799 0
M  V30 6624 N 647.408 -1.11026 -1.11852 0
M  V30 6625 C 648.633 -0.879064 -1.87849 0
M  V30 6626 C 649.058 0.565406 -1.79401 0
M  V30 6627 O 648.416 1.39886 -1.15333 0
M  V30 6628 C 648.464 -1.33985 -3.34784 0
M  V30 6629 O 647.568 -0.508803 -4.09249 0
M  V30 6630 H 646.909 -0.316992 -0.583448 0
M  V30 6631 H 649.439 -1.47863 -1.41413 0
M  V30 6632 H 649.449 -1.33248 -3.85628 0
M  V30 6633 H 648.124 -2.39172 -3.40249 0
M  V30 6634 H 646.701 -0.581913 -3.68332 0
M  V30 6635 N 648.886 1.2938 -0.899927 0
M  V30 6636 C 650.134 1.95164 -0.524924 0
M  V30 6637 C 650.455 1.71292 0.931888 0
M  V30 6638 O 649.725 1.04481 1.65712 0
M  V30 6639 H 648.305 0.722133 -0.191135 0
M  V30 6640 H 650.967 1.57628 -1.14627 0
M  V30 6641 H 650.063 3.0397 -0.707711 0
M  V30 6642 N 650.364 0.662433 1.43002 0
M  V30 6643 C 651.592 0.187615 2.06048 0
M  V30 6644 C 652.007 -1.15039 1.49705 0
M  V30 6645 O 651.364 -1.71209 0.631956 0
M  V30 6646 C 651.415 0.100498 3.6136 0
M  V30 6647 O 651.136 1.38562 4.15611 0
M  V30 6648 C 652.637 -0.399298 4.41498 0
M  V30 6649 H 649.857 0.0941675 0.664359 0
M  V30 6650 H 652.401 0.905681 1.83351 0
M  V30 6651 H 650.556 -0.568181 3.83211 0
M  V30 6652 H 650.97 1.25084 5.09366 0
M  V30 6653 H 652.444 -0.409187 5.50481 0
M  V30 6654 H 652.921 -1.43232 4.15188 0
M  V30 6655 H 653.527 0.23721 4.24638 0
M  V30 6656 N 651.842 -1.52309 0.404946 0
M  V30 6657 C 653.09 -2.01368 -0.17186 0
M  V30 6658 C 653.411 -1.29261 -1.46002 0
M  V30 6659 O 652.681 -0.41729 -1.91404 0
M  V30 6660 H 651.261 -0.744034 -0.0664993 0
M  V30 6661 H 653.923 -1.87263 0.540228 0
M  V30 6662 H 653.019 -3.09888 -0.370957 0
M  V30 6663 N 653.32 -0.135238 -1.57019 0
M  V30 6664 C 654.545 0.529343 -2.00531 0
M  V30 6665 C 654.97 1.58391 -1.01459 0
M  V30 6666 O 654.328 1.81296 0.0113986 0
M  V30 6667 C 654.376 1.11748 -3.42848 0
M  V30 6668 O 653.48 2.23267 -3.46736 0
M  V30 6669 H 652.821 0.130669 -0.651016 0
M  V30 6670 H 655.351 -0.228503 -2.0332 0
M  V30 6671 H 655.361 1.44905 -3.81401 0
M  V30 6672 H 654.036 0.345147 -4.14465 0
M  V30 6673 H 652.613 1.91428 -3.20015 0
M  V30 6674 N 654.798 1.5699 0.138552 0
M  V30 6675 C 656.046 1.83446 0.848053 0
M  V30 6676 C 656.367 0.71744 1.81322 0
M  V30 6677 O 655.637 -0.260228 1.94164 0
M  V30 6678 H 654.217 0.676792 0.316166 0
M  V30 6679 H 656.879 1.94462 0.130538 0
M  V30 6680 H 655.975 2.78677 1.40518 0
M  V30 6681 N 656.276 -0.40816 1.52223 0
M  V30 6682 C 657.524 -1.15274 1.66001 0
M  V30 6683 C 657.845 -1.91003 0.392803 0
M  V30 6684 O 657.115 -1.8673 -0.592336 0
M  V30 6685 H 655.695 -0.428526 0.611861 0
M  V30 6686 H 658.357 -0.46512 1.89269 0
M  V30 6687 H 657.453 -1.86628 2.50153 0
M  V30 6688 N 657.755 -1.42862 -0.66545 0
M  V30 6689 C 659.003 -1.43546 -1.42264 0
M  V30 6690 C 659.324 -0.0563116 -1.94919 0
M  V30 6691 O 658.594 0.906568 -1.73661 0
M  V30 6692 H 657.174 -0.528464 -0.527953 0
M  V30 6693 H 659.836 -1.78363 -0.785665 0
M  V30 6694 H 658.932 -2.14079 -2.27105 0
M  V30 6695 N 659.233 0.902656 -1.29189 0
M  V30 6696 C 660.143 2.03946 -1.15944 0
M  V30 6697 C 661.159 1.738 -0.0833803 0
M  V30 6698 O 662.335 1.9923 -0.29487 0
M  V30 6699 C 659.4 3.36519 -0.834006 0
M  V30 6700 C 658.461 3.80203 -1.9936 0
M  V30 6701 C 657.694 5.06449 -1.68359 0
M  V30 6702 O 657.917 5.67202 -0.603141 0
M  V30 6703 O 656.851 5.46114 -2.53067 0
M  V30 6704 H 660.677 2.18043 -2.11403 0
M  V30 6705 H 658.262 1.02584 -1.08613 0
M  V30 6706 H 660.144 4.16089 -0.666949 0
M  V30 6707 H 658.819 3.23573 0.0908245 0
M  V30 6708 H 657.726 3.01413 -2.21588 0
M  V30 6709 H 659.059 3.97729 -2.89952 0
M  V30 6710 N 660.711 1.11618 1.11262 0
M  V30 6711 C 662.122 0.881942 1.64556 0
M  V30 6712 C 662.473 -0.585442 1.87262 0
M  V30 6713 O 661.598 -1.44795 1.60821 0
M  V30 6714 C 662.193 1.59446 2.98935 0
M  V30 6715 C 660.752 1.40661 3.4913 0
M  V30 6716 C 659.899 1.63593 2.23903 0
M  V30 6717 H 662.85 1.27217 0.94877 0
M  V30 6718 H 662.871 1.04054 3.65996 0
M  V30 6719 H 662.383 2.66241 2.82378 0
M  V30 6720 H 660.484 0.360835 3.70849 0
M  V30 6721 H 660.597 2.15693 4.27801 0
M  V30 6722 H 658.961 1.05944 2.3162 0
M  V30 6723 H 659.744 2.71666 2.09886 0
M  V30 6724 N 662.189 -1.289 0.906776 0
M  V30 6725 C 663.437 -1.94883 0.535266 0
M  V30 6726 C 663.758 -1.71784 -0.922791 0
M  V30 6727 O 663.028 -1.05359 -1.65156 0
M  V30 6728 H 661.608 -0.721109 0.194962 0
M  V30 6729 H 664.27 -1.57018 1.15461 0
M  V30 6730 H 663.366 -3.03591 0.723821 0
M  V30 6731 N 663.667 -0.670007 -1.42649 0
M  V30 6732 C 664.63 0.00204659 -2.292 0
M  V30 6733 C 665.63 0.733817 -1.4308 0
M  V30 6734 O 666.82 0.57254 -1.64522 0
M  V30 6735 C 663.952 1.01359 -3.25483 0
M  V30 6736 H 665.145 -0.759696 -2.90118 0
M  V30 6737 H 662.698 -0.432105 -1.50208 0
M  V30 6738 H 663.433 1.80399 -2.69493 0
M  V30 6739 H 663.218 0.492323 -3.88997 0
M  V30 6740 H 664.708 1.4824 -3.90403 0
M  V30 6741 N 665.145 1.52092 -0.413018 0
M  V30 6742 C 666.075 2.30021 0.401567 0
M  V30 6743 C 667.056 1.34395 1.04269 0
M  V30 6744 O 668.241 1.63304 1.05097 0
M  V30 6745 C 665.371 3.12447 1.51638 0
M  V30 6746 C 664.325 4.16153 1.00005 0
M  V30 6747 C 663.651 4.86948 2.20875 0
M  V30 6748 C 664.951 5.22275 0.0513757 0
M  V30 6749 H 666.645 2.98365 -0.248704 0
M  V30 6750 H 664.191 1.4349 -0.121052 0
M  V30 6751 H 666.144 3.65733 2.09326 0
M  V30 6752 H 664.868 2.41879 2.19458 0
M  V30 6753 H 663.527 3.63882 0.445549 0
M  V30 6754 H 663.175 4.12905 2.8726 0
M  V30 6755 H 662.875 5.57057 1.86978 0
M  V30 6756 H 664.399 5.43048 2.79162 0
M  V30 6757 H 665.813 5.70778 0.537176 0
M  V30 6758 H 664.21 5.9977 -0.198977 0
M  V30 6759 H 665.28 4.76611 -0.892736 0
M  V30 6760 N 666.623 0.143563 1.56945 0
M  V30 6761 C 667.869 -0.50916 1.96304 0
M  V30 6762 C 668.202 -1.64741 1.0283 0
M  V30 6763 O 667.477 -1.94374 0.0700361 0
M  V30 6764 C 667.76 -1.0186 3.45393 0
M  V30 6765 C 667.613 0.117923 4.49645 0
M  V30 6766 C 668.932 -1.90151 3.96901 0
M  V30 6767 H 666.051 -0.183608 0.713763 0
M  V30 6768 H 668.693 0.224095 1.88674 0
M  V30 6769 H 666.843 -1.64345 3.52027 0
M  V30 6770 H 668.515 0.754145 4.55094 0
M  V30 6771 H 666.758 0.777568 4.26774 0
M  V30 6772 H 667.429 -0.280187 5.51288 0
M  V30 6773 H 669.905 -1.375 3.92725 0
M  V30 6774 H 668.781 -2.22707 5.0169 0
M  V30 6775 H 669.042 -2.83718 3.39052 0
M  V30 6776 N 668.101 -1.57061 -0.130224 0
M  V30 6777 C 669.326 -1.88802 -0.858409 0
M  V30 6778 C 669.751 -0.734353 -1.73173 0
M  V30 6779 O 669.109 0.315529 -1.78533 0
M  V30 6780 C 669.157 -3.19228 -1.67708 0
M  V30 6781 O 668.261 -3.04343 -2.78297 0
M  V30 6782 H 667.602 -0.619849 -0.238083 0
M  V30 6783 H 670.132 -2.04271 -0.115995 0
M  V30 6784 H 670.142 -3.51669 -2.06864 0
M  V30 6785 H 668.817 -4.02793 -1.0359 0
M  V30 6786 H 667.394 -2.83346 -2.42425 0
M  V30 6787 N 669.579 0.400081 -1.52437 0
M  V30 6788 C 670.825 1.14788 -1.67187 0
M  V30 6789 C 671.158 1.89928 -0.405074 0
M  V30 6790 O 670.433 1.85118 0.596804 0
M  V30 6791 C 670.716 2.13507 -2.89977 0
M  V30 6792 C 670.569 1.42204 -4.2673 0
M  V30 6793 C 671.888 3.14069 -3.083 0
M  V30 6794 H 669.007 0.415939 -0.608411 0
M  V30 6795 H 671.649 0.432542 -1.85011 0
M  V30 6796 H 669.799 2.7451 -2.74912 0
M  V30 6797 H 671.471 0.842503 -4.53541 0
M  V30 6798 H 669.714 0.723939 -4.27717 0
M  V30 6799 H 670.385 2.14281 -5.08712 0
M  V30 6800 H 672.861 2.63148 -3.22323 0
M  V30 6801 H 671.737 3.80398 -3.95713 0
M  V30 6802 H 671.998 3.82309 -2.22018 0
M  V30 6803 N 671.057 1.43213 0.657864 0
M  V30 6804 C 672.282 1.48227 1.45064 0
M  V30 6805 C 672.707 0.0999939 1.87834 0
M  V30 6806 O 672.065 -0.905269 1.57081 0
M  V30 6807 C 672.113 2.42931 2.6649 0
M  V30 6808 O 671.217 1.91237 3.6538 0
M  V30 6809 H 670.558 0.501551 0.435135 0
M  V30 6810 H 673.088 1.8808 0.805431 0
M  V30 6811 H 673.098 2.6008 3.1436 0
M  V30 6812 H 671.773 3.43348 2.34701 0
M  V30 6813 H 670.35 1.83726 3.24498 0
M  V30 6814 N 672.536 -0.895792 1.29666 0
M  V30 6815 C 673.783 -1.64664 1.17864 0
M  V30 6816 C 674.111 -1.92631 -0.26902 0
M  V30 6817 O 673.366 -1.53787 -1.21029 0
M  V30 6818 C 673.665 -3.00075 1.94139 0
M  V30 6819 C 673.331 -2.91702 3.43833 0
M  V30 6820 C 671.993 -2.89126 3.84656 0
M  V30 6821 C 674.345 -2.80622 4.39205 0
M  V30 6822 C 671.673 -2.73293 5.1916 0
M  V30 6823 C 674.025 -2.66329 5.73805 0
M  V30 6824 C 672.689 -2.62121 6.1388 0
M  V30 6825 H 671.959 -0.602549 0.431295 0
M  V30 6826 H 674.606 -1.04234 1.60648 0
M  V30 6827 H 672.911 -3.64394 1.43958 0
M  V30 6828 H 674.608 -3.57111 1.82408 0
M  V30 6829 H 671.198 -2.94511 3.11386 0
M  V30 6830 H 675.382 -2.81686 4.08615 0
M  V30 6831 H 670.638 -2.68443 5.49316 0
M  V30 6832 H 674.812 -2.56727 6.47352 0
M  V30 6833 H 672.439 -2.49611 7.18052 0
M  V30 6834 N 674.014 -1.12206 -1.10668 0
M  V30 6835 C 675.43 -0.857619 -1.346 0
M  V30 6836 C 675.63 0.513542 -1.94846 0
M  V30 6837 O 674.686 1.26273 -2.18658 0
M  V30 6838 C 675.999 -1.97212 -2.26998 0
M  V30 6839 C 677.547 -2.00272 -2.40542 0
M  V30 6840 C 678.022 -3.10948 -3.36267 0
M  V30 6841 N 679.513 -3.10375 -3.43834 0
M  V30 6842 C 680.248 -3.92651 -4.17867 0
M  V30 6843 N 679.744 -4.84911 -4.94807 0
M  V30 6844 N 681.537 -3.80798 -4.1346 0
M  V30 6845 H 673.688 -2.00558 -0.699306 0
M  V30 6846 H 675.951 -0.872612 -0.370477 0
M  V30 6847 H 675.657 -2.96002 -1.89936 0
M  V30 6848 H 675.531 -1.87521 -3.27286 0
M  V30 6849 H 677.918 -1.02103 -2.76874 0
M  V30 6850 H 677.999 -2.14037 -1.40077 0
M  V30 6851 H 677.643 -4.09348 -3.00661 0
M  V30 6852 H 677.573 -2.94421 -4.36605 0
M  V30 6853 H 680.064 -2.43536 -2.88961 0
M  V30 6854 H 680.377 -5.44207 -5.48688 0
M  V30 6855 H 678.722 -4.88926 -4.93939 0
M  V30 6856 H 681.913 -3.08058 -3.52445 0
M  V30 6857 H 682.086 -4.4515 -4.70898 0
M  V30 6858 N 675.492 1.28418 -0.913599 0
M  V30 6859 C 676.732 1.96756 -0.553771 0
M  V30 6860 C 677.096 1.70334 0.886013 0
M  V30 6861 O 678.297 2.32242 1.35341 0
M  V30 6862 C 676.568 3.47041 -0.854249 0
M  V30 6863 S 678.127 4.34667 -0.600816 0
M  V30 6864 H 674.945 0.680831 -0.204915 0
M  V30 6865 H 677.547 1.55947 -1.17902 0
M  V30 6866 H 676.251 3.63766 -1.90007 0
M  V30 6867 H 675.782 3.92797 -0.217651 0
M  V30 6868 H 677.797 4.93166 0.547906 0
M  V30 6869 N 676.97 0.677563 1.42291 0
M  V30 6870 C 678.247 0.129803 1.95169 0
M  V30 6871 C 678.627 -1.35605 1.61786 0
M  V30 6872 O 677.975 -2.09361 0.915444 0
M  V30 6873 C 678.185 0.401889 3.46678 0
M  V30 6874 C 679.533 0.319889 4.23393 0
M  V30 6875 O 680.557 0.33579 3.54614 0
M  V30 6876 O 679.416 0.264459 5.4586 0
M  V30 6877 H 676.51 0.00447433 0.826988 0
M  V30 6878 H 679.056 0.752483 1.52105 0
M  V30 6879 H 677.828 1.43108 3.64192 0
M  V30 6880 H 677.451 -0.252662 3.96796 0
M  V30 6881 N 678.448 -1.51871 0.421078 0
M  V30 6882 C 679.396 -2.28903 -0.413066 0
M  V30 6883 C 680.39 -1.3408 -1.03532 0
M  V30 6884 O 681.596 -1.5149 -0.972146 0
M  V30 6885 H 677.971 -0.736478 -0.152003 0
M  V30 6886 H 679.942 -2.97285 0.257695 0
M  V30 6887 C 678.691 -3.13156 -1.51091 0
M  V30 6888 H 678.014 -3.85997 -1.04145 0
M  V30 6889 H 679.454 -3.7014 -2.06814 0
M  V30 6890 C 677.913 -2.27482 -2.48503 0
M  V30 6891 O 678.443 -1.92325 -3.52667 0
M  V30 6892 N 676.649 -1.91019 -2.18998 0
M  V30 6893 H 676.196 -2.19808 -1.34322 0
M  V30 6894 H 676.154 -1.3399 -2.84419 0
M  V30 6895 N 679.926 -0.151884 -1.56866 0
M  V30 6896 C 681.174 0.497021 -1.95893 0
M  V30 6897 C 681.495 1.65078 -1.03799 0
M  V30 6898 O 680.765 1.95642 -0.10049 0
M  V30 6899 H 679.345 0.186603 -0.723318 0
M  V30 6900 H 682.007 -0.228525 -1.93556 0
M  V30 6901 H 681.103 0.869933 -2.99731 0
M  V30 6902 N 681.404 1.57128 0.121893 0
M  V30 6903 C 682.367 1.99197 1.13372 0
M  V30 6904 C 683.367 0.881728 1.3447 0
M  V30 6905 O 684.557 1.14783 1.31036 0
M  V30 6906 C 681.689 2.32963 2.4888 0
M  V30 6907 H 682.882 2.89788 0.772204 0
M  V30 6908 H 680.435 1.51952 0.366093 0
M  V30 6909 H 681.17 1.45243 2.89957 0
M  V30 6910 H 680.955 3.13934 2.34921 0
M  V30 6911 H 682.445 2.66261 3.21706 0
M  V30 6912 N 682.882 -0.391992 1.52647 0
M  V30 6913 C 684.11 -1.1586 1.71418 0
M  V30 6914 C 684.525 -1.8381 0.431216 0
M  V30 6915 O 683.882 -1.7256 -0.594085 0
M  V30 6916 C 683.933 -2.20888 2.86165 0
M  V30 6917 O 683.654 -1.5571 4.09495 0
M  V30 6918 C 685.155 -3.103 3.1659 0
M  V30 6919 H 682.375 -0.347494 0.574011 0
M  V30 6920 H 684.919 -0.458972 1.99283 0
M  V30 6921 H 683.074 -2.86492 2.6077 0
M  V30 6922 H 683.488 -2.25474 4.73563 0
M  V30 6923 H 684.962 -3.8003 4.00351 0
M  V30 6924 H 685.439 -3.73639 2.30848 0
M  V30 6925 H 686.045 -2.50345 3.43813 0
M  V30 6926 N 684.36 -1.4356 -0.65026 0
M  V30 6927 C 685.292 -1.44918 -1.77571 0
M  V30 6928 C 686.305 -0.344925 -1.59104 0
M  V30 6929 O 687.494 -0.609537 -1.6777 0
M  V30 6930 C 684.594 -1.24914 -3.15039 0
M  V30 6931 C 683.767 -2.48232 -3.60138 0
M  V30 6932 C 682.826 -2.23409 -4.76419 0
M  V30 6933 O 681.852 -2.9678 -4.85706 0
M  V30 6934 N 683.054 -1.25259 -5.66825 0
M  V30 6935 H 685.819 -2.41935 -1.76883 0
M  V30 6936 H 683.38 -1.38754 -0.834202 0
M  V30 6937 H 685.372 -1.06185 -3.90521 0
M  V30 6938 H 683.942 -0.363319 -3.10481 0
M  V30 6939 H 683.162 -2.82366 -2.75069 0
M  V30 6940 H 684.45 -3.30296 -3.87017 0
M  V30 6941 H 683.848 -0.646246 -5.61997 0
M  V30 6942 H 682.405 -1.12513 -6.42016 0
M  V30 6943 N 685.838 0.888903 -1.30139 0
M  V30 6944 C 686.771 1.99655 -1.10514 0
M  V30 6945 C 687.749 1.62594 -0.0138934 0
M  V30 6946 O 688.933 1.87762 -0.166689 0
M  V30 6947 C 686.06 3.31708 -0.684655 0
M  V30 6948 C 685.106 3.87755 -1.77619 0
M  V30 6949 S 685.939 4.15532 -3.37777 0
M  V30 6950 C 687.095 5.5061 -2.97622 0
M  V30 6951 H 687.328 2.15996 -2.04287 0
M  V30 6952 H 684.861 1.03682 -1.14409 0
M  V30 6953 H 686.819 4.08039 -0.448782 0
M  V30 6954 H 685.48 3.1323 0.233648 0
M  V30 6955 H 684.673 4.83164 -1.43417 0
M  V30 6956 H 684.275 3.18149 -1.96614 0
M  V30 6957 H 686.567 6.31518 -2.45338 0
M  V30 6958 H 687.51 5.89747 -3.91924 0
M  V30 6959 H 687.918 5.12983 -2.35603 0
M  V30 6960 N 687.317 1.12792 1.10072 0
M  V30 6961 C 688.565 0.883796 1.81751 0
M  V30 6962 C 688.886 -0.591891 1.858 0
M  V30 6963 O 688.156 -1.43017 1.33876 0
M  V30 6964 H 686.736 0.323978 0.673088 0
M  V30 6965 H 689.398 1.42314 1.33164 0
M  V30 6966 H 688.494 1.26863 2.85153 0
M  V30 6967 N 688.795 -1.27931 0.920396 0
M  V30 6968 C 690.072 -1.89728 0.475687 0
M  V30 6969 C 690.452 -1.8337 -1.04588 0
M  V30 6970 O 689.8 -1.27404 -1.89685 0
M  V30 6971 C 690.01 -3.33959 1.01354 0
M  V30 6972 C 691.358 -4.10907 1.06963 0
M  V30 6973 O 692.382 -3.42945 0.962646 0
M  V30 6974 O 691.241 -5.32399 1.23343 0
M  V30 6975 H 688.335 -0.81294 0.151845 0
M  V30 6976 H 690.881 -1.36252 1.01161 0
M  V30 6977 H 689.653 -3.32843 2.05746 0
M  V30 6978 H 689.276 -3.94944 0.458829 0
M  V30 6979 N 690.273 -0.685099 -1.4193 0
M  V30 6980 C 691.498 -0.218842 -2.06242 0
M  V30 6981 C 691.923 1.11923 -1.51178 0
M  V30 6982 O 691.281 1.69837 -0.634446 0
M  V30 6983 C 691.329 -0.175592 -3.60172 0
M  V30 6984 O 690.433 0.852776 -4.03487 0
M  V30 6985 H 689.774 -0.109531 -0.654904 0
M  V30 6986 H 692.304 -0.937013 -1.81882 0
M  V30 6987 H 692.314 -0.00291151 -4.08 0
M  V30 6988 H 690.989 -1.15222 -3.99621 0
M  V30 6989 H 689.566 0.650301 -3.67186 0
M  V30 6990 N 691.751 1.51645 -0.429126 0
M  V30 6991 C 692.997 2.02314 0.140286 0
M  V30 6992 C 693.33 1.31314 1.43074 0
M  V30 6993 O 692.605 0.425531 1.89788 0
M  V30 6994 C 692.888 3.5822 0.36749 0
M  V30 6995 C 692.741 4.39846 -0.941039 0
M  V30 6996 C 694.06 4.25055 1.14089 0
M  V30 6997 H 691.179 0.735335 0.0495112 0
M  V30 6998 H 693.821 1.81358 -0.566514 0
M  V30 6999 H 691.971 3.76207 0.969556 0
M  V30 7000 H 693.643 4.33527 -1.57646 0
M  V30 7001 H 691.886 4.05259 -1.54751 0
M  V30 7002 H 692.557 5.47069 -0.73621 0
M  V30 7003 H 695.033 4.11288 0.630986 0
M  V30 7004 H 693.909 5.34038 1.26863 0
M  V30 7005 H 694.17 3.85358 2.16683 0
M  V30 7006 N 693.229 0.160201 1.56784 0
M  V30 7007 C 694.459 -0.493449 2.00621 0
M  V30 7008 C 694.867 -1.5809 1.03943 0
M  V30 7009 O 694.21 -1.83675 0.0305343 0
M  V30 7010 C 694.272 -1.14169 3.4089 0
M  V30 7011 C 693.936 -0.197243 4.56574 0
M  V30 7012 C 694.933 0.580174 5.16653 0
M  V30 7013 C 692.618 -0.0963038 5.02208 0
M  V30 7014 C 694.612 1.44584 6.20785 0
M  V30 7015 C 692.299 0.772959 6.06192 0
M  V30 7016 C 693.297 1.54263 6.65351 0
M  V30 7017 O 692.985 2.39738 7.67321 0
M  V30 7018 H 692.717 -0.131764 0.663034 0
M  V30 7019 H 695.271 0.255728 2.03802 0
M  V30 7020 H 693.501 -1.93877 3.34587 0
M  V30 7021 H 695.19 -1.69641 3.6875 0
M  V30 7022 H 695.956 0.5123 4.82287 0
M  V30 7023 H 691.835 -0.685143 4.5588 0
M  V30 7024 H 695.379 2.04706 6.66889 0
M  V30 7025 H 691.276 0.842077 6.39984 0
M  V30 7026 H 692.044 2.33131 7.84597 0
M  V30 7027 N 694.707 -1.5719 -0.113559 0
M  V30 7028 C 695.67 -1.99796 -1.12314 0
M  V30 7029 C 696.67 -0.888847 -1.34001 0
M  V30 7030 O 697.86 -1.15476 -1.30426 0
M  V30 7031 C 694.992 -2.34279 -2.47641 0
M  V30 7032 H 696.185 -2.90193 -0.756825 0
M  V30 7033 H 693.738 -1.52144 -0.358029 0
M  V30 7034 H 694.473 -1.46778 -2.89183 0
M  V30 7035 H 694.258 -3.15175 -2.33253 0
M  V30 7036 H 695.748 -2.67963 -3.2029 0
M  V30 7037 N 696.185 0.383891 -1.52853 0
M  V30 7038 C 697.431 1.13009 -1.68395 0
M  V30 7039 C 697.764 1.89488 -0.425195 0
M  V30 7040 O 697.039 1.8574 0.577136 0
M  V30 7041 C 697.322 2.10419 -2.92226 0
M  V30 7042 C 697.175 1.3767 -4.28214 0
M  V30 7043 C 698.494 3.10781 -3.11614 0
M  V30 7044 H 695.613 0.409463 -0.612788 0
M  V30 7045 H 698.255 0.412895 -1.85459 0
M  V30 7046 H 696.405 2.71579 -2.77808 0
M  V30 7047 H 698.077 0.794352 -4.54409 0
M  V30 7048 H 696.32 0.678533 -4.2846 0
M  V30 7049 H 696.991 2.08874 -5.10956 0
M  V30 7050 H 699.467 2.59715 -3.25096 0
M  V30 7051 H 698.343 3.76179 -3.99725 0
M  V30 7052 H 698.604 3.79933 -2.2606 0
M  V30 7053 N 697.663 1.43903 0.642637 0
M  V30 7054 C 698.911 1.45791 1.39962 0
M  V30 7055 C 699.232 0.0873144 1.94804 0
M  V30 7056 O 698.502 -0.878825 1.75081 0
M  V30 7057 H 697.082 0.536797 0.519479 0
M  V30 7058 H 699.744 1.7959 0.757189 0
M  V30 7059 H 698.84 2.17665 2.2367 0
M  V30 7060 N 699.141 -0.881989 1.30609 0
M  V30 7061 C 700.089 -2.00942 1.17155 0
M  V30 7062 C 701.083 -1.69198 0.0827154 0
M  V30 7063 O 702.289 -1.78342 0.243775 0
M  V30 7064 H 698.664 -0.658913 0.362406 0
M  V30 7065 H 700.635 -2.09423 2.12567 0
M  V30 7066 C 699.384 -3.36294 0.883273 0
M  V30 7067 H 698.707 -3.61233 1.7132 0
M  V30 7068 H 700.147 -4.15812 0.829255 0
M  V30 7069 C 698.606 -3.34348 -0.413851 0
M  V30 7070 O 699.136 -3.75216 -1.43444 0
M  V30 7071 N 697.342 -2.87459 -0.426082 0
M  V30 7072 H 696.889 -2.54397 0.40493 0
M  V30 7073 H 696.847 -2.8654 -1.29391 0
M  V30 7074 N 700.619 -1.13374 -1.09472 0
M  V30 7075 C 701.865 -0.896516 -1.81908 0
M  V30 7076 C 702.198 0.575933 -1.85463 0
M  V30 7077 O 701.473 1.42618 -1.32251 0
M  V30 7078 C 701.756 -1.48445 -3.28079 0
M  V30 7079 C 701.609 -3.02598 -3.32798 0
M  V30 7080 C 702.928 -1.15226 -4.24748 0
M  V30 7081 H 700.047 -0.327127 -0.660422 0
M  V30 7082 H 702.689 -1.40195 -1.2824 0
M  V30 7083 H 700.839 -1.0546 -3.73912 0
M  V30 7084 H 702.511 -3.54335 -2.95372 0
M  V30 7085 H 700.754 -3.37613 -2.72397 0
M  V30 7086 H 701.425 -3.38835 -4.3577 0
M  V30 7087 H 703.901 -1.52369 -3.87199 0
M  V30 7088 H 702.777 -1.59012 -5.25363 0
M  V30 7089 H 703.038 -0.0658891 -4.42051 0
M  V30 7090 N 702.098 1.27442 -0.927168 0
M  V30 7091 C 703.323 1.99036 -0.583042 0
M  V30 7092 C 703.748 1.68711 0.83176 0
M  V30 7093 O 703.106 0.927081 1.55804 0
M  V30 7094 C 703.154 3.51271 -0.814925 0
M  V30 7095 O 702.258 4.12226 0.119742 0
M  V30 7096 H 701.599 0.624883 -0.224538 0
M  V30 7097 H 704.129 1.62263 -1.24628 0
M  V30 7098 H 704.139 4.01411 -0.730282 0
M  V30 7099 H 702.814 3.72676 -1.84623 0
M  V30 7100 H 701.391 3.72897 -0.0147688 0
M  V30 7101 N 703.576 0.692616 1.41565 0
M  V30 7102 C 704.508 -0.0137132 2.29196 0
M  V30 7103 C 705.521 -0.747417 1.44629 0
M  V30 7104 O 706.71 -0.598611 1.68163 0
M  V30 7105 C 703.81 -1.04347 3.22436 0
M  V30 7106 C 702.983 -0.379985 4.35746 0
M  V30 7107 C 702.042 -1.31195 5.09583 0
M  V30 7108 O 701.068 -0.805455 5.63472 0
M  V30 7109 N 702.27 -2.64443 5.16769 0
M  V30 7110 H 705.035 0.738614 2.90456 0
M  V30 7111 H 702.596 0.538415 1.52685 0
M  V30 7112 H 704.588 -1.6686 3.687 0
M  V30 7113 H 703.158 -1.69736 2.62504 0
M  V30 7114 H 702.378 0.424975 3.91903 0
M  V30 7115 H 703.666 0.0814904 5.08735 0
M  V30 7116 H 703.064 -3.08114 4.74428 0
M  V30 7117 H 701.621 -3.22159 5.66619 0
M  V30 7118 N 705.054 -1.51416 0.437162 0
M  V30 7119 C 705.984 -2.30631 -0.364922 0
M  V30 7120 C 706.965 -1.36037 -1.02118 0
M  V30 7121 O 708.15 -1.64956 -1.02485 0
M  V30 7122 C 705.28 -3.1482 -1.46648 0
M  V30 7123 C 704.234 -4.17691 -0.933717 0
M  V30 7124 C 703.56 -4.904 -2.13101 0
M  V30 7125 C 704.86 -5.2229 0.0317201 0
M  V30 7126 H 706.554 -2.97932 0.29614 0
M  V30 7127 H 704.1 -1.4328 0.143865 0
M  V30 7128 H 706.053 -3.69017 -2.03481 0
M  V30 7129 H 704.777 -2.4534 -2.15583 0
M  V30 7130 H 703.436 -3.64545 -0.387602 0
M  V30 7131 H 703.084 -4.17423 -2.80654 0
M  V30 7132 H 702.784 -5.59962 -1.78092 0
M  V30 7133 H 704.308 -5.4742 -2.70487 0
M  V30 7134 H 705.722 -5.7156 -0.446302 0
M  V30 7135 H 704.119 -5.99378 0.29437 0
M  V30 7136 H 705.189 -4.75131 0.968447 0
M  V30 7137 N 706.532 -0.168513 -1.56696 0
M  V30 7138 C 707.78 0.476216 -1.96409 0
M  V30 7139 C 708.101 1.63968 -1.05544 0
M  V30 7140 O 707.371 1.95525 -0.121235 0
M  V30 7141 H 705.951 0.178921 -0.725256 0
M  V30 7142 H 708.613 -0.249042 -1.93302 0
M  V30 7143 H 707.709 0.838094 -3.00637 0
M  V30 7144 N 708.01 1.57248 0.105221 0
M  V30 7145 C 708.958 2.02337 1.14728 0
M  V30 7146 C 709.952 0.922652 1.42069 0
M  V30 7147 O 711.158 1.10785 1.41869 0
M  V30 7148 H 707.533 0.644682 0.387155 0
M  V30 7149 H 709.504 2.89063 0.740607 0
M  V30 7150 C 708.253 2.45513 2.46209 0
M  V30 7151 H 707.576 3.29785 2.26013 0
M  V30 7152 H 709.016 2.80846 3.1765 0
M  V30 7153 C 707.475 1.3243 3.09781 0
M  V30 7154 O 708.005 0.647841 3.96442 0
M  V30 7155 N 706.211 1.07785 2.69872 0
M  V30 7156 H 705.758 1.62973 1.99493 0
M  V30 7157 H 705.716 0.323204 3.12734 0
M  V30 7158 N 709.488 -0.375779 1.53054 0
M  V30 7159 C 710.734 -1.11767 1.6994 0
M  V30 7160 C 711.089 -1.87288 0.440574 0
M  V30 7161 O 710.382 -1.83045 -0.566146 0
M  V30 7162 C 710.576 -2.11356 2.88207 0
M  V30 7163 C 710.405 -1.45619 4.25471 0
M  V30 7164 C 709.175 -1.21464 4.90484 0
M  V30 7165 C 711.373 -0.899276 5.06377 0
M  V30 7166 N 709.355 -0.519705 6.11696 0
M  V30 7167 C 710.726 -0.333138 6.19104 0
M  V30 7168 C 712.781 -0.79697 4.9148 0
M  V30 7169 C 711.484 0.325316 7.18564 0
M  V30 7170 C 713.51 -0.152315 5.91204 0
M  V30 7171 C 712.872 0.402994 7.03246 0
M  V30 7172 H 708.971 -0.394489 0.675206 0
M  V30 7173 H 711.555 -0.40541 1.90432 0
M  V30 7174 H 709.726 -2.79905 2.69272 0
M  V30 7175 H 711.458 -2.78148 2.93966 0
M  V30 7176 H 708.213 -1.49319 4.49445 0
M  V30 7177 H 708.637 -0.187896 6.76739 0
M  V30 7178 H 713.279 -1.21208 4.05054 0
M  V30 7179 H 710.997 0.752399 8.0459 0
M  V30 7180 H 714.583 -0.074223 5.81753 0
M  V30 7181 H 713.463 0.89394 7.79088 0
M  V30 7182 N 710.966 -1.44241 -0.634997 0
M  V30 7183 C 712.191 -1.50516 -1.42687 0
M  V30 7184 C 712.616 -0.129864 -1.87651 0
M  V30 7185 O 711.974 0.880164 -1.58502 0
M  V30 7186 C 712.022 -2.4714 -2.62591 0
M  V30 7187 O 711.126 -1.97025 -3.62291 0
M  V30 7188 H 710.467 -0.50841 -0.427101 0
M  V30 7189 H 712.997 -1.89337 -0.775408 0
M  V30 7190 H 713.007 -2.65048 -3.10183 0
M  V30 7191 H 711.682 -3.47039 -2.29209 0
M  V30 7192 H 710.259 -1.88866 -3.21534 0
M  V30 7193 N 712.444 0.87505 -1.31075 0
M  V30 7194 C 713.855 1.4433 -1.18431 0
M  V30 7195 C 714.206 1.9506 0.211189 0
M  V30 7196 O 713.331 1.85847 1.10859 0
M  V30 7197 C 713.926 2.62341 -2.14389 0
M  V30 7198 C 712.485 3.15225 -2.05694 0
M  V30 7199 C 711.632 1.87929 -2.03907 0
M  V30 7200 H 714.583 0.684061 -1.432 0
M  V30 7201 H 714.604 3.3887 -1.73053 0
M  V30 7202 H 714.116 2.25388 -3.15946 0
M  V30 7203 H 712.217 3.56812 -1.07314 0
M  V30 7204 H 712.33 3.77853 -2.94558 0
M  V30 7205 H 710.694 2.06679 -1.48849 0
M  V30 7206 H 711.477 1.53221 -3.07211 0
M  V30 7207 N 713.922 1.13953 1.08869 0
M  V30 7208 C 714.885 0.824991 2.13838 0
M  V30 7209 C 715.885 -0.168198 1.59918 0
M  V30 7210 O 717.075 0.0595778 1.74098 0
M  V30 7211 C 714.207 0.228938 3.4013 0
M  V30 7212 H 715.4 1.75521 2.43171 0
M  V30 7213 H 712.953 0.94492 1.24503 0
M  V30 7214 H 713.688 -0.710227 3.16427 0
M  V30 7215 H 713.473 0.944243 3.80561 0
M  V30 7216 H 714.963 0.0259223 4.17592 0
M  V30 7217 N 715.4 -1.26948 0.933913 0
M  V30 7218 C 716.363 -2.24889 0.442457 0
M  V30 7219 C 717.363 -1.54594 -0.442426 0
M  V30 7220 O 718.553 -1.72502 -0.242629 0
M  V30 7221 C 715.685 -3.3896 -0.363173 0
M  V30 7222 H 716.878 -2.69879 1.30787 0
M  V30 7223 H 714.431 -1.38978 0.715187 0
M  V30 7224 H 715.166 -2.99361 -1.24714 0
M  V30 7225 H 714.951 -3.9116 0.271366 0
M  V30 7226 H 716.441 -4.11739 -0.697186 0
M  V30 7227 N 716.879 -0.700114 -1.41195 0
M  V30 7228 C 717.842 -0.0465706 -2.29153 0
M  V30 7229 C 718.842 0.703302 -1.44604 0
M  V30 7230 O 720.032 0.537513 -1.657 0
M  V30 7231 C 717.164 0.944324 -3.2756 0
M  V30 7232 H 718.357 -0.821064 -2.88442 0
M  V30 7233 H 715.91 -0.463869 -1.49258 0
M  V30 7234 H 716.645 1.74642 -2.73259 0
M  V30 7235 H 716.43 0.409701 -3.89954 0
M  V30 7236 H 717.92 1.39925 -3.9346 0
M  V30 7237 N 718.357 1.51182 -0.445186 0
M  V30 7238 C 719.287 2.30821 0.352686 0
M  V30 7239 C 720.268 1.36576 1.01395 0
M  V30 7240 O 721.453 1.65497 1.01609 0
M  V30 7241 C 718.583 3.15593 1.44976 0
M  V30 7242 C 717.537 4.1818 0.911553 0
M  V30 7243 C 716.863 4.91523 2.10497 0
M  V30 7244 C 718.163 5.22266 -0.059418 0
M  V30 7245 H 719.857 2.97771 -0.311936 0
M  V30 7246 H 717.403 1.43201 -0.151461 0
M  V30 7247 H 719.356 3.70091 2.01521 0
M  V30 7248 H 718.08 2.4648 2.14278 0
M  V30 7249 H 716.739 3.64746 0.368264 0
M  V30 7250 H 716.387 4.18906 2.78437 0
M  V30 7251 H 716.087 5.60898 1.7512 0
M  V30 7252 H 717.611 5.48847 2.6758 0
M  V30 7253 H 719.025 5.71789 0.415985 0
M  V30 7254 H 717.422 5.99213 -0.326152 0
M  V30 7255 H 718.492 4.7461 -0.993631 0
M  V30 7256 N 719.835 0.176821 1.56605 0
M  V30 7257 C 721.251 -0.179278 1.5859 0
M  V30 7258 C 721.451 -1.62433 1.19238 0
M  V30 7259 O 720.507 -2.35665 0.906552 0
M  V30 7260 C 721.82 0.106524 3.00511 0
M  V30 7261 C 723.368 0.0451731 3.12967 0
M  V30 7262 C 723.843 0.304038 4.5699 0
M  V30 7263 N 725.334 0.252008 4.62514 0
M  V30 7264 C 726.069 0.426404 5.71812 0
M  V30 7265 N 725.565 0.660155 6.89648 0
M  V30 7266 N 727.358 0.361926 5.60934 0
M  V30 7267 H 719.509 1.12001 1.8047 0
M  V30 7268 H 721.772 0.445679 0.836704 0
M  V30 7269 H 721.478 1.10778 3.33798 0
M  V30 7270 H 721.352 -0.599337 3.72408 0
M  V30 7271 H 723.739 -0.946662 2.79504 0
M  V30 7272 H 723.82 0.78383 2.43495 0
M  V30 7273 H 723.464 1.29311 4.91163 0
M  V30 7274 H 723.394 -0.455294 5.24628 0
M  V30 7275 H 725.885 0.0772102 3.77821 0
M  V30 7276 H 726.198 0.782529 7.68828 0
M  V30 7277 H 724.543 0.696835 6.91498 0
M  V30 7278 H 727.734 0.17986 4.67754 0
M  V30 7279 H 727.907 0.501263 6.46058 0
M  V30 7280 N 721.313 -1.57302 -0.09688 0
M  V30 7281 C 722.243 -2.0497 -1.11846 0
M  V30 7282 C 723.224 -0.938278 -1.41882 0
M  V30 7283 O 724.409 -1.20943 -1.51942 0
M  V30 7284 C 721.539 -2.47264 -2.43881 0
M  V30 7285 C 720.493 -3.62053 -2.28257 0
M  V30 7286 C 719.819 -3.90318 -3.65453 0
M  V30 7287 C 721.119 -4.93005 -1.72461 0
M  V30 7288 H 722.813 -2.90567 -0.721888 0
M  V30 7289 H 720.359 -1.39786 -0.345803 0
M  V30 7290 H 722.312 -2.7922 -3.15617 0
M  V30 7291 H 721.036 -1.58664 -2.8547 0
M  V30 7292 H 719.695 -3.30341 -1.58967 0
M  V30 7293 H 719.343 -2.98889 -4.04567 0
M  V30 7294 H 719.043 -4.67597 -3.55846 0
M  V30 7295 H 720.567 -4.24747 -4.3866 0
M  V30 7296 H 721.981 -5.23354 -2.34036 0
M  V30 7297 H 720.378 -5.74436 -1.73618 0
M  V30 7298 H 721.448 -4.80053 -0.683898 0
M  V30 7299 N 722.791 0.367657 -1.53252 0
M  V30 7300 C 724.019 1.13119 -1.73239 0
M  V30 7301 C 724.434 1.831 -0.460404 0
M  V30 7302 O 723.791 1.73483 0.566557 0
M  V30 7303 C 723.842 2.16308 -2.89643 0
M  V30 7304 O 723.563 1.49175 -4.1192 0
M  V30 7305 C 725.064 3.05224 -3.21486 0
M  V30 7306 H 722.284 0.338318 -0.579467 0
M  V30 7307 H 724.828 0.42721 -1.99988 0
M  V30 7308 H 722.983 2.82307 -2.65295 0
M  V30 7309 H 723.397 2.17912 -4.7709 0
M  V30 7310 H 724.871 3.73613 -4.06346 0
M  V30 7311 H 725.348 3.69919 -2.36763 0
M  V30 7312 H 725.954 2.44843 -3.47753 0
M  V30 7313 N 724.269 1.44576 0.627338 0
M  V30 7314 C 725.546 1.38033 1.38586 0
M  V30 7315 C 725.926 0.0409468 2.1106 0
M  V30 7316 O 725.274 -0.976582 2.0658 0
M  V30 7317 C 725.484 2.58102 2.34913 0
M  V30 7318 C 726.832 3.02332 2.98129 0
M  V30 7319 O 727.856 2.58334 2.45238 0
M  V30 7320 O 726.715 3.78628 3.94085 0
M  V30 7321 H 723.809 0.546801 0.620434 0
M  V30 7322 H 726.355 1.56672 0.652077 0
M  V30 7323 H 725.127 3.4719 1.80485 0
M  V30 7324 H 724.75 2.41696 3.15703 0
M  V30 7325 N 725.747 -0.868086 1.31537 0
M  V30 7326 C 726.975 -1.65402 1.24298 0
M  V30 7327 C 727.39 -1.87827 -0.191389 0
M  V30 7328 O 726.747 -1.43776 -1.12404 0
M  V30 7329 C 726.798 -3.02093 1.9855 0
M  V30 7330 O 726.519 -2.80668 3.36388 0
M  V30 7331 C 728.02 -3.96538 1.98173 0
M  V30 7332 H 725.24 -0.515598 0.429417 0
M  V30 7333 H 727.784 -1.0834 1.73444 0
M  V30 7334 H 725.939 -3.55838 1.53161 0
M  V30 7335 H 726.353 -3.67504 3.74221 0
M  V30 7336 H 727.827 -4.8976 2.54635 0
M  V30 7337 H 728.304 -4.28474 0.964697 0
M  V30 7338 H 728.91 -3.48729 2.4345 0
M  V30 7339 N 727.225 -1.14528 -1.08264 0
M  V30 7340 C 728.45 -0.938381 -1.84957 0
M  V30 7341 C 728.875 0.508044 -1.81109 0
M  V30 7342 O 728.233 1.36146 -1.19724 0
M  V30 7343 C 728.281 -1.44568 -3.30352 0
M  V30 7344 O 727.385 -0.638745 -4.07423 0
M  V30 7345 H 726.726 -0.335394 -0.573068 0
M  V30 7346 H 729.256 -1.52287 -1.36637 0
M  V30 7347 H 729.266 -1.45449 -3.81194 0
M  V30 7348 H 727.941 -2.49876 -3.32468 0
M  V30 7349 H 726.518 -0.698801 -3.66294 0
M  V30 7350 N 728.703 1.26451 -0.940633 0
M  V30 7351 C 729.951 1.93395 -0.586748 0
M  V30 7352 C 730.272 1.7417 0.876921 0
M  V30 7353 O 729.542 1.097 1.62304 0
M  V30 7354 H 728.122 0.715687 -0.214012 0
M  V30 7355 H 730.784 1.53902 -1.19584 0
M  V30 7356 H 729.88 3.01565 -0.804059 0
M  V30 7357 N 730.181 0.707592 1.40822 0
M  V30 7358 C 731.411 0.252706 2.05049 0
M  V30 7359 C 731.819 -1.10758 1.53393 0
M  V30 7360 O 731.162 -1.70567 0.682097 0
M  V30 7361 C 731.224 0.146001 3.59203 0
M  V30 7362 C 730.888 1.44027 4.33711 0
M  V30 7363 C 731.885 2.38058 4.62195 0
M  V30 7364 C 729.57 1.69698 4.72766 0
M  V30 7365 C 731.564 3.56013 5.28709 0
M  V30 7366 C 729.251 2.87936 5.39014 0
M  V30 7367 C 730.249 3.80915 5.66915 0
M  V30 7368 O 729.937 4.9708 6.31796 0
M  V30 7369 H 729.669 0.112784 0.666525 0
M  V30 7370 H 732.223 0.96417 1.81364 0
M  V30 7371 H 730.453 -0.621338 3.81676 0
M  V30 7372 H 732.142 -0.273275 4.04979 0
M  V30 7373 H 732.908 2.19487 4.32493 0
M  V30 7374 H 728.787 0.981835 4.50423 0
M  V30 7375 H 732.331 4.28604 5.50404 0
M  V30 7376 H 728.228 3.06419 5.68135 0
M  V30 7377 H 728.996 4.97053 6.50293 0
M  V30 7378 N 731.66 -1.50943 0.453197 0
M  V30 7379 C 733.071 -1.86699 -0.00619892 0
M  V30 7380 C 733.422 -1.3693 -1.40515 0
M  V30 7381 O 732.547 -0.726715 -2.03833 0
M  V30 7382 C 733.142 -3.38795 -0.018025 0
M  V30 7383 C 731.701 -3.74028 -0.421885 0
M  V30 7384 C 730.848 -2.74752 0.375087 0
M  V30 7385 H 733.799 -1.43942 0.668317 0
M  V30 7386 H 733.82 -3.71468 -0.824125 0
M  V30 7387 H 733.332 -3.74988 1.00028 0
M  V30 7388 H 731.433 -3.43431 -1.44521 0
M  V30 7389 H 731.546 -4.78908 -0.135664 0
M  V30 7390 H 729.91 -2.5414 -0.168794 0
M  V30 7391 H 730.693 -3.13787 1.39256 0
M  V30 7392 N 733.138 -0.185124 -1.56509 0
M  V30 7393 C 734.366 0.462139 -2.01673 0
M  V30 7394 C 734.781 1.55873 -1.06532 0
M  V30 7395 O 734.138 1.82371 -0.0684805 0
M  V30 7396 C 734.189 1.0277 -3.46584 0
M  V30 7397 O 733.91 -0.0251296 -4.38093 0
M  V30 7398 C 735.411 1.75183 -4.07217 0
M  V30 7399 H 732.631 0.117001 -0.660721 0
M  V30 7400 H 735.175 -0.290905 -2.0242 0
M  V30 7401 H 733.33 1.73118 -3.46568 0
M  V30 7402 H 733.744 0.394387 -5.23015 0
M  V30 7403 H 735.218 2.09999 -5.10494 0
M  V30 7404 H 735.695 2.6519 -3.50101 0
M  V30 7405 H 736.301 1.09445 -4.10977 0
M  V30 7406 N 734.616 1.57351 0.0885366 0
M  V30 7407 C 735.862 1.87564 0.786842 0
M  V30 7408 C 736.217 0.776774 1.76023 0
M  V30 7409 O 735.51 -0.220637 1.90325 0
M  V30 7410 C 735.704 3.22098 1.5488 0
M  V30 7411 C 735.533 4.44967 0.650706 0
M  V30 7412 C 734.303 5.04444 0.293957 0
M  V30 7413 C 736.501 5.1428 -0.0452187 0
M  V30 7414 N 734.483 6.10846 -0.611609 0
M  V30 7415 C 735.854 6.14704 -0.808603 0
M  V30 7416 C 737.909 4.97759 -0.118451 0
M  V30 7417 C 736.612 7.00392 -1.63839 0
M  V30 7418 C 738.638 5.8396 -0.935157 0
M  V30 7419 C 738 6.83909 -1.68664 0
M  V30 7420 H 734.099 0.73613 0.263887 0
M  V30 7421 H 736.683 1.94638 0.049074 0
M  V30 7422 H 734.854 3.16064 2.2574 0
M  V30 7423 H 736.586 3.40015 2.19481 0
M  V30 7424 H 733.341 4.69214 0.643086 0
M  V30 7425 H 733.765 6.68695 -1.05714 0
M  V30 7426 H 738.407 4.20418 0.448202 0
M  V30 7427 H 736.125 7.7712 -2.21608 0
M  V30 7428 H 739.711 5.73236 -0.994579 0
M  V30 7429 H 738.591 7.49454 -2.30842 0
M  V30 7430 N 736.094 -0.359525 1.53444 0
M  V30 7431 C 737.041 -1.44073 1.8031 0
M  V30 7432 C 738.011 -1.52946 0.647811 0
M  V30 7433 O 739.196 -1.68739 0.890614 0
M  V30 7434 C 736.336 -2.80941 2.00416 0
M  V30 7435 C 735.449 -2.80986 3.28132 0
M  V30 7436 C 734.584 -4.09468 3.38393 0
M  V30 7437 C 733.623 -4.03679 4.60119 0
M  V30 7438 N 732.76 -5.23821 4.675 0
M  V30 7439 H 737.6 -1.20464 2.72566 0
M  V30 7440 H 735.137 -0.583859 1.35017 0
M  V30 7441 H 737.095 -3.60459 2.1006 0
M  V30 7442 H 735.725 -3.02936 1.11489 0
M  V30 7443 H 734.777 -1.93666 3.27411 0
M  V30 7444 H 736.089 -2.72583 4.17732 0
M  V30 7445 H 735.243 -4.97404 3.47382 0
M  V30 7446 H 733.982 -4.20632 2.4682 0
M  V30 7447 H 732.987 -3.14129 4.51224 0
M  V30 7448 H 734.212 -3.94112 5.5304 0
M  V30 7449 H 732.158 -5.35559 3.7883 0
M  V30 7450 H 732.075 -5.17611 5.51013 0
M  V30 7451 H 733.343 -6.13572 4.8078 0
M  V30 7452 N 737.572 -1.44907 -0.619662 0
M  V30 7453 C 738.82 -1.47999 -1.37625 0
M  V30 7454 C 739.141 -0.118295 -1.94641 0
M  V30 7455 O 738.411 0.85086 -1.76457 0
M  V30 7456 H 736.991 -0.544993 -0.510873 0
M  V30 7457 H 739.653 -1.80772 -0.728522 0
M  V30 7458 H 738.749 -2.21196 -2.20179 0
M  V30 7459 N 739.05 0.861098 -1.31996 0
M  V30 7460 C 740.275 1.65264 -1.2531 0
M  V30 7461 C 740.7 1.87265 0.177007 0
M  V30 7462 O 740.058 1.4208 1.12619 0
M  V30 7463 C 740.106 2.99284 -2.0115 0
M  V30 7464 O 739.21 3.89508 -1.3549 0
M  V30 7465 H 738.551 0.50409 -0.432192 0
M  V30 7466 H 741.081 1.07297 -1.74208 0
M  V30 7467 H 741.091 3.49154 -2.11081 0
M  V30 7468 H 739.766 2.82591 -3.05148 0
M  V30 7469 H 738.343 3.47966 -1.34066 0
M  V30 7470 N 740.528 1.15101 1.07655 0
M  V30 7471 C 741.777 0.918528 1.79572 0
M  V30 7472 C 742.09 -0.555922 1.87534 0
M  V30 7473 O 743.296 -0.905893 2.55941 0
M  V30 7474 C 741.752 1.59394 3.22679 0
M  V30 7475 C 741.36 3.1052 3.22927 0
M  V30 7476 C 743.104 1.44289 3.99225 0
M  V30 7477 C 741.011 3.70862 4.60668 0
M  V30 7478 H 739.941 0.340006 0.672987 0
M  V30 7479 H 742.592 1.38079 1.20857 0
M  V30 7480 H 740.974 1.05936 3.81567 0
M  V30 7481 H 742.148 3.70708 2.737 0
M  V30 7482 H 740.463 3.25351 2.59876 0
M  V30 7483 H 743.06 1.86766 5.01022 0
M  V30 7484 H 743.403 0.389975 4.14469 0
M  V30 7485 H 743.936 1.94826 3.46825 0
M  V30 7486 H 740.675 4.7604 4.50628 0
M  V30 7487 H 740.195 3.15456 5.10145 0
M  V30 7488 H 741.874 3.71607 5.29639 0
M  V30 7489 N 742.006 -1.2595 0.947325 0
M  V30 7490 C 742.969 -2.24407 0.466285 0
M  V30 7491 C 743.969 -1.55054 -0.426005 0
M  V30 7492 O 745.159 -1.7275 -0.224319 0
M  V30 7493 C 742.291 -3.39326 -0.327201 0
M  V30 7494 H 743.484 -2.68477 1.33642 0
M  V30 7495 H 741.037 -1.38211 0.729887 0
M  V30 7496 H 741.772 -3.00667 -1.21532 0
M  V30 7497 H 741.557 -3.9085 0.312839 0
M  V30 7498 H 743.047 -4.12455 -0.653477 0
M  V30 7499 N 743.484 -0.715051 -1.40445 0
M  V30 7500 C 744.414 -0.0768699 -2.33373 0
M  V30 7501 C 745.395 0.746109 -1.52863 0
M  V30 7502 O 746.58 0.695142 -1.81332 0
M  V30 7503 C 743.71 0.846014 -3.36838 0
M  V30 7504 C 742.664 0.128694 -4.27806 0
M  V30 7505 C 741.99 1.16726 -5.21804 0
M  V30 7506 C 743.29 -1.01679 -5.12307 0
M  V30 7507 H 744.984 -0.853061 -2.8699 0
M  V30 7508 H 742.53 -0.41167 -1.3799 0
M  V30 7509 H 744.483 1.30185 -4.00786 0
M  V30 7510 H 743.207 1.6541 -2.81615 0
M  V30 7511 H 741.866 -0.307314 -3.6531 0
M  V30 7512 H 741.514 1.96838 -4.62887 0
M  V30 7513 H 741.214 0.692188 -5.83509 0
M  V30 7514 H 742.738 1.62321 -5.88629 0
M  V30 7515 H 744.152 -0.640337 -5.69713 0
M  V30 7516 H 742.549 -1.4202 -5.83053 0
M  V30 7517 H 743.619 -1.84769 -4.48317 0
M  V30 7518 N 744.962 1.50701 -0.461195 0
M  V30 7519 C 746.373 1.867 -0.00370227 0
M  V30 7520 C 746.724 1.37673 1.39787 0
M  V30 7521 O 745.849 0.737515 2.03445 0
M  V30 7522 C 746.444 3.388 5.75786e-05 0
M  V30 7523 C 745.003 3.74247 0.402044 0
M  V30 7524 C 744.15 2.74549 -0.389652 0
M  V30 7525 H 747.101 1.43585 -0.675942 0
M  V30 7526 H 747.122 3.719 0.804414 0
M  V30 7527 H 746.634 3.74452 -1.02015 0
M  V30 7528 H 744.735 3.44192 1.42697 0
M  V30 7529 H 744.848 4.78973 0.110265 0
M  V30 7530 H 743.212 2.54226 0.155314 0
M  V30 7531 H 743.995 3.13044 -1.40919 0
M  V30 7532 N 746.441 0.193421 1.56409 0
M  V30 7533 C 747.404 -0.714371 2.17783 0
M  V30 7534 C 748.404 -1.1422 1.13183 0
M  V30 7535 O 749.594 -1.05557 1.38576 0
M  V30 7536 C 746.726 -1.97509 2.77855 0
M  V30 7537 H 747.919 -0.179714 2.99361 0
M  V30 7538 H 745.472 -0.0561944 1.56199 0
M  V30 7539 H 746.207 -2.5523 2.0007 0
M  V30 7540 H 745.992 -1.67706 3.54425 0
M  V30 7541 H 747.482 -2.62246 3.24987 0
M  V30 7542 N 747.919 -1.57396 -0.0801906 0
M  V30 7543 C 749.167 -1.86467 -0.779384 0
M  V30 7544 C 749.488 -0.784243 -1.78535 0
M  V30 7545 O 748.758 0.187986 -1.94996 0
M  V30 7546 H 747.338 -0.68806 -0.29083 0
M  V30 7547 H 750 -1.94813 -0.0582749 0
M  V30 7548 H 749.096 -2.83701 -1.30078 0
M  V30 7549 N 749.397 0.351382 -1.53633 0
M  V30 7550 C 750.329 1.45159 -1.77374 0
M  V30 7551 C 751.342 1.4905 -0.654826 0
M  V30 7552 O 752.531 1.52274 -0.931396 0
M  V30 7553 C 749.631 2.83858 -1.85143 0
M  V30 7554 C 748.804 3.03498 -3.14972 0
M  V30 7555 C 747.863 4.22393 -3.138 0
M  V30 7556 O 746.889 4.16885 -3.87551 0
M  V30 7557 N 748.091 5.30533 -2.35617 0
M  V30 7558 H 750.856 1.25167 -2.72311 0
M  V30 7559 H 748.417 0.54121 -1.52586 0
M  V30 7560 H 750.409 3.61557 -1.8182 0
M  V30 7561 H 748.979 2.9703 -0.974275 0
M  V30 7562 H 748.199 2.13336 -3.31484 0
M  V30 7563 H 749.487 3.13498 -4.00745 0
M  V30 7564 H 748.885 5.37875 -1.75235 0
M  V30 7565 H 747.442 6.06756 -2.38098 0
M  V30 7566 N 750.875 1.45233 0.611969 0
M  V30 7567 C 751.823 1.53898 1.74408 0
M  V30 7568 C 752.817 0.409254 1.64382 0
M  V30 7569 O 754.023 0.584988 1.70229 0
M  V30 7570 H 750.398 0.483303 0.576127 0
M  V30 7571 H 752.369 2.49143 1.64227 0
M  V30 7572 C 751.118 1.51865 3.12782 0
M  V30 7573 H 750.441 2.38118 3.21154 0
M  V30 7574 H 751.881 1.61986 3.91838 0
M  V30 7575 C 750.34 0.242374 3.36027 0
M  V30 7576 O 750.87 -0.679587 3.9591 0
M  V30 7577 N 749.076 0.139448 2.90265 0
M  V30 7578 H 748.623 0.890571 2.41716 0
M  V30 7579 H 748.581 -0.713686 3.06193 0
M  V30 7580 N 752.353 -0.854086 1.3245 0
M  V30 7581 C 753.263 -1.99503 1.23434 0
M  V30 7582 C 754.279 -1.73371 0.147828 0
M  V30 7583 O 755.455 -1.97998 0.368609 0
M  V30 7584 C 752.52 -3.33192 0.958328 0
M  V30 7585 C 751.581 -3.72542 2.13333 0
M  V30 7586 C 750.814 -4.99852 1.8704 0
M  V30 7587 O 751.037 -5.64573 0.813239 0
M  V30 7588 O 749.971 -5.36345 2.73161 0
M  V30 7589 H 753.797 -2.10046 2.1935 0
M  V30 7590 H 751.382 -0.984823 1.12346 0
M  V30 7591 H 753.264 -4.13327 0.820918 0
M  V30 7592 H 751.939 -3.23687 0.0293299 0
M  V30 7593 H 750.846 -2.92981 2.32622 0
M  V30 7594 H 752.179 -3.86694 3.04514 0
M  V30 7595 N 753.831 -1.1567 -1.07043 0
M  V30 7596 C 754.741 -0.870435 -2.17855 0
M  V30 7597 C 755.757 0.154452 -1.73313 0
M  V30 7598 O 756.933 -0.0203759 -2.0139 0
M  V30 7599 C 753.998 -0.367219 -3.4475 0
M  V30 7600 C 753.059 -1.45639 -4.03841 0
M  V30 7601 C 752.292 -0.977092 -5.2468 0
M  V30 7602 O 752.515 0.176127 -5.70128 0
M  V30 7603 O 751.449 -1.76215 -5.75527 0
M  V30 7604 H 755.275 -1.79687 -2.44839 0
M  V30 7605 H 752.86 -0.936064 -1.1644 0
M  V30 7606 H 754.742 -0.0931947 -4.21297 0
M  V30 7607 H 753.417 0.53131 -3.1931 0
M  V30 7608 H 752.324 -1.78406 -3.28819 0
M  V30 7609 H 753.657 -2.32995 -4.3356 0
M  V30 7610 N 755.309 1.25446 -0.953992 0
M  V30 7611 C 756.555 1.93756 -0.618888 0
M  V30 7612 C 756.91 1.73344 0.83484 0
M  V30 7613 O 756.203 1.06753 1.59105 0
M  V30 7614 C 756.397 3.45555 -0.912496 0
M  V30 7615 C 756.226 3.8073 -2.39321 0
M  V30 7616 C 754.996 4.02819 -3.05065 0
M  V30 7617 C 757.194 3.88286 -3.37251 0
M  V30 7618 N 755.176 4.24981 -4.43017 0
M  V30 7619 C 756.547 4.1513 -4.60507 0
M  V30 7620 C 758.602 3.70965 -3.32099 0
M  V30 7621 C 757.305 4.26454 -5.79249 0
M  V30 7622 C 759.331 3.83528 -4.50178 0
M  V30 7623 C 758.693 4.10783 -5.72221 0
M  V30 7624 H 754.792 0.731271 -0.277069 0
M  V30 7625 H 757.376 1.5125 -1.22604 0
M  V30 7626 H 755.547 3.86959 -0.334284 0
M  V30 7627 H 757.279 4.01117 -0.537362 0
M  V30 7628 H 754.034 3.9868 -2.55639 0
M  V30 7629 H 754.458 4.4007 -5.14459 0
M  V30 7630 H 759.1 3.4891 -2.38791 0
M  V30 7631 H 756.818 4.47325 -6.72998 0
M  V30 7632 H 760.404 3.71513 -4.47738 0
M  V30 7633 H 759.284 4.20285 -6.62065 0
M  V30 7634 N 756.787 0.722489 1.40064 0
M  V30 7635 C 757.734 0.0743738 2.3068 0
M  V30 7636 C 758.704 -0.743004 1.48555 0
M  V30 7637 O 759.889 -0.705536 1.77276 0
M  V30 7638 C 757.029 -0.836292 3.34814 0
M  V30 7639 C 756.142 -0.00764663 4.31999 0
M  V30 7640 C 755.277 -0.918428 5.232 0
M  V30 7641 C 754.316 -0.0842838 6.12042 0
M  V30 7642 N 753.453 -0.950316 6.95639 0
M  V30 7643 H 758.293 0.852794 2.85537 0
M  V30 7644 H 755.83 0.432222 1.40607 0
M  V30 7645 H 757.788 -1.3786 3.93765 0
M  V30 7646 H 756.418 -1.58082 2.81443 0
M  V30 7647 H 755.47 0.651928 3.74772 0
M  V30 7648 H 756.782 0.63786 4.94705 0
M  V30 7649 H 755.936 -1.52902 5.87116 0
M  V30 7650 H 754.675 -1.59774 4.60786 0
M  V30 7651 H 753.68 0.5392 5.4715 0
M  V30 7652 H 754.905 0.591628 6.76518 0
M  V30 7653 H 752.851 -1.61515 6.35806 0
M  V30 7654 H 752.768 -0.361004 7.55138 0
M  V30 7655 H 754.036 -1.54687 7.63997 0
M  V30 7656 N 758.265 -1.50454 0.469181 0
M  V30 7657 C 759.505 -2.04222 -0.0852381 0
M  V30 7658 C 759.869 -1.34357 -1.37158 0
M  V30 7659 O 761.07 -1.78669 -2.00825 0
M  V30 7660 C 759.341 -3.56403 -0.266778 0
M  V30 7661 S 760.9 -4.31811 -0.780028 0
M  V30 7662 H 757.718 -0.7108 -0.0168589 0
M  V30 7663 H 760.32 -1.8487 0.635883 0
M  V30 7664 H 759.024 -4.04807 0.67525 0
M  V30 7665 H 758.555 -3.80106 -1.01407 0
M  V30 7666 H 760.57 -4.51706 -2.05368 0
M  V30 7667 N 759.743 -0.201713 -1.56304 0
M  V30 7668 C 760.673 0.71155 -2.22394 0
M  V30 7669 C 761.654 1.21625 -1.18917 0
M  V30 7670 O 762.839 1.26388 -1.47444 0
M  V30 7671 C 759.969 1.92837 -2.88845 0
M  V30 7672 C 758.923 1.55831 -3.98623 0
M  V30 7673 C 758.249 2.85228 -4.52271 0
M  V30 7674 C 759.549 0.763249 -5.16693 0
M  V30 7675 H 761.243 0.160573 -2.98969 0
M  V30 7676 H 758.789 0.0757916 -1.438 0
M  V30 7677 H 760.742 2.57253 -3.33764 0
M  V30 7678 H 759.466 2.50398 -2.09686 0
M  V30 7679 H 758.125 0.9377 -3.54405 0
M  V30 7680 H 757.773 3.40893 -3.69866 0
M  V30 7681 H 757.473 2.6121 -5.26349 0
M  V30 7682 H 758.997 3.50622 -4.99897 0
M  V30 7683 H 760.411 1.31066 -5.58117 0
M  V30 7684 H 758.808 0.620935 -5.96879 0
M  V30 7685 H 759.878 -0.234322 -4.84334 0
M  V30 7686 N 761.222 1.57436 0.0718424 0
M  V30 7687 C 762.471 1.86431 0.769826 0
M  V30 7688 C 762.784 0.794355 1.78744 0
M  V30 7689 O 763.99 0.972148 2.53499 0
M  V30 7690 C 762.446 3.307 1.42006 0
M  V30 7691 C 762.054 4.45824 0.441017 0
M  V30 7692 C 763.798 3.68894 2.10041 0
M  V30 7693 C 761.705 5.81134 1.09717 0
M  V30 7694 H 760.635 0.695474 0.291259 0
M  V30 7695 H 763.286 1.83485 0.0231224 0
M  V30 7696 H 761.668 3.28257 2.21502 0
M  V30 7697 H 762.842 4.59659 -0.32413 0
M  V30 7698 H 761.157 4.16181 -0.134886 0
M  V30 7699 H 763.754 4.67281 2.59908 0
M  V30 7700 H 764.097 2.98692 2.89981 0
M  V30 7701 H 764.63 3.73326 1.37376 0
M  V30 7702 H 761.369 6.54628 0.338095 0
M  V30 7703 H 760.889 5.711 1.83317 0
M  V30 7704 H 762.568 6.26468 1.617 0
M  V30 7705 N 762.7 -0.34323 1.53817 0
M  V30 7706 C 764.116 -0.686355 1.44088 0
M  V30 7707 C 764.316 -1.92426 0.597882 0
M  V30 7708 O 763.372 -2.52343 0.0889918 0
M  V30 7709 C 764.685 -0.878698 2.87575 0
M  V30 7710 C 766.233 -0.977296 2.97352 0
M  V30 7711 C 766.708 -1.20195 4.41947 0
M  V30 7712 N 768.199 -1.26915 4.45474 0
M  V30 7713 C 768.934 -1.46049 5.54488 0
M  V30 7714 N 768.43 -1.62354 6.73508 0
M  V30 7715 N 770.223 -1.48599 5.42102 0
M  V30 7716 H 762.374 0.470679 2.07119 0
M  V30 7717 H 764.637 0.148652 0.936273 0
M  V30 7718 H 764.343 -0.040602 3.51677 0
M  V30 7719 H 764.217 -1.78034 3.32541 0
M  V30 7720 H 766.604 -1.80591 2.3339 0
M  V30 7721 H 766.685 -0.0525498 2.55746 0
M  V30 7722 H 766.329 -0.378262 5.06489 0
M  V30 7723 H 766.259 -2.14027 4.81145 0
M  V30 7724 H 768.75 -1.15837 3.59708 0
M  V30 7725 H 769.063 -1.76591 7.52353 0
M  V30 7726 H 767.408 -1.5949 6.76453 0
M  V30 7727 H 770.599 -1.35443 4.48077 0
M  V30 7728 H 770.772 -1.6317 6.2712 0
M  V30 7729 N 764.178 -1.45556 -0.604258 0
M  V30 7730 C 765.126 -1.5482 -1.7359 0
M  V30 7731 C 766.12 -0.417966 -1.64163 0
M  V30 7732 O 767.326 -0.594007 -1.69916 0
M  V30 7733 H 763.701 -0.486352 -0.573556 0
M  V30 7734 H 765.672 -2.5001 -1.62903 0
M  V30 7735 C 764.421 -1.53521 -3.11972 0
M  V30 7736 H 763.744 -2.39818 -3.19886 0
M  V30 7737 H 765.184 -1.64061 -3.90973 0
M  V30 7738 C 763.643 -0.260191 -3.35894 0
M  V30 7739 O 764.173 0.658582 -3.96265 0
M  V30 7740 N 762.379 -0.154839 -2.90187 0
M  V30 7741 H 761.926 -0.903378 -2.4124 0
M  V30 7742 H 761.884 0.697437 -3.06567 0
M  V30 7743 N 765.656 0.84705 -1.32902 0
M  V30 7744 C 766.566 1.98845 -1.2449 0
M  V30 7745 C 767.582 1.7329 -0.15702 0
M  V30 7746 O 768.758 1.978 -0.379104 0
M  V30 7747 C 765.823 3.32679 -0.975985 0
M  V30 7748 C 764.884 3.71405 -2.15306 0
M  V30 7749 C 764.117 4.98853 -1.89688 0
M  V30 7750 O 764.34 5.64134 -0.843168 0
M  V30 7751 O 763.274 5.34889 -2.76002 0
M  V30 7752 H 767.1 2.0888 -2.2046 0
M  V30 7753 H 764.685 0.978852 -1.12867 0
M  V30 7754 H 766.567 4.12885 -0.842826 0
M  V30 7755 H 765.242 3.23667 -0.0464954 0
M  V30 7756 H 764.149 2.91743 -2.34172 0
M  V30 7757 H 765.482 3.85073 -3.06561 0
M  V30 7758 N 767.134 1.16236 1.06428 0
M  V30 7759 C 768.097 0.870163 2.1204 0
M  V30 7760 C 769.097 -0.134239 1.60239 0
M  V30 7761 O 770.287 0.0964932 1.73933 0
M  V30 7762 C 767.419 0.301033 3.39568 0
M  V30 7763 H 768.612 1.8064 2.39394 0
M  V30 7764 H 766.165 0.971116 1.2247 0
M  V30 7765 H 766.9 -0.642948 3.17863 0
M  V30 7766 H 766.685 1.02475 3.78472 0
M  V30 7767 H 768.175 0.114494 4.17443 0
M  V30 7768 N 768.612 -1.24939 0.960631 0
M  V30 7769 C 769.56 -2.27659 0.47686 0
M  V30 7770 C 770.554 -1.63148 -0.455961 0
M  V30 7771 O 771.76 -1.76911 -0.332029 0
M  V30 7772 H 768.135 -0.739651 0.135723 0
M  V30 7773 H 770.106 -2.65844 1.35534 0
M  V30 7774 C 768.855 -3.46976 -0.224191 0
M  V30 7775 H 768.178 -3.96854 0.484471 0
M  V30 7776 H 769.618 -4.20717 -0.526615 0
M  V30 7777 C 768.077 -3.04159 -1.44876 0
M  V30 7778 O 768.607 -3.10697 -2.54618 0
M  V30 7779 N 766.813 -2.59284 -1.31226 0
M  V30 7780 H 766.36 -2.54164 -0.419361 0
M  V30 7781 H 766.318 -2.31 -2.13275 0
M  V30 7782 N 770.09 -0.729906 -1.39679 0
M  V30 7783 C 771.053 -0.0951668 -2.29002 0
M  V30 7784 C 772.053 0.672471 -1.46063 0
M  V30 7785 O 773.243 0.502245 -1.66803 0
M  V30 7786 C 770.375 0.874631 -3.29489 0
M  V30 7787 H 771.568 -0.882062 -2.86635 0
M  V30 7788 H 769.121 -0.495424 -1.4824 0
M  V30 7789 H 769.856 1.68807 -2.76902 0
M  V30 7790 H 769.641 0.326893 -3.90735 0
M  V30 7791 H 771.131 1.31548 -3.96339 0
M  V30 7792 N 771.568 1.50203 -0.477153 0
M  V30 7793 C 772.796 2.0677 0.0732489 0
M  V30 7794 C 773.211 1.34033 1.32968 0
M  V30 7795 O 772.568 0.411412 1.77802 0
M  V30 7796 C 772.619 3.59751 0.35518 0
M  V30 7797 O 772.34 4.29747 -0.851425 0
M  V30 7798 C 773.841 4.3296 0.951877 0
M  V30 7799 H 771.061 0.670929 -0.00978923 0
M  V30 7800 H 773.605 1.93293 -0.667676 0
M  V30 7801 H 771.76 3.7301 1.04605 0
M  V30 7802 H 772.174 5.2106 -0.599708 0
M  V30 7803 H 773.648 5.40952 1.09888 0
M  V30 7804 H 774.125 3.93856 1.94356 0
M  V30 7805 H 774.731 4.24246 0.299208 0
M  V30 7806 N 773.046 0.209999 1.56195 0
M  V30 7807 C 773.978 -0.736967 2.17029 0
M  V30 7808 C 774.991 -1.16599 1.13616 0
M  V30 7809 O 776.18 -1.09914 1.40646 0
M  V30 7810 C 773.28 -2.00852 2.72969 0
M  V30 7811 C 772.453 -1.73691 4.01435 0
M  V30 7812 C 771.512 -2.85439 4.42053 0
M  V30 7813 O 770.538 -2.54405 5.09183 0
M  V30 7814 N 771.74 -4.14135 4.06783 0
M  V30 7815 H 774.505 -0.216656 2.98916 0
M  V30 7816 H 772.066 0.0285672 1.61875 0
M  V30 7817 H 774.058 -2.74778 2.97118 0
M  V30 7818 H 772.628 -2.43963 1.95451 0
M  V30 7819 H 771.848 -0.834676 3.85262 0
M  V30 7820 H 773.136 -1.52961 4.85263 0
M  V30 7821 H 772.534 -4.42196 3.52816 0
M  V30 7822 H 771.091 -4.84642 4.35851 0
M  V30 7823 N 774.524 -1.57472 -0.0634922 0
M  V30 7824 C 775.77 -1.87932 -0.762194 0
M  V30 7825 C 776.103 -0.803377 -1.76804 0
M  V30 7826 O 775.378 0.185468 -1.93614 0
M  V30 7827 C 775.661 -3.29053 -1.46275 0
M  V30 7828 C 775.514 -4.47309 -0.472755 0
M  V30 7829 C 776.833 -3.68537 -2.40558 0
M  V30 7830 H 773.952 -0.683521 -0.275624 0
M  V30 7831 H 776.594 -1.89983 -0.0252651 0
M  V30 7832 H 774.744 -3.27435 -2.0909 0
M  V30 7833 H 776.416 -4.61053 0.150828 0
M  V30 7834 H 774.659 -4.33286 0.211187 0
M  V30 7835 H 775.33 -5.42853 -1.00072 0
M  V30 7836 H 777.806 -3.71302 -1.87814 0
M  V30 7837 H 776.682 -4.68152 -2.86574 0
M  V30 7838 H 776.943 -2.98917 -3.25731 0
M  V30 7839 N 776.003 0.335068 -1.53997 0
M  V30 7840 C 777.419 0.678704 -1.4445 0
M  V30 7841 C 777.619 1.92106 -0.608078 0
M  V30 7842 O 776.675 2.52292 -0.102373 0
M  V30 7843 C 777.988 0.863435 -2.88037 0
M  V30 7844 C 779.536 0.961513 -2.97866 0
M  V30 7845 C 780.011 1.1785 -4.42578 0
M  V30 7846 N 781.502 1.2455 -4.46141 0
M  V30 7847 C 782.237 1.43106 -5.55255 0
M  V30 7848 N 781.733 1.5878 -6.74359 0
M  V30 7849 N 783.526 1.45722 -5.42883 0
M  V30 7850 H 775.677 -0.481656 -2.06867 0
M  V30 7851 H 777.94 -0.153615 -0.935471 0
M  V30 7852 H 777.646 0.0219511 -3.51693 0
M  V30 7853 H 777.52 1.76268 -3.33481 0
M  V30 7854 H 779.907 1.79351 -2.34344 0
M  V30 7855 H 779.988 0.0389862 -2.5577 0
M  V30 7856 H 779.632 0.351397 -5.06683 0
M  V30 7857 H 779.562 2.11472 -4.82273 0
M  V30 7858 H 782.053 1.13928 -3.60318 0
M  V30 7859 H 782.366 1.72599 -7.53279 0
M  V30 7860 H 780.711 1.559 -6.77289 0
M  V30 7861 H 783.902 1.33065 -4.48789 0
M  V30 7862 H 784.075 1.59841 -6.27977 0
M  V30 7863 N 777.481 1.45874 0.596531 0
M  V30 7864 C 778.413 1.51408 1.7207 0
M  V30 7865 C 779.426 0.403738 1.57714 0
M  V30 7866 O 780.615 0.671384 1.65393 0
M  V30 7867 C 777.715 1.3652 3.10186 0
M  V30 7868 C 776.888 2.61428 3.50677 0
M  V30 7869 C 775.947 2.40937 4.67799 0
M  V30 7870 O 774.973 3.14602 4.74357 0
M  V30 7871 N 776.175 1.4621 5.61785 0
M  V30 7872 H 778.94 2.48333 1.67782 0
M  V30 7873 H 776.501 1.41755 0.782129 0
M  V30 7874 H 778.493 1.20606 3.86311 0
M  V30 7875 H 777.063 0.478302 3.08919 0
M  V30 7876 H 776.283 2.92381 2.644 0
M  V30 7877 H 777.571 3.44432 3.74491 0
M  V30 7878 H 776.969 0.854382 5.59211 0
M  V30 7879 H 775.526 1.36264 6.37397 0
M  V30 7880 N 778.959 -0.83999 1.33349 0
M  V30 7881 C 780.205 -1.59724 1.25936 0
M  V30 7882 C 780.56 -1.91616 -0.173563 0
M  V30 7883 O 779.853 -1.55791 -1.11534 0
M  V30 7884 C 780.047 -2.91571 2.06691 0
M  V30 7885 C 779.876 -2.72556 3.57691 0
M  V30 7886 C 778.646 -2.70174 4.27006 0
M  V30 7887 C 780.844 -2.45272 4.52047 0
M  V30 7888 N 778.826 -2.42525 5.63964 0
M  V30 7889 C 780.197 -2.27163 5.76885 0
M  V30 7890 C 782.252 -2.30859 4.41144 0
M  V30 7891 C 780.955 -1.96105 6.92052 0
M  V30 7892 C 782.981 -2.01194 5.56125 0
M  V30 7893 C 782.343 -1.83897 6.79972 0
M  V30 7894 H 778.442 -0.587568 0.516031 0
M  V30 7895 H 781.026 -0.986169 1.67877 0
M  V30 7896 H 779.197 -3.5063 1.67073 0
M  V30 7897 H 780.929 -3.56762 1.91057 0
M  V30 7898 H 777.684 -2.8364 3.7927 0
M  V30 7899 H 778.108 -2.31588 6.36157 0
M  V30 7900 H 782.75 -2.42946 3.46031 0
M  V30 7901 H 780.468 -1.82756 7.87163 0
M  V30 7902 H 784.054 -1.90799 5.49624 0
M  V30 7903 H 782.934 -1.61271 7.67438 0
M  V30 7904 N 780.437 -1.16799 -1.0581 0
M  V30 7905 C 781.369 -0.836774 -2.13379 0
M  V30 7906 C 782.382 0.158116 -1.6203 0
M  V30 7907 O 783.571 -0.0673211 -1.78373 0
M  V30 7908 C 780.671 -0.225959 -3.38146 0
M  V30 7909 C 779.844 -1.26217 -4.18794 0
M  V30 7910 C 778.903 -0.670257 -5.21914 0
M  V30 7911 O 777.929 -1.34042 -5.53192 0
M  V30 7912 N 779.131 0.540683 -5.77977 0
M  V30 7913 H 781.896 -1.76257 -2.42391 0
M  V30 7914 H 779.457 -1.06599 -1.21853 0
M  V30 7915 H 781.449 0.18317 -4.04285 0
M  V30 7916 H 780.019 0.603494 -3.06719 0
M  V30 7917 H 779.239 -1.84729 -3.48237 0
M  V30 7918 H 780.527 -1.9613 -4.69479 0
M  V30 7919 H 779.925 1.10322 -5.54838 0
M  V30 7920 H 778.482 0.891958 -6.45668 0
M  V30 7921 N 781.915 1.24427 -0.967243 0
M  V30 7922 C 783.163 1.92107 -0.627638 0
M  V30 7923 C 783.484 1.75991 0.83978 0
M  V30 7924 O 782.754 1.13118 1.59941 0
M  V30 7925 H 781.334 0.710986 -0.229145 0
M  V30 7926 H 783.996 1.51331 -1.22821 0
M  V30 7927 H 783.092 2.99791 -0.867844 0
M  V30 7928 N 783.393 0.737304 1.3929 0
M  V30 7929 C 784.641 0.285691 2.00071 0
M  V30 7930 C 784.962 -1.13169 1.58801 0
M  V30 7931 O 784.232 -1.77104 0.837308 0
M  V30 7932 H 782.812 0.102638 0.739915 0
M  V30 7933 H 785.474 0.947775 1.70303 0
M  V30 7934 H 784.57 0.335906 3.10287 0
M  V30 7935 N 784.871 -1.49948 0.485112 0
M  V30 7936 C 785.834 -2.27351 -0.290546 0
M  V30 7937 C 786.834 -1.32704 -0.908087 0
M  V30 7938 O 788.024 -1.56007 -0.775085 0
M  V30 7939 C 785.156 -3.10135 -1.41524 0
M  V30 7940 H 786.349 -2.97374 0.388454 0
M  V30 7941 H 783.902 -1.54453 0.239586 0
M  V30 7942 H 784.637 -2.44641 -2.12888 0
M  V30 7943 H 784.422 -3.79705 -0.978074 0
M  V30 7944 H 785.912 -3.68638 -1.96204 0
M  V30 7945 N 786.349 -0.21828 -1.56081 0
M  V30 7946 C 787.297 0.709679 -2.21509 0
M  V30 7947 C 788.291 1.20221 -1.19346 0
M  V30 7948 O 789.497 1.16241 -1.37433 0
M  V30 7949 H 785.872 0.247271 -0.710184 0
M  V30 7950 H 787.843 0.134386 -2.98097 0
M  V30 7951 C 786.592 1.90853 -2.90638 0
M  V30 7952 H 785.915 1.53865 -3.69006 0
M  V30 7953 H 787.355 2.53568 -3.39822 0
M  V30 7954 C 785.814 2.76189 -1.92929 0
M  V30 7955 O 786.344 3.74842 -1.44416 0
M  V30 7956 N 784.55 2.42157 -1.6065 0
M  V30 7957 H 784.097 1.61987 -2.00294 0
M  V30 7958 H 784.055 2.99534 -0.955347 0
M  V30 7959 N 787.827 1.57504 0.0551401 0
M  V30 7960 C 788.775 2.05884 1.08233 0
M  V30 7961 C 789.769 0.967383 1.39061 0
M  V30 7962 O 790.975 1.15242 1.38273 0
M  V30 7963 H 787.35 0.656673 0.366449 0
M  V30 7964 H 789.321 2.91273 0.648269 0
M  V30 7965 C 788.07 2.53221 2.38273 0
M  V30 7966 H 787.393 3.36809 2.15406 0
M  V30 7967 H 788.833 2.9081 3.08554 0
M  V30 7968 C 787.292 1.42218 3.05411 0
M  V30 7969 O 787.822 0.773638 3.9418 0
M  V30 7970 N 786.028 1.16316 2.66306 0
M  V30 7971 H 785.575 1.69237 1.94207 0
M  V30 7972 H 785.533 0.422534 3.11548 0
M  V30 7973 N 789.305 -0.326896 1.54172 0
M  V30 7974 C 790.53 -1.08924 1.76494 0
M  V30 7975 C 790.955 -1.81039 0.510523 0
M  V30 7976 O 790.313 -1.73141 -0.537756 0
M  V30 7977 C 790.361 -2.06558 2.95578 0
M  V30 7978 O 789.465 -3.14394 2.6689 0
M  V30 7979 H 788.806 -0.314216 0.584948 0
M  V30 7980 H 791.336 -0.372207 2.01186 0
M  V30 7981 H 791.346 -2.49487 3.22832 0
M  V30 7982 H 790.021 -1.53469 3.86549 0
M  V30 7983 H 788.598 -2.76164 2.50576 0
M  V30 7984 N 790.784 -1.46188 -0.588786 0
M  V30 7985 C 791.714 -1.59148 -1.70863 0
M  V30 7986 C 792.695 -0.442083 -1.64255 0
M  V30 7987 O 793.88 -0.667575 -1.82365 0
M  V30 7988 C 791.01 -1.5757 -3.09498 0
M  V30 7989 C 789.964 -2.71418 -3.30932 0
M  V30 7990 C 789.29 -2.549 -4.70032 0
M  V30 7991 C 790.59 -4.1329 -3.19356 0
M  V30 7992 H 792.284 -2.52889 -1.60274 0
M  V30 7993 H 789.83 -1.21707 -0.769638 0
M  V30 7994 H 791.783 -1.65231 -3.87655 0
M  V30 7995 H 790.507 -0.603705 -3.20972 0
M  V30 7996 H 789.166 -2.63216 -2.55172 0
M  V30 7997 H 788.814 -1.55797 -4.78264 0
M  V30 7998 H 788.514 -3.31257 -4.85327 0
M  V30 7999 H 790.038 -2.64443 -5.50366 0
M  V30 8000 H 791.452 -4.22636 -3.87365 0
M  V30 8001 H 789.849 -4.90187 -3.46175 0
M  V30 8002 H 790.919 -4.33874 -2.16522 0
M  V30 8003 N 792.262 0.832906 -1.33792 0
M  V30 8004 C 793.49 1.62048 -1.28639 0
M  V30 8005 C 793.905 1.88269 0.141522 0
M  V30 8006 O 793.262 1.46706 1.08553 0
M  V30 8007 C 793.313 2.96722 -2.0649 0
M  V30 8008 O 793.034 2.7165 -3.43712 0
M  V30 8009 C 794.535 3.91144 -2.08617 0
M  V30 8010 H 791.755 0.504032 -0.442937 0
M  V30 8011 H 794.299 1.03704 -1.76255 0
M  V30 8012 H 792.454 3.51652 -1.62541 0
M  V30 8013 H 792.868 3.57453 -3.83833 0
M  V30 8014 H 794.342 4.82837 -2.67531 0
M  V30 8015 H 794.819 4.25766 -1.07796 0
M  V30 8016 H 795.425 3.42152 -2.52611 0
M  V30 8017 N 793.74 1.17359 1.05189 0
M  V30 8018 C 795.151 0.96793 1.5965 0
M  V30 8019 C 795.502 -0.485355 1.90102 0
M  V30 8020 O 794.627 -1.36066 1.6827 0
M  V30 8021 C 795.222 1.75068 2.90063 0
M  V30 8022 C 793.781 1.58969 3.41183 0
M  V30 8023 C 792.928 1.75231 2.14917 0
M  V30 8024 H 795.879 1.32067 0.880001 0
M  V30 8025 H 795.9 1.23308 3.59966 0
M  V30 8026 H 795.412 2.80835 2.67868 0
M  V30 8027 H 793.513 0.556906 3.68415 0
M  V30 8028 H 793.626 2.38067 4.15766 0
M  V30 8029 H 791.99 1.18073 2.25679 0
M  V30 8030 H 792.773 2.8241 1.95191 0
M  V30 8031 N 795.218 -1.23913 0.973828 0
M  V30 8032 C 796.443 -1.96735 0.656511 0
M  V30 8033 C 796.868 -1.71682 -0.768571 0
M  V30 8034 O 796.226 -0.984267 -1.52256 0
M  V30 8035 C 796.274 -3.48004 0.944735 0
M  V30 8036 O 795.378 -4.12387 0.0333357 0
M  V30 8037 H 794.719 -0.616119 0.247575 0
M  V30 8038 H 797.249 -1.57525 1.30564 0
M  V30 8039 H 797.259 -3.98424 0.87876 0
M  V30 8040 H 795.934 -3.65567 1.98328 0
M  V30 8041 H 794.511 -3.72585 0.153157 0
M  V30 8042 N 796.696 -0.74468 -1.38897 0
M  V30 8043 C 797.606 -0.112892 -2.34328 0
M  V30 8044 C 798.622 0.71087 -1.58816 0
M  V30 8045 O 799.798 0.637092 -1.91058 0
M  V30 8046 C 796.863 0.776417 -3.37894 0
M  V30 8047 C 795.924 -0.0606999 -4.29257 0
M  V30 8048 C 795.157 0.786258 -5.27877 0
M  V30 8049 O 795.38 2.02463 -5.33259 0
M  V30 8050 O 794.314 0.209781 -6.01534 0
M  V30 8051 H 798.14 -0.900801 -2.90033 0
M  V30 8052 H 795.725 -0.505462 -1.4059 0
M  V30 8053 H 797.607 1.28496 -4.01331 0
M  V30 8054 H 796.282 1.54297 -2.84559 0
M  V30 8055 H 795.189 -0.614984 -3.69011 0
M  V30 8056 H 796.522 -0.789702 -4.85824 0
M  V30 8057 N 798.174 1.49689 -0.493057 0
M  V30 8058 C 799.422 2.02027 0.0541642 0
M  V30 8059 C 799.743 1.37554 1.38217 0
M  V30 8060 O 799.013 0.528174 1.88646 0
M  V30 8061 H 797.593 0.746646 0.0230069 0
M  V30 8062 H 800.255 1.83795 -0.648489 0
M  V30 8063 H 799.351 3.11523 0.189652 0
M  V30 8064 N 799.652 0.226554 1.55963 0
M  V30 8065 C 800.615 -0.668015 2.19249 0
M  V30 8066 C 801.615 -1.11794 1.1558 0
M  V30 8067 O 802.805 -1.02593 1.40784 0
M  V30 8068 C 799.937 -1.91571 2.81981 0
M  V30 8069 H 801.13 -0.116175 2.99675 0
M  V30 8070 H 798.683 -0.0230497 1.56283 0
M  V30 8071 H 799.418 -2.50929 2.05439 0
M  V30 8072 H 799.203 -1.6015 3.57903 0
M  V30 8073 H 800.693 -2.55294 3.30477 0
M  V30 8074 N 801.13 -1.57531 -0.0467866 0
M  V30 8075 C 802.358 -1.92696 -0.753371 0
M  V30 8076 C 802.773 -0.824792 -1.69831 0
M  V30 8077 O 802.13 0.200155 -1.81399 0
M  V30 8078 C 802.181 -3.27728 -1.52566 0
M  V30 8079 O 801.902 -4.3371 -0.618674 0
M  V30 8080 C 803.403 -3.77066 -2.33101 0
M  V30 8081 H 800.623 -0.636367 -0.212788 0
M  V30 8082 H 803.167 -2.04498 -0.00959361 0
M  V30 8083 H 801.322 -3.17378 -2.22148 0
M  V30 8084 H 801.736 -5.11548 -1.15839 0
M  V30 8085 H 803.21 -4.74109 -2.82709 0
M  V30 8086 H 803.687 -3.07348 -3.13741 0
M  V30 8087 H 804.293 -3.90442 -1.68628 0
M  V30 8088 N 802.608 0.318715 -1.54344 0
M  V30 8089 C 803.836 1.0755 -1.7675 0
M  V30 8090 C 804.251 1.81543 -0.518422 0
M  V30 8091 O 803.608 1.75198 0.511078 0
M  V30 8092 C 803.659 2.06983 -2.96378 0
M  V30 8093 O 803.38 1.35995 -4.16458 0
M  V30 8094 C 804.881 2.94841 -3.31034 0
M  V30 8095 H 802.101 0.319711 -0.589937 0
M  V30 8096 H 804.645 0.363369 -2.01246 0
M  V30 8097 H 802.8 2.73724 -2.74142 0
M  V30 8098 H 803.214 2.02623 -4.83781 0
M  V30 8099 H 804.688 3.60496 -4.18027 0
M  V30 8100 H 805.165 3.62199 -2.48412 0
M  V30 8101 H 805.771 2.33656 -3.55366 0
M  V30 8102 N 804.086 1.46499 0.581025 0
M  V30 8103 C 805.332 1.52121 1.34116 0
M  V30 8104 C 805.665 0.173031 1.93428 0
M  V30 8105 O 804.94 -0.815729 1.76568 0
M  V30 8106 C 805.223 2.62108 2.46924 0
M  V30 8107 C 805.076 4.06462 1.92636 0
M  V30 8108 C 806.395 2.68167 3.48962 0
M  V30 8109 H 803.514 0.5538 0.486287 0
M  V30 8110 H 806.156 1.78443 0.652538 0
M  V30 8111 H 804.306 2.39794 3.05665 0
M  V30 8112 H 805.978 4.40068 1.3834 0
M  V30 8113 H 804.221 4.15862 1.23455 0
M  V30 8114 H 804.892 4.79152 2.74076 0
M  V30 8115 H 807.368 2.8823 3.00104 0
M  V30 8116 H 806.244 3.46942 4.2535 0
M  V30 8117 H 806.505 1.74284 4.06297 0
M  V30 8118 N 805.565 -0.825799 1.34232 0
M  V30 8119 C 806.813 -1.57873 1.26177 0
M  V30 8120 C 807.134 -1.94267 -0.168904 0
M  V30 8121 O 806.404 -1.62045 -1.10084 0
M  V30 8122 H 804.984 -0.585388 0.464037 0
M  V30 8123 H 807.646 -0.986163 1.6811 0
M  V30 8124 H 806.742 -2.50283 1.86453 0
M  V30 8125 N 807.043 -1.17915 -1.04565 0
M  V30 8126 C 808.459 -0.927761 -1.29864 0
M  V30 8127 C 808.659 0.409536 -1.97294 0
M  V30 8128 O 807.715 1.14505 -2.25044 0
M  V30 8129 C 809.028 -2.08967 -2.16225 0
M  V30 8130 C 810.576 -2.12741 -2.29587 0
M  V30 8131 C 811.051 -3.28335 -3.19312 0
M  V30 8132 N 812.542 -3.28164 -3.26898 0
M  V30 8133 C 813.277 -4.14249 -3.96466 0
M  V30 8134 N 812.773 -5.10457 -4.68407 0
M  V30 8135 N 814.566 -4.02179 -3.92694 0
M  V30 8136 H 806.717 -2.03983 -0.592011 0
M  V30 8137 H 808.98 -0.891023 -0.323701 0
M  V30 8138 H 808.686 -3.05654 -1.73979 0
M  V30 8139 H 808.56 -2.04606 -3.16885 0
M  V30 8140 H 810.947 -1.16636 -2.71072 0
M  V30 8141 H 811.028 -2.21162 -1.28535 0
M  V30 8142 H 810.672 -4.2471 -2.78539 0
M  V30 8143 H 810.602 -3.17151 -4.20384 0
M  V30 8144 H 813.093 -2.58511 -2.75646 0
M  V30 8145 H 813.406 -5.72526 -5.1907 0
M  V30 8146 H 811.751 -5.14422 -4.67328 0
M  V30 8147 H 814.942 -3.26308 -3.3562 0
M  V30 8148 H 815.115 -4.69486 -4.4664 0
M  V30 8149 N 808.521 1.23394 -0.980386 0
M  V30 8150 C 809.451 2.2717 -0.540024 0
M  V30 8151 C 810.432 1.64659 0.426787 0
M  V30 8152 O 811.617 1.91543 0.320153 0
M  V30 8153 C 808.747 3.46939 0.15836 0
M  V30 8154 C 807.701 4.21802 -0.725732 0
M  V30 8155 C 807.027 5.34597 0.104866 0
M  V30 8156 C 808.327 4.81802 -2.01654 0
M  V30 8157 H 810.021 2.64257 -1.40743 0
M  V30 8158 H 807.567 1.2703 -0.678193 0
M  V30 8159 H 809.52 4.18683 0.477737 0
M  V30 8160 H 808.244 3.08912 1.06022 0
M  V30 8161 H 806.903 3.51875 -1.02857 0
M  V30 8162 H 806.551 4.92812 1.00726 0
M  V30 8163 H 806.251 5.85607 -0.483557 0
M  V30 8164 H 807.775 6.09163 0.418624 0
M  V30 8165 H 809.189 5.45554 -1.76193 0
M  V30 8166 H 807.586 5.43098 -2.55273 0
M  V30 8167 H 808.656 4.02549 -2.70338 0
M  V30 8168 O 810.038 0.889354 1.34806 0
M  V30 8169 H 810.729 0.496436 1.8723 0
M  V30 END ATOM
M  V30 BEGIN BOND
M  V30 END BOND
M  V30 END CTAB
M  END
$$$$
