drugbank_target|P33673 Chitosanase (DB01296)
 OpenBabel12092119583D

  0  0  0     0  0            999 V3000
M  V30 BEGIN CTAB
M  V30 COUNTS 4660 4708 0 0 0
M  V30 BEGIN ATOM
M  V30 1 H -0.908 1.98254 -0.117106 0
M  V30 2 N 0 1.576 0 0
M  V30 3 C 0.933 2.03868 1.02534 0
M  V30 4 C 1.911 0.928543 1.3348 0
M  V30 5 O 3.095 1.19667 1.45644 0
M  V30 6 C 0.222 2.43627 2.35294 0
M  V30 7 C -0.732 3.65373 2.2001 0
M  V30 8 S 0.101 5.13292 1.52614 0
M  V30 9 C 1.257 5.56322 2.86805 0
M  V30 10 H 1.49 2.90518 0.631377 0
M  V30 11 H -0.977 1.52953 0.210867 0
M  V30 12 H 0.981 2.67203 3.11629 0
M  V30 13 H -0.358 1.57376 2.7183 0
M  V30 14 H -1.165 3.90944 3.18086 0
M  V30 15 H -1.563 3.418 1.51819 0
M  V30 16 H 0.729 5.58782 3.83104 0
M  V30 17 H 1.672 6.56266 2.65933 0
M  V30 18 H 2.08 4.83886 2.90714 0
M  V30 19 N 1.4781 -0.272755 1.55222 0
M  V30 20 C 2.4281 -1.33946 1.84506 0
M  V30 21 C 3.4121 -1.44682 0.70399 0
M  V30 22 O 4.6041 -1.48358 0.965338 0
M  V30 23 C 1.7331 -2.69968 2.12067 0
M  V30 24 C 0.8191 -2.63341 3.32434 0
M  V30 25 N 1.2101 -2.26335 4.52334 0
M  V30 26 C -0.4919 -2.94402 3.35028 0
M  V30 27 C 0.2091 -2.29705 5.34425 0
M  V30 28 N -0.8149 -2.68188 4.72838 0
M  V30 29 H 2.9871 -1.04343 2.74754 0
M  V30 30 H 0.5011 -0.481389 1.55101 0
M  V30 31 H 2.4981 -3.46916 2.31202 0
M  V30 32 H 1.1581 -3.00459 1.23103 0
M  V30 33 H 2.1691 -1.98309 4.78429 0
M  V30 34 H -1.1539 -3.29603 2.56257 0
M  V30 35 H 0.2361 -2.03653 6.40293 0
M  V30 36 N 2.9562 -1.48159 -0.537278 0
M  V30 37 C 3.8892 -1.567 -1.65893 0
M  V30 38 C 4.8672 -0.41787 -1.57139 0
M  V30 39 O 6.0512 -0.628461 -1.77715 0
M  V30 40 C 3.1782 -1.48818 -3.04255 0
M  V30 41 C 2.2242 -2.68482 -3.31391 0
M  V30 42 S 3.0572 -4.30516 -3.1846 0
M  V30 43 C 4.2132 -4.2522 -4.59281 0
M  V30 44 H 4.4462 -2.5159 -1.58397 0
M  V30 45 H 1.9792 -1.36602 -0.719672 0
M  V30 46 H 3.9372 -1.44958 -3.84054 0
M  V30 47 H 2.5982 -0.552777 -3.09198 0
M  V30 48 H 1.7912 -2.59085 -4.32309 0
M  V30 49 H 1.3932 -2.69567 -2.59248 0
M  V30 50 H 3.6852 -3.94703 -5.5065 0
M  V30 51 H 4.6282 -5.26292 -4.73732 0
M  V30 52 H 5.0362 -3.55791 -4.38261 0
M  V30 53 N 4.4343 0.785586 -1.36625 0
M  V30 54 C 5.6593 1.57963 -1.34397 0
M  V30 55 C 6.0843 1.87964 0.071526 0
M  V30 56 O 5.4423 1.48182 1.0446 0
M  V30 57 C 5.4903 2.87511 -2.17646 0
M  V30 58 O 4.5943 3.81281 -1.57158 0
M  V30 59 H 3.9353 0.479014 -0.459828 0
M  V30 60 H 6.4653 0.973411 -1.79961 0
M  V30 61 H 6.4753 3.36745 -2.30362 0
M  V30 62 H 5.1503 2.65002 -3.20541 0
M  V30 63 H 3.7273 3.39885 -1.53403 0
M  V30 64 N 5.9124 1.20967 1.01018 0
M  V30 65 C 6.8604 0.961223 2.1181 0
M  V30 66 C 7.8544 -0.0897034 1.69162 0
M  V30 67 O 9.0604 0.0612271 1.79896 0
M  V30 68 H 5.4354 0.29355 0.692338 0
M  V30 69 H 7.4064 1.90178 2.29946 0
M  V30 70 C 6.1554 0.536854 3.4353 0
M  V30 71 H 5.4784 1.33713 3.76777 0
M  V30 72 H 6.9184 0.402286 4.22087 0
M  V30 73 C 5.3774 -0.751574 3.2841 0
M  V30 74 O 5.9074 -1.80841 3.58691 0
M  V30 75 N 4.1134 -0.716079 2.81639 0
M  V30 76 H 3.6604 0.144236 2.57196 0
M  V30 77 H 3.6184 -1.57847 2.71904 0
M  V30 78 N 7.3905 -1.2043 1.01659 0
M  V30 79 C 8.3535 -2.21433 0.591616 0
M  V30 80 C 9.3535 -1.57203 -0.338226 0
M  V30 81 O 10.5435 -1.73737 -0.126918 0
M  V30 82 C 7.6755 -3.40628 -0.136058 0
M  V30 83 H 8.8685 -2.60545 1.48514 0
M  V30 84 H 6.4215 -1.33893 0.806379 0
M  V30 85 H 7.1565 -3.07019 -1.04449 0
M  V30 86 H 6.9415 -3.88475 0.531917 0
M  V30 87 H 8.4315 -4.15475 -0.420735 0
M  V30 88 N 8.8686 -0.792821 -1.36206 0
M  V30 89 C 10.2846 -0.474903 -1.52371 0
M  V30 90 C 10.4846 1.00622 -1.74578 0
M  V30 91 O 9.5406 1.79162 -1.77924 0
M  V30 92 C 10.8536 -1.3083 -2.70747 0
M  V30 93 C 12.4016 -1.30234 -2.84619 0
M  V30 94 C 12.8766 -2.11956 -4.06004 0
M  V30 95 N 14.3676 -2.09419 -4.13156 0
M  V30 96 C 15.1026 -2.69419 -5.06163 0
M  V30 97 N 14.5986 -3.3829 -6.04592 0
M  V30 98 N 16.3916 -2.59134 -4.98804 0
M  V30 99 H 8.5426 -1.75222 -1.20046 0
M  V30 100 H 10.8056 -0.745024 -0.586211 0
M  V30 101 H 10.5116 -2.35881 -2.6087 0
M  V30 102 H 10.3856 -0.95196 -3.6499 0
M  V30 103 H 12.7726 -0.259748 -2.93955 0
M  V30 104 H 12.8536 -1.69847 -1.91274 0
M  V30 105 H 12.4976 -3.16248 -3.97429 0
M  V30 106 H 12.4276 -1.69711 -4.98503 0
M  V30 107 H 14.9186 -1.59297 -3.42685 0
M  V30 108 H 15.2316 -3.81394 -6.7213 0
M  V30 109 H 13.5766 -3.42393 -6.04807 0
M  V30 110 H 16.7676 -2.04927 -4.20859 0
M  V30 111 H 16.9406 -3.06185 -5.711 0
M  V30 112 N 10.3467 1.47872 -0.545128 0
M  V30 113 C 11.7577 1.86384 -0.108581 0
M  V30 114 C 12.1087 1.45309 1.31832 0
M  V30 115 O 11.2337 0.850641 1.9898 0
M  V30 116 C 11.8287 3.38265 -0.190274 0
M  V30 117 C 10.3877 3.75914 0.191164 0
M  V30 118 C 9.5347 2.71926 -0.543273 0
M  V30 119 H 12.4857 1.39561 -0.755537 0
M  V30 120 H 12.5067 3.75831 0.594217 0
M  V30 121 H 12.0187 3.6813 -1.2289 0
M  V30 122 H 10.1197 3.51665 1.23136 0
M  V30 123 H 10.2327 4.78836 -0.158987 0
M  V30 124 H 8.5967 2.54697 0.0122495 0
M  V30 125 H 9.3797 3.04634 -1.58282 0
M  V30 126 N 11.8248 0.280983 1.55075 0
M  V30 127 C 13.0498 -0.340154 2.04592 0
M  V30 128 C 13.4748 -1.48246 1.15779 0
M  V30 129 O 12.8328 -1.80614 0.15761 0
M  V30 130 C 12.8808 -0.793104 3.5177 0
M  V30 131 O 11.9848 -1.89981 3.66034 0
M  V30 132 H 11.3258 -0.0694289 0.66036 0
M  V30 133 H 13.8558 0.416993 2.00306 0
M  V30 134 H 13.8658 -1.08729 3.93245 0
M  V30 135 H 12.5408 0.0426163 4.15878 0
M  V30 136 H 11.1178 -1.60771 3.36463 0
M  V30 137 N 13.3029 -1.57598 0.00835791 0
M  V30 138 C 14.2499 -2.08945 -0.980346 0
M  V30 139 C 15.2199 -0.986738 -1.33614 0
M  V30 140 O 16.4049 -1.25968 -1.43306 0
M  V30 141 C 13.5449 -2.60425 -2.26435 0
M  V30 142 C 12.6579 -3.84628 -1.96685 0
M  V30 143 C 11.7929 -4.24579 -3.19228 0
M  V30 144 C 10.8319 -5.41596 -2.85202 0
M  V30 145 N 9.9689 -5.768 -4.00307 0
M  V30 146 H 14.8089 -2.93148 -0.535551 0
M  V30 147 H 12.3459 -1.44912 -0.252776 0
M  V30 148 H 14.3039 -2.88354 -3.01509 0
M  V30 149 H 12.9339 -1.79083 -2.68568 0
M  V30 150 H 11.9859 -3.63556 -1.11942 0
M  V30 151 H 13.2979 -4.69796 -1.67611 0
M  V30 152 H 12.4519 -4.53834 -4.02641 0
M  V30 153 H 11.1909 -3.38137 -3.51447 0
M  V30 154 H 10.1959 -5.12056 -2.00198 0
M  V30 155 H 11.4209 -6.29721 -2.54222 0
M  V30 156 H 9.3669 -4.93316 -4.32407 0
M  V30 157 H 9.2839 -6.5656 -3.74786 0
M  V30 158 H 10.5519 -6.10652 -4.84484 0
M  V30 159 N 14.781 0.264519 -1.55364 0
M  V30 160 C 16.006 1.01726 -1.80739 0
M  V30 161 C 16.431 1.78836 -0.583044 0
M  V30 162 O 15.789 1.75167 0.467566 0
M  V30 163 C 15.837 1.94482 -3.03659 0
M  V30 164 O 14.941 3.03386 -2.7934 0
M  V30 165 H 14.282 0.290395 -0.597132 0
M  V30 166 H 16.812 0.290854 -2.02522 0
M  V30 167 H 16.822 2.36278 -3.32621 0
M  V30 168 H 15.497 1.37772 -3.92418 0
M  V30 169 H 14.074 2.65844 -2.61498 0
M  V30 170 N 16.2591 1.48442 0.529413 0
M  V30 171 C 17.6751 1.34575 0.858004 0
M  V30 172 C 17.8751 0.3572 1.98309 0
M  V30 173 O 16.9311 -0.221379 2.51528 0
M  V30 174 C 18.2441 2.74617 1.22499 0
M  V30 175 C 19.7921 2.83109 1.33484 0
M  V30 176 C 20.2671 4.23854 1.73526 0
M  V30 177 N 21.7581 4.2653 1.80628 0
M  V30 178 C 22.4931 5.32372 2.12997 0
M  V30 179 N 21.9891 6.48491 2.43786 0
M  V30 180 N 23.7821 5.19766 2.14008 0
M  V30 181 H 15.9331 2.1133 -0.212925 0
M  V30 182 H 18.1961 0.947439 -0.0326199 0
M  V30 183 H 17.9021 3.4852 0.471905 0
M  V30 184 H 17.7761 3.08177 2.17501 0
M  V30 185 H 20.1631 2.09462 2.0787 0
M  V30 186 H 20.2441 2.53168 0.366027 0
M  V30 187 H 19.8881 4.98018 0.997013 0
M  V30 188 H 19.8181 4.5124 2.71459 0
M  V30 189 H 22.3091 3.42772 1.59108 0
M  V30 190 H 22.6221 7.24993 2.67592 0
M  V30 191 H 20.9671 6.51765 2.41304 0
M  V30 192 H 24.1581 4.28066 1.89412 0
M  V30 193 H 24.3311 6.02354 2.38902 0
M  V30 194 N 17.7372 -0.778329 1.37039 0
M  V30 195 C 18.9652 -1.56734 1.35063 0
M  V30 196 C 19.3802 -1.88686 -0.0655597 0
M  V30 197 O 18.7372 -1.5096 -1.02554 0
M  V30 198 C 18.7882 -2.88163 2.18276 0
M  V30 199 O 18.5092 -2.57583 3.54376 0
M  V30 200 C 20.0102 -3.82422 2.24206 0
M  V30 201 H 17.2302 -0.485778 0.462883 0
M  V30 202 H 19.7742 -0.965185 1.8029 0
M  V30 203 H 17.9292 -3.44818 1.76576 0
M  V30 204 H 18.3432 -3.41699 3.97922 0
M  V30 205 H 19.8172 -4.71667 2.86765 0
M  V30 206 H 20.2942 -4.21078 1.24861 0
M  V30 207 H 20.9002 -3.31697 2.6619 0
M  V30 208 N 19.2153 -1.21501 -1.00376 0
M  V30 209 C 20.1623 -0.975387 -2.09177 0
M  V30 210 C 21.1323 0.0990615 -1.65804 0
M  V30 211 O 22.3173 -0.0483147 -1.90739 0
M  V30 212 C 19.4573 -0.547507 -3.40729 0
M  V30 213 C 18.5703 -1.69153 -3.97506 0
M  V30 214 C 17.7053 -1.2127 -5.17172 0
M  V30 215 C 16.7443 -2.32897 -5.66061 0
M  V30 216 N 15.8813 -1.86138 -6.76976 0
M  V30 217 H 20.7213 -1.9068 -2.29009 0
M  V30 218 H 18.2583 -0.950257 -1.12288 0
M  V30 219 H 20.2163 -0.280667 -4.16255 0
M  V30 220 H 18.8463 0.346904 -3.20931 0
M  V30 221 H 17.8983 -2.07298 -3.18954 0
M  V30 222 H 19.2103 -2.5316 -4.29781 0
M  V30 223 H 18.3643 -0.902591 -5.99948 0
M  V30 224 H 17.1033 -0.342692 -4.86495 0
M  V30 225 H 16.1083 -2.64709 -4.81881 0
M  V30 226 H 17.3333 -3.20396 -5.98768 0
M  V30 227 H 15.2793 -1.01484 -6.48103 0
M  V30 228 H 15.1963 -2.63717 -7.08512 0
M  V30 229 H 16.4643 -1.58165 -7.63285 0
M  V30 230 N 20.6934 1.19889 -1.02296 0
M  V30 231 C 21.9404 1.8942 -0.715972 0
M  V30 232 C 22.2684 1.79251 0.754944 0
M  V30 233 O 21.5234 1.17526 1.56481 0
M  V30 234 C 21.8224 3.39883 -1.10518 0
M  V30 235 C 21.4884 3.70254 -2.57337 0
M  V30 236 C 20.1504 3.78254 -2.97452 0
M  V30 237 C 22.5024 3.84052 -3.52354 0
M  V30 238 C 19.8304 3.97514 -4.31509 0
M  V30 239 C 22.1824 4.04824 -4.86108 0
M  V30 240 C 20.8464 4.11054 -5.25919 0
M  V30 241 H 20.1164 0.693138 -0.261993 0
M  V30 242 H 22.7634 1.42012 -1.28472 0
M  V30 243 H 21.0684 3.8915 -0.454953 0
M  V30 244 H 22.7654 3.9199 -0.845261 0
M  V30 245 H 19.3554 3.64632 -2.25258 0
M  V30 246 H 23.5394 3.77221 -3.22518 0
M  V30 247 H 18.7954 4.00574 -4.61898 0
M  V30 248 H 22.9694 4.14442 -5.59653 0
M  V30 249 H 20.5964 4.2573 -6.29808 0
M  V30 250 N 22.1715 0.800033 1.35784 0
M  V30 251 C 23.1015 0.220184 2.3246 0
M  V30 252 C 24.0825 -0.65073 1.57161 0
M  V30 253 O 25.2675 -0.582359 1.85263 0
M  V30 254 C 22.3975 -0.637353 3.41402 0
M  V30 255 C 21.3515 0.134531 4.27789 0
M  V30 256 C 20.6775 -0.844285 5.27992 0
M  V30 257 C 21.9775 1.32979 5.05088 0
M  V30 258 H 23.6715 1.02787 2.81203 0
M  V30 259 H 21.2175 0.495717 1.35199 0
M  V30 260 H 23.1705 -1.05302 4.08031 0
M  V30 261 H 21.8945 -1.47785 2.91251 0
M  V30 262 H 20.5535 0.531296 3.6273 0
M  V30 263 H 20.2015 -1.68011 4.74111 0
M  V30 264 H 19.9015 -0.332184 5.8666 0
M  V30 265 H 21.4255 -1.2583 5.97494 0
M  V30 266 H 22.8395 0.98934 5.64699 0
M  V30 267 H 21.2365 1.77593 5.7322 0
M  V30 268 H 22.3065 2.11978 4.36111 0
M  V30 269 N 23.6496 -1.47581 0.552962 0
M  V30 270 C 24.5796 -2.32762 -0.185451 0
M  V30 271 C 25.5606 -1.43527 -0.912905 0
M  V30 272 O 26.7456 -1.72388 -0.894201 0
M  V30 273 C 23.8756 -3.25219 -1.21859 0
M  V30 274 C 22.8296 -4.23661 -0.607864 0
M  V30 275 C 22.1556 -5.05413 -1.74533 0
M  V30 276 C 23.4556 -5.20481 0.435582 0
M  V30 277 H 25.1496 -2.94749 0.525684 0
M  V30 278 H 22.6956 -1.41738 0.254251 0
M  V30 279 H 24.6486 -3.8365 -1.7433 0
M  V30 280 H 23.3726 -2.61279 -1.95961 0
M  V30 281 H 22.0316 -3.66451 -0.104489 0
M  V30 282 H 21.6796 -4.3788 -2.47529 0
M  V30 283 H 21.3796 -5.72059 -1.34249 0
M  V30 284 H 22.9036 -5.66701 -2.27338 0
M  V30 285 H 24.3176 -5.733 -0.00290157 0
M  V30 286 H 22.7146 -5.95305 0.757067 0
M  V30 287 H 23.7846 -4.66217 1.33303 0
M  V30 288 N 25.1277 -0.289203 -1.54924 0
M  V30 289 C 26.0907 0.579144 -2.21762 0
M  V30 290 C 27.0907 1.07047 -1.1999 0
M  V30 291 O 28.2807 0.968384 -1.44803 0
M  V30 292 C 25.4127 1.80055 -2.8947 0
M  V30 293 H 26.6057 -0.00464908 -2.999 0
M  V30 294 H 24.1587 -0.0399306 -1.56249 0
M  V30 295 H 24.8937 2.42449 -2.15381 0
M  V30 296 H 24.6787 1.45602 -3.64064 0
M  V30 297 H 26.1687 2.41773 -3.40493 0
M  V30 298 N 26.6058 1.57591 -0.0167156 0
M  V30 299 C 27.8528 1.91283 0.664597 0
M  V30 300 C 28.1808 0.891949 1.72842 0
M  V30 301 O 27.4358 -0.100931 1.9544 0
M  V30 302 C 27.7348 3.3172 1.33029 0
M  V30 303 C 27.4008 4.4914 0.398047 0
M  V30 304 C 26.0628 4.80992 0.141421 0
M  V30 305 C 28.4148 5.20634 -0.242825 0
M  V30 306 C 25.7428 5.81703 -0.764092 0
M  V30 307 C 28.0948 6.22311 -1.13632 0
M  V30 308 C 26.7588 6.52611 -1.40196 0
M  V30 309 H 26.0288 0.699956 0.243193 0
M  V30 310 H 28.6758 1.9135 -0.0758267 0
M  V30 311 H 26.9808 3.27856 2.14517 0
M  V30 312 H 28.6778 3.55055 1.86379 0
M  V30 313 H 25.2678 4.24262 0.608238 0
M  V30 314 H 29.4518 4.96267 -0.0576019 0
M  V30 315 H 24.7078 6.03532 -0.977732 0
M  V30 316 H 28.8818 6.76834 -1.63917 0
M  V30 317 H 26.5088 7.30467 -2.10529 0
M  V30 318 N 28.0839 -0.256276 1.55502 0
M  V30 319 C 29.0139 -1.32102 1.92539 0
M  V30 320 C 29.9949 -1.50684 0.789194 0
M  V30 321 O 31.1799 -1.63449 1.04872 0
M  V30 322 C 28.3099 -2.67752 2.21192 0
M  V30 323 C 27.2639 -2.63878 3.36975 0
M  V30 324 C 26.5899 -4.03236 3.51147 0
M  V30 325 C 27.8899 -2.21682 4.72921 0
M  V30 326 H 29.5839 -1.01351 2.81724 0
M  V30 327 H 27.1299 -0.486105 1.35547 0
M  V30 328 H 29.0829 -3.42365 2.45691 0
M  V30 329 H 27.8069 -3.0012 1.28824 0
M  V30 330 H 26.4659 -1.91722 3.12471 0
M  V30 331 H 26.1139 -4.32854 2.56216 0
M  V30 332 H 25.8139 -4.01535 4.29003 0
M  V30 333 H 27.3379 -4.79563 3.77957 0
M  V30 334 H 28.7519 -2.86023 4.96854 0
M  V30 335 H 27.1489 -2.3111 5.53812 0
M  V30 336 H 28.2189 -1.16833 4.70615 0
M  V30 337 N 29.562 -1.4872 -0.521534 0
M  V30 338 C 30.802 -1.58771 -1.28729 0
M  V30 339 C 31.166 -0.259394 -1.9024 0
M  V30 340 O 32.367 -0.234942 -2.67771 0
M  V30 341 C 30.638 -2.70039 -2.34124 0
M  V30 342 S 32.197 -2.9991 -3.20312 0
M  V30 343 H 29.015 -0.560251 -0.437767 0
M  V30 344 H 31.617 -1.86283 -0.593188 0
M  V30 345 H 30.321 -3.65101 -1.87429 0
M  V30 346 H 29.852 -2.44455 -3.08229 0
M  V30 347 H 31.867 -2.39855 -4.34378 0
M  V30 348 N 31.0401 0.771051 -1.3745 0
M  V30 349 C 32.2871 1.52963 -1.32697 0
M  V30 350 C 32.6151 1.94299 0.0883274 0
M  V30 351 O 31.8701 1.64397 1.0617 0
M  V30 352 C 32.1691 2.80676 -2.2126 0
M  V30 353 C 31.8351 2.58389 -3.69521 0
M  V30 354 C 30.4971 2.52019 -4.09927 0
M  V30 355 C 32.8491 2.38469 -4.63446 0
M  V30 356 C 30.1771 2.23721 -5.42371 0
M  V30 357 C 32.5291 2.11694 -5.96128 0
M  V30 358 C 31.1931 2.03769 -6.35637 0
M  V30 359 H 30.4631 0.559732 -0.485573 0
M  V30 360 H 33.1101 0.888083 -1.69662 0
M  V30 361 H 31.4151 3.49392 -1.77291 0
M  V30 362 H 33.1121 3.38557 -2.14895 0
M  V30 363 H 29.7021 2.6421 -3.37478 0
M  V30 364 H 33.8861 2.4238 -4.33089 0
M  V30 365 H 29.1421 2.16081 -5.71943 0
M  V30 366 H 33.3161 1.9528 -6.6846 0
M  V30 367 H 30.9431 1.81606 -7.38189 0
M  V30 368 N 32.5182 1.22032 0.997298 0
M  V30 369 C 33.7462 1.06841 1.7718 0
M  V30 370 C 34.1612 -0.381325 1.84909 0
M  V30 371 O 33.5182 -1.26437 1.31605 0
M  V30 372 C 33.5692 1.66814 3.20711 0
M  V30 373 O 33.2902 3.06116 3.13408 0
M  V30 374 C 34.7912 1.56838 4.14628 0
M  V30 375 H 32.0112 0.374782 0.556578 0
M  V30 376 H 34.5552 1.61532 1.2541 0
M  V30 377 H 32.7102 1.16196 3.69564 0
M  V30 378 H 33.1242 3.34926 4.0364 0
M  V30 379 H 34.5982 2.03532 5.13107 0
M  V30 380 H 35.0752 0.524155 4.36061 0
M  V30 381 H 35.6812 2.06741 3.7167 0
M  V30 382 N 33.9963 -1.19345 1.0293 0
M  V30 383 C 34.9263 -2.2481 0.631105 0
M  V30 384 C 35.9073 -1.66245 -0.360104 0
M  V30 385 O 37.0923 -1.92677 -0.242726 0
M  V30 386 C 34.2223 -3.47295 -0.0184607 0
M  V30 387 C 33.1763 -4.18536 0.895073 0
M  V30 388 C 32.5023 -5.34586 0.110592 0
M  V30 389 C 33.8023 -4.73287 2.209 0
M  V30 390 H 35.4963 -2.58372 1.51275 0
M  V30 391 H 33.0423 -1.24194 0.728818 0
M  V30 392 H 34.9953 -4.20268 -0.308675 0
M  V30 393 H 33.7193 -3.12933 -0.934907 0
M  V30 394 H 32.3783 -3.47446 1.16949 0
M  V30 395 H 32.0263 -4.96469 -0.807902 0
M  V30 396 H 31.7263 -5.83183 0.719087 0
M  V30 397 H 33.2503 -6.10355 -0.172871 0
M  V30 398 H 34.6643 -5.38013 1.98028 0
M  V30 399 H 33.0613 -5.32373 2.76946 0
M  V30 400 H 34.1313 -3.91331 2.86336 0
M  V30 401 N 35.4744 -0.807222 -1.35358 0
M  V30 402 C 36.4074 -0.163572 -2.27613 0
M  V30 403 C 37.3854 0.670817 -1.48118 0
M  V30 404 O 38.5694 0.63796 -1.77376 0
M  V30 405 C 35.6964 0.773015 -3.29761 0
M  V30 406 C 34.7424 0.0181653 -4.26496 0
M  V30 407 S 35.5754 -1.31831 -5.19019 0
M  V30 408 C 36.7314 -0.38619 -6.24707 0
M  V30 409 H 36.9644 -0.945757 -2.81856 0
M  V30 410 H 34.4974 -0.602315 -1.42167 0
M  V30 411 H 36.4554 1.30788 -3.89108 0
M  V30 412 H 35.1164 1.52859 -2.74396 0
M  V30 413 H 34.3094 0.729534 -4.98692 0
M  V30 414 H 33.9114 -0.446761 -3.71322 0
M  V30 415 H 36.2034 0.428295 -6.76145 0
M  V30 416 H 37.1464 -1.07736 -6.99856 0
M  V30 417 H 37.5544 0.018398 -5.64497 0
M  V30 418 N 36.9525 1.47285 -0.560781 0
M  V30 419 C 37.9155 2.28535 0.174488 0
M  V30 420 C 38.9155 1.37153 0.839388 0
M  V30 421 O 40.1055 1.59748 0.694702 0
M  V30 422 C 37.2375 3.16934 1.25561 0
M  V30 423 H 38.4305 2.95012 -0.539262 0
M  V30 424 H 35.9835 1.53034 -0.317865 0
M  V30 425 H 36.7185 2.55157 2.00164 0
M  V30 426 H 36.5035 3.8419 0.783604 0
M  V30 427 H 37.9935 3.78143 1.77193 0
M  V30 428 N 38.4306 0.297415 1.54768 0
M  V30 429 C 39.6556 -0.318435 2.04941 0
M  V30 430 C 40.0806 -1.4701 1.17345 0
M  V30 431 O 39.4386 -1.80436 0.176758 0
M  V30 432 C 39.4866 -0.755749 3.52592 0
M  V30 433 O 38.5906 -1.86088 3.68028 0
M  V30 434 H 37.9316 -0.062421 0.661059 0
M  V30 435 H 40.4616 0.438215 1.99852 0
M  V30 436 H 40.4716 -1.04552 3.94376 0
M  V30 437 H 39.1466 0.0867233 4.1581 0
M  V30 438 H 37.7236 -1.57193 3.38149 0
M  V30 439 N 39.9087 -1.5758 0.0250728 0
M  V30 440 C 40.8387 -2.13007 -0.956575 0
M  V30 441 C 41.8197 -1.0452 -1.342 0
M  V30 442 O 43.0047 -1.32332 -1.42133 0
M  V30 443 C 40.1347 -2.65386 -2.24026 0
M  V30 444 C 39.0887 -3.78623 -1.99571 0
M  V30 445 C 38.4147 -4.17414 -3.3417 0
M  V30 446 C 39.7147 -5.04867 -1.33814 0
M  V30 447 H 41.4087 -2.9528 -0.494991 0
M  V30 448 H 38.9547 -1.42042 -0.236651 0
M  V30 449 H 40.9077 -3.02794 -2.93076 0
M  V30 450 H 39.6317 -1.80268 -2.72343 0
M  V30 451 H 38.2907 -3.41646 -1.32941 0
M  V30 452 H 37.9387 -3.29284 -3.80238 0
M  V30 453 H 37.6387 -4.93719 -3.18615 0
M  V30 454 H 39.1627 -4.57402 -4.04495 0
M  V30 455 H 40.5767 -5.39888 -1.92857 0
M  V30 456 H 38.9737 -5.86144 -1.28669 0
M  V30 457 H 40.0437 -4.83904 -0.310561 0
M  V30 458 N 41.3868 0.248026 -1.55636 0
M  V30 459 C 42.6338 0.976224 -1.77415 0
M  V30 460 C 42.9618 1.85361 -0.589193 0
M  V30 461 O 42.2168 1.90973 0.427529 0
M  V30 462 C 42.5158 1.86819 -3.04686 0
M  V30 463 C 42.1818 1.14625 -4.36087 0
M  V30 464 C 40.8438 0.946723 -4.71795 0
M  V30 465 C 43.1958 0.634463 -5.17324 0
M  V30 466 C 40.5238 0.223091 -5.86276 0
M  V30 467 C 42.8758 -0.0756959 -6.32555 0
M  V30 468 C 41.5398 -0.286711 -6.66884 0
M  V30 469 H 40.8098 0.357226 -0.649208 0
M  V30 470 H 43.4568 0.246415 -1.89908 0
M  V30 471 H 41.7618 2.66502 -2.872 0
M  V30 472 H 43.4588 2.43329 -3.18735 0
M  V30 473 H 40.0488 1.3117 -4.08035 0
M  V30 474 H 44.2328 0.77616 -4.90193 0
M  V30 475 H 39.4888 0.0491185 -6.1138 0
M  V30 476 H 43.6628 -0.479899 -6.94745 0
M  V30 477 H 41.2898 -0.849389 -7.5544 0
M  V30 478 N 42.8649 1.48995 0.513639 0
M  V30 479 C 44.1129 1.57531 1.26604 0
M  V30 480 C 44.4339 0.258236 1.93283 0
M  V30 481 O 43.7039 -0.721502 1.8213 0
M  V30 482 H 42.2839 0.580387 0.470276 0
M  V30 483 H 44.9459 1.85552 0.596373 0
M  V30 484 H 44.0419 2.36486 2.03669 0
M  V30 485 N 44.343 -0.763751 1.37857 0
M  V30 486 C 45.306 -1.85889 1.34081 0
M  V30 487 C 46.306 -1.58949 0.243277 0
M  V30 488 O 47.496 -1.66882 0.499589 0
M  V30 489 C 44.628 -3.23176 1.08489 0
M  V30 490 H 45.821 -1.90648 2.31502 0
M  V30 491 H 43.374 -0.964367 1.23003 0
M  V30 492 H 44.109 -3.24091 0.116318 0
M  V30 493 H 43.894 -3.44124 1.8794 0
M  V30 494 H 45.384 -4.03254 1.08517 0
M  V30 495 N 45.8211 -1.22559 -0.990812 0
M  V30 496 C 47.0491 -1.07779 -1.76611 0
M  V30 497 C 47.4641 0.371513 -1.85109 0
M  V30 498 O 46.8211 1.25737 -1.32274 0
M  V30 499 C 46.8721 -1.68512 -3.19822 0
M  V30 500 O 46.5931 -3.07774 -3.1178 0
M  V30 501 C 48.0941 -1.59035 -4.13791 0
M  V30 502 H 45.3141 -0.377729 -0.554583 0
M  V30 503 H 47.8581 -1.62195 -1.24551 0
M  V30 504 H 46.0131 -1.18154 -3.68942 0
M  V30 505 H 46.4271 -3.37062 -4.01858 0
M  V30 506 H 47.9011 -2.0625 -5.1202 0
M  V30 507 H 48.3781 -0.547273 -4.35777 0
M  V30 508 H 48.9841 -2.08709 -3.70568 0
M  V30 509 N 47.2992 1.18797 -1.03562 0
M  V30 510 C 48.2622 2.20464 -0.626769 0
M  V30 511 C 49.2622 1.57721 0.313173 0
M  V30 512 O 50.4522 1.73917 0.0992615 0
M  V30 513 C 47.5842 3.40802 0.0818498 0
M  V30 514 H 48.7772 2.58149 -1.5264 0
M  V30 515 H 46.3302 1.32593 -0.827578 0
M  V30 516 H 47.0652 3.08642 0.995518 0
M  V30 517 H 46.8502 3.8758 -0.593652 0
M  V30 518 H 48.3402 4.16092 0.354584 0
M  V30 519 N 48.7773 0.814389 1.34928 0
M  V30 520 C 49.7073 0.244827 2.32213 0
M  V30 521 C 50.6883 -0.634024 1.57842 0
M  V30 522 O 51.8733 -0.562676 1.8587 0
M  V30 523 C 49.0033 -0.601106 3.42058 0
M  V30 524 C 47.9573 0.179896 4.27622 0
M  V30 525 C 47.2833 -0.788237 5.28858 0
M  V30 526 C 48.5833 1.38329 5.03649 0
M  V30 527 H 50.2773 1.05763 2.80097 0
M  V30 528 H 47.8233 0.510029 1.34665 0
M  V30 529 H 49.7763 -1.00968 4.09125 0
M  V30 530 H 48.5003 -1.44688 2.92802 0
M  V30 531 H 47.1593 0.569739 3.62146 0
M  V30 532 H 46.8073 -1.62973 4.75866 0
M  V30 533 H 46.5073 -0.269942 5.8698 0
M  V30 534 H 48.0313 -1.19485 5.98795 0
M  V30 535 H 49.4453 1.04918 5.63618 0
M  V30 536 H 47.8423 1.83662 5.71304 0
M  V30 537 H 48.9123 2.16592 4.33839 0
M  V30 538 N 50.2554 -1.46986 0.568584 0
M  V30 539 C 51.5024 -2.02441 0.0487986 0
M  V30 540 C 51.8304 -1.44169 -1.30559 0
M  V30 541 O 51.0854 -0.591213 -1.86556 0
M  V30 542 C 51.3844 -3.57306 -0.081836 0
M  V30 543 C 51.0504 -4.34552 1.20313 0
M  V30 544 C 49.7124 -4.55376 1.5552 0
M  V30 545 C 52.0644 -4.79016 2.05411 0
M  V30 546 C 49.3924 -5.17913 2.7565 0
M  V30 547 C 51.7444 -5.42879 3.24754 0
M  V30 548 C 50.4084 -5.61933 3.60261 0
M  V30 549 H 49.6784 -0.740785 0.0178567 0
M  V30 550 H 52.3254 -1.76525 0.742384 0
M  V30 551 H 50.6304 -3.8228 -0.858463 0
M  V30 552 H 52.3274 -3.97876 -0.499546 0
M  V30 553 H 48.9174 -4.18631 0.919014 0
M  V30 554 H 53.1014 -4.62696 1.79516 0
M  V30 555 H 48.3574 -5.30858 3.03315 0
M  V30 556 H 52.5314 -5.76293 3.90973 0
M  V30 557 H 50.1584 -6.10161 4.53439 0
M  V30 558 N 51.7335 -0.305618 -1.54608 0
M  V30 559 C 52.9815 0.301701 -1.99835 0
M  V30 560 C 53.3025 1.54054 -1.19551 0
M  V30 561 O 52.5725 1.93702 -0.292658 0
M  V30 562 H 51.1525 0.114468 -0.738178 0
M  V30 563 H 53.8145 -0.418016 -1.90364 0
M  V30 564 H 52.9105 0.570548 -3.06841 0
M  V30 565 N 53.2116 1.57565 -0.0334293 0
M  V30 566 C 54.6226 1.79746 0.504798 0
M  V30 567 C 54.9736 0.944091 1.71992 0
M  V30 568 O 54.0986 0.155694 2.15839 0
M  V30 569 C 54.6936 3.25997 0.922567 0
M  V30 570 C 53.2526 3.49159 1.40588 0
M  V30 571 C 52.3996 2.74785 0.372633 0
M  V30 572 H 55.3506 1.56565 -0.259436 0
M  V30 573 H 55.3716 3.35945 1.78666 0
M  V30 574 H 54.8836 3.88081 0.0379825 0
M  V30 575 H 52.9846 2.92332 2.31025 0
M  V30 576 H 53.0976 4.57873 1.41028 0
M  V30 577 H 51.4616 2.40391 0.841672 0
M  V30 578 H 52.2446 3.39587 -0.503559 0
M  V30 579 N 54.6897 -0.239769 1.55765 0
M  V30 580 C 55.9147 -0.988373 1.82335 0
M  V30 581 C 56.3397 -1.77886 0.611421 0
M  V30 582 O 55.6977 -1.75889 -0.439639 0
M  V30 583 C 55.7457 -1.89627 3.06715 0
M  V30 584 O 54.8497 -2.98904 2.84131 0
M  V30 585 H 54.1907 -0.280858 0.601677 0
M  V30 586 H 56.7207 -0.258597 2.02959 0
M  V30 587 H 56.7307 -2.30957 3.36338 0
M  V30 588 H 55.4057 -1.31511 3.9456 0
M  V30 589 H 53.9827 -2.61651 2.65694 0
M  V30 590 N 56.1678 -1.49265 -0.50573 0
M  V30 591 C 57.1148 -1.65585 -1.6078 0
M  V30 592 C 58.0848 -0.497396 -1.58478 0
M  V30 593 O 59.2698 -0.72385 -1.76536 0
M  V30 594 C 56.4098 -1.72408 -2.98948 0
M  V30 595 C 55.5228 -2.99525 -3.11301 0
M  V30 596 C 54.6578 -2.97356 -4.40174 0
M  V30 597 C 53.6968 -4.19074 -4.46143 0
M  V30 598 N 52.8338 -4.14841 -5.66437 0
M  V30 599 H 57.6738 -2.59688 -1.46172 0
M  V30 600 H 55.2108 -1.28761 -0.711261 0
M  V30 601 H 57.1688 -1.74344 -3.79025 0
M  V30 602 H 55.7988 -0.817753 -3.1227 0
M  V30 603 H 54.8508 -3.07222 -2.24318 0
M  V30 604 H 56.1628 -3.89518 -3.11572 0
M  V30 605 H 55.3168 -2.97829 -5.28567 0
M  V30 606 H 54.0558 -2.05133 -4.42461 0
M  V30 607 H 53.0608 -4.1885 -3.56153 0
M  V30 608 H 54.2858 -5.12483 -4.45575 0
M  V30 609 H 52.2318 -3.25453 -5.69575 0
M  V30 610 H 52.1488 -4.98564 -5.68304 0
M  V30 611 H 53.4168 -4.1941 -6.57051 0
M  V30 612 N 57.6459 0.756429 -1.3826 0
M  V30 613 C 58.6089 1.85176 -1.35065 0
M  V30 614 C 59.6089 1.58818 -0.251703 0
M  V30 615 O 60.7989 1.66615 -0.508433 0
M  V30 616 C 57.9309 3.22596 -1.10201 0
M  V30 617 H 59.1239 1.89417 -2.3251 0
M  V30 618 H 56.6769 0.95783 -1.23512 0
M  V30 619 H 57.4119 3.24025 -0.133504 0
M  V30 620 H 57.1969 3.43122 -1.89762 0
M  V30 621 H 58.6869 4.02673 -1.10654 0
M  V30 622 N 59.124 1.23083 0.984299 0
M  V30 623 C 60.087 1.00979 2.05757 0
M  V30 624 C 61.087 -0.0269573 1.60777 0
M  V30 625 O 62.277 0.212403 1.729 0
M  V30 626 C 59.409 0.527072 3.36801 0
M  V30 627 H 60.602 1.9622 2.26799 0
M  V30 628 H 58.155 1.05072 1.15714 0
M  V30 629 H 58.89 -0.429294 3.21446 0
M  V30 630 H 58.675 1.27515 3.70786 0
M  V30 631 H 60.165 0.392942 4.15747 0
M  V30 632 N 60.6021 -1.18246 1.0419 0
M  V30 633 C 61.5651 -2.20128 0.638452 0
M  V30 634 C 62.5651 -1.57885 -0.304805 0
M  V30 635 O 63.7551 -1.73967 -0.0900369 0
M  V30 636 C 60.8871 -3.4084 -0.0637751 0
M  V30 637 H 62.0801 -2.57336 1.54007 0
M  V30 638 H 59.6331 -1.32152 0.834598 0
M  V30 639 H 60.3681 -3.09166 -0.979136 0
M  V30 640 H 60.1531 -3.8726 0.614198 0
M  V30 641 H 61.6431 -4.16274 -0.332512 0
M  V30 642 N 62.0802 -0.821533 -1.34494 0
M  V30 643 C 63.0432 -0.247847 -2.27856 0
M  V30 644 C 64.0432 0.573453 -1.50227 0
M  V30 645 O 65.2332 0.389759 -1.69784 0
M  V30 646 C 62.3652 0.652698 -3.34593 0
M  V30 647 H 63.5582 -1.07146 -2.80107 0
M  V30 648 H 61.1112 -0.593291 -1.44602 0
M  V30 649 H 61.8462 1.49943 -2.87555 0
M  V30 650 H 61.6312 0.065292 -3.92046 0
M  V30 651 H 63.1212 1.04793 -4.04238 0
M  V30 652 N 63.5583 1.46682 -0.576371 0
M  V30 653 C 64.7833 2.07304 -0.0630475 0
M  V30 654 C 65.2083 1.42329 1.2298 0
M  V30 655 O 64.5663 0.504865 1.74129 0
M  V30 656 C 64.6143 3.60472 0.095895 0
M  V30 657 O 63.7183 3.95927 1.15394 0
M  V30 658 H 63.0593 0.661288 -0.0599463 0
M  V30 659 H 65.5893 1.88417 -0.797511 0
M  V30 660 H 65.5993 4.06865 0.304071 0
M  V30 661 H 64.2743 4.07157 -0.84828 0
M  V30 662 H 62.8513 3.61252 0.924724 0
M  V30 663 N 65.0364 0.313813 1.54444 0
M  V30 664 C 66.4474 -0.176243 1.85866 0
M  V30 665 C 66.7984 -1.52405 1.23561 0
M  V30 666 O 65.9234 -2.09605 0.538016 0
M  V30 667 C 66.5184 -0.32657 3.37222 0
M  V30 668 C 65.0774 -0.760846 3.6863 0
M  V30 669 C 64.2244 0.123247 2.77026 0
M  V30 670 H 67.1754 0.534418 1.49431 0
M  V30 671 H 67.1964 -1.15908 3.62416 0
M  V30 672 H 66.7084 0.654531 3.82541 0
M  V30 673 H 64.8094 -1.75204 3.28838 0
M  V30 674 H 64.9224 -0.571353 4.75681 0
M  V30 675 H 63.2864 -0.399597 2.51546 0
M  V30 676 H 64.0694 1.10094 3.25168 0
M  V30 677 N 66.5145 -1.57545 0.0417849 0
M  V30 678 C 67.7915 -1.83642 -0.673433 0
M  V30 679 C 68.1715 -0.928298 -1.89594 0
M  V30 680 O 67.5195 0.0129955 -2.28496 0
M  V30 681 C 67.7295 -3.33155 -1.03964 0
M  V30 682 C 69.0775 -3.99941 -1.42592 0
M  V30 683 O 70.1015 -3.37725 -1.13226 0
M  V30 684 O 68.9605 -5.09619 -1.9736 0
M  V30 685 H 66.0545 -0.757638 -0.331533 0
M  V30 686 H 68.6005 -1.69554 0.070433 0
M  V30 687 H 67.3725 -3.9093 -0.170098 0
M  V30 688 H 66.9955 -3.52396 -1.84126 0
M  V30 689 N 67.9926 0.231505 -1.5589 0
M  V30 690 C 69.2696 0.981096 -1.69215 0
M  V30 691 C 69.6496 2.02799 -0.586164 0
M  V30 692 O 68.9976 2.24823 0.408253 0
M  V30 693 C 69.2076 1.60054 -3.10135 0
M  V30 694 C 70.5556 2.09658 -3.69227 0
M  V30 695 O 71.5796 1.69967 -3.13033 0
M  V30 696 O 70.4386 2.8258 -4.67772 0
M  V30 697 H 67.5326 0.457653 -0.688827 0
M  V30 698 H 70.0786 0.224073 -1.68214 0
M  V30 699 H 68.8506 0.844105 -3.82087 0
M  V30 700 H 68.4736 2.42336 -3.15212 0
M  V30 701 N 69.4707 1.49531 0.497807 0
M  V30 702 C 70.4187 1.66926 1.61983 0
M  V30 703 C 71.4127 0.535167 1.60724 0
M  V30 704 O 72.6187 0.714896 1.65195 0
M  V30 705 H 68.9937 0.526415 0.537021 0
M  V30 706 H 70.9647 2.61098 1.44465 0
M  V30 707 C 69.7137 1.75602 3.00099 0
M  V30 708 H 69.0367 2.62244 3.01775 0
M  V30 709 H 70.4767 1.91807 3.78135 0
M  V30 710 C 68.9357 0.501543 3.33146 0
M  V30 711 O 69.4657 -0.371342 3.9998 0
M  V30 712 N 67.6717 0.363531 2.88317 0
M  V30 713 H 67.2187 1.07485 2.34104 0
M  V30 714 H 67.1767 -0.474728 3.10795 0
M  V30 715 N 70.9488 -0.749086 1.3866 0
M  V30 716 C 72.1958 -1.50833 1.35114 0
M  V30 717 C 72.5238 -1.94415 -0.0574049 0
M  V30 718 O 71.7788 -1.66065 -1.03541 0
M  V30 719 C 72.0778 -2.7712 2.25697 0
M  V30 720 C 71.7438 -2.52477 3.73585 0
M  V30 721 C 70.4058 -2.45466 4.13884 0
M  V30 722 C 72.7578 -2.31066 4.67181 0
M  V30 723 C 70.0858 -2.15064 5.45861 0
M  V30 724 C 72.4378 -2.02183 5.9942 0
M  V30 725 C 71.1018 -1.93631 6.38798 0
M  V30 726 H 70.3718 -0.551936 0.494416 0
M  V30 727 H 73.0188 -0.860979 1.71054 0
M  V30 728 H 71.3238 -3.46528 1.82827 0
M  V30 729 H 73.0208 -3.35096 2.20254 0
M  V30 730 H 69.6108 -2.58807 3.41638 0
M  V30 731 H 73.7948 -2.35459 4.3689 0
M  V30 732 H 69.0508 -2.06954 5.75308 0
M  V30 733 H 73.2248 -1.8462 6.71482 0
M  V30 734 H 70.8518 -1.69839 7.40985 0
M  V30 735 N 72.4269 -1.23603 -0.977757 0
M  V30 736 C 73.6519 -1.09735 -1.75991 0
M  V30 737 C 74.0769 0.346858 -1.84874 0
M  V30 738 O 73.4349 1.25093 -1.3123 0
M  V30 739 C 73.4829 -1.73051 -3.16363 0
M  V30 740 O 72.5869 -0.994452 -4.0023 0
M  V30 741 H 71.9279 -0.384476 -0.541364 0
M  V30 742 H 74.4579 -1.6371 -1.2272 0
M  V30 743 H 74.4679 -1.78398 -3.66931 0
M  V30 744 H 73.1429 -2.78137 -3.09213 0
M  V30 745 H 71.7199 -1.01812 -3.58732 0
M  V30 746 N 73.905 1.17692 -1.04816 0
M  V30 747 C 75.316 1.69501 -0.782698 0
M  V30 748 C 75.667 1.83456 0.695577 0
M  V30 749 O 74.792 1.51942 1.54086 0
M  V30 750 C 75.387 3.07874 -1.41419 0
M  V30 751 C 73.946 3.56864 -1.19686 0
M  V30 752 C 73.093 2.3322 -1.50012 0
M  V30 753 H 76.044 1.02262 -1.2136 0
M  V30 754 H 76.065 3.71528 -0.821428 0
M  V30 755 H 75.577 2.97685 -2.49009 0
M  V30 756 H 73.678 3.72337 -0.140043 0
M  V30 757 H 73.791 4.39851 -1.89916 0
M  V30 758 H 72.155 2.37501 -0.920071 0
M  V30 759 H 72.938 2.25644 -2.58727 0
M  V30 760 N 75.3831 0.828654 1.34056 0
M  V30 761 C 76.2931 0.256725 2.33191 0
M  V30 762 C 77.3091 -0.611898 1.62886 0
M  V30 763 O 78.4851 -0.51844 1.94613 0
M  V30 764 C 75.5501 -0.567238 3.42028 0
M  V30 765 C 74.6111 0.324458 4.28072 0
M  V30 766 C 73.8441 -0.460274 5.31712 0
M  V30 767 O 74.0671 -1.693 5.44696 0
M  V30 768 O 73.0011 0.160391 6.01686 0
M  V30 769 H 76.8271 1.07739 2.83947 0
M  V30 770 H 74.4121 0.59093 1.37217 0
M  V30 771 H 76.2941 -1.03582 4.08471 0
M  V30 772 H 74.9691 -1.36513 2.93506 0
M  V30 773 H 73.8761 0.840659 3.64532 0
M  V30 774 H 75.2091 1.08685 4.8005 0
M  V30 775 N 76.8612 -1.46375 0.584142 0
M  V30 776 C 78.0892 -2.06761 0.0759296 0
M  V30 777 C 78.5042 -1.43266 -1.22965 0
M  V30 778 O 77.8612 -0.538458 -1.74376 0
M  V30 779 C 77.9122 -3.61375 -0.0950384 0
M  V30 780 O 77.6332 -4.22495 1.15887 0
M  V30 781 C 79.1342 -4.38693 -0.637434 0
M  V30 782 H 76.3542 -0.668479 0.0581075 0
M  V30 783 H 78.8982 -1.8798 0.805218 0
M  V30 784 H 77.0532 -3.79578 -0.774554 0
M  V30 785 H 77.4672 -5.15385 0.973598 0
M  V30 786 H 78.9412 -5.47464 -0.706237 0
M  V30 787 H 79.4182 -4.06836 -1.65472 0
M  V30 788 H 80.0242 -4.25299 0.00725967 0
M  V30 789 N 78.3393 -0.321999 -1.54275 0
M  V30 790 C 79.2693 0.537411 -2.27231 0
M  V30 791 C 80.2503 1.12064 -1.27968 0
M  V30 792 O 81.4353 1.14606 -1.56777 0
M  V30 793 C 78.5653 1.69919 -3.02894 0
M  V30 794 C 77.5193 1.24534 -4.09482 0
M  V30 795 C 76.8453 2.49394 -4.72977 0
M  V30 796 C 78.1453 0.361335 -5.21049 0
M  V30 797 H 79.8393 -0.0711406 -2.99315 0
M  V30 798 H 77.3853 -0.0356555 -1.43956 0
M  V30 799 H 79.3383 2.30668 -3.52662 0
M  V30 800 H 78.0623 2.33431 -2.28424 0
M  V30 801 H 76.7213 0.660782 -3.60596 0
M  V30 802 H 76.3693 3.11265 -3.95124 0
M  V30 803 H 76.0693 2.19718 -5.44975 0
M  V30 804 H 77.5933 3.10908 -5.25517 0
M  V30 805 H 79.0073 0.875072 -5.66582 0
M  V30 806 H 77.4043 0.157428 -5.99893 0
M  V30 807 H 78.4743 -0.60822 -4.8107 0
M  V30 808 N 79.8174 1.5752 -0.0501392 0
M  V30 809 C 80.7494 2.08413 0.95376 0
M  V30 810 C 81.7624 1.01175 1.27544 0
M  V30 811 O 82.9514 1.28744 1.23641 0
M  V30 812 C 80.0514 2.51138 2.27559 0
M  V30 813 C 79.2244 3.817 2.13598 0
M  V30 814 C 78.2834 4.10749 3.28895 0
M  V30 815 O 77.3094 4.80685 3.04845 0
M  V30 816 N 78.5114 3.62579 4.5334 0
M  V30 817 H 81.2764 2.95165 0.519383 0
M  V30 818 H 78.8374 1.61327 0.136127 0
M  V30 819 H 80.8294 2.67648 3.03557 0
M  V30 820 H 79.3994 1.6964 2.62567 0
M  V30 821 H 78.6194 3.74782 1.22197 0
M  V30 822 H 79.9074 4.67201 2.01496 0
M  V30 823 H 79.3054 3.06039 4.75769 0
M  V30 824 H 77.8624 3.84329 5.26436 0
M  V30 825 N 81.2955 -0.223234 1.56011 0
M  V30 826 C 82.5425 -0.947875 1.78946 0
M  V30 827 C 82.8705 -1.844 0.618608 0
M  V30 828 O 82.1255 -1.91629 -0.397093 0
M  V30 829 C 82.4245 -1.81948 3.0762 0
M  V30 830 C 82.0905 -1.07672 4.37856 0
M  V30 831 C 80.7525 -0.871544 4.73242 0
M  V30 832 C 83.1045 -0.552081 5.18268 0
M  V30 833 C 80.4325 -0.129791 5.86556 0
M  V30 834 C 82.7845 0.17632 6.32354 0
M  V30 835 C 81.4485 0.39277 6.66343 0
M  V30 836 H 80.7185 -0.346852 0.654809 0
M  V30 837 H 83.3655 -0.216171 1.90276 0
M  V30 838 H 81.6705 -2.61899 2.91404 0
M  V30 839 H 83.3675 -2.38227 3.22566 0
M  V30 840 H 79.9575 -1.24662 4.1007 0
M  V30 841 H 84.1415 -0.698076 4.91366 0
M  V30 842 H 79.3975 0.048153 6.11381 0
M  V30 843 H 83.5715 0.590367 6.93893 0
M  V30 844 H 81.1985 0.969466 7.53993 0
M  V30 845 N 82.7736 -1.49793 -0.48987 0
M  V30 846 C 83.7036 -1.70201 -1.59856 0
M  V30 847 C 84.6846 -0.55076 -1.60937 0
M  V30 848 O 85.8696 -0.787841 -1.77501 0
M  V30 849 C 82.9996 -1.77882 -2.98287 0
M  V30 850 C 81.9536 -2.92907 -3.12073 0
M  V30 851 C 81.2796 -2.85712 -4.51965 0
M  V30 852 C 82.5796 -4.3369 -2.91051 0
M  V30 853 H 84.2736 -2.63025 -1.43032 0
M  V30 854 H 81.8196 -1.26574 -0.686664 0
M  V30 855 H 83.7726 -1.90744 -3.75759 0
M  V30 856 H 82.4966 -0.816653 -3.16225 0
M  V30 857 H 81.1556 -2.79665 -2.37029 0
M  V30 858 H 80.8036 -1.8738 -4.66795 0
M  V30 859 H 80.5036 -3.62921 -4.62128 0
M  V30 860 H 82.0276 -3.00598 -5.31482 0
M  V30 861 H 83.4416 -4.47555 -3.58284 0
M  V30 862 H 81.8386 -5.12205 -3.12675 0
M  V30 863 H 82.9086 -4.47362 -1.87071 0
M  V30 864 N 84.2517 0.741722 -1.39055 0
M  V30 865 C 85.6677 1.04638 -1.20512 0
M  V30 866 C 85.8677 2.01405 -0.0620218 0
M  V30 867 O 84.9237 2.45547 0.588457 0
M  V30 868 C 86.2367 1.6151 -2.53643 0
M  V30 869 C 87.7847 1.73623 -2.6043 0
M  V30 870 C 88.2597 2.33906 -3.93767 0
M  V30 871 N 89.7507 2.41323 -3.9537 0
M  V30 872 C 90.4857 2.88888 -4.95309 0
M  V30 873 N 89.9817 3.36401 -6.05645 0
M  V30 874 N 91.7747 2.88037 -4.82692 0
M  V30 875 H 83.9257 0.0998155 -2.12165 0
M  V30 876 H 86.1887 0.106907 -0.941953 0
M  V30 877 H 85.8947 0.978739 -3.37807 0
M  V30 878 H 85.7687 2.60411 -2.72885 0
M  V30 879 H 88.1557 2.36384 -1.76655 0
M  V30 880 H 88.2367 0.733945 -2.45045 0
M  V30 881 H 87.8807 1.71776 -4.7797 0
M  V30 882 H 87.8107 3.34799 -4.06469 0
M  V30 883 H 90.3017 2.07734 -3.15682 0
M  V30 884 H 90.6147 3.71186 -6.77821 0
M  V30 885 H 88.9597 3.34427 -6.09248 0
M  V30 886 H 92.1507 2.50237 -3.95599 0
M  V30 887 H 92.3237 3.24792 -5.60726 0
M  V30 888 N 85.7298 1.2412 0.971189 0
M  V30 889 C 86.6778 1.02812 2.08644 0
M  V30 890 C 87.6718 -0.0358403 1.69362 0
M  V30 891 O 88.8778 0.118429 1.7961 0
M  V30 892 H 85.2528 0.315428 0.682649 0
M  V30 893 H 87.2238 1.97397 2.23779 0
M  V30 894 C 85.9728 0.645874 3.41649 0
M  V30 895 H 85.2958 1.45632 3.72332 0
M  V30 896 H 86.7358 0.536366 4.20594 0
M  V30 897 C 85.1948 -0.646713 3.30635 0
M  V30 898 O 85.7248 -1.69338 3.64263 0
M  V30 899 N 83.9308 -0.626115 2.83775 0
M  V30 900 H 83.4778 0.225988 2.56607 0
M  V30 901 H 83.4358 -1.49117 2.76788 0
M  V30 902 N 87.2079 -1.17134 1.05439 0
M  V30 903 C 88.1559 -2.23289 0.651511 0
M  V30 904 C 89.1499 -1.66186 -0.328411 0
M  V30 905 O 90.3559 -1.78949 -0.194206 0
M  V30 906 H 86.7309 -0.726938 0.192523 0
M  V30 907 H 88.7019 -2.54565 1.55689 0
M  V30 908 C 87.4509 -3.47671 0.0448436 0
M  V30 909 H 86.7739 -3.91918 0.78996 0
M  V30 910 H 88.2139 -4.2353 -0.19964 0
M  V30 911 C 86.6729 -3.14453 -1.20918 0
M  V30 912 O 87.2029 -3.29459 -2.29825 0
M  V30 913 N 85.4089 -2.68657 -1.10779 0
M  V30 914 H 84.9559 -2.56646 -0.221526 0
M  V30 915 H 84.9139 -2.46804 -1.9477 0
M  V30 916 N 88.686 -0.835752 -1.33615 0
M  V30 917 C 89.914 -0.443344 -2.02094 0
M  V30 918 C 90.329 0.954522 -1.62894 0
M  V30 919 O 89.686 1.61982 -0.840723 0
M  V30 920 C 89.737 -0.550775 -3.5728 0
M  V30 921 O 89.458 -1.89356 -3.95065 0
M  V30 922 C 90.959 -0.154919 -4.43029 0
M  V30 923 H 88.179 -0.176359 -0.647409 0
M  V30 924 H 90.723 -1.12746 -1.70612 0
M  V30 925 H 88.878 0.0853997 -3.87306 0
M  V30 926 H 89.292 -1.87687 -4.89769 0
M  V30 927 H 90.766 -0.281144 -5.51284 0
M  V30 928 H 91.243 0.902863 -4.2982 0
M  V30 929 H 91.849 -0.765404 -4.18356 0
M  V30 930 N 90.1641 1.46063 -0.591896 0
M  V30 931 C 91.4121 2.01938 -0.0808391 0
M  V30 932 C 91.7331 1.46475 1.28725 0
M  V30 933 O 91.0031 0.652944 1.84698 0
M  V30 934 H 89.5831 0.746516 -0.0268938 0
M  V30 935 H 92.2451 1.79055 -0.769752 0
M  V30 936 H 91.3411 3.12094 -0.0187578 0
M  V30 937 N 91.6422 0.330177 1.54103 0
M  V30 938 C 92.5722 -0.525353 2.27513 0
M  V30 939 C 93.5532 -1.11383 1.2856 0
M  V30 940 O 94.7382 -1.13773 1.57383 0
M  V30 941 C 91.8682 -1.6831 3.03791 0
M  V30 942 C 90.8222 -1.2236 4.10137 0
M  V30 943 C 90.1482 -2.46882 4.74293 0
M  V30 944 C 91.4482 -0.333697 5.21233 0
M  V30 945 H 93.1422 0.087013 2.99274 0
M  V30 946 H 90.6882 0.0432893 1.43935 0
M  V30 947 H 92.6412 -2.28795 3.5388 0
M  V30 948 H 91.3652 -2.32216 2.29659 0
M  V30 949 H 90.0242 -0.64165 3.60941 0
M  V30 950 H 89.6722 -3.09165 3.96769 0
M  V30 951 H 89.3722 -2.16825 5.46133 0
M  V30 952 H 90.8962 -3.08117 5.27159 0
M  V30 953 H 92.3102 -0.845013 5.67038 0
M  V30 954 H 90.7072 -0.125612 5.99969 0
M  V30 955 H 91.7772 0.633724 4.80741 0
M  V30 956 N 93.1203 -1.57491 0.0584922 0
M  V30 957 C 94.3973 -1.84346 -0.653918 0
M  V30 958 C 94.7773 -0.948355 -1.88599 0
M  V30 959 O 94.1253 -0.0112403 -2.28497 0
M  V30 960 C 94.3353 -3.34239 -1.00425 0
M  V30 961 C 95.6833 -4.01431 -1.38342 0
M  V30 962 O 96.7073 -3.38907 -1.09637 0
M  V30 963 O 95.5663 -5.11683 -1.91943 0
M  V30 964 H 92.6603 -0.761112 -0.323478 0
M  V30 965 H 95.2063 -1.6947 0.0884125 0
M  V30 966 H 93.9783 -3.91089 -0.128625 0
M  V30 967 H 93.6013 -3.54329 -1.80378 0
M  V30 968 N 94.5984 0.214957 -1.56127 0
M  V30 969 C 95.8464 0.936518 -1.79091 0
M  V30 970 C 96.1674 1.84606 -0.628148 0
M  V30 971 O 95.4374 1.92664 0.35462 0
M  V30 972 H 94.0174 0.3488 -0.660566 0
M  V30 973 H 96.6794 0.22523 -1.93594 0
M  V30 974 H 95.7754 1.53943 -2.71492 0
M  V30 975 N 96.0765 1.50051 0.48192 0
M  V30 976 C 96.9865 1.7089 1.60728 0
M  V30 977 C 98.0025 0.591788 1.63627 0
M  V30 978 O 99.1785 0.868817 1.81696 0
M  V30 979 C 96.2435 1.78855 2.97005 0
M  V30 980 C 95.3045 3.02537 3.04581 0
M  V30 981 C 94.5375 3.10112 4.34357 0
M  V30 982 O 94.7605 2.24765 5.24249 0
M  V30 983 O 93.6945 4.02747 4.47301 0
M  V30 984 H 97.5205 2.66264 1.46072 0
M  V30 985 H 95.1055 1.34018 0.660264 0
M  V30 986 H 96.9875 1.86336 3.77964 0
M  V30 987 H 95.6625 0.866628 3.11883 0
M  V30 988 H 94.5695 3.00563 2.22739 0
M  V30 989 H 95.9025 3.94272 2.94636 0
M  V30 990 N 97.5546 -0.734337 1.39446 0
M  V30 991 C 98.4866 -1.85861 1.34121 0
M  V30 992 C 99.4996 -1.60871 0.249864 0
M  V30 993 O 100.689 -1.71093 0.508865 0
M  V30 994 C 97.7886 -3.21899 1.05991 0
M  V30 995 C 96.9616 -3.74239 2.26415 0
M  V30 996 C 96.0206 -4.88841 1.94733 0
M  V30 997 O 95.0466 -5.02468 2.67422 0
M  V30 998 N 96.2486 -5.73261 0.913884 0
M  V30 999 H 99.0136 -1.90934 2.31007 0
M  V30 1000 H 96.5746 -0.915102 1.33557 0
M  V30 1001 H 98.5666 -3.96136 0.828147 0
M  V30 1002 H 97.1366 -3.12091 0.178361 0
M  V30 1003 H 96.3566 -2.91347 2.65539 0
M  V30 1004 H 97.6446 -4.05942 3.06738 0
M  V30 1005 H 97.0426 -5.64842 0.311476 0
M  V30 1006 H 95.5996 -6.47563 0.742015 0
M  V30 1007 N 99.0327 -1.24633 -0.964593 0
M  V30 1008 C 100.279 -1.09957 -1.71117 0
M  V30 1009 C 100.634 0.357422 -1.89051 0
M  V30 1010 O 99.9267 1.26029 -1.44317 0
M  V30 1011 C 100.121 -1.7763 -3.10133 0
M  V30 1012 C 99.9497 -3.29759 -3.05759 0
M  V30 1013 C 98.7197 -3.98981 -3.10068 0
M  V30 1014 C 100.918 -4.26305 -2.87695 0
M  V30 1015 N 98.8997 -5.37966 -2.95747 0
M  V30 1016 C 100.271 -5.52308 -2.81702 0
M  V30 1017 C 102.326 -4.16842 -2.72299 0
M  V30 1018 C 101.029 -6.69931 -2.61887 0
M  V30 1019 C 103.055 -5.34147 -2.53853 0
M  V30 1020 C 102.417 -6.59084 -2.48572 0
M  V30 1021 H 98.5157 -0.457003 -0.634564 0
M  V30 1022 H 101.1 -1.57592 -1.14337 0
M  V30 1023 H 99.2707 -1.32504 -3.65099 0
M  V30 1024 H 101.003 -1.55786 -3.73514 0
M  V30 1025 H 97.7577 -3.50169 -3.18871 0
M  V30 1026 H 98.1817 -6.10877 -2.91818 0
M  V30 1027 H 102.824 -3.21007 -2.75163 0
M  V30 1028 H 100.542 -7.65886 -2.57767 0
M  V30 1029 H 104.128 -5.28678 -2.4288 0
M  V30 1030 H 103.008 -7.48324 -2.34481 0
M  V30 1031 N 100.511 1.16574 -1.06058 0
M  V30 1032 C 101.459 2.22941 -0.663343 0
M  V30 1033 C 102.453 1.66358 0.319593 0
M  V30 1034 O 103.659 1.7905 0.184713 0
M  V30 1035 H 100.034 0.725907 -0.196376 0
M  V30 1036 H 102.005 2.53736 -1.57037 0
M  V30 1037 C 100.754 3.47642 -0.0632808 0
M  V30 1038 H 100.077 3.91493 -0.810733 0
M  V30 1039 H 101.517 4.2363 0.177177 0
M  V30 1040 C 99.9758 3.1509 1.19248 0
M  V30 1041 O 100.506 3.30673 2.28075 0
M  V30 1042 N 98.7118 2.6924 1.09353 0
M  V30 1043 H 98.2588 2.5676 0.207912 0
M  V30 1044 H 98.2168 2.47833 1.93458 0
M  V30 1045 N 101.989 0.842826 1.3317 0
M  V30 1046 C 102.937 0.267495 2.31057 0
M  V30 1047 C 103.931 -0.602682 1.58316 0
M  V30 1048 O 105.137 -0.491803 1.73151 0
M  V30 1049 H 101.512 0.0677813 0.748939 0
M  V30 1050 H 103.483 1.10754 2.77085 0
M  V30 1051 C 102.232 -0.539331 3.43492 0
M  V30 1052 H 101.555 0.12095 3.99617 0
M  V30 1053 H 102.995 -0.90767 4.14171 0
M  V30 1054 C 101.454 -1.71981 2.89697 0
M  V30 1055 O 101.984 -2.81862 2.86211 0
M  V30 1056 N 100.19 -1.54299 2.46252 0
M  V30 1057 H 99.7369 -0.649143 2.49287 0
M  V30 1058 H 99.6949 -2.33431 2.10612 0
M  V30 1059 N 103.467 -1.45747 0.599634 0
M  V30 1060 C 104.716 -2.01502 0.0893511 0
M  V30 1061 C 105.029 -1.4748 -1.28488 0
M  V30 1062 O 106.235 -1.95161 -1.88745 0
M  V30 1063 C 104.691 -3.59735 0.109082 0
M  V30 1064 C 104.299 -4.22754 1.48267 0
M  V30 1065 C 106.043 -4.23085 -0.346374 0
M  V30 1066 C 103.95 -5.73115 1.45921 0
M  V30 1067 H 102.88 -0.753417 0.0296347 0
M  V30 1068 H 105.531 -1.67303 0.753788 0
M  V30 1069 H 103.913 -3.91087 -0.621854 0
M  V30 1070 H 105.087 -4.02987 2.23468 0
M  V30 1071 H 103.402 -3.71567 1.87955 0
M  V30 1072 H 105.999 -5.33327 -0.38298 0
M  V30 1073 H 106.342 -3.93201 -1.36743 0
M  V30 1074 H 106.875 -3.9642 0.331038 0
M  V30 1075 H 103.614 -6.07685 2.45762 0
M  V30 1076 H 103.134 -5.95097 0.749665 0
M  V30 1077 H 104.813 -6.3616 1.17941 0
M  V30 1078 N 104.945 -0.338344 -1.53925 0
M  V30 1079 C 105.878 0.563758 -2.21127 0
M  V30 1080 C 106.856 1.10433 -1.19345 0
M  V30 1081 O 108.04 1.16557 -1.48144 0
M  V30 1082 C 105.167 1.77505 -2.88461 0
M  V30 1083 C 104.213 1.3644 -4.04087 0
M  V30 1084 S 105.046 0.388593 -5.34088 0
M  V30 1085 C 106.202 1.60683 -6.04923 0
M  V30 1086 H 106.435 -0.00704546 -2.97299 0
M  V30 1087 H 103.968 -0.122418 -1.53914 0
M  V30 1088 H 105.926 2.46999 -3.27875 0
M  V30 1089 H 104.587 2.31706 -2.12064 0
M  V30 1090 H 103.78 2.26739 -4.50117 0
M  V30 1091 H 103.382 0.748998 -3.66423 0
M  V30 1092 H 105.674 2.54209 -6.28 0
M  V30 1093 H 106.617 1.18842 -6.98056 0
M  V30 1094 H 107.025 1.80052 -5.35015 0
M  V30 1095 N 106.423 1.57458 -0.0668435 0
M  V30 1096 C 107.37 2.12439 0.902122 0
M  V30 1097 C 108.34 1.03565 1.2986 0
M  V30 1098 O 109.525 1.312 1.38532 0
M  V30 1099 C 106.665 2.6865 2.16614 0
M  V30 1100 C 105.778 3.91663 1.82274 0
M  V30 1101 C 104.913 4.36134 3.0325 0
M  V30 1102 C 103.952 5.51808 2.64904 0
M  V30 1103 N 103.089 5.9126 3.78624 0
M  V30 1104 H 107.929 2.94934 0.426382 0
M  V30 1105 H 105.466 1.4575 0.198819 0
M  V30 1106 H 107.424 2.99346 2.90599 0
M  V30 1107 H 106.054 1.88928 2.61737 0
M  V30 1108 H 105.106 3.6746 0.983719 0
M  V30 1109 H 106.418 4.75693 1.50059 0
M  V30 1110 H 105.572 4.68465 3.85519 0
M  V30 1111 H 104.311 3.50948 3.38655 0
M  V30 1112 H 103.316 5.19133 1.81055 0
M  V30 1113 H 104.541 6.38722 2.30675 0
M  V30 1114 H 102.487 5.09024 4.138 0
M  V30 1115 H 102.404 6.70018 3.5016 0
M  V30 1116 H 103.672 6.28212 4.61486 0
M  V30 1117 N 107.901 -0.206675 1.56239 0
M  V30 1118 C 108.831 -1.25909 1.96645 0
M  V30 1119 C 109.812 -1.48097 0.836734 0
M  V30 1120 O 110.997 -1.6003 1.10019 0
M  V30 1121 C 108.127 -2.6058 2.29599 0
M  V30 1122 C 107.081 -2.53024 3.452 0
M  V30 1123 C 106.407 -3.91861 3.63798 0
M  V30 1124 C 107.707 -2.06524 4.79734 0
M  V30 1125 H 109.401 -0.923369 2.84806 0
M  V30 1126 H 106.947 -0.442735 1.37025 0
M  V30 1127 H 108.9 -3.34375 2.56459 0
M  V30 1128 H 107.624 -2.95869 1.38307 0
M  V30 1129 H 106.283 -1.81684 3.18412 0
M  V30 1130 H 105.931 -4.24483 2.69857 0
M  V30 1131 H 105.631 -3.87683 4.4156 0
M  V30 1132 H 107.155 -4.67296 3.93022 0
M  V30 1133 H 108.569 -2.70072 5.05702 0
M  V30 1134 H 106.966 -2.13374 5.60885 0
M  V30 1135 H 108.036 -1.01802 4.74093 0
M  V30 1136 N 109.379 -1.50304 -0.473955 0
M  V30 1137 C 110.628 -1.60392 -1.22301 0
M  V30 1138 C 110.941 -0.308411 -1.93153 0
M  V30 1139 O 112.147 -0.288156 -2.69966 0
M  V30 1140 C 110.603 -2.83109 -2.2221 0
M  V30 1141 C 110.211 -4.19524 -1.57173 0
M  V30 1142 C 111.955 -3.0254 -2.97775 0
M  V30 1143 C 109.862 -5.33431 -2.55353 0
M  V30 1144 H 108.792 -0.597286 -0.460179 0
M  V30 1145 H 111.443 -1.76731 -0.493803 0
M  V30 1146 H 109.825 -2.60322 -2.9841 0
M  V30 1147 H 110.999 -4.52554 -0.867824 0
M  V30 1148 H 109.314 -4.05674 -0.939002 0
M  V30 1149 H 111.911 -3.84811 -3.71248 0
M  V30 1150 H 112.254 -2.14154 -3.56992 0
M  V30 1151 H 112.787 -3.25494 -2.28688 0
M  V30 1152 H 109.526 -6.23962 -2.00878 0
M  V30 1153 H 109.046 -5.04823 -3.23904 0
M  V30 1154 H 110.725 -5.63887 -3.17239 0
M  V30 1155 N 110.857 0.726932 -1.39834 0
M  V30 1156 C 111.805 1.86235 -1.39353 0
M  V30 1157 C 112.799 1.67144 -0.275555 0
M  V30 1158 O 114.005 1.74387 -0.44601 0
M  V30 1159 H 110.38 0.613174 -0.43534 0
M  V30 1160 H 112.351 1.83756 -2.35109 0
M  V30 1161 C 111.1 3.23995 -1.26185 0
M  V30 1162 H 110.423 3.39285 -2.11484 0
M  V30 1163 H 111.863 4.03609 -1.29907 0
M  V30 1164 C 110.322 3.36888 0.0290018 0
M  V30 1165 O 110.852 3.89152 0.99619 0
M  V30 1166 N 109.058 2.90446 0.0947437 0
M  V30 1167 H 108.605 2.48102 -0.693035 0
M  V30 1168 H 108.563 2.99451 0.957932 0
M  V30 1169 N 112.336 1.25143 0.95797 0
M  V30 1170 C 113.283 1.05235 2.05412 0
M  V30 1171 C 114.253 -0.0374561 1.66058 0
M  V30 1172 O 115.438 0.119073 1.90428 0
M  V30 1173 C 112.578 0.673589 3.38462 0
M  V30 1174 C 111.691 1.8379 3.90954 0
M  V30 1175 C 110.826 1.40381 5.12315 0
M  V30 1176 C 109.865 2.53746 5.57027 0
M  V30 1177 N 109.002 2.11136 6.69601 0
M  V30 1178 H 113.842 1.99048 2.21774 0
M  V30 1179 H 111.379 0.991277 1.08683 0
M  V30 1180 H 113.337 0.434964 4.14926 0
M  V30 1181 H 111.967 -0.227554 3.21997 0
M  V30 1182 H 111.019 2.18992 3.11041 0
M  V30 1183 H 112.331 2.68937 4.20089 0
M  V30 1184 H 111.485 1.12464 5.96185 0
M  V30 1185 H 110.224 0.523015 4.84887 0
M  V30 1186 H 109.229 2.82412 4.71724 0
M  V30 1187 H 110.454 3.42398 5.86464 0
M  V30 1188 H 108.4 1.25468 6.4389 0
M  V30 1189 H 108.317 2.89832 6.98236 0
M  V30 1190 H 109.585 1.86385 7.56889 0
M  V30 1191 N 113.814 -1.1601 1.06675 0
M  V30 1192 C 115.225 -1.68235 0.809565 0
M  V30 1193 C 115.576 -1.8454 -0.666303 0
M  V30 1194 O 114.701 -1.54374 -1.5165 0
M  V30 1195 C 115.296 -3.05585 1.46299 0
M  V30 1196 C 113.855 -3.54915 1.25349 0
M  V30 1197 C 113.002 -2.30804 1.53703 0
M  V30 1198 H 115.953 -1.00318 1.22971 0
M  V30 1199 H 115.974 -3.70174 0.880431 0
M  V30 1200 H 115.486 -2.93686 2.53713 0
M  V30 1201 H 113.587 -3.72067 0.199261 0
M  V30 1202 H 113.7 -4.36774 1.9689 0
M  V30 1203 H 112.064 -2.36007 0.957739 0
M  V30 1204 H 112.847 -2.21499 2.62284 0
M  V30 1205 N 115.292 -0.849877 -1.32721 0
M  V30 1206 C 116.202 -0.293791 -2.32753 0
M  V30 1207 C 117.218 0.585906 -1.63839 0
M  V30 1208 O 118.394 0.487413 -1.95413 0
M  V30 1209 C 115.459 0.512752 -3.42887 0
M  V30 1210 C 114.52 -0.39252 -4.27502 0
M  V30 1211 C 113.753 0.375625 -5.32377 0
M  V30 1212 O 113.976 1.60613 -5.4732 0
M  V30 1213 O 112.91 -0.256094 -6.01355 0
M  V30 1214 H 116.736 -1.12242 -2.82197 0
M  V30 1215 H 114.321 -0.612685 -1.36259 0
M  V30 1216 H 116.203 0.970704 -4.10067 0
M  V30 1217 H 114.878 1.31826 -2.95641 0
M  V30 1218 H 113.785 -0.898547 -3.63149 0
M  V30 1219 H 115.118 -1.16309 -4.7826 0
M  V30 1220 N 116.77 1.45427 -0.607355 0
M  V30 1221 C 117.702 2.2871 0.149752 0
M  V30 1222 C 118.715 1.39937 0.831958 0
M  V30 1223 O 119.904 1.64313 0.697385 0
M  V30 1224 C 117.004 3.15673 1.23304 0
M  V30 1225 C 116.177 4.32722 0.637996 0
M  V30 1226 C 115.236 5.00895 1.61215 0
M  V30 1227 O 114.262 5.57697 1.13854 0
M  V30 1228 N 115.464 5.00159 2.94655 0
M  V30 1229 H 118.229 2.94328 -0.564882 0
M  V30 1230 H 115.79 1.55612 -0.446823 0
M  V30 1231 H 117.782 3.58144 1.88454 0
M  V30 1232 H 116.352 2.51965 1.8502 0
M  V30 1233 H 115.572 3.93734 -0.191572 0
M  V30 1234 H 116.86 5.08321 0.220665 0
M  V30 1235 H 116.258 4.553 3.35735 0
M  V30 1236 H 114.815 5.46495 3.55228 0
M  V30 1237 N 118.248 0.346503 1.53744 0
M  V30 1238 C 119.525 -0.304532 1.93215 0
M  V30 1239 C 119.905 -1.67993 1.27834 0
M  V30 1240 O 119.253 -2.24411 0.430352 0
M  V30 1241 C 119.463 -0.373852 3.46992 0
M  V30 1242 C 120.811 -0.62329 4.2 0
M  V30 1243 O 121.835 -0.455847 3.53271 0
M  V30 1244 O 120.694 -0.947879 5.38217 0
M  V30 1245 H 117.788 -0.178318 0.807547 0
M  V30 1246 H 120.334 0.397895 1.64969 0
M  V30 1247 H 119.106 0.591224 3.86808 0
M  V30 1248 H 118.729 -1.12294 3.81413 0
M  V30 1249 N 119.726 -1.57421 0.075193 0
M  V30 1250 C 121.003 -1.85029 -0.634329 0
M  V30 1251 C 121.383 -0.968305 -1.87582 0
M  V30 1252 O 120.731 -0.0354749 -2.28472 0
M  V30 1253 C 120.941 -3.35286 -0.968742 0
M  V30 1254 C 122.289 -4.02875 -1.34077 0
M  V30 1255 O 123.313 -3.40051 -1.06037 0
M  V30 1256 O 122.172 -5.13691 -1.86506 0
M  V30 1257 H 119.266 -0.7645 -0.315387 0
M  V30 1258 H 121.812 -1.69366 0.106382 0
M  V30 1259 H 120.584 -3.91203 -0.0871376 0
M  V30 1260 H 120.207 -3.56223 -1.7661 0
M  V30 1261 N 121.204 0.198386 -1.56346 0
M  V30 1262 C 122.134 1.24865 -1.9731 0
M  V30 1263 C 123.115 1.47651 -0.844576 0
M  V30 1264 O 124.3 1.59444 -1.10866 0
M  V30 1265 C 121.43 2.59358 -2.30977 0
M  V30 1266 C 120.384 2.5119 -3.46537 0
M  V30 1267 C 119.71 3.89926 -3.65871 0
M  V30 1268 C 121.01 2.03977 -4.80823 0
M  V30 1269 H 122.704 0.908252 -2.85291 0
M  V30 1270 H 120.25 0.435462 -1.37258 0
M  V30 1271 H 122.203 3.33011 -2.58228 0
M  V30 1272 H 120.927 2.95132 -1.39874 0
M  V30 1273 H 119.586 1.79993 -3.19371 0
M  V30 1274 H 119.234 4.23046 -2.72105 0
M  V30 1275 H 118.934 3.85336 -4.4361 0
M  V30 1276 H 120.458 4.65205 -3.95495 0
M  V30 1277 H 121.872 2.67386 -5.07127 0
M  V30 1278 H 120.269 2.10397 -5.62008 0
M  V30 1279 H 121.339 0.992861 -4.74626 0
M  V30 1280 N 122.682 1.50554 0.465978 0
M  V30 1281 C 123.63 1.70324 1.58406 0
M  V30 1282 C 124.624 0.569139 1.59553 0
M  V30 1283 O 125.83 0.749776 1.63641 0
M  V30 1284 H 122.205 0.537688 0.525734 0
M  V30 1285 H 124.176 2.64104 1.38894 0
M  V30 1286 C 122.925 1.81928 2.96307 0
M  V30 1287 H 122.248 2.68586 2.96144 0
M  V30 1288 H 123.688 1.99784 3.73982 0
M  V30 1289 C 122.147 0.572095 3.32007 0
M  V30 1290 O 122.677 -0.286416 4.00678 0
M  V30 1291 N 120.883 0.424606 2.87481 0
M  V30 1292 H 120.43 1.12427 2.31771 0
M  V30 1293 H 120.388 -0.408697 3.11732 0
M  V30 1294 N 124.16 -0.719506 1.40217 0
M  V30 1295 C 125.406 -1.48034 1.39491 0
M  V30 1296 C 125.761 -1.92399 -0.00443536 0
M  V30 1297 O 125.054 -1.64993 -0.974061 0
M  V30 1298 C 125.248 -2.72271 2.31524 0
M  V30 1299 C 125.077 -2.40055 3.80268 0
M  V30 1300 C 123.847 -2.31588 4.49105 0
M  V30 1301 C 126.045 -2.04581 4.71859 0
M  V30 1302 N 124.027 -1.92006 5.83101 0
M  V30 1303 C 125.398 -1.75568 5.94623 0
M  V30 1304 C 127.453 -1.91183 4.59732 0
M  V30 1305 C 126.156 -1.34505 7.06612 0
M  V30 1306 C 128.182 -1.51524 5.71659 0
M  V30 1307 C 127.544 -1.23406 6.93506 0
M  V30 1308 H 123.643 -0.539927 0.565688 0
M  V30 1309 H 126.227 -0.834764 1.75897 0
M  V30 1310 H 124.398 -3.34584 1.97251 0
M  V30 1311 H 126.13 -3.38584 2.21682 0
M  V30 1312 H 122.885 -2.49199 4.02737 0
M  V30 1313 H 123.309 -1.74764 6.54054 0
M  V30 1314 H 127.951 -2.11584 3.66049 0
M  V30 1315 H 125.669 -1.12846 8.00182 0
M  V30 1316 H 129.255 -1.41741 5.6427 0
M  V30 1317 H 128.135 -0.931788 7.78645 0
M  V30 1318 N 125.638 -1.25649 -0.95132 0
M  V30 1319 C 126.887 -1.09988 -1.69073 0
M  V30 1320 C 127.2 0.358355 -1.92289 0
M  V30 1321 O 128.406 0.635466 -2.63958 0
M  V30 1322 C 126.862 -1.92012 -3.044 0
M  V30 1323 C 126.47 -3.42347 -2.88968 0
M  V30 1324 C 128.214 -1.8493 -3.82101 0
M  V30 1325 C 126.121 -4.16655 -4.19705 0
M  V30 1326 H 125.051 -0.407993 -0.63408 0
M  V30 1327 H 127.702 -1.49873 -1.05879 0
M  V30 1328 H 126.084 -1.44952 -3.68517 0
M  V30 1329 H 127.258 -3.97104 -2.33762 0
M  V30 1330 H 125.573 -3.50557 -2.24719 0
M  V30 1331 H 128.17 -2.37739 -4.78941 0
M  V30 1332 H 128.513 -0.817883 -4.08187 0
M  V30 1333 H 129.046 -2.29758 -3.2474 0
M  V30 1334 H 125.785 -5.20224 -3.98807 0
M  V30 1335 H 125.305 -3.66681 -4.74663 0
M  V30 1336 H 126.984 -4.24551 -4.88227 0
M  V30 1337 N 127.117 1.15442 -1.07289 0
M  V30 1338 C 128.064 2.20161 -0.692653 0
M  V30 1339 C 129.034 1.63073 0.31564 0
M  V30 1340 O 130.219 1.89725 0.202235 0
M  V30 1341 C 127.359 3.44967 -0.0959509 0
M  V30 1342 C 126.472 4.16256 -1.15564 0
M  V30 1343 C 125.607 5.28609 -0.524011 0
M  V30 1344 C 124.646 5.91715 -1.56653 0
M  V30 1345 N 123.783 6.9554 -0.957531 0
M  V30 1346 H 128.623 2.52037 -1.59002 0
M  V30 1347 H 126.16 1.2378 -0.794798 0
M  V30 1348 H 128.118 4.16341 0.267628 0
M  V30 1349 H 126.748 3.1361 0.764772 0
M  V30 1350 H 125.8 3.43385 -1.6368 0
M  V30 1351 H 127.112 4.59268 -1.94613 0
M  V30 1352 H 126.266 6.06604 -0.108032 0
M  V30 1353 H 125.005 4.86787 0.29825 0
M  V30 1354 H 124.01 5.12433 -1.9923 0
M  V30 1355 H 125.235 6.35614 -2.39107 0
M  V30 1356 H 123.181 6.55814 -0.156162 0
M  V30 1357 H 123.098 7.36977 -1.68526 0
M  V30 1358 H 124.366 7.77435 -0.567032 0
M  V30 1359 N 128.595 0.856903 1.32268 0
M  V30 1360 C 129.825 0.47475 2.01071 0
M  V30 1361 C 130.233 -0.933746 1.64553 0
M  V30 1362 O 129.576 -1.62114 0.863989 0
M  V30 1363 C 129.638 0.536746 3.55471 0
M  V30 1364 C 129.302 1.90453 4.15423 0
M  V30 1365 C 130.299 2.87029 4.33486 0
M  V30 1366 C 127.984 2.20229 4.51447 0
M  V30 1367 C 129.978 4.11532 4.86744 0
M  V30 1368 C 127.665 3.44984 5.0441 0
M  V30 1369 C 128.663 4.40452 5.22007 0
M  V30 1370 O 128.351 5.62998 5.73837 0
M  V30 1371 H 128.083 0.184778 0.650256 0
M  V30 1372 H 130.637 1.15615 1.69771 0
M  V30 1373 H 128.867 -0.20152 3.86175 0
M  V30 1374 H 130.556 0.169875 4.05544 0
M  V30 1375 H 131.322 2.6533 4.05986 0
M  V30 1376 H 127.201 1.46705 4.37034 0
M  V30 1377 H 130.745 4.86056 5.00395 0
M  V30 1378 H 126.642 3.66532 5.31342 0
M  V30 1379 H 127.41 5.64987 5.92226 0
M  V30 1380 N 130.073 -1.45103 0.615059 0
M  V30 1381 C 131.303 -2.06254 0.119596 0
M  V30 1382 C 131.711 -1.4591 -1.20445 0
M  V30 1383 O 131.054 -0.570384 -1.7462 0
M  V30 1384 C 131.116 -3.59396 -0.0865591 0
M  V30 1385 C 130.78 -4.42116 1.15683 0
M  V30 1386 C 131.777 -4.7662 2.07676 0
M  V30 1387 C 129.462 -4.82749 1.38775 0
M  V30 1388 C 131.456 -5.50622 3.21082 0
M  V30 1389 C 129.143 -5.56504 2.52481 0
M  V30 1390 C 130.141 -5.90358 3.43463 0
M  V30 1391 O 129.829 -6.62615 4.55189 0
M  V30 1392 H 129.561 -0.672423 0.0694512 0
M  V30 1393 H 132.115 -1.87219 0.844885 0
M  V30 1394 H 130.345 -3.76859 -0.866823 0
M  V30 1395 H 132.034 -4.02365 -0.534555 0
M  V30 1396 H 132.8 -4.4578 1.91063 0
M  V30 1397 H 128.679 -4.55829 0.688545 0
M  V30 1398 H 132.223 -5.76965 3.92119 0
M  V30 1399 H 128.12 -5.86759 2.69043 0
M  V30 1400 H 128.888 -6.81071 4.53966 0
M  V30 1401 N 131.551 -0.354651 -1.53558 0
M  V30 1402 C 132.799 0.237972 -2.00694 0
M  V30 1403 C 133.12 1.50173 -1.24391 0
M  V30 1404 O 132.39 1.92673 -0.354135 0
M  V30 1405 H 130.97 0.0909256 -0.741446 0
M  V30 1406 H 133.632 -0.478368 -1.88938 0
M  V30 1407 H 132.728 0.47264 -3.085 0
M  V30 1408 N 133.029 1.57378 -0.0835403 0
M  V30 1409 C 134.259 1.97975 0.590713 0
M  V30 1410 C 134.667 0.961083 1.62972 0
M  V30 1411 O 134.01 -0.0590879 1.83605 0
M  V30 1412 C 134.072 3.34915 1.3066 0
M  V30 1413 C 133.736 4.55069 0.419698 0
M  V30 1414 C 134.733 5.18868 -0.32749 0
M  V30 1415 C 132.418 5.0114 0.341137 0
M  V30 1416 C 134.412 6.27098 -1.14134 0
M  V30 1417 C 132.099 6.0924 -0.476374 0
M  V30 1418 C 133.097 6.72083 -1.21627 0
M  V30 1419 O 132.785 7.781 -2.02028 0
M  V30 1420 H 132.517 0.655818 0.163947 0
M  V30 1421 H 135.071 2.04807 -0.156021 0
M  V30 1422 H 133.301 3.24733 2.09966 0
M  V30 1423 H 134.99 3.60037 1.87424 0
M  V30 1424 H 135.756 4.84211 -0.276459 0
M  V30 1425 H 131.635 4.51996 0.90668 0
M  V30 1426 H 135.179 6.7608 -1.71935 0
M  V30 1427 H 131.076 6.43329 -0.528927 0
M  V30 1428 H 131.844 7.95034 -1.94586 0
M  V30 1429 N 134.507 -0.190092 1.56449 0
M  V30 1430 C 135.747 -0.916414 1.82705 0
M  V30 1431 C 136.111 -1.80235 0.661763 0
M  V30 1432 O 137.312 -2.56484 0.80433 0
M  V30 1433 C 135.583 -1.70691 3.14005 0
M  V30 1434 S 137.142 -2.48457 3.61683 0
M  V30 1435 H 133.96 -0.307281 0.64117 0
M  V30 1436 H 136.562 -0.179433 1.94675 0
M  V30 1437 H 135.266 -1.04677 3.96826 0
M  V30 1438 H 134.797 -2.48562 3.04927 0
M  V30 1439 H 136.812 -3.72756 3.27517 0
M  V30 1440 N 135.985 -1.50799 -0.457987 0
M  V30 1441 C 136.895 -1.73426 -1.57989 0
M  V30 1442 C 137.911 -0.617745 -1.62665 0
M  V30 1443 O 139.087 -0.897614 -1.80291 0
M  V30 1444 C 136.152 -1.83557 -2.94122 0
M  V30 1445 C 135.213 -3.07345 -2.99729 0
M  V30 1446 C 134.446 -3.16983 -4.29368 0
M  V30 1447 O 134.669 -2.33077 -5.20607 0
M  V30 1448 O 133.603 -4.09812 -4.40837 0
M  V30 1449 H 137.429 -2.68555 -1.41817 0
M  V30 1450 H 135.014 -1.35052 -0.638859 0
M  V30 1451 H 136.896 -1.92326 -3.74952 0
M  V30 1452 H 135.571 -0.916137 -3.10465 0
M  V30 1453 H 134.478 -3.04068 -2.1793 0
M  V30 1454 H 135.811 -3.9891 -2.88326 0
M  V30 1455 N 137.463 0.71206 -1.40597 0
M  V30 1456 C 138.74 1.46536 -1.29563 0
M  V30 1457 C 139.12 2.10931 0.0844217 0
M  V30 1458 O 138.468 2.00418 1.0975 0
M  V30 1459 C 138.678 2.49821 -2.43701 0
M  V30 1460 C 140.026 3.15551 -2.841 0
M  V30 1461 O 141.05 2.60142 -2.4332 0
M  V30 1462 O 139.909 4.15867 -3.54566 0
M  V30 1463 H 137.003 0.651801 -0.509004 0
M  V30 1464 H 139.549 0.743935 -1.52524 0
M  V30 1465 H 138.321 2.00778 -3.35863 0
M  V30 1466 H 137.944 3.29495 -2.22528 0
M  V30 1467 N 138.941 1.26152 0.944643 0
M  V30 1468 C 140.19 1.10883 1.68487 0
M  V30 1469 C 140.503 -0.348153 1.92477 0
M  V30 1470 O 141.709 -0.621459 2.64292 0
M  V30 1471 C 140.165 1.93624 3.03377 0
M  V30 1472 C 139.773 3.43875 2.87148 0
M  V30 1473 C 141.517 1.86954 3.81115 0
M  V30 1474 C 139.424 4.18875 4.1749 0
M  V30 1475 H 138.354 0.41135 0.631907 0
M  V30 1476 H 141.005 1.50433 1.05082 0
M  V30 1477 H 139.387 1.46904 3.67743 0
M  V30 1478 H 140.561 3.98338 2.31653 0
M  V30 1479 H 138.876 3.51744 2.22856 0
M  V30 1480 H 141.473 2.40275 4.77673 0
M  V30 1481 H 141.816 0.839518 4.07747 0
M  V30 1482 H 142.349 2.31477 3.23517 0
M  V30 1483 H 139.088 5.22332 3.96043 0
M  V30 1484 H 138.608 3.69193 4.72712 0
M  V30 1485 H 140.287 4.27134 4.85968 0
M  V30 1486 N 140.419 -1.14872 1.07899 0
M  V30 1487 C 141.329 -2.2341 0.715915 0
M  V30 1488 C 142.345 -1.71808 -0.275306 0
M  V30 1489 O 143.521 -2.01039 -0.120545 0
M  V30 1490 C 140.586 -3.46474 0.125168 0
M  V30 1491 C 139.647 -4.13039 1.17034 0
M  V30 1492 C 138.88 -5.30229 0.607688 0
M  V30 1493 O 139.103 -5.675 -0.574497 0
M  V30 1494 O 138.037 -5.86444 1.35526 0
M  V30 1495 H 141.863 -2.56808 1.62121 0
M  V30 1496 H 139.448 -1.22702 0.852322 0
M  V30 1497 H 141.33 -4.20917 -0.201729 0
M  V30 1498 H 140.005 -3.14811 -0.753364 0
M  V30 1499 H 138.912 -3.40493 1.54968 0
M  V30 1500 H 140.245 -4.48796 2.02097 0
M  V30 1501 N 141.898 -0.863906 -1.31812 0
M  V30 1502 C 143.175 -0.39275 -1.91616 0
M  V30 1503 C 143.555 1.12461 -1.7865 0
M  V30 1504 O 142.903 1.95045 -1.19037 0
M  V30 1505 C 143.113 -0.867385 -3.38049 0
M  V30 1506 C 144.461 -0.889966 -4.15168 0
M  V30 1507 O 145.485 -0.812635 -3.46806 0
M  V30 1508 O 144.344 -1.00079 -5.37258 0
M  V30 1509 H 141.438 -0.116358 -0.818773 0
M  V30 1510 H 143.984 -0.951418 -1.40521 0
M  V30 1511 H 142.756 -1.91081 -3.41473 0
M  V30 1512 H 142.379 -0.286687 -3.96565 0
M  V30 1513 N 143.376 1.44774 -0.622745 0
M  V30 1514 C 144.286 2.34433 0.0886031 0
M  V30 1515 C 145.302 1.52131 0.844529 0
M  V30 1516 O 146.478 1.84886 0.798691 0
M  V30 1517 C 143.543 3.29986 1.0635 0
M  V30 1518 C 142.604 4.28195 0.307873 0
M  V30 1519 C 141.837 5.19183 1.23633 0
M  V30 1520 O 142.06 5.13918 2.47476 0
M  V30 1521 O 140.994 5.97515 0.725189 0
M  V30 1522 H 144.82 2.96693 -0.648599 0
M  V30 1523 H 142.405 1.44408 -0.382957 0
M  V30 1524 H 144.287 3.88825 1.6246 0
M  V30 1525 H 142.962 2.70269 1.78146 0
M  V30 1526 H 141.869 3.72927 -0.296064 0
M  V30 1527 H 143.202 4.90808 -0.3699 0
M  V30 1528 N 144.854 0.36279 1.53368 0
M  V30 1529 C 146.27 0.0116182 1.59596 0
M  V30 1530 C 146.47 -1.47012 1.37803 0
M  V30 1531 O 145.526 -2.23136 1.18181 0
M  V30 1532 C 146.839 0.465052 2.97082 0
M  V30 1533 C 148.387 0.419033 3.10182 0
M  V30 1534 C 148.862 0.848235 4.50077 0
M  V30 1535 N 150.353 0.803183 4.56183 0
M  V30 1536 C 151.088 1.107 5.62613 0
M  V30 1537 N 150.584 1.47996 6.76808 0
M  V30 1538 N 152.377 1.02998 5.52583 0
M  V30 1539 H 144.528 1.32775 1.65785 0
M  V30 1540 H 146.791 0.542518 0.777417 0
M  V30 1541 H 146.497 1.49892 3.18159 0
M  V30 1542 H 146.371 -0.149786 3.76902 0
M  V30 1543 H 148.758 -0.605696 2.88817 0
M  V30 1544 H 148.839 1.06933 2.32377 0
M  V30 1545 H 148.483 1.87107 4.7218 0
M  V30 1546 H 148.413 0.175218 5.26308 0
M  V30 1547 H 150.904 0.52838 3.74188 0
M  V30 1548 H 151.217 1.69613 7.53957 0
M  V30 1549 H 149.562 1.51859 6.78206 0
M  V30 1550 H 152.753 0.737817 4.62249 0
M  V30 1551 H 152.926 1.2701 6.35431 0
M  V30 1552 N 146.332 -1.57332 0.0918853 0
M  V30 1553 C 147.58 -1.93853 -0.571446 0
M  V30 1554 C 147.901 -0.974212 -1.6892 0
M  V30 1555 O 147.171 -0.0257254 -1.95883 0
M  V30 1556 H 145.751 -0.715666 -0.214082 0
M  V30 1557 H 148.413 -1.94287 0.154464 0
M  V30 1558 H 147.509 -2.96191 -0.983729 0
M  V30 1559 N 147.81 0.181792 -1.56548 0
M  V30 1560 C 149.04 0.914618 -1.85252 0
M  V30 1561 C 149.448 1.76791 -0.673914 0
M  V30 1562 O 148.791 1.80009 0.366416 0
M  V30 1563 C 148.853 1.85019 -3.08234 0
M  V30 1564 C 148.517 1.17754 -4.41569 0
M  V30 1565 C 149.514 0.548035 -5.17003 0
M  V30 1566 C 147.199 1.17742 -4.88305 0
M  V30 1567 C 149.193 -0.0726128 -6.37359 0
M  V30 1568 C 146.88 0.552946 -6.08593 0
M  V30 1569 C 147.878 -0.070978 -6.82963 0
M  V30 1570 O 147.566 -0.685635 -8.00971 0
M  V30 1571 H 147.298 0.271695 -0.618998 0
M  V30 1572 H 149.852 0.189944 -2.0452 0
M  V30 1573 H 148.082 2.61491 -2.84885 0
M  V30 1574 H 149.771 2.45195 -3.23472 0
M  V30 1575 H 150.537 0.540174 -4.81982 0
M  V30 1576 H 146.416 1.65246 -4.30366 0
M  V30 1577 H 149.96 -0.560213 -6.95347 0
M  V30 1578 H 145.857 0.558354 -6.43081 0
M  V30 1579 H 146.625 -0.58385 -8.16415 0
M  V30 1580 N 149.288 1.51039 0.449983 0
M  V30 1581 C 150.516 1.66869 1.2232 0
M  V30 1582 C 150.931 0.360727 1.85322 0
M  V30 1583 O 150.288 -0.659531 1.70166 0
M  V30 1584 C 150.339 2.77524 2.31652 0
M  V30 1585 O 150.06 4.03252 1.7123 0
M  V30 1586 C 151.561 3.04512 3.2216 0
M  V30 1587 H 148.781 0.560326 0.369155 0
M  V30 1588 H 151.325 1.97385 0.534719 0
M  V30 1589 H 149.48 2.49642 2.96239 0
M  V30 1590 H 149.894 4.64609 2.43389 0
M  V30 1591 H 151.368 3.85551 3.95038 0
M  V30 1592 H 151.845 2.16415 3.8218 0
M  V30 1593 H 152.451 3.34005 2.63288 0
M  V30 1594 N 150.766 -0.704594 1.40972 0
M  V30 1595 C 152.015 -1.46018 1.39146 0
M  V30 1596 C 152.328 -1.956 0.000589254 0
M  V30 1597 O 153.534 -2.71137 -0.1403 0
M  V30 1598 C 151.99 -2.63996 2.4461 0
M  V30 1599 C 151.598 -2.21238 3.89561 0
M  V30 1600 C 153.342 -3.41677 2.51907 0
M  V30 1601 C 151.249 -3.3612 4.86598 0
M  V30 1602 H 150.179 -0.548444 0.517422 0
M  V30 1603 H 152.83 -0.765784 1.66757 0
M  V30 1604 H 151.212 -3.3566 2.10115 0
M  V30 1605 H 152.386 -1.56923 4.33257 0
M  V30 1606 H 150.701 -1.56574 3.85841 0
M  V30 1607 H 153.298 -4.27182 3.2159 0
M  V30 1608 H 153.641 -3.86247 1.55303 0
M  V30 1609 H 154.174 -2.77064 2.85448 0
M  V30 1610 H 150.913 -2.96572 5.84573 0
M  V30 1611 H 150.433 -3.99315 4.47557 0
M  V30 1612 H 152.112 -4.02029 5.06934 0
M  V30 1613 N 152.244 -1.26651 -0.937939 0
M  V30 1614 C 153.492 -1.12165 -1.68118 0
M  V30 1615 C 153.813 0.334983 -1.92101 0
M  V30 1616 O 153.083 1.23583 -1.52 0
M  V30 1617 H 151.663 -0.412093 -0.623048 0
M  V30 1618 H 154.325 -1.59027 -1.12678 0
M  V30 1619 H 153.421 -1.64289 -2.6536 0
M  V30 1620 N 153.722 1.14298 -1.08507 0
M  V30 1621 C 154.652 2.21542 -0.737646 0
M  V30 1622 C 155.633 1.67773 0.280377 0
M  V30 1623 O 156.818 1.93616 0.150521 0
M  V30 1624 C 153.948 3.46988 -0.147259 0
M  V30 1625 C 152.902 4.13789 -1.09374 0
M  V30 1626 C 152.228 5.33449 -0.365524 0
M  V30 1627 C 153.528 4.62208 -2.4323 0
M  V30 1628 H 155.222 2.5086 -1.6343 0
M  V30 1629 H 152.768 1.20576 -0.787243 0
M  V30 1630 H 154.721 4.21262 0.107808 0
M  V30 1631 H 153.445 3.17037 0.784538 0
M  V30 1632 H 152.104 3.4147 -1.33393 0
M  V30 1633 H 151.752 4.99759 0.57011 0
M  V30 1634 H 151.452 5.79088 -0.996512 0
M  V30 1635 H 152.976 6.10485 -0.118534 0
M  V30 1636 H 154.39 5.27952 -2.23472 0
M  V30 1637 H 152.787 5.18553 -3.02031 0
M  V30 1638 H 153.857 3.77224 -3.04681 0
M  V30 1639 N 155.201 0.870884 1.31352 0
M  V30 1640 C 156.448 0.482273 1.96673 0
M  V30 1641 C 156.776 -0.965638 1.68836 0
M  V30 1642 O 156.031 -1.69514 0.977937 0
M  V30 1643 C 156.33 0.687157 3.50732 0
M  V30 1644 C 155.996 2.108 3.9859 0
M  V30 1645 C 154.658 2.49656 4.1137 0
M  V30 1646 C 157.01 3.03459 4.23748 0
M  V30 1647 C 154.338 3.80412 4.46659 0
M  V30 1648 C 156.69 4.3373 4.60501 0
M  V30 1649 C 155.354 4.725 4.71487 0
M  V30 1650 H 154.624 0.176476 0.719679 0
M  V30 1651 H 157.271 1.10405 1.56471 0
M  V30 1652 H 155.576 -0.0177476 3.91796 0
M  V30 1653 H 157.273 0.366284 3.99324 0
M  V30 1654 H 153.863 1.79633 3.8914 0
M  V30 1655 H 158.047 2.74665 4.13368 0
M  V30 1656 H 153.303 4.1021 4.53362 0
M  V30 1657 H 157.477 5.05578 4.78919 0
M  V30 1658 H 155.104 5.73859 4.98588 0
M  V30 1659 N 156.679 -1.44442 0.630414 0
M  V30 1660 C 157.927 -2.01653 0.134351 0
M  V30 1661 C 158.248 -1.49836 -1.24796 0
M  V30 1662 O 157.518 -0.701684 -1.82902 0
M  V30 1663 H 156.098 -0.74554 0.0466769 0
M  V30 1664 H 158.76 -1.76952 0.816955 0
M  V30 1665 H 157.856 -3.11935 0.101498 0
M  V30 1666 N 158.157 -0.370918 -1.53173 0
M  V30 1667 C 159.12 0.460778 -2.24521 0
M  V30 1668 C 160.12 1.00536 -1.25496 0
M  V30 1669 O 161.31 0.890266 -1.49733 0
M  V30 1670 C 158.442 1.64457 -2.98608 0
M  V30 1671 H 159.635 -0.163613 -2.99453 0
M  V30 1672 H 157.188 -0.122699 -1.55818 0
M  V30 1673 H 157.923 2.30691 -2.2793 0
M  V30 1674 H 157.708 1.26099 -3.7127 0
M  V30 1675 H 159.198 2.23384 -3.5283 0
M  V30 1676 N 159.635 1.57281 -0.100228 0
M  V30 1677 C 160.863 1.98879 0.570509 0
M  V30 1678 C 161.278 0.979476 1.61405 0
M  V30 1679 O 160.635 -0.0302288 1.82475 0
M  V30 1680 C 160.686 3.4052 1.2136 0
M  V30 1681 O 160.407 4.37588 0.211786 0
M  V30 1682 C 161.908 3.97149 1.96945 0
M  V30 1683 H 159.128 0.653428 0.152555 0
M  V30 1684 H 161.672 2.03697 -0.18103 0
M  V30 1685 H 159.827 3.367 1.91603 0
M  V30 1686 H 160.241 5.20118 0.676607 0
M  V30 1687 H 161.715 4.98393 2.37294 0
M  V30 1688 H 162.192 3.3525 2.83733 0
M  V30 1689 H 162.798 4.04458 1.31506 0
M  V30 1690 N 161.113 -0.173488 1.56642 0
M  V30 1691 C 162.341 -0.906095 1.86004 0
M  V30 1692 C 162.756 -1.75921 0.685355 0
M  V30 1693 O 162.113 -1.79198 -0.345578 0
M  V30 1694 C 162.164 -1.78462 3.14378 0
M  V30 1695 O 161.885 -0.965914 4.27319 0
M  V30 1696 C 163.386 -2.62707 3.57071 0
M  V30 1697 H 160.606 -0.263341 0.617165 0
M  V30 1698 H 163.15 -0.174236 2.03756 0
M  V30 1699 H 161.305 -2.46984 2.98459 0
M  V30 1700 H 161.719 -1.56655 5.00559 0
M  V30 1701 H 163.193 -3.19969 4.49804 0
M  V30 1702 H 163.67 -3.37472 2.81086 0
M  V30 1703 H 164.276 -1.99521 3.75595 0
M  V30 1704 N 162.591 -1.51276 -0.441967 0
M  V30 1705 C 163.839 -1.63392 -1.18943 0
M  V30 1706 C 164.16 -0.350159 -1.9183 0
M  V30 1707 O 163.43 0.633784 -1.85364 0
M  V30 1708 H 162.01 -0.602164 -0.442049 0
M  V30 1709 H 164.672 -1.88186 -0.507165 0
M  V30 1710 H 163.768 -2.45934 -1.92154 0
M  V30 1711 N 164.069 0.697108 -1.41344 0
M  V30 1712 C 165.317 1.45426 -1.40341 0
M  V30 1713 C 165.638 1.94996 -0.0128787 0
M  V30 1714 O 164.908 1.71599 0.945027 0
M  V30 1715 H 163.488 0.539594 -0.516573 0
M  V30 1716 H 166.15 0.825201 -1.76569 0
M  V30 1717 H 165.246 2.31817 -2.08967 0
M  V30 1718 N 165.547 1.27147 0.931209 0
M  V30 1719 C 166.772 1.16191 1.71797 0
M  V30 1720 C 167.197 -0.278004 1.86034 0
M  V30 1721 O 166.555 -1.20137 1.35782 0
M  V30 1722 C 166.603 1.84673 3.09723 0
M  V30 1723 O 165.707 1.14231 3.96264 0
M  V30 1724 H 165.048 0.404303 0.526721 0
M  V30 1725 H 167.578 1.68152 1.1656 0
M  V30 1726 H 167.588 1.91893 3.60057 0
M  V30 1727 H 166.263 2.89421 2.98677 0
M  V30 1728 H 164.84 1.15056 3.54706 0
M  V30 1729 N 167.025 -1.13721 1.09112 0
M  V30 1730 C 168.441 -1.36914 0.820174 0
M  V30 1731 C 168.641 -1.93356 -0.567079 0
M  V30 1732 O 167.697 -2.15093 -1.32255 0
M  V30 1733 C 169.01 -2.3235 1.90877 0
M  V30 1734 C 170.558 -2.45973 1.93562 0
M  V30 1735 C 171.033 -3.44714 3.01556 0
M  V30 1736 N 172.524 -3.52263 3.00775 0
M  V30 1737 C 173.259 -4.28536 3.80978 0
M  V30 1738 N 172.755 -5.07991 4.71081 0
M  V30 1739 N 174.548 -4.23804 3.69251 0
M  V30 1740 H 166.699 -0.754348 1.98553 0
M  V30 1741 H 168.962 -0.3944 0.862063 0
M  V30 1742 H 168.668 -1.98027 2.90651 0
M  V30 1743 H 168.542 -3.32332 1.78424 0
M  V30 1744 H 170.929 -2.79584 0.944286 0
M  V30 1745 H 171.01 -1.45926 2.10093 0
M  V30 1746 H 170.654 -3.11835 4.00901 0
M  V30 1747 H 170.584 -4.44558 2.82269 0
M  V30 1748 H 173.075 -2.95567 2.35475 0
M  V30 1749 H 173.388 -5.63487 5.28869 0
M  V30 1750 H 171.733 -5.07235 4.75119 0
M  V30 1751 H 174.924 -3.60806 2.98222 0
M  V30 1752 H 175.097 -4.82995 4.31995 0
M  V30 1753 N 168.503 -0.877838 -1.30888 0
M  V30 1754 C 169.78 -0.413052 -1.91189 0
M  V30 1755 C 170.16 1.1056 -1.79832 0
M  V30 1756 O 169.508 1.93771 -1.21099 0
M  V30 1757 C 169.718 -0.903191 -3.3711 0
M  V30 1758 C 171.066 -0.93395 -4.14201 0
M  V30 1759 O 172.09 -0.849373 -3.45925 0
M  V30 1760 O 170.949 -1.05772 -5.36167 0
M  V30 1761 H 168.043 -0.125035 -0.817493 0
M  V30 1762 H 170.589 -0.966269 -1.39504 0
M  V30 1763 H 169.361 -1.94692 -3.39427 0
M  V30 1764 H 168.984 -0.328732 -3.96239 0
M  V30 1765 N 169.982 1.44106 -0.638065 0
M  V30 1766 C 171.21 2.06336 -0.152615 0
M  V30 1767 C 171.625 1.47731 1.17563 0
M  V30 1768 O 170.982 0.602806 1.72257 0
M  V30 1769 C 171.033 3.61479 -0.0391491 0
M  V30 1770 O 170.754 4.17903 -1.31487 0
M  V30 1771 C 172.255 4.40757 0.474176 0
M  V30 1772 H 169.475 0.665862 -0.0828776 0
M  V30 1773 H 172.019 1.84862 -0.87443 0
M  V30 1774 H 170.174 3.82191 0.633142 0
M  V30 1775 H 170.588 5.11416 -1.16421 0
M  V30 1776 H 172.062 5.49707 0.502562 0
M  V30 1777 H 172.539 4.12697 1.50258 0
M  V30 1778 H 173.145 4.24979 -0.165102 0
M  V30 1779 N 171.46 0.379036 1.52974 0
M  V30 1780 C 172.41 -0.477772 2.22938 0
M  V30 1781 C 173.394 -1.03792 1.22948 0
M  V30 1782 O 174.586 -0.965725 1.48333 0
M  V30 1783 C 171.715 -1.60994 3.03209 0
M  V30 1784 C 170.801 -1.06203 4.10587 0
M  V30 1785 N 171.192 -0.238214 5.05239 0
M  V30 1786 C 169.49 -1.33554 4.25534 0
M  V30 1787 C 170.191 0.0633235 5.81666 0
M  V30 1788 N 169.167 -0.537901 5.40932 0
M  V30 1789 H 172.969 0.158295 2.93473 0
M  V30 1790 H 170.483 0.187778 1.61311 0
M  V30 1791 H 172.48 -2.23607 3.5186 0
M  V30 1792 H 171.14 -2.24893 2.34207 0
M  V30 1793 H 172.151 0.123695 5.17752 0
M  V30 1794 H 168.828 -1.97632 3.6776 0
M  V30 1795 H 170.218 0.730161 6.67921 0
M  V30 1796 N 172.938 -1.57226 0.108567 0
M  V30 1797 C 174.349 -1.8195 -0.418464 0
M  V30 1798 C 174.7 -1.02508 -1.67292 0
M  V30 1799 O 173.825 -0.258496 -2.14851 0
M  V30 1800 C 174.42 -3.30028 -0.765979 0
M  V30 1801 C 172.979 -3.55469 -1.23769 0
M  V30 1802 C 172.126 -2.7625 -0.241106 0
M  V30 1803 H 175.077 -1.55149 0.33384 0
M  V30 1804 H 175.098 -3.44086 -1.62434 0
M  V30 1805 H 174.61 -3.87821 0.147219 0
M  V30 1806 H 172.711 -3.03022 -2.16814 0
M  V30 1807 H 172.824 -4.6408 -1.19022 0
M  V30 1808 H 171.188 -2.44133 -0.72602 0
M  V30 1809 H 171.971 -3.36797 0.665007 0
M  V30 1810 N 174.416 0.165178 -1.56732 0
M  V30 1811 C 175.693 0.908443 -1.73224 0
M  V30 1812 C 176.073 2.0013 -0.67165 0
M  V30 1813 O 175.421 2.26353 0.31253 0
M  V30 1814 C 175.631 1.46756 -3.16644 0
M  V30 1815 C 176.979 1.93809 -3.77787 0
M  V30 1816 O 178.003 1.56537 -3.1996 0
M  V30 1817 O 176.862 2.62486 -4.79336 0
M  V30 1818 H 173.956 0.428025 -0.707618 0
M  V30 1819 H 176.502 0.152526 -1.69013 0
M  V30 1820 H 175.274 0.68129 -3.85323 0
M  V30 1821 H 174.897 2.28749 -3.25207 0
M  V30 1822 N 175.894 1.51508 0.433938 0
M  V30 1823 C 177.142 1.6402 1.18075 0
M  V30 1824 C 177.463 0.360328 1.91642 0
M  V30 1825 O 176.733 -0.623945 1.85698 0
M  V30 1826 H 175.313 0.6045 0.43885 0
M  V30 1827 H 177.975 1.88452 0.497178 0
M  V30 1828 H 177.071 2.46949 1.90847 0
M  V30 1829 N 177.372 -0.689602 1.41712 0
M  V30 1830 C 178.783 -1.26973 1.36875 0
M  V30 1831 C 179.134 -1.96124 0.054748 0
M  V30 1832 O 178.259 -1.99141 -0.84687 0
M  V30 1833 C 178.854 -2.30912 2.47922 0
M  V30 1834 C 177.413 -2.84486 2.46464 0
M  V30 1835 C 176.56 -1.58603 2.27465 0
M  V30 1836 H 179.511 -0.48396 1.51141 0
M  V30 1837 H 179.532 -3.12331 2.17323 0
M  V30 1838 H 179.044 -1.80554 3.43543 0
M  V30 1839 H 177.145 -3.39005 1.54617 0
M  V30 1840 H 177.258 -3.34511 3.42986 0
M  V30 1841 H 175.622 -1.84632 1.75451 0
M  V30 1842 H 176.405 -1.10233 3.25121 0
M  V30 1843 N 178.85 -1.27639 -0.924453 0
M  V30 1844 C 180.127 -1.04887 -1.651 0
M  V30 1845 C 180.507 0.415327 -2.06974 0
M  V30 1846 O 179.855 1.39923 -1.80648 0
M  V30 1847 C 180.065 -2.01348 -2.85061 0
M  V30 1848 C 181.413 -2.30899 -3.56329 0
M  V30 1849 O 182.437 -1.99348 -2.95193 0
M  V30 1850 O 181.296 -2.84699 -4.66485 0
M  V30 1851 H 178.39 -0.400083 -0.723784 0
M  V30 1852 H 180.936 -1.38916 -0.974703 0
M  V30 1853 H 179.708 -3.0008 -2.51133 0
M  V30 1854 H 179.331 -1.679 -3.6041 0
M  V30 1855 N 180.328 1.1314 -1.09713 0
M  V30 1856 C 181.258 2.20748 -0.761102 0
M  V30 1857 C 182.239 1.68061 0.262566 0
M  V30 1858 O 183.424 1.93765 0.129977 0
M  V30 1859 C 180.554 3.46812 -0.184054 0
M  V30 1860 C 179.508 4.12606 -1.13757 0
M  V30 1861 C 178.834 5.33031 -0.422083 0
M  V30 1862 C 180.134 4.59603 -2.48118 0
M  V30 1863 H 181.828 2.49113 -1.66082 0
M  V30 1864 H 179.374 1.19734 -0.799987 0
M  V30 1865 H 181.327 4.21353 0.0631215 0
M  V30 1866 H 180.051 3.17851 0.750868 0
M  V30 1867 H 178.71 3.40036 -1.37007 0
M  V30 1868 H 178.358 5.00335 0.517072 0
M  V30 1869 H 178.058 5.77999 -1.05788 0
M  V30 1870 H 179.582 6.10325 -0.183277 0
M  V30 1871 H 180.996 5.25552 -2.29059 0
M  V30 1872 H 179.393 5.15321 -3.07514 0
M  V30 1873 H 180.463 3.73971 -3.08665 0
M  V30 1874 N 181.806 0.884767 1.30421 0
M  V30 1875 C 183.053 0.503105 1.96151 0
M  V30 1876 C 183.381 -0.947676 1.69851 0
M  V30 1877 O 182.636 -1.68467 0.995861 0
M  V30 1878 C 182.935 0.724318 3.49983 0
M  V30 1879 C 182.601 2.15015 3.96332 0
M  V30 1880 C 181.263 2.54005 4.08699 0
M  V30 1881 C 183.615 3.07936 4.20505 0
M  V30 1882 C 180.943 3.85128 4.42599 0
M  V30 1883 C 183.295 4.3859 4.55874 0
M  V30 1884 C 181.959 4.77474 4.66449 0
M  V30 1885 H 181.229 0.184099 0.717766 0
M  V30 1886 H 183.876 1.12058 1.55291 0
M  V30 1887 H 182.181 0.0238086 3.91793 0
M  V30 1888 H 183.878 0.408617 3.98913 0
M  V30 1889 H 180.468 1.8375 3.87213 0
M  V30 1890 H 184.652 2.79033 4.10431 0
M  V30 1891 H 179.908 4.14996 4.48986 0
M  V30 1892 H 184.082 5.10629 4.7353 0
M  V30 1893 H 181.709 5.79115 4.92473 0
M  V30 1894 N 183.284 -1.43765 0.645699 0
M  V30 1895 C 184.231 -2.30745 -0.0504648 0
M  V30 1896 C 185.201 -1.4432 -0.822241 0
M  V30 1897 O 186.386 -1.73202 -0.800358 0
M  V30 1898 C 183.526 -3.29802 -1.0161 0
M  V30 1899 C 182.639 -4.31326 -0.241219 0
M  V30 1900 C 181.774 -5.17469 -1.19998 0
M  V30 1901 C 180.813 -6.10691 -0.415094 0
M  V30 1902 N 179.95 -6.89483 -1.32506 0
M  V30 1903 H 184.79 -2.8973 0.697155 0
M  V30 1904 H 182.327 -1.42738 0.355563 0
M  V30 1905 H 184.285 -3.85734 -1.58949 0
M  V30 1906 H 182.915 -2.72483 -1.73069 0
M  V30 1907 H 181.967 -3.77749 0.448334 0
M  V30 1908 H 183.279 -4.9743 0.369437 0
M  V30 1909 H 182.433 -5.7799 -1.84424 0
M  V30 1910 H 181.172 -4.51473 -1.84455 0
M  V30 1911 H 180.177 -5.49265 0.242565 0
M  V30 1912 H 181.402 -6.78727 0.224966 0
M  V30 1913 H 179.348 -6.26142 -1.95657 0
M  V30 1914 H 179.265 -7.52081 -0.768783 0
M  V30 1915 H 180.533 -7.54516 -1.9577 0
M  V30 1916 N 184.763 -0.387143 -1.52771 0
M  V30 1917 C 185.726 0.436939 -2.24997 0
M  V30 1918 C 186.726 0.991991 -1.26555 0
M  V30 1919 O 187.916 0.874335 -1.50669 0
M  V30 1920 C 185.048 1.61281 -3.00335 0
M  V30 1921 H 186.241 -0.195365 -2.99263 0
M  V30 1922 H 183.794 -0.139218 -1.55679 0
M  V30 1923 H 184.529 2.2826 -2.30364 0
M  V30 1924 H 184.314 1.22154 -3.72587 0
M  V30 1925 H 185.804 2.19629 -3.5518 0
M  V30 1926 N 186.241 1.57166 -0.116904 0
M  V30 1927 C 187.471 1.99184 0.548586 0
M  V30 1928 C 187.879 0.995436 1.60897 0
M  V30 1929 O 187.222 -0.0201293 1.83689 0
M  V30 1930 C 187.284 3.37611 1.23526 0
M  V30 1931 C 186.948 4.55857 0.323077 0
M  V30 1932 C 187.945 5.18056 -0.437476 0
M  V30 1933 C 185.63 5.01751 0.234761 0
M  V30 1934 C 187.624 6.24536 -1.2741 0
M  V30 1935 C 185.311 6.08093 -0.605496 0
M  V30 1936 C 186.309 6.69352 -1.35856 0
M  V30 1937 O 185.997 7.7364 -2.18487 0
M  V30 1938 H 185.729 0.659148 0.149999 0
M  V30 1939 H 188.283 2.0443 -0.199428 0
M  V30 1940 H 186.513 3.29113 2.0303 0
M  V30 1941 H 188.202 3.63932 1.79745 0
M  V30 1942 H 188.968 4.83516 -0.379105 0
M  V30 1943 H 184.847 4.53817 0.810601 0
M  V30 1944 H 188.391 6.72281 -1.86237 0
M  V30 1945 H 184.288 6.42063 -0.665268 0
M  V30 1946 H 185.056 7.90727 -2.11406 0
M  V30 1947 N 187.719 -0.156864 1.56817 0
M  V30 1948 C 188.996 -0.899244 1.73704 0
M  V30 1949 C 189.376 -1.99771 0.682254 0
M  V30 1950 O 188.724 -2.26515 -0.300522 0
M  V30 1951 C 188.934 -1.45075 3.17418 0
M  V30 1952 C 190.282 -1.91802 3.7881 0
M  V30 1953 O 191.306 -1.54838 3.20786 0
M  V30 1954 O 190.165 -2.5994 4.80722 0
M  V30 1955 H 187.259 -0.424267 0.709878 0
M  V30 1956 H 189.805 -0.143561 1.69092 0
M  V30 1957 H 188.577 -0.660846 3.85679 0
M  V30 1958 H 188.2 -2.27021 3.26416 0
M  V30 1959 N 189.197 -1.51736 -0.425897 0
M  V30 1960 C 190.16 -1.73271 -1.50032 0
M  V30 1961 C 191.16 -0.602639 -1.4908 0
M  V30 1962 O 192.35 -0.87033 -1.509 0
M  V30 1963 C 189.482 -1.79969 -2.89523 0
M  V30 1964 H 190.675 -2.69172 -1.32237 0
M  V30 1965 H 188.228 -1.41899 -0.65532 0
M  V30 1966 H 188.963 -0.859241 -3.1271 0
M  V30 1967 H 188.748 -2.62109 -2.91619 0
M  V30 1968 H 190.238 -1.9843 -3.67444 0
M  V30 1969 N 190.675 0.682077 -1.42076 0
M  V30 1970 C 191.638 1.77756 -1.44691 0
M  V30 1971 C 192.638 1.5726 -0.335535 0
M  V30 1972 O 193.828 1.63686 -0.596037 0
M  V30 1973 C 190.96 3.16301 -1.27146 0
M  V30 1974 H 192.153 1.76826 -2.42224 0
M  V30 1975 H 189.706 0.891012 -1.28416 0
M  V30 1976 H 190.441 3.22862 -0.305075 0
M  V30 1977 H 190.226 3.32581 -2.07683 0
M  V30 1978 H 191.716 3.96241 -1.31843 0
M  V30 1979 N 192.153 1.28127 0.917671 0
M  V30 1980 C 193.1 1.11717 2.0196 0
M  V30 1981 C 194.07 0.0153929 1.66093 0
M  V30 1982 O 195.255 0.179596 1.89953 0
M  V30 1983 C 192.395 0.780927 3.36148 0
M  V30 1984 C 191.508 1.96135 3.84909 0
M  V30 1985 C 190.643 1.56609 5.0759 0
M  V30 1986 C 189.682 2.71339 5.48673 0
M  V30 1987 N 188.819 2.32332 6.62545 0
M  V30 1988 H 193.659 2.06003 2.15329 0
M  V30 1989 H 191.196 1.02535 1.05475 0
M  V30 1990 H 193.154 0.56675 4.13333 0
M  V30 1991 H 191.784 -0.124998 3.22558 0
M  V30 1992 H 190.836 2.28777 3.03916 0
M  V30 1993 H 192.148 2.82165 4.1132 0
M  V30 1994 H 191.302 1.31374 5.92305 0
M  V30 1995 H 190.041 0.677014 4.82978 0
M  V30 1996 H 189.046 2.97276 4.62501 0
M  V30 1997 H 190.271 3.60882 5.75274 0
M  V30 1998 H 188.217 1.45889 6.39572 0
M  V30 1999 H 188.134 3.11899 6.88662 0
M  V30 2000 H 189.402 2.10371 7.50576 0
M  V30 2001 N 193.631 -1.12557 1.10312 0
M  V30 2002 C 194.879 -1.83675 0.843091 0
M  V30 2003 C 195.2 -1.84435 -0.633131 0
M  V30 2004 O 194.47 -1.30657 -1.45964 0
M  V30 2005 H 193.05 -0.680138 0.308904 0
M  V30 2006 H 195.712 -1.36301 1.39313 0
M  V30 2007 H 194.808 -2.87908 1.2048 0
M  V30 2008 N 195.109 -0.891671 -1.2995 0
M  V30 2009 C 196.072 -0.36828 -2.26222 0
M  V30 2010 C 197.072 0.493014 -1.53056 0
M  V30 2011 O 198.262 0.299213 -1.71611 0
M  V30 2012 C 195.394 0.47442 -3.37583 0
M  V30 2013 H 196.587 -1.21844 -2.74033 0
M  V30 2014 H 194.14 -0.669107 -1.41254 0
M  V30 2015 H 194.875 1.34489 -2.95099 0
M  V30 2016 H 194.66 -0.142615 -3.91841 0
M  V30 2017 H 196.15 0.83218 -4.09224 0
M  V30 2018 N 196.587 1.43421 -0.653314 0
M  V30 2019 C 197.812 2.06678 -0.172846 0
M  V30 2020 C 198.237 1.48648 1.15262 0
M  V30 2021 O 197.595 0.596457 1.71208 0
M  V30 2022 C 197.643 3.60474 -0.0953184 0
M  V30 2023 O 196.747 4.01487 0.942442 0
M  V30 2024 H 196.088 0.657181 -0.0949155 0
M  V30 2025 H 198.618 1.83925 -0.896265 0
M  V30 2026 H 198.628 4.07905 0.0879728 0
M  V30 2027 H 197.303 4.02088 -1.06291 0
M  V30 2028 H 195.88 3.65646 0.731932 0
M  V30 2029 N 198.065 0.39524 1.52563 0
M  V30 2030 C 199.013 -0.451859 2.28169 0
M  V30 2031 C 200.007 -1.05792 1.32304 0
M  V30 2032 O 201.213 -0.997718 1.49818 0
M  V30 2033 H 197.588 -0.164481 0.733792 0
M  V30 2034 H 199.559 0.207199 2.9768 0
M  V30 2035 C 198.308 -1.56385 3.10546 0
M  V30 2036 H 197.631 -1.10682 3.84174 0
M  V30 2037 H 199.071 -2.13067 3.66577 0
M  V30 2038 C 197.53 -2.52328 2.23231 0
M  V30 2039 O 198.06 -3.5588 1.86312 0
M  V30 2040 N 196.266 -2.22209 1.87274 0
M  V30 2041 H 195.813 -1.38033 2.17496 0
M  V30 2042 H 195.771 -2.86652 1.29143 0
M  V30 2043 N 199.544 -1.57102 0.125237 0
M  V30 2044 C 200.955 -1.82384 -0.399142 0
M  V30 2045 C 201.306 -1.04276 -1.66195 0
M  V30 2046 O 200.431 -0.281269 -2.14564 0
M  V30 2047 C 201.026 -3.30821 -0.730932 0
M  V30 2048 C 199.585 -3.56762 -1.19992 0
M  V30 2049 C 198.732 -2.7649 -0.211792 0
M  V30 2050 H 201.683 -1.54786 0.350277 0
M  V30 2051 H 201.704 -3.4579 -1.58775 0
M  V30 2052 H 201.216 -3.87643 0.188345 0
M  V30 2053 H 199.317 -3.05305 -2.13588 0
M  V30 2054 H 199.43 -4.65317 -1.14093 0
M  V30 2055 H 197.794 -2.4489 -0.700085 0
M  V30 2056 H 198.577 -3.36073 0.700691 0
M  V30 2057 N 201.022 0.148545 -1.56898 0
M  V30 2058 C 202.247 0.880385 -1.87787 0
M  V30 2059 C 202.672 1.74018 -0.714093 0
M  V30 2060 O 202.03 1.78153 0.336343 0
M  V30 2061 C 202.078 1.71422 -3.17249 0
M  V30 2062 O 201.182 2.8183 -3.01074 0
M  V30 2063 H 200.523 0.245301 -0.617028 0
M  V30 2064 H 203.053 0.139826 -2.04122 0
M  V30 2065 H 203.063 2.10954 -3.49231 0
M  V30 2066 H 201.738 1.08284 -4.01556 0
M  V30 2067 H 200.315 2.45715 -2.80497 0
M  V30 2068 N 202.5 1.5196 0.417844 0
M  V30 2069 C 203.463 1.74065 1.49111 0
M  V30 2070 C 204.463 0.610537 1.48758 0
M  V30 2071 O 205.653 0.87832 1.50437 0
M  V30 2072 C 202.785 1.81502 2.88565 0
M  V30 2073 H 203.978 2.69869 1.30807 0
M  V30 2074 H 201.531 1.42244 0.647785 0
M  V30 2075 H 202.266 0.875813 3.1225 0
M  V30 2076 H 202.051 2.63651 2.90225 0
M  V30 2077 H 203.541 2.00376 3.66387 0
M  V30 2078 N 203.978 -0.674533 1.42435 0
M  V30 2079 C 205.255 -1.4305 1.33402 0
M  V30 2080 C 205.635 -2.11081 -0.0284674 0
M  V30 2081 O 204.983 -2.03257 -1.04397 0
M  V30 2082 C 205.193 -2.43272 2.50239 0
M  V30 2083 C 206.541 -3.07907 2.92367 0
M  V30 2084 O 207.565 -2.53599 2.50132 0
M  V30 2085 O 206.424 -4.0632 3.65467 0
M  V30 2086 H 203.518 -0.638076 0.526106 0
M  V30 2087 H 206.064 -0.703235 1.54443 0
M  V30 2088 H 204.836 -1.91803 3.41068 0
M  V30 2089 H 204.459 -3.23479 2.31186 0
M  V30 2090 N 205.456 -1.28612 -0.910864 0
M  V30 2091 C 206.704 -1.15705 -1.65701 0
M  V30 2092 C 207.025 0.29416 -1.92769 0
M  V30 2093 O 206.295 1.20331 -1.54588 0
M  V30 2094 H 204.875 -0.425216 -0.614167 0
M  V30 2095 H 207.537 -1.61381 -1.0928 0
M  V30 2096 H 206.633 -1.6988 -2.61815 0
M  V30 2097 N 206.934 1.1197 -1.10907 0
M  V30 2098 C 207.897 2.16031 -0.765707 0
M  V30 2099 C 208.897 1.59393 0.212235 0
M  V30 2100 O 210.087 1.74196 -0.0115441 0
M  V30 2101 C 207.219 3.40632 -0.135053 0
M  V30 2102 H 208.412 2.47919 -1.68748 0
M  V30 2103 H 205.965 1.27061 -0.910226 0
M  V30 2104 H 206.7 3.14348 0.797218 0
M  V30 2105 H 206.485 3.8302 -0.838937 0
M  V30 2106 H 207.975 4.17505 0.0892469 0
M  V30 2107 N 208.412 0.89855 1.29475 0
M  V30 2108 C 209.342 0.39201 2.30186 0
M  V30 2109 C 210.323 -0.532359 1.61555 0
M  V30 2110 O 211.508 -0.443331 1.89072 0
M  V30 2111 C 208.638 -0.382353 3.45189 0
M  V30 2112 C 207.592 0.451483 4.25612 0
M  V30 2113 C 206.918 -0.450307 5.328 0
M  V30 2114 C 208.218 1.70079 4.93832 0
M  V30 2115 H 209.912 1.23362 2.72804 0
M  V30 2116 H 207.458 0.594638 1.31149 0
M  V30 2117 H 209.411 -0.747451 4.14718 0
M  V30 2118 H 208.135 -1.25774 3.01411 0
M  V30 2119 H 206.794 0.798897 3.57789 0
M  V30 2120 H 206.442 -1.32379 4.85268 0
M  V30 2121 H 206.142 0.103902 5.87508 0
M  V30 2122 H 207.666 -0.811623 6.05182 0
M  V30 2123 H 209.08 1.40549 5.55805 0
M  V30 2124 H 207.477 2.19623 5.58467 0
M  V30 2125 H 208.547 2.43744 4.19186 0
M  V30 2126 N 209.89 -1.43072 0.660911 0
M  V30 2127 C 210.837 -2.30785 -0.0259884 0
M  V30 2128 C 211.807 -1.45184 -0.806888 0
M  V30 2129 O 212.992 -1.74041 -0.781943 0
M  V30 2130 C 210.132 -3.30861 -0.981067 0
M  V30 2131 C 209.245 -4.31558 -0.195458 0
M  V30 2132 C 208.38 -5.18712 -1.14503 0
M  V30 2133 C 207.419 -6.11097 -0.350299 0
M  V30 2134 N 206.556 -6.90849 -1.25186 0
M  V30 2135 H 211.396 -2.88975 0.727846 0
M  V30 2136 H 208.933 -1.42353 0.370682 0
M  V30 2137 H 210.891 -3.87399 -1.54849 0
M  V30 2138 H 209.521 -2.74304 -1.70169 0
M  V30 2139 H 208.573 -3.77252 0.488374 0
M  V30 2140 H 209.885 -4.9701 0.422176 0
M  V30 2141 H 209.039 -5.79914 -1.78284 0
M  V30 2142 H 207.778 -4.53404 -1.79656 0
M  V30 2143 H 206.783 -5.48976 0.300808 0
M  V30 2144 H 208.008 -6.7845 0.296941 0
M  V30 2145 H 205.954 -6.28182 -1.89005 0
M  V30 2146 H 205.871 -7.52854 -0.688971 0
M  V30 2147 H 207.139 -7.5655 -1.87757 0
M  V30 2148 N 211.368 -0.403325 -1.52352 0
M  V30 2149 C 212.784 -0.0539281 -1.59509 0
M  V30 2150 C 212.984 1.43307 -1.41652 0
M  V30 2151 O 212.04 2.19924 -1.24056 0
M  V30 2152 C 213.353 -0.543654 -2.95745 0
M  V30 2153 C 214.901 -0.501125 -3.08962 0
M  V30 2154 C 215.376 -0.967267 -4.47669 0
M  V30 2155 N 216.867 -0.923849 -4.53893 0
M  V30 2156 C 217.602 -1.25578 -5.5948 0
M  V30 2157 N 217.098 -1.65889 -6.72646 0
M  V30 2158 N 218.891 -1.17613 -5.49658 0
M  V30 2159 H 211.042 -1.37123 -1.62206 0
M  V30 2160 H 213.305 -0.56294 -0.76276 0
M  V30 2161 H 213.011 -1.58275 -3.14073 0
M  V30 2162 H 212.885 0.0498042 -3.77167 0
M  V30 2163 H 215.272 0.528909 -2.90321 0
M  V30 2164 H 215.353 -1.13056 -2.2946 0
M  V30 2165 H 214.997 -1.9956 -4.67053 0
M  V30 2166 H 214.927 -0.314698 -5.25659 0
M  V30 2167 H 217.418 -0.627403 -3.72655 0
M  V30 2168 H 217.731 -1.89543 -7.49195 0
M  V30 2169 H 216.076 -1.69787 -6.73942 0
M  V30 2170 H 219.267 -0.860115 -4.6013 0
M  V30 2171 H 219.44 -1.43812 -6.3184 0
M  V30 2172 N 212.846 1.57033 -0.133567 0
M  V30 2173 C 213.776 2.1909 0.807567 0
M  V30 2174 C 214.757 1.13517 1.26681 0
M  V30 2175 O 215.942 1.41809 1.32679 0
M  V30 2176 C 213.072 2.80188 2.05212 0
M  V30 2177 C 212.026 3.91471 1.73015 0
M  V30 2178 C 211.352 4.39443 3.04622 0
M  V30 2179 C 212.652 5.12886 0.987168 0
M  V30 2180 H 214.346 2.97988 0.290403 0
M  V30 2181 H 211.892 1.43335 0.138239 0
M  V30 2182 H 213.845 3.22264 2.71521 0
M  V30 2183 H 212.569 1.98601 2.59278 0
M  V30 2184 H 211.228 3.49993 1.0909 0
M  V30 2185 H 210.876 3.54695 3.56651 0
M  V30 2186 H 210.576 5.14495 2.83847 0
M  V30 2187 H 212.1 4.8418 3.72024 0
M  V30 2188 H 213.514 5.51891 1.55208 0
M  V30 2189 H 211.911 5.93615 0.87985 0
M  V30 2190 H 212.981 4.84894 -0.0235286 0
M  V30 2191 N 214.325 -0.140222 1.56975 0
M  V30 2192 C 215.573 -0.850005 1.83356 0
M  V30 2193 C 215.894 -1.81399 0.71551 0
M  V30 2194 O 215.164 -1.94136 -0.262294 0
M  V30 2195 H 213.744 -0.316886 0.676456 0
M  V30 2196 H 216.406 -0.132608 1.94448 0
M  V30 2197 H 215.502 -1.40814 2.78528 0
M  V30 2198 N 215.803 -1.52179 -0.40978 0
M  V30 2199 C 217.052 -1.65434 -1.15388 0
M  V30 2200 C 217.365 -0.390056 -1.91671 0
M  V30 2201 O 218.571 -0.402399 -2.68501 0
M  V30 2202 C 217.027 -2.92279 -2.10003 0
M  V30 2203 C 216.635 -4.25813 -1.39239 0
M  V30 2204 C 218.379 -3.14897 -2.84675 0
M  V30 2205 C 216.286 -5.43782 -2.32498 0
M  V30 2206 H 215.216 -0.616267 -0.434432 0
M  V30 2207 H 217.867 -1.78666 -0.418401 0
M  V30 2208 H 216.249 -2.72744 -2.871 0
M  V30 2209 H 217.423 -4.55828 -0.675099 0
M  V30 2210 H 215.738 -4.09292 -0.766097 0
M  V30 2211 H 218.335 -4.0021 -3.54593 0
M  V30 2212 H 218.678 -2.29103 -3.47588 0
M  V30 2213 H 219.211 -3.34901 -2.14677 0
M  V30 2214 H 215.95 -6.3192 -1.74233 0
M  V30 2215 H 215.47 -5.18106 -3.02201 0
M  V30 2216 H 217.149 -5.76834 -2.93038 0
M  V30 2217 N 217.281 0.66697 -1.42791 0
M  V30 2218 C 218.229 1.80157 -1.47127 0
M  V30 2219 C 219.223 1.65825 -0.346199 0
M  V30 2220 O 220.429 1.72338 -0.519572 0
M  V30 2221 H 216.804 0.594158 -0.460956 0
M  V30 2222 H 218.775 1.73619 -2.42692 0
M  V30 2223 C 217.524 3.18351 -1.39813 0
M  V30 2224 H 216.847 3.3001 -2.25684 0
M  V30 2225 H 218.287 3.97736 -1.46908 0
M  V30 2226 C 216.746 3.36707 -0.11391 0
M  V30 2227 O 217.276 3.93027 0.830241 0
M  V30 2228 N 215.482 2.90586 -0.0285295 0
M  V30 2229 H 215.029 2.4494 -0.79764 0
M  V30 2230 H 214.987 3.03245 0.830063 0
M  V30 2231 N 218.759 1.29093 0.90403 0
M  V30 2232 C 220.007 1.16583 1.65085 0
M  V30 2233 C 220.328 -0.283933 1.92922 0
M  V30 2234 O 219.598 -1.19509 1.55224 0
M  V30 2235 H 218.178 0.428467 0.611903 0
M  V30 2236 H 220.84 1.61959 1.08422 0
M  V30 2237 H 219.936 1.71266 2.6091 0
M  V30 2238 N 220.237 -1.11381 1.11499 0
M  V30 2239 C 221.184 -2.17439 0.773887 0
M  V30 2240 C 222.154 -1.64132 -0.254899 0
M  V30 2241 O 223.339 -1.90345 -0.13168 0
M  V30 2242 C 220.479 -3.44373 0.223917 0
M  V30 2243 C 219.592 -4.1168 1.30934 0
M  V30 2244 C 218.727 -5.263 0.71984 0
M  V30 2245 C 217.766 -5.85493 1.78507 0
M  V30 2246 N 216.903 -6.91507 1.21502 0
M  V30 2247 H 221.743 -2.45962 1.68246 0
M  V30 2248 H 219.28 -1.20744 0.840191 0
M  V30 2249 H 221.238 -4.17047 -0.112921 0
M  V30 2250 H 219.868 -3.16232 -0.647851 0
M  V30 2251 H 218.92 -3.37073 1.76312 0
M  V30 2252 H 220.232 -4.51729 2.11524 0
M  V30 2253 H 219.386 -6.05785 0.333094 0
M  V30 2254 H 218.125 -4.87559 -0.117377 0
M  V30 2255 H 217.13 -5.04686 2.18111 0
M  V30 2256 H 218.355 -6.26301 2.62533 0
M  V30 2257 H 216.301 -6.54783 0.399455 0
M  V30 2258 H 216.218 -7.30214 1.95763 0
M  V30 2259 H 217.486 -7.74795 0.855181 0
M  V30 2260 N 221.715 -0.905404 -1.28997 0
M  V30 2261 C 222.648 -0.331959 -2.25773 0
M  V30 2262 C 223.626 0.559099 -1.52685 0
M  V30 2263 O 224.81 0.50463 -1.8162 0
M  V30 2264 C 221.937 0.526276 -3.34586 0
M  V30 2265 C 220.983 -0.298249 -4.25456 0
M  V30 2266 S 221.816 -1.69968 -5.0781 0
M  V30 2267 C 222.972 -0.848519 -6.20122 0
M  V30 2268 H 223.205 -1.15222 -2.74064 0
M  V30 2269 H 220.738 -0.706112 -1.37308 0
M  V30 2270 H 222.696 1.01565 -3.97737 0
M  V30 2271 H 221.357 1.32084 -2.84978 0
M  V30 2272 H 220.55 0.357607 -5.0273 0
M  V30 2273 H 220.152 -0.720968 -3.66985 0
M  V30 2274 H 222.444 -0.0744325 -6.77459 0
M  V30 2275 H 223.387 -1.59353 -6.89937 0
M  V30 2276 H 223.795 -0.400383 -5.63078 0
M  V30 2277 N 223.193 1.4272 -0.668489 0
M  V30 2278 C 224.14 2.30796 0.0137489 0
M  V30 2279 C 225.11 1.4561 0.799177 0
M  V30 2280 O 226.295 1.74453 0.772702 0
M  V30 2281 C 223.435 3.31377 0.963507 0
M  V30 2282 C 222.548 4.31655 0.172569 0
M  V30 2283 C 221.683 5.19312 1.1175 0
M  V30 2284 C 220.722 6.11274 0.317886 0
M  V30 2285 N 219.859 6.91504 1.2152 0
M  V30 2286 H 224.699 2.88585 -0.743161 0
M  V30 2287 H 222.236 1.42154 -0.378226 0
M  V30 2288 H 224.194 3.88214 1.52792 0
M  V30 2289 H 222.824 2.75202 1.68712 0
M  V30 2290 H 221.876 3.76988 -0.508374 0
M  V30 2291 H 223.188 4.96779 -0.448527 0
M  V30 2292 H 222.342 5.80851 1.75206 0
M  V30 2293 H 221.081 4.5435 1.77249 0
M  V30 2294 H 220.086 5.48809 -0.329918 0
M  V30 2295 H 221.311 6.78283 -0.332917 0
M  V30 2296 H 219.257 6.29176 1.85671 0
M  V30 2297 H 219.174 7.53209 0.649036 0
M  V30 2298 H 220.442 7.57535 1.83742 0
M  V30 2299 N 224.671 0.411399 1.52136 0
M  V30 2300 C 225.919 -0.163322 2.01439 0
M  V30 2301 C 226.24 -1.45453 1.29879 0
M  V30 2302 O 225.51 -1.91225 0.4254 0
M  V30 2303 H 224.09 -0.0633447 0.744309 0
M  V30 2304 H 226.752 0.548161 1.87033 0
M  V30 2305 H 225.848 -0.357817 3.10042 0
M  V30 2306 N 226.149 -1.5696 0.141893 0
M  V30 2307 C 227.374 -2.00754 -0.520838 0
M  V30 2308 C 227.799 -1.0213 -1.57959 0
M  V30 2309 O 227.157 0.00371324 -1.813 0
M  V30 2310 C 227.205 -3.43318 -1.10294 0
M  V30 2311 O 226.309 -3.47679 -2.21795 0
M  V30 2312 H 225.65 -0.651564 -0.127908 0
M  V30 2313 H 228.18 -2.03221 0.23712 0
M  V30 2314 H 228.19 -3.82012 -1.43287 0
M  V30 2315 H 226.865 -4.14608 -0.327574 0
M  V30 2316 H 225.442 -3.20824 -1.9007 0
M  V30 2317 N 227.627 0.131896 -1.57047 0
M  V30 2318 C 228.876 0.84044 -1.83356 0
M  V30 2319 C 229.189 1.81646 -0.725535 0
M  V30 2320 O 230.395 2.57025 -0.874659 0
M  V30 2321 C 228.851 1.54528 -3.25037 0
M  V30 2322 C 228.459 0.610902 -4.43815 0
M  V30 2323 C 230.203 2.23972 -3.60606 0
M  V30 2324 C 228.11 1.31823 -5.76521 0
M  V30 2325 H 227.04 0.317599 -0.683847 0
M  V30 2326 H 229.691 0.0931561 -1.83263 0
M  V30 2327 H 228.073 2.33873 -3.19561 0
M  V30 2328 H 229.247 -0.148407 -4.60561 0
M  V30 2329 H 227.562 0.0241016 -4.16393 0
M  V30 2330 H 230.159 2.77558 -4.57018 0
M  V30 2331 H 230.502 3.01173 -2.87403 0
M  V30 2332 H 231.035 1.51529 -3.6781 0
M  V30 2333 H 227.774 0.587771 -6.52859 0
M  V30 2334 H 227.294 2.04987 -5.63685 0
M  V30 2335 H 228.973 1.855 -6.19838 0
M  V30 2336 N 229.106 1.52395 0.401703 0
M  V30 2337 C 230.036 1.79231 1.49661 0
M  V30 2338 C 231.017 0.643654 1.57452 0
M  V30 2339 O 232.202 0.889989 1.72606 0
M  V30 2340 C 229.332 1.94971 2.87409 0
M  V30 2341 C 228.286 3.10604 2.94465 0
M  V30 2342 C 227.612 3.11577 4.34538 0
M  V30 2343 C 228.912 4.49921 2.6527 0
M  V30 2344 H 230.606 2.70917 1.27454 0
M  V30 2345 H 228.152 1.30362 0.6117 0
M  V30 2346 H 230.105 2.12328 3.63999 0
M  V30 2347 H 228.829 0.999632 3.10926 0
M  V30 2348 H 227.488 2.93009 2.20321 0
M  V30 2349 H 227.136 2.14277 4.55076 0
M  V30 2350 H 226.836 3.89247 4.40183 0
M  V30 2351 H 228.36 3.31073 5.13053 0
M  V30 2352 H 229.774 4.67683 3.31581 0
M  V30 2353 H 228.171 5.29564 2.82281 0
M  V30 2354 H 229.241 4.57507 1.60671 0
M  V30 2355 N 230.584 -0.659388 1.43143 0
M  V30 2356 C 231.494 -1.80167 1.50256 0
M  V30 2357 C 232.51 -1.69571 0.390106 0
M  V30 2358 O 233.686 -1.90849 0.643319 0
M  V30 2359 C 230.751 -3.16409 1.41725 0
M  V30 2360 C 229.812 -3.38848 2.63591 0
M  V30 2361 C 229.045 -4.68591 2.55458 0
M  V30 2362 O 229.268 -5.47532 1.59891 0
M  V30 2363 O 228.202 -4.92614 3.45854 0
M  V30 2364 H 232.028 -1.77121 2.46702 0
M  V30 2365 H 229.613 -0.817092 1.25076 0
M  V30 2366 H 231.495 -3.9768 1.39387 0
M  V30 2367 H 230.17 -3.20059 0.484118 0
M  V30 2368 H 229.077 -2.57366 2.71502 0
M  V30 2369 H 230.41 -3.4004 3.55856 0
M  V30 2370 N 232.062 -1.29571 -0.897171 0
M  V30 2371 C 233.311 -1.1706 -1.64256 0
M  V30 2372 C 233.624 0.276476 -1.93636 0
M  V30 2373 O 234.83 0.52294 -2.66416 0
M  V30 2374 C 233.286 -2.0475 -2.95982 0
M  V30 2375 C 232.894 -3.54295 -2.74187 0
M  V30 2376 C 234.638 -2.0097 -3.73914 0
M  V30 2377 C 232.545 -4.34081 -4.01656 0
M  V30 2378 H 231.475 -0.43452 -0.616205 0
M  V30 2379 H 234.126 -1.54229 -0.994268 0
M  V30 2380 H 232.508 -1.60452 -3.62038 0
M  V30 2381 H 233.682 -4.06662 -2.1671 0
M  V30 2382 H 231.997 -3.59773 -2.09648 0
M  V30 2383 H 234.594 -2.57838 -4.68427 0
M  V30 2384 H 234.937 -0.990273 -4.0435 0
M  V30 2385 H 235.47 -2.43325 -3.14703 0
M  V30 2386 H 232.209 -5.36671 -3.76384 0
M  V30 2387 H 231.729 -3.86483 -4.58684 0
M  V30 2388 H 233.408 -4.44877 -4.69781 0
M  V30 2389 N 233.54 1.10788 -1.12088 0
M  V30 2390 C 234.487 2.17025 -0.785407 0
M  V30 2391 C 235.457 1.64265 0.246191 0
M  V30 2392 O 236.642 1.90412 0.121584 0
M  V30 2393 C 233.782 3.44249 -0.242177 0
M  V30 2394 C 232.895 4.1098 -1.33115 0
M  V30 2395 C 232.03 5.25911 -0.747741 0
M  V30 2396 C 231.069 5.84538 -1.81609 0
M  V30 2397 N 230.206 6.90853 -1.25167 0
M  V30 2398 H 235.046 2.45066 -1.69548 0
M  V30 2399 H 232.583 1.20297 -0.846582 0
M  V30 2400 H 234.541 4.17101 0.0908026 0
M  V30 2401 H 233.171 3.16571 0.631072 0
M  V30 2402 H 232.223 3.36133 -1.78097 0
M  V30 2403 H 233.535 4.50601 -2.13917 0
M  V30 2404 H 232.689 6.056 -0.365216 0
M  V30 2405 H 231.428 4.87614 0.0915188 0
M  V30 2406 H 230.433 5.03522 -2.20785 0
M  V30 2407 H 231.658 6.249 -2.6585 0
M  V30 2408 H 229.604 6.54562 -0.434174 0
M  V30 2409 H 229.521 7.29166 -1.99633 0
M  V30 2410 H 230.789 7.7433 -0.896259 0
M  V30 2411 N 235.018 0.912232 1.28515 0
M  V30 2412 C 236.295 0.463597 1.90027 0
M  V30 2413 C 236.675 -1.05753 1.82701 0
M  V30 2414 O 236.023 -1.90492 1.26194 0
M  V30 2415 C 236.233 0.992253 3.34597 0
M  V30 2416 C 237.581 1.04344 4.11579 0
M  V30 2417 O 238.605 0.94079 3.43551 0
M  V30 2418 O 237.464 1.1995 5.33174 0
M  V30 2419 H 234.558 0.146666 0.813891 0
M  V30 2420 H 237.104 1.00292 1.36893 0
M  V30 2421 H 235.876 2.03623 3.34146 0
M  V30 2422 H 235.499 0.433672 3.95228 0
M  V30 2423 N 236.496 -1.42363 0.676048 0
M  V30 2424 C 237.721 -2.06377 0.205705 0
M  V30 2425 C 238.146 -1.50463 -1.12883 0
M  V30 2426 O 237.504 -0.623619 -1.70237 0
M  V30 2427 C 237.552 -3.60277 0.152655 0
M  V30 2428 O 236.656 -4.02935 -0.87845 0
M  V30 2429 H 235.997 -0.655588 0.105359 0
M  V30 2430 H 238.527 -1.82475 0.925412 0
M  V30 2431 H 238.537 -4.07993 -0.0230675 0
M  V30 2432 H 237.212 -4.00346 1.12675 0
M  V30 2433 H 235.789 -3.66764 -0.673668 0
M  V30 2434 N 237.974 -0.419461 -1.51915 0
M  V30 2435 C 238.884 0.407528 -2.31033 0
M  V30 2436 C 239.9 1.04413 -1.3919 0
M  V30 2437 O 241.076 1.0434 -1.72265 0
M  V30 2438 C 238.141 1.50365 -3.12396 0
M  V30 2439 C 237.202 0.889029 -4.19994 0
M  V30 2440 C 236.435 1.93291 -4.97468 0
M  V30 2441 O 236.658 3.15259 -4.75361 0
M  V30 2442 O 235.592 1.53339 -5.8204 0
M  V30 2443 H 239.418 -0.237865 -3.02767 0
M  V30 2444 H 237.003 -0.182413 -1.48282 0
M  V30 2445 H 238.885 2.13975 -3.63032 0
M  V30 2446 H 237.56 2.13345 -2.43445 0
M  V30 2447 H 236.467 0.215353 -3.7348 0
M  V30 2448 H 237.8 0.302991 -4.91267 0
M  V30 2449 N 239.452 1.56882 -0.150215 0
M  V30 2450 C 240.399 2.16922 0.788244 0
M  V30 2451 C 241.369 1.10303 1.24187 0
M  V30 2452 O 242.554 1.38359 1.31383 0
M  V30 2453 C 239.694 2.79754 2.02068 0
M  V30 2454 C 238.807 4.00775 1.61257 0
M  V30 2455 C 237.942 4.51595 2.79705 0
M  V30 2456 C 236.981 5.65074 2.35282 0
M  V30 2457 N 236.118 6.10499 3.4675 0
M  V30 2458 H 240.958 2.96779 0.269444 0
M  V30 2459 H 238.495 1.46599 0.12128 0
M  V30 2460 H 240.453 3.14329 2.74323 0
M  V30 2461 H 239.083 2.02536 2.51354 0
M  V30 2462 H 238.135 3.72158 0.787553 0
M  V30 2463 H 239.447 4.82978 1.24633 0
M  V30 2464 H 238.601 4.88242 3.60145 0
M  V30 2465 H 237.34 3.68406 3.19576 0
M  V30 2466 H 236.345 5.28 1.53283 0
M  V30 2467 H 237.57 6.50052 1.96493 0
M  V30 2468 H 235.516 5.30243 3.86236 0
M  V30 2469 H 235.433 6.87637 3.14152 0
M  V30 2470 H 236.701 6.51791 4.27537 0
M  V30 2471 N 240.93 -0.123565 1.57115 0
M  V30 2472 C 242.176 -0.833386 1.84885 0
M  V30 2473 C 242.509 -1.79742 0.735292 0
M  V30 2474 O 241.784 -1.92764 -0.25925 0
M  V30 2475 C 242.067 -1.5873 3.23228 0
M  V30 2476 C 241.92 -0.643183 4.45178 0
M  V30 2477 C 243.239 -2.54453 3.59085 0
M  V30 2478 H 240.358 -0.301518 0.6725 0
M  V30 2479 H 243 -0.097778 1.89748 0
M  V30 2480 H 241.15 -2.21438 3.19214 0
M  V30 2481 H 242.822 -0.0253015 4.61293 0
M  V30 2482 H 241.065 0.0456139 4.33776 0
M  V30 2483 H 241.736 -1.20724 5.38637 0
M  V30 2484 H 244.212 -2.01853 3.63861 0
M  V30 2485 H 243.088 -3.04238 4.5687 0
M  V30 2486 H 243.349 -3.36906 2.86264 0
M  V30 2487 N 242.408 -1.52605 -0.393616 0
M  V30 2488 C 243.655 -1.67424 -1.1391 0
M  V30 2489 C 243.983 -0.411859 -1.90089 0
M  V30 2490 O 243.238 0.605626 -1.86093 0
M  V30 2491 C 243.537 -2.85721 -2.14705 0
M  V30 2492 C 243.203 -4.23342 -1.55218 0
M  V30 2493 C 241.865 -4.60771 -1.3872 0
M  V30 2494 C 244.217 -5.09041 -1.11924 0
M  V30 2495 C 241.545 -5.81563 -0.774689 0
M  V30 2496 C 243.897 -6.30452 -0.520853 0
M  V30 2497 C 242.561 -6.66617 -0.343134 0
M  V30 2498 H 241.831 -0.612648 -0.416826 0
M  V30 2499 H 244.478 -1.8674 -0.424315 0
M  V30 2500 H 242.783 -2.60803 -2.92385 0
M  V30 2501 H 244.48 -2.94382 -2.72288 0
M  V30 2502 H 241.07 -3.93855 -1.69045 0
M  V30 2503 H 245.254 -4.80695 -1.23473 0
M  V30 2504 H 240.51 -6.08196 -0.625154 0
M  V30 2505 H 244.684 -6.96175 -0.177065 0
M  V30 2506 H 242.311 -7.60083 0.133571 0
M  V30 2507 N 243.887 0.651787 -1.4349 0
M  V30 2508 C 245.127 1.42345 -1.46688 0
M  V30 2509 C 245.491 1.91793 -0.0891023 0
M  V30 2510 O 246.692 2.688 0.00423594 0
M  V30 2511 C 244.963 2.57221 -2.48137 0
M  V30 2512 S 246.522 3.45725 -2.70221 0
M  V30 2513 H 243.34 0.485878 -0.51908 0
M  V30 2514 H 245.942 0.756578 -1.80267 0
M  V30 2515 H 244.646 2.1917 -3.46976 0
M  V30 2516 H 244.177 3.28757 -2.16061 0
M  V30 2517 H 246.192 4.53996 -2.00255 0
M  V30 2518 N 245.365 1.30045 0.890287 0
M  V30 2519 C 246.613 1.18327 1.63839 0
M  V30 2520 C 246.934 -0.263455 1.93212 0
M  V30 2521 O 246.204 -1.17856 1.56482 0
M  V30 2522 H 244.784 0.434933 0.607324 0
M  V30 2523 H 247.446 1.631 1.06698 0
M  V30 2524 H 246.542 1.74024 2.59079 0
M  V30 2525 N 246.843 -1.10192 1.12674 0
M  V30 2526 C 247.79 -2.16606 0.796906 0
M  V30 2527 C 248.76 -1.64394 -0.237476 0
M  V30 2528 O 249.945 -1.90474 -0.111484 0
M  V30 2529 C 247.085 -3.44116 0.26043 0
M  V30 2530 C 246.198 -4.10268 1.35293 0
M  V30 2531 C 245.333 -5.25507 0.775621 0
M  V30 2532 C 244.372 -5.83567 1.84706 0
M  V30 2533 N 243.509 -6.90179 1.28829 0
M  V30 2534 H 248.349 -2.44163 1.70846 0
M  V30 2535 H 245.886 -1.19846 0.85295 0
M  V30 2536 H 247.844 -4.17143 -0.0686814 0
M  V30 2537 H 246.474 -3.16901 -0.614274 0
M  V30 2538 H 245.526 -3.35184 1.79877 0
M  V30 2539 H 246.838 -4.4946 2.16303 0
M  V30 2540 H 245.992 -6.05398 0.397327 0
M  V30 2541 H 244.731 -4.87656 -0.0656581 0
M  V30 2542 H 243.736 -5.02344 2.23452 0
M  V30 2543 H 244.961 -6.23482 2.69161 0
M  V30 2544 H 242.907 -6.54322 0.468881 0
M  V30 2545 H 242.824 -7.28097 2.03497 0
M  V30 2546 H 244.092 -7.73844 0.937311 0
M  V30 2547 N 248.321 -0.919034 -1.28029 0
M  V30 2548 C 249.57 -0.550802 -1.94034 0
M  V30 2549 C 249.883 0.910877 -1.73096 0
M  V30 2550 O 251.089 1.3875 -2.33368 0
M  V30 2551 C 249.545 -0.934249 -3.47563 0
M  V30 2552 C 249.153 -2.41602 -3.7727 0
M  V30 2553 C 250.897 -0.636854 -4.19696 0
M  V30 2554 C 248.804 -2.73932 -5.24133 0
M  V30 2555 H 247.734 -0.202273 -0.726362 0
M  V30 2556 H 250.385 -1.11867 -1.45458 0
M  V30 2557 H 248.767 -0.295115 -3.94899 0
M  V30 2558 H 249.941 -3.10233 -3.40723 0
M  V30 2559 H 248.256 -2.68441 -3.18321 0
M  V30 2560 H 250.853 -0.855005 -5.2782 0
M  V30 2561 H 251.196 0.425575 -4.14119 0
M  V30 2562 H 251.729 -1.23469 -3.78154 0
M  V30 2563 H 248.468 -3.79049 -5.34792 0
M  V30 2564 H 247.988 -2.09942 -5.61858 0
M  V30 2565 H 249.667 -2.61215 -5.91925 0
M  V30 2566 N 249.799 1.42003 -0.683588 0
M  V30 2567 C 250.746 2.30798 -0.0107309 0
M  V30 2568 C 251.716 1.4645 0.783688 0
M  V30 2569 O 252.901 1.75263 0.754156 0
M  V30 2570 C 250.041 3.3238 0.928306 0
M  V30 2571 C 249.154 4.31814 0.126776 0
M  V30 2572 C 248.289 5.20468 1.06236 0
M  V30 2573 C 247.328 6.11577 0.253035 0
M  V30 2574 N 246.465 6.92754 1.14179 0
M  V30 2575 H 251.305 2.8778 -0.773727 0
M  V30 2576 H 248.842 1.41745 -0.393283 0
M  V30 2577 H 250.8 3.89813 1.48666 0
M  V30 2578 H 249.43 2.76976 1.65783 0
M  V30 2579 H 248.482 3.76427 -0.54833 0
M  V30 2580 H 249.794 4.96276 -0.501192 0
M  V30 2581 H 248.948 5.82677 1.69035 0
M  V30 2582 H 247.687 4.56204 1.7242 0
M  V30 2583 H 246.692 5.48428 -0.388108 0
M  V30 2584 H 247.917 6.77892 -0.404839 0
M  V30 2585 H 245.863 6.3111 1.78987 0
M  V30 2586 H 245.78 7.53855 0.569111 0
M  V30 2587 H 247.048 7.59441 1.75697 0
M  V30 2588 N 251.277 0.427512 1.51691 0
M  V30 2589 C 252.224 -0.388867 2.275 0
M  V30 2590 C 253.194 -1.02532 1.30677 0
M  V30 2591 O 254.379 -1.0461 1.59566 0
M  V30 2592 C 251.519 -1.48954 3.11298 0
M  V30 2593 C 250.632 -0.872194 4.23104 0
M  V30 2594 C 249.767 -1.94709 4.94228 0
M  V30 2595 C 248.806 -1.30766 5.97969 0
M  V30 2596 N 247.943 -2.32349 6.62539 0
M  V30 2597 H 252.783 0.263997 2.96828 0
M  V30 2598 H 250.32 0.142033 1.46413 0
M  V30 2599 H 252.278 -2.13887 3.58201 0
M  V30 2600 H 250.908 -2.11217 2.44105 0
M  V30 2601 H 249.96 -0.111419 3.80237 0
M  V30 2602 H 251.272 -0.365264 4.97461 0
M  V30 2603 H 250.426 -2.67327 5.44629 0
M  V30 2604 H 249.165 -2.48773 4.1948 0
M  V30 2605 H 248.17 -0.566902 5.4687 0
M  V30 2606 H 249.395 -0.774483 6.74669 0
M  V30 2607 H 247.341 -2.85511 5.90609 0
M  V30 2608 H 247.258 -1.8652 7.3263 0
M  V30 2609 H 248.526 -3.04481 7.17574 0
M  V30 2610 N 252.755 -1.56801 0.158532 0
M  V30 2611 C 253.685 -2.20347 -0.772609 0
M  V30 2612 C 254.666 -1.15518 -1.24859 0
M  V30 2613 O 255.851 -1.43902 -1.30406 0
M  V30 2614 C 252.981 -2.83417 -2.00729 0
M  V30 2615 C 251.935 -3.94174 -1.66765 0
M  V30 2616 C 251.261 -4.44233 -2.97592 0
M  V30 2617 C 252.561 -5.14392 -0.905447 0
M  V30 2618 H 254.255 -2.98413 -0.242959 0
M  V30 2619 H 251.801 -1.43537 -0.115419 0
M  V30 2620 H 253.754 -3.26543 -2.6636 0
M  V30 2621 H 252.478 -2.02701 -2.56086 0
M  V30 2622 H 251.137 -3.51684 -1.03508 0
M  V30 2623 H 250.785 -3.60325 -3.50963 0
M  V30 2624 H 250.485 -5.18945 -2.75626 0
M  V30 2625 H 252.009 -4.90037 -3.64274 0
M  V30 2626 H 253.423 -5.5429 -1.46408 0
M  V30 2627 H 251.82 -5.9494 -0.7853 0
M  V30 2628 H 252.89 -4.84795 0.100668 0
M  V30 2629 N 254.233 0.115231 -1.57178 0
M  V30 2630 C 255.165 1.16694 -1.97269 0
M  V30 2631 C 256.178 1.37445 -0.872502 0
M  V30 2632 O 257.367 1.36454 -1.15077 0
M  V30 2633 C 254.467 2.52627 -2.25905 0
M  V30 2634 C 253.64 2.52427 -3.57211 0
M  V30 2635 C 252.699 3.70134 -3.74016 0
M  V30 2636 O 251.725 3.53546 -4.46087 0
M  V30 2637 N 252.927 4.88844 -3.13068 0
M  V30 2638 H 255.692 0.82588 -2.88096 0
M  V30 2639 H 253.253 0.304461 -1.59011 0
M  V30 2640 H 255.245 3.29937 -2.34359 0
M  V30 2641 H 253.815 2.789 -1.41186 0
M  V30 2642 H 253.035 1.60805 -3.5991 0
M  V30 2643 H 254.323 2.49353 -4.43509 0
M  V30 2644 H 253.721 5.05225 -2.54489 0
M  V30 2645 H 252.278 5.63817 -3.27037 0
M  V30 2646 N 255.711 1.52812 0.385517 0
M  V30 2647 C 256.659 1.78482 1.49155 0
M  V30 2648 C 257.653 0.652914 1.56312 0
M  V30 2649 O 258.859 0.835464 1.59436 0
M  V30 2650 H 255.234 0.5648 0.496493 0
M  V30 2651 H 257.205 2.71095 1.24699 0
M  V30 2652 C 255.954 1.97378 2.86247 0
M  V30 2653 H 255.277 2.83907 2.81491 0
M  V30 2654 H 256.717 2.19327 3.62866 0
M  V30 2655 C 255.176 0.74728 3.28508 0
M  V30 2656 O 255.706 -0.0736232 4.01633 0
M  V30 2657 N 253.912 0.576396 2.84826 0
M  V30 2658 H 253.459 1.24555 2.25486 0
M  V30 2659 H 253.417 -0.24288 3.1346 0
M  V30 2660 N 257.189 -0.644168 1.43834 0
M  V30 2661 C 258.466 -1.40188 1.36406 0
M  V30 2662 C 258.846 -2.11094 0.0163124 0
M  V30 2663 O 258.194 -2.05426 -1.00062 0
M  V30 2664 C 258.404 -2.3791 2.55343 0
M  V30 2665 C 259.752 -3.01637 2.98832 0
M  V30 2666 O 260.776 -2.48237 2.55455 0
M  V30 2667 O 259.635 -3.98477 3.74003 0
M  V30 2668 H 256.729 -0.626773 0.539523 0
M  V30 2669 H 259.275 -0.670317 1.559 0
M  V30 2670 H 258.047 -1.84525 3.4506 0
M  V30 2671 H 257.67 -3.18503 2.37995 0
M  V30 2672 N 258.668 -1.30515 -0.883378 0
M  V30 2673 C 259.631 -1.1701 -1.97082 0
M  V30 2674 C 260.631 -0.10089 -1.60483 0
M  V30 2675 O 261.821 -0.349127 -1.70666 0
M  V30 2676 C 258.953 -0.793045 -3.31547 0
M  V30 2677 H 260.146 -2.13622 -2.10489 0
M  V30 2678 H 257.699 -1.13935 -1.06998 0
M  V30 2679 H 258.434 0.172499 -3.23841 0
M  V30 2680 H 258.219 -1.56576 -3.5948 0
M  V30 2681 H 259.709 -0.722073 -4.1131 0
M  V30 2682 N 260.146 1.09593 -1.13257 0
M  V30 2683 C 261.109 2.14359 -0.811358 0
M  V30 2684 C 262.109 1.59808 0.178377 0
M  V30 2685 O 263.299 1.74132 -0.0484911 0
M  V30 2686 C 260.431 3.40269 -0.207276 0
M  V30 2687 H 261.624 2.44284 -1.73969 0
M  V30 2688 H 259.177 1.25102 -0.936973 0
M  V30 2689 H 259.912 3.15969 0.73036 0
M  V30 2690 H 259.697 3.81154 -0.919992 0
M  V30 2691 H 261.187 4.176 0.000667944 0
M  V30 2692 N 261.624 0.925811 1.2754 0
M  V30 2693 C 262.87 0.575575 1.95086 0
M  V30 2694 C 263.225 -0.873246 1.71441 0
M  V30 2695 O 262.518 -1.61443 1.03183 0
M  V30 2696 C 262.712 0.835296 3.47502 0
M  V30 2697 C 262.541 2.30781 3.85967 0
M  V30 2698 C 261.311 2.96017 4.09514 0
M  V30 2699 C 263.509 3.28519 3.95702 0
M  V30 2700 N 261.491 4.3344 4.34744 0
M  V30 2701 C 262.862 4.51146 4.25285 0
M  V30 2702 C 264.917 3.23753 3.7827 0
M  V30 2703 C 263.62 5.69606 4.39251 0
M  V30 2704 C 265.646 4.41523 3.9346 0
M  V30 2705 C 265.008 5.62928 4.23428 0
M  V30 2706 H 261.107 0.260711 0.737261 0
M  V30 2707 H 263.691 1.19204 1.53943 0
M  V30 2708 H 261.862 0.248005 3.87607 0
M  V30 2709 H 263.594 0.447878 4.02214 0
M  V30 2710 H 260.349 2.46695 4.04275 0
M  V30 2711 H 260.773 5.04528 4.5142 0
M  V30 2712 H 265.415 2.3096 3.54143 0
M  V30 2713 H 263.133 6.62866 4.62205 0
M  V30 2714 H 266.719 4.39351 3.81394 0
M  V30 2715 H 265.599 6.52538 4.34929 0
M  V30 2716 N 263.102 -1.41638 0.69111 0
M  V30 2717 C 264.518 -1.55435 0.362224 0
M  V30 2718 C 264.718 -1.66754 -1.13117 0
M  V30 2719 O 263.774 -1.64348 -1.91692 0
M  V30 2720 C 265.087 -2.79588 1.10684 0
M  V30 2721 C 266.635 -2.9338 1.09075 0
M  V30 2722 C 267.11 -4.20414 1.81703 0
M  V30 2723 N 268.601 -4.27362 1.7865 0
M  V30 2724 C 269.336 -5.24507 2.31689 0
M  V30 2725 N 268.832 -6.27708 2.93179 0
M  V30 2726 N 270.625 -5.16416 2.2197 0
M  V30 2727 H 262.776 -1.32536 1.65976 0
M  V30 2728 H 265.039 -0.639115 0.700168 0
M  V30 2729 H 264.745 -2.77419 2.16175 0
M  V30 2730 H 264.619 -3.70973 0.682545 0
M  V30 2731 H 267.006 -2.95067 0.0441238 0
M  V30 2732 H 267.087 -2.0318 1.55407 0
M  V30 2733 H 266.731 -4.19488 2.86343 0
M  V30 2734 H 266.661 -5.09578 1.32808 0
M  V30 2735 H 269.152 -3.53415 1.33815 0
M  V30 2736 H 269.465 -6.98217 3.31229 0
M  V30 2737 H 267.81 -6.28223 2.97255 0
M  V30 2738 H 271.001 -4.34716 1.73607 0
M  V30 2739 H 271.174 -5.91958 2.63609 0
M  V30 2740 N 264.58 -0.43555 -1.51462 0
M  V30 2741 C 265.527 0.376797 -2.27703 0
M  V30 2742 C 266.497 1.01838 -1.31219 0
M  V30 2743 O 267.682 1.03762 -1.60119 0
M  V30 2744 C 264.822 1.47301 -3.12084 0
M  V30 2745 C 263.935 0.849744 -4.2356 0
M  V30 2746 C 263.07 1.92086 -4.95254 0
M  V30 2747 C 262.109 1.27593 -5.98654 0
M  V30 2748 N 261.246 2.28833 -6.63762 0
M  V30 2749 H 266.086 -0.279734 -2.96684 0
M  V30 2750 H 263.623 -0.149795 -1.46335 0
M  V30 2751 H 265.581 2.11984 -3.59331 0
M  V30 2752 H 264.211 2.0992 -2.45221 0
M  V30 2753 H 263.263 0.0912529 -3.80291 0
M  V30 2754 H 264.575 0.338878 -4.97648 0
M  V30 2755 H 263.729 2.64435 -5.46039 0
M  V30 2756 H 262.468 2.46545 -4.20793 0
M  V30 2757 H 261.473 0.537893 -5.47162 0
M  V30 2758 H 262.698 0.738693 -6.7507 0
M  V30 2759 H 260.644 2.82375 -5.92115 0
M  V30 2760 H 260.561 1.82632 -7.33608 0
M  V30 2761 H 261.829 3.00671 -7.19178 0
M  V30 2762 N 266.058 1.56714 -0.166846 0
M  V30 2763 C 267.021 2.16539 0.751232 0
M  V30 2764 C 268.021 1.11228 1.16125 0
M  V30 2765 O 269.211 1.36765 1.07894 0
M  V30 2766 C 266.343 2.74462 2.02196 0
M  V30 2767 H 267.536 2.99013 0.230499 0
M  V30 2768 H 265.089 1.56081 0.0826982 0
M  V30 2769 H 265.824 1.95709 2.58589 0
M  V30 2770 H 265.609 3.51527 1.73698 0
M  V30 2771 H 267.099 3.20489 2.67725 0
M  V30 2772 N 267.536 -0.106894 1.57237 0
M  V30 2773 C 268.469 -1.16125 1.96444 0
M  V30 2774 C 269.447 -1.3947 0.835871 0
M  V30 2775 O 270.631 -1.53425 1.09513 0
M  V30 2776 C 267.758 -2.51277 2.27107 0
M  V30 2777 C 266.804 -2.44285 3.4961 0
M  V30 2778 S 267.637 -1.87077 5.01759 0
M  V30 2779 C 268.793 -3.23877 5.35588 0
M  V30 2780 H 269.026 -0.826971 2.85567 0
M  V30 2781 H 266.559 -0.314124 1.51171 0
M  V30 2782 H 268.517 -3.29035 2.45451 0
M  V30 2783 H 267.178 -2.81879 1.38576 0
M  V30 2784 H 266.371 -3.4387 3.68469 0
M  V30 2785 H 265.973 -1.74652 3.30715 0
M  V30 2786 H 268.265 -4.20122 5.31511 0
M  V30 2787 H 269.208 -3.09833 6.36717 0
M  V30 2788 H 269.616 -3.22864 4.63054 0
M  V30 2789 N 269.014 -1.53014 -0.377408 0
M  V30 2790 C 270.26 -1.69821 -1.11948 0
M  V30 2791 C 270.615 -0.438581 -1.87335 0
M  V30 2792 O 269.908 0.568094 -1.82984 0
M  V30 2793 C 270.102 -2.87982 -2.11663 0
M  V30 2794 C 269.931 -4.25315 -1.46072 0
M  V30 2795 C 268.701 -4.90354 -1.21986 0
M  V30 2796 C 270.899 -5.06281 -0.904664 0
M  V30 2797 N 268.881 -6.11641 -0.526215 0
M  V30 2798 C 270.252 -6.19069 -0.339726 0
M  V30 2799 C 272.307 -4.91395 -0.8022 0
M  V30 2800 C 271.01 -7.18598 0.317669 0
M  V30 2801 C 273.036 -5.91187 -0.158606 0
M  V30 2802 C 272.398 -7.03289 0.39551 0
M  V30 2803 H 268.497 -0.674785 -0.395207 0
M  V30 2804 H 271.081 -1.90389 -0.407437 0
M  V30 2805 H 269.252 -2.68974 -2.80192 0
M  V30 2806 H 270.984 -2.93669 -2.78461 0
M  V30 2807 H 267.739 -4.49286 -1.49798 0
M  V30 2808 H 268.163 -6.76719 -0.195098 0
M  V30 2809 H 272.805 -4.04925 -1.21639 0
M  V30 2810 H 270.523 -8.04669 0.743836 0
M  V30 2811 H 274.109 -5.81744 -0.0804138 0
M  V30 2812 H 272.989 -7.79183 0.885648 0
M  V30 2813 N 270.492 0.636531 -1.44174 0
M  V30 2814 C 271.402 1.77754 -1.53103 0
M  V30 2815 C 272.418 1.68928 -0.417034 0
M  V30 2816 O 273.594 1.89801 -0.6736 0
M  V30 2817 C 270.659 3.14115 -1.46741 0
M  V30 2818 C 269.72 3.34612 -2.68948 0
M  V30 2819 C 268.953 4.64467 -2.6288 0
M  V30 2820 O 269.176 5.44919 -1.68581 0
M  V30 2821 O 268.11 4.87049 -3.53648 0
M  V30 2822 H 271.936 1.73174 -2.49489 0
M  V30 2823 H 269.521 0.79709 -1.2636 0
M  V30 2824 H 271.403 3.95412 -1.45696 0
M  V30 2825 H 270.078 3.19249 -0.534975 0
M  V30 2826 H 268.985 2.53014 -2.75562 0
M  V30 2827 H 270.318 3.34336 -3.61221 0
M  V30 2828 N 271.97 1.30982 0.876444 0
M  V30 2829 C 273.198 1.23242 1.6619 0
M  V30 2830 C 273.613 -0.203345 1.87702 0
M  V30 2831 O 272.97 -1.13317 1.43057 0
M  V30 2832 C 273.021 1.96623 3.03351 0
M  V30 2833 O 272.742 3.34594 2.82804 0
M  V30 2834 C 274.243 1.95644 3.97792 0
M  V30 2835 H 271.463 0.426126 0.518322 0
M  V30 2836 H 274.007 1.7275 1.09442 0
M  V30 2837 H 272.162 1.50892 3.56806 0
M  V30 2838 H 272.576 3.71873 3.69879 0
M  V30 2839 H 274.05 2.51511 4.91372 0
M  V30 2840 H 274.527 0.937395 4.2908 0
M  V30 2841 H 275.133 2.41225 3.50272 0
M  V30 2842 N 273.449 -1.08991 1.13837 0
M  V30 2843 C 274.696 -1.81258 0.902882 0
M  V30 2844 C 275.024 -1.85936 -0.570803 0
M  V30 2845 O 274.279 -1.3267 -1.43865 0
M  V30 2846 C 274.578 -3.27042 1.44147 0
M  V30 2847 C 274.244 -3.4249 2.93276 0
M  V30 2848 C 272.906 -3.46414 3.33992 0
M  V30 2849 C 275.258 -3.4666 3.892 0
M  V30 2850 C 272.586 -3.52091 4.69307 0
M  V30 2851 C 274.938 -3.53872 5.24364 0
M  V30 2852 C 273.602 -3.56066 5.646 0
M  V30 2853 H 272.872 -0.663268 0.330388 0
M  V30 2854 H 275.519 -1.28368 1.42105 0
M  V30 2855 H 273.824 -3.82599 0.844097 0
M  V30 2856 H 275.521 -3.81499 1.23528 0
M  V30 2857 H 272.111 -3.40124 2.60794 0
M  V30 2858 H 276.295 -3.42865 3.58828 0
M  V30 2859 H 271.551 -3.52079 4.9985 0
M  V30 2860 H 275.725 -3.56043 5.98503 0
M  V30 2861 H 273.352 -3.60218 6.69438 0
M  V30 2862 N 274.927 -0.932562 -1.27047 0
M  V30 2863 C 276.157 -0.591173 -1.97961 0
M  V30 2864 C 276.565 0.836219 -1.69717 0
M  V30 2865 O 275.908 1.56801 -0.957036 0
M  V30 2866 C 275.97 -0.743082 -3.51736 0
M  V30 2867 C 275.634 -2.1435 -4.03613 0
M  V30 2868 C 276.631 -3.11815 -4.16014 0
M  V30 2869 C 274.316 -2.46175 -4.37839 0
M  V30 2870 C 276.31 -4.39211 -4.61923 0
M  V30 2871 C 273.997 -3.73806 -4.83438 0
M  V30 2872 C 274.995 -4.70137 -4.95439 0
M  V30 2873 O 274.683 -5.95496 -5.40037 0
M  V30 2874 H 274.415 -0.222375 -0.638377 0
M  V30 2875 H 276.969 -1.25317 -1.62742 0
M  V30 2876 H 275.199 -0.0239739 -3.86693 0
M  V30 2877 H 276.888 -0.40603 -4.03864 0
M  V30 2878 H 277.654 -2.88549 -3.89826 0
M  V30 2879 H 273.533 -1.71936 -4.27737 0
M  V30 2880 H 277.077 -5.14404 -4.71205 0
M  V30 2881 H 272.974 -3.96888 -5.09068 0
M  V30 2882 H 273.742 -5.98554 -5.58279 0
M  V30 2883 N 276.405 1.4127 -0.698611 0
M  V30 2884 C 277.353 2.32588 -0.023855 0
M  V30 2885 C 278.347 1.51128 0.765292 0
M  V30 2886 O 279.553 1.67043 0.670571 0
M  V30 2887 H 275.928 0.751918 0.0110871 0
M  V30 2888 H 277.899 2.87167 -0.811031 0
M  V30 2889 C 276.648 3.35947 0.896369 0
M  V30 2890 H 275.971 3.98684 0.298548 0
M  V30 2891 H 277.411 4.02376 1.33676 0
M  V30 2892 C 275.87 2.70076 2.01396 0
M  V30 2893 O 276.4 2.55093 3.10307 0
M  V30 2894 N 274.606 2.28724 1.79259 0
M  V30 2895 H 274.153 2.4111 0.906841 0
M  V30 2896 H 274.111 1.84986 2.54219 0
M  V30 2897 N 277.883 0.443576 1.51229 0
M  V30 2898 C 279.129 -0.120975 2.02439 0
M  V30 2899 C 279.462 -1.41815 1.32674 0
M  V30 2900 O 278.737 -1.89373 0.443622 0
M  V30 2901 C 279.02 -0.333291 3.58554 0
M  V30 2902 C 278.873 0.982968 4.38928 0
M  V30 2903 C 280.192 -1.10028 4.26124 0
M  V30 2904 H 277.311 -0.0424923 0.735774 0
M  V30 2905 H 279.953 0.583794 1.80809 0
M  V30 2906 H 278.103 -0.933614 3.77115 0
M  V30 2907 H 279.775 1.61775 4.32003 0
M  V30 2908 H 278.018 1.58611 4.03763 0
M  V30 2909 H 278.689 0.788379 5.46341 0
M  V30 2910 H 281.165 -0.591711 4.11871 0
M  V30 2911 H 280.041 -1.21761 5.35225 0
M  V30 2912 H 280.302 -2.12996 3.87408 0
M  V30 2913 N 279.361 -1.56624 0.175154 0
M  V30 2914 C 280.591 -2.01082 -0.474283 0
M  V30 2915 C 280.999 -1.05447 -1.57091 0
M  V30 2916 O 280.342 -0.0480595 -1.83637 0
M  V30 2917 C 280.404 -3.41963 -1.10911 0
M  V30 2918 C 280.068 -4.56742 -0.153666 0
M  V30 2919 C 281.065 -5.16076 0.629448 0
M  V30 2920 C 278.75 -5.02277 -0.0483776 0
M  V30 2921 C 280.744 -6.19377 1.50501 0
M  V30 2922 C 278.431 -6.05427 0.830768 0
M  V30 2923 C 279.429 -6.63849 1.60605 0
M  V30 2924 O 279.117 -7.64998 2.47049 0
M  V30 2925 H 278.849 -0.664261 -0.125432 0
M  V30 2926 H 281.403 -2.03549 0.275163 0
M  V30 2927 H 279.633 -3.36422 -1.90676 0
M  V30 2928 H 281.322 -3.70352 -1.66114 0
M  V30 2929 H 282.088 -4.81776 0.558297 0
M  V30 2930 H 277.967 -4.56513 -0.641611 0
M  V30 2931 H 281.511 -6.64906 2.1106 0
M  V30 2932 H 277.408 -6.39151 0.903107 0
M  V30 2933 H 278.176 -7.82336 2.40607 0
M  V30 2934 N 280.839 0.0985539 -1.57292 0
M  V30 2935 C 282.088 0.801358 -1.85098 0
M  V30 2936 C 282.401 1.80066 -0.763902 0
M  V30 2937 O 283.607 2.55112 -0.928981 0
M  V30 2938 C 282.063 1.47599 -3.28242 0
M  V30 2939 C 281.671 0.516624 -4.45011 0
M  V30 2940 C 283.415 2.16272 -3.65276 0
M  V30 2941 C 281.322 1.19564 -5.79188 0
M  V30 2942 H 280.252 0.303022 -0.69043 0
M  V30 2943 H 282.903 0.0542623 -1.8342 0
M  V30 2944 H 281.285 2.27042 -3.2445 0
M  V30 2945 H 282.459 -0.246065 -4.60143 0
M  V30 2946 H 280.774 -0.064227 -4.1635 0
M  V30 2947 H 283.371 2.67802 -4.62803 0
M  V30 2948 H 283.714 2.95009 -2.93727 0
M  V30 2949 H 284.247 1.43693 -3.70941 0
M  V30 2950 H 280.986 0.449157 -6.53959 0
M  V30 2951 H 280.506 1.92984 -5.67906 0
M  V30 2952 H 282.185 1.7231 -6.23633 0
M  V30 2953 N 282.317 1.53212 0.369288 0
M  V30 2954 C 283.733 1.42902 0.710712 0
M  V30 2955 C 283.933 0.565135 1.93413 0
M  V30 2956 O 282.989 0.0461484 2.52458 0
M  V30 2957 C 284.302 2.86042 0.927382 0
M  V30 2958 C 285.85 2.9565 1.02762 0
M  V30 2959 C 286.325 4.39843 1.27679 0
M  V30 2960 N 287.816 4.43256 1.34457 0
M  V30 2961 C 288.551 5.51929 1.55439 0
M  V30 2962 N 288.047 6.70655 1.73762 0
M  V30 2963 N 289.84 5.39502 1.57779 0
M  V30 2964 H 281.991 2.07888 -0.435457 0
M  V30 2965 H 284.254 0.938661 -0.132739 0
M  V30 2966 H 283.96 3.51557 0.100287 0
M  V30 2967 H 283.834 3.29472 1.83653 0
M  V30 2968 H 286.221 2.30291 1.84527 0
M  V30 2969 H 286.302 2.5562 0.0959504 0
M  V30 2970 H 285.946 5.05774 0.464175 0
M  V30 2971 H 285.876 4.77443 2.22162 0
M  V30 2972 H 288.367 3.5769 1.21926 0
M  V30 2973 H 288.68 7.49248 1.89335 0
M  V30 2974 H 287.025 6.73648 1.70948 0
M  V30 2975 H 290.216 4.45713 1.43029 0
M  V30 2976 H 290.389 6.2426 1.7379 0
M  V30 2977 N 283.795 -0.628877 1.44509 0
M  V30 2978 C 285.025 -1.41349 1.50678 0
M  V30 2979 C 285.433 -1.88745 0.131075 0
M  V30 2980 O 284.776 -1.61592 -0.87371 0
M  V30 2981 C 284.838 -2.66608 2.41165 0
M  V30 2982 C 284.502 -2.40993 3.88293 0
M  V30 2983 C 285.499 -2.0268 4.78766 0
M  V30 2984 C 283.184 -2.54563 4.33016 0
M  V30 2985 C 285.178 -1.78269 6.11963 0
M  V30 2986 C 282.865 -2.29766 5.6626 0
M  V30 2987 C 283.863 -1.91678 6.55552 0
M  V30 2988 O 283.551 -1.67158 7.86329 0
M  V30 2989 H 283.283 -0.439851 0.51333 0
M  V30 2990 H 285.837 -0.776084 1.90174 0
M  V30 2991 H 284.067 -3.32994 1.96601 0
M  V30 2992 H 285.756 -3.28615 2.38259 0
M  V30 2993 H 286.522 -1.91751 4.45485 0
M  V30 2994 H 282.401 -2.83179 3.63773 0
M  V30 2995 H 285.945 -1.48465 6.81619 0
M  V30 2996 H 281.842 -2.40306 5.99102 0
M  V30 2997 H 282.61 -1.81386 7.98149 0
M  V30 2998 N 285.273 -1.31445 -0.869486 0
M  V30 2999 C 286.498 -1.24256 -1.66058 0
M  V30 3000 C 286.923 0.188928 -1.87149 0
M  V30 3001 O 286.281 1.13522 -1.4136 0
M  V30 3002 C 286.329 -1.9924 -3.00559 0
M  V30 3003 O 285.433 -1.33007 -3.90362 0
M  V30 3004 H 284.774 -0.428973 -0.506831 0
M  V30 3005 H 287.304 -1.73521 -1.08404 0
M  V30 3006 H 287.314 -2.08854 -3.50491 0
M  V30 3007 H 285.989 -3.03342 -2.84528 0
M  V30 3008 H 284.566 -1.31848 -3.48813 0
M  V30 3009 N 286.751 1.08385 -1.14413 0
M  V30 3010 C 287.997 1.81044 -0.913834 0
M  V30 3011 C 288.33 1.86004 0.558209 0
M  V30 3012 O 287.605 1.33606 1.4135 0
M  V30 3013 C 287.888 3.26648 -1.51569 0
M  V30 3014 C 287.741 3.29895 -3.0576 0
M  V30 3015 C 289.06 4.23629 -1.19273 0
M  V30 3016 H 286.179 0.65727 -0.333414 0
M  V30 3017 H 288.821 1.26896 -1.41412 0
M  V30 3018 H 286.971 3.72889 -1.09023 0
M  V30 3019 H 288.643 2.91977 -3.57137 0
M  V30 3020 H 286.886 2.69163 -3.40197 0
M  V30 3021 H 287.557 4.32516 -3.42977 0
M  V30 3022 H 290.033 3.85727 -1.56057 0
M  V30 3023 H 288.909 5.23822 -1.64017 0
M  V30 3024 H 289.17 4.41968 -0.108068 0
M  V30 3025 N 288.23 0.939286 1.26551 0
M  V30 3026 C 289.14 0.453432 2.30176 0
M  V30 3027 C 290.156 -0.471649 1.67486 0
M  V30 3028 O 291.332 -0.35164 1.98306 0
M  V30 3029 C 288.397 -0.275326 3.45605 0
M  V30 3030 C 287.458 0.686084 4.23782 0
M  V30 3031 C 286.691 -0.00798994 5.33699 0
M  V30 3032 O 286.914 -1.22528 5.57085 0
M  V30 3033 O 285.848 0.669746 5.98162 0
M  V30 3034 H 289.674 1.31416 2.73795 0
M  V30 3035 H 287.259 0.705095 1.31715 0
M  V30 3036 H 289.141 -0.685911 4.1578 0
M  V30 3037 H 287.816 -1.11147 3.0402 0
M  V30 3038 H 286.723 1.14658 3.56096 0
M  V30 3039 H 288.056 1.48979 4.69112 0
M  V30 3040 N 289.708 -1.40897 0.706093 0
M  V30 3041 C 290.64 -2.29199 0.00815776 0
M  V30 3042 C 291.653 -1.45336 -0.733582 0
M  V30 3043 O 292.842 -1.68727 -0.582537 0
M  V30 3044 C 289.942 -3.23417 -1.01265 0
M  V30 3045 C 289.115 -4.36089 -0.338387 0
M  V30 3046 C 288.174 -5.10811 -1.26326 0
M  V30 3047 O 287.2 -5.64215 -0.751651 0
M  V30 3048 N 288.402 -5.19269 -2.595 0
M  V30 3049 H 291.167 -2.89738 0.766297 0
M  V30 3050 H 288.728 -1.52164 0.55296 0
M  V30 3051 H 290.72 -3.70276 -1.63334 0
M  V30 3052 H 289.29 -2.64112 -1.67223 0
M  V30 3053 H 288.51 -3.91479 0.462352 0
M  V30 3054 H 289.798 -5.08634 0.130031 0
M  V30 3055 H 289.196 -4.77347 -3.03573 0
M  V30 3056 H 287.753 -5.69667 -3.16737 0
M  V30 3057 N 291.186 -0.45159 -1.50991 0
M  V30 3058 C 292.149 0.341117 -2.26647 0
M  V30 3059 C 293.149 0.937422 -1.30649 0
M  V30 3060 O 294.339 0.809644 -1.54241 0
M  V30 3061 C 291.471 1.48398 -3.06905 0
M  V30 3062 H 292.664 -0.322117 -2.98165 0
M  V30 3063 H 290.217 -0.205122 -1.54948 0
M  V30 3064 H 290.952 2.18284 -2.39838 0
M  V30 3065 H 290.737 1.06241 -3.77432 0
M  V30 3066 H 292.227 2.04367 -3.64176 0
M  V30 3067 N 292.664 1.56529 -0.183458 0
M  V30 3068 C 294.08 1.58664 0.172554 0
M  V30 3069 C 294.28 1.19925 1.61926 0
M  V30 3070 O 293.336 0.916534 2.35278 0
M  V30 3071 C 294.649 3.00463 -0.119262 0
M  V30 3072 C 296.197 3.12945 -0.0584396 0
M  V30 3073 C 296.672 4.56857 -0.323408 0
M  V30 3074 N 298.163 4.62403 -0.271612 0
M  V30 3075 C 298.898 5.71626 -0.450639 0
M  V30 3076 N 298.394 6.89362 -0.689384 0
M  V30 3077 N 300.187 5.60775 -0.385701 0
M  V30 3078 H 292.338 1.79994 -1.12765 0
M  V30 3079 H 294.601 0.834808 -0.449222 0
M  V30 3080 H 294.307 3.33326 -1.12192 0
M  V30 3081 H 294.181 3.72659 0.583544 0
M  V30 3082 H 296.568 2.79902 0.934805 0
M  V30 3083 H 296.649 2.4316 -0.794144 0
M  V30 3084 H 296.293 4.9061 -1.31392 0
M  V30 3085 H 296.223 5.24816 0.43305 0
M  V30 3086 H 298.714 3.77785 -0.0932256 0
M  V30 3087 H 299.027 7.68489 -0.815113 0
M  V30 3088 H 297.372 6.91196 -0.726142 0
M  V30 3089 H 300.563 4.67674 -0.199687 0
M  V30 3090 H 300.736 6.4584 -0.528646 0
M  V30 3091 N 294.142 -0.090211 1.57342 0
M  V30 3092 C 295.074 -1.13541 1.99101 0
M  V30 3093 C 296.087 -1.3604 0.894258 0
M  V30 3094 O 297.276 -1.34606 1.17233 0
M  V30 3095 C 294.376 -2.49001 2.29895 0
M  V30 3096 C 293.549 -2.46712 3.61182 0
M  V30 3097 C 292.608 -3.64136 3.79857 0
M  V30 3098 O 291.634 -3.46405 4.51655 0
M  V30 3099 N 292.836 -4.83802 3.20806 0
M  V30 3100 H 295.601 -0.779942 2.89373 0
M  V30 3101 H 293.162 -0.279125 1.59476 0
M  V30 3102 H 295.154 -3.26166 2.39578 0
M  V30 3103 H 293.724 -2.76619 1.45605 0
M  V30 3104 H 292.944 -1.55058 3.62423 0
M  V30 3105 H 294.232 -2.42265 4.4742 0
M  V30 3106 H 293.63 -5.01112 2.62494 0
M  V30 3107 H 292.187 -5.58543 3.35966 0
M  V30 3108 N 295.62 -1.53406 -0.361157 0
M  V30 3109 C 297.036 -1.43277 -0.703124 0
M  V30 3110 C 297.236 -0.575384 -1.9311 0
M  V30 3111 O 296.292 -0.0595362 -2.5243 0
M  V30 3112 C 297.605 -2.8653 -0.9122 0
M  V30 3113 C 299.153 -2.96191 -1.01193 0
M  V30 3114 C 299.628 -4.40514 -1.25345 0
M  V30 3115 N 301.119 -4.43962 -1.32105 0
M  V30 3116 C 301.854 -5.52746 -1.5251 0
M  V30 3117 N 301.35 -6.71567 -1.70203 0
M  V30 3118 N 303.143 -5.40331 -1.54916 0
M  V30 3119 H 295.294 -2.07654 0.446475 0
M  V30 3120 H 297.557 -0.937944 0.137715 0
M  V30 3121 H 297.263 -3.51605 -0.0816414 0
M  V30 3122 H 297.137 -3.30441 -1.81903 0
M  V30 3123 H 299.524 -2.31266 -1.83303 0
M  V30 3124 H 299.605 -2.55667 -0.0823929 0
M  V30 3125 H 299.249 -5.06014 -0.437346 0
M  V30 3126 H 299.179 -4.78614 -2.19627 0
M  V30 3127 H 301.67 -3.58332 -1.20028 0
M  V30 3128 H 301.983 -7.50241 -1.85359 0
M  V30 3129 H 300.328 -6.74545 -1.67373 0
M  V30 3130 H 303.519 -4.46465 -1.40663 0
M  V30 3131 H 303.692 -6.25173 -1.70477 0
M  V30 3132 N 297.098 0.621204 -1.44841 0
M  V30 3133 C 298.346 1.37783 -1.47852 0
M  V30 3134 C 298.667 1.94653 -0.116224 0
M  V30 3135 O 297.937 1.76367 0.852737 0
M  V30 3136 H 296.517 0.511453 -0.544449 0
M  V30 3137 H 299.179 0.730446 -1.80694 0
M  V30 3138 H 298.275 2.20414 -2.20961 0
M  V30 3139 N 298.576 1.31904 0.862503 0
M  V30 3140 C 299.823 1.22017 1.61611 0
M  V30 3141 C 300.151 -0.21991 1.93253 0
M  V30 3142 O 299.406 -1.17076 1.56817 0
M  V30 3143 C 299.705 2.01713 2.95037 0
M  V30 3144 C 299.371 3.51145 2.82857 0
M  V30 3145 C 298.033 3.91889 2.79243 0
M  V30 3146 C 300.385 4.46204 2.69353 0
M  V30 3147 C 297.713 5.25947 2.59993 0
M  V30 3148 C 300.065 5.80397 2.5164 0
M  V30 3149 C 298.729 6.20352 2.46413 0
M  V30 3150 H 297.999 0.44649 0.591378 0
M  V30 3151 H 300.646 1.63248 1.00111 0
M  V30 3152 H 298.951 1.53185 3.60613 0
M  V30 3153 H 300.648 1.91437 3.52353 0
M  V30 3154 H 297.238 3.1878 2.86491 0
M  V30 3155 H 301.422 4.15652 2.71196 0
M  V30 3156 H 296.678 5.5597 2.54376 0
M  V30 3157 H 300.852 6.53676 2.40169 0
M  V30 3158 H 298.479 7.24172 2.31256 0
M  V30 3159 N 300.054 -1.07777 1.14986 0
M  V30 3160 C 301.282 -1.84018 0.945773 0
M  V30 3161 C 301.697 -1.81897 -0.505863 0
M  V30 3162 O 301.054 -1.22726 -1.35072 0
M  V30 3163 C 301.105 -3.31287 1.44677 0
M  V30 3164 O 300.826 -3.33449 2.84154 0
M  V30 3165 C 302.327 -4.24311 1.28355 0
M  V30 3166 H 299.547 -0.580716 0.336169 0
M  V30 3167 H 302.091 -1.36077 1.52654 0
M  V30 3168 H 300.246 -3.76594 0.908625 0
M  V30 3169 H 300.66 -4.25427 3.06777 0
M  V30 3170 H 302.134 -5.2573 1.68261 0
M  V30 3171 H 302.611 -4.38612 0.227184 0
M  V30 3172 H 303.217 -3.84836 1.81056 0
M  V30 3173 N 301.532 -0.945985 -1.26051 0
M  V30 3174 C 302.757 -0.612525 -1.98149 0
M  V30 3175 C 303.182 0.806623 -1.69927 0
M  V30 3176 O 302.54 1.54411 -0.950108 0
M  V30 3177 C 302.588 -0.866981 -3.50023 0
M  V30 3178 O 301.692 0.0585333 -4.12358 0
M  V30 3179 H 301.033 -0.23379 -0.621481 0
M  V30 3180 H 303.563 -1.27023 -1.60395 0
M  V30 3181 H 303.573 -0.789792 -4.00283 0
M  V30 3182 H 302.248 -1.90135 -3.69894 0
M  V30 3183 H 300.825 -0.0701241 -3.72834 0
M  V30 3184 N 303.011 1.40521 -0.713556 0
M  V30 3185 C 303.974 2.29098 -0.0684347 0
M  V30 3186 C 304.974 1.45268 0.689472 0
M  V30 3187 O 306.164 1.66205 0.521677 0
M  V30 3188 C 303.296 3.28446 0.913024 0
M  V30 3189 H 304.489 2.87645 -0.84855 0
M  V30 3190 H 302.042 1.48809 -0.47809 0
M  V30 3191 H 302.777 2.74913 1.72027 0
M  V30 3192 H 302.562 3.90327 0.372472 0
M  V30 3193 H 304.052 3.94777 1.36165 0
M  V30 3194 N 304.489 0.459591 1.5075 0
M  V30 3195 C 305.735 -0.0994966 2.02556 0
M  V30 3196 C 306.068 -1.40399 1.3417 0
M  V30 3197 O 305.343 -1.88892 0.463683 0
M  V30 3198 C 305.626 -0.295242 3.58888 0
M  V30 3199 C 305.479 1.02947 4.37861 0
M  V30 3200 C 306.798 -1.05502 4.27267 0
M  V30 3201 H 303.917 -0.034686 0.736183 0
M  V30 3202 H 306.559 0.602938 1.8018 0
M  V30 3203 H 304.709 -0.893563 3.78084 0
M  V30 3204 H 306.381 1.66348 4.30263 0
M  V30 3205 H 304.624 1.62885 4.02058 0
M  V30 3206 H 305.295 0.846281 5.45474 0
M  V30 3207 H 307.771 -0.547993 4.12476 0
M  V30 3208 H 306.647 -1.16077 5.36486 0
M  V30 3209 H 306.908 -2.08875 3.89645 0
M  V30 3210 N 305.967 -1.56429 0.191757 0
M  V30 3211 C 307.195 -2.01867 -0.453586 0
M  V30 3212 C 307.61 -1.07191 -1.5542 0
M  V30 3213 O 306.967 -0.0762108 -1.82341 0
M  V30 3214 C 307.018 -3.47017 -1.013 0
M  V30 3215 O 306.739 -4.38078 0.0437005 0
M  V30 3216 C 308.24 -4.07956 -1.73456 0
M  V30 3217 H 305.46 -0.661211 -0.114199 0
M  V30 3218 H 308.004 -2.02295 0.299483 0
M  V30 3219 H 306.159 -3.47298 -1.71647 0
M  V30 3220 H 306.573 -5.23178 -0.372212 0
M  V30 3221 H 308.047 -5.1138 -2.07833 0
M  V30 3222 H 308.524 -3.51222 -2.63704 0
M  V30 3223 H 309.13 -4.11437 -1.07702 0
M  V30 3224 N 307.445 0.0818655 -1.57387 0
M  V30 3225 C 308.694 0.781681 -1.85937 0
M  V30 3226 C 309.007 1.79246 -0.782957 0
M  V30 3227 O 310.213 2.54112 -0.955987 0
M  V30 3228 C 308.669 1.44109 -3.29789 0
M  V30 3229 C 308.277 0.469396 -4.45534 0
M  V30 3230 C 310.021 2.12386 -3.67549 0
M  V30 3231 C 307.928 1.13415 -5.80423 0
M  V30 3232 H 306.858 0.295682 -0.693605 0
M  V30 3233 H 309.509 0.0348051 -1.83467 0
M  V30 3234 H 307.891 2.23588 -3.2684 0
M  V30 3235 H 309.065 -0.294856 -4.59856 0
M  V30 3236 H 307.38 -0.108383 -4.16259 0
M  V30 3237 H 309.977 2.62878 -4.65617 0
M  V30 3238 H 310.32 2.91877 -2.96839 0
M  V30 3239 H 310.853 1.39751 -3.72444 0
M  V30 3240 H 307.592 0.379771 -6.54399 0
M  V30 3241 H 307.112 1.8695 -5.69921 0
M  V30 3242 H 308.791 1.65686 -6.25426 0
M  V30 3243 N 308.923 1.53595 0.353017 0
M  V30 3244 C 310.171 1.70049 1.09215 0
M  V30 3245 C 310.492 0.461406 1.89463 0
M  V30 3246 O 309.762 -0.524633 1.88744 0
M  V30 3247 H 308.342 0.626912 0.40619 0
M  V30 3248 H 311.004 1.90822 0.396585 0
M  V30 3249 H 310.1 2.56718 1.77488 0
M  V30 3250 N 310.401 -0.613514 1.45168 0
M  V30 3251 C 311.626 -1.40437 1.52618 0
M  V30 3252 C 312.051 -1.87438 0.157707 0
M  V30 3253 O 311.409 -1.59791 -0.856537 0
M  V30 3254 C 311.457 -2.58894 2.51011 0
M  V30 3255 O 310.561 -3.59326 2.02382 0
M  V30 3256 H 309.902 -0.419506 0.514695 0
M  V30 3257 H 312.432 -0.747215 1.90467 0
M  V30 3258 H 312.442 -3.06214 2.69624 0
M  V30 3259 H 311.117 -2.24032 3.50403 0
M  V30 3260 H 309.694 -3.18695 1.93618 0
M  V30 3261 N 311.879 -1.3236 -0.855495 0
M  V30 3262 C 313.126 -1.22872 -1.60962 0
M  V30 3263 C 313.454 0.209658 -1.93367 0
M  V30 3264 O 312.709 1.16243 -1.57436 0
M  V30 3265 C 313.008 -2.03275 -2.93963 0
M  V30 3266 C 312.674 -3.5264 -2.80991 0
M  V30 3267 C 311.336 -3.93364 -2.7716 0
M  V30 3268 C 313.688 -4.47626 -2.66983 0
M  V30 3269 C 311.016 -5.27319 -2.572 0
M  V30 3270 C 313.368 -5.81723 -2.48558 0
M  V30 3271 C 312.032 -6.2165 -2.4312 0
M  V30 3272 H 311.302 -0.44962 -0.589001 0
M  V30 3273 H 313.949 -1.63777 -0.992442 0
M  V30 3274 H 312.254 -1.55095 -3.59795 0
M  V30 3275 H 313.951 -1.93303 -3.51333 0
M  V30 3276 H 310.541 -3.20295 -2.84797 0
M  V30 3277 H 314.725 -4.17084 -2.68988 0
M  V30 3278 H 309.981 -5.57311 -2.51424 0
M  V30 3279 H 314.155 -6.5494 -2.36699 0
M  V30 3280 H 311.782 -7.25388 -2.27412 0
M  V30 3281 N 313.357 1.07166 -1.15556 0
M  V30 3282 C 314.603 1.80065 -0.932984 0
M  V30 3283 C 314.936 1.86586 0.53845 0
M  V30 3284 O 314.211 1.35098 1.39924 0
M  V30 3285 C 314.494 3.25022 -1.55025 0
M  V30 3286 C 314.347 3.26634 -3.09242 0
M  V30 3287 C 315.666 4.22341 -1.2376 0
M  V30 3288 H 312.785 0.653697 -0.340366 0
M  V30 3289 H 315.427 1.25389 -1.4275 0
M  V30 3290 H 313.577 3.71712 -1.12972 0
M  V30 3291 H 315.249 2.88173 -3.60214 0
M  V30 3292 H 313.492 2.65539 -3.43033 0
M  V30 3293 H 314.163 4.28854 -3.47546 0
M  V30 3294 H 316.639 3.8405 -1.60139 0
M  V30 3295 H 315.515 5.22053 -1.69564 0
M  V30 3296 H 315.776 4.41828 -0.154938 0
M  V30 3297 N 314.835 0.952656 1.25548 0
M  V30 3298 C 316.112 0.523818 1.88456 0
M  V30 3299 C 316.492 -0.998871 1.85973 0
M  V30 3300 O 315.84 -1.86381 1.3219 0
M  V30 3301 C 316.05 1.0982 3.31271 0
M  V30 3302 C 317.398 1.17385 4.08051 0
M  V30 3303 O 318.422 1.04961 3.40384 0
M  V30 3304 O 317.281 1.36852 5.29088 0
M  V30 3305 H 314.375 0.172485 0.808813 0
M  V30 3306 H 316.921 1.04596 1.33633 0
M  V30 3307 H 315.693 2.1415 3.27499 0
M  V30 3308 H 315.316 0.559191 3.93648 0
M  V30 3309 N 316.313 -1.40141 0.720998 0
M  V30 3310 C 317.541 -2.05096 0.272656 0
M  V30 3311 C 317.956 -1.54334 -1.0875 0
M  V30 3312 O 317.313 -0.702211 -1.6845 0
M  V30 3313 C 317.364 -3.60636 0.249835 0
M  V30 3314 O 317.085 -4.09526 1.55629 0
M  V30 3315 C 318.586 -4.42772 -0.216396 0
M  V30 3316 H 315.806 -0.659897 0.121558 0
M  V30 3317 H 318.35 -1.79449 0.980723 0
M  V30 3318 H 316.505 -3.85232 -0.409237 0
M  V30 3319 H 316.919 -5.03758 1.4604 0
M  V30 3320 H 318.393 -5.51702 -0.181212 0
M  V30 3321 H 318.87 -4.20756 -1.25941 0
M  V30 3322 H 319.476 -4.23294 0.412596 0
M  V30 3323 N 317.792 -0.46758 -1.50504 0
M  V30 3324 C 318.755 0.317059 -2.26996 0
M  V30 3325 C 319.755 0.923513 -1.31635 0
M  V30 3326 O 320.945 0.793239 -1.55091 0
M  V30 3327 C 318.077 1.45134 -3.08462 0
M  V30 3328 H 319.27 -0.353723 -2.97807 0
M  V30 3329 H 316.823 -0.221545 -1.54722 0
M  V30 3330 H 317.558 2.15728 -2.4214 0
M  V30 3331 H 317.343 1.02232 -3.78538 0
M  V30 3332 H 318.833 2.00493 -3.66323 0
M  V30 3333 N 319.27 1.56325 -0.20005 0
M  V30 3334 C 320.2 2.22318 0.713916 0
M  V30 3335 C 321.181 1.18788 1.21752 0
M  V30 3336 O 322.366 1.47309 1.26545 0
M  V30 3337 C 319.496 2.88639 1.93144 0
M  V30 3338 C 318.45 3.98457 1.56255 0
M  V30 3339 C 317.776 4.51967 2.85709 0
M  V30 3340 C 319.076 5.16612 0.768747 0
M  V30 3341 H 320.77 2.98952 0.163755 0
M  V30 3342 H 318.316 1.43792 0.0773219 0
M  V30 3343 H 320.269 3.33491 2.57608 0
M  V30 3344 H 318.993 2.09419 2.50621 0
M  V30 3345 H 317.652 3.54305 0.941471 0
M  V30 3346 H 317.3 3.69503 3.41287 0
M  V30 3347 H 317 5.26071 2.6177 0
M  V30 3348 H 318.524 4.99523 3.51154 0
M  V30 3349 H 319.938 5.57977 1.3166 0
M  V30 3350 H 318.335 5.96812 0.627286 0
M  V30 3351 H 319.405 4.84358 -0.229168 0
M  V30 3352 N 320.748 -0.0735177 1.57428 0
M  V30 3353 C 321.696 -1.10628 2.04607 0
M  V30 3354 C 322.69 -1.40181 0.951088 0
M  V30 3355 O 323.896 -1.39608 1.1362 0
M  V30 3356 H 320.271 -0.374088 0.652351 0
M  V30 3357 H 322.242 -0.682218 2.90497 0
M  V30 3358 C 320.991 -2.41212 2.50423 0
M  V30 3359 H 320.314 -2.19322 3.34272 0
M  V30 3360 H 321.754 -3.11927 2.87189 0
M  V30 3361 C 320.213 -3.0705 1.38644 0
M  V30 3362 O 320.743 -3.95056 0.727582 0
M  V30 3363 N 318.949 -2.67645 1.132 0
M  V30 3364 H 318.496 -1.96169 1.66959 0
M  V30 3365 H 318.454 -3.1202 0.386147 0
M  V30 3366 N 322.226 -1.5378 -0.344866 0
M  V30 3367 C 323.158 -1.77988 -1.44406 0
M  V30 3368 C 324.171 -0.661138 -1.48771 0
M  V30 3369 O 325.36 -0.937842 -1.51877 0
M  V30 3370 C 322.46 -1.86345 -2.8307 0
M  V30 3371 C 321.633 -3.16256 -3.0216 0
M  V30 3372 C 320.692 -3.15588 -4.21059 0
M  V30 3373 O 319.718 -3.89314 -4.15239 0
M  V30 3374 N 320.92 -2.37864 -5.29529 0
M  V30 3375 H 323.685 -2.72839 -1.24012 0
M  V30 3376 H 321.246 -1.52814 -0.534737 0
M  V30 3377 H 323.238 -1.83351 -3.60783 0
M  V30 3378 H 321.808 -0.986858 -2.96614 0
M  V30 3379 H 321.028 -3.32385 -2.11929 0
M  V30 3380 H 322.316 -4.0207 -3.11797 0
M  V30 3381 H 321.714 -1.77514 -5.37127 0
M  V30 3382 H 320.271 -2.40668 -6.05741 0
M  V30 3383 N 323.704 0.605807 -1.45491 0
M  V30 3384 C 324.952 1.36207 -1.49305 0
M  V30 3385 C 325.273 1.94519 -0.136863 0
M  V30 3386 O 324.543 1.77261 0.833983 0
M  V30 3387 H 323.123 0.50565 -0.549843 0
M  V30 3388 H 325.785 0.711239 -1.81459 0
M  V30 3389 H 324.881 2.18058 -2.23287 0
M  V30 3390 N 325.182 1.32811 0.848464 0
M  V30 3391 C 326.145 1.22194 1.9391 0
M  V30 3392 C 327.145 0.143404 1.60159 0
M  V30 3393 O 328.335 0.394253 1.6968 0
M  V30 3394 C 325.467 0.88067 3.29328 0
M  V30 3395 H 326.66 2.19127 2.04752 0
M  V30 3396 H 324.213 1.16731 1.0394 0
M  V30 3397 H 324.948 -0.0865776 3.24184 0
M  V30 3398 H 324.733 1.66052 3.55203 0
M  V30 3399 H 326.223 0.830871 4.09251 0
M  V30 3400 N 326.66 -1.06551 1.16123 0
M  V30 3401 C 327.888 -1.83005 0.965237 0
M  V30 3402 C 328.303 -1.82423 -0.486542 0
M  V30 3403 O 327.66 -1.24152 -1.33763 0
M  V30 3404 C 327.711 -3.29733 1.48183 0
M  V30 3405 O 327.432 -3.30416 2.87674 0
M  V30 3406 C 328.933 -4.22926 1.32848 0
M  V30 3407 H 326.153 -0.577118 0.342309 0
M  V30 3408 H 328.697 -1.3445 1.54089 0
M  V30 3409 H 326.852 -3.75609 0.948517 0
M  V30 3410 H 327.266 -4.22149 3.11272 0
M  V30 3411 H 328.74 -5.23916 1.73827 0
M  V30 3412 H 329.217 -4.38346 0.273692 0
M  V30 3413 H 329.823 -3.82894 1.85127 0
M  V30 3414 N 328.138 -0.959301 -1.25041 0
M  V30 3415 C 329.386 -0.615393 -1.92503 0
M  V30 3416 C 329.707 0.850969 -1.75452 0
M  V30 3417 O 328.977 1.60658 -1.12098 0
M  V30 3418 H 327.557 -0.224613 -0.712431 0
M  V30 3419 H 330.219 -1.21855 -1.5211 0
M  V30 3420 H 329.315 -0.848738 -3.00338 0
M  V30 3421 N 329.616 1.39756 -0.72842 0
M  V30 3422 C 330.864 2.00248 -0.272946 0
M  V30 3423 C 331.185 1.58077 1.14178 0
M  V30 3424 O 330.455 0.826014 1.77634 0
M  V30 3425 H 329.035 0.740554 -0.0979247 0
M  V30 3426 H 331.697 1.70903 -0.936912 0
M  V30 3427 H 330.793 3.10495 -0.316142 0
M  V30 3428 N 331.094 0.475555 1.50254 0
M  V30 3429 C 332.319 -0.0777042 2.07254 0
M  V30 3430 C 332.744 -1.3235 1.3366 0
M  V30 3431 O 332.102 -1.77152 0.385597 0
M  V30 3432 C 332.15 -0.340169 3.58992 0
M  V30 3433 O 331.254 -1.41982 3.87188 0
M  V30 3434 H 330.595 0.0149556 0.663832 0
M  V30 3435 H 333.125 0.667878 1.93392 0
M  V30 3436 H 333.135 -0.579332 4.03866 0
M  V30 3437 H 331.81 0.570167 4.11973 0
M  V30 3438 H 330.387 -1.16762 3.54148 0
M  V30 3439 N 332.573 -1.56217 0.208337 0
M  V30 3440 C 333.85 -1.89739 -0.475234 0
M  V30 3441 C 334.23 -1.1238 -1.78701 0
M  V30 3442 O 333.578 -0.228979 -2.2735 0
M  V30 3443 C 333.788 -3.42289 -0.681101 0
M  V30 3444 C 335.136 -4.12789 -0.994507 0
M  V30 3445 O 336.16 -3.47814 -0.768357 0
M  V30 3446 O 335.019 -5.27649 -1.42299 0
M  V30 3447 H 332.113 -0.788478 -0.249461 0
M  V30 3448 H 334.659 -1.67855 0.249538 0
M  V30 3449 H 333.431 -3.90534 0.244722 0
M  V30 3450 H 333.054 -3.69909 -1.45785 0
M  V30 3451 N 334.051 0.0651679 -1.57465 0
M  V30 3452 C 335.279 0.775808 -1.91804 0
M  V30 3453 C 335.694 1.70782 -0.804916 0
M  V30 3454 O 335.051 1.81153 0.221311 0
M  V30 3455 C 335.102 1.56381 -3.25925 0
M  V30 3456 O 334.823 0.669248 -4.32958 0
M  V30 3457 C 336.324 2.37485 -3.7432 0
M  V30 3458 H 333.544 0.2202 -0.63384 0
M  V30 3459 H 336.088 0.0334587 -2.04473 0
M  V30 3460 H 334.243 2.25837 -3.14764 0
M  V30 3461 H 334.657 1.21801 -5.10162 0
M  V30 3462 H 336.131 2.88223 -4.70778 0
M  V30 3463 H 336.608 3.17307 -3.03666 0
M  V30 3464 H 337.214 1.73173 -3.88447 0
M  V30 3465 N 335.529 1.53961 0.336706 0
M  V30 3466 C 336.459 1.85417 1.41925 0
M  V30 3467 C 337.44 0.709856 1.5458 0
M  V30 3468 O 338.625 0.962396 1.68676 0
M  V30 3469 C 335.755 2.06985 2.78881 0
M  V30 3470 C 334.709 3.22813 2.81026 0
M  V30 3471 C 334.035 3.29727 4.20932 0
M  V30 3472 C 335.335 4.60767 2.45949 0
M  V30 3473 H 337.029 2.76079 1.15848 0
M  V30 3474 H 334.575 1.32839 0.555859 0
M  V30 3475 H 336.528 2.27575 3.54665 0
M  V30 3476 H 335.252 1.13061 3.06406 0
M  V30 3477 H 333.911 3.0209 2.07695 0
M  V30 3478 H 333.559 2.33385 4.45579 0
M  V30 3479 H 333.259 4.07566 4.23277 0
M  V30 3480 H 334.783 3.52536 4.98549 0
M  V30 3481 H 336.197 4.81325 3.11446 0
M  V30 3482 H 334.594 5.4106 2.59566 0
M  V30 3483 H 335.664 4.6391 1.41122 0
M  V30 3484 N 337.007 -0.598083 1.45811 0
M  V30 3485 C 337.939 -1.72231 1.51225 0
M  V30 3486 C 338.952 -1.57757 0.402059 0
M  V30 3487 O 340.141 -1.65464 0.669624 0
M  V30 3488 C 337.241 -3.10331 1.3619 0
M  V30 3489 C 336.414 -3.50955 2.61054 0
M  V30 3490 C 335.473 -4.68055 2.40439 0
M  V30 3491 O 334.499 -4.74691 3.14097 0
M  V30 3492 N 335.701 -5.61941 1.45612 0
M  V30 3493 H 338.466 -1.68046 2.48154 0
M  V30 3494 H 336.027 -0.783637 1.41671 0
M  V30 3495 H 338.019 -3.86439 1.20195 0
M  V30 3496 H 336.589 -3.0897 0.475015 0
M  V30 3497 H 335.809 -2.64711 2.92099 0
M  V30 3498 H 337.097 -3.74858 3.44034 0
M  V30 3499 H 336.495 -5.59301 0.848431 0
M  V30 3500 H 335.052 -6.37542 1.35585 0
M  V30 3501 N 338.485 -1.33259 -0.841409 0
M  V30 3502 C 339.733 -1.24326 -1.59334 0
M  V30 3503 C 340.054 0.191564 -1.94057 0
M  V30 3504 O 339.324 1.11967 -1.60749 0
M  V30 3505 H 337.904 -0.457174 -0.590763 0
M  V30 3506 H 340.566 -1.66947 -1.00571 0
M  V30 3507 H 339.662 -1.8352 -2.52442 0
M  V30 3508 N 339.963 1.05934 -1.16686 0
M  V30 3509 C 340.893 2.1546 -0.899949 0
M  V30 3510 C 341.874 1.69391 0.155154 0
M  V30 3511 O 343.059 1.94199 0.00648693 0
M  V30 3512 C 340.189 3.44939 -0.404241 0
M  V30 3513 C 339.143 4.04536 -1.39767 0
M  V30 3514 C 338.469 5.29268 -0.760216 0
M  V30 3515 C 339.769 4.42893 -2.76845 0
M  V30 3516 H 341.463 2.38046 -1.81588 0
M  V30 3517 H 339.009 1.14404 -0.874514 0
M  V30 3518 H 340.962 4.20901 -0.204971 0
M  V30 3519 H 339.686 3.21983 0.547206 0
M  V30 3520 H 338.345 3.30635 -1.58355 0
M  V30 3521 H 337.993 5.02611 0.197831 0
M  V30 3522 H 337.693 5.70101 -1.42332 0
M  V30 3523 H 339.217 6.07924 -0.57105 0
M  V30 3524 H 340.631 5.09921 -2.62019 0
M  V30 3525 H 339.028 4.94721 -3.39663 0
M  V30 3526 H 340.098 3.53584 -3.31823 0
M  V30 3527 N 341.441 0.965919 1.2453 0
M  V30 3528 C 342.371 0.513476 2.27784 0
M  V30 3529 C 343.352 -0.445974 1.6415 0
M  V30 3530 O 344.537 -0.342485 1.91156 0
M  V30 3531 C 341.667 -0.198839 3.4673 0
M  V30 3532 C 340.621 0.676456 4.2262 0
M  V30 3533 C 339.947 -0.167248 5.34438 0
M  V30 3534 C 341.247 1.96017 4.84123 0
M  V30 3535 H 342.941 1.3765 2.65881 0
M  V30 3536 H 340.487 0.663321 1.27813 0
M  V30 3537 H 342.44 -0.526567 4.18097 0
M  V30 3538 H 341.164 -1.0962 3.07654 0
M  V30 3539 H 339.823 0.98743 3.53052 0
M  V30 3540 H 339.471 -1.0647 4.91603 0
M  V30 3541 H 339.171 0.415181 5.86131 0
M  V30 3542 H 340.695 -0.489688 6.08633 0
M  V30 3543 H 342.109 1.69814 5.47573 0
M  V30 3544 H 340.506 2.48918 5.4604 0
M  V30 3545 H 341.576 2.65622 4.05676 0
M  V30 3546 N 342.919 -1.39368 0.735821 0
M  V30 3547 C 343.882 -2.2896 0.104874 0
M  V30 3548 C 344.882 -1.46347 -0.666274 0
M  V30 3549 O 346.072 -1.67014 -0.49517 0
M  V30 3550 C 343.204 -3.29857 -0.860656 0
M  V30 3551 H 344.397 -2.86259 0.894205 0
M  V30 3552 H 341.95 -1.48029 0.501704 0
M  V30 3553 H 342.685 -2.77615 -1.67631 0
M  V30 3554 H 342.47 -3.9087 -0.310327 0
M  V30 3555 H 343.96 -3.96893 -1.29867 0
M  V30 3556 N 344.397 -0.483516 -1.5 0
M  V30 3557 C 345.813 -0.138404 -1.58999 0
M  V30 3558 C 346.013 1.35597 -1.4905 0
M  V30 3559 O 345.069 2.13039 -1.35539 0
M  V30 3560 C 346.382 -0.699658 -2.92447 0
M  V30 3561 C 347.93 -0.664195 -3.05872 0
M  V30 3562 C 348.405 -1.20321 -4.41913 0
M  V30 3563 N 349.896 -1.16315 -4.48358 0
M  V30 3564 C 350.631 -1.55058 -5.52037 0
M  V30 3565 N 350.127 -2.01311 -6.62907 0
M  V30 3566 N 351.92 -1.46584 -5.42651 0
M  V30 3567 H 344.071 -1.45529 -1.5471 0
M  V30 3568 H 346.334 -0.60258 -0.731848 0
M  V30 3569 H 346.04 -1.747 -3.05242 0
M  V30 3570 H 345.914 -0.150194 -3.76901 0
M  V30 3571 H 348.301 0.374272 -2.92717 0
M  V30 3572 H 348.382 -1.25061 -2.23144 0
M  V30 3573 H 348.026 -2.24037 -4.55818 0
M  V30 3574 H 347.956 -0.592896 -5.23252 0
M  V30 3575 H 350.447 -0.824058 -3.68806 0
M  V30 3576 H 350.76 -2.2899 -7.38095 0
M  V30 3577 H 349.105 -2.05273 -6.63994 0
M  V30 3578 H 352.296 -1.10281 -4.54924 0
M  V30 3579 H 352.469 -1.77103 -6.23329 0
M  V30 3580 N 345.875 1.56104 -0.216619 0
M  V30 3581 C 347.1 2.0301 0.424462 0
M  V30 3582 C 347.525 1.0955 1.52907 0
M  V30 3583 O 346.883 0.0827914 1.81111 0
M  V30 3584 C 346.931 3.4819 0.937883 0
M  V30 3585 O 346.035 3.57865 2.04955 0
M  V30 3586 H 345.376 0.656925 0.0966755 0
M  V30 3587 H 347.906 2.01859 -0.33381 0
M  V30 3588 H 347.916 3.88413 1.24897 0
M  V30 3589 H 346.591 4.15699 0.129387 0
M  V30 3590 H 345.168 3.29527 1.74546 0
M  V30 3591 N 347.353 -0.0568162 1.57498 0
M  V30 3592 C 348.601 -0.751617 1.87604 0
M  V30 3593 C 348.922 -1.77351 0.81066 0
M  V30 3594 O 348.192 -1.95254 -0.159018 0
M  V30 3595 H 346.772 -0.280583 0.692302 0
M  V30 3596 H 349.434 -0.0293483 1.94878 0
M  V30 3597 H 348.53 -1.25852 2.856 0
M  V30 3598 N 348.832 -1.54138 -0.328536 0
M  V30 3599 C 350.057 -1.76378 -1.09112 0
M  V30 3600 C 350.482 -0.508596 -1.81094 0
M  V30 3601 O 349.84 0.539598 -1.73084 0
M  V30 3602 C 349.888 -2.95358 -2.06872 0
M  V30 3603 O 348.992 -2.66556 -3.14677 0
M  V30 3604 H 348.333 -0.584614 -0.314838 0
M  V30 3605 H 350.863 -2.01146 -0.374348 0
M  V30 3606 H 350.873 -3.22566 -2.4983 0
M  V30 3607 H 349.548 -3.86385 -1.5388 0
M  V30 3608 H 348.125 -2.50282 -2.7643 0
M  V30 3609 N 350.31 0.590341 -1.46126 0
M  V30 3610 C 351.535 1.37991 -1.54833 0
M  V30 3611 C 351.96 1.87163 -0.187506 0
M  V30 3612 O 351.318 1.61133 0.831008 0
M  V30 3613 C 351.366 2.54867 -2.55098 0
M  V30 3614 O 350.47 3.56061 -2.08073 0
M  V30 3615 H 349.811 0.411265 -0.521303 0
M  V30 3616 H 352.341 0.716819 -1.91632 0
M  V30 3617 H 352.351 3.01886 -2.74461 0
M  V30 3618 H 351.026 2.18429 -3.53923 0
M  V30 3619 H 349.603 3.15574 -1.98664 0
M  V30 3620 N 351.788 1.33704 0.83433 0
M  V30 3621 C 353.013 1.28615 1.62705 0
M  V30 3622 C 353.438 -0.139242 1.87584 0
M  V30 3623 O 352.796 -1.09734 1.4432 0
M  V30 3624 C 352.844 2.07139 2.95171 0
M  V30 3625 O 351.948 1.4331 3.86699 0
M  V30 3626 H 351.289 0.44226 0.49528 0
M  V30 3627 H 353.819 1.76335 1.03766 0
M  V30 3628 H 353.829 2.18073 3.44831 0
M  V30 3629 H 352.504 3.10779 2.76386 0
M  V30 3630 H 351.081 1.4105 3.45195 0
M  V30 3631 N 353.266 -1.05314 1.17247 0
M  V30 3632 C 354.214 -2.15137 0.884238 0
M  V30 3633 C 355.208 -1.68729 -0.15063 0
M  V30 3634 O 356.414 -1.8 -0.00366673 0
M  V30 3635 H 352.789 -0.702471 0.2684 0
M  V30 3636 H 354.76 -2.36652 1.81764 0
M  V30 3637 C 353.509 -3.45243 0.412659 0
M  V30 3638 H 352.832 -3.81352 1.20043 0
M  V30 3639 H 354.272 -4.23263 0.249858 0
M  V30 3640 C 352.731 -3.25487 -0.86948 0
M  V30 3641 O 353.261 -3.51938 -1.93655 0
M  V30 3642 N 351.467 -2.78875 -0.817147 0
M  V30 3643 H 351.014 -2.57549 0.0514211 0
M  V30 3644 H 350.972 -2.66036 -1.67547 0
M  V30 3645 N 354.744 -0.972509 -1.24016 0
M  V30 3646 C 355.654 -0.5143 -2.28893 0
M  V30 3647 C 356.67 0.427078 -1.68677 0
M  V30 3648 O 357.846 0.298939 -1.99169 0
M  V30 3649 C 354.911 0.183598 -3.46214 0
M  V30 3650 C 353.972 -0.798202 -4.21814 0
M  V30 3651 C 353.205 -0.133514 -5.33533 0
M  V30 3652 O 353.428 1.07714 -5.60137 0
M  V30 3653 O 352.362 -0.828103 -5.96176 0
M  V30 3654 H 356.188 -1.38629 -2.70214 0
M  V30 3655 H 353.773 -0.739769 -1.29799 0
M  V30 3656 H 355.655 0.575433 -4.17453 0
M  V30 3657 H 354.33 1.03048 -3.0686 0
M  V30 3658 H 353.237 -1.24059 -3.52931 0
M  V30 3659 H 354.57 -1.61364 -4.64997 0
M  V30 3660 N 356.222 1.38976 -0.743202 0
M  V30 3661 C 357.169 2.30544 -0.10861 0
M  V30 3662 C 358.139 1.49642 0.720869 0
M  V30 3663 O 359.324 1.78304 0.679142 0
M  V30 3664 C 356.464 3.36018 0.786496 0
M  V30 3665 C 355.577 4.31963 -0.0564849 0
M  V30 3666 C 354.712 5.24506 0.840657 0
M  V30 3667 C 353.751 6.121 -0.00658363 0
M  V30 3668 N 352.888 6.96973 0.846943 0
M  V30 3669 H 357.728 2.8424 -0.895088 0
M  V30 3670 H 355.265 1.3995 -0.453048 0
M  V30 3671 H 357.223 3.95768 1.31999 0
M  V30 3672 H 355.853 2.83758 1.53887 0
M  V30 3673 H 354.905 3.73763 -0.707492 0
M  V30 3674 H 356.217 4.93703 -0.711229 0
M  V30 3675 H 355.371 5.89322 1.4417 0
M  V30 3676 H 354.11 4.63107 1.52916 0
M  V30 3677 H 353.115 5.46289 -0.620366 0
M  V30 3678 H 354.34 6.75565 -0.691992 0
M  V30 3679 H 352.286 6.38133 1.52059 0
M  V30 3680 H 352.203 7.5559 0.248864 0
M  V30 3681 H 353.471 7.6621 1.43328 0
M  V30 3682 N 357.7 0.491464 1.49741 0
M  V30 3683 C 358.928 -0.0535151 2.06831 0
M  V30 3684 C 359.343 -1.31683 1.35296 0
M  V30 3685 O 358.7 -1.77402 0.42836 0
M  V30 3686 C 358.751 -0.320835 3.60073 0
M  V30 3687 O 358.472 0.892394 4.28915 0
M  V30 3688 C 359.973 -0.910519 4.33848 0
M  V30 3689 H 357.193 0.0161909 0.670805 0
M  V30 3690 H 359.737 0.68609 1.92647 0
M  V30 3691 H 357.892 -1.0104 3.73991 0
M  V30 3692 H 358.306 0.649401 5.20464 0
M  V30 3693 H 359.78 -1.04721 5.41976 0
M  V30 3694 H 360.257 -1.90589 3.95692 0
M  V30 3695 H 360.863 -0.258712 4.24512 0
M  V30 3696 N 359.178 -1.55987 0.224894 0
M  V30 3697 C 360.425 -1.9839 -0.4059 0
M  V30 3698 C 360.753 -1.11261 -1.59535 0
M  V30 3699 O 360.008 -0.158314 -1.95059 0
M  V30 3700 C 360.307 -3.46394 -0.880106 0
M  V30 3701 C 359.973 -4.5046 0.19918 0
M  V30 3702 C 358.635 -4.7864 0.495661 0
M  V30 3703 C 360.987 -5.12855 0.928939 0
M  V30 3704 C 358.315 -5.66497 1.52636 0
M  V30 3705 C 360.667 -6.01828 1.949 0
M  V30 3706 C 359.331 -6.28351 2.25236 0
M  V30 3707 H 358.601 -0.725961 -0.148529 0
M  V30 3708 H 361.248 -1.88668 0.328113 0
M  V30 3709 H 359.553 -3.53337 -1.69294 0
M  V30 3710 H 361.25 -3.76577 -1.37808 0
M  V30 3711 H 357.84 -4.28579 -0.0420526 0
M  V30 3712 H 362.024 -4.9115 0.713129 0
M  V30 3713 H 357.28 -5.8531 1.76698 0
M  V30 3714 H 361.454 -6.49225 2.51951 0
M  V30 3715 H 359.081 -6.96226 3.05244 0
M  V30 3716 N 360.656 0.0484629 -1.57525 0
M  V30 3717 C 361.589 1.08755 -2.00618 0
M  V30 3718 C 362.567 1.36272 -0.887058 0
M  V30 3719 O 363.751 1.49255 -1.15131 0
M  V30 3720 C 360.878 2.42675 -2.36277 0
M  V30 3721 C 359.924 2.31142 -3.58435 0
M  V30 3722 S 360.757 1.68326 -5.08357 0
M  V30 3723 C 361.913 3.03776 -5.47239 0
M  V30 3724 H 362.146 0.720415 -2.88439 0
M  V30 3725 H 359.679 0.257801 -1.52233 0
M  V30 3726 H 361.637 3.19699 -2.57494 0
M  V30 3727 H 360.298 2.76541 -1.48942 0
M  V30 3728 H 359.491 3.29957 -3.80978 0
M  V30 3729 H 359.093 1.62258 -3.36969 0
M  V30 3730 H 361.385 4.00106 -5.46737 0
M  V30 3731 H 362.328 2.85988 -6.47778 0
M  V30 3732 H 362.736 3.05456 -4.74718 0
M  V30 3733 N 362.134 1.5431 0.320358 0
M  V30 3734 C 363.081 1.83918 1.39438 0
M  V30 3735 C 364.051 0.686525 1.51248 0
M  V30 3736 O 365.236 0.933269 1.66417 0
M  V30 3737 C 362.376 2.075 2.75749 0
M  V30 3738 C 361.489 3.35177 2.72544 0
M  V30 3739 C 360.624 3.48704 4.00723 0
M  V30 3740 C 359.663 4.70244 3.91838 0
M  V30 3741 N 358.8 4.80679 5.11754 0
M  V30 3742 H 363.64 2.75544 1.13489 0
M  V30 3743 H 361.177 1.36459 0.549309 0
M  V30 3744 H 363.135 2.19166 3.54996 0
M  V30 3745 H 361.765 1.19163 3 0
M  V30 3746 H 360.817 3.32233 1.85271 0
M  V30 3747 H 362.129 4.24534 2.61863 0
M  V30 3748 H 361.283 3.59928 4.88402 0
M  V30 3749 H 360.022 2.57445 4.14214 0
M  V30 3750 H 359.027 4.59072 3.02544 0
M  V30 3751 H 360.252 5.6289 3.7991 0
M  V30 3752 H 358.198 3.92337 5.25745 0
M  V30 3753 H 358.115 5.64007 5.0342 0
M  V30 3754 H 359.383 4.96239 6.01138 0
M  V30 3755 N 363.613 -0.582584 1.46437 0
M  V30 3756 C 364.561 -1.71272 1.5738 0
M  V30 3757 C 365.555 -1.63524 0.44229 0
M  V30 3758 O 366.761 -1.69016 0.619166 0
M  V30 3759 H 363.136 -0.566273 0.494813 0
M  V30 3760 H 365.107 -1.59174 2.52401 0
M  V30 3761 C 363.856 -3.09658 1.58136 0
M  V30 3762 H 363.179 -3.16291 2.44541 0
M  V30 3763 H 364.619 -3.88494 1.69847 0
M  V30 3764 C 363.078 -3.3547 0.310026 0
M  V30 3765 O 363.608 -3.97199 -0.599683 0
M  V30 3766 N 361.814 -2.89925 0.197901 0
M  V30 3767 H 361.361 -2.39873 0.93909 0
M  V30 3768 H 361.319 -3.07568 -0.65185 0
M  V30 3769 N 365.091 -1.34144 -0.827227 0
M  V30 3770 C 366.338 -1.26258 -1.58319 0
M  V30 3771 C 366.666 0.168595 -1.93768 0
M  V30 3772 O 365.921 1.12877 -1.59866 0
M  V30 3773 C 366.22 -2.09464 -2.89585 0
M  V30 3774 C 365.886 -3.58521 -2.73448 0
M  V30 3775 C 364.548 -3.99155 -2.68754 0
M  V30 3776 C 366.9 -4.53189 -2.57428 0
M  V30 3777 C 364.228 -5.32656 -2.45957 0
M  V30 3778 C 366.58 -5.86864 -2.36163 0
M  V30 3779 C 365.244 -6.26667 -2.29879 0
M  V30 3780 H 364.514 -0.462013 -0.579332 0
M  V30 3781 H 367.161 -1.65845 -0.95748 0
M  V30 3782 H 365.466 -1.62692 -3.56425 0
M  V30 3783 H 367.163 -2.00712 -3.47154 0
M  V30 3784 H 363.753 -3.26264 -2.77939 0
M  V30 3785 H 367.937 -4.22696 -2.60081 0
M  V30 3786 H 363.193 -5.62519 -2.39546 0
M  V30 3787 H 367.367 -6.59813 -2.22754 0
M  V30 3788 H 364.994 -7.30049 -2.11975 0
M  V30 3789 N 366.569 1.04691 -1.17803 0
M  V30 3790 C 367.519 2.10856 -0.867391 0
M  V30 3791 C 368.503 1.601 0.160206 0
M  V30 3792 O 369.695 1.76948 -0.042947 0
M  V30 3793 C 366.824 3.411 -0.388012 0
M  V30 3794 C 365.91 3.9864 -1.44732 0
M  V30 3795 N 366.301 4.30075 -2.66212 0
M  V30 3796 C 364.599 4.26439 -1.30637 0
M  V30 3797 C 365.3 4.76033 -3.34317 0
M  V30 3798 N 364.276 4.76462 -2.61696 0
M  V30 3799 H 368.078 2.33029 -1.79094 0
M  V30 3800 H 365.592 1.22386 -1.0675 0
M  V30 3801 H 367.589 4.16641 -0.146994 0
M  V30 3802 H 366.249 3.20357 0.529271 0
M  V30 3803 H 367.26 4.19917 -3.03134 0
M  V30 3804 H 363.937 4.15056 -0.451129 0
M  V30 3805 H 365.327 5.09427 -4.38103 0
M  V30 3806 N 368.047 0.979072 1.23499 0
M  V30 3807 C 369.01 0.523244 2.23147 0
M  V30 3808 C 370.01 -0.386406 1.56088 0
M  V30 3809 O 371.2 -0.180283 1.73265 0
M  V30 3810 C 368.332 -0.240739 3.40049 0
M  V30 3811 H 369.525 1.40432 2.64989 0
M  V30 3812 H 367.078 0.764824 1.36309 0
M  V30 3813 H 367.813 -1.13841 3.03662 0
M  V30 3814 H 367.598 0.412207 3.89927 0
M  V30 3815 H 369.088 -0.548297 4.13985 0
M  V30 3816 N 369.525 -1.3858 0.750561 0
M  V30 3817 C 370.472 -2.30483 0.120835 0
M  V30 3818 C 371.442 -1.50022 -0.712923 0
M  V30 3819 O 372.627 -1.78662 -0.669676 0
M  V30 3820 C 369.767 -3.36431 -0.768666 0
M  V30 3821 C 368.88 -4.31927 0.0793922 0
M  V30 3822 C 368.015 -5.24944 -0.81283 0
M  V30 3823 C 367.054 -6.12088 0.0390447 0
M  V30 3824 N 366.191 -6.97412 -0.809969 0
M  V30 3825 H 371.031 -2.83761 0.91015 0
M  V30 3826 H 368.568 -1.39707 0.460463 0
M  V30 3827 H 370.526 -3.96462 -1.29898 0
M  V30 3828 H 369.156 -2.8457 -1.5238 0
M  V30 3829 H 368.208 -3.73382 0.727303 0
M  V30 3830 H 369.52 -4.93319 0.737401 0
M  V30 3831 H 368.674 -5.90078 -1.41042 0
M  V30 3832 H 367.413 -4.63911 -1.50458 0
M  V30 3833 H 366.418 -5.45952 0.649328 0
M  V30 3834 H 367.643 -6.75189 0.727809 0
M  V30 3835 H 365.589 -6.38931 -1.48672 0
M  V30 3836 H 365.506 -7.55712 -0.208789 0
M  V30 3837 H 366.774 -7.66959 -1.39263 0
M  V30 3838 N 371.003 -0.499398 -1.49478 0
M  V30 3839 C 372.419 -0.155261 -1.58843 0
M  V30 3840 C 372.619 1.34008 -1.50479 0
M  V30 3841 O 371.675 2.11589 -1.37791 0
M  V30 3842 C 372.988 -0.730636 -2.91689 0
M  V30 3843 C 374.536 -0.696599 -3.0515 0
M  V30 3844 C 375.011 -1.25001 -4.40612 0
M  V30 3845 N 376.502 -1.21064 -4.47099 0
M  V30 3846 C 377.237 -1.60905 -5.50361 0
M  V30 3847 N 376.733 -2.08331 -6.60735 0
M  V30 3848 N 378.526 -1.52331 -5.41065 0
M  V30 3849 H 370.677 -1.47162 -1.53158 0
M  V30 3850 H 372.94 -0.610309 -0.725415 0
M  V30 3851 H 372.646 -1.77928 -3.03372 0
M  V30 3852 H 372.52 -0.190161 -3.7672 0
M  V30 3853 H 374.907 0.343204 -2.93097 0
M  V30 3854 H 374.988 -1.2742 -2.21806 0
M  V30 3855 H 374.632 -2.28859 -4.53416 0
M  V30 3856 H 374.562 -0.64836 -5.22593 0
M  V30 3857 H 377.053 -0.863128 -3.67911 0
M  V30 3858 H 377.366 -2.36805 -7.35624 0
M  V30 3859 H 375.711 -2.12304 -6.6178 0
M  V30 3860 H 378.902 -1.151 -4.53729 0
M  V30 3861 H 379.075 -1.83704 -6.21415 0
M  V30 3862 N 372.481 1.55866 -0.233164 0
M  V30 3863 C 373.709 2.02998 0.399905 0
M  V30 3864 C 374.124 1.11274 1.52524 0
M  V30 3865 O 373.481 0.124528 1.82075 0
M  V30 3866 C 373.532 3.4958 0.920639 0
M  V30 3867 O 373.253 4.37808 -0.159834 0
M  V30 3868 C 374.754 4.12411 1.62578 0
M  V30 3869 H 371.974 0.664006 0.0966281 0
M  V30 3870 H 374.518 2.0143 -0.353013 0
M  V30 3871 H 372.673 3.51727 1.62379 0
M  V30 3872 H 373.087 5.23981 0.23337 0
M  V30 3873 H 374.561 5.16711 1.94201 0
M  V30 3874 H 375.038 3.5809 2.54299 0
M  V30 3875 H 375.644 4.14148 0.967553 0
M  V30 3876 N 373.959 -0.0401083 1.57549 0
M  V30 3877 C 374.889 -1.04384 2.08869 0
M  V30 3878 C 375.87 -1.38407 0.988817 0
M  V30 3879 O 377.055 -1.47483 1.26342 0
M  V30 3880 C 374.185 -2.34808 2.55895 0
M  V30 3881 C 373.139 -2.15057 3.70047 0
M  V30 3882 C 372.465 -3.51145 4.03239 0
M  V30 3883 C 373.765 -1.54576 4.98902 0
M  V30 3884 H 375.459 -0.616666 2.92981 0
M  V30 3885 H 373.005 -0.295184 1.40942 0
M  V30 3886 H 374.958 -3.05346 2.90417 0
M  V30 3887 H 373.682 -2.79565 1.68853 0
M  V30 3888 H 372.341 -1.46954 3.35857 0
M  V30 3889 H 371.989 -3.93529 3.13279 0
M  V30 3890 H 371.689 -3.38758 4.80122 0
M  V30 3891 H 373.213 -4.23062 4.40285 0
M  V30 3892 H 374.627 -2.15017 5.31451 0
M  V30 3893 H 373.024 -1.52796 5.80322 0
M  V30 3894 H 374.094 -0.51039 4.82206 0
M  V30 3895 N 375.437 -1.54477 -0.31217 0
M  V30 3896 C 376.683 -1.73483 -1.0503 0
M  V30 3897 C 377.016 -0.513125 -1.87298 0
M  V30 3898 O 376.291 0.489864 -1.8823 0
M  V30 3899 C 376.574 -3.01723 -1.96558 0
M  V30 3900 C 376.427 -4.3417 -1.17545 0
M  V30 3901 C 377.746 -3.25772 -2.95907 0
M  V30 3902 H 374.865 -0.631222 -0.380432 0
M  V30 3903 H 377.507 -1.87184 -0.325932 0
M  V30 3904 H 375.657 -2.90174 -2.58324 0
M  V30 3905 H 377.329 -4.5762 -0.581513 0
M  V30 3906 H 375.572 -4.31159 -0.477925 0
M  V30 3907 H 376.243 -5.20143 -1.84811 0
M  V30 3908 H 378.719 -3.36857 -2.44267 0
M  V30 3909 H 377.595 -4.16838 -3.57123 0
M  V30 3910 H 377.856 -2.43537 -3.68974 0
M  V30 3911 N 376.915 0.57481 -1.46744 0
M  V30 3912 C 378.161 1.3347 -1.52688 0
M  V30 3913 C 378.494 1.93353 -0.181229 0
M  V30 3914 O 377.769 1.76912 0.808237 0
M  V30 3915 C 378.052 2.45811 -2.63152 0
M  V30 3916 C 377.905 1.90912 -4.07275 0
M  V30 3917 C 379.224 3.47822 -2.69644 0
M  V30 3918 H 376.343 0.483935 -0.555856 0
M  V30 3919 H 378.985 0.644968 -1.78718 0
M  V30 3920 H 377.135 3.04646 -2.41088 0
M  V30 3921 H 378.807 1.36473 -4.4065 0
M  V30 3922 H 377.05 1.21691 -4.16382 0
M  V30 3923 H 377.721 2.72042 -4.80309 0
M  V30 3924 H 380.197 2.9888 -2.895 0
M  V30 3925 H 379.073 4.23876 -3.48742 0
M  V30 3926 H 379.334 4.05555 -1.76005 0
M  V30 3927 N 378.394 1.34581 0.820102 0
M  V30 3928 C 379.671 1.17675 1.56244 0
M  V30 3929 C 380.051 -0.249541 2.0962 0
M  V30 3930 O 379.399 -1.25125 1.91196 0
M  V30 3931 C 379.609 2.23364 2.6816 0
M  V30 3932 C 380.957 2.58485 3.36854 0
M  V30 3933 O 381.981 2.22175 2.78418 0
M  V30 3934 O 380.84 3.20868 4.42386 0
M  V30 3935 H 377.934 0.456333 0.689702 0
M  V30 3936 H 380.48 1.46222 0.861231 0
M  V30 3937 H 379.252 3.19087 2.26493 0
M  V30 3938 H 378.875 1.96009 3.45928 0
M  V30 3939 N 379.872 -1.04064 1.18357 0
M  V30 3940 C 381.1 -1.80916 1.00384 0
M  V30 3941 C 381.515 -1.83414 -0.447738 0
M  V30 3942 O 380.872 -1.26962 -1.31099 0
M  V30 3943 C 380.923 -3.26516 1.55144 0
M  V30 3944 O 380.644 -3.2424 2.94618 0
M  V30 3945 C 382.145 -4.20013 1.41789 0
M  V30 3946 H 379.365 -0.569728 0.354474 0
M  V30 3947 H 381.909 -1.31151 1.56906 0
M  V30 3948 H 380.064 -3.73512 1.02798 0
M  V30 3949 H 380.478 -4.15452 3.20156 0
M  V30 3950 H 381.952 -5.20111 1.84901 0
M  V30 3951 H 382.429 -4.37667 0.36661 0
M  V30 3952 H 383.035 -3.78881 1.93207 0
M  V30 3953 N 381.35 -0.985608 -1.22978 0
M  V30 3954 C 382.298 -0.522631 -2.26652 0
M  V30 3955 C 383.292 0.422998 -1.64034 0
M  V30 3956 O 384.498 0.296319 -1.77544 0
M  V30 3957 H 380.873 -0.150597 -0.736766 0
M  V30 3958 H 382.844 -1.40863 -2.63059 0
M  V30 3959 C 381.593 0.154238 -3.47358 0
M  V30 3960 H 380.916 -0.564329 -3.95797 0
M  V30 3961 H 382.356 0.441744 -4.21693 0
M  V30 3962 C 380.815 1.38719 -3.07016 0
M  V30 3963 O 381.345 2.48307 -3.15764 0
M  V30 3964 N 379.551 1.25975 -2.61875 0
M  V30 3965 H 379.098 0.368068 -2.54957 0
M  V30 3966 H 379.056 2.08578 -2.3525 0
M  V30 3967 N 382.828 1.3818 -0.7579 0
M  V30 3968 C 383.775 2.30416 -0.133057 0
M  V30 3969 C 384.745 1.50398 0.704957 0
M  V30 3970 O 385.93 1.79014 0.660192 0
M  V30 3971 C 383.07 3.36834 0.750813 0
M  V30 3972 C 382.183 4.31879 -0.102297 0
M  V30 3973 C 381.318 5.25368 0.784979 0
M  V30 3974 C 380.357 6.12058 -0.0715046 0
M  V30 3975 N 379.494 6.97832 0.772972 0
M  V30 3976 H 384.334 2.83274 -0.925186 0
M  V30 3977 H 381.871 1.39461 -0.467866 0
M  V30 3978 H 383.829 3.97145 1.27794 0
M  V30 3979 H 382.459 2.85374 1.50868 0
M  V30 3980 H 381.511 3.72991 -0.747095 0
M  V30 3981 H 382.823 4.92921 -0.763552 0
M  V30 3982 H 381.977 5.90818 1.37911 0
M  V30 3983 H 380.716 4.64703 1.47996 0
M  V30 3984 H 379.721 5.456 -0.678272 0
M  V30 3985 H 380.946 6.74793 -0.763606 0
M  V30 3986 H 378.892 6.3971 1.45282 0
M  V30 3987 H 378.809 7.55812 0.168709 0
M  V30 3988 H 380.077 7.67687 1.35194 0
M  V30 3989 N 384.306 0.507319 1.49211 0
M  V30 3990 C 385.536 -0.0315292 2.06576 0
M  V30 3991 C 385.944 -1.30791 1.36713 0
M  V30 3992 O 385.287 -1.78324 0.441181 0
M  V30 3993 C 385.349 -0.349104 3.57801 0
M  V30 3994 C 385.013 0.830475 4.49391 0
M  V30 3995 C 386.01 1.72271 4.90529 0
M  V30 3996 C 383.695 1.03107 4.91604 0
M  V30 3997 C 385.689 2.79964 5.72625 0
M  V30 3998 C 383.376 2.11116 5.73475 0
M  V30 3999 C 384.374 2.99379 6.1389 0
M  V30 4000 O 384.062 4.05523 6.94123 0
M  V30 4001 H 383.794 0.0201002 0.675701 0
M  V30 4002 H 386.348 0.705737 1.92895 0
M  V30 4003 H 384.578 -1.14005 3.69513 0
M  V30 4004 H 386.267 -0.827319 3.97379 0
M  V30 4005 H 387.033 1.57958 4.58557 0
M  V30 4006 H 382.912 0.353417 4.59643 0
M  V30 4007 H 386.456 3.48884 6.04091 0
M  V30 4008 H 382.353 2.25421 6.0486 0
M  V30 4009 H 383.121 4.02953 7.1244 0
M  V30 4010 N 385.784 -1.5574 0.241426 0
M  V30 4011 C 386.732 -2.22538 -0.676718 0
M  V30 4012 C 387.726 -1.21117 -1.18436 0
M  V30 4013 O 388.932 -1.39144 -1.14188 0
M  V30 4014 H 385.307 -0.713776 -0.236701 0
M  V30 4015 H 387.278 -2.98264 -0.0901187 0
M  V30 4016 C 386.027 -2.93439 -1.86518 0
M  V30 4017 H 385.35 -3.7125 -1.4837 0
M  V30 4018 H 386.79 -3.43549 -2.48495 0
M  V30 4019 C 385.249 -1.97008 -2.73294 0
M  V30 4020 O 385.779 -1.49965 -3.72657 0
M  V30 4021 N 383.985 -1.64227 -2.39745 0
M  V30 4022 H 383.532 -2.02677 -1.58996 0
M  V30 4023 H 383.49 -0.999708 -2.98083 0
M  V30 4024 N 387.262 0.0317525 -1.57568 0
M  V30 4025 C 388.209 1.0332 -2.06382 0
M  V30 4026 C 389.179 1.36082 -0.952414 0
M  V30 4027 O 390.364 1.46466 -1.2228 0
M  V30 4028 C 387.504 2.32989 -2.54578 0
M  V30 4029 C 386.617 2.0641 -3.79498 0
M  V30 4030 C 385.752 3.2993 -4.16317 0
M  V30 4031 C 384.791 2.98893 -5.34162 0
M  V30 4032 N 383.928 4.14857 -5.66426 0
M  V30 4033 H 388.768 0.609982 -2.9169 0
M  V30 4034 H 386.305 0.289573 -1.44222 0
M  V30 4035 H 388.263 3.0875 -2.80587 0
M  V30 4036 H 386.893 2.73039 -1.7219 0
M  V30 4037 H 385.945 1.21158 -3.6059 0
M  V30 4038 H 387.257 1.79513 -4.65378 0
M  V30 4039 H 386.411 4.1406 -4.4344 0
M  V30 4040 H 385.15 3.59938 -3.29083 0
M  V30 4041 H 384.155 2.13164 -5.06795 0
M  V30 4042 H 385.38 2.70165 -6.23047 0
M  V30 4043 H 383.326 4.44821 -4.82151 0
M  V30 4044 H 383.243 3.91374 -6.4681 0
M  V30 4045 H 384.511 4.99868 -5.98124 0
M  V30 4046 N 388.74 1.54641 0.303973 0
M  V30 4047 C 390.151 1.64811 0.877163 0
M  V30 4048 C 390.502 0.554838 1.88191 0
M  V30 4049 O 389.627 -0.309033 2.14182 0
M  V30 4050 C 390.222 2.9876 1.59775 0
M  V30 4051 C 388.781 3.11061 2.11938 0
M  V30 4052 C 387.928 2.60479 0.951097 0
M  V30 4053 H 390.879 1.58493 0.0810486 0
M  V30 4054 H 390.9 2.90017 2.46314 0
M  V30 4055 H 390.412 3.7831 0.866226 0
M  V30 4056 H 388.513 2.36225 2.88146 0
M  V30 4057 H 388.626 4.17171 2.35595 0
M  V30 4058 H 386.99 2.16859 1.33583 0
M  V30 4059 H 387.773 3.42504 0.233581 0
M  V30 4060 N 390.218 -0.567019 1.47046 0
M  V30 4061 C 391.629 -1.14916 1.47143 0
M  V30 4062 C 391.98 -1.94954 0.220767 0
M  V30 4063 O 391.105 -2.05602 -0.67505 0
M  V30 4064 C 391.7 -2.09069 2.666 0
M  V30 4065 C 390.259 -2.62575 2.69687 0
M  V30 4066 C 389.406 -1.38755 2.40088 0
M  V30 4067 H 392.357 -0.354126 1.54699 0
M  V30 4068 H 392.378 -2.92789 2.43011 0
M  V30 4069 H 391.89 -1.50789 3.57609 0
M  V30 4070 H 389.991 -3.24681 1.82792 0
M  V30 4071 H 390.104 -3.04239 3.70102 0
M  V30 4072 H 388.468 -1.69098 1.90468 0
M  V30 4073 H 389.251 -0.822822 3.33293 0
M  V30 4074 N 391.696 -1.35014 -0.812953 0
M  V30 4075 C 392.644 -1.27435 -1.94585 0
M  V30 4076 C 393.638 -0.170494 -1.6854 0
M  V30 4077 O 394.844 -0.336085 -1.76835 0
M  V30 4078 H 391.219 -0.396144 -0.639198 0
M  V30 4079 H 393.19 -2.23158 -1.98098 0
M  V30 4080 C 391.939 -1.05677 -3.31252 0
M  V30 4081 H 391.262 -1.89853 -3.51846 0
M  V30 4082 H 392.702 -1.04413 -4.10943 0
M  V30 4083 C 391.161 0.239615 -3.36047 0
M  V30 4084 O 391.691 1.23759 -3.8216 0
M  V30 4085 N 389.897 0.276186 -2.89285 0
M  V30 4086 H 389.444 -0.53653 -2.51951 0
M  V30 4087 H 389.402 1.14332 -2.92875 0
M  V30 4088 N 393.175 1.03435 -1.18907 0
M  V30 4089 C 394.423 1.76394 -0.986382 0
M  V30 4090 C 394.744 1.88883 0.484567 0
M  V30 4091 O 394.014 1.41843 1.3512 0
M  V30 4092 H 392.594 0.65344 -0.361975 0
M  V30 4093 H 395.256 1.248 -1.49703 0
M  V30 4094 H 394.352 2.77424 -1.42978 0
M  V30 4095 N 394.653 0.992116 1.22453 0
M  V30 4096 C 395.6 0.541731 2.24352 0
M  V30 4097 C 396.57 -0.425519 1.60557 0
M  V30 4098 O 397.755 -0.330453 1.87917 0
M  V30 4099 C 394.895 -0.138248 3.44823 0
M  V30 4100 C 394.008 0.870649 4.23136 0
M  V30 4101 C 393.143 0.164269 5.30946 0
M  V30 4102 C 392.182 1.16159 6.00977 0
M  V30 4103 N 391.319 0.483568 7.00433 0
M  V30 4104 H 396.159 1.41541 2.62241 0
M  V30 4105 H 393.696 0.709013 1.28885 0
M  V30 4106 H 395.654 -0.5494 4.13567 0
M  V30 4107 H 394.284 -0.975721 3.077 0
M  V30 4108 H 393.336 1.40013 3.53696 0
M  V30 4109 H 394.648 1.63014 4.7141 0
M  V30 4110 H 393.802 -0.303653 6.0594 0
M  V30 4111 H 392.541 -0.627733 4.83643 0
M  V30 4112 H 391.546 1.64015 5.24766 0
M  V30 4113 H 392.771 1.95445 6.50368 0
M  V30 4114 H 390.717 -0.289012 6.55363 0
M  V30 4115 H 390.634 1.18152 7.4671 0
M  V30 4116 H 391.902 0.0384219 7.79491 0
M  V30 4117 N 396.131 -1.37776 0.765217 0
M  V30 4118 C 397.079 -2.32209 0.134798 0
M  V30 4119 C 398.073 -1.54607 -0.692315 0
M  V30 4120 O 399.279 -1.70052 -0.590109 0
M  V30 4121 H 395.654 -0.751591 0.0248005 0
M  V30 4122 H 397.625 -2.8297 0.947119 0
M  V30 4123 C 396.374 -3.39841 -0.735063 0
M  V30 4124 H 395.697 -3.99654 -0.107991 0
M  V30 4125 H 397.137 -4.08296 -1.14326 0
M  V30 4126 C 395.596 -2.79378 -1.88281 0
M  V30 4127 O 396.126 -2.69608 -2.97783 0
M  V30 4128 N 394.332 -2.37016 -1.68142 0
M  V30 4129 H 393.879 -2.45162 -0.790772 0
M  V30 4130 H 393.837 -1.96905 -2.45104 0
M  V30 4131 N 397.609 -0.515225 -1.4894 0
M  V30 4132 C 399.025 -0.172099 -1.58669 0
M  V30 4133 C 399.225 1.32405 -1.51892 0
M  V30 4134 O 398.281 2.10116 -1.40027 0
M  V30 4135 C 399.594 -0.761533 -2.90897 0
M  V30 4136 C 401.142 -0.728926 -3.04394 0
M  V30 4137 C 401.617 -1.29667 -4.39261 0
M  V30 4138 N 403.108 -1.25799 -4.4579 0
M  V30 4139 C 403.843 -1.66733 -5.48623 0
M  V30 4140 N 403.339 -2.15327 -6.58488 0
M  V30 4141 N 405.132 -1.58061 -5.39419 0
M  V30 4142 H 397.283 -1.48778 -1.51588 0
M  V30 4143 H 399.546 -0.617968 -0.718901 0
M  V30 4144 H 399.252 -1.81136 -3.01468 0
M  V30 4145 H 399.126 -0.230106 -3.76497 0
M  V30 4146 H 401.513 0.312098 -2.93445 0
M  V30 4147 H 401.594 -1.29766 -2.20442 0
M  V30 4148 H 401.238 -2.33655 -4.50963 0
M  V30 4149 H 401.168 -0.703752 -5.21876 0
M  V30 4150 H 403.659 -0.902102 -3.66975 0
M  V30 4151 H 403.972 -2.44594 -7.33071 0
M  V30 4152 H 402.317 -2.19311 -6.59491 0
M  V30 4153 H 405.508 -1.19906 -4.52482 0
M  V30 4154 H 405.681 -1.90284 -6.19432 0
M  V30 4155 N 399.087 1.5561 -0.249682 0
M  V30 4156 C 400.333 1.99306 0.374841 0
M  V30 4157 C 400.666 1.13767 1.57387 0
M  V30 4158 O 399.941 0.201711 1.93451 0
M  V30 4159 C 400.224 3.51507 0.781986 0
M  V30 4160 C 400.077 4.4781 -0.422629 0
M  V30 4161 C 401.396 4.08884 1.62793 0
M  V30 4162 H 398.515 0.724572 0.134773 0
M  V30 4163 H 401.157 1.86719 -0.351549 0
M  V30 4164 H 399.307 3.62363 1.4009 0
M  V30 4165 H 400.979 4.48931 -1.06108 0
M  V30 4166 H 399.222 4.20518 -1.06524 0
M  V30 4167 H 399.893 5.51919 -0.0943766 0
M  V30 4168 H 402.369 4.01147 1.10547 0
M  V30 4169 H 401.245 5.1564 1.88166 0
M  V30 4170 H 401.506 3.57515 2.60068 0
M  V30 4171 N 400.565 -0.0233959 1.57583 0
M  V30 4172 C 401.512 -1.02224 2.06927 0
M  V30 4173 C 402.482 -1.35575 0.959617 0
M  V30 4174 O 403.667 -1.45815 1.23055 0
M  V30 4175 C 400.807 -2.31636 2.5581 0
M  V30 4176 C 399.92 -2.04394 3.80588 0
M  V30 4177 C 399.055 -3.27717 4.18061 0
M  V30 4178 C 398.094 -2.96056 5.3574 0
M  V30 4179 N 397.231 -4.11847 5.68618 0
M  V30 4180 H 402.071 -0.594504 2.9201 0
M  V30 4181 H 399.608 -0.281921 1.44373 0
M  V30 4182 H 401.566 -3.07258 2.82221 0
M  V30 4183 H 400.196 -2.72122 1.73636 0
M  V30 4184 H 399.248 -1.19244 3.61227 0
M  V30 4185 H 400.56 -1.77042 4.66323 0
M  V30 4186 H 399.714 -4.11702 4.4563 0
M  V30 4187 H 398.453 -3.58188 3.30988 0
M  V30 4188 H 397.458 -2.10474 5.07918 0
M  V30 4189 H 398.683 -2.66857 6.24471 0
M  V30 4190 H 396.629 -4.42258 4.84504 0
M  V30 4191 H 396.546 -3.87938 6.48876 0
M  V30 4192 H 397.814 -4.96689 6.00766 0
M  V30 4193 N 402.043 -1.548 -0.295768 0
M  V30 4194 C 402.975 -1.82492 -1.3867 0
M  V30 4195 C 403.988 -0.708134 -1.46592 0
M  V30 4196 O 405.177 -0.985686 -1.48817 0
M  V30 4197 C 402.277 -1.95256 -2.76999 0
M  V30 4198 C 401.45 -3.25709 -2.91946 0
M  V30 4199 C 400.509 -3.28824 -4.10806 0
M  V30 4200 O 399.535 -4.02328 -4.02643 0
M  V30 4201 N 400.737 -2.5459 -5.21694 0
M  V30 4202 H 403.502 -2.76646 -1.15269 0
M  V30 4203 H 401.063 -1.54438 -0.485849 0
M  V30 4204 H 403.055 -1.94736 -3.54768 0
M  V30 4205 H 401.625 -1.08072 -2.93324 0
M  V30 4206 H 400.845 -3.38959 -2.01247 0
M  V30 4207 H 402.133 -4.11786 -2.98847 0
M  V30 4208 H 401.531 -1.94512 -5.31208 0
M  V30 4209 H 400.088 -2.59818 -5.97778 0
M  V30 4210 N 403.521 0.559213 -1.47345 0
M  V30 4211 C 404.767 1.31614 -1.55079 0
M  V30 4212 C 405.122 1.91257 -0.209422 0
M  V30 4213 O 404.415 1.74796 0.784656 0
M  V30 4214 C 404.609 2.44853 -2.6035 0
M  V30 4215 C 404.438 1.96305 -4.04591 0
M  V30 4216 C 403.208 1.8024 -4.72061 0
M  V30 4217 C 405.406 1.50872 -4.91673 0
M  V30 4218 N 403.388 1.26011 -6.00828 0
M  V30 4219 C 404.759 1.08395 -6.10451 0
M  V30 4220 C 406.814 1.38905 -4.78132 0
M  V30 4221 C 405.517 0.551399 -7.17183 0
M  V30 4222 C 407.543 0.870518 -5.84958 0
M  V30 4223 C 406.905 0.455661 -7.02925 0
M  V30 4224 H 403.004 0.473712 -0.62219 0
M  V30 4225 H 405.588 0.634103 -1.84085 0
M  V30 4226 H 403.759 3.10589 -2.33215 0
M  V30 4227 H 405.491 3.11849 -2.57938 0
M  V30 4228 H 402.246 2.02895 -4.27937 0
M  V30 4229 H 402.67 1.00991 -6.69425 0
M  V30 4230 H 407.312 1.69591 -3.87297 0
M  V30 4231 H 405.03 0.232159 -8.07766 0
M  V30 4232 H 408.616 0.781507 -5.76527 0
M  V30 4233 H 407.496 0.0606414 -7.84177 0
M  V30 4234 N 404.999 1.35443 0.805782 0
M  V30 4235 C 406.276 1.19325 1.54987 0
M  V30 4236 C 406.656 -0.227294 2.09873 0
M  V30 4237 O 406.004 -1.2309 1.92512 0
M  V30 4238 C 406.214 2.26196 2.65775 0
M  V30 4239 C 407.562 2.62043 3.34094 0
M  V30 4240 O 408.586 2.25115 2.76046 0
M  V30 4241 O 407.445 3.25542 4.38958 0
M  V30 4242 H 404.539 0.463623 0.684823 0
M  V30 4243 H 407.085 1.47127 0.845674 0
M  V30 4244 H 405.857 3.21471 2.23096 0
M  V30 4245 H 405.48 1.99667 3.43829 0
M  V30 4246 N 406.477 -1.02803 1.19454 0
M  V30 4247 C 407.705 -1.79841 1.02297 0
M  V30 4248 C 408.12 -1.83879 -0.428259 0
M  V30 4249 O 407.477 -1.28345 -1.29745 0
M  V30 4250 C 407.528 -3.24852 1.58598 0
M  V30 4251 O 407.249 -3.21097 2.98041 0
M  V30 4252 C 408.75 -4.18485 1.46236 0
M  V30 4253 H 405.97 -0.565936 0.360496 0
M  V30 4254 H 408.514 -1.2948 1.58288 0
M  V30 4255 H 406.669 -3.72401 1.06753 0
M  V30 4256 H 407.083 -4.12033 3.24545 0
M  V30 4257 H 408.557 -5.18121 1.90407 0
M  V30 4258 H 409.034 -4.37254 0.41301 0
M  V30 4259 H 409.64 -3.76811 1.97215 0
M  V30 4260 N 407.956 -0.998596 -1.21925 0
M  V30 4261 C 408.886 -0.573688 -2.26343 0
M  V30 4262 C 409.867 0.402296 -1.65274 0
M  V30 4263 O 411.052 0.291683 -1.91997 0
M  V30 4264 C 408.182 0.106839 -3.47136 0
M  V30 4265 C 407.136 -0.788269 -4.20678 0
M  V30 4266 C 406.462 0.0254927 -5.34694 0
M  V30 4267 C 407.762 -2.08784 -4.78755 0
M  V30 4268 H 409.456 -1.44651 -2.62138 0
M  V30 4269 H 407.002 -0.696975 -1.26009 0
M  V30 4270 H 408.955 0.415531 -4.19346 0
M  V30 4271 H 407.679 1.01424 -3.10452 0
M  V30 4272 H 406.338 -1.08069 -3.50309 0
M  V30 4273 H 405.986 0.933989 -4.94253 0
M  V30 4274 H 405.686 -0.570437 -5.84825 0
M  V30 4275 H 407.21 0.328147 -6.09718 0
M  V30 4276 H 408.624 -1.84272 -5.42878 0
M  V30 4277 H 407.021 -2.63307 -5.39249 0
M  V30 4278 H 408.091 -2.76284 -3.98491 0
M  V30 4279 N 409.434 1.37368 -0.772513 0
M  V30 4280 C 410.68 1.99969 -0.337681 0
M  V30 4281 C 411.013 1.61184 1.08321 0
M  V30 4282 O 410.288 0.858395 1.74533 0
M  V30 4283 C 410.571 3.56858 -0.482121 0
M  V30 4284 C 410.424 4.0555 -1.94549 0
M  V30 4285 C 411.743 4.39955 0.113143 0
M  V30 4286 H 408.862 0.726464 -0.124171 0
M  V30 4287 H 411.504 1.63034 -0.975699 0
M  V30 4288 H 409.654 3.88452 0.0610361 0
M  V30 4289 H 411.326 3.84518 -2.54841 0
M  V30 4290 H 409.569 3.57715 -2.45403 0
M  V30 4291 H 410.24 5.14587 -1.9976 0
M  V30 4292 H 412.716 4.14623 -0.35031 0
M  V30 4293 H 411.592 5.48897 -0.0180514 0
M  V30 4294 H 411.853 4.25403 1.20354 0
M  V30 4295 N 410.912 0.523116 1.48665 0
M  V30 4296 C 412.189 -0.0775449 1.95446 0
M  V30 4297 C 412.569 -1.5197 1.4652 0
M  V30 4298 O 411.917 -2.17876 0.688657 0
M  V30 4299 C 412.127 0.0326135 3.48985 0
M  V30 4300 C 413.475 -0.130141 4.24401 0
M  V30 4301 O 414.499 -0.0415142 3.56176 0
M  V30 4302 O 413.358 -0.31491 5.45592 0
M  V30 4303 H 410.452 -0.0831012 0.822814 0
M  V30 4304 H 412.998 0.587227 1.59216 0
M  V30 4305 H 411.77 1.03748 3.77296 0
M  V30 4306 H 411.393 -0.671317 3.91892 0
M  V30 4307 N 412.39 -1.55475 0.257931 0
M  V30 4308 C 413.323 -2.179 -0.677862 0
M  V30 4309 C 414.301 -1.13448 -1.16483 0
M  V30 4310 O 415.485 -1.41889 -1.24095 0
M  V30 4311 C 412.612 -2.78851 -1.92249 0
M  V30 4312 C 411.658 -3.96454 -1.57246 0
M  V30 4313 S 412.491 -5.31349 -0.665501 0
M  V30 4314 C 413.647 -5.9576 -1.91889 0
M  V30 4315 H 413.88 -2.96934 -0.147396 0
M  V30 4316 H 411.413 -1.54342 0.0423023 0
M  V30 4317 H 413.371 -3.14602 -2.63697 0
M  V30 4318 H 412.032 -1.99742 -2.42409 0
M  V30 4319 H 411.225 -4.37731 -2.49814 0
M  V30 4320 H 410.827 -3.62038 -0.938325 0
M  V30 4321 H 413.119 -6.13947 -2.86487 0
M  V30 4322 H 414.062 -6.9094 -1.54942 0
M  V30 4323 H 414.47 -5.2494 -2.076 0
M  V30 4324 N 413.868 0.0150385 -1.57593 0
M  V30 4325 C 415.116 0.701613 -1.8953 0
M  V30 4326 C 415.437 1.75139 -0.857396 0
M  V30 4327 O 414.707 1.95607 0.107194 0
M  V30 4328 H 413.287 0.26213 -0.699498 0
M  V30 4329 H 415.949 -0.0223304 -1.94887 0
M  V30 4330 H 415.045 1.18236 -2.88837 0
M  V30 4331 N 415.346 1.54954 0.287554 0
M  V30 4332 C 416.293 1.86834 1.35505 0
M  V30 4333 C 417.263 0.718452 1.49758 0
M  V30 4334 O 418.448 0.968358 1.644 0
M  V30 4335 C 415.588 2.13303 2.71286 0
M  V30 4336 C 414.701 3.40883 2.65373 0
M  V30 4337 C 413.836 3.57125 3.93236 0
M  V30 4338 C 412.875 4.78449 3.81776 0
M  V30 4339 N 412.012 4.91426 5.01443 0
M  V30 4340 H 416.852 2.77889 1.07619 0
M  V30 4341 H 414.389 1.37593 0.520241 0
M  V30 4342 H 416.347 2.26646 3.50267 0
M  V30 4343 H 414.977 1.25499 2.97405 0
M  V30 4344 H 414.029 3.36088 1.78182 0
M  V30 4345 H 415.341 4.29993 2.52799 0
M  V30 4346 H 414.495 3.70207 4.80658 0
M  V30 4347 H 413.234 2.66173 4.0866 0
M  V30 4348 H 412.239 4.65386 2.92738 0
M  V30 4349 H 413.464 5.70822 3.67884 0
M  V30 4350 H 411.41 4.03401 5.17304 0
M  V30 4351 H 411.327 5.74559 4.91343 0
M  V30 4352 H 412.595 5.08879 5.90477 0
M  V30 4353 N 416.824 -0.551391 1.4764 0
M  V30 4354 C 417.757 -1.6738 1.5511 0
M  V30 4355 C 418.735 -1.5753 0.402856 0
M  V30 4356 O 419.919 -1.78307 0.611475 0
M  V30 4357 C 417.046 -3.05661 1.45908 0
M  V30 4358 C 416.092 -3.33938 2.65307 0
M  V30 4359 S 416.925 -3.22553 4.27457 0
M  V30 4360 C 418.081 -4.63317 4.20818 0
M  V30 4361 H 418.314 -1.6079 2.50068 0
M  V30 4362 H 415.847 -0.732674 1.35909 0
M  V30 4363 H 417.805 -3.8542 1.41286 0
M  V30 4364 H 416.466 -3.09711 0.523248 0
M  V30 4365 H 415.659 -4.34761 2.54948 0
M  V30 4366 H 415.261 -2.61809 2.67081 0
M  V30 4367 H 417.553 -5.54391 3.89431 0
M  V30 4368 H 418.496 -4.78732 5.21748 0
M  V30 4369 H 418.904 -4.41636 3.51593 0
M  V30 4370 N 418.302 -1.35869 -0.798587 0
M  V30 4371 C 419.25 -1.29491 -1.93222 0
M  V30 4372 C 420.244 -0.18836 -1.6835 0
M  V30 4373 O 421.45 -0.354822 -1.76468 0
M  V30 4374 H 417.825 -0.402901 -0.63496 0
M  V30 4375 H 419.796 -2.25247 -1.9572 0
M  V30 4376 C 418.545 -1.09184 -3.30112 0
M  V30 4377 H 417.868 -1.93574 -3.49813 0
M  V30 4378 H 419.308 -1.08766 -4.09812 0
M  V30 4379 C 417.767 0.203959 -3.36282 0
M  V30 4380 O 418.297 1.19699 -3.83451 0
M  V30 4381 N 416.503 0.245488 -2.89561 0
M  V30 4382 H 416.05 -0.563223 -2.51367 0
M  V30 4383 H 416.008 1.11219 -2.94071 0
M  V30 4384 N 419.78 1.02168 -1.19998 0
M  V30 4385 C 420.71 2.12488 -0.96804 0
M  V30 4386 C 421.691 1.69799 0.101185 0
M  V30 4387 O 422.876 1.94121 -0.0552993 0
M  V30 4388 C 420.006 3.43479 -0.513776 0
M  V30 4389 C 418.96 3.99884 -1.52566 0
M  V30 4390 C 418.286 5.26582 -0.928214 0
M  V30 4391 C 419.586 4.33861 -2.90795 0
M  V30 4392 H 421.28 2.32149 -1.89069 0
M  V30 4393 H 418.826 1.11564 -0.910468 0
M  V30 4394 H 420.779 4.20036 -0.338774 0
M  V30 4395 H 419.503 3.23561 0.444493 0
M  V30 4396 H 418.162 3.25429 -1.68794 0
M  V30 4397 H 417.81 5.02986 0.0378289 0
M  V30 4398 H 417.51 5.65284 -1.60397 0
M  V30 4399 H 419.034 6.05799 -0.764167 0
M  V30 4400 H 420.448 5.01327 -2.78109 0
M  V30 4401 H 418.845 4.83664 -3.55231 0
M  V30 4402 H 419.915 3.42848 -3.42904 0
M  V30 4403 N 421.258 1.00505 1.21394 0
M  V30 4404 C 422.205 0.565496 2.23765 0
M  V30 4405 C 423.175 -0.408466 1.60999 0
M  V30 4406 O 424.36 -0.310503 1.88257 0
M  V30 4407 C 421.5 -0.101667 3.4495 0
M  V30 4408 C 420.613 0.915479 4.22188 0
M  V30 4409 C 419.748 0.220574 5.30742 0
M  V30 4410 C 418.787 1.22527 5.99711 0
M  V30 4411 N 417.924 0.557831 6.9988 0
M  V30 4412 H 422.764 1.44314 2.60725 0
M  V30 4413 H 420.301 0.722643 1.28126 0
M  V30 4414 H 422.259 -0.505504 4.14126 0
M  V30 4415 H 420.889 -0.94303 3.08718 0
M  V30 4416 H 419.941 1.43756 3.52191 0
M  V30 4417 H 421.253 1.68005 4.69655 0
M  V30 4418 H 420.407 -0.239368 6.06228 0
M  V30 4419 H 419.146 -0.576401 4.84282 0
M  V30 4420 H 418.151 1.69571 5.22997 0
M  V30 4421 H 419.376 2.02332 6.48258 0
M  V30 4422 H 417.322 -0.219486 6.55633 0
M  V30 4423 H 417.239 1.26065 7.45415 0
M  V30 4424 H 418.507 0.121095 7.79406 0
M  V30 4425 N 422.737 -1.36956 0.779787 0
M  V30 4426 C 423.685 -2.32053 0.15942 0
M  V30 4427 C 424.679 -1.55333 -0.675878 0
M  V30 4428 O 425.885 -1.70668 -0.57204 0
M  V30 4429 H 422.26 -0.751286 0.0327707 0
M  V30 4430 H 424.231 -2.8195 0.977078 0
M  V30 4431 C 422.98 -3.40602 -0.698977 0
M  V30 4432 H 422.303 -3.99746 -0.0655966 0
M  V30 4433 H 423.743 -4.09486 -1.09989 0
M  V30 4434 C 422.202 -2.81359 -1.85307 0
M  V30 4435 O 422.732 -2.72751 -2.94906 0
M  V30 4436 N 420.938 -2.38786 -1.65619 0
M  V30 4437 H 420.485 -2.45987 -0.764725 0
M  V30 4438 H 420.443 -1.99493 -2.43002 0
M  V30 4439 N 424.215 -0.530993 -1.48385 0
M  V30 4440 C 425.461 0.00274135 -2.028 0
M  V30 4441 C 425.794 1.33838 -1.40716 0
M  V30 4442 O 425.069 1.86465 -0.553277 0
M  V30 4443 C 425.352 0.123676 -3.59888 0
M  V30 4444 C 425.205 -1.2372 -4.3245 0
M  V30 4445 C 426.524 0.849967 -4.31814 0
M  V30 4446 H 423.643 -0.000477758 -0.737 0
M  V30 4447 H 426.285 -0.688217 -1.77098 0
M  V30 4448 H 424.435 0.712157 -3.81917 0
M  V30 4449 H 426.107 -1.86687 -4.21836 0
M  V30 4450 H 424.35 -1.81882 -3.93829 0
M  V30 4451 H 425.021 -1.10557 -5.40815 0
M  V30 4452 H 427.497 0.350572 -4.14621 0
M  V30 4453 H 426.373 0.903486 -5.41413 0
M  V30 4454 H 426.634 1.90047 -3.99167 0
M  V30 4455 N 425.693 1.55336 -0.266172 0
M  V30 4456 C 426.97 1.91372 0.404486 0
M  V30 4457 C 427.35 1.18935 1.74407 0
M  V30 4458 O 426.698 0.3132 2.26343 0
M  V30 4459 C 426.908 3.44581 0.553593 0
M  V30 4460 C 428.256 4.16196 0.840618 0
M  V30 4461 O 429.28 3.50426 0.638739 0
M  V30 4462 O 428.139 5.32567 1.22618 0
M  V30 4463 H 425.233 0.797194 0.220025 0
M  V30 4464 H 427.779 1.66813 -0.311664 0
M  V30 4465 H 426.551 3.89357 -0.389498 0
M  V30 4466 H 426.174 3.75065 1.31955 0
M  V30 4467 N 427.171 -0.0066808 1.57599 0
M  V30 4468 C 428.396 -0.707738 1.94951 0
M  V30 4469 C 428.821 -1.66882 0.867868 0
M  V30 4470 O 428.179 -1.80457 -0.17458 0
M  V30 4471 C 428.227 -1.42162 3.31394 0
M  V30 4472 O 427.331 -2.53578 3.25226 0
M  V30 4473 H 426.672 -0.188752 0.636607 0
M  V30 4474 H 429.202 0.0445193 2.04552 0
M  V30 4475 H 429.212 -1.78655 3.66806 0
M  V30 4476 H 427.887 -0.716903 4.09675 0
M  V30 4477 H 426.464 -2.19463 3.01481 0
M  V30 4478 N 428.649 -1.55105 -0.279332 0
M  V30 4479 C 429.559 -1.90638 -1.36727 0
M  V30 4480 C 430.575 -0.802899 -1.54368 0
M  V30 4481 O 431.751 -1.10138 -1.68616 0
M  V30 4482 C 428.816 -2.16547 -2.70755 0
M  V30 4483 C 427.877 -3.40146 -2.61915 0
M  V30 4484 C 427.11 -3.6481 -3.8955 0
M  V30 4485 O 427.333 -2.92095 -4.89935 0
M  V30 4486 O 426.267 -4.58343 -3.90135 0
M  V30 4487 H 430.093 -2.83237 -1.09591 0
M  V30 4488 H 427.678 -1.4157 -0.477306 0
M  V30 4489 H 429.56 -2.34665 -3.50014 0
M  V30 4490 H 428.235 -1.27131 -2.9769 0
M  V30 4491 H 427.142 -3.2737 -1.81052 0
M  V30 4492 H 428.475 -4.29761 -2.3993 0
M  V30 4493 N 430.127 0.543554 -1.4793 0
M  V30 4494 C 431.376 1.29649 -1.54512 0
M  V30 4495 C 431.689 1.94382 -0.217973 0
M  V30 4496 O 432.895 2.71017 -0.161908 0
M  V30 4497 C 431.351 2.35175 -2.72435 0
M  V30 4498 C 430.959 1.76572 -4.11736 0
M  V30 4499 C 432.703 3.11564 -2.8832 0
M  V30 4500 C 430.61 2.79958 -5.20939 0
M  V30 4501 H 429.54 0.487541 -0.57517 0
M  V30 4502 H 432.191 0.575708 -1.74235 0
M  V30 4503 H 430.573 3.10229 -2.46118 0
M  V30 4504 H 431.747 1.07799 -4.48013 0
M  V30 4505 H 430.062 1.12722 -4.00852 0
M  V30 4506 H 432.659 3.88794 -3.67074 0
M  V30 4507 H 433.002 3.66594 -1.97268 0
M  V30 4508 H 433.535 2.43623 -3.14472 0
M  V30 4509 H 430.274 2.29766 -6.13912 0
M  V30 4510 H 429.794 3.47101 -4.89164 0
M  V30 4511 H 431.473 3.43198 -5.48474 0
M  V30 4512 N 431.605 1.3629 0.791371 0
M  V30 4513 C 432.568 1.30309 1.88553 0
M  V30 4514 C 433.568 0.211204 1.59407 0
M  V30 4515 O 434.758 0.465865 1.67855 0
M  V30 4516 C 431.89 1.01956 3.25297 0
M  V30 4517 H 433.083 2.27614 1.95273 0
M  V30 4518 H 430.636 1.21035 0.988953 0
M  V30 4519 H 431.371 0.050998 3.2426 0
M  V30 4520 H 431.156 1.80968 3.4784 0
M  V30 4521 H 432.646 1.0037 4.05359 0
M  V30 4522 N 433.083 -1.0153 1.20538 0
M  V30 4523 C 434.015 -2.10224 0.913155 0
M  V30 4524 C 435.028 -1.62495 -0.0995998 0
M  V30 4525 O 436.217 -1.78014 0.131582 0
M  V30 4526 C 433.317 -3.37111 0.347717 0
M  V30 4527 C 432.49 -4.13971 1.41233 0
M  V30 4528 C 431.549 -5.19158 0.857976 0
M  V30 4529 O 430.575 -5.48 1.53897 0
M  V30 4530 N 431.777 -5.7955 -0.331966 0
M  V30 4531 H 434.542 -2.35879 1.84881 0
M  V30 4532 H 432.103 -1.17931 1.10923 0
M  V30 4533 H 434.095 -4.04683 -0.0373026 0
M  V30 4534 H 432.665 -3.08696 -0.492527 0
M  V30 4535 H 431.885 -3.41351 1.97163 0
M  V30 4536 H 433.173 -4.62103 2.12928 0
M  V30 4537 H 432.571 -5.58455 -0.902478 0
M  V30 4538 H 431.128 -6.48464 -0.65861 0
M  V30 4539 N 434.561 -1.01147 -1.20859 0
M  V30 4540 C 435.807 -0.698899 -1.90377 0
M  V30 4541 C 436.14 0.76904 -1.78324 0
M  V30 4542 O 435.415 1.55817 -1.16409 0
M  V30 4543 C 435.698 -1.12878 -3.41951 0
M  V30 4544 C 435.551 -2.65665 -3.62963 0
M  V30 4545 C 436.87 -0.696114 -4.3456 0
M  V30 4546 H 433.989 -0.255372 -0.691342 0
M  V30 4547 H 436.631 -1.25831 -1.42361 0
M  V30 4548 H 434.781 -0.652827 -3.82976 0
M  V30 4549 H 436.453 -3.21074 -3.31224 0
M  V30 4550 H 434.696 -3.06878 -3.06608 0
M  V30 4551 H 435.367 -2.90797 -4.69192 0
M  V30 4552 H 437.843 -1.10521 -4.01154 0
M  V30 4553 H 436.719 -1.025 -5.39245 0
M  V30 4554 H 436.98 0.402465 -4.40264 0
M  V30 4555 N 436.039 1.36541 -0.78704 0
M  V30 4556 C 437.267 2.03561 -0.370199 0
M  V30 4557 C 437.682 1.59347 1.01263 0
M  V30 4558 O 437.039 0.781781 1.64907 0
M  V30 4559 C 437.09 3.59033 -0.421614 0
M  V30 4560 O 436.811 4.01634 -1.7499 0
M  V30 4561 C 438.312 4.433 0.00489763 0
M  V30 4562 H 435.532 0.653346 -0.152904 0
M  V30 4563 H 438.076 1.74566 -1.06522 0
M  V30 4564 H 436.231 3.86746 0.224971 0
M  V30 4565 H 436.645 4.96217 -1.69909 0
M  V30 4566 H 438.119 5.51939 -0.0822184 0
M  V30 4567 H 438.596 4.26285 1.05723 0
M  V30 4568 H 439.202 4.20843 -0.614085 0
M  V30 4569 N 437.518 0.538854 1.48102 0
M  V30 4570 C 438.795 -0.0568108 1.95517 0
M  V30 4571 C 439.175 -1.50408 1.48124 0
M  V30 4572 O 438.523 -2.17133 0.711727 0
M  V30 4573 C 438.733 0.0696262 3.48931 0
M  V30 4574 C 440.081 -0.0851202 4.24515 0
M  V30 4575 O 441.105 -0.0037347 3.562 0
M  V30 4576 O 439.964 -0.257025 5.45895 0
M  V30 4577 H 437.058 -0.0743695 0.823649 0
M  V30 4578 H 439.604 0.604081 1.58584 0
M  V30 4579 H 438.376 1.07744 3.76174 0
M  V30 4580 H 437.999 -0.629714 3.92582 0
M  V30 4581 N 438.996 -1.55193 0.274407 0
M  V30 4582 C 440.242 -2.00604 -0.33608 0
M  V30 4583 C 440.597 -1.15948 -1.53538 0
M  V30 4584 O 439.89 -0.221385 -1.90317 0
M  V30 4585 C 440.084 -3.49019 -0.769458 0
M  V30 4586 C 439.913 -4.48038 0.386301 0
M  V30 4587 C 438.683 -4.97757 0.869854 0
M  V30 4588 C 440.881 -4.99558 1.22254 0
M  V30 4589 N 438.863 -5.80575 1.99515 0
M  V30 4590 C 440.234 -5.79816 2.19575 0
M  V30 4591 C 442.289 -4.81799 1.25597 0
M  V30 4592 C 440.992 -6.44208 3.19981 0
M  V30 4593 C 443.018 -5.46989 2.24848 0
M  V30 4594 C 442.38 -6.27058 3.20901 0
M  V30 4595 H 438.479 -0.777013 -0.088172 0
M  V30 4596 H 441.063 -1.90583 0.398266 0
M  V30 4597 H 439.234 -3.59383 -1.47303 0
M  V30 4598 H 440.966 -3.81263 -1.35722 0
M  V30 4599 H 437.721 -4.71464 0.449281 0
M  V30 4600 H 438.145 -6.26675 2.5614 0
M  V30 4601 H 442.787 -4.19501 0.527158 0
M  V30 4602 H 440.505 -7.05656 3.93796 0
M  V30 4603 H 444.091 -5.35189 2.28174 0
M  V30 4604 H 442.971 -6.7661 3.96445 0
M  V30 4605 N 440.474 -0.00167713 -1.576 0
M  V30 4606 C 441.384 1.00548 -2.1196 0
M  V30 4607 C 442.4 1.3758 -1.06526 0
M  V30 4608 O 443.576 1.46278 -1.38436 0
M  V30 4609 C 440.641 2.27809 -2.6135 0
M  V30 4610 C 439.702 1.97074 -3.81393 0
M  V30 4611 C 438.935 3.18267 -4.28417 0
M  V30 4612 O 439.158 4.30009 -3.74765 0
M  V30 4613 O 438.092 3.02167 -5.20556 0
M  V30 4614 H 441.918 0.573373 -2.98238 0
M  V30 4615 H 439.503 0.217255 -1.47812 0
M  V30 4616 H 441.385 3.02568 -2.93309 0
M  V30 4617 H 440.06 2.70254 -1.78169 0
M  V30 4618 H 438.967 1.19785 -3.54404 0
M  V30 4619 H 440.3 1.59464 -4.65652 0
M  V30 4620 N 441.952 1.55251 0.271103 0
M  V30 4621 C 442.885 1.83191 1.36075 0
M  V30 4622 C 443.863 0.685091 1.47463 0
M  V30 4623 O 445.047 0.928292 1.64058 0
M  V30 4624 C 442.174 1.99521 2.73696 0
M  V30 4625 C 441.22 3.22081 2.79582 0
M  V30 4626 S 442.053 4.79388 2.38636 0
M  V30 4627 C 443.209 4.98693 3.78228 0
M  V30 4628 H 443.442 2.75327 1.12171 0
M  V30 4629 H 440.975 1.47046 0.470833 0
M  V30 4630 H 442.933 2.09613 3.52948 0
M  V30 4631 H 441.594 1.0827 2.9485 0
M  V30 4632 H 440.787 3.304 3.80594 0
M  V30 4633 H 440.389 3.10589 2.08352 0
M  V30 4634 H 442.681 4.84551 4.73515 0
M  V30 4635 H 443.624 6.00738 3.7486 0
M  V30 4636 H 444.032 4.26665 3.69618 0
M  V30 4637 N 443.43 -0.535701 1.48216 0
M  V30 4638 C 444.377 -1.64083 1.62312 0
M  V30 4639 C 445.347 -1.59448 0.465365 0
M  V30 4640 O 446.532 -1.77959 0.688135 0
M  V30 4641 C 443.672 -3.0236 1.66349 0
M  V30 4642 C 442.785 -3.17273 2.93193 0
M  V30 4643 C 441.92 -4.46075 2.88427 0
M  V30 4644 C 440.959 -4.54496 4.1 0
M  V30 4645 N 440.096 -5.7468 4.03345 0
M  V30 4646 H 444.936 -1.51374 2.5669 0
M  V30 4647 H 442.473 -0.737059 1.27302 0
M  V30 4648 H 444.431 -3.82461 1.66672 0
M  V30 4649 H 443.061 -3.13854 0.754672 0
M  V30 4650 H 442.113 -2.30462 3.02641 0
M  V30 4651 H 443.425 -3.19357 3.83162 0
M  V30 4652 H 442.579 -5.3446 2.87119 0
M  V30 4653 H 441.318 -4.46504 1.96177 0
M  V30 4654 H 440.323 -3.64519 4.11589 0
M  V30 4655 H 441.548 -4.5581 5.03402 0
M  V30 4656 H 439.494 -5.76017 3.13912 0
M  V30 4657 H 439.411 -5.78234 4.87013 0
M  V30 4658 H 440.679 -6.65367 4.06087 0
M  V30 4659 O 444.947 -1.46458 -0.680617 0
M  V30 4660 H 445.638 -1.40531 -1.33307 0
M  V30 END ATOM
M  V30 BEGIN BOND
M  V30 END BOND
M  V30 END CTAB
M  END
$$$$
