drugbank_target|Q9H015 Solute carrier family 22 member 4 (DB00583)
 OpenBabel12092119393D

  0  0  0     0  0            999 V3000
M  V30 BEGIN CTAB
M  V30 COUNTS 8853 8968 0 0 0
M  V30 BEGIN ATOM
M  V30 1 H -0.908 1.98254 -0.117106 0
M  V30 2 N 0 1.576 0 0
M  V30 3 C 0.933 2.03868 1.02534 0
M  V30 4 C 1.911 0.928543 1.3348 0
M  V30 5 O 3.095 1.19667 1.45644 0
M  V30 6 C 0.222 2.43627 2.35294 0
M  V30 7 C -0.732 3.65373 2.2001 0
M  V30 8 S 0.101 5.13292 1.52614 0
M  V30 9 C 1.257 5.56322 2.86805 0
M  V30 10 H 1.49 2.90518 0.631377 0
M  V30 11 H -0.977 1.52953 0.210867 0
M  V30 12 H 0.981 2.67203 3.11629 0
M  V30 13 H -0.358 1.57376 2.7183 0
M  V30 14 H -1.165 3.90944 3.18086 0
M  V30 15 H -1.563 3.418 1.51819 0
M  V30 16 H 0.729 5.58782 3.83104 0
M  V30 17 H 1.672 6.56266 2.65933 0
M  V30 18 H 2.08 4.83886 2.90714 0
M  V30 19 N 1.4781 -0.272755 1.55222 0
M  V30 20 C 2.8941 -0.619959 1.47067 0
M  V30 21 C 3.0941 -1.895 0.684978 0
M  V30 22 O 2.1501 -2.51675 0.203931 0
M  V30 23 C 3.4631 -0.746693 2.91282 0
M  V30 24 C 5.0111 -0.840731 3.01497 0
M  V30 25 C 5.4861 -0.99924 4.46967 0
M  V30 26 N 6.9771 -1.06476 4.50796 0
M  V30 27 C 7.7121 -1.20621 5.6057 0
M  V30 28 N 7.2081 -1.31483 6.80209 0
M  V30 29 N 9.0011 -1.23733 5.48312 0
M  V30 30 H 1.1521 0.564606 2.04758 0
M  V30 31 H 3.4151 0.191177 0.928523 0
M  V30 32 H 3.1211 0.119753 3.51496 0
M  V30 33 H 2.9951 -1.6269 3.40311 0
M  V30 34 H 5.3821 -1.69764 2.41379 0
M  V30 35 H 5.4631 0.0640874 2.5572 0
M  V30 36 H 5.1071 -0.146984 5.07687 0
M  V30 37 H 5.0371 -1.91871 4.90401 0
M  V30 38 H 7.5281 -0.993196 3.64615 0
M  V30 39 H 7.8411 -1.42111 7.59621 0
M  V30 40 H 6.1861 -1.28487 6.8302 0
M  V30 41 H 9.3771 -1.14877 4.53785 0
M  V30 42 H 9.5501 -1.34412 6.33906 0
M  V30 43 N 2.9562 -1.48159 -0.537278 0
M  V30 44 C 4.2332 -1.46291 -1.29839 0
M  V30 45 C 4.6132 -0.170613 -2.10409 0
M  V30 46 O 3.9612 0.847746 -2.12192 0
M  V30 47 C 4.1712 -2.72055 -2.18603 0
M  V30 48 C 5.5192 -3.20087 -2.7898 0
M  V30 49 O 6.5432 -2.72921 -2.28894 0
M  V30 50 O 5.4022 -4.02138 -3.70064 0
M  V30 51 H 2.4962 -0.583906 -0.585647 0
M  V30 52 H 5.0422 -1.60384 -0.554534 0
M  V30 53 H 3.8142 -3.57628 -1.58801 0
M  V30 54 H 3.4372 -2.60646 -3.00249 0
M  V30 55 N 4.4343 0.785586 -1.36625 0
M  V30 56 C 5.6643 1.5722 -1.34036 0
M  V30 57 C 6.0723 1.89033 0.0795062 0
M  V30 58 O 5.4153 1.50881 1.04789 0
M  V30 59 C 5.4773 2.91759 -2.10041 0
M  V30 60 C 5.1413 2.82654 -3.59104 0
M  V30 61 C 6.1383 2.54634 -4.53274 0
M  V30 62 C 3.8233 3.01111 -4.02042 0
M  V30 63 C 5.8173 2.45177 -5.88359 0
M  V30 64 C 3.5043 2.91276 -5.37216 0
M  V30 65 C 4.5023 2.63348 -6.30188 0
M  V30 66 O 4.1903 2.53514 -7.6288 0
M  V30 67 H 3.9223 0.494177 -0.461265 0
M  V30 68 H 6.4763 0.982632 -1.8037 0
M  V30 69 H 4.7063 3.52781 -1.58375 0
M  V30 70 H 6.3953 3.53059 -2.00261 0
M  V30 71 H 7.1613 2.40073 -4.21414 0
M  V30 72 H 3.0403 3.21854 -3.30047 0
M  V30 73 H 6.5843 2.23299 -6.60896 0
M  V30 74 H 2.4813 3.054 -5.68684 0
M  V30 75 H 3.2493 2.68967 -7.73045 0
M  V30 76 N 5.9124 1.20967 1.01018 0
M  V30 77 C 7.1894 0.93264 1.71934 0
M  V30 78 C 7.5694 -0.55692 2.03621 0
M  V30 79 O 6.9174 -1.52035 1.7058 0
M  V30 80 C 7.1274 1.81233 2.98254 0
M  V30 81 C 8.4754 2.05804 3.71389 0
M  V30 82 O 9.4994 1.78539 3.08225 0
M  V30 83 O 8.3584 2.51888 4.84989 0
M  V30 84 H 5.4524 0.349272 0.749625 0
M  V30 85 H 7.9984 1.31871 1.06808 0
M  V30 86 H 6.7704 2.82067 2.71208 0
M  V30 87 H 6.3934 1.42674 3.7112 0
M  V30 88 N 7.3905 -1.2043 1.01659 0
M  V30 89 C 8.3005 -2.2689 0.596484 0
M  V30 90 C 9.3165 -1.70107 -0.36599 0
M  V30 91 O 10.4925 -2.00117 -0.226942 0
M  V30 92 C 7.5575 -3.4665 -0.0586659 0
M  V30 93 C 6.6185 -4.18662 0.949751 0
M  V30 94 C 5.8515 -5.32705 0.32577 0
M  V30 95 O 6.0745 -5.63656 -0.874509 0
M  V30 96 O 5.0085 -5.92803 1.04249 0
M  V30 97 H 8.8345 -2.65041 1.4828 0
M  V30 98 H 6.4195 -1.27048 0.786082 0
M  V30 99 H 8.3015 -4.19256 -0.424564 0
M  V30 100 H 6.9765 -3.10375 -0.91918 0
M  V30 101 H 5.8835 -3.48229 1.36702 0
M  V30 102 H 7.2165 -4.58878 1.78023 0
M  V30 103 N 8.8686 -0.792821 -1.36206 0
M  V30 104 C 10.1146 -0.36733 -1.99446 0
M  V30 105 C 10.4476 1.05917 -1.62774 0
M  V30 106 O 9.7226 1.7324 -0.88421 0
M  V30 107 C 10.0056 -0.535044 -3.56103 0
M  V30 108 C 9.8586 -2.00548 -4.02617 0
M  V30 109 C 11.1776 0.0478191 -4.40074 0
M  V30 110 H 8.2966 -0.134941 -0.724541 0
M  V30 111 H 10.9386 -0.999794 -1.61568 0
M  V30 112 H 9.0886 0.00336329 -3.885 0
M  V30 113 H 10.7606 -2.60521 -3.80692 0
M  V30 114 H 9.0036 -2.50686 -3.54032 0
M  V30 115 H 9.6746 -2.07377 -5.11565 0
M  V30 116 H 12.1506 -0.411822 -4.14057 0
M  V30 117 H 11.0266 -0.0995336 -5.4881 0
M  V30 118 H 11.2876 1.14025 -4.27142 0
M  V30 119 N 10.3467 1.47872 -0.545128 0
M  V30 120 C 11.5957 2.01695 -0.0145033 0
M  V30 121 C 11.9087 1.42609 1.33873 0
M  V30 122 O 13.1147 1.88021 1.95858 0
M  V30 123 C 11.5707 3.59892 0.0245068 0
M  V30 124 C 11.1787 4.27966 -1.32475 0
M  V30 125 C 12.9227 4.21507 0.50316 0
M  V30 126 C 10.8297 5.78136 -1.2455 0
M  V30 127 H 9.7597 0.753998 -0.00165172 0
M  V30 128 H 12.4107 1.69985 -0.691175 0
M  V30 129 H 10.7927 3.88509 0.766575 0
M  V30 130 H 11.9667 4.11003 -2.08357 0
M  V30 131 H 10.2817 3.78286 -1.74036 0
M  V30 132 H 12.8787 5.31538 0.580656 0
M  V30 133 H 13.2217 3.87855 1.51243 0
M  V30 134 H 13.7547 3.97376 -0.183681 0
M  V30 135 H 10.4937 6.16388 -2.23039 0
M  V30 136 H 10.0137 5.97469 -0.528282 0
M  V30 137 H 11.6927 6.40099 -0.942488 0
M  V30 138 N 11.8248 0.280983 1.55075 0
M  V30 139 C 12.7878 -0.590896 2.21452 0
M  V30 140 C 13.7878 -1.07682 1.19421 0
M  V30 141 O 14.9778 -0.97605 1.44288 0
M  V30 142 C 12.1098 -1.81587 2.88511 0
M  V30 143 H 13.3028 -0.0112554 2.99898 0
M  V30 144 H 10.8558 0.0316438 1.56268 0
M  V30 145 H 11.5908 -2.43587 2.14093 0
M  V30 146 H 11.3758 -1.4753 3.63287 0
M  V30 147 H 12.8658 -2.43575 3.39206 0
M  V30 148 N 13.3029 -1.57598 0.00835791 0
M  V30 149 C 14.5499 -1.90928 -0.674732 0
M  V30 150 C 14.8779 -0.88277 -1.73313 0
M  V30 151 O 14.1329 0.111294 -1.95383 0
M  V30 152 C 14.4319 -3.3101 -1.34787 0
M  V30 153 C 14.0979 -4.48922 -0.421861 0
M  V30 154 C 12.7599 -4.8091 -0.166927 0
M  V30 155 C 15.1119 -5.20755 0.215211 0
M  V30 156 C 12.4399 -5.821 0.733232 0
M  V30 157 C 14.7919 -6.22905 1.1033 0
M  V30 158 C 13.4559 -6.53346 1.36733 0
M  V30 159 H 12.7259 -0.698656 -0.246902 0
M  V30 160 H 15.3729 -1.91387 0.0656779 0
M  V30 161 H 13.6779 -3.26714 -2.16253 0
M  V30 162 H 15.3749 -3.54061 -1.8826 0
M  V30 163 H 11.9649 -4.23934 -0.630729 0
M  V30 164 H 16.1489 -4.9629 0.0312829 0
M  V30 165 H 11.4049 -6.04042 0.945712 0
M  V30 166 H 15.5789 -6.77694 1.60325 0
M  V30 167 H 13.2059 -7.31573 2.06652 0
M  V30 168 N 14.781 0.264519 -1.55364 0
M  V30 169 C 15.711 1.33121 -1.91836 0
M  V30 170 C 16.692 1.51101 -0.781192 0
M  V30 171 O 17.877 1.64003 -1.04003 0
M  V30 172 C 15.007 2.68921 -2.19769 0
M  V30 173 C 13.961 2.65661 -3.35571 0
M  V30 174 C 13.287 4.05093 -3.49004 0
M  V30 175 C 14.587 2.24187 -4.71739 0
M  V30 176 H 16.281 1.02844 -2.81182 0
M  V30 177 H 13.827 0.493286 -1.35287 0
M  V30 178 H 15.78 3.43663 -2.43872 0
M  V30 179 H 14.504 3.00799 -1.27231 0
M  V30 180 H 13.163 1.93377 -3.1145 0
M  V30 181 H 12.811 4.34206 -2.53917 0
M  V30 182 H 12.511 4.03804 -4.26868 0
M  V30 183 H 14.035 4.81561 -3.75408 0
M  V30 184 H 15.449 2.88654 -4.9533 0
M  V30 185 H 13.846 2.34044 -5.52579 0
M  V30 186 H 14.916 1.19327 -4.69988 0
M  V30 187 N 16.2591 1.48442 0.529413 0
M  V30 188 C 17.5071 1.56179 1.28267 0
M  V30 189 C 17.8281 0.237721 1.93546 0
M  V30 190 O 17.0981 -0.740779 1.81354 0
M  V30 191 H 15.6781 0.575367 0.476405 0
M  V30 192 H 18.3401 1.84909 0.61602 0
M  V30 193 H 17.4361 2.34312 2.06165 0
M  V30 194 N 17.7372 -0.778329 1.37039 0
M  V30 195 C 18.6472 -1.92253 1.34446 0
M  V30 196 C 19.6632 -1.72267 0.244991 0
M  V30 197 O 20.8392 -1.95615 0.479258 0
M  V30 198 C 17.9042 -3.27282 1.144 0
M  V30 199 C 16.9652 -3.59969 2.33925 0
M  V30 200 C 16.1982 -4.88555 2.14825 0
M  V30 201 O 16.4212 -5.59113 1.12912 0
M  V30 202 O 15.3552 -5.20153 3.02861 0
M  V30 203 H 19.1812 -1.97392 2.30803 0
M  V30 204 H 16.7662 -0.920154 1.17701 0
M  V30 205 H 18.6482 -4.08062 1.05182 0
M  V30 206 H 17.3232 -3.23011 0.211124 0
M  V30 207 H 16.2302 -2.7945 2.48714 0
M  V30 208 H 17.5632 -3.68976 3.25757 0
M  V30 209 N 19.2153 -1.21501 -1.00376 0
M  V30 210 C 20.4613 -1.04457 -1.74529 0
M  V30 211 C 20.8163 0.417386 -1.87818 0
M  V30 212 O 20.1093 1.30556 -1.40234 0
M  V30 213 C 20.3033 -1.67673 -3.15627 0
M  V30 214 C 20.1323 -3.19865 -3.16096 0
M  V30 215 C 18.9023 -3.88915 -3.22604 0
M  V30 216 C 21.1003 -4.16936 -3.01112 0
M  V30 217 N 19.0823 -5.28284 -3.12712 0
M  V30 218 C 20.4533 -5.43066 -2.99131 0
M  V30 219 C 22.5083 -4.07968 -2.85423 0
M  V30 220 C 21.2113 -6.6126 -2.83068 0
M  V30 221 C 23.2373 -5.258 -2.70718 0
M  V30 222 C 22.5993 -6.50842 -2.69414 0
M  V30 223 H 18.6983 -0.436584 -0.648782 0
M  V30 224 H 21.2823 -1.53875 -1.19293 0
M  V30 225 H 19.4533 -1.20822 -3.6913 0
M  V30 226 H 21.1853 -1.43824 -3.78281 0
M  V30 227 H 17.9403 -3.39847 -3.2985 0
M  V30 228 H 18.3643 -6.01284 -3.11105 0
M  V30 229 H 23.0063 -3.1209 -2.85236 0
M  V30 230 H 20.7243 -7.57298 -2.82002 0
M  V30 231 H 24.3103 -5.20683 -2.59577 0
M  V30 232 H 23.1903 -7.40485 -2.5817 0
M  V30 233 N 20.6934 1.19889 -1.02296 0
M  V30 234 C 21.9414 1.89046 -0.714558 0
M  V30 235 C 22.2624 1.79636 0.758681 0
M  V30 236 O 21.5324 1.20292 1.54618 0
M  V30 237 H 20.1124 0.699802 -0.261317 0
M  V30 238 H 22.7744 1.45574 -1.29592 0
M  V30 239 H 21.8704 2.95524 -1.0036 0
M  V30 240 N 22.1715 0.800033 1.35784 0
M  V30 241 C 23.5825 0.439142 1.81462 0
M  V30 242 C 23.9335 -1.03813 1.66485 0
M  V30 243 O 23.0585 -1.80626 1.19177 0
M  V30 244 C 23.6535 0.790314 3.29453 0
M  V30 245 C 22.2125 0.482111 3.733 0
M  V30 246 C 21.3595 1.01938 2.57883 0
M  V30 247 H 24.3105 0.992254 1.23855 0
M  V30 248 H 24.3315 0.0853677 3.80404 0
M  V30 249 H 23.8435 1.86554 3.40322 0
M  V30 250 H 21.9445 -0.584652 3.67984 0
M  V30 251 H 22.0575 1.01015 4.6833 0
M  V30 252 H 20.4215 0.442043 2.50835 0
M  V30 253 H 21.2045 2.10059 2.71533 0
M  V30 254 N 23.6496 -1.47581 0.552962 0
M  V30 255 C 24.8966 -2.02482 0.0273243 0
M  V30 256 C 25.2246 -1.42776 -1.32081 0
M  V30 257 O 24.4796 -0.571393 -1.87173 0
M  V30 258 C 24.7786 -3.57199 -0.119728 0
M  V30 259 C 24.4446 -4.35804 1.15697 0
M  V30 260 C 23.1066 -4.57 1.50681 0
M  V30 261 C 25.4586 -4.81167 2.00319 0
M  V30 262 C 22.7866 -5.20807 2.70142 0
M  V30 263 C 25.1386 -5.46293 3.18978 0
M  V30 264 C 23.8026 -5.65722 3.54281 0
M  V30 265 H 23.0726 -0.740933 0.00999866 0
M  V30 266 H 25.7196 -1.77302 0.72362 0
M  V30 267 H 24.0246 -3.81348 -0.89896 0
M  V30 268 H 25.7216 -3.97324 -0.541718 0
M  V30 269 H 22.3116 -4.19582 0.874561 0
M  V30 270 H 26.4956 -4.64574 1.74599 0
M  V30 271 H 21.7516 -5.34045 2.97668 0
M  V30 272 H 25.9256 -5.80407 3.84838 0
M  V30 273 H 23.5526 -6.14936 4.46942 0
M  V30 274 N 25.1277 -0.289203 -1.54924 0
M  V30 275 C 26.0597 0.625583 -2.20497 0
M  V30 276 C 27.0727 1.10667 -1.19402 0
M  V30 277 O 28.2617 1.02615 -1.46056 0
M  V30 278 C 25.3617 1.86702 -2.82835 0
M  V30 279 C 24.5347 1.5304 -4.09753 0
M  V30 280 C 23.5937 2.62576 -4.56005 0
M  V30 281 O 22.6197 2.28167 -5.21468 0
M  V30 282 N 23.8217 3.92901 -4.27328 0
M  V30 283 H 26.5867 0.0642801 -2.99631 0
M  V30 284 H 24.1477 -0.110896 -1.6152 0
M  V30 285 H 26.1397 2.59304 -3.10715 0
M  V30 286 H 24.7097 2.33702 -2.07611 0
M  V30 287 H 23.9297 0.637564 -3.8901 0
M  V30 288 H 25.2177 1.28072 -4.92418 0
M  V30 289 H 24.6157 4.23671 -3.74859 0
M  V30 290 H 23.1727 4.61837 -4.59946 0
M  V30 291 N 26.6058 1.57591 -0.0167156 0
M  V30 292 C 28.0218 1.55946 0.339557 0
M  V30 293 C 28.2218 1.02109 1.73713 0
M  V30 294 O 27.2778 0.662303 2.43659 0
M  V30 295 C 28.5908 3.00037 0.199499 0
M  V30 296 C 30.1388 3.11805 0.273193 0
M  V30 297 C 30.6138 4.57713 0.162068 0
M  V30 298 N 32.1048 4.6268 0.219444 0
M  V30 299 C 32.8398 5.73185 0.157054 0
M  V30 300 N 32.3358 6.92786 0.0442936 0
M  V30 301 N 34.1288 5.61707 0.21014 0
M  V30 302 H 26.2798 1.90921 -0.930758 0
M  V30 303 H 28.5428 0.877674 -0.358319 0
M  V30 304 H 28.2488 3.4333 -0.76273 0
M  V30 305 H 28.1228 3.64387 0.974786 0
M  V30 306 H 30.5098 2.68433 1.22587 0
M  V30 307 H 30.5908 2.50201 -0.532256 0
M  V30 308 H 30.2348 5.01763 -0.78714 0
M  V30 309 H 30.1648 5.17283 0.986222 0
M  V30 310 H 32.6558 3.76649 0.307246 0
M  V30 311 H 32.9688 7.728 0.00304069 0
M  V30 312 H 31.3138 6.94999 0.00968457 0
M  V30 313 H 34.5048 4.6716 0.296546 0
M  V30 314 H 34.6778 6.47807 0.158054 0
M  V30 315 N 28.0839 -0.256276 1.55502 0
M  V30 316 C 29.0139 -1.32102 1.92539 0
M  V30 317 C 29.9949 -1.50684 0.789194 0
M  V30 318 O 31.1799 -1.63449 1.04872 0
M  V30 319 C 28.3099 -2.67752 2.21192 0
M  V30 320 C 27.2639 -2.63878 3.36975 0
M  V30 321 C 26.5899 -4.03236 3.51147 0
M  V30 322 C 27.8899 -2.21682 4.72921 0
M  V30 323 H 29.5839 -1.01351 2.81724 0
M  V30 324 H 27.1299 -0.486105 1.35547 0
M  V30 325 H 29.0829 -3.42365 2.45691 0
M  V30 326 H 27.8069 -3.0012 1.28824 0
M  V30 327 H 26.4659 -1.91722 3.12471 0
M  V30 328 H 26.1139 -4.32854 2.56216 0
M  V30 329 H 25.8139 -4.01535 4.29003 0
M  V30 330 H 27.3379 -4.79563 3.77957 0
M  V30 331 H 28.7519 -2.86023 4.96854 0
M  V30 332 H 27.1489 -2.3111 5.53812 0
M  V30 333 H 28.2189 -1.16833 4.70615 0
M  V30 334 N 29.562 -1.4872 -0.521534 0
M  V30 335 C 30.811 -1.56419 -1.27341 0
M  V30 336 C 31.124 -0.246805 -1.94037 0
M  V30 337 O 32.33 -0.202122 -2.70747 0
M  V30 338 C 30.786 -2.75896 -2.31105 0
M  V30 339 C 30.394 -4.14311 -1.70441 0
M  V30 340 C 32.138 -2.92913 -3.07249 0
M  V30 341 C 30.045 -5.25038 -2.72194 0
M  V30 342 H 28.975 -0.582344 -0.478949 0
M  V30 343 H 31.626 -1.75071 -0.549779 0
M  V30 344 H 30.008 -2.50697 -3.06541 0
M  V30 345 H 31.182 -4.49564 -1.01136 0
M  V30 346 H 29.497 -4.02482 -1.06759 0
M  V30 347 H 32.094 -3.72805 -3.83302 0
M  V30 348 H 32.437 -2.02689 -3.63625 0
M  V30 349 H 32.97 -3.18054 -2.38928 0
M  V30 350 H 29.709 -6.17255 -2.20627 0
M  V30 351 H 29.229 -4.94263 -3.39801 0
M  V30 352 H 30.908 -5.53508 -3.35019 0
M  V30 353 N 31.0401 0.771051 -1.3745 0
M  V30 354 C 32.2871 1.52963 -1.32697 0
M  V30 355 C 32.6151 1.94299 0.0883274 0
M  V30 356 O 31.8701 1.64397 1.0617 0
M  V30 357 C 32.1691 2.80676 -2.2126 0
M  V30 358 C 31.8351 2.58389 -3.69521 0
M  V30 359 C 30.4971 2.52019 -4.09927 0
M  V30 360 C 32.8491 2.38469 -4.63446 0
M  V30 361 C 30.1771 2.23721 -5.42371 0
M  V30 362 C 32.5291 2.11694 -5.96128 0
M  V30 363 C 31.1931 2.03769 -6.35637 0
M  V30 364 H 30.4631 0.559732 -0.485573 0
M  V30 365 H 33.1101 0.888083 -1.69662 0
M  V30 366 H 31.4151 3.49392 -1.77291 0
M  V30 367 H 33.1121 3.38557 -2.14895 0
M  V30 368 H 29.7021 2.6421 -3.37478 0
M  V30 369 H 33.8861 2.4238 -4.33089 0
M  V30 370 H 29.1421 2.16081 -5.71943 0
M  V30 371 H 33.3161 1.9528 -6.6846 0
M  V30 372 H 30.9431 1.81606 -7.38189 0
M  V30 373 N 32.5182 1.22032 0.997298 0
M  V30 374 C 33.7652 1.04222 1.73621 0
M  V30 375 C 34.0932 -0.423264 1.89839 0
M  V30 376 O 33.3482 -1.3302 1.43542 0
M  V30 377 C 33.6472 1.69345 3.14733 0
M  V30 378 C 33.3132 3.19226 3.18442 0
M  V30 379 C 31.9752 3.60124 3.19161 0
M  V30 380 C 34.3272 4.15181 3.15078 0
M  V30 381 C 31.6552 4.95467 3.14212 0
M  V30 382 C 34.0072 5.50495 3.1167 0
M  V30 383 C 32.6712 5.90779 3.10703 0
M  V30 384 H 31.9412 0.381374 0.635323 0
M  V30 385 H 34.5882 1.51732 1.16831 0
M  V30 386 H 32.8932 1.14147 3.74803 0
M  V30 387 H 34.5902 1.53059 3.7064 0
M  V30 388 H 31.1802 2.86659 3.18629 0
M  V30 389 H 35.3642 3.84605 3.13676 0
M  V30 390 H 30.6202 5.25916 3.11805 0
M  V30 391 H 34.7942 6.24576 3.08022 0
M  V30 392 H 32.4212 6.9562 3.06622 0
M  V30 393 N 33.9963 -1.19345 1.0293 0
M  V30 394 C 34.9263 -2.2481 0.631105 0
M  V30 395 C 35.9073 -1.66245 -0.360104 0
M  V30 396 O 37.0923 -1.92677 -0.242726 0
M  V30 397 C 34.2223 -3.47295 -0.0184607 0
M  V30 398 C 33.1763 -4.18536 0.895073 0
M  V30 399 C 32.5023 -5.34586 0.110592 0
M  V30 400 C 33.8023 -4.73287 2.209 0
M  V30 401 H 35.4963 -2.58372 1.51275 0
M  V30 402 H 33.0423 -1.24194 0.728818 0
M  V30 403 H 34.9953 -4.20268 -0.308675 0
M  V30 404 H 33.7193 -3.12933 -0.934907 0
M  V30 405 H 32.3783 -3.47446 1.16949 0
M  V30 406 H 32.0263 -4.96469 -0.807902 0
M  V30 407 H 31.7263 -5.83183 0.719087 0
M  V30 408 H 33.2503 -6.10355 -0.172871 0
M  V30 409 H 34.6643 -5.38013 1.98028 0
M  V30 410 H 33.0613 -5.32373 2.76946 0
M  V30 411 H 34.1313 -3.91331 2.86336 0
M  V30 412 N 35.4744 -0.807222 -1.35358 0
M  V30 413 C 36.4044 -0.232509 -2.3234 0
M  V30 414 C 37.3854 0.642386 -1.57504 0
M  V30 415 O 38.5704 0.572526 -1.85569 0
M  V30 416 C 35.7004 0.619238 -3.41735 0
M  V30 417 C 34.6544 -0.157215 -4.27711 0
M  V30 418 C 33.9804 0.816273 -5.28433 0
M  V30 419 C 35.2804 -1.35656 -5.04376 0
M  V30 420 H 36.9744 -1.04276 -2.80654 0
M  V30 421 H 34.5204 -0.50288 -1.34934 0
M  V30 422 H 36.4734 1.03137 -4.08584 0
M  V30 423 H 35.1974 1.46239 -2.92031 0
M  V30 424 H 33.8564 -0.550525 -3.62443 0
M  V30 425 H 33.5044 1.65494 -4.74996 0
M  V30 426 H 33.2044 0.301067 -5.86828 0
M  V30 427 H 34.7284 1.22659 -5.98153 0
M  V30 428 H 36.1424 -1.01927 -5.64166 0
M  V30 429 H 34.5394 -1.8063 -5.7227 0
M  V30 430 H 35.6094 -2.14288 -4.34981 0
M  V30 431 N 36.9525 1.47285 -0.560781 0
M  V30 432 C 38.1775 2.07359 -0.0410566 0
M  V30 433 C 38.6025 1.41017 1.24483 0
M  V30 434 O 37.9605 0.486368 1.74654 0
M  V30 435 C 38.0085 3.6035 0.134123 0
M  V30 436 O 37.1125 3.94681 1.19587 0
M  V30 437 H 36.4535 0.661887 -0.0529291 0
M  V30 438 H 38.9835 1.89252 -0.777482 0
M  V30 439 H 38.9935 4.0652 0.347207 0
M  V30 440 H 37.6685 4.08034 -0.805047 0
M  V30 441 H 36.2455 3.60251 0.962987 0
M  V30 442 N 38.4306 0.297415 1.54768 0
M  V30 443 C 39.3936 -0.567375 2.22066 0
M  V30 444 C 40.3936 -1.06409 1.20556 0
M  V30 445 O 41.5836 -0.960691 1.45315 0
M  V30 446 C 38.7156 -1.78517 2.90421 0
M  V30 447 H 39.9086 0.0205534 2.99893 0
M  V30 448 H 37.4616 0.0482163 1.56226 0
M  V30 449 H 38.1966 -2.41303 2.16664 0
M  V30 450 H 37.9816 -1.43669 3.64831 0
M  V30 451 H 39.4716 -2.39964 3.41771 0
M  V30 452 N 39.9087 -1.5758 0.0250728 0
M  V30 453 C 41.1337 -1.96337 -0.668317 0
M  V30 454 C 41.5587 -0.901314 -1.651 0
M  V30 455 O 40.9167 0.138187 -1.80773 0
M  V30 456 C 40.9647 -3.34191 -1.35457 0
M  V30 457 O 40.0687 -3.30269 -2.46974 0
M  V30 458 H 39.4097 -0.640281 -0.175887 0
M  V30 459 H 41.9397 -2.0442 0.0857224 0
M  V30 460 H 41.9497 -3.70331 -1.71228 0
M  V30 461 H 40.6247 -4.11036 -0.634218 0
M  V30 462 H 39.2017 -3.05841 -2.13344 0
M  V30 463 N 41.3868 0.248026 -1.55636 0
M  V30 464 C 42.6358 0.974134 -1.76617 0
M  V30 465 C 42.9488 1.86528 -0.588796 0
M  V30 466 O 44.1548 2.62805 -0.681594 0
M  V30 467 C 42.6108 1.78213 -3.12679 0
M  V30 468 C 42.2188 0.93843 -4.38061 0
M  V30 469 C 43.9628 2.50104 -3.42999 0
M  V30 470 C 41.8698 1.74225 -5.65155 0
M  V30 471 H 40.7998 0.36745 -0.658405 0
M  V30 472 H 43.4508 0.22884 -1.82067 0
M  V30 473 H 41.8328 2.56933 -3.01333 0
M  V30 474 H 43.0068 0.193635 -4.60393 0
M  V30 475 H 41.3218 0.332905 -4.15067 0
M  V30 476 H 43.9188 3.10694 -4.3517 0
M  V30 477 H 44.2618 3.21662 -2.64271 0
M  V30 478 H 44.7948 1.78395 -3.55556 0
M  V30 479 H 41.5338 1.07043 -6.46701 0
M  V30 480 H 41.0538 2.46235 -5.46926 0
M  V30 481 H 42.7328 2.30967 -6.0437 0
M  V30 482 N 42.8649 1.48995 0.513639 0
M  V30 483 C 44.1139 1.57093 1.2651 0
M  V30 484 C 44.4269 0.257091 1.93903 0
M  V30 485 O 45.6329 0.216478 2.70636 0
M  V30 486 C 44.0889 2.77118 2.29638 0
M  V30 487 C 43.6969 4.15209 1.68241 0
M  V30 488 C 45.4409 2.94538 3.05692 0
M  V30 489 C 43.3479 5.26474 2.69406 0
M  V30 490 H 42.2779 0.584876 0.475854 0
M  V30 491 H 44.9289 1.7536 0.540487 0
M  V30 492 H 43.3109 2.52319 3.05207 0
M  V30 493 H 44.4849 4.50094 0.987505 0
M  V30 494 H 42.7999 4.03042 1.04623 0
M  V30 495 H 45.3969 3.74832 3.8132 0
M  V30 496 H 45.7399 2.04614 3.62545 0
M  V30 497 H 46.2729 3.19316 2.37238 0
M  V30 498 H 43.0119 6.18417 2.17351 0
M  V30 499 H 42.5319 4.96058 3.37175 0
M  V30 500 H 44.2109 5.55277 3.32078 0
M  V30 501 N 44.343 -0.763751 1.37857 0
M  V30 502 C 45.754 -1.3405 1.29952 0
M  V30 503 C 46.105 -1.96138 -0.0492898 0
M  V30 504 O 45.23 -1.94372 -0.951239 0
M  V30 505 C 45.825 -2.43729 2.35333 0
M  V30 506 C 44.384 -2.97151 2.31037 0
M  V30 507 C 43.531 -1.70438 2.18738 0
M  V30 508 H 46.482 -0.563396 1.48363 0
M  V30 509 H 46.503 -3.23412 2.00462 0
M  V30 510 H 46.015 -1.9851 3.33489 0
M  V30 511 H 44.116 -3.46724 1.3643 0
M  V30 512 H 44.229 -3.52221 3.24772 0
M  V30 513 H 42.593 -1.93673 1.65418 0
M  V30 514 H 43.376 -1.27312 3.18821 0
M  V30 515 N 45.8211 -1.22559 -0.990812 0
M  V30 516 C 46.7691 -0.994798 -2.10253 0
M  V30 517 C 47.7631 0.0627798 -1.69284 0
M  V30 518 O 48.9691 -0.0898392 -1.79776 0
M  V30 519 H 45.3441 -0.304527 -0.687581 0
M  V30 520 H 47.3151 -1.93812 -2.26891 0
M  V30 521 C 46.0641 -0.591439 -3.42633 0
M  V30 522 H 45.3871 -1.3969 -3.74602 0
M  V30 523 H 46.8271 -0.469385 -4.21394 0
M  V30 524 C 45.2861 0.699232 -3.29564 0
M  V30 525 O 45.8161 1.75112 -3.61523 0
M  V30 526 N 44.0221 0.671182 -2.82743 0
M  V30 527 H 43.5691 -0.185136 -2.56934 0
M  V30 528 H 43.5271 1.53502 -2.7438 0
M  V30 529 N 47.2992 1.18797 -1.03562 0
M  V30 530 C 48.5472 1.88278 -0.734569 0
M  V30 531 C 48.8682 1.8043 0.739586 0
M  V30 532 O 48.1382 1.21925 1.53333 0
M  V30 533 H 46.7182 0.696991 -0.268725 0
M  V30 534 H 49.3802 1.44192 -1.31129 0
M  V30 535 H 48.4762 2.94443 -1.03489 0
M  V30 536 N 48.7773 0.814389 1.34928 0
M  V30 537 C 50.0243 0.398423 1.98542 0
M  V30 538 C 50.3523 -1.03638 1.64589 0
M  V30 539 O 49.6073 -1.73509 0.90516 0
M  V30 540 C 49.9063 0.537781 3.53331 0
M  V30 541 C 49.5723 1.93704 4.07172 0
M  V30 542 C 48.2343 2.31984 4.21589 0
M  V30 543 C 50.5863 2.85213 4.36237 0
M  V30 544 C 47.9143 3.61125 4.62391 0
M  V30 545 C 50.2663 4.13809 4.78482 0
M  V30 546 C 48.9303 4.52077 4.91104 0
M  V30 547 H 48.2003 0.145793 0.726516 0
M  V30 548 H 50.8473 1.03669 1.61012 0
M  V30 549 H 49.1523 -0.183906 3.91368 0
M  V30 550 H 50.8493 0.196588 4.00518 0
M  V30 551 H 47.4393 1.62966 3.96409 0
M  V30 552 H 51.6233 2.56885 4.24645 0
M  V30 553 H 46.8793 3.90612 4.70353 0
M  V30 554 H 51.0533 4.84811 4.99932 0
M  V30 555 H 48.6803 5.52196 5.22478 0
M  V30 556 N 50.2554 -1.46986 0.568584 0
M  V30 557 C 51.2034 -2.31858 -0.185649 0
M  V30 558 C 52.1974 -1.43624 -0.898249 0
M  V30 559 O 53.4034 -1.60327 -0.818242 0
M  V30 560 H 49.7784 -0.747866 -0.0787399 0
M  V30 561 H 51.7494 -2.93303 0.549191 0
M  V30 562 C 50.4984 -3.26513 -1.19519 0
M  V30 563 H 49.8214 -3.94377 -0.656285 0
M  V30 564 H 51.2614 -3.88707 -1.6936 0
M  V30 565 C 49.7204 -2.50847 -2.24894 0
M  V30 566 O 50.2504 -2.26119 -3.32014 0
M  V30 567 N 48.4564 -2.11656 -1.99124 0
M  V30 568 H 48.0034 -2.31966 -1.12024 0
M  V30 569 H 47.9614 -1.61347 -2.69842 0
M  V30 570 N 51.7335 -0.305618 -1.54608 0
M  V30 571 C 52.9815 0.301701 -1.99835 0
M  V30 572 C 53.3025 1.54054 -1.19551 0
M  V30 573 O 52.5725 1.93702 -0.292658 0
M  V30 574 H 51.1525 0.114468 -0.738178 0
M  V30 575 H 53.8145 -0.418016 -1.90364 0
M  V30 576 H 52.9105 0.570548 -3.06841 0
M  V30 577 N 53.2116 1.57565 -0.0334293 0
M  V30 578 C 54.1446 2.05997 0.981866 0
M  V30 579 C 55.1226 0.956647 1.3148 0
M  V30 580 O 56.3066 1.22729 1.43073 0
M  V30 581 C 53.4336 2.48564 2.30074 0
M  V30 582 C 52.4796 3.69958 2.12211 0
M  V30 583 S 53.3126 5.16414 1.41692 0
M  V30 584 C 54.4686 5.6228 2.7494 0
M  V30 585 H 54.7016 2.91792 0.569612 0
M  V30 586 H 52.2346 1.53366 0.178376 0
M  V30 587 H 54.1926 2.73753 3.05892 0
M  V30 588 H 52.8536 1.63106 2.68431 0
M  V30 589 H 52.0466 3.97603 3.09722 0
M  V30 590 H 51.6486 3.44943 1.44535 0
M  V30 591 H 53.9406 5.66783 3.71165 0
M  V30 592 H 54.8836 6.61759 2.51953 0
M  V30 593 H 55.2916 4.89944 2.80384 0
M  V30 594 N 54.6897 -0.239769 1.55765 0
M  V30 595 C 55.9147 -0.988373 1.82335 0
M  V30 596 C 56.3397 -1.77886 0.611421 0
M  V30 597 O 55.6977 -1.75889 -0.439639 0
M  V30 598 C 55.7457 -1.89627 3.06715 0
M  V30 599 O 54.8497 -2.98904 2.84131 0
M  V30 600 H 54.1907 -0.280858 0.601677 0
M  V30 601 H 56.7207 -0.258597 2.02959 0
M  V30 602 H 56.7307 -2.30957 3.36338 0
M  V30 603 H 55.4057 -1.31511 3.9456 0
M  V30 604 H 53.9827 -2.61651 2.65694 0
M  V30 605 N 56.1678 -1.49265 -0.50573 0
M  V30 606 C 57.4138 -1.58748 -1.26202 0
M  V30 607 C 57.7468 -0.271227 -1.92297 0
M  V30 608 O 57.0218 0.724831 -1.80489 0
M  V30 609 C 57.3048 -2.74332 -2.33268 0
M  V30 610 C 57.1578 -4.15737 -1.71705 0
M  V30 611 C 58.4768 -2.85576 -3.34865 0
M  V30 612 H 55.5958 -0.577826 -0.457478 0
M  V30 613 H 58.2378 -1.81532 -0.560897 0
M  V30 614 H 56.3878 -2.55036 -2.93068 0
M  V30 615 H 58.0598 -4.46537 -1.15769 0
M  V30 616 H 56.3028 -4.21605 -1.02135 0
M  V30 617 H 56.9738 -4.92477 -2.49341 0
M  V30 618 H 59.4498 -3.03127 -2.8505 0
M  V30 619 H 58.3258 -3.68135 -4.07146 0
M  V30 620 H 58.5868 -1.94732 -3.96903 0
M  V30 621 N 57.6459 0.756429 -1.3826 0
M  V30 622 C 58.8919 1.51772 -1.34511 0
M  V30 623 C 59.2249 1.94089 0.0656691 0
M  V30 624 O 58.4999 1.65221 1.02626 0
M  V30 625 C 58.7829 2.77226 -2.29821 0
M  V30 626 C 58.6359 2.41065 -3.79747 0
M  V30 627 C 59.9549 3.79236 -2.23312 0
M  V30 628 H 57.0739 0.550578 -0.489931 0
M  V30 629 H 59.7159 0.866607 -1.69086 0
M  V30 630 H 57.8659 3.32784 -2.00467 0
M  V30 631 H 59.5379 1.91303 -4.19763 0
M  V30 632 H 57.7809 1.7356 -3.97567 0
M  V30 633 H 58.4519 3.3081 -4.41892 0
M  V30 634 H 60.9279 3.3321 -2.49219 0
M  V30 635 H 59.8039 4.64714 -2.92116 0
M  V30 636 H 60.0649 4.24615 -1.23102 0
M  V30 637 N 59.124 1.23083 0.984299 0
M  V30 638 C 60.371 1.06057 1.72505 0
M  V30 639 C 60.699 -0.403105 1.90277 0
M  V30 640 O 59.954 -1.3149 1.44944 0
M  V30 641 C 60.253 1.72673 3.1292 0
M  V30 642 C 59.919 3.22586 3.15038 0
M  V30 643 C 58.581 3.63489 3.15324 0
M  V30 644 C 60.933 4.185 3.10657 0
M  V30 645 C 58.261 4.98772 3.08939 0
M  V30 646 C 60.613 5.53769 3.05814 0
M  V30 647 C 59.277 5.94041 3.04419 0
M  V30 648 H 58.547 0.388091 0.631242 0
M  V30 649 H 61.194 1.52963 1.15215 0
M  V30 650 H 59.499 1.18116 3.73572 0
M  V30 651 H 61.196 1.56982 3.68996 0
M  V30 652 H 57.786 2.90022 3.15571 0
M  V30 653 H 61.97 3.87911 3.09579 0
M  V30 654 H 57.226 5.29193 3.0621 0
M  V30 655 H 61.4 6.27808 3.0138 0
M  V30 656 H 59.027 6.98833 2.99227 0
M  V30 657 N 60.6021 -1.18246 1.0419 0
M  V30 658 C 61.5321 -2.24127 0.654914 0
M  V30 659 C 62.5131 -1.66617 -0.342451 0
M  V30 660 O 63.6981 -1.92924 -0.222277 0
M  V30 661 C 60.8281 -3.47295 0.0183757 0
M  V30 662 C 59.7821 -4.17563 0.939414 0
M  V30 663 C 59.1081 -5.34438 0.167286 0
M  V30 664 C 60.4081 -4.70917 2.25908 0
M  V30 665 H 62.1021 -2.56753 1.54007 0
M  V30 666 H 59.6481 -1.23414 0.74195 0
M  V30 667 H 61.6011 -4.20572 -0.264082 0
M  V30 668 H 60.3251 -3.13907 -0.901664 0
M  V30 669 H 58.9841 -3.46186 1.20628 0
M  V30 670 H 58.6321 -4.97298 -0.7552 0
M  V30 671 H 58.3321 -5.82388 0.780901 0
M  V30 672 H 59.8561 -6.10504 -0.108125 0
M  V30 673 H 61.2701 -5.35882 2.03724 0
M  V30 674 H 59.6671 -5.29406 2.82577 0
M  V30 675 H 60.7371 -3.88272 2.9047 0
M  V30 676 N 62.0802 -0.821533 -1.34494 0
M  V30 677 C 63.0432 -0.247847 -2.27856 0
M  V30 678 C 64.0432 0.573453 -1.50227 0
M  V30 679 O 65.2332 0.389759 -1.69784 0
M  V30 680 C 62.3652 0.652698 -3.34593 0
M  V30 681 H 63.5582 -1.07146 -2.80107 0
M  V30 682 H 61.1112 -0.593291 -1.44602 0
M  V30 683 H 61.8462 1.49943 -2.87555 0
M  V30 684 H 61.6312 0.065292 -3.92046 0
M  V30 685 H 63.1212 1.04793 -4.04238 0
M  V30 686 N 63.5583 1.46682 -0.576371 0
M  V30 687 C 64.8063 2.02013 -0.0594163 0
M  V30 688 C 65.1273 1.45101 1.30271 0
M  V30 689 O 64.3973 0.633317 1.8538 0
M  V30 690 H 62.9773 0.746759 -0.0189745 0
M  V30 691 H 65.6393 1.79862 -0.750717 0
M  V30 692 H 64.7353 3.12097 0.014345 0
M  V30 693 N 65.0364 0.313813 1.54444 0
M  V30 694 C 66.2644 -0.293918 2.04802 0
M  V30 695 C 66.6794 -1.46537 1.19047 0
M  V30 696 O 66.0364 -1.81182 0.218939 0
M  V30 697 C 66.0874 -0.737806 3.53891 0
M  V30 698 O 65.8084 0.387038 4.36387 0
M  V30 699 C 67.3094 -1.40936 4.203 0
M  V30 700 H 64.5294 -0.0620057 0.668129 0
M  V30 701 H 67.0734 0.457169 1.99324 0
M  V30 702 H 65.2284 -1.43889 3.59687 0
M  V30 703 H 65.6424 0.0391274 5.24485 0
M  V30 704 H 67.1164 -1.67099 5.26101 0
M  V30 705 H 67.5934 -2.35355 3.70816 0
M  V30 706 H 68.1994 -0.751117 4.18615 0
M  V30 707 N 66.5145 -1.57545 0.0417849 0
M  V30 708 C 67.9255 -1.80011 -0.495259 0
M  V30 709 C 68.2765 -0.953199 -1.71489 0
M  V30 710 O 67.4015 -0.167138 -2.15754 0
M  V30 711 C 67.9965 -3.26482 -0.905265 0
M  V30 712 C 66.5555 -3.499 -1.38734 0
M  V30 713 C 65.7025 -2.74979 -0.358056 0
M  V30 714 H 68.6535 -1.56425 0.267736 0
M  V30 715 H 68.6745 -3.36887 -1.76882 0
M  V30 716 H 68.1865 -3.88096 -0.017401 0
M  V30 717 H 66.2875 -2.93553 -2.29471 0
M  V30 718 H 66.4005 -4.58615 -1.38598 0
M  V30 719 H 64.7645 -2.40834 -0.828912 0
M  V30 720 H 65.5475 -3.39315 0.521561 0
M  V30 721 N 67.9926 0.231505 -1.5589 0
M  V30 722 C 68.9026 1.308 -1.94752 0
M  V30 723 C 69.9186 1.51826 -0.849989 0
M  V30 724 O 71.0946 1.6515 -1.15271 0
M  V30 725 C 68.1596 2.63968 -2.24771 0
M  V30 726 C 67.2206 2.51331 -3.48039 0
M  V30 727 C 66.4536 3.78148 -3.76616 0
M  V30 728 O 66.6766 4.80722 -3.07022 0
M  V30 729 O 65.6106 3.75857 -4.70123 0
M  V30 730 H 69.4366 1.0083 -2.86474 0
M  V30 731 H 67.0216 0.433547 -1.42971 0
M  V30 732 H 68.9036 3.42633 -2.45318 0
M  V30 733 H 67.5786 2.9364 -1.36225 0
M  V30 734 H 66.4856 1.709 -3.32782 0
M  V30 735 H 67.8186 2.26601 -4.36936 0
M  V30 736 N 69.4707 1.49531 0.497807 0
M  V30 737 C 70.4207 1.62829 1.59596 0
M  V30 738 C 71.4047 0.483824 1.53453 0
M  V30 739 O 72.5967 0.736937 1.60929 0
M  V30 740 C 69.7257 1.7011 2.98191 0
M  V30 741 C 68.8117 2.90144 3.09317 0
M  V30 742 N 69.2027 4.1418 2.90324 0
M  V30 743 C 67.5007 2.88148 3.40422 0
M  V30 744 C 68.2017 4.94886 3.05717 0
M  V30 745 N 67.1777 4.28314 3.34736 0
M  V30 746 H 70.9797 2.56446 1.4357 0
M  V30 747 H 68.4937 1.46347 0.704001 0
M  V30 748 H 70.4907 1.77735 3.77115 0
M  V30 749 H 69.1507 0.776315 3.15283 0
M  V30 750 H 70.1617 4.44109 2.66436 0
M  V30 751 H 66.8387 2.05061 3.63671 0
M  V30 752 H 68.2287 6.03432 2.95499 0
M  V30 753 N 70.9488 -0.749086 1.3866 0
M  V30 754 C 72.3648 -1.05276 1.19955 0
M  V30 755 C 72.5648 -2.01435 0.05134 0
M  V30 756 O 71.6208 -2.45232 -0.60147 0
M  V30 757 C 72.9338 -1.62853 2.52783 0
M  V30 758 C 74.4818 -1.75002 2.59506 0
M  V30 759 C 74.9568 -2.35991 3.92521 0
M  V30 760 N 76.4478 -2.43416 3.94085 0
M  V30 761 C 77.1828 -2.91511 4.9377 0
M  V30 762 N 76.6788 -3.39608 6.03853 0
M  V30 763 N 78.4718 -2.90592 4.81157 0
M  V30 764 H 70.6228 -0.111066 2.12109 0
M  V30 765 H 72.8858 -0.111901 0.941373 0
M  V30 766 H 72.5918 -0.99664 3.37283 0
M  V30 767 H 72.4658 -2.61854 2.715 0
M  V30 768 H 74.8528 -2.37317 1.75398 0
M  V30 769 H 74.9338 -0.74693 2.44652 0
M  V30 770 H 74.5778 -1.74308 4.77053 0
M  V30 771 H 74.5078 -3.3695 4.04688 0
M  V30 772 H 76.9988 -2.09405 3.14576 0
M  V30 773 H 77.3118 -3.74775 6.75843 0
M  V30 774 H 75.6568 -3.37653 6.07466 0
M  V30 775 H 78.8478 -2.52332 3.94267 0
M  V30 776 H 79.0208 -3.27762 5.58996 0
M  V30 777 N 72.4269 -1.23603 -0.977757 0
M  V30 778 C 73.6669 -1.08148 -1.73446 0
M  V30 779 C 74.0309 0.374785 -1.88307 0
M  V30 780 O 75.2319 0.650588 -2.60808 0
M  V30 781 C 73.5029 -1.78991 -3.0935 0
M  V30 782 S 75.0619 -1.79141 -4.00567 0
M  V30 783 H 71.8799 -0.386987 -0.596458 0
M  V30 784 H 74.4819 -1.5678 -1.16792 0
M  V30 785 H 73.1859 -2.8408 -2.96187 0
M  V30 786 H 72.7169 -1.30651 -3.71071 0
M  V30 787 H 74.7319 -0.851892 -4.88833 0
M  V30 788 N 73.905 1.17692 -1.04816 0
M  V30 789 C 75.321 1.39863 -0.768794 0
M  V30 790 C 75.521 1.91118 0.638451 0
M  V30 791 O 74.577 2.10036 1.40146 0
M  V30 792 C 75.89 2.39274 -1.82122 0
M  V30 793 C 77.438 2.52987 -1.843 0
M  V30 794 C 77.913 3.55669 -2.88555 0
M  V30 795 N 79.404 3.63183 -2.87493 0
M  V30 796 C 80.139 4.42381 -3.64811 0
M  V30 797 N 79.635 5.25125 -4.51903 0
M  V30 798 N 81.428 4.37217 -3.53267 0
M  V30 799 H 73.579 0.82752 -1.95617 0
M  V30 800 H 75.842 0.426123 -0.846831 0
M  V30 801 H 75.548 2.08678 -2.83102 0
M  V30 802 H 75.422 3.38725 -1.65967 0
M  V30 803 H 77.809 2.82896 -0.839869 0
M  V30 804 H 77.89 1.53623 -2.04532 0
M  V30 805 H 77.534 3.26499 -3.89051 0
M  V30 806 H 77.464 4.54728 -2.65575 0
M  V30 807 H 79.955 3.04103 -2.24343 0
M  V30 808 H 80.268 5.82728 -5.07591 0
M  V30 809 H 78.613 5.24519 -4.55966 0
M  V30 810 H 81.804 3.71626 -2.84625 0
M  V30 811 H 81.977 4.98696 -4.13771 0
M  V30 812 N 75.3831 0.828654 1.34056 0
M  V30 813 C 76.6291 0.42008 1.98402 0
M  V30 814 C 76.9621 -1.01564 1.65525 0
M  V30 815 O 76.2371 -1.70834 0.929831 0
M  V30 816 C 76.5201 0.62927 3.54559 0
M  V30 817 C 76.3731 2.11152 3.97159 0
M  V30 818 C 77.6921 0.0688756 4.40046 0
M  V30 819 H 74.8111 0.154104 0.720709 0
M  V30 820 H 77.4531 1.04228 1.5886 0
M  V30 821 H 75.6031 0.0996418 3.88372 0
M  V30 822 H 77.2751 2.70522 3.73651 0
M  V30 823 H 75.5181 2.59985 3.47261 0
M  V30 824 H 76.1891 2.20868 5.05887 0
M  V30 825 H 78.6651 0.521458 4.1282 0
M  V30 826 H 77.5411 0.245006 5.48353 0
M  V30 827 H 77.8021 -1.0266 4.30015 0
M  V30 828 N 76.8612 -1.46375 0.584142 0
M  V30 829 C 78.2722 -1.86031 0.157959 0
M  V30 830 C 78.6232 -1.48753 -1.27933 0
M  V30 831 O 77.7482 -0.903098 -1.96655 0
M  V30 832 C 78.3432 -3.37642 0.279892 0
M  V30 833 C 76.9022 -3.76289 -0.09143 0
M  V30 834 C 76.0492 -2.7039 0.615178 0
M  V30 835 H 79.0002 -1.37509 0.792274 0
M  V30 836 H 79.0212 -3.77275 -0.494364 0
M  V30 837 H 78.5332 -3.64742 1.32607 0
M  V30 838 H 76.6342 -3.54806 -1.13769 0
M  V30 839 H 76.7472 -4.78246 0.285886 0
M  V30 840 H 75.1112 -2.5464 0.0552833 0
M  V30 841 H 75.8942 -3.0033 1.66303 0
M  V30 842 N 78.3393 -0.321999 -1.54275 0
M  V30 843 C 79.6163 0.335232 -1.92706 0
M  V30 844 C 79.9963 1.70006 -1.25145 0
M  V30 845 O 79.3443 2.25067 -0.394596 0
M  V30 846 C 79.5543 0.429008 -3.46353 0
M  V30 847 C 80.9023 0.690029 -4.18956 0
M  V30 848 O 81.9263 0.511992 -3.52501 0
M  V30 849 O 80.7853 1.03338 -5.36641 0
M  V30 850 H 77.8793 0.191143 -0.804608 0
M  V30 851 H 80.4253 -0.3716 -1.65581 0
M  V30 852 H 79.1973 -0.529611 -3.87699 0
M  V30 853 H 78.8203 1.18348 -3.79578 0
M  V30 854 N 79.8174 1.5752 -0.0501392 0
M  V30 855 C 80.7804 2.1037 0.909786 0
M  V30 856 C 81.7804 1.02308 1.24056 0
M  V30 857 O 82.9704 1.28385 1.17741 0
M  V30 858 C 80.1024 2.58708 2.21998 0
M  V30 859 H 81.2954 2.96479 0.451665 0
M  V30 860 H 78.8484 1.55038 0.198248 0
M  V30 861 H 79.5834 1.75989 2.72394 0
M  V30 862 H 79.3684 3.37675 1.99295 0
M  V30 863 H 80.8584 2.99747 2.9076 0
M  V30 864 N 81.2955 -0.223234 1.56011 0
M  V30 865 C 82.2585 -1.26014 1.9145 0
M  V30 866 C 83.2585 -1.3989 0.792937 0
M  V30 867 O 84.4485 -1.38184 1.0607 0
M  V30 868 C 81.5805 -2.63422 2.16383 0
M  V30 869 H 82.7735 -0.95796 2.84189 0
M  V30 870 H 80.3265 -0.463576 1.49267 0
M  V30 871 H 81.0615 -2.98741 1.2619 0
M  V30 872 H 80.8465 -2.54728 2.98088 0
M  V30 873 H 82.3365 -3.38249 2.44903 0
M  V30 874 N 82.7736 -1.49793 -0.48987 0
M  V30 875 C 83.7216 -1.67783 -1.61095 0
M  V30 876 C 84.7156 -0.543683 -1.60438 0
M  V30 877 O 85.9216 -0.723647 -1.64813 0
M  V30 878 H 82.2966 -0.529255 -0.534222 0
M  V30 879 H 84.2676 -2.61861 -1.43078 0
M  V30 880 C 83.0166 -1.77191 -2.99164 0
M  V30 881 H 82.3396 -2.63841 -3.0038 0
M  V30 882 H 83.7796 -1.93809 -3.77113 0
M  V30 883 C 82.2386 -0.519203 -3.32875 0
M  V30 884 O 82.7686 0.350124 -4.00171 0
M  V30 885 N 80.9746 -0.378816 -2.8812 0
M  V30 886 H 80.5216 -1.08725 -2.33531 0
M  V30 887 H 80.4796 0.458239 -3.11043 0
M  V30 888 N 84.2517 0.741722 -1.39055 0
M  V30 889 C 85.1817 1.869 -1.39966 0
M  V30 890 C 86.1627 1.6804 -0.26392 0
M  V30 891 O 87.3477 1.88458 -0.468755 0
M  V30 892 C 84.4777 3.24572 -1.23574 0
M  V30 893 C 83.4317 3.58056 -2.34477 0
M  V30 894 C 82.7577 4.94593 -2.0318 0
M  V30 895 C 84.0577 3.61716 -3.76774 0
M  V30 896 H 85.7517 1.86395 -2.34302 0
M  V30 897 H 83.2977 0.895361 -1.1278 0
M  V30 898 H 85.2507 4.031 -1.22834 0
M  V30 899 H 83.9747 3.25587 -0.257045 0
M  V30 900 H 82.6337 2.81854 -2.34423 0
M  V30 901 H 82.2817 4.92181 -1.03765 0
M  V30 902 H 81.9817 5.17964 -2.77465 0
M  V30 903 H 83.5057 5.75486 -2.04079 0
M  V30 904 H 84.9197 4.30335 -3.78794 0
M  V30 905 H 83.3167 3.96603 -4.50362 0
M  V30 906 H 84.3867 2.61672 -4.08235 0
M  V30 907 N 85.7298 1.2412 0.971189 0
M  V30 908 C 86.9548 1.10667 1.75407 0
M  V30 909 C 87.3798 -0.337048 1.85056 0
M  V30 910 O 86.7378 -1.24396 1.31892 0
M  V30 911 C 86.7858 1.74726 3.15441 0
M  V30 912 O 85.8898 1.01566 3.99697 0
M  V30 913 H 85.2308 0.387341 0.539317 0
M  V30 914 H 87.7608 1.64358 1.2185 0
M  V30 915 H 87.7708 1.80341 3.6598 0
M  V30 916 H 86.4458 2.79773 3.07734 0
M  V30 917 H 85.0228 1.03713 3.58187 0
M  V30 918 N 87.2079 -1.17134 1.05439 0
M  V30 919 C 88.4329 -1.91913 0.786396 0
M  V30 920 C 88.8579 -1.7643 -0.652234 0
M  V30 921 O 88.2159 -1.08372 -1.45345 0
M  V30 922 C 88.2639 -3.40921 1.17497 0
M  V30 923 O 87.3679 -4.11244 0.308589 0
M  V30 924 H 86.7089 -0.598215 0.288158 0
M  V30 925 H 89.2389 -1.48457 1.4079 0
M  V30 926 H 89.2489 -3.91668 1.14281 0
M  V30 927 H 87.9239 -3.5151 2.22292 0
M  V30 928 H 86.5009 -3.70731 0.40157 0
M  V30 929 N 88.686 -0.835752 -1.33615 0
M  V30 930 C 89.649 -0.272 -2.2758 0
M  V30 931 C 90.649 0.557487 -1.50827 0
M  V30 932 O 91.839 0.37173 -1.70188 0
M  V30 933 C 88.971 0.617173 -3.35267 0
M  V30 934 H 90.164 -1.10111 -2.78954 0
M  V30 935 H 87.717 -0.608594 -1.43965 0
M  V30 936 H 88.452 1.46884 -2.89129 0
M  V30 937 H 88.237 0.0237066 -3.92093 0
M  V30 938 H 89.727 1.005 -4.05326 0
M  V30 939 N 90.1641 1.46063 -0.591896 0
M  V30 940 C 91.4101 2.03203 -0.0894879 0
M  V30 941 C 91.7651 1.45407 1.25994 0
M  V30 942 O 91.0581 0.61326 1.8152 0
M  V30 943 C 91.2521 3.57391 0.0249813 0
M  V30 944 C 91.0811 4.30142 -1.3118 0
M  V30 945 C 89.8511 4.68688 -1.88838 0
M  V30 946 C 92.0491 4.63098 -2.23708 0
M  V30 947 N 90.0311 5.26228 -3.1616 0
M  V30 948 C 91.4021 5.21305 -3.3562 0
M  V30 949 C 93.4571 4.45031 -2.23274 0
M  V30 950 C 92.1601 5.63351 -4.47245 0
M  V30 951 C 94.1861 4.881 -3.33935 0
M  V30 952 C 93.5481 5.46386 -4.44569 0
M  V30 953 H 89.6471 0.778323 -0.0757431 0
M  V30 954 H 92.2311 1.78094 -0.78681 0
M  V30 955 H 90.4021 3.82195 0.69149 0
M  V30 956 H 92.1341 4.0118 0.532613 0
M  V30 957 H 88.8891 4.5174 -1.42223 0
M  V30 958 H 89.3131 5.59512 -3.8115 0
M  V30 959 H 93.9551 3.99295 -1.39008 0
M  V30 960 H 91.6731 6.08061 -5.32247 0
M  V30 961 H 95.2591 4.75866 -3.34728 0
M  V30 962 H 94.1391 5.79102 -5.28782 0
M  V30 963 N 91.6422 0.330177 1.54103 0
M  V30 964 C 93.0582 -0.0222371 1.59585 0
M  V30 965 C 93.2582 -1.49902 1.34654 0
M  V30 966 O 92.3142 -2.25592 1.13421 0
M  V30 967 C 93.6272 0.401932 2.98002 0
M  V30 968 C 95.1752 0.353145 3.11001 0
M  V30 969 C 95.6502 0.752576 4.51775 0
M  V30 970 N 97.1412 0.706239 4.57784 0
M  V30 971 C 97.8762 0.987417 5.64834 0
M  V30 972 N 97.3722 1.33607 6.79795 0
M  V30 973 N 99.1652 0.91254 5.54643 0
M  V30 974 H 91.3162 1.29228 1.68564 0
M  V30 975 H 93.5792 0.525906 0.78875 0
M  V30 976 H 93.2852 1.4311 3.21267 0
M  V30 977 H 93.1592 -0.229699 3.765 0
M  V30 978 H 95.5462 -0.666822 2.87467 0
M  V30 979 H 95.6272 1.0198 2.34593 0
M  V30 980 H 95.2712 1.77049 4.76042 0
M  V30 981 H 95.2012 0.0635409 5.26562 0
M  V30 982 H 97.6922 0.44889 3.75224 0
M  V30 983 H 98.0052 1.53582 7.57385 0
M  V30 984 H 96.3502 1.37439 6.81275 0
M  V30 985 H 99.5412 0.639601 4.6371 0
M  V30 986 H 99.7142 1.13503 6.37982 0
M  V30 987 N 93.1203 -1.57491 0.0584922 0
M  V30 988 C 94.0683 -2.13148 -0.931168 0
M  V30 989 C 95.0623 -1.06507 -1.31729 0
M  V30 990 O 96.2683 -1.24906 -1.29609 0
M  V30 991 H 92.6433 -0.68137 -0.31818 0
M  V30 992 H 94.6143 -2.95187 -0.436707 0
M  V30 993 C 93.3633 -2.69732 -2.19408 0
M  V30 994 H 92.6863 -3.51454 -1.90578 0
M  V30 995 H 94.1263 -3.12287 -2.86798 0
M  V30 996 C 92.5853 -1.63855 -2.94369 0
M  V30 997 O 93.1153 -1.05565 -3.87581 0
M  V30 998 N 91.3213 -1.35202 -2.57233 0
M  V30 999 H 90.8683 -1.82791 -1.81508 0
M  V30 1000 H 90.8263 -0.645922 -3.07693 0
M  V30 1001 N 94.5984 0.214957 -1.56127 0
M  V30 1002 C 95.5464 1.28601 -1.93816 0
M  V30 1003 C 96.5404 1.48175 -0.821016 0
M  V30 1004 O 97.7464 1.49271 -1.0059 0
M  V30 1005 H 94.1214 0.431302 -0.616022 0
M  V30 1006 H 96.0924 0.940991 -2.83175 0
M  V30 1007 C 94.8414 2.62779 -2.27689 0
M  V30 1008 H 94.1644 2.48527 -3.13168 0
M  V30 1009 H 95.6044 3.36517 -2.57939 0
M  V30 1010 C 94.0634 3.18285 -1.10436 0
M  V30 1011 O 94.5934 4.00002 -0.368945 0
M  V30 1012 N 92.7994 2.7675 -0.886433 0
M  V30 1013 H 92.3464 2.10404 -1.48619 0
M  V30 1014 H 92.3044 3.14229 -0.103656 0
M  V30 1015 N 96.0765 1.50051 0.48192 0
M  V30 1016 C 97.3015 1.64508 1.26301 0
M  V30 1017 C 97.7265 0.323851 1.85291 0
M  V30 1018 O 97.0845 -0.710969 1.66778 0
M  V30 1019 C 97.1325 2.7305 2.35533 0
M  V30 1020 O 96.2365 2.3355 3.39895 0
M  V30 1021 H 95.5775 0.549978 0.372048 0
M  V30 1022 H 98.1075 1.9636 0.574786 0
M  V30 1023 H 98.1175 2.95799 2.8101 0
M  V30 1024 H 96.7925 3.68946 1.91967 0
M  V30 1025 H 95.3695 2.21205 3.00204 0
M  V30 1026 N 97.5546 -0.734337 1.39446 0
M  V30 1027 C 98.8006 -1.49613 1.36908 0
M  V30 1028 C 99.1336 -1.94169 -0.0347829 0
M  V30 1029 O 98.4086 -1.66833 -0.999847 0
M  V30 1030 C 98.6916 -2.73534 2.34203 0
M  V30 1031 C 98.5446 -2.34993 3.83534 0
M  V30 1032 C 99.8636 -3.75635 2.29317 0
M  V30 1033 H 96.9826 -0.542714 0.498629 0
M  V30 1034 H 99.6246 -0.839597 1.70443 0
M  V30 1035 H 97.7746 -3.29553 2.05736 0
M  V30 1036 H 99.4466 -1.84601 4.22753 0
M  V30 1037 H 97.6896 -1.67213 4.00278 0
M  V30 1038 H 98.3606 -3.23738 4.47099 0
M  V30 1039 H 100.837 -3.29203 2.54489 0
M  V30 1040 H 99.7126 -4.60008 2.99472 0
M  V30 1041 H 99.9736 -4.22603 1.29842 0
M  V30 1042 N 99.0327 -1.24633 -0.964593 0
M  V30 1043 C 100.444 -1.08045 -1.5226 0
M  V30 1044 C 100.795 0.347116 -1.93105 0
M  V30 1045 O 99.9197 1.23588 -1.77637 0
M  V30 1046 C 100.515 -1.95514 -2.76695 0
M  V30 1047 C 99.0737 -1.8314 -3.28841 0
M  V30 1048 C 98.2207 -1.90262 -2.01732 0
M  V30 1049 H 101.172 -1.38064 -0.782553 0
M  V30 1050 H 101.193 -1.48925 -3.50145 0
M  V30 1051 H 100.705 -2.99407 -2.46936 0
M  V30 1052 H 98.8057 -0.82092 -3.63444 0
M  V30 1053 H 98.9187 -2.67406 -3.97531 0
M  V30 1054 H 97.2827 -1.34027 -2.16584 0
M  V30 1055 H 98.0657 -2.9574 -1.74334 0
M  V30 1056 N 100.511 1.16574 -1.06058 0
M  V30 1057 C 101.441 2.23057 -0.690488 0
M  V30 1058 C 102.422 1.67141 0.315901 0
M  V30 1059 O 103.607 1.93253 0.191556 0
M  V30 1060 C 100.737 3.47222 -0.073625 0
M  V30 1061 C 99.6908 4.16016 -1.00573 0
M  V30 1062 C 99.0168 5.34104 -0.252289 0
M  V30 1063 C 100.317 4.67264 -2.33371 0
M  V30 1064 H 102.011 2.54271 -1.58072 0
M  V30 1065 H 99.5568 1.22218 -0.76149 0
M  V30 1066 H 101.51 4.20939 0.19714 0
M  V30 1067 H 100.234 3.15302 0.85161 0
M  V30 1068 H 98.8928 3.44223 -1.2612 0
M  V30 1069 H 98.5408 4.98437 0.675988 0
M  V30 1070 H 98.2408 5.81072 -0.873455 0
M  V30 1071 H 99.7648 6.10599 0.0109857 0
M  V30 1072 H 101.179 5.32573 -2.12223 0
M  V30 1073 H 99.5758 5.24843 -2.90963 0
M  V30 1074 H 100.646 3.83602 -2.96611 0
M  V30 1075 N 101.989 0.842826 1.3317 0
M  V30 1076 C 103.405 0.531128 1.50503 0
M  V30 1077 C 103.605 -0.940734 1.78192 0
M  V30 1078 O 102.661 -1.72436 1.84451 0
M  V30 1079 C 103.974 1.40789 2.65705 0
M  V30 1080 C 105.522 1.40708 2.79589 0
M  V30 1081 C 105.997 2.26878 3.97857 0
M  V30 1082 N 107.488 2.24609 4.05099 0
M  V30 1083 C 108.223 2.88019 4.95815 0
M  V30 1084 N 107.719 3.60496 5.9162 0
M  V30 1085 N 109.512 2.77469 4.88843 0
M  V30 1086 H 101.663 1.79557 1.1346 0
M  V30 1087 H 103.926 0.766267 0.558156 0
M  V30 1088 H 103.632 2.454 2.51936 0
M  V30 1089 H 103.506 1.08677 3.61205 0
M  V30 1090 H 105.893 0.368668 2.92788 0
M  V30 1091 H 105.974 1.76829 1.84838 0
M  V30 1092 H 105.618 3.3078 3.85418 0
M  V30 1093 H 105.548 1.88096 4.91861 0
M  V30 1094 H 108.039 1.71906 3.36536 0
M  V30 1095 H 108.352 4.06076 6.57512 0
M  V30 1096 H 106.697 3.64604 5.91683 0
M  V30 1097 H 109.888 2.20406 4.12963 0
M  V30 1098 H 110.061 3.2717 5.59342 0
M  V30 1099 N 103.467 -1.45747 0.599634 0
M  V30 1100 C 104.397 -2.33235 -0.111306 0
M  V30 1101 C 105.378 -1.46359 -0.866781 0
M  V30 1102 O 106.563 -1.75146 -0.838904 0
M  V30 1103 C 103.693 -3.28932 -1.11451 0
M  V30 1104 C 102.647 -4.25381 -0.472772 0
M  V30 1105 C 101.973 -5.1071 -1.58365 0
M  V30 1106 C 103.273 -5.18831 0.600948 0
M  V30 1107 H 104.967 -2.92927 0.61919 0
M  V30 1108 H 102.513 -1.40857 0.299215 0
M  V30 1109 H 104.466 -3.89002 -1.62036 0
M  V30 1110 H 103.19 -2.67381 -1.8755 0
M  V30 1111 H 101.849 -3.66598 0.0121472 0
M  V30 1112 H 101.497 -4.45533 -2.33473 0
M  V30 1113 H 101.197 -5.7604 -1.15982 0
M  V30 1114 H 102.721 -5.73647 -2.09194 0
M  V30 1115 H 104.135 -5.73019 0.179491 0
M  V30 1116 H 102.532 -5.92595 0.946076 0
M  V30 1117 H 103.602 -4.6174 1.48068 0
M  V30 1118 N 104.945 -0.338344 -1.53925 0
M  V30 1119 C 106.361 0.0137736 -1.59594 0
M  V30 1120 C 106.561 1.49186 -1.35447 0
M  V30 1121 O 105.617 2.24987 -1.14616 0
M  V30 1122 C 106.93 -0.41773 -2.97784 0
M  V30 1123 C 108.478 -0.369633 -3.1081 0
M  V30 1124 C 108.953 -0.776524 -4.51369 0
M  V30 1125 N 110.444 -0.730506 -4.57403 0
M  V30 1126 C 111.179 -1.01736 -5.64303 0
M  V30 1127 N 110.675 -1.3721 -6.79077 0
M  V30 1128 N 112.468 -0.941942 -5.54151 0
M  V30 1129 H 104.619 -1.3012 -1.67876 0
M  V30 1130 H 106.882 -0.530082 -0.78595 0
M  V30 1131 H 106.588 -1.44811 -3.20504 0
M  V30 1132 H 106.462 0.209729 -3.76616 0
M  V30 1133 H 108.849 0.651568 -2.87817 0
M  V30 1134 H 108.93 -1.03223 -2.34049 0
M  V30 1135 H 108.574 -1.79571 -4.75096 0
M  V30 1136 H 108.504 -0.0914649 -5.26521 0
M  V30 1137 H 110.995 -0.468783 -3.74981 0
M  V30 1138 H 111.308 -1.57597 -7.5656 0
M  V30 1139 H 109.653 -1.4105 -6.80536 0
M  V30 1140 H 112.844 -0.664184 -4.63364 0
M  V30 1141 H 113.017 -1.16884 -6.37371 0
M  V30 1142 N 106.423 1.57458 -0.0668435 0
M  V30 1143 C 107.7 1.8469 0.644132 0
M  V30 1144 C 108.08 0.958343 1.88093 0
M  V30 1145 O 107.428 0.0233579 2.28488 0
M  V30 1146 C 107.638 3.34767 0.986509 0
M  V30 1147 C 108.986 4.02159 1.36212 0
M  V30 1148 O 110.01 3.39484 1.07839 0
M  V30 1149 O 108.869 5.12694 1.89227 0
M  V30 1150 H 105.963 0.762816 0.319437 0
M  V30 1151 H 108.509 1.6942 -0.0973986 0
M  V30 1152 H 107.281 3.91151 0.107883 0
M  V30 1153 H 106.904 3.55281 1.78497 0
M  V30 1154 N 107.901 -0.206675 1.56239 0
M  V30 1155 C 109.149 -0.927007 1.79586 0
M  V30 1156 C 109.47 -1.8427 0.637929 0
M  V30 1157 O 108.74 -1.92849 -0.344398 0
M  V30 1158 H 107.32 -0.345292 0.662407 0
M  V30 1159 H 109.982 -0.21496 1.93711 0
M  V30 1160 H 109.078 -1.52501 2.72305 0
M  V30 1161 N 109.379 -1.50304 -0.473955 0
M  V30 1162 C 110.795 -1.37667 -0.807466 0
M  V30 1163 C 110.995 -0.430555 -1.96846 0
M  V30 1164 O 110.051 0.127874 -2.52176 0
M  V30 1165 C 111.364 -2.78974 -1.12223 0
M  V30 1166 C 112.912 -2.87868 -1.22885 0
M  V30 1167 C 113.387 -4.30003 -1.57676 0
M  V30 1168 N 114.878 -4.3294 -1.64673 0
M  V30 1169 C 115.613 -5.3991 -1.93091 0
M  V30 1170 N 115.109 -6.57092 -2.1955 0
M  V30 1171 N 116.902 -5.27351 -1.94569 0
M  V30 1172 H 109.053 -2.10394 0.291212 0
M  V30 1173 H 111.316 -0.945575 0.0677609 0
M  V30 1174 H 111.022 -3.50031 -0.342229 0
M  V30 1175 H 110.896 -3.16038 -2.05913 0
M  V30 1176 H 113.283 -2.17032 -1.99953 0
M  V30 1177 H 113.364 -2.54352 -0.271814 0
M  V30 1178 H 113.008 -5.01375 -0.81149 0
M  V30 1179 H 112.938 -4.61004 -2.54525 0
M  V30 1180 H 115.429 -3.48441 -1.46277 0
M  V30 1181 H 115.742 -7.34425 -2.405 0
M  V30 1182 H 114.087 -6.60272 -2.16948 0
M  V30 1183 H 117.278 -4.34801 -1.73394 0
M  V30 1184 H 117.451 -6.10805 -2.16381 0
M  V30 1185 N 110.857 0.726932 -1.39834 0
M  V30 1186 C 111.767 1.87131 -1.41489 0
M  V30 1187 C 112.783 1.71239 -0.308757 0
M  V30 1188 O 113.959 1.93701 -0.551529 0
M  V30 1189 C 111.024 3.22811 -1.26468 0
M  V30 1190 C 110.085 3.51039 -2.47124 0
M  V30 1191 C 109.318 4.80245 -2.3281 0
M  V30 1192 O 109.541 5.54537 -1.33585 0
M  V30 1193 O 108.475 5.08554 -3.21957 0
M  V30 1194 H 112.301 1.8869 -2.3797 0
M  V30 1195 H 109.886 0.875837 -1.21035 0
M  V30 1196 H 111.768 4.03877 -1.20255 0
M  V30 1197 H 110.443 3.22005 -0.330862 0
M  V30 1198 H 109.35 2.70027 -2.58914 0
M  V30 1199 H 110.683 3.56632 -3.39227 0
M  V30 1200 N 112.336 1.25143 0.95797 0
M  V30 1201 C 113.582 1.09855 1.70469 0
M  V30 1202 C 113.915 -0.360187 1.90831 0
M  V30 1203 O 113.19 -1.26568 1.47685 0
M  V30 1204 C 113.473 1.8497 3.08963 0
M  V30 1205 C 113.326 3.38652 2.96032 0
M  V30 1206 C 114.645 1.63016 4.08795 0
M  V30 1207 H 111.764 0.400465 0.618706 0
M  V30 1208 H 114.406 1.53933 1.11376 0
M  V30 1209 H 112.556 1.47505 3.59409 0
M  V30 1210 H 114.228 3.85772 2.52938 0
M  V30 1211 H 112.471 3.66534 2.32025 0
M  V30 1212 H 113.142 3.8642 3.94187 0
M  V30 1213 H 115.618 1.95625 3.67247 0
M  V30 1214 H 114.494 2.18015 5.03747 0
M  V30 1215 H 114.755 0.570692 4.38401 0
M  V30 1216 N 113.814 -1.1601 1.06675 0
M  V30 1217 C 115.225 -1.68235 0.809565 0
M  V30 1218 C 115.576 -1.8454 -0.666303 0
M  V30 1219 O 114.701 -1.54374 -1.5165 0
M  V30 1220 C 115.296 -3.05585 1.46299 0
M  V30 1221 C 113.855 -3.54915 1.25349 0
M  V30 1222 C 113.002 -2.30804 1.53703 0
M  V30 1223 H 115.953 -1.00318 1.22971 0
M  V30 1224 H 115.974 -3.70174 0.880431 0
M  V30 1225 H 115.486 -2.93686 2.53713 0
M  V30 1226 H 113.587 -3.72067 0.199261 0
M  V30 1227 H 113.7 -4.36774 1.9689 0
M  V30 1228 H 112.064 -2.36007 0.957739 0
M  V30 1229 H 112.847 -2.21499 2.62284 0
M  V30 1230 N 115.292 -0.849877 -1.32721 0
M  V30 1231 C 116.242 -0.262892 -2.26479 0
M  V30 1232 C 117.226 0.588493 -1.49752 0
M  V30 1233 O 118.418 0.438659 -1.71478 0
M  V30 1234 C 115.547 0.551818 -3.38836 0
M  V30 1235 C 114.633 -0.311689 -4.22953 0
M  V30 1236 N 115.024 -1.39567 -4.86163 0
M  V30 1237 C 113.322 -0.100611 -4.45887 0
M  V30 1238 C 114.023 -1.92651 -5.48872 0
M  V30 1239 N 112.999 -1.22637 -5.29586 0
M  V30 1240 H 116.801 -1.09166 -2.72873 0
M  V30 1241 H 114.315 -0.695486 -1.46754 0
M  V30 1242 H 116.312 0.988713 -4.05006 0
M  V30 1243 H 114.972 1.37844 -2.93988 0
M  V30 1244 H 115.983 -1.77859 -4.86402 0
M  V30 1245 H 112.66 0.691681 -4.11731 0
M  V30 1246 H 114.05 -2.83487 -6.09167 0
M  V30 1247 N 116.77 1.45427 -0.607355 0
M  V30 1248 C 117.995 2.07124 -0.107006 0
M  V30 1249 C 118.42 1.44906 1.19933 0
M  V30 1250 O 117.778 0.541687 1.73019 0
M  V30 1251 C 117.826 3.60595 0.0194119 0
M  V30 1252 O 116.93 3.98285 1.0697 0
M  V30 1253 H 116.271 0.659868 -0.0739597 0
M  V30 1254 H 118.801 1.86683 -0.837297 0
M  V30 1255 H 118.811 4.07419 0.2177 0
M  V30 1256 H 117.486 4.05266 -0.934453 0
M  V30 1257 H 116.063 3.63133 0.847889 0
M  V30 1258 N 118.248 0.346503 1.53744 0
M  V30 1259 C 119.488 -0.249413 2.02873 0
M  V30 1260 C 119.852 -1.47532 1.22876 0
M  V30 1261 O 121.053 -2.1456 1.61918 0
M  V30 1262 C 119.324 -0.552909 3.53097 0
M  V30 1263 S 120.883 -1.12521 4.24128 0
M  V30 1264 H 117.701 -0.074042 0.707134 0
M  V30 1265 H 120.303 0.48495 1.8939 0
M  V30 1266 H 119.007 0.347083 4.0893 0
M  V30 1267 H 118.538 -1.31686 3.70705 0
M  V30 1268 H 120.553 -2.41075 4.33702 0
M  V30 1269 N 119.726 -1.57421 0.075193 0
M  V30 1270 C 120.951 -1.98364 -0.605515 0
M  V30 1271 C 121.376 -0.953383 -1.62149 0
M  V30 1272 O 120.734 0.0806053 -1.81121 0
M  V30 1273 C 120.782 -3.38332 -1.24756 0
M  V30 1274 O 119.886 -3.37959 -2.36342 0
M  V30 1275 H 119.227 -0.645553 -0.155428 0
M  V30 1276 H 121.757 -2.04044 0.150714 0
M  V30 1277 H 121.767 -3.75591 -1.5936 0
M  V30 1278 H 120.442 -4.12846 -0.503129 0
M  V30 1279 H 119.019 -3.12474 -2.03506 0
M  V30 1280 N 121.204 0.198386 -1.56346 0
M  V30 1281 C 122.62 0.549085 -1.49857 0
M  V30 1282 C 122.82 1.86016 -0.774611 0
M  V30 1283 O 121.876 2.50416 -0.323776 0
M  V30 1284 C 123.189 0.606868 -2.94512 0
M  V30 1285 C 124.737 0.695925 -3.05165 0
M  V30 1286 C 125.212 0.784848 -4.51225 0
M  V30 1287 N 126.703 0.848463 -4.55363 0
M  V30 1288 C 127.438 0.937378 -5.65686 0
M  V30 1289 N 126.934 0.9888 -6.85707 0
M  V30 1290 N 128.727 0.974312 -5.53592 0
M  V30 1291 H 120.878 -0.661655 -2.01831 0
M  V30 1292 H 123.141 -0.235261 -0.918344 0
M  V30 1293 H 122.847 -0.28732 -3.50524 0
M  V30 1294 H 122.721 1.46268 -3.47686 0
M  V30 1295 H 125.108 1.58055 -2.49204 0
M  V30 1296 H 125.189 -0.186022 -2.55123 0
M  V30 1297 H 124.833 -0.0954072 -5.0781 0
M  V30 1298 H 124.763 1.68255 -4.98997 0
M  V30 1299 H 127.254 0.818103 -3.68938 0
M  V30 1300 H 127.567 1.05707 -7.65536 0
M  V30 1301 H 125.912 0.957534 -6.88372 0
M  V30 1302 H 129.103 0.930954 -4.58749 0
M  V30 1303 H 129.276 1.04015 -6.39597 0
M  V30 1304 N 122.682 1.50554 0.465978 0
M  V30 1305 C 123.912 1.65323 1.23903 0
M  V30 1306 C 124.32 0.338051 1.86155 0
M  V30 1307 O 123.663 -0.690518 1.70228 0
M  V30 1308 C 123.725 2.69048 2.3844 0
M  V30 1309 C 123.389 4.12462 1.96784 0
M  V30 1310 C 124.386 4.98168 1.48745 0
M  V30 1311 C 122.071 4.58407 2.05349 0
M  V30 1312 C 124.065 6.27868 1.0982 0
M  V30 1313 C 121.752 5.88112 1.66035 0
M  V30 1314 C 122.75 6.72668 1.18349 0
M  V30 1315 O 122.438 7.99951 0.795825 0
M  V30 1316 H 122.17 0.558629 0.38067 0
M  V30 1317 H 124.724 1.97561 0.562022 0
M  V30 1318 H 122.954 2.32062 3.09328 0
M  V30 1319 H 124.643 2.72985 3.0039 0
M  V30 1320 H 125.409 4.63885 1.41546 0
M  V30 1321 H 121.288 3.92735 2.41414 0
M  V30 1322 H 124.832 6.93819 0.725293 0
M  V30 1323 H 120.729 6.21914 1.72895 0
M  V30 1324 H 121.497 8.13265 0.924222 0
M  V30 1325 N 124.16 -0.719506 1.40217 0
M  V30 1326 C 125.576 -1.02707 1.22161 0
M  V30 1327 C 125.776 -2.0128 0.0940557 0
M  V30 1328 O 124.832 -2.46452 -0.549318 0
M  V30 1329 C 126.145 -1.57454 2.56181 0
M  V30 1330 C 127.693 -1.69458 2.63159 0
M  V30 1331 C 128.168 -2.27611 3.97438 0
M  V30 1332 N 129.659 -2.35002 3.99159 0
M  V30 1333 C 130.394 -2.80972 4.99842 0
M  V30 1334 N 129.89 -3.26723 6.10921 0
M  V30 1335 N 131.683 -2.80321 4.87213 0
M  V30 1336 H 123.834 -0.0660492 2.12297 0
M  V30 1337 H 126.097 -0.0919077 0.943534 0
M  V30 1338 H 125.803 -0.924873 3.39321 0
M  V30 1339 H 125.677 -2.56036 2.76993 0
M  V30 1340 H 128.064 -2.33543 1.80393 0
M  V30 1341 H 128.145 -0.694867 2.46181 0
M  V30 1342 H 127.789 -1.6415 4.80643 0
M  V30 1343 H 127.719 -3.2829 4.11744 0
M  V30 1344 H 130.21 -2.02685 3.18947 0
M  V30 1345 H 130.523 -3.60355 6.8364 0
M  V30 1346 H 128.868 -3.24692 6.14492 0
M  V30 1347 H 132.059 -2.43912 3.9953 0
M  V30 1348 H 132.232 -3.15831 5.65822 0
M  V30 1349 N 125.638 -1.25649 -0.95132 0
M  V30 1350 C 126.568 -1.08808 -2.06599 0
M  V30 1351 C 127.549 0.00382547 -1.701 0
M  V30 1352 O 128.734 -0.166325 -1.93486 0
M  V30 1353 C 125.864 -0.709542 -3.39975 0
M  V30 1354 C 124.818 -1.75206 -3.90496 0
M  V30 1355 C 124.144 -1.22811 -5.20405 0
M  V30 1356 C 125.444 -3.15153 -4.16504 0
M  V30 1357 H 127.138 -2.02048 -2.20946 0
M  V30 1358 H 124.684 -0.972835 -1.06169 0
M  V30 1359 H 126.637 -0.578649 -4.17408 0
M  V30 1360 H 125.361 0.258556 -3.25575 0
M  V30 1361 H 124.02 -1.87145 -3.15234 0
M  V30 1362 H 123.668 -0.250145 -5.02378 0
M  V30 1363 H 123.368 -1.92492 -5.55176 0
M  V30 1364 H 124.892 -1.10968 -6.00432 0
M  V30 1365 H 126.306 -3.06349 -4.84586 0
M  V30 1366 H 124.703 -3.82333 -4.62538 0
M  V30 1367 H 125.773 -3.61966 -3.22658 0
M  V30 1368 N 127.117 1.15442 -1.07289 0
M  V30 1369 C 128.08 2.18358 -0.696591 0
M  V30 1370 C 129.08 1.58637 0.262837 0
M  V30 1371 O 130.27 1.74145 0.0438809 0
M  V30 1372 C 127.402 3.4089 -0.0266151 0
M  V30 1373 H 128.595 2.53162 -1.60776 0
M  V30 1374 H 126.148 1.29893 -0.869342 0
M  V30 1375 H 126.883 3.11653 0.896822 0
M  V30 1376 H 126.668 3.85495 -0.716657 0
M  V30 1377 H 128.158 4.17009 0.222028 0
M  V30 1378 N 128.595 0.856903 1.32268 0
M  V30 1379 C 129.823 0.475439 2.01363 0
M  V30 1380 C 130.238 -0.928486 1.64392 0
M  V30 1381 O 129.595 -1.60624 0.866387 0
M  V30 1382 C 129.646 0.607545 3.56358 0
M  V30 1383 O 129.367 1.95617 3.92002 0
M  V30 1384 C 130.868 0.225382 4.42727 0
M  V30 1385 H 128.088 0.186636 0.644521 0
M  V30 1386 H 130.632 1.15446 1.68797 0
M  V30 1387 H 128.787 -0.0237719 3.87393 0
M  V30 1388 H 129.201 1.95455 4.86721 0
M  V30 1389 H 130.675 0.368813 5.50767 0
M  V30 1390 H 131.152 -0.834369 4.31202 0
M  V30 1391 H 131.758 0.831864 4.17085 0
M  V30 1392 N 130.073 -1.45103 0.615059 0
M  V30 1393 C 131.322 -2.01396 0.110718 0
M  V30 1394 C 131.635 -1.48834 -1.26916 0
M  V30 1395 O 132.841 -1.97152 -1.86664 0
M  V30 1396 C 131.297 -3.59599 0.14723 0
M  V30 1397 C 130.905 -4.21158 1.52743 0
M  V30 1398 C 132.649 -4.23428 -0.30148 0
M  V30 1399 C 130.556 -5.71535 1.51992 0
M  V30 1400 H 129.486 -0.753061 0.0376241 0
M  V30 1401 H 132.137 -1.66494 0.77149 0
M  V30 1402 H 130.519 -3.91724 -0.580339 0
M  V30 1403 H 131.693 -4.00594 2.2773 0
M  V30 1404 H 130.008 -3.69552 1.91886 0
M  V30 1405 H 132.605 -5.33703 -0.326392 0
M  V30 1406 H 132.948 -3.94629 -1.32565 0
M  V30 1407 H 133.481 -3.96047 0.373065 0
M  V30 1408 H 130.22 -6.05044 2.52193 0
M  V30 1409 H 129.74 -5.94268 0.81274 0
M  V30 1410 H 131.419 -6.34873 1.24681 0
M  V30 1411 N 131.551 -0.354651 -1.53558 0
M  V30 1412 C 132.514 0.484566 -2.24019 0
M  V30 1413 C 133.514 1.01861 -1.24422 0
M  V30 1414 O 134.704 0.906097 -1.4878 0
M  V30 1415 C 131.836 1.67615 -2.96847 0
M  V30 1416 H 133.029 -0.131843 -2.9961 0
M  V30 1417 H 130.582 -0.106165 -1.55939 0
M  V30 1418 H 131.317 2.33095 -2.25471 0
M  V30 1419 H 131.102 1.30029 -3.69912 0
M  V30 1420 H 132.592 2.27114 -3.50441 0
M  V30 1421 N 133.029 1.57378 -0.0835403 0
M  V30 1422 C 133.977 2.14602 0.89714 0
M  V30 1423 C 134.971 1.08589 1.30018 0
M  V30 1424 O 136.177 1.26952 1.27606 0
M  V30 1425 H 132.552 0.686346 0.3073 0
M  V30 1426 H 134.523 2.95845 0.38969 0
M  V30 1427 C 133.272 2.73188 2.15089 0
M  V30 1428 H 132.595 3.54442 1.84962 0
M  V30 1429 H 134.035 3.1681 2.81793 0
M  V30 1430 C 132.494 1.68517 2.91725 0
M  V30 1431 O 133.024 1.11718 3.85852 0
M  V30 1432 N 131.23 1.39277 2.55049 0
M  V30 1433 H 130.777 1.85655 1.78577 0
M  V30 1434 H 130.735 0.694791 3.06627 0
M  V30 1435 N 134.507 -0.190092 1.56449 0
M  V30 1436 C 135.754 -0.909705 1.80916 0
M  V30 1437 C 136.082 -1.83047 0.657583 0
M  V30 1438 O 135.337 -1.92428 -0.356356 0
M  V30 1439 C 135.636 -1.75382 3.1141 0
M  V30 1440 C 135.302 -0.983606 4.40041 0
M  V30 1441 C 133.964 -0.770967 4.74984 0
M  V30 1442 C 136.316 -0.442024 5.19322 0
M  V30 1443 C 133.644 -0.0053448 5.867 0
M  V30 1444 C 135.996 0.310412 6.31838 0
M  V30 1445 C 134.66 0.534023 6.6536 0
M  V30 1446 H 133.93 -0.332885 0.662019 0
M  V30 1447 H 136.577 -0.175762 1.90692 0
M  V30 1448 H 134.882 -2.55659 2.96893 0
M  V30 1449 H 136.579 -2.31331 3.27547 0
M  V30 1450 H 133.169 -1.15936 4.12622 0
M  V30 1451 H 137.353 -0.593693 4.92736 0
M  V30 1452 H 132.609 0.177825 6.11141 0
M  V30 1453 H 136.783 0.737419 6.92485 0
M  V30 1454 H 134.41 1.12918 7.51767 0
M  V30 1455 N 135.985 -1.50799 -0.457987 0
M  V30 1456 C 137.21 -1.66496 -1.23668 0
M  V30 1457 C 137.635 -0.353288 -1.84752 0
M  V30 1458 O 136.993 0.684346 -1.67888 0
M  V30 1459 C 137.041 -2.76763 -2.3116 0
M  V30 1460 O 136.145 -2.38928 -3.36136 0
M  V30 1461 H 135.486 -0.555828 -0.363252 0
M  V30 1462 H 138.016 -1.9725 -0.543474 0
M  V30 1463 H 138.026 -3.00232 -2.76269 0
M  V30 1464 H 136.701 -3.71954 -1.86073 0
M  V30 1465 H 135.278 -2.25953 -2.96647 0
M  V30 1466 N 137.463 0.71206 -1.40597 0
M  V30 1467 C 138.426 1.80785 -1.40888 0
M  V30 1468 C 139.426 1.57937 -0.302103 0
M  V30 1469 O 140.616 1.64913 -0.561182 0
M  V30 1470 C 137.748 3.18927 -1.20409 0
M  V30 1471 H 138.941 1.81924 -2.38419 0
M  V30 1472 H 136.494 0.91805 -1.26497 0
M  V30 1473 H 137.229 3.23436 -0.236522 0
M  V30 1474 H 137.014 3.36911 -2.00582 0
M  V30 1475 H 138.504 3.98949 -1.23408 0
M  V30 1476 N 138.941 1.26152 0.944643 0
M  V30 1477 C 139.871 1.09902 2.06019 0
M  V30 1478 C 140.852 0.00519538 1.70099 0
M  V30 1479 O 142.037 0.176583 1.93396 0
M  V30 1480 C 139.167 0.727562 3.39594 0
M  V30 1481 C 138.121 1.77274 3.89561 0
M  V30 1482 C 137.447 1.25569 5.19747 0
M  V30 1483 C 138.747 3.17357 4.14827 0
M  V30 1484 H 140.441 2.03217 2.19871 0
M  V30 1485 H 137.987 0.978452 1.05652 0
M  V30 1486 H 139.94 0.600777 4.17095 0
M  V30 1487 H 138.664 -0.241287 3.25707 0
M  V30 1488 H 137.323 1.88814 3.14237 0
M  V30 1489 H 136.971 0.276783 5.02238 0
M  V30 1490 H 136.671 1.95433 5.54148 0
M  V30 1491 H 138.195 1.1415 5.99835 0
M  V30 1492 H 139.609 3.08914 4.82954 0
M  V30 1493 H 138.006 3.84781 4.60504 0
M  V30 1494 H 139.076 3.63673 3.20734 0
M  V30 1495 N 140.419 -1.14872 1.07899 0
M  V30 1496 C 141.667 -1.85422 0.803941 0
M  V30 1497 C 141.988 -1.83051 -0.67211 0
M  V30 1498 O 141.258 -1.27532 -1.48703 0
M  V30 1499 H 139.838 -0.686537 0.294408 0
M  V30 1500 H 142.5 -1.39226 1.3639 0
M  V30 1501 H 141.596 -2.90399 1.14346 0
M  V30 1502 N 141.898 -0.863906 -1.31812 0
M  V30 1503 C 142.828 -0.330843 -2.31144 0
M  V30 1504 C 143.809 0.575005 -1.60087 0
M  V30 1505 O 144.994 0.493304 -1.8783 0
M  V30 1506 C 142.124 0.47374 -3.44054 0
M  V30 1507 C 141.078 -0.338481 -4.26659 0
M  V30 1508 C 140.404 0.591412 -5.31419 0
M  V30 1509 C 141.704 -1.56926 -4.98168 0
M  V30 1510 H 143.398 -1.16086 -2.75979 0
M  V30 1511 H 140.944 -0.559657 -1.32679 0
M  V30 1512 H 142.897 0.857143 -4.12591 0
M  V30 1513 H 141.621 1.33721 -2.9797 0
M  V30 1514 H 140.28 -0.703754 -3.59782 0
M  V30 1515 H 139.928 1.45199 -4.81587 0
M  V30 1516 H 139.628 0.0519022 -5.87577 0
M  V30 1517 H 141.152 0.97179 -6.02817 0
M  V30 1518 H 142.566 -1.25764 -5.59336 0
M  V30 1519 H 140.963 -2.04739 -5.64094 0
M  V30 1520 H 142.033 -2.32544 -4.25501 0
M  V30 1521 N 143.376 1.44774 -0.622745 0
M  V30 1522 C 144.286 2.34433 0.0886031 0
M  V30 1523 C 145.302 1.52131 0.844529 0
M  V30 1524 O 146.478 1.84886 0.798691 0
M  V30 1525 C 143.543 3.29986 1.0635 0
M  V30 1526 C 142.604 4.28195 0.307873 0
M  V30 1527 C 141.837 5.19183 1.23633 0
M  V30 1528 O 142.06 5.13918 2.47476 0
M  V30 1529 O 140.994 5.97515 0.725189 0
M  V30 1530 H 144.82 2.96693 -0.648599 0
M  V30 1531 H 142.405 1.44408 -0.382957 0
M  V30 1532 H 144.287 3.88825 1.6246 0
M  V30 1533 H 142.962 2.70269 1.78146 0
M  V30 1534 H 141.869 3.72927 -0.296064 0
M  V30 1535 H 143.202 4.90808 -0.3699 0
M  V30 1536 N 144.854 0.36279 1.53368 0
M  V30 1537 C 146.265 -0.117022 1.86333 0
M  V30 1538 C 146.616 -1.48397 1.28347 0
M  V30 1539 O 145.741 -2.07787 0.604428 0
M  V30 1540 C 146.336 -0.21912 3.38091 0
M  V30 1541 C 144.895 -0.643184 3.70864 0
M  V30 1542 C 144.042 0.211318 2.76494 0
M  V30 1543 H 146.993 0.581687 1.47655 0
M  V30 1544 H 147.014 -1.04319 3.6592 0
M  V30 1545 H 146.526 0.775902 3.80265 0
M  V30 1546 H 144.627 -1.64654 3.34245 0
M  V30 1547 H 144.74 -0.41973 4.77258 0
M  V30 1548 H 143.104 -0.319367 2.5269 0
M  V30 1549 H 143.887 1.20383 3.21501 0
M  V30 1550 N 146.332 -1.57332 0.0918853 0
M  V30 1551 C 147.58 -1.93853 -0.571446 0
M  V30 1552 C 147.901 -0.974212 -1.6892 0
M  V30 1553 O 147.171 -0.0257254 -1.95883 0
M  V30 1554 H 145.751 -0.715666 -0.214082 0
M  V30 1555 H 148.413 -1.94287 0.154464 0
M  V30 1556 H 147.509 -2.96191 -0.983729 0
M  V30 1557 N 147.81 0.181792 -1.56548 0
M  V30 1558 C 149.226 0.53316 -1.50431 0
M  V30 1559 C 149.426 1.85184 -0.794297 0
M  V30 1560 O 148.482 2.50058 -0.350318 0
M  V30 1561 C 149.795 0.575597 -2.9514 0
M  V30 1562 C 151.343 0.663519 -3.05886 0
M  V30 1563 C 151.818 0.736946 -4.52032 0
M  V30 1564 N 153.309 0.800118 -4.56237 0
M  V30 1565 C 154.044 0.877327 -5.66649 0
M  V30 1566 N 153.54 0.916016 -6.86718 0
M  V30 1567 N 155.333 0.915542 -5.54594 0
M  V30 1568 H 147.484 -0.683025 -2.01118 0
M  V30 1569 H 149.747 -0.244988 -0.915797 0
M  V30 1570 H 149.453 -0.324482 -3.502 0
M  V30 1571 H 149.327 1.42572 -3.49218 0
M  V30 1572 H 151.714 1.55403 -2.50867 0
M  V30 1573 H 151.795 -0.21307 -2.54911 0
M  V30 1574 H 151.439 -0.149262 -5.07681 0
M  V30 1575 H 151.369 1.62953 -5.00753 0
M  V30 1576 H 153.86 0.778926 -3.69785 0
M  V30 1577 H 154.173 0.975813 -7.66614 0
M  V30 1578 H 152.518 0.884469 -6.89349 0
M  V30 1579 H 155.709 0.882245 -4.59711 0
M  V30 1580 H 155.882 0.972253 -6.40665 0
M  V30 1581 N 149.288 1.51039 0.449983 0
M  V30 1582 C 150.565 1.53612 1.21089 0
M  V30 1583 C 150.945 0.292997 2.09057 0
M  V30 1584 O 150.293 -0.72259 2.16774 0
M  V30 1585 C 150.503 2.84337 2.0237 0
M  V30 1586 C 151.851 3.35807 2.59843 0
M  V30 1587 O 152.875 2.85802 2.12593 0
M  V30 1588 O 151.734 4.23029 3.45989 0
M  V30 1589 H 148.828 0.617057 0.550608 0
M  V30 1590 H 151.374 1.63344 0.460082 0
M  V30 1591 H 150.146 3.66278 1.37681 0
M  V30 1592 H 149.769 2.77708 2.84542 0
M  V30 1593 N 150.766 -0.704594 1.40972 0
M  V30 1594 C 152.012 -1.46675 1.40051 0
M  V30 1595 C 152.345 -1.94199 0.00641102 0
M  V30 1596 O 151.62 -1.68916 -0.964235 0
M  V30 1597 C 151.903 -2.68505 2.39952 0
M  V30 1598 C 151.756 -2.26805 3.88432 0
M  V30 1599 C 153.075 -3.70686 2.37233 0
M  V30 1600 H 150.194 -0.532015 0.510028 0
M  V30 1601 H 152.836 -0.803255 1.72185 0
M  V30 1602 H 150.986 -3.25114 2.1268 0
M  V30 1603 H 152.658 -1.75592 4.26574 0
M  V30 1604 H 150.901 -1.58685 4.03734 0
M  V30 1605 H 151.572 -3.14181 4.53866 0
M  V30 1606 H 154.048 -3.23731 2.61415 0
M  V30 1607 H 152.924 -4.53553 3.09162 0
M  V30 1608 H 153.185 -4.19754 1.38777 0
M  V30 1609 N 152.244 -1.26651 -0.937939 0
M  V30 1610 C 153.521 -1.0313 -1.66204 0
M  V30 1611 C 153.901 0.437256 -2.06522 0
M  V30 1612 O 153.249 1.41831 -1.79154 0
M  V30 1613 C 153.459 -1.98314 -2.87181 0
M  V30 1614 C 154.807 -2.27107 -3.58758 0
M  V30 1615 O 155.831 -1.96205 -2.97291 0
M  V30 1616 O 154.69 -2.79736 -4.69479 0
M  V30 1617 H 151.784 -0.392384 -0.727986 0
M  V30 1618 H 154.33 -1.37874 -0.989382 0
M  V30 1619 H 153.102 -2.97399 -2.54302 0
M  V30 1620 H 152.725 -1.64068 -3.6217 0
M  V30 1621 N 153.722 1.14298 -1.08507 0
M  V30 1622 C 154.652 2.21542 -0.737646 0
M  V30 1623 C 155.633 1.67773 0.280377 0
M  V30 1624 O 156.818 1.93616 0.150521 0
M  V30 1625 C 153.948 3.46988 -0.147259 0
M  V30 1626 C 152.902 4.13789 -1.09374 0
M  V30 1627 C 152.228 5.33449 -0.365524 0
M  V30 1628 C 153.528 4.62208 -2.4323 0
M  V30 1629 H 155.222 2.5086 -1.6343 0
M  V30 1630 H 152.768 1.20576 -0.787243 0
M  V30 1631 H 154.721 4.21262 0.107808 0
M  V30 1632 H 153.445 3.17037 0.784538 0
M  V30 1633 H 152.104 3.4147 -1.33393 0
M  V30 1634 H 151.752 4.99759 0.57011 0
M  V30 1635 H 151.452 5.79088 -0.996512 0
M  V30 1636 H 152.976 6.10485 -0.118534 0
M  V30 1637 H 154.39 5.27952 -2.23472 0
M  V30 1638 H 152.787 5.18553 -3.02031 0
M  V30 1639 H 153.857 3.77224 -3.04681 0
M  V30 1640 N 155.201 0.870884 1.31352 0
M  V30 1641 C 156.449 0.48132 1.96285 0
M  V30 1642 C 156.77 -0.969813 1.69173 0
M  V30 1643 O 156.04 -1.67998 1.00764 0
M  V30 1644 H 154.62 0.175002 0.726212 0
M  V30 1645 H 157.282 1.11087 1.60143 0
M  V30 1646 H 156.378 0.639825 3.05471 0
M  V30 1647 N 156.679 -1.44442 0.630414 0
M  V30 1648 C 157.611 -2.2892 -0.113347 0
M  V30 1649 C 158.624 -1.41243 -0.80959 0
M  V30 1650 O 159.813 -1.65402 -0.671156 0
M  V30 1651 C 156.913 -3.17594 -1.18266 0
M  V30 1652 C 156.086 -4.33682 -0.569073 0
M  V30 1653 C 155.145 -5.03397 -1.53226 0
M  V30 1654 O 154.171 -5.59438 -1.04967 0
M  V30 1655 N 155.373 -5.04783 -2.86661 0
M  V30 1656 H 158.138 -2.93392 0.611636 0
M  V30 1657 H 155.699 -1.54881 0.471523 0
M  V30 1658 H 157.691 -3.61097 -1.82732 0
M  V30 1659 H 156.261 -2.54876 -1.80988 0
M  V30 1660 H 155.481 -3.9338 0.254187 0
M  V30 1661 H 156.769 -5.08608 -0.139767 0
M  V30 1662 H 156.167 -4.60584 -3.28449 0
M  V30 1663 H 154.724 -5.52077 -3.46489 0
M  V30 1664 N 158.157 -0.370918 -1.53173 0
M  V30 1665 C 159.087 0.464847 -2.28826 0
M  V30 1666 C 160.068 1.07936 -1.31468 0
M  V30 1667 O 161.253 1.0956 -1.60344 0
M  V30 1668 C 158.383 1.60196 -3.08147 0
M  V30 1669 C 157.337 1.11443 -4.13237 0
M  V30 1670 C 156.663 2.3422 -4.80672 0
M  V30 1671 C 157.963 0.195384 -5.21934 0
M  V30 1672 H 159.657 -0.166329 -2.98938 0
M  V30 1673 H 157.203 -0.0814359 -1.4377 0
M  V30 1674 H 159.156 2.19332 -3.59822 0
M  V30 1675 H 157.88 2.26045 -2.35735 0
M  V30 1676 H 156.539 0.545727 -3.62515 0
M  V30 1677 H 156.187 2.98537 -4.04827 0
M  V30 1678 H 155.887 2.02269 -5.51689 0
M  V30 1679 H 157.411 2.94032 -5.35143 0
M  V30 1680 H 158.825 0.694375 -5.69079 0
M  V30 1681 H 157.222 -0.0335027 -6.00091 0
M  V30 1682 H 158.292 -0.760961 -4.78892 0
M  V30 1683 N 159.635 1.57281 -0.100228 0
M  V30 1684 C 160.545 2.17833 0.870965 0
M  V30 1685 C 161.561 1.14921 1.30649 0
M  V30 1686 O 162.737 1.47313 1.37335 0
M  V30 1687 C 159.802 2.75085 2.1102 0
M  V30 1688 C 158.863 3.9297 1.72838 0
M  V30 1689 C 158.096 4.47482 2.90854 0
M  V30 1690 O 158.319 4.00922 4.05731 0
M  V30 1691 O 157.253 5.38433 2.69023 0
M  V30 1692 H 161.079 3.0124 0.38575 0
M  V30 1693 H 158.664 1.48881 0.124397 0
M  V30 1694 H 160.546 3.11656 2.83634 0
M  V30 1695 H 159.221 1.94721 2.58584 0
M  V30 1696 H 158.128 3.61201 0.973883 0
M  V30 1697 H 159.461 4.74713 1.30033 0
M  V30 1698 N 161.113 -0.173488 1.56642 0
M  V30 1699 C 162.045 -1.23935 1.92802 0
M  V30 1700 C 163.058 -1.40589 0.820889 0
M  V30 1701 O 164.247 -1.40631 1.09933 0
M  V30 1702 C 161.347 -2.60837 2.16373 0
M  V30 1703 C 160.52 -2.6551 3.47596 0
M  V30 1704 C 159.579 -3.8376 3.60021 0
M  V30 1705 O 158.605 -3.69859 4.32658 0
M  V30 1706 N 159.807 -5.00127 2.94709 0
M  V30 1707 H 162.572 -0.932236 2.84832 0
M  V30 1708 H 160.133 -0.363268 1.57772 0
M  V30 1709 H 162.125 -3.38407 2.21952 0
M  V30 1710 H 160.695 -2.83948 1.30738 0
M  V30 1711 H 159.915 -1.74052 3.53694 0
M  V30 1712 H 161.203 -2.65641 4.33949 0
M  V30 1713 H 160.601 -5.14322 2.35563 0
M  V30 1714 H 159.158 -5.75567 3.05886 0
M  V30 1715 N 162.591 -1.51276 -0.441967 0
M  V30 1716 C 163.501 -1.75092 -1.56141 0
M  V30 1717 C 164.517 -0.634963 -1.62001 0
M  V30 1718 O 165.693 -0.916686 -1.79329 0
M  V30 1719 C 162.758 -1.86666 -2.92158 0
M  V30 1720 C 161.819 -3.10506 -2.96453 0
M  V30 1721 C 161.052 -3.21519 -4.25982 0
M  V30 1722 O 161.275 -2.38586 -5.18105 0
M  V30 1723 O 160.209 -4.14465 -4.36466 0
M  V30 1724 H 164.035 -2.70044 -1.38961 0
M  V30 1725 H 161.62 -1.35722 -0.624499 0
M  V30 1726 H 163.502 -1.96292 -3.72891 0
M  V30 1727 H 162.177 -0.949014 -3.09476 0
M  V30 1728 H 161.084 -3.06363 -2.14692 0
M  V30 1729 H 162.417 -4.01945 -2.84079 0
M  V30 1730 N 164.069 0.697108 -1.41344 0
M  V30 1731 C 165.294 1.49096 -1.44171 0
M  V30 1732 C 165.719 1.88038 -0.0481568 0
M  V30 1733 O 165.077 1.54525 0.948243 0
M  V30 1734 C 165.125 2.73088 -2.3549 0
M  V30 1735 O 164.229 3.70514 -1.81088 0
M  V30 1736 H 163.57 0.448801 -0.489361 0
M  V30 1737 H 166.1 0.856992 -1.85787 0
M  V30 1738 H 166.11 3.21413 -2.51312 0
M  V30 1739 H 164.785 2.44081 -3.36745 0
M  V30 1740 H 163.362 3.29441 -1.74708 0
M  V30 1741 N 165.547 1.27147 0.931209 0
M  V30 1742 C 166.787 1.14511 1.69312 0
M  V30 1743 C 167.151 -0.304638 1.89568 0
M  V30 1744 O 168.352 -0.553343 2.63043 0
M  V30 1745 C 166.623 1.90349 3.02493 0
M  V30 1746 S 168.182 1.93884 3.93642 0
M  V30 1747 H 165 0.408858 0.581684 0
M  V30 1748 H 167.602 1.61006 1.10893 0
M  V30 1749 H 166.306 2.94877 2.85439 0
M  V30 1750 H 165.837 1.44333 3.65966 0
M  V30 1751 H 167.852 1.03273 4.85334 0
M  V30 1752 N 167.025 -1.13721 1.09112 0
M  V30 1753 C 167.955 -2.21148 0.749385 0
M  V30 1754 C 168.936 -1.6792 -0.271475 0
M  V30 1755 O 170.121 -1.93693 -0.140251 0
M  V30 1756 C 167.251 -3.46905 0.165659 0
M  V30 1757 C 166.205 -4.13203 1.11567 0
M  V30 1758 C 165.531 -5.33248 0.393809 0
M  V30 1759 C 166.831 -4.60912 2.45678 0
M  V30 1760 H 168.525 -2.4999 1.64758 0
M  V30 1761 H 166.071 -1.20156 0.793626 0
M  V30 1762 H 168.024 -4.21313 -0.085466 0
M  V30 1763 H 166.748 -3.17449 -0.767714 0
M  V30 1764 H 165.407 -3.40758 1.35202 0
M  V30 1765 H 165.055 -5.00054 -0.543599 0
M  V30 1766 H 164.755 -5.78552 1.02721 0
M  V30 1767 H 166.279 -6.10413 0.150908 0
M  V30 1768 H 167.693 -5.26759 2.26269 0
M  V30 1769 H 166.09 -5.16944 3.04776 0
M  V30 1770 H 167.16 -3.75603 3.06677 0
M  V30 1771 N 168.503 -0.877838 -1.30888 0
M  V30 1772 C 169.78 -0.413052 -1.91189 0
M  V30 1773 C 170.16 1.1056 -1.79832 0
M  V30 1774 O 169.508 1.93771 -1.21099 0
M  V30 1775 C 169.718 -0.903191 -3.3711 0
M  V30 1776 C 171.066 -0.93395 -4.14201 0
M  V30 1777 O 172.09 -0.849373 -3.45925 0
M  V30 1778 O 170.949 -1.05772 -5.36167 0
M  V30 1779 H 168.043 -0.125035 -0.817493 0
M  V30 1780 H 170.589 -0.966269 -1.39504 0
M  V30 1781 H 169.361 -1.94692 -3.39427 0
M  V30 1782 H 168.984 -0.328732 -3.96239 0
M  V30 1783 N 169.982 1.44106 -0.638065 0
M  V30 1784 C 171.23 2.01579 -0.145043 0
M  V30 1785 C 171.551 1.50496 1.24 0
M  V30 1786 O 170.821 0.711374 1.82527 0
M  V30 1787 H 169.401 0.745282 -0.05063 0
M  V30 1788 H 172.063 1.76516 -0.826327 0
M  V30 1789 H 171.159 3.11877 -0.118039 0
M  V30 1790 N 171.46 0.379036 1.52974 0
M  V30 1791 C 172.706 -0.199244 2.02422 0
M  V30 1792 C 173.061 -1.4532 1.26095 0
M  V30 1793 O 172.354 -1.88377 0.34996 0
M  V30 1794 C 172.548 -0.53096 3.53434 0
M  V30 1795 C 172.377 0.689298 4.44386 0
M  V30 1796 C 171.147 1.20546 4.9071 0
M  V30 1797 C 173.345 1.55856 4.90116 0
M  V30 1798 N 171.327 2.38434 5.65705 0
M  V30 1799 C 172.698 2.58396 5.63588 0
M  V30 1800 C 174.753 1.57986 4.7217 0
M  V30 1801 C 173.456 3.62939 6.21022 0
M  V30 1802 C 175.482 2.6143 5.30479 0
M  V30 1803 C 174.844 3.62693 6.03849 0
M  V30 1804 H 170.943 -0.0352671 0.781204 0
M  V30 1805 H 173.527 0.526614 1.87443 0
M  V30 1806 H 171.698 -1.22588 3.68547 0
M  V30 1807 H 173.43 -1.0955 3.89591 0
M  V30 1808 H 170.185 0.768022 4.67331 0
M  V30 1809 H 170.609 2.98055 6.07859 0
M  V30 1810 H 175.251 0.810475 4.14959 0
M  V30 1811 H 172.969 4.40751 6.77321 0
M  V30 1812 H 176.555 2.63949 5.18481 0
M  V30 1813 H 175.435 4.41424 6.48163 0
M  V30 1814 N 172.938 -1.57226 0.108567 0
M  V30 1815 C 173.848 -2.18292 -0.859401 0
M  V30 1816 C 174.864 -1.15612 -1.30038 0
M  V30 1817 O 176.04 -1.48039 -1.36552 0
M  V30 1818 C 173.105 -2.762 -2.09558 0
M  V30 1819 C 172.166 -3.93881 -1.70752 0
M  V30 1820 C 171.399 -4.49018 -2.88477 0
M  V30 1821 O 171.622 -4.03068 -4.036 0
M  V30 1822 O 170.556 -5.39852 -2.66164 0
M  V30 1823 H 174.382 -3.01441 -0.369769 0
M  V30 1824 H 171.967 -1.48945 -0.1165 0
M  V30 1825 H 173.849 -3.13156 -2.81978 0
M  V30 1826 H 172.524 -1.96089 -2.57548 0
M  V30 1827 H 171.431 -3.61713 -0.954714 0
M  V30 1828 H 172.764 -4.75396 -1.27513 0
M  V30 1829 N 174.416 0.165178 -1.56732 0
M  V30 1830 C 175.663 0.880807 -1.8234 0
M  V30 1831 C 175.991 1.81977 -0.686621 0
M  V30 1832 O 175.246 1.92971 0.325697 0
M  V30 1833 C 175.545 1.70405 -3.1416 0
M  V30 1834 C 175.211 0.913475 -4.4155 0
M  V30 1835 C 173.873 0.695303 -4.7615 0
M  V30 1836 C 176.225 0.359349 -5.1996 0
M  V30 1837 C 173.553 -0.0879947 -5.86634 0
M  V30 1838 C 175.905 -0.410893 -6.31264 0
M  V30 1839 C 174.569 -0.639808 -6.64427 0
M  V30 1840 H 173.839 0.32231 -0.667231 0
M  V30 1841 H 176.486 0.145402 -1.90947 0
M  V30 1842 H 174.791 2.50903 -3.00923 0
M  V30 1843 H 176.488 2.26091 -3.31186 0
M  V30 1844 H 173.078 1.09357 -4.14414 0
M  V30 1845 H 177.262 0.515228 -4.93618 0
M  V30 1846 H 172.518 -0.27503 -6.10781 0
M  V30 1847 H 176.692 -0.847494 -6.91224 0
M  V30 1848 H 174.319 -1.24864 -7.49875 0
M  V30 1849 N 175.894 1.51508 0.433938 0
M  V30 1850 C 177.119 1.68443 1.21003 0
M  V30 1851 C 177.544 0.382636 1.84167 0
M  V30 1852 O 176.902 -0.65755 1.68956 0
M  V30 1853 C 176.95 2.80405 2.26727 0
M  V30 1854 O 176.054 2.44245 3.32292 0
M  V30 1855 H 175.395 0.561536 0.354363 0
M  V30 1856 H 177.925 1.9809 0.512024 0
M  V30 1857 H 177.935 3.0459 2.71457 0
M  V30 1858 H 176.61 3.74867 1.80132 0
M  V30 1859 H 175.187 2.30644 2.93015 0
M  V30 1860 N 177.372 -0.689602 1.41712 0
M  V30 1861 C 178.304 -1.815 1.39966 0
M  V30 1862 C 179.317 -1.59995 0.300917 0
M  V30 1863 O 180.506 -1.69387 0.563039 0
M  V30 1864 C 177.606 -3.18364 1.16179 0
M  V30 1865 C 176.779 -3.66847 2.38206 0
M  V30 1866 C 175.838 -4.82398 2.10186 0
M  V30 1867 O 174.864 -4.93706 2.83272 0
M  V30 1868 N 176.066 -5.70064 1.0958 0
M  V30 1869 H 178.831 -1.83488 2.36965 0
M  V30 1870 H 176.392 -0.872149 1.36401 0
M  V30 1871 H 178.384 -3.93301 0.953756 0
M  V30 1872 H 176.954 -3.11365 0.27756 0
M  V30 1873 H 176.174 -2.82751 2.74673 0
M  V30 1874 H 177.462 -3.95978 3.19498 0
M  V30 1875 H 176.86 -5.63565 0.491019 0
M  V30 1876 H 175.417 -6.44874 0.947656 0
M  V30 1877 N 178.85 -1.27639 -0.924453 0
M  V30 1878 C 180.127 -1.04887 -1.651 0
M  V30 1879 C 180.507 0.415327 -2.06974 0
M  V30 1880 O 179.855 1.39923 -1.80648 0
M  V30 1881 C 180.065 -2.01348 -2.85061 0
M  V30 1882 C 181.413 -2.30899 -3.56329 0
M  V30 1883 O 182.437 -1.99348 -2.95193 0
M  V30 1884 O 181.296 -2.84699 -4.66485 0
M  V30 1885 H 178.39 -0.400083 -0.723784 0
M  V30 1886 H 180.936 -1.38916 -0.974703 0
M  V30 1887 H 179.708 -3.0008 -2.51133 0
M  V30 1888 H 179.331 -1.679 -3.6041 0
M  V30 1889 N 180.328 1.1314 -1.09713 0
M  V30 1890 C 181.574 1.84757 -0.836224 0
M  V30 1891 C 181.907 1.8347 0.636598 0
M  V30 1892 O 181.182 1.27491 1.46889 0
M  V30 1893 C 181.465 3.32782 -1.37578 0
M  V30 1894 C 181.318 3.42567 -2.91493 0
M  V30 1895 C 182.637 4.28307 -1.01198 0
M  V30 1896 H 179.756 0.67082 -0.305236 0
M  V30 1897 H 182.398 1.3278 -1.35903 0
M  V30 1898 H 180.548 3.77177 -0.931097 0
M  V30 1899 H 182.22 3.06862 -3.44432 0
M  V30 1900 H 180.463 2.83349 -3.28475 0
M  V30 1901 H 181.134 4.46674 -3.24324 0
M  V30 1902 H 183.61 3.91999 -1.39556 0
M  V30 1903 H 182.486 5.30307 -1.41653 0
M  V30 1904 H 182.747 4.42029 0.0794833 0
M  V30 1905 N 181.806 0.884767 1.30421 0
M  V30 1906 C 183.036 0.517293 2.00019 0
M  V30 1907 C 183.444 -0.898632 1.66497 0
M  V30 1908 O 182.787 -1.60245 0.898181 0
M  V30 1909 C 182.849 0.612025 3.54252 0
M  V30 1910 C 182.513 1.99222 4.1129 0
M  V30 1911 C 183.51 2.9616 4.273 0
M  V30 1912 C 181.195 2.29755 4.46674 0
M  V30 1913 C 183.189 4.21764 4.77906 0
M  V30 1914 C 180.876 3.55606 4.96979 0
M  V30 1915 C 181.874 4.51425 5.12547 0
M  V30 1916 O 181.562 5.75043 5.61766 0
M  V30 1917 H 181.294 0.198529 0.64619 0
M  V30 1918 H 183.848 1.1919 1.67281 0
M  V30 1919 H 182.078 -0.119561 3.86515 0
M  V30 1920 H 183.767 0.255859 4.05093 0
M  V30 1921 H 184.533 2.73882 4.00267 0
M  V30 1922 H 180.412 1.55942 4.33824 0
M  V30 1923 H 183.956 4.96561 4.89972 0
M  V30 1924 H 179.853 3.7772 5.23448 0
M  V30 1925 H 180.621 5.77422 5.80109 0
M  V30 1926 N 183.284 -1.43765 0.645699 0
M  V30 1927 C 184.214 -2.33471 -0.0370477 0
M  V30 1928 C 185.195 -1.49042 -0.819779 0
M  V30 1929 O 186.38 -1.77726 -0.782758 0
M  V30 1930 C 183.51 -3.32311 -1.0093 0
M  V30 1931 C 182.464 -4.2667 -0.337201 0
M  V30 1932 C 181.79 -5.1549 -1.42037 0
M  V30 1933 C 183.09 -5.16657 0.765706 0
M  V30 1934 H 184.784 -2.90809 0.712069 0
M  V30 1935 H 182.33 -1.39834 0.343876 0
M  V30 1936 H 184.283 -3.9396 -1.49578 0
M  V30 1937 H 183.007 -2.73213 -1.78948 0
M  V30 1938 H 181.666 -3.66374 0.128771 0
M  V30 1939 H 181.314 -4.52735 -2.1918 0
M  V30 1940 H 181.014 -5.79438 -0.975966 0
M  V30 1941 H 182.538 -5.80012 -1.90838 0
M  V30 1942 H 183.952 -5.72158 0.361702 0
M  V30 1943 H 182.349 -5.89286 1.13413 0
M  V30 1944 H 183.419 -4.56796 1.62683 0
M  V30 1945 N 184.763 -0.387143 -1.52771 0
M  V30 1946 C 185.988 0.198407 -2.06449 0
M  V30 1947 C 186.413 1.39918 -1.25716 0
M  V30 1948 O 185.771 1.79099 -0.281657 0
M  V30 1949 C 185.819 0.548893 -3.56398 0
M  V30 1950 O 184.923 1.64315 -3.78252 0
M  V30 1951 H 184.264 0.0237731 -0.663574 0
M  V30 1952 H 186.794 -0.553989 -1.96957 0
M  V30 1953 H 186.804 0.813812 -3.99801 0
M  V30 1954 H 185.479 -0.329005 -4.14597 0
M  V30 1955 H 184.056 1.37211 -3.46738 0
M  V30 1956 N 186.241 1.57166 -0.116904 0
M  V30 1957 C 187.469 1.99473 0.549383 0
M  V30 1958 C 187.884 0.996541 1.60357 0
M  V30 1959 O 187.241 -0.0108731 1.82497 0
M  V30 1960 C 187.292 3.41788 1.17741 0
M  V30 1961 O 187.013 4.37788 0.165362 0
M  V30 1962 C 188.514 3.99216 1.92722 0
M  V30 1963 H 185.734 0.655009 0.145616 0
M  V30 1964 H 188.278 2.03494 -0.202625 0
M  V30 1965 H 186.433 3.38713 1.88021 0
M  V30 1966 H 186.847 5.20806 0.621403 0
M  V30 1967 H 188.321 5.00882 2.31995 0
M  V30 1968 H 188.798 3.3824 2.80161 0
M  V30 1969 H 189.404 4.0583 1.27209 0
M  V30 1970 N 187.719 -0.156864 1.56817 0
M  V30 1971 C 188.965 -0.872416 1.83076 0
M  V30 1972 C 189.298 -1.81261 0.697001 0
M  V30 1973 O 188.573 -1.92171 -0.30008 0
M  V30 1974 C 188.856 -1.65551 3.19789 0
M  V30 1975 C 188.709 -0.737467 4.43713 0
M  V30 1976 C 190.028 -2.62012 3.53606 0
M  V30 1977 H 187.147 -0.315715 0.665953 0
M  V30 1978 H 189.789 -0.138004 1.89498 0
M  V30 1979 H 187.939 -2.28159 3.14445 0
M  V30 1980 H 189.611 -0.123143 4.61136 0
M  V30 1981 H 187.854 -0.0464067 4.33775 0
M  V30 1982 H 188.525 -1.32122 5.35955 0
M  V30 1983 H 191.001 -2.09525 3.59497 0
M  V30 1984 H 189.877 -3.13861 4.50314 0
M  V30 1985 H 190.138 -3.42902 2.79053 0
M  V30 1986 N 189.197 -1.51736 -0.425897 0
M  V30 1987 C 190.443 -1.65214 -1.1761 0
M  V30 1988 C 190.776 -0.372778 -1.90589 0
M  V30 1989 O 190.051 0.628139 -1.84078 0
M  V30 1990 C 190.334 -2.86312 -2.18398 0
M  V30 1991 C 190.187 -4.24254 -1.49426 0
M  V30 1992 C 191.506 -3.02925 -3.19256 0
M  V30 1993 H 188.625 -0.601263 -0.426206 0
M  V30 1994 H 191.267 -1.8425 -0.463882 0
M  V30 1995 H 189.417 -2.70213 -2.79137 0
M  V30 1996 H 191.089 -4.52046 -0.919362 0
M  V30 1997 H 189.332 -4.26426 -0.796432 0
M  V30 1998 H 190.003 -5.05001 -2.22885 0
M  V30 1999 H 192.479 -3.1781 -2.68581 0
M  V30 2000 H 191.355 -3.89199 -3.8706 0
M  V30 2001 H 191.616 -2.15497 -3.86023 0
M  V30 2002 N 190.675 0.682077 -1.42076 0
M  V30 2003 C 191.903 1.47057 -1.4554 0
M  V30 2004 C 192.318 1.8869 -0.0645779 0
M  V30 2005 O 191.675 1.57666 0.919115 0
M  V30 2006 C 191.726 2.72442 -2.37609 0
M  V30 2007 O 191.447 2.32559 -3.71279 0
M  V30 2008 C 192.948 3.66069 -2.50017 0
M  V30 2009 H 190.168 0.452737 -0.495248 0
M  V30 2010 H 192.712 0.838695 -1.8651 0
M  V30 2011 H 190.867 3.31835 -1.9991 0
M  V30 2012 H 191.281 3.13475 -4.20516 0
M  V30 2013 H 192.755 4.50792 -3.18576 0
M  V30 2014 H 193.232 4.11476 -1.53572 0
M  V30 2015 H 193.838 3.12572 -2.88407 0
M  V30 2016 N 192.153 1.28127 0.917671 0
M  V30 2017 C 193.063 1.13556 2.05286 0
M  V30 2018 C 194.079 0.0630914 1.73886 0
M  V30 2019 O 195.255 0.271598 1.9956 0
M  V30 2020 C 192.32 0.794676 3.3747 0
M  V30 2021 C 191.381 1.94909 3.82504 0
M  V30 2022 C 190.614 1.62437 5.0838 0
M  V30 2023 O 190.837 0.536905 5.67867 0
M  V30 2024 O 189.771 2.46677 5.4903 0
M  V30 2025 H 193.597 2.08844 2.20495 0
M  V30 2026 H 191.182 1.07409 1.03845 0
M  V30 2027 H 193.064 0.618344 4.16839 0
M  V30 2028 H 191.739 -0.128581 3.23445 0
M  V30 2029 H 190.646 2.18055 3.03978 0
M  V30 2030 H 191.979 2.85291 4.01086 0
M  V30 2031 N 193.631 -1.12557 1.10312 0
M  V30 2032 C 194.877 -1.84515 0.855901 0
M  V30 2033 C 195.232 -1.82409 -0.611936 0
M  V30 2034 O 194.525 -1.25778 -1.44535 0
M  V30 2035 C 194.719 -3.31462 1.33669 0
M  V30 2036 C 194.548 -3.47879 2.84974 0
M  V30 2037 C 193.318 -3.61589 3.52961 0
M  V30 2038 C 195.516 -3.43152 3.83081 0
M  V30 2039 N 193.498 -3.66359 4.926 0
M  V30 2040 C 194.869 -3.54401 5.08724 0
M  V30 2041 C 196.924 -3.2661 3.75807 0
M  V30 2042 C 195.627 -3.50815 6.2795 0
M  V30 2043 C 197.653 -3.24335 4.94531 0
M  V30 2044 C 197.015 -3.36144 6.19021 0
M  V30 2045 H 193.114 -0.690967 0.366182 0
M  V30 2046 H 195.698 -1.34763 1.40524 0
M  V30 2047 H 193.869 -3.7976 0.814686 0
M  V30 2048 H 195.601 -3.91272 1.03385 0
M  V30 2049 H 192.356 -3.63652 3.03404 0
M  V30 2050 H 192.78 -3.72411 5.65366 0
M  V30 2051 H 197.422 -3.16375 2.80476 0
M  V30 2052 H 195.14 -3.5982 7.23571 0
M  V30 2053 H 198.726 -3.12719 4.9061 0
M  V30 2054 H 197.606 -3.34357 7.09348 0
M  V30 2055 N 195.109 -0.891671 -1.2995 0
M  V30 2056 C 196.057 -0.353066 -2.29905 0
M  V30 2057 C 197.051 0.543509 -1.60444 0
M  V30 2058 O 198.257 0.4272 -1.74857 0
M  V30 2059 H 194.632 -0.095531 -0.745907 0
M  V30 2060 H 196.603 -1.20961 -2.72784 0
M  V30 2061 C 195.352 0.411475 -3.45257 0
M  V30 2062 H 194.675 -0.269182 -3.98893 0
M  V30 2063 H 196.115 0.753328 -4.17254 0
M  V30 2064 C 194.574 1.6111 -2.9588 0
M  V30 2065 O 195.104 2.71045 -2.96475 0
M  V30 2066 N 193.31 1.45054 -2.51809 0
M  V30 2067 H 192.857 0.556175 -2.51524 0
M  V30 2068 H 192.815 2.25453 -2.1913 0
M  V30 2069 N 196.587 1.43421 -0.653314 0
M  V30 2070 C 197.517 2.33487 0.0246656 0
M  V30 2071 C 198.498 1.49475 0.811863 0
M  V30 2072 O 199.683 1.78139 0.773322 0
M  V30 2073 C 196.813 3.32841 0.99166 0
M  V30 2074 C 195.767 4.26842 0.314568 0
M  V30 2075 C 195.093 5.16236 1.39302 0
M  V30 2076 C 196.393 5.16243 -0.793095 0
M  V30 2077 H 198.087 2.90427 -0.727481 0
M  V30 2078 H 195.633 1.39649 -0.351287 0
M  V30 2079 H 197.586 3.94747 1.47487 0
M  V30 2080 H 196.31 2.74158 1.77497 0
M  V30 2081 H 194.969 3.663 -0.148199 0
M  V30 2082 H 194.617 4.53891 2.16776 0
M  V30 2083 H 194.317 5.79948 0.945223 0
M  V30 2084 H 195.841 5.81015 1.87759 0
M  V30 2085 H 197.255 5.71958 -0.392039 0
M  V30 2086 H 195.652 5.88676 -1.16536 0
M  V30 2087 H 196.722 4.55927 -1.65103 0
M  V30 2088 N 198.065 0.39524 1.52563 0
M  V30 2089 C 199.311 -0.185318 2.01952 0
M  V30 2090 C 199.644 -1.45964 1.28095 0
M  V30 2091 O 198.919 -1.90689 0.38315 0
M  V30 2092 C 199.202 -0.447193 3.57312 0
M  V30 2093 C 199.055 0.842828 4.41833 0
M  V30 2094 C 200.374 -1.23529 4.22408 0
M  V30 2095 H 197.493 -0.0658788 0.73405 0
M  V30 2096 H 200.135 0.525975 1.82575 0
M  V30 2097 H 198.285 -1.05312 3.73954 0
M  V30 2098 H 199.957 1.4795 4.36931 0
M  V30 2099 H 198.2 1.45686 4.08605 0
M  V30 2100 H 198.871 0.614165 5.48573 0
M  V30 2101 H 201.347 -0.722445 4.0978 0
M  V30 2102 H 200.223 -1.38727 5.3108 0
M  V30 2103 H 200.484 -2.25213 3.80436 0
M  V30 2104 N 199.544 -1.57102 0.125237 0
M  V30 2105 C 200.784 -1.97294 -0.534259 0
M  V30 2106 C 201.148 -1.0074 -1.63449 0
M  V30 2107 O 202.349 -1.29893 -2.35332 0
M  V30 2108 C 200.62 -3.41705 -1.04748 0
M  V30 2109 S 202.179 -4.03913 -1.71463 0
M  V30 2110 H 198.997 -0.689517 -0.173458 0
M  V30 2111 H 201.599 -1.94349 0.211797 0
M  V30 2112 H 200.303 -4.09723 -0.235649 0
M  V30 2113 H 199.834 -3.48315 -1.82867 0
M  V30 2114 H 201.849 -3.95182 -3.00077 0
M  V30 2115 N 201.022 0.148545 -1.56898 0
M  V30 2116 C 201.932 1.20293 -2.01412 0
M  V30 2117 C 202.948 1.47107 -0.929273 0
M  V30 2118 O 204.124 1.58807 -1.23863 0
M  V30 2119 C 201.189 2.51682 -2.38447 0
M  V30 2120 C 200.25 2.32529 -3.60872 0
M  V30 2121 C 199.483 3.57653 -3.96132 0
M  V30 2122 O 199.706 4.63771 -3.32073 0
M  V30 2123 O 198.64 3.50408 -4.89385 0
M  V30 2124 H 202.466 0.855025 -2.91416 0
M  V30 2125 H 200.051 0.357151 -1.45068 0
M  V30 2126 H 201.933 3.29147 -2.63135 0
M  V30 2127 H 200.608 2.86006 -1.51599 0
M  V30 2128 H 199.515 1.53019 -3.41373 0
M  V30 2129 H 200.848 2.03121 -4.48333 0
M  V30 2130 N 202.5 1.5196 0.417844 0
M  V30 2131 C 203.777 1.56146 1.17803 0
M  V30 2132 C 204.157 0.337275 2.08388 0
M  V30 2133 O 203.505 -0.676447 2.18258 0
M  V30 2134 C 203.715 2.88566 1.96293 0
M  V30 2135 C 205.063 3.41244 2.52662 0
M  V30 2136 O 206.087 2.90247 2.06483 0
M  V30 2137 O 204.946 4.30273 3.36938 0
M  V30 2138 H 202.04 0.628598 0.537395 0
M  V30 2139 H 204.586 1.64283 0.425331 0
M  V30 2140 H 203.358 3.69116 1.2988 0
M  V30 2141 H 202.981 2.83681 2.78587 0
M  V30 2142 N 203.978 -0.674533 1.42435 0
M  V30 2143 C 204.926 -1.80934 1.46169 0
M  V30 2144 C 205.92 -1.66006 0.3374 0
M  V30 2145 O 207.126 -1.72611 0.510425 0
M  V30 2146 H 203.501 -0.596594 0.457798 0
M  V30 2147 H 205.472 -1.74903 2.41767 0
M  V30 2148 C 204.221 -3.19088 1.38123 0
M  V30 2149 H 203.544 -3.31203 2.23931 0
M  V30 2150 H 204.984 -3.9851 1.44797 0
M  V30 2151 C 203.443 -3.36763 0.0960517 0
M  V30 2152 O 203.973 -3.92581 -0.851073 0
M  V30 2153 N 202.179 -2.90597 0.0131186 0
M  V30 2154 H 201.726 -2.45359 0.784639 0
M  V30 2155 H 201.684 -3.028 -0.846133 0
M  V30 2156 N 205.456 -1.28612 -0.910864 0
M  V30 2157 C 206.702 -1.17116 -1.66299 0
M  V30 2158 C 207.057 0.276917 -1.90397 0
M  V30 2159 O 206.35 1.19795 -1.49532 0
M  V30 2160 C 206.544 -1.90624 -3.0232 0
M  V30 2161 C 206.373 -3.42431 -2.91498 0
M  V30 2162 C 205.143 -4.11773 -2.92867 0
M  V30 2163 C 207.341 -4.38124 -2.69355 0
M  V30 2164 N 205.323 -5.50025 -2.72664 0
M  V30 2165 C 206.694 -5.63759 -2.58023 0
M  V30 2166 C 208.749 -4.28016 -2.54375 0
M  V30 2167 C 207.452 -6.80436 -2.33238 0
M  V30 2168 C 209.478 -5.44433 -2.30969 0
M  V30 2169 C 208.84 -6.69034 -2.20394 0
M  V30 2170 H 204.939 -0.483506 -0.61461 0
M  V30 2171 H 207.523 -1.62299 -1.0755 0
M  V30 2172 H 205.694 -1.4787 -3.5915 0
M  V30 2173 H 207.426 -1.71488 -3.66571 0
M  V30 2174 H 204.181 -3.63378 -3.03732 0
M  V30 2175 H 204.605 -6.22705 -2.65646 0
M  V30 2176 H 209.247 -3.32388 -2.613 0
M  V30 2177 H 206.965 -7.7613 -2.25051 0
M  V30 2178 H 210.551 -5.38504 -2.20238 0
M  V30 2179 H 209.431 -7.57595 -2.02531 0
M  V30 2180 N 206.934 1.1197 -1.10907 0
M  V30 2181 C 207.881 2.17846 -0.762345 0
M  V30 2182 C 208.851 1.63995 0.263599 0
M  V30 2183 O 210.036 1.90273 0.141773 0
M  V30 2184 C 207.176 3.44487 -0.205651 0
M  V30 2185 C 206.289 4.12369 -1.28748 0
M  V30 2186 C 205.424 5.26674 -0.691919 0
M  V30 2187 C 204.463 5.86431 -1.75399 0
M  V30 2188 N 203.6 6.92142 -1.17833 0
M  V30 2189 H 208.44 2.46851 -1.6694 0
M  V30 2190 H 205.977 1.21188 -0.833776 0
M  V30 2191 H 207.935 4.16981 0.135037 0
M  V30 2192 H 206.565 3.15884 0.664613 0
M  V30 2193 H 205.617 3.38003 -1.74522 0
M  V30 2194 H 206.929 4.52844 -2.09125 0
M  V30 2195 H 206.083 6.05953 -0.300963 0
M  V30 2196 H 204.822 4.8749 0.143232 0
M  V30 2197 H 203.827 5.05835 -2.15432 0
M  V30 2198 H 205.052 6.27685 -2.59208 0
M  V30 2199 H 202.998 6.54985 -0.364725 0
M  V30 2200 H 202.915 7.31242 -1.91887 0
M  V30 2201 H 204.183 7.75237 -0.81408 0
M  V30 2202 N 208.412 0.89855 1.29475 0
M  V30 2203 C 209.658 0.524658 1.95896 0
M  V30 2204 C 209.991 -0.926468 1.70676 0
M  V30 2205 O 209.266 -1.65665 1.01908 0
M  V30 2206 C 209.549 0.81633 3.50725 0
M  V30 2207 C 209.402 2.31907 3.85408 0
M  V30 2208 C 210.721 0.302038 4.39062 0
M  V30 2209 H 207.84 0.19209 0.711527 0
M  V30 2210 H 210.482 1.12502 1.53112 0
M  V30 2211 H 208.632 0.305369 3.87298 0
M  V30 2212 H 210.304 2.89949 3.58786 0
M  V30 2213 H 208.547 2.78027 3.32992 0
M  V30 2214 H 209.218 2.47373 4.93468 0
M  V30 2215 H 211.694 0.739551 4.09475 0
M  V30 2216 H 210.57 0.535331 5.46283 0
M  V30 2217 H 210.831 -0.797216 4.34853 0
M  V30 2218 N 209.89 -1.43072 0.660911 0
M  V30 2219 C 211.301 -1.84932 0.256348 0
M  V30 2220 C 211.652 -1.55325 -1.19868 0
M  V30 2221 O 210.777 -1.00607 -1.91591 0
M  V30 2222 C 211.372 -3.35684 0.458475 0
M  V30 2223 C 209.931 -3.76245 0.108161 0
M  V30 2224 C 209.078 -2.66749 0.757641 0
M  V30 2225 H 212.029 -1.33116 0.864051 0
M  V30 2226 H 212.05 -3.79365 -0.293683 0
M  V30 2227 H 211.562 -3.572 1.51755 0
M  V30 2228 H 209.663 -3.60338 -0.948014 0
M  V30 2229 H 209.776 -4.76058 0.538992 0
M  V30 2230 H 208.14 -2.53989 0.190185 0
M  V30 2231 H 208.923 -2.91092 1.81989 0
M  V30 2232 N 211.368 -0.403325 -1.52352 0
M  V30 2233 C 212.298 0.416205 -2.29761 0
M  V30 2234 C 213.279 1.05123 -1.33728 0
M  V30 2235 O 214.464 1.06134 -1.62632 0
M  V30 2236 C 211.594 1.53624 -3.11475 0
M  V30 2237 C 210.548 1.02653 -4.15507 0
M  V30 2238 C 209.874 2.23971 -4.85532 0
M  V30 2239 C 211.174 0.08463 -5.22231 0
M  V30 2240 H 212.868 -0.229701 -2.98518 0
M  V30 2241 H 210.414 -0.111913 -1.43564 0
M  V30 2242 H 212.367 2.1165 -3.64393 0
M  V30 2243 H 211.091 2.20994 -2.40477 0
M  V30 2244 H 209.75 0.46871 -3.63591 0
M  V30 2245 H 209.398 2.89883 -4.11068 0
M  V30 2246 H 209.098 1.90521 -5.55856 0
M  V30 2247 H 210.622 2.82614 -5.41259 0
M  V30 2248 H 212.036 0.573509 -5.70424 0
M  V30 2249 H 210.433 -0.160783 -5.99885 0
M  V30 2250 H 211.503 -0.86237 -4.7717 0
M  V30 2251 N 212.846 1.57033 -0.133567 0
M  V30 2252 C 214.074 2.00044 0.528195 0
M  V30 2253 C 214.489 1.01349 1.59291 0
M  V30 2254 O 213.846 0.00848369 1.82498 0
M  V30 2255 C 213.897 3.43018 1.1411 0
M  V30 2256 O 213.618 4.37939 0.11892 0
M  V30 2257 C 215.119 4.01237 1.88477 0
M  V30 2258 H 212.339 0.656517 0.138661 0
M  V30 2259 H 214.883 2.03267 -0.224196 0
M  V30 2260 H 213.038 3.40688 1.84418 0
M  V30 2261 H 213.452 5.21436 0.56613 0
M  V30 2262 H 214.926 5.03314 2.26669 0
M  V30 2263 H 215.403 3.41193 2.76558 0
M  V30 2264 H 216.009 4.07156 1.22898 0
M  V30 2265 N 214.325 -0.140222 1.56975 0
M  V30 2266 C 215.553 -0.866437 1.87884 0
M  V30 2267 C 215.968 -1.74428 0.722517 0
M  V30 2268 O 215.325 -1.79891 -0.30749 0
M  V30 2269 C 215.376 -1.71753 3.18093 0
M  V30 2270 O 215.097 -0.875056 4.29272 0
M  V30 2271 C 216.598 -2.55074 3.62563 0
M  V30 2272 H 213.818 -0.25019 0.622612 0
M  V30 2273 H 216.362 -0.130977 2.0408 0
M  V30 2274 H 214.517 -2.40598 3.03631 0
M  V30 2275 H 214.931 -1.46002 5.03769 0
M  V30 2276 H 216.405 -3.10356 4.5649 0
M  V30 2277 H 216.882 -3.31434 2.88181 0
M  V30 2278 H 217.488 -1.91509 3.79743 0
M  V30 2279 N 215.803 -1.52179 -0.40978 0
M  V30 2280 C 217.028 -1.70347 -1.18308 0
M  V30 2281 C 217.453 -0.411887 -1.83535 0
M  V30 2282 O 216.811 0.630587 -1.6998 0
M  V30 2283 C 216.859 -2.83977 -2.22238 0
M  V30 2284 O 215.963 -2.495 -3.28365 0
M  V30 2285 H 215.304 -0.567103 -0.345384 0
M  V30 2286 H 217.834 -1.98879 -0.480445 0
M  V30 2287 H 217.844 -3.0887 -2.66577 0
M  V30 2288 H 216.519 -3.77685 -1.74146 0
M  V30 2289 H 215.096 -2.35277 -2.89308 0
M  V30 2290 N 217.281 0.66697 -1.42791 0
M  V30 2291 C 218.211 1.79218 -1.49677 0
M  V30 2292 C 219.192 1.66405 -0.352623 0
M  V30 2293 O 220.377 1.85708 -0.567993 0
M  V30 2294 C 217.507 3.17565 -1.40605 0
M  V30 2295 C 216.461 3.45124 -2.53127 0
M  V30 2296 C 215.787 4.83127 -2.29112 0
M  V30 2297 C 217.087 3.41236 -3.95418 0
M  V30 2298 H 218.781 1.73713 -2.43853 0
M  V30 2299 H 216.327 0.83432 -1.17367 0
M  V30 2300 H 218.28 3.96022 -1.44029 0
M  V30 2301 H 217.004 3.23767 -0.429271 0
M  V30 2302 H 215.663 2.69031 -2.49034 0
M  V30 2303 H 215.311 4.85988 -1.29709 0
M  V30 2304 H 215.011 5.02528 -3.04531 0
M  V30 2305 H 216.535 5.63859 -2.34297 0
M  V30 2306 H 217.949 4.09651 -4.01073 0
M  V30 2307 H 216.346 3.72173 -4.70752 0
M  V30 2308 H 217.416 2.39665 -4.21532 0
M  V30 2309 N 218.759 1.29093 0.90403 0
M  V30 2310 C 220.006 1.16813 1.65411 0
M  V30 2311 C 220.334 -0.28128 1.92455 0
M  V30 2312 O 219.589 -1.22006 1.53013 0
M  V30 2313 C 219.888 1.92224 3.01305 0
M  V30 2314 C 219.554 3.41968 2.93885 0
M  V30 2315 C 218.216 3.82807 2.91569 0
M  V30 2316 C 220.568 4.37409 2.83413 0
M  V30 2317 C 217.896 5.1741 2.76594 0
M  V30 2318 C 220.248 5.72097 2.69977 0
M  V30 2319 C 218.912 6.12199 2.66024 0
M  V30 2320 H 218.182 0.42745 0.605283 0
M  V30 2321 H 220.829 1.59981 1.05254 0
M  V30 2322 H 219.134 1.41635 3.65304 0
M  V30 2323 H 220.831 1.80131 3.58265 0
M  V30 2324 H 217.421 3.09504 2.96488 0
M  V30 2325 H 221.605 4.06813 2.84283 0
M  V30 2326 H 216.861 5.47596 2.71935 0
M  V30 2327 H 221.035 6.45704 2.60844 0
M  V30 2328 H 218.662 7.16448 2.54178 0
M  V30 2329 N 220.237 -1.11381 1.11499 0
M  V30 2330 C 221.484 -1.83132 0.864231 0
M  V30 2331 C 221.812 -1.84683 -0.610114 0
M  V30 2332 O 221.067 -1.29589 -1.46646 0
M  V30 2333 C 221.366 -3.30026 1.37177 0
M  V30 2334 C 221.032 -3.48634 2.85946 0
M  V30 2335 C 219.694 -3.53421 3.26569 0
M  V30 2336 C 222.046 -3.54837 3.81759 0
M  V30 2337 C 219.374 -3.61967 4.61733 0
M  V30 2338 C 221.726 -3.64915 5.1674 0
M  V30 2339 C 220.39 -3.67962 5.5692 0
M  V30 2340 H 219.66 -0.670127 0.316245 0
M  V30 2341 H 222.307 -1.31354 1.3935 0
M  V30 2342 H 220.612 -3.84304 0.762753 0
M  V30 2343 H 222.309 -3.84034 1.15408 0
M  V30 2344 H 218.899 -3.45579 2.53521 0
M  V30 2345 H 223.083 -3.50399 3.51474 0
M  V30 2346 H 218.339 -3.62603 4.92269 0
M  V30 2347 H 222.513 -3.68658 5.90816 0
M  V30 2348 H 220.14 -3.74336 6.61647 0
M  V30 2349 N 221.715 -0.905404 -1.28997 0
M  V30 2350 C 222.961 -0.535039 -1.95615 0
M  V30 2351 C 223.294 0.917404 -1.71165 0
M  V30 2352 O 222.569 1.65123 -1.02785 0
M  V30 2353 C 222.852 -0.834918 -3.50287 0
M  V30 2354 C 222.705 -2.33948 -3.84172 0
M  V30 2355 C 224.024 -0.325318 -4.38896 0
M  V30 2356 H 221.143 -0.195861 -0.710498 0
M  V30 2357 H 223.785 -1.13313 -1.52513 0
M  V30 2358 H 221.935 -0.325904 -3.87131 0
M  V30 2359 H 223.607 -2.91847 -3.57243 0
M  V30 2360 H 221.85 -2.79789 -3.31513 0
M  V30 2361 H 222.521 -2.49987 -4.92149 0
M  V30 2362 H 224.997 -0.761256 -4.09077 0
M  V30 2363 H 223.873 -0.564295 -5.45992 0
M  V30 2364 H 224.134 0.774144 -4.35269 0
M  V30 2365 N 223.193 1.4272 -0.668489 0
M  V30 2366 C 224.441 2.01226 -0.187769 0
M  V30 2367 C 224.762 1.53092 1.2078 0
M  V30 2368 O 224.032 0.74993 1.80977 0
M  V30 2369 H 222.612 0.744041 -0.0664272 0
M  V30 2370 H 225.274 1.74723 -0.863583 0
M  V30 2371 H 224.37 3.11556 -0.184166 0
M  V30 2372 N 224.671 0.411399 1.52136 0
M  V30 2373 C 225.917 -0.163888 2.02137 0
M  V30 2374 C 226.25 -1.44597 1.29636 0
M  V30 2375 O 225.525 -1.90272 0.403353 0
M  V30 2376 C 225.808 -0.40927 3.57767 0
M  V30 2377 C 225.661 0.889643 4.40914 0
M  V30 2378 C 226.98 -1.19042 4.23694 0
M  V30 2379 H 224.099 -0.0580896 0.734707 0
M  V30 2380 H 226.741 0.54531 1.82007 0
M  V30 2381 H 224.891 -1.0134 3.7505 0
M  V30 2382 H 226.563 1.52575 4.35337 0
M  V30 2383 H 224.806 1.50011 4.07037 0
M  V30 2384 H 225.477 0.672314 5.4789 0
M  V30 2385 H 227.953 -0.678942 4.10524 0
M  V30 2386 H 226.829 -1.33086 5.32522 0
M  V30 2387 H 227.09 -2.21166 3.82803 0
M  V30 2388 N 226.149 -1.5696 0.141893 0
M  V30 2389 C 227.079 -2.19516 -0.795936 0
M  V30 2390 C 228.06 -1.14187 -1.26077 0
M  V30 2391 O 229.245 -1.42511 -1.31925 0
M  V30 2392 C 226.375 -2.81272 -2.03723 0
M  V30 2393 C 225.329 -3.92384 -1.70936 0
M  V30 2394 C 224.655 -4.41052 -3.02287 0
M  V30 2395 C 225.955 -5.13403 -0.959954 0
M  V30 2396 H 227.649 -2.98138 -0.274596 0
M  V30 2397 H 225.195 -1.43406 -0.130636 0
M  V30 2398 H 227.148 -3.237 -2.69808 0
M  V30 2399 H 225.872 -1.99973 -2.58221 0
M  V30 2400 H 224.531 -3.50566 -1.07232 0
M  V30 2401 H 224.179 -3.56582 -3.54765 0
M  V30 2402 H 223.879 -5.15993 -2.81114 0
M  V30 2403 H 225.403 -4.86146 -3.69451 0
M  V30 2404 H 226.817 -5.52706 -1.52279 0
M  V30 2405 H 225.214 -5.94073 -0.848357 0
M  V30 2406 H 226.284 -4.84875 0.0492434 0
M  V30 2407 N 227.627 0.131896 -1.57047 0
M  V30 2408 C 228.557 1.16384 -2.02428 0
M  V30 2409 C 229.538 1.43936 -0.90644 0
M  V30 2410 O 230.723 1.54599 -1.17528 0
M  V30 2411 C 227.853 2.49328 -2.4177 0
M  V30 2412 C 226.807 2.36266 -3.56879 0
M  V30 2413 C 226.133 3.74057 -3.8208 0
M  V30 2414 C 227.433 1.834 -4.89042 0
M  V30 2415 H 229.127 0.786433 -2.88887 0
M  V30 2416 H 226.673 0.376855 -1.38981 0
M  V30 2417 H 228.626 3.21759 -2.7212 0
M  V30 2418 H 227.35 2.88934 -1.52266 0
M  V30 2419 H 226.009 1.66286 -3.26718 0
M  V30 2420 H 225.657 4.11125 -2.89803 0
M  V30 2421 H 225.357 3.66174 -4.59554 0
M  V30 2422 H 226.881 4.48012 -4.1487 0
M  V30 2423 H 228.295 2.45636 -5.18011 0
M  V30 2424 H 226.692 1.8637 -5.70426 0
M  V30 2425 H 227.762 0.790662 -4.7841 0
M  V30 2426 N 229.106 1.52395 0.401703 0
M  V30 2427 C 230.354 1.66488 1.14569 0
M  V30 2428 C 230.675 0.400897 1.90835 0
M  V30 2429 O 229.945 -0.584415 1.8698 0
M  V30 2430 H 228.525 0.613672 0.425929 0
M  V30 2431 H 231.187 1.89464 0.457093 0
M  V30 2432 H 230.283 2.50942 1.85566 0
M  V30 2433 N 230.584 -0.659388 1.43143 0
M  V30 2434 C 231.809 -1.45221 1.48073 0
M  V30 2435 C 232.234 -1.87845 0.097995 0
M  V30 2436 O 231.592 -1.56985 -0.90694 0
M  V30 2437 C 231.64 -2.66748 2.42647 0
M  V30 2438 O 230.744 -3.65583 1.90848 0
M  V30 2439 H 230.085 -0.435669 0.501088 0
M  V30 2440 H 232.615 -0.807432 1.87994 0
M  V30 2441 H 232.625 -3.14637 2.59745 0
M  V30 2442 H 231.3 -2.35067 3.43098 0
M  V30 2443 H 229.877 -3.24693 1.83381 0
M  V30 2444 N 232.062 -1.29571 -0.897171 0
M  V30 2445 C 233.309 -1.17689 -1.6479 0
M  V30 2446 C 233.637 0.27107 -1.92602 0
M  V30 2447 O 232.892 1.21193 -1.53658 0
M  V30 2448 C 233.191 -1.9382 -3.00281 0
M  V30 2449 C 232.857 -3.43522 -2.92068 0
M  V30 2450 C 231.519 -3.84348 -2.89535 0
M  V30 2451 C 233.871 -4.38906 -2.81089 0
M  V30 2452 C 231.199 -5.18869 -2.73846 0
M  V30 2453 C 233.551 -5.73521 -2.66939 0
M  V30 2454 C 232.215 -6.13601 -2.62774 0
M  V30 2455 H 231.485 -0.430654 -0.603008 0
M  V30 2456 H 234.132 -1.60536 -1.04404 0
M  V30 2457 H 232.437 -1.4357 -3.64547 0
M  V30 2458 H 234.134 -1.82028 -3.57305 0
M  V30 2459 H 230.724 -3.11072 -2.94842 0
M  V30 2460 H 234.908 -4.08315 -2.82121 0
M  V30 2461 H 230.164 -5.4903 -2.69027 0
M  V30 2462 H 234.338 -6.47078 -2.57416 0
M  V30 2463 H 231.965 -7.17786 -2.50375 0
M  V30 2464 N 233.54 1.10788 -1.12088 0
M  V30 2465 C 234.786 1.82942 -0.875226 0
M  V30 2466 C 235.119 1.84779 0.597538 0
M  V30 2467 O 234.394 1.30578 1.44152 0
M  V30 2468 C 234.677 3.29789 -1.44606 0
M  V30 2469 C 234.53 3.36307 -2.98693 0
M  V30 2470 C 235.849 4.26064 -1.10261 0
M  V30 2471 H 232.968 0.664195 -0.319397 0
M  V30 2472 H 235.61 1.29867 -1.38689 0
M  V30 2473 H 233.76 3.75118 -1.01089 0
M  V30 2474 H 235.432 2.99487 -3.50864 0
M  V30 2475 H 233.675 2.76318 -3.34411 0
M  V30 2476 H 234.346 4.39694 -3.33726 0
M  V30 2477 H 236.822 3.88951 -1.4784 0
M  V30 2478 H 235.698 5.27183 -1.52869 0
M  V30 2479 H 235.959 4.42098 -0.0142953 0
M  V30 2480 N 235.018 0.912232 1.28515 0
M  V30 2481 C 236.243 0.559774 1.99703 0
M  V30 2482 C 236.668 -0.851393 1.67729 0
M  V30 2483 O 236.026 -1.56875 0.908834 0
M  V30 2484 C 236.074 0.773874 3.52198 0
M  V30 2485 O 235.178 -0.167842 4.12058 0
M  V30 2486 H 234.519 0.21723 0.627461 0
M  V30 2487 H 237.049 1.22725 1.63706 0
M  V30 2488 H 237.059 0.683386 4.02236 0
M  V30 2489 H 235.734 1.80261 3.74805 0
M  V30 2490 H 234.311 -0.0287509 3.72889 0
M  V30 2491 N 236.496 -1.42363 0.676048 0
M  V30 2492 C 237.744 -2.01123 0.198437 0
M  V30 2493 C 238.065 -1.53731 -1.19966 0
M  V30 2494 O 237.335 -0.759518 -1.80577 0
M  V30 2495 H 235.915 -0.743678 0.0703721 0
M  V30 2496 H 238.577 -1.74263 0.872837 0
M  V30 2497 H 237.673 -3.11454 0.200686 0
M  V30 2498 N 237.974 -0.419461 -1.51915 0
M  V30 2499 C 238.906 0.43646 -2.25006 0
M  V30 2500 C 239.919 1.00149 -1.28351 0
M  V30 2501 O 241.108 0.898674 -1.54227 0
M  V30 2502 C 238.208 1.6206 -2.9764 0
M  V30 2503 C 237.381 1.17763 -4.21249 0
M  V30 2504 C 236.44 2.22985 -4.76617 0
M  V30 2505 O 235.466 1.83151 -5.38929 0
M  V30 2506 N 236.668 3.55271 -4.59089 0
M  V30 2507 H 239.433 -0.18989 -2.99098 0
M  V30 2508 H 236.994 -0.247386 -1.59999 0
M  V30 2509 H 238.986 2.32038 -3.31573 0
M  V30 2510 H 237.556 2.15266 -2.2667 0
M  V30 2511 H 236.776 0.305582 -3.93014 0
M  V30 2512 H 238.064 0.858781 -5.015 0
M  V30 2513 H 237.462 3.90377 -4.09417 0
M  V30 2514 H 236.019 4.21195 -4.97432 0
M  V30 2515 N 239.452 1.56882 -0.150215 0
M  V30 2516 C 240.382 2.19935 0.784284 0
M  V30 2517 C 241.363 1.14854 1.25469 0
M  V30 2518 O 242.548 1.43209 1.31168 0
M  V30 2519 C 239.678 2.82349 2.02229 0
M  V30 2520 C 238.632 3.93285 1.68853 0
M  V30 2521 C 237.958 4.42649 2.99944 0
M  V30 2522 C 239.258 5.13904 0.932714 0
M  V30 2523 H 240.952 2.9828 0.258781 0
M  V30 2524 H 238.498 1.43473 0.123029 0
M  V30 2525 H 240.451 3.25126 2.68088 0
M  V30 2526 H 239.175 2.0134 2.57157 0
M  V30 2527 H 237.834 3.5113 1.05371 0
M  V30 2528 H 237.482 3.58458 3.52869 0
M  V30 2529 H 237.182 5.17476 2.78374 0
M  V30 2530 H 238.706 4.88099 3.66868 0
M  V30 2531 H 240.12 5.53506 1.49345 0
M  V30 2532 H 238.517 5.94515 0.81684 0
M  V30 2533 H 239.587 4.84842 -0.0749568 0
M  V30 2534 N 240.93 -0.123565 1.57115 0
M  V30 2535 C 242.155 -0.850398 1.89164 0
M  V30 2536 C 242.58 -1.7286 0.741688 0
M  V30 2537 O 241.938 -1.78665 -0.307958 0
M  V30 2538 C 241.986 -1.66353 3.19936 0
M  V30 2539 O 241.09 -2.77004 3.0552 0
M  V30 2540 H 240.431 -0.235454 0.620852 0
M  V30 2541 H 242.961 -0.107335 2.04318 0
M  V30 2542 H 242.971 -2.05372 3.52543 0
M  V30 2543 H 241.646 -1.01881 4.03228 0
M  V30 2544 H 240.223 -2.41221 2.84371 0
M  V30 2545 N 242.408 -1.52605 -0.393616 0
M  V30 2546 C 243.685 -1.58001 -1.15304 0
M  V30 2547 C 244.065 -0.370385 -2.07825 0
M  V30 2548 O 243.413 0.641638 -2.19306 0
M  V30 2549 C 243.623 -2.91652 -1.91677 0
M  V30 2550 C 244.971 -3.4522 -2.47201 0
M  V30 2551 O 245.995 -2.93495 -2.01839 0
M  V30 2552 O 244.854 -4.35579 -3.3005 0
M  V30 2553 H 241.948 -0.637068 -0.527327 0
M  V30 2554 H 244.494 -1.64939 -0.399141 0
M  V30 2555 H 243.266 -3.71136 -1.23992 0
M  V30 2556 H 242.889 -2.88077 -2.74039 0
M  V30 2557 N 243.887 0.651787 -1.4349 0
M  V30 2558 C 245.303 0.96762 -1.26922 0
M  V30 2559 C 245.503 2.00602 -0.189982 0
M  V30 2560 O 244.559 2.48793 0.431107 0
M  V30 2561 C 245.872 1.45052 -2.63401 0
M  V30 2562 C 247.42 1.5671 -2.70945 0
M  V30 2563 C 247.895 2.0839 -4.07845 0
M  V30 2564 N 249.386 2.1569 -4.09917 0
M  V30 2565 C 250.121 2.56804 -5.12679 0
M  V30 2566 N 249.617 2.97203 -6.25813 0
M  V30 2567 N 251.41 2.56756 -5.00033 0
M  V30 2568 H 243.561 -0.0353158 -2.12371 0
M  V30 2569 H 245.824 0.0467858 -0.946845 0
M  V30 2570 H 245.53 0.761926 -3.43348 0
M  V30 2571 H 245.404 2.42529 -2.88894 0
M  V30 2572 H 247.791 2.2467 -1.9133 0
M  V30 2573 H 247.872 0.57662 -2.49216 0
M  V30 2574 H 247.516 1.41031 -4.87927 0
M  V30 2575 H 247.446 3.08271 -4.26938 0
M  V30 2576 H 249.937 1.87237 -3.28254 0
M  V30 2577 H 250.25 3.27328 -7.00055 0
M  V30 2578 H 248.595 2.95004 -6.29283 0
M  V30 2579 H 251.786 2.24572 -4.10713 0
M  V30 2580 H 251.959 2.88475 -5.80247 0
M  V30 2581 N 245.365 1.30045 0.890287 0
M  V30 2582 C 246.612 1.18561 1.64163 0
M  V30 2583 C 246.94 -0.260852 1.92743 0
M  V30 2584 O 246.195 -1.20376 1.54299 0
M  V30 2585 C 246.494 1.95409 2.99249 0
M  V30 2586 C 246.16 3.45066 2.90242 0
M  V30 2587 C 244.822 3.85878 2.87492 0
M  V30 2588 C 247.174 4.4039 2.78758 0
M  V30 2589 C 244.502 5.20314 2.7109 0
M  V30 2590 C 246.854 5.74928 2.63894 0
M  V30 2591 C 245.518 6.14986 2.59516 0
M  V30 2592 H 244.788 0.433846 0.600715 0
M  V30 2593 H 247.435 1.61088 1.03552 0
M  V30 2594 H 245.74 1.45501 3.63781 0
M  V30 2595 H 247.437 1.8392 3.56334 0
M  V30 2596 H 244.027 3.12631 2.93189 0
M  V30 2597 H 248.211 4.09806 2.79952 0
M  V30 2598 H 243.467 5.50449 2.66112 0
M  V30 2599 H 247.641 6.48434 2.53981 0
M  V30 2600 H 245.268 7.19104 2.46565 0
M  V30 2601 N 246.843 -1.10192 1.12674 0
M  V30 2602 C 248.091 -1.81845 0.881861 0
M  V30 2603 C 248.412 -1.85737 -0.593867 0
M  V30 2604 O 247.682 -1.33724 -1.4316 0
M  V30 2605 H 246.262 -0.673432 0.323261 0
M  V30 2606 H 248.924 -1.33316 1.42172 0
M  V30 2607 H 248.02 -2.85288 1.2656 0
M  V30 2608 N 248.321 -0.919034 -1.28029 0
M  V30 2609 C 249.737 -0.617972 -1.4715 0
M  V30 2610 C 249.937 0.835242 -1.83374 0
M  V30 2611 O 248.993 1.61388 -1.94191 0
M  V30 2612 C 250.306 -1.56041 -2.57044 0
M  V30 2613 C 251.854 -1.56769 -2.7091 0
M  V30 2614 C 252.329 -2.49688 -3.83953 0
M  V30 2615 N 253.82 -2.47845 -3.91314 0
M  V30 2616 C 254.555 -3.16437 -4.78179 0
M  V30 2617 N 254.051 -3.94376 -5.69596 0
M  V30 2618 N 255.844 -3.05498 -4.71834 0
M  V30 2619 H 247.995 -1.85866 -1.02798 0
M  V30 2620 H 250.258 -0.797506 -0.512531 0
M  V30 2621 H 249.964 -2.59671 -2.372 0
M  V30 2622 H 249.838 -1.29551 -3.54255 0
M  V30 2623 H 252.225 -0.538745 -2.90141 0
M  V30 2624 H 252.306 -1.87305 -1.74214 0
M  V30 2625 H 251.95 -3.52688 -3.65477 0
M  V30 2626 H 251.88 -2.16453 -4.80058 0
M  V30 2627 H 254.371 -1.91234 -3.25941 0
M  V30 2628 H 254.684 -4.43721 -6.32718 0
M  V30 2629 H 253.029 -3.98481 -5.69419 0
M  V30 2630 H 256.22 -2.44108 -3.99411 0
M  V30 2631 H 256.393 -3.59225 -5.39316 0
M  V30 2632 N 249.799 1.42003 -0.683588 0
M  V30 2633 C 250.746 2.30798 -0.0107309 0
M  V30 2634 C 251.716 1.4645 0.783688 0
M  V30 2635 O 252.901 1.75263 0.754156 0
M  V30 2636 C 250.041 3.3238 0.928306 0
M  V30 2637 C 249.154 4.31814 0.126776 0
M  V30 2638 C 248.289 5.20468 1.06236 0
M  V30 2639 C 247.328 6.11577 0.253035 0
M  V30 2640 N 246.465 6.92754 1.14179 0
M  V30 2641 H 251.305 2.8778 -0.773727 0
M  V30 2642 H 248.842 1.41745 -0.393283 0
M  V30 2643 H 250.8 3.89813 1.48666 0
M  V30 2644 H 249.43 2.76976 1.65783 0
M  V30 2645 H 248.482 3.76427 -0.54833 0
M  V30 2646 H 249.794 4.96276 -0.501192 0
M  V30 2647 H 248.948 5.82677 1.69035 0
M  V30 2648 H 247.687 4.56204 1.7242 0
M  V30 2649 H 246.692 5.48428 -0.388108 0
M  V30 2650 H 247.917 6.77892 -0.404839 0
M  V30 2651 H 245.863 6.3111 1.78987 0
M  V30 2652 H 245.78 7.53855 0.569111 0
M  V30 2653 H 247.048 7.59441 1.75697 0
M  V30 2654 N 251.277 0.427512 1.51691 0
M  V30 2655 C 252.225 -0.403359 2.29076 0
M  V30 2656 C 253.219 -1.02962 1.34518 0
M  V30 2657 O 254.425 -0.965715 1.51901 0
M  V30 2658 H 250.8 -0.148879 0.737115 0
M  V30 2659 H 252.771 0.270295 2.97173 0
M  V30 2660 C 251.52 -1.49763 3.13794 0
M  V30 2661 H 250.843 -1.02508 3.86435 0
M  V30 2662 H 252.283 -2.05244 3.71014 0
M  V30 2663 C 250.742 -2.47536 2.28533 0
M  V30 2664 O 251.272 -3.51848 1.93819 0
M  V30 2665 N 249.478 -2.18187 1.91945 0
M  V30 2666 H 249.025 -1.33389 2.20375 0
M  V30 2667 H 248.983 -2.83848 1.35195 0
M  V30 2668 N 252.755 -1.56801 0.158532 0
M  V30 2669 C 254.001 -1.96781 -0.490405 0
M  V30 2670 C 254.334 -1.04397 -1.63753 0
M  V30 2671 O 253.609 -0.0885805 -1.94298 0
M  V30 2672 C 253.892 -3.4635 -0.985594 0
M  V30 2673 C 253.745 -4.49512 0.160824 0
M  V30 2674 C 255.064 -3.98697 -1.86355 0
M  V30 2675 H 252.183 -0.715482 -0.176788 0
M  V30 2676 H 254.825 -1.88451 0.242088 0
M  V30 2677 H 252.975 -3.53579 -1.60978 0
M  V30 2678 H 254.647 -4.54353 0.797537 0
M  V30 2679 H 252.89 -4.26013 0.818256 0
M  V30 2680 H 253.561 -5.51531 -0.227569 0
M  V30 2681 H 256.037 -3.94019 -1.33746 0
M  V30 2682 H 254.913 -5.03792 -2.17909 0
M  V30 2683 H 255.174 -3.41744 -2.8047 0
M  V30 2684 N 254.233 0.115231 -1.57178 0
M  V30 2685 C 255.163 1.1423 -2.03651 0
M  V30 2686 C 256.144 1.42967 -0.921655 0
M  V30 2687 O 257.329 1.53343 -1.19162 0
M  V30 2688 C 254.459 2.4675 -2.44401 0
M  V30 2689 C 253.413 2.32467 -3.59365 0
M  V30 2690 C 252.739 3.69984 -3.86026 0
M  V30 2691 C 254.039 1.78203 -4.90959 0
M  V30 2692 H 255.733 0.755749 -2.89705 0
M  V30 2693 H 253.279 0.362093 -1.39373 0
M  V30 2694 H 255.232 3.18854 -2.75517 0
M  V30 2695 H 253.956 2.87302 -1.55322 0
M  V30 2696 H 252.615 1.62811 -3.28463 0
M  V30 2697 H 252.263 4.08028 -2.94147 0
M  V30 2698 H 251.963 3.61279 -4.63412 0
M  V30 2699 H 253.487 4.43587 -4.19599 0
M  V30 2700 H 254.901 2.40128 -5.20587 0
M  V30 2701 H 253.298 1.8031 -5.72371 0
M  V30 2702 H 254.368 0.739876 -4.79222 0
M  V30 2703 N 255.711 1.52812 0.385517 0
M  V30 2704 C 256.958 1.68026 1.1302 0
M  V30 2705 C 257.286 0.421934 1.89868 0
M  V30 2706 O 256.541 -0.595749 1.86412 0
M  V30 2707 C 256.84 2.86856 2.13187 0
M  V30 2708 C 256.506 4.24159 1.5297 0
M  V30 2709 C 255.168 4.61501 1.36274 0
M  V30 2710 C 257.52 5.09627 1.09223 0
M  V30 2711 C 254.848 5.81966 0.743837 0
M  V30 2712 C 257.2 6.30719 0.487411 0
M  V30 2713 C 255.864 6.6679 0.307777 0
M  V30 2714 H 255.134 0.614849 0.413571 0
M  V30 2715 H 257.781 1.86962 0.414405 0
M  V30 2716 H 256.086 2.6235 2.90998 0
M  V30 2717 H 257.783 2.95821 2.70722 0
M  V30 2718 H 254.373 3.94746 1.66954 0
M  V30 2719 H 258.557 4.81343 1.20922 0
M  V30 2720 H 253.813 6.08519 0.592891 0
M  V30 2721 H 257.987 6.96259 0.140143 0
M  V30 2722 H 255.614 7.60001 -0.173879 0
M  V30 2723 N 257.189 -0.644168 1.43834 0
M  V30 2724 C 258.152 -1.73857 1.49353 0
M  V30 2725 C 259.152 -1.56315 0.377112 0
M  V30 2726 O 260.342 -1.62048 0.639226 0
M  V30 2727 C 257.474 -3.12819 1.35488 0
M  V30 2728 H 258.667 -1.70342 2.46827 0
M  V30 2729 H 256.22 -0.856652 1.30733 0
M  V30 2730 H 256.955 -3.2194 0.390569 0
M  V30 2731 H 256.74 -3.26958 2.16428 0
M  V30 2732 H 258.23 -3.92606 1.42302 0
M  V30 2733 N 258.668 -1.30515 -0.883378 0
M  V30 2734 C 259.896 -1.22359 -1.66841 0
M  V30 2735 C 260.311 0.213296 -1.87591 0
M  V30 2736 O 259.668 1.14075 -1.42454 0
M  V30 2737 C 259.719 -1.95011 -3.04389 0
M  V30 2738 O 259.44 -3.3309 -2.84575 0
M  V30 2739 C 260.941 -1.93532 -3.98824 0
M  V30 2740 H 258.161 -0.423371 -0.520575 0
M  V30 2741 H 260.705 -1.72167 -1.10357 0
M  V30 2742 H 258.86 -1.48997 -3.57601 0
M  V30 2743 H 259.274 -3.69907 -3.71846 0
M  V30 2744 H 260.748 -2.48902 -4.92699 0
M  V30 2745 H 261.225 -0.914627 -4.29571 0
M  V30 2746 H 261.831 -2.39364 -3.51547 0
M  V30 2747 N 260.146 1.09593 -1.13257 0
M  V30 2748 C 261.079 2.15451 -0.752061 0
M  V30 2749 C 262.057 1.60493 0.260913 0
M  V30 2750 O 263.241 1.8788 0.152819 0
M  V30 2751 C 260.368 3.38506 -0.114594 0
M  V30 2752 C 259.414 4.12183 -1.09579 0
M  V30 2753 S 260.247 4.6661 -2.62745 0
M  V30 2754 C 261.403 5.92966 -2.00354 0
M  V30 2755 H 261.636 2.47395 -1.64872 0
M  V30 2756 H 259.169 1.21515 -0.952545 0
M  V30 2757 H 261.127 4.09757 0.246808 0
M  V30 2758 H 259.788 3.04784 0.759309 0
M  V30 2759 H 258.981 5.00445 -0.597545 0
M  V30 2760 H 258.583 3.46785 -1.40057 0
M  V30 2761 H 260.875 6.63882 -1.35156 0
M  V30 2762 H 261.818 6.47467 -2.86691 0
M  V30 2763 H 262.226 5.45405 -1.4558 0
M  V30 2764 N 261.624 0.925811 1.2754 0
M  V30 2765 C 262.587 0.428129 2.25166 0
M  V30 2766 C 263.587 -0.452261 1.54309 0
M  V30 2767 O 264.777 -0.253608 1.72344 0
M  V30 2768 C 261.909 -0.384749 3.38722 0
M  V30 2769 H 263.102 1.29066 2.70706 0
M  V30 2770 H 260.655 0.706323 1.3943 0
M  V30 2771 H 261.39 -1.26618 2.98561 0
M  V30 2772 H 261.175 0.246454 3.91325 0
M  V30 2773 H 262.665 -0.723389 4.11287 0
M  V30 2774 N 263.102 -1.41638 0.69111 0
M  V30 2775 C 264.348 -2.01598 0.220519 0
M  V30 2776 C 264.681 -1.54594 -1.17535 0
M  V30 2777 O 263.956 -0.755177 -1.79241 0
M  V30 2778 C 264.239 -3.59062 0.273243 0
M  V30 2779 C 264.092 -4.16203 1.70573 0
M  V30 2780 C 265.411 -4.38546 -0.369457 0
M  V30 2781 H 262.53 -0.732468 0.0816045 0
M  V30 2782 H 265.172 -1.68445 0.878986 0
M  V30 2783 H 263.322 -3.87435 -0.287411 0
M  V30 2784 H 264.994 -3.98722 2.31989 0
M  V30 2785 H 263.237 -3.71414 2.2413 0
M  V30 2786 H 263.908 -5.25358 1.69419 0
M  V30 2787 H 266.384 -4.1596 0.107977 0
M  V30 2788 H 265.26 -5.48069 -0.302002 0
M  V30 2789 H 265.521 -4.17662 -1.44951 0
M  V30 2790 N 264.58 -0.43555 -1.51462 0
M  V30 2791 C 265.512 0.41257 -2.25456 0
M  V30 2792 C 266.525 0.987822 -1.29406 0
M  V30 2793 O 267.714 0.882266 -1.55172 0
M  V30 2794 C 264.814 1.58894 -2.99342 0
M  V30 2795 C 263.987 1.13288 -4.22474 0
M  V30 2796 C 263.046 2.17917 -4.78956 0
M  V30 2797 O 262.072 1.77425 -5.40841 0
M  V30 2798 N 263.274 3.50382 -4.62832 0
M  V30 2799 H 266.039 -0.221603 -2.9888 0
M  V30 2800 H 263.6 -0.264342 -1.59727 0
M  V30 2801 H 265.592 2.28508 -3.34015 0
M  V30 2802 H 264.162 2.12849 -2.28941 0
M  V30 2803 H 263.382 0.263881 -3.93316 0
M  V30 2804 H 264.67 0.805542 -5.02383 0
M  V30 2805 H 264.068 3.86013 -4.13534 0
M  V30 2806 H 262.625 4.15895 -5.01871 0
M  V30 2807 N 266.058 1.56714 -0.166846 0
M  V30 2808 C 267.286 2.0112 0.485644 0
M  V30 2809 C 267.701 1.04705 1.57106 0
M  V30 2810 O 267.058 0.0471923 1.82439 0
M  V30 2811 C 267.109 3.45361 1.06808 0
M  V30 2812 O 266.83 4.38092 0.0259995 0
M  V30 2813 C 268.331 4.05145 1.79924 0
M  V30 2814 H 265.551 0.65931 0.124704 0
M  V30 2815 H 268.095 2.02746 -0.267262 0
M  V30 2816 H 266.25 3.44524 1.7715 0
M  V30 2817 H 266.664 5.22519 0.455398 0
M  V30 2818 H 268.138 5.08009 2.15942 0
M  V30 2819 H 268.615 3.46982 2.69258 0
M  V30 2820 H 269.221 4.09672 1.14234 0
M  V30 2821 N 267.536 -0.106894 1.57237 0
M  V30 2822 C 268.784 -0.810921 1.85117 0
M  V30 2823 C 269.105 -1.7984 0.753827 0
M  V30 2824 O 268.375 -1.94649 -0.221056 0
M  V30 2825 H 266.955 -0.302466 0.683025 0
M  V30 2826 H 269.617 -0.0913324 1.94686 0
M  V30 2827 H 268.713 -1.34875 2.81452 0
M  V30 2828 N 269.014 -1.53014 -0.377408 0
M  V30 2829 C 270.261 -1.68623 -1.12128 0
M  V30 2830 C 270.589 -0.431997 -1.89642 0
M  V30 2831 O 269.844 0.585855 -1.86725 0
M  V30 2832 C 270.143 -2.87982 -2.11663 0
M  V30 2833 C 269.809 -4.24964 -1.50719 0
M  V30 2834 C 268.471 -4.62217 -1.33825 0
M  V30 2835 C 270.823 -5.10199 -1.06519 0
M  V30 2836 C 268.151 -5.82352 -0.712963 0
M  V30 2837 C 270.503 -6.30969 -0.453955 0
M  V30 2838 C 269.167 -6.66944 -0.272411 0
M  V30 2839 H 268.437 -0.617034 -0.410305 0
M  V30 2840 H 271.084 -1.8718 -0.404484 0
M  V30 2841 H 269.389 -2.63889 -2.89603 0
M  V30 2842 H 271.086 -2.97253 -2.6915 0
M  V30 2843 H 267.676 -3.95626 -1.64858 0
M  V30 2844 H 271.86 -4.81978 -1.18368 0
M  V30 2845 H 267.116 -6.08824 -0.560611 0
M  V30 2846 H 271.29 -6.96324 -0.103217 0
M  V30 2847 H 268.917 -7.59898 0.214181 0
M  V30 2848 N 270.492 0.636531 -1.44174 0
M  V30 2849 C 271.717 1.42847 -1.50364 0
M  V30 2850 C 272.142 1.87665 -0.127867 0
M  V30 2851 O 271.5 1.58408 0.88185 0
M  V30 2852 C 271.548 2.62854 -2.4686 0
M  V30 2853 O 270.652 3.62501 -1.9664 0
M  V30 2854 H 269.993 0.427642 -0.507955 0
M  V30 2855 H 272.523 0.777422 -1.89255 0
M  V30 2856 H 272.533 3.10465 -2.64718 0
M  V30 2857 H 271.208 2.29578 -3.46795 0
M  V30 2858 H 269.785 3.21735 -1.88523 0
M  V30 2859 N 271.97 1.30982 0.876444 0
M  V30 2860 C 273.217 1.20296 1.62896 0
M  V30 2861 C 273.545 -0.240395 1.93009 0
M  V30 2862 O 272.8 -1.18733 1.55567 0
M  V30 2863 C 273.099 1.98572 2.9716 0
M  V30 2864 C 272.765 3.48125 2.86566 0
M  V30 2865 C 271.427 3.88905 2.83383 0
M  V30 2866 C 273.779 4.43322 2.74071 0
M  V30 2867 C 271.107 5.2316 2.65556 0
M  V30 2868 C 273.459 5.77695 2.57781 0
M  V30 2869 C 272.123 6.17704 2.52979 0
M  V30 2870 H 271.393 0.440193 0.59608 0
M  V30 2871 H 274.04 1.62177 1.01837 0
M  V30 2872 H 272.345 1.49352 3.62217 0
M  V30 2873 H 274.042 1.8769 3.54364 0
M  V30 2874 H 270.632 3.15723 2.89856 0
M  V30 2875 H 274.816 4.12752 2.75589 0
M  V30 2876 H 270.072 5.53241 2.60259 0
M  V30 2877 H 274.246 6.51091 2.47089 0
M  V30 2878 H 271.873 7.21678 2.38924 0
M  V30 2879 N 273.449 -1.08991 1.13837 0
M  V30 2880 C 274.379 -2.17771 0.842507 0
M  V30 2881 C 275.36 -1.6892 -0.20001 0
M  V30 2882 O 276.545 -1.94113 -0.0579731 0
M  V30 2883 C 273.675 -3.4589 0.312644 0
M  V30 2884 C 272.629 -4.08099 1.28992 0
M  V30 2885 C 271.955 -5.31098 0.619623 0
M  V30 2886 C 273.255 -4.50077 2.65005 0
M  V30 2887 H 274.949 -2.42777 1.75213 0
M  V30 2888 H 272.495 -1.16682 0.843875 0
M  V30 2889 H 274.448 -4.21297 0.0933043 0
M  V30 2890 H 273.172 -3.20419 -0.632382 0
M  V30 2891 H 271.831 -3.34717 1.49533 0
M  V30 2892 H 271.479 -5.0191 -0.33102 0
M  V30 2893 H 271.179 -5.73674 1.27167 0
M  V30 2894 H 272.703 -6.09224 0.409669 0
M  V30 2895 H 274.117 -5.16688 2.48407 0
M  V30 2896 H 272.514 -5.03553 3.26427 0
M  V30 2897 H 273.584 -3.62257 3.22332 0
M  V30 2898 N 274.927 -0.932562 -1.27047 0
M  V30 2899 C 275.859 -0.392734 -2.2581 0
M  V30 2900 C 276.872 0.479241 -1.55586 0
M  V30 2901 O 278.061 0.291078 -1.76111 0
M  V30 2902 C 275.161 0.455456 -3.35826 0
M  V30 2903 C 274.334 -0.398355 -4.35582 0
M  V30 2904 C 273.393 0.387985 -5.24768 0
M  V30 2905 O 272.419 -0.206003 -5.68827 0
M  V30 2906 N 273.621 1.68664 -5.55457 0
M  V30 2907 H 276.386 -1.24173 -2.72766 0
M  V30 2908 H 273.947 -0.800511 -1.40725 0
M  V30 2909 H 275.939 0.988692 -3.92437 0
M  V30 2910 H 274.509 1.20522 -2.88432 0
M  V30 2911 H 273.729 -1.11286 -3.78165 0
M  V30 2912 H 275.017 -0.981889 -4.99236 0
M  V30 2913 H 274.415 2.19147 -5.21528 0
M  V30 2914 H 272.972 2.1663 -6.14748 0
M  V30 2915 N 276.405 1.4127 -0.698611 0
M  V30 2916 C 277.654 2.00408 -0.227949 0
M  V30 2917 C 277.967 1.55981 1.18023 0
M  V30 2918 O 279.173 2.07699 1.74852 0
M  V30 2919 C 277.629 3.58129 -0.356636 0
M  V30 2920 C 277.237 4.11536 -1.77037 0
M  V30 2921 C 278.981 4.24466 0.0540969 0
M  V30 2922 C 276.888 5.61701 -1.85055 0
M  V30 2923 H 275.818 0.749586 -0.0814657 0
M  V30 2924 H 278.469 1.61713 -0.867249 0
M  V30 2925 H 276.851 3.94442 0.350965 0
M  V30 2926 H 278.025 3.86636 -2.50698 0
M  V30 2927 H 276.34 3.57736 -2.13105 0
M  V30 2928 H 278.937 5.34698 0.0146723 0
M  V30 2929 H 279.28 4.01687 1.09332 0
M  V30 2930 H 279.813 3.93198 -0.603337 0
M  V30 2931 H 276.552 5.89312 -2.8704 0
M  V30 2932 H 276.072 5.88519 -1.15783 0
M  V30 2933 H 277.751 6.26524 -1.61484 0
M  V30 2934 N 277.883 0.443576 1.51229 0
M  V30 2935 C 279.13 -0.120796 2.02139 0
M  V30 2936 C 279.458 -1.42166 1.32736 0
M  V30 2937 O 278.713 -1.90849 0.43301 0
M  V30 2938 C 279.012 -0.380579 3.55368 0
M  V30 2939 C 278.678 0.83523 4.43097 0
M  V30 2940 C 277.34 1.16864 4.66794 0
M  V30 2941 C 279.692 1.64601 4.94526 0
M  V30 2942 C 277.02 2.31339 5.39165 0
M  V30 2943 C 279.372 2.78181 5.68153 0
M  V30 2944 C 278.036 3.11969 5.90112 0
M  V30 2945 H 277.306 -0.0442023 0.73968 0
M  V30 2946 H 279.953 0.592046 1.82118 0
M  V30 2947 H 278.258 -1.17538 3.73754 0
M  V30 2948 H 279.955 -0.830777 3.923 0
M  V30 2949 H 276.545 0.565437 4.24854 0
M  V30 2950 H 280.729 1.40163 4.76097 0
M  V30 2951 H 275.985 2.57823 5.5438 0
M  V30 2952 H 280.159 3.41371 6.06992 0
M  V30 2953 H 277.786 4.00784 6.45969 0
M  V30 2954 N 279.361 -1.56624 0.175154 0
M  V30 2955 C 280.586 -2.01813 -0.478137 0
M  V30 2956 C 281.011 -1.05457 -1.55757 0
M  V30 2957 O 280.369 -0.0347439 -1.81267 0
M  V30 2958 C 280.417 -3.45581 -1.02987 0
M  V30 2959 O 279.521 -3.52305 -2.14371 0
M  V30 2960 H 278.862 -0.65413 -0.114059 0
M  V30 2961 H 281.392 -2.02673 0.280173 0
M  V30 2962 H 281.402 -3.84965 -1.35151 0
M  V30 2963 H 280.077 -4.1521 -0.239556 0
M  V30 2964 H 278.654 -3.24783 -1.83222 0
M  V30 2965 N 280.839 0.0985539 -1.57292 0
M  V30 2966 C 282.088 0.801358 -1.85098 0
M  V30 2967 C 282.401 1.80066 -0.763902 0
M  V30 2968 O 283.607 2.55112 -0.928981 0
M  V30 2969 C 282.063 1.47599 -3.28242 0
M  V30 2970 C 281.671 0.516624 -4.45011 0
M  V30 2971 C 283.415 2.16272 -3.65276 0
M  V30 2972 C 281.322 1.19564 -5.79188 0
M  V30 2973 H 280.252 0.303022 -0.69043 0
M  V30 2974 H 282.903 0.0542623 -1.8342 0
M  V30 2975 H 281.285 2.27042 -3.2445 0
M  V30 2976 H 282.459 -0.246065 -4.60143 0
M  V30 2977 H 280.774 -0.064227 -4.1635 0
M  V30 2978 H 283.371 2.67802 -4.62803 0
M  V30 2979 H 283.714 2.95009 -2.93727 0
M  V30 2980 H 284.247 1.43693 -3.70941 0
M  V30 2981 H 280.986 0.449157 -6.53959 0
M  V30 2982 H 280.506 1.92984 -5.67906 0
M  V30 2983 H 282.185 1.7231 -6.23633 0
M  V30 2984 N 282.317 1.53212 0.369288 0
M  V30 2985 C 283.542 1.73423 1.1375 0
M  V30 2986 C 283.967 0.460404 1.82378 0
M  V30 2987 O 283.325 -0.585298 1.71592 0
M  V30 2988 C 283.373 2.89769 2.1463 0
M  V30 2989 O 282.477 2.58119 3.21634 0
M  V30 2990 H 281.818 0.576061 0.330227 0
M  V30 2991 H 284.348 2.00083 0.427547 0
M  V30 2992 H 284.358 3.15829 2.58294 0
M  V30 2993 H 283.033 3.8217 1.64071 0
M  V30 2994 H 281.61 2.42864 2.82969 0
M  V30 2995 N 283.795 -0.628877 1.44509 0
M  V30 2996 C 285.041 -1.38863 1.48623 0
M  V30 2997 C 285.396 -1.92038 0.117933 0
M  V30 2998 O 284.689 -1.70853 -0.86716 0
M  V30 2999 C 284.883 -2.56995 2.48371 0
M  V30 3000 C 284.712 -2.15385 3.94765 0
M  V30 3001 C 283.482 -2.02558 4.62924 0
M  V30 3002 C 285.68 -1.74158 4.83915 0
M  V30 3003 N 283.662 -1.54534 5.94132 0
M  V30 3004 C 285.033 -1.37396 6.04584 0
M  V30 3005 C 287.088 -1.61559 4.7096 0
M  V30 3006 C 285.791 -0.892948 7.13736 0
M  V30 3007 C 287.817 -1.14862 5.80139 0
M  V30 3008 C 287.179 -0.790516 6.9995 0
M  V30 3009 H 283.278 -0.502858 0.59888 0
M  V30 3010 H 285.862 -0.72121 1.8085 0
M  V30 3011 H 284.033 -3.21362 2.1813 0
M  V30 3012 H 285.765 -3.23801 2.42766 0
M  V30 3013 H 282.52 -2.23082 4.1777 0
M  V30 3014 H 282.944 -1.32815 6.63844 0
M  V30 3015 H 287.586 -1.87876 3.78764 0
M  V30 3016 H 285.304 -0.617291 8.05739 0
M  V30 3017 H 288.89 -1.05569 5.72142 0
M  V30 3018 H 287.77 -0.434713 7.82994 0
M  V30 3019 N 285.273 -1.31445 -0.869486 0
M  V30 3020 C 286.183 -1.21097 -2.0093 0
M  V30 3021 C 287.199 -0.127584 -1.73532 0
M  V30 3022 O 288.375 -0.345477 -1.98415 0
M  V30 3023 C 285.44 -0.919378 -3.34288 0
M  V30 3024 C 284.501 -2.08971 -3.75006 0
M  V30 3025 C 283.734 -1.81194 -5.02001 0
M  V30 3026 O 283.957 -0.747296 -5.65484 0
M  V30 3027 O 282.891 -2.66883 -5.39497 0
M  V30 3028 H 286.717 -2.16883 -2.12592 0
M  V30 3029 H 284.302 -1.11189 -0.997868 0
M  V30 3030 H 286.184 -0.772625 -4.14257 0
M  V30 3031 H 284.859 0.00844772 -3.23699 0
M  V30 3032 H 283.766 -2.29187 -2.95676 0
M  V30 3033 H 285.099 -2.9998 -3.90221 0
M  V30 3034 N 286.751 1.08385 -1.14413 0
M  V30 3035 C 287.684 2.14642 -0.774871 0
M  V30 3036 C 288.662 1.60761 0.243876 0
M  V30 3037 O 289.846 1.88031 0.132883 0
M  V30 3038 C 286.973 3.38366 -0.150491 0
M  V30 3039 C 286.019 4.10997 -1.13945 0
M  V30 3040 S 286.852 4.63797 -2.67679 0
M  V30 3041 C 288.008 5.90808 -2.06631 0
M  V30 3042 H 288.241 2.45633 -1.67487 0
M  V30 3043 H 285.774 1.20498 -0.96538 0
M  V30 3044 H 287.732 4.09996 0.203334 0
M  V30 3045 H 286.393 3.05572 0.72694 0
M  V30 3046 H 285.586 4.99783 -0.65059 0
M  V30 3047 H 285.188 3.4528 -1.43727 0
M  V30 3048 H 287.48 6.62411 -1.4219 0
M  V30 3049 H 288.423 6.4439 -2.93542 0
M  V30 3050 H 288.831 5.4383 -1.51357 0
M  V30 3051 N 288.23 0.939286 1.26551 0
M  V30 3052 C 289.477 0.585847 1.9384 0
M  V30 3053 C 289.805 -0.874784 1.73718 0
M  V30 3054 O 289.06 -1.64092 1.06642 0
M  V30 3055 C 289.359 0.872106 3.46596 0
M  V30 3056 C 289.025 2.31632 3.86856 0
M  V30 3057 C 287.687 2.71111 3.97558 0
M  V30 3058 C 290.039 3.25494 4.07066 0
M  V30 3059 C 287.367 4.03553 4.25866 0
M  V30 3060 C 289.719 4.57531 4.36862 0
M  V30 3061 C 288.383 4.96828 4.45778 0
M  V30 3062 H 287.653 0.214377 0.709312 0
M  V30 3063 H 290.3 1.18544 1.50398 0
M  V30 3064 H 288.605 0.18996 3.91339 0
M  V30 3065 H 290.302 0.577442 3.96821 0
M  V30 3066 H 286.892 2.00008 3.79071 0
M  V30 3067 H 291.076 2.9619 3.98227 0
M  V30 3068 H 286.332 4.33665 4.30981 0
M  V30 3069 H 290.506 5.30254 4.51446 0
M  V30 3070 H 288.133 5.99482 4.67468 0
M  V30 3071 N 289.708 -1.40897 0.706093 0
M  V30 3072 C 290.936 -2.05373 0.250887 0
M  V30 3073 C 291.351 -1.53172 -1.10381 0
M  V30 3074 O 290.708 -0.684305 -1.69185 0
M  V30 3075 C 290.759 -3.6088 0.211571 0
M  V30 3076 O 290.48 -4.11153 1.51276 0
M  V30 3077 C 291.981 -4.42517 -0.263346 0
M  V30 3078 H 289.201 -0.66115 0.114552 0
M  V30 3079 H 291.745 -1.80479 0.961635 0
M  V30 3080 H 289.9 -3.84777 -0.450073 0
M  V30 3081 H 290.314 -5.05279 1.40689 0
M  V30 3082 H 291.788 -5.51479 -0.239718 0
M  V30 3083 H 292.265 -4.19396 -1.30397 0
M  V30 3084 H 292.871 -4.23708 0.367677 0
M  V30 3085 N 291.186 -0.45159 -1.50991 0
M  V30 3086 C 292.432 0.110237 -2.025 0
M  V30 3087 C 292.765 1.41109 -1.33424 0
M  V30 3088 O 292.04 1.89135 -0.453659 0
M  V30 3089 C 292.323 0.314271 -3.58726 0
M  V30 3090 C 292.176 -1.00623 -4.38401 0
M  V30 3091 C 293.495 1.07767 -4.26702 0
M  V30 3092 H 290.614 0.0385897 -0.735989 0
M  V30 3093 H 293.256 -0.593374 -1.80497 0
M  V30 3094 H 291.406 0.913601 -3.77605 0
M  V30 3095 H 293.078 -1.64064 -4.31139 0
M  V30 3096 H 291.321 -1.6075 -4.02917 0
M  V30 3097 H 291.992 -0.817341 -5.45915 0
M  V30 3098 H 294.468 0.56986 -4.12179 0
M  V30 3099 H 293.344 1.18921 -5.35863 0
M  V30 3100 H 293.605 2.10939 -3.88532 0
M  V30 3101 N 292.664 1.56529 -0.183458 0
M  V30 3102 C 293.594 2.21549 0.737456 0
M  V30 3103 C 294.575 1.17489 1.23005 0
M  V30 3104 O 295.76 1.45959 1.281 0
M  V30 3105 C 292.89 2.86575 1.96194 0
M  V30 3106 C 291.844 3.96778 1.60473 0
M  V30 3107 C 291.17 4.48911 2.90487 0
M  V30 3108 C 292.47 5.15767 0.823497 0
M  V30 3109 H 294.164 2.98761 0.195453 0
M  V30 3110 H 291.71 1.43702 0.0925686 0
M  V30 3111 H 293.663 3.30739 2.61131 0
M  V30 3112 H 292.387 2.06749 2.52828 0
M  V30 3113 H 291.046 3.53286 0.978997 0
M  V30 3114 H 290.694 3.65862 3.45186 0
M  V30 3115 H 290.394 5.23265 2.67335 0
M  V30 3116 H 291.918 4.95771 3.56432 0
M  V30 3117 H 293.332 5.56549 1.37571 0
M  V30 3118 H 291.729 5.96114 0.690551 0
M  V30 3119 H 292.799 4.84574 -0.177782 0
M  V30 3120 N 294.142 -0.090211 1.57342 0
M  V30 3121 C 295.389 -0.792807 1.86335 0
M  V30 3122 C 295.717 -1.78494 0.772662 0
M  V30 3123 O 294.972 -1.94305 -0.233258 0
M  V30 3124 C 295.271 -1.55222 3.21933 0
M  V30 3125 C 294.937 -0.701765 4.45406 0
M  V30 3126 C 293.599 -0.467334 4.78925 0
M  V30 3127 C 295.951 -0.11086 5.21082 0
M  V30 3128 C 293.279 0.367785 5.85546 0
M  V30 3129 C 295.631 0.711609 6.28585 0
M  V30 3130 C 294.295 0.956086 6.60617 0
M  V30 3131 H 293.565 -0.290109 0.681849 0
M  V30 3132 H 296.212 -0.0541332 1.91423 0
M  V30 3133 H 294.517 -2.3626 3.12551 0
M  V30 3134 H 296.214 -2.10032 3.41595 0
M  V30 3135 H 292.804 -0.894598 4.1916 0
M  V30 3136 H 296.988 -0.279129 4.95514 0
M  V30 3137 H 292.244 0.566128 6.08773 0
M  V30 3138 H 296.418 1.17632 6.86393 0
M  V30 3139 H 294.045 1.60499 7.43064 0
M  V30 3140 N 295.62 -1.53406 -0.361157 0
M  V30 3141 C 296.866 -1.70054 -1.10496 0
M  V30 3142 C 297.199 -0.453278 -1.88836 0
M  V30 3143 O 296.474 0.5495 -1.86576 0
M  V30 3144 C 296.757 -2.95317 -2.06058 0
M  V30 3145 C 296.61 -4.3021 -1.31298 0
M  V30 3146 C 297.929 -3.16193 -3.06121 0
M  V30 3147 H 295.048 -0.618799 -0.400321 0
M  V30 3148 H 297.69 -1.86052 -0.385318 0
M  V30 3149 H 295.84 -2.81809 -2.67425 0
M  V30 3150 H 297.512 -4.55538 -0.726807 0
M  V30 3151 H 295.755 -4.29421 -0.614853 0
M  V30 3152 H 296.426 -5.14 -2.01265 0
M  V30 3153 H 298.902 -3.28916 -2.5486 0
M  V30 3154 H 297.778 -4.05266 -3.70204 0
M  V30 3155 H 298.039 -2.31676 -3.76535 0
M  V30 3156 N 297.098 0.621204 -1.44841 0
M  V30 3157 C 298.347 1.37658 -1.47422 0
M  V30 3158 C 298.66 1.95264 -0.114629 0
M  V30 3159 O 299.866 2.71494 -0.0180199 0
M  V30 3160 C 298.322 2.49285 -2.59586 0
M  V30 3161 C 297.93 1.98149 -4.01797 0
M  V30 3162 C 299.674 3.26409 -2.71399 0
M  V30 3163 C 297.581 3.07178 -5.05367 0
M  V30 3164 H 296.511 0.517344 -0.548517 0
M  V30 3165 H 299.162 0.667257 -1.70938 0
M  V30 3166 H 297.544 3.22839 -2.29328 0
M  V30 3167 H 298.718 1.31395 -4.41669 0
M  V30 3168 H 297.033 1.33812 -3.94314 0
M  V30 3169 H 299.63 4.07706 -3.45948 0
M  V30 3170 H 299.973 3.76535 -1.77559 0
M  V30 3171 H 300.506 2.5995 -3.01116 0
M  V30 3172 H 297.245 2.61985 -6.00869 0
M  V30 3173 H 296.765 3.72542 -4.70077 0
M  V30 3174 H 298.444 3.71789 -5.29511 0
M  V30 3175 N 298.576 1.31904 0.862503 0
M  V30 3176 C 299.822 1.22197 1.61851 0
M  V30 3177 C 300.155 -0.217641 1.92977 0
M  V30 3178 O 299.43 -1.15264 1.56666 0
M  V30 3179 C 299.713 2.07378 2.94391 0
M  V30 3180 C 299.566 3.59678 2.70096 0
M  V30 3181 C 300.885 1.92891 3.95577 0
M  V30 3182 H 298.004 0.445255 0.587296 0
M  V30 3183 H 300.646 1.6177 0.99651 0
M  V30 3184 H 298.796 1.73758 3.47477 0
M  V30 3185 H 300.468 4.03472 2.23625 0
M  V30 3186 H 298.711 3.82735 2.04197 0
M  V30 3187 H 299.382 4.14595 3.64438 0
M  V30 3188 H 301.858 2.22327 3.51724 0
M  V30 3189 H 300.734 2.54781 4.86187 0
M  V30 3190 H 300.995 0.894315 4.3296 0
M  V30 3191 N 300.054 -1.07777 1.14986 0
M  V30 3192 C 301.302 -1.79934 0.920235 0
M  V30 3193 C 301.623 -1.86955 -0.554336 0
M  V30 3194 O 300.893 -1.36731 -1.40291 0
M  V30 3195 H 299.473 -0.666424 0.337473 0
M  V30 3196 H 302.135 -1.3027 1.44968 0
M  V30 3197 H 301.231 -2.82539 1.32583 0
M  V30 3198 N 301.532 -0.945985 -1.26051 0
M  V30 3199 C 302.465 -0.403619 -2.24602 0
M  V30 3200 C 303.443 0.510241 -1.54387 0
M  V30 3201 O 304.627 0.446593 -1.83133 0
M  V30 3202 C 301.754 0.419564 -3.36091 0
M  V30 3203 C 300.8 -0.433454 -4.24292 0
M  V30 3204 S 301.633 -1.86037 -5.02146 0
M  V30 3205 C 302.789 -1.04538 -6.17108 0
M  V30 3206 H 303.022 -1.23883 -2.7026 0
M  V30 3207 H 300.555 -0.749438 -1.34992 0
M  V30 3208 H 302.513 0.888595 -4.00767 0
M  V30 3209 H 301.174 1.22951 -2.89036 0
M  V30 3210 H 300.367 0.197486 -5.03613 0
M  V30 3211 H 299.969 -0.837357 -3.64506 0
M  V30 3212 H 302.261 -0.289923 -6.76879 0
M  V30 3213 H 303.204 -1.81222 -6.84518 0
M  V30 3214 H 303.612 -0.579319 -5.61519 0
M  V30 3215 N 303.011 1.40521 -0.713556 0
M  V30 3216 C 304.259 2.00527 -0.251692 0
M  V30 3217 C 304.58 1.56857 1.15848 0
M  V30 3218 O 303.85 0.807127 1.785 0
M  V30 3219 H 302.43 0.741551 -0.0900646 0
M  V30 3220 H 305.092 1.71887 -0.918733 0
M  V30 3221 H 304.188 3.10813 -0.283192 0
M  V30 3222 N 304.489 0.459591 1.5075 0
M  V30 3223 C 305.421 -0.37665 2.26084 0
M  V30 3224 C 306.434 -0.967109 1.30961 0
M  V30 3225 O 307.623 -0.857468 1.56556 0
M  V30 3226 C 304.723 -1.54112 3.01832 0
M  V30 3227 C 303.896 -1.06553 4.24223 0
M  V30 3228 C 302.955 -2.1027 4.82362 0
M  V30 3229 O 301.981 -1.68798 5.43595 0
M  V30 3230 N 303.183 -3.42974 4.68347 0
M  V30 3231 H 305.948 0.269124 2.98489 0
M  V30 3232 H 303.509 0.28972 1.59287 0
M  V30 3233 H 305.501 -2.23165 3.37608 0
M  V30 3234 H 304.071 -2.0918 2.32298 0
M  V30 3235 H 303.291 -0.201274 3.93686 0
M  V30 3236 H 304.579 -0.725516 5.03601 0
M  V30 3237 H 303.977 -3.79385 4.19623 0
M  V30 3238 H 302.534 -4.07858 5.08424 0
M  V30 3239 N 305.967 -1.56429 0.191757 0
M  V30 3240 C 307.216 -1.9666 -0.448088 0
M  V30 3241 C 307.529 -1.08136 -1.62991 0
M  V30 3242 O 308.735 -1.38135 -2.33733 0
M  V30 3243 C 307.191 -3.49753 -0.848585 0
M  V30 3244 C 306.799 -4.46935 0.308764 0
M  V30 3245 C 308.543 -3.9876 -1.4557 0
M  V30 3246 C 306.45 -5.91293 -0.112506 0
M  V30 3247 H 305.38 -0.734312 -0.171179 0
M  V30 3248 H 308.031 -1.81301 0.283242 0
M  V30 3249 H 306.413 -3.60604 -1.63649 0
M  V30 3250 H 307.587 -4.47813 1.08627 0
M  V30 3251 H 305.902 -4.08102 0.827158 0
M  V30 3252 H 308.499 -5.04086 -1.78328 0
M  V30 3253 H 308.842 -3.42875 -2.36099 0
M  V30 3254 H 309.375 -3.9101 -0.731836 0
M  V30 3255 H 306.114 -6.51097 0.758514 0
M  V30 3256 H 305.634 -5.93676 -0.854941 0
M  V30 3257 H 307.313 -6.44663 -0.549448 0
M  V30 3258 N 307.445 0.0818655 -1.57387 0
M  V30 3259 C 308.67 0.799946 -1.91352 0
M  V30 3260 C 309.095 1.70833 -0.787258 0
M  V30 3261 O 308.453 1.79419 0.26048 0
M  V30 3262 C 308.501 1.57812 -3.24234 0
M  V30 3263 O 307.605 2.68806 -3.12757 0
M  V30 3264 H 306.946 0.21891 -0.626877 0
M  V30 3265 H 309.476 0.0531256 -2.04531 0
M  V30 3266 H 309.486 1.95952 -3.57864 0
M  V30 3267 H 308.161 0.911548 -4.05788 0
M  V30 3268 H 306.738 2.33597 -2.90666 0
M  V30 3269 N 308.923 1.53595 0.353017 0
M  V30 3270 C 309.871 1.81605 1.45335 0
M  V30 3271 C 310.865 0.685923 1.54892 0
M  V30 3272 O 312.071 0.869095 1.57628 0
M  V30 3273 H 308.446 0.575204 0.484401 0
M  V30 3274 H 310.417 2.73679 1.18921 0
M  V30 3275 C 309.166 2.03406 2.81995 0
M  V30 3276 H 308.489 2.89814 2.75405 0
M  V30 3277 H 309.929 2.26975 3.58132 0
M  V30 3278 C 308.388 0.816794 3.26849 0
M  V30 3279 O 308.918 0.0115856 4.01698 0
M  V30 3280 N 307.124 0.636682 2.8354 0
M  V30 3281 H 306.671 1.2931 2.22793 0
M  V30 3282 H 306.629 -0.176336 3.13905 0
M  V30 3283 N 310.401 -0.613514 1.45168 0
M  V30 3284 C 311.631 -1.39743 1.52169 0
M  V30 3285 C 312.039 -1.88596 0.151086 0
M  V30 3286 O 311.382 -1.6251 -0.856521 0
M  V30 3287 C 311.444 -2.64035 2.43979 0
M  V30 3288 C 311.108 -2.36861 3.90827 0
M  V30 3289 C 312.105 -1.97591 4.80889 0
M  V30 3290 C 309.79 -2.49956 4.35692 0
M  V30 3291 C 311.784 -1.71768 6.1382 0
M  V30 3292 C 309.471 -2.23747 5.68665 0
M  V30 3293 C 310.469 -1.84714 6.57548 0
M  V30 3294 O 310.157 -1.58809 7.88058 0
M  V30 3295 H 309.889 -0.434382 0.517966 0
M  V30 3296 H 312.443 -0.75587 1.90986 0
M  V30 3297 H 310.673 -3.3089 2.00122 0
M  V30 3298 H 312.362 -3.26069 2.41731 0
M  V30 3299 H 313.128 -1.87015 4.47493 0
M  V30 3300 H 309.007 -2.79305 3.66756 0
M  V30 3301 H 312.551 -1.41227 6.83155 0
M  V30 3302 H 308.448 -2.33938 6.01617 0
M  V30 3303 H 309.216 -1.7291 8.00028 0
M  V30 3304 N 311.879 -1.3236 -0.855495 0
M  V30 3305 C 313.125 -1.23054 -1.612 0
M  V30 3306 C 313.458 0.207404 -1.93089 0
M  V30 3307 O 312.733 1.14432 -1.57275 0
M  V30 3308 C 313.016 -2.08937 -2.93287 0
M  V30 3309 C 312.869 -3.61105 -2.68185 0
M  V30 3310 C 314.188 -1.94986 -3.94549 0
M  V30 3311 H 311.307 -0.448364 -0.584926 0
M  V30 3312 H 313.949 -1.62297 -0.987917 0
M  V30 3313 H 312.099 -1.75599 -3.46551 0
M  V30 3314 H 313.771 -4.04652 -2.21483 0
M  V30 3315 H 312.014 -3.83813 -2.02164 0
M  V30 3316 H 312.685 -4.16522 -3.62234 0
M  V30 3317 H 315.161 -2.24189 -3.5054 0
M  V30 3318 H 314.037 -2.57356 -4.84829 0
M  V30 3319 H 314.298 -0.917263 -4.3248 0
M  V30 3320 N 313.357 1.07166 -1.15556 0
M  V30 3321 C 314.603 1.80065 -0.932984 0
M  V30 3322 C 314.936 1.86586 0.53845 0
M  V30 3323 O 314.211 1.35098 1.39924 0
M  V30 3324 C 314.494 3.25022 -1.55025 0
M  V30 3325 C 314.347 3.26634 -3.09242 0
M  V30 3326 C 315.666 4.22341 -1.2376 0
M  V30 3327 H 312.785 0.653697 -0.340366 0
M  V30 3328 H 315.427 1.25389 -1.4275 0
M  V30 3329 H 313.577 3.71712 -1.12972 0
M  V30 3330 H 315.249 2.88173 -3.60214 0
M  V30 3331 H 313.492 2.65539 -3.43033 0
M  V30 3332 H 314.163 4.28854 -3.47546 0
M  V30 3333 H 316.639 3.8405 -1.60139 0
M  V30 3334 H 315.515 5.22053 -1.69564 0
M  V30 3335 H 315.776 4.41828 -0.154938 0
M  V30 3336 N 314.835 0.952656 1.25548 0
M  V30 3337 C 315.798 0.475794 2.24207 0
M  V30 3338 C 316.798 -0.419428 1.55234 0
M  V30 3339 O 317.988 -0.216994 1.72843 0
M  V30 3340 C 315.12 -0.312814 3.39462 0
M  V30 3341 H 316.313 1.34779 2.67908 0
M  V30 3342 H 313.866 0.735739 1.37901 0
M  V30 3343 H 314.601 -1.20257 3.01179 0
M  V30 3344 H 314.386 0.329404 3.90714 0
M  V30 3345 H 315.876 -0.635986 4.12729 0
M  V30 3346 N 316.313 -1.40141 0.720998 0
M  V30 3347 C 317.56 -2.00787 0.262842 0
M  V30 3348 C 317.888 -1.5718 -1.14563 0
M  V30 3349 O 317.143 -0.785391 -1.79249 0
M  V30 3350 C 317.442 -3.56165 0.296892 0
M  V30 3351 C 317.108 -4.19373 1.65641 0
M  V30 3352 C 315.77 -4.36352 2.02855 0
M  V30 3353 C 318.122 -4.54578 2.54968 0
M  V30 3354 C 315.45 -4.8582 3.28931 0
M  V30 3355 C 317.802 -5.05447 3.80402 0
M  V30 3356 C 316.466 -5.20635 4.17726 0
M  V30 3357 H 315.736 -0.734731 0.0961807 0
M  V30 3358 H 318.383 -1.67673 0.925093 0
M  V30 3359 H 316.688 -3.8922 -0.448932 0
M  V30 3360 H 318.385 -4.00929 -0.0755208 0
M  V30 3361 H 314.975 -4.06549 1.35704 0
M  V30 3362 H 319.159 -4.41091 2.27491 0
M  V30 3363 H 314.415 -4.95764 3.57811 0
M  V30 3364 H 318.589 -5.31663 4.49786 0
M  V30 3365 H 316.216 -5.58728 5.15487 0
M  V30 3366 N 317.792 -0.46758 -1.50504 0
M  V30 3367 C 319.041 0.0902868 -2.01498 0
M  V30 3368 C 319.354 1.411 -1.35463 0
M  V30 3369 O 320.56 2.0536 -1.77594 0
M  V30 3370 C 319.016 0.21142 -3.59278 0
M  V30 3371 C 318.624 -1.10065 -4.34269 0
M  V30 3372 C 320.368 0.721433 -4.18325 0
M  V30 3373 C 318.275 -0.943505 -5.83825 0
M  V30 3374 H 317.205 0.037517 -0.753066 0
M  V30 3375 H 319.856 -0.601943 -1.73346 0
M  V30 3376 H 318.238 0.967352 -3.84003 0
M  V30 3377 H 319.412 -1.86726 -4.21272 0
M  V30 3378 H 317.727 -1.5415 -3.86816 0
M  V30 3379 H 320.324 0.85598 -5.27804 0
M  V30 3380 H 320.667 1.71186 -3.79475 0
M  V30 3381 H 321.2 0.0229843 -3.97793 0
M  V30 3382 H 317.939 -1.90719 -6.27141 0
M  V30 3383 H 317.459 -0.217213 -5.99407 0
M  V30 3384 H 319.138 -0.608715 -6.4413 0
M  V30 3385 N 319.27 1.56325 -0.20005 0
M  V30 3386 C 320.2 2.22318 0.713916 0
M  V30 3387 C 321.181 1.18788 1.21752 0
M  V30 3388 O 322.366 1.47309 1.26545 0
M  V30 3389 C 319.496 2.88639 1.93144 0
M  V30 3390 C 318.45 3.98457 1.56255 0
M  V30 3391 C 317.776 4.51967 2.85709 0
M  V30 3392 C 319.076 5.16612 0.768747 0
M  V30 3393 H 320.77 2.98952 0.163755 0
M  V30 3394 H 318.316 1.43792 0.0773219 0
M  V30 3395 H 320.269 3.33491 2.57608 0
M  V30 3396 H 318.993 2.09419 2.50621 0
M  V30 3397 H 317.652 3.54305 0.941471 0
M  V30 3398 H 317.3 3.69503 3.41287 0
M  V30 3399 H 317 5.26071 2.6177 0
M  V30 3400 H 318.524 4.99523 3.51154 0
M  V30 3401 H 319.938 5.57977 1.3166 0
M  V30 3402 H 318.335 5.96812 0.627286 0
M  V30 3403 H 319.405 4.84358 -0.229168 0
M  V30 3404 N 320.748 -0.0735177 1.57428 0
M  V30 3405 C 321.996 -0.771472 1.86796 0
M  V30 3406 C 322.317 -1.78201 0.791804 0
M  V30 3407 O 321.587 -1.95074 -0.179718 0
M  V30 3408 H 320.167 -0.28791 0.689287 0
M  V30 3409 H 322.829 -0.0500161 1.94836 0
M  V30 3410 H 321.925 -1.28874 2.8425 0
M  V30 3411 N 322.226 -1.5378 -0.344866 0
M  V30 3412 C 323.454 -1.74899 -1.10534 0
M  V30 3413 C 323.869 -0.487534 -1.82397 0
M  V30 3414 O 323.226 0.540741 -1.74305 0
M  V30 3415 C 323.277 -2.92822 -2.11984 0
M  V30 3416 O 322.998 -4.14089 -1.43044 0
M  V30 3417 C 324.499 -3.25982 -3.00417 0
M  V30 3418 H 321.719 -0.584426 -0.329678 0
M  V30 3419 H 324.263 -2.006 -0.397474 0
M  V30 3420 H 322.418 -2.69457 -2.78338 0
M  V30 3421 H 322.832 -4.80272 -2.10805 0
M  V30 3422 H 324.306 -4.11848 -3.67539 0
M  V30 3423 H 324.783 -2.42228 -3.66363 0
M  V30 3424 H 325.389 -3.51349 -2.39654 0
M  V30 3425 N 323.704 0.605807 -1.45491 0
M  V30 3426 C 324.614 1.74466 -1.56839 0
M  V30 3427 C 325.63 1.68006 -0.452772 0
M  V30 3428 O 326.806 1.8833 -0.713708 0
M  V30 3429 C 323.871 3.10931 -1.53371 0
M  V30 3430 C 322.932 3.28832 -2.75986 0
M  V30 3431 C 322.165 4.58787 -2.72673 0
M  V30 3432 O 322.388 5.4122 -1.80102 0
M  V30 3433 O 321.322 4.79438 -3.63899 0
M  V30 3434 H 325.148 1.67843 -2.53106 0
M  V30 3435 H 322.733 0.770108 -1.28022 0
M  V30 3436 H 324.615 3.92233 -1.54051 0
M  V30 3437 H 323.29 3.18042 -0.602572 0
M  V30 3438 H 322.197 2.47112 -2.80867 0
M  V30 3439 H 323.53 3.26599 -3.68231 0
M  V30 3440 N 325.182 1.32811 0.848464 0
M  V30 3441 C 326.431 1.23075 1.59798 0
M  V30 3442 C 326.744 -0.204419 1.94529 0
M  V30 3443 O 327.95 -0.423701 2.68173 0
M  V30 3444 C 326.406 2.15594 2.88179 0
M  V30 3445 C 326.014 3.64228 2.60849 0
M  V30 3446 C 327.758 2.14709 3.66197 0
M  V30 3447 C 325.665 4.48689 3.85269 0
M  V30 3448 H 324.595 0.457091 0.599653 0
M  V30 3449 H 327.246 1.57813 0.936342 0
M  V30 3450 H 325.628 1.73778 3.55833 0
M  V30 3451 H 326.802 4.14424 2.01467 0
M  V30 3452 H 325.117 3.67306 1.96151 0
M  V30 3453 H 327.714 2.75046 4.58534 0
M  V30 3454 H 328.057 1.13966 4.00397 0
M  V30 3455 H 328.59 2.54837 3.05455 0
M  V30 3456 H 325.329 5.5027 3.56207 0
M  V30 3457 H 324.849 4.03241 4.44024 0
M  V30 3458 H 326.528 4.62006 4.52946 0
M  V30 3459 N 326.66 -1.06551 1.16123 0
M  V30 3460 C 327.59 -2.15935 0.88851 0
M  V30 3461 C 328.571 -1.69306 -0.164135 0
M  V30 3462 O 329.756 -1.94193 -0.0167857 0
M  V30 3463 C 326.886 -3.45149 0.385942 0
M  V30 3464 C 325.84 -4.05271 1.3762 0
M  V30 3465 C 325.166 -5.29664 0.732137 0
M  V30 3466 C 326.466 -4.44355 2.74493 0
M  V30 3467 H 328.16 -2.39006 1.80323 0
M  V30 3468 H 325.706 -1.14866 0.868435 0
M  V30 3469 H 327.659 -4.21004 0.182647 0
M  V30 3470 H 326.383 -3.21689 -0.564274 0
M  V30 3471 H 325.042 -3.3147 1.56599 0
M  V30 3472 H 324.69 -5.02499 -0.224483 0
M  V30 3473 H 324.39 -5.70848 1.39307 0
M  V30 3474 H 325.914 -6.08218 0.538802 0
M  V30 3475 H 327.328 -5.11303 2.59311 0
M  V30 3476 H 325.725 -4.96515 3.37035 0
M  V30 3477 H 326.795 -3.55339 3.29943 0
M  V30 3478 N 328.138 -0.959301 -1.25041 0
M  V30 3479 C 329.386 -0.615393 -1.92503 0
M  V30 3480 C 329.707 0.850969 -1.75452 0
M  V30 3481 O 328.977 1.60658 -1.12098 0
M  V30 3482 H 327.557 -0.224613 -0.712431 0
M  V30 3483 H 330.219 -1.21855 -1.5211 0
M  V30 3484 H 329.315 -0.848738 -3.00338 0
M  V30 3485 N 329.616 1.39756 -0.72842 0
M  V30 3486 C 330.563 2.30647 -0.0841519 0
M  V30 3487 C 331.533 1.48869 0.7367 0
M  V30 3488 O 332.718 1.77574 0.698015 0
M  V30 3489 C 329.858 3.35165 0.822091 0
M  V30 3490 C 328.971 4.31999 -0.0106663 0
M  V30 3491 C 328.106 5.23585 0.896241 0
M  V30 3492 C 327.145 6.12072 0.0583381 0
M  V30 3493 N 326.282 6.96035 0.920818 0
M  V30 3494 H 331.122 2.85173 -0.864891 0
M  V30 3495 H 328.659 1.40422 -0.438179 0
M  V30 3496 H 330.617 3.94345 1.36189 0
M  V30 3497 H 329.247 2.8211 1.56888 0
M  V30 3498 H 328.299 3.74492 -0.66781 0
M  V30 3499 H 329.611 4.9443 -0.658825 0
M  V30 3500 H 328.765 5.87759 1.50412 0
M  V30 3501 H 327.504 4.61459 1.57819 0
M  V30 3502 H 326.509 5.46916 -0.562389 0
M  V30 3503 H 327.734 6.76261 -0.6203 0
M  V30 3504 H 325.68 6.36485 1.58818 0
M  V30 3505 H 325.597 7.55284 0.32899 0
M  V30 3506 H 326.865 7.64646 1.51447 0
M  V30 3507 N 331.094 0.475555 1.50254 0
M  V30 3508 C 332.319 -0.0777042 2.07254 0
M  V30 3509 C 332.744 -1.3235 1.3366 0
M  V30 3510 O 332.102 -1.77152 0.385597 0
M  V30 3511 C 332.15 -0.340169 3.58992 0
M  V30 3512 O 331.254 -1.41982 3.87188 0
M  V30 3513 H 330.595 0.0149556 0.663832 0
M  V30 3514 H 333.125 0.667878 1.93392 0
M  V30 3515 H 333.135 -0.579332 4.03866 0
M  V30 3516 H 331.81 0.570167 4.11973 0
M  V30 3517 H 330.387 -1.16762 3.54148 0
M  V30 3518 N 332.573 -1.56217 0.208337 0
M  V30 3519 C 333.819 -1.98242 -0.427552 0
M  V30 3520 C 334.152 -1.09554 -1.60348 0
M  V30 3521 O 333.427 -0.15035 -1.93918 0
M  V30 3522 C 333.71 -3.4931 -0.874907 0
M  V30 3523 C 333.563 -4.48773 0.303751 0
M  V30 3524 C 334.882 -4.04424 -1.73577 0
M  V30 3525 H 332.001 -0.720744 -0.153936 0
M  V30 3526 H 334.643 -1.87586 0.30192 0
M  V30 3527 H 332.793 -3.58522 -1.49648 0
M  V30 3528 H 334.465 -4.51586 0.941682 0
M  V30 3529 H 332.708 -4.23194 0.953375 0
M  V30 3530 H 333.379 -5.51976 -0.0519883 0
M  V30 3531 H 335.855 -3.98075 -1.21143 0
M  V30 3532 H 334.731 -5.1047 -2.01771 0
M  V30 3533 H 334.992 -3.50494 -2.69456 0
M  V30 3534 N 334.051 0.0651679 -1.57465 0
M  V30 3535 C 335.467 0.420105 -1.53972 0
M  V30 3536 C 335.667 1.78782 -0.929474 0
M  V30 3537 O 334.723 2.46771 -0.534839 0
M  V30 3538 C 336.036 0.355084 -2.98596 0
M  V30 3539 C 337.584 0.434792 -3.09965 0
M  V30 3540 C 338.059 0.399609 -4.56253 0
M  V30 3541 N 339.55 0.459488 -4.60915 0
M  V30 3542 C 340.285 0.454584 -5.71595 0
M  V30 3543 N 339.781 0.404102 -6.9162 0
M  V30 3544 N 341.574 0.501635 -5.59857 0
M  V30 3545 H 333.725 -0.830328 -1.95498 0
M  V30 3546 H 335.988 -0.312244 -0.895102 0
M  V30 3547 H 335.694 -0.583357 -3.46828 0
M  V30 3548 H 335.568 1.16275 -3.58831 0
M  V30 3549 H 337.955 1.36366 -2.61703 0
M  V30 3550 H 338.036 -0.40157 -2.52628 0
M  V30 3551 H 337.68 -0.525436 -5.05175 0
M  V30 3552 H 337.61 1.25359 -5.11461 0
M  V30 3553 H 340.101 0.502482 -3.74544 0
M  V30 3554 H 340.414 0.404468 -7.71741 0
M  V30 3555 H 338.759 0.37069 -6.94011 0
M  V30 3556 H 341.95 0.538812 -4.64989 0
M  V30 3557 H 342.123 0.494345 -6.46112 0
M  V30 3558 N 335.529 1.53961 0.336706 0
M  V30 3559 C 336.778 1.70751 1.07363 0
M  V30 3560 C 337.091 0.481061 1.89592 0
M  V30 3561 O 338.297 0.530046 2.66276 0
M  V30 3562 C 336.753 3.01965 1.95818 0
M  V30 3563 C 336.361 4.31971 1.18764 0
M  V30 3564 C 338.105 3.28121 2.69327 0
M  V30 3565 C 336.012 5.54255 2.06289 0
M  V30 3566 H 334.942 0.636292 0.404535 0
M  V30 3567 H 337.593 1.80459 0.332681 0
M  V30 3568 H 335.975 2.86132 2.7376 0
M  V30 3569 H 337.149 4.5853 0.456849 0
M  V30 3570 H 335.464 4.12481 0.569946 0
M  V30 3571 H 338.061 4.16673 3.35094 0
M  V30 3572 H 338.404 2.45426 3.36261 0
M  V30 3573 H 338.937 3.44762 1.98454 0
M  V30 3574 H 335.676 6.39513 1.43885 0
M  V30 3575 H 335.196 5.31935 2.77138 0
M  V30 3576 H 336.875 5.90159 2.65182 0
M  V30 3577 N 337.007 -0.598083 1.45811 0
M  V30 3578 C 338.256 -1.35295 1.49594 0
M  V30 3579 C 338.569 -1.95057 0.145679 0
M  V30 3580 O 339.775 -2.71431 0.0612099 0
M  V30 3581 C 338.231 -2.45124 2.63519 0
M  V30 3582 C 337.839 -1.91732 4.04899 0
M  V30 3583 C 339.583 -3.2205 2.76558 0
M  V30 3584 C 337.49 -2.991 5.1019 0
M  V30 3585 H 336.42 -0.508552 0.556679 0
M  V30 3586 H 339.071 -0.639977 1.71978 0
M  V30 3587 H 337.453 -3.19149 2.34435 0
M  V30 3588 H 338.627 -1.24352 4.43704 0
M  V30 3589 H 336.942 -1.27522 3.96393 0
M  V30 3590 H 339.539 -4.0215 3.52391 0
M  V30 3591 H 339.882 -3.73663 1.83526 0
M  V30 3592 H 340.415 -2.55127 3.05213 0
M  V30 3593 H 337.154 -2.52393 6.04961 0
M  V30 3594 H 336.674 -3.65017 4.75944 0
M  V30 3595 H 338.353 -3.63318 5.35359 0
M  V30 3596 N 338.485 -1.33259 -0.841409 0
M  V30 3597 C 339.732 -1.24572 -1.5965 0
M  V30 3598 C 340.06 0.189137 -1.93578 0
M  V30 3599 O 339.315 1.14566 -1.5866 0
M  V30 3600 C 339.614 -2.06381 -2.9179 0
M  V30 3601 C 339.28 -3.556 -2.77235 0
M  V30 3602 C 337.942 -3.96282 -2.72973 0
M  V30 3603 C 340.294 -4.50433 -2.62221 0
M  V30 3604 C 337.622 -5.30017 -2.51592 0
M  V30 3605 C 339.974 -5.84327 -2.42374 0
M  V30 3606 C 338.638 -6.24194 -2.36512 0
M  V30 3607 H 337.908 -0.455842 -0.5842 0
M  V30 3608 H 340.555 -1.6482 -0.975016 0
M  V30 3609 H 338.86 -1.58903 -3.5813 0
M  V30 3610 H 340.557 -1.97019 -3.49263 0
M  V30 3611 H 337.147 -3.23298 -2.81384 0
M  V30 3612 H 341.331 -4.19914 -2.64549 0
M  V30 3613 H 336.587 -5.59947 -2.45499 0
M  V30 3614 H 340.761 -6.57414 -2.29739 0
M  V30 3615 H 338.388 -7.27759 -2.19706 0
M  V30 3616 N 339.963 1.05934 -1.16686 0
M  V30 3617 C 341.188 1.83029 -0.975455 0
M  V30 3618 C 341.613 1.82096 0.471452 0
M  V30 3619 O 340.971 1.22443 1.33706 0
M  V30 3620 C 341.019 3.27372 -1.51195 0
M  V30 3621 O 340.123 4.06054 -0.720701 0
M  V30 3622 H 339.464 0.566194 -0.346872 0
M  V30 3623 H 341.994 1.33541 -1.55009 0
M  V30 3624 H 342.004 3.78186 -1.53099 0
M  V30 3625 H 340.679 3.27366 -2.56523 0
M  V30 3626 H 339.256 3.64812 -0.772458 0
M  V30 3627 N 341.441 0.965919 1.2453 0
M  V30 3628 C 342.669 0.644385 1.96609 0
M  V30 3629 C 343.084 -0.785823 1.71669 0
M  V30 3630 O 342.441 -1.52703 0.999399 0
M  V30 3631 C 342.492 0.907375 3.49927 0
M  V30 3632 O 342.213 2.28136 3.74013 0
M  V30 3633 C 343.714 0.599784 4.39224 0
M  V30 3634 H 340.934 0.240588 0.626385 0
M  V30 3635 H 343.478 1.29337 1.58405 0
M  V30 3636 H 341.633 0.304631 3.862 0
M  V30 3637 H 342.047 2.36002 4.68405 0
M  V30 3638 H 343.521 0.834263 5.45659 0
M  V30 3639 H 343.998 -0.465921 4.36722 0
M  V30 3640 H 344.604 1.18235 4.08535 0
M  V30 3641 N 342.919 -1.39368 0.735821 0
M  V30 3642 C 343.849 -2.33234 0.111506 0
M  V30 3643 C 344.83 -1.53954 -0.723334 0
M  V30 3644 O 346.015 -1.82344 -0.668147 0
M  V30 3645 C 343.145 -3.38057 -0.795917 0
M  V30 3646 C 342.099 -4.2795 -0.065172 0
M  V30 3647 C 341.425 -5.23479 -1.08967 0
M  V30 3648 C 342.725 -5.10741 1.09273 0
M  V30 3649 H 344.419 -2.85692 0.895571 0
M  V30 3650 H 341.965 -1.37364 0.432109 0
M  V30 3651 H 343.918 -4.02675 -1.24221 0
M  V30 3652 H 342.642 -2.8404 -1.61211 0
M  V30 3653 H 341.301 -3.64813 0.361511 0
M  V30 3654 H 340.949 -4.65758 -1.89944 0
M  V30 3655 H 340.649 -5.84472 -0.605489 0
M  V30 3656 H 342.173 -5.90974 -1.53565 0
M  V30 3657 H 343.587 -5.68699 0.724841 0
M  V30 3658 H 341.984 -5.8088 1.50659 0
M  V30 3659 H 343.054 -4.45525 1.91404 0
M  V30 3660 N 344.397 -0.483516 -1.5 0
M  V30 3661 C 345.645 0.067027 -2.01989 0
M  V30 3662 C 345.966 1.3909 -1.36671 0
M  V30 3663 O 345.236 1.88978 -0.516152 0
M  V30 3664 H 343.816 0.0277606 -0.746484 0
M  V30 3665 H 346.478 -0.636773 -1.84204 0
M  V30 3666 H 345.574 0.209484 -3.11396 0
M  V30 3667 N 345.875 1.56104 -0.216619 0
M  V30 3668 C 347.121 1.98466 0.417033 0
M  V30 3669 C 347.454 1.10403 1.59765 0
M  V30 3670 O 346.729 0.160632 1.93836 0
M  V30 3671 C 347.012 3.49769 0.85637 0
M  V30 3672 C 346.865 4.48606 -0.327546 0
M  V30 3673 C 348.184 4.05339 1.7143 0
M  V30 3674 H 345.303 0.721551 0.150112 0
M  V30 3675 H 347.945 1.87423 -0.311864 0
M  V30 3676 H 346.095 3.5931 1.47745 0
M  V30 3677 H 347.767 4.5108 -0.965618 0
M  V30 3678 H 346.01 4.22682 -0.975805 0
M  V30 3679 H 346.681 5.51995 0.0227149 0
M  V30 3680 H 349.157 3.98712 1.19031 0
M  V30 3681 H 348.033 5.11533 1.99061 0
M  V30 3682 H 348.294 3.51918 2.67593 0
M  V30 3683 N 347.353 -0.0568162 1.57498 0
M  V30 3684 C 348.593 -0.758273 1.89815 0
M  V30 3685 C 348.957 -1.73978 0.812132 0
M  V30 3686 O 350.158 -2.48744 1.01881 0
M  V30 3687 C 348.429 -1.43465 3.27342 0
M  V30 3688 S 349.988 -2.1691 3.81439 0
M  V30 3689 H 346.806 -0.251836 0.664906 0
M  V30 3690 H 349.408 -0.0137997 1.95495 0
M  V30 3691 H 348.112 -0.706693 4.0427 0
M  V30 3692 H 347.643 -2.21825 3.24896 0
M  V30 3693 H 349.658 -3.43658 3.5793 0
M  V30 3694 N 348.832 -1.54138 -0.328536 0
M  V30 3695 C 350.06 -1.76062 -1.08673 0
M  V30 3696 C 350.475 -0.506852 -1.81869 0
M  V30 3697 O 349.832 0.522223 -1.74869 0
M  V30 3698 C 349.883 -2.95054 -2.08866 0
M  V30 3699 O 349.604 -4.15583 -1.38644 0
M  V30 3700 C 351.105 -3.2915 -2.96943 0
M  V30 3701 H 348.325 -0.587889 -0.323461 0
M  V30 3702 H 350.869 -2.0101 -0.376175 0
M  V30 3703 H 349.024 -2.72394 -2.75464 0
M  V30 3704 H 349.438 -4.82481 -2.05699 0
M  V30 3705 H 350.912 -4.15723 -3.63151 0
M  V30 3706 H 351.389 -2.461 -3.63774 0
M  V30 3707 H 351.995 -3.53871 -2.35914 0
M  V30 3708 N 350.31 0.590341 -1.46126 0
M  V30 3709 C 351.557 1.34882 -1.5104 0
M  V30 3710 C 351.885 1.93849 -0.159021 0
M  V30 3711 O 351.14 1.76544 0.844436 0
M  V30 3712 C 351.439 2.5032 -2.55097 0
M  V30 3713 C 351.105 2.09394 -3.99331 0
M  V30 3714 C 349.767 1.97947 -4.38601 0
M  V30 3715 C 352.119 1.77712 -4.89967 0
M  V30 3716 C 349.447 1.53065 -5.66381 0
M  V30 3717 C 351.799 1.34312 -6.18177 0
M  V30 3718 C 350.463 1.21436 -6.56361 0
M  V30 3719 H 349.733 0.493568 -0.552695 0
M  V30 3720 H 352.38 0.665539 -1.79563 0
M  V30 3721 H 350.685 3.24062 -2.20207 0
M  V30 3722 H 352.382 3.08541 -2.56132 0
M  V30 3723 H 348.972 2.19235 -3.68285 0
M  V30 3724 H 353.156 1.85445 -4.60352 0
M  V30 3725 H 348.412 1.41733 -5.94745 0
M  V30 3726 H 352.586 1.08849 -6.87841 0
M  V30 3727 H 350.213 0.864345 -7.5527 0
M  V30 3728 N 351.788 1.33704 0.83433 0
M  V30 3729 C 353.035 1.25417 1.58987 0
M  V30 3730 C 353.363 -0.178869 1.93676 0
M  V30 3731 O 352.618 -1.13723 1.59265 0
M  V30 3732 C 352.917 2.07926 2.90692 0
M  V30 3733 C 352.583 3.57066 2.75345 0
M  V30 3734 C 351.245 3.97724 2.70867 0
M  V30 3735 C 353.597 4.51817 2.59828 0
M  V30 3736 C 350.925 5.31344 2.48778 0
M  V30 3737 C 353.277 5.85604 2.39272 0
M  V30 3738 C 351.941 6.25439 2.33199 0
M  V30 3739 H 351.211 0.458934 0.581774 0
M  V30 3740 H 353.858 1.65335 0.966261 0
M  V30 3741 H 352.163 1.608 3.57282 0
M  V30 3742 H 353.86 1.98868 3.48213 0
M  V30 3743 H 350.45 3.24785 2.79665 0
M  V30 3744 H 354.634 4.21311 2.62319 0
M  V30 3745 H 349.89 5.61241 2.42526 0
M  V30 3746 H 354.064 6.58623 2.2625 0
M  V30 3747 H 351.691 7.28914 2.15843 0
M  V30 3748 N 353.266 -1.05314 1.17247 0
M  V30 3749 C 354.229 -2.112 0.890357 0
M  V30 3750 C 355.229 -1.60359 -0.118943 0
M  V30 3751 O 356.419 -1.73833 0.113086 0
M  V30 3752 C 353.551 -3.39266 0.333422 0
M  V30 3753 H 354.744 -2.37659 1.82916 0
M  V30 3754 H 352.297 -1.21538 0.982758 0
M  V30 3755 H 353.032 -3.18462 -0.612587 0
M  V30 3756 H 352.817 -3.77477 1.06082 0
M  V30 3757 H 354.307 -4.17315 0.154322 0
M  V30 3758 N 354.744 -0.972509 -1.24016 0
M  V30 3759 C 355.99 -0.637978 -1.92504 0
M  V30 3760 C 356.323 0.825383 -1.75787 0
M  V30 3761 O 355.598 1.59442 -1.11393 0
M  V30 3762 C 355.881 -1.01942 -3.45369 0
M  V30 3763 C 355.734 -2.53983 -3.71231 0
M  V30 3764 C 357.053 -0.55751 -4.36555 0
M  V30 3765 H 354.172 -0.233248 -0.699117 0
M  V30 3766 H 356.814 -1.21238 -1.46292 0
M  V30 3767 H 354.964 -0.530656 -3.84859 0
M  V30 3768 H 356.636 -3.10374 -3.41271 0
M  V30 3769 H 354.879 -2.96968 -3.16216 0
M  V30 3770 H 355.55 -2.75723 -4.78206 0
M  V30 3771 H 358.026 -0.977029 -4.04467 0
M  V30 3772 H 356.902 -0.85292 -5.42233 0
M  V30 3773 H 357.163 0.542328 -4.38761 0
M  V30 3774 N 356.222 1.38976 -0.743202 0
M  V30 3775 C 357.47 1.99948 -0.29417 0
M  V30 3776 C 357.791 1.59279 1.12495 0
M  V30 3777 O 357.061 0.844808 1.76748 0
M  V30 3778 H 355.641 0.739473 -0.105774 0
M  V30 3779 H 358.303 1.699 -0.954986 0
M  V30 3780 H 357.399 3.10142 -0.349056 0
M  V30 3781 N 357.7 0.491464 1.49741 0
M  V30 3782 C 358.93 -0.0534375 2.06531 0
M  V30 3783 C 359.338 -1.32233 1.35318 0
M  V30 3784 O 358.681 -1.78781 0.422243 0
M  V30 3785 C 358.743 -0.387034 3.57411 0
M  V30 3786 C 358.407 0.782764 4.50246 0
M  V30 3787 C 359.404 1.67059 4.92329 0
M  V30 3788 C 357.089 0.978866 4.9267 0
M  V30 3789 C 359.083 2.73874 5.75562 0
M  V30 3790 C 356.77 2.05022 5.75682 0
M  V30 3791 C 357.768 2.92851 6.17031 0
M  V30 3792 O 357.456 3.98138 6.98385 0
M  V30 3793 H 357.188 0.0129324 0.675876 0
M  V30 3794 H 359.742 0.685238 1.93633 0
M  V30 3795 H 357.972 -1.17918 3.68283 0
M  V30 3796 H 359.661 -0.869419 3.96479 0
M  V30 3797 H 360.427 1.53086 4.60206 0
M  V30 3798 H 356.306 0.304646 4.59992 0
M  V30 3799 H 359.85 3.42458 6.07757 0
M  V30 3800 H 355.747 2.18993 6.07217 0
M  V30 3801 H 356.515 3.95374 7.16674 0
M  V30 3802 N 359.178 -1.55987 0.224894 0
M  V30 3803 C 360.111 -2.16413 -0.723929 0
M  V30 3804 C 361.089 -1.10952 -1.18863 0
M  V30 3805 O 362.273 -1.39225 -1.27077 0
M  V30 3806 C 359.4 -2.74711 -1.98121 0
M  V30 3807 C 358.446 -3.9303 -1.6562 0
M  V30 3808 S 359.279 -5.29817 -0.778058 0
M  V30 3809 C 360.435 -5.91555 -2.04483 0
M  V30 3810 H 360.668 -2.96555 -0.210347 0
M  V30 3811 H 358.201 -1.54397 0.00955457 0
M  V30 3812 H 360.159 -3.08938 -2.70311 0
M  V30 3813 H 358.82 -1.94555 -2.46591 0
M  V30 3814 H 358.013 -4.32334 -2.59043 0
M  V30 3815 H 357.615 -3.59966 -1.01491 0
M  V30 3816 H 359.907 -6.07732 -2.99446 0
M  V30 3817 H 360.85 -6.87498 -1.69563 0
M  V30 3818 H 361.258 -5.20419 -2.18688 0
M  V30 3819 N 360.656 0.0484629 -1.57525 0
M  V30 3820 C 361.586 1.0549 -2.08313 0
M  V30 3821 C 362.567 1.38929 -0.981463 0
M  V30 3822 O 363.752 1.48151 -1.25558 0
M  V30 3823 C 360.882 2.36162 -2.54646 0
M  V30 3824 C 359.836 2.17016 -3.68901 0
M  V30 3825 C 359.162 3.53278 -4.01371 0
M  V30 3826 C 360.462 1.57219 -4.98076 0
M  V30 3827 H 362.156 0.632195 -2.92649 0
M  V30 3828 H 359.702 0.302654 -1.40784 0
M  V30 3829 H 361.655 3.06882 -2.88793 0
M  V30 3830 H 360.379 2.80456 -1.67368 0
M  V30 3831 H 359.038 1.48733 -3.35073 0
M  V30 3832 H 358.686 3.95185 -3.11188 0
M  V30 3833 H 358.386 3.41299 -4.78318 0
M  V30 3834 H 359.91 4.25391 -4.38035 0
M  V30 3835 H 361.324 2.17832 -5.30304 0
M  V30 3836 H 359.721 1.55871 -5.79503 0
M  V30 3837 H 360.791 0.535956 -4.81929 0
M  V30 3838 N 362.134 1.5431 0.320358 0
M  V30 3839 C 363.064 1.86912 1.3995 0
M  V30 3840 C 364.045 0.726211 1.53819 0
M  V30 3841 O 365.23 0.980233 1.67646 0
M  V30 3842 C 362.36 2.09932 2.7667 0
M  V30 3843 C 361.314 3.25776 2.77586 0
M  V30 3844 C 360.64 3.34173 4.17412 0
M  V30 3845 C 361.94 4.6335 2.41048 0
M  V30 3846 H 363.634 2.77292 1.12914 0
M  V30 3847 H 361.18 1.33421 0.541738 0
M  V30 3848 H 363.133 2.31324 3.52232 0
M  V30 3849 H 361.857 1.16304 3.0519 0
M  V30 3850 H 360.516 3.04276 2.04479 0
M  V30 3851 H 360.164 2.38098 4.43078 0
M  V30 3852 H 359.864 4.12033 4.18931 0
M  V30 3853 H 361.388 3.57803 4.94782 0
M  V30 3854 H 362.802 4.84602 3.06324 0
M  V30 3855 H 361.199 5.43782 2.53813 0
M  V30 3856 H 362.269 4.65381 1.36193 0
M  V30 3857 N 363.613 -0.582584 1.46437 0
M  V30 3858 C 365.024 -1.1647 1.45916 0
M  V30 3859 C 365.375 -1.95177 0.200077 0
M  V30 3860 O 364.5 -2.04874 -0.696819 0
M  V30 3861 C 365.095 -2.11885 2.64367 0
M  V30 3862 C 363.654 -2.65421 2.66887 0
M  V30 3863 C 362.801 -1.41294 2.38603 0
M  V30 3864 H 365.752 -0.370514 1.54314 0
M  V30 3865 H 365.773 -2.9535 2.39892 0
M  V30 3866 H 365.285 -1.54573 3.5599 0
M  V30 3867 H 363.386 -3.26602 1.79338 0
M  V30 3868 H 363.499 -3.08147 3.66854 0
M  V30 3869 H 361.863 -1.71109 1.88663 0
M  V30 3870 H 362.646 -0.858125 3.32402 0
M  V30 3871 N 365.091 -1.34144 -0.827227 0
M  V30 3872 C 366.021 -1.28005 -1.95287 0
M  V30 3873 C 367.002 -0.158321 -1.69362 0
M  V30 3874 O 368.187 -0.349987 -1.9102 0
M  V30 3875 C 365.317 -1.03036 -3.31664 0
M  V30 3876 C 364.271 -2.11628 -3.72019 0
M  V30 3877 C 363.597 -1.71854 -5.0633 0
M  V30 3878 C 364.897 -3.53417 -3.8457 0
M  V30 3879 H 366.591 -2.22187 -2.00682 0
M  V30 3880 H 364.137 -1.0696 -0.964135 0
M  V30 3881 H 366.09 -0.973863 -4.09993 0
M  V30 3882 H 364.814 -0.0529391 -3.26557 0
M  V30 3883 H 363.473 -2.16339 -2.95961 0
M  V30 3884 H 363.121 -0.727841 -4.97706 0
M  V30 3885 H 362.821 -2.44531 -5.34302 0
M  V30 3886 H 364.345 -1.67692 -5.87122 0
M  V30 3887 H 365.759 -3.51142 -4.5318 0
M  V30 3888 H 364.156 -4.24679 -4.2399 0
M  V30 3889 H 365.226 -3.91072 -2.86689 0
M  V30 3890 N 366.569 1.04691 -1.17803 0
M  V30 3891 C 367.816 1.77782 -0.969532 0
M  V30 3892 C 368.144 1.87926 0.501401 0
M  V30 3893 O 367.399 1.37918 1.38842 0
M  V30 3894 C 367.698 3.21467 -1.56186 0
M  V30 3895 C 367.364 3.3137 -3.05786 0
M  V30 3896 C 366.026 3.3378 -3.46619 0
M  V30 3897 C 368.378 3.31976 -4.01797 0
M  V30 3898 C 365.706 3.34431 -4.82051 0
M  V30 3899 C 368.058 3.34167 -5.37136 0
M  V30 3900 C 366.722 3.34866 -5.77426 0
M  V30 3901 H 365.992 0.650549 -0.354777 0
M  V30 3902 H 368.639 1.23006 -1.46772 0
M  V30 3903 H 366.944 3.79203 -0.985515 0
M  V30 3904 H 368.641 3.76652 -1.37602 0
M  V30 3905 H 365.231 3.3021 -2.73238 0
M  V30 3906 H 369.415 3.29311 -3.71306 0
M  V30 3907 H 364.671 3.33285 -5.12573 0
M  V30 3908 H 368.845 3.33585 -6.11305 0
M  V30 3909 H 366.472 3.35124 -6.82346 0
M  V30 3910 N 368.047 0.979072 1.23499 0
M  V30 3911 C 369.01 0.523244 2.23147 0
M  V30 3912 C 370.01 -0.386406 1.56088 0
M  V30 3913 O 371.2 -0.180283 1.73265 0
M  V30 3914 C 368.332 -0.240739 3.40049 0
M  V30 3915 H 369.525 1.40432 2.64989 0
M  V30 3916 H 367.078 0.764824 1.36309 0
M  V30 3917 H 367.813 -1.13841 3.03662 0
M  V30 3918 H 367.598 0.412207 3.89927 0
M  V30 3919 H 369.088 -0.548297 4.13985 0
M  V30 3920 N 369.525 -1.3858 0.750561 0
M  V30 3921 C 370.755 -2.04175 0.31564 0
M  V30 3922 C 371.163 -1.56726 -1.05989 0
M  V30 3923 O 370.506 -0.734225 -1.68389 0
M  V30 3924 C 370.568 -3.58585 0.256389 0
M  V30 3925 C 370.232 -4.29077 1.57296 0
M  V30 3926 C 371.229 -4.54656 2.52159 0
M  V30 3927 C 368.914 -4.67324 1.84156 0
M  V30 3928 C 370.908 -5.17512 3.72103 0
M  V30 3929 C 368.595 -5.29905 3.04374 0
M  V30 3930 C 369.593 -5.54933 3.98168 0
M  V30 3931 O 369.281 -6.16212 5.16273 0
M  V30 3932 H 369.013 -0.662742 0.133226 0
M  V30 3933 H 371.567 -1.78313 1.01948 0
M  V30 3934 H 369.797 -3.83406 -0.503677 0
M  V30 3935 H 371.486 -4.05628 -0.148612 0
M  V30 3936 H 372.252 -4.25539 2.32683 0
M  V30 3937 H 368.131 -4.47191 1.11988 0
M  V30 3938 H 371.675 -5.36963 4.45327 0
M  V30 3939 H 367.572 -5.58444 3.23745 0
M  V30 3940 H 368.34 -6.34701 5.16815 0
M  V30 3941 N 371.003 -0.499398 -1.49478 0
M  V30 3942 C 372.25 0.0456899 -2.02448 0
M  V30 3943 C 372.578 1.37142 -1.37921 0
M  V30 3944 O 371.833 1.89111 -0.503544 0
M  V30 3945 C 372.132 0.248424 -3.56536 0
M  V30 3946 C 371.798 -0.999107 -4.39692 0
M  V30 3947 C 370.46 -1.34108 -4.62135 0
M  V30 3948 C 372.812 -1.82842 -4.88076 0
M  V30 3949 C 370.14 -2.51191 -5.30208 0
M  V30 3950 C 372.492 -2.99076 -5.57437 0
M  V30 3951 C 371.156 -3.33655 -5.78127 0
M  V30 3952 H 370.426 0.0167191 -0.740811 0
M  V30 3953 H 373.073 -0.65923 -1.79795 0
M  V30 3954 H 371.378 1.03586 -3.77859 0
M  V30 3955 H 373.075 0.684605 -3.95113 0
M  V30 3956 H 369.665 -0.722729 -4.22463 0
M  V30 3957 H 373.849 -1.57737 -4.70566 0
M  V30 3958 H 369.105 -2.78221 -5.44429 0
M  V30 3959 H 373.279 -3.63664 -5.93904 0
M  V30 3960 H 370.906 -4.24483 -6.30649 0
M  V30 3961 N 372.481 1.55866 -0.233164 0
M  V30 3962 C 373.73 1.97779 0.39579 0
M  V30 3963 C 374.043 1.12419 1.60066 0
M  V30 3964 O 375.249 1.44283 2.29988 0
M  V30 3965 C 373.705 3.5188 0.755556 0
M  V30 3966 C 373.313 4.45959 -0.427152 0
M  V30 3967 C 375.057 4.02479 1.34946 0
M  V30 3968 C 372.964 5.91383 -0.0443043 0
M  V30 3969 H 371.894 0.738592 0.15165 0
M  V30 3970 H 374.545 1.80486 -0.331212 0
M  V30 3971 H 372.927 3.64816 1.5403 0
M  V30 3972 H 374.101 4.44776 -1.20462 0
M  V30 3973 H 372.416 4.05765 -0.935068 0
M  V30 3974 H 375.013 5.08637 1.649 0
M  V30 3975 H 375.356 3.49014 2.26925 0
M  V30 3976 H 375.889 3.92813 0.62791 0
M  V30 3977 H 372.628 6.48857 -0.930874 0
M  V30 3978 H 372.148 5.95734 0.697238 0
M  V30 3979 H 373.827 6.45893 0.378334 0
M  V30 3980 N 373.959 -0.0401083 1.57549 0
M  V30 3981 C 375.375 -0.395556 1.54621 0
M  V30 3982 C 375.575 -1.77281 0.957799 0
M  V30 3983 O 374.631 -2.45888 0.574031 0
M  V30 3984 C 375.944 -0.307535 2.99123 0
M  V30 3985 C 377.492 -0.385425 3.10618 0
M  V30 3986 C 377.967 -0.326973 4.56831 0
M  V30 3987 N 379.458 -0.386102 4.61588 0
M  V30 3988 C 380.193 -0.363591 5.72246 0
M  V30 3989 N 379.689 -0.29402 6.92176 0
M  V30 3990 N 381.482 -0.412503 5.60584 0
M  V30 3991 H 373.633 0.861325 1.94152 0
M  V30 3992 H 375.896 0.326445 0.890021 0
M  V30 3993 H 375.602 0.638461 3.45856 0
M  V30 3994 H 375.476 -1.10552 3.60636 0
M  V30 3995 H 377.863 -1.32185 2.63839 0
M  V30 3996 H 377.944 0.44171 2.51957 0
M  V30 3997 H 377.588 0.605738 5.04275 0
M  V30 3998 H 377.518 -1.17207 5.13391 0
M  V30 3999 H 380.009 -0.442832 3.75296 0
M  V30 4000 H 380.322 -0.28164 7.72287 0
M  V30 4001 H 378.667 -0.260232 6.94513 0
M  V30 4002 H 381.858 -0.464769 4.65787 0
M  V30 4003 H 382.031 -0.391492 6.46816 0
M  V30 4004 N 375.437 -1.54477 -0.31217 0
M  V30 4005 C 376.714 -1.63891 -1.06767 0
M  V30 4006 C 377.094 -0.480028 -2.0557 0
M  V30 4007 O 376.442 0.524487 -2.22399 0
M  V30 4008 C 376.652 -3.01402 -1.75948 0
M  V30 4009 C 378 -3.57838 -2.28554 0
M  V30 4010 O 379.024 -3.03782 -1.85998 0
M  V30 4011 O 377.883 -4.52462 -3.06497 0
M  V30 4012 H 374.977 -0.664125 -0.492816 0
M  V30 4013 H 377.523 -1.66823 -0.311149 0
M  V30 4014 H 376.295 -3.77187 -1.04144 0
M  V30 4015 H 375.918 -3.02199 -2.58383 0
M  V30 4016 N 376.915 0.57481 -1.46744 0
M  V30 4017 C 378.161 1.33251 -1.53674 0
M  V30 4018 C 378.516 1.91468 -0.189125 0
M  V30 4019 O 377.809 1.73954 0.803151 0
M  V30 4020 C 378.003 2.476 -2.57738 0
M  V30 4021 C 377.832 2.00586 -4.02487 0
M  V30 4022 C 376.602 1.85237 -4.70123 0
M  V30 4023 C 378.8 1.56078 -4.90045 0
M  V30 4024 N 376.782 1.32377 -5.99458 0
M  V30 4025 C 378.153 1.14863 -6.09267 0
M  V30 4026 C 380.208 1.43968 -4.76632 0
M  V30 4027 C 378.911 0.627435 -7.16558 0
M  V30 4028 C 380.937 0.932512 -5.84002 0
M  V30 4029 C 380.299 0.53019 -7.02402 0
M  V30 4030 H 376.398 0.480284 -0.617131 0
M  V30 4031 H 378.982 0.653592 -1.83402 0
M  V30 4032 H 377.153 3.13045 -2.29907 0
M  V30 4033 H 378.885 3.14567 -2.54616 0
M  V30 4034 H 375.64 2.07423 -4.25761 0
M  V30 4035 H 376.064 1.08085 -6.68316 0
M  V30 4036 H 380.706 1.73689 -3.85476 0
M  V30 4037 H 378.424 0.317821 -8.07475 0
M  V30 4038 H 382.01 0.842611 -5.75666 0
M  V30 4039 H 380.89 0.14381 -7.84068 0
M  V30 4040 N 378.394 1.34581 0.820102 0
M  V30 4041 C 379.81 1.14325 1.11364 0
M  V30 4042 C 380.01 -0.0533648 2.01429 0
M  V30 4043 O 379.066 -0.728044 2.41776 0
M  V30 4044 C 380.379 2.43983 1.75764 0
M  V30 4045 C 381.927 2.50065 1.88246 0
M  V30 4046 C 382.402 3.79732 2.56061 0
M  V30 4047 N 383.893 3.80908 2.63558 0
M  V30 4048 C 384.628 4.77961 3.16766 0
M  V30 4049 N 384.124 5.85397 3.70517 0
M  V30 4050 N 385.917 4.65413 3.15194 0
M  V30 4051 H 378.068 2.11246 0.221096 0
M  V30 4052 H 380.331 0.934289 0.160649 0
M  V30 4053 H 380.037 3.31651 1.1705 0
M  V30 4054 H 379.911 2.57531 2.75604 0
M  V30 4055 H 382.298 1.62834 2.46108 0
M  V30 4056 H 382.379 2.40442 0.873006 0
M  V30 4057 H 382.023 4.67354 1.98853 0
M  V30 4058 H 381.953 3.86639 3.57516 0
M  V30 4059 H 384.444 3.03274 2.25463 0
M  V30 4060 H 384.757 6.55463 4.09376 0
M  V30 4061 H 383.102 5.89107 3.68752 0
M  V30 4062 H 386.293 3.80627 2.72471 0
M  V30 4063 H 386.466 5.41216 3.56356 0
M  V30 4064 N 379.872 -1.04064 1.18357 0
M  V30 4065 C 380.805 -2.11618 0.854 0
M  V30 4066 C 381.783 -1.61555 -0.184043 0
M  V30 4067 O 382.967 -1.88395 -0.0630048 0
M  V30 4068 C 380.094 -3.37574 0.27597 0
M  V30 4069 C 379.14 -4.06485 1.2912 0
M  V30 4070 S 379.973 -4.53543 2.84709 0
M  V30 4071 C 381.129 -5.82732 2.28417 0
M  V30 4072 H 381.362 -2.39247 1.76488 0
M  V30 4073 H 378.895 -1.16832 1.00944 0
M  V30 4074 H 380.853 -4.10468 -0.051026 0
M  V30 4075 H 379.514 -3.0806 -0.613028 0
M  V30 4076 H 378.707 -4.97024 0.835633 0
M  V30 4077 H 378.309 -3.39708 1.56443 0
M  V30 4078 H 380.601 -6.56677 1.66677 0
M  V30 4079 H 381.544 -6.33052 3.17256 0
M  V30 4080 H 381.952 -5.37838 1.71436 0
M  V30 4081 N 381.35 -0.985608 -1.22978 0
M  V30 4082 C 382.28 -0.549649 -2.26939 0
M  V30 4083 C 383.261 0.419803 -1.64838 0
M  V30 4084 O 384.446 0.31203 -1.91677 0
M  V30 4085 C 381.576 0.143652 -3.47003 0
M  V30 4086 C 380.53 -0.743606 -4.21491 0
M  V30 4087 C 379.856 0.0822027 -5.34637 0
M  V30 4088 C 381.156 -2.03694 -4.80943 0
M  V30 4089 H 382.85 -1.41862 -2.63658 0
M  V30 4090 H 380.396 -0.683571 -1.26741 0
M  V30 4091 H 382.349 0.459985 -4.18882 0
M  V30 4092 H 381.073 1.04711 -3.09359 0
M  V30 4093 H 379.732 -1.04347 -3.51436 0
M  V30 4094 H 379.38 0.986359 -4.93234 0
M  V30 4095 H 379.08 -0.508377 -5.85397 0
M  V30 4096 H 380.604 0.392797 -6.09335 0
M  V30 4097 H 382.018 -1.78504 -5.44802 0
M  V30 4098 H 380.415 -2.57573 -5.42011 0
M  V30 4099 H 381.485 -2.72042 -4.01399 0
M  V30 4100 N 382.828 1.3818 -0.7579 0
M  V30 4101 C 383.758 2.33027 -0.148597 0
M  V30 4102 C 384.739 1.55085 0.69875 0
M  V30 4103 O 385.924 1.83384 0.639053 0
M  V30 4104 C 383.054 3.3928 0.742034 0
M  V30 4105 C 382.008 4.28 -0.00291946 0
M  V30 4106 C 381.334 5.25146 1.00625 0
M  V30 4107 C 382.634 5.08938 -1.17385 0
M  V30 4108 H 384.328 2.84231 -0.940909 0
M  V30 4109 H 381.874 1.36659 -0.453908 0
M  V30 4110 H 383.827 4.046 1.17799 0
M  V30 4111 H 382.551 2.86569 1.56671 0
M  V30 4112 H 381.21 3.64192 -0.419504 0
M  V30 4113 H 380.858 4.68721 1.8251 0
M  V30 4114 H 380.558 5.85361 0.512428 0
M  V30 4115 H 382.082 5.93342 1.44143 0
M  V30 4116 H 383.496 5.67474 -0.815224 0
M  V30 4117 H 381.893 5.7841 -1.59882 0
M  V30 4118 H 382.963 4.42424 -1.98468 0
M  V30 4119 N 384.306 0.507319 1.49211 0
M  V30 4120 C 385.236 -0.256939 2.32082 0
M  V30 4121 C 386.217 -0.956609 1.40652 0
M  V30 4122 O 387.402 -0.946788 1.69557 0
M  V30 4123 C 384.532 -1.31802 3.21318 0
M  V30 4124 C 383.486 -0.737855 4.21592 0
M  V30 4125 C 382.812 -1.89992 4.99807 0
M  V30 4126 C 384.112 0.275325 5.21574 0
M  V30 4127 H 385.806 0.434798 2.96226 0
M  V30 4128 H 383.352 0.210546 1.42452 0
M  V30 4129 H 385.305 -1.86045 3.78107 0
M  V30 4130 H 384.029 -2.03903 2.5513 0
M  V30 4131 H 382.688 -0.217126 3.65956 0
M  V30 4132 H 382.336 -2.60877 4.30061 0
M  V30 4133 H 382.036 -1.51777 5.6766 0
M  V30 4134 H 383.56 -2.44657 5.59442 0
M  V30 4135 H 384.974 -0.179193 5.7302 0
M  V30 4136 H 383.371 0.573649 5.97352 0
M  V30 4137 H 384.441 1.18903 4.70096 0
M  V30 4138 N 385.784 -1.5574 0.241426 0
M  V30 4139 C 386.747 -2.19877 -0.647063 0
M  V30 4140 C 387.747 -1.16642 -1.10686 0
M  V30 4141 O 388.937 -1.41757 -1.01245 0
M  V30 4142 C 386.069 -2.83797 -1.88871 0
M  V30 4143 H 387.262 -2.99772 -0.087574 0
M  V30 4144 H 384.815 -1.56298 -0.00813574 0
M  V30 4145 H 385.55 -2.07824 -2.48957 0
M  V30 4146 H 385.335 -3.59414 -1.56728 0
M  V30 4147 H 386.825 -3.32898 -2.52129 0
M  V30 4148 N 387.262 0.0317525 -1.57568 0
M  V30 4149 C 388.192 1.03274 -2.0942 0
M  V30 4150 C 389.173 1.3788 -0.996143 0
M  V30 4151 O 390.358 1.46811 -1.27122 0
M  V30 4152 C 387.488 2.33448 -2.57137 0
M  V30 4153 C 386.442 2.13091 -3.71182 0
M  V30 4154 C 385.768 3.49001 -4.05095 0
M  V30 4155 C 387.068 1.51928 -4.99715 0
M  V30 4156 H 388.762 0.60112 -2.93303 0
M  V30 4157 H 386.308 0.287705 -1.41097 0
M  V30 4158 H 388.261 3.03802 -2.92032 0
M  V30 4159 H 386.985 2.78665 -1.70333 0
M  V30 4160 H 385.644 1.45171 -3.36632 0
M  V30 4161 H 385.292 3.91862 -3.15362 0
M  V30 4162 H 384.992 3.36207 -4.81911 0
M  V30 4163 H 386.516 4.20721 -4.42522 0
M  V30 4164 H 387.93 2.12196 -5.32584 0
M  V30 4165 H 386.327 1.49716 -5.81124 0
M  V30 4166 H 387.397 0.484811 -4.8247 0
M  V30 4167 N 388.74 1.54641 0.303973 0
M  V30 4168 C 389.968 1.77768 1.05858 0
M  V30 4169 C 390.383 0.535722 1.8104 0
M  V30 4170 O 389.74 -0.494337 1.75677 0
M  V30 4171 C 389.791 2.9834 2.04146 0
M  V30 4172 O 389.512 4.17736 1.32015 0
M  V30 4173 C 391.013 3.33832 2.91669 0
M  V30 4174 H 388.233 0.592961 0.314067 0
M  V30 4175 H 390.777 2.01583 0.344149 0
M  V30 4176 H 388.932 2.76742 2.71096 0
M  V30 4177 H 389.346 4.85693 1.97998 0
M  V30 4178 H 390.82 4.21448 3.56491 0
M  V30 4179 H 391.297 2.51857 3.59812 0
M  V30 4180 H 391.903 3.57579 2.30254 0
M  V30 4181 N 390.218 -0.567019 1.47046 0
M  V30 4182 C 391.464 -1.32658 1.53394 0
M  V30 4183 C 391.797 -1.93254 0.19148 0
M  V30 4184 O 391.072 -1.77338 -0.798844 0
M  V30 4185 C 391.355 -2.44412 2.64452 0
M  V30 4186 C 391.208 -1.88749 4.08282 0
M  V30 4187 C 392.527 -3.46387 2.71485 0
M  V30 4188 H 389.646 -0.48098 0.558415 0
M  V30 4189 H 392.288 -0.635481 1.79058 0
M  V30 4190 H 390.438 -3.03363 2.427 0
M  V30 4191 H 392.11 -1.34134 4.41368 0
M  V30 4192 H 390.353 -1.19481 4.17021 0
M  V30 4193 H 391.024 -2.69491 4.81745 0
M  V30 4194 H 393.5 -2.9734 2.91081 0
M  V30 4195 H 392.376 -4.2202 3.50985 0
M  V30 4196 H 392.637 -4.04616 1.78153 0
M  V30 4197 N 391.696 -1.35014 -0.812953 0
M  V30 4198 C 393.107 -1.25035 -1.38648 0
M  V30 4199 C 393.458 0.119967 -1.95833 0
M  V30 4200 O 392.583 1.02069 -1.90816 0
M  V30 4201 C 393.178 -2.26394 -2.52054 0
M  V30 4202 C 391.737 -2.20175 -3.05287 0
M  V30 4203 C 390.884 -2.12451 -1.78213 0
M  V30 4204 H 393.835 -1.46235 -0.616516 0
M  V30 4205 H 393.856 -1.88672 -3.30429 0
M  V30 4206 H 393.368 -3.26116 -2.10404 0
M  V30 4207 H 391.469 -1.23841 -3.51417 0
M  V30 4208 H 391.582 -3.11863 -3.63701 0
M  V30 4209 H 389.946 -1.58328 -1.9951 0
M  V30 4210 H 390.729 -3.14024 -1.38723 0
M  V30 4211 N 393.175 1.03435 -1.18907 0
M  V30 4212 C 394.423 1.76394 -0.986382 0
M  V30 4213 C 394.744 1.88883 0.484567 0
M  V30 4214 O 394.014 1.41843 1.3512 0
M  V30 4215 H 392.594 0.65344 -0.361975 0
M  V30 4216 H 395.256 1.248 -1.49703 0
M  V30 4217 H 394.352 2.77424 -1.42978 0
M  V30 4218 N 394.653 0.992116 1.22453 0
M  V30 4219 C 395.899 0.668523 1.91464 0
M  V30 4220 C 396.232 -0.797313 1.77078 0
M  V30 4221 O 395.507 -1.5765 1.13916 0
M  V30 4222 C 395.79 1.07424 3.43703 0
M  V30 4223 C 395.643 2.59857 3.67143 0
M  V30 4224 C 396.962 0.626891 4.35612 0
M  V30 4225 H 394.081 0.244341 0.695318 0
M  V30 4226 H 396.723 1.2355 1.44345 0
M  V30 4227 H 394.873 0.591816 3.83966 0
M  V30 4228 H 396.545 3.15764 3.3629 0
M  V30 4229 H 394.788 3.01961 3.11451 0
M  V30 4230 H 395.459 2.83296 4.73759 0
M  V30 4231 H 397.935 1.04125 4.02861 0
M  V30 4232 H 396.811 0.939076 5.40807 0
M  V30 4233 H 397.072 -0.472457 4.39568 0
M  V30 4234 N 396.131 -1.37776 0.765217 0
M  V30 4235 C 397.061 -2.32945 0.160953 0
M  V30 4236 C 398.042 -1.55454 -0.690516 0
M  V30 4237 O 399.227 -1.83721 -0.629318 0
M  V30 4238 C 396.357 -3.39669 -0.724031 0
M  V30 4239 C 395.311 -4.27992 0.0256173 0
M  V30 4240 C 394.637 -5.25673 -0.978383 0
M  V30 4241 C 395.937 -5.08309 1.20082 0
M  V30 4242 H 397.631 -2.83728 0.955969 0
M  V30 4243 H 395.177 -1.36416 0.461149 0
M  V30 4244 H 397.13 -4.05219 -1.15652 0
M  V30 4245 H 395.854 -2.87396 -1.5515 0
M  V30 4246 H 394.513 -3.63964 0.438812 0
M  V30 4247 H 394.161 -4.69682 -1.80022 0
M  V30 4248 H 393.861 -5.85625 -0.481378 0
M  V30 4249 H 395.385 -5.94098 -1.40995 0
M  V30 4250 H 396.799 -5.67034 0.845307 0
M  V30 4251 H 395.196 -5.77554 1.62947 0
M  V30 4252 H 396.266 -4.41365 2.00811 0
M  V30 4253 N 397.609 -0.515225 -1.4894 0
M  V30 4254 C 398.849 0.0223983 -2.04388 0
M  V30 4255 C 399.213 1.32961 -1.38511 0
M  V30 4256 O 400.414 1.95236 -1.8476 0
M  V30 4257 C 398.685 0.157056 -3.57055 0
M  V30 4258 S 400.244 0.646875 -4.34006 0
M  V30 4259 H 397.062 -0.00500662 -0.710982 0
M  V30 4260 H 399.664 -0.69243 -1.82827 0
M  V30 4261 H 398.368 -0.799412 -4.02539 0
M  V30 4262 H 397.899 0.896704 -3.83044 0
M  V30 4263 H 399.914 1.91381 -4.57808 0
M  V30 4264 N 399.087 1.5561 -0.249682 0
M  V30 4265 C 400.333 1.99306 0.374841 0
M  V30 4266 C 400.666 1.13767 1.57387 0
M  V30 4267 O 399.941 0.201711 1.93451 0
M  V30 4268 C 400.224 3.51507 0.781986 0
M  V30 4269 C 400.077 4.4781 -0.422629 0
M  V30 4270 C 401.396 4.08884 1.62793 0
M  V30 4271 H 398.515 0.724572 0.134773 0
M  V30 4272 H 401.157 1.86719 -0.351549 0
M  V30 4273 H 399.307 3.62363 1.4009 0
M  V30 4274 H 400.979 4.48931 -1.06108 0
M  V30 4275 H 399.222 4.20518 -1.06524 0
M  V30 4276 H 399.893 5.51919 -0.0943766 0
M  V30 4277 H 402.369 4.01147 1.10547 0
M  V30 4278 H 401.245 5.1564 1.88166 0
M  V30 4279 H 401.506 3.57515 2.60068 0
M  V30 4280 N 400.565 -0.0233959 1.57583 0
M  V30 4281 C 401.976 -0.56927 1.77809 0
M  V30 4282 C 402.327 -1.75284 0.881472 0
M  V30 4283 O 401.452 -2.1626 0.0777805 0
M  V30 4284 C 402.047 -1.03949 3.22459 0
M  V30 4285 C 400.606 -1.53084 3.43864 0
M  V30 4286 C 399.753 -0.471454 2.73263 0
M  V30 4287 H 402.704 0.202825 1.57399 0
M  V30 4288 H 402.725 -1.90661 3.29285 0
M  V30 4289 H 402.237 -0.177865 3.87692 0
M  V30 4290 H 400.338 -2.41414 2.83814 0
M  V30 4291 H 400.451 -1.57443 4.52491 0
M  V30 4292 H 398.815 -0.927788 2.37201 0
M  V30 4293 H 399.598 0.380808 3.41181 0
M  V30 4294 N 402.043 -1.548 -0.295768 0
M  V30 4295 C 402.973 -1.89115 -1.36959 0
M  V30 4296 C 403.954 -0.75059 -1.52644 0
M  V30 4297 O 405.139 -1.00678 -1.66065 0
M  V30 4298 C 402.269 -2.14307 -2.73295 0
M  V30 4299 C 401.223 -3.30151 -2.72368 0
M  V30 4300 C 400.549 -3.40772 -4.12042 0
M  V30 4301 C 401.849 -4.67126 -2.33646 0
M  V30 4302 H 403.543 -2.79053 -1.08488 0
M  V30 4303 H 401.089 -1.34266 -0.520443 0
M  V30 4304 H 403.042 -2.36898 -3.48507 0
M  V30 4305 H 401.766 -1.21145 -3.03301 0
M  V30 4306 H 400.425 -3.0749 -1.99613 0
M  V30 4307 H 400.073 -2.45117 -4.39234 0
M  V30 4308 H 399.773 -4.18645 -4.12322 0
M  V30 4309 H 401.297 -3.6563 -4.89027 0
M  V30 4310 H 402.711 -4.89414 -2.98575 0
M  V30 4311 H 401.108 -5.47751 -2.45129 0
M  V30 4312 H 402.178 -4.67489 -1.28772 0
M  V30 4313 N 403.521 0.559213 -1.47345 0
M  V30 4314 C 404.767 1.31614 -1.55079 0
M  V30 4315 C 405.122 1.91257 -0.209422 0
M  V30 4316 O 404.415 1.74796 0.784656 0
M  V30 4317 C 404.609 2.44853 -2.6035 0
M  V30 4318 C 404.438 1.96305 -4.04591 0
M  V30 4319 C 403.208 1.8024 -4.72061 0
M  V30 4320 C 405.406 1.50872 -4.91673 0
M  V30 4321 N 403.388 1.26011 -6.00828 0
M  V30 4322 C 404.759 1.08395 -6.10451 0
M  V30 4323 C 406.814 1.38905 -4.78132 0
M  V30 4324 C 405.517 0.551399 -7.17183 0
M  V30 4325 C 407.543 0.870518 -5.84958 0
M  V30 4326 C 406.905 0.455661 -7.02925 0
M  V30 4327 H 403.004 0.473712 -0.62219 0
M  V30 4328 H 405.588 0.634103 -1.84085 0
M  V30 4329 H 403.759 3.10589 -2.33215 0
M  V30 4330 H 405.491 3.11849 -2.57938 0
M  V30 4331 H 402.246 2.02895 -4.27937 0
M  V30 4332 H 402.67 1.00991 -6.69425 0
M  V30 4333 H 407.312 1.69591 -3.87297 0
M  V30 4334 H 405.03 0.232159 -8.07766 0
M  V30 4335 H 408.616 0.781507 -5.76527 0
M  V30 4336 H 407.496 0.0606414 -7.84177 0
M  V30 4337 N 404.999 1.35443 0.805782 0
M  V30 4338 C 406.245 1.2996 1.56467 0
M  V30 4339 C 406.6 -0.124742 1.91995 0
M  V30 4340 O 405.893 -1.07533 1.58579 0
M  V30 4341 C 406.087 2.14045 2.86216 0
M  V30 4342 C 405.916 3.64512 2.63365 0
M  V30 4343 C 404.686 4.33744 2.59219 0
M  V30 4344 C 406.884 4.58142 2.33688 0
M  V30 4345 N 404.866 5.69953 2.28094 0
M  V30 4346 C 406.237 5.8248 2.12408 0
M  V30 4347 C 408.292 4.46877 2.19558 0
M  V30 4348 C 406.995 6.96818 1.78429 0
M  V30 4349 C 409.021 5.61065 1.86976 0
M  V30 4350 C 408.383 6.84431 1.66532 0
M  V30 4351 H 404.482 0.530817 0.574245 0
M  V30 4352 H 407.066 1.70333 0.943126 0
M  V30 4353 H 405.237 1.75942 3.46264 0
M  V30 4354 H 406.969 2.00075 3.51784 0
M  V30 4355 H 403.724 3.86365 2.73896 0
M  V30 4356 H 404.148 6.41845 2.15323 0
M  V30 4357 H 408.79 3.52102 2.34061 0
M  V30 4358 H 406.508 7.91559 1.62664 0
M  V30 4359 H 410.094 5.54302 1.7675 0
M  V30 4360 H 408.974 7.71294 1.41688 0
M  V30 4361 N 406.477 -1.02803 1.19454 0
M  V30 4362 C 407.724 -1.76217 0.997693 0
M  V30 4363 C 408.052 -1.887 -0.47144 0
M  V30 4364 O 407.307 -1.4011 -1.3663 0
M  V30 4365 C 407.606 -3.18941 1.6128 0
M  V30 4366 C 407.272 -3.26463 3.11019 0
M  V30 4367 C 405.934 -3.28223 3.51885 0
M  V30 4368 C 408.286 -3.25542 4.07028 0
M  V30 4369 C 405.614 -3.26719 4.8731 0
M  V30 4370 C 407.966 -3.25579 5.42385 0
M  V30 4371 C 406.63 -3.25637 5.82681 0
M  V30 4372 H 405.9 -0.644823 0.365082 0
M  V30 4373 H 408.547 -1.20655 1.4871 0
M  V30 4374 H 406.852 -3.77587 1.04572 0
M  V30 4375 H 408.549 -3.74415 1.43577 0
M  V30 4376 H 405.139 -3.25822 2.78457 0
M  V30 4377 H 409.323 -3.23362 3.76498 0
M  V30 4378 H 404.579 -3.25089 5.1781 0
M  V30 4379 H 408.753 -3.23817 6.16535 0
M  V30 4380 H 406.38 -3.24226 6.87591 0
M  V30 4381 N 407.956 -0.998596 -1.21925 0
M  V30 4382 C 409.205 -0.673085 -1.90138 0
M  V30 4383 C 409.518 0.79895 -1.78539 0
M  V30 4384 O 410.724 1.23628 -2.4172 0
M  V30 4385 C 409.18 -1.15339 -3.40918 0
M  V30 4386 C 408.788 -2.65106 -3.61141 0
M  V30 4387 C 410.532 -0.902476 -4.14796 0
M  V30 4388 C 408.439 -3.0671 -5.05651 0
M  V30 4389 H 407.369 -0.248057 -0.712028 0
M  V30 4390 H 410.02 -1.20891 -1.38049 0
M  V30 4391 H 408.402 -0.545658 -3.92223 0
M  V30 4392 H 409.576 -3.31274 -3.20304 0
M  V30 4393 H 407.891 -2.88142 -3.00605 0
M  V30 4394 H 410.488 -1.18895 -5.21314 0
M  V30 4395 H 410.831 0.161349 -4.15987 0
M  V30 4396 H 411.364 -1.47269 -3.69536 0
M  V30 4397 H 408.103 -4.12292 -5.09603 0
M  V30 4398 H 407.623 -2.45249 -5.47369 0
M  V30 4399 H 409.302 -2.9833 -5.74115 0
M  V30 4400 N 409.434 1.37368 -0.772513 0
M  V30 4401 C 410.845 1.8231 -0.402493 0
M  V30 4402 C 411.196 1.6436 1.07146 0
M  V30 4403 O 410.321 1.15514 1.82991 0
M  V30 4404 C 410.916 3.30979 -0.723776 0
M  V30 4405 C 409.475 3.74195 -0.406802 0
M  V30 4406 C 408.622 2.59885 -0.967218 0
M  V30 4407 H 411.573 1.25829 -0.967099 0
M  V30 4408 H 411.594 3.80499 -0.00870832 0
M  V30 4409 H 411.106 3.44011 -1.7966 0
M  V30 4410 H 409.207 3.66732 0.658673 0
M  V30 4411 H 409.32 4.7027 -0.915588 0
M  V30 4412 H 407.684 2.51674 -0.391416 0
M  V30 4413 H 408.467 2.7571 -2.04546 0
M  V30 4414 N 410.912 0.523116 1.48665 0
M  V30 4415 C 411.822 -0.247406 2.33292 0
M  V30 4416 C 412.838 -0.945769 1.46052 0
M  V30 4417 O 414.014 -0.922253 1.79043 0
M  V30 4418 C 411.079 -1.28487 3.22012 0
M  V30 4419 C 410.14 -0.597592 4.2512 0
M  V30 4420 C 409.373 -1.58563 5.09601 0
M  V30 4421 O 409.596 -2.81763 4.95949 0
M  V30 4422 O 408.53 -1.12879 5.91221 0
M  V30 4423 H 412.356 0.445869 3.00409 0
M  V30 4424 H 409.941 0.284128 1.46673 0
M  V30 4425 H 411.823 -1.88459 3.7691 0
M  V30 4426 H 410.498 -1.96068 2.57564 0
M  V30 4427 H 409.405 0.0424407 3.74076 0
M  V30 4428 H 410.738 0.0361517 4.92187 0
M  V30 4429 N 412.39 -1.55475 0.257931 0
M  V30 4430 C 413.615 -2.04064 -0.370488 0
M  V30 4431 C 414.04 -1.13565 -1.49948 0
M  V30 4432 O 413.398 -0.130781 -1.80828 0
M  V30 4433 C 413.446 -3.50554 -0.845237 0
M  V30 4434 O 412.55 -3.63173 -1.95394 0
M  V30 4435 H 411.891 -0.659257 -0.0792243 0
M  V30 4436 H 414.421 -2.00903 0.387212 0
M  V30 4437 H 414.431 -3.91588 -1.14555 0
M  V30 4438 H 413.106 -4.15896 -0.0191259 0
M  V30 4439 H 411.683 -3.34039 -1.65748 0
M  V30 4440 N 413.868 0.0150385 -1.57593 0
M  V30 4441 C 415.279 0.559832 -1.78109 0
M  V30 4442 C 415.63 1.74814 -0.890756 0
M  V30 4443 O 414.755 2.16216 -0.0892482 0
M  V30 4444 C 415.35 1.02238 -3.23006 0
M  V30 4445 C 413.909 1.51258 -3.44671 0
M  V30 4446 C 413.056 0.456955 -2.73509 0
M  V30 4447 H 416.007 -0.211169 -1.57289 0
M  V30 4448 H 416.028 1.88912 -3.30292 0
M  V30 4449 H 415.54 0.157302 -3.87781 0
M  V30 4450 H 413.641 2.39905 -2.8509 0
M  V30 4451 H 413.754 1.55042 -4.5332 0
M  V30 4452 H 412.118 0.915196 -2.37689 0
M  V30 4453 H 412.901 -0.398896 -3.40975 0
M  V30 4454 N 415.346 1.54954 0.287554 0
M  V30 4455 C 416.762 1.46469 0.633964 0
M  V30 4456 C 416.962 0.666865 1.90145 0
M  V30 4457 O 416.018 0.179906 2.51858 0
M  V30 4458 C 417.331 2.90556 0.774454 0
M  V30 4459 C 418.879 3.00681 0.869462 0
M  V30 4460 C 419.354 4.45993 1.04184 0
M  V30 4461 N 420.845 4.4976 1.10772 0
M  V30 4462 C 421.58 5.59393 1.25964 0
M  V30 4463 N 421.076 6.78923 1.37968 0
M  V30 4464 N 422.869 5.47107 1.28959 0
M  V30 4465 H 415.02 2.05288 -0.545041 0
M  V30 4466 H 417.283 0.930305 -0.182308 0
M  V30 4467 H 416.989 3.51594 -0.086207 0
M  V30 4468 H 416.863 3.38743 1.6593 0
M  V30 4469 H 419.25 2.39749 1.7206 0
M  V30 4470 H 419.331 2.55769 -0.0396831 0
M  V30 4471 H 418.975 5.07524 0.195422 0
M  V30 4472 H 418.905 4.88548 1.96542 0
M  V30 4473 H 421.396 3.63651 1.02794 0
M  V30 4474 H 421.709 7.58231 1.49353 0
M  V30 4475 H 420.054 6.81763 1.34999 0
M  V30 4476 H 423.245 4.52668 1.19202 0
M  V30 4477 H 423.418 6.32595 1.40455 0
M  V30 4478 N 416.824 -0.551391 1.4764 0
M  V30 4479 C 418.07 -1.30789 1.55774 0
M  V30 4480 C 418.425 -1.91143 0.219562 0
M  V30 4481 O 417.718 -1.7521 -0.775375 0
M  V30 4482 C 417.912 -2.43469 2.61644 0
M  V30 4483 C 417.741 -1.94157 4.05627 0
M  V30 4484 C 416.511 -1.77734 4.7301 0
M  V30 4485 C 418.709 -1.48262 4.92466 0
M  V30 4486 N 416.691 -1.22823 6.01488 0
M  V30 4487 C 418.062 -1.05156 6.11017 0
M  V30 4488 C 420.117 -1.36367 4.78862 0
M  V30 4489 C 418.82 -0.513357 7.17466 0
M  V30 4490 C 420.846 -0.839484 5.85411 0
M  V30 4491 C 420.208 -0.418377 7.03156 0
M  V30 4492 H 416.307 -0.470406 0.624694 0
M  V30 4493 H 418.891 -0.624331 1.84419 0
M  V30 4494 H 417.062 -3.09348 2.34859 0
M  V30 4495 H 418.794 -3.10477 2.59589 0
M  V30 4496 H 415.549 -2.00623 4.29007 0
M  V30 4497 H 415.973 -0.974393 6.69951 0
M  V30 4498 H 420.615 -1.67535 3.88191 0
M  V30 4499 H 418.333 -0.189318 8.07878 0
M  V30 4500 H 421.919 -0.750921 5.76934 0
M  V30 4501 H 420.799 -0.0190538 7.84198 0
M  V30 4502 N 418.302 -1.35869 -0.798587 0
M  V30 4503 C 419.232 -1.32118 -1.92528 0
M  V30 4504 C 420.213 -0.194209 -1.68988 0
M  V30 4505 O 421.398 -0.390426 -1.90235 0
M  V30 4506 C 418.528 -1.10047 -3.29404 0
M  V30 4507 C 417.482 -2.19471 -3.67446 0
M  V30 4508 C 416.808 -1.82555 -5.02571 0
M  V30 4509 C 418.108 -3.61495 -3.76987 0
M  V30 4510 H 419.802 -2.26394 -1.95924 0
M  V30 4511 H 417.348 -1.08981 -0.94123 0
M  V30 4512 H 419.301 -1.06061 -4.07835 0
M  V30 4513 H 418.025 -0.122195 -3.26371 0
M  V30 4514 H 416.684 -2.22568 -2.91306 0
M  V30 4515 H 416.332 -0.833249 -4.9605 0
M  V30 4516 H 416.032 -2.5581 -5.28995 0
M  V30 4517 H 417.556 -1.80108 -5.83432 0
M  V30 4518 H 418.97 -3.60676 -4.4563 0
M  V30 4519 H 417.367 -4.33577 -4.14887 0
M  V30 4520 H 418.437 -3.97065 -2.78329 0
M  V30 4521 N 419.78 1.02168 -1.19998 0
M  V30 4522 C 421.029 1.75091 -1.0013 0
M  V30 4523 C 421.342 1.89923 0.467835 0
M  V30 4524 O 422.548 2.59888 0.785515 0
M  V30 4525 C 421.004 3.14892 -1.74273 0
M  V30 4526 C 420.612 3.0809 -3.25245 0
M  V30 4527 C 422.356 3.9206 -1.62755 0
M  V30 4528 C 420.263 4.42867 -3.91948 0
M  V30 4529 H 419.193 0.656394 -0.37103 0
M  V30 4530 H 421.844 1.14284 -1.43567 0
M  V30 4531 H 420.226 3.7621 -1.2362 0
M  V30 4532 H 421.4 2.5611 -3.83072 0
M  V30 4533 H 419.715 2.44416 -3.3712 0
M  V30 4534 H 422.312 4.91764 -2.09934 0
M  V30 4535 H 422.655 4.12199 -0.582894 0
M  V30 4536 H 423.188 3.37359 -2.10793 0
M  V30 4537 H 419.927 4.27931 -4.96543 0
M  V30 4538 H 419.447 4.94874 -3.3891 0
M  V30 4539 H 421.126 5.11728 -3.95909 0
M  V30 4540 N 421.258 1.00505 1.21394 0
M  V30 4541 C 422.483 0.706367 1.95001 0
M  V30 4542 C 422.908 -0.72463 1.73582 0
M  V30 4543 O 422.266 -1.49702 1.0227 0
M  V30 4544 C 422.314 1.03299 3.45487 0
M  V30 4545 O 421.418 0.138275 4.12168 0
M  V30 4546 H 420.759 0.263175 0.609619 0
M  V30 4547 H 423.289 1.34531 1.54151 0
M  V30 4548 H 423.299 0.979872 3.96059 0
M  V30 4549 H 421.974 2.07567 3.60401 0
M  V30 4550 H 420.551 0.247928 3.72075 0
M  V30 4551 N 422.737 -1.36956 0.779787 0
M  V30 4552 C 423.669 -2.28833 0.129639 0
M  V30 4553 C 424.682 -1.4902 -0.655511 0
M  V30 4554 O 425.871 -1.71578 -0.492279 0
M  V30 4555 C 422.971 -3.2833 -0.839792 0
M  V30 4556 C 422.144 -4.3727 -0.10675 0
M  V30 4557 C 421.203 -5.16789 -0.990717 0
M  V30 4558 O 420.229 -5.67406 -0.451516 0
M  V30 4559 N 421.431 -5.32294 -2.3161 0
M  V30 4560 H 424.196 -2.85268 0.918803 0
M  V30 4561 H 421.757 -1.49019 0.632841 0
M  V30 4562 H 423.749 -3.78413 -1.43477 0
M  V30 4563 H 422.319 -2.72605 -1.52988 0
M  V30 4564 H 421.539 -3.88478 0.669216 0
M  V30 4565 H 422.827 -5.07229 0.399464 0
M  V30 4566 H 422.225 -4.92768 -2.77843 0
M  V30 4567 H 420.782 -5.85656 -2.86095 0
M  V30 4568 N 424.215 -0.530993 -1.48385 0
M  V30 4569 C 425.631 -0.188919 -1.58478 0
M  V30 4570 C 425.831 1.30786 -1.53288 0
M  V30 4571 O 424.887 2.08619 -1.42248 0
M  V30 4572 C 426.2 -0.792343 -2.90073 0
M  V30 4573 C 427.748 -0.76117 -3.03604 0
M  V30 4574 C 428.223 -1.34319 -4.37861 0
M  V30 4575 N 429.714 -1.3052 -4.44431 0
M  V30 4576 C 430.449 -1.72543 -5.46824 0
M  V30 4577 N 429.945 -2.22299 -6.56167 0
M  V30 4578 N 431.738 -1.63773 -5.37712 0
M  V30 4579 H 423.889 -1.50377 -1.50002 0
M  V30 4580 H 426.152 -0.625559 -0.712306 0
M  V30 4581 H 425.858 -1.84323 -2.99529 0
M  V30 4582 H 425.732 -0.270026 -3.76232 0
M  V30 4583 H 428.119 0.280957 -2.93759 0
M  V30 4584 H 428.2 -1.32097 -2.19053 0
M  V30 4585 H 427.844 -2.38425 -4.4846 0
M  V30 4586 H 427.774 -0.759064 -5.21101 0
M  V30 4587 H 430.265 -0.940973 -3.65997 0
M  V30 4588 H 430.578 -2.52356 -7.30436 0
M  V30 4589 H 428.923 -2.26293 -6.57127 0
M  V30 4590 H 432.114 -1.24698 -4.51185 0
M  V30 4591 H 432.287 -1.96844 -6.17379 0
M  V30 4592 N 425.693 1.55336 -0.266172 0
M  V30 4593 C 427.109 1.59356 0.0882065 0
M  V30 4594 C 427.309 1.2834 1.55342 0
M  V30 4595 O 426.365 1.03996 2.30089 0
M  V30 4596 C 427.678 2.99409 -0.278364 0
M  V30 4597 C 429.226 3.12196 -0.224243 0
M  V30 4598 C 429.701 4.545 -0.565123 0
M  V30 4599 N 431.192 4.60313 -0.51634 0
M  V30 4600 C 431.927 5.68434 -0.753013 0
M  V30 4601 N 431.423 6.84738 -1.05383 0
M  V30 4602 N 433.216 5.57942 -0.682414 0
M  V30 4603 H 425.367 1.73764 -1.22147 0
M  V30 4604 H 427.63 0.809822 -0.492841 0
M  V30 4605 H 427.336 3.2691 -1.29703 0
M  V30 4606 H 427.21 3.75228 0.385186 0
M  V30 4607 H 429.597 2.84464 0.78512 0
M  V30 4608 H 429.678 2.38609 -0.921922 0
M  V30 4609 H 429.322 4.82956 -1.57213 0
M  V30 4610 H 429.252 5.26374 0.154248 0
M  V30 4611 H 431.743 3.7676 -0.29335 0
M  V30 4612 H 432.056 7.63088 -1.22133 0
M  V30 4613 H 430.401 6.86375 -1.09151 0
M  V30 4614 H 433.592 4.65958 -0.44731 0
M  V30 4615 H 433.765 6.4213 -0.870248 0
M  V30 4616 N 427.171 -0.0066808 1.57599 0
M  V30 4617 C 428.418 -0.69292 1.90276 0
M  V30 4618 C 428.746 -1.74148 0.866192 0
M  V30 4619 O 428.001 -1.95268 -0.129933 0
M  V30 4620 C 428.3 -1.37939 3.29708 0
M  V30 4621 C 427.966 -0.464679 4.48499 0
M  V30 4622 C 426.628 -0.212809 4.80729 0
M  V30 4623 C 428.98 0.16551 5.20937 0
M  V30 4624 C 426.308 0.677653 5.82773 0
M  V30 4625 C 428.66 1.04381 6.23929 0
M  V30 4626 C 427.324 1.30492 6.54621 0
M  V30 4627 H 426.594 -0.253558 0.696268 0
M  V30 4628 H 429.241 0.0474123 1.91441 0
M  V30 4629 H 427.546 -2.1936 3.24636 0
M  V30 4630 H 429.243 -1.9163 3.52249 0
M  V30 4631 H 425.833 -0.671153 4.23313 0
M  V30 4632 H 430.017 -0.0160756 4.96297 0
M  V30 4633 H 425.273 0.88803 6.04917 0
M  V30 4634 H 429.447 1.53851 6.79193 0
M  V30 4635 H 427.074 1.99662 7.33512 0
M  V30 4636 N 428.649 -1.55105 -0.279332 0
M  V30 4637 C 430.065 -1.46803 -0.626187 0
M  V30 4638 C 430.265 -0.676939 -1.89789 0
M  V30 4639 O 429.321 -0.19326 -2.51759 0
M  V30 4640 C 430.634 -2.90962 -0.759034 0
M  V30 4641 C 432.182 -3.01138 -0.853504 0
M  V30 4642 C 432.657 -4.46539 -1.01818 0
M  V30 4643 N 434.148 -4.50341 -1.08386 0
M  V30 4644 C 434.883 -5.60053 -1.22996 0
M  V30 4645 N 434.379 -6.79645 -1.34366 0
M  V30 4646 N 436.172 -5.47783 -1.26056 0
M  V30 4647 H 428.323 -2.04996 0.555921 0
M  V30 4648 H 430.586 -0.929325 0.187239 0
M  V30 4649 H 430.292 -3.51544 0.104852 0
M  V30 4650 H 430.166 -3.39619 -1.64131 0
M  V30 4651 H 432.553 -2.40658 -1.70786 0
M  V30 4652 H 432.634 -2.55745 0.0532466 0
M  V30 4653 H 432.278 -5.0762 -0.168504 0
M  V30 4654 H 432.208 -4.89583 -1.93948 0
M  V30 4655 H 434.699 -3.64191 -1.00864 0
M  V30 4656 H 435.012 -7.59012 -1.4533 0
M  V30 4657 H 433.357 -6.82469 -1.31382 0
M  V30 4658 H 436.548 -4.53294 -1.168 0
M  V30 4659 H 436.721 -6.33331 -1.37098 0
M  V30 4660 N 430.127 0.543554 -1.4793 0
M  V30 4661 C 431.037 1.67657 -1.64098 0
M  V30 4662 C 432.053 1.65934 -0.523622 0
M  V30 4663 O 433.229 1.85133 -0.792943 0
M  V30 4664 C 430.294 3.04146 -1.66421 0
M  V30 4665 C 429.355 3.16831 -2.89684 0
M  V30 4666 C 428.588 4.46809 -2.91886 0
M  V30 4667 O 428.811 5.33095 -2.02895 0
M  V30 4668 O 427.745 4.63573 -3.83906 0
M  V30 4669 H 431.571 1.56957 -2.59997 0
M  V30 4670 H 429.156 0.715116 -1.31173 0
M  V30 4671 H 431.038 3.85346 -1.70548 0
M  V30 4672 H 429.713 3.152 -0.736923 0
M  V30 4673 H 428.62 2.34977 -2.91095 0
M  V30 4674 H 429.953 3.10687 -3.81752 0
M  V30 4675 N 431.605 1.3629 0.791371 0
M  V30 4676 C 432.568 1.30309 1.88553 0
M  V30 4677 C 433.568 0.211204 1.59407 0
M  V30 4678 O 434.758 0.465865 1.67855 0
M  V30 4679 C 431.89 1.01956 3.25297 0
M  V30 4680 H 433.083 2.27614 1.95273 0
M  V30 4681 H 430.636 1.21035 0.988953 0
M  V30 4682 H 431.371 0.050998 3.2426 0
M  V30 4683 H 431.156 1.80968 3.4784 0
M  V30 4684 H 432.646 1.0037 4.05359 0
M  V30 4685 N 433.083 -1.0153 1.20538 0
M  V30 4686 C 433.993 -2.13557 0.971113 0
M  V30 4687 C 435.009 -1.73845 -0.0734366 0
M  V30 4688 O 436.185 -2.01075 0.114299 0
M  V30 4689 C 433.25 -3.42661 0.527639 0
M  V30 4690 C 432.311 -3.96608 1.64319 0
M  V30 4691 C 431.544 -5.1955 1.22078 0
M  V30 4692 O 431.767 -5.70329 0.0900198 0
M  V30 4693 O 430.701 -5.66681 2.02871 0
M  V30 4694 H 434.527 -2.3619 1.90913 0
M  V30 4695 H 432.112 -1.11946 0.989362 0
M  V30 4696 H 433.994 -4.20404 0.289621 0
M  V30 4697 H 432.669 -3.21441 -0.381779 0
M  V30 4698 H 431.576 -3.20139 1.93551 0
M  V30 4699 H 432.909 -4.22219 2.52966 0
M  V30 4700 N 434.561 -1.01147 -1.20859 0
M  V30 4701 C 435.838 -0.613136 -1.85742 0
M  V30 4702 C 436.218 0.909004 -1.90526 0
M  V30 4703 O 435.566 1.79862 -1.40932 0
M  V30 4704 C 435.776 -1.255 -3.25654 0
M  V30 4705 C 437.124 -1.3672 -4.01986 0
M  V30 4706 O 438.148 -1.21082 -3.34989 0
M  V30 4707 O 437.007 -1.6194 -5.21956 0
M  V30 4708 H 434.101 -0.210878 -0.799662 0
M  V30 4709 H 436.647 -1.10853 -1.2849 0
M  V30 4710 H 435.419 -2.29532 -3.16908 0
M  V30 4711 H 435.042 -0.746369 -3.90532 0
M  V30 4712 N 436.039 1.36541 -0.78704 0
M  V30 4713 C 437.288 1.98552 -0.35494 0
M  V30 4714 C 437.601 1.63171 1.07864 0
M  V30 4715 O 438.807 2.18399 1.61289 0
M  V30 4716 C 437.263 3.55136 -0.583671 0
M  V30 4717 C 436.871 3.99444 -2.02851 0
M  V30 4718 C 438.615 4.2395 -0.215957 0
M  V30 4719 C 436.522 5.48796 -2.20403 0
M  V30 4720 H 435.452 0.742888 -0.128972 0
M  V30 4721 H 438.103 1.5587 -0.968337 0
M  V30 4722 H 436.485 3.95875 0.0994046 0
M  V30 4723 H 437.659 3.6991 -2.74779 0
M  V30 4724 H 435.974 3.43459 -2.35425 0
M  V30 4725 H 438.571 5.33709 -0.325405 0
M  V30 4726 H 438.914 4.07827 0.835646 0
M  V30 4727 H 439.447 3.88565 -0.852175 0
M  V30 4728 H 436.186 5.69864 -3.23937 0
M  V30 4729 H 435.706 5.79964 -1.52977 0
M  V30 4730 H 437.385 6.14986 -2.01002 0
M  V30 4731 N 437.518 0.538854 1.48102 0
M  V30 4732 C 438.767 0.0059532 2.01699 0
M  V30 4733 C 439.08 -1.34476 1.42041 0
M  V30 4734 O 440.286 -1.96653 1.87189 0
M  V30 4735 C 438.742 -0.0397627 3.59878 0
M  V30 4736 C 438.35 1.30659 4.28523 0
M  V30 4737 C 440.094 -0.521024 4.2129 0
M  V30 4738 C 438.001 1.22098 5.78659 0
M  V30 4739 H 436.931 -0.00154456 0.753998 0
M  V30 4740 H 439.582 0.683963 1.70277 0
M  V30 4741 H 437.964 -0.783037 3.88181 0
M  V30 4742 H 439.138 2.06613 4.11883 0
M  V30 4743 H 437.453 1.7243 3.79021 0
M  V30 4744 H 440.05 -0.603184 5.31287 0
M  V30 4745 H 440.393 -1.52885 3.8721 0
M  V30 4746 H 440.926 0.166834 3.9745 0
M  V30 4747 H 437.665 2.20424 6.17328 0
M  V30 4748 H 437.185 0.50295 5.97688 0
M  V30 4749 H 438.864 0.915345 6.40492 0
M  V30 4750 N 438.996 -1.55193 0.274407 0
M  V30 4751 C 439.928 -2.1989 -0.646595 0
M  V30 4752 C 440.941 -1.1834 -1.11801 0
M  V30 4753 O 442.13 -1.4507 -1.04004 0
M  V30 4754 C 439.23 -2.8104 -1.89393 0
M  V30 4755 C 438.403 -4.08274 -1.56943 0
M  V30 4756 C 437.462 -4.53478 -2.66916 0
M  V30 4757 O 436.488 -5.19267 -2.33132 0
M  V30 4758 N 437.69 -4.2356 -3.9696 0
M  V30 4759 H 440.455 -2.99556 -0.0928686 0
M  V30 4760 H 438.016 -1.61618 0.0954783 0
M  V30 4761 H 440.008 -3.08226 -2.62257 0
M  V30 4762 H 438.578 -2.05372 -2.35672 0
M  V30 4763 H 437.798 -3.88384 -0.674655 0
M  V30 4764 H 439.086 -4.91173 -1.32764 0
M  V30 4765 H 438.484 -3.70799 -4.27229 0
M  V30 4766 H 437.041 -4.55518 -4.66205 0
M  V30 4767 N 440.474 -0.00167713 -1.576 0
M  V30 4768 C 441.421 0.989195 -2.08527 0
M  V30 4769 C 442.391 1.34031 -0.981065 0
M  V30 4770 O 443.576 1.43839 -1.2536 0
M  V30 4771 C 440.716 2.27537 -2.59463 0
M  V30 4772 C 439.829 1.98314 -3.83791 0
M  V30 4773 C 438.964 3.21025 -4.23222 0
M  V30 4774 C 438.003 2.87495 -5.40382 0
M  V30 4775 N 437.14 4.02749 -5.75098 0
M  V30 4776 H 441.98 0.547973 -2.92919 0
M  V30 4777 H 439.517 0.258917 -1.44803 0
M  V30 4778 H 441.475 3.02729 -2.87073 0
M  V30 4779 H 440.105 2.69325 -1.77943 0
M  V30 4780 H 439.157 1.13482 -3.63078 0
M  V30 4781 H 440.469 1.69601 -4.69081 0
M  V30 4782 H 439.623 4.04561 -4.52123 0
M  V30 4783 H 438.362 3.52877 -3.36644 0
M  V30 4784 H 437.367 2.02367 -5.11202 0
M  V30 4785 H 438.592 2.56889 -6.28637 0
M  V30 4786 H 436.538 4.34494 -4.91478 0
M  V30 4787 H 436.455 3.77566 -6.54966 0
M  V30 4788 H 437.723 4.87068 -6.08592 0
M  V30 4789 N 441.952 1.55251 0.271103 0
M  V30 4790 C 442.915 1.87484 1.31842 0
M  V30 4791 C 443.915 0.749545 1.42262 0
M  V30 4792 O 445.105 1.01771 1.4138 0
M  V30 4793 C 442.237 2.0818 2.69951 0
M  V30 4794 H 443.43 2.81108 1.0449 0
M  V30 4795 H 440.983 1.47771 0.509258 0
M  V30 4796 H 441.718 1.16944 3.02481 0
M  V30 4797 H 441.503 2.90114 2.63774 0
M  V30 4798 H 442.993 2.34385 3.4562 0
M  V30 4799 N 443.43 -0.535701 1.48216 0
M  V30 4800 C 444.393 -1.623 1.61838 0
M  V30 4801 C 445.393 -1.53087 0.492024 0
M  V30 4802 O 446.583 -1.5686 0.757668 0
M  V30 4803 C 443.715 -3.01907 1.58319 0
M  V30 4804 H 444.908 -1.51564 2.58783 0
M  V30 4805 H 442.461 -0.757317 1.36727 0
M  V30 4806 H 443.196 -3.18155 0.628299 0
M  V30 4807 H 442.981 -3.10003 2.40085 0
M  V30 4808 H 444.471 -3.80969 1.71033 0
M  V30 4809 N 444.908 -1.36708 -0.784132 0
M  V30 4810 C 445.855 -1.31466 -1.89698 0
M  V30 4811 C 446.825 -0.18239 -1.65096 0
M  V30 4812 O 448.01 -0.369762 -1.87183 0
M  V30 4813 C 445.15 -1.1151 -3.26588 0
M  V30 4814 C 444.263 -2.33859 -3.63227 0
M  V30 4815 C 443.398 -2.06873 -4.89262 0
M  V30 4816 C 442.437 -3.25154 -5.18595 0
M  V30 4817 N 441.574 -2.978 -6.35814 0
M  V30 4818 H 446.414 -2.26619 -1.93515 0
M  V30 4819 H 443.951 -1.12625 -0.946256 0
M  V30 4820 H 445.909 -0.979653 -4.05535 0
M  V30 4821 H 444.539 -0.200103 -3.22179 0
M  V30 4822 H 443.591 -2.58188 -2.79362 0
M  V30 4823 H 444.903 -3.22109 -3.8085 0
M  V30 4824 H 444.057 -1.90289 -5.76086 0
M  V30 4825 H 442.796 -1.15942 -4.73718 0
M  V30 4826 H 441.801 -3.42292 -4.30251 0
M  V30 4827 H 443.026 -4.1692 -5.36055 0
M  V30 4828 H 440.972 -2.09485 -6.21653 0
M  V30 4829 H 440.889 -3.7959 -6.53794 0
M  V30 4830 H 442.157 -2.84805 -7.25607 0
M  V30 4831 N 446.386 1.0089 -1.21074 0
M  V30 4832 C 447.319 2.09279 -0.909806 0
M  V30 4833 C 448.297 1.61986 0.141145 0
M  V30 4834 O 449.481 1.88495 0.0130332 0
M  V30 4835 C 446.608 3.36723 -0.365374 0
M  V30 4836 C 445.654 4.02919 -1.39852 0
M  V30 4837 S 446.487 4.45835 -2.96633 0
M  V30 4838 C 447.643 5.76471 -2.43786 0
M  V30 4839 H 447.876 2.34484 -1.82769 0
M  V30 4840 H 445.409 1.14115 -1.04006 0
M  V30 4841 H 447.367 4.10459 -0.0578203 0
M  V30 4842 H 446.028 3.09577 0.531136 0
M  V30 4843 H 445.221 4.94634 -0.967117 0
M  V30 4844 H 444.823 3.35441 -1.65395 0
M  V30 4845 H 447.115 6.52027 -1.84029 0
M  V30 4846 H 448.058 6.24418 -3.33928 0
M  V30 4847 H 448.466 5.33104 -1.85636 0
M  V30 4848 N 447.864 1.01787 1.20321 0
M  V30 4849 C 448.812 0.58254 2.25187 0
M  V30 4850 C 449.806 -0.379359 1.65098 0
M  V30 4851 O 451.012 -0.249142 1.78267 0
M  V30 4852 H 447.387 0.170078 0.732514 0
M  V30 4853 H 449.358 1.47788 2.59232 0
M  V30 4854 C 448.107 -0.0620885 3.47645 0
M  V30 4855 H 447.43 0.669069 3.94162 0
M  V30 4856 H 448.87 -0.329784 4.22716 0
M  V30 4857 C 447.329 -1.3053 3.10586 0
M  V30 4858 O 447.859 -2.39848 3.22236 0
M  V30 4859 N 446.065 -1.18988 2.65123 0
M  V30 4860 H 445.612 -0.300341 2.55843 0
M  V30 4861 H 445.57 -2.02267 2.40698 0
M  V30 4862 N 449.342 -1.36122 0.79427 0
M  V30 4863 C 450.29 -2.31871 0.184023 0
M  V30 4864 C 451.284 -1.56041 -0.659365 0
M  V30 4865 O 452.49 -1.71266 -0.553906 0
M  V30 4866 H 448.865 -0.750896 0.0407373 0
M  V30 4867 H 450.836 -2.80898 1.00693 0
M  V30 4868 C 449.585 -3.41324 -0.662813 0
M  V30 4869 H 448.908 -3.99793 -0.0231944 0
M  V30 4870 H 450.348 -4.10629 -1.05639 0
M  V30 4871 C 448.807 -2.83308 -1.82313 0
M  V30 4872 O 449.337 -2.75863 -2.91997 0
M  V30 4873 N 447.543 -2.40529 -1.63077 0
M  V30 4874 H 447.09 -2.46785 -0.738591 0
M  V30 4875 H 447.048 -2.02059 -2.40872 0
M  V30 4876 N 450.82 -0.546701 -1.47814 0
M  V30 4877 C 452.069 -0.0166497 -2.01693 0
M  V30 4878 C 452.382 1.33721 -1.42752 0
M  V30 4879 O 453.588 1.95658 -1.8823 0
M  V30 4880 C 452.044 0.0206769 -3.59894 0
M  V30 4881 C 451.652 -1.3293 -4.27824 0
M  V30 4882 C 453.396 0.498674 -4.21561 0
M  V30 4883 C 451.303 -1.25165 -5.78003 0
M  V30 4884 H 450.233 -0.0024541 -0.753996 0
M  V30 4885 H 452.884 -0.692984 -1.69912 0
M  V30 4886 H 451.266 0.76244 -3.88591 0
M  V30 4887 H 452.44 -2.08795 -4.10781 0
M  V30 4888 H 450.755 -1.74438 -3.78101 0
M  V30 4889 H 453.352 0.575 -5.31599 0
M  V30 4890 H 453.695 1.5083 -3.88016 0
M  V30 4891 H 454.228 -0.18791 -3.97356 0
M  V30 4892 H 450.967 -2.23695 -6.1615 0
M  V30 4893 H 450.487 -0.53464 -5.97412 0
M  V30 4894 H 452.166 -0.949299 -6.39998 0
M  V30 4895 N 452.299 1.55045 -0.282633 0
M  V30 4896 C 453.262 2.21515 0.588539 0
M  V30 4897 C 454.262 1.19535 1.07554 0
M  V30 4898 O 455.452 1.44391 0.974514 0
M  V30 4899 C 452.584 2.88704 1.8128 0
M  V30 4900 H 453.777 2.99899 0.00806397 0
M  V30 4901 H 451.33 1.56265 -0.0333067 0
M  V30 4902 H 452.065 2.14352 2.43359 0
M  V30 4903 H 451.85 3.63443 1.47144 0
M  V30 4904 H 453.34 3.39465 2.43214 0
M  V30 4905 N 453.777 0.010035 1.57597 0
M  V30 4906 C 455.023 -0.673697 1.91283 0
M  V30 4907 C 455.356 -1.72863 0.884979 0
M  V30 4908 O 454.631 -1.94268 -0.0949487 0
M  V30 4909 C 454.914 -1.30766 3.35518 0
M  V30 4910 C 454.767 -0.263578 4.49027 0
M  V30 4911 C 456.086 -2.23105 3.79358 0
M  V30 4912 H 453.205 -0.243439 0.695634 0
M  V30 4913 H 455.847 0.0633864 1.89894 0
M  V30 4914 H 453.997 -1.93588 3.36832 0
M  V30 4915 H 455.669 0.365738 4.59848 0
M  V30 4916 H 453.912 0.413077 4.31829 0
M  V30 4917 H 454.583 -0.746398 5.4693 0
M  V30 4918 H 457.059 -1.70289 3.79659 0
M  V30 4919 H 455.935 -2.64424 4.81011 0
M  V30 4920 H 456.196 -3.11433 3.13787 0
M  V30 4921 N 455.255 -1.55392 -0.262866 0
M  V30 4922 C 456.666 -1.67079 -0.833158 0
M  V30 4923 C 457.017 -0.604539 -1.86654 0
M  V30 4924 O 456.142 0.252138 -2.14926 0
M  V30 4925 C 456.737 -3.02891 -1.51797 0
M  V30 4926 C 455.296 -3.16571 -2.03617 0
M  V30 4927 C 454.443 -2.62909 -0.881701 0
M  V30 4928 H 457.394 -1.58652 -0.0389986 0
M  V30 4929 H 457.415 -2.96445 -2.38538 0
M  V30 4930 H 456.927 -3.80473 -0.765619 0
M  V30 4931 H 455.028 -2.43782 -2.81782 0
M  V30 4932 H 455.141 -4.23271 -2.24452 0
M  V30 4933 H 453.505 -2.20324 -1.27786 0
M  V30 4934 H 454.288 -3.43003 -0.14269 0
M  V30 4935 N 456.733 0.527833 -1.48498 0
M  V30 4936 C 457.696 1.61439 -1.62696 0
M  V30 4937 C 458.696 1.52824 -0.500136 0
M  V30 4938 O 459.886 1.56456 -0.765976 0
M  V30 4939 C 457.018 3.01063 -1.59918 0
M  V30 4940 H 458.211 1.50189 -2.59583 0
M  V30 4941 H 455.764 0.750055 -1.37127 0
M  V30 4942 H 456.499 3.17818 -0.645163 0
M  V30 4943 H 456.284 3.08725 -2.41726 0
M  V30 4944 H 457.774 3.80057 -1.73051 0
M  V30 4945 N 458.211 1.37122 0.776871 0
M  V30 4946 C 459.457 1.32243 1.53752 0
M  V30 4947 C 459.79 -0.0944745 1.9397 0
M  V30 4948 O 459.065 -1.05068 1.6368 0
M  V30 4949 C 459.348 2.25681 2.80607 0
M  V30 4950 C 459.201 3.76127 2.46676 0
M  V30 4951 C 460.52 2.17657 3.82509 0
M  V30 4952 H 457.639 0.481704 0.557791 0
M  V30 4953 H 460.281 1.6778 0.891612 0
M  V30 4954 H 458.431 1.95505 3.35723 0
M  V30 4955 H 460.103 4.16877 1.97513 0
M  V30 4956 H 458.346 3.94946 1.79443 0
M  V30 4957 H 459.017 4.36933 3.37333 0
M  V30 4958 H 461.493 2.44245 3.36873 0
M  V30 4959 H 460.369 2.85185 4.69 0
M  V30 4960 H 460.63 1.16785 4.26396 0
M  V30 4961 N 459.689 -1.00246 1.21608 0
M  V30 4962 C 460.938 -1.73476 1.02902 0
M  V30 4963 C 461.251 -1.90643 -0.437561 0
M  V30 4964 O 462.457 -2.61105 -0.74407 0
M  V30 4965 C 460.913 -3.12079 1.79261 0
M  V30 4966 C 460.521 -3.02877 3.30106 0
M  V30 4967 C 462.265 -3.89421 1.68972 0
M  V30 4968 C 460.172 -4.36575 3.98944 0
M  V30 4969 H 459.102 -0.650408 0.381425 0
M  V30 4970 H 461.753 -1.11985 1.45367 0
M  V30 4971 H 460.135 -3.74196 1.2959 0
M  V30 4972 H 461.309 -2.49983 3.87098 0
M  V30 4973 H 459.624 -2.39022 3.40965 0
M  V30 4974 H 462.221 -4.88362 2.17731 0
M  V30 4975 H 462.564 -4.1122 0.648397 0
M  V30 4976 H 463.097 -3.33963 2.16133 0
M  V30 4977 H 459.836 -4.19978 5.03288 0
M  V30 4978 H 459.356 -4.8942 3.4674 0
M  V30 4979 H 461.035 -5.05364 4.04 0
M  V30 4980 N 461.167 -1.02423 -1.1978 0
M  V30 4981 C 462.414 -0.717988 -1.89344 0
M  V30 4982 C 462.742 0.753036 -1.79331 0
M  V30 4983 O 461.997 1.56355 -1.17692 0
M  V30 4984 C 462.296 -1.1088 -3.39765 0
M  V30 4985 C 461.962 -2.57731 -3.6998 0
M  V30 4986 C 460.624 -2.97854 -3.77937 0
M  V30 4987 C 462.976 -3.52763 -3.83677 0
M  V30 4988 C 460.304 -4.31931 -3.97054 0
M  V30 4989 C 462.656 -4.86538 -4.04306 0
M  V30 4990 C 461.32 -5.26356 -4.10494 0
M  V30 4991 H 460.59 -0.26273 -0.692859 0
M  V30 4992 H 463.237 -1.28623 -1.41875 0
M  V30 4993 H 461.542 -0.459094 -3.89101 0
M  V30 4994 H 463.239 -0.849432 -3.919 0
M  V30 4995 H 459.829 -2.25646 -3.64393 0
M  V30 4996 H 464.013 -3.2292 -3.76877 0
M  V30 4997 H 459.269 -4.62324 -4.00083 0
M  V30 4998 H 463.443 -5.60093 -4.13846 0
M  V30 4999 H 461.07 -6.3026 -4.2506 0
M  V30 5000 N 462.645 1.35699 -0.801477 0
M  V30 5001 C 463.922 1.9324 -0.302937 0
M  V30 5002 C 464.302 1.73209 1.20672 0
M  V30 5003 O 463.65 1.09809 2.00385 0
M  V30 5004 C 463.86 3.41728 -0.708747 0
M  V30 5005 C 465.208 4.18868 -0.695328 0
M  V30 5006 O 466.232 3.5022 -0.649971 0
M  V30 5007 O 465.091 5.41342 -0.749081 0
M  V30 5008 H 462.185 0.82331 -0.0780367 0
M  V30 5009 H 464.731 1.44806 -0.884832 0
M  V30 5010 H 463.503 3.50015 -1.74944 0
M  V30 5011 H 463.126 3.97471 -0.101384 0
M  V30 5012 N 464.123 0.554532 1.47522 0
M  V30 5013 C 465.348 0.0322661 2.07375 0
M  V30 5014 C 465.773 -1.25079 1.40488 0
M  V30 5015 O 465.131 -1.74859 0.47896 0
M  V30 5016 C 465.179 -0.149397 3.6029 0
M  V30 5017 O 464.283 -1.21259 3.9417 0
M  V30 5018 H 463.624 0.0501228 0.662106 0
M  V30 5019 H 466.154 0.769452 1.8958 0
M  V30 5020 H 466.164 -0.364437 4.06369 0
M  V30 5021 H 464.839 0.787743 4.08372 0
M  V30 5022 H 463.416 -0.97825 3.5984 0
M  V30 5023 N 465.601 -1.54893 0.290851 0
M  V30 5024 C 466.847 -2.0023 -0.321867 0
M  V30 5025 C 467.18 -1.179 -1.54316 0
M  V30 5026 O 466.455 -0.25293 -1.92848 0
M  V30 5027 C 466.738 -3.53456 -0.688515 0
M  V30 5028 C 466.591 -4.46532 0.541209 0
M  V30 5029 C 467.91 -4.13057 -1.51895 0
M  V30 5030 H 465.029 -0.727891 -0.115515 0
M  V30 5031 H 467.671 -1.85722 0.400931 0
M  V30 5032 H 465.821 -3.6595 -1.30433 0
M  V30 5033 H 467.493 -4.4596 1.17973 0
M  V30 5034 H 465.736 -4.17545 1.17636 0
M  V30 5035 H 466.407 -5.51475 0.240675 0
M  V30 5036 H 468.883 -4.03937 -0.99872 0
M  V30 5037 H 467.759 -5.20448 -1.74429 0
M  V30 5038 H 468.02 -3.64284 -2.50498 0
M  V30 5039 N 467.08 -0.0183926 -1.57589 0
M  V30 5040 C 467.99 0.982943 -2.13015 0
M  V30 5041 C 469.006 1.36443 -1.07979 0
M  V30 5042 O 470.182 1.44802 -1.3998 0
M  V30 5043 C 467.247 2.25024 -2.63752 0
M  V30 5044 C 466.308 1.93018 -3.83461 0
M  V30 5045 C 465.541 3.13706 -4.31769 0
M  V30 5046 O 465.764 4.2601 -3.79305 0
M  V30 5047 O 464.698 2.96629 -5.23732 0
M  V30 5048 H 468.524 0.541709 -2.9883 0
M  V30 5049 H 466.109 0.201565 -1.48034 0
M  V30 5050 H 467.991 2.99441 -2.96502 0
M  V30 5051 H 466.666 2.68349 -1.81026 0
M  V30 5052 H 465.573 1.16019 -3.55655 0
M  V30 5053 H 466.906 1.54516 -4.67317 0
M  V30 5054 N 468.558 1.5553 0.254621 0
M  V30 5055 C 469.468 1.92789 1.33677 0
M  V30 5056 C 470.484 0.827356 1.53071 0
M  V30 5057 O 471.66 1.12807 1.66843 0
M  V30 5058 C 468.725 2.20827 2.67275 0
M  V30 5059 C 467.786 3.4427 2.5647 0
M  V30 5060 C 467.019 3.70961 3.83697 0
M  V30 5061 O 467.242 2.99852 4.85227 0
M  V30 5062 O 466.176 4.64491 3.82794 0
M  V30 5063 H 470.002 2.84945 1.05071 0
M  V30 5064 H 467.587 1.42312 0.454723 0
M  V30 5065 H 469.469 2.40204 3.46237 0
M  V30 5066 H 468.144 1.31851 2.9563 0
M  V30 5067 H 467.051 3.30209 1.75821 0
M  V30 5068 H 468.384 4.33524 2.33062 0
M  V30 5069 N 470.036 -0.519951 1.48776 0
M  V30 5070 C 470.966 -1.63253 1.66945 0
M  V30 5071 C 471.947 -1.62014 0.518224 0
M  V30 5072 O 473.132 -1.79053 0.751919 0
M  V30 5073 C 470.262 -3.0181 1.71836 0
M  V30 5074 C 469.216 -3.17911 2.8656 0
M  V30 5075 C 468.542 -4.5763 2.76548 0
M  V30 5076 C 469.842 -2.99729 4.27738 0
M  V30 5077 H 471.536 -1.48302 2.6009 0
M  V30 5078 H 469.082 -0.712026 1.25165 0
M  V30 5079 H 471.035 -3.79525 1.83135 0
M  V30 5080 H 469.759 -3.17806 0.752775 0
M  V30 5081 H 468.418 -2.42616 2.74833 0
M  V30 5082 H 468.066 -4.70476 1.77937 0
M  V30 5083 H 467.766 -4.69346 3.53536 0
M  V30 5084 H 469.29 -5.37431 2.89828 0
M  V30 5085 H 470.704 -3.67228 4.40246 0
M  V30 5086 H 469.101 -3.22932 5.05801 0
M  V30 5087 H 470.171 -1.96047 4.43502 0
M  V30 5088 N 471.514 -1.37532 -0.769588 0
M  V30 5089 C 472.462 -1.33561 -1.90432 0
M  V30 5090 C 473.456 -0.224027 -1.67912 0
M  V30 5091 O 474.662 -0.392174 -1.75676 0
M  V30 5092 H 471.037 -0.416279 -0.626271 0
M  V30 5093 H 473.008 -2.29348 -1.90899 0
M  V30 5094 C 471.757 -1.16162 -3.27722 0
M  V30 5095 H 471.08 -2.00951 -3.45628 0
M  V30 5096 H 472.52 -1.17434 -4.07413 0
M  V30 5097 C 470.979 0.132583 -3.36639 0
M  V30 5098 O 471.509 1.11539 -3.85904 0
M  V30 5099 N 469.715 0.184013 -2.90017 0
M  V30 5100 H 469.262 -0.616415 -2.50116 0
M  V30 5101 H 469.22 1.04956 -2.96364 0
M  V30 5102 N 472.992 0.995999 -1.22138 0
M  V30 5103 C 474.403 1.54961 -1.04135 0
M  V30 5104 C 474.754 1.92159 0.396147 0
M  V30 5105 O 473.879 1.74435 1.28069 0
M  V30 5106 C 474.474 2.81581 -1.88408 0
M  V30 5107 C 473.033 3.33396 -1.74712 0
M  V30 5108 C 472.18 2.06509 -1.85066 0
M  V30 5109 H 475.131 0.817436 -1.36028 0
M  V30 5110 H 475.152 3.53822 -1.39966 0
M  V30 5111 H 474.664 2.54476 -2.93025 0
M  V30 5112 H 472.765 3.65416 -0.728159 0
M  V30 5113 H 472.878 4.04208 -2.57202 0
M  V30 5114 H 471.242 2.19925 -1.28472 0
M  V30 5115 H 472.025 1.81804 -2.91208 0
M  V30 5116 N 474.47 1.03057 1.19235 0
M  V30 5117 C 475.4 0.633497 2.24742 0
M  V30 5118 C 476.381 -0.358335 1.66283 0
M  V30 5119 O 477.566 -0.240676 1.92703 0
M  V30 5120 C 474.696 -0.0147648 3.47297 0
M  V30 5121 C 473.65 0.899527 4.18441 0
M  V30 5122 C 472.976 0.116281 5.34574 0
M  V30 5123 C 474.276 2.21404 4.73051 0
M  V30 5124 H 475.97 1.5155 2.58211 0
M  V30 5125 H 473.516 0.73014 1.24117 0
M  V30 5126 H 475.469 -0.304202 4.20301 0
M  V30 5127 H 474.193 -0.931577 3.13032 0
M  V30 5128 H 472.852 1.17319 3.47321 0
M  V30 5129 H 472.5 -0.802619 4.96555 0
M  V30 5130 H 472.2 0.725293 5.83107 0
M  V30 5131 H 473.724 -0.166376 6.10373 0
M  V30 5132 H 475.138 1.98601 5.37802 0
M  V30 5133 H 473.535 2.77512 5.32078 0
M  V30 5134 H 474.605 2.86752 3.91026 0
M  V30 5135 N 475.948 -1.35272 0.808662 0
M  V30 5136 C 476.895 -2.29764 0.218482 0
M  V30 5137 C 477.865 -1.52911 -0.648652 0
M  V30 5138 O 479.05 -1.81341 -0.593297 0
M  V30 5139 C 476.19 -3.39388 -0.625282 0
M  V30 5140 C 475.303 -4.31202 0.262516 0
M  V30 5141 C 474.438 -5.27919 -0.589451 0
M  V30 5142 C 473.477 -6.11371 0.298617 0
M  V30 5143 N 472.614 -7.0022 -0.513443 0
M  V30 5144 H 477.454 -2.79645 1.02968 0
M  V30 5145 H 474.991 -1.37629 0.519303 0
M  V30 5146 H 476.949 -4.01615 -1.12966 0
M  V30 5147 H 475.579 -2.90777 -1.40173 0
M  V30 5148 H 474.631 -3.69962 0.885013 0
M  V30 5149 H 475.943 -4.89748 0.945971 0
M  V30 5150 H 475.097 -5.95529 -1.15888 0
M  V30 5151 H 473.836 -4.69875 -1.30647 0
M  V30 5152 H 472.841 -5.42707 0.880301 0
M  V30 5153 H 474.066 -6.71494 1.01352 0
M  V30 5154 H 472.012 -6.44662 -1.21439 0
M  V30 5155 H 471.929 -7.55917 0.111922 0
M  V30 5156 H 473.197 -7.72175 -1.06608 0
M  V30 5157 N 477.426 -0.562348 -1.47226 0
M  V30 5158 C 478.358 0.220011 -2.28142 0
M  V30 5159 C 479.371 0.874596 -1.37312 0
M  V30 5160 O 480.56 0.747583 -1.62091 0
M  V30 5161 C 477.66 1.32953 -3.11732 0
M  V30 5162 C 476.833 0.770759 -4.30556 0
M  V30 5163 C 475.892 1.76541 -4.95701 0
M  V30 5164 O 474.918 1.3095 -5.53932 0
M  V30 5165 N 476.12 3.09896 -4.90861 0
M  V30 5166 H 478.885 -0.474107 -2.95926 0
M  V30 5167 H 476.446 -0.398761 -1.56912 0
M  V30 5168 H 478.438 1.99378 -3.5218 0
M  V30 5169 H 477.008 1.92681 -2.46156 0
M  V30 5170 H 476.228 -0.0704056 -3.94137 0
M  V30 5171 H 477.516 0.376872 -5.07402 0
M  V30 5172 H 476.914 3.49577 -4.44761 0
M  V30 5173 H 475.471 3.71865 -5.35313 0
M  V30 5174 N 478.904 1.54736 -0.299062 0
M  V30 5175 C 479.836 2.20891 0.61153 0
M  V30 5176 C 480.849 1.20104 1.09904 0
M  V30 5177 O 482.038 1.46707 1.01683 0
M  V30 5178 C 479.138 2.84018 1.84897 0
M  V30 5179 C 478.311 4.10719 1.50428 0
M  V30 5180 C 477.37 4.57667 2.59667 0
M  V30 5181 O 476.396 5.2291 2.24842 0
M  V30 5182 N 477.598 4.29821 3.90172 0
M  V30 5183 H 480.363 2.99666 0.0452001 0
M  V30 5184 H 477.924 1.61446 -0.121178 0
M  V30 5185 H 479.916 3.1236 2.5732 0
M  V30 5186 H 478.486 2.09095 2.32375 0
M  V30 5187 H 477.706 3.89408 0.612781 0
M  V30 5188 H 478.994 4.93223 1.24934 0
M  V30 5189 H 478.392 3.77549 4.21276 0
M  V30 5190 H 476.949 4.62877 4.58899 0
M  V30 5191 N 480.382 0.0267497 1.57577 0
M  V30 5192 C 481.329 -0.955894 2.10075 0
M  V30 5193 C 482.299 -1.32453 1.00226 0
M  V30 5194 O 483.484 -1.41826 1.27632 0
M  V30 5195 C 480.624 -2.2338 2.6305 0
M  V30 5196 C 479.737 -1.92183 3.86898 0
M  V30 5197 C 478.872 -3.14251 4.28275 0
M  V30 5198 C 477.911 -2.78862 5.44888 0
M  V30 5199 N 477.048 -3.93548 5.81433 0
M  V30 5200 H 481.888 -0.501303 2.93753 0
M  V30 5201 H 479.425 -0.235847 1.45197 0
M  V30 5202 H 481.383 -2.98124 2.91853 0
M  V30 5203 H 480.013 -2.6646 1.82205 0
M  V30 5204 H 479.065 -1.07692 3.64838 0
M  V30 5205 H 480.377 -1.62117 4.7172 0
M  V30 5206 H 479.531 -3.97317 4.58502 0
M  V30 5207 H 478.27 -3.47476 3.42215 0
M  V30 5208 H 477.275 -1.94208 5.14357 0
M  V30 5209 H 478.5 -2.46855 6.32645 0
M  V30 5210 H 476.446 -4.2662 4.98328 0
M  V30 5211 H 476.363 -3.67098 6.6089 0
M  V30 5212 H 477.631 -4.77325 6.16264 0
M  V30 5213 N 481.861 -1.55662 -0.24637 0
M  V30 5214 C 482.824 -1.89558 -1.28842 0
M  V30 5215 C 483.824 -0.772082 -1.41052 0
M  V30 5216 O 485.014 -1.04007 -1.39743 0
M  V30 5217 C 482.146 -2.12449 -2.66605 0
M  V30 5218 H 483.339 -2.82735 -1.00004 0
M  V30 5219 H 480.892 -1.48562 -0.485684 0
M  V30 5220 H 481.627 -1.21742 -3.00582 0
M  V30 5221 H 481.412 -2.94273 -2.59125 0
M  V30 5222 H 482.902 -2.39854 -3.41847 0
M  V30 5223 N 483.339 0.512053 -1.4905 0
M  V30 5224 C 484.586 1.26686 -1.57978 0
M  V30 5225 C 484.914 1.92733 -0.261553 0
M  V30 5226 O 484.169 1.80772 0.749667 0
M  V30 5227 C 484.468 2.36446 -2.68008 0
M  V30 5228 C 484.134 1.87932 -4.09869 0
M  V30 5229 C 482.796 1.74419 -4.48477 0
M  V30 5230 C 485.148 1.5149 -4.98698 0
M  V30 5231 C 482.476 1.22827 -5.73699 0
M  V30 5232 C 484.828 1.01355 -6.24428 0
M  V30 5233 C 483.492 0.864735 -6.61875 0
M  V30 5234 H 482.762 0.463577 -0.578081 0
M  V30 5235 H 485.409 0.569421 -1.82838 0
M  V30 5236 H 483.714 3.11933 -2.37076 0
M  V30 5237 H 485.411 2.9453 -2.72127 0
M  V30 5238 H 482.001 1.99405 -3.79389 0
M  V30 5239 H 486.185 1.60782 -4.69535 0
M  V30 5240 H 481.441 1.10008 -6.01422 0
M  V30 5241 H 485.615 0.722351 -6.92644 0
M  V30 5242 H 483.242 0.462777 -7.5879 0
M  V30 5243 N 484.817 1.37938 0.762283 0
M  V30 5244 C 486.066 1.32989 1.51647 0
M  V30 5245 C 486.379 -0.0802922 1.95435 0
M  V30 5246 O 487.585 -0.252295 2.70325 0
M  V30 5247 C 486.041 2.33485 2.73885 0
M  V30 5248 C 485.649 3.80079 2.37157 0
M  V30 5249 C 487.393 2.37563 3.51801 0
M  V30 5250 C 485.3 4.72283 3.55954 0
M  V30 5251 H 484.23 0.494301 0.56937 0
M  V30 5252 H 486.881 1.63448 0.834083 0
M  V30 5253 H 485.263 1.96056 3.44061 0
M  V30 5254 H 486.437 4.26398 1.74704 0
M  V30 5255 H 484.752 3.79037 1.72395 0
M  V30 5256 H 487.349 3.0365 4.40114 0
M  V30 5257 H 487.692 1.39199 3.92338 0
M  V30 5258 H 488.225 2.73747 2.8863 0
M  V30 5259 H 484.964 5.7181 3.2049 0
M  V30 5260 H 484.484 4.30663 4.1748 0
M  V30 5261 H 486.163 4.89876 4.22647 0
M  V30 5262 N 486.295 -0.989507 1.22664 0
M  V30 5263 C 487.225 -2.09847 1.02404 0
M  V30 5264 C 488.206 -1.70007 -0.0561303 0
M  V30 5265 O 489.391 -1.93906 0.106748 0
M  V30 5266 C 486.521 -3.41996 0.604663 0
M  V30 5267 C 485.475 -3.95699 1.63115 0
M  V30 5268 C 484.801 -5.23936 1.0675 0
M  V30 5269 C 486.101 -4.25999 3.02196 0
M  V30 5270 H 487.795 -2.27054 1.95158 0
M  V30 5271 H 485.341 -1.09111 0.939727 0
M  V30 5272 H 487.294 -4.1899 0.45002 0
M  V30 5273 H 486.018 -3.24626 -0.35855 0
M  V30 5274 H 484.677 -3.2084 1.77362 0
M  V30 5275 H 484.325 -5.02909 0.0955422 0
M  V30 5276 H 484.025 -5.60833 1.75328 0
M  V30 5277 H 485.549 -6.0356 0.924516 0
M  V30 5278 H 486.963 -4.93777 2.91303 0
M  V30 5279 H 485.36 -4.74076 3.67929 0
M  V30 5280 H 486.43 -3.33636 3.51873 0
M  V30 5281 N 487.773 -1.03688 -1.18687 0
M  V30 5282 C 489.05 -0.652397 -1.84399 0
M  V30 5283 C 489.43 0.868386 -1.92412 0
M  V30 5284 O 488.778 1.76832 -1.44716 0
M  V30 5285 C 488.988 -1.3238 -3.22919 0
M  V30 5286 C 490.336 -1.45216 -3.98996 0
M  V30 5287 O 491.36 -1.2816 -3.32345 0
M  V30 5288 O 490.219 -1.72975 -5.18403 0
M  V30 5289 H 487.313 -0.227793 -0.795009 0
M  V30 5290 H 489.859 -1.13553 -1.2611 0
M  V30 5291 H 488.631 -2.36202 -3.11968 0
M  V30 5292 H 488.254 -0.829039 -3.88861 0
M  V30 5293 N 489.251 1.34841 -0.815825 0
M  V30 5294 C 490.181 2.32187 -0.247298 0
M  V30 5295 C 491.162 1.5791 0.632344 0
M  V30 5296 O 492.347 1.8593 0.560698 0
M  V30 5297 C 489.477 3.42122 0.597466 0
M  V30 5298 C 488.431 4.27602 -0.184446 0
M  V30 5299 C 487.757 5.28942 0.782609 0
M  V30 5300 C 489.057 5.03502 -1.38865 0
M  V30 5301 H 490.751 2.79985 -1.06061 0
M  V30 5302 H 488.297 1.34611 -0.511461 0
M  V30 5303 H 490.25 4.09232 1.00533 0
M  V30 5304 H 488.974 2.92956 1.44376 0
M  V30 5305 H 487.633 3.62085 -0.573592 0
M  V30 5306 H 487.281 4.7604 1.62466 0
M  V30 5307 H 486.981 5.87008 0.263695 0
M  V30 5308 H 488.505 5.98922 1.18848 0
M  V30 5309 H 489.919 5.63506 -1.05518 0
M  V30 5310 H 488.316 5.71108 -1.8427 0
M  V30 5311 H 489.386 4.33608 -2.17054 0
M  V30 5312 N 490.729 0.570148 1.46925 0
M  V30 5313 C 491.976 0.0509529 2.02436 0
M  V30 5314 C 492.304 -1.30405 1.44308 0
M  V30 5315 O 491.559 -1.86493 0.593198 0
M  V30 5316 C 491.858 -0.0780336 3.57315 0
M  V30 5317 C 491.524 1.20775 4.34424 0
M  V30 5318 C 490.186 1.56004 4.5521 0
M  V30 5319 C 492.538 2.0592 4.78797 0
M  V30 5320 C 489.866 2.76201 5.17619 0
M  V30 5321 C 492.218 3.25332 5.42533 0
M  V30 5322 C 490.882 3.60859 5.61549 0
M  V30 5323 H 490.152 0.018645 0.740765 0
M  V30 5324 H 492.799 0.744262 1.76445 0
M  V30 5325 H 491.104 -0.854394 3.82371 0
M  V30 5326 H 492.801 -0.495312 3.97929 0
M  V30 5327 H 489.391 0.923469 4.18533 0
M  V30 5328 H 493.575 1.80008 4.62505 0
M  V30 5329 H 488.831 3.0388 5.30535 0
M  V30 5330 H 493.005 3.91586 5.75876 0
M  V30 5331 H 490.632 4.54088 6.09678 0
M  V30 5332 N 492.207 -1.54576 0.307264 0
M  V30 5333 C 493.623 -1.59534 -0.0459251 0
M  V30 5334 C 493.823 -1.32414 -1.51884 0
M  V30 5335 O 492.879 -1.1006 -2.27251 0
M  V30 5336 C 494.192 -2.98566 0.357649 0
M  V30 5337 C 495.74 -3.11491 0.306937 0
M  V30 5338 C 496.215 -4.52842 0.685427 0
M  V30 5339 N 497.706 -4.58782 0.638203 0
M  V30 5340 C 498.441 -5.66238 0.903458 0
M  V30 5341 N 497.937 -6.81703 1.23501 0
M  V30 5342 N 499.73 -5.55937 0.830102 0
M  V30 5343 H 491.881 -1.70464 1.26712 0
M  V30 5344 H 494.144 -0.79647 0.514139 0
M  V30 5345 H 493.85 -3.23356 1.38325 0
M  V30 5346 H 493.724 -3.76117 -0.285565 0
M  V30 5347 H 496.111 -2.86446 -0.709424 0
M  V30 5348 H 496.192 -2.36081 0.984861 0
M  V30 5349 H 495.836 -4.78618 1.69963 0
M  V30 5350 H 495.766 -5.26598 -0.0146346 0
M  V30 5351 H 498.257 -3.75849 0.393138 0
M  V30 5352 H 498.57 -7.59582 1.42322 0
M  V30 5353 H 496.915 -6.8324 1.27311 0
M  V30 5354 H 500.106 -4.64608 0.570693 0
M  V30 5355 H 500.279 -6.39597 1.04019 0
M  V30 5356 N 493.685 -0.035106 -1.57561 0
M  V30 5357 C 494.913 0.652258 -1.9635 0
M  V30 5358 C 495.328 1.65317 -0.911897 0
M  V30 5359 O 494.685 1.82194 0.105657 0
M  V30 5360 C 494.736 1.35337 -3.35211 0
M  V30 5361 O 494.457 0.392548 -4.36338 0
M  V30 5362 C 495.958 2.13199 -3.88666 0
M  V30 5363 H 493.178 0.179444 -0.646561 0
M  V30 5364 H 495.722 -0.0966459 -2.04271 0
M  V30 5365 H 493.877 2.05362 -3.28489 0
M  V30 5366 H 494.291 0.891097 -5.16875 0
M  V30 5367 H 495.765 2.577 -4.88154 0
M  V30 5368 H 496.242 2.97353 -3.23231 0
M  V30 5369 H 496.848 1.48118 -3.98674 0
M  V30 5370 N 495.163 1.55791 0.238111 0
M  V30 5371 C 496.579 1.48411 0.587045 0
M  V30 5372 C 496.779 0.72702 1.87927 0
M  V30 5373 O 495.835 0.259942 2.51158 0
M  V30 5374 C 497.148 2.92873 0.681623 0
M  V30 5375 C 498.696 3.03295 0.773363 0
M  V30 5376 C 499.171 4.49082 0.899428 0
M  V30 5377 N 500.662 4.53056 0.964075 0
M  V30 5378 C 501.397 5.63117 1.08104 0
M  V30 5379 N 500.893 6.82969 1.16299 0
M  V30 5380 N 502.686 5.50933 1.11488 0
M  V30 5381 H 494.837 2.0345 -0.610076 0
M  V30 5382 H 497.1 0.924034 -0.211813 0
M  V30 5383 H 496.806 3.51142 -0.19802 0
M  V30 5384 H 496.68 3.43851 1.55069 0
M  V30 5385 H 499.067 2.45101 1.64346 0
M  V30 5386 H 499.148 2.55513 -0.121034 0
M  V30 5387 H 498.792 5.07889 0.0338586 0
M  V30 5388 H 498.722 4.94553 1.809 0
M  V30 5389 H 501.213 3.66737 0.91173 0
M  V30 5390 H 501.526 7.62598 1.25155 0
M  V30 5391 H 499.871 6.85712 1.13241 0
M  V30 5392 H 503.062 4.56231 1.0474 0
M  V30 5393 H 503.235 6.36743 1.20259 0
M  V30 5394 N 496.642 -0.504142 1.49319 0
M  V30 5395 C 497.59 -1.62689 1.66238 0
M  V30 5396 C 498.584 -1.6095 0.528349 0
M  V30 5397 O 499.79 -1.65496 0.707887 0
M  V30 5398 H 496.165 -0.539247 0.524134 0
M  V30 5399 H 498.136 -1.45571 2.60484 0
M  V30 5400 C 496.885 -3.00841 1.74328 0
M  V30 5401 H 496.208 -3.02884 2.60963 0
M  V30 5402 H 497.648 -3.78945 1.90202 0
M  V30 5403 C 496.107 -3.33355 0.487416 0
M  V30 5404 O 496.637 -3.99819 -0.388294 0
M  V30 5405 N 494.843 -2.88469 0.351306 0
M  V30 5406 H 494.39 -2.34557 1.06492 0
M  V30 5407 H 494.348 -3.10591 -0.487899 0
M  V30 5408 N 498.12 -1.38341 -0.754957 0
M  V30 5409 C 499.369 -1.33791 -1.5094 0
M  V30 5410 C 499.682 0.0699267 -1.95475 0
M  V30 5411 O 500.888 0.237956 -2.70455 0
M  V30 5412 C 499.344 -2.34934 -2.72643 0
M  V30 5413 C 498.952 -3.81332 -2.35138 0
M  V30 5414 C 500.696 -2.39425 -3.50536 0
M  V30 5415 C 498.603 -4.74164 -3.53444 0
M  V30 5416 H 497.533 -0.497314 -0.566741 0
M  V30 5417 H 500.184 -1.63888 -0.825403 0
M  V30 5418 H 498.566 -1.97878 -3.43017 0
M  V30 5419 H 499.74 -4.27319 -1.7244 0
M  V30 5420 H 498.055 -3.79946 -1.70382 0
M  V30 5421 H 500.652 -3.0598 -4.38498 0
M  V30 5422 H 500.995 -1.41278 -3.91594 0
M  V30 5423 H 501.528 -2.75274 -2.87174 0
M  V30 5424 H 498.267 -5.73501 -3.17453 0
M  V30 5425 H 497.787 -4.3287 -4.15191 0
M  V30 5426 H 499.466 -4.92111 -4.20043 0
M  V30 5427 N 499.598 0.982988 -1.23187 0
M  V30 5428 C 500.561 2.05649 -1.01198 0
M  V30 5429 C 501.561 1.6078 0.0252464 0
M  V30 5430 O 502.751 1.72878 -0.214243 0
M  V30 5431 C 499.883 3.36744 -0.530656 0
M  V30 5432 H 501.076 2.2659 -1.96461 0
M  V30 5433 H 498.629 1.15602 -1.05195 0
M  V30 5434 H 499.364 3.21492 0.425873 0
M  V30 5435 H 499.149 3.7065 -1.2791 0
M  V30 5436 H 500.639 4.15705 -0.397366 0
M  V30 5437 N 501.076 1.04316 1.18135 0
M  V30 5438 C 502.325 0.74319 1.87509 0
M  V30 5439 C 502.638 -0.732136 1.81381 0
M  V30 5440 O 503.844 -1.14572 2.46141 0
M  V30 5441 C 502.3 1.27913 3.36402 0
M  V30 5442 C 501.908 2.78326 3.51053 0
M  V30 5443 C 503.652 1.0558 4.11161 0
M  V30 5444 C 501.559 3.25266 4.93919 0
M  V30 5445 H 500.489 0.274313 0.702331 0
M  V30 5446 H 503.14 1.25931 1.33467 0
M  V30 5447 H 501.522 0.690853 3.89927 0
M  V30 5448 H 502.696 3.42933 3.07788 0
M  V30 5449 H 501.011 2.991 2.89704 0
M  V30 5450 H 503.608 1.38161 5.16542 0
M  V30 5451 H 503.951 -0.00684729 4.16299 0
M  V30 5452 H 504.484 1.60882 3.63816 0
M  V30 5453 H 501.223 4.30922 4.9395 0
M  V30 5454 H 500.743 2.65396 5.3789 0
M  V30 5455 H 502.422 3.19433 5.62647 0
M  V30 5456 N 502.554 -1.34406 0.822964 0
M  V30 5457 C 503.487 -2.27407 0.190124 0
M  V30 5458 C 504.465 -1.4889 -0.653486 0
M  V30 5459 O 505.649 -1.78109 -0.617216 0
M  V30 5460 C 502.776 -3.3064 -0.734477 0
M  V30 5461 C 501.822 -4.26488 0.0316099 0
M  V30 5462 S 502.655 -5.17445 1.3788 0
M  V30 5463 C 503.811 -6.24214 0.45907 0
M  V30 5464 H 504.044 -2.80733 0.978586 0
M  V30 5465 H 501.577 -1.41455 0.618866 0
M  V30 5466 H 503.535 -3.90607 -1.26238 0
M  V30 5467 H 502.196 -2.76161 -1.49646 0
M  V30 5468 H 501.389 -4.9951 -0.671285 0
M  V30 5469 H 500.991 -3.70775 0.490066 0
M  V30 5470 H 503.283 -6.76599 -0.349357 0
M  V30 5471 H 504.226 -6.98551 1.15896 0
M  V30 5472 H 504.634 -5.6448 0.0474825 0
M  V30 5473 N 504.032 -0.577932 -1.46621 0
M  V30 5474 C 505.26 -0.0671642 -2.06791 0
M  V30 5475 C 505.675 1.23571 -1.42743 0
M  V30 5476 O 505.032 1.74602 -0.531062 0
M  V30 5477 C 505.083 0.110357 -3.61332 0
M  V30 5478 O 504.804 -1.14095 -4.22982 0
M  V30 5479 C 506.305 0.656025 -4.38419 0
M  V30 5480 H 503.525 -0.0552732 -0.66872 0
M  V30 5481 H 506.069 -0.797242 -1.8832 0
M  V30 5482 H 504.224 0.790637 -3.79246 0
M  V30 5483 H 504.638 -0.951742 -5.15793 0
M  V30 5484 H 506.112 0.729438 -5.47159 0
M  V30 5485 H 506.589 1.67195 -4.06131 0
M  V30 5486 H 507.195 0.0107692 -4.25299 0
M  V30 5487 N 505.51 1.54411 -0.315457 0
M  V30 5488 C 506.759 1.99599 0.290395 0
M  V30 5489 C 507.072 1.20746 1.53882 0
M  V30 5490 O 508.278 1.56272 2.22017 0
M  V30 5491 C 506.734 3.5539 0.56797 0
M  V30 5492 C 506.342 4.43068 -0.662945 0
M  V30 5493 C 508.086 4.09067 1.13422 0
M  V30 5494 C 505.993 5.90317 -0.357722 0
M  V30 5495 H 504.923 0.745592 0.112286 0
M  V30 5496 H 507.574 1.78477 -0.426418 0
M  V30 5497 H 505.956 3.72468 1.34476 0
M  V30 5498 H 507.13 4.37765 -1.43869 0
M  V30 5499 H 505.445 4.00238 -1.14884 0
M  V30 5500 H 508.042 5.16663 1.37707 0
M  V30 5501 H 508.385 3.60552 2.08106 0
M  V30 5502 H 508.918 3.95589 0.418805 0
M  V30 5503 H 505.657 6.4301 -1.27351 0
M  V30 5504 H 505.177 5.98592 0.380472 0
M  V30 5505 H 506.856 6.4699 0.0354284 0
M  V30 5506 N 506.988 0.0434614 1.5754 0
M  V30 5507 C 507.921 -0.968729 2.06618 0
M  V30 5508 C 508.899 -1.30868 0.965 0
M  V30 5509 O 510.083 -1.42288 1.23638 0
M  V30 5510 C 507.21 -2.28486 2.50023 0
M  V30 5511 C 506.256 -2.09851 3.71302 0
M  V30 5512 S 507.089 -1.38401 5.17306 0
M  V30 5513 C 508.245 -2.71354 5.64019 0
M  V30 5514 H 508.478 -0.551021 2.92149 0
M  V30 5515 H 506.011 -0.168607 1.53477 0
M  V30 5516 H 507.969 -3.04142 2.75695 0
M  V30 5517 H 506.63 -2.67387 1.64812 0
M  V30 5518 H 505.823 -3.07184 3.99567 0
M  V30 5519 H 505.425 -1.42336 3.45856 0
M  V30 5520 H 507.717 -3.67549 5.69134 0
M  V30 5521 H 508.66 -2.47734 6.6335 0
M  V30 5522 H 509.068 -2.77259 4.91719 0
M  V30 5523 N 508.466 -1.55915 -0.229846 0
M  V30 5524 C 509.691 -1.8296 -0.976743 0
M  V30 5525 C 510.116 -0.622735 -1.77493 0
M  V30 5526 O 509.474 0.428431 -1.76165 0
M  V30 5527 C 509.522 -3.07916 -1.8767 0
M  V30 5528 O 508.626 -2.86028 -2.97088 0
M  V30 5529 H 507.967 -0.603453 -0.277021 0
M  V30 5530 H 510.497 -2.0312 -0.245669 0
M  V30 5531 H 510.507 -3.37802 -2.2881 0
M  V30 5532 H 509.182 -3.95389 -1.28996 0
M  V30 5533 H 507.759 -2.67355 -2.59954 0
M  V30 5534 N 509.944 0.496216 -1.49584 0
M  V30 5535 C 510.874 1.60576 -1.69521 0
M  V30 5536 C 511.855 1.61169 -0.543933 0
M  V30 5537 O 513.04 1.77834 -0.78031 0
M  V30 5538 C 510.17 2.99038 -1.76616 0
M  V30 5539 C 509.124 3.13312 -2.91581 0
M  V30 5540 C 508.45 4.53172 -2.83794 0
M  V30 5541 C 509.75 2.92886 -4.32452 0
M  V30 5542 H 511.444 1.44146 -2.62416 0
M  V30 5543 H 508.99 0.692024 -1.26282 0
M  V30 5544 H 510.943 3.76564 -1.8915 0
M  V30 5545 H 509.667 3.16568 -0.80324 0
M  V30 5546 H 508.326 2.38213 -2.78658 0
M  V30 5547 H 507.974 4.67585 -1.854 0
M  V30 5548 H 507.674 4.63662 -3.60958 0
M  V30 5549 H 509.198 5.32752 -2.98342 0
M  V30 5550 H 510.612 3.60178 -4.46032 0
M  V30 5551 H 509.009 3.14844 -5.10875 0
M  V30 5552 H 510.079 1.88966 -4.46565 0
M  V30 5553 N 511.423 1.38739 0.74761 0
M  V30 5554 C 512.353 1.39173 1.87492 0
M  V30 5555 C 513.334 0.256794 1.6815 0
M  V30 5556 O 514.519 0.460762 1.88655 0
M  V30 5557 C 511.649 1.22197 3.25093 0
M  V30 5558 C 510.603 2.32957 3.59047 0
M  V30 5559 C 509.929 2.01082 4.95449 0
M  V30 5560 C 511.229 3.75237 3.6331 0
M  V30 5561 H 512.923 2.3351 1.87386 0
M  V30 5562 H 510.469 1.12399 0.900134 0
M  V30 5563 H 512.422 1.21124 4.03617 0
M  V30 5564 H 511.146 0.243241 3.25693 0
M  V30 5565 H 509.805 2.33226 2.82845 0
M  V30 5566 H 509.453 1.01678 4.92616 0
M  V30 5567 H 509.153 2.75267 5.19136 0
M  V30 5568 H 510.677 2.01638 5.76346 0
M  V30 5569 H 512.091 3.76966 4.31937 0
M  V30 5570 H 510.488 4.48677 3.98509 0
M  V30 5571 H 511.558 4.07122 2.634 0
M  V30 5572 N 512.901 -0.976442 1.23707 0
M  V30 5573 C 513.831 -2.08749 1.04624 0
M  V30 5574 C 514.812 -1.70057 -0.0380956 0
M  V30 5575 O 515.997 -1.93782 0.127308 0
M  V30 5576 C 513.127 -3.41335 0.640902 0
M  V30 5577 C 512.081 -3.93947 1.67302 0
M  V30 5578 C 511.407 -5.22774 1.12301 0
M  V30 5579 C 512.707 -4.22769 3.06697 0
M  V30 5580 H 514.401 -2.24972 1.97555 0
M  V30 5581 H 511.947 -1.08108 0.951247 0
M  V30 5582 H 513.9 -4.18489 0.494434 0
M  V30 5583 H 512.624 -3.24988 -0.324099 0
M  V30 5584 H 511.283 -3.18941 1.80755 0
M  V30 5585 H 510.931 -5.0278 0.148877 0
M  V30 5586 H 510.631 -5.58942 1.81267 0
M  V30 5587 H 512.155 -6.02546 0.988479 0
M  V30 5588 H 513.569 -4.90659 2.96524 0
M  V30 5589 H 511.966 -4.70147 3.72937 0
M  V30 5590 H 513.036 -3.29885 3.55392 0
M  V30 5591 N 514.379 -1.04941 -1.1758 0
M  V30 5592 C 515.625 -0.768896 -1.88307 0
M  V30 5593 C 515.98 0.696361 -1.79356 0
M  V30 5594 O 515.273 1.50245 -1.18899 0
M  V30 5595 C 515.467 -1.18062 -3.37337 0
M  V30 5596 C 515.296 -2.68436 -3.60794 0
M  V30 5597 C 514.066 -3.35709 -3.77661 0
M  V30 5598 C 516.264 -3.66657 -3.60649 0
M  V30 5599 N 514.246 -4.74974 -3.88939 0
M  V30 5600 C 515.617 -4.91638 -3.77747 0
M  V30 5601 C 517.672 -3.60162 -3.43785 0
M  V30 5602 C 516.375 -6.10902 -3.79726 0
M  V30 5603 C 518.401 -4.78863 -3.47051 0
M  V30 5604 C 517.763 -6.02666 -3.64654 0
M  V30 5605 H 513.862 -0.33355 -0.707296 0
M  V30 5606 H 516.446 -1.34085 -1.41171 0
M  V30 5607 H 514.617 -0.636648 -3.83147 0
M  V30 5608 H 516.349 -0.8502 -3.95669 0
M  V30 5609 H 513.104 -2.8611 -3.77409 0
M  V30 5610 H 513.528 -5.47378 -3.98379 0
M  V30 5611 H 518.17 -2.65412 -3.29114 0
M  V30 5612 H 515.888 -7.05998 -3.93182 0
M  V30 5613 H 519.474 -4.75488 -3.35265 0
M  V30 5614 H 518.354 -6.92979 -3.67083 0
M  V30 5615 N 515.857 1.33968 -0.830081 0
M  V30 5616 C 516.79 2.27303 -0.202182 0
M  V30 5617 C 517.768 1.49235 0.645581 0
M  V30 5618 O 518.952 1.78433 0.607762 0
M  V30 5619 C 516.079 3.31025 0.716932 0
M  V30 5620 C 515.125 4.26466 -0.0542271 0
M  V30 5621 S 515.958 5.16707 -1.40622 0
M  V30 5622 C 517.114 6.23962 -0.492167 0
M  V30 5623 H 517.347 2.8021 -0.99346 0
M  V30 5624 H 514.88 1.41124 -0.626359 0
M  V30 5625 H 516.838 3.91271 1.24165 0
M  V30 5626 H 515.499 2.76951 1.4818 0
M  V30 5627 H 514.692 4.99858 0.644785 0
M  V30 5628 H 514.294 3.7051 -0.509722 0
M  V30 5629 H 516.586 6.76774 0.31347 0
M  V30 5630 H 517.529 6.97927 -1.19599 0
M  V30 5631 H 517.937 5.64447 -0.0774176 0
M  V30 5632 N 517.335 0.585699 1.46312 0
M  V30 5633 C 518.265 -0.133556 2.33118 0
M  V30 5634 C 519.246 -0.880707 1.45525 0
M  V30 5635 O 520.431 -0.855579 1.74337 0
M  V30 5636 C 517.561 -1.14585 3.27853 0
M  V30 5637 C 516.515 -0.513341 4.2491 0
M  V30 5638 C 515.841 -1.63231 5.09175 0
M  V30 5639 C 517.141 0.551413 5.19381 0
M  V30 5640 H 518.835 0.59121 2.93505 0
M  V30 5641 H 516.381 0.285761 1.41136 0
M  V30 5642 H 518.334 -1.65741 3.87438 0
M  V30 5643 H 517.058 -1.90093 2.65579 0
M  V30 5644 H 515.717 -0.0228349 3.66593 0
M  V30 5645 H 515.365 -2.37713 4.43285 0
M  V30 5646 H 515.065 -1.21473 5.74907 0
M  V30 5647 H 516.589 -2.14658 5.71624 0
M  V30 5648 H 518.003 0.124804 5.73164 0
M  V30 5649 H 516.4 0.889486 5.93471 0
M  V30 5650 H 517.47 1.43655 4.63132 0
M  V30 5651 N 518.813 -1.54241 0.323641 0
M  V30 5652 C 520.041 -2.04985 -0.280871 0
M  V30 5653 C 520.456 -1.19978 -1.45777 0
M  V30 5654 O 519.813 -0.230471 -1.81039 0
M  V30 5655 C 519.864 -3.54353 -0.715258 0
M  V30 5656 O 519.585 -4.36132 0.414817 0
M  V30 5657 C 521.086 -4.21189 -1.38257 0
M  V30 5658 H 518.306 -0.66851 -0.0577502 0
M  V30 5659 H 520.85 -1.99029 0.469852 0
M  V30 5660 H 519.005 -3.60596 -1.41596 0
M  V30 5661 H 519.419 -5.2445 0.0725227 0
M  V30 5662 H 520.893 -5.27154 -1.63745 0
M  V30 5663 H 521.37 -3.72307 -2.32989 0
M  V30 5664 H 521.976 -4.19085 -0.724447 0
M  V30 5665 N 520.291 -0.0518155 -1.57515 0
M  V30 5666 C 521.516 0.634896 -1.97443 0
M  V30 5667 C 521.941 1.63546 -0.929207 0
M  V30 5668 O 521.299 1.80981 0.107484 0
M  V30 5669 C 521.347 1.29765 -3.36442 0
M  V30 5670 O 520.451 2.41333 -3.34413 0
M  V30 5671 H 519.792 0.164994 -0.643174 0
M  V30 5672 H 522.322 -0.120407 -2.04245 0
M  V30 5673 H 522.332 1.64918 -3.73184 0
M  V30 5674 H 521.007 0.564361 -4.12053 0
M  V30 5675 H 519.584 2.08122 -3.09418 0
M  V30 5676 N 521.769 1.56035 0.221574 0
M  V30 5677 C 523.015 1.79312 0.947372 0
M  V30 5678 C 523.348 0.621453 1.83988 0
M  V30 5679 O 522.623 -0.379287 1.90766 0
M  V30 5680 C 522.906 3.1267 1.78633 0
M  V30 5681 C 522.759 4.40284 0.920312 0
M  V30 5682 C 524.078 3.4247 2.7641 0
M  V30 5683 H 521.197 0.652328 0.342982 0
M  V30 5684 H 523.839 1.88765 0.216244 0
M  V30 5685 H 521.989 3.04741 2.40967 0
M  V30 5686 H 523.661 4.60232 0.313718 0
M  V30 5687 H 521.904 4.33212 0.225734 0
M  V30 5688 H 522.575 5.30033 1.54171 0
M  V30 5689 H 525.051 3.50526 2.24211 0
M  V30 5690 H 523.927 4.3695 3.32213 0
M  V30 5691 H 524.188 2.64635 3.54148 0
M  V30 5692 N 523.247 -0.488276 1.49845 0
M  V30 5693 C 524.495 -1.23911 1.59657 0
M  V30 5694 C 524.816 -1.92816 0.291005 0
M  V30 5695 O 524.086 -1.83328 -0.690485 0
M  V30 5696 H 522.666 -0.460357 0.588286 0
M  V30 5697 H 525.328 -0.564794 1.86537 0
M  V30 5698 H 524.424 -1.99625 2.39909 0
M  V30 5699 N 524.725 -1.39134 -0.740242 0
M  V30 5700 C 525.955 -1.39132 -1.52728 0
M  V30 5701 C 526.363 0.0173133 -1.89192 0
M  V30 5702 O 525.706 0.997715 -1.54244 0
M  V30 5703 C 525.768 -2.1952 -2.84695 0
M  V30 5704 C 525.432 -3.68203 -2.70695 0
M  V30 5705 C 526.429 -4.61401 -2.39593 0
M  V30 5706 C 524.114 -4.11724 -2.8773 0
M  V30 5707 C 526.108 -5.96102 -2.25701 0
M  V30 5708 C 523.795 -5.46503 -2.73456 0
M  V30 5709 C 524.793 -6.38506 -2.42486 0
M  V30 5710 O 524.481 -7.70803 -2.28295 0
M  V30 5711 H 524.213 -0.477263 -0.478744 0
M  V30 5712 H 526.767 -1.83504 -0.922799 0
M  V30 5713 H 524.997 -1.69888 -3.47383 0
M  V30 5714 H 526.686 -2.1176 -3.46284 0
M  V30 5715 H 527.452 -4.29079 -2.26088 0
M  V30 5716 H 523.331 -3.4045 -3.10829 0
M  V30 5717 H 526.875 -6.6788 -2.0145 0
M  V30 5718 H 522.772 -5.78417 -2.86538 0
M  V30 5719 H 523.54 -7.8147 -2.43405 0
M  V30 5720 N 526.204 0.969867 -1.24223 0
M  V30 5721 C 527.451 1.71256 -1.08063 0
M  V30 5722 C 527.779 1.90734 0.380872 0
M  V30 5723 O 527.034 1.46469 1.29789 0
M  V30 5724 C 527.333 3.10883 -1.76314 0
M  V30 5725 C 526.999 3.11252 -3.26241 0
M  V30 5726 C 525.661 3.1106 -3.67144 0
M  V30 5727 C 528.013 3.05751 -4.22097 0
M  V30 5728 C 525.341 3.03097 -5.02344 0
M  V30 5729 C 527.693 2.9933 -5.57301 0
M  V30 5730 C 526.357 2.97466 -5.97554 0
M  V30 5731 H 525.627 0.62667 -0.395431 0
M  V30 5732 H 528.274 1.13422 -1.54297 0
M  V30 5733 H 526.579 3.72168 -1.22468 0
M  V30 5734 H 528.276 3.67138 -1.61277 0
M  V30 5735 H 524.866 3.12165 -2.93685 0
M  V30 5736 H 529.05 3.05031 -3.91497 0
M  V30 5737 H 524.306 3.00013 -5.32731 0
M  V30 5738 H 528.48 2.94033 -6.31283 0
M  V30 5739 H 526.107 2.91051 -7.02277 0
M  V30 5740 N 527.682 1.05563 1.17022 0
M  V30 5741 C 528.645 0.664098 2.19368 0
M  V30 5742 C 529.645 -0.286358 1.5823 0
M  V30 5743 O 530.835 -0.069728 1.7406 0
M  V30 5744 C 527.967 -0.0239932 3.40892 0
M  V30 5745 H 529.16 1.57 2.55521 0
M  V30 5746 H 526.713 0.849964 1.31169 0
M  V30 5747 H 527.448 -0.942988 3.10287 0
M  V30 5748 H 527.233 0.659351 3.86516 0
M  V30 5749 H 528.723 -0.283909 4.16634 0
M  V30 5750 N 529.16 -1.33526 0.837174 0
M  V30 5751 C 530.09 -2.31764 0.284206 0
M  V30 5752 C 531.071 -1.58896 -0.607142 0
M  V30 5753 O 532.256 -1.86798 -0.531047 0
M  V30 5754 C 529.386 -3.43029 -0.542962 0
M  V30 5755 C 528.34 -4.27255 0.252451 0
M  V30 5756 C 527.666 -5.3012 -0.69836 0
M  V30 5757 C 528.966 -5.01229 1.46858 0
M  V30 5758 H 530.66 -2.78262 1.10502 0
M  V30 5759 H 528.206 -1.3378 0.532812 0
M  V30 5760 H 530.159 -4.1078 -0.940096 0
M  V30 5761 H 528.883 -2.95216 -1.39697 0
M  V30 5762 H 527.542 -3.61127 0.631124 0
M  V30 5763 H 527.19 -4.78564 -1.54872 0
M  V30 5764 H 526.89 -5.87353 -0.170274 0
M  V30 5765 H 528.414 -6.00737 -1.09305 0
M  V30 5766 H 529.828 -5.61756 1.14469 0
M  V30 5767 H 528.225 -5.68104 1.93333 0
M  V30 5768 H 529.295 -4.301 2.23924 0
M  V30 5769 N 530.638 -0.59345 -1.46 0
M  V30 5770 C 531.863 -0.0872365 -2.07216 0
M  V30 5771 C 532.288 1.2131 -1.43755 0
M  V30 5772 O 531.646 1.73528 -0.525152 0
M  V30 5773 C 531.694 0.0538197 -3.6056 0
M  V30 5774 O 530.798 1.10765 -3.97247 0
M  V30 5775 H 530.139 -0.0676598 -0.660544 0
M  V30 5776 H 532.669 -0.819445 -1.87473 0
M  V30 5777 H 532.679 0.256567 -4.07193 0
M  V30 5778 H 531.354 -0.895739 -4.0614 0
M  V30 5779 H 529.931 0.882501 -3.62307 0
M  V30 5780 N 532.116 1.54067 -0.331816 0
M  V30 5781 C 533.046 2.27569 0.522932 0
M  V30 5782 C 534.027 1.28679 1.11247 0
M  V30 5783 O 535.212 1.57504 1.13605 0
M  V30 5784 C 532.342 3.0397 1.67987 0
M  V30 5785 C 531.296 4.10267 1.21924 0
M  V30 5786 C 530.622 4.74555 2.46377 0
M  V30 5787 C 531.922 5.21268 0.32815 0
M  V30 5788 H 533.616 2.99264 -0.0901977 0
M  V30 5789 H 531.162 1.4393 -0.044821 0
M  V30 5790 H 533.115 3.54123 2.28418 0
M  V30 5791 H 531.839 2.29906 2.31971 0
M  V30 5792 H 530.498 3.61009 0.637809 0
M  V30 5793 H 530.146 3.97098 3.08743 0
M  V30 5794 H 529.846 5.46363 2.16243 0
M  V30 5795 H 531.37 5.27487 3.07555 0
M  V30 5796 H 532.784 5.67128 0.838978 0
M  V30 5797 H 531.181 5.99982 0.119228 0
M  V30 5798 H 532.251 4.80673 -0.638839 0
M  V30 5799 N 533.594 0.0601682 1.57485 0
M  V30 5800 C 534.871 -0.651956 1.84415 0
M  V30 5801 C 535.251 -1.88498 0.950361 0
M  V30 5802 O 534.599 -2.28496 0.0136719 0
M  V30 5803 C 534.809 -1.00069 3.34346 0
M  V30 5804 C 536.157 -1.37915 4.01578 0
M  V30 5805 O 537.181 -1.09277 3.39024 0
M  V30 5806 O 536.04 -1.91399 5.11887 0
M  V30 5807 H 533.134 -0.322668 0.761455 0
M  V30 5808 H 535.68 0.0902159 1.6946 0
M  V30 5809 H 534.452 -0.124463 3.91102 0
M  V30 5810 H 534.075 -1.80001 3.54521 0
M  V30 5811 N 535.072 -1.5615 -0.213296 0
M  V30 5812 C 536.035 -1.92249 -1.24792 0
M  V30 5813 C 537.035 -0.801828 -1.39382 0
M  V30 5814 O 538.225 -1.06948 -1.37506 0
M  V30 5815 C 535.357 -2.18056 -2.62039 0
M  V30 5816 H 536.55 -2.84793 -0.939845 0
M  V30 5817 H 534.103 -1.49559 -0.454062 0
M  V30 5818 H 534.838 -1.2809 -2.97932 0
M  V30 5819 H 534.623 -2.99703 -2.52825 0
M  V30 5820 H 536.113 -2.47051 -3.36683 0
M  V30 5821 N 536.55 0.480323 -1.50102 0
M  V30 5822 C 537.961 1.06142 -1.53593 0
M  V30 5823 C 538.312 1.93335 -0.334055 0
M  V30 5824 O 537.437 2.09188 0.55403 0
M  V30 5825 C 538.032 1.9317 -2.78336 0
M  V30 5826 C 536.591 2.46405 -2.84538 0
M  V30 5827 C 535.738 1.24521 -2.4777 0
M  V30 5828 H 538.689 0.26333 -1.565 0
M  V30 5829 H 538.71 2.78123 -2.59669 0
M  V30 5830 H 538.222 1.29683 -3.65792 0
M  V30 5831 H 536.323 3.13472 -2.01411 0
M  V30 5832 H 536.436 2.82143 -3.87211 0
M  V30 5833 H 534.8 1.57706 -2.00003 0
M  V30 5834 H 535.583 0.627102 -3.37524 0
M  V30 5835 N 538.028 1.39524 0.732853 0
M  V30 5836 C 538.976 1.38563 1.86824 0
M  V30 5837 C 539.97 0.268467 1.67259 0
M  V30 5838 O 541.176 0.438613 1.74574 0
M  V30 5839 H 537.551 0.432737 0.615014 0
M  V30 5840 H 539.522 2.34328 1.84751 0
M  V30 5841 C 538.271 1.2481 3.24527 0
M  V30 5842 H 537.594 2.10044 3.40179 0
M  V30 5843 H 539.034 1.28194 4.04156 0
M  V30 5844 C 537.493 -0.0432825 3.36872 0
M  V30 5845 O 538.023 -1.01268 3.88726 0
M  V30 5846 N 536.229 -0.107055 2.90403 0
M  V30 5847 H 535.776 0.682512 2.48394 0
M  V30 5848 H 535.734 -0.970618 2.99042 0
M  V30 5849 N 539.506 -0.963266 1.24736 0
M  V30 5850 C 540.436 -2.07628 1.06832 0
M  V30 5851 C 541.417 -1.70088 -0.0200566 0
M  V30 5852 O 542.602 -1.93636 0.147854 0
M  V30 5853 C 539.732 -3.40636 0.677069 0
M  V30 5854 C 538.686 -3.9215 1.71471 0
M  V30 5855 C 538.012 -5.21553 1.1784 0
M  V30 5856 C 539.312 -4.19493 3.11164 0
M  V30 5857 H 541.006 -2.22864 1.9993 0
M  V30 5858 H 538.552 -1.07093 0.96266 0
M  V30 5859 H 540.505 -4.17941 0.538792 0
M  V30 5860 H 539.229 -3.25313 -0.289612 0
M  V30 5861 H 537.888 -3.17005 1.84128 0
M  V30 5862 H 537.536 -5.02593 0.202195 0
M  V30 5863 H 537.236 -5.56988 1.87185 0
M  V30 5864 H 538.76 -6.01463 1.05233 0
M  V30 5865 H 540.174 -4.87487 3.01711 0
M  V30 5866 H 538.571 -4.66165 3.77902 0
M  V30 5867 H 539.641 -3.26097 3.58871 0
M  V30 5868 N 540.985 -1.06182 -1.16461 0
M  V30 5869 C 541.935 -0.641619 -2.18786 0
M  V30 5870 C 542.919 0.327122 -1.5754 0
M  V30 5871 O 544.111 0.142746 -1.76423 0
M  V30 5872 C 541.24 -0.0283734 -3.43288 0
M  V30 5873 C 540.326 -1.02154 -4.11613 0
M  V30 5874 N 540.717 -2.19671 -4.55608 0
M  V30 5875 C 539.015 -0.852229 -4.37782 0
M  V30 5876 C 539.716 -2.82583 -5.0845 0
M  V30 5877 N 538.692 -2.10318 -5.01266 0
M  V30 5878 H 542.494 -1.53684 -2.50516 0
M  V30 5879 H 540.008 -0.933349 -1.329 0
M  V30 5880 H 542.005 0.29049 -4.15887 0
M  V30 5881 H 540.665 0.862118 -3.13046 0
M  V30 5882 H 541.676 -2.57453 -4.49375 0
M  V30 5883 H 538.353 -0.0136314 -4.17498 0
M  V30 5884 H 539.743 -3.82298 -5.52538 0
M  V30 5885 N 542.463 1.3308 -0.844243 0
M  V30 5886 C 543.711 1.97215 -0.441676 0
M  V30 5887 C 544.032 1.67185 1.0037 0
M  V30 5888 O 543.302 0.973588 1.69994 0
M  V30 5889 H 541.882 0.72959 -0.160335 0
M  V30 5890 H 544.544 1.62348 -1.07838 0
M  V30 5891 H 543.64 3.06698 -0.57815 0
M  V30 5892 N 543.941 0.601185 1.45683 0
M  V30 5893 C 545.218 0.0261659 1.95582 0
M  V30 5894 C 545.598 -1.4399 1.5437 0
M  V30 5895 O 544.946 -2.13919 0.80318 0
M  V30 5896 C 545.156 0.217557 3.48321 0
M  V30 5897 C 546.504 0.0950076 4.24494 0
M  V30 5898 O 547.528 0.147345 3.55895 0
M  V30 5899 O 546.387 -0.025261 5.46494 0
M  V30 5900 H 543.481 -0.0393688 0.826062 0
M  V30 5901 H 546.027 0.670798 1.55879 0
M  V30 5902 H 544.799 1.23601 3.71266 0
M  V30 5903 H 544.422 -0.46264 3.94899 0
M  V30 5904 N 545.419 -1.53889 0.339982 0
M  V30 5905 C 546.382 -2.23547 -0.50592 0
M  V30 5906 C 547.382 -1.23445 -1.03044 0
M  V30 5907 O 548.572 -1.47909 -0.920253 0
M  V30 5908 C 545.704 -2.95234 -1.7044 0
M  V30 5909 H 546.897 -2.99722 0.103247 0
M  V30 5910 H 544.45 -1.56033 0.0912804 0
M  V30 5911 H 545.185 -2.23236 -2.35236 0
M  V30 5912 H 544.97 -3.68654 -1.33553 0
M  V30 5913 H 546.46 -3.48258 -2.30447 0
M  V30 5914 N 546.897 -0.0685191 -1.57451 0
M  V30 5915 C 548.127 0.609577 -1.97402 0
M  V30 5916 C 548.535 1.63882 -0.945489 0
M  V30 5917 O 547.878 1.8354 0.0766052 0
M  V30 5918 C 547.94 1.3385 -3.33653 0
M  V30 5919 C 547.604 0.463103 -4.54648 0
M  V30 5920 C 548.601 -0.277964 -5.19156 0
M  V30 5921 C 546.286 0.388941 -5.00792 0
M  V30 5922 C 548.28 -1.08145 -6.28159 0
M  V30 5923 C 545.967 -0.418217 -6.09667 0
M  V30 5924 C 546.965 -1.15208 -6.73213 0
M  V30 5925 O 546.653 -1.94594 -7.79993 0
M  V30 5926 H 546.385 0.170197 -0.654224 0
M  V30 5927 H 548.939 -0.13647 -2.04946 0
M  V30 5928 H 547.169 2.13055 -3.22714 0
M  V30 5929 H 548.858 1.90851 -3.58233 0
M  V30 5930 H 549.624 -0.230241 -4.84453 0
M  V30 5931 H 545.503 0.949769 -4.5111 0
M  V30 5932 H 549.047 -1.65476 -6.7769 0
M  V30 5933 H 544.944 -0.467515 -6.43805 0
M  V30 5934 H 545.712 -1.8699 -7.96854 0
M  V30 5935 N 548.375 1.56261 0.205012 0
M  V30 5936 C 549.305 1.96779 1.257 0
M  V30 5937 C 550.286 0.838309 1.48008 0
M  V30 5938 O 551.471 1.10189 1.59913 0
M  V30 5939 C 548.601 2.29876 2.60335 0
M  V30 5940 C 547.555 3.45469 2.52656 0
M  V30 5941 C 546.881 3.64215 3.91473 0
M  V30 5942 C 548.181 4.79954 2.06014 0
M  V30 5943 H 549.875 2.84904 0.920338 0
M  V30 5944 H 547.421 1.37072 0.441277 0
M  V30 5945 H 549.374 2.56814 3.34102 0
M  V30 5946 H 548.098 1.38622 2.95722 0
M  V30 5947 H 546.757 3.18605 1.81345 0
M  V30 5948 H 546.405 2.70309 4.24196 0
M  V30 5949 H 546.105 4.41973 3.87213 0
M  V30 5950 H 547.629 3.93519 4.66878 0
M  V30 5951 H 549.043 5.05989 2.69533 0
M  V30 5952 H 547.44 5.61111 2.12777 0
M  V30 5953 H 548.51 4.74201 1.01297 0
M  V30 5954 N 549.853 -0.472356 1.50355 0
M  V30 5955 C 550.801 -1.59126 1.69651 0
M  V30 5956 C 551.795 -1.59793 0.56237 0
M  V30 5957 O 553.001 -1.63957 0.742832 0
M  V30 5958 H 549.376 -0.528008 0.535454 0
M  V30 5959 H 551.347 -1.40013 2.63513 0
M  V30 5960 C 550.096 -2.97075 1.8067 0
M  V30 5961 H 549.419 -2.9728 2.67329 0
M  V30 5962 H 550.859 -3.74825 1.98197 0
M  V30 5963 C 549.318 -3.32247 0.558016 0
M  V30 5964 O 549.848 -4.00553 -0.303399 0
M  V30 5965 N 548.054 -2.87659 0.412415 0
M  V30 5966 H 547.601 -2.32246 1.11443 0
M  V30 5967 H 547.559 -3.11556 -0.421908 0
M  V30 5968 N 551.331 -1.39911 -0.725443 0
M  V30 5969 C 552.571 -1.39096 -1.49772 0
M  V30 5970 C 552.935 0.0106452 -1.91997 0
M  V30 5971 O 554.136 0.143859 -2.68415 0
M  V30 5972 C 552.407 -2.34441 -2.69764 0
M  V30 5973 S 553.966 -2.51898 -3.59295 0
M  V30 5974 H 550.784 -0.49314 -0.512186 0
M  V30 5975 H 553.386 -1.76093 -0.849197 0
M  V30 5976 H 552.09 -3.35123 -2.36898 0
M  V30 5977 H 551.621 -1.98692 -3.39537 0
M  V30 5978 H 553.636 -1.76402 -4.63785 0
M  V30 5979 N 552.809 0.956637 -1.25245 0
M  V30 5980 C 554.056 1.701 -1.09874 0
M  V30 5981 C 554.384 1.91128 0.36062 0
M  V30 5982 O 553.639 1.47837 1.28229 0
M  V30 5983 C 553.938 3.08996 -1.79601 0
M  V30 5984 C 553.604 3.07774 -3.29523 0
M  V30 5985 C 552.266 3.07149 -3.70423 0
M  V30 5986 C 554.618 3.01257 -4.25316 0
M  V30 5987 C 551.946 2.97752 -5.0553 0
M  V30 5988 C 554.298 2.93403 -5.60444 0
M  V30 5989 C 552.962 2.91111 -6.00675 0
M  V30 5990 H 552.232 0.62244 -0.402056 0
M  V30 5991 H 554.879 1.1178 -1.55491 0
M  V30 5992 H 553.184 3.70848 -1.26408 0
M  V30 5993 H 554.881 3.65407 -1.65162 0
M  V30 5994 H 551.471 3.09032 -2.9698 0
M  V30 5995 H 555.655 3.00861 -3.9471 0
M  V30 5996 H 550.911 2.94346 -5.35883 0
M  V30 5997 H 555.085 2.87321 -6.34366 0
M  V30 5998 H 552.712 2.83586 -7.05325 0
M  V30 5999 N 554.287 1.06798 1.15896 0
M  V30 6000 C 555.217 0.704677 2.22613 0
M  V30 6001 C 556.198 -0.305252 1.67339 0
M  V30 6002 O 557.383 -0.179247 1.93371 0
M  V30 6003 C 554.513 0.0957325 3.47168 0
M  V30 6004 C 553.467 1.0322 4.15367 0
M  V30 6005 C 552.793 0.286293 5.33933 0
M  V30 6006 C 554.093 2.36341 4.65768 0
M  V30 6007 H 555.787 1.59688 2.53259 0
M  V30 6008 H 553.333 0.769257 1.21731 0
M  V30 6009 H 555.286 -0.170333 4.21056 0
M  V30 6010 H 554.01 -0.831516 3.15838 0
M  V30 6011 H 552.669 1.28309 3.43413 0
M  V30 6012 H 552.317 -0.644237 4.98857 0
M  V30 6013 H 552.017 0.910436 5.80504 0
M  V30 6014 H 553.541 0.0278938 6.10594 0
M  V30 6015 H 554.955 2.1561 5.31211 0
M  V30 6016 H 553.352 2.94299 5.2298 0
M  V30 6017 H 554.422 2.99047 3.81705 0
M  V30 6018 N 555.766 -1.3263 0.851289 0
M  V30 6019 C 556.991 -2.02097 0.466006 0
M  V30 6020 C 557.416 -1.63574 -0.928709 0
M  V30 6021 O 556.774 -0.834665 -1.60944 0
M  V30 6022 C 556.822 -3.55425 0.608737 0
M  V30 6023 O 555.926 -4.10827 -0.359878 0
M  V30 6024 H 555.267 -0.636911 0.187724 0
M  V30 6025 H 557.797 -1.69253 1.14955 0
M  V30 6026 H 557.807 -4.04986 0.495006 0
M  V30 6027 H 556.482 -3.82806 1.62581 0
M  V30 6028 H 555.059 -3.72349 -0.202666 0
M  V30 6029 N 557.244 -0.608902 -1.45362 0
M  V30 6030 C 558.207 0.0992563 -2.28985 0
M  V30 6031 C 559.207 0.793841 -1.39838 0
M  V30 6032 O 560.397 0.641804 -1.61946 0
M  V30 6033 C 557.529 1.15073 -3.20891 0
M  V30 6034 H 558.722 -0.635964 -2.93079 0
M  V30 6035 H 556.275 -0.368007 -1.51906 0
M  V30 6036 H 557.01 1.91667 -2.616 0
M  V30 6037 H 556.795 0.656867 -3.86559 0
M  V30 6038 H 558.285 1.64665 -3.83765 0
M  V30 6039 N 558.722 1.53707 -0.348139 0
M  V30 6040 C 559.652 2.28111 0.498766 0
M  V30 6041 C 560.633 1.29851 1.09876 0
M  V30 6042 O 561.818 1.587 1.11928 0
M  V30 6043 C 558.948 3.05735 1.64753 0
M  V30 6044 C 557.902 4.11537 1.17565 0
M  V30 6045 C 557.228 4.77142 2.4133 0
M  V30 6046 C 558.528 5.21587 0.272844 0
M  V30 6047 H 560.222 2.99152 -0.121934 0
M  V30 6048 H 557.768 1.43875 -0.0600842 0
M  V30 6049 H 559.721 3.56526 2.24649 0
M  V30 6050 H 558.445 2.32354 2.2952 0
M  V30 6051 H 557.104 3.61665 0.599483 0
M  V30 6052 H 556.752 4.0035 3.04514 0
M  V30 6053 H 556.452 5.48626 2.10436 0
M  V30 6054 H 557.976 5.30719 3.01943 0
M  V30 6055 H 559.39 5.67986 0.778779 0
M  V30 6056 H 557.787 6.00074 0.0555849 0
M  V30 6057 H 558.857 4.79969 -0.689785 0
M  V30 6058 N 560.2 0.0768682 1.57412 0
M  V30 6059 C 561.449 -0.590679 1.92857 0
M  V30 6060 C 561.762 -1.70461 0.959293 0
M  V30 6061 O 562.968 -2.43207 1.20675 0
M  V30 6062 C 561.424 -1.10204 3.42612 0
M  V30 6063 C 561.032 -0.0188447 4.47996 0
M  V30 6064 C 562.776 -1.74336 3.87049 0
M  V30 6065 C 560.683 -0.544536 5.88888 0
M  V30 6066 H 559.613 -0.224411 0.71983 0
M  V30 6067 H 562.264 0.149924 1.82887 0
M  V30 6068 H 560.646 -1.89577 3.47673 0
M  V30 6069 H 561.82 0.755936 4.54557 0
M  V30 6070 H 560.135 0.526555 4.13057 0
M  V30 6071 H 562.732 -2.14708 4.89699 0
M  V30 6072 H 563.075 -2.60537 3.24694 0
M  V30 6073 H 563.608 -1.01577 3.84613 0
M  V30 6074 H 560.347 0.280426 6.549 0
M  V30 6075 H 559.867 -1.28673 5.85836 0
M  V30 6076 H 561.546 -1.01933 6.3892 0
M  V30 6077 N 561.678 -1.56367 -0.196722 0
M  V30 6078 C 562.588 -1.97617 -1.2643 0
M  V30 6079 C 563.604 -0.883598 -1.49895 0
M  V30 6080 O 564.78 -1.18921 -1.62541 0
M  V30 6081 C 561.845 -2.30595 -2.58895 0
M  V30 6082 C 560.906 -3.53551 -2.43516 0
M  V30 6083 C 560.139 -3.84946 -3.69665 0
M  V30 6084 O 560.362 -3.17655 -4.73763 0
M  V30 6085 O 559.296 -4.78379 -3.65291 0
M  V30 6086 H 563.122 -2.88648 -0.944233 0
M  V30 6087 H 560.707 -1.43901 -0.401592 0
M  V30 6088 H 562.589 -2.52889 -3.37083 0
M  V30 6089 H 561.264 -1.42732 -2.90533 0
M  V30 6090 H 560.171 -3.36507 -1.63445 0
M  V30 6091 H 561.504 -4.41875 -2.16812 0
M  V30 6092 N 563.156 0.464375 -1.50603 0
M  V30 6093 C 564.405 1.21277 -1.61167 0
M  V30 6094 C 564.718 1.92953 -0.320704 0
M  V30 6095 O 565.924 2.69778 -0.30534 0
M  V30 6096 C 564.38 2.20403 -2.84518 0
M  V30 6097 C 563.988 1.54499 -4.20516 0
M  V30 6098 C 565.732 2.95843 -3.0443 0
M  V30 6099 C 563.639 2.51951 -5.35047 0
M  V30 6100 H 562.569 0.456367 -0.600204 0
M  V30 6101 H 565.22 0.48254 -1.77042 0
M  V30 6102 H 563.602 2.96746 -2.62217 0
M  V30 6103 H 564.776 0.83899 -4.53098 0
M  V30 6104 H 563.091 0.913152 -4.06264 0
M  V30 6105 H 565.688 3.6879 -3.87167 0
M  V30 6106 H 566.031 3.55622 -2.16423 0
M  V30 6107 H 566.564 2.26611 -3.26944 0
M  V30 6108 H 563.303 1.96901 -6.25228 0
M  V30 6109 H 562.823 3.20683 -5.06875 0
M  V30 6110 H 564.502 3.13643 -5.65895 0
M  V30 6111 N 564.634 1.40294 0.718013 0
M  V30 6112 C 566.045 1.34289 1.29705 0
M  V30 6113 C 566.396 0.0152228 1.96194 0
M  V30 6114 O 565.521 -0.88682 1.97394 0
M  V30 6115 C 566.116 2.43219 2.3586 0
M  V30 6116 C 564.675 2.40682 2.89394 0
M  V30 6117 C 563.822 2.24223 1.63154 0
M  V30 6118 H 566.773 1.50135 0.514312 0
M  V30 6119 H 566.794 2.10986 3.16647 0
M  V30 6120 H 566.306 3.39836 1.87439 0
M  V30 6121 H 564.407 1.47756 3.42051 0
M  V30 6122 H 564.52 3.36177 3.41353 0
M  V30 6123 H 562.884 1.71696 1.88129 0
M  V30 6124 H 563.667 3.22834 1.16761 0
M  V30 6125 N 566.112 -0.949982 1.2575 0
M  V30 6126 C 567.075 -2.02894 1.06615 0
M  V30 6127 C 568.075 -1.60791 0.0173905 0
M  V30 6128 O 569.265 -1.72249 0.260003 0
M  V30 6129 C 566.397 -3.35219 0.619751 0
M  V30 6130 H 567.59 -2.21302 2.02399 0
M  V30 6131 H 565.143 -1.12772 1.08223 0
M  V30 6132 H 565.878 -3.22508 -0.340486 0
M  V30 6133 H 565.663 -3.67129 1.37692 0
M  V30 6134 H 567.153 -4.14505 0.507443 0
M  V30 6135 N 567.59 -1.07411 -1.15328 0
M  V30 6136 C 568.82 -0.817595 -1.89734 0
M  V30 6137 C 569.228 0.63297 -1.78298 0
M  V30 6138 O 568.571 1.44594 -1.13306 0
M  V30 6139 C 568.633 -1.14748 -3.40695 0
M  V30 6140 C 568.297 -2.59876 -3.75917 0
M  V30 6141 C 569.294 -3.58122 -3.76888 0
M  V30 6142 C 566.979 -2.95469 -4.06206 0
M  V30 6143 C 568.973 -4.89996 -4.07655 0
M  V30 6144 C 566.66 -4.2754 -4.36638 0
M  V30 6145 C 567.658 -5.24614 -4.37344 0
M  V30 6146 O 567.346 -6.54312 -4.67045 0
M  V30 6147 H 567.078 -0.295175 -0.608151 0
M  V30 6148 H 569.632 -1.43409 -1.47048 0
M  V30 6149 H 567.862 -0.47395 -3.83785 0
M  V30 6150 H 569.551 -0.873397 -3.96392 0
M  V30 6151 H 570.317 -3.31966 -3.53587 0
M  V30 6152 H 566.196 -2.20558 -4.04815 0
M  V30 6153 H 569.74 -5.65759 -4.08121 0
M  V30 6154 H 565.637 -4.53449 -4.59407 0
M  V30 6155 H 566.405 -6.59473 -4.84807 0
M  V30 6156 N 569.068 1.32177 -0.85831 0
M  V30 6157 C 570.317 1.96392 -0.459689 0
M  V30 6158 C 570.63 1.68659 0.990632 0
M  V30 6159 O 571.836 2.26641 1.49485 0
M  V30 6160 C 570.292 3.51542 -0.7711 0
M  V30 6161 C 569.9 3.8813 -2.2374 0
M  V30 6162 C 571.644 4.2221 -0.44038 0
M  V30 6163 C 569.551 5.36341 -2.49183 0
M  V30 6164 H 568.481 0.735007 -0.168169 0
M  V30 6165 H 571.132 1.50518 -1.0496 0
M  V30 6166 H 569.514 3.95846 -0.11058 0
M  V30 6167 H 570.688 3.54824 -2.94001 0
M  V30 6168 H 569.003 3.30497 -2.533 0
M  V30 6169 H 571.6 5.31234 -0.607855 0
M  V30 6170 H 571.943 4.11683 0.618291 0
M  V30 6171 H 572.476 3.83502 -1.05695 0
M  V30 6172 H 569.215 5.51892 -3.53689 0
M  V30 6173 H 568.735 5.7104 -1.83504 0
M  V30 6174 H 570.414 6.03466 -2.33318 0
M  V30 6175 N 570.547 0.616602 1.45037 0
M  V30 6176 C 571.775 0.121968 2.0654 0
M  V30 6177 C 572.19 -1.19743 1.45969 0
M  V30 6178 O 571.547 -1.73133 0.577168 0
M  V30 6179 C 571.598 -0.0145171 3.61497 0
M  V30 6180 O 571.319 1.25269 4.19809 0
M  V30 6181 C 572.82 -0.539555 4.40004 0
M  V30 6182 H 570.04 0.0729837 0.667019 0
M  V30 6183 H 572.584 0.846891 1.8614 0
M  V30 6184 H 570.739 -0.689809 3.81209 0
M  V30 6185 H 571.153 1.08816 5.13088 0
M  V30 6186 H 572.627 -0.584112 5.48901 0
M  V30 6187 H 573.104 -1.56368 4.10421 0
M  V30 6188 H 573.71 0.101995 4.25178 0
M  V30 6189 N 572.025 -1.5352 0.356285 0
M  V30 6190 C 572.988 -2.24071 -0.482182 0
M  V30 6191 C 573.988 -1.24531 -1.01729 0
M  V30 6192 O 575.178 -1.48876 -0.904513 0
M  V30 6193 C 572.31 -2.97025 -1.67299 0
M  V30 6194 H 573.503 -2.99596 0.135031 0
M  V30 6195 H 571.056 -1.55928 0.107825 0
M  V30 6196 H 571.791 -2.25719 -2.32855 0
M  V30 6197 H 571.576 -3.7005 -1.29636 0
M  V30 6198 H 573.066 -3.50683 -2.26741 0
M  V30 6199 N 573.503 -0.0852151 -1.57369 0
M  V30 6200 C 574.749 0.575588 -1.95086 0
M  V30 6201 C 575.104 1.66402 -0.96582 0
M  V30 6202 O 574.397 1.91598 0.00978463 0
M  V30 6203 C 574.591 1.18482 -3.3719 0
M  V30 6204 C 574.42 0.156928 -4.49426 0
M  V30 6205 C 573.19 -0.263126 -5.04614 0
M  V30 6206 C 575.388 -0.611068 -5.10657 0
M  V30 6207 N 573.37 -1.28032 -6.00401 0
M  V30 6208 C 574.741 -1.48036 -6.02068 0
M  V30 6209 C 576.796 -0.665669 -4.9343 0
M  V30 6210 C 575.499 -2.39943 -6.781 0
M  V30 6211 C 577.525 -1.5723 -5.70116 0
M  V30 6212 C 576.887 -2.42924 -6.61186 0
M  V30 6213 H 572.986 0.181249 -0.760705 0
M  V30 6214 H 575.57 -0.165484 -1.93995 0
M  V30 6215 H 573.741 1.89575 -3.38992 0
M  V30 6216 H 575.473 1.80718 -3.62109 0
M  V30 6217 H 572.228 0.122664 -4.73441 0
M  V30 6218 H 572.652 -1.78682 -6.52994 0
M  V30 6219 H 577.294 -0.0173214 -4.22796 0
M  V30 6220 H 575.012 -3.05807 -7.48002 0
M  V30 6221 H 578.598 -1.61956 -5.58804 0
M  V30 6222 H 577.478 -3.1194 -7.19488 0
M  V30 6223 N 574.981 1.5647 0.188427 0
M  V30 6224 C 575.911 1.98101 1.23606 0
M  V30 6225 C 576.892 0.853961 1.47111 0
M  V30 6226 O 578.077 1.11879 1.58735 0
M  V30 6227 C 575.207 2.32624 2.57882 0
M  V30 6228 C 574.161 3.48129 2.48978 0
M  V30 6229 C 573.487 3.68347 3.87588 0
M  V30 6230 C 574.787 4.82112 2.00911 0
M  V30 6231 H 576.481 2.85864 0.890068 0
M  V30 6232 H 574.027 1.37532 0.426714 0
M  V30 6233 H 575.98 2.60343 3.3136 0
M  V30 6234 H 574.704 1.41751 2.94235 0
M  V30 6235 H 573.363 3.20511 1.77956 0
M  V30 6236 H 573.011 2.74793 4.21305 0
M  V30 6237 H 572.711 4.46055 3.82503 0
M  V30 6238 H 574.235 3.98449 4.62678 0
M  V30 6239 H 575.649 5.08819 2.64151 0
M  V30 6240 H 574.046 5.63337 2.06814 0
M  V30 6241 H 575.116 4.75249 0.96262 0
M  V30 6242 N 576.459 -0.456382 1.50847 0
M  V30 6243 C 577.389 -1.56025 1.73719 0
M  V30 6244 C 578.37 -1.5967 0.586473 0
M  V30 6245 O 579.555 -1.75702 0.827185 0
M  V30 6246 C 576.685 -2.94251 1.84483 0
M  V30 6247 C 575.639 -3.05471 2.99786 0
M  V30 6248 C 574.965 -4.45489 2.95709 0
M  V30 6249 C 576.265 -2.81318 4.40065 0
M  V30 6250 H 577.959 -1.37138 2.66146 0
M  V30 6251 H 575.505 -0.658299 1.28072 0
M  V30 6252 H 577.458 -3.71417 1.99067 0
M  V30 6253 H 576.182 -3.14328 0.886891 0
M  V30 6254 H 574.841 -2.30741 2.84876 0
M  V30 6255 H 574.489 -4.62505 1.97732 0
M  V30 6256 H 574.189 -4.53929 3.73125 0
M  V30 6257 H 575.713 -5.24655 3.12362 0
M  V30 6258 H 577.127 -3.48226 4.55425 0
M  V30 6259 H 575.524 -3.01188 5.19043 0
M  V30 6260 H 576.594 -1.7706 4.51418 0
M  V30 6261 N 577.937 -1.40673 -0.710563 0
M  V30 6262 C 578.867 -1.44095 -1.83736 0
M  V30 6263 C 579.848 -0.301286 -1.67411 0
M  V30 6264 O 581.033 -0.510618 -1.87367 0
M  V30 6265 C 578.163 -1.30773 -3.21738 0
M  V30 6266 C 577.117 -2.42395 -3.52745 0
M  V30 6267 C 576.443 -2.14147 -4.89944 0
M  V30 6268 C 577.743 -3.84738 -3.53234 0
M  V30 6269 H 579.437 -2.38396 -1.81129 0
M  V30 6270 H 576.983 -1.14746 -0.870017 0
M  V30 6271 H 578.936 -1.31783 -4.00264 0
M  V30 6272 H 577.66 -0.329507 -3.24934 0
M  V30 6273 H 576.319 -2.40643 -2.76562 0
M  V30 6274 H 575.967 -1.14703 -4.89747 0
M  V30 6275 H 575.667 -2.88934 -5.11655 0
M  V30 6276 H 577.191 -2.16848 -5.70797 0
M  V30 6277 H 578.605 -3.88286 -4.2179 0
M  V30 6278 H 577.002 -4.59085 -3.86473 0
M  V30 6279 H 578.072 -4.13962 -2.52514 0
M  V30 6280 N 579.415 0.9433 -1.26252 0
M  V30 6281 C 580.831 1.21644 -1.03319 0
M  V30 6282 C 581.031 2.0003 0.242983 0
M  V30 6283 O 580.087 2.33838 0.952688 0
M  V30 6284 C 581.4 1.97978 -2.2633 0
M  V30 6285 C 582.948 2.10978 -2.31209 0
M  V30 6286 C 583.423 2.90713 -3.53907 0
M  V30 6287 N 584.914 2.98287 -3.54371 0
M  V30 6288 C 585.649 3.60406 -4.45976 0
M  V30 6289 N 585.145 4.24043 -5.47868 0
M  V30 6290 N 586.938 3.57658 -4.33633 0
M  V30 6291 H 579.089 0.419221 -2.08222 0
M  V30 6292 H 581.352 0.247995 -0.914988 0
M  V30 6293 H 581.058 1.47788 -3.19142 0
M  V30 6294 H 580.932 2.9865 -2.30408 0
M  V30 6295 H 583.319 2.6036 -1.38913 0
M  V30 6296 H 583.4 1.09575 -2.31143 0
M  V30 6297 H 583.044 2.42018 -4.46531 0
M  V30 6298 H 582.974 3.92367 -3.5122 0
M  V30 6299 H 585.465 2.53044 -2.80673 0
M  V30 6300 H 585.778 4.69334 -6.13959 0
M  V30 6301 H 584.123 4.22637 -5.51728 0
M  V30 6302 H 587.314 3.07134 -3.53251 0
M  V30 6303 H 587.487 4.05782 -5.05218 0
M  V30 6304 N 580.893 1.08022 1.14757 0
M  V30 6305 C 582.121 0.828847 1.89572 0
M  V30 6306 C 582.536 -0.618621 1.78377 0
M  V30 6307 O 581.893 -1.42482 1.1404 0
M  V30 6308 C 581.944 1.23677 3.39685 0
M  V30 6309 O 581.665 2.62746 3.50566 0
M  V30 6310 C 583.166 1.01569 4.31507 0
M  V30 6311 H 580.386 0.299196 0.600602 0
M  V30 6312 H 582.93 1.43846 1.45357 0
M  V30 6313 H 581.085 0.671347 3.81539 0
M  V30 6314 H 581.499 2.79573 4.43778 0
M  V30 6315 H 582.973 1.35055 5.35223 0
M  V30 6316 H 583.45 -0.0475433 4.39174 0
M  V30 6317 H 584.056 1.56636 3.95405 0
M  V30 6318 N 582.371 -1.3172 0.865308 0
M  V30 6319 C 583.301 -2.31109 0.333302 0
M  V30 6320 C 584.282 -1.60148 -0.573301 0
M  V30 6321 O 585.467 -1.87882 -0.491305 0
M  V30 6322 C 582.597 -3.44104 -0.470078 0
M  V30 6323 C 581.551 -4.26623 0.343021 0
M  V30 6324 C 580.877 -5.31482 -0.585756 0
M  V30 6325 C 582.177 -4.98001 1.57456 0
M  V30 6326 H 583.871 -2.75855 1.1638 0
M  V30 6327 H 581.417 -1.3262 0.561069 0
M  V30 6328 H 583.37 -4.12682 -0.852752 0
M  V30 6329 H 582.094 -2.98112 -1.33404 0
M  V30 6330 H 580.753 -3.59707 0.707583 0
M  V30 6331 H 580.401 -4.81741 -1.44686 0
M  V30 6332 H 580.101 -5.87582 -0.0456494 0
M  V30 6333 H 581.625 -6.0292 -0.965375 0
M  V30 6334 H 583.039 -5.59201 1.26359 0
M  V30 6335 H 581.436 -5.63876 2.05339 0
M  V30 6336 H 582.506 -4.25253 2.32997 0
M  V30 6337 N 583.85 -0.624285 -1.44708 0
M  V30 6338 C 585.26 -0.2092 -1.85524 0
M  V30 6339 C 585.611 1.23783 -1.52225 0
M  V30 6340 O 584.736 1.94089 -0.956986 0
M  V30 6341 C 585.332 -0.372897 -3.36742 0
M  V30 6342 C 583.891 -0.012374 -3.76398 0
M  V30 6343 C 583.038 -0.68951 -2.68591 0
M  V30 6344 H 585.989 -0.829894 -1.35272 0
M  V30 6345 H 586.01 0.390134 -3.78495 0
M  V30 6346 H 585.522 -1.42615 -3.60947 0
M  V30 6347 H 583.623 1.03941 -3.57809 0
M  V30 6348 H 583.736 -0.417663 -4.77276 0
M  V30 6349 H 582.1 -0.125484 -2.54391 0
M  V30 6350 H 582.883 -1.74522 -2.9563 0
M  V30 6351 N 585.328 1.53329 -0.364422 0
M  V30 6352 C 586.744 1.59594 -0.0133165 0
M  V30 6353 C 586.944 1.37959 1.46865 0
M  V30 6354 O 586 1.18418 2.2301 0
M  V30 6355 C 587.313 2.97032 -0.468213 0
M  V30 6356 C 588.861 3.10138 -0.422334 0
M  V30 6357 C 589.336 4.49986 -0.853024 0
M  V30 6358 N 590.827 4.56098 -0.808037 0
M  V30 6359 C 591.562 5.62495 -1.11299 0
M  V30 6360 N 591.058 6.7665 -1.48717 0
M  V30 6361 N 592.851 5.52473 -1.03586 0
M  V30 6362 H 585.002 1.65644 -1.32951 0
M  V30 6363 H 587.265 0.77684 -0.543345 0
M  V30 6364 H 586.971 3.18 -1.5023 0
M  V30 6365 H 586.845 3.76918 0.145775 0
M  V30 6366 H 589.232 2.88881 0.602622 0
M  V30 6367 H 589.313 2.32263 -1.0718 0
M  V30 6368 H 588.957 4.7198 -1.87609 0
M  V30 6369 H 588.887 5.26289 -0.180819 0
M  V30 6370 H 591.378 3.74131 -0.532361 0
M  V30 6371 H 591.691 7.53776 -1.70415 0
M  V30 6372 H 590.036 6.78044 -1.52581 0
M  V30 6373 H 593.227 4.6217 -0.742736 0
M  V30 6374 H 593.4 6.35295 -1.27686 0
M  V30 6375 N 586.806 0.0935595 1.57322 0
M  V30 6376 C 588.222 -0.263091 1.57417 0
M  V30 6377 C 588.422 -1.68526 1.1046 0
M  V30 6378 O 587.478 -2.40139 0.780357 0
M  V30 6379 C 588.791 -0.0529201 3.00653 0
M  V30 6380 C 590.339 -0.120788 3.12767 0
M  V30 6381 C 590.814 0.0613707 4.57959 0
M  V30 6382 N 592.305 0.00648534 4.632 0
M  V30 6383 C 593.04 0.122699 5.73269 0
M  V30 6384 N 592.536 0.29366 6.92177 0
M  V30 6385 N 594.329 0.0640787 5.62063 0
M  V30 6386 H 586.48 1.02277 1.86154 0
M  V30 6387 H 588.743 0.4007 0.859153 0
M  V30 6388 H 588.449 0.929279 3.39201 0
M  V30 6389 H 588.323 -0.795899 3.68708 0
M  V30 6390 H 590.71 -1.09349 2.74093 0
M  V30 6391 H 590.791 0.653656 2.47307 0
M  V30 6392 H 590.435 1.03093 4.97327 0
M  V30 6393 H 590.365 -0.732748 5.21477 0
M  V30 6394 H 592.856 -0.123173 3.77699 0
M  V30 6395 H 593.169 0.37389 7.71895 0
M  V30 6396 H 591.514 0.329307 6.94219 0
M  V30 6397 H 594.705 -0.0683396 4.6805 0
M  V30 6398 H 594.878 0.158097 6.47807 0
M  V30 6399 N 588.284 -1.56567 -0.180126 0
M  V30 6400 C 589.514 -1.85349 -0.912647 0
M  V30 6401 C 589.922 -0.675795 -1.76719 0
M  V30 6402 O 589.265 0.3645 -1.80047 0
M  V30 6403 C 589.327 -3.08431 -1.84691 0
M  V30 6404 C 588.991 -4.41694 -1.17284 0
M  V30 6405 C 589.988 -5.17062 -0.542532 0
M  V30 6406 C 587.673 -4.8843 -1.17223 0
M  V30 6407 C 589.667 -6.37351 0.0793953 0
M  V30 6408 C 587.354 -6.08652 -0.54647 0
M  V30 6409 C 588.352 -6.82955 0.0782458 0
M  V30 6410 O 588.04 -8.00897 0.694158 0
M  V30 6411 H 587.772 -0.619286 -0.271036 0
M  V30 6412 H 590.326 -2.0454 -0.187768 0
M  V30 6413 H 588.556 -2.85163 -2.61188 0
M  V30 6414 H 590.245 -3.23733 -2.44851 0
M  V30 6415 H 591.011 -4.8204 -0.535045 0
M  V30 6416 H 586.89 -4.30542 -1.64788 0
M  V30 6417 H 590.434 -6.95287 0.567612 0
M  V30 6418 H 586.331 -6.4314 -0.55151 0
M  V30 6419 H 587.099 -8.16352 0.592537 0
M  V30 6420 N 589.762 0.448376 -1.51087 0
M  V30 6421 C 591.011 1.19561 -1.62444 0
M  V30 6422 C 591.324 1.92602 -0.341151 0
M  V30 6423 O 592.53 2.69439 -0.333936 0
M  V30 6424 C 590.986 2.17373 -2.8684 0
M  V30 6425 C 590.594 1.5003 -4.22131 0
M  V30 6426 C 592.338 2.92597 -3.0755 0
M  V30 6427 C 590.245 2.46262 -5.37689 0
M  V30 6428 H 589.175 0.449975 -0.605011 0
M  V30 6429 H 591.826 0.463735 -1.77544 0
M  V30 6430 H 590.208 2.93948 -2.65349 0
M  V30 6431 H 591.382 0.790886 -4.53962 0
M  V30 6432 H 589.697 0.870011 -4.0721 0
M  V30 6433 H 592.294 3.64663 -3.91056 0
M  V30 6434 H 592.637 3.53306 -2.20183 0
M  V30 6435 H 593.17 2.23131 -3.29329 0
M  V30 6436 H 589.909 1.90258 -6.27281 0
M  V30 6437 H 589.429 3.15289 -5.10248 0
M  V30 6438 H 591.108 3.07623 -5.6919 0
M  V30 6439 N 591.24 1.41047 0.703093 0
M  V30 6440 C 592.489 1.39301 1.4587 0
M  V30 6441 C 592.802 0.00267077 1.956 0
M  V30 6442 O 594.008 -0.137414 2.71152 0
M  V30 6443 C 592.464 2.44891 2.63735 0
M  V30 6444 C 592.072 3.89796 2.20824 0
M  V30 6445 C 593.816 2.5227 3.41409 0
M  V30 6446 C 591.723 4.86955 3.35602 0
M  V30 6447 H 590.653 0.518005 0.547893 0
M  V30 6448 H 593.304 1.66839 0.764009 0
M  V30 6449 H 591.686 2.10472 3.35436 0
M  V30 6450 H 592.86 4.33424 1.56461 0
M  V30 6451 H 591.175 3.86008 1.56163 0
M  V30 6452 H 593.772 3.22044 4.26839 0
M  V30 6453 H 594.115 1.55714 3.86081 0
M  V30 6454 H 594.648 2.85742 2.7676 0
M  V30 6455 H 591.387 5.84888 2.9595 0
M  V30 6456 H 590.907 4.47982 3.98839 0
M  V30 6457 H 592.586 5.07361 4.01489 0
M  V30 6458 N 592.718 -0.936591 1.26751 0
M  V30 6459 C 593.681 -2.01752 1.08761 0
M  V30 6460 C 594.681 -1.60763 0.0344435 0
M  V30 6461 O 595.871 -1.71963 0.278258 0
M  V30 6462 C 593.003 -3.34543 0.655271 0
M  V30 6463 H 594.196 -2.19143 2.04735 0
M  V30 6464 H 591.749 -1.11618 1.09413 0
M  V30 6465 H 592.484 -3.22851 -0.30626 0
M  V30 6466 H 592.269 -3.65647 1.41578 0
M  V30 6467 H 593.759 -4.13944 0.551378 0
M  V30 6468 N 594.196 -1.08629 -1.14182 0
M  V30 6469 C 595.159 -0.722027 -2.1753 0
M  V30 6470 C 596.159 0.244305 -1.58933 0
M  V30 6471 O 597.349 0.0235545 -1.74184 0
M  V30 6472 C 594.481 -0.0663966 -3.40835 0
M  V30 6473 H 595.674 -1.63719 -2.51269 0
M  V30 6474 H 593.227 -0.884442 -1.28869 0
M  V30 6475 H 593.962 0.860389 -3.12678 0
M  V30 6476 H 593.747 -0.761598 -3.84632 0
M  V30 6477 H 595.237 0.173346 -4.1724 0
M  V30 6478 N 595.674 1.31259 -0.872281 0
M  V30 6479 C 596.92 1.96913 -0.485083 0
M  V30 6480 C 597.253 1.68774 0.960667 0
M  V30 6481 O 596.528 0.985495 1.67685 0
M  V30 6482 C 596.811 3.52299 -0.745502 0
M  V30 6483 C 596.664 3.90002 -2.24095 0
M  V30 6484 C 597.983 4.39582 -0.213516 0
M  V30 6485 H 595.102 0.715252 -0.177716 0
M  V30 6486 H 597.744 1.55347 -1.09395 0
M  V30 6487 H 595.894 3.87835 -0.227276 0
M  V30 6488 H 597.566 3.64555 -2.82661 0
M  V30 6489 H 595.809 3.38526 -2.71261 0
M  V30 6490 H 596.48 4.98352 -2.37381 0
M  V30 6491 H 598.956 4.10882 -0.656902 0
M  V30 6492 H 597.832 5.47251 -0.42516 0
M  V30 6493 H 598.093 4.33158 0.884666 0
M  V30 6494 N 597.152 0.631951 1.44375 0
M  V30 6495 C 598.082 -0.0593243 2.33425 0
M  V30 6496 C 599.063 -0.833964 1.48253 0
M  V30 6497 O 600.248 -0.799682 1.76971 0
M  V30 6498 C 597.378 -1.04096 3.31333 0
M  V30 6499 C 596.332 -0.377899 4.26328 0
M  V30 6500 C 595.658 -1.4695 5.14111 0
M  V30 6501 C 596.958 0.716371 5.17364 0
M  V30 6502 H 598.652 0.684287 2.91475 0
M  V30 6503 H 596.198 0.330518 1.40156 0
M  V30 6504 H 598.151 -1.53331 3.92514 0
M  V30 6505 H 596.875 -1.81547 2.71493 0
M  V30 6506 H 595.534 0.0938054 3.6648 0
M  V30 6507 H 595.182 -2.2349 4.50623 0
M  V30 6508 H 594.882 -1.03121 5.78481 0
M  V30 6509 H 596.406 -1.96363 5.78164 0
M  V30 6510 H 597.82 0.307089 5.72477 0
M  V30 6511 H 596.217 1.07784 5.90341 0
M  V30 6512 H 597.287 1.58316 4.58327 0
M  V30 6513 N 598.631 -1.53133 0.372548 0
M  V30 6514 C 599.878 -2.01356 -0.214959 0
M  V30 6515 C 600.206 -1.2596 -1.48204 0
M  V30 6516 O 599.461 -0.343511 -1.92662 0
M  V30 6517 C 599.76 -3.53206 -0.545938 0
M  V30 6518 C 599.426 -4.46511 0.627624 0
M  V30 6519 C 598.088 -4.71737 0.949615 0
M  V30 6520 C 600.44 -5.01666 1.41353 0
M  V30 6521 C 597.768 -5.4937 2.05936 0
M  V30 6522 C 600.12 -5.80511 2.51375 0
M  V30 6523 C 598.784 -6.04022 2.84101 0
M  V30 6524 H 598.054 -0.736813 -0.078659 0
M  V30 6525 H 600.701 -1.84682 0.506447 0
M  V30 6526 H 599.006 -3.67864 -1.34845 0
M  V30 6527 H 600.703 -3.87997 -1.01287 0
M  V30 6528 H 597.293 -4.27029 0.366635 0
M  V30 6529 H 601.477 -4.82117 1.17802 0
M  V30 6530 H 596.733 -5.65803 2.31682 0
M  V30 6531 H 600.907 -6.22255 3.12684 0
M  V30 6532 H 598.534 -6.63962 3.70214 0
M  V30 6533 N 600.109 -0.101901 -1.5727 0
M  V30 6534 C 601.355 0.554864 -1.95686 0
M  V30 6535 C 601.71 1.65368 -0.983415 0
M  V30 6536 O 601.003 1.91597 -0.0105374 0
M  V30 6537 C 601.197 1.14898 -3.38427 0
M  V30 6538 C 601.026 0.109251 -4.49567 0
M  V30 6539 C 599.796 -0.316633 -5.04307 0
M  V30 6540 C 601.994 -0.665196 -5.0998 0
M  V30 6541 N 599.976 -1.34393 -5.99009 0
M  V30 6542 C 601.347 -1.54413 -6.00464 0
M  V30 6543 C 603.402 -0.717966 -4.92696 0
M  V30 6544 C 602.105 -2.47122 -6.75517 0
M  V30 6545 C 604.131 -1.63268 -5.68417 0
M  V30 6546 C 603.493 -2.49923 -6.58572 0
M  V30 6547 H 599.592 0.17317 -0.762585 0
M  V30 6548 H 602.176 -0.18605 -1.93809 0
M  V30 6549 H 600.347 1.85969 -3.40984 0
M  V30 6550 H 602.079 1.76867 -3.64006 0
M  V30 6551 H 598.834 0.0724419 -4.73545 0
M  V30 6552 H 599.258 -1.85598 -6.51062 0
M  V30 6553 H 603.9 -0.0621637 -4.22754 0
M  V30 6554 H 601.618 -3.13724 -7.44717 0
M  V30 6555 H 605.204 -1.67874 -5.57054 0
M  V30 6556 H 604.084 -3.19553 -7.16139 0
M  V30 6557 N 601.587 1.56661 0.17182 0
M  V30 6558 C 602.835 1.81606 0.886774 0
M  V30 6559 C 603.156 0.678818 1.82803 0
M  V30 6560 O 602.426 -0.301354 1.93568 0
M  V30 6561 H 601.006 0.669934 0.330451 0
M  V30 6562 H 603.668 1.94142 0.171757 0
M  V30 6563 H 602.764 2.75634 1.46398 0
M  V30 6564 N 603.065 -0.440357 1.51323 0
M  V30 6565 C 604.313 -1.18769 1.63518 0
M  V30 6566 C 604.634 -1.91793 0.352201 0
M  V30 6567 O 603.904 -1.85432 -0.631811 0
M  V30 6568 H 602.484 -0.441408 0.602634 0
M  V30 6569 H 605.146 -0.505162 1.8824 0
M  V30 6570 H 604.242 -1.91892 2.46138 0
M  V30 6571 N 604.543 -1.41418 -0.695603 0
M  V30 6572 C 605.791 -1.40496 -1.45277 0
M  V30 6573 C 606.112 -0.0149538 -1.94994 0
M  V30 6574 O 605.382 0.9432 -1.71699 0
M  V30 6575 H 603.962 -0.517147 -0.539044 0
M  V30 6576 H 606.624 -1.76656 -0.823321 0
M  V30 6577 H 605.72 -2.09214 -2.31595 0
M  V30 6578 N 606.021 0.929856 -1.27246 0
M  V30 6579 C 607.267 1.6798 -1.13625 0
M  V30 6580 C 607.6 1.91586 0.317589 0
M  V30 6581 O 606.875 1.50467 1.23247 0
M  V30 6582 C 607.158 3.04766 -1.91806 0
M  V30 6583 C 607.011 2.88415 -3.45162 0
M  V30 6584 C 608.33 4.05063 -1.72082 0
M  V30 6585 H 605.449 0.609632 -0.414147 0
M  V30 6586 H 608.091 1.0792 -1.56376 0
M  V30 6587 H 606.241 3.56034 -1.55474 0
M  V30 6588 H 607.913 2.44282 -3.91311 0
M  V30 6589 H 606.156 2.23802 -3.71611 0
M  V30 6590 H 606.827 3.85482 -3.95105 0
M  V30 6591 H 609.303 3.62798 -2.03757 0
M  V30 6592 H 608.179 4.98765 -2.29182 0
M  V30 6593 H 608.44 4.37021 -0.668206 0
M  V30 6594 N 607.499 1.09233 1.13605 0
M  V30 6595 C 608.429 0.751738 2.21068 0
M  V30 6596 C 609.41 -0.269688 1.67948 0
M  V30 6597 O 610.595 -0.13819 1.93708 0
M  V30 6598 C 607.725 0.16935 3.46887 0
M  V30 6599 C 606.679 1.12007 4.13084 0
M  V30 6600 C 606.005 0.399483 5.33206 0
M  V30 6601 C 607.305 2.46168 4.6065 0
M  V30 6602 H 608.999 1.65024 2.49815 0
M  V30 6603 H 606.545 0.794905 1.20072 0
M  V30 6604 H 608.498 -0.0809824 4.21322 0
M  V30 6605 H 607.222 -0.764335 3.1753 0
M  V30 6606 H 605.881 1.35564 3.40614 0
M  V30 6607 H 605.529 -0.538277 5.00112 0
M  V30 6608 H 605.229 1.03337 5.78442 0
M  V30 6609 H 606.753 0.157403 6.10397 0
M  V30 6610 H 608.167 2.26829 5.26518 0
M  V30 6611 H 606.564 3.05326 5.1662 0
M  V30 6612 H 607.634 3.07076 3.75276 0
M  V30 6613 N 608.977 -1.30795 0.87923 0
M  V30 6614 C 609.907 -2.30742 0.357796 0
M  V30 6615 C 610.888 -1.60747 -0.556283 0
M  V30 6616 O 612.073 -1.88393 -0.47135 0
M  V30 6617 C 609.203 -3.44583 -0.433555 0
M  V30 6618 C 608.157 -4.26235 0.388251 0
M  V30 6619 C 607.483 -5.32073 -0.529352 0
M  V30 6620 C 608.783 -4.96303 1.62729 0
M  V30 6621 H 610.477 -2.74605 1.19299 0
M  V30 6622 H 608.023 -1.32017 0.575104 0
M  V30 6623 H 609.976 -4.13563 -0.808934 0
M  V30 6624 H 608.7 -2.99511 -1.30234 0
M  V30 6625 H 607.359 -3.58936 0.745695 0
M  V30 6626 H 607.007 -4.83249 -1.39569 0
M  V30 6627 H 606.707 -5.87598 0.0166741 0
M  V30 6628 H 608.231 -6.0391 -0.901373 0
M  V30 6629 H 609.645 -5.5783 1.32283 0
M  V30 6630 H 608.042 -5.61666 2.11309 0
M  V30 6631 H 609.112 -4.22758 2.37494 0
M  V30 6632 N 610.455 -0.639598 -1.44038 0
M  V30 6633 C 611.702 -0.14748 -2.01962 0
M  V30 6634 C 612.03 1.23372 -1.50365 0
M  V30 6635 O 611.285 1.8345 -0.681501 0
M  V30 6636 C 611.584 -0.0925348 -3.5728 0
M  V30 6637 C 611.25 -1.41365 -4.28167 0
M  V30 6638 C 609.912 -1.77545 -4.47248 0
M  V30 6639 C 612.264 -2.2853 -4.68427 0
M  V30 6640 C 609.592 -3.00583 -5.03852 0
M  V30 6641 C 611.944 -3.50846 -5.26393 0
M  V30 6642 C 610.608 -3.8724 -5.43692 0
M  V30 6643 H 609.878 -0.0539666 -0.739032 0
M  V30 6644 H 612.525 -0.827599 -1.72694 0
M  V30 6645 H 610.83 0.670987 -3.86012 0
M  V30 6646 H 612.527 0.304891 -3.99839 0
M  V30 6647 H 609.117 -1.1221 -4.13651 0
M  V30 6648 H 613.301 -2.0187 -4.5339 0
M  V30 6649 H 608.557 -3.28846 -5.15432 0
M  V30 6650 H 612.731 -4.18616 -5.56537 0
M  V30 6651 H 610.358 -4.8266 -5.87319 0
M  V30 6652 N 611.933 1.52934 -0.380664 0
M  V30 6653 C 613.182 2.00651 0.205477 0
M  V30 6654 C 613.495 1.27164 1.48623 0
M  V30 6655 O 614.701 1.65547 2.15189 0
M  V30 6656 C 613.157 3.57479 0.416726 0
M  V30 6657 C 612.765 4.39857 -0.850268 0
M  V30 6658 C 614.509 4.13509 0.959702 0
M  V30 6659 C 612.416 5.88269 -0.607773 0
M  V30 6660 H 611.346 0.749684 0.0805614 0
M  V30 6661 H 613.997 1.76508 -0.501732 0
M  V30 6662 H 612.379 3.77836 1.18557 0
M  V30 6663 H 613.553 4.31269 -1.62307 0
M  V30 6664 H 611.868 3.95005 -1.31756 0
M  V30 6665 H 614.465 5.22039 1.15669 0
M  V30 6666 H 614.808 3.69054 1.92626 0
M  V30 6667 H 615.341 3.9701 0.250645 0
M  V30 6668 H 612.08 6.3703 -1.54509 0
M  V30 6669 H 611.6 5.99667 0.126247 0
M  V30 6670 H 613.279 6.46558 -0.239014 0
M  V30 6671 N 613.412 0.11024 1.57214 0
M  V30 6672 C 614.344 -0.873497 2.11902 0
M  V30 6673 C 615.357 -1.23588 1.05971 0
M  V30 6674 O 616.546 -1.18636 1.33371 0
M  V30 6675 C 613.646 -2.17805 2.59643 0
M  V30 6676 C 612.819 -1.98869 3.89576 0
M  V30 6677 C 611.878 -3.12974 4.23006 0
M  V30 6678 O 610.904 -2.86272 4.91973 0
M  V30 6679 N 612.106 -4.39167 3.79622 0
M  V30 6680 H 614.871 -0.406317 2.96933 0
M  V30 6681 H 612.432 -0.074437 1.61729 0
M  V30 6682 H 614.424 -2.93117 2.79042 0
M  V30 6683 H 612.994 -2.55899 1.7954 0
M  V30 6684 H 612.214 -1.078 3.79174 0
M  V30 6685 H 613.502 -1.83512 4.74553 0
M  V30 6686 H 612.9 -4.63739 3.2398 0
M  V30 6687 H 611.457 -5.11379 4.04147 0
M  V30 6688 N 614.89 -1.56749 -0.16351 0
M  V30 6689 C 615.82 -2.00042 -1.20438 0
M  V30 6690 C 616.801 -0.877256 -1.45733 0
M  V30 6691 O 617.986 -1.1439 -1.56935 0
M  V30 6692 C 615.116 -2.36697 -2.54149 0
M  V30 6693 C 614.07 -3.52046 -2.43408 0
M  V30 6694 C 613.396 -3.74466 -3.81679 0
M  V30 6695 C 614.696 -4.85247 -1.93216 0
M  V30 6696 H 616.39 -2.87244 -0.844477 0
M  V30 6697 H 613.936 -1.38194 -0.40478 0
M  V30 6698 H 615.889 -2.65582 -3.27176 0
M  V30 6699 H 614.613 -1.46414 -2.91943 0
M  V30 6700 H 613.272 -3.23301 -1.72834 0
M  V30 6701 H 612.92 -2.81461 -4.1688 0
M  V30 6702 H 612.62 -4.52084 -3.75359 0
M  V30 6703 H 614.144 -4.0576 -4.5628 0
M  V30 6704 H 615.558 -5.12957 -2.56023 0
M  V30 6705 H 613.955 -5.66556 -1.97825 0
M  V30 6706 H 615.025 -4.7672 -0.88689 0
M  V30 6707 N 616.368 0.432326 -1.51554 0
M  V30 6708 C 617.614 1.18309 -1.64714 0
M  V30 6709 C 617.947 1.90745 -0.364696 0
M  V30 6710 O 617.222 1.8381 0.635936 0
M  V30 6711 C 617.505 2.1961 -2.85383 0
M  V30 6712 C 617.358 1.51223 -4.23617 0
M  V30 6713 C 618.677 3.20538 -3.01569 0
M  V30 6714 H 615.796 0.428751 -0.599451 0
M  V30 6715 H 618.438 0.471689 -1.84052 0
M  V30 6716 H 616.588 2.8028 -2.69027 0
M  V30 6717 H 618.26 0.938516 -4.51652 0
M  V30 6718 H 616.503 0.814501 -4.26085 0
M  V30 6719 H 617.174 2.25024 -5.04052 0
M  V30 6720 H 619.65 2.69926 -3.16669 0
M  V30 6721 H 618.526 3.88706 -3.87555 0
M  V30 6722 H 618.787 3.86933 -2.13859 0
M  V30 6723 N 617.846 1.41785 0.688094 0
M  V30 6724 C 619.257 1.3701 1.26828 0
M  V30 6725 C 619.608 0.056835 1.96118 0
M  V30 6726 O 618.733 -0.84475 1.99231 0
M  V30 6727 C 619.328 2.48168 2.30648 0
M  V30 6728 C 617.887 2.46766 2.84224 0
M  V30 6729 C 617.034 2.27633 1.58361 0
M  V30 6730 H 619.985 1.51192 0.482351 0
M  V30 6731 H 620.006 2.17655 3.121 0
M  V30 6732 H 619.518 3.43735 1.80188 0
M  V30 6733 H 617.619 1.54978 3.3884 0
M  V30 6734 H 617.732 3.43342 3.34145 0
M  V30 6735 H 616.096 1.75648 1.84445 0
M  V30 6736 H 616.879 3.25238 1.09887 0
M  V30 6737 N 619.324 -0.923095 1.27737 0
M  V30 6738 C 620.57 -1.67375 1.14514 0
M  V30 6739 C 620.903 -1.91751 -0.307424 0
M  V30 6740 O 620.178 -1.51119 -1.22447 0
M  V30 6741 C 620.461 -3.03745 1.9342 0
M  V30 6742 C 620.314 -2.86581 3.46686 0
M  V30 6743 C 621.633 -4.04144 1.74228 0
M  V30 6744 H 618.752 -0.607427 0.417374 0
M  V30 6745 H 621.394 -1.07089 1.56946 0
M  V30 6746 H 619.544 -3.55204 1.5736 0
M  V30 6747 H 621.216 -2.42203 3.92601 0
M  V30 6748 H 619.459 -2.21829 3.72793 0
M  V30 6749 H 620.13 -3.83381 3.97143 0
M  V30 6750 H 622.606 -3.61712 2.05678 0
M  V30 6751 H 621.482 -4.97543 2.31824 0
M  V30 6752 H 621.743 -4.36661 0.691373 0
M  V30 6753 N 620.802 -1.09834 -1.13024 0
M  V30 6754 C 622.079 -0.749225 -1.80682 0
M  V30 6755 C 622.459 0.765171 -1.96744 0
M  V30 6756 O 621.807 1.68912 -1.53886 0
M  V30 6757 C 622.017 -1.49311 -3.15448 0
M  V30 6758 C 623.365 -1.66162 -3.90737 0
M  V30 6759 O 624.389 -1.45597 -3.25085 0
M  V30 6760 O 623.248 -2.00211 -5.08505 0
M  V30 6761 H 620.342 -0.269614 -0.781817 0
M  V30 6762 H 622.888 -1.20078 -1.19914 0
M  V30 6763 H 621.66 -2.52407 -2.99009 0
M  V30 6764 H 621.283 -1.034 -3.8392 0
M  V30 6765 N 622.28 1.30327 -0.886154 0
M  V30 6766 C 623.51 1.99964 -0.519421 0
M  V30 6767 C 623.918 1.66593 0.89686 0
M  V30 6768 O 623.261 0.899886 1.60149 0
M  V30 6769 C 623.323 3.54187 -0.615795 0
M  V30 6770 C 622.987 4.11078 -1.9966 0
M  V30 6771 C 623.984 4.26985 -2.96614 0
M  V30 6772 C 621.669 4.46429 -2.30231 0
M  V30 6773 C 623.663 4.77456 -4.22273 0
M  V30 6774 C 621.35 4.966 -3.56135 0
M  V30 6775 C 622.348 5.12066 -4.5197 0
M  V30 6776 O 622.036 5.61154 -5.7564 0
M  V30 6777 H 621.768 0.645979 -0.199217 0
M  V30 6778 H 624.322 1.67154 -1.19368 0
M  V30 6779 H 622.552 3.86528 0.115448 0
M  V30 6780 H 624.241 4.05065 -0.26017 0
M  V30 6781 H 625.007 3.99975 -2.74308 0
M  V30 6782 H 620.886 4.33658 -1.56404 0
M  V30 6783 H 624.43 4.89444 -4.97082 0
M  V30 6784 H 620.327 5.23045 -3.78277 0
M  V30 6785 H 621.095 5.79494 -5.78039 0
M  V30 6786 N 623.758 0.647228 1.43697 0
M  V30 6787 C 624.988 0.16551 2.05936 0
M  V30 6788 C 625.396 -1.17164 1.48557 0
M  V30 6789 O 624.739 -1.73307 0.60914 0
M  V30 6790 C 624.801 -0.00648082 3.59499 0
M  V30 6791 C 624.465 1.25503 4.39429 0
M  V30 6792 C 625.462 2.18241 4.71876 0
M  V30 6793 C 623.147 1.49494 4.79538 0
M  V30 6794 C 625.141 3.33268 5.43333 0
M  V30 6795 C 622.828 2.64815 5.50742 0
M  V30 6796 C 623.826 3.56528 5.82561 0
M  V30 6797 O 623.514 4.69836 6.52311 0
M  V30 6798 H 623.246 0.0844124 0.670709 0
M  V30 6799 H 625.8 0.88638 1.8529 0
M  V30 6800 H 624.03 -0.782661 3.78697 0
M  V30 6801 H 625.719 -0.444794 4.03456 0
M  V30 6802 H 626.485 2.00946 4.41413 0
M  V30 6803 H 622.364 0.789912 4.54182 0
M  V30 6804 H 625.908 4.04874 5.68087 0
M  V30 6805 H 621.805 2.82047 5.8062 0
M  V30 6806 H 622.573 4.69024 6.70789 0
M  V30 6807 N 625.236 -1.5273 0.388769 0
M  V30 6808 C 626.483 -2.01573 -0.19359 0
M  V30 6809 C 626.811 -1.27525 -1.46859 0
M  V30 6810 O 626.066 -0.363926 -1.92286 0
M  V30 6811 C 626.365 -3.53765 -0.508445 0
M  V30 6812 C 626.031 -4.4582 0.674947 0
M  V30 6813 C 624.693 -4.70703 0.999596 0
M  V30 6814 C 627.045 -5.00138 1.46666 0
M  V30 6815 C 624.373 -5.47155 2.11751 0
M  V30 6816 C 626.725 -5.77812 2.57518 0
M  V30 6817 C 625.389 -6.00975 2.90492 0
M  V30 6818 H 624.659 -0.737606 -0.0708397 0
M  V30 6819 H 627.306 -1.84134 0.526006 0
M  V30 6820 H 625.611 -3.69274 -1.30936 0
M  V30 6821 H 627.308 -3.8905 -0.971664 0
M  V30 6822 H 623.898 -4.26616 0.411906 0
M  V30 6823 H 628.082 -4.8084 1.22909 0
M  V30 6824 H 623.338 -5.63314 2.3767 0
M  V30 6825 H 627.512 -6.18904 3.19267 0
M  V30 6826 H 625.139 -6.59998 3.77236 0
M  V30 6827 N 626.714 -0.118576 -1.57153 0
M  V30 6828 C 627.644 0.828436 -2.1831 0
M  V30 6829 C 628.625 1.27758 -1.12303 0
M  V30 6830 O 629.81 1.34026 -1.40537 0
M  V30 6831 C 626.94 2.07876 -2.78217 0
M  V30 6832 C 625.894 1.76742 -3.89803 0
M  V30 6833 C 625.22 3.08801 -4.36516 0
M  V30 6834 C 626.52 1.03606 -5.11921 0
M  V30 6835 H 628.214 0.318824 -2.97698 0
M  V30 6836 H 625.76 0.151911 -1.43196 0
M  V30 6837 H 627.713 2.74584 -3.19659 0
M  V30 6838 H 626.437 2.61161 -1.96118 0
M  V30 6839 H 625.096 1.12424 -3.48936 0
M  V30 6840 H 624.744 3.6002 -3.51276 0
M  V30 6841 H 624.444 2.88743 -5.11763 0
M  V30 6842 H 625.968 3.76627 -4.80608 0
M  V30 6843 H 627.382 1.60467 -5.50385 0
M  V30 6844 H 625.779 0.936454 -5.92748 0
M  V30 6845 H 626.849 0.0227421 -4.84895 0
M  V30 6846 N 628.193 1.56834 0.155195 0
M  V30 6847 C 629.418 1.87412 0.888337 0
M  V30 6848 C 629.843 0.70671 1.74319 0
M  V30 6849 O 629.201 -0.343892 1.78009 0
M  V30 6850 C 629.249 3.1652 1.72765 0
M  V30 6851 O 628.353 2.99877 2.83103 0
M  V30 6852 H 627.694 0.615983 0.247914 0
M  V30 6853 H 630.224 2.04061 0.148478 0
M  V30 6854 H 630.234 3.48334 2.12433 0
M  V30 6855 H 628.909 4.01094 1.09985 0
M  V30 6856 H 627.486 2.79453 2.46902 0
M  V30 6857 N 629.671 -0.424282 1.51781 0
M  V30 6858 C 630.92 -1.16961 1.64326 0
M  V30 6859 C 631.233 -1.92035 0.371749 0
M  V30 6860 O 632.439 -2.68873 0.37676 0
M  V30 6861 C 630.895 -2.12782 2.90262 0
M  V30 6862 C 630.503 -1.43295 4.24465 0
M  V30 6863 C 632.247 -2.87667 3.12166 0
M  V30 6864 C 630.154 -2.37676 5.41538 0
M  V30 6865 H 629.084 -0.440293 0.612093 0
M  V30 6866 H 631.735 -0.435431 1.78259 0
M  V30 6867 H 630.117 -2.8969 2.69992 0
M  V30 6868 H 631.291 -0.718564 4.55163 0
M  V30 6869 H 629.606 -0.805118 4.08542 0
M  V30 6870 H 632.203 -3.58395 3.96808 0
M  V30 6871 H 632.546 -3.49758 2.25776 0
M  V30 6872 H 633.079 -2.17863 3.32837 0
M  V30 6873 H 629.818 -1.80255 6.30229 0
M  V30 6874 H 629.338 -3.07132 5.15199 0
M  V30 6875 H 631.017 -2.98529 5.74012 0
M  V30 6876 N 631.149 -1.42148 -0.680565 0
M  V30 6877 C 632.397 -1.42029 -1.43779 0
M  V30 6878 C 632.718 -0.0356347 -1.94967 0
M  V30 6879 O 631.988 0.924936 -1.7269 0
M  V30 6880 H 630.568 -0.522835 -0.533529 0
M  V30 6881 H 633.23 -1.7752 -0.804538 0
M  V30 6882 H 632.326 -2.11658 -2.29363 0
M  V30 6883 N 632.627 0.916307 -1.28225 0
M  V30 6884 C 633.557 2.0352 -1.14464 0
M  V30 6885 C 634.538 1.70045 -0.0430844 0
M  V30 6886 O 635.723 1.92954 -0.219619 0
M  V30 6887 C 632.853 3.37889 -0.803027 0
M  V30 6888 C 631.807 3.85516 -1.85908 0
M  V30 6889 C 631.133 5.1682 -1.37116 0
M  V30 6890 C 632.433 4.07655 -3.26519 0
M  V30 6891 H 634.127 2.1529 -2.08064 0
M  V30 6892 H 631.673 1.03446 -1.00174 0
M  V30 6893 H 633.626 4.15654 -0.693537 0
M  V30 6894 H 632.35 3.26164 0.168674 0
M  V30 6895 H 631.009 3.09953 -1.95767 0
M  V30 6896 H 630.657 5.01497 -0.38859 0
M  V30 6897 H 630.357 5.49657 -2.07728 0
M  V30 6898 H 631.881 5.97143 -1.27484 0
M  V30 6899 H 633.295 4.75953 -3.19596 0
M  V30 6900 H 631.692 4.51818 -3.94943 0
M  V30 6901 H 632.762 3.12553 -3.70727 0
M  V30 6902 N 634.105 1.10431 1.1244 0
M  V30 6903 C 635.351 0.847972 1.84221 0
M  V30 6904 C 635.684 -0.624903 1.83871 0
M  V30 6905 O 634.959 -1.46074 1.28423 0
M  V30 6906 C 635.242 1.39695 3.319 0
M  V30 6907 C 635.095 2.93668 3.40704 0
M  V30 6908 C 636.414 1.03924 4.27654 0
M  V30 6909 H 633.533 0.309502 0.668863 0
M  V30 6910 H 636.175 1.36745 1.31912 0
M  V30 6911 H 634.325 0.955095 3.76577 0
M  V30 6912 H 635.997 3.46379 3.04662 0
M  V30 6913 H 634.24 3.30272 2.81252 0
M  V30 6914 H 634.911 3.27162 4.446 0
M  V30 6915 H 637.387 1.42049 3.91102 0
M  V30 6916 H 636.263 1.45027 5.29394 0
M  V30 6917 H 636.524 -0.051336 4.4207 0
M  V30 6918 N 635.583 -1.29855 0.893053 0
M  V30 6919 C 636.516 -2.26079 0.3104 0
M  V30 6920 C 637.494 -1.52145 -0.573644 0
M  V30 6921 O 638.678 -1.8113 -0.521937 0
M  V30 6922 C 635.805 -3.34069 -0.558179 0
M  V30 6923 C 634.851 -4.25721 0.257638 0
M  V30 6924 S 635.684 -5.09409 1.65114 0
M  V30 6925 C 636.84 -6.20903 0.789307 0
M  V30 6926 H 637.073 -2.75151 1.12602 0
M  V30 6927 H 634.606 -1.37975 0.692978 0
M  V30 6928 H 636.564 -3.9675 -1.05355 0
M  V30 6929 H 635.225 -2.83705 -1.34797 0
M  V30 6930 H 634.418 -5.02366 -0.405562 0
M  V30 6931 H 634.02 -3.67656 0.685917 0
M  V30 6932 H 636.312 -6.77499 0.00978451 0
M  V30 6933 H 637.255 -6.91426 1.52762 0
M  V30 6934 H 637.663 -5.63435 0.346634 0
M  V30 6935 N 637.061 -0.65484 -1.43351 0
M  V30 6936 C 637.991 0.0221809 -2.33489 0
M  V30 6937 C 638.972 0.810272 -1.49561 0
M  V30 6938 O 640.157 0.771426 -1.78221 0
M  V30 6939 C 637.287 0.988117 -3.32947 0
M  V30 6940 C 636.241 0.310026 -4.26876 0
M  V30 6941 C 635.567 1.38752 -5.16384 0
M  V30 6942 C 636.867 -0.798589 -5.16159 0
M  V30 6943 H 638.561 -0.730571 -2.9035 0
M  V30 6944 H 636.107 -0.352773 -1.39612 0
M  V30 6945 H 638.06 1.47067 -3.94904 0
M  V30 6946 H 636.784 1.77205 -2.74346 0
M  V30 6947 H 635.443 -0.152097 -3.66284 0
M  V30 6948 H 635.091 2.16293 -4.54121 0
M  V30 6949 H 634.791 0.939051 -5.80048 0
M  V30 6950 H 636.315 1.87141 -5.81215 0
M  V30 6951 H 637.729 -0.398126 -5.71916 0
M  V30 6952 H 636.126 -1.17163 -5.88552 0
M  V30 6953 H 637.196 -1.65588 -4.55751 0
M  V30 6954 N 638.539 1.52521 -0.396863 0
M  V30 6955 C 639.787 2.01274 0.182536 0
M  V30 6956 C 640.108 1.28485 1.46685 0
M  V30 6957 O 639.378 0.407134 1.91623 0
M  V30 6958 H 637.958 0.743671 0.0704442 0
M  V30 6959 H 640.62 1.87547 -0.530289 0
M  V30 6960 H 639.716 3.09687 0.387385 0
M  V30 6961 N 640.017 0.126909 1.57088 0
M  V30 6962 C 640.964 -0.82036 2.15728 0
M  V30 6963 C 641.934 -1.25811 1.08447 0
M  V30 6964 O 643.119 -1.33422 1.36393 0
M  V30 6965 C 640.259 -2.06199 2.76724 0
M  V30 6966 C 639.372 -1.67188 3.98337 0
M  V30 6967 C 638.507 -2.86378 4.47393 0
M  V30 6968 C 637.546 -2.43644 5.61519 0
M  V30 6969 N 636.683 -3.55775 6.05284 0
M  V30 6970 H 641.523 -0.313472 2.96347 0
M  V30 6971 H 639.06 -0.14303 1.46403 0
M  V30 6972 H 641.018 -2.78959 3.10222 0
M  V30 6973 H 639.648 -2.54333 1.98782 0
M  V30 6974 H 638.7 -0.842714 3.70948 0
M  V30 6975 H 640.012 -1.31789 4.81075 0
M  V30 6976 H 639.166 -3.67353 4.82842 0
M  V30 6977 H 637.905 -3.25009 3.63621 0
M  V30 6978 H 636.91 -1.61104 5.25667 0
M  V30 6979 H 638.135 -2.06122 6.47063 0
M  V30 6980 H 636.081 -3.94065 5.24451 0
M  V30 6981 H 635.998 -3.24325 6.82898 0
M  V30 6982 H 637.266 -4.37166 6.45373 0
M  V30 6983 N 641.495 -1.56914 -0.146875 0
M  V30 6984 C 642.742 -1.83356 -0.859467 0
M  V30 6985 C 643.07 -0.707811 -1.81164 0
M  V30 6986 O 642.325 0.303155 -1.93338 0
M  V30 6987 C 642.624 -3.16128 -1.66727 0
M  V30 6988 C 642.29 -4.42586 -0.861881 0
M  V30 6989 C 640.952 -4.76929 -0.639687 0
M  V30 6990 C 643.304 -5.20344 -0.298643 0
M  V30 6991 C 640.632 -5.86491 0.156451 0
M  V30 6992 C 642.984 -6.30742 0.484536 0
M  V30 6993 C 641.648 -6.63635 0.717306 0
M  V30 6994 H 640.918 -0.670947 -0.314501 0
M  V30 6995 H 643.565 -1.91104 -0.123108 0
M  V30 6996 H 641.87 -3.03831 -2.47374 0
M  V30 6997 H 643.567 -3.33802 -2.2221 0
M  V30 6998 H 640.157 -4.15662 -1.04513 0
M  V30 6999 H 644.341 -4.94186 -0.457585 0
M  V30 7000 H 639.597 -6.10419 0.346292 0
M  V30 7001 H 643.771 -6.90188 0.928105 0
M  V30 7002 H 641.398 -7.48367 1.33607 0
M  V30 7003 N 642.974 0.416227 -1.52004 0
M  V30 7004 C 644.222 1.16153 -1.65387 0
M  V30 7005 C 644.543 1.91208 -0.382669 0
M  V30 7006 O 643.813 1.86413 0.602231 0
M  V30 7007 H 642.393 0.431765 -0.60958 0
M  V30 7008 H 645.055 0.475151 -1.89019 0
M  V30 7009 H 644.151 1.87952 -2.4916 0
M  V30 7010 N 644.452 1.42507 0.673017 0
M  V30 7011 C 645.701 1.42364 1.42883 0
M  V30 7012 C 646.014 0.0441598 1.9555 0
M  V30 7013 O 647.22 -0.0798679 2.71382 0
M  V30 7014 C 645.676 2.5043 2.58482 0
M  V30 7015 C 645.284 3.94392 2.12506 0
M  V30 7016 C 647.028 2.59455 3.35981 0
M  V30 7017 C 644.935 4.93964 3.25198 0
M  V30 7018 H 643.865 0.52951 0.536782 0
M  V30 7019 H 646.516 1.68422 0.728448 0
M  V30 7020 H 644.898 2.1754 3.30896 0
M  V30 7021 H 646.072 4.36645 1.47233 0
M  V30 7022 H 644.387 3.89233 1.4794 0
M  V30 7023 H 646.984 3.31025 4.19912 0
M  V30 7024 H 647.327 1.63869 3.82691 0
M  V30 7025 H 647.86 2.91549 2.70637 0
M  V30 7026 H 644.599 5.91034 2.83477 0
M  V30 7027 H 644.119 4.56341 3.89247 0
M  V30 7028 H 645.798 5.15763 3.90637 0
M  V30 7029 N 645.93 -0.909495 1.28709 0
M  V30 7030 C 647.158 -1.69272 1.18973 0
M  V30 7031 C 647.573 -1.87123 -0.251048 0
M  V30 7032 O 646.93 -1.40127 -1.16922 0
M  V30 7033 C 646.981 -3.08257 1.88839 0
M  V30 7034 O 646.702 -2.91228 3.27289 0
M  V30 7035 C 648.203 -4.02642 1.85457 0
M  V30 7036 H 645.423 -0.528999 0.412797 0
M  V30 7037 H 647.967 -1.13803 1.69909 0
M  V30 7038 H 646.122 -3.6053 1.41762 0
M  V30 7039 H 646.536 -3.79223 3.6234 0
M  V30 7040 H 648.01 -4.97613 2.38925 0
M  V30 7041 H 648.487 -4.31327 0.827893 0
M  V30 7042 H 649.093 -3.56298 2.32233 0
M  V30 7043 N 647.408 -1.11026 -1.11852 0
M  V30 7044 C 648.633 -0.879064 -1.87849 0
M  V30 7045 C 649.058 0.565406 -1.79401 0
M  V30 7046 O 648.416 1.39886 -1.15333 0
M  V30 7047 C 648.464 -1.33985 -3.34784 0
M  V30 7048 O 647.568 -0.508803 -4.09249 0
M  V30 7049 H 646.909 -0.316992 -0.583448 0
M  V30 7050 H 649.439 -1.47863 -1.41413 0
M  V30 7051 H 649.449 -1.33248 -3.85628 0
M  V30 7052 H 648.124 -2.39172 -3.40249 0
M  V30 7053 H 646.701 -0.581913 -3.68332 0
M  V30 7054 N 648.886 1.2938 -0.899927 0
M  V30 7055 C 649.849 2.25983 -0.382677 0
M  V30 7056 C 650.849 1.53366 0.483259 0
M  V30 7057 O 652.039 1.71798 0.28828 0
M  V30 7058 C 649.171 3.37878 0.452915 0
M  V30 7059 H 650.364 2.73252 -1.23586 0
M  V30 7060 H 647.917 1.40825 -0.678088 0
M  V30 7061 H 648.652 2.95949 1.32608 0
M  V30 7062 H 648.437 3.91742 -0.167562 0
M  V30 7063 H 649.927 4.09746 0.806107 0
M  V30 7064 N 650.364 0.662433 1.43002 0
M  V30 7065 C 651.611 0.179591 2.01702 0
M  V30 7066 C 651.939 -1.20964 1.52309 0
M  V30 7067 O 651.194 -1.82343 0.7106 0
M  V30 7068 C 651.493 0.149363 3.57088 0
M  V30 7069 C 651.159 1.48158 4.25864 0
M  V30 7070 C 649.821 1.84638 4.44367 0
M  V30 7071 C 652.173 2.35953 4.64732 0
M  V30 7072 C 649.501 3.08561 4.99006 0
M  V30 7073 C 651.853 3.59176 5.20745 0
M  V30 7074 C 650.517 3.95841 5.37463 0
M  V30 7075 H 649.787 0.0657172 0.73808 0
M  V30 7076 H 652.434 0.854968 1.71355 0
M  V30 7077 H 650.739 -0.609491 3.8703 0
M  V30 7078 H 652.436 -0.241241 4.00274 0
M  V30 7079 H 649.026 1.18777 4.11813 0
M  V30 7080 H 653.21 2.09058 4.50121 0
M  V30 7081 H 648.466 3.37005 5.10135 0
M  V30 7082 H 652.64 4.27417 5.49807 0
M  V30 7083 H 650.267 4.91942 5.79566 0
M  V30 7084 N 651.842 -1.52309 0.404946 0
M  V30 7085 C 653.067 -2.06666 -0.1743 0
M  V30 7086 C 653.492 -1.27341 -1.38441 0
M  V30 7087 O 652.85 -0.302539 -1.78758 0
M  V30 7088 C 652.898 -3.57014 -0.507262 0
M  V30 7089 O 652.002 -3.80144 -1.59889 0
M  V30 7090 H 651.343 -0.663807 -0.0160273 0
M  V30 7091 H 653.873 -1.96297 0.576937 0
M  V30 7092 H 653.883 -4.00724 -0.767098 0
M  V30 7093 H 652.558 -4.14184 0.377368 0
M  V30 7094 H 651.135 -3.48316 -1.33155 0
M  V30 7095 N 653.32 -0.135238 -1.57019 0
M  V30 7096 C 654.253 0.846618 -2.11914 0
M  V30 7097 C 655.231 1.25019 -1.03966 0
M  V30 7098 O 656.415 1.34838 -1.31723 0
M  V30 7099 C 653.542 2.1352 -2.6292 0
M  V30 7100 C 652.588 1.87846 -3.82905 0
M  V30 7101 S 653.421 1.08005 -5.24495 0
M  V30 7102 C 654.577 2.38008 -5.78881 0
M  V30 7103 H 654.81 0.379752 -2.94865 0
M  V30 7104 H 652.343 0.0788387 -1.54199 0
M  V30 7105 H 654.301 2.87551 -2.92958 0
M  V30 7106 H 652.962 2.57323 -1.80121 0
M  V30 7107 H 652.155 2.83365 -4.16797 0
M  V30 7108 H 651.757 1.21929 -3.53567 0
M  V30 7109 H 654.049 3.33742 -5.89595 0
M  V30 7110 H 654.992 2.08638 -6.76665 0
M  V30 7111 H 655.4 2.48119 -5.07048 0
M  V30 7112 N 654.798 1.5699 0.138552 0
M  V30 7113 C 655.728 2.01933 1.17241 0
M  V30 7114 C 656.709 0.90033 1.44319 0
M  V30 7115 O 657.894 1.16872 1.55095 0
M  V30 7116 C 655.024 2.40711 2.50351 0
M  V30 7117 C 653.978 3.55874 2.37776 0
M  V30 7118 C 653.304 3.80491 3.75674 0
M  V30 7119 C 654.604 4.8826 1.85472 0
M  V30 7120 H 656.298 2.88551 0.798672 0
M  V30 7121 H 653.844 1.3882 0.382743 0
M  V30 7122 H 655.797 2.70754 3.22909 0
M  V30 7123 H 654.521 1.5104 2.89576 0
M  V30 7124 H 653.18 3.2601 1.67669 0
M  V30 7125 H 652.828 2.88057 4.12349 0
M  V30 7126 H 652.528 4.57998 3.68119 0
M  V30 7127 H 654.052 4.12967 4.49767 0
M  V30 7128 H 655.466 5.16965 2.4783 0
M  V30 7129 H 653.863 5.69631 1.88787 0
M  V30 7130 H 654.933 4.78071 0.810935 0
M  V30 7131 N 656.276 -0.40816 1.52223 0
M  V30 7132 C 657.506 -1.17501 1.69932 0
M  V30 7133 C 657.914 -1.84729 0.408874 0
M  V30 7134 O 657.257 -1.7274 -0.625025 0
M  V30 7135 C 657.319 -2.27994 2.77955 0
M  V30 7136 C 656.983 -1.80894 4.19674 0
M  V30 7137 C 657.98 -1.29618 5.03483 0
M  V30 7138 C 655.665 -1.87698 4.65913 0
M  V30 7139 C 657.659 -0.857695 6.31603 0
M  V30 7140 C 655.346 -1.43461 5.94022 0
M  V30 7141 C 656.344 -0.925822 6.76696 0
M  V30 7142 O 656.032 -0.489841 8.02406 0
M  V30 7143 H 655.764 -0.359065 0.572755 0
M  V30 7144 H 658.318 -0.486188 1.99563 0
M  V30 7145 H 656.548 -3.00243 2.43703 0
M  V30 7146 H 658.237 -2.89749 2.84254 0
M  V30 7147 H 659.003 -1.23733 4.68951 0
M  V30 7148 H 654.882 -2.26244 4.01665 0
M  V30 7149 H 658.426 -0.459879 6.96083 0
M  V30 7150 H 654.323 -1.49026 6.28062 0
M  V30 7151 H 655.091 -0.613062 8.16201 0
M  V30 7152 N 657.755 -1.42862 -0.66545 0
M  V30 7153 C 659.001 -1.44043 -1.42757 0
M  V30 7154 C 659.334 -0.0599629 -1.94107 0
M  V30 7155 O 658.609 0.917286 -1.71511 0
M  V30 7156 C 658.892 -2.47266 -2.61786 0
M  V30 7157 C 658.745 -3.94539 -2.16007 0
M  V30 7158 C 660.064 -2.47365 -3.64003 0
M  V30 7159 H 657.183 -0.524506 -0.517748 0
M  V30 7160 H 659.825 -1.74335 -0.755466 0
M  V30 7161 H 657.975 -2.21565 -3.19126 0
M  V30 7162 H 659.647 -4.31254 -1.63762 0
M  V30 7163 H 657.89 -4.07957 -1.47491 0
M  V30 7164 H 658.561 -4.62357 -3.01546 0
M  V30 7165 H 661.037 -2.70243 -3.16399 0
M  V30 7166 H 659.913 -3.21552 -4.44854 0
M  V30 7167 H 660.174 -1.50299 -4.15767 0
M  V30 7168 N 659.233 0.902656 -1.29189 0
M  V30 7169 C 660.48 1.65287 -1.16989 0
M  V30 7170 C 660.808 1.92485 0.279232 0
M  V30 7171 O 660.063 1.53143 1.21843 0
M  V30 7172 C 660.362 3.011 -1.92545 0
M  V30 7173 C 660.028 2.93521 -3.42281 0
M  V30 7174 C 658.69 2.91161 -3.83117 0
M  V30 7175 C 661.042 2.82947 -4.3771 0
M  V30 7176 C 658.37 2.76043 -5.17704 0
M  V30 7177 C 660.722 2.69368 -5.72384 0
M  V30 7178 C 659.386 2.65373 -6.12482 0
M  V30 7179 H 658.656 0.604828 -0.428094 0
M  V30 7180 H 661.303 1.05084 -1.60092 0
M  V30 7181 H 659.608 3.65153 -1.42024 0
M  V30 7182 H 661.305 3.58073 -1.80512 0
M  V30 7183 H 657.895 2.96158 -3.09819 0
M  V30 7184 H 662.079 2.83849 -4.07116 0
M  V30 7185 H 657.335 2.71352 -5.47885 0
M  V30 7186 H 661.509 2.60156 -6.45981 0
M  V30 7187 H 659.136 2.53415 -7.16718 0
M  V30 7188 N 660.711 1.11618 1.11262 0
M  V30 7189 C 661.939 0.888739 1.8684 0
M  V30 7190 C 662.354 -0.561558 1.80255 0
M  V30 7191 O 661.711 -1.38782 1.18515 0
M  V30 7192 C 661.762 1.34422 3.35579 0
M  V30 7193 O 661.483 2.73766 3.42029 0
M  V30 7194 C 662.984 1.15246 4.28058 0
M  V30 7195 H 660.204 0.318152 0.590779 0
M  V30 7196 H 662.748 1.48398 1.40707 0
M  V30 7197 H 660.903 0.79239 3.7921 0
M  V30 7198 H 661.317 2.9355 4.34659 0
M  V30 7199 H 662.791 1.52015 5.30656 0
M  V30 7200 H 663.268 0.0922007 4.39103 0
M  V30 7201 H 663.874 1.69136 3.90222 0
M  V30 7202 N 662.189 -1.289 0.906776 0
M  V30 7203 C 663.152 -2.25777 0.394656 0
M  V30 7204 C 664.152 -1.53621 -0.475119 0
M  V30 7205 O 665.342 -1.71949 -0.279165 0
M  V30 7206 C 662.474 -3.38113 -0.43499 0
M  V30 7207 H 663.667 -2.72592 1.25033 0
M  V30 7208 H 661.22 -1.40463 0.685547 0
M  V30 7209 H 661.955 -2.96648 -1.31036 0
M  V30 7210 H 661.74 -3.91647 0.188334 0
M  V30 7211 H 663.23 -4.10168 -0.784365 0
M  V30 7212 N 663.667 -0.670007 -1.42649 0
M  V30 7213 C 664.577 0.0114788 -2.34597 0
M  V30 7214 C 665.593 0.794055 -1.54825 0
M  V30 7215 O 666.769 0.737472 -1.87412 0
M  V30 7216 C 663.834 0.954436 -3.33304 0
M  V30 7217 C 662.895 0.166925 -4.28975 0
M  V30 7218 C 662.128 1.06497 -5.22967 0
M  V30 7219 O 662.351 2.30446 -5.21777 0
M  V30 7220 O 661.285 0.528347 -5.99577 0
M  V30 7221 H 665.111 -0.745794 -2.944 0
M  V30 7222 H 662.696 -0.430228 -1.43071 0
M  V30 7223 H 664.578 1.49589 -3.93956 0
M  V30 7224 H 663.253 1.69164 -2.7598 0
M  V30 7225 H 662.16 -0.418515 -3.71752 0
M  V30 7226 H 663.493 -0.531067 -4.89327 0
M  V30 7227 N 665.145 1.52092 -0.413018 0
M  V30 7228 C 666.075 2.30021 0.401567 0
M  V30 7229 C 667.056 1.34395 1.04269 0
M  V30 7230 O 668.241 1.63304 1.05097 0
M  V30 7231 C 665.371 3.12447 1.51638 0
M  V30 7232 C 664.325 4.16153 1.00005 0
M  V30 7233 C 663.651 4.86948 2.20875 0
M  V30 7234 C 664.951 5.22275 0.0513757 0
M  V30 7235 H 666.645 2.98365 -0.248704 0
M  V30 7236 H 664.191 1.4349 -0.121052 0
M  V30 7237 H 666.144 3.65733 2.09326 0
M  V30 7238 H 664.868 2.41879 2.19458 0
M  V30 7239 H 663.527 3.63882 0.445549 0
M  V30 7240 H 663.175 4.12905 2.8726 0
M  V30 7241 H 662.875 5.57057 1.86978 0
M  V30 7242 H 664.399 5.43048 2.79162 0
M  V30 7243 H 665.813 5.70778 0.537176 0
M  V30 7244 H 664.21 5.9977 -0.198977 0
M  V30 7245 H 665.28 4.76611 -0.892736 0
M  V30 7246 N 666.623 0.143563 1.56945 0
M  V30 7247 C 667.853 -0.514699 2.00086 0
M  V30 7248 C 668.261 -1.59184 1.0226 0
M  V30 7249 O 667.604 -1.83697 0.0110514 0
M  V30 7250 C 667.666 -1.17778 3.39659 0
M  V30 7251 C 667.33 -0.245657 4.56339 0
M  V30 7252 C 668.327 0.525343 5.17239 0
M  V30 7253 C 666.012 -0.149564 5.02077 0
M  V30 7254 C 668.006 1.37992 6.22284 0
M  V30 7255 C 665.693 0.708621 6.06978 0
M  V30 7256 C 666.691 1.47197 6.6695 0
M  V30 7257 O 666.379 2.31586 7.6982 0
M  V30 7258 H 666.111 -0.138789 0.661599 0
M  V30 7259 H 668.665 0.234098 2.04062 0
M  V30 7260 H 666.895 -1.97415 3.32512 0
M  V30 7261 H 668.584 -1.73542 3.6693 0
M  V30 7262 H 669.35 0.461118 4.82803 0
M  V30 7263 H 665.229 -0.733457 4.55128 0
M  V30 7264 H 668.773 1.97621 6.69023 0
M  V30 7265 H 664.67 0.77415 6.40841 0
M  V30 7266 H 665.438 2.24796 7.87025 0
M  V30 7267 N 668.101 -1.57061 -0.130224 0
M  V30 7268 C 669.512 -1.73539 -0.68856 0
M  V30 7269 C 669.863 -0.760554 -1.80859 0
M  V30 7270 O 668.988 0.0690796 -2.1629 0
M  V30 7271 C 669.583 -3.14666 -1.25581 0
M  V30 7272 C 668.142 -3.32689 -1.76055 0
M  V30 7273 C 667.289 -2.69436 -0.655712 0
M  V30 7274 H 670.24 -1.58412 0.0956002 0
M  V30 7275 H 670.261 -3.15595 -2.12556 0
M  V30 7276 H 669.773 -3.85593 -0.440412 0
M  V30 7277 H 667.874 -2.66786 -2.60108 0
M  V30 7278 H 667.987 -4.4077 -1.87772 0
M  V30 7279 H 666.351 -2.30362 -1.08654 0
M  V30 7280 H 667.134 -3.42979 0.14852 0
M  V30 7281 N 669.579 0.400081 -1.52437 0
M  V30 7282 C 670.807 1.16768 -1.70801 0
M  V30 7283 C 671.222 1.84036 -0.421462 0
M  V30 7284 O 670.579 1.72242 0.603228 0
M  V30 7285 C 670.63 2.22403 -2.8499 0
M  V30 7286 O 670.351 1.57879 -4.08663 0
M  V30 7287 C 671.852 3.11974 -3.1494 0
M  V30 7288 H 669.072 0.350533 -0.57216 0
M  V30 7289 H 671.616 0.469534 -1.99037 0
M  V30 7290 H 669.771 2.87871 -2.59247 0
M  V30 7291 H 670.185 2.27982 -4.7236 0
M  V30 7292 H 671.659 3.82148 -3.9833 0
M  V30 7293 H 672.136 3.74858 -2.28863 0
M  V30 7294 H 672.742 2.52165 -3.42481 0
M  V30 7295 N 671.057 1.43213 0.657864 0
M  V30 7296 C 671.987 1.50815 1.78262 0
M  V30 7297 C 672.968 0.363211 1.66177 0
M  V30 7298 O 674.153 0.579806 1.85343 0
M  V30 7299 C 671.283 1.42625 3.16663 0
M  V30 7300 C 670.237 2.5532 3.43505 0
M  V30 7301 C 669.563 2.32184 4.81658 0
M  V30 7302 C 670.863 3.97583 3.38711 0
M  V30 7303 H 672.557 2.44954 1.72157 0
M  V30 7304 H 670.103 1.17896 0.82683 0
M  V30 7305 H 672.056 1.46548 3.95097 0
M  V30 7306 H 670.78 0.449877 3.23487 0
M  V30 7307 H 669.439 2.50742 2.6744 0
M  V30 7308 H 669.087 1.32801 4.85153 0
M  V30 7309 H 668.787 3.07724 5.00579 0
M  V30 7310 H 670.311 2.37883 5.62356 0
M  V30 7311 H 671.725 4.03673 4.07089 0
M  V30 7312 H 670.122 4.73112 3.69168 0
M  V30 7313 H 671.192 4.23049 2.36976 0
M  V30 7314 N 672.536 -0.895792 1.29666 0
M  V30 7315 C 673.782 -1.64908 1.18039 0
M  V30 7316 C 674.115 -1.9236 -0.266682 0
M  V30 7317 O 673.39 -1.53682 -1.19214 0
M  V30 7318 C 673.673 -2.99574 1.99819 0
M  V30 7319 C 673.526 -2.79163 3.52687 0
M  V30 7320 C 674.845 -4.00358 1.82761 0
M  V30 7321 H 671.964 -0.598437 0.430165 0
M  V30 7322 H 674.606 -1.03736 1.59182 0
M  V30 7323 H 672.756 -3.51786 1.64859 0
M  V30 7324 H 674.428 -2.33821 3.9765 0
M  V30 7325 H 672.671 -2.13871 3.77414 0
M  V30 7326 H 673.342 -3.74871 4.05186 0
M  V30 7327 H 675.818 -3.57268 2.13304 0
M  V30 7328 H 674.694 -4.92514 2.42325 0
M  V30 7329 H 674.955 -4.35096 0.783839 0
M  V30 7330 N 674.014 -1.12206 -1.10668 0
M  V30 7331 C 675.43 -0.857619 -1.346 0
M  V30 7332 C 675.63 0.513542 -1.94846 0
M  V30 7333 O 674.686 1.26273 -2.18658 0
M  V30 7334 C 675.999 -1.97212 -2.26998 0
M  V30 7335 C 677.547 -2.00272 -2.40542 0
M  V30 7336 C 678.022 -3.10948 -3.36267 0
M  V30 7337 N 679.513 -3.10375 -3.43834 0
M  V30 7338 C 680.248 -3.92651 -4.17867 0
M  V30 7339 N 679.744 -4.84911 -4.94807 0
M  V30 7340 N 681.537 -3.80798 -4.1346 0
M  V30 7341 H 673.688 -2.00558 -0.699306 0
M  V30 7342 H 675.951 -0.872612 -0.370477 0
M  V30 7343 H 675.657 -2.96002 -1.89936 0
M  V30 7344 H 675.531 -1.87521 -3.27286 0
M  V30 7345 H 677.918 -1.02103 -2.76874 0
M  V30 7346 H 677.999 -2.14037 -1.40077 0
M  V30 7347 H 677.643 -4.09348 -3.00661 0
M  V30 7348 H 677.573 -2.94421 -4.36605 0
M  V30 7349 H 680.064 -2.43536 -2.88961 0
M  V30 7350 H 680.377 -5.44207 -5.48688 0
M  V30 7351 H 678.722 -4.88926 -4.93939 0
M  V30 7352 H 681.913 -3.08058 -3.52445 0
M  V30 7353 H 682.086 -4.4515 -4.70898 0
M  V30 7354 N 675.492 1.28418 -0.913599 0
M  V30 7355 C 676.44 2.29272 -0.392037 0
M  V30 7356 C 677.434 1.61344 0.516198 0
M  V30 7357 O 678.64 1.75557 0.39746 0
M  V30 7358 H 675.015 0.744178 -0.108178 0
M  V30 7359 H 676.986 2.70691 -1.25574 0
M  V30 7360 C 675.735 3.45905 0.352815 0
M  V30 7361 H 675.058 3.98378 -0.336848 0
M  V30 7362 H 676.498 4.18473 0.682398 0
M  V30 7363 C 674.957 2.98572 1.56065 0
M  V30 7364 O 675.487 3.01033 2.65974 0
M  V30 7365 N 673.693 2.54235 1.40759 0
M  V30 7366 H 673.24 2.52432 0.513403 0
M  V30 7367 H 673.198 2.22925 2.21702 0
M  V30 7368 N 676.97 0.677563 1.42291 0
M  V30 7369 C 677.903 -0.0492638 2.28147 0
M  V30 7370 C 678.881 -0.805936 1.41221 0
M  V30 7371 O 680.065 -0.80049 1.70659 0
M  V30 7372 C 677.192 -1.07697 3.21122 0
M  V30 7373 C 676.238 -0.41556 4.24471 0
M  V30 7374 S 677.071 0.828876 5.29046 0
M  V30 7375 C 678.227 -0.197687 6.25588 0
M  V30 7376 H 678.46 0.678965 2.89443 0
M  V30 7377 H 675.993 0.467201 1.47162 0
M  V30 7378 H 677.951 -1.66482 3.75225 0
M  V30 7379 H 676.612 -1.77766 2.58956 0
M  V30 7380 H 675.805 -1.19112 4.89723 0
M  V30 7381 H 675.407 0.0987632 3.7387 0
M  V30 7382 H 677.699 -1.05656 6.69211 0
M  V30 7383 H 678.642 0.420437 7.06851 0
M  V30 7384 H 679.05 -0.544401 5.61869 0
M  V30 7385 N 678.448 -1.51871 0.421078 0
M  V30 7386 C 679.411 -2.25914 -0.386712 0
M  V30 7387 C 680.411 -1.28733 -0.963555 0
M  V30 7388 O 681.601 -1.52579 -0.840556 0
M  V30 7389 C 678.733 -3.03853 -1.54551 0
M  V30 7390 H 679.926 -2.98754 0.261978 0
M  V30 7391 H 677.479 -1.5533 0.173862 0
M  V30 7392 H 678.214 -2.35392 -2.23072 0
M  V30 7393 H 677.999 -3.75215 -1.13824 0
M  V30 7394 H 679.489 -3.59984 -2.11663 0
M  V30 7395 N 679.926 -0.151884 -1.56866 0
M  V30 7396 C 681.172 0.498742 -1.96572 0
M  V30 7397 C 681.505 1.64194 -1.03702 0
M  V30 7398 O 680.78 1.94334 -0.0803432 0
M  V30 7399 C 681.063 1.00027 -3.45929 0
M  V30 7400 C 680.916 -0.141767 -4.49577 0
M  V30 7401 C 682.235 1.88044 -3.97904 0
M  V30 7402 H 679.354 0.17982 -0.714726 0
M  V30 7403 H 681.996 -0.234097 -1.88552 0
M  V30 7404 H 680.146 1.62476 -3.52894 0
M  V30 7405 H 681.818 -0.778269 -4.54687 0
M  V30 7406 H 680.061 -0.80019 -4.26356 0
M  V30 7407 H 680.732 0.250947 -5.51429 0
M  V30 7408 H 683.208 1.35416 -3.93449 0
M  V30 7409 H 682.084 2.20043 -5.02864 0
M  V30 7410 H 682.345 2.81916 -3.40552 0
M  V30 7411 N 681.404 1.57128 0.121893 0
M  V30 7412 C 682.652 1.84335 0.828548 0
M  V30 7413 C 682.973 0.736632 1.80551 0
M  V30 7414 O 682.243 -0.23962 1.94429 0
M  V30 7415 H 680.823 0.680108 0.30897 0
M  V30 7416 H 683.485 1.9459 0.109906 0
M  V30 7417 H 682.581 2.80152 1.37554 0
M  V30 7418 N 682.882 -0.391992 1.52647 0
M  V30 7419 C 684.128 -1.139 1.67793 0
M  V30 7420 C 684.461 -1.89711 0.41514 0
M  V30 7421 O 683.736 -1.85431 -0.586979 0
M  V30 7422 C 684.019 -2.11966 2.91105 0
M  V30 7423 C 683.872 -1.39939 4.27478 0
M  V30 7424 C 685.191 -3.1243 3.09961 0
M  V30 7425 H 682.31 -0.412707 0.610608 0
M  V30 7426 H 684.952 -0.422725 1.85238 0
M  V30 7427 H 683.102 -2.73048 2.76364 0
M  V30 7428 H 684.774 -0.818439 4.53982 0
M  V30 7429 H 683.017 -0.701246 4.28095 0
M  V30 7430 H 683.688 -2.1158 5.09841 0
M  V30 7431 H 686.164 -2.61435 3.23714 0
M  V30 7432 H 685.04 -3.78294 3.97725 0
M  V30 7433 H 685.301 -3.81127 2.24042 0
M  V30 7434 N 684.36 -1.4356 -0.65026 0
M  V30 7435 C 685.588 -1.48779 -1.43779 0
M  V30 7436 C 686.003 -0.106593 -1.88499 0
M  V30 7437 O 685.36 0.883766 -1.59674 0
M  V30 7438 C 685.411 -2.43618 -2.67081 0
M  V30 7439 O 685.132 -3.76367 -2.24231 0
M  V30 7440 C 686.633 -2.5811 -3.60409 0
M  V30 7441 H 683.853 -0.50521 -0.441593 0
M  V30 7442 H 686.397 -1.88332 -0.796941 0
M  V30 7443 H 684.552 -2.07253 -3.273 0
M  V30 7444 H 684.966 -4.27394 -3.0403 0
M  V30 7445 H 686.44 -3.28539 -4.43583 0
M  V30 7446 H 686.917 -1.627 -4.07953 0
M  V30 7447 H 687.523 -2.95298 -3.0607 0
M  V30 7448 N 685.838 0.888903 -1.30139 0
M  V30 7449 C 687.063 1.67884 -1.21777 0
M  V30 7450 C 687.488 1.86848 0.216689 0
M  V30 7451 O 686.846 1.39659 1.15608 0
M  V30 7452 C 686.894 3.03483 -1.94757 0
M  V30 7453 O 685.998 3.92294 -1.27198 0
M  V30 7454 H 685.339 0.513144 -0.421402 0
M  V30 7455 H 687.869 1.10968 -1.71893 0
M  V30 7456 H 687.879 3.53553 -2.03627 0
M  V30 7457 H 686.554 2.89 -2.99085 0
M  V30 7458 H 685.131 3.50732 -1.26655 0
M  V30 7459 N 687.317 1.12792 1.10072 0
M  V30 7460 C 688.545 0.908506 1.85886 0
M  V30 7461 C 688.96 -0.542408 1.80841 0
M  V30 7462 O 688.317 -1.37517 1.1998 0
M  V30 7463 C 688.368 1.37973 3.34134 0
M  V30 7464 O 688.089 2.77378 3.39106 0
M  V30 7465 C 689.59 1.1978 4.26811 0
M  V30 7466 H 686.81 0.3244 0.587372 0
M  V30 7467 H 689.354 1.49882 1.39125 0
M  V30 7468 H 687.509 0.832566 3.78348 0
M  V30 7469 H 687.923 2.98144 4.31521 0
M  V30 7470 H 689.397 1.57635 5.29014 0
M  V30 7471 H 689.874 0.138768 4.38981 0
M  V30 7472 H 690.48 1.73266 3.88406 0
M  V30 7473 N 688.795 -1.27931 0.920396 0
M  V30 7474 C 689.758 -2.25345 0.41858 0
M  V30 7475 C 690.758 -1.54116 -0.458798 0
M  V30 7476 O 691.948 -1.72235 -0.260912 0
M  V30 7477 C 689.08 -3.38556 -0.399104 0
M  V30 7478 H 690.273 -2.71251 1.27918 0
M  V30 7479 H 687.826 -1.39728 0.700406 0
M  V30 7480 H 688.561 -2.98021 -1.27882 0
M  V30 7481 H 688.346 -3.91426 0.229863 0
M  V30 7482 H 689.836 -4.10976 -0.740817 0
M  V30 7483 N 690.273 -0.685099 -1.4193 0
M  V30 7484 C 691.498 -0.218842 -2.06242 0
M  V30 7485 C 691.923 1.11923 -1.51178 0
M  V30 7486 O 691.281 1.69837 -0.634446 0
M  V30 7487 C 691.329 -0.175592 -3.60172 0
M  V30 7488 O 690.433 0.852776 -4.03487 0
M  V30 7489 H 689.774 -0.109531 -0.654904 0
M  V30 7490 H 692.304 -0.937013 -1.81882 0
M  V30 7491 H 692.314 -0.00291151 -4.08 0
M  V30 7492 H 690.989 -1.15222 -3.99621 0
M  V30 7493 H 689.566 0.650301 -3.67186 0
M  V30 7494 N 691.751 1.51645 -0.429126 0
M  V30 7495 C 693.167 1.59394 -0.080994 0
M  V30 7496 C 693.367 1.44064 1.40882 0
M  V30 7497 O 692.423 1.27771 2.17786 0
M  V30 7498 C 693.736 2.94779 -0.593773 0
M  V30 7499 C 695.284 3.08067 -0.553494 0
M  V30 7500 C 695.759 4.45963 -1.04311 0
M  V30 7501 N 697.25 4.5226 -1.00076 0
M  V30 7502 C 697.985 5.57268 -1.35056 0
M  V30 7503 N 697.481 6.69734 -1.77282 0
M  V30 7504 N 699.274 5.47582 -1.26925 0
M  V30 7505 H 691.425 1.59856 -1.39857 0
M  V30 7506 H 693.688 0.753095 -0.575805 0
M  V30 7507 H 693.394 3.11342 -1.63583 0
M  V30 7508 H 693.268 3.77197 -0.0142202 0
M  V30 7509 H 695.655 2.91177 0.479556 0
M  V30 7510 H 695.736 2.27508 -1.16935 0
M  V30 7511 H 695.38 4.63598 -2.07459 0
M  V30 7512 H 695.31 5.25049 -0.403873 0
M  V30 7513 H 697.801 3.71537 -0.690564 0
M  V30 7514 H 698.114 7.4587 -2.02232 0
M  V30 7515 H 696.459 6.70963 -1.81202 0
M  V30 7516 H 699.65 4.58604 -0.93809 0
M  V30 7517 H 699.823 6.29308 -1.54516 0
M  V30 7518 N 693.229 0.160201 1.56784 0
M  V30 7519 C 694.475 -0.48831 1.96833 0
M  V30 7520 C 694.808 -1.63641 1.04571 0
M  V30 7521 O 694.083 -1.94289 0.0906481 0
M  V30 7522 C 694.366 -0.981908 3.46454 0
M  V30 7523 C 694.219 0.165607 4.49495 0
M  V30 7524 C 695.538 -1.85931 3.98896 0
M  V30 7525 H 692.657 -0.176027 0.71567 0
M  V30 7526 H 695.299 0.244093 1.88426 0
M  V30 7527 H 693.449 -1.60602 3.5375 0
M  V30 7528 H 695.121 0.802372 4.54268 0
M  V30 7529 H 693.364 0.822789 4.25926 0
M  V30 7530 H 694.035 -0.221699 5.51555 0
M  V30 7531 H 696.511 -1.33327 3.94161 0
M  V30 7532 H 695.387 -2.17373 5.04024 0
M  V30 7533 H 695.648 -2.80106 3.42042 0
M  V30 7534 N 694.707 -1.5719 -0.113559 0
M  V30 7535 C 695.955 -1.84772 -0.818761 0
M  V30 7536 C 696.276 -0.746196 -1.80158 0
M  V30 7537 O 695.546 0.229305 -1.94553 0
M  V30 7538 H 694.126 -0.681737 -0.305359 0
M  V30 7539 H 696.788 -1.94645 -0.0995845 0
M  V30 7540 H 695.884 -2.80878 -1.36067 0
M  V30 7541 N 696.185 0.383891 -1.52853 0
M  V30 7542 C 697.41 1.154 -1.7233 0
M  V30 7543 C 697.835 1.82809 -0.44298 0
M  V30 7544 O 697.193 1.71026 0.601645 0
M  V30 7545 C 697.241 2.17386 -2.87708 0
M  V30 7546 O 696.345 3.24082 -2.55038 0
M  V30 7547 H 695.686 0.335709 -0.572883 0
M  V30 7548 H 698.216 0.44662 -1.99666 0
M  V30 7549 H 698.226 2.61296 -3.1335 0
M  V30 7550 H 696.901 1.6771 -3.80587 0
M  V30 7551 H 695.478 2.85273 -2.40153 0
M  V30 7552 N 697.663 1.43903 0.642637 0
M  V30 7553 C 698.912 1.45362 1.39831 0
M  V30 7554 C 699.225 0.0856289 1.95412 0
M  V30 7555 O 700.431 -0.0222856 2.71491 0
M  V30 7556 C 698.887 2.55857 2.53111 0
M  V30 7557 C 698.495 3.98811 2.04092 0
M  V30 7558 C 700.239 2.66524 3.30402 0
M  V30 7559 C 698.146 5.00751 3.14647 0
M  V30 7560 H 697.076 0.540777 0.52543 0
M  V30 7561 H 699.727 1.69929 0.692559 0
M  V30 7562 H 698.109 2.2451 3.26207 0
M  V30 7563 H 699.283 4.3967 1.37938 0
M  V30 7564 H 697.598 3.92284 1.39651 0
M  V30 7565 H 700.195 3.39858 4.12796 0
M  V30 7566 H 700.538 1.71949 3.79129 0
M  V30 7567 H 701.071 2.97224 2.64392 0
M  V30 7568 H 697.81 5.96914 2.70876 0
M  V30 7569 H 697.33 4.64495 3.79479 0
M  V30 7570 H 699.009 5.23933 3.79609 0
M  V30 7571 N 699.141 -0.881989 1.30609 0
M  V30 7572 C 700.39 -1.62878 1.18969 0
M  V30 7573 C 700.703 -1.93946 -0.253859 0
M  V30 7574 O 701.909 -2.67008 -0.491813 0
M  V30 7575 C 700.365 -2.93573 2.0819 0
M  V30 7576 C 699.973 -2.70034 3.57471 0
M  V30 7577 C 701.717 -3.71543 2.0532 0
M  V30 7578 C 699.624 -3.96563 4.38739 0
M  V30 7579 H 698.554 -0.611092 0.441682 0
M  V30 7580 H 701.205 -0.976201 1.55379 0
M  V30 7581 H 699.587 -3.6014 1.64666 0
M  V30 7582 H 700.761 -2.11949 4.09163 0
M  V30 7583 H 699.076 -2.05435 3.62195 0
M  V30 7584 H 701.673 -4.65386 2.63288 0
M  V30 7585 H 702.016 -4.03167 1.03739 0
M  V30 7586 H 702.549 -3.11842 2.46981 0
M  V30 7587 H 699.288 -3.70095 5.41027 0
M  V30 7588 H 698.808 -4.54142 3.9181 0
M  V30 7589 H 700.487 -4.64557 4.50329 0
M  V30 7590 N 700.619 -1.13374 -1.09472 0
M  V30 7591 C 701.582 -0.813639 -2.14272 0
M  V30 7592 C 702.582 0.176677 -1.59826 0
M  V30 7593 O 703.772 -0.0503441 -1.74127 0
M  V30 7594 C 700.904 -0.210897 -3.40247 0
M  V30 7595 H 702.097 -1.74229 -2.44099 0
M  V30 7596 H 699.65 -0.938304 -1.25002 0
M  V30 7597 H 700.385 0.726998 -3.16046 0
M  V30 7598 H 700.17 -0.924048 -3.81056 0
M  V30 7599 H 701.66 -0.00377603 -4.176 0
M  V30 7600 N 702.098 1.27442 -0.927168 0
M  V30 7601 C 703.509 1.76385 -0.611979 0
M  V30 7602 C 703.86 1.75715 0.872853 0
M  V30 7603 O 702.985 1.3603 1.683 0
M  V30 7604 C 703.58 3.20303 -1.10414 0
M  V30 7605 C 702.139 3.66916 -0.839628 0
M  V30 7606 C 701.286 2.46859 -1.26317 0
M  V30 7607 H 704.237 1.13716 -1.107 0
M  V30 7608 H 704.258 3.77811 -0.451578 0
M  V30 7609 H 703.77 3.20759 -2.18484 0
M  V30 7610 H 701.871 3.71906 0.227292 0
M  V30 7611 H 701.984 4.56415 -1.45679 0
M  V30 7612 H 700.348 2.45407 -0.681723 0
M  V30 7613 H 701.131 2.50025 -2.3525 0
M  V30 7614 N 703.576 0.692616 1.41565 0
M  V30 7615 C 704.806 0.230943 2.05305 0
M  V30 7616 C 705.214 -1.12379 1.52209 0
M  V30 7617 O 704.557 -1.71281 0.663968 0
M  V30 7618 C 704.619 0.107894 3.59338 0
M  V30 7619 C 704.283 1.39419 4.35214 0
M  V30 7620 C 705.28 2.33143 4.64694 0
M  V30 7621 C 702.965 1.64674 4.74539 0
M  V30 7622 C 704.959 3.50385 5.32456 0
M  V30 7623 C 702.646 2.82202 5.42038 0
M  V30 7624 C 703.644 3.74881 5.70923 0
M  V30 7625 O 703.332 4.90351 6.37033 0
M  V30 7626 H 703.064 0.105708 0.667684 0
M  V30 7627 H 705.618 0.94488 1.82376 0
M  V30 7628 H 703.848 -0.661785 3.80995 0
M  V30 7629 H 705.537 -0.316213 4.04666 0
M  V30 7630 H 706.303 2.14887 4.34797 0
M  V30 7631 H 702.182 0.934007 4.51439 0
M  V30 7632 H 705.726 4.22743 5.54918 0
M  V30 7633 H 701.623 3.00376 5.71353 0
M  V30 7634 H 702.391 4.90128 6.55528 0
M  V30 7635 N 705.054 -1.51416 0.437162 0
M  V30 7636 C 706.301 -2.02086 -0.129364 0
M  V30 7637 C 706.629 -1.32133 -1.42728 0
M  V30 7638 O 705.884 -0.424916 -1.91031 0
M  V30 7639 C 706.183 -3.55203 -0.39564 0
M  V30 7640 C 705.849 -4.43447 0.81644 0
M  V30 7641 C 704.511 -4.67285 1.14884 0
M  V30 7642 C 706.863 -4.95219 1.62503 0
M  V30 7643 C 704.191 -5.40141 2.29052 0
M  V30 7644 C 706.543 -5.69327 2.7577 0
M  V30 7645 C 705.207 -5.91429 3.09464 0
M  V30 7646 H 704.477 -0.739486 -0.0473375 0
M  V30 7647 H 707.124 -1.82368 0.584321 0
M  V30 7648 H 705.429 -3.73252 -1.19121 0
M  V30 7649 H 707.126 -3.91944 -0.847399 0
M  V30 7650 H 703.716 -4.2509 0.547422 0
M  V30 7651 H 707.9 -4.76686 1.38144 0
M  V30 7652 H 703.156 -5.55468 2.55471 0
M  V30 7653 H 707.33 -6.08433 3.38795 0
M  V30 7654 H 704.957 -6.47662 3.98042 0
M  V30 7655 N 706.532 -0.168513 -1.56696 0
M  V30 7656 C 707.778 0.477865 -1.9709 0
M  V30 7657 C 708.111 1.63084 -1.05438 0
M  V30 7658 O 707.386 1.94238 -0.10095 0
M  V30 7659 C 707.669 0.963521 -3.4697 0
M  V30 7660 C 707.522 -0.189443 -4.49401 0
M  V30 7661 C 708.841 1.83813 -3.99876 0
M  V30 7662 H 705.96 0.172229 -0.716593 0
M  V30 7663 H 708.602 -0.254083 -1.88293 0
M  V30 7664 H 706.752 1.58724 -3.54597 0
M  V30 7665 H 708.424 -0.826451 -4.53836 0
M  V30 7666 H 706.667 -0.845366 -4.25483 0
M  V30 7667 H 707.338 0.192446 -5.51664 0
M  V30 7668 H 709.814 1.31235 -3.94863 0
M  V30 7669 H 708.69 2.14697 -5.0517 0
M  V30 7670 H 708.951 2.78289 -3.43523 0
M  V30 7671 N 708.01 1.57248 0.105221 0
M  V30 7672 C 709.24 1.89492 0.823175 0
M  V30 7673 C 709.648 0.75934 1.73294 0
M  V30 7674 O 708.991 -0.278182 1.81581 0
M  V30 7675 C 709.053 3.16891 1.69765 0
M  V30 7676 C 708.717 4.46787 0.960769 0
M  V30 7677 C 709.714 5.19061 0.295218 0
M  V30 7678 C 707.399 4.93467 0.937854 0
M  V30 7679 C 709.393 6.36246 -0.383393 0
M  V30 7680 C 707.08 6.10566 0.255452 0
M  V30 7681 C 708.078 6.81804 -0.404003 0
M  V30 7682 O 707.766 7.96673 -1.07549 0
M  V30 7683 H 707.498 0.631512 0.24118 0
M  V30 7684 H 710.052 2.05203 0.0899655 0
M  V30 7685 H 708.282 2.973 2.47285 0
M  V30 7686 H 709.971 3.35046 2.29126 0
M  V30 7687 H 710.737 4.84044 0.304448 0
M  V30 7688 H 706.616 4.37913 1.44058 0
M  V30 7689 H 710.16 6.91787 -0.898696 0
M  V30 7690 H 706.057 6.45039 0.244032 0
M  V30 7691 H 706.825 8.12596 -0.981355 0
M  V30 7692 N 709.488 -0.375779 1.53054 0
M  V30 7693 C 710.418 -1.46598 1.81745 0
M  V30 7694 C 711.399 -1.56337 0.670286 0
M  V30 7695 O 712.584 -1.71071 0.919158 0
M  V30 7696 C 709.714 -2.84058 1.99821 0
M  V30 7697 C 708.668 -2.8915 3.15557 0
M  V30 7698 C 707.994 -4.29187 3.18908 0
M  V30 7699 C 709.294 -2.57595 4.54359 0
M  V30 7700 H 710.988 -1.22837 2.73041 0
M  V30 7701 H 708.534 -0.589485 1.31381 0
M  V30 7702 H 710.487 -3.60342 2.18475 0
M  V30 7703 H 709.211 -3.09184 1.05226 0
M  V30 7704 H 707.87 -2.15316 2.96706 0
M  V30 7705 H 707.518 -4.51374 2.2197 0
M  V30 7706 H 707.218 -4.33512 3.96662 0
M  V30 7707 H 708.742 -5.07359 3.39734 0
M  V30 7708 H 710.156 -3.23595 4.73243 0
M  V30 7709 H 708.553 -2.73252 5.34279 0
M  V30 7710 H 709.623 -1.52882 4.60169 0
M  V30 7711 N 710.966 -1.44241 -0.634997 0
M  V30 7712 C 712.214 -1.46531 -1.39187 0
M  V30 7713 C 712.535 -0.0976441 -1.94755 0
M  V30 7714 O 711.805 0.869528 -1.75545 0
M  V30 7715 H 710.385 -0.539544 -0.516625 0
M  V30 7716 H 713.047 -1.79989 -0.747655 0
M  V30 7717 H 712.143 -2.18848 -2.22513 0
M  V30 7718 N 712.444 0.87505 -1.31075 0
M  V30 7719 C 713.407 1.96333 -1.18263 0
M  V30 7720 C 714.407 1.60416 -0.111106 0
M  V30 7721 O 715.597 1.7044 -0.359987 0
M  V30 7722 C 712.729 3.31036 -0.81414 0
M  V30 7723 H 713.922 2.09125 -2.14958 0
M  V30 7724 H 711.475 1.06271 -1.14614 0
M  V30 7725 H 712.21 3.23944 0.151875 0
M  V30 7726 H 711.995 3.58476 -1.58862 0
M  V30 7727 H 713.485 4.10842 -0.748249 0
M  V30 7728 N 713.922 1.13953 1.08869 0
M  V30 7729 C 715.152 0.926825 1.84644 0
M  V30 7730 C 715.56 -0.527941 1.81685 0
M  V30 7731 O 714.903 -1.37742 1.21543 0
M  V30 7732 C 714.965 1.34416 3.33426 0
M  V30 7733 C 714.629 2.81351 3.60126 0
M  V30 7734 C 715.626 3.79486 3.55368 0
M  V30 7735 C 713.311 3.1865 3.88288 0
M  V30 7736 C 715.305 5.1293 3.78393 0
M  V30 7737 C 712.992 4.5227 4.10968 0
M  V30 7738 C 713.99 5.4922 4.06013 0
M  V30 7739 O 713.678 6.80429 4.28102 0
M  V30 7740 H 713.41 0.33013 0.589907 0
M  V30 7741 H 715.964 1.51738 1.38436 0
M  V30 7742 H 714.194 0.696901 3.80368 0
M  V30 7743 H 715.883 1.10302 3.90626 0
M  V30 7744 H 716.649 3.52017 3.3363 0
M  V30 7745 H 712.528 2.43785 3.91267 0
M  V30 7746 H 716.072 5.88591 3.74442 0
M  V30 7747 H 711.969 4.79462 4.32188 0
M  V30 7748 H 712.737 6.86617 4.45533 0
M  V30 7749 N 715.4 -1.26948 0.933913 0
M  V30 7750 C 716.348 -2.2862 0.428463 0
M  V30 7751 C 717.342 -1.62144 -0.490464 0
M  V30 7752 O 718.548 -1.76167 -0.36948 0
M  V30 7753 H 714.923 -0.742363 0.120003 0
M  V30 7754 H 716.894 -2.68659 1.29865 0
M  V30 7755 C 715.643 -3.46423 -0.29774 0
M  V30 7756 H 714.966 -3.97792 0.400183 0
M  V30 7757 H 716.406 -4.19505 -0.615736 0
M  V30 7758 C 714.865 -3.01017 -1.51295 0
M  V30 7759 O 715.395 -3.05226 -2.61151 0
M  V30 7760 N 713.601 -2.56442 -1.36696 0
M  V30 7761 H 713.148 -2.53217 -0.473178 0
M  V30 7762 H 713.106 -2.26424 -2.18127 0
M  V30 7763 N 716.879 -0.700114 -1.41195 0
M  V30 7764 C 718.295 -0.372114 -1.55201 0
M  V30 7765 C 718.495 1.12053 -1.6747 0
M  V30 7766 O 717.551 1.90642 -1.65566 0
M  V30 7767 C 718.864 -1.12462 -2.78878 0
M  V30 7768 C 720.412 -1.10941 -2.92679 0
M  V30 7769 C 720.887 -1.84376 -4.19249 0
M  V30 7770 N 722.378 -1.81368 -4.26216 0
M  V30 7771 C 723.113 -2.35024 -5.23021 0
M  V30 7772 N 722.609 -2.9717 -6.25829 0
M  V30 7773 N 724.402 -2.25254 -5.14992 0
M  V30 7774 H 716.553 -1.66816 -1.31477 0
M  V30 7775 H 718.816 -0.704223 -0.634644 0
M  V30 7776 H 718.522 -2.17937 -2.76037 0
M  V30 7777 H 718.396 -0.706152 -3.70531 0
M  V30 7778 H 720.783 -0.062911 -2.95033 0
M  V30 7779 H 720.864 -1.56698 -2.02187 0
M  V30 7780 H 720.508 -2.89008 -4.17656 0
M  V30 7781 H 720.438 -1.3605 -5.08722 0
M  V30 7782 H 722.929 -1.36062 -3.52556 0
M  V30 7783 H 723.242 -3.35668 -6.96094 0
M  V30 7784 H 721.587 -3.01249 -6.26318 0
M  V30 7785 H 724.778 -1.76372 -4.33602 0
M  V30 7786 H 724.951 -2.67373 -5.90268 0
M  V30 7787 N 718.357 1.51182 -0.445186 0
M  V30 7788 C 719.29 2.24528 0.4077 0
M  V30 7789 C 720.268 1.26778 1.01814 0
M  V30 7790 O 721.452 1.55934 1.05909 0
M  V30 7791 C 718.579 3.00171 1.56892 0
M  V30 7792 C 717.625 4.12641 1.0784 0
M  V30 7793 S 718.458 5.35498 0.014049 0
M  V30 7794 C 719.614 6.14681 1.17975 0
M  V30 7795 H 719.847 2.96522 -0.214987 0
M  V30 7796 H 717.38 1.52681 -0.229781 0
M  V30 7797 H 719.338 3.44349 2.23459 0
M  V30 7798 H 717.999 2.27752 2.16304 0
M  V30 7799 H 717.192 4.64875 1.94698 0
M  V30 7800 H 716.794 3.70765 0.490852 0
M  V30 7801 H 719.086 6.44244 2.09658 0
M  V30 7802 H 720.029 7.04659 0.697222 0
M  V30 7803 H 720.437 5.46299 1.42187 0
M  V30 7804 N 719.835 0.176821 1.56605 0
M  V30 7805 C 720.765 -0.746841 2.21234 0
M  V30 7806 C 721.746 -1.23502 1.16967 0
M  V30 7807 O 722.931 -1.28718 1.45414 0
M  V30 7808 C 720.061 -1.97407 2.8574 0
M  V30 7809 C 719.015 -1.62153 3.96094 0
M  V30 7810 C 718.341 -2.92387 4.47676 0
M  V30 7811 C 719.641 -0.845353 5.15413 0
M  V30 7812 H 721.335 -0.208116 2.98676 0
M  V30 7813 H 718.881 -0.0986594 1.43662 0
M  V30 7814 H 720.834 -2.62531 3.2963 0
M  V30 7815 H 719.558 -2.53703 2.05676 0
M  V30 7816 H 718.217 -0.993964 3.52868 0
M  V30 7817 H 717.865 -3.46734 3.64396 0
M  V30 7818 H 717.565 -2.69551 5.22127 0
M  V30 7819 H 719.089 -3.5853 4.94255 0
M  V30 7820 H 720.503 -1.39929 5.55961 0
M  V30 7821 H 718.9 -0.715814 5.95815 0
M  V30 7822 H 719.97 0.157239 4.84645 0
M  V30 7823 N 721.313 -1.57302 -0.09688 0
M  V30 7824 C 722.724 -1.7496 -0.651595 0
M  V30 7825 C 723.075 -0.798746 -1.79205 0
M  V30 7826 O 722.2 0.0231858 -2.16388 0
M  V30 7827 C 722.795 -3.17259 -1.18878 0
M  V30 7828 C 721.354 -3.36348 -1.68958 0
M  V30 7829 C 720.501 -2.70766 -0.598413 0
M  V30 7830 H 723.452 -1.58173 0.12918 0
M  V30 7831 H 723.473 -3.20033 -2.05814 0
M  V30 7832 H 722.985 -3.8644 -0.358523 0
M  V30 7833 H 721.086 -2.72243 -2.5439 0
M  V30 7834 H 721.199 -4.44654 -1.7838 0
M  V30 7835 H 719.563 -2.32615 -1.03743 0
M  V30 7836 H 720.346 -3.42586 0.221238 0
M  V30 7837 N 722.791 0.367657 -1.53252 0
M  V30 7838 C 724.021 1.12955 -1.72988 0
M  V30 7839 C 724.429 1.8358 -0.457708 0
M  V30 7840 O 723.772 1.74336 0.579006 0
M  V30 7841 C 723.834 2.20545 -2.83902 0
M  V30 7842 C 723.498 1.69704 -4.24323 0
M  V30 7843 C 724.495 1.16223 -5.06743 0
M  V30 7844 C 722.18 1.7528 -4.70725 0
M  V30 7845 C 724.174 0.689935 -6.33655 0
M  V30 7846 C 721.861 1.27662 -5.97617 0
M  V30 7847 C 722.859 0.746083 -6.78913 0
M  V30 7848 O 722.547 0.276925 -8.03423 0
M  V30 7849 H 722.279 0.343753 -0.582074 0
M  V30 7850 H 724.833 0.433106 -2.00782 0
M  V30 7851 H 723.063 2.93676 -2.51577 0
M  V30 7852 H 724.752 2.82111 -2.91836 0
M  V30 7853 H 725.518 1.11256 -4.72067 0
M  V30 7854 H 721.397 2.15515 -4.07522 0
M  V30 7855 H 724.941 0.275164 -6.97057 0
M  V30 7856 H 720.838 1.32322 -6.31792 0
M  V30 7857 H 721.606 0.396445 -8.17539 0
M  V30 7858 N 724.269 1.44576 0.627338 0
M  V30 7859 C 725.518 1.46837 1.38281 0
M  V30 7860 C 725.831 0.10635 1.95311 0
M  V30 7861 O 727.037 0.00651084 2.71499 0
M  V30 7862 C 725.493 2.58527 2.50384 0
M  V30 7863 C 725.101 4.00953 1.99851 0
M  V30 7864 C 726.845 2.70013 3.27557 0
M  V30 7865 C 724.752 5.0406 3.09318 0
M  V30 7866 H 723.682 0.546319 0.519664 0
M  V30 7867 H 726.333 1.70654 0.674497 0
M  V30 7868 H 724.715 2.27957 3.23808 0
M  V30 7869 H 725.889 4.41108 1.33267 0
M  V30 7870 H 724.204 3.93743 1.35482 0
M  V30 7871 H 726.801 3.44217 4.09168 0
M  V30 7872 H 727.144 1.75961 3.77284 0
M  V30 7873 H 727.677 3.00011 2.61224 0
M  V30 7874 H 724.416 5.99753 2.6453 0
M  V30 7875 H 723.936 4.68493 3.74532 0
M  V30 7876 H 725.615 5.2793 3.74031 0
M  V30 7877 N 725.747 -0.868086 1.31537 0
M  V30 7878 C 726.993 -1.62367 1.2151 0
M  V30 7879 C 727.326 -1.92883 -0.225819 0
M  V30 7880 O 726.601 -1.56176 -1.15927 0
M  V30 7881 C 726.884 -2.95268 2.06129 0
M  V30 7882 C 726.737 -2.71619 3.58529 0
M  V30 7883 C 728.056 -3.96391 1.91212 0
M  V30 7884 H 725.175 -0.589178 0.442762 0
M  V30 7885 H 727.817 -1.00336 1.61347 0
M  V30 7886 H 725.967 -3.4821 1.72284 0
M  V30 7887 H 727.639 -2.25334 4.0252 0
M  V30 7888 H 725.882 -2.05817 3.81866 0
M  V30 7889 H 726.553 -3.66192 4.13047 0
M  V30 7890 H 729.029 -3.52663 2.20834 0
M  V30 7891 H 727.905 -4.87263 2.52718 0
M  V30 7892 H 728.166 -4.33335 0.875953 0
M  V30 7893 N 727.225 -1.14528 -1.08264 0
M  V30 7894 C 728.158 -0.777154 -2.14559 0
M  V30 7895 C 729.136 0.242165 -1.60787 0
M  V30 7896 O 730.32 0.130882 -1.88045 0
M  V30 7897 C 727.447 -0.154092 -3.38349 0
M  V30 7898 C 726.493 -1.14382 -4.10876 0
M  V30 7899 S 727.326 -2.68173 -4.63512 0
M  V30 7900 C 728.482 -2.0726 -5.90588 0
M  V30 7901 H 728.715 -1.67748 -2.45454 0
M  V30 7902 H 726.248 -0.966661 -1.20395 0
M  V30 7903 H 728.206 0.19897 -4.10018 0
M  V30 7904 H 726.867 0.723688 -3.05649 0
M  V30 7905 H 726.06 -0.655908 -4.99714 0
M  V30 7906 H 725.662 -1.44095 -3.45127 0
M  V30 7907 H 727.954 -1.42895 -6.62259 0
M  V30 7908 H 728.897 -2.94227 -6.44078 0
M  V30 7909 H 729.305 -1.51935 -5.43669 0
M  V30 7910 N 728.703 1.26451 -0.940633 0
M  V30 7911 C 729.951 1.93395 -0.586748 0
M  V30 7912 C 730.272 1.7417 0.876921 0
M  V30 7913 O 729.542 1.097 1.62304 0
M  V30 7914 H 728.122 0.715687 -0.214012 0
M  V30 7915 H 730.784 1.53902 -1.19584 0
M  V30 7916 H 729.88 3.01565 -0.804059 0
M  V30 7917 N 730.181 0.707592 1.40822 0
M  V30 7918 C 731.406 0.251626 2.05868 0
M  V30 7919 C 731.831 -1.09503 1.5294 0
M  V30 7920 O 731.189 -1.68806 0.661385 0
M  V30 7921 C 731.237 0.23287 3.59847 0
M  V30 7922 O 730.341 -0.788477 4.04792 0
M  V30 7923 H 729.682 0.119936 0.653078 0
M  V30 7924 H 732.212 0.96583 1.80369 0
M  V30 7925 H 732.222 0.0678204 4.07944 0
M  V30 7926 H 730.897 1.21565 3.97737 0
M  V30 7927 H 729.474 -0.591802 3.68174 0
M  V30 7928 N 731.66 -1.50943 0.453197 0
M  V30 7929 C 732.59 -2.31005 -0.34044 0
M  V30 7930 C 733.571 -1.37112 -1.00669 0
M  V30 7931 O 734.756 -1.66033 -1.0073 0
M  V30 7932 C 731.886 -3.16358 -1.433 0
M  V30 7933 C 730.84 -4.18658 -0.889363 0
M  V30 7934 C 730.166 -4.92633 -2.07887 0
M  V30 7935 C 731.466 -5.22227 0.0871142 0
M  V30 7936 H 733.16 -2.97601 0.327723 0
M  V30 7937 H 730.706 -1.43119 0.159054 0
M  V30 7938 H 732.659 -3.71155 -1.99555 0
M  V30 7939 H 731.383 -2.47613 -2.12968 0
M  V30 7940 H 730.042 -3.64936 -0.348915 0
M  V30 7941 H 729.69 -4.20376 -2.76211 0
M  V30 7942 H 729.39 -5.61819 -1.72143 0
M  V30 7943 H 730.914 -5.50258 -2.64666 0
M  V30 7944 H 732.328 -5.72001 -0.385656 0
M  V30 7945 H 730.725 -5.99032 0.357926 0
M  V30 7946 H 731.795 -4.74077 1.01879 0
M  V30 7947 N 733.138 -0.185124 -1.56509 0
M  V30 7948 C 734.366 0.462139 -2.01673 0
M  V30 7949 C 734.781 1.55873 -1.06532 0
M  V30 7950 O 734.138 1.82371 -0.0684805 0
M  V30 7951 C 734.189 1.0277 -3.46584 0
M  V30 7952 O 733.91 -0.0251296 -4.38093 0
M  V30 7953 C 735.411 1.75183 -4.07217 0
M  V30 7954 H 732.631 0.117001 -0.660721 0
M  V30 7955 H 735.175 -0.290905 -2.0242 0
M  V30 7956 H 733.33 1.73118 -3.46568 0
M  V30 7957 H 733.744 0.394387 -5.23015 0
M  V30 7958 H 735.218 2.09999 -5.10494 0
M  V30 7959 H 735.695 2.6519 -3.50101 0
M  V30 7960 H 736.301 1.09445 -4.10977 0
M  V30 7961 N 734.616 1.57351 0.0885366 0
M  V30 7962 C 735.862 1.86696 0.791996 0
M  V30 7963 C 736.195 0.775148 1.78059 0
M  V30 7964 O 735.47 -0.216247 1.93294 0
M  V30 7965 C 735.753 3.26684 1.51491 0
M  V30 7966 C 735.606 4.465 0.543858 0
M  V30 7967 C 736.925 3.64664 2.46391 0
M  V30 7968 H 734.044 0.679049 0.286463 0
M  V30 7969 H 736.686 1.89919 0.0554866 0
M  V30 7970 H 734.836 3.24067 2.14273 0
M  V30 7971 H 736.508 4.61235 -0.0774597 0
M  V30 7972 H 734.751 4.33567 -0.142228 0
M  V30 7973 H 735.422 5.41192 1.08696 0
M  V30 7974 H 737.898 3.68267 1.93698 0
M  V30 7975 H 736.774 4.63534 2.93986 0
M  V30 7976 H 737.035 2.93698 3.30445 0
M  V30 7977 N 736.094 -0.359525 1.53444 0
M  V30 7978 C 737.024 -1.44662 1.8329 0
M  V30 7979 C 738.005 -1.55617 0.68683 0
M  V30 7980 O 739.19 -1.70086 0.93725 0
M  V30 7981 C 736.32 -2.81923 2.02822 0
M  V30 7982 C 735.274 -2.85787 3.18606 0
M  V30 7983 C 734.6 -4.25781 3.23442 0
M  V30 7984 C 735.9 -2.52762 4.57065 0
M  V30 7985 H 737.594 -1.19934 2.74329 0
M  V30 7986 H 735.14 -0.575517 1.31999 0
M  V30 7987 H 737.093 -3.58005 2.22285 0
M  V30 7988 H 735.817 -3.08051 1.085 0
M  V30 7989 H 734.476 -2.12157 2.98973 0
M  V30 7990 H 734.124 -4.48994 2.26745 0
M  V30 7991 H 733.824 -4.29281 4.01238 0
M  V30 7992 H 735.348 -5.03727 3.45096 0
M  V30 7993 H 736.762 -3.18557 4.76649 0
M  V30 7994 H 735.159 -2.67569 5.37147 0
M  V30 7995 H 736.229 -1.47993 4.61764 0
M  V30 7996 N 737.572 -1.44907 -0.619662 0
M  V30 7997 C 738.821 -1.47569 -1.37501 0
M  V30 7998 C 739.134 -0.116707 -1.95252 0
M  V30 7999 O 740.34 -0.020909 -2.71492 0
M  V30 8000 C 738.796 -2.59851 -2.49009 0
M  V30 8001 C 738.404 -4.02008 -1.97722 0
M  V30 8002 C 740.148 -2.71746 -3.2612 0
M  V30 8003 C 738.055 -5.05693 -3.0664 0
M  V30 8004 H 736.985 -0.549068 -0.51676 0
M  V30 8005 H 739.636 -1.71009 -0.665437 0
M  V30 8006 H 738.018 -2.29671 -3.22594 0
M  V30 8007 H 739.192 -4.41809 -1.30925 0
M  V30 8008 H 737.507 -3.94456 -1.33392 0
M  V30 8009 H 740.104 -3.46382 -4.07337 0
M  V30 8010 H 740.447 -1.77959 -3.76346 0
M  V30 8011 H 740.98 -3.01392 -2.5963 0
M  V30 8012 H 737.719 -6.01148 -2.61345 0
M  V30 8013 H 737.239 -4.70473 -3.72042 0
M  V30 8014 H 738.918 -5.29906 -3.71226 0
M  V30 8015 N 739.05 0.861098 -1.31996 0
M  V30 8016 C 740.298 1.61162 -1.21947 0
M  V30 8017 C 740.619 1.93751 0.220351 0
M  V30 8018 O 739.889 1.59069 1.14341 0
M  V30 8019 H 738.469 0.597485 -0.448353 0
M  V30 8020 H 741.131 1.03039 -1.65436 0
M  V30 8021 H 740.227 2.55138 -1.79752 0
M  V30 8022 N 740.528 1.15101 1.07655 0
M  V30 8023 C 741.777 0.918528 1.79572 0
M  V30 8024 C 742.09 -0.555922 1.87534 0
M  V30 8025 O 743.296 -0.905893 2.55941 0
M  V30 8026 C 741.752 1.59394 3.22679 0
M  V30 8027 C 741.36 3.1052 3.22927 0
M  V30 8028 C 743.104 1.44289 3.99225 0
M  V30 8029 C 741.011 3.70862 4.60668 0
M  V30 8030 H 739.941 0.340006 0.672987 0
M  V30 8031 H 742.592 1.38079 1.20857 0
M  V30 8032 H 740.974 1.05936 3.81567 0
M  V30 8033 H 742.148 3.70708 2.737 0
M  V30 8034 H 740.463 3.25351 2.59876 0
M  V30 8035 H 743.06 1.86766 5.01022 0
M  V30 8036 H 743.403 0.389975 4.14469 0
M  V30 8037 H 743.936 1.94826 3.46825 0
M  V30 8038 H 740.675 4.7604 4.50628 0
M  V30 8039 H 740.195 3.15456 5.10145 0
M  V30 8040 H 741.874 3.71607 5.29639 0
M  V30 8041 N 742.006 -1.2595 0.947325 0
M  V30 8042 C 742.936 -2.28521 0.479604 0
M  V30 8043 C 743.917 -1.63469 -0.470293 0
M  V30 8044 O 745.102 -1.90627 -0.370824 0
M  V30 8045 C 742.232 -3.46397 -0.250289 0
M  V30 8046 C 741.186 -4.23578 0.613643 0
M  V30 8047 C 740.512 -5.34131 -0.246568 0
M  V30 8048 C 741.812 -4.86979 1.88809 0
M  V30 8049 H 743.506 -2.67895 1.33688 0
M  V30 8050 H 741.052 -1.28783 0.644274 0
M  V30 8051 H 743.005 -4.17269 -0.588576 0
M  V30 8052 H 741.729 -3.05993 -1.14175 0
M  V30 8053 H 740.388 -3.54478 0.93491 0
M  V30 8054 H 740.036 -4.89968 -1.13756 0
M  V30 8055 H 739.736 -5.86683 0.328123 0
M  V30 8056 H 741.26 -6.07839 -0.579986 0
M  V30 8057 H 742.674 -5.50034 1.61666 0
M  V30 8058 H 741.071 -5.49675 2.40784 0
M  V30 8059 H 742.141 -4.09575 2.5957 0
M  V30 8060 N 743.484 -0.715051 -1.40445 0
M  V30 8061 C 744.712 -0.263959 -2.05209 0
M  V30 8062 C 745.127 1.09403 -1.53871 0
M  V30 8063 O 744.484 1.68746 -0.695064 0
M  V30 8064 C 744.535 -0.234545 -3.60738 0
M  V30 8065 O 744.256 -1.53891 -4.10182 0
M  V30 8066 C 745.757 0.235164 -4.42676 0
M  V30 8067 H 742.977 -0.11876 -0.660407 0
M  V30 8068 H 745.521 -0.973107 -1.79864 0
M  V30 8069 H 743.676 0.425563 -3.85055 0
M  V30 8070 H 744.09 -1.43903 -5.04373 0
M  V30 8071 H 745.564 0.204598 -5.51621 0
M  V30 8072 H 746.041 1.27724 -4.20218 0
M  V30 8073 H 746.647 -0.394649 -4.23465 0
M  V30 8074 N 744.962 1.50701 -0.461195 0
M  V30 8075 C 745.892 2.31182 0.328184 0
M  V30 8076 C 746.873 1.37644 0.999408 0
M  V30 8077 O 748.058 1.66565 0.99848 0
M  V30 8078 C 745.188 3.17113 1.41621 0
M  V30 8079 C 744.142 4.19124 0.867148 0
M  V30 8080 C 743.468 4.93728 2.05272 0
M  V30 8081 C 744.768 5.22174 -0.114808 0
M  V30 8082 H 746.462 2.97423 -0.343501 0
M  V30 8083 H 744.008 1.43033 -0.166641 0
M  V30 8084 H 745.961 3.72208 1.97584 0
M  V30 8085 H 744.685 2.48739 2.11652 0
M  V30 8086 H 743.344 3.65116 0.329557 0
M  V30 8087 H 742.992 4.21835 2.73978 0
M  V30 8088 H 742.692 5.62724 1.69161 0
M  V30 8089 H 744.216 5.51654 2.61744 0
M  V30 8090 H 745.63 5.72198 0.355316 0
M  V30 8091 H 744.027 5.98833 -0.389689 0
M  V30 8092 H 745.097 4.7353 -1.04391 0
M  V30 8093 N 746.441 0.193421 1.56409 0
M  V30 8094 C 747.688 -0.445789 1.97532 0
M  V30 8095 C 748.016 -1.61744 1.08024 0
M  V30 8096 O 747.271 -1.95338 0.118982 0
M  V30 8097 C 747.57 -0.949718 3.44551 0
M  V30 8098 C 747.236 0.108383 4.5077 0
M  V30 8099 C 745.898 0.399126 4.79542 0
M  V30 8100 C 748.25 0.825423 5.14622 0
M  V30 8101 C 745.578 1.41192 5.69457 0
M  V30 8102 C 747.93 1.82735 6.05632 0
M  V30 8103 C 746.594 2.12531 6.32761 0
M  V30 8104 H 745.864 -0.163126 0.722822 0
M  V30 8105 H 748.511 0.290035 1.89291 0
M  V30 8106 H 746.816 -1.76378 3.49854 0
M  V30 8107 H 748.513 -1.45367 3.73724 0
M  V30 8108 H 745.103 -0.128392 4.28408 0
M  V30 8109 H 749.287 0.61403 4.92487 0
M  V30 8110 H 744.543 1.6487 5.88751 0
M  V30 8111 H 748.717 2.3882 6.5417 0
M  V30 8112 H 746.344 2.91155 7.02234 0
M  V30 8113 N 747.919 -1.57396 -0.0801906 0
M  V30 8114 C 749.166 -1.86836 -0.780927 0
M  V30 8115 C 749.494 -0.784012 -1.77999 0
M  V30 8116 O 748.749 0.220881 -1.94449 0
M  V30 8117 C 749.048 -3.22915 -1.53169 0
M  V30 8118 C 748.714 -4.45843 -0.67339 0
M  V30 8119 C 747.376 -4.79213 -0.436829 0
M  V30 8120 C 749.728 -5.21142 -0.0776786 0
M  V30 8121 C 747.056 -5.853 0.405062 0
M  V30 8122 C 749.408 -6.28119 0.751619 0
M  V30 8123 C 748.072 -6.59995 0.998131 0
M  V30 8124 H 747.342 -0.683682 -0.285761 0
M  V30 8125 H 749.989 -1.91454 -0.0419435 0
M  V30 8126 H 748.294 -3.14049 -2.34265 0
M  V30 8127 H 749.991 -3.42926 -2.07853 0
M  V30 8128 H 746.581 -4.19721 -0.867891 0
M  V30 8129 H 750.765 -4.95682 -0.247572 0
M  V30 8130 H 746.021 -6.084 0.60488 0
M  V30 8131 H 750.195 -6.8563 1.22 0
M  V30 8132 H 747.822 -7.42027 1.65227 0
M  V30 8133 N 749.397 0.351382 -1.53633 0
M  V30 8134 C 750.808 0.927429 -1.62036 0
M  V30 8135 C 751.159 1.89809 -0.496706 0
M  V30 8136 O 750.284 2.1313 0.374749 0
M  V30 8137 C 750.879 1.68886 -2.93706 0
M  V30 8138 C 749.438 2.21404 -3.04397 0
M  V30 8139 C 748.585 1.03075 -2.57431 0
M  V30 8140 H 751.536 0.129748 -1.58169 0
M  V30 8141 H 751.557 2.55116 -2.82305 0
M  V30 8142 H 751.069 0.982149 -3.75467 0
M  V30 8143 H 749.17 2.95274 -2.27253 0
M  V30 8144 H 749.283 2.48312 -4.09729 0
M  V30 8145 H 747.647 1.40188 -2.12649 0
M  V30 8146 H 748.43 0.338793 -3.41624 0
M  V30 8147 N 750.875 1.45233 0.611969 0
M  V30 8148 C 751.785 1.56098 1.7513 0
M  V30 8149 C 752.801 0.445646 1.68196 0
M  V30 8150 O 753.977 0.705718 1.88631 0
M  V30 8151 C 751.042 1.52052 3.11579 0
M  V30 8152 C 750.103 2.74589 3.29999 0
M  V30 8153 C 749.336 2.70726 4.59938 0
M  V30 8154 O 749.559 1.77806 5.41979 0
M  V30 8155 O 748.493 3.61864 4.80976 0
M  V30 8156 H 752.319 2.52392 1.68914 0
M  V30 8157 H 749.904 1.27695 0.775528 0
M  V30 8158 H 751.786 1.52387 3.92882 0
M  V30 8159 H 750.461 0.589085 3.18295 0
M  V30 8160 H 749.368 2.79817 2.48301 0
M  V30 8161 H 750.701 3.66843 3.28157 0
M  V30 8162 N 752.353 -0.854086 1.3245 0
M  V30 8163 C 753.578 -1.64597 1.26185 0
M  V30 8164 C 754.003 -1.87357 -0.167074 0
M  V30 8165 O 753.361 -1.42675 -1.11864 0
M  V30 8166 C 753.409 -2.98213 2.02734 0
M  V30 8167 O 752.513 -3.88784 1.37554 0
M  V30 8168 H 751.854 -0.50179 0.434859 0
M  V30 8169 H 754.384 -1.06372 1.74775 0
M  V30 8170 H 754.394 -3.4803 2.1293 0
M  V30 8171 H 753.069 -2.80969 3.06642 0
M  V30 8172 H 751.646 -3.4725 1.3591 0
M  V30 8173 N 753.831 -1.1567 -1.07043 0
M  V30 8174 C 754.761 -0.879348 -2.16309 0
M  V30 8175 C 755.742 0.171311 -1.69235 0
M  V30 8176 O 756.927 0.0250175 -1.94184 0
M  V30 8177 C 754.057 -0.371307 -3.45309 0
M  V30 8178 C 753.011 -1.359 -4.05851 0
M  V30 8179 C 752.337 -0.709678 -5.29969 0
M  V30 8180 C 753.637 -2.72606 -4.45514 0
M  V30 8181 H 755.331 -1.79308 -2.39768 0
M  V30 8182 H 752.877 -0.863558 -1.15233 0
M  V30 8183 H 754.83 -0.164798 -4.21078 0
M  V30 8184 H 753.554 0.577906 -3.21446 0
M  V30 8185 H 752.213 -1.55193 -3.32131 0
M  V30 8186 H 751.861 0.245782 -5.02399 0
M  V30 8187 H 751.561 -1.36886 -5.71433 0
M  V30 8188 H 753.085 -0.513015 -6.08441 0
M  V30 8189 H 754.499 -2.57141 -5.12398 0
M  V30 8190 H 752.896 -3.34927 -4.97939 0
M  V30 8191 H 753.966 -3.28434 -3.56734 0
M  V30 8192 N 755.309 1.25446 -0.953992 0
M  V30 8193 C 756.557 1.92762 -0.607227 0
M  V30 8194 C 756.878 1.7509 0.858399 0
M  V30 8195 O 756.148 1.11416 1.61132 0
M  V30 8196 H 754.728 0.713377 -0.221591 0
M  V30 8197 H 757.39 1.52625 -1.21209 0
M  V30 8198 H 756.486 3.00695 -0.835998 0
M  V30 8199 N 756.787 0.722489 1.40064 0
M  V30 8200 C 757.72 0.0233443 2.28188 0
M  V30 8201 C 758.698 -0.7606 1.43714 0
M  V30 8202 O 759.882 -0.745791 1.73119 0
M  V30 8203 C 757.009 -0.974264 3.24385 0
M  V30 8204 C 756.055 -0.280307 4.25578 0
M  V30 8205 S 756.888 0.996769 5.26141 0
M  V30 8206 C 758.044 0.00143923 6.259 0
M  V30 8207 H 758.277 0.770705 2.87137 0
M  V30 8208 H 755.81 0.513783 1.45601 0
M  V30 8209 H 757.768 -1.5446 3.80332 0
M  V30 8210 H 756.429 -1.69438 2.6448 0
M  V30 8211 H 755.622 -1.03471 4.93264 0
M  V30 8212 H 755.224 0.217657 3.73366 0
M  V30 8213 H 757.516 -0.843126 6.72233 0
M  V30 8214 H 758.459 0.645104 7.05155 0
M  V30 8215 H 758.867 -0.365371 5.63316 0
M  V30 8216 N 758.265 -1.50454 0.469181 0
M  V30 8217 C 759.493 -2.06729 -0.0842134 0
M  V30 8218 C 759.908 -1.33326 -1.33677 0
M  V30 8219 O 759.265 -0.401977 -1.78018 0
M  V30 8220 C 759.316 -3.59557 -0.374253 0
M  V30 8221 O 759.037 -4.30192 0.828622 0
M  V30 8222 C 760.538 -4.32449 -0.974824 0
M  V30 8223 H 757.758 -0.670971 0.006231 0
M  V30 8224 H 760.302 -1.93645 0.657415 0
M  V30 8225 H 758.457 -3.7245 -1.06581 0
M  V30 8226 H 758.871 -5.21371 0.572066 0
M  V30 8227 H 760.345 -5.40361 -1.12755 0
M  V30 8228 H 760.822 -3.92819 -1.96442 0
M  V30 8229 H 761.428 -4.24082 -0.321703 0
M  V30 8230 N 759.743 -0.201713 -1.56304 0
M  V30 8231 C 760.673 0.71155 -2.22394 0
M  V30 8232 C 761.654 1.21625 -1.18917 0
M  V30 8233 O 762.839 1.26388 -1.47444 0
M  V30 8234 C 759.969 1.92837 -2.88845 0
M  V30 8235 C 758.923 1.55831 -3.98623 0
M  V30 8236 C 758.249 2.85228 -4.52271 0
M  V30 8237 C 759.549 0.763249 -5.16693 0
M  V30 8238 H 761.243 0.160573 -2.98969 0
M  V30 8239 H 758.789 0.0757916 -1.438 0
M  V30 8240 H 760.742 2.57253 -3.33764 0
M  V30 8241 H 759.466 2.50398 -2.09686 0
M  V30 8242 H 758.125 0.9377 -3.54405 0
M  V30 8243 H 757.773 3.40893 -3.69866 0
M  V30 8244 H 757.473 2.6121 -5.26349 0
M  V30 8245 H 758.997 3.50622 -4.99897 0
M  V30 8246 H 760.411 1.31066 -5.58117 0
M  V30 8247 H 758.808 0.620935 -5.96879 0
M  V30 8248 H 759.878 -0.234322 -4.84334 0
M  V30 8249 N 761.222 1.57436 0.0718424 0
M  V30 8250 C 762.633 1.75975 0.623678 0
M  V30 8251 C 762.984 0.827155 1.77912 0
M  V30 8252 O 762.109 0.0112425 2.16397 0
M  V30 8253 C 762.704 3.1911 1.13816 0
M  V30 8254 C 761.263 3.38994 1.63586 0
M  V30 8255 C 760.41 2.71684 0.555261 0
M  V30 8256 H 763.361 1.57948 -0.154328 0
M  V30 8257 H 763.382 3.23267 2.00696 0
M  V30 8258 H 762.894 3.86962 0.296998 0
M  V30 8259 H 760.995 2.76256 2.50027 0
M  V30 8260 H 761.108 4.47436 1.71283 0
M  V30 8261 H 759.472 2.34236 1.00029 0
M  V30 8262 H 760.255 3.42191 -0.275712 0
M  V30 8263 N 762.7 -0.34323 1.53817 0
M  V30 8264 C 763.61 -1.44493 1.84821 0
M  V30 8265 C 764.626 -1.57556 0.738381 0
M  V30 8266 O 765.802 -1.73026 1.03072 0
M  V30 8267 C 762.867 -2.79478 2.05166 0
M  V30 8268 C 761.928 -2.75756 3.29025 0
M  V30 8269 C 761.161 -4.04302 3.4839 0
M  V30 8270 O 761.384 -5.01595 2.71586 0
M  V30 8271 O 760.318 -4.08754 4.41819 0
M  V30 8272 H 764.144 -1.21209 2.78464 0
M  V30 8273 H 761.729 -0.535437 1.39476 0
M  V30 8274 H 763.611 -3.59419 2.19991 0
M  V30 8275 H 762.286 -3.02692 1.14713 0
M  V30 8276 H 761.193 -1.94434 3.19603 0
M  V30 8277 H 762.526 -2.57495 4.19472 0
M  V30 8278 N 764.178 -1.45556 -0.604258 0
M  V30 8279 C 765.406 -1.53278 -1.38973 0
M  V30 8280 C 765.821 -0.166509 -1.88064 0
M  V30 8281 O 765.178 0.832519 -1.62405 0
M  V30 8282 C 765.229 -2.51992 -2.59195 0
M  V30 8283 O 764.95 -3.8331 -2.12143 0
M  V30 8284 C 766.451 -2.69445 -3.52015 0
M  V30 8285 H 763.671 -0.519003 -0.425297 0
M  V30 8286 H 766.215 -1.90773 -0.736621 0
M  V30 8287 H 764.37 -2.17561 -3.2054 0
M  V30 8288 H 764.784 -4.3685 -2.90279 0
M  V30 8289 H 766.258 -3.42485 -4.32907 0
M  V30 8290 H 766.735 -1.75596 -4.0257 0
M  V30 8291 H 767.341 -3.04886 -2.9652 0
M  V30 8292 N 765.656 0.84705 -1.32902 0
M  V30 8293 C 766.586 1.97166 -1.25091 0
M  V30 8294 C 767.567 1.69578 -0.133161 0
M  V30 8295 O 768.752 1.91519 -0.321591 0
M  V30 8296 C 765.882 3.33157 -0.981006 0
M  V30 8297 C 764.836 3.75119 -2.06082 0
M  V30 8298 C 764.162 5.08826 -1.64318 0
M  V30 8299 C 765.462 3.89774 -3.47669 0
M  V30 8300 H 767.156 2.03958 -2.19184 0
M  V30 8301 H 764.702 0.979907 -1.05517 0
M  V30 8302 H 766.655 4.11393 -0.912891 0
M  V30 8303 H 765.379 3.266 -0.00445559 0
M  V30 8304 H 764.038 2.9914 -2.11921 0
M  V30 8305 H 763.686 4.98732 -0.653876 0
M  V30 8306 H 763.386 5.37873 -2.36572 0
M  V30 8307 H 764.91 5.89546 -1.58958 0
M  V30 8308 H 766.324 4.58343 -3.44376 0
M  V30 8309 H 764.721 4.30248 -4.18338 0
M  V30 8310 H 765.791 2.92463 -3.86773 0
M  V30 8311 N 767.134 1.16236 1.06428 0
M  V30 8312 C 768.044 0.881976 2.1739 0
M  V30 8313 C 769.06 -0.145259 1.73393 0
M  V30 8314 O 770.236 0.0310558 2.01376 0
M  V30 8315 C 767.301 0.385496 3.4455 0
M  V30 8316 C 766.362 1.47779 4.03063 0
M  V30 8317 C 765.595 1.0049 5.24154 0
M  V30 8318 O 765.818 -0.145889 5.70213 0
M  V30 8319 O 764.752 1.79265 5.74585 0
M  V30 8320 H 768.578 1.80983 2.43883 0
M  V30 8321 H 766.163 0.942226 1.15942 0
M  V30 8322 H 768.045 0.115536 4.21242 0
M  V30 8323 H 766.72 -0.514369 3.19587 0
M  V30 8324 H 765.627 1.80147 3.27869 0
M  V30 8325 H 766.96 2.35291 4.32318 0
M  V30 8326 N 768.612 -1.24939 0.960631 0
M  V30 8327 C 769.544 -2.24879 0.442937 0
M  V30 8328 C 770.557 -1.56615 -0.444464 0
M  V30 8329 O 771.746 -1.76715 -0.251776 0
M  V30 8330 C 768.846 -3.36757 -0.380537 0
M  V30 8331 C 768.019 -4.34587 0.495283 0
M  V30 8332 C 767.078 -5.25502 -0.270995 0
M  V30 8333 O 766.104 -5.68227 0.332661 0
M  V30 8334 N 767.306 -5.59077 -1.56249 0
M  V30 8335 H 770.071 -2.69932 1.30218 0
M  V30 8336 H 767.632 -1.38907 0.83166 0
M  V30 8337 H 769.624 -3.94542 -0.90103 0
M  V30 8338 H 768.194 -2.91045 -1.14067 0
M  V30 8339 H 767.414 -3.75593 1.19682 0
M  V30 8340 H 768.702 -4.96925 1.09285 0
M  V30 8341 H 768.1 -5.2628 -2.07476 0
M  V30 8342 H 766.657 -6.19421 -2.02882 0
M  V30 8343 N 770.09 -0.729906 -1.39679 0
M  V30 8344 C 771.023 -0.0354454 -2.28172 0
M  V30 8345 C 772.001 0.752968 -1.44115 0
M  V30 8346 O 773.185 0.736599 -1.73512 0
M  V30 8347 C 770.312 0.957047 -3.24897 0
M  V30 8348 C 769.358 0.257734 -4.25721 0
M  V30 8349 S 770.191 -1.02466 -5.25605 0
M  V30 8350 C 771.347 -0.0346322 -6.2589 0
M  V30 8351 H 771.58 -0.785922 -2.86724 0
M  V30 8352 H 769.113 -0.521497 -1.45326 0
M  V30 8353 H 771.071 1.52441 -3.81146 0
M  V30 8354 H 769.732 1.68033 -2.65375 0
M  V30 8355 H 768.925 1.00854 -4.93806 0
M  V30 8356 H 768.527 -0.237454 -3.73245 0
M  V30 8357 H 770.819 0.807464 -6.72671 0
M  V30 8358 H 771.762 -0.682491 -7.04803 0
M  V30 8359 H 772.17 0.335492 -5.63502 0
M  V30 8360 N 771.568 1.50203 -0.477153 0
M  V30 8361 C 772.5 2.26508 0.350239 0
M  V30 8362 C 773.513 1.32081 0.95176 0
M  V30 8363 O 774.702 1.57546 0.839139 0
M  V30 8364 C 771.802 3.0361 1.50579 0
M  V30 8365 C 770.975 4.25438 1.01595 0
M  V30 8366 C 770.034 4.84783 2.04626 0
M  V30 8367 O 769.06 5.45528 1.62442 0
M  V30 8368 N 770.262 4.72318 3.37485 0
M  V30 8369 H 773.027 2.98155 -0.30394 0
M  V30 8370 H 770.588 1.58938 -0.308289 0
M  V30 8371 H 772.58 3.4019 2.1921 0
M  V30 8372 H 771.15 2.34724 2.06455 0
M  V30 8373 H 770.37 3.93894 0.155316 0
M  V30 8374 H 771.658 5.04413 0.666694 0
M  V30 8375 H 771.056 4.24022 3.74462 0
M  V30 8376 H 769.613 5.13149 4.01897 0
M  V30 8377 N 773.046 0.209999 1.56195 0
M  V30 8378 C 773.993 -0.704854 2.19774 0
M  V30 8379 C 774.963 -1.19886 1.14964 0
M  V30 8380 O 776.148 -1.26005 1.43274 0
M  V30 8381 C 773.288 -1.91241 2.87265 0
M  V30 8382 C 772.401 -1.45838 4.06639 0
M  V30 8383 C 771.536 -2.6226 4.61945 0
M  V30 8384 C 770.575 -2.13537 5.73645 0
M  V30 8385 N 769.712 -3.2319 6.23292 0
M  V30 8386 H 774.552 -0.155944 2.97592 0
M  V30 8387 H 772.089 -0.0652235 1.46955 0
M  V30 8388 H 774.047 -2.62123 3.24573 0
M  V30 8389 H 772.677 -2.43439 2.11985 0
M  V30 8390 H 771.729 -0.644897 3.74894 0
M  V30 8391 H 773.041 -1.06103 4.87384 0
M  V30 8392 H 772.195 -3.41243 5.01636 0
M  V30 8393 H 770.934 -3.05278 3.80338 0
M  V30 8394 H 769.939 -1.33013 5.33468 0
M  V30 8395 H 771.164 -1.71533 6.57079 0
M  V30 8396 H 769.11 -3.65711 5.44602 0
M  V30 8397 H 769.027 -2.8767 6.99129 0
M  V30 8398 H 770.295 -4.02342 6.67639 0
M  V30 8399 N 774.524 -1.57472 -0.0634922 0
M  V30 8400 C 775.77 -1.87932 -0.762194 0
M  V30 8401 C 776.103 -0.803377 -1.76804 0
M  V30 8402 O 775.378 0.185468 -1.93614 0
M  V30 8403 C 775.661 -3.29053 -1.46275 0
M  V30 8404 C 775.514 -4.47309 -0.472755 0
M  V30 8405 C 776.833 -3.68537 -2.40558 0
M  V30 8406 H 773.952 -0.683521 -0.275624 0
M  V30 8407 H 776.594 -1.89983 -0.0252651 0
M  V30 8408 H 774.744 -3.27435 -2.0909 0
M  V30 8409 H 776.416 -4.61053 0.150828 0
M  V30 8410 H 774.659 -4.33286 0.211187 0
M  V30 8411 H 775.33 -5.42853 -1.00072 0
M  V30 8412 H 777.806 -3.71302 -1.87814 0
M  V30 8413 H 776.682 -4.68152 -2.86574 0
M  V30 8414 H 776.943 -2.98917 -3.25731 0
M  V30 8415 N 776.003 0.335068 -1.53997 0
M  V30 8416 C 776.95 1.41187 -1.82579 0
M  V30 8417 C 777.92 1.51897 -0.672061 0
M  V30 8418 O 779.105 1.673 -0.917346 0
M  V30 8419 C 776.245 2.77717 -2.0486 0
M  V30 8420 C 775.358 2.7573 -3.32561 0
M  V30 8421 C 774.493 4.04032 -3.44864 0
M  V30 8422 C 773.532 3.96308 -4.66483 0
M  V30 8423 N 772.669 5.16317 -4.75774 0
M  V30 8424 H 777.509 1.16113 -2.74448 0
M  V30 8425 H 775.046 0.562305 -1.35928 0
M  V30 8426 H 777.004 3.57071 -2.15768 0
M  V30 8427 H 775.634 3.01124 -1.16294 0
M  V30 8428 H 774.686 1.88432 -3.3045 0
M  V30 8429 H 775.998 2.65902 -4.22016 0
M  V30 8430 H 775.152 4.91814 -3.55251 0
M  V30 8431 H 773.891 4.16652 -2.53481 0
M  V30 8432 H 772.896 3.06911 -4.56164 0
M  V30 8433 H 774.121 3.85263 -5.5924 0
M  V30 8434 H 772.067 5.29464 -3.87303 0
M  V30 8435 H 771.984 5.08779 -5.59178 0
M  V30 8436 H 773.252 6.05846 -4.9048 0
M  V30 8437 N 777.481 1.45874 0.596531 0
M  V30 8438 C 778.727 1.51679 1.35518 0
M  V30 8439 C 779.082 0.160681 1.91728 0
M  V30 8440 O 778.375 -0.828886 1.72743 0
M  V30 8441 C 778.569 2.54034 2.51399 0
M  V30 8442 C 778.398 3.99465 2.06538 0
M  V30 8443 C 777.168 4.67321 1.92196 0
M  V30 8444 C 779.366 4.87674 1.63336 0
M  V30 8445 N 777.348 5.97427 1.41261 0
M  V30 8446 C 778.719 6.07495 1.23895 0
M  V30 8447 C 780.774 4.74442 1.51028 0
M  V30 8448 C 779.477 7.15548 0.733739 0
M  V30 8449 C 781.503 5.82553 1.0191 0
M  V30 8450 C 780.865 7.01537 0.634403 0
M  V30 8451 H 776.964 0.609933 0.489393 0
M  V30 8452 H 779.548 1.82411 0.680746 0
M  V30 8453 H 777.719 2.25235 3.16424 0
M  V30 8454 H 779.451 2.49918 3.18313 0
M  V30 8455 H 776.206 4.22635 2.1372 0
M  V30 8456 H 776.63 6.66638 1.17995 0
M  V30 8457 H 781.272 3.82855 1.79393 0
M  V30 8458 H 778.99 8.06914 0.437656 0
M  V30 8459 H 782.576 5.74352 0.927977 0
M  V30 8460 H 781.456 7.83768 0.26019 0
M  V30 8461 N 778.959 -0.83999 1.33349 0
M  V30 8462 C 780.206 -1.59517 1.24742 0
M  V30 8463 C 780.534 -1.93598 -0.187077 0
M  V30 8464 O 779.789 -1.58782 -1.14398 0
M  V30 8465 C 780.088 -2.91571 2.06691 0
M  V30 8466 C 779.754 -2.76856 3.55895 0
M  V30 8467 C 778.416 -2.72551 3.96572 0
M  V30 8468 C 780.768 -2.61741 4.50712 0
M  V30 8469 C 778.096 -2.51028 5.30285 0
M  V30 8470 C 780.448 -2.41752 5.84584 0
M  V30 8471 C 779.112 -2.35848 6.24445 0
M  V30 8472 H 778.382 -0.583714 0.456463 0
M  V30 8473 H 781.029 -0.973261 1.64924 0
M  V30 8474 H 779.334 -3.57961 1.59284 0
M  V30 8475 H 781.031 -3.49053 1.9739 0
M  V30 8476 H 777.621 -2.81039 3.23597 0
M  V30 8477 H 781.805 -2.64102 4.20195 0
M  V30 8478 H 777.061 -2.44903 5.60208 0
M  V30 8479 H 781.235 -2.2904 6.57658 0
M  V30 8480 H 778.862 -2.18931 7.27993 0
M  V30 8481 N 780.437 -1.16799 -1.0581 0
M  V30 8482 C 781.853 -0.913935 -1.30841 0
M  V30 8483 C 782.053 0.430439 -1.96849 0
M  V30 8484 O 781.109 1.16885 -2.23817 0
M  V30 8485 C 782.422 -2.06662 -2.18429 0
M  V30 8486 C 783.97 -2.10294 -2.31831 0
M  V30 8487 C 784.445 -3.2493 -3.22776 0
M  V30 8488 N 785.936 -3.24678 -3.30361 0
M  V30 8489 C 786.671 -4.10021 -4.00837 0
M  V30 8490 N 786.167 -5.05461 -4.73795 0
M  V30 8491 N 787.96 -3.97991 -3.96937 0
M  V30 8492 H 780.111 -2.03343 -0.613613 0
M  V30 8493 H 782.374 -0.88754 -0.333133 0
M  V30 8494 H 782.08 -3.03791 -1.77211 0
M  V30 8495 H 781.954 -2.01233 -3.19038 0
M  V30 8496 H 784.341 -1.13754 -2.72294 0
M  V30 8497 H 784.422 -2.19786 -1.30873 0
M  V30 8498 H 784.066 -4.21731 -2.83028 0
M  V30 8499 H 783.996 -3.12674 -4.23725 0
M  V30 8500 H 786.487 -2.55573 -2.78372 0
M  V30 8501 H 786.8 -5.66989 -5.25113 0
M  V30 8502 H 785.145 -5.09436 -4.72758 0
M  V30 8503 H 788.336 -3.2273 -3.39062 0
M  V30 8504 H 788.509 -4.64722 -4.51594 0
M  V30 8505 N 781.915 1.24427 -0.967243 0
M  V30 8506 C 783.14 1.9708 -0.646069 0
M  V30 8507 C 783.565 1.71272 0.777665 0
M  V30 8508 O 782.923 0.976179 1.52776 0
M  V30 8509 C 782.971 3.48501 -0.926266 0
M  V30 8510 O 782.075 4.12398 -0.0114653 0
M  V30 8511 H 781.416 0.617423 -0.244304 0
M  V30 8512 H 783.946 1.58215 -1.29727 0
M  V30 8513 H 783.956 3.98885 -0.857619 0
M  V30 8514 H 782.631 3.66613 -1.96386 0
M  V30 8515 H 781.208 3.72661 -0.133396 0
M  V30 8516 N 783.393 0.737304 1.3929 0
M  V30 8517 C 784.641 0.285691 2.00071 0
M  V30 8518 C 784.962 -1.13169 1.58801 0
M  V30 8519 O 784.232 -1.77104 0.837308 0
M  V30 8520 H 782.812 0.102638 0.739915 0
M  V30 8521 H 785.474 0.947775 1.70303 0
M  V30 8522 H 784.57 0.335906 3.10287 0
M  V30 8523 N 784.871 -1.49948 0.485112 0
M  V30 8524 C 785.818 -2.28819 -0.301729 0
M  V30 8525 C 786.788 -1.34496 -0.974683 0
M  V30 8526 O 787.973 -1.63444 -0.984418 0
M  V30 8527 C 785.113 -3.16758 -1.36961 0
M  V30 8528 C 784.226 -4.26125 -0.710027 0
M  V30 8529 C 783.361 -5.01302 -1.75699 0
M  V30 8530 C 782.4 -6.02525 -1.07841 0
M  V30 8531 N 781.537 -6.70927 -2.06886 0
M  V30 8532 H 786.377 -2.95604 0.377127 0
M  V30 8533 H 783.914 -1.45764 0.197826 0
M  V30 8534 H 785.872 -3.66106 -2.00056 0
M  V30 8535 H 784.502 -2.51991 -2.01744 0
M  V30 8536 H 783.554 -3.80385 0.0338278 0
M  V30 8537 H 784.866 -4.98493 -0.175079 0
M  V30 8538 H 784.02 -5.54438 -2.46339 0
M  V30 8539 H 782.759 -4.28672 -2.32577 0
M  V30 8540 H 781.764 -5.48635 -0.357706 0
M  V30 8541 H 782.989 -6.77134 -0.516345 0
M  V30 8542 H 780.935 -6.01079 -2.62755 0
M  V30 8543 H 780.852 -7.39216 -1.58414 0
M  V30 8544 H 782.12 -7.28675 -2.76863 0
M  V30 8545 N 786.349 -0.21828 -1.56081 0
M  V30 8546 C 787.296 0.693189 -2.20144 0
M  V30 8547 C 788.266 1.19274 -1.15598 0
M  V30 8548 O 789.451 1.25243 -1.4394 0
M  V30 8549 C 786.591 1.89715 -2.88275 0
M  V30 8550 C 785.704 1.4368 -4.07407 0
M  V30 8551 C 784.839 2.59807 -4.63329 0
M  V30 8552 C 783.878 2.10492 -5.74769 0
M  V30 8553 N 783.015 3.1988 -6.24997 0
M  V30 8554 H 787.855 0.14016 -2.9767 0
M  V30 8555 H 785.392 0.0574292 -1.46988 0
M  V30 8556 H 787.35 2.60398 -3.25958 0
M  V30 8557 H 785.98 2.42311 -2.13273 0
M  V30 8558 H 785.032 0.625007 -3.7523 0
M  V30 8559 H 786.344 1.03517 -4.8794 0
M  V30 8560 H 785.498 3.38577 -5.03438 0
M  V30 8561 H 784.237 3.03256 -3.81951 0
M  V30 8562 H 783.242 1.30182 -5.34165 0
M  V30 8563 H 784.467 1.68045 -6.5798 0
M  V30 8564 H 782.413 3.62817 -5.46534 0
M  V30 8565 H 782.33 2.83958 -7.00645 0
M  V30 8566 H 783.598 3.98796 -6.69763 0
M  V30 8567 N 787.827 1.57504 0.0551401 0
M  V30 8568 C 789.055 1.92294 0.76358 0
M  V30 8569 C 789.47 0.815774 1.70266 0
M  V30 8570 O 788.827 -0.209772 1.8129 0
M  V30 8571 C 788.878 3.26914 1.54302 0
M  V30 8572 O 788.599 4.33375 0.641666 0
M  V30 8573 C 790.1 3.75825 2.35097 0
M  V30 8574 H 787.32 0.635229 0.216159 0
M  V30 8575 H 789.864 2.0449 0.0204385 0
M  V30 8576 H 788.019 3.16196 2.23828 0
M  V30 8577 H 788.433 5.10927 1.1855 0
M  V30 8578 H 789.907 4.72603 2.8522 0
M  V30 8579 H 790.384 3.0568 3.15367 0
M  V30 8580 H 790.99 3.89542 1.70696 0
M  V30 8581 N 789.305 -0.326896 1.54172 0
M  V30 8582 C 790.721 -0.671034 1.44808 0
M  V30 8583 C 790.921 -1.91781 0.618258 0
M  V30 8584 O 789.977 -2.52235 0.115751 0
M  V30 8585 C 791.29 -0.848147 2.88491 0
M  V30 8586 C 792.838 -0.945702 2.98371 0
M  V30 8587 C 793.313 -1.15501 4.43197 0
M  V30 8588 N 794.804 -1.22183 4.46795 0
M  V30 8589 C 795.539 -1.4016 5.56006 0
M  V30 8590 N 795.035 -1.55202 6.75192 0
M  V30 8591 N 796.828 -1.42841 5.43648 0
M  V30 8592 H 788.979 0.49262 2.06608 0
M  V30 8593 H 791.242 0.158574 0.934643 0
M  V30 8594 H 790.948 -0.00329969 3.517 0
M  V30 8595 H 790.822 -1.74497 3.34411 0
M  V30 8596 H 793.209 -1.78106 2.35292 0
M  V30 8597 H 793.29 -0.0254215 2.55787 0
M  V30 8598 H 792.934 -0.324521 5.06862 0
M  V30 8599 H 792.864 -2.08911 4.83388 0
M  V30 8600 H 795.355 -1.12016 3.60917 0
M  V30 8601 H 795.668 -1.68601 7.54184 0
M  V30 8602 H 794.013 -1.52306 6.78106 0
M  V30 8603 H 797.204 -1.30683 4.49488 0
M  V30 8604 H 797.377 -1.56509 6.28816 0
M  V30 8605 N 790.784 -1.46188 -0.588786 0
M  V30 8606 C 792.061 -1.41659 -1.34878 0
M  V30 8607 C 792.441 -0.0968913 -2.10878 0
M  V30 8608 O 791.789 0.921468 -2.09096 0
M  V30 8609 C 791.999 -2.6424 -2.27988 0
M  V30 8610 C 793.347 -3.1013 -2.90008 0
M  V30 8611 O 794.371 -2.64745 -2.38303 0
M  V30 8612 O 793.23 -3.88944 -3.83908 0
M  V30 8613 H 790.324 -0.563058 -0.605718 0
M  V30 8614 H 792.87 -1.58346 -0.610309 0
M  V30 8615 H 791.642 -3.51853 -1.71217 0
M  V30 8616 H 791.265 -2.49982 -3.09184 0
M  V30 8617 N 792.262 0.832906 -1.33792 0
M  V30 8618 C 793.487 1.62568 -1.28788 0
M  V30 8619 C 793.912 1.87599 0.137246 0
M  V30 8620 O 793.27 1.44436 1.0958 0
M  V30 8621 C 793.318 2.9495 -2.07453 0
M  V30 8622 O 792.422 3.86546 -1.43722 0
M  V30 8623 H 791.763 0.494809 -0.442787 0
M  V30 8624 H 794.293 1.03578 -1.76445 0
M  V30 8625 H 794.303 3.44599 -2.1844 0
M  V30 8626 H 792.978 2.76055 -3.11073 0
M  V30 8627 H 791.555 3.45044 -1.41417 0
M  V30 8628 N 793.74 1.17359 1.05189 0
M  V30 8629 C 794.673 0.833768 2.12423 0
M  V30 8630 C 795.651 -0.19945 1.61372 0
M  V30 8631 O 796.835 -0.080979 1.88326 0
M  V30 8632 C 793.962 0.243745 3.37822 0
M  V30 8633 C 793.008 1.25235 4.07699 0
M  V30 8634 S 793.841 2.80368 4.56239 0
M  V30 8635 C 794.997 2.22846 5.84885 0
M  V30 8636 H 795.23 1.74197 2.40921 0
M  V30 8637 H 792.763 0.998242 1.1779 0
M  V30 8638 H 794.721 -0.0901915 4.10401 0
M  V30 8639 H 793.382 -0.642396 3.07461 0
M  V30 8640 H 792.575 0.788168 4.97799 0
M  V30 8641 H 792.177 1.53194 3.41185 0
M  V30 8642 H 794.469 1.60403 6.58238 0
M  V30 8643 H 795.412 3.112 6.3605 0
M  V30 8644 H 795.82 1.66296 5.39449 0
M  V30 8645 N 795.218 -1.23913 0.973828 0
M  V30 8646 C 796.128 -2.28838 0.516735 0
M  V30 8647 C 797.144 -1.68723 -0.425282 0
M  V30 8648 O 798.32 -1.99201 -0.296819 0
M  V30 8649 C 795.385 -3.46233 -0.179914 0
M  V30 8650 C 794.446 -4.21729 0.80269 0
M  V30 8651 C 793.679 -5.33518 0.139191 0
M  V30 8652 O 793.902 -5.60252 -1.07118 0
M  V30 8653 O 792.836 -5.96088 0.834447 0
M  V30 8654 H 796.662 -2.70067 1.38916 0
M  V30 8655 H 794.247 -1.2972 0.74115 0
M  V30 8656 H 796.129 -4.17514 -0.570991 0
M  V30 8657 H 794.804 -3.06969 -1.02721 0
M  V30 8658 H 793.711 -3.52799 1.24434 0
M  V30 8659 H 795.044 -4.64825 1.61859 0
M  V30 8660 N 796.696 -0.74468 -1.38897 0
M  V30 8661 C 797.924 -0.307428 -2.04603 0
M  V30 8662 C 798.339 1.06115 -1.56157 0
M  V30 8663 O 797.696 1.67233 -0.730701 0
M  V30 8664 C 797.747 -0.31101 -3.6016 0
M  V30 8665 O 797.468 -1.62557 -4.06825 0
M  V30 8666 C 798.969 0.141213 -4.43075 0
M  V30 8667 H 796.189 -0.132741 -0.657739 0
M  V30 8668 H 798.733 -1.01104 -1.77759 0
M  V30 8669 H 796.888 0.343792 -3.85872 0
M  V30 8670 H 797.302 -1.54569 -5.01207 0
M  V30 8671 H 798.776 0.0875449 -5.51931 0
M  V30 8672 H 799.253 1.18782 -4.22833 0
M  V30 8673 H 799.859 -0.484383 -4.22533 0
M  V30 8674 N 798.174 1.49689 -0.493057 0
M  V30 8675 C 799.084 2.32746 0.294358 0
M  V30 8676 C 800.1 1.44117 0.975003 0
M  V30 8677 O 801.276 1.77149 0.958138 0
M  V30 8678 C 798.341 3.19358 1.34949 0
M  V30 8679 C 797.402 4.2383 0.683122 0
M  V30 8680 C 796.635 5.06303 1.68798 0
M  V30 8681 O 796.858 4.90172 2.91698 0
M  V30 8682 O 795.792 5.88826 1.24768 0
M  V30 8683 H 799.618 3.01247 -0.385254 0
M  V30 8684 H 797.203 1.47216 -0.254519 0
M  V30 8685 H 799.085 3.73037 1.96014 0
M  V30 8686 H 797.76 2.53561 2.01217 0
M  V30 8687 H 796.667 3.74086 0.0329351 0
M  V30 8688 H 798 4.9216 0.0630192 0
M  V30 8689 N 799.652 0.226554 1.55963 0
M  V30 8690 C 800.562 -0.692725 2.24139 0
M  V30 8691 C 801.578 -1.20971 1.25068 0
M  V30 8692 O 802.754 -1.25027 1.57893 0
M  V30 8693 C 799.819 -1.88183 2.91184 0
M  V30 8694 C 798.88 -1.40633 4.05612 0
M  V30 8695 C 798.113 -2.53875 4.6945 0
M  V30 8696 O 798.336 -3.72129 4.32292 0
M  V30 8697 O 797.27 -2.24792 5.58348 0
M  V30 8698 H 801.096 -0.141921 3.03368 0
M  V30 8699 H 798.681 -0.0041049 1.49399 0
M  V30 8700 H 800.563 -2.57617 3.33484 0
M  V30 8701 H 799.238 -2.42064 2.14911 0
M  V30 8702 H 798.145 -0.67986 3.67871 0
M  V30 8703 H 799.478 -0.913838 4.83642 0
M  V30 8704 N 801.13 -1.57531 -0.0467866 0
M  V30 8705 C 802.078 -2.06455 -1.0714 0
M  V30 8706 C 803.072 -0.974744 -1.38546 0
M  V30 8707 O 804.278 -1.15974 -1.37659 0
M  V30 8708 H 800.653 -0.658607 -0.362962 0
M  V30 8709 H 802.624 -2.91613 -0.632813 0
M  V30 8710 C 801.373 -2.54481 -2.36927 0
M  V30 8711 H 800.696 -3.37946 -2.13617 0
M  V30 8712 H 802.136 -2.92442 -3.07007 0
M  V30 8713 C 800.595 -1.43836 -3.04652 0
M  V30 8714 O 801.125 -0.794531 -3.93764 0
M  V30 8715 N 799.331 -1.17727 -2.65686 0
M  V30 8716 H 798.878 -1.70265 -1.93307 0
M  V30 8717 H 798.836 -0.439051 -3.11319 0
M  V30 8718 N 802.608 0.318715 -1.54344 0
M  V30 8719 C 804.019 0.89285 -1.63967 0
M  V30 8720 C 804.37 1.88712 -0.536855 0
M  V30 8721 O 803.495 2.13877 0.329457 0
M  V30 8722 C 804.09 1.62618 -2.97222 0
M  V30 8723 C 802.649 2.14897 -3.09025 0
M  V30 8724 C 801.796 0.975909 -2.5956 0
M  V30 8725 H 804.747 0.0961687 -1.58408 0
M  V30 8726 H 804.768 2.4907 -2.87653 0
M  V30 8727 H 804.28 0.902286 -3.77466 0
M  V30 8728 H 802.381 2.90387 -2.33465 0
M  V30 8729 H 802.494 2.39565 -4.14904 0
M  V30 8730 H 800.858 1.35646 -2.15574 0
M  V30 8731 H 801.641 0.266253 -3.42266 0
M  V30 8732 N 804.086 1.46499 0.581025 0
M  V30 8733 C 805.033 1.5719 1.68997 0
M  V30 8734 C 806.003 0.416114 1.60803 0
M  V30 8735 O 807.188 0.633086 1.79991 0
M  V30 8736 C 804.328 1.56973 3.07333 0
M  V30 8737 C 803.441 2.83298 3.26139 0
M  V30 8738 C 802.576 2.74574 4.54734 0
M  V30 8739 C 801.615 3.9583 4.66889 0
M  V30 8740 N 800.752 3.85482 5.86811 0
M  V30 8741 H 805.592 2.51914 1.59196 0
M  V30 8742 H 803.129 1.24975 0.775857 0
M  V30 8743 H 805.087 1.54832 3.87405 0
M  V30 8744 H 803.717 0.657803 3.16027 0
M  V30 8745 H 802.769 2.95411 2.3966 0
M  V30 8746 H 804.081 3.7316 3.30988 0
M  V30 8747 H 803.235 2.70548 5.43036 0
M  V30 8748 H 801.974 1.82354 4.52325 0
M  V30 8749 H 800.979 4.00186 3.77003 0
M  V30 8750 H 802.204 4.89148 4.71075 0
M  V30 8751 H 800.15 2.96051 5.85397 0
M  V30 8752 H 800.067 4.69002 5.92936 0
M  V30 8753 H 801.335 3.85434 6.7754 0
M  V30 8754 N 805.565 -0.825799 1.34232 0
M  V30 8755 C 806.811 -1.58419 1.26614 0
M  V30 8756 C 807.144 -1.93503 -0.164341 0
M  V30 8757 O 806.419 -1.59785 -1.109 0
M  V30 8758 C 806.702 -2.8856 2.15418 0
M  V30 8759 C 806.555 -2.60075 3.66989 0
M  V30 8760 C 807.874 -3.90107 2.03726 0
M  V30 8761 H 804.993 -0.574794 0.461282 0
M  V30 8762 H 807.635 -0.951519 1.64457 0
M  V30 8763 H 805.785 -3.42553 1.83275 0
M  V30 8764 H 807.457 -2.12414 4.09485 0
M  V30 8765 H 805.7 -1.93565 3.88221 0
M  V30 8766 H 806.371 -3.52866 4.24488 0
M  V30 8767 H 808.847 -3.45459 2.31942 0
M  V30 8768 H 807.723 -4.78976 2.68092 0
M  V30 8769 H 807.984 -4.30329 1.01337 0
M  V30 8770 N 807.043 -1.17915 -1.04565 0
M  V30 8771 C 807.973 -0.925033 -2.14395 0
M  V30 8772 C 808.954 0.135375 -1.6956 0
M  V30 8773 O 810.139 -0.0161774 -1.94193 0
M  V30 8774 C 807.269 -0.444469 -3.44444 0
M  V30 8775 C 806.223 -1.44478 -4.02877 0
M  V30 8776 C 805.549 -0.821933 -5.28345 0
M  V30 8777 C 806.849 -2.81995 -4.39632 0
M  V30 8778 H 808.543 -1.84354 -2.35911 0
M  V30 8779 H 806.089 -0.887806 -1.13375 0
M  V30 8780 H 808.042 -0.254078 -4.20633 0
M  V30 8781 H 806.766 0.509592 -3.226 0
M  V30 8782 H 805.425 -1.62203 -3.28764 0
M  V30 8783 H 805.073 0.139161 -5.02807 0
M  V30 8784 H 804.773 -1.48976 -5.68401 0
M  V30 8785 H 806.297 -0.641959 -6.07216 0
M  V30 8786 H 807.711 -2.67952 -5.06828 0
M  V30 8787 H 806.108 -3.45414 -4.90723 0
M  V30 8788 H 807.178 -3.35927 -3.49687 0
M  V30 8789 N 808.521 1.23394 -0.980386 0
M  V30 8790 C 809.77 1.91116 -0.644785 0
M  V30 8791 C 810.083 1.77333 0.825367 0
M  V30 8792 O 811.289 2.39858 1.27203 0
M  V30 8793 C 809.745 3.42592 -1.10266 0
M  V30 8794 C 809.353 3.65037 -2.59715 0
M  V30 8795 C 811.097 4.1609 -0.8408 0
M  V30 8796 C 809.004 5.10148 -2.9917 0
M  V30 8797 H 807.934 0.715632 -0.23746 0
M  V30 8798 H 810.585 1.39829 -1.18828 0
M  V30 8799 H 808.967 3.92989 -0.487372 0
M  V30 8800 H 810.141 3.25186 -3.26482 0
M  V30 8801 H 808.456 3.04849 -2.83647 0
M  V30 8802 H 811.053 5.23021 -1.11143 0
M  V30 8803 H 811.396 4.15702 0.223085 0
M  V30 8804 H 811.929 3.71681 -1.41767 0
M  V30 8805 H 808.668 5.15668 -4.04682 0
M  V30 8806 H 808.188 5.50949 -2.37097 0
M  V30 8807 H 809.867 5.7848 -2.89775 0
M  V30 8808 N 809.999 0.752036 1.385 0
M  V30 8809 C 811.227 0.318274 2.04437 0
M  V30 8810 C 811.642 -1.05285 1.56718 0
M  V30 8811 O 810.999 -1.66844 0.73956 0
M  V30 8812 C 811.05 0.330106 3.5999 0
M  V30 8813 O 810.771 1.64712 4.05957 0
M  V30 8814 C 812.272 -0.117713 4.43144 0
M  V30 8815 H 809.492 0.136228 0.657026 0
M  V30 8816 H 812.036 1.02045 1.7722 0
M  V30 8817 H 810.191 -0.323323 3.86048 0
M  V30 8818 H 810.605 1.57225 5.0038 0
M  V30 8819 H 812.079 -0.0582735 5.51969 0
M  V30 8820 H 812.556 -1.16538 4.23457 0
M  V30 8821 H 813.162 0.506784 4.2227 0
M  V30 8822 N 811.477 -1.49425 0.500989 0
M  V30 8823 C 812.44 -2.27646 -0.266416 0
M  V30 8824 C 813.44 -1.3366 -0.893961 0
M  V30 8825 O 814.63 -1.5682 -0.758495 0
M  V30 8826 C 811.762 -3.11618 -1.38227 0
M  V30 8827 H 812.955 -2.96945 0.419973 0
M  V30 8828 H 810.508 -1.5419 0.255954 0
M  V30 8829 H 811.243 -2.46885 -2.10281 0
M  V30 8830 H 811.028 -3.80721 -0.937746 0
M  V30 8831 H 812.518 -3.70698 -1.92283 0
M  V30 8832 N 812.955 -0.234822 -1.55841 0
M  V30 8833 C 814.202 0.39326 -1.98645 0
M  V30 8834 C 814.53 1.58823 -1.12274 0
M  V30 8835 O 813.785 1.94954 -0.170731 0
M  V30 8836 C 814.084 0.858032 -3.46947 0
M  V30 8837 C 813.75 -0.227858 -4.50324 0
M  V30 8838 C 812.412 -0.526128 -4.78315 0
M  V30 8839 C 814.764 -0.961576 -5.12253 0
M  V30 8840 C 812.092 -1.5624 -5.65514 0
M  V30 8841 C 814.444 -1.98728 -6.00575 0
M  V30 8842 C 813.108 -2.29233 -6.26904 0
M  V30 8843 H 812.378 0.143904 -0.726892 0
M  V30 8844 H 815.025 -0.34012 -1.88455 0
M  V30 8845 H 813.33 1.67041 -3.54408 0
M  V30 8846 H 815.027 1.35407 -3.77447 0
M  V30 8847 H 811.617 0.0147624 -4.28597 0
M  V30 8848 H 815.801 -0.744388 -4.90686 0
M  V30 8849 H 811.057 -1.80422 -5.84173 0
M  V30 8850 H 815.231 -2.5608 -6.47608 0
M  V30 8851 H 812.858 -3.09671 -6.94268 0
M  V30 8852 O 814.472 1.61196 -0.0990213 0
M  V30 8853 H 815.163 1.87057 0.50292 0
M  V30 END ATOM
M  V30 BEGIN BOND
M  V30 END BOND
M  V30 END CTAB
M  END
$$$$
