drugbank_target|P15925 Folylpolyglutamate synthase (DB02301; DB03755; DB03801; DB03909)
 OpenBabel12092119553D

  0  0  0     0  0            999 V3000
M  V30 BEGIN CTAB
M  V30 COUNTS 6606 6678 0 0 0
M  V30 BEGIN ATOM
M  V30 1 H -0.908 1.98254 -0.117106 0
M  V30 2 N 0 1.576 0 0
M  V30 3 C 0.933 2.03868 1.02534 0
M  V30 4 C 1.911 0.928543 1.3348 0
M  V30 5 O 3.095 1.19667 1.45644 0
M  V30 6 C 0.222 2.43627 2.35294 0
M  V30 7 C -0.732 3.65373 2.2001 0
M  V30 8 S 0.101 5.13292 1.52614 0
M  V30 9 C 1.257 5.56322 2.86805 0
M  V30 10 H 1.49 2.90518 0.631377 0
M  V30 11 H -0.977 1.52953 0.210867 0
M  V30 12 H 0.981 2.67203 3.11629 0
M  V30 13 H -0.358 1.57376 2.7183 0
M  V30 14 H -1.165 3.90944 3.18086 0
M  V30 15 H -1.563 3.418 1.51819 0
M  V30 16 H 0.729 5.58782 3.83104 0
M  V30 17 H 1.672 6.56266 2.65933 0
M  V30 18 H 2.08 4.83886 2.90714 0
M  V30 19 N 1.4781 -0.272755 1.55222 0
M  V30 20 C 2.4261 -1.35705 1.88909 0
M  V30 21 C 3.4201 -1.5112 0.765456 0
M  V30 22 O 4.6261 -1.52901 0.949802 0
M  V30 23 H 1.0011 -0.453868 0.59959 0
M  V30 24 H 2.9721 -1.04544 2.79487 0
M  V30 25 C 1.7211 -2.71049 2.17779 0
M  V30 26 H 1.0441 -2.59979 3.03728 0
M  V30 27 H 2.4841 -3.45858 2.45272 0
M  V30 28 C 0.9431 -3.22165 0.985473 0
M  V30 29 O 1.4731 -4.01096 0.220233 0
M  V30 30 N -0.3209 -2.7985 0.783108 0
M  V30 31 H -0.7739 -2.15775 1.40708 0
M  V30 32 H -0.8159 -3.14397 -0.0130392 0
M  V30 33 N 2.9562 -1.48159 -0.537278 0
M  V30 34 C 4.1862 -1.59223 -1.3165 0
M  V30 35 C 4.5942 -0.248849 -1.87556 0
M  V30 36 O 3.9372 0.770949 -1.6674 0
M  V30 37 C 3.9992 -2.57365 -2.51005 0
M  V30 38 C 3.6632 -4.02603 -2.16239 0
M  V30 39 C 4.6602 -4.90503 -1.72344 0
M  V30 40 C 2.3452 -4.48088 -2.26986 0
M  V30 41 C 4.3392 -6.21913 -1.39651 0
M  V30 42 C 2.0262 -5.7952 -1.93906 0
M  V30 43 C 3.0242 -6.66255 -1.50309 0
M  V30 44 O 2.7122 -7.95243 -1.17659 0
M  V30 45 H 2.4442 -0.539831 -0.406889 0
M  V30 46 H 4.9982 -1.94655 -0.655641 0
M  V30 47 H 3.2282 -2.1704 -3.20048 0
M  V30 48 H 4.9172 -2.58342 -3.13072 0
M  V30 49 H 5.6832 -4.56604 -1.63517 0
M  V30 50 H 1.5622 -3.80769 -2.59877 0
M  V30 51 H 5.1062 -6.89569 -1.0555 0
M  V30 52 H 1.0032 -6.12957 -2.02371 0
M  V30 53 H 1.7712 -8.0793 -1.31119 0
M  V30 54 N 4.4343 0.785586 -1.36625 0
M  V30 55 C 5.6623 1.57448 -1.3423 0
M  V30 56 C 6.0773 1.88649 0.0755653 0
M  V30 57 O 5.4343 1.50414 1.03354 0
M  V30 58 C 5.4853 2.89316 -2.16745 0
M  V30 59 O 5.2063 2.59459 -3.53005 0
M  V30 60 C 6.7073 3.83606 -2.22174 0
M  V30 61 H 3.9273 0.488226 -0.4603 0
M  V30 62 H 6.4713 0.974733 -1.79775 0
M  V30 63 H 4.6263 3.4575 -1.74745 0
M  V30 64 H 5.0403 3.43804 -3.96105 0
M  V30 65 H 6.5143 4.73181 -2.8426 0
M  V30 66 H 6.9913 4.21734 -1.22627 0
M  V30 67 H 7.5973 3.33104 -2.64427 0
M  V30 68 N 5.9124 1.20967 1.01018 0
M  V30 69 C 6.8224 0.980157 2.13143 0
M  V30 70 C 7.8384 -0.0660665 1.73875 0
M  V30 71 O 9.0144 0.122821 2.01025 0
M  V30 72 C 6.0794 0.54216 3.42435 0
M  V30 73 C 5.1404 1.65999 3.95908 0
M  V30 74 C 4.3734 1.2428 5.19028 0
M  V30 75 O 4.5964 0.114196 5.70286 0
M  V30 76 O 3.5304 2.05271 5.65816 0
M  V30 77 H 7.3564 1.91913 2.35379 0
M  V30 78 H 4.9414 0.994099 1.11526 0
M  V30 79 H 6.8234 0.30744 4.20277 0
M  V30 80 H 5.4984 -0.36815 3.216 0
M  V30 81 H 4.4054 1.94906 3.19316 0
M  V30 82 H 5.7384 2.54753 4.21143 0
M  V30 83 N 7.3905 -1.2043 1.01659 0
M  V30 84 C 8.6185 -1.93777 0.725132 0
M  V30 85 C 9.0335 -1.74772 -0.714166 0
M  V30 86 O 8.3905 -1.06169 -1.4844 0
M  V30 87 C 8.4415 -3.45876 1.05129 0
M  V30 88 O 8.1625 -3.6426 2.43406 0
M  V30 89 C 9.6635 -4.36368 0.780891 0
M  V30 90 H 6.8835 -0.615901 0.266284 0
M  V30 91 H 9.4275 -1.52922 1.35776 0
M  V30 92 H 7.5825 -3.8461 0.464065 0
M  V30 93 H 7.9965 -4.58246 2.55169 0
M  V30 94 H 9.4705 -5.41743 1.05918 0
M  V30 95 H 9.9475 -4.38275 -0.284937 0
M  V30 96 H 10.5535 -4.03296 1.35027 0
M  V30 97 N 8.8686 -0.792821 -1.36206 0
M  V30 98 C 10.1146 -0.36733 -1.99446 0
M  V30 99 C 10.4476 1.05917 -1.62774 0
M  V30 100 O 9.7226 1.7324 -0.88421 0
M  V30 101 C 10.0056 -0.535044 -3.56103 0
M  V30 102 C 9.8586 -2.00548 -4.02617 0
M  V30 103 C 11.1776 0.0478191 -4.40074 0
M  V30 104 H 8.2966 -0.134941 -0.724541 0
M  V30 105 H 10.9386 -0.999794 -1.61568 0
M  V30 106 H 9.0886 0.00336329 -3.885 0
M  V30 107 H 10.7606 -2.60521 -3.80692 0
M  V30 108 H 9.0036 -2.50686 -3.54032 0
M  V30 109 H 9.6746 -2.07377 -5.11565 0
M  V30 110 H 12.1506 -0.411822 -4.14057 0
M  V30 111 H 11.0266 -0.0995336 -5.4881 0
M  V30 112 H 11.2876 1.14025 -4.27142 0
M  V30 113 N 10.3467 1.47872 -0.545128 0
M  V30 114 C 11.3097 2.28337 0.198717 0
M  V30 115 C 12.3097 1.36255 0.853888 0
M  V30 116 O 13.4997 1.59003 0.711606 0
M  V30 117 C 10.6317 3.15585 1.28915 0
M  V30 118 H 11.8247 2.95567 -0.507941 0
M  V30 119 H 9.3777 1.53362 -0.301616 0
M  V30 120 H 10.1127 2.53019 2.02859 0
M  V30 121 H 9.8977 3.83337 0.824309 0
M  V30 122 H 11.3877 3.76243 1.81194 0
M  V30 123 N 11.8248 0.280983 1.55075 0
M  V30 124 C 13.0548 -0.336804 2.03836 0
M  V30 125 C 13.4628 -1.49577 1.15859 0
M  V30 126 O 12.8058 -1.82888 0.172503 0
M  V30 127 C 12.8678 -0.874616 3.48699 0
M  V30 128 C 12.5318 0.156478 4.56732 0
M  V30 129 C 13.5288 0.978032 5.10618 0
M  V30 130 C 11.2138 0.292409 5.01448 0
M  V30 131 C 13.2078 1.92165 6.07743 0
M  V30 132 C 10.8948 1.23949 5.98398 0
M  V30 133 C 11.8928 2.05261 6.51427 0
M  V30 134 O 11.5808 2.98367 7.4648 0
M  V30 135 H 11.3128 -0.0800885 0.671239 0
M  V30 136 H 13.8668 0.412589 2.01213 0
M  V30 137 H 12.0968 -1.67418 3.4858 0
M  V30 138 H 13.7858 -1.40612 3.80766 0
M  V30 139 H 14.5518 0.883782 4.7688 0
M  V30 140 H 10.4308 -0.330498 4.59814 0
M  V30 141 H 13.9748 2.55672 6.49059 0
M  V30 142 H 9.8718 1.33454 6.31554 0
M  V30 143 H 10.6398 2.93116 7.64215 0
M  V30 144 N 13.3029 -1.57598 0.00835791 0
M  V30 145 C 14.5519 -1.90107 -0.673968 0
M  V30 146 C 14.8649 -0.884275 -1.7447 0
M  V30 147 O 16.0709 -1.09987 -2.48224 0
M  V30 148 C 14.5269 -3.37497 -1.24995 0
M  V30 149 C 14.1349 -4.47491 -0.2136 0
M  V30 150 C 15.8789 -3.79104 -1.90999 0
M  V30 151 C 13.7859 -5.85963 -0.80005 0
M  V30 152 H 12.7159 -0.709393 -0.255495 0
M  V30 153 H 15.3669 -1.83365 0.0702693 0
M  V30 154 H 13.7489 -3.39102 -2.04513 0
M  V30 155 H 14.9229 -4.57414 0.557596 0
M  V30 156 H 13.2379 -4.14956 0.346474 0
M  V30 157 H 15.8349 -4.79901 -2.35795 0
M  V30 158 H 16.1779 -3.1306 -2.74407 0
M  V30 159 H 16.7109 -3.79833 -1.18203 0
M  V30 160 H 13.4499 -6.555 -0.00456708 0
M  V30 161 H 12.9699 -5.79687 -1.54021 0
M  V30 162 H 14.6489 -6.33884 -1.29615 0
M  V30 163 N 14.781 0.264519 -1.55364 0
M  V30 164 C 15.731 1.32966 -1.85214 0
M  V30 165 C 16.715 1.44306 -0.711653 0
M  V30 166 O 17.907 1.47844 -0.973192 0
M  V30 167 C 15.036 2.68839 -2.13495 0
M  V30 168 C 14.122 2.61575 -3.33825 0
M  V30 169 N 14.513 2.23933 -4.53528 0
M  V30 170 C 12.811 2.92621 -3.36584 0
M  V30 171 C 13.512 2.26868 -5.35636 0
M  V30 172 N 12.488 2.65677 -4.74254 0
M  V30 173 H 16.29 1.02884 -2.75304 0
M  V30 174 H 13.804 0.473157 -1.55354 0
M  V30 175 H 15.801 3.45685 -2.33039 0
M  V30 176 H 14.461 2.99802 -1.24694 0
M  V30 177 H 15.472 1.95769 -4.79474 0
M  V30 178 H 12.149 3.2824 -2.58002 0
M  V30 179 H 13.539 2.00254 -6.41364 0
M  V30 180 N 16.2591 1.48442 0.529413 0
M  V30 181 C 17.4841 1.60406 1.31471 0
M  V30 182 C 17.9091 0.264738 1.86228 0
M  V30 183 O 17.2671 -0.763668 1.64432 0
M  V30 184 C 17.3151 2.65419 2.44101 0
M  V30 185 O 16.4191 2.22618 3.47153 0
M  V30 186 H 15.7601 0.537863 0.389357 0
M  V30 187 H 18.2901 1.94432 0.636965 0
M  V30 188 H 18.3001 2.86709 2.90279 0
M  V30 189 H 16.9751 3.62652 2.03608 0
M  V30 190 H 15.5521 2.11543 3.0709 0
M  V30 191 N 17.7372 -0.778329 1.37039 0
M  V30 192 C 18.9842 -1.53665 1.31884 0
M  V30 193 C 19.3122 -1.9425 -0.0986303 0
M  V30 194 O 18.5672 -1.63832 -1.07041 0
M  V30 195 C 18.8662 -2.81845 2.19768 0
M  V30 196 C 18.5322 -2.60345 3.68146 0
M  V30 197 C 17.1942 -2.5419 4.08584 0
M  V30 198 C 19.5462 -2.40923 4.62175 0
M  V30 199 C 16.8742 -2.26594 5.41177 0
M  V30 200 C 19.2262 -2.14852 5.94997 0
M  V30 201 C 17.8902 -2.07137 6.34547 0
M  V30 202 H 17.1602 -0.562299 0.482598 0
M  V30 203 H 19.8072 -0.897069 1.69189 0
M  V30 204 H 18.1122 -3.50328 1.75436 0
M  V30 205 H 19.8092 -3.39692 2.13097 0
M  V30 206 H 16.3992 -2.65996 3.36072 0
M  V30 207 H 20.5832 -2.44673 4.31797 0
M  V30 208 H 15.8392 -2.19111 5.70789 0
M  V30 209 H 20.0132 -1.98822 6.67415 0
M  V30 210 H 17.6402 -1.85518 7.37216 0
M  V30 211 N 19.2153 -1.21501 -1.00376 0
M  V30 212 C 20.6263 -1.03146 -1.55621 0
M  V30 213 C 20.9773 0.408375 -1.91903 0
M  V30 214 O 20.1023 1.29177 -1.73616 0
M  V30 215 C 20.6973 -1.86612 -2.82775 0
M  V30 216 C 19.2563 -1.72586 -3.34501 0
M  V30 217 C 18.4033 -1.83747 -2.07683 0
M  V30 218 H 21.3543 -1.35505 -0.826081 0
M  V30 219 H 21.3753 -1.3771 -3.54706 0
M  V30 220 H 20.8873 -2.91399 -2.56336 0
M  V30 221 H 18.9883 -0.704877 -3.65872 0
M  V30 222 H 19.1013 -2.54623 -4.05837 0
M  V30 223 H 17.4653 -1.27069 -2.20739 0
M  V30 224 H 18.2483 -2.90044 -1.83655 0
M  V30 225 N 20.6934 1.19889 -1.02296 0
M  V30 226 C 22.1094 1.41462 -0.738954 0
M  V30 227 C 22.3094 1.89721 0.678846 0
M  V30 228 O 21.3654 2.07016 1.4457 0
M  V30 229 C 22.6784 2.43083 -1.77005 0
M  V30 230 C 24.2264 2.5684 -1.78892 0
M  V30 231 C 24.7014 3.61709 -2.80945 0
M  V30 232 N 26.1924 3.69199 -2.79725 0
M  V30 233 C 26.9274 4.50019 -3.55345 0
M  V30 234 N 26.4234 5.34592 -4.40662 0
M  V30 235 N 28.2164 4.44612 -3.43914 0
M  V30 236 H 20.3674 0.868827 -1.93817 0
M  V30 237 H 22.6304 0.44399 -0.837602 0
M  V30 238 H 22.3364 2.14636 -2.78612 0
M  V30 239 H 22.2104 3.4217 -1.58744 0
M  V30 240 H 24.5974 2.84614 -0.779674 0
M  V30 241 H 24.6784 1.57927 -2.01228 0
M  V30 242 H 24.3224 3.34678 -3.82038 0
M  V30 243 H 24.2524 4.60259 -2.5587 0
M  V30 244 H 26.7434 3.08794 -2.17842 0
M  V30 245 H 27.0564 5.93363 -4.95116 0
M  V30 246 H 25.4014 5.34073 -4.44737 0
M  V30 247 H 28.5924 3.7758 -2.76679 0
M  V30 248 H 28.7654 5.0736 -4.031 0
M  V30 249 N 22.1715 0.800033 1.35784 0
M  V30 250 C 23.1015 0.220184 2.3246 0
M  V30 251 C 24.0825 -0.65073 1.57161 0
M  V30 252 O 25.2675 -0.582359 1.85263 0
M  V30 253 C 22.3975 -0.637353 3.41402 0
M  V30 254 C 21.3515 0.134531 4.27789 0
M  V30 255 C 20.6775 -0.844285 5.27992 0
M  V30 256 C 21.9775 1.32979 5.05088 0
M  V30 257 H 23.6715 1.02787 2.81203 0
M  V30 258 H 21.2175 0.495717 1.35199 0
M  V30 259 H 23.1705 -1.05302 4.08031 0
M  V30 260 H 21.8945 -1.47785 2.91251 0
M  V30 261 H 20.5535 0.531296 3.6273 0
M  V30 262 H 20.2015 -1.68011 4.74111 0
M  V30 263 H 19.9015 -0.332184 5.8666 0
M  V30 264 H 21.4255 -1.2583 5.97494 0
M  V30 265 H 22.8395 0.98934 5.64699 0
M  V30 266 H 21.2365 1.77593 5.7322 0
M  V30 267 H 22.3065 2.11978 4.36111 0
M  V30 268 N 23.6496 -1.47581 0.552962 0
M  V30 269 C 24.6126 -2.28439 -0.186605 0
M  V30 270 C 25.6126 -1.36706 -0.84665 0
M  V30 271 O 26.8026 -1.59378 -0.703164 0
M  V30 272 C 23.9346 -3.16264 -1.2724 0
M  V30 273 H 25.1276 -2.95294 0.523609 0
M  V30 274 H 22.6806 -1.532 0.309745 0
M  V30 275 H 23.4156 -2.54091 -2.01514 0
M  V30 276 H 23.2006 -3.83769 -0.803968 0
M  V30 277 H 24.6906 -3.77198 -1.79196 0
M  V30 278 N 25.1277 -0.289203 -1.54924 0
M  V30 279 C 26.0747 0.592115 -2.23075 0
M  V30 280 C 27.0447 1.13881 -1.20915 0
M  V30 281 O 28.2297 1.18551 -1.495 0
M  V30 282 C 25.3697 1.76376 -2.96623 0
M  V30 283 C 24.4827 1.24959 -4.13533 0
M  V30 284 C 23.6177 2.38416 -4.74691 0
M  V30 285 C 22.6567 1.84072 -5.83767 0
M  V30 286 N 21.7937 2.91057 -6.38929 0
M  V30 287 H 26.6337 0.00432038 -2.98 0
M  V30 288 H 24.1707 -0.00963529 -1.47097 0
M  V30 289 H 26.1287 2.45268 -3.3749 0
M  V30 290 H 24.7587 2.32337 -2.24097 0
M  V30 291 H 23.8107 0.453307 -3.77689 0
M  V30 292 H 25.1227 0.811662 -4.92152 0
M  V30 293 H 24.2767 3.15276 -5.18349 0
M  V30 294 H 23.0157 2.8553 -3.95378 0
M  V30 295 H 22.0207 1.05697 -5.39545 0
M  V30 296 H 23.2457 1.37877 -6.64956 0
M  V30 297 H 21.1917 3.37526 -5.62505 0
M  V30 298 H 21.1087 2.51724 -7.12861 0
M  V30 299 H 22.3767 3.6785 -6.87246 0
M  V30 300 N 26.6058 1.57591 -0.0167156 0
M  V30 301 C 27.8338 1.95575 0.675128 0
M  V30 302 C 28.2488 0.892542 1.6637 0
M  V30 303 O 27.6058 -0.126912 1.82058 0
M  V30 304 C 27.6568 3.33608 1.39239 0
M  V30 305 O 27.3778 4.3585 0.443444 0
M  V30 306 C 28.8788 3.86151 2.17721 0
M  V30 307 H 26.0988 0.644423 0.186978 0
M  V30 308 H 28.6428 2.0437 -0.0728 0
M  V30 309 H 26.7978 3.2607 2.09182 0
M  V30 310 H 27.2118 5.158 0.951358 0
M  V30 311 H 28.6858 4.85114 2.63379 0
M  V30 312 H 29.1628 3.19738 3.01105 0
M  V30 313 H 29.7688 3.96918 1.52761 0
M  V30 314 N 28.0839 -0.256276 1.55502 0
M  V30 315 C 29.3319 -0.983672 1.76545 0
M  V30 316 C 29.6529 -1.86206 0.578982 0
M  V30 317 O 28.9229 -1.91656 -0.405577 0
M  V30 318 H 27.5029 -0.366191 0.651086 0
M  V30 319 H 30.1649 -0.276479 1.92929 0
M  V30 320 H 29.2609 -1.61087 2.67315 0
M  V30 321 N 29.562 -1.4872 -0.521534 0
M  V30 322 C 30.839 -1.4766 -1.2828 0
M  V30 323 C 31.219 -0.19292 -2.10217 0
M  V30 324 O 30.567 0.825193 -2.13079 0
M  V30 325 C 30.777 -2.74358 -2.15705 0
M  V30 326 C 32.125 -3.23028 -2.75569 0
M  V30 327 O 33.149 -2.75333 -2.25987 0
M  V30 328 O 32.008 -4.0604 -3.65778 0
M  V30 329 H 29.102 -0.590085 -0.579421 0
M  V30 330 H 31.648 -1.60963 -0.537492 0
M  V30 331 H 30.42 -3.59292 -1.54999 0
M  V30 332 H 30.043 -2.63816 -2.97467 0
M  V30 333 N 31.0401 0.771051 -1.3745 0
M  V30 334 C 31.9901 1.87456 -1.29785 0
M  V30 335 C 32.9741 1.59827 -0.185541 0
M  V30 336 O 34.1661 1.71945 -0.419997 0
M  V30 337 C 31.2951 3.24935 -1.1078 0
M  V30 338 C 30.3811 3.58514 -2.26558 0
M  V30 339 N 30.7721 3.6327 -3.5195 0
M  V30 340 C 29.0701 3.88683 -2.18727 0
M  V30 341 C 29.7711 3.93616 -4.283 0
M  V30 342 N 28.7471 4.09551 -3.57448 0
M  V30 343 H 32.5491 1.89386 -2.24745 0
M  V30 344 H 30.0631 0.967531 -1.30432 0
M  V30 345 H 32.0601 4.03881 -1.03374 0
M  V30 346 H 30.7201 3.24268 -0.16738 0
M  V30 347 H 31.7311 3.45458 -3.85848 0
M  V30 348 H 28.4081 3.95834 -1.32746 0
M  V30 349 H 29.7981 4.04066 -5.36824 0
M  V30 350 N 32.5182 1.22032 0.997298 0
M  V30 351 C 33.9342 0.979326 1.26021 0
M  V30 352 C 34.1342 -0.32972 1.98784 0
M  V30 353 O 33.1902 -1.05345 2.29475 0
M  V30 354 C 34.5032 2.17509 2.07631 0
M  V30 355 C 36.0512 2.21817 2.2083 0
M  V30 356 C 36.5262 3.40933 3.05825 0
M  V30 357 N 38.0172 3.41067 3.13412 0
M  V30 358 C 38.7522 4.29885 3.79455 0
M  V30 359 N 38.2482 5.28914 4.47462 0
M  V30 360 N 40.0412 4.17673 3.76173 0
M  V30 361 H 32.1922 2.06202 0.509352 0
M  V30 362 H 34.4552 0.90334 0.287541 0
M  V30 363 H 34.1612 3.12415 1.61524 0
M  V30 364 H 34.0352 2.17206 3.08385 0
M  V30 365 H 36.4222 1.27462 2.66153 0
M  V30 366 H 36.5032 2.2616 1.1952 0
M  V30 367 H 36.1472 4.35586 2.61203 0
M  V30 368 H 36.0772 3.33829 4.07266 0
M  V30 369 H 38.5682 2.69406 2.65007 0
M  V30 370 H 38.8812 5.92973 4.95583 0
M  V30 371 H 37.2262 5.32831 4.46224 0
M  V30 372 H 40.4172 3.39564 3.22202 0
M  V30 373 H 40.5902 4.87098 4.27363 0
M  V30 374 N 33.9963 -1.19345 1.0293 0
M  V30 375 C 35.4123 -1.41069 0.746446 0
M  V30 376 C 35.6123 -1.90078 -0.668776 0
M  V30 377 O 34.6683 -2.0778 -1.4347 0
M  V30 378 C 35.9813 -2.42141 1.78292 0
M  V30 379 C 37.5293 -2.55887 1.80252 0
M  V30 380 C 38.0043 -3.60214 2.8286 0
M  V30 381 N 39.4953 -3.67711 2.81679 0
M  V30 382 C 40.2303 -4.48128 3.57727 0
M  V30 383 N 39.7263 -5.32248 4.43491 0
M  V30 384 N 41.5193 -4.42782 3.46267 0
M  V30 385 H 33.6703 -0.858536 1.94275 0
M  V30 386 H 35.9333 -0.439541 0.839945 0
M  V30 387 H 35.6393 -2.13155 2.79746 0
M  V30 388 H 35.5133 -3.41323 1.60557 0
M  V30 389 H 37.9003 -2.84196 0.794757 0
M  V30 390 H 37.9813 -1.56858 2.02062 0
M  V30 391 H 37.6253 -3.32647 3.83807 0
M  V30 392 H 37.5553 -4.58895 2.58307 0
M  V30 393 H 40.0463 -3.07634 2.19476 0
M  V30 394 H 40.3593 -5.90729 4.98256 0
M  V30 395 H 38.7043 -5.31707 4.47564 0
M  V30 396 H 41.8953 -3.76107 2.78677 0
M  V30 397 H 42.0683 -5.05215 4.05785 0
M  V30 398 N 35.4744 -0.807222 -1.35358 0
M  V30 399 C 36.7234 -0.384376 -1.98004 0
M  V30 400 C 37.0364 1.0543 -1.64754 0
M  V30 401 O 38.2424 1.58029 -2.20769 0
M  V30 402 C 36.6984 -0.636326 -3.5423 0
M  V30 403 C 36.3064 -2.08759 -3.96388 0
M  V30 404 C 38.0504 -0.278869 -4.23583 0
M  V30 405 C 35.9574 -2.28525 -5.45463 0
M  V30 406 H 34.8874 -0.139986 -0.740891 0
M  V30 407 H 37.5384 -0.991369 -1.54415 0
M  V30 408 H 35.9204 0.0406256 -3.95979 0
M  V30 409 H 37.0944 -2.8024 -3.6579 0
M  V30 410 H 35.4094 -2.40497 -3.39926 0
M  V30 411 H 38.0064 -0.404599 -5.33167 0
M  V30 412 H 38.3494 0.775012 -4.09022 0
M  V30 413 H 38.8824 -0.909764 -3.87257 0
M  V30 414 H 35.6214 -3.32361 -5.64992 0
M  V30 415 H 35.1414 -1.61569 -5.77629 0
M  V30 416 H 36.8204 -2.10109 -6.11934 0
M  V30 417 N 36.9525 1.47285 -0.560781 0
M  V30 418 C 37.8825 2.32857 0.173105 0
M  V30 419 C 38.8635 1.44009 0.905281 0
M  V30 420 O 40.0485 1.7286 0.885046 0
M  V30 421 C 37.1785 3.25861 1.20133 0
M  V30 422 C 36.1325 4.23978 0.585388 0
M  V30 423 C 35.4585 5.06332 1.7185 0
M  V30 424 C 36.7585 5.20242 -0.463178 0
M  V30 425 H 38.4525 2.94466 -0.541307 0
M  V30 426 H 35.9985 1.41601 -0.261764 0
M  V30 427 H 37.9515 3.84569 1.72293 0
M  V30 428 H 36.6755 2.62315 1.94573 0
M  V30 429 H 35.3345 3.66501 0.085054 0
M  V30 430 H 34.9825 4.39186 2.45203 0
M  V30 431 H 34.6825 5.72762 1.31213 0
M  V30 432 H 36.2065 5.67899 2.24329 0
M  V30 433 H 37.6205 5.73293 -0.027502 0
M  V30 434 H 36.0175 5.94896 -0.788627 0
M  V30 435 H 37.0875 4.65504 -1.35773 0
M  V30 436 N 38.4306 0.297415 1.54768 0
M  V30 437 C 39.6586 -0.315623 2.04478 0
M  V30 438 C 40.0736 -1.47792 1.17486 0
M  V30 439 O 39.4306 -1.81404 0.19971 0
M  V30 440 C 39.4816 -0.7753 3.53088 0
M  V30 441 O 39.2026 0.340732 4.36773 0
M  V30 442 C 40.7036 -1.45386 4.18781 0
M  V30 443 H 37.9236 -0.0690887 0.667434 0
M  V30 444 H 40.4676 0.436003 1.99798 0
M  V30 445 H 38.6226 -1.47696 3.58141 0
M  V30 446 H 39.0366 -0.0165035 5.24497 0
M  V30 447 H 40.5106 -1.72669 5.24299 0
M  V30 448 H 40.9876 -2.39275 3.68299 0
M  V30 449 H 41.5936 -0.795475 4.17795 0
M  V30 450 N 39.9087 -1.5758 0.0250728 0
M  V30 451 C 40.8387 -2.13007 -0.956575 0
M  V30 452 C 41.8197 -1.0452 -1.342 0
M  V30 453 O 43.0047 -1.32332 -1.42133 0
M  V30 454 C 40.1347 -2.65386 -2.24026 0
M  V30 455 C 39.0887 -3.78623 -1.99571 0
M  V30 456 C 38.4147 -4.17414 -3.3417 0
M  V30 457 C 39.7147 -5.04867 -1.33814 0
M  V30 458 H 41.4087 -2.9528 -0.494991 0
M  V30 459 H 38.9547 -1.42042 -0.236651 0
M  V30 460 H 40.9077 -3.02794 -2.93076 0
M  V30 461 H 39.6317 -1.80268 -2.72343 0
M  V30 462 H 38.2907 -3.41646 -1.32941 0
M  V30 463 H 37.9387 -3.29284 -3.80238 0
M  V30 464 H 37.6387 -4.93719 -3.18615 0
M  V30 465 H 39.1627 -4.57402 -4.04495 0
M  V30 466 H 40.5767 -5.39888 -1.92857 0
M  V30 467 H 38.9737 -5.86144 -1.28669 0
M  V30 468 H 40.0437 -4.83904 -0.310561 0
M  V30 469 N 41.3868 0.248026 -1.55636 0
M  V30 470 C 42.3168 1.31079 -1.93237 0
M  V30 471 C 43.2978 1.50264 -0.797174 0
M  V30 472 O 44.4828 1.62891 -1.05737 0
M  V30 473 C 41.6128 2.66575 -2.22609 0
M  V30 474 C 40.5668 2.62087 -3.3837 0
M  V30 475 C 39.8928 4.01369 -3.53281 0
M  V30 476 C 41.1928 2.19171 -4.7409 0
M  V30 477 H 42.8868 0.998556 -2.82257 0
M  V30 478 H 40.4328 0.47891 -1.35803 0
M  V30 479 H 42.3858 3.41057 -2.47503 0
M  V30 480 H 41.1098 2.99432 -1.30414 0
M  V30 481 H 39.7688 1.90063 -3.13483 0
M  V30 482 H 39.4168 4.31489 -2.58508 0
M  V30 483 H 39.1168 3.99254 -4.31127 0
M  V30 484 H 40.6408 4.77552 -3.80495 0
M  V30 485 H 42.0548 2.83384 -4.98363 0
M  V30 486 H 40.4518 2.2817 -5.5503 0
M  V30 487 H 41.5218 1.14336 -4.71227 0
M  V30 488 N 42.8649 1.48995 0.513639 0
M  V30 489 C 43.8149 1.61127 1.61314 0
M  V30 490 C 44.7989 0.467521 1.53958 0
M  V30 491 O 45.9909 0.719826 1.61702 0
M  V30 492 C 43.1199 1.66937 2.99978 0
M  V30 493 C 42.2059 2.86847 3.12377 0
M  V30 494 N 42.5969 4.11078 2.94701 0
M  V30 495 C 40.8949 2.84521 3.43459 0
M  V30 496 C 41.5959 4.91615 3.10949 0
M  V30 497 N 40.5719 4.24739 3.3926 0
M  V30 498 H 44.3739 2.54909 1.46282 0
M  V30 499 H 41.8879 1.45593 0.719483 0
M  V30 500 H 43.8849 1.73725 3.78979 0
M  V30 501 H 42.5449 0.742831 3.16089 0
M  V30 502 H 43.5559 4.41258 2.71131 0
M  V30 503 H 40.2329 2.01192 3.65825 0
M  V30 504 H 41.6229 6.00264 3.01882 0
M  V30 505 N 44.343 -0.763751 1.37857 0
M  V30 506 C 45.306 -1.85889 1.34081 0
M  V30 507 C 46.306 -1.58949 0.243277 0
M  V30 508 O 47.496 -1.66882 0.499589 0
M  V30 509 C 44.628 -3.23176 1.08489 0
M  V30 510 H 45.821 -1.90648 2.31502 0
M  V30 511 H 43.374 -0.964367 1.23003 0
M  V30 512 H 44.109 -3.24091 0.116318 0
M  V30 513 H 43.894 -3.44124 1.8794 0
M  V30 514 H 45.384 -4.03254 1.08517 0
M  V30 515 N 45.8211 -1.22559 -0.990812 0
M  V30 516 C 46.7511 -1.0218 -2.09956 0
M  V30 517 C 47.7321 0.0579394 -1.70001 0
M  V30 518 O 48.9171 -0.104684 -1.93918 0
M  V30 519 C 46.0471 -0.601023 -3.4206 0
M  V30 520 C 45.0011 -1.62694 -3.95872 0
M  V30 521 C 44.3271 -1.06193 -5.24049 0
M  V30 522 C 45.6271 -3.01743 -4.2632 0
M  V30 523 H 47.3211 -1.94916 -2.27262 0
M  V30 524 H 44.8671 -0.938566 -1.09211 0
M  V30 525 H 46.8201 -0.445561 -4.19038 0
M  V30 526 H 45.5441 0.362005 -3.24588 0
M  V30 527 H 44.2031 -1.77021 -3.21028 0
M  V30 528 H 43.8511 -0.0901903 -5.02919 0
M  V30 529 H 43.5511 -1.74732 -5.61019 0
M  V30 530 H 45.0751 -0.918092 -6.03658 0
M  V30 531 H 46.4891 -2.90777 -4.94087 0
M  V30 532 H 44.8861 -3.67425 -4.74467 0
M  V30 533 H 45.9561 -3.51518 -3.34011 0
M  V30 534 N 47.2992 1.18797 -1.03562 0
M  V30 535 C 48.5472 1.88278 -0.734569 0
M  V30 536 C 48.8682 1.8043 0.739586 0
M  V30 537 O 48.1382 1.21925 1.53333 0
M  V30 538 H 46.7182 0.696991 -0.268725 0
M  V30 539 H 49.3802 1.44192 -1.31129 0
M  V30 540 H 48.4762 2.94443 -1.03489 0
M  V30 541 N 48.7773 0.814389 1.34928 0
M  V30 542 C 49.7253 0.218424 2.31572 0
M  V30 543 C 50.7193 -0.636128 1.57002 0
M  V30 544 O 51.9253 -0.52842 1.72069 0
M  V30 545 H 48.3003 0.0518799 0.750208 0
M  V30 546 H 50.2713 1.04852 2.79372 0
M  V30 547 C 49.0203 -0.61207 3.4227 0
M  V30 548 H 48.3433 0.0361578 3.99784 0
M  V30 549 H 49.7833 -0.995317 4.12152 0
M  V30 550 C 48.2423 -1.78087 2.85984 0
M  V30 551 O 48.7723 -2.8787 2.80168 0
M  V30 552 N 46.9783 -1.59488 2.42924 0
M  V30 553 H 46.5253 -0.701874 2.47854 0
M  V30 554 H 46.4833 -2.37846 2.05613 0
M  V30 555 N 50.2554 -1.46986 0.568584 0
M  V30 556 C 51.6664 -1.86188 0.138219 0
M  V30 557 C 52.0174 -1.47388 -1.29504 0
M  V30 558 O 51.1424 -0.88219 -1.97602 0
M  V30 559 C 51.7374 -3.3792 0.244065 0
M  V30 560 C 50.2964 -3.76171 -0.131335 0
M  V30 561 C 49.4434 -2.71027 0.586465 0
M  V30 562 H 52.3944 -1.38342 0.777645 0
M  V30 563 H 52.4154 -3.76729 -0.534351 0
M  V30 564 H 51.9274 -3.66128 1.28731 0
M  V30 565 H 50.0284 -3.5358 -1.17526 0
M  V30 566 H 50.1414 -4.78523 0.235146 0
M  V30 567 H 48.5054 -2.54684 0.0282722 0
M  V30 568 H 49.2884 -3.02077 1.63109 0
M  V30 569 N 51.7335 -0.305618 -1.54608 0
M  V30 570 C 52.6655 0.602161 -2.21149 0
M  V30 571 C 53.6785 1.09394 -1.20569 0
M  V30 572 O 54.8675 1.0106 -1.47136 0
M  V30 573 C 51.9675 1.83692 -2.84799 0
M  V30 574 C 51.1405 1.48686 -4.11353 0
M  V30 575 C 50.1995 2.57725 -4.58764 0
M  V30 576 O 49.2255 2.22623 -5.23858 0
M  V30 577 N 50.4275 3.88346 -4.31471 0
M  V30 578 H 53.1925 0.0324966 -2.99682 0
M  V30 579 H 50.7535 -0.128021 -1.61393 0
M  V30 580 H 52.7455 2.55994 -3.13448 0
M  V30 581 H 51.3155 2.31486 -2.10078 0
M  V30 582 H 50.5355 0.596269 -3.89664 0
M  V30 583 H 51.8235 1.22842 -4.93748 0
M  V30 584 H 51.2215 4.19671 -3.79331 0
M  V30 585 H 49.7785 4.56932 -4.64818 0
M  V30 586 N 53.2116 1.57565 -0.0334293 0
M  V30 587 C 54.1436 2.0739 0.975811 0
M  V30 588 C 55.1566 0.998166 1.2861 0
M  V30 589 O 56.3456 1.27426 1.25 0
M  V30 590 C 53.4456 2.4871 2.30209 0
M  V30 591 C 52.6186 3.79413 2.17634 0
M  V30 592 C 51.6776 4.07237 3.33233 0
M  V30 593 O 50.7036 4.77425 3.09927 0
M  V30 594 N 51.9056 3.5775 4.5716 0
M  V30 595 H 54.6706 2.94598 0.55066 0
M  V30 596 H 52.2316 1.61173 0.15323 0
M  V30 597 H 54.2236 2.64413 3.06378 0
M  V30 598 H 52.7936 1.66845 2.64351 0
M  V30 599 H 52.0136 3.73465 1.26165 0
M  V30 600 H 53.3016 4.65038 2.0644 0
M  V30 601 H 52.6996 3.00976 4.78989 0
M  V30 602 H 51.2566 3.78724 5.30482 0
M  V30 603 N 54.6897 -0.239769 1.55765 0
M  V30 604 C 55.6217 -1.32001 1.87372 0
M  V30 605 C 56.6347 -1.43944 0.760522 0
M  V30 606 O 57.8237 -1.45167 1.0387 0
M  V30 607 C 54.9237 -2.69779 2.05115 0
M  V30 608 C 54.0967 -2.80014 3.36022 0
M  V30 609 C 53.1557 -3.98684 3.4342 0
M  V30 610 O 52.1817 -3.87877 4.16582 0
M  V30 611 N 53.3837 -5.12176 2.73232 0
M  V30 612 H 56.1487 -1.0522 2.80622 0
M  V30 613 H 53.7097 -0.429857 1.56089 0
M  V30 614 H 55.7017 -3.47517 2.07399 0
M  V30 615 H 54.2717 -2.89237 1.18577 0
M  V30 616 H 53.4917 -1.88896 3.45994 0
M  V30 617 H 54.7797 -2.83808 4.22292 0
M  V30 618 H 54.1777 -5.2385 2.13536 0
M  V30 619 H 52.7347 -5.88022 2.81199 0
M  V30 620 N 56.1678 -1.49265 -0.50573 0
M  V30 621 C 57.4158 -1.582 -1.25766 0
M  V30 622 C 57.7368 -0.268482 -1.93143 0
M  V30 623 O 57.0068 0.711833 -1.8251 0
M  V30 624 H 55.5868 -0.582873 -0.467191 0
M  V30 625 H 58.2488 -1.85865 -0.586525 0
M  V30 626 H 57.3448 -2.37563 -2.02412 0
M  V30 627 N 57.6459 0.756429 -1.3826 0
M  V30 628 C 59.0619 1.0591 -1.19395 0
M  V30 629 C 59.2619 2.01459 -0.0406567 0
M  V30 630 O 58.3179 2.44909 0.614467 0
M  V30 631 C 59.6309 1.64191 -2.51916 0
M  V30 632 C 61.1789 1.76376 -2.58574 0
M  V30 633 C 61.6539 2.38069 -3.91264 0
M  V30 634 N 63.1449 2.45503 -3.92788 0
M  V30 635 C 63.8799 2.94126 -4.92217 0
M  V30 636 N 63.3759 3.42805 -6.02043 0
M  V30 637 N 65.1689 2.9314 -4.7961 0
M  V30 638 H 57.3199 0.122313 -2.12048 0
M  V30 639 H 59.5829 0.116892 -0.940766 0
M  V30 640 H 59.2889 1.01451 -3.3675 0
M  V30 641 H 59.1629 2.6329 -2.70108 0
M  V30 642 H 61.5499 2.38244 -1.74137 0
M  V30 643 H 61.6309 0.759894 -2.44252 0
M  V30 644 H 61.2749 1.76835 -4.76121 0
M  V30 645 H 61.2049 3.39091 -4.02895 0
M  V30 646 H 63.6959 2.1107 -3.13461 0
M  V30 647 H 64.0089 3.78354 -6.73846 0
M  V30 648 H 62.3539 3.4087 -6.05667 0
M  V30 649 H 65.5449 2.54419 -3.92923 0
M  V30 650 H 65.7179 3.30721 -5.5725 0
M  V30 651 N 59.124 1.23083 0.984299 0
M  V30 652 C 60.354 1.08556 1.75781 0
M  V30 653 C 60.762 -0.366171 1.85623 0
M  V30 654 O 60.105 -1.26524 1.33182 0
M  V30 655 C 60.167 1.63208 3.20318 0
M  V30 656 C 59.831 3.11922 3.33997 0
M  V30 657 C 60.828 4.09259 3.2063 0
M  V30 658 C 58.513 3.51552 3.58771 0
M  V30 659 C 60.507 5.4421 3.31835 0
M  V30 660 C 58.194 4.86649 3.69616 0
M  V30 661 C 59.192 5.82787 3.56157 0
M  V30 662 O 58.88 7.15431 3.66626 0
M  V30 663 H 58.612 0.380713 0.5586 0
M  V30 664 H 61.166 1.63321 1.2456 0
M  V30 665 H 59.396 1.0286 3.72769 0
M  V30 666 H 61.085 1.44216 3.79416 0
M  V30 667 H 61.851 3.79984 3.01392 0
M  V30 668 H 57.73 2.77239 3.6832 0
M  V30 669 H 61.274 6.1923 3.21247 0
M  V30 670 H 57.171 5.15601 3.88363 0
M  V30 671 H 57.939 7.23127 3.83445 0
M  V30 672 N 60.6021 -1.18246 1.0419 0
M  V30 673 C 61.8511 -1.87588 0.741194 0
M  V30 674 C 62.1641 -1.81303 -0.734066 0
M  V30 675 O 63.3701 -2.46019 -1.14834 0
M  V30 676 C 61.8261 -3.36538 1.27555 0
M  V30 677 C 61.4341 -3.51349 2.77953 0
M  V30 678 C 63.1781 -4.11273 1.05143 0
M  V30 679 C 61.0851 -4.94265 3.2474 0
M  V30 680 H 60.0151 -0.702622 0.273565 0
M  V30 681 H 62.6661 -1.33601 1.25789 0
M  V30 682 H 61.0481 -3.9 0.686703 0
M  V30 683 H 62.2221 -3.08153 3.42605 0
M  V30 684 H 60.5371 -2.90022 2.98791 0
M  V30 685 H 63.1341 -5.16689 1.37611 0
M  V30 686 H 63.4771 -4.16298 -0.0112774 0
M  V30 687 H 64.0101 -3.63987 1.60495 0
M  V30 688 H 60.7491 -4.94408 4.30396 0
M  V30 689 H 60.2691 -5.38172 2.64823 0
M  V30 690 H 61.9481 -5.62987 3.18834 0
M  V30 691 N 62.0802 -0.821533 -1.34494 0
M  V30 692 C 63.0302 -0.214793 -2.26986 0
M  V30 693 C 64.0142 0.620125 -1.4847 0
M  V30 694 O 65.2062 0.474933 -1.70509 0
M  V30 695 C 62.3352 0.623566 -3.37589 0
M  V30 696 C 61.4212 -0.221904 -4.23519 0
M  V30 697 N 61.8122 -1.29223 -4.89014 0
M  V30 698 C 60.1102 -0.00600922 -4.46 0
M  V30 699 C 60.8112 -1.80965 -5.52835 0
M  V30 700 N 59.7872 -1.11376 -5.32068 0
M  V30 701 H 63.5892 -1.03354 -2.75128 0
M  V30 702 H 61.1032 -0.6642 -1.48196 0
M  V30 703 H 63.1002 1.0744 -4.02818 0
M  V30 704 H 61.7602 1.44049 -2.90998 0
M  V30 705 H 62.7712 -1.67502 -4.90065 0
M  V30 706 H 59.4482 0.77886 -4.10171 0
M  V30 707 H 60.8382 -2.70502 -6.15043 0
M  V30 708 N 63.5583 1.46682 -0.576371 0
M  V30 709 C 64.8043 2.02712 -0.0596221 0
M  V30 710 C 65.1373 1.44765 1.29448 0
M  V30 711 O 64.4123 0.610355 1.84675 0
M  V30 712 C 64.6953 3.60098 0.0129503 0
M  V30 713 C 64.5483 4.28441 -1.3696 0
M  V30 714 C 65.8673 4.34224 0.71678 0
M  V30 715 H 62.9863 0.736637 -0.0231407 0
M  V30 716 H 65.6283 1.74898 -0.742351 0
M  V30 717 H 63.7783 3.83926 0.594378 0
M  V30 718 H 65.4503 4.15896 -1.9957 0
M  V30 719 H 63.6933 3.8805 -1.93907 0
M  V30 720 H 64.3643 5.3716 -1.27135 0
M  V30 721 H 66.8403 4.15503 0.222908 0
M  V30 722 H 65.7163 5.43936 0.73657 0
M  V30 723 H 65.9773 4.04823 1.77682 0
M  V30 724 N 65.0364 0.313813 1.54444 0
M  V30 725 C 66.2644 -0.293918 2.04802 0
M  V30 726 C 66.6794 -1.46537 1.19047 0
M  V30 727 O 66.0364 -1.81182 0.218939 0
M  V30 728 C 66.0874 -0.737806 3.53891 0
M  V30 729 O 65.8084 0.387038 4.36387 0
M  V30 730 C 67.3094 -1.40936 4.203 0
M  V30 731 H 64.5294 -0.0620057 0.668129 0
M  V30 732 H 67.0734 0.457169 1.99324 0
M  V30 733 H 65.2284 -1.43889 3.59687 0
M  V30 734 H 65.6424 0.0391274 5.24485 0
M  V30 735 H 67.1164 -1.67099 5.26101 0
M  V30 736 H 67.5934 -2.35355 3.70816 0
M  V30 737 H 68.1994 -0.751117 4.18615 0
M  V30 738 N 66.5145 -1.57545 0.0417849 0
M  V30 739 C 67.7625 -1.91937 -0.632829 0
M  V30 740 C 68.0835 -0.919978 -1.71934 0
M  V30 741 O 67.3535 0.0366064 -1.95866 0
M  V30 742 H 65.9335 -0.708493 -0.236742 0
M  V30 743 H 68.5955 -1.9468 0.0925745 0
M  V30 744 H 67.6915 -2.92912 -1.07746 0
M  V30 745 N 67.9926 0.231505 -1.5589 0
M  V30 746 C 69.2206 0.974505 -1.82513 0
M  V30 747 C 69.6356 1.78344 -0.619591 0
M  V30 748 O 68.9926 1.77792 0.411848 0
M  V30 749 C 69.0436 1.90007 -3.07538 0
M  V30 750 O 68.7646 1.12385 -4.2344 0
M  V30 751 C 70.2656 2.75779 -3.47075 0
M  V30 752 H 67.4856 0.286065 -0.606966 0
M  V30 753 H 70.0296 0.249739 -2.02969 0
M  V30 754 H 68.1846 2.57891 -2.89086 0
M  V30 755 H 68.5986 1.75125 -4.944 0
M  V30 756 H 70.0726 3.36443 -4.37619 0
M  V30 757 H 70.5496 3.47672 -2.68367 0
M  V30 758 H 71.1556 2.13323 -3.67931 0
M  V30 759 N 69.4707 1.49531 0.497807 0
M  V30 760 C 70.4187 1.66926 1.61983 0
M  V30 761 C 71.4127 0.535167 1.60724 0
M  V30 762 O 72.6187 0.714896 1.65195 0
M  V30 763 H 68.9937 0.526415 0.537021 0
M  V30 764 H 70.9647 2.61098 1.44465 0
M  V30 765 C 69.7137 1.75602 3.00099 0
M  V30 766 H 69.0367 2.62244 3.01775 0
M  V30 767 H 70.4767 1.91807 3.78135 0
M  V30 768 C 68.9357 0.501543 3.33146 0
M  V30 769 O 69.4657 -0.371342 3.9998 0
M  V30 770 N 67.6717 0.363531 2.88317 0
M  V30 771 H 67.2187 1.07485 2.34104 0
M  V30 772 H 67.1767 -0.474728 3.10795 0
M  V30 773 N 70.9488 -0.749086 1.3866 0
M  V30 774 C 72.1968 -1.50535 1.34847 0
M  V30 775 C 72.5178 -1.94909 -0.0595016 0
M  V30 776 O 71.7878 -1.67973 -1.00806 0
M  V30 777 H 70.3678 -0.558395 0.49619 0
M  V30 778 H 73.0298 -0.890165 1.73384 0
M  V30 779 H 72.1258 -2.39413 2.00219 0
M  V30 780 N 72.4269 -1.23603 -0.977757 0
M  V30 781 C 73.3739 -1.01954 -2.07061 0
M  V30 782 C 74.3439 0.0638697 -1.65977 0
M  V30 783 O 75.5289 -0.0887624 -1.90593 0
M  V30 784 C 72.6689 -0.619658 -3.39491 0
M  V30 785 C 71.7819 -1.77547 -3.93829 0
M  V30 786 C 70.9169 -1.32212 -5.14484 0
M  V30 787 C 69.9559 -2.44852 -5.60994 0
M  V30 788 N 69.0929 -2.00456 -6.72876 0
M  V30 789 H 73.9329 -1.95495 -2.24913 0
M  V30 790 H 71.4699 -0.973861 -1.10247 0
M  V30 791 H 73.4279 -0.368898 -4.15566 0
M  V30 792 H 72.0579 0.278752 -3.21594 0
M  V30 793 H 71.1099 -2.14016 -3.14486 0
M  V30 794 H 72.4219 -2.62219 -4.24314 0
M  V30 795 H 71.5759 -1.02965 -5.97899 0
M  V30 796 H 70.3149 -0.445808 -4.85658 0
M  V30 797 H 69.3199 -2.74871 -4.76157 0
M  V30 798 H 70.5449 -3.33024 -5.91837 0
M  V30 799 H 68.4909 -1.15208 -6.45804 0
M  V30 800 H 68.4079 -2.78687 -7.02759 0
M  V30 801 H 69.6759 -1.7432 -7.59758 0
M  V30 802 N 73.905 1.17692 -1.04816 0
M  V30 803 C 75.153 1.87488 -0.754497 0
M  V30 804 C 75.474 1.81205 0.720407 0
M  V30 805 O 74.744 1.23544 1.52032 0
M  V30 806 H 73.324 0.694101 -0.276102 0
M  V30 807 H 75.986 1.42793 -1.32651 0
M  V30 808 H 75.082 2.93328 -1.06606 0
M  V30 809 N 75.3831 0.828654 1.34056 0
M  V30 810 C 76.6081 0.431637 2.02859 0
M  V30 811 C 77.0331 -0.956339 1.61975 0
M  V30 812 O 76.3911 -1.62338 0.807228 0
M  V30 813 C 76.4391 0.548323 3.56407 0
M  V30 814 O 75.5431 -0.429556 4.10157 0
M  V30 815 H 74.8841 0.176886 0.640006 0
M  V30 816 H 77.4141 1.12066 1.71179 0
M  V30 817 H 77.4241 0.426196 4.05768 0
M  V30 818 H 76.0991 1.5606 3.8551 0
M  V30 819 H 74.6761 -0.265836 3.71951 0
M  V30 820 N 76.8612 -1.46375 0.584142 0
M  V30 821 C 77.8242 -2.28784 -0.138108 0
M  V30 822 C 78.8242 -1.38471 -0.817462 0
M  V30 823 O 80.0142 -1.60833 -0.669199 0
M  V30 824 C 77.1462 -3.18892 -1.20503 0
M  V30 825 H 78.3392 -2.94117 0.586127 0
M  V30 826 H 75.8922 -1.52509 0.342171 0
M  V30 827 H 76.6272 -2.58309 -1.96079 0
M  V30 828 H 76.4122 -3.85388 -0.722384 0
M  V30 829 H 77.9022 -3.80914 -1.71155 0
M  V30 830 N 78.3393 -0.321999 -1.54275 0
M  V30 831 C 79.3023 0.531975 -2.22941 0
M  V30 832 C 80.3023 1.04478 -1.22234 0
M  V30 833 O 81.4923 0.937452 -1.46825 0
M  V30 834 C 78.6243 1.73874 -2.93224 0
M  V30 835 H 79.8173 -0.0682612 -2.99822 0
M  V30 836 H 77.3703 -0.0730644 -1.56129 0
M  V30 837 H 78.1053 2.37825 -2.20476 0
M  V30 838 H 77.8903 1.37847 -3.6707 0
M  V30 839 H 79.3803 2.34496 -3.45545 0
M  V30 840 N 79.8174 1.5752 -0.0501392 0
M  V30 841 C 80.7654 2.12651 0.942459 0
M  V30 842 C 81.7594 1.05807 1.32292 0
M  V30 843 O 82.9654 1.24217 1.3027 0
M  V30 844 H 79.3404 0.679673 0.321789 0
M  V30 845 H 81.3114 2.94951 0.452356 0
M  V30 846 C 80.0604 2.68565 2.20836 0
M  V30 847 H 79.3834 3.50439 1.92439 0
M  V30 848 H 80.8234 3.10761 2.8845 0
M  V30 849 C 79.2824 1.62291 2.95234 0
M  V30 850 O 79.8124 1.03508 3.88135 0
M  V30 851 N 78.0184 1.33836 2.57946 0
M  V30 852 H 77.5654 1.81826 1.82475 0
M  V30 853 H 77.5234 0.629595 3.08032 0
M  V30 854 N 81.2955 -0.223234 1.56011 0
M  V30 855 C 82.2585 -1.26014 1.9145 0
M  V30 856 C 83.2585 -1.3989 0.792937 0
M  V30 857 O 84.4485 -1.38184 1.0607 0
M  V30 858 C 81.5805 -2.63422 2.16383 0
M  V30 859 H 82.7735 -0.95796 2.84189 0
M  V30 860 H 80.3265 -0.463576 1.49267 0
M  V30 861 H 81.0615 -2.98741 1.2619 0
M  V30 862 H 80.8465 -2.54728 2.98088 0
M  V30 863 H 82.3365 -3.38249 2.44903 0
M  V30 864 N 82.7736 -1.49793 -0.48987 0
M  V30 865 C 84.0226 -1.59085 -1.23995 0
M  V30 866 C 84.3356 -0.287907 -1.9347 0
M  V30 867 O 85.5416 -0.259506 -2.70257 0
M  V30 868 C 83.9976 -2.80736 -2.252 0
M  V30 869 C 83.6056 -4.17833 -1.61614 0
M  V30 870 C 85.3496 -2.99364 -3.00967 0
M  V30 871 C 83.2566 -5.30693 -2.60996 0
M  V30 872 H 82.1866 -0.592372 -0.466488 0
M  V30 873 H 84.8376 -1.76197 -0.51252 0
M  V30 874 H 83.2196 -2.57142 -3.01154 0
M  V30 875 H 84.3936 -4.51608 -0.915774 0
M  V30 876 H 82.7086 -4.04656 -0.981977 0
M  V30 877 H 85.3056 -3.80851 -3.75308 0
M  V30 878 H 85.6486 -2.10356 -3.59244 0
M  V30 879 H 86.1816 -3.2305 -2.32128 0
M  V30 880 H 82.9206 -6.21796 -2.07485 0
M  V30 881 H 82.4406 -5.01359 -3.2924 0
M  V30 882 H 84.1196 -5.6049 -3.23202 0
M  V30 883 N 84.2517 0.741722 -1.39055 0
M  V30 884 C 85.2147 1.83733 -1.37021 0
M  V30 885 C 86.2147 1.58542 -0.268534 0
M  V30 886 O 87.4047 1.66067 -0.526076 0
M  V30 887 C 84.5367 3.2141 -1.13617 0
M  V30 888 H 85.7297 1.86941 -2.34506 0
M  V30 889 H 83.2827 0.944676 -1.24521 0
M  V30 890 H 84.0177 3.23865 -0.167863 0
M  V30 891 H 83.8027 3.4109 -1.93391 0
M  V30 892 H 85.2927 4.01477 -1.14918 0
M  V30 893 N 85.7298 1.2412 0.971189 0
M  V30 894 C 86.6798 0.997551 2.05019 0
M  V30 895 C 87.6638 -0.0597747 1.60789 0
M  V30 896 O 88.8558 0.153516 1.76333 0
M  V30 897 C 85.9848 0.600557 3.38006 0
M  V30 898 C 85.0708 1.69377 3.88809 0
M  V30 899 N 85.4618 2.92586 4.12586 0
M  V30 900 C 83.7598 1.57048 4.17435 0
M  V30 901 C 84.4608 3.63431 4.54195 0
M  V30 902 N 83.4368 2.90979 4.59165 0
M  V30 903 H 87.2388 1.93316 2.21374 0
M  V30 904 H 84.7528 1.14194 1.1547 0
M  V30 905 H 86.7498 0.40725 4.14906 0
M  V30 906 H 85.4098 -0.327903 3.2304 0
M  V30 907 H 86.4208 3.288 4.00139 0
M  V30 908 H 83.0978 0.709798 4.11422 0
M  V30 909 H 84.4878 4.69102 4.81033 0
M  V30 910 N 87.2079 -1.17134 1.05439 0
M  V30 911 C 88.4539 -1.87733 0.767077 0
M  V30 912 C 88.7869 -1.8098 -0.704253 0
M  V30 913 O 88.0619 -1.21951 -1.5152 0
M  V30 914 C 88.3449 -3.37659 1.25133 0
M  V30 915 C 88.1979 -3.53149 2.78578 0
M  V30 916 C 89.5169 -4.31768 0.852324 0
M  V30 917 H 86.6359 -0.681687 0.280129 0
M  V30 918 H 89.2779 -1.37732 1.30881 0
M  V30 919 H 87.4279 -3.80373 0.790469 0
M  V30 920 H 89.0999 -3.19434 3.32806 0
M  V30 921 H 87.3429 -2.95345 3.17732 0
M  V30 922 H 88.0139 -4.58403 3.07523 0
M  V30 923 H 90.4899 -3.96909 1.24911 0
M  V30 924 H 89.3659 -5.35199 1.21873 0
M  V30 925 H 89.6269 -4.41429 -0.243485 0
M  V30 926 N 88.686 -0.835752 -1.33615 0
M  V30 927 C 89.616 -0.281739 -2.31794 0
M  V30 928 C 90.597 0.608833 -1.58831 0
M  V30 929 O 91.782 0.533035 -1.86741 0
M  V30 930 C 88.912 0.546612 -3.42971 0
M  V30 931 C 87.866 -0.247904 -4.27281 0
M  V30 932 C 87.192 0.704001 -5.30045 0
M  V30 933 C 88.492 -1.46324 -5.01385 0
M  V30 934 H 90.186 -1.10206 -2.78379 0
M  V30 935 H 87.732 -0.531388 -1.33837 0
M  V30 936 H 89.685 0.944467 -4.1068 0
M  V30 937 H 88.409 1.40011 -2.95067 0
M  V30 938 H 87.068 -0.627281 -3.61194 0
M  V30 939 H 86.716 1.55381 -4.78399 0
M  V30 940 H 86.416 0.176524 -5.87335 0
M  V30 941 H 87.94 1.09944 -6.0062 0
M  V30 942 H 89.354 -1.13871 -5.61877 0
M  V30 943 H 87.751 -1.92728 -5.6831 0
M  V30 944 H 88.821 -2.23467 -4.30338 0
M  V30 945 N 90.1641 1.46063 -0.591896 0
M  V30 946 C 91.0741 2.34192 0.13831 0
M  V30 947 C 92.0901 1.50305 0.876608 0
M  V30 948 O 93.2661 1.8315 0.837728 0
M  V30 949 C 90.3311 3.27656 1.13326 0
M  V30 950 C 89.3921 4.27445 0.39863 0
M  V30 951 C 88.6251 5.16443 1.34618 0
M  V30 952 O 88.8481 5.08553 2.58321 0
M  V30 953 O 87.7821 5.95843 0.851768 0
M  V30 954 H 91.6081 2.98002 -0.58552 0
M  V30 955 H 89.1931 1.45188 -0.352239 0
M  V30 956 H 91.0751 3.85291 1.70671 0
M  V30 957 H 89.7501 2.6643 1.83839 0
M  V30 958 H 88.6571 3.73471 -0.216895 0
M  V30 959 H 89.9901 4.91482 -0.265709 0
M  V30 960 N 91.6422 0.330177 1.54103 0
M  V30 961 C 92.6052 -0.520144 2.2322 0
M  V30 962 C 93.6052 -1.03828 1.22786 0
M  V30 963 O 94.7952 -0.929652 1.4732 0
M  V30 964 C 91.9272 -1.72317 2.94142 0
M  V30 965 H 93.1202 0.0841605 2.99782 0
M  V30 966 H 90.6732 0.0813433 1.56088 0
M  V30 967 H 91.4082 -2.36653 2.21734 0
M  V30 968 H 91.1932 -1.35898 3.67796 0
M  V30 969 H 92.6832 -2.3266 3.46784 0
M  V30 970 N 93.1203 -1.57491 0.0584922 0
M  V30 971 C 94.3453 -1.97711 -0.62652 0
M  V30 972 C 94.7703 -0.936132 -1.63151 0
M  V30 973 O 94.1283 0.099811 -1.81025 0
M  V30 974 C 94.1763 -3.36989 -1.28338 0
M  V30 975 O 93.2803 -3.35433 -2.39913 0
M  V30 976 H 92.6213 -0.643868 -0.162266 0
M  V30 977 H 95.1513 -2.04193 0.129064 0
M  V30 978 H 95.1613 -3.73879 -1.63335 0
M  V30 979 H 93.8363 -4.12289 -0.546889 0
M  V30 980 H 92.4133 -3.10298 -2.06809 0
M  V30 981 N 94.5984 0.214957 -1.56127 0
M  V30 982 C 95.8464 0.936518 -1.79091 0
M  V30 983 C 96.1674 1.84606 -0.628148 0
M  V30 984 O 95.4374 1.92664 0.35462 0
M  V30 985 H 94.0174 0.3488 -0.660566 0
M  V30 986 H 96.6794 0.22523 -1.93594 0
M  V30 987 H 95.7754 1.53943 -2.71492 0
M  V30 988 N 96.0765 1.50051 0.48192 0
M  V30 989 C 97.0065 1.71046 1.58951 0
M  V30 990 C 97.9875 0.559288 1.60642 0
M  V30 991 O 99.1725 0.797243 1.77081 0
M  V30 992 C 96.3025 1.79462 2.97339 0
M  V30 993 C 95.2565 2.94558 3.10515 0
M  V30 994 C 94.5825 2.88105 4.50444 0
M  V30 995 C 95.8825 4.35227 2.88747 0
M  V30 996 H 97.5765 2.6378 1.41635 0
M  V30 997 H 95.1225 1.26936 0.679942 0
M  V30 998 H 97.0755 1.92734 3.74742 0
M  V30 999 H 95.7995 0.833412 3.15788 0
M  V30 1000 H 94.4585 2.80918 2.35543 0
M  V30 1001 H 94.1065 1.89853 4.65795 0
M  V30 1002 H 93.8065 3.65366 4.60197 0
M  V30 1003 H 95.3305 3.03412 5.29881 0
M  V30 1004 H 96.7445 4.49449 3.55905 0
M  V30 1005 H 95.1415 5.13856 3.09955 0
M  V30 1006 H 96.2115 4.48347 1.84696 0
M  V30 1007 N 97.5546 -0.734337 1.39446 0
M  V30 1008 C 98.7826 -1.52358 1.39981 0
M  V30 1009 C 99.1976 -1.88799 -0.0054975 0
M  V30 1010 O 98.5546 -1.54146 -0.976998 0
M  V30 1011 C 98.6056 -2.81072 2.27333 0
M  V30 1012 O 98.3266 -2.46178 3.62392 0
M  V30 1013 C 99.8276 -3.75096 2.36259 0
M  V30 1014 H 97.0476 -0.470806 0.478103 0
M  V30 1015 H 99.5916 -0.907339 1.83269 0
M  V30 1016 H 97.7466 -3.39026 1.87457 0
M  V30 1017 H 98.1606 -3.28866 4.08592 0
M  V30 1018 H 99.6346 -4.62305 3.01626 0
M  V30 1019 H 100.112 -4.16892 1.38194 0
M  V30 1020 H 100.718 -3.23061 2.76608 0
M  V30 1021 N 99.0327 -1.24633 -0.964593 0
M  V30 1022 C 100.279 -1.08949 -1.71049 0
M  V30 1023 C 100.612 0.370302 -1.90637 0
M  V30 1024 O 99.8867 1.27349 -1.47011 0
M  V30 1025 C 100.17 -1.83329 -3.0994 0
M  V30 1026 C 100.023 -3.37077 -2.97824 0
M  V30 1027 C 101.342 -1.60846 -4.09654 0
M  V30 1028 H 98.4607 -0.397178 -0.620821 0
M  V30 1029 H 101.103 -1.5334 -1.12191 0
M  V30 1030 H 99.2527 -1.45597 -3.60186 0
M  V30 1031 H 100.925 -3.84425 -2.5498 0
M  V30 1032 H 99.1677 -3.65298 -2.33965 0
M  V30 1033 H 99.8387 -3.84324 -3.96231 0
M  V30 1034 H 102.315 -1.93674 -3.68279 0
M  V30 1035 H 101.191 -2.1534 -5.04896 0
M  V30 1036 H 101.452 -0.547434 -4.38698 0
M  V30 1037 N 100.511 1.16574 -1.06058 0
M  V30 1038 C 101.759 1.86677 -0.77434 0
M  V30 1039 C 102.08 1.81959 0.701147 0
M  V30 1040 O 101.35 1.2515 1.50713 0
M  V30 1041 H 99.9298 0.691134 -0.283449 0
M  V30 1042 H 102.592 1.41378 -1.34158 0
M  V30 1043 H 101.688 2.92181 -1.09711 0
M  V30 1044 N 101.989 0.842826 1.3317 0
M  V30 1045 C 102.919 0.294028 2.31641 0
M  V30 1046 C 103.9 -0.600401 1.59151 0
M  V30 1047 O 105.085 -0.523124 1.87022 0
M  V30 1048 C 102.215 -0.528416 3.43257 0
M  V30 1049 C 101.169 0.27056 4.27144 0
M  V30 1050 C 100.495 -0.675881 5.30411 0
M  V30 1051 C 101.795 1.48981 5.00602 0
M  V30 1052 H 103.489 1.11681 2.77791 0
M  V30 1053 H 101.035 0.538478 1.33553 0
M  V30 1054 H 102.988 -0.922674 4.11175 0
M  V30 1055 H 101.712 -1.38445 2.95805 0
M  V30 1056 H 100.371 0.646427 3.60856 0
M  V30 1057 H 100.019 -1.52842 4.79216 0
M  V30 1058 H 99.7189 -0.145374 5.8742 0
M  V30 1059 H 101.243 -1.06757 6.01195 0
M  V30 1060 H 102.657 1.16849 5.61266 0
M  V30 1061 H 101.054 1.95739 5.6728 0
M  V30 1062 H 102.124 2.25746 4.29147 0
M  V30 1063 N 103.467 -1.45747 0.599634 0
M  V30 1064 C 104.697 -2.06369 0.0977132 0
M  V30 1065 C 105.105 -1.44624 -1.21985 0
M  V30 1066 O 104.448 -0.551831 -1.75216 0
M  V30 1067 C 104.51 -3.59284 -0.124673 0
M  V30 1068 C 104.174 -4.43318 1.10987 0
M  V30 1069 C 105.171 -4.78796 2.02609 0
M  V30 1070 C 102.856 -4.84194 1.33647 0
M  V30 1071 C 104.85 -5.53997 3.15224 0
M  V30 1072 C 102.537 -5.5915 2.46565 0
M  V30 1073 C 103.535 -5.93968 3.37182 0
M  V30 1074 O 103.223 -6.67405 4.48136 0
M  V30 1075 H 102.955 -0.673122 0.0623153 0
M  V30 1076 H 105.509 -1.88104 0.824981 0
M  V30 1077 H 103.739 -3.75919 -0.906745 0
M  V30 1078 H 105.428 -4.01775 -0.577201 0
M  V30 1079 H 106.194 -4.47781 1.86325 0
M  V30 1080 H 102.073 -4.56534 0.64016 0
M  V30 1081 H 105.617 -5.81091 3.85978 0
M  V30 1082 H 101.514 -5.89579 2.62805 0
M  V30 1083 H 102.282 -6.85847 4.46717 0
M  V30 1084 N 104.945 -0.338344 -1.53925 0
M  V30 1085 C 106.173 0.261298 -2.05243 0
M  V30 1086 C 106.588 1.44625 -1.21363 0
M  V30 1087 O 105.945 1.80811 -0.247736 0
M  V30 1088 C 105.996 0.681412 -3.5502 0
M  V30 1089 O 105.717 -0.456414 -4.35716 0
M  V30 1090 C 107.218 1.34232 -4.22489 0
M  V30 1091 H 104.438 0.0513685 -0.669031 0
M  V30 1092 H 106.982 -0.488822 -1.98572 0
M  V30 1093 H 105.137 1.38148 -3.61931 0
M  V30 1094 H 105.551 -0.122564 -5.24357 0
M  V30 1095 H 107.025 1.58708 -5.28693 0
M  V30 1096 H 107.502 2.29426 -3.74514 0
M  V30 1097 H 108.108 0.684424 -4.19757 0
M  V30 1098 N 106.423 1.57458 -0.0668435 0
M  V30 1099 C 107.648 1.9804 0.616027 0
M  V30 1100 C 108.073 0.944771 1.62652 0
M  V30 1101 O 107.431 -0.0902094 1.81075 0
M  V30 1102 C 107.479 3.37665 1.26549 0
M  V30 1103 O 106.583 3.36701 2.38131 0
M  V30 1104 H 105.924 0.644719 0.158849 0
M  V30 1105 H 108.454 2.04121 -0.139891 0
M  V30 1106 H 108.464 3.7474 1.6135 0
M  V30 1107 H 107.139 4.12573 0.525016 0
M  V30 1108 H 105.716 3.1139 2.0516 0
M  V30 1109 N 107.901 -0.206675 1.56239 0
M  V30 1110 C 109.312 -0.772383 1.69974 0
M  V30 1111 C 109.663 -1.84353 0.671436 0
M  V30 1112 O 108.788 -2.15695 -0.174491 0
M  V30 1113 C 109.383 -1.40779 3.08167 0
M  V30 1114 C 107.942 -1.92072 3.23706 0
M  V30 1115 C 107.089 -0.786347 2.65917 0
M  V30 1116 H 110.04 0.0182223 1.5869 0
M  V30 1117 H 110.061 -2.27696 3.04852 0
M  V30 1118 H 109.573 -0.627958 3.82986 0
M  V30 1119 H 107.674 -2.7281 2.53782 0
M  V30 1120 H 107.787 -2.09046 4.31087 0
M  V30 1121 H 106.151 -1.1976 2.24788 0
M  V30 1122 H 106.934 -0.0189416 3.43295 0
M  V30 1123 N 109.379 -1.50304 -0.473955 0
M  V30 1124 C 110.626 -1.6115 -1.22625 0
M  V30 1125 C 110.954 -0.310517 -1.92005 0
M  V30 1126 O 110.209 0.703419 -1.82621 0
M  V30 1127 C 110.508 -2.73938 -2.29549 0
M  V30 1128 C 110.174 -4.14519 -1.7744 0
M  V30 1129 C 108.836 -4.5277 -1.62949 0
M  V30 1130 C 111.188 -5.02392 -1.3875 0
M  V30 1131 C 108.516 -5.76639 -1.08187 0
M  V30 1132 C 110.868 -6.26805 -0.854309 0
M  V30 1133 C 109.532 -6.63861 -0.696011 0
M  V30 1134 H 108.802 -0.589691 -0.448715 0
M  V30 1135 H 111.449 -1.84228 -0.522705 0
M  V30 1136 H 109.754 -2.44937 -3.05799 0
M  V30 1137 H 111.451 -2.79534 -2.87509 0
M  V30 1138 H 108.041 -3.8434 -1.89685 0
M  V30 1139 H 112.225 -4.73474 -1.4878 0
M  V30 1140 H 107.481 -6.04027 -0.946666 0
M  V30 1141 H 111.655 -6.94258 -0.545843 0
M  V30 1142 H 109.282 -7.59722 -0.26952 0
M  V30 1143 N 110.857 0.726932 -1.39834 0
M  V30 1144 C 112.106 1.48214 -1.36805 0
M  V30 1145 C 112.419 1.95576 0.0305291 0
M  V30 1146 O 113.625 2.7088 0.183417 0
M  V30 1147 C 112.081 2.67854 -2.40379 0
M  V30 1148 C 111.689 2.27408 -3.85992 0
M  V30 1149 C 113.433 3.45641 -2.46439 0
M  V30 1150 C 111.34 3.43819 -4.81189 0
M  V30 1151 H 110.27 0.556606 -0.508631 0
M  V30 1152 H 112.921 0.792216 -1.65518 0
M  V30 1153 H 111.303 3.3896 -2.04749 0
M  V30 1154 H 112.477 1.63795 -4.30706 0
M  V30 1155 H 110.792 1.62692 -3.83302 0
M  V30 1156 H 113.389 4.32244 -3.14753 0
M  V30 1157 H 113.732 3.88669 -1.49139 0
M  V30 1158 H 114.265 2.8157 -2.81004 0
M  V30 1159 H 111.004 3.05834 -5.79781 0
M  V30 1160 H 110.524 4.06385 -4.41148 0
M  V30 1161 H 112.203 4.10043 -5.00474 0
M  V30 1162 N 112.336 1.25143 0.95797 0
M  V30 1163 C 113.269 0.995565 2.05338 0
M  V30 1164 C 114.247 -0.0740423 1.62431 0
M  V30 1165 O 115.431 0.0649212 1.88388 0
M  V30 1166 C 112.558 0.504298 3.34925 0
M  V30 1167 C 111.604 1.56393 3.96792 0
M  V30 1168 S 112.437 3.14815 4.33188 0
M  V30 1169 C 113.593 2.67415 5.65898 0
M  V30 1170 H 113.826 1.92309 2.26726 0
M  V30 1171 H 111.359 1.08635 1.09716 0
M  V30 1172 H 113.317 0.227497 4.09869 0
M  V30 1173 H 111.978 -0.402671 3.11508 0
M  V30 1174 H 111.171 1.17082 4.90212 0
M  V30 1175 H 110.773 1.79124 3.28315 0
M  V30 1176 H 113.065 2.10833 6.4386 0
M  V30 1177 H 114.008 3.59463 6.10076 0
M  V30 1178 H 114.416 2.07521 5.24972 0
M  V30 1179 N 113.814 -1.1601 1.06675 0
M  V30 1180 C 115.23 -1.38622 0.790948 0
M  V30 1181 C 115.43 -1.92109 -0.607965 0
M  V30 1182 O 114.486 -2.12239 -1.36787 0
M  V30 1183 C 115.799 -2.36347 1.85905 0
M  V30 1184 C 117.347 -2.50023 1.88301 0
M  V30 1185 C 117.822 -3.51033 2.94176 0
M  V30 1186 N 119.313 -3.58563 2.93235 0
M  V30 1187 C 120.048 -4.36521 3.71803 0
M  V30 1188 N 119.544 -5.17869 4.602 0
M  V30 1189 N 121.337 -4.31541 3.60178 0
M  V30 1190 H 113.488 -0.796294 1.96908 0
M  V30 1191 H 115.751 -0.412597 0.853503 0
M  V30 1192 H 115.457 -2.04147 2.86386 0
M  V30 1193 H 115.331 -3.36042 1.71334 0
M  V30 1194 H 117.718 -2.81524 0.884769 0
M  V30 1195 H 117.799 -1.5035 2.06951 0
M  V30 1196 H 117.443 -3.20268 3.94196 0
M  V30 1197 H 117.373 -4.50445 2.72776 0
M  V30 1198 H 119.864 -3.00496 2.29152 0
M  V30 1199 H 120.177 -5.74578 5.16797 0
M  V30 1200 H 118.522 -5.17199 4.64253 0
M  V30 1201 H 121.713 -3.67051 2.90502 0
M  V30 1202 H 121.886 -4.9205 4.21653 0
M  V30 1203 N 115.292 -0.849877 -1.32721 0
M  V30 1204 C 116.539 -0.450923 -1.97416 0
M  V30 1205 C 116.867 0.992376 -1.67279 0
M  V30 1206 O 116.122 1.71048 -0.950845 0
M  V30 1207 C 116.421 -0.631272 -3.51781 0
M  V30 1208 C 116.087 -2.04432 -4.01894 0
M  V30 1209 C 114.749 -2.4308 -4.1529 0
M  V30 1210 C 117.101 -2.96679 -4.28522 0
M  V30 1211 C 114.429 -3.73257 -4.52654 0
M  V30 1212 C 116.781 -4.26349 -4.67343 0
M  V30 1213 C 115.445 -4.64939 -4.78945 0
M  V30 1214 H 114.715 -0.165004 -0.722395 0
M  V30 1215 H 117.362 -1.07901 -1.58207 0
M  V30 1216 H 115.667 0.0800767 -3.91718 0
M  V30 1217 H 117.364 -0.302709 -3.99856 0
M  V30 1218 H 113.954 -1.73419 -3.91949 0
M  V30 1219 H 118.138 -2.68054 -4.17685 0
M  V30 1220 H 113.394 -4.02946 -4.59831 0
M  V30 1221 H 117.568 -4.97895 -4.86902 0
M  V30 1222 H 115.195 -5.65855 -5.07654 0
M  V30 1223 N 116.77 1.45427 -0.607355 0
M  V30 1224 C 117.718 2.32269 0.12411 0
M  V30 1225 C 118.712 1.45955 0.859854 0
M  V30 1226 O 119.918 1.6244 0.775447 0
M  V30 1227 H 116.293 0.749691 0.0588839 0
M  V30 1228 H 118.264 2.91743 -0.626762 0
M  V30 1229 C 117.013 3.29567 1.1082 0
M  V30 1230 H 116.336 3.95978 0.551492 0
M  V30 1231 H 117.776 3.93061 1.58995 0
M  V30 1232 C 116.235 2.56722 2.18164 0
M  V30 1233 O 116.765 2.34842 3.25902 0
M  V30 1234 N 114.971 2.16861 1.93442 0
M  V30 1235 H 114.518 2.34855 1.05834 0
M  V30 1236 H 114.476 1.68444 2.65469 0
M  V30 1237 N 118.248 0.346503 1.53744 0
M  V30 1238 C 119.158 -0.517293 2.28826 0
M  V30 1239 C 120.174 -1.10935 1.3405 0
M  V30 1240 O 121.35 -1.1244 1.6709 0
M  V30 1241 C 118.415 -1.65098 3.04866 0
M  V30 1242 C 117.476 -1.0884 4.15274 0
M  V30 1243 C 116.709 -2.16806 4.87679 0
M  V30 1244 O 116.932 -3.3758 4.59778 0
M  V30 1245 O 115.866 -1.80934 5.74061 0
M  V30 1246 H 119.692 0.0931396 3.03557 0
M  V30 1247 H 117.277 0.111458 1.48984 0
M  V30 1248 H 119.159 -2.31053 3.5241 0
M  V30 1249 H 117.834 -2.24717 2.32989 0
M  V30 1250 H 116.741 -0.3933 3.72027 0
M  V30 1251 H 118.074 -0.537036 4.89261 0
M  V30 1252 N 119.726 -1.57421 0.075193 0
M  V30 1253 C 121.142 -1.57099 -0.281444 0
M  V30 1254 C 121.342 -1.08486 -1.69803 0
M  V30 1255 O 120.398 -0.752279 -2.41033 0
M  V30 1256 C 121.711 -3.00571 -0.0880041 0
M  V30 1257 C 123.259 -3.12605 -0.157281 0
M  V30 1258 C 123.734 -4.57999 0.0079207 0
M  V30 1259 N 125.225 -4.63176 -0.0475725 0
M  V30 1260 C 125.96 -5.73373 0.0557876 0
M  V30 1261 N 125.456 -6.92473 0.21286 0
M  V30 1262 N 127.249 -5.621 -0.00152098 0
M  V30 1263 H 119.4 -1.87335 1.00098 0
M  V30 1264 H 121.663 -0.86377 0.390646 0
M  V30 1265 H 121.369 -3.40262 0.889629 0
M  V30 1266 H 121.243 -3.67754 -0.838875 0
M  V30 1267 H 123.63 -2.72798 -1.1254 0
M  V30 1268 H 123.711 -2.48053 0.62475 0
M  V30 1269 H 123.355 -4.98496 0.972824 0
M  V30 1270 H 123.285 -5.20586 -0.793556 0
M  V30 1271 H 125.776 -3.7753 -0.167244 0
M  V30 1272 H 126.089 -7.72279 0.283781 0
M  V30 1273 H 124.434 -6.94556 0.248267 0
M  V30 1274 H 127.625 -4.67938 -0.122958 0
M  V30 1275 H 127.798 -6.47948 0.0824844 0
M  V30 1276 N 121.204 0.198386 -1.56346 0
M  V30 1277 C 122.453 0.917451 -1.79627 0
M  V30 1278 C 122.766 1.8456 -0.64784 0
M  V30 1279 O 123.972 2.60504 -0.764859 0
M  V30 1280 C 122.428 1.68175 -3.18191 0
M  V30 1281 C 122.036 0.798589 -4.40825 0
M  V30 1282 C 123.78 2.39065 -3.50782 0
M  V30 1283 C 121.687 1.56157 -5.70411 0
M  V30 1284 H 120.617 0.346317 -0.669762 0
M  V30 1285 H 123.268 0.170801 -1.82703 0
M  V30 1286 H 121.65 2.47216 -3.09354 0
M  V30 1287 H 122.824 0.0470665 -4.60776 0
M  V30 1288 H 121.139 0.200686 -4.15916 0
M  V30 1289 H 123.736 2.96692 -4.44835 0
M  V30 1290 H 124.079 3.13091 -2.74371 0
M  V30 1291 H 124.612 1.66993 -3.61052 0
M  V30 1292 H 121.351 0.864142 -6.49779 0
M  V30 1293 H 120.871 2.2871 -5.54483 0
M  V30 1294 H 122.55 2.11622 -6.11412 0
M  V30 1295 N 122.682 1.50554 0.465978 0
M  V30 1296 C 123.615 1.64436 1.58227 0
M  V30 1297 C 124.593 0.492367 1.54966 0
M  V30 1298 O 125.777 0.712536 1.74514 0
M  V30 1299 C 122.904 1.63165 2.96808 0
M  V30 1300 C 121.95 2.83987 3.18204 0
M  V30 1301 S 122.783 4.45219 2.97557 0
M  V30 1302 C 123.939 4.46649 4.3847 0
M  V30 1303 H 124.172 2.58861 1.46213 0
M  V30 1304 H 121.705 1.3988 0.653678 0
M  V30 1305 H 123.663 1.63116 3.76701 0
M  V30 1306 H 122.324 0.69967 3.06208 0
M  V30 1307 H 121.517 2.79416 4.19455 0
M  V30 1308 H 121.119 2.81629 2.46092 0
M  V30 1309 H 123.411 4.20526 5.31191 0
M  V30 1310 H 124.354 5.48295 4.48082 0
M  V30 1311 H 124.762 3.76296 4.20787 0
M  V30 1312 N 124.16 -0.719506 1.40217 0
M  V30 1313 C 125.409 -1.47486 1.37589 0
M  V30 1314 C 125.722 -1.9559 -0.0201568 0
M  V30 1315 O 126.928 -2.70973 -0.169049 0
M  V30 1316 C 125.384 -2.66575 2.41796 0
M  V30 1317 C 124.992 -2.25358 3.87192 0
M  V30 1318 C 126.736 -3.4433 2.48269 0
M  V30 1319 C 124.643 -3.41262 4.83005 0
M  V30 1320 H 123.573 -0.553901 0.511576 0
M  V30 1321 H 126.224 -0.783427 1.65936 0
M  V30 1322 H 124.606 -3.3787 2.06543 0
M  V30 1323 H 125.78 -1.61509 4.31569 0
M  V30 1324 H 124.095 -1.60657 3.84159 0
M  V30 1325 H 126.692 -4.30569 3.17041 0
M  V30 1326 H 127.035 -3.87872 1.51198 0
M  V30 1327 H 127.568 -2.80076 2.82493 0
M  V30 1328 H 124.307 -3.02755 5.81394 0
M  V30 1329 H 123.827 -4.0404 4.43297 0
M  V30 1330 H 125.506 -4.07383 5.02641 0
M  V30 1331 N 125.638 -1.25649 -0.95132 0
M  V30 1332 C 126.915 -1.01361 -1.67288 0
M  V30 1333 C 127.295 0.459135 -2.06046 0
M  V30 1334 O 126.643 1.43723 -1.7764 0
M  V30 1335 C 126.853 -1.95256 -2.89268 0
M  V30 1336 C 128.201 -2.23289 -3.61147 0
M  V30 1337 O 129.225 -1.93041 -2.99355 0
M  V30 1338 O 128.084 -2.74741 -4.72419 0
M  V30 1339 H 125.178 -0.38464 -0.732107 0
M  V30 1340 H 127.724 -1.36817 -1.00395 0
M  V30 1341 H 126.496 -2.94685 -2.57442 0
M  V30 1342 H 126.119 -1.60218 -3.6389 0
M  V30 1343 N 127.117 1.15442 -1.07289 0
M  V30 1344 C 128.067 2.18164 -0.662467 0
M  V30 1345 C 129.051 1.57845 0.312074 0
M  V30 1346 O 130.243 1.76552 0.125905 0
M  V30 1347 C 127.372 3.43246 -0.0611295 0
M  V30 1348 C 126.458 4.1062 -1.06077 0
M  V30 1349 N 126.849 4.53491 -2.24008 0
M  V30 1350 C 125.147 4.36949 -0.893964 0
M  V30 1351 C 125.848 5.05731 -2.87422 0
M  V30 1352 N 124.824 4.99236 -2.15091 0
M  V30 1353 H 128.626 2.49038 -1.56068 0
M  V30 1354 H 126.14 1.32003 -0.945988 0
M  V30 1355 H 128.137 4.16145 0.250792 0
M  V30 1356 H 126.797 3.13854 0.832207 0
M  V30 1357 H 127.808 4.46898 -2.6173 0
M  V30 1358 H 124.485 4.17466 -0.0534693 0
M  V30 1359 H 125.875 5.48865 -3.87553 0
M  V30 1360 N 128.595 0.856903 1.32268 0
M  V30 1361 C 129.505 0.306131 2.32594 0
M  V30 1362 C 130.521 -0.577209 1.64147 0
M  V30 1363 O 131.697 -0.477043 1.95669 0
M  V30 1364 C 128.762 -0.494561 3.43154 0
M  V30 1365 C 127.823 0.415186 4.27288 0
M  V30 1366 C 127.056 -0.347387 5.32568 0
M  V30 1367 O 127.279 -1.57708 5.48165 0
M  V30 1368 O 126.213 0.287982 6.01211 0
M  V30 1369 H 130.039 1.13737 2.81598 0
M  V30 1370 H 127.624 0.619902 1.35932 0
M  V30 1371 H 129.506 -0.948944 4.10576 0
M  V30 1372 H 128.181 -1.30257 2.96336 0
M  V30 1373 H 127.088 0.917793 3.62667 0
M  V30 1374 H 128.421 1.18844 4.77637 0
M  V30 1375 N 130.073 -1.45103 0.615059 0
M  V30 1376 C 131.484 -1.85654 0.197383 0
M  V30 1377 C 131.835 -1.51433 -1.24749 0
M  V30 1378 O 130.96 -0.944608 -1.94695 0
M  V30 1379 C 131.555 -3.36972 0.351448 0
M  V30 1380 C 130.114 -3.76398 -0.011593 0
M  V30 1381 C 129.261 -2.69024 0.672394 0
M  V30 1382 H 132.212 -1.35797 0.821263 0
M  V30 1383 H 132.233 -3.78239 -0.414227 0
M  V30 1384 H 131.745 -3.61847 1.40314 0
M  V30 1385 H 129.846 -3.5714 -1.06217 0
M  V30 1386 H 129.959 -4.77532 0.387265 0
M  V30 1387 H 128.323 -2.54465 0.109284 0
M  V30 1388 H 129.106 -2.96735 1.72636 0
M  V30 1389 N 131.551 -0.354651 -1.53558 0
M  V30 1390 C 132.8 0.239504 -2.00273 0
M  V30 1391 C 133.113 1.50759 -1.24623 0
M  V30 1392 O 134.319 2.17968 -1.61871 0
M  V30 1393 C 132.775 0.477341 -3.5672 0
M  V30 1394 C 132.383 -0.775488 -4.41237 0
M  V30 1395 C 134.127 1.02975 -4.11821 0
M  V30 1396 C 132.034 -0.507838 -5.89216 0
M  V30 1397 H 130.964 0.0932743 -0.748208 0
M  V30 1398 H 133.615 -0.471701 -1.77334 0
M  V30 1399 H 131.997 1.24953 -3.7577 0
M  V30 1400 H 133.171 -1.54963 -4.33962 0
M  V30 1401 H 131.486 -1.25033 -3.97185 0
M  V30 1402 H 134.083 1.24513 -5.2 0
M  V30 1403 H 134.426 1.98862 -3.65731 0
M  V30 1404 H 134.959 0.317994 -3.96527 0
M  V30 1405 H 131.698 -1.43674 -6.39561 0
M  V30 1406 H 131.218 0.228011 -5.99366 0
M  V30 1407 H 132.897 -0.129238 -6.46871 0
M  V30 1408 N 133.029 1.57378 -0.0835403 0
M  V30 1409 C 134.44 1.81261 0.447358 0
M  V30 1410 C 134.791 0.998331 1.68902 0
M  V30 1411 O 133.916 0.224282 2.15235 0
M  V30 1412 C 134.511 3.28767 0.818386 0
M  V30 1413 C 133.07 3.53455 1.29409 0
M  V30 1414 C 132.217 2.75831 0.285024 0
M  V30 1415 H 135.168 1.5566 -0.309115 0
M  V30 1416 H 135.189 3.41459 1.67887 0
M  V30 1417 H 134.701 3.88006 -0.0855019 0
M  V30 1418 H 132.802 2.99534 2.21608 0
M  V30 1419 H 132.915 4.62128 1.2639 0
M  V30 1420 H 131.279 2.42947 0.764767 0
M  V30 1421 H 132.062 3.37813 -0.611341 0
M  V30 1422 N 134.507 -0.190092 1.56449 0
M  V30 1423 C 135.784 -0.935886 1.71757 0
M  V30 1424 C 136.164 -2.01173 0.639726 0
M  V30 1425 O 135.512 -2.25827 -0.348502 0
M  V30 1426 C 135.722 -1.51775 3.1427 0
M  V30 1427 C 137.07 -1.99794 3.74656 0
M  V30 1428 O 138.094 -1.61607 3.1743 0
M  V30 1429 O 136.953 -2.70079 4.751 0
M  V30 1430 H 134.047 -0.439229 0.700719 0
M  V30 1431 H 136.593 -0.179395 1.68749 0
M  V30 1432 H 135.365 -0.742505 3.84191 0
M  V30 1433 H 134.988 -2.33894 3.21527 0
M  V30 1434 N 135.985 -1.50799 -0.457987 0
M  V30 1435 C 136.948 -1.7005 -1.53674 0
M  V30 1436 C 137.948 -0.570881 -1.50325 0
M  V30 1437 O 139.138 -0.838126 -1.52712 0
M  V30 1438 C 136.27 -1.73788 -2.93276 0
M  V30 1439 H 137.463 -2.66306 -1.37917 0
M  V30 1440 H 135.016 -1.40477 -0.685271 0
M  V30 1441 H 135.751 -0.792717 -3.14462 0
M  V30 1442 H 135.536 -2.55864 -2.97113 0
M  V30 1443 H 137.026 -1.90591 -3.71571 0
M  V30 1444 N 137.463 0.71206 -1.40597 0
M  V30 1445 C 138.426 1.80785 -1.40888 0
M  V30 1446 C 139.426 1.57937 -0.302103 0
M  V30 1447 O 140.616 1.64913 -0.561182 0
M  V30 1448 C 137.748 3.18927 -1.20409 0
M  V30 1449 H 138.941 1.81924 -2.38419 0
M  V30 1450 H 136.494 0.91805 -1.26497 0
M  V30 1451 H 137.229 3.23436 -0.236522 0
M  V30 1452 H 137.014 3.36911 -2.00582 0
M  V30 1453 H 138.504 3.98949 -1.23408 0
M  V30 1454 N 138.941 1.26152 0.944643 0
M  V30 1455 C 139.871 1.09902 2.06019 0
M  V30 1456 C 140.852 0.00519538 1.70099 0
M  V30 1457 O 142.037 0.176583 1.93396 0
M  V30 1458 C 139.167 0.727562 3.39594 0
M  V30 1459 C 138.121 1.77274 3.89561 0
M  V30 1460 C 137.447 1.25569 5.19747 0
M  V30 1461 C 138.747 3.17357 4.14827 0
M  V30 1462 H 140.441 2.03217 2.19871 0
M  V30 1463 H 137.987 0.978452 1.05652 0
M  V30 1464 H 139.94 0.600777 4.17095 0
M  V30 1465 H 138.664 -0.241287 3.25707 0
M  V30 1466 H 137.323 1.88814 3.14237 0
M  V30 1467 H 136.971 0.276783 5.02238 0
M  V30 1468 H 136.671 1.95433 5.54148 0
M  V30 1469 H 138.195 1.1415 5.99835 0
M  V30 1470 H 139.609 3.08914 4.82954 0
M  V30 1471 H 138.006 3.84781 4.60504 0
M  V30 1472 H 139.076 3.63673 3.20734 0
M  V30 1473 N 140.419 -1.14872 1.07899 0
M  V30 1474 C 141.665 -1.86064 0.806725 0
M  V30 1475 C 141.998 -1.82434 -0.665706 0
M  V30 1476 O 141.273 -1.25138 -1.48899 0
M  V30 1477 C 141.556 -3.34929 1.32267 0
M  V30 1478 C 141.409 -3.47161 2.86006 0
M  V30 1479 C 142.728 -4.29863 0.943717 0
M  V30 1480 H 139.847 -0.675591 0.294526 0
M  V30 1481 H 142.489 -1.34925 1.33773 0
M  V30 1482 H 140.639 -3.78611 0.870974 0
M  V30 1483 H 142.311 -3.12302 3.39507 0
M  V30 1484 H 140.554 -2.88539 3.23925 0
M  V30 1485 H 141.225 -4.51777 3.17177 0
M  V30 1486 H 143.701 -3.9417 1.33302 0
M  V30 1487 H 142.577 -5.32494 1.33198 0
M  V30 1488 H 142.838 -4.41846 -0.149796 0
M  V30 1489 N 141.898 -0.863906 -1.31812 0
M  V30 1490 C 142.846 -0.30422 -2.30602 0
M  V30 1491 C 143.84 0.577419 -1.59255 0
M  V30 1492 O 145.046 0.464194 -1.73912 0
M  V30 1493 H 141.421 -0.0796877 -0.747766 0
M  V30 1494 H 143.392 -1.15148 -2.75288 0
M  V30 1495 C 142.141 0.484617 -3.44306 0
M  V30 1496 H 141.464 -0.18451 -3.99374 0
M  V30 1497 H 142.904 0.841664 -4.15562 0
M  V30 1498 C 141.363 1.6735 -2.92396 0
M  V30 1499 O 141.893 2.77273 -2.90659 0
M  V30 1500 N 140.099 1.50362 -2.48676 0
M  V30 1501 H 139.646 0.609402 -2.50288 0
M  V30 1502 H 139.604 2.30051 -2.14299 0
M  V30 1503 N 143.376 1.44774 -0.622745 0
M  V30 1504 C 144.339 2.29069 0.0774015 0
M  V30 1505 C 145.339 1.4059 0.780461 0
M  V30 1506 O 146.529 1.62551 0.626322 0
M  V30 1507 C 143.661 3.21974 1.12006 0
M  V30 1508 H 144.854 2.92459 -0.663901 0
M  V30 1509 H 142.407 1.51548 -0.382486 0
M  V30 1510 H 143.142 2.63417 1.89162 0
M  V30 1511 H 142.927 3.87168 0.619951 0
M  V30 1512 H 144.417 3.85318 1.60995 0
M  V30 1513 N 144.854 0.36279 1.53368 0
M  V30 1514 C 146.1 -0.228113 2.01513 0
M  V30 1515 C 146.433 -1.48648 1.2497 0
M  V30 1516 O 145.708 -1.91459 0.342616 0
M  V30 1517 C 145.991 -0.522884 3.56284 0
M  V30 1518 C 145.844 0.74892 4.43521 0
M  V30 1519 C 147.163 -1.32461 4.19693 0
M  V30 1520 H 144.282 -0.0814343 0.732487 0
M  V30 1521 H 146.924 0.48713 1.83649 0
M  V30 1522 H 145.074 -1.1322 3.71636 0
M  V30 1523 H 146.746 1.38648 4.39971 0
M  V30 1524 H 144.989 1.36986 4.11603 0
M  V30 1525 H 145.66 0.497667 5.49752 0
M  V30 1526 H 148.136 -0.809203 4.08156 0
M  V30 1527 H 147.012 -1.49961 5.28018 0
M  V30 1528 H 147.273 -2.33232 3.75573 0
M  V30 1529 N 146.332 -1.57332 0.0918853 0
M  V30 1530 C 147.295 -2.12708 -0.85369 0
M  V30 1531 C 148.295 -1.05561 -1.213 0
M  V30 1532 O 149.485 -1.31461 -1.14296 0
M  V30 1533 C 146.617 -2.64503 -2.15061 0
M  V30 1534 H 147.81 -2.97573 -0.3729 0
M  V30 1535 H 145.363 -1.55509 -0.157072 0
M  V30 1536 H 146.098 -1.83149 -2.67632 0
M  V30 1537 H 145.883 -3.4284 -1.90272 0
M  V30 1538 H 147.373 -3.07351 -2.82711 0
M  V30 1539 N 147.81 0.181792 -1.56548 0
M  V30 1540 C 149.057 0.900097 -1.81396 0
M  V30 1541 C 149.385 1.82695 -0.667281 0
M  V30 1542 O 148.64 1.92614 0.346146 0
M  V30 1543 C 148.939 1.73728 -3.12335 0
M  V30 1544 C 148.605 0.960255 -4.40556 0
M  V30 1545 C 147.267 0.745766 -4.75386 0
M  V30 1546 C 149.619 0.414477 -5.19549 0
M  V30 1547 C 146.947 -0.0257694 -5.86694 0
M  V30 1548 C 149.299 -0.343916 -6.31664 0
M  V30 1549 C 147.963 -0.569301 -6.65068 0
M  V30 1550 H 147.233 0.329369 -0.663775 0
M  V30 1551 H 149.88 0.165647 -1.90782 0
M  V30 1552 H 148.185 2.54081 -2.98245 0
M  V30 1553 H 149.882 2.29591 -3.28769 0
M  V30 1554 H 146.472 1.13746 -4.13231 0
M  V30 1555 H 150.656 0.567554 -4.93044 0
M  V30 1556 H 145.912 -0.210233 -6.11038 0
M  V30 1557 H 150.086 -0.774133 -6.92084 0
M  V30 1558 H 147.713 -1.16903 -7.51158 0
M  V30 1559 N 149.288 1.51039 0.449983 0
M  V30 1560 C 150.534 1.63322 1.20223 0
M  V30 1561 C 150.867 0.34241 1.91158 0
M  V30 1562 O 150.142 -0.657344 1.83055 0
M  V30 1563 C 150.425 2.82801 2.22925 0
M  V30 1564 C 150.278 4.21823 1.56157 0
M  V30 1565 C 151.597 2.97807 3.24035 0
M  V30 1566 H 148.716 0.594407 0.435718 0
M  V30 1567 H 151.358 1.83489 0.493136 0
M  V30 1568 H 149.508 2.65738 2.834 0
M  V30 1569 H 151.18 4.50526 0.991162 0
M  V30 1570 H 149.423 4.25105 0.864172 0
M  V30 1571 H 150.094 5.01391 2.30891 0
M  V30 1572 H 152.57 3.13497 2.73603 0
M  V30 1573 H 151.446 3.82992 3.93202 0
M  V30 1574 H 151.707 2.09328 3.89402 0
M  V30 1575 N 150.766 -0.704594 1.40972 0
M  V30 1576 C 152.182 -1.01406 1.23244 0
M  V30 1577 C 152.382 -2.01169 0.115399 0
M  V30 1578 O 151.438 -2.47021 -0.523147 0
M  V30 1579 C 152.751 -1.54728 2.57836 0
M  V30 1580 C 154.299 -1.66658 2.64942 0
M  V30 1581 C 154.774 -2.23383 3.9983 0
M  V30 1582 N 156.265 -2.30756 4.01629 0
M  V30 1583 C 157 -2.75655 5.02794 0
M  V30 1584 N 156.496 -3.20225 6.14352 0
M  V30 1585 N 158.289 -2.75138 4.90159 0
M  V30 1586 H 150.44 -0.0435285 2.12355 0
M  V30 1587 H 152.703 -0.0818951 0.944456 0
M  V30 1588 H 152.409 -0.888832 3.40283 0
M  V30 1589 H 152.283 -2.53084 2.79693 0
M  V30 1590 H 154.67 -2.31617 1.8286 0
M  V30 1591 H 154.751 -0.668717 2.46904 0
M  V30 1592 H 154.395 -1.59043 4.82357 0
M  V30 1593 H 154.325 -3.23904 4.15203 0
M  V30 1594 H 156.816 -1.99291 3.21079 0
M  V30 1595 H 157.129 -3.53084 6.87424 0
M  V30 1596 H 155.474 -3.18156 6.17901 0
M  V30 1597 H 158.665 -2.39661 4.02095 0
M  V30 1598 H 158.838 -3.09812 5.6914 0
M  V30 1599 N 152.244 -1.26651 -0.937939 0
M  V30 1600 C 153.207 -1.08546 -2.01867 0
M  V30 1601 C 154.207 -0.0327327 -1.60767 0
M  V30 1602 O 155.397 -0.276427 -1.71993 0
M  V30 1603 C 152.529 -0.651711 -3.34613 0
M  V30 1604 H 153.722 -2.04502 -2.1936 0
M  V30 1605 H 151.275 -1.09294 -1.11734 0
M  V30 1606 H 152.01 0.309696 -3.22818 0
M  V30 1607 H 151.795 -1.41189 -3.65798 0
M  V30 1608 H 153.285 -0.546973 -4.14002 0
M  V30 1609 N 153.722 1.14298 -1.08507 0
M  V30 1610 C 154.685 2.17607 -0.719711 0
M  V30 1611 C 155.685 1.58907 0.245997 0
M  V30 1612 O 156.875 1.74181 0.0254081 0
M  V30 1613 C 154.007 3.40842 -0.0627695 0
M  V30 1614 H 155.2 2.51443 -1.63452 0
M  V30 1615 H 152.753 1.28963 -0.88307 0
M  V30 1616 H 153.488 3.12587 0.863716 0
M  V30 1617 H 153.273 3.84713 -0.757504 0
M  V30 1618 H 154.763 4.17221 0.177786 0
M  V30 1619 N 155.201 0.870884 1.31352 0
M  V30 1620 C 156.131 0.343096 2.30966 0
M  V30 1621 C 157.112 -0.566507 1.60389 0
M  V30 1622 O 158.297 -0.483336 1.88089 0
M  V30 1623 C 155.427 -0.455487 3.443 0
M  V30 1624 C 154.381 0.361103 4.26474 0
M  V30 1625 C 153.707 -0.563221 5.31725 0
M  V30 1626 C 155.007 1.59566 4.97329 0
M  V30 1627 H 156.701 1.17548 2.75359 0
M  V30 1628 H 154.247 0.566686 1.32381 0
M  V30 1629 H 156.2 -0.83525 4.13039 0
M  V30 1630 H 154.924 -1.32139 2.98675 0
M  V30 1631 H 153.583 0.722825 3.59403 0
M  V30 1632 H 153.231 -1.42643 4.82351 0
M  V30 1633 H 152.931 -0.0207409 5.87596 0
M  V30 1634 H 154.455 -0.939808 6.03324 0
M  V30 1635 H 155.869 1.28728 5.58661 0
M  V30 1636 H 154.266 2.07728 5.63 0
M  V30 1637 H 155.336 2.34798 4.24262 0
M  V30 1638 N 156.679 -1.44442 0.630414 0
M  V30 1639 C 157.589 -2.34476 -0.0761693 0
M  V30 1640 C 158.605 -1.52576 -0.836449 0
M  V30 1641 O 159.781 -1.85307 -0.788874 0
M  V30 1642 C 156.846 -3.30545 -1.04599 0
M  V30 1643 C 155.907 -4.28352 -0.28516 0
M  V30 1644 C 155.14 -5.19831 -1.20878 0
M  V30 1645 O 155.363 -5.15223 -2.44747 0
M  V30 1646 O 154.297 -5.97892 -0.693491 0
M  V30 1647 H 158.123 -2.96345 0.664324 0
M  V30 1648 H 155.708 -1.44203 0.39061 0
M  V30 1649 H 157.59 -3.89681 -1.60396 0
M  V30 1650 H 156.265 -2.7121 -1.76711 0
M  V30 1651 H 155.172 -3.72764 0.315837 0
M  V30 1652 H 156.505 -4.90605 0.395924 0
M  V30 1653 N 158.157 -0.370918 -1.53173 0
M  V30 1654 C 159.573 -0.0200818 -1.59587 0
M  V30 1655 C 159.773 1.46279 -1.38581 0
M  V30 1656 O 158.829 2.22506 -1.19363 0
M  V30 1657 C 160.142 -0.4808 -2.96831 0
M  V30 1658 C 161.69 -0.435477 -3.09956 0
M  V30 1659 C 162.165 -0.872092 -4.4962 0
M  V30 1660 N 163.656 -0.827364 -4.55751 0
M  V30 1661 C 164.391 -1.13683 -5.62018 0
M  V30 1662 N 163.887 -1.51584 -6.76014 0
M  V30 1663 N 165.68 -1.05927 -5.52029 0
M  V30 1664 H 157.831 -1.33652 -1.65079 0
M  V30 1665 H 160.094 -0.546634 -0.774529 0
M  V30 1666 H 159.8 -1.51577 -3.1736 0
M  V30 1667 H 159.674 0.129796 -3.76977 0
M  V30 1668 H 162.061 0.590371 -2.89134 0
M  V30 1669 H 162.142 -1.08164 -2.31806 0
M  V30 1670 H 161.786 -1.89608 -4.71181 0
M  V30 1671 H 161.716 -0.203127 -5.26208 0
M  V30 1672 H 164.207 -0.548216 -3.73902 0
M  V30 1673 H 164.52 -1.73609 -7.53047 0
M  V30 1674 H 162.865 -1.55454 -6.77391 0
M  V30 1675 H 166.056 -0.762321 -4.61851 0
M  V30 1676 H 166.229 -1.30378 -6.34749 0
M  V30 1677 N 159.635 1.57281 -0.100228 0
M  V30 1678 C 160.565 2.17328 0.853857 0
M  V30 1679 C 161.546 1.10804 1.2906 0
M  V30 1680 O 162.731 1.38963 1.35657 0
M  V30 1681 C 159.861 2.75772 2.11109 0
M  V30 1682 C 158.815 3.87713 1.81279 0
M  V30 1683 C 158.141 4.32882 3.13874 0
M  V30 1684 C 159.441 5.10677 1.09574 0
M  V30 1685 H 161.135 2.97305 0.353545 0
M  V30 1686 H 158.681 1.43009 0.168612 0
M  V30 1687 H 160.634 3.16433 2.78296 0
M  V30 1688 H 159.358 1.93057 2.63432 0
M  V30 1689 H 158.017 3.476 1.16489 0
M  V30 1690 H 157.665 3.47051 3.64095 0
M  V30 1691 H 157.365 5.08358 2.94696 0
M  V30 1692 H 158.889 4.7618 3.82211 0
M  V30 1693 H 160.303 5.48474 1.66879 0
M  V30 1694 H 158.7 5.91615 1.00557 0
M  V30 1695 H 159.77 4.84835 0.0793299 0
M  V30 1696 N 161.113 -0.173488 1.56642 0
M  V30 1697 C 162.045 -1.23935 1.92802 0
M  V30 1698 C 163.058 -1.40589 0.820889 0
M  V30 1699 O 164.247 -1.40631 1.09933 0
M  V30 1700 C 161.347 -2.60837 2.16373 0
M  V30 1701 C 160.52 -2.6551 3.47596 0
M  V30 1702 C 159.579 -3.8376 3.60021 0
M  V30 1703 O 158.605 -3.69859 4.32658 0
M  V30 1704 N 159.807 -5.00127 2.94709 0
M  V30 1705 H 162.572 -0.932236 2.84832 0
M  V30 1706 H 160.133 -0.363268 1.57772 0
M  V30 1707 H 162.125 -3.38407 2.21952 0
M  V30 1708 H 160.695 -2.83948 1.30738 0
M  V30 1709 H 159.915 -1.74052 3.53694 0
M  V30 1710 H 161.203 -2.65641 4.33949 0
M  V30 1711 H 160.601 -5.14322 2.35563 0
M  V30 1712 H 159.158 -5.75567 3.05886 0
M  V30 1713 N 162.591 -1.51276 -0.441967 0
M  V30 1714 C 163.523 -1.68444 -1.55433 0
M  V30 1715 C 164.536 -0.565187 -1.52674 0
M  V30 1716 O 165.725 -0.839356 -1.57534 0
M  V30 1717 C 162.825 -1.67966 -2.94348 0
M  V30 1718 C 161.998 -2.964 -3.21661 0
M  V30 1719 C 161.057 -2.88171 -4.40277 0
M  V30 1720 O 160.083 -3.62119 -4.39157 0
M  V30 1721 N 161.285 -2.03706 -5.43584 0
M  V30 1722 H 164.05 -2.644 -1.41112 0
M  V30 1723 H 161.611 -1.49104 -0.630838 0
M  V30 1724 H 163.603 -1.60035 -3.71713 0
M  V30 1725 H 162.173 -0.796225 -3.0229 0
M  V30 1726 H 161.393 -3.18234 -2.32638 0
M  V30 1727 H 162.681 -3.81427 -3.36736 0
M  V30 1728 H 162.079 -1.42995 -5.47329 0
M  V30 1729 H 160.636 -2.01658 -6.1982 0
M  V30 1730 N 164.069 0.697108 -1.41344 0
M  V30 1731 C 165.001 1.8224 -1.39001 0
M  V30 1732 C 166.014 1.60152 -0.292428 0
M  V30 1733 O 167.203 1.69684 -0.554048 0
M  V30 1734 C 164.303 3.18976 -1.14489 0
M  V30 1735 C 163.476 3.68105 -2.36258 0
M  V30 1736 C 162.535 4.83506 -2.07625 0
M  V30 1737 O 161.561 4.95201 -2.8065 0
M  V30 1738 N 162.763 5.70637 -1.06555 0
M  V30 1739 H 165.528 1.84742 -2.35988 0
M  V30 1740 H 163.089 0.87937 -1.35936 0
M  V30 1741 H 165.081 3.93801 -0.932885 0
M  V30 1742 H 163.651 3.11508 -0.261043 0
M  V30 1743 H 162.871 2.84204 -2.7317 0
M  V30 1744 H 164.159 3.97667 -3.17393 0
M  V30 1745 H 163.557 5.63817 -0.461125 0
M  V30 1746 H 162.114 6.45368 -0.913444 0
M  V30 1747 N 165.547 1.27147 0.931209 0
M  V30 1748 C 166.479 1.05364 2.03546 0
M  V30 1749 C 167.492 0.0108438 1.62796 0
M  V30 1750 O 168.681 0.25202 1.76712 0
M  V30 1751 C 165.781 0.575566 3.33977 0
M  V30 1752 C 164.954 1.68985 4.03439 0
M  V30 1753 C 164.013 1.20813 5.12143 0
M  V30 1754 O 163.039 1.90712 5.363 0
M  V30 1755 N 164.241 0.0618851 5.80467 0
M  V30 1756 H 167.006 2.00454 2.22796 0
M  V30 1757 H 164.567 1.18666 1.10136 0
M  V30 1758 H 166.559 0.237264 4.04004 0
M  V30 1759 H 165.129 -0.282016 3.11325 0
M  V30 1760 H 164.349 2.19861 3.27192 0
M  V30 1761 H 165.637 2.4378 4.46597 0
M  V30 1762 H 165.035 -0.521621 5.6329 0
M  V30 1763 H 163.592 -0.217264 6.51438 0
M  V30 1764 N 167.025 -1.13721 1.09112 0
M  V30 1765 C 167.988 -2.17222 0.731241 0
M  V30 1766 C 168.988 -1.59035 -0.237566 0
M  V30 1767 O 170.178 -1.74192 -0.0161704 0
M  V30 1768 C 167.31 -3.40804 0.0808443 0
M  V30 1769 H 168.503 -2.50573 1.64783 0
M  V30 1770 H 166.056 -1.28493 0.889897 0
M  V30 1771 H 166.791 -3.1304 -0.847127 0
M  V30 1772 H 166.576 -3.84306 0.777896 0
M  V30 1773 H 168.066 -4.1731 -0.155657 0
M  V30 1774 N 168.503 -0.877838 -1.30888 0
M  V30 1775 C 169.78 -0.413052 -1.91189 0
M  V30 1776 C 170.16 1.1056 -1.79832 0
M  V30 1777 O 169.508 1.93771 -1.21099 0
M  V30 1778 C 169.718 -0.903191 -3.3711 0
M  V30 1779 C 171.066 -0.93395 -4.14201 0
M  V30 1780 O 172.09 -0.849373 -3.45925 0
M  V30 1781 O 170.949 -1.05772 -5.36167 0
M  V30 1782 H 168.043 -0.125035 -0.817493 0
M  V30 1783 H 170.589 -0.966269 -1.39504 0
M  V30 1784 H 169.361 -1.94692 -3.39427 0
M  V30 1785 H 168.984 -0.328732 -3.96239 0
M  V30 1786 N 169.982 1.44106 -0.638065 0
M  V30 1787 C 171.229 2.01978 -0.14533 0
M  V30 1788 C 171.557 1.50234 1.23532 0
M  V30 1789 O 170.812 0.679548 1.83523 0
M  V30 1790 C 171.111 3.5729 -0.0887327 0
M  V30 1791 C 170.777 4.28317 -1.40909 0
M  V30 1792 C 169.439 4.47437 -1.77069 0
M  V30 1793 C 171.791 4.6867 -2.28031 0
M  V30 1794 C 169.119 5.04171 -3.00047 0
M  V30 1795 C 171.471 5.26766 -3.50286 0
M  V30 1796 C 170.135 5.44104 -3.86661 0
M  V30 1797 H 169.405 0.739089 -0.0531801 0
M  V30 1798 H 172.052 1.72781 -0.825761 0
M  V30 1799 H 170.357 3.8594 0.675095 0
M  V30 1800 H 172.054 3.99807 0.309145 0
M  V30 1801 H 168.644 4.1377 -1.1177 0
M  V30 1802 H 172.828 4.53604 -2.01388 0
M  V30 1803 H 168.084 5.15782 -3.28298 0
M  V30 1804 H 172.258 5.56983 -4.18023 0
M  V30 1805 H 169.885 5.87832 -4.82034 0
M  V30 1806 N 171.46 0.379036 1.52974 0
M  V30 1807 C 172.408 -0.476033 2.27677 0
M  V30 1808 C 173.402 -1.0719 1.31174 0
M  V30 1809 O 174.608 -1.01355 1.48752 0
M  V30 1810 H 170.983 -0.172255 0.732006 0
M  V30 1811 H 172.954 0.175615 2.97883 0
M  V30 1812 C 171.703 -1.5967 3.0887 0
M  V30 1813 H 171.026 -1.1475 3.82978 0
M  V30 1814 H 172.466 -2.16943 3.64296 0
M  V30 1815 C 170.925 -2.54682 2.20542 0
M  V30 1816 O 171.455 -3.57836 1.82527 0
M  V30 1817 N 169.661 -2.24183 1.84907 0
M  V30 1818 H 169.208 -1.40333 2.1602 0
M  V30 1819 H 169.166 -2.88006 1.26096 0
M  V30 1820 N 172.938 -1.57226 0.108567 0
M  V30 1821 C 174.184 -1.95121 -0.552761 0
M  V30 1822 C 174.517 -0.991345 -1.66991 0
M  V30 1823 O 173.792 -0.0267211 -1.94482 0
M  V30 1824 C 174.075 -3.43039 -1.09528 0
M  V30 1825 C 173.928 -4.49797 0.0177332 0
M  V30 1826 C 175.247 -3.92567 -1.98945 0
M  V30 1827 H 172.366 -0.709496 -0.199461 0
M  V30 1828 H 175.008 -1.89126 0.182011 0
M  V30 1829 H 173.158 -3.48279 -1.72146 0
M  V30 1830 H 174.83 -4.56661 0.652584 0
M  V30 1831 H 173.073 -4.284 0.682309 0
M  V30 1832 H 173.744 -5.50528 -0.402919 0
M  V30 1833 H 176.22 -3.89565 -1.46214 0
M  V30 1834 H 175.096 -4.96605 -2.33827 0
M  V30 1835 H 175.357 -3.32648 -2.91201 0
M  V30 1836 N 174.416 0.165178 -1.56732 0
M  V30 1837 C 175.644 0.896218 -1.86482 0
M  V30 1838 C 176.059 1.75555 -0.694675 0
M  V30 1839 O 175.416 1.79379 0.33607 0
M  V30 1840 C 175.467 1.76792 -3.1532 0
M  V30 1841 O 175.188 0.943239 -4.27825 0
M  V30 1842 C 176.689 2.6081 -3.58459 0
M  V30 1843 H 173.909 0.260064 -0.618553 0
M  V30 1844 H 176.453 0.163428 -2.03846 0
M  V30 1845 H 174.608 2.45398 -2.99764 0
M  V30 1846 H 175.022 1.53998 -5.01383 0
M  V30 1847 H 176.496 3.17579 -4.51495 0
M  V30 1848 H 176.973 3.35977 -2.82872 0
M  V30 1849 H 177.579 1.97526 -3.76648 0
M  V30 1850 N 175.894 1.51508 0.433938 0
M  V30 1851 C 176.804 1.75917 1.5521 0
M  V30 1852 C 177.82 0.643545 1.61662 0
M  V30 1853 O 178.996 0.926183 1.7884 0
M  V30 1854 C 176.061 1.88213 2.91164 0
M  V30 1855 C 175.122 3.12074 2.94802 0
M  V30 1856 C 174.355 3.23774 4.24271 0
M  V30 1857 O 174.578 2.4133 5.16833 0
M  V30 1858 O 173.512 4.16774 4.34262 0
M  V30 1859 H 177.338 2.70777 1.37527 0
M  V30 1860 H 174.923 1.36051 0.617293 0
M  V30 1861 H 176.805 1.98267 3.71845 0
M  V30 1862 H 175.48 0.965413 3.08968 0
M  V30 1863 H 174.387 3.07497 2.13065 0
M  V30 1864 H 175.72 4.03446 2.81943 0
M  V30 1865 N 177.372 -0.689602 1.41712 0
M  V30 1866 C 178.619 -1.44966 1.4139 0
M  V30 1867 C 178.947 -1.94484 0.025105 0
M  V30 1868 O 178.202 -1.70307 -0.964048 0
M  V30 1869 C 178.501 -2.67298 2.37247 0
M  V30 1870 C 178.167 -2.36405 3.83958 0
M  V30 1871 C 176.829 -2.27691 4.23923 0
M  V30 1872 C 179.181 -2.11043 4.76561 0
M  V30 1873 C 176.509 -1.91719 5.54492 0
M  V30 1874 C 178.861 -1.76578 6.07456 0
M  V30 1875 C 177.525 -1.66363 6.46436 0
M  V30 1876 H 176.795 -0.53047 0.517381 0
M  V30 1877 H 179.442 -0.787655 1.74552 0
M  V30 1878 H 177.747 -3.38461 1.9736 0
M  V30 1879 H 179.444 -3.25452 2.34269 0
M  V30 1880 H 176.034 -2.44085 3.52308 0
M  V30 1881 H 180.218 -2.16717 4.46483 0
M  V30 1882 H 175.474 -1.82367 5.83568 0
M  V30 1883 H 179.648 -1.55974 6.78708 0
M  V30 1884 H 177.275 -1.38258 7.47522 0
M  V30 1885 N 178.85 -1.27639 -0.924453 0
M  V30 1886 C 179.76 -1.12466 -2.05885 0
M  V30 1887 C 180.776 -0.053869 -1.73917 0
M  V30 1888 O 181.952 -0.261012 -1.99702 0
M  V30 1889 C 179.017 -0.776768 -3.37886 0
M  V30 1890 C 178.078 -1.92878 -3.83532 0
M  V30 1891 C 177.311 -1.59739 -5.09234 0
M  V30 1892 O 177.534 -0.506782 -5.68144 0
M  V30 1893 O 176.468 -2.43761 -5.50331 0
M  V30 1894 H 180.294 -2.07671 -2.21599 0
M  V30 1895 H 177.879 -1.06857 -1.04413 0
M  V30 1896 H 179.761 -0.596229 -4.17161 0
M  V30 1897 H 178.436 0.145732 -3.23372 0
M  V30 1898 H 177.343 -2.1644 -3.0513 0
M  V30 1899 H 178.676 -2.8316 -4.02593 0
M  V30 1900 N 180.328 1.1314 -1.09713 0
M  V30 1901 C 181.575 1.84484 -0.834987 0
M  V30 1902 C 181.903 1.83689 0.639418 0
M  V30 1903 O 181.158 1.2724 1.4869 0
M  V30 1904 C 181.457 3.32167 -1.3191 0
M  V30 1905 C 181.123 3.53139 -2.80363 0
M  V30 1906 C 179.785 3.58571 -3.20905 0
M  V30 1907 C 182.137 3.60866 -3.76065 0
M  V30 1908 C 179.465 3.69267 -4.55916 0
M  V30 1909 C 181.817 3.73089 -5.10869 0
M  V30 1910 C 180.481 3.76775 -5.50996 0
M  V30 1911 H 179.751 0.675073 -0.305544 0
M  V30 1912 H 182.398 1.33554 -1.37243 0
M  V30 1913 H 180.703 3.85469 -0.701517 0
M  V30 1914 H 182.4 3.85821 -1.09284 0
M  V30 1915 H 178.99 3.49569 -2.47991 0
M  V30 1916 H 183.174 3.55946 -3.45855 0
M  V30 1917 H 178.43 3.70388 -4.86438 0
M  V30 1918 H 182.604 3.78011 -5.84877 0
M  V30 1919 H 180.231 3.84815 -6.55608 0
M  V30 1920 N 181.806 0.884767 1.30421 0
M  V30 1921 C 183.055 0.499164 1.95426 0
M  V30 1922 C 183.368 -0.95645 1.70621 0
M  V30 1923 O 184.574 -1.44889 2.29607 0
M  V30 1924 C 183.03 0.84177 3.49917 0
M  V30 1925 C 182.638 2.31514 3.83543 0
M  V30 1926 C 184.382 0.525355 4.21237 0
M  V30 1927 C 182.289 2.59939 5.31212 0
M  V30 1928 H 181.219 0.182944 0.73147 0
M  V30 1929 H 183.87 1.07971 1.48373 0
M  V30 1930 H 182.252 0.190311 3.95542 0
M  V30 1931 H 183.426 3.0109 3.48829 0
M  V30 1932 H 181.741 2.59907 3.25326 0
M  V30 1933 H 184.338 0.714762 5.29901 0
M  V30 1934 H 184.681 -0.535222 4.12845 0
M  V30 1935 H 185.214 1.134 3.81294 0
M  V30 1936 H 181.953 3.64736 5.44654 0
M  V30 1937 H 181.473 1.94972 5.67227 0
M  V30 1938 H 183.152 2.45429 5.98643 0
M  V30 1939 N 183.284 -1.43765 0.645699 0
M  V30 1940 C 184.512 -2.06253 0.163556 0
M  V30 1941 C 184.927 -1.48352 -1.16778 0
M  V30 1942 O 184.284 -0.611932 -1.71935 0
M  V30 1943 C 184.335 -3.61453 0.0583186 0
M  V30 1944 O 184.056 -4.172 1.33702 0
M  V30 1945 C 185.557 -4.41002 -0.450795 0
M  V30 1946 H 182.777 -0.665413 0.0864077 0
M  V30 1947 H 185.321 -1.84396 0.884222 0
M  V30 1948 H 183.476 -3.82522 -0.612865 0
M  V30 1949 H 183.89 -5.10791 1.19131 0
M  V30 1950 H 185.364 -5.49966 -0.473403 0
M  V30 1951 H 185.841 -4.13488 -1.48068 0
M  V30 1952 H 186.447 -4.24886 0.187637 0
M  V30 1953 N 184.763 -0.387143 -1.52771 0
M  V30 1954 C 185.726 0.436939 -2.24997 0
M  V30 1955 C 186.726 0.991991 -1.26555 0
M  V30 1956 O 187.916 0.874335 -1.50669 0
M  V30 1957 C 185.048 1.61281 -3.00335 0
M  V30 1958 H 186.241 -0.195365 -2.99263 0
M  V30 1959 H 183.794 -0.139218 -1.55679 0
M  V30 1960 H 184.529 2.2826 -2.30364 0
M  V30 1961 H 184.314 1.22154 -3.72587 0
M  V30 1962 H 185.804 2.19629 -3.5518 0
M  V30 1963 N 186.241 1.57166 -0.116904 0
M  V30 1964 C 187.171 2.18222 0.830759 0
M  V30 1965 C 188.152 1.12167 1.27877 0
M  V30 1966 O 189.337 1.40394 1.34176 0
M  V30 1967 C 186.467 2.77996 2.08172 0
M  V30 1968 C 185.421 3.89614 1.77157 0
M  V30 1969 C 184.747 4.36187 3.09265 0
M  V30 1970 C 186.047 5.1181 1.04151 0
M  V30 1971 H 187.741 2.97664 0.321992 0
M  V30 1972 H 185.287 1.4318 0.153434 0
M  V30 1973 H 187.24 3.19366 2.74924 0
M  V30 1974 H 185.964 1.9584 2.6137 0
M  V30 1975 H 184.623 3.48816 1.12796 0
M  V30 1976 H 184.271 3.50893 3.60393 0
M  V30 1977 H 183.971 5.11455 2.89288 0
M  V30 1978 H 185.495 4.80207 3.77139 0
M  V30 1979 H 186.909 5.50214 1.61052 0
M  V30 1980 H 185.306 5.92648 0.942762 0
M  V30 1981 H 186.376 4.84892 0.0279022 0
M  V30 1982 N 187.719 -0.156864 1.56817 0
M  V30 1983 C 188.967 -0.869404 1.82444 0
M  V30 1984 C 189.288 -1.82147 0.69623 0
M  V30 1985 O 188.558 -1.93847 -0.28287 0
M  V30 1986 H 187.138 -0.324043 0.673056 0
M  V30 1987 H 189.8 -0.153224 1.94297 0
M  V30 1988 H 188.896 -1.43761 2.77019 0
M  V30 1989 N 189.197 -1.51736 -0.425897 0
M  V30 1990 C 190.427 -1.68549 -1.19476 0
M  V30 1991 C 190.835 -0.387288 -1.85194 0
M  V30 1992 O 190.178 0.645142 -1.71999 0
M  V30 1993 C 190.24 -2.75275 -2.31223 0
M  V30 1994 C 189.904 -4.17534 -1.8578 0
M  V30 1995 C 190.901 -5.01936 -1.35485 0
M  V30 1996 C 188.586 -4.6369 -1.93123 0
M  V30 1997 C 190.58 -6.30559 -0.931347 0
M  V30 1998 C 188.267 -5.92307 -1.50384 0
M  V30 1999 C 189.265 -6.75569 -1.00473 0
M  V30 2000 O 188.953 -8.0178 -0.583452 0
M  V30 2001 H 188.685 -0.568525 -0.365725 0
M  V30 2002 H 191.239 -1.98982 -0.509444 0
M  V30 2003 H 189.469 -2.40182 -3.03067 0
M  V30 2004 H 191.158 -2.80853 -2.93047 0
M  V30 2005 H 191.924 -4.67475 -1.29197 0
M  V30 2006 H 187.803 -3.98997 -2.30916 0
M  V30 2007 H 191.347 -6.95498 -0.541084 0
M  V30 2008 H 187.244 -6.2628 -1.56346 0
M  V30 2009 H 188.012 -8.1543 -0.708275 0
M  V30 2010 N 190.675 0.682077 -1.42076 0
M  V30 2011 C 191.921 1.44283 -1.43366 0
M  V30 2012 C 192.276 1.92344 -0.0465775 0
M  V30 2013 O 191.569 1.67517 0.929973 0
M  V30 2014 C 191.763 2.66036 -2.38662 0
M  V30 2015 C 191.592 2.29889 -3.86499 0
M  V30 2016 C 190.362 2.19599 -4.55087 0
M  V30 2017 C 192.56 1.91999 -4.77117 0
M  V30 2018 N 190.542 1.76478 -5.87987 0
M  V30 2019 C 191.913 1.59741 -5.99068 0
M  V30 2020 C 193.968 1.78927 -4.64639 0
M  V30 2021 C 192.671 1.15723 -7.0993 0
M  V30 2022 C 194.697 1.36314 -5.75476 0
M  V30 2023 C 194.059 1.04975 -6.96534 0
M  V30 2024 H 190.158 0.524739 -0.579805 0
M  V30 2025 H 192.742 0.787834 -1.78048 0
M  V30 2026 H 190.913 3.29237 -2.06053 0
M  V30 2027 H 192.645 3.32588 -2.30581 0
M  V30 2028 H 189.4 2.38433 -4.09202 0
M  V30 2029 H 189.824 1.57362 -6.58458 0
M  V30 2030 H 194.466 2.01805 -3.7153 0
M  V30 2031 H 192.184 0.91591 -8.02893 0
M  V30 2032 H 195.77 1.26731 -5.6783 0
M  V30 2033 H 194.65 0.725017 -7.80841 0
M  V30 2034 N 192.153 1.28127 0.917671 0
M  V30 2035 C 193.383 1.17722 1.6978 0
M  V30 2036 C 193.791 -0.267261 1.87303 0
M  V30 2037 O 193.134 -1.19286 1.39702 0
M  V30 2038 C 193.196 1.79958 3.11216 0
M  V30 2039 C 192.86 3.29187 3.16993 0
M  V30 2040 C 193.857 4.25679 2.98485 0
M  V30 2041 C 191.542 3.70075 3.39632 0
M  V30 2042 C 193.536 5.61035 3.02521 0
M  V30 2043 C 191.223 5.05557 3.433 0
M  V30 2044 C 192.221 6.00847 3.24764 0
M  V30 2045 O 191.909 7.33859 3.28187 0
M  V30 2046 H 191.641 0.409788 0.537634 0
M  V30 2047 H 194.195 1.69694 1.15728 0
M  V30 2048 H 192.425 1.22475 3.66793 0
M  V30 2049 H 194.114 1.64125 3.71238 0
M  V30 2050 H 194.88 3.95426 2.80826 0
M  V30 2051 H 190.759 2.96373 3.53106 0
M  V30 2052 H 194.303 6.35388 2.87971 0
M  V30 2053 H 190.2 5.35462 3.60486 0
M  V30 2054 H 190.968 7.42436 3.44575 0
M  V30 2055 N 193.631 -1.12557 1.10312 0
M  V30 2056 C 194.878 -1.84038 0.844759 0
M  V30 2057 C 195.206 -1.84026 -0.629668 0
M  V30 2058 O 194.461 -1.28026 -1.48013 0
M  V30 2059 C 194.76 -3.31462 1.33669 0
M  V30 2060 C 194.426 -3.51647 2.82232 0
M  V30 2061 C 193.088 -3.56864 3.22802 0
M  V30 2062 C 195.44 -3.58867 3.77974 0
M  V30 2063 C 192.768 -3.66844 4.57867 0
M  V30 2064 C 195.12 -3.70375 5.1284 0
M  V30 2065 C 193.784 -3.73848 5.52986 0
M  V30 2066 H 193.054 -0.673444 0.309119 0
M  V30 2067 H 195.701 -1.32824 1.37949 0
M  V30 2068 H 194.006 -3.85091 0.721949 0
M  V30 2069 H 195.703 -3.85236 1.11329 0
M  V30 2070 H 192.293 -3.48249 2.49842 0
M  V30 2071 H 196.477 -3.54107 3.47738 0
M  V30 2072 H 191.733 -3.67804 4.88396 0
M  V30 2073 H 195.907 -3.74904 5.86873 0
M  V30 2074 H 193.534 -3.81333 6.57639 0
M  V30 2075 N 195.109 -0.891671 -1.2995 0
M  V30 2076 C 196.525 -0.58662 -1.48428 0
M  V30 2077 C 196.725 0.873951 -1.81561 0
M  V30 2078 O 195.781 1.65471 -1.90724 0
M  V30 2079 C 197.094 -1.50553 -2.60296 0
M  V30 2080 C 198.642 -1.50988 -2.74175 0
M  V30 2081 C 199.117 -2.41488 -3.89163 0
M  V30 2082 N 200.608 -2.39489 -3.96483 0
M  V30 2083 C 201.343 -3.06223 -4.84784 0
M  V30 2084 N 200.839 -3.82206 -5.77833 0
M  V30 2085 N 202.632 -2.95421 -4.78208 0
M  V30 2086 H 194.783 -1.83644 -1.06718 0
M  V30 2087 H 197.046 -0.786455 -0.529332 0
M  V30 2088 H 196.752 -2.54581 -2.42654 0
M  V30 2089 H 196.626 -1.22008 -3.56923 0
M  V30 2090 H 199.013 -0.47708 -2.91218 0
M  V30 2091 H 199.094 -1.83567 -1.78148 0
M  V30 2092 H 198.738 -3.44857 -3.72876 0
M  V30 2093 H 198.668 -2.06222 -4.84541 0
M  V30 2094 H 201.159 -1.84278 -3.29924 0
M  V30 2095 H 201.472 -4.302 -6.41988 0
M  V30 2096 H 199.817 -3.86313 -5.77743 0
M  V30 2097 H 203.008 -2.35581 -4.04499 0
M  V30 2098 H 203.181 -3.47704 -5.46814 0
M  V30 2099 N 196.587 1.43421 -0.653314 0
M  V30 2100 C 197.519 2.29071 0.0769134 0
M  V30 2101 C 198.532 1.42513 0.787017 0
M  V30 2102 O 199.721 1.66449 0.644757 0
M  V30 2103 C 196.821 3.19436 1.13199 0
M  V30 2104 C 195.994 4.34533 0.500006 0
M  V30 2105 C 195.053 5.05771 1.45198 0
M  V30 2106 O 194.079 5.61037 0.960538 0
M  V30 2107 N 195.281 5.0928 2.78594 0
M  V30 2108 H 198.046 2.92382 -0.658235 0
M  V30 2109 H 195.607 1.54112 -0.496104 0
M  V30 2110 H 197.599 3.63958 1.76964 0
M  V30 2111 H 196.169 2.57724 1.7691 0
M  V30 2112 H 195.389 3.92925 -0.316738 0
M  V30 2113 H 196.677 5.08766 0.0588345 0
M  V30 2114 H 196.075 4.65751 3.2108 0
M  V30 2115 H 194.632 5.57519 3.37662 0
M  V30 2116 N 198.065 0.39524 1.52563 0
M  V30 2117 C 199.481 0.0454682 1.59535 0
M  V30 2118 C 199.681 -1.44056 1.4089 0
M  V30 2119 O 198.737 -2.20579 1.22888 0
M  V30 2120 C 200.05 0.527963 2.96029 0
M  V30 2121 C 201.598 0.484733 3.09224 0
M  V30 2122 C 202.073 0.943512 4.48176 0
M  V30 2123 N 203.564 0.899765 4.54377 0
M  V30 2124 C 204.299 1.22609 5.60138 0
M  V30 2125 N 203.795 1.62319 6.73516 0
M  V30 2126 N 205.588 1.14696 5.50274 0
M  V30 2127 H 197.739 1.36261 1.62931 0
M  V30 2128 H 200.002 0.558887 0.765735 0
M  V30 2129 H 199.708 1.56607 3.14908 0
M  V30 2130 H 199.582 -0.0698056 3.77135 0
M  V30 2131 H 201.969 -0.544298 2.90037 0
M  V30 2132 H 202.05 1.11838 2.30056 0
M  V30 2133 H 201.694 1.9708 4.68104 0
M  V30 2134 H 201.624 0.286817 5.25818 0
M  V30 2135 H 204.115 0.607632 3.72983 0
M  V30 2136 H 204.428 1.85567 7.5019 0
M  V30 2137 H 202.773 1.66211 6.74833 0
M  V30 2138 H 205.964 0.835701 4.6058 0
M  V30 2139 H 206.137 1.40459 6.32594 0
M  V30 2140 N 199.544 -1.57102 0.125237 0
M  V30 2141 C 200.476 -2.12726 -0.853237 0
M  V30 2142 C 201.489 -1.07145 -1.22571 0
M  V30 2143 O 202.678 -1.34497 -1.17358 0
M  V30 2144 C 199.778 -2.61709 -2.15317 0
M  V30 2145 C 198.951 -3.91456 -1.95143 0
M  V30 2146 C 198.01 -4.25973 -3.08923 0
M  V30 2147 O 197.036 -4.94682 -2.81564 0
M  V30 2148 N 198.238 -3.83795 -4.35524 0
M  V30 2149 H 201.003 -2.97307 -0.377964 0
M  V30 2150 H 198.564 -1.61792 -0.0590011 0
M  V30 2151 H 200.556 -2.81826 -2.90441 0
M  V30 2152 H 199.126 -1.81974 -2.54174 0
M  V30 2153 H 198.346 -3.80185 -1.04177 0
M  V30 2154 H 199.634 -4.76283 -1.78976 0
M  V30 2155 H 199.032 -3.2839 -4.60626 0
M  V30 2156 H 197.589 -4.09008 -5.07499 0
M  V30 2157 N 201.022 0.148545 -1.56898 0
M  V30 2158 C 202.268 0.862694 -1.83536 0
M  V30 2159 C 202.601 1.80889 -0.706604 0
M  V30 2160 O 201.876 1.92328 0.289885 0
M  V30 2161 C 202.159 1.63853 -3.20662 0
M  V30 2162 C 202.012 0.713925 -4.44098 0
M  V30 2163 C 203.331 2.60133 -3.54991 0
M  V30 2164 H 200.45 0.312179 -0.667618 0
M  V30 2165 H 203.092 0.127953 -1.89569 0
M  V30 2166 H 201.242 2.26489 -3.1565 0
M  V30 2167 H 202.914 0.098686 -4.61194 0
M  V30 2168 H 201.157 0.0234019 -4.33794 0
M  V30 2169 H 201.828 1.29278 -5.36648 0
M  V30 2170 H 204.304 2.07616 -3.60603 0
M  V30 2171 H 203.18 3.11468 -4.51972 0
M  V30 2172 H 203.441 3.41417 -2.80868 0
M  V30 2173 N 202.5 1.5196 0.417844 0
M  V30 2174 C 203.777 1.56146 1.17803 0
M  V30 2175 C 204.157 0.337275 2.08388 0
M  V30 2176 O 203.505 -0.676447 2.18258 0
M  V30 2177 C 203.715 2.88566 1.96293 0
M  V30 2178 C 205.063 3.41244 2.52662 0
M  V30 2179 O 206.087 2.90247 2.06483 0
M  V30 2180 O 204.946 4.30273 3.36938 0
M  V30 2181 H 202.04 0.628598 0.537395 0
M  V30 2182 H 204.586 1.64283 0.425331 0
M  V30 2183 H 203.358 3.69116 1.2988 0
M  V30 2184 H 202.981 2.83681 2.78587 0
M  V30 2185 N 203.978 -0.674533 1.42435 0
M  V30 2186 C 205.224 -1.43671 1.43131 0
M  V30 2187 C 205.557 -1.94142 0.0476021 0
M  V30 2188 O 204.832 -1.70924 -0.928188 0
M  V30 2189 C 205.115 -2.63355 2.45594 0
M  V30 2190 C 204.968 -2.18514 3.93156 0
M  V30 2191 C 206.287 -3.65571 2.45043 0
M  V30 2192 H 203.406 -0.521077 0.521198 0
M  V30 2193 H 206.048 -0.766551 1.7385 0
M  V30 2194 H 204.198 -3.2053 2.19528 0
M  V30 2195 H 205.87 -1.66504 4.30202 0
M  V30 2196 H 204.113 -1.50086 4.07009 0
M  V30 2197 H 204.784 -3.04484 4.60428 0
M  V30 2198 H 207.26 -3.18113 2.68223 0
M  V30 2199 H 206.136 -4.46893 3.18713 0
M  V30 2200 H 206.397 -4.16716 1.47649 0
M  V30 2201 N 205.456 -1.28612 -0.910864 0
M  V30 2202 C 206.419 -1.12803 -1.9952 0
M  V30 2203 C 207.419 -0.0668264 -1.60661 0
M  V30 2204 O 208.609 -0.312847 -1.71368 0
M  V30 2205 C 205.741 -0.72254 -3.33155 0
M  V30 2206 H 206.934 -2.09109 -2.14973 0
M  V30 2207 H 204.487 -1.11639 -1.09391 0
M  V30 2208 H 205.222 0.241152 -3.23402 0
M  V30 2209 H 205.007 -1.48916 -3.62721 0
M  V30 2210 H 206.497 -0.634666 -4.12749 0
M  V30 2211 N 206.934 1.1197 -1.10907 0
M  V30 2212 C 208.18 1.8386 -0.855773 0
M  V30 2213 C 208.513 1.84134 0.617103 0
M  V30 2214 O 207.788 1.29041 1.45529 0
M  V30 2215 C 208.071 3.31305 -1.411 0
M  V30 2216 C 207.924 3.39456 -2.9511 0
M  V30 2217 C 209.243 4.2721 -1.05736 0
M  V30 2218 H 206.362 0.667545 -0.312334 0
M  V30 2219 H 209.004 1.31331 -1.37303 0
M  V30 2220 H 207.154 3.76169 -0.97105 0
M  V30 2221 H 208.826 3.03191 -3.47668 0
M  V30 2222 H 207.069 2.79849 -3.31462 0
M  V30 2223 H 207.74 4.43209 -3.29044 0
M  V30 2224 H 210.216 3.90497 -1.43706 0
M  V30 2225 H 209.092 5.28775 -1.47269 0
M  V30 2226 H 209.353 4.42088 0.0325958 0
M  V30 2227 N 208.412 0.89855 1.29475 0
M  V30 2228 C 209.661 0.519863 1.94885 0
M  V30 2229 C 209.974 -0.9383 1.71625 0
M  V30 2230 O 211.18 -1.42445 2.31131 0
M  V30 2231 C 209.636 0.878836 3.49005 0
M  V30 2232 C 209.244 2.35569 3.81066 0
M  V30 2233 C 210.988 0.570004 4.20656 0
M  V30 2234 C 208.895 2.65558 5.28425 0
M  V30 2235 H 207.825 0.190692 0.729488 0
M  V30 2236 H 210.476 1.09539 1.47219 0
M  V30 2237 H 208.858 0.232253 3.95318 0
M  V30 2238 H 210.032 3.04773 3.45616 0
M  V30 2239 H 208.347 2.63343 3.22552 0
M  V30 2240 H 210.944 0.770925 5.29113 0
M  V30 2241 H 211.287 -0.491404 4.1339 0
M  V30 2242 H 211.82 1.17438 3.8007 0
M  V30 2243 H 208.559 3.70493 5.40754 0
M  V30 2244 H 208.079 2.00977 5.65127 0
M  V30 2245 H 209.758 2.51765 5.96006 0
M  V30 2246 N 209.89 -1.43072 0.660911 0
M  V30 2247 C 210.8 -2.34585 -0.0264163 0
M  V30 2248 C 211.816 -1.54316 -0.803898 0
M  V30 2249 O 212.992 -1.86939 -0.749391 0
M  V30 2250 C 210.057 -3.32689 -0.975639 0
M  V30 2251 C 209.118 -4.2886 -0.194236 0
M  V30 2252 C 208.351 -5.22278 -1.09825 0
M  V30 2253 O 208.574 -5.20299 -2.33763 0
M  V30 2254 O 207.508 -5.99228 -0.566513 0
M  V30 2255 H 211.334 -2.94869 0.727034 0
M  V30 2256 H 208.919 -1.43342 0.42111 0
M  V30 2257 H 210.801 -3.92995 -1.52094 0
M  V30 2258 H 209.476 -2.74898 -1.70918 0
M  V30 2259 H 208.383 -3.72011 0.394835 0
M  V30 2260 H 209.716 -4.89655 0.499899 0
M  V30 2261 N 211.368 -0.403325 -1.52352 0
M  V30 2262 C 212.614 0.174605 -2.02047 0
M  V30 2263 C 212.947 1.45282 -1.28867 0
M  V30 2264 O 212.222 1.90483 -0.393257 0
M  V30 2265 C 212.505 0.428238 -3.57545 0
M  V30 2266 C 212.358 -0.866248 -4.4138 0
M  V30 2267 C 213.677 1.21287 -4.23057 0
M  V30 2268 H 210.796 0.0619851 -0.734389 0
M  V30 2269 H 213.438 -0.53565 -1.82293 0
M  V30 2270 H 211.588 1.03327 -3.74507 0
M  V30 2271 H 213.26 -1.50265 -4.3614 0
M  V30 2272 H 211.503 -1.47851 -4.07827 0
M  V30 2273 H 212.174 -0.643249 -5.48239 0
M  V30 2274 H 214.65 0.700703 -4.10158 0
M  V30 2275 H 213.526 1.35909 -5.31808 0
M  V30 2276 H 213.787 2.23193 -3.81625 0
M  V30 2277 N 212.846 1.57033 -0.133567 0
M  V30 2278 C 214.094 1.953 0.519848 0
M  V30 2279 C 214.415 1.01866 1.66278 0
M  V30 2280 O 213.685 0.0776513 1.95746 0
M  V30 2281 H 212.265 0.721091 0.195032 0
M  V30 2282 H 214.927 1.93809 -0.205921 0
M  V30 2283 H 214.023 2.98695 0.904854 0
M  V30 2284 N 214.325 -0.140222 1.56975 0
M  V30 2285 C 215.574 -0.850152 1.82908 0
M  V30 2286 C 215.887 -1.82028 0.715892 0
M  V30 2287 O 217.093 -2.57485 0.861016 0
M  V30 2288 C 215.549 -1.5625 3.24213 0
M  V30 2289 C 215.157 -0.63443 4.43485 0
M  V30 2290 C 216.901 -2.25881 3.59413 0
M  V30 2291 C 214.808 -1.34879 5.75814 0
M  V30 2292 H 213.738 -0.321221 0.682153 0
M  V30 2293 H 216.389 -0.102874 1.83211 0
M  V30 2294 H 214.771 -2.35565 3.18316 0
M  V30 2295 H 215.945 0.12398 4.60633 0
M  V30 2296 H 214.26 -0.0461836 4.16374 0
M  V30 2297 H 216.857 -2.79978 4.5554 0
M  V30 2298 H 217.2 -3.02693 2.85802 0
M  V30 2299 H 217.733 -1.53477 3.67001 0
M  V30 2300 H 214.472 -0.622385 6.52539 0
M  V30 2301 H 213.992 -2.07974 5.6259 0
M  V30 2302 H 215.671 -1.88784 6.18845 0
M  V30 2303 N 215.803 -1.52179 -0.40978 0
M  V30 2304 C 217.051 -1.65878 -1.15451 0
M  V30 2305 C 217.372 -0.390771 -1.91044 0
M  V30 2306 O 216.642 0.594323 -1.86667 0
M  V30 2307 H 215.222 -0.611405 -0.429177 0
M  V30 2308 H 217.884 -1.89219 -0.467134 0
M  V30 2309 H 216.98 -2.49954 -1.86894 0
M  V30 2310 N 217.281 0.66697 -1.42791 0
M  V30 2311 C 218.529 1.42417 -1.43394 0
M  V30 2312 C 218.85 1.94925 -0.0542373 0
M  V30 2313 O 218.12 1.73564 0.908415 0
M  V30 2314 H 216.7 0.528515 -0.527902 0
M  V30 2315 H 219.362 0.787562 -1.78279 0
M  V30 2316 H 218.458 2.27333 -2.13837 0
M  V30 2317 N 218.759 1.29093 0.90403 0
M  V30 2318 C 220.036 1.075 1.63411 0
M  V30 2319 C 220.416 -0.382346 2.07609 0
M  V30 2320 O 219.764 -1.37031 1.82851 0
M  V30 2321 C 219.974 2.05858 2.81822 0
M  V30 2322 C 221.322 2.36539 3.52611 0
M  V30 2323 O 222.346 2.04019 2.91984 0
M  V30 2324 O 221.205 2.92085 4.61897 0
M  V30 2325 H 218.299 0.411547 0.717327 0
M  V30 2326 H 220.845 1.40449 0.952479 0
M  V30 2327 H 219.617 3.04037 2.46327 0
M  V30 2328 H 219.24 1.73613 3.57693 0
M  V30 2329 N 220.237 -1.11381 1.11499 0
M  V30 2330 C 221.465 -1.86934 0.88675 0
M  V30 2331 C 221.88 -1.80195 -0.563476 0
M  V30 2332 O 221.237 -1.18367 -1.38908 0
M  V30 2333 C 221.288 -3.35722 1.34064 0
M  V30 2334 O 221.009 -3.4232 2.73401 0
M  V30 2335 C 222.51 -4.2818 1.14791 0
M  V30 2336 H 219.73 -0.591117 0.317523 0
M  V30 2337 H 222.274 -1.40865 1.48248 0
M  V30 2338 H 220.429 -3.79294 0.788355 0
M  V30 2339 H 220.843 -4.34971 2.93087 0
M  V30 2340 H 222.317 -5.30817 1.5145 0
M  V30 2341 H 222.794 -4.39113 0.0875279 0
M  V30 2342 H 223.4 -3.90402 1.68721 0
M  V30 2343 N 221.715 -0.905404 -1.28997 0
M  V30 2344 C 222.992 -0.453513 -1.9027 0
M  V30 2345 C 223.372 1.06721 -1.82137 0
M  V30 2346 O 222.72 1.91159 -1.25182 0
M  V30 2347 C 222.93 -0.974494 -3.35119 0
M  V30 2348 C 224.278 -1.0216 -4.12127 0
M  V30 2349 O 225.302 -0.922557 -3.44046 0
M  V30 2350 O 224.161 -1.17121 -5.33802 0
M  V30 2351 H 221.255 -0.142347 -0.814657 0
M  V30 2352 H 223.801 -0.995642 -1.37423 0
M  V30 2353 H 222.573 -2.01848 -3.35221 0
M  V30 2354 H 222.196 -0.412706 -3.95452 0
M  V30 2355 N 223.193 1.4272 -0.668489 0
M  V30 2356 C 224.418 2.06484 -0.194758 0
M  V30 2357 C 224.843 1.49862 1.13679 0
M  V30 2358 O 224.201 0.614582 1.70565 0
M  V30 2359 C 224.249 3.60353 -0.133546 0
M  V30 2360 O 223.353 4.02464 0.899806 0
M  V30 2361 H 222.694 0.656137 -0.10188 0
M  V30 2362 H 225.224 1.82964 -0.915722 0
M  V30 2363 H 225.234 4.07976 0.0447041 0
M  V30 2364 H 223.909 4.00938 -1.1055 0
M  V30 2365 H 222.486 3.66402 0.693109 0
M  V30 2366 N 224.671 0.411399 1.52136 0
M  V30 2367 C 225.899 -0.163076 2.06256 0
M  V30 2368 C 226.314 -1.3867 1.28125 0
M  V30 2369 O 225.671 -1.79423 0.333721 0
M  V30 2370 C 225.722 -0.511252 3.57867 0
M  V30 2371 O 225.443 0.66378 4.33042 0
M  V30 2372 C 226.944 -1.13921 4.28412 0
M  V30 2373 H 224.164 -0.0193897 0.67072 0
M  V30 2374 H 226.708 0.583007 1.96013 0
M  V30 2375 H 224.863 -1.20723 3.6811 0
M  V30 2376 H 225.277 0.372601 5.23175 0
M  V30 2377 H 226.751 -1.33302 5.35663 0
M  V30 2378 H 227.228 -2.11296 3.85033 0
M  V30 2379 H 227.834 -0.483373 4.22544 0
M  V30 2380 N 226.149 -1.5696 0.141893 0
M  V30 2381 C 227.097 -2.17784 -0.816874 0
M  V30 2382 C 228.091 -1.1334 -1.25899 0
M  V30 2383 O 229.297 -1.316 -1.22806 0
M  V30 2384 H 225.672 -0.697278 -0.281615 0
M  V30 2385 H 227.643 -2.97087 -0.279621 0
M  V30 2386 C 226.392 -2.80983 -2.04802 0
M  V30 2387 H 225.715 -3.61062 -1.7168 0
M  V30 2388 H 227.155 -3.2705 -2.69841 0
M  V30 2389 C 225.614 -1.79228 -2.8527 0
M  V30 2390 O 226.144 -1.25962 -3.8144 0
M  V30 2391 N 224.35 -1.48647 -2.49704 0
M  V30 2392 H 223.897 -1.92155 -1.71564 0
M  V30 2393 H 223.855 -0.808115 -3.03837 0
M  V30 2394 N 227.627 0.131896 -1.57047 0
M  V30 2395 C 228.873 0.843179 -1.84441 0
M  V30 2396 C 229.206 1.80129 -0.725749 0
M  V30 2397 O 228.481 1.92624 0.269469 0
M  V30 2398 C 228.764 1.60442 -3.22382 0
M  V30 2399 C 228.617 0.666782 -4.4483 0
M  V30 2400 C 229.936 2.56354 -3.5773 0
M  V30 2401 H 227.055 0.305081 -0.670891 0
M  V30 2402 H 229.697 0.107839 -1.89694 0
M  V30 2403 H 227.847 2.23128 -3.18035 0
M  V30 2404 H 229.519 0.0497646 -4.61273 0
M  V30 2405 H 227.762 -0.022609 -4.33794 0
M  V30 2406 H 228.433 1.23579 -5.37989 0
M  V30 2407 H 230.909 2.0378 -3.62785 0
M  V30 2408 H 229.785 3.06657 -4.5525 0
M  V30 2409 H 230.046 3.38419 -2.84473 0
M  V30 2410 N 229.106 1.52395 0.401703 0
M  V30 2411 C 230.355 1.66044 1.14509 0
M  V30 2412 C 230.668 0.400216 1.91462 0
M  V30 2413 O 231.874 0.416632 2.68284 0
M  V30 2414 C 230.33 2.93388 2.0845 0
M  V30 2415 C 229.938 4.26545 1.36978 0
M  V30 2416 C 231.682 3.16402 2.83001 0
M  V30 2417 C 229.589 5.45007 2.29611 0
M  V30 2418 H 228.519 0.618562 0.431158 0
M  V30 2419 H 231.17 1.78886 0.40892 0
M  V30 2420 H 229.552 2.74263 2.8565 0
M  V30 2421 H 230.726 4.56179 0.650916 0
M  V30 2422 H 229.041 4.09692 0.74438 0
M  V30 2423 H 231.638 4.02085 3.52465 0
M  V30 2424 H 231.981 2.30943 3.46368 0
M  V30 2425 H 232.514 3.36034 2.12898 0
M  V30 2426 H 229.253 6.32835 1.70879 0
M  V30 2427 H 228.773 5.19702 2.9945 0
M  V30 2428 H 230.452 5.7838 2.89974 0
M  V30 2429 N 230.584 -0.659388 1.43143 0
M  V30 2430 C 231.812 -1.44723 1.47861 0
M  V30 2431 C 232.227 -1.88563 0.0945886 0
M  V30 2432 O 231.584 -1.59108 -0.893915 0
M  V30 2433 C 231.635 -2.68627 2.41913 0
M  V30 2434 O 231.356 -2.26623 3.74932 0
M  V30 2435 C 232.857 -3.62045 2.55809 0
M  V30 2436 H 230.077 -0.444801 0.502387 0
M  V30 2437 H 232.621 -0.808916 1.87821 0
M  V30 2438 H 230.776 -3.28613 2.05164 0
M  V30 2439 H 231.19 -3.06745 4.2545 0
M  V30 2440 H 232.664 -4.45666 3.25708 0
M  V30 2441 H 233.141 -4.08981 1.60099 0
M  V30 2442 H 233.747 -3.07944 2.93344 0
M  V30 2443 N 232.062 -1.29571 -0.897171 0
M  V30 2444 C 233.473 -1.15964 -1.46319 0
M  V30 2445 C 233.824 0.244267 -1.94674 0
M  V30 2446 O 232.949 1.13998 -1.83939 0
M  V30 2447 C 233.544 -2.09906 -2.65942 0
M  V30 2448 C 232.103 -2.00314 -3.18671 0
M  V30 2449 C 231.25 -2.00687 -1.91363 0
M  V30 2450 H 234.201 -1.42019 -0.708268 0
M  V30 2451 H 234.222 -1.67276 -3.41759 0
M  V30 2452 H 233.734 -3.12075 -2.30718 0
M  V30 2453 H 231.835 -1.01242 -3.58582 0
M  V30 2454 H 231.948 -2.88102 -3.82798 0
M  V30 2455 H 230.312 -1.45319 -2.09175 0
M  V30 2456 H 231.095 -3.04566 -1.58413 0
M  V30 2457 N 233.54 1.10788 -1.12088 0
M  V30 2458 C 234.786 1.82942 -0.875226 0
M  V30 2459 C 235.119 1.84779 0.597538 0
M  V30 2460 O 234.394 1.30578 1.44152 0
M  V30 2461 C 234.677 3.29789 -1.44606 0
M  V30 2462 C 234.53 3.36307 -2.98693 0
M  V30 2463 C 235.849 4.26064 -1.10261 0
M  V30 2464 H 232.968 0.664195 -0.319397 0
M  V30 2465 H 235.61 1.29867 -1.38689 0
M  V30 2466 H 233.76 3.75118 -1.01089 0
M  V30 2467 H 235.432 2.99487 -3.50864 0
M  V30 2468 H 233.675 2.76318 -3.34411 0
M  V30 2469 H 234.346 4.39694 -3.33726 0
M  V30 2470 H 236.822 3.88951 -1.4784 0
M  V30 2471 H 235.698 5.27183 -1.52869 0
M  V30 2472 H 235.959 4.42098 -0.0142953 0
M  V30 2473 N 235.018 0.912232 1.28515 0
M  V30 2474 C 236.264 0.545405 1.95328 0
M  V30 2475 C 236.597 -0.908313 1.71649 0
M  V30 2476 O 235.872 -1.64575 1.03659 0
M  V30 2477 C 236.155 0.853483 3.4984 0
M  V30 2478 C 236.008 2.35982 3.82926 0
M  V30 2479 C 237.327 0.348589 4.38717 0
M  V30 2480 H 234.446 0.199626 0.709449 0
M  V30 2481 H 237.088 1.1412 1.5191 0
M  V30 2482 H 235.238 0.34643 3.86952 0
M  V30 2483 H 236.91 2.93738 3.55691 0
M  V30 2484 H 235.153 2.81543 3.30024 0
M  V30 2485 H 235.824 2.52593 4.90816 0
M  V30 2486 H 238.3 0.78294 4.08668 0
M  V30 2487 H 237.176 0.593242 5.45685 0
M  V30 2488 H 237.437 -0.751049 4.35674 0
M  V30 2489 N 236.496 -1.42363 0.676048 0
M  V30 2490 C 237.721 -2.06377 0.205705 0
M  V30 2491 C 238.146 -1.50463 -1.12883 0
M  V30 2492 O 237.504 -0.623619 -1.70237 0
M  V30 2493 C 237.552 -3.60277 0.152655 0
M  V30 2494 O 236.656 -4.02935 -0.87845 0
M  V30 2495 H 235.997 -0.655588 0.105359 0
M  V30 2496 H 238.527 -1.82475 0.925412 0
M  V30 2497 H 238.537 -4.07993 -0.0230675 0
M  V30 2498 H 237.212 -4.00346 1.12675 0
M  V30 2499 H 235.789 -3.66764 -0.673668 0
M  V30 2500 N 237.974 -0.419461 -1.51915 0
M  V30 2501 C 239.22 0.153166 -2.02221 0
M  V30 2502 C 239.553 1.43907 -1.30401 0
M  V30 2503 O 238.828 1.90055 -0.413438 0
M  V30 2504 C 239.111 0.390291 -3.57979 0
M  V30 2505 C 238.964 -0.913014 -4.40436 0
M  V30 2506 C 240.283 1.16794 -4.2432 0
M  V30 2507 H 237.402 0.0541924 -0.735005 0
M  V30 2508 H 240.044 -0.554955 -1.81715 0
M  V30 2509 H 238.194 0.993491 -3.75582 0
M  V30 2510 H 239.866 -1.54882 -4.34522 0
M  V30 2511 H 238.109 -1.52168 -4.06236 0
M  V30 2512 H 238.78 -0.701361 -5.47526 0
M  V30 2513 H 241.256 0.657161 -4.10878 0
M  V30 2514 H 240.132 1.3026 -5.3322 0
M  V30 2515 H 240.393 2.19132 -3.83971 0
M  V30 2516 N 239.452 1.56882 -0.150215 0
M  V30 2517 C 240.382 2.19935 0.784284 0
M  V30 2518 C 241.363 1.14854 1.25469 0
M  V30 2519 O 242.548 1.43209 1.31168 0
M  V30 2520 C 239.678 2.82349 2.02229 0
M  V30 2521 C 238.632 3.93285 1.68853 0
M  V30 2522 C 237.958 4.42649 2.99944 0
M  V30 2523 C 239.258 5.13904 0.932714 0
M  V30 2524 H 240.952 2.9828 0.258781 0
M  V30 2525 H 238.498 1.43473 0.123029 0
M  V30 2526 H 240.451 3.25126 2.68088 0
M  V30 2527 H 239.175 2.0134 2.57157 0
M  V30 2528 H 237.834 3.5113 1.05371 0
M  V30 2529 H 237.482 3.58458 3.52869 0
M  V30 2530 H 237.182 5.17476 2.78374 0
M  V30 2531 H 238.706 4.88099 3.66868 0
M  V30 2532 H 240.12 5.53506 1.49345 0
M  V30 2533 H 238.517 5.94515 0.81684 0
M  V30 2534 H 239.587 4.84842 -0.0749568 0
M  V30 2535 N 240.93 -0.123565 1.57115 0
M  V30 2536 C 242.158 -0.846461 1.88793 0
M  V30 2537 C 242.573 -1.73652 0.740976 0
M  V30 2538 O 241.93 -1.80207 -0.288393 0
M  V30 2539 C 241.981 -1.6837 3.19897 0
M  V30 2540 O 241.702 -0.829477 4.30176 0
M  V30 2541 C 243.203 -2.51214 3.65248 0
M  V30 2542 H 240.423 -0.243573 0.625231 0
M  V30 2543 H 242.967 -0.109324 2.04208 0
M  V30 2544 H 241.122 -2.37364 3.06165 0
M  V30 2545 H 241.536 -1.40651 5.0529 0
M  V30 2546 H 243.01 -3.05497 4.59756 0
M  V30 2547 H 243.487 -3.28359 2.9168 0
M  V30 2548 H 244.093 -1.8747 3.81752 0
M  V30 2549 N 242.408 -1.52605 -0.393616 0
M  V30 2550 C 243.318 -1.79971 -1.50492 0
M  V30 2551 C 244.334 -0.686181 -1.59899 0
M  V30 2552 O 245.51 -0.973274 -1.76322 0
M  V30 2553 C 242.575 -1.95867 -2.86072 0
M  V30 2554 C 241.636 -3.19781 -2.86424 0
M  V30 2555 C 240.869 -3.34909 -4.15538 0
M  V30 2556 O 241.092 -2.54948 -5.10253 0
M  V30 2557 O 240.026 -4.28141 -4.23059 0
M  V30 2558 H 243.852 -2.74328 -1.30299 0
M  V30 2559 H 241.437 -1.3764 -0.581005 0
M  V30 2560 H 243.319 -2.08056 -3.66457 0
M  V30 2561 H 241.994 -1.04699 -3.063 0
M  V30 2562 H 240.901 -3.13038 -2.04837 0
M  V30 2563 H 242.234 -4.1078 -2.71147 0
M  V30 2564 N 243.887 0.651787 -1.4349 0
M  V30 2565 C 245.133 1.41376 -1.45398 0
M  V30 2566 C 245.466 1.94041 -0.0784823 0
M  V30 2567 O 244.741 1.72379 0.900878 0
M  V30 2568 C 245.024 2.59414 -2.49752 0
M  V30 2569 C 244.877 2.12232 -3.96582 0
M  V30 2570 C 246.196 3.61626 -2.50827 0
M  V30 2571 H 243.315 0.512719 -0.529422 0
M  V30 2572 H 245.957 0.738796 -1.75048 0
M  V30 2573 H 244.107 3.16997 -2.246 0
M  V30 2574 H 245.779 1.59639 -4.32797 0
M  V30 2575 H 244.022 1.43592 -4.09346 0
M  V30 2576 H 244.693 2.9712 -4.65214 0
M  V30 2577 H 247.169 3.13805 -2.7325 0
M  V30 2578 H 246.045 4.41766 -3.25783 0
M  V30 2579 H 246.306 4.14314 -1.5426 0
M  V30 2580 N 245.365 1.30045 0.890287 0
M  V30 2581 C 246.328 1.15963 1.977 0
M  V30 2582 C 247.328 0.0923777 1.60534 0
M  V30 2583 O 248.518 0.340071 1.70848 0
M  V30 2584 C 245.65 0.775451 3.31963 0
M  V30 2585 H 246.843 2.12502 2.11619 0
M  V30 2586 H 244.396 1.13366 1.07601 0
M  V30 2587 H 245.131 -0.189671 3.23745 0
M  V30 2588 H 244.916 1.54668 3.60306 0
M  V30 2589 H 246.406 0.700251 4.11687 0
M  V30 2590 N 246.843 -1.10192 1.12674 0
M  V30 2591 C 247.773 -2.18652 0.819362 0
M  V30 2592 C 248.754 -1.68698 -0.217915 0
M  V30 2593 O 249.939 -1.94041 -0.0785581 0
M  V30 2594 C 247.069 -3.46202 0.27594 0
M  V30 2595 C 246.023 -4.09444 1.24656 0
M  V30 2596 C 245.349 -5.31725 0.563258 0
M  V30 2597 C 246.649 -4.52863 2.60217 0
M  V30 2598 H 248.343 -2.44622 1.72628 0
M  V30 2599 H 245.889 -1.17571 0.831451 0
M  V30 2600 H 247.842 -4.21372 0.0486149 0
M  V30 2601 H 246.566 -3.1973 -0.666331 0
M  V30 2602 H 245.225 -3.36284 1.45974 0
M  V30 2603 H 244.873 -5.0153 -0.384235 0
M  V30 2604 H 244.573 -5.74991 1.21075 0
M  V30 2605 H 246.097 -6.09624 0.34503 0
M  V30 2606 H 247.511 -5.19294 2.42913 0
M  V30 2607 H 245.908 -5.06986 3.21068 0
M  V30 2608 H 246.978 -3.65656 3.18471 0
M  V30 2609 N 248.321 -0.919034 -1.28029 0
M  V30 2610 C 249.598 -0.473668 -1.89778 0
M  V30 2611 C 249.978 1.04783 -1.83259 0
M  V30 2612 O 249.326 1.8982 -1.27202 0
M  V30 2613 C 249.536 -1.00998 -3.34066 0
M  V30 2614 C 250.884 -1.06525 -4.1102 0
M  V30 2615 O 251.908 -0.958996 -3.43048 0
M  V30 2616 O 250.767 -1.22776 -5.3253 0
M  V30 2617 H 247.861 -0.15098 -0.813101 0
M  V30 2618 H 250.407 -1.01016 -1.36359 0
M  V30 2619 H 249.179 -2.05392 -3.33061 0
M  V30 2620 H 248.802 -0.454626 -3.94992 0
M  V30 2621 N 249.799 1.42003 -0.683588 0
M  V30 2622 C 250.749 2.27997 0.0121992 0
M  V30 2623 C 251.733 1.4156 0.764822 0
M  V30 2624 O 252.925 1.64935 0.642287 0
M  V30 2625 C 250.054 3.29706 0.956482 0
M  V30 2626 C 249.14 4.23625 0.200739 0
M  V30 2627 N 249.531 4.99448 -0.799087 0
M  V30 2628 C 247.829 4.43845 0.437937 0
M  V30 2629 C 248.53 5.68102 -1.25041 0
M  V30 2630 N 247.506 5.40511 -0.578648 0
M  V30 2631 H 251.308 2.84048 -0.754564 0
M  V30 2632 H 248.822 1.54071 -0.513398 0
M  V30 2633 H 250.819 3.90124 1.47 0
M  V30 2634 H 249.479 2.75216 1.72297 0
M  V30 2635 H 250.49 5.04303 -1.17893 0
M  V30 2636 H 247.167 4.00382 1.18325 0
M  V30 2637 H 248.557 6.38913 -2.07942 0
M  V30 2638 N 251.277 0.427512 1.51691 0
M  V30 2639 C 252.209 -0.424521 2.25234 0
M  V30 2640 C 253.222 -0.994671 1.2888 0
M  V30 2641 O 254.411 -0.890483 1.54702 0
M  V30 2642 C 251.511 -1.60479 2.98496 0
M  V30 2643 C 250.684 -1.15527 4.21868 0
M  V30 2644 C 249.743 -2.20454 4.77793 0
M  V30 2645 O 248.769 -1.8029 5.39893 0
M  V30 2646 N 249.971 -3.52831 4.60967 0
M  V30 2647 H 252.736 0.205749 2.98993 0
M  V30 2648 H 250.297 0.255867 1.59865 0
M  V30 2649 H 252.289 -2.30276 3.32799 0
M  V30 2650 H 250.859 -2.14061 2.27809 0
M  V30 2651 H 250.079 -0.284736 3.9317 0
M  V30 2652 H 251.367 -0.832173 5.01949 0
M  V30 2653 H 250.765 -3.88201 4.11481 0
M  V30 2654 H 249.322 -4.18551 4.99658 0
M  V30 2655 N 252.755 -1.56801 0.158532 0
M  V30 2656 C 253.702 -2.17337 -0.776729 0
M  V30 2657 C 254.672 -1.1096 -1.23601 0
M  V30 2658 O 255.857 -1.39054 -1.30647 0
M  V30 2659 C 252.997 -2.80822 -2.00582 0
M  V30 2660 C 252.11 -4.01624 -1.59129 0
M  V30 2661 C 251.245 -4.53072 -2.77306 0
M  V30 2662 C 250.284 -5.66314 -2.32282 0
M  V30 2663 N 249.421 -6.12329 -3.43508 0
M  V30 2664 H 254.261 -2.96918 -0.253701 0
M  V30 2665 H 251.798 -1.46661 -0.113504 0
M  V30 2666 H 253.756 -3.15779 -2.72652 0
M  V30 2667 H 252.386 -2.03866 -2.50277 0
M  V30 2668 H 251.438 -3.72571 -0.767806 0
M  V30 2669 H 252.75 -4.83633 -1.2207 0
M  V30 2670 H 251.904 -4.90145 -3.57551 0
M  V30 2671 H 250.643 -3.70095 -3.17617 0
M  V30 2672 H 249.648 -5.28806 -1.5048 0
M  V30 2673 H 250.873 -6.51085 -1.93043 0
M  V30 2674 H 248.819 -5.32284 -3.83418 0
M  V30 2675 H 248.736 -6.89293 -3.105 0
M  V30 2676 H 250.004 -6.5405 -4.24075 0
M  V30 2677 N 254.233 0.115231 -1.57178 0
M  V30 2678 C 255.163 1.1423 -2.03651 0
M  V30 2679 C 256.144 1.42967 -0.921655 0
M  V30 2680 O 257.329 1.53343 -1.19162 0
M  V30 2681 C 254.459 2.4675 -2.44401 0
M  V30 2682 C 253.413 2.32467 -3.59365 0
M  V30 2683 C 252.739 3.69984 -3.86026 0
M  V30 2684 C 254.039 1.78203 -4.90959 0
M  V30 2685 H 255.733 0.755749 -2.89705 0
M  V30 2686 H 253.279 0.362093 -1.39373 0
M  V30 2687 H 255.232 3.18854 -2.75517 0
M  V30 2688 H 253.956 2.87302 -1.55322 0
M  V30 2689 H 252.615 1.62811 -3.28463 0
M  V30 2690 H 252.263 4.08028 -2.94147 0
M  V30 2691 H 251.963 3.61279 -4.63412 0
M  V30 2692 H 253.487 4.43587 -4.19599 0
M  V30 2693 H 254.901 2.40128 -5.20587 0
M  V30 2694 H 253.298 1.8031 -5.72371 0
M  V30 2695 H 254.368 0.739876 -4.79222 0
M  V30 2696 N 255.711 1.52812 0.385517 0
M  V30 2697 C 256.641 1.80808 1.47752 0
M  V30 2698 C 257.622 0.660318 1.5676 0
M  V30 2699 O 258.807 0.908246 1.71652 0
M  V30 2700 C 255.937 1.98008 2.85324 0
M  V30 2701 C 254.891 3.13709 2.91154 0
M  V30 2702 C 254.217 3.16169 4.31209 0
M  V30 2703 C 255.517 4.52709 2.60483 0
M  V30 2704 H 257.211 2.72253 1.24573 0
M  V30 2705 H 254.757 1.31003 0.597839 0
M  V30 2706 H 256.71 2.16176 3.61726 0
M  V30 2707 H 255.434 1.03255 3.09848 0
M  V30 2708 H 254.093 2.95329 2.17201 0
M  V30 2709 H 253.741 2.19092 4.52778 0
M  V30 2710 H 253.441 3.93894 4.36029 0
M  V30 2711 H 254.965 3.36496 5.09512 0
M  V30 2712 H 256.379 4.71173 3.26602 0
M  V30 2713 H 254.776 5.32528 2.76648 0
M  V30 2714 H 255.846 4.59186 1.55809 0
M  V30 2715 N 257.189 -0.644168 1.43834 0
M  V30 2716 C 258.437 -1.40117 1.45642 0
M  V30 2717 C 258.758 -1.94814 0.0852413 0
M  V30 2718 O 258.028 -1.74988 -0.880688 0
M  V30 2719 H 256.608 -0.52005 0.536243 0
M  V30 2720 H 259.27 -0.7591 1.7951 0
M  V30 2721 H 258.366 -2.23902 2.17427 0
M  V30 2722 N 258.668 -1.30515 -0.883378 0
M  V30 2723 C 259.618 -1.13641 -1.9766 0
M  V30 2724 C 260.602 -0.0511314 -1.60819 0
M  V30 2725 O 261.794 -0.274623 -1.74857 0
M  V30 2726 C 258.923 -0.831976 -3.33066 0
M  V30 2727 C 258.009 -1.95759 -3.76217 0
M  V30 2728 N 258.4 -3.20313 -3.9145 0
M  V30 2729 C 256.698 -1.85431 -4.05625 0
M  V30 2730 C 257.399 -3.93856 -4.2808 0
M  V30 2731 N 256.375 -3.21919 -4.38029 0
M  V30 2732 H 260.177 -2.08106 -2.07531 0
M  V30 2733 H 257.691 -1.21877 -1.0733 0
M  V30 2734 H 259.688 -0.692102 -4.11115 0
M  V30 2735 H 258.348 0.104588 -3.24532 0
M  V30 2736 H 259.359 -3.55583 -3.76538 0
M  V30 2737 H 256.036 -0.991531 -4.05555 0
M  V30 2738 H 257.426 -5.01125 -4.47575 0
M  V30 2739 N 260.146 1.09593 -1.13257 0
M  V30 2740 C 261.374 1.855 -0.916378 0
M  V30 2741 C 261.789 1.81069 0.534738 0
M  V30 2742 O 261.146 1.20562 1.37007 0
M  V30 2743 C 261.197 3.33546 -1.39388 0
M  V30 2744 O 260.918 3.37927 -2.78813 0
M  V30 2745 C 262.419 4.26299 -1.21588 0
M  V30 2746 H 259.639 0.585991 -0.326887 0
M  V30 2747 H 262.183 1.38488 -1.5047 0
M  V30 2748 H 260.338 3.77992 -0.848597 0
M  V30 2749 H 260.752 4.30254 -2.9997 0
M  V30 2750 H 262.226 5.28341 -1.59876 0
M  V30 2751 H 262.703 4.38918 -0.157376 0
M  V30 2752 H 263.309 3.87668 -1.7491 0
M  V30 2753 N 261.624 0.925811 1.2754 0
M  V30 2754 C 262.873 0.561084 1.93739 0
M  V30 2755 C 263.186 -0.901685 1.73577 0
M  V30 2756 O 264.392 -1.37511 2.34101 0
M  V30 2757 C 262.848 0.952668 3.47062 0
M  V30 2758 C 262.456 2.43599 3.75983 0
M  V30 2759 C 264.2 0.659103 4.19352 0
M  V30 2760 C 262.107 2.76707 5.22673 0
M  V30 2761 H 261.037 0.206122 0.725279 0
M  V30 2762 H 263.688 1.12637 1.44863 0
M  V30 2763 H 262.07 0.316053 3.94737 0
M  V30 2764 H 263.244 3.12035 3.39073 0
M  V30 2765 H 261.559 2.70125 3.16893 0
M  V30 2766 H 264.156 0.882985 5.27359 0
M  V30 2767 H 264.499 -0.403607 4.14339 0
M  V30 2768 H 265.032 1.25473 3.77494 0
M  V30 2769 H 261.771 3.8188 5.32774 0
M  V30 2770 H 261.291 2.12919 5.60737 0
M  V30 2771 H 262.97 2.6435 5.90532 0
M  V30 2772 N 263.102 -1.41638 0.69111 0
M  V30 2773 C 264.33 -2.05628 0.22909 0
M  V30 2774 C 264.745 -1.51992 -1.11999 0
M  V30 2775 O 264.102 -0.666322 -1.69901 0
M  V30 2776 C 264.153 -3.61084 0.173283 0
M  V30 2777 O 263.874 -4.12735 1.46907 0
M  V30 2778 C 265.375 -4.42213 -0.310266 0
M  V30 2779 H 262.595 -0.662327 0.107534 0
M  V30 2780 H 265.139 -1.81489 0.942438 0
M  V30 2781 H 263.294 -3.84278 -0.490858 0
M  V30 2782 H 263.708 -5.06743 1.35322 0
M  V30 2783 H 265.182 -5.51194 -0.298196 0
M  V30 2784 H 265.659 -4.1799 -1.34838 0
M  V30 2785 H 266.265 -4.24074 0.322716 0
M  V30 2786 N 264.58 -0.43555 -1.51462 0
M  V30 2787 C 265.543 0.365137 -2.26273 0
M  V30 2788 C 266.543 0.951227 -1.29647 0
M  V30 2789 O 267.733 0.825958 -1.53374 0
M  V30 2790 C 264.865 1.51645 -3.05314 0
M  V30 2791 H 266.058 -0.290474 -2.9849 0
M  V30 2792 H 263.611 -0.188676 -1.55157 0
M  V30 2793 H 264.346 2.20816 -2.3751 0
M  V30 2794 H 264.131 1.10238 -3.76284 0
M  V30 2795 H 265.621 2.08218 -3.61987 0
M  V30 2796 N 266.058 1.56714 -0.166846 0
M  V30 2797 C 267.307 1.95922 0.479318 0
M  V30 2798 C 267.62 1.05529 1.6469 0
M  V30 2799 O 268.826 1.34399 2.35901 0
M  V30 2800 C 267.282 3.48359 0.90412 0
M  V30 2801 C 266.89 4.47369 -0.237621 0
M  V30 2802 C 268.634 3.96394 1.51896 0
M  V30 2803 C 266.541 5.91039 0.206561 0
M  V30 2804 H 265.471 0.731495 0.18284 0
M  V30 2805 H 268.122 1.81728 -0.254363 0
M  V30 2806 H 266.504 3.57955 1.69365 0
M  V30 2807 H 267.678 4.49485 -1.01489 0
M  V30 2808 H 265.993 4.09366 -0.762128 0
M  V30 2809 H 268.59 5.01186 1.86325 0
M  V30 2810 H 268.933 3.39075 2.41524 0
M  V30 2811 H 269.466 3.89796 0.79395 0
M  V30 2812 H 266.205 6.52221 -0.654834 0
M  V30 2813 H 265.725 5.9224 0.949282 0
M  V30 2814 H 267.404 6.43707 0.651939 0
M  V30 2815 N 267.536 -0.106894 1.57237 0
M  V30 2816 C 268.499 -1.11466 2.0027 0
M  V30 2817 C 269.499 -1.33623 0.894519 0
M  V30 2818 O 270.689 -1.29935 1.16028 0
M  V30 2819 C 267.821 -2.46646 2.35327 0
M  V30 2820 H 269.014 -0.744516 2.90512 0
M  V30 2821 H 266.567 -0.351576 1.52295 0
M  V30 2822 H 267.302 -2.88558 1.48003 0
M  V30 2823 H 267.087 -2.31915 3.16161 0
M  V30 2824 H 268.577 -3.19151 2.69318 0
M  V30 2825 N 269.014 -1.53014 -0.377408 0
M  V30 2826 C 269.961 -1.78616 -1.46168 0
M  V30 2827 C 270.931 -0.629917 -1.53692 0
M  V30 2828 O 272.116 -0.870861 -1.69766 0
M  V30 2829 C 269.256 -1.97123 -2.8326 0
M  V30 2830 C 268.369 -3.24831 -2.84796 0
M  V30 2831 C 267.504 -3.33591 -4.13389 0
M  V30 2832 C 266.543 -4.55377 -4.09021 0
M  V30 2833 N 265.68 -4.61355 -5.29241 0
M  V30 2834 H 270.52 -2.71142 -1.23637 0
M  V30 2835 H 268.057 -1.34326 -0.599577 0
M  V30 2836 H 270.015 -2.05839 -3.62886 0
M  V30 2837 H 268.645 -1.07946 -3.04216 0
M  V30 2838 H 267.697 -3.25128 -1.97474 0
M  V30 2839 H 269.009 -4.14523 -2.77439 0
M  V30 2840 H 268.163 -3.41554 -5.01424 0
M  V30 2841 H 266.902 -2.41894 -4.23484 0
M  V30 2842 H 265.907 -4.47527 -3.19373 0
M  V30 2843 H 267.132 -5.48402 -4.00539 0
M  V30 2844 H 265.078 -3.72554 -5.39944 0
M  V30 2845 H 264.995 -5.44935 -5.24006 0
M  V30 2846 H 266.263 -4.73586 -6.19141 0
M  V30 2847 N 270.492 0.636531 -1.44174 0
M  V30 2848 C 271.442 1.74233 -1.47061 0
M  V30 2849 C 272.426 1.57331 -0.337034 0
M  V30 2850 O 273.618 1.67159 -0.581973 0
M  V30 2851 C 270.747 3.12897 -1.41246 0
M  V30 2852 C 269.833 3.35288 -2.59698 0
M  V30 2853 N 270.224 3.2807 -3.84972 0
M  V30 2854 C 268.522 3.66065 -2.54778 0
M  V30 2855 C 269.223 3.51001 -4.63867 0
M  V30 2856 N 268.199 3.73616 -3.94857 0
M  V30 2857 H 272.001 1.67103 -2.41773 0
M  V30 2858 H 269.515 0.838806 -1.3906 0
M  V30 2859 H 271.512 3.92189 -1.41398 0
M  V30 2860 H 270.172 3.21197 -0.47569 0
M  V30 2861 H 271.183 3.07109 -4.17019 0
M  V30 2862 H 267.86 3.81379 -1.6987 0
M  V30 2863 H 269.25 3.51059 -5.72894 0
M  V30 2864 N 271.97 1.30982 0.876444 0
M  V30 2865 C 272.917 1.18085 1.98304 0
M  V30 2866 C 273.887 0.0682263 1.6596 0
M  V30 2867 O 275.072 0.239937 1.89285 0
M  V30 2868 C 272.212 0.887475 3.33493 0
M  V30 2869 C 271.325 2.08281 3.78475 0
M  V30 2870 C 270.46 1.72678 5.0235 0
M  V30 2871 C 269.499 2.88657 5.39762 0
M  V30 2872 N 268.636 2.53292 6.54819 0
M  V30 2873 H 273.476 2.1275 2.08666 0
M  V30 2874 H 271.013 1.05839 1.02159 0
M  V30 2875 H 272.971 0.697961 4.1132 0
M  V30 2876 H 271.601 -0.022315 3.22792 0
M  V30 2877 H 270.653 2.3833 2.96484 0
M  V30 2878 H 271.965 2.95108 4.02135 0
M  V30 2879 H 271.119 1.50151 5.87826 0
M  V30 2880 H 269.858 0.830327 4.8058 0
M  V30 2881 H 268.863 3.1184 4.52809 0
M  V30 2882 H 270.088 3.79002 5.63502 0
M  V30 2883 H 268.034 1.66163 6.34607 0
M  V30 2884 H 267.951 3.3365 6.7839 0
M  V30 2885 H 269.219 2.34143 7.43503 0
M  V30 2886 N 273.449 -1.08991 1.13837 0
M  V30 2887 C 274.412 -2.13925 0.822715 0
M  V30 2888 C 275.412 -1.599 -0.1699 0
M  V30 2889 O 276.602 -1.74104 0.0577251 0
M  V30 2890 C 273.734 -3.40155 0.225318 0
M  V30 2891 H 274.927 -2.43358 1.75262 0
M  V30 2892 H 272.48 -1.24603 0.943594 0
M  V30 2893 H 273.215 -3.16352 -0.713594 0
M  V30 2894 H 273 -3.80661 0.940193 0
M  V30 2895 H 274.49 -4.17594 0.0214784 0
M  V30 2896 N 274.927 -0.932562 -1.27047 0
M  V30 2897 C 276.175 -0.574422 -1.93765 0
M  V30 2898 C 276.496 0.887993 -1.73608 0
M  V30 2899 O 275.766 1.62999 -1.08665 0
M  V30 2900 H 274.346 -0.209451 -0.717035 0
M  V30 2901 H 277.008 -1.18601 -1.5466 0
M  V30 2902 H 276.104 -0.784841 -3.02071 0
M  V30 2903 N 276.405 1.4127 -0.698611 0
M  V30 2904 C 277.654 2.00408 -0.227949 0
M  V30 2905 C 277.967 1.55981 1.18023 0
M  V30 2906 O 279.173 2.07699 1.74852 0
M  V30 2907 C 277.629 3.58129 -0.356636 0
M  V30 2908 C 277.237 4.11536 -1.77037 0
M  V30 2909 C 278.981 4.24466 0.0540969 0
M  V30 2910 C 276.888 5.61701 -1.85055 0
M  V30 2911 H 275.818 0.749586 -0.0814657 0
M  V30 2912 H 278.469 1.61713 -0.867249 0
M  V30 2913 H 276.851 3.94442 0.350965 0
M  V30 2914 H 278.025 3.86636 -2.50698 0
M  V30 2915 H 276.34 3.57736 -2.13105 0
M  V30 2916 H 278.937 5.34698 0.0146723 0
M  V30 2917 H 279.28 4.01687 1.09332 0
M  V30 2918 H 279.813 3.93198 -0.603337 0
M  V30 2919 H 276.552 5.89312 -2.8704 0
M  V30 2920 H 276.072 5.88519 -1.15783 0
M  V30 2921 H 277.751 6.26524 -1.61484 0
M  V30 2922 N 277.883 0.443576 1.51229 0
M  V30 2923 C 279.132 -0.122332 2.01329 0
M  V30 2924 C 279.445 -1.43237 1.33201 0
M  V30 2925 O 280.651 -2.0816 1.74304 0
M  V30 2926 C 279.107 -0.268551 3.58897 0
M  V30 2927 C 278.715 1.03142 4.35965 0
M  V30 2928 C 280.459 -0.787894 4.17124 0
M  V30 2929 C 278.366 0.850504 5.85252 0
M  V30 2930 H 277.296 -0.0494929 0.752374 0
M  V30 2931 H 279.947 0.574289 1.74282 0
M  V30 2932 H 278.329 -1.02832 3.82415 0
M  V30 2933 H 279.503 1.80001 4.24189 0
M  V30 2934 H 277.818 1.47977 3.89219 0
M  V30 2935 H 280.415 -0.939841 5.26375 0
M  V30 2936 H 280.758 -1.77201 3.76703 0
M  V30 2937 H 281.291 -0.0862669 3.97706 0
M  V30 2938 H 278.03 1.80718 6.30096 0
M  V30 2939 H 277.55 0.121825 5.99676 0
M  V30 2940 H 279.229 0.506163 6.45017 0
M  V30 2941 N 279.361 -1.56624 0.175154 0
M  V30 2942 C 280.308 -2.18149 -0.753634 0
M  V30 2943 C 281.278 -1.12265 -1.22417 0
M  V30 2944 O 282.463 -1.40432 -1.29165 0
M  V30 2945 C 279.603 -2.82933 -1.97592 0
M  V30 2946 C 278.716 -4.03289 -1.5486 0
M  V30 2947 C 277.851 -4.55988 -2.72485 0
M  V30 2948 C 276.89 -5.68746 -2.26262 0
M  V30 2949 N 276.027 -6.15938 -3.36994 0
M  V30 2950 H 280.867 -2.9717 -0.222195 0
M  V30 2951 H 278.404 -1.46774 -0.0979422 0
M  V30 2952 H 280.362 -3.18653 -2.69288 0
M  V30 2953 H 278.992 -2.06509 -2.481 0
M  V30 2954 H 278.044 -3.73364 -0.728246 0
M  V30 2955 H 279.356 -4.849 -1.16933 0
M  V30 2956 H 278.51 -4.9391 -3.52332 0
M  V30 2957 H 277.249 -3.73443 -3.13674 0
M  V30 2958 H 276.254 -5.30372 -1.44863 0
M  V30 2959 H 277.479 -6.53095 -1.86127 0
M  V30 2960 H 275.425 -5.36321 -3.77751 0
M  V30 2961 H 275.342 -6.92548 -3.03172 0
M  V30 2962 H 276.61 -6.58511 -4.17114 0
M  V30 2963 N 280.839 0.0985539 -1.57292 0
M  V30 2964 C 282.255 0.45267 -1.53046 0
M  V30 2965 C 282.455 1.80713 -0.891342 0
M  V30 2966 O 281.511 2.4785 -0.482375 0
M  V30 2967 C 282.824 0.418341 -2.97776 0
M  V30 2968 C 284.372 0.500443 -3.08973 0
M  V30 2969 C 284.847 0.496297 -4.55303 0
M  V30 2970 N 286.338 0.557151 -4.59837 0
M  V30 2971 C 287.073 0.575726 -5.70502 0
M  V30 2972 N 286.569 0.550714 -6.90608 0
M  V30 2973 N 288.362 0.620277 -5.58667 0
M  V30 2974 H 280.513 -0.788673 -1.97215 0
M  V30 2975 H 282.776 -0.293188 -0.901524 0
M  V30 2976 H 282.482 -0.509659 -3.47988 0
M  V30 2977 H 282.356 1.2386 -3.56284 0
M  V30 2978 H 284.743 1.41886 -2.58751 0
M  V30 2979 H 284.824 -0.347894 -2.53423 0
M  V30 2980 H 284.468 -0.418162 -5.06176 0
M  V30 2981 H 284.398 1.3618 -5.08687 0
M  V30 2982 H 286.889 0.581816 -3.73394 0
M  V30 2983 H 287.202 0.568075 -7.70709 0
M  V30 2984 H 285.547 0.517816 -6.93068 0
M  V30 2985 H 288.738 0.637322 -4.63741 0
M  V30 2986 H 288.911 0.631283 -6.44918 0
M  V30 2987 N 282.317 1.53212 0.369288 0
M  V30 2988 C 283.565 1.68881 1.11012 0
M  V30 2989 C 283.886 0.441285 1.89941 0
M  V30 2990 O 283.156 -0.544623 1.88177 0
M  V30 2991 H 281.736 0.622569 0.412816 0
M  V30 2992 H 284.398 1.90391 0.416802 0
M  V30 2993 H 283.494 2.54822 1.80201 0
M  V30 2994 N 283.795 -0.628877 1.44509 0
M  V30 2995 C 285.044 -1.38437 1.4669 0
M  V30 2996 C 285.357 -1.95322 0.104272 0
M  V30 2997 O 286.563 -2.715 0.00362163 0
M  V30 2998 C 285.019 -2.50659 2.5826 0
M  V30 2999 C 284.627 -2.00277 4.0074 0
M  V30 3000 C 286.371 -3.27844 2.69664 0
M  V30 3001 C 284.278 -3.09854 5.0373 0
M  V30 3002 H 283.208 -0.520245 0.545766 0
M  V30 3003 H 285.859 -0.676313 1.70582 0
M  V30 3004 H 284.241 -3.2405 2.27612 0
M  V30 3005 H 285.415 -1.33736 4.40966 0
M  V30 3006 H 283.73 -1.35901 3.93599 0
M  V30 3007 H 286.327 -4.09534 3.43781 0
M  V30 3008 H 286.67 -3.77471 1.75559 0
M  V30 3009 H 287.203 -2.61543 2.99733 0
M  V30 3010 H 283.942 -2.65168 5.99472 0
M  V30 3011 H 283.462 -3.7503 4.68095 0
M  V30 3012 H 285.141 -3.74592 5.27532 0
M  V30 3013 N 285.273 -1.31445 -0.869486 0
M  V30 3014 C 286.684 -1.19042 -1.43826 0
M  V30 3015 C 287.035 0.202919 -1.95148 0
M  V30 3016 O 286.16 1.10071 -1.86315 0
M  V30 3017 C 286.755 -2.15499 -2.6143 0
M  V30 3018 C 285.314 -2.07028 -3.14351 0
M  V30 3019 C 284.461 -2.04701 -1.87063 0
M  V30 3020 H 287.412 -1.43489 -0.677984 0
M  V30 3021 H 287.433 -1.74488 -3.38134 0
M  V30 3022 H 286.945 -3.16899 -2.24046 0
M  V30 3023 H 285.046 -1.08825 -3.56354 0
M  V30 3024 H 285.159 -2.96157 -3.766 0
M  V30 3025 H 283.523 -1.49724 -2.06046 0
M  V30 3026 H 284.306 -3.07857 -1.51917 0
M  V30 3027 N 286.751 1.08385 -1.14413 0
M  V30 3028 C 287.997 1.81044 -0.913834 0
M  V30 3029 C 288.33 1.86004 0.558209 0
M  V30 3030 O 287.605 1.33606 1.4135 0
M  V30 3031 C 287.888 3.26648 -1.51569 0
M  V30 3032 C 287.741 3.29895 -3.0576 0
M  V30 3033 C 289.06 4.23629 -1.19273 0
M  V30 3034 H 286.179 0.65727 -0.333414 0
M  V30 3035 H 288.821 1.26896 -1.41412 0
M  V30 3036 H 286.971 3.72889 -1.09023 0
M  V30 3037 H 288.643 2.91977 -3.57137 0
M  V30 3038 H 286.886 2.69163 -3.40197 0
M  V30 3039 H 287.557 4.32516 -3.42977 0
M  V30 3040 H 290.033 3.85727 -1.56057 0
M  V30 3041 H 288.909 5.23822 -1.64017 0
M  V30 3042 H 289.17 4.41968 -0.108068 0
M  V30 3043 N 288.23 0.939286 1.26551 0
M  V30 3044 C 289.476 0.586715 1.94128 0
M  V30 3045 C 289.809 -0.8717 1.73537 0
M  V30 3046 O 289.084 -1.62339 1.07127 0
M  V30 3047 C 289.367 0.927497 3.4795 0
M  V30 3048 C 289.22 2.44052 3.77834 0
M  V30 3049 C 290.539 0.441569 4.37879 0
M  V30 3050 H 287.658 0.21463 0.705055 0
M  V30 3051 H 290.3 1.17316 1.49455 0
M  V30 3052 H 288.45 0.428431 3.8613 0
M  V30 3053 H 290.122 3.01216 3.4938 0
M  V30 3054 H 288.365 2.8848 3.23978 0
M  V30 3055 H 289.036 2.62947 4.85348 0
M  V30 3056 H 291.512 0.869448 4.06915 0
M  V30 3057 H 290.388 0.708856 5.44304 0
M  V30 3058 H 290.649 -0.658467 4.37169 0
M  V30 3059 N 289.708 -1.40897 0.706093 0
M  V30 3060 C 290.936 -2.05373 0.250887 0
M  V30 3061 C 291.351 -1.53172 -1.10381 0
M  V30 3062 O 290.708 -0.684305 -1.69185 0
M  V30 3063 C 290.759 -3.6088 0.211571 0
M  V30 3064 O 290.48 -4.11153 1.51276 0
M  V30 3065 C 291.981 -4.42517 -0.263346 0
M  V30 3066 H 289.201 -0.66115 0.114552 0
M  V30 3067 H 291.745 -1.80479 0.961635 0
M  V30 3068 H 289.9 -3.84777 -0.450073 0
M  V30 3069 H 290.314 -5.05279 1.40689 0
M  V30 3070 H 291.788 -5.51479 -0.239718 0
M  V30 3071 H 292.265 -4.19396 -1.30397 0
M  V30 3072 H 292.871 -4.23708 0.367677 0
M  V30 3073 N 291.186 -0.45159 -1.50991 0
M  V30 3074 C 292.434 0.109857 -2.01801 0
M  V30 3075 C 292.755 1.41958 -1.3369 0
M  V30 3076 O 292.025 1.9003 -0.475951 0
M  V30 3077 H 290.605 0.0435884 -0.745727 0
M  V30 3078 H 293.267 -0.597557 -1.85514 0
M  V30 3079 H 292.363 0.275489 -3.10882 0
M  V30 3080 N 292.664 1.56529 -0.183458 0
M  V30 3081 C 293.612 2.19873 0.758845 0
M  V30 3082 C 294.606 1.16638 1.22849 0
M  V30 3083 O 295.812 1.3481 1.19274 0
M  V30 3084 H 292.187 0.7045 0.263029 0
M  V30 3085 H 294.158 2.97724 0.200755 0
M  V30 3086 C 292.907 2.86314 1.9728 0
M  V30 3087 H 292.23 3.65487 1.62047 0
M  V30 3088 H 293.67 3.3409 2.61075 0
M  V30 3089 C 292.129 1.86729 2.80418 0
M  V30 3090 O 292.659 1.36031 3.77966 0
M  V30 3091 N 290.865 1.55216 2.45675 0
M  V30 3092 H 290.412 1.96636 1.66409 0
M  V30 3093 H 290.37 0.888388 3.01588 0
M  V30 3094 N 294.142 -0.090211 1.57342 0
M  V30 3095 C 295.072 -1.10976 2.05443 0
M  V30 3096 C 296.053 -1.41482 0.944284 0
M  V30 3097 O 297.238 -1.51428 1.21586 0
M  V30 3098 C 294.368 -2.42831 2.48295 0
M  V30 3099 C 293.322 -2.26721 3.63018 0
M  V30 3100 C 292.648 -3.63796 3.91863 0
M  V30 3101 C 293.948 -1.7037 4.93732 0
M  V30 3102 H 295.642 -0.709564 2.9087 0
M  V30 3103 H 293.188 -0.339874 1.39932 0
M  V30 3104 H 295.141 -3.14431 2.80555 0
M  V30 3105 H 293.865 -2.84795 1.59873 0
M  V30 3106 H 292.524 -1.57565 3.31012 0
M  V30 3107 H 292.172 -4.03297 3.00601 0
M  V30 3108 H 291.872 -3.53861 4.69101 0
M  V30 3109 H 293.396 -4.36855 4.26603 0
M  V30 3110 H 294.81 -2.31816 5.24342 0
M  V30 3111 H 293.207 -1.71181 5.75167 0
M  V30 3112 H 294.277 -0.663542 4.80339 0
M  V30 3113 N 295.62 -1.53406 -0.361157 0
M  V30 3114 C 296.866 -1.70054 -1.10496 0
M  V30 3115 C 297.199 -0.453278 -1.88836 0
M  V30 3116 O 296.474 0.5495 -1.86576 0
M  V30 3117 C 296.757 -2.95317 -2.06058 0
M  V30 3118 C 296.61 -4.3021 -1.31298 0
M  V30 3119 C 297.929 -3.16193 -3.06121 0
M  V30 3120 H 295.048 -0.618799 -0.400321 0
M  V30 3121 H 297.69 -1.86052 -0.385318 0
M  V30 3122 H 295.84 -2.81809 -2.67425 0
M  V30 3123 H 297.512 -4.55538 -0.726807 0
M  V30 3124 H 295.755 -4.29421 -0.614853 0
M  V30 3125 H 296.426 -5.14 -2.01265 0
M  V30 3126 H 298.902 -3.28916 -2.5486 0
M  V30 3127 H 297.778 -4.05266 -3.70204 0
M  V30 3128 H 298.039 -2.31676 -3.76535 0
M  V30 3129 N 297.098 0.621204 -1.44841 0
M  V30 3130 C 298.509 1.20298 -1.42777 0
M  V30 3131 C 298.86 1.95639 -0.148259 0
M  V30 3132 O 297.985 2.02955 0.750892 0
M  V30 3133 C 298.58 2.1882 -2.58657 0
M  V30 3134 C 297.139 2.72403 -2.59756 0
M  V30 3135 C 296.286 1.4757 -2.34773 0
M  V30 3136 H 299.237 0.411297 -1.53278 0
M  V30 3137 H 299.258 3.01607 -2.31977 0
M  V30 3138 H 298.77 1.63957 -3.51766 0
M  V30 3139 H 296.871 3.31242 -1.70615 0
M  V30 3140 H 296.984 3.17765 -3.58556 0
M  V30 3141 H 295.348 1.76051 -1.8406 0
M  V30 3142 H 296.131 0.945954 -3.3001 0
M  V30 3143 N 298.576 1.31904 0.862503 0
M  V30 3144 C 299.853 1.12644 1.59908 0
M  V30 3145 C 300.233 -0.316104 2.0872 0
M  V30 3146 O 299.581 -1.31145 1.87118 0
M  V30 3147 C 299.791 2.1472 2.7513 0
M  V30 3148 C 301.139 2.47637 3.44907 0
M  V30 3149 O 302.163 2.13205 2.85346 0
M  V30 3150 O 301.022 3.06632 4.52371 0
M  V30 3151 H 298.116 0.43416 0.703871 0
M  V30 3152 H 300.662 1.43408 0.907314 0
M  V30 3153 H 299.434 3.1172 2.3653 0
M  V30 3154 H 299.057 1.84905 3.51989 0
M  V30 3155 N 300.054 -1.07777 1.14986 0
M  V30 3156 C 301.017 -2.13041 0.845358 0
M  V30 3157 C 302.017 -1.60071 -0.152931 0
M  V30 3158 O 303.207 -1.74033 0.0761879 0
M  V30 3159 C 300.339 -3.39896 0.261383 0
M  V30 3160 H 301.532 -2.41485 1.77834 0
M  V30 3161 H 299.085 -1.23595 0.956757 0
M  V30 3162 H 299.82 -3.17091 -0.68 0
M  V30 3163 H 299.605 -3.79642 0.980514 0
M  V30 3164 H 301.095 -4.17548 0.0657687 0
M  V30 3165 N 301.532 -0.945985 -1.26051 0
M  V30 3166 C 302.495 -0.463897 -2.24456 0
M  V30 3167 C 303.495 0.427655 -1.55009 0
M  V30 3168 O 304.685 0.226157 -1.72726 0
M  V30 3169 C 301.817 0.330812 -3.39291 0
M  V30 3170 H 303.01 -1.33357 -2.68619 0
M  V30 3171 H 300.563 -0.728416 -1.38289 0
M  V30 3172 H 301.298 1.21852 -3.00537 0
M  V30 3173 H 301.083 -0.308679 -3.90883 0
M  V30 3174 H 302.573 0.657865 -4.12386 0
M  V30 3175 N 303.011 1.40521 -0.713556 0
M  V30 3176 C 303.974 2.29098 -0.0684347 0
M  V30 3177 C 304.974 1.45268 0.689472 0
M  V30 3178 O 306.164 1.66205 0.521677 0
M  V30 3179 C 303.296 3.28446 0.913024 0
M  V30 3180 H 304.489 2.87645 -0.84855 0
M  V30 3181 H 302.042 1.48809 -0.47809 0
M  V30 3182 H 302.777 2.74913 1.72027 0
M  V30 3183 H 302.562 3.90327 0.372472 0
M  V30 3184 H 304.052 3.94777 1.36165 0
M  V30 3185 N 304.489 0.459591 1.5075 0
M  V30 3186 C 305.735 -0.0994966 2.02556 0
M  V30 3187 C 306.068 -1.40399 1.3417 0
M  V30 3188 O 305.343 -1.88892 0.463683 0
M  V30 3189 C 305.626 -0.295242 3.58888 0
M  V30 3190 C 305.479 1.02947 4.37861 0
M  V30 3191 C 306.798 -1.05502 4.27267 0
M  V30 3192 H 303.917 -0.034686 0.736183 0
M  V30 3193 H 306.559 0.602938 1.8018 0
M  V30 3194 H 304.709 -0.893563 3.78084 0
M  V30 3195 H 306.381 1.66348 4.30263 0
M  V30 3196 H 304.624 1.62885 4.02058 0
M  V30 3197 H 305.295 0.846281 5.45474 0
M  V30 3198 H 307.771 -0.547993 4.12476 0
M  V30 3199 H 306.647 -1.16077 5.36486 0
M  V30 3200 H 306.908 -2.08875 3.89645 0
M  V30 3201 N 305.967 -1.56429 0.191757 0
M  V30 3202 C 307.213 -1.97777 -0.448554 0
M  V30 3203 C 307.546 -1.07847 -1.61501 0
M  V30 3204 O 306.821 -0.129774 -1.94067 0
M  V30 3205 C 307.104 -3.48362 -0.911906 0
M  V30 3206 C 306.957 -4.4907 0.256136 0
M  V30 3207 C 308.276 -4.02561 -1.77857 0
M  V30 3208 H 305.395 -0.719071 -0.161572 0
M  V30 3209 H 308.037 -1.87896 0.282007 0
M  V30 3210 H 306.187 -3.56914 -1.53442 0
M  V30 3211 H 307.859 -4.5256 0.893733 0
M  V30 3212 H 306.102 -4.24181 0.908436 0
M  V30 3213 H 306.773 -5.51889 -0.11053 0
M  V30 3214 H 309.249 -3.96767 -1.25359 0
M  V30 3215 H 308.125 -5.08301 -2.07174 0
M  V30 3216 H 308.386 -3.47616 -2.73158 0
M  V30 3217 N 307.445 0.0818655 -1.57387 0
M  V30 3218 C 308.408 1.08265 -2.02018 0
M  V30 3219 C 309.408 1.32183 -0.915664 0
M  V30 3220 O 310.598 1.28073 -1.18081 0
M  V30 3221 C 307.73 2.42871 -2.39221 0
M  V30 3222 H 308.923 0.698204 -2.91659 0
M  V30 3223 H 306.476 0.327303 -1.52835 0
M  V30 3224 H 307.211 2.86167 -1.52575 0
M  V30 3225 H 306.996 2.26855 -3.19811 0
M  V30 3226 H 308.486 3.14826 -2.74362 0
M  V30 3227 N 308.923 1.53595 0.353017 0
M  V30 3228 C 309.886 1.80232 1.41594 0
M  V30 3229 C 310.886 0.673081 1.46035 0
M  V30 3230 O 312.076 0.941335 1.46576 0
M  V30 3231 C 309.208 1.93578 2.80607 0
M  V30 3232 H 310.401 2.75174 1.19244 0
M  V30 3233 H 307.954 1.44864 0.586872 0
M  V30 3234 H 308.689 1.00746 3.08254 0
M  V30 3235 H 308.474 2.75724 2.78781 0
M  V30 3236 H 309.964 2.15735 3.57558 0
M  V30 3237 N 310.401 -0.613514 1.45168 0
M  V30 3238 C 311.348 -1.72456 1.53387 0
M  V30 3239 C 312.318 -1.6169 0.380191 0
M  V30 3240 O 313.503 -1.81356 0.592836 0
M  V30 3241 C 310.643 -3.10753 1.50088 0
M  V30 3242 C 309.756 -3.32368 2.75963 0
M  V30 3243 C 308.891 -4.60737 2.64376 0
M  V30 3244 C 307.93 -4.7559 3.85332 0
M  V30 3245 N 307.067 -5.95253 3.72315 0
M  V30 3246 H 311.907 -1.64768 2.48305 0
M  V30 3247 H 309.444 -0.803503 1.23216 0
M  V30 3248 H 311.402 -3.90758 1.46164 0
M  V30 3249 H 310.032 -3.17413 0.587243 0
M  V30 3250 H 309.084 -2.4618 2.89999 0
M  V30 3251 H 310.396 -3.39218 3.65695 0
M  V30 3252 H 309.55 -5.48928 2.58385 0
M  V30 3253 H 308.289 -4.56275 1.72233 0
M  V30 3254 H 307.294 -3.85824 3.91688 0
M  V30 3255 H 308.519 -4.81854 4.78533 0
M  V30 3256 H 306.465 -5.91847 2.82937 0
M  V30 3257 H 306.382 -6.03236 4.55677 0
M  V30 3258 H 307.65 -6.85958 3.70246 0
M  V30 3259 N 311.879 -1.3236 -0.855495 0
M  V30 3260 C 313.125 -1.23054 -1.612 0
M  V30 3261 C 313.458 0.207404 -1.93089 0
M  V30 3262 O 312.733 1.14432 -1.57275 0
M  V30 3263 C 313.016 -2.08937 -2.93287 0
M  V30 3264 C 312.869 -3.61105 -2.68185 0
M  V30 3265 C 314.188 -1.94986 -3.94549 0
M  V30 3266 H 311.307 -0.448364 -0.584926 0
M  V30 3267 H 313.949 -1.62297 -0.987917 0
M  V30 3268 H 312.099 -1.75599 -3.46551 0
M  V30 3269 H 313.771 -4.04652 -2.21483 0
M  V30 3270 H 312.014 -3.83813 -2.02164 0
M  V30 3271 H 312.685 -4.16522 -3.62234 0
M  V30 3272 H 315.161 -2.24189 -3.5054 0
M  V30 3273 H 314.037 -2.57356 -4.84829 0
M  V30 3274 H 314.298 -0.917263 -4.3248 0
M  V30 3275 N 313.357 1.07166 -1.15556 0
M  V30 3276 C 314.32 2.12589 -0.856644 0
M  V30 3277 C 315.32 1.6015 0.14444 0
M  V30 3278 O 316.51 1.7399 -0.0854163 0
M  V30 3279 C 313.642 3.39753 -0.279405 0
M  V30 3280 H 314.835 2.40539 -1.79112 0
M  V30 3281 H 312.388 1.23086 -0.963298 0
M  V30 3282 H 313.123 3.17447 0.663174 0
M  V30 3283 H 312.908 3.79117 -1.00063 0
M  V30 3284 H 314.398 4.17507 -0.0879113 0
M  V30 3285 N 314.835 0.952656 1.25548 0
M  V30 3286 C 316.063 0.623496 1.97282 0
M  V30 3287 C 316.478 -0.803987 1.70826 0
M  V30 3288 O 315.835 -1.53755 0.983147 0
M  V30 3289 C 315.886 0.870209 3.5087 0
M  V30 3290 O 315.607 2.24156 3.76412 0
M  V30 3291 C 317.108 0.553164 4.39835 0
M  V30 3292 H 314.328 0.233931 0.628902 0
M  V30 3293 H 316.872 1.27649 1.59768 0
M  V30 3294 H 315.027 0.263652 3.86502 0
M  V30 3295 H 315.441 2.31021 4.70882 0
M  V30 3296 H 316.915 0.776342 5.46513 0
M  V30 3297 H 317.392 -0.512215 4.36203 0
M  V30 3298 H 317.998 1.13896 4.09766 0
M  V30 3299 N 316.313 -1.40141 0.720998 0
M  V30 3300 C 317.541 -2.05096 0.272656 0
M  V30 3301 C 317.956 -1.54334 -1.0875 0
M  V30 3302 O 317.313 -0.702211 -1.6845 0
M  V30 3303 C 317.364 -3.60636 0.249835 0
M  V30 3304 O 317.085 -4.09526 1.55629 0
M  V30 3305 C 318.586 -4.42772 -0.216396 0
M  V30 3306 H 315.806 -0.659897 0.121558 0
M  V30 3307 H 318.35 -1.79449 0.980723 0
M  V30 3308 H 316.505 -3.85232 -0.409237 0
M  V30 3309 H 316.919 -5.03758 1.4604 0
M  V30 3310 H 318.393 -5.51702 -0.181212 0
M  V30 3311 H 318.87 -4.20756 -1.25941 0
M  V30 3312 H 319.476 -4.23294 0.412596 0
M  V30 3313 N 317.792 -0.46758 -1.50504 0
M  V30 3314 C 319.04 0.0884469 -2.01906 0
M  V30 3315 C 319.361 1.40532 -1.35188 0
M  V30 3316 O 318.631 1.89515 -0.496079 0
M  V30 3317 H 317.211 0.0356765 -0.746148 0
M  V30 3318 H 319.873 -0.6172 -1.84869 0
M  V30 3319 H 318.969 0.2425 -3.11156 0
M  V30 3320 N 319.27 1.56325 -0.20005 0
M  V30 3321 C 320.495 2.02548 0.44597 0
M  V30 3322 C 320.92 1.07922 1.5406 0
M  V30 3323 O 320.278 0.0635775 1.81188 0
M  V30 3324 C 320.326 3.47175 0.974761 0
M  V30 3325 O 319.43 3.55671 2.08739 0
M  V30 3326 H 318.771 0.655862 0.103638 0
M  V30 3327 H 321.301 2.02201 -0.312381 0
M  V30 3328 H 321.311 3.87067 1.2901 0
M  V30 3329 H 319.986 4.15538 0.17347 0
M  V30 3330 H 318.563 3.27657 1.78032 0
M  V30 3331 N 320.748 -0.0735177 1.57428 0
M  V30 3332 C 321.68 -1.11423 2.00294 0
M  V30 3333 C 322.693 -1.35084 0.908637 0
M  V30 3334 O 323.882 -1.33355 1.18654 0
M  V30 3335 C 320.982 -2.46548 2.32523 0
M  V30 3336 C 320.155 -2.42867 3.63778 0
M  V30 3337 C 319.214 -3.60087 3.83697 0
M  V30 3338 O 318.24 -3.41595 4.55304 0
M  V30 3339 N 319.442 -4.80372 3.25919 0
M  V30 3340 H 322.207 -0.749206 2.90184 0
M  V30 3341 H 319.768 -0.262195 1.59763 0
M  V30 3342 H 321.76 -3.23607 2.43024 0
M  V30 3343 H 320.33 -2.75059 1.48531 0
M  V30 3344 H 319.55 -1.51206 3.64047 0
M  V30 3345 H 320.838 -2.37506 4.49965 0
M  V30 3346 H 320.236 -4.983 2.67795 0
M  V30 3347 H 318.793 -5.54948 3.41871 0
M  V30 3348 N 322.226 -1.5378 -0.344866 0
M  V30 3349 C 323.472 -1.72158 -1.0832 0
M  V30 3350 C 323.827 -0.478218 -1.86362 0
M  V30 3351 O 323.12 0.529152 -1.84148 0
M  V30 3352 C 323.314 -2.92407 -2.05506 0
M  V30 3353 C 323.143 -4.28318 -1.37017 0
M  V30 3354 C 321.913 -4.92832 -1.11558 0
M  V30 3355 C 324.111 -5.08086 -0.797071 0
M  V30 3356 N 322.093 -6.12619 -0.396358 0
M  V30 3357 C 323.464 -6.1965 -0.208336 0
M  V30 3358 C 325.519 -4.92986 -0.697787 0
M  V30 3359 C 324.222 -7.17763 0.470023 0
M  V30 3360 C 326.248 -5.91391 -0.033171 0
M  V30 3361 C 325.61 -7.02292 0.544599 0
M  V30 3362 H 321.709 -0.683017 -0.380805 0
M  V30 3363 H 324.293 -1.91211 -0.366961 0
M  V30 3364 H 322.464 -2.74857 -2.74423 0
M  V30 3365 H 324.196 -2.9951 -2.72169 0
M  V30 3366 H 320.951 -4.52362 -1.40234 0
M  V30 3367 H 321.375 -6.7698 -0.0515119 0
M  V30 3368 H 326.017 -4.07414 -1.13022 0
M  V30 3369 H 323.735 -8.0291 0.914351 0
M  V30 3370 H 327.321 -5.81784 0.0430009 0
M  V30 3371 H 326.201 -7.77129 1.05073 0
M  V30 3372 N 323.704 0.605807 -1.45491 0
M  V30 3373 C 324.634 1.72709 -1.57143 0
M  V30 3374 C 325.615 1.6476 -0.422884 0
M  V30 3375 O 326.8 1.83132 -0.646247 0
M  V30 3376 C 323.93 3.11316 -1.53948 0
M  V30 3377 C 322.884 3.34077 -2.67537 0
M  V30 3378 C 322.21 4.72975 -2.49397 0
M  V30 3379 C 323.51 3.24158 -4.09535 0
M  V30 3380 H 325.204 1.63214 -2.51001 0
M  V30 3381 H 322.75 0.78379 -1.208 0
M  V30 3382 H 324.703 3.89557 -1.60696 0
M  V30 3383 H 323.427 3.21655 -0.566205 0
M  V30 3384 H 322.086 2.58227 -2.6022 0
M  V30 3385 H 321.734 4.8005 -1.50205 0
M  V30 3386 H 321.434 4.8916 -3.25571 0
M  V30 3387 H 322.958 5.53414 -2.58002 0
M  V30 3388 H 324.372 3.92271 -4.18086 0
M  V30 3389 H 322.769 3.51872 -4.86113 0
M  V30 3390 H 323.839 2.2157 -4.31317 0
M  V30 3391 N 325.182 1.32811 0.848464 0
M  V30 3392 C 326.598 1.11937 1.13764 0
M  V30 3393 C 326.798 -0.0960789 2.01271 0
M  V30 3394 O 325.854 -0.779165 2.40178 0
M  V30 3395 C 327.167 2.402 1.809 0
M  V30 3396 C 328.715 2.46016 1.93508 0
M  V30 3397 C 329.19 3.74215 2.64059 0
M  V30 3398 N 330.681 3.75232 2.71579 0
M  V30 3399 C 331.416 4.71134 3.26833 0
M  V30 3400 N 330.912 5.77406 3.8285 0
M  V30 3401 N 332.705 4.58623 3.24995 0
M  V30 3402 H 324.856 2.1073 0.265855 0
M  V30 3403 H 327.119 0.930671 0.180431 0
M  V30 3404 H 326.825 3.29093 1.24058 0
M  V30 3405 H 326.699 2.51628 2.81004 0
M  V30 3406 H 329.086 1.57577 2.49506 0
M  V30 3407 H 329.167 2.38536 0.923811 0
M  V30 3408 H 328.811 4.63031 2.08722 0
M  V30 3409 H 328.741 3.78968 3.65637 0
M  V30 3410 H 331.232 2.98423 2.31845 0
M  V30 3411 H 331.545 6.46632 4.23187 0
M  V30 3412 H 329.89 5.81152 3.81165 0
M  V30 3413 H 333.081 3.74762 2.80484 0
M  V30 3414 H 333.254 5.33535 3.67756 0
M  V30 3415 N 326.66 -1.06551 1.16123 0
M  V30 3416 C 327.907 -1.79302 0.941126 0
M  V30 3417 C 328.235 -1.87105 -0.531235 0
M  V30 3418 O 327.49 -1.35692 -1.41018 0
M  V30 3419 C 327.789 -3.23911 1.51052 0
M  V30 3420 C 327.455 -3.36193 3.00475 0
M  V30 3421 C 326.117 -3.39252 3.41265 0
M  V30 3422 C 328.469 -3.38326 3.96465 0
M  V30 3423 C 325.797 -3.42057 4.76669 0
M  V30 3424 C 328.149 -3.4267 5.31752 0
M  V30 3425 C 326.813 -3.4401 5.72026 0
M  V30 3426 H 326.083 -0.656111 0.344382 0
M  V30 3427 H 328.73 -1.25325 1.44796 0
M  V30 3428 H 327.035 -3.80723 0.925063 0
M  V30 3429 H 328.732 -3.78793 1.31593 0
M  V30 3430 H 325.322 -3.34516 2.6795 0
M  V30 3431 H 329.506 -3.35176 3.6602 0
M  V30 3432 H 324.762 -3.41398 5.07206 0
M  V30 3433 H 328.936 -3.43268 6.05921 0
M  V30 3434 H 326.563 -3.45937 6.76928 0
M  V30 3435 N 328.138 -0.959301 -1.25041 0
M  V30 3436 C 329.415 -0.533805 -1.88175 0
M  V30 3437 C 329.795 0.988994 -1.865 0
M  V30 3438 O 329.143 1.85677 -1.33177 0
M  V30 3439 C 329.353 -1.11575 -3.30684 0
M  V30 3440 C 330.701 -1.19548 -4.07423 0
M  V30 3441 O 331.725 -1.06765 -3.39823 0
M  V30 3442 O 330.584 -1.39656 -5.28354 0
M  V30 3443 H 327.678 -0.176772 -0.807887 0
M  V30 3444 H 330.224 -1.05303 -1.33076 0
M  V30 3445 H 328.996 -2.15884 -3.26358 0
M  V30 3446 H 328.619 -0.580059 -3.93346 0
M  V30 3447 N 329.616 1.39756 -0.72842 0
M  V30 3448 C 331.032 1.5442 -0.403308 0
M  V30 3449 C 331.232 1.69694 1.08656 0
M  V30 3450 O 330.288 1.69373 1.87267 0
M  V30 3451 C 331.601 2.76555 -1.18058 0
M  V30 3452 C 333.149 2.90384 -1.16815 0
M  V30 3453 C 333.624 4.15449 -1.92785 0
M  V30 3454 N 335.115 4.22475 -1.89918 0
M  V30 3455 C 335.85 5.1818 -2.45514 0
M  V30 3456 N 335.346 6.19714 -3.09719 0
M  V30 3457 N 337.139 5.1035 -2.35584 0
M  V30 3458 H 329.29 1.28089 -1.69431 0
M  V30 3459 H 331.553 0.620327 -0.716867 0
M  V30 3460 H 331.259 2.7159 -2.23455 0
M  V30 3461 H 331.133 3.69033 -0.780662 0
M  V30 3462 H 333.52 2.94846 -0.12234 0
M  V30 3463 H 333.601 1.98988 -1.6074 0
M  V30 3464 H 333.245 4.11749 -2.97364 0
M  V30 3465 H 333.175 5.05877 -1.46272 0
M  V30 3466 H 335.666 3.49743 -1.43138 0
M  V30 3467 H 335.979 6.8919 -3.49625 0
M  V30 3468 H 334.324 6.20121 -3.13807 0
M  V30 3469 H 337.515 4.2996 -1.85072 0
M  V30 3470 H 337.688 5.84761 -2.79211 0
M  V30 3471 N 331.094 0.475555 1.50254 0
M  V30 3472 C 332.371 -0.139685 1.95101 0
M  V30 3473 C 332.751 -1.56555 1.41611 0
M  V30 3474 O 332.099 -2.19956 0.618993 0
M  V30 3475 C 332.309 -0.0784298 3.48912 0
M  V30 3476 C 333.657 -0.265095 4.23772 0
M  V30 3477 O 334.681 -0.154808 3.55863 0
M  V30 3478 O 333.54 -0.488327 5.44314 0
M  V30 3479 H 330.634 -0.109236 0.819754 0
M  V30 3480 H 333.18 0.536276 1.61004 0
M  V30 3481 H 331.952 0.916918 3.80405 0
M  V30 3482 H 331.575 -0.795655 3.89558 0
M  V30 3483 N 332.573 -1.56217 0.208337 0
M  V30 3484 C 333.82 -1.97949 -0.42692 0
M  V30 3485 C 334.148 -1.09562 -1.60706 0
M  V30 3486 O 333.403 -0.137616 -1.95216 0
M  V30 3487 C 333.702 -3.45441 -0.916797 0
M  V30 3488 C 333.368 -4.50646 0.151391 0
M  V30 3489 C 332.03 -4.79139 0.444867 0
M  V30 3490 C 334.382 -5.13811 0.874492 0
M  V30 3491 C 331.71 -5.68084 1.46619 0
M  V30 3492 C 334.062 -6.03861 1.88506 0
M  V30 3493 C 332.726 -6.30704 2.18559 0
M  V30 3494 H 331.996 -0.724345 -0.156221 0
M  V30 3495 H 334.643 -1.89006 0.308084 0
M  V30 3496 H 332.948 -3.51521 -1.73032 0
M  V30 3497 H 334.645 -3.75094 -1.41794 0
M  V30 3498 H 331.235 -4.28511 -0.0875068 0
M  V30 3499 H 335.419 -4.91879 0.660996 0
M  V30 3500 H 330.675 -5.87151 1.7048 0
M  V30 3501 H 334.849 -6.51861 2.45051 0
M  V30 3502 H 332.476 -6.99424 2.97843 0
M  V30 3503 N 334.051 0.0651679 -1.57465 0
M  V30 3504 C 335.276 0.779605 -1.9219 0
M  V30 3505 C 335.701 1.69988 -0.805333 0
M  V30 3506 O 335.059 1.79685 0.241435 0
M  V30 3507 C 335.107 1.54364 -3.2589 0
M  V30 3508 O 334.211 2.65474 -3.1559 0
M  V30 3509 H 333.552 0.212249 -0.629163 0
M  V30 3510 H 336.082 0.0314294 -2.04576 0
M  V30 3511 H 336.092 1.92146 -3.59922 0
M  V30 3512 H 334.767 0.868457 -4.06732 0
M  V30 3513 H 333.344 2.30501 -2.93128 0
M  V30 3514 N 335.529 1.53961 0.336706 0
M  V30 3515 C 336.775 1.7179 1.07777 0
M  V30 3516 C 337.108 0.483263 1.88091 0
M  V30 3517 O 336.383 -0.519747 1.87427 0
M  V30 3518 C 336.666 2.98558 2.01334 0
M  V30 3519 C 336.519 4.32245 1.24437 0
M  V30 3520 C 337.838 3.21023 3.01052 0
M  V30 3521 H 334.957 0.625089 0.390426 0
M  V30 3522 H 337.599 1.86641 0.35567 0
M  V30 3523 H 335.749 2.86028 2.62908 0
M  V30 3524 H 337.421 4.56637 0.654243 0
M  V30 3525 H 335.664 4.30344 0.546458 0
M  V30 3526 H 336.335 5.17137 1.93063 0
M  V30 3527 H 338.811 3.32929 2.49595 0
M  V30 3528 H 337.687 4.11104 3.6371 0
M  V30 3529 H 337.948 2.37637 3.72802 0
M  V30 3530 N 337.007 -0.598083 1.45811 0
M  V30 3531 C 338.418 -1.18011 1.44673 0
M  V30 3532 C 338.769 -1.95378 0.179364 0
M  V30 3533 O 337.894 -2.04124 -0.718509 0
M  V30 3534 C 338.489 -2.14677 2.62105 0
M  V30 3535 C 337.048 -2.68236 2.64057 0
M  V30 3536 C 336.195 -1.43816 2.37091 0
M  V30 3537 H 339.146 -0.38686 1.53913 0
M  V30 3538 H 339.167 -2.97878 2.36746 0
M  V30 3539 H 338.679 -1.5834 3.5433 0
M  V30 3540 H 336.78 -3.28486 1.75864 0
M  V30 3541 H 336.893 -3.12021 3.63566 0
M  V30 3542 H 335.257 -1.731 1.86838 0
M  V30 3543 H 336.04 -0.893333 3.31473 0
M  V30 3544 N 338.485 -1.33259 -0.841409 0
M  V30 3545 C 339.432 -1.23302 -1.95103 0
M  V30 3546 C 340.402 -0.112204 -1.65721 0
M  V30 3547 O 341.587 -0.290038 -1.88583 0
M  V30 3548 C 338.727 -0.975583 -3.31023 0
M  V30 3549 C 337.84 -2.18243 -3.72819 0
M  V30 3550 C 336.975 -1.85936 -4.97595 0
M  V30 3551 C 336.014 -3.02866 -5.3192 0
M  V30 3552 N 335.151 -2.70565 -6.47873 0
M  V30 3553 H 339.991 -2.18207 -2.02952 0
M  V30 3554 H 337.528 -1.0851 -0.993173 0
M  V30 3555 H 339.486 -0.80677 -4.09325 0
M  V30 3556 H 338.116 -0.0632755 -3.22738 0
M  V30 3557 H 337.168 -2.46107 -2.90061 0
M  V30 3558 H 338.48 -3.05666 -3.94169 0
M  V30 3559 H 337.634 -1.65684 -5.83638 0
M  V30 3560 H 336.373 -0.957452 -4.78209 0
M  V30 3561 H 335.378 -3.23736 -4.44382 0
M  V30 3562 H 336.603 -3.93809 -5.53255 0
M  V30 3563 H 334.549 -1.8293 -6.29978 0
M  V30 3564 H 334.466 -3.51519 -6.69306 0
M  V30 3565 H 335.734 -2.53774 -7.37034 0
M  V30 3566 N 339.963 1.05934 -1.16686 0
M  V30 3567 C 340.926 2.11669 -0.879144 0
M  V30 3568 C 341.926 1.60294 0.127445 0
M  V30 3569 O 343.116 1.7389 -0.103865 0
M  V30 3570 C 340.248 3.39438 -0.315425 0
M  V30 3571 H 341.441 2.38626 -1.81653 0
M  V30 3572 H 338.994 1.22058 -0.976299 0
M  V30 3573 H 339.729 3.18132 0.629468 0
M  V30 3574 H 339.514 3.78034 -1.04079 0
M  V30 3575 H 341.004 4.17391 -0.132189 0
M  V30 3576 N 341.441 0.965919 1.2453 0
M  V30 3577 C 342.388 0.49402 2.25451 0
M  V30 3578 C 343.358 -0.45948 1.59618 0
M  V30 3579 O 344.543 -0.370238 1.87173 0
M  V30 3580 C 341.683 -0.211359 3.44452 0
M  V30 3581 C 340.796 0.7807 4.24887 0
M  V30 3582 C 339.931 0.0516105 5.31175 0
M  V30 3583 C 338.97 1.03385 6.03306 0
M  V30 3584 N 338.107 0.334887 7.01301 0
M  V30 3585 H 342.947 1.35946 2.65184 0
M  V30 3586 H 340.484 0.681515 1.3036 0
M  V30 3587 H 342.442 -0.637 4.12308 0
M  V30 3588 H 341.072 -1.04077 3.05562 0
M  V30 3589 H 340.124 1.32479 3.56586 0
M  V30 3590 H 341.436 1.52978 4.74762 0
M  V30 3591 H 340.59 -0.432114 6.05159 0
M  V30 3592 H 339.329 -0.730179 4.82203 0
M  V30 3593 H 338.334 1.52847 5.28127 0
M  V30 3594 H 339.559 1.81606 6.54367 0
M  V30 3595 H 337.505 -0.427959 6.54603 0
M  V30 3596 H 337.422 1.02287 7.49048 0
M  V30 3597 H 338.69 -0.126928 7.79397 0
M  V30 3598 N 342.919 -1.39368 0.735821 0
M  V30 3599 C 343.849 -2.33234 0.111506 0
M  V30 3600 C 344.83 -1.53954 -0.723334 0
M  V30 3601 O 346.015 -1.82344 -0.668147 0
M  V30 3602 C 343.145 -3.38057 -0.795917 0
M  V30 3603 C 342.099 -4.2795 -0.065172 0
M  V30 3604 C 341.425 -5.23479 -1.08967 0
M  V30 3605 C 342.725 -5.10741 1.09273 0
M  V30 3606 H 344.419 -2.85692 0.895571 0
M  V30 3607 H 341.965 -1.37364 0.432109 0
M  V30 3608 H 343.918 -4.02675 -1.24221 0
M  V30 3609 H 342.642 -2.8404 -1.61211 0
M  V30 3610 H 341.301 -3.64813 0.361511 0
M  V30 3611 H 340.949 -4.65758 -1.89944 0
M  V30 3612 H 340.649 -5.84472 -0.605489 0
M  V30 3613 H 342.173 -5.90974 -1.53565 0
M  V30 3614 H 343.587 -5.68699 0.724841 0
M  V30 3615 H 341.984 -5.8088 1.50659 0
M  V30 3616 H 343.054 -4.45525 1.91404 0
M  V30 3617 N 344.397 -0.483516 -1.5 0
M  V30 3618 C 345.347 0.32306 -2.257 0
M  V30 3619 C 346.331 0.950755 -1.29805 0
M  V30 3620 O 347.523 0.861247 -1.54634 0
M  V30 3621 C 344.652 1.39724 -3.13579 0
M  V30 3622 C 343.738 0.776663 -4.16928 0
M  V30 3623 N 344.129 -0.1104 -5.0568 0
M  V30 3624 C 342.427 1.03922 -4.33724 0
M  V30 3625 C 343.128 -0.46387 -5.79848 0
M  V30 3626 N 342.104 0.163987 -5.43353 0
M  V30 3627 H 345.906 -0.360086 -2.91686 0
M  V30 3628 H 343.42 -0.298456 -1.59634 0
M  V30 3629 H 345.417 1.98837 -3.66428 0
M  V30 3630 H 344.077 2.08225 -2.49143 0
M  V30 3631 H 345.088 -0.480069 -5.1567 0
M  V30 3632 H 341.765 1.71829 -3.80501 0
M  V30 3633 H 343.155 -1.18854 -6.61304 0
M  V30 3634 N 345.875 1.56104 -0.216619 0
M  V30 3635 C 347.123 1.97781 0.415593 0
M  V30 3636 C 347.444 1.10536 1.60645 0
M  V30 3637 O 346.714 0.181303 1.95059 0
M  V30 3638 H 345.294 0.730415 0.156534 0
M  V30 3639 H 347.956 1.92445 -0.308366 0
M  V30 3640 H 347.052 3.03072 0.74525 0
M  V30 3641 N 347.353 -0.0568162 1.57498 0
M  V30 3642 C 348.599 -0.748893 1.89111 0
M  V30 3643 C 348.954 -1.74422 0.81208 0
M  V30 3644 O 348.247 -1.90731 -0.182247 0
M  V30 3645 C 348.441 -1.48359 3.25153 0
M  V30 3646 C 348.27 -0.560924 4.46188 0
M  V30 3647 C 347.04 -0.192264 5.04934 0
M  V30 3648 C 349.238 0.148824 5.14085 0
M  V30 3649 N 347.22 0.734555 6.0949 0
M  V30 3650 C 348.591 0.932286 6.12951 0
M  V30 3651 C 350.646 0.218713 4.97419 0
M  V30 3652 C 349.349 1.77917 6.96949 0
M  V30 3653 C 351.375 1.05262 5.81957 0
M  V30 3654 C 350.737 1.82409 6.80372 0
M  V30 3655 H 346.836 -0.249002 0.741298 0
M  V30 3656 H 349.42 -0.00984926 1.94698 0
M  V30 3657 H 347.591 -2.19326 3.20547 0
M  V30 3658 H 349.323 -2.12586 3.44368 0
M  V30 3659 H 346.078 -0.548421 4.70414 0
M  V30 3660 H 346.502 1.19165 6.6643 0
M  V30 3661 H 351.144 -0.363407 4.21235 0
M  V30 3662 H 348.862 2.3722 7.72497 0
M  V30 3663 H 352.448 1.10987 5.71116 0
M  V30 3664 H 351.328 2.45895 7.44651 0
M  V30 3665 N 348.832 -1.54138 -0.328536 0
M  V30 3666 C 350.08 -1.71765 -1.06496 0
M  V30 3667 C 350.401 -0.49149 -1.88704 0
M  V30 3668 O 349.671 0.494539 -1.89555 0
M  V30 3669 H 348.251 -0.633295 -0.396164 0
M  V30 3670 H 350.913 -1.91429 -0.366176 0
M  V30 3671 H 350.009 -2.5951 -1.73381 0
M  V30 3672 N 350.31 0.590341 -1.46126 0
M  V30 3673 C 351.242 1.71427 -1.52136 0
M  V30 3674 C 352.255 1.57542 -0.41042 0
M  V30 3675 O 353.444 1.65106 -0.678389 0
M  V30 3676 C 350.544 3.09605 -1.37834 0
M  V30 3677 C 349.717 3.49566 -2.62912 0
M  V30 3678 C 348.776 4.66773 -2.42918 0
M  V30 3679 O 347.802 4.73019 -3.1661 0
M  V30 3680 N 349.004 5.61161 -1.4859 0
M  V30 3681 H 351.769 1.66728 -2.49042 0
M  V30 3682 H 349.33 0.776113 -1.42085 0
M  V30 3683 H 351.322 3.85796 -1.22243 0
M  V30 3684 H 349.892 3.08714 -0.491393 0
M  V30 3685 H 349.112 2.63158 -2.93499 0
M  V30 3686 H 350.4 3.73028 -3.46017 0
M  V30 3687 H 349.798 5.58844 -0.87808 0
M  V30 3688 H 348.355 6.36814 -1.38965 0
M  V30 3689 N 351.788 1.33704 0.83433 0
M  V30 3690 C 353.204 1.13137 1.12571 0
M  V30 3691 C 353.404 -0.0747261 2.01361 0
M  V30 3692 O 352.46 -0.753647 2.4099 0
M  V30 3693 C 353.773 2.42105 1.78342 0
M  V30 3694 C 355.321 2.48054 1.90888 0
M  V30 3695 C 355.796 3.76995 2.60075 0
M  V30 3696 N 357.287 3.78092 2.67584 0
M  V30 3697 C 358.022 4.74574 3.21818 0
M  V30 3698 N 357.518 5.81434 3.76705 0
M  V30 3699 N 359.311 4.62044 3.20112 0
M  V30 3700 H 351.462 2.11 0.243489 0
M  V30 3701 H 353.725 0.932532 0.17055 0
M  V30 3702 H 353.431 3.30391 1.20561 0
M  V30 3703 H 353.305 2.54594 2.7832 0
M  V30 3704 H 355.692 1.60215 2.47821 0
M  V30 3705 H 355.773 2.39502 0.898459 0
M  V30 3706 H 355.417 4.65219 2.03799 0
M  V30 3707 H 355.347 3.82825 3.61597 0
M  V30 3708 H 357.838 3.00865 2.28667 0
M  V30 3709 H 358.151 6.51084 4.16305 0
M  V30 3710 H 356.496 5.85163 3.7498 0
M  V30 3711 H 359.687 3.77716 2.76493 0
M  V30 3712 H 359.86 5.37406 3.62076 0
M  V30 3713 N 353.266 -1.05314 1.17247 0
M  V30 3714 C 354.513 -1.78293 0.960091 0
M  V30 3715 C 354.841 -1.87658 -0.51136 0
M  V30 3716 O 354.096 -1.3718 -1.39571 0
M  V30 3717 C 354.395 -3.2229 1.54479 0
M  V30 3718 C 354.061 -3.32987 3.04024 0
M  V30 3719 C 352.723 -3.35613 3.44844 0
M  V30 3720 C 355.075 -3.34102 4.00031 0
M  V30 3721 C 352.403 -3.36982 4.8027 0
M  V30 3722 C 354.755 -3.3701 5.35357 0
M  V30 3723 C 353.419 -3.37923 5.75642 0
M  V30 3724 H 352.689 -0.652422 0.351322 0
M  V30 3725 H 355.336 -1.23782 1.46117 0
M  V30 3726 H 353.641 -3.7972 0.965391 0
M  V30 3727 H 355.338 -3.77376 1.35603 0
M  V30 3728 H 351.928 -3.31655 2.71483 0
M  V30 3729 H 356.112 -3.31276 3.69554 0
M  V30 3730 H 351.368 -3.35999 5.10798 0
M  V30 3731 H 355.542 -3.36822 6.09528 0
M  V30 3732 H 353.169 -3.38738 6.80559 0
M  V30 3733 N 354.744 -0.972509 -1.24016 0
M  V30 3734 C 355.972 -0.654803 -1.96265 0
M  V30 3735 C 356.387 0.776708 -1.72083 0
M  V30 3736 O 355.744 1.52171 -1.00748 0
M  V30 3737 C 355.795 -0.92592 -3.49441 0
M  V30 3738 O 355.516 -2.30116 -3.72798 0
M  V30 3739 C 357.017 -0.623068 -4.38899 0
M  V30 3740 H 354.237 -0.243907 -0.6251 0
M  V30 3741 H 356.781 -1.30175 -1.57717 0
M  V30 3742 H 354.936 -0.325108 -3.86033 0
M  V30 3743 H 355.35 -2.38483 -4.67147 0
M  V30 3744 H 356.824 -0.863189 -5.45209 0
M  V30 3745 H 357.301 0.442754 -4.36963 0
M  V30 3746 H 357.907 -1.204 -4.07902 0
M  V30 3747 N 356.222 1.38976 -0.743202 0
M  V30 3748 C 357.452 2.04339 -0.304807 0
M  V30 3749 C 357.86 1.56162 1.06819 0
M  V30 3750 O 357.203 0.725284 1.68776 0
M  V30 3751 C 357.265 3.58716 -0.237369 0
M  V30 3752 C 356.929 4.29905 -1.55018 0
M  V30 3753 C 357.926 4.55987 -2.49744 0
M  V30 3754 C 355.611 4.68294 -1.81675 0
M  V30 3755 C 357.605 5.19478 -3.69353 0
M  V30 3756 C 355.292 5.31512 -3.0156 0
M  V30 3757 C 356.29 5.57037 -3.9522 0
M  V30 3758 O 355.978 6.18941 -5.12998 0
M  V30 3759 H 355.71 0.663439 -0.12971 0
M  V30 3760 H 358.264 1.78852 -1.01001 0
M  V30 3761 H 356.494 3.83133 0.524003 0
M  V30 3762 H 358.183 4.05543 0.170121 0
M  V30 3763 H 358.949 4.26767 -2.30423 0
M  V30 3764 H 354.828 4.47779 -1.09615 0
M  V30 3765 H 358.372 5.39318 -4.42473 0
M  V30 3766 H 354.269 5.60153 -3.20778 0
M  V30 3767 H 355.037 6.37433 -5.13441 0
M  V30 3768 N 357.7 0.491464 1.49741 0
M  V30 3769 C 358.61 -0.296835 2.32715 0
M  V30 3770 C 359.626 -0.976536 1.44013 0
M  V30 3771 O 360.802 -0.960023 1.77047 0
M  V30 3772 C 357.867 -1.35288 3.19215 0
M  V30 3773 C 356.928 -0.687632 4.23757 0
M  V30 3774 C 356.161 -1.69336 5.06123 0
M  V30 3775 O 356.384 -2.92219 4.89861 0
M  V30 3776 O 355.318 -1.25394 5.88693 0
M  V30 3777 H 359.144 0.382048 3.01287 0
M  V30 3778 H 356.729 0.252953 1.47243 0
M  V30 3779 H 358.611 -1.96411 3.72828 0
M  V30 3780 H 357.286 -2.01487 2.53347 0
M  V30 3781 H 356.193 -0.0369159 3.74082 0
M  V30 3782 H 357.526 -0.0682566 4.92153 0
M  V30 3783 N 359.178 -1.55987 0.224894 0
M  V30 3784 C 360.455 -1.90232 -0.455083 0
M  V30 3785 C 360.835 -1.14269 -1.77499 0
M  V30 3786 O 360.183 -0.253079 -2.27094 0
M  V30 3787 C 360.393 -3.42993 -0.644758 0
M  V30 3788 C 361.741 -4.13821 -0.950669 0
M  V30 3789 O 362.765 -3.4861 -0.731423 0
M  V30 3790 O 361.624 -5.29128 -1.36695 0
M  V30 3791 H 358.718 -0.79108 -0.241084 0
M  V30 3792 H 361.264 -1.67581 0.267327 0
M  V30 3793 H 360.036 -3.90252 0.28613 0
M  V30 3794 H 359.659 -3.71434 -1.41853 0
M  V30 3795 N 360.656 0.0484629 -1.57525 0
M  V30 3796 C 361.588 1.08222 -2.02041 0
M  V30 3797 C 362.601 1.33621 -0.930012 0
M  V30 3798 O 363.79 1.3145 -1.20761 0
M  V30 3799 C 360.89 2.42818 -2.36416 0
M  V30 3800 C 360.063 2.37049 -3.67596 0
M  V30 3801 C 359.122 3.53937 -3.89378 0
M  V30 3802 O 358.148 3.34308 -4.60681 0
M  V30 3803 N 359.35 4.75126 -3.3352 0
M  V30 3804 H 362.115 0.702946 -2.9134 0
M  V30 3805 H 359.676 0.236745 -1.6016 0
M  V30 3806 H 361.668 3.197 -2.48141 0
M  V30 3807 H 360.238 2.72661 -1.52888 0
M  V30 3808 H 359.458 1.45395 -3.66407 0
M  V30 3809 H 360.746 2.30318 -4.53686 0
M  V30 3810 H 360.144 4.93976 -2.75688 0
M  V30 3811 H 358.701 5.49439 -3.50656 0
M  V30 3812 N 362.134 1.5431 0.320358 0
M  V30 3813 C 363.411 1.63322 1.07635 0
M  V30 3814 C 363.791 0.46912 2.05821 0
M  V30 3815 O 363.139 -0.536274 2.22118 0
M  V30 3816 C 363.349 3.00465 1.77544 0
M  V30 3817 C 364.697 3.56621 2.30449 0
M  V30 3818 O 365.721 3.02791 1.87606 0
M  V30 3819 O 364.58 4.5083 3.08892 0
M  V30 3820 H 361.674 0.661502 0.496331 0
M  V30 3821 H 364.22 1.66656 0.319992 0
M  V30 3822 H 362.992 3.76629 1.06143 0
M  V30 3823 H 362.615 3.00824 2.59982 0
M  V30 3824 N 363.613 -0.582584 1.46437 0
M  V30 3825 C 364.861 -1.33814 1.51453 0
M  V30 3826 C 365.182 -1.94277 0.167792 0
M  V30 3827 O 364.452 -1.78566 -0.805677 0
M  V30 3828 H 363.032 -0.496838 0.557818 0
M  V30 3829 H 365.694 -0.682281 1.82568 0
M  V30 3830 H 364.79 -2.14479 2.26728 0
M  V30 3831 N 365.091 -1.34144 -0.827227 0
M  V30 3832 C 366.507 -1.13732 -1.11969 0
M  V30 3833 C 366.707 0.0640463 -2.01398 0
M  V30 3834 O 365.763 0.740856 -2.41387 0
M  V30 3835 C 367.076 -2.43047 -1.77055 0
M  V30 3836 C 368.624 -2.49063 -1.89569 0
M  V30 3837 C 369.099 -3.78369 -2.58072 0
M  V30 3838 N 370.59 -3.79505 -2.65575 0
M  V30 3839 C 371.325 -4.76274 -3.19297 0
M  V30 3840 N 370.821 -5.83424 -3.73616 0
M  V30 3841 N 372.614 -4.63735 -3.17658 0
M  V30 3842 H 364.765 -2.11126 -0.232296 0
M  V30 3843 H 367.028 -0.933424 -0.165602 0
M  V30 3844 H 366.734 -3.31025 -1.18807 0
M  V30 3845 H 366.608 -2.56066 -2.76966 0
M  V30 3846 H 368.995 -1.61527 -2.46968 0
M  V30 3847 H 369.076 -2.39975 -0.885745 0
M  V30 3848 H 368.72 -4.66293 -2.01329 0
M  V30 3849 H 368.65 -3.84737 -3.59562 0
M  V30 3850 H 371.141 -3.02074 -2.27068 0
M  V30 3851 H 371.454 -6.53282 -4.12846 0
M  V30 3852 H 369.799 -5.87143 -3.71871 0
M  V30 3853 H 372.99 -3.79177 -2.74486 0
M  V30 3854 H 373.163 -5.39318 -3.59221 0
M  V30 3855 N 366.569 1.04691 -1.17803 0
M  V30 3856 C 367.818 1.77176 -0.963931 0
M  V30 3857 C 368.131 1.88888 0.508015 0
M  V30 3858 O 369.337 2.58164 0.840465 0
M  V30 3859 C 367.793 3.18518 -1.67555 0
M  V30 3860 C 367.401 3.14919 -3.18637 0
M  V30 3861 C 369.145 3.95424 -1.54402 0
M  V30 3862 C 367.052 4.51081 -3.82466 0
M  V30 3863 H 365.982 0.664116 -0.357023 0
M  V30 3864 H 368.633 1.17303 -1.4111 0
M  V30 3865 H 367.015 3.78748 -1.15613 0
M  V30 3866 H 368.189 2.64178 -3.77554 0
M  V30 3867 H 366.504 2.51512 -3.31859 0
M  V30 3868 H 369.101 4.96106 -1.99456 0
M  V30 3869 H 369.444 4.13343 -0.495329 0
M  V30 3870 H 369.977 3.41754 -2.0359 0
M  V30 3871 H 366.716 4.38368 -4.87354 0
M  V30 3872 H 366.236 5.01951 -3.28337 0
M  V30 3873 H 367.915 5.2001 -3.84965 0
M  V30 3874 N 368.047 0.979072 1.23499 0
M  V30 3875 C 369.272 0.664845 1.96455 0
M  V30 3876 C 369.697 -0.761287 1.72006 0
M  V30 3877 O 369.055 -1.51837 0.990713 0
M  V30 3878 C 369.103 0.959479 3.47601 0
M  V30 3879 O 368.207 0.0508168 4.12369 0
M  V30 3880 H 367.548 0.250185 0.615064 0
M  V30 3881 H 370.078 1.31231 1.5697 0
M  V30 3882 H 370.088 0.895642 3.98048 0
M  V30 3883 H 368.763 1.99876 3.64723 0
M  V30 3884 H 367.34 0.16895 3.72517 0
M  V30 3885 N 369.525 -1.3858 0.750561 0
M  V30 3886 C 370.802 -1.94231 0.231009 0
M  V30 3887 C 371.182 -1.68611 -1.27018 0
M  V30 3888 O 370.53 -1.02296 -2.04323 0
M  V30 3889 C 370.74 -3.44123 0.581428 0
M  V30 3890 C 372.088 -4.2116 0.539389 0
M  V30 3891 O 373.112 -3.52391 0.519541 0
M  V30 3892 O 371.971 -5.43749 0.54765 0
M  V30 3893 H 369.065 -0.825639 0.0474263 0
M  V30 3894 H 371.611 -1.4799 0.830478 0
M  V30 3895 H 370.383 -3.56267 1.61833 0
M  V30 3896 H 370.006 -3.97573 -0.0462047 0
M  V30 3897 N 371.003 -0.499398 -1.49478 0
M  V30 3898 C 371.933 0.269244 -2.31943 0
M  V30 3899 C 372.914 0.964054 -1.40143 0
M  V30 3900 O 374.099 0.955767 -1.69052 0
M  V30 3901 C 371.229 1.33504 -3.20615 0
M  V30 3902 C 370.183 0.760202 -4.21195 0
M  V30 3903 C 369.509 1.9264 -4.98792 0
M  V30 3904 C 370.809 -0.247661 -5.21712 0
M  V30 3905 H 372.503 -0.419082 -2.96452 0
M  V30 3906 H 370.049 -0.202988 -1.42562 0
M  V30 3907 H 372.002 1.88048 -3.77115 0
M  V30 3908 H 370.726 2.05253 -2.54045 0
M  V30 3909 H 369.385 0.23653 -3.65836 0
M  V30 3910 H 369.033 2.63154 -4.28671 0
M  V30 3911 H 368.733 1.54785 -5.66847 0
M  V30 3912 H 370.257 2.4762 -5.58137 0
M  V30 3913 H 371.671 0.209579 -5.72917 0
M  V30 3914 H 370.068 -0.541962 -5.97648 0
M  V30 3915 H 371.138 -1.16409 -4.7072 0
M  V30 3916 N 372.481 1.55866 -0.233164 0
M  V30 3917 C 373.391 2.24431 0.683217 0
M  V30 3918 C 374.407 1.2558 1.2044 0
M  V30 3919 O 375.583 1.58422 1.24356 0
M  V30 3920 C 372.648 2.91979 1.86947 0
M  V30 3921 C 371.709 4.06204 1.38912 0
M  V30 3922 C 370.942 4.70522 2.51883 0
M  V30 3923 O 371.165 4.33865 3.70293 0
M  V30 3924 O 370.099 5.59296 2.22423 0
M  V30 3925 H 373.925 3.03426 0.129059 0
M  V30 3926 H 371.51 1.494 -0.0022283 0
M  V30 3927 H 373.392 3.34573 2.56201 0
M  V30 3928 H 372.067 2.15935 2.41151 0
M  V30 3929 H 370.974 3.68155 0.664259 0
M  V30 3930 H 372.307 4.84025 0.893328 0
M  V30 3931 N 373.959 -0.0401083 1.57549 0
M  V30 3932 C 375.205 -0.734211 1.89043 0
M  V30 3933 C 375.538 -1.75591 0.829535 0
M  V30 3934 O 374.813 -1.93868 -0.156706 0
M  V30 3935 C 375.096 -1.41374 3.31188 0
M  V30 3936 C 374.949 -0.406299 4.47961 0
M  V30 3937 C 376.268 -2.35061 3.72068 0
M  V30 3938 H 373.387 -0.265447 0.687537 0
M  V30 3939 H 376.029 0.00294087 1.9 0
M  V30 3940 H 374.179 -2.04206 3.30503 0
M  V30 3941 H 375.851 0.219255 4.60779 0
M  V30 3942 H 374.094 0.275485 4.32924 0
M  V30 3943 H 374.765 -0.920022 5.44279 0
M  V30 3944 H 377.241 -1.82282 3.74049 0
M  V30 3945 H 376.117 -2.79593 4.72355 0
M  V30 3946 H 376.378 -3.21258 3.0372 0
M  V30 3947 N 375.437 -1.54477 -0.31217 0
M  V30 3948 C 376.848 -1.64344 -0.885891 0
M  V30 3949 C 377.199 -0.54485 -1.88483 0
M  V30 3950 O 376.324 0.320387 -2.14015 0
M  V30 3951 C 376.919 -2.97908 -1.61357 0
M  V30 3952 C 375.478 -3.09933 -2.13585 0
M  V30 3953 C 374.625 -2.59971 -0.964897 0
M  V30 3954 H 377.576 -1.58448 -0.0894528 0
M  V30 3955 H 377.597 -2.88706 -2.47848 0
M  V30 3956 H 377.109 -3.77845 -0.886277 0
M  V30 3957 H 375.21 -2.34694 -2.89395 0
M  V30 3958 H 375.323 -4.15916 -2.37804 0
M  V30 3959 H 373.687 -2.16147 -1.34731 0
M  V30 3960 H 374.47 -3.42376 -0.251742 0
M  V30 3961 N 376.915 0.57481 -1.46744 0
M  V30 3962 C 377.845 1.69337 -1.60771 0
M  V30 3963 C 378.826 1.63825 -0.457736 0
M  V30 3964 O 380.011 1.8172 -0.684947 0
M  V30 3965 C 377.141 3.0798 -1.60517 0
M  V30 3966 C 376.095 3.28327 -2.74564 0
M  V30 3967 C 375.421 4.67578 -2.59373 0
M  V30 3968 C 376.721 3.15398 -4.16319 0
M  V30 3969 H 378.415 1.57853 -2.54407 0
M  V30 3970 H 375.961 0.75799 -1.22436 0
M  V30 3971 H 377.914 3.86061 -1.68923 0
M  V30 3972 H 376.638 3.20381 -0.634305 0
M  V30 3973 H 375.297 2.52649 -2.65639 0
M  V30 3974 H 374.945 4.76755 -1.60353 0
M  V30 3975 H 374.645 4.82144 -3.35873 0
M  V30 3976 H 376.169 5.47817 -2.69682 0
M  V30 3977 H 377.583 3.83315 -4.26313 0
M  V30 3978 H 375.98 3.41482 -4.93468 0
M  V30 3979 H 377.05 2.12372 -4.3592 0
M  V30 3980 N 378.394 1.34581 0.820102 0
M  V30 3981 C 379.64 1.27285 1.57881 0
M  V30 3982 C 379.973 -0.156137 1.93571 0
M  V30 3983 O 379.248 -1.10222 1.60254 0
M  V30 3984 C 379.531 2.16639 2.87645 0
M  V30 3985 C 379.384 3.68088 2.58517 0
M  V30 3986 C 380.703 2.05378 3.8924 0
M  V30 3987 H 377.822 0.463714 0.572833 0
M  V30 3988 H 380.464 1.64859 0.944539 0
M  V30 3989 H 378.614 1.84725 3.41773 0
M  V30 3990 H 380.286 4.10382 2.10676 0
M  V30 3991 H 378.529 3.89038 1.91917 0
M  V30 3992 H 379.2 4.2598 3.51063 0
M  V30 3993 H 381.676 2.33404 3.44473 0
M  V30 3994 H 380.552 2.7012 4.77835 0
M  V30 3995 H 380.813 1.0316 4.29896 0
M  V30 3996 N 379.872 -1.04064 1.18357 0
M  V30 3997 C 381.12 -1.76915 0.977013 0
M  V30 3998 C 381.441 -1.88624 -0.494577 0
M  V30 3999 O 380.711 -1.41125 -1.3587 0
M  V30 4000 H 379.291 -0.65535 0.358504 0
M  V30 4001 H 381.953 -1.25592 1.49039 0
M  V30 4002 H 381.049 -2.78178 1.41504 0
M  V30 4003 N 381.35 -0.985608 -1.22978 0
M  V30 4004 C 382.627 -0.573599 -1.87001 0
M  V30 4005 C 383.007 0.949213 -1.88555 0
M  V30 4006 O 382.355 1.82811 -1.37086 0
M  V30 4007 C 382.565 -1.18564 -3.28243 0
M  V30 4008 C 383.913 -1.28163 -4.04796 0
M  V30 4009 O 384.937 -1.13949 -3.37482 0
M  V30 4010 O 383.796 -1.50832 -5.25273 0
M  V30 4011 H 380.89 -0.193868 -0.803955 0
M  V30 4012 H 383.436 -1.08102 -1.30813 0
M  V30 4013 H 382.208 -2.22758 -3.21706 0
M  V30 4014 H 381.831 -0.663363 -3.92027 0
M  V30 4015 N 382.828 1.3818 -0.7579 0
M  V30 4016 C 384.058 2.04004 -0.326463 0
M  V30 4017 C 384.466 1.57286 1.05156 0
M  V30 4018 O 383.809 0.743144 1.67997 0
M  V30 4019 C 383.871 3.58444 -0.275402 0
M  V30 4020 C 383.535 4.28237 -1.59569 0
M  V30 4021 C 384.532 4.53312 -2.54566 0
M  V30 4022 C 382.217 4.66341 -1.86631 0
M  V30 4023 C 384.211 5.15531 -3.74842 0
M  V30 4024 C 381.898 5.28283 -3.0718 0
M  V30 4025 C 382.896 5.52814 -4.01106 0
M  V30 4026 O 382.584 6.13465 -5.19534 0
M  V30 4027 H 382.316 0.662026 -0.136739 0
M  V30 4028 H 384.87 1.7777 -1.02893 0
M  V30 4029 H 383.1 3.83667 0.483337 0
M  V30 4030 H 384.789 4.05701 0.127099 0
M  V30 4031 H 385.555 4.24299 -2.34936 0
M  V30 4032 H 381.434 4.46591 -1.14358 0
M  V30 4033 H 384.978 5.34594 -4.48168 0
M  V30 4034 H 380.875 5.56719 -3.26702 0
M  V30 4035 H 381.643 6.31951 -5.20173 0
M  V30 4036 N 384.306 0.507319 1.49211 0
M  V30 4037 C 385.238 -0.304532 2.27168 0
M  V30 4038 C 386.251 -0.924956 1.33972 0
M  V30 4039 O 387.44 -0.807227 1.59205 0
M  V30 4040 C 384.54 -1.44431 3.06583 0
M  V30 4041 C 383.713 -0.930026 4.27398 0
M  V30 4042 C 382.772 -1.94817 4.88807 0
M  V30 4043 O 381.798 -1.51418 5.4869 0
M  V30 4044 N 383 -3.279 4.79022 0
M  V30 4045 H 385.765 0.36395 2.97482 0
M  V30 4046 H 383.326 0.340249 1.58284 0
M  V30 4047 H 385.318 -2.12311 3.44537 0
M  V30 4048 H 383.888 -2.01684 2.38835 0
M  V30 4049 H 383.108 -0.0759244 3.94127 0
M  V30 4050 H 384.396 -0.564932 5.05654 0
M  V30 4051 H 383.794 -3.65843 4.3148 0
M  V30 4052 H 382.351 -3.91476 5.21142 0
M  V30 4053 N 385.784 -1.5574 0.241426 0
M  V30 4054 C 386.716 -2.18469 -0.693091 0
M  V30 4055 C 387.729 -1.15942 -1.14286 0
M  V30 4056 O 388.918 -1.42832 -1.07058 0
M  V30 4057 C 386.018 -2.7696 -1.95311 0
M  V30 4058 C 385.191 -4.04853 -1.65568 0
M  V30 4059 C 384.25 -4.47715 -2.76474 0
M  V30 4060 O 383.276 -5.14205 -2.44094 0
M  V30 4061 N 384.478 -4.15044 -4.05855 0
M  V30 4062 H 387.243 -2.99292 -0.156388 0
M  V30 4063 H 384.804 -1.61784 0.0611752 0
M  V30 4064 H 386.796 -3.02594 -2.68736 0
M  V30 4065 H 385.366 -2.00326 -2.39975 0
M  V30 4066 H 384.586 -3.86865 -0.756886 0
M  V30 4067 H 385.874 -4.88246 -1.43153 0
M  V30 4068 H 385.272 -3.61654 -4.34998 0
M  V30 4069 H 383.829 -4.45526 -4.75762 0
M  V30 4070 N 387.262 0.0317525 -1.57568 0
M  V30 4071 C 388.678 0.38735 -1.54828 0
M  V30 4072 C 388.878 1.7677 -0.967187 0
M  V30 4073 O 387.934 2.45581 -0.587063 0
M  V30 4074 C 389.247 0.291667 -2.99282 0
M  V30 4075 C 390.795 0.368946 -3.10818 0
M  V30 4076 C 391.27 0.302741 -4.56998 0
M  V30 4077 N 392.761 0.361617 -4.61786 0
M  V30 4078 C 393.496 0.333238 -5.72431 0
M  V30 4079 N 392.992 0.257308 -6.92322 0
M  V30 4080 N 394.785 0.382769 -5.60795 0
M  V30 4081 H 386.936 -0.871609 -1.93692 0
M  V30 4082 H 389.199 -0.331161 -0.888277 0
M  V30 4083 H 388.905 -0.656794 -3.45513 0
M  V30 4084 H 388.779 1.08638 -3.61217 0
M  V30 4085 H 391.166 1.30784 -2.64536 0
M  V30 4086 H 391.247 -0.455066 -2.5172 0
M  V30 4087 H 390.891 -0.632473 -5.03947 0
M  V30 4088 H 390.821 1.14482 -5.14005 0
M  V30 4089 H 393.312 0.422923 -3.75526 0
M  V30 4090 H 393.625 0.24068 -7.72425 0
M  V30 4091 H 391.97 0.223396 -6.94641 0
M  V30 4092 H 395.161 0.44006 -4.66027 0
M  V30 4093 H 395.334 0.357184 -6.47015 0
M  V30 4094 N 388.74 1.54641 0.303973 0
M  V30 4095 C 389.688 1.86137 1.39484 0
M  V30 4096 C 390.682 0.734854 1.52631 0
M  V30 4097 O 391.888 0.918803 1.54784 0
M  V30 4098 H 388.263 0.590324 0.465856 0
M  V30 4099 H 390.234 2.77324 1.10154 0
M  V30 4100 C 388.983 2.12274 2.75382 0
M  V30 4101 H 388.306 2.98429 2.66046 0
M  V30 4102 H 389.746 2.38254 3.5073 0
M  V30 4103 C 388.205 0.920365 3.24085 0
M  V30 4104 O 388.735 0.139377 4.01458 0
M  V30 4105 N 386.941 0.726566 2.81371 0
M  V30 4106 H 386.488 1.36332 2.18567 0
M  V30 4107 H 386.446 -0.0763799 3.14307 0
M  V30 4108 N 390.218 -0.567019 1.47046 0
M  V30 4109 C 391.151 -1.69016 1.53326 0
M  V30 4110 C 392.129 -1.57949 0.386126 0
M  V30 4111 O 393.313 -1.78945 0.592529 0
M  V30 4112 C 390.44 -3.07191 1.42658 0
M  V30 4113 C 389.486 -3.36733 2.6175 0
M  V30 4114 S 390.319 -3.27069 4.24012 0
M  V30 4115 C 391.475 -4.67755 4.1588 0
M  V30 4116 H 391.708 -1.63434 2.48348 0
M  V30 4117 H 389.241 -0.747048 1.35124 0
M  V30 4118 H 391.199 -3.86897 1.37191 0
M  V30 4119 H 389.86 -3.10249 0.490369 0
M  V30 4120 H 389.053 -4.37441 2.50323 0
M  V30 4121 H 388.655 -2.64627 2.64289 0
M  V30 4122 H 390.947 -5.58491 3.83529 0
M  V30 4123 H 391.89 -4.84239 5.16641 0
M  V30 4124 H 392.298 -4.45341 3.46889 0
M  V30 4125 N 391.696 -1.35014 -0.812953 0
M  V30 4126 C 392.659 -1.27292 -1.90602 0
M  V30 4127 C 393.659 -0.185817 -1.59723 0
M  V30 4128 O 394.849 -0.439102 -1.68575 0
M  V30 4129 C 391.981 -0.967676 -3.26877 0
M  V30 4130 H 393.174 -2.24479 -1.9887 0
M  V30 4131 H 390.727 -1.19446 -1.00808 0
M  V30 4132 H 391.462 0.0005954 -3.243 0
M  V30 4133 H 391.247 -1.75412 -3.50675 0
M  V30 4134 H 392.737 -0.939085 -4.06904 0
M  V30 4135 N 393.175 1.03435 -1.18907 0
M  V30 4136 C 394.424 1.76143 -0.982669 0
M  V30 4137 C 394.737 1.89416 0.487953 0
M  V30 4138 O 395.943 2.59041 0.813036 0
M  V30 4139 C 394.399 3.16722 -1.70924 0
M  V30 4140 C 394.007 3.11522 -3.21959 0
M  V30 4141 C 395.751 3.93764 -1.58588 0
M  V30 4142 C 393.658 4.46999 -3.87228 0
M  V30 4143 H 392.588 0.660292 -0.364047 0
M  V30 4144 H 395.239 1.158 -1.42347 0
M  V30 4145 H 393.621 3.775 -1.19623 0
M  V30 4146 H 394.795 2.60158 -3.80335 0
M  V30 4147 H 393.11 2.47978 -3.34508 0
M  V30 4148 H 395.707 4.93963 -2.04707 0
M  V30 4149 H 396.05 4.12794 -0.539142 0
M  V30 4150 H 396.583 3.39576 -2.07203 0
M  V30 4151 H 393.322 4.33174 -4.91976 0
M  V30 4152 H 392.842 4.98441 -3.33642 0
M  V30 4153 H 394.521 5.15898 -3.90459 0
M  V30 4154 N 394.653 0.992116 1.22453 0
M  V30 4155 C 395.616 0.546883 2.2258 0
M  V30 4156 C 396.616 -0.369829 1.56489 0
M  V30 4157 O 397.806 -0.161896 1.73446 0
M  V30 4158 C 394.938 -0.204659 3.40285 0
M  V30 4159 H 396.131 1.43234 2.63484 0
M  V30 4160 H 393.684 0.779239 1.3549 0
M  V30 4161 H 394.419 -1.10614 3.04853 0
M  V30 4162 H 394.204 0.45354 3.89468 0
M  V30 4163 H 395.694 -0.504358 4.14543 0
M  V30 4164 N 396.131 -1.37776 0.765217 0
M  V30 4165 C 397.38 -1.99092 0.323307 0
M  V30 4166 C 397.693 -1.61434 -1.10446 0
M  V30 4167 O 398.899 -2.15805 -1.64743 0
M  V30 4168 C 397.355 -3.56019 0.527098 0
M  V30 4169 C 396.963 -4.0262 1.96471 0
M  V30 4170 C 398.707 -4.2424 0.148483 0
M  V30 4171 C 396.614 -5.52233 2.11644 0
M  V30 4172 H 395.544 -0.744846 0.117137 0
M  V30 4173 H 398.195 -1.57391 0.943417 0
M  V30 4174 H 396.577 -3.95667 -0.162372 0
M  V30 4175 H 397.751 -3.74234 2.68859 0
M  V30 4176 H 396.066 -3.47161 2.29931 0
M  V30 4177 H 398.663 -5.34159 0.240456 0
M  V30 4178 H 399.006 -4.06446 -0.900422 0
M  V30 4179 H 399.539 -3.89872 0.79025 0
M  V30 4180 H 396.278 -5.74945 3.1483 0
M  V30 4181 H 395.798 -5.82324 1.4373 0
M  V30 4182 H 397.477 -6.18106 1.91193 0
M  V30 4183 N 397.609 -0.515225 -1.4894 0
M  V30 4184 C 398.541 0.292481 -2.27326 0
M  V30 4185 C 399.554 0.917838 -1.3446 0
M  V30 4186 O 400.743 0.798772 -1.5963 0
M  V30 4187 C 397.843 1.42803 -3.07344 0
M  V30 4188 C 397.016 0.907347 -4.27885 0
M  V30 4189 C 396.075 1.92222 -4.89834 0
M  V30 4190 O 395.101 1.48506 -5.49486 0
M  V30 4191 N 396.303 3.25355 -4.80754 0
M  V30 4192 H 399.068 -0.379721 -2.97285 0
M  V30 4193 H 396.629 -0.348638 -1.58102 0
M  V30 4194 H 398.621 2.10481 -3.45658 0
M  V30 4195 H 397.191 2.00414 -2.39902 0
M  V30 4196 H 396.411 0.0550218 -3.94162 0
M  V30 4197 H 397.699 0.538108 -5.05946 0
M  V30 4198 H 397.097 3.6355 -4.33414 0
M  V30 4199 H 395.654 3.88707 -5.23211 0
M  V30 4200 N 399.087 1.5561 -0.249682 0
M  V30 4201 C 400.315 2.03411 0.378352 0
M  V30 4202 C 400.73 1.12886 1.51335 0
M  V30 4203 O 400.087 0.143833 1.81932 0
M  V30 4204 C 400.138 3.50537 0.88351 0
M  V30 4205 O 399.859 4.37614 -0.20626 0
M  V30 4206 C 401.36 4.14113 1.58195 0
M  V30 4207 H 398.58 0.664994 0.08958 0
M  V30 4208 H 401.124 2.01044 -0.374357 0
M  V30 4209 H 399.279 3.5343 1.58639 0
M  V30 4210 H 399.693 5.24199 0.177782 0
M  V30 4211 H 401.167 5.18741 1.8871 0
M  V30 4212 H 401.644 3.60767 2.50487 0
M  V30 4213 H 402.25 4.15151 0.923573 0
M  V30 4214 N 400.565 -0.0233959 1.57583 0
M  V30 4215 C 401.528 -1.00693 2.05897 0
M  V30 4216 C 402.528 -1.28693 0.964092 0
M  V30 4217 O 403.718 -1.23602 1.22753 0
M  V30 4218 C 400.85 -2.33825 2.4807 0
M  V30 4219 H 402.043 -0.589476 2.9405 0
M  V30 4220 H 399.596 -0.270354 1.53944 0
M  V30 4221 H 400.331 -2.80307 1.6309 0
M  V30 4222 H 400.116 -2.1483 3.2801 0
M  V30 4223 H 401.606 -3.04426 2.85857 0
M  V30 4224 N 402.043 -1.548 -0.295768 0
M  V30 4225 C 402.99 -1.86113 -1.36494 0
M  V30 4226 C 403.96 -0.7105 -1.50137 0
M  V30 4227 O 405.145 -0.959626 -1.64912 0
M  V30 4228 C 402.285 -2.11861 -2.72413 0
M  V30 4229 C 401.398 -3.39471 -2.67177 0
M  V30 4230 C 400.533 -3.55035 -3.95125 0
M  V30 4231 C 399.572 -4.76418 -3.84308 0
M  V30 4232 N 398.709 -4.8876 -5.04042 0
M  V30 4233 H 403.549 -2.77314 -1.09091 0
M  V30 4234 H 401.086 -1.37315 -0.52753 0
M  V30 4235 H 403.044 -2.24786 -3.51464 0
M  V30 4236 H 401.674 -1.2392 -2.98066 0
M  V30 4237 H 400.726 -3.35139 -1.79962 0
M  V30 4238 H 402.038 -4.28646 -2.55076 0
M  V30 4239 H 401.192 -3.67653 -4.82614 0
M  V30 4240 H 399.931 -2.64002 -4.10066 0
M  V30 4241 H 398.936 -4.63827 -2.95202 0
M  V30 4242 H 400.161 -5.68863 -3.70906 0
M  V30 4243 H 398.107 -4.00652 -5.19436 0
M  V30 4244 H 398.024 -5.71945 -4.94384 0
M  V30 4245 H 399.292 -5.0574 -5.93167 0
M  V30 4246 N 403.521 0.559213 -1.47345 0
M  V30 4247 C 404.767 1.31843 -1.54095 0
M  V30 4248 C 405.1 1.93149 -0.201726 0
M  V30 4249 O 404.375 1.77759 0.789428 0
M  V30 4250 C 404.658 2.43006 -2.65744 0
M  V30 4251 C 404.511 1.86581 -4.09277 0
M  V30 4252 C 405.83 3.44943 -2.73318 0
M  V30 4253 H 402.949 0.478012 -0.560957 0
M  V30 4254 H 405.591 0.625977 -1.79392 0
M  V30 4255 H 403.741 3.02072 -2.44305 0
M  V30 4256 H 405.413 1.31792 -4.42073 0
M  V30 4257 H 403.656 1.17268 -4.17649 0
M  V30 4258 H 404.327 2.66933 -4.83168 0
M  V30 4259 H 406.803 2.95793 -2.92653 0
M  V30 4260 H 405.679 4.20153 -3.53218 0
M  V30 4261 H 405.94 4.03665 -1.80296 0
M  V30 4262 N 404.999 1.35443 0.805782 0
M  V30 4263 C 406.229 1.31687 1.59192 0
M  V30 4264 C 406.637 -0.10756 1.88894 0
M  V30 4265 O 405.98 -1.07017 1.49309 0
M  V30 4266 C 406.042 2.05686 2.94845 0
M  V30 4267 C 405.706 3.54868 2.87954 0
M  V30 4268 C 406.703 4.49444 2.61335 0
M  V30 4269 C 404.388 3.97528 3.07046 0
M  V30 4270 C 406.382 5.84655 2.53885 0
M  V30 4271 C 404.069 5.32833 2.99219 0
M  V30 4272 C 405.067 6.26209 2.72674 0
M  V30 4273 O 404.755 7.59032 2.64811 0
M  V30 4274 H 404.487 0.453878 0.50097 0
M  V30 4275 H 407.041 1.78892 1.0093 0
M  V30 4276 H 405.271 1.5312 3.55093 0
M  V30 4277 H 406.96 1.94998 3.55993 0
M  V30 4278 H 407.726 4.17804 2.46303 0
M  V30 4279 H 403.605 3.25233 3.26718 0
M  V30 4280 H 407.149 6.57508 2.33086 0
M  V30 4281 H 403.046 5.64087 3.13809 0
M  V30 4282 H 403.814 7.68967 2.80413 0
M  V30 4283 N 406.477 -1.02803 1.19454 0
M  V30 4284 C 407.44 -2.09264 0.934955 0
M  V30 4285 C 408.44 -1.60576 -0.0849015 0
M  V30 4286 O 409.63 -1.73554 0.149933 0
M  V30 4287 C 406.762 -3.38482 0.40531 0
M  V30 4288 H 407.955 -2.33726 1.87916 0
M  V30 4289 H 405.508 -1.19426 1.00832 0
M  V30 4290 H 406.243 -3.19689 -0.544899 0
M  V30 4291 H 406.028 -3.75142 1.14065 0
M  V30 4292 H 407.518 -4.16894 0.242806 0
M  V30 4293 N 407.956 -0.998596 -1.21925 0
M  V30 4294 C 408.903 -0.553621 -2.24062 0
M  V30 4295 C 409.873 0.416999 -1.6078 0
M  V30 4296 O 411.058 0.320482 -1.88089 0
M  V30 4297 C 408.198 0.119959 -3.44891 0
M  V30 4298 C 407.311 -0.893077 -4.22668 0
M  V30 4299 C 406.446 -0.192424 -5.30851 0
M  V30 4300 C 405.485 -1.19344 -6.00353 0
M  V30 4301 N 404.622 -0.520707 -7.00166 0
M  V30 4302 H 409.462 -1.4293 -2.61486 0
M  V30 4303 H 406.999 -0.715838 -1.28507 0
M  V30 4304 H 408.957 0.527459 -4.13852 0
M  V30 4305 H 407.587 0.959389 -3.08214 0
M  V30 4306 H 406.639 -1.41886 -3.52948 0
M  V30 4307 H 407.951 -1.65512 -4.70539 0
M  V30 4308 H 407.105 0.271515 -6.06092 0
M  V30 4309 H 405.844 0.602075 -4.83969 0
M  V30 4310 H 404.849 -1.66795 -5.23889 0
M  V30 4311 H 406.074 -1.98891 -6.49322 0
M  V30 4312 H 404.02 0.254252 -6.55507 0
M  V30 4313 H 403.937 -1.2211 -7.46073 0
M  V30 4314 H 405.205 -0.0797596 -7.79459 0
M  V30 4315 N 409.434 1.37368 -0.772513 0
M  V30 4316 C 410.366 2.28899 -0.117502 0
M  V30 4317 C 411.379 1.4867 0.663405 0
M  V30 4318 O 412.568 1.71314 0.501372 0
M  V30 4319 C 409.668 3.2788 0.857192 0
M  V30 4320 C 408.841 4.37207 0.129938 0
M  V30 4321 C 407.9 5.16257 1.01811 0
M  V30 4322 O 406.926 5.67159 0.481601 0
M  V30 4323 N 408.128 5.31058 2.3443 0
M  V30 4324 H 410.893 2.85752 -0.903662 0
M  V30 4325 H 408.454 1.49353 -0.62493 0
M  V30 4326 H 410.446 3.77647 1.45482 0
M  V30 4327 H 409.016 2.7179 1.54432 0
M  V30 4328 H 408.236 3.88827 -0.648605 0
M  V30 4329 H 409.524 5.07434 -0.372559 0
M  V30 4330 H 408.922 4.91287 2.80452 0
M  V30 4331 H 407.479 5.84131 2.89197 0
M  V30 4332 N 410.912 0.523116 1.48665 0
M  V30 4333 C 412.14 -0.0096312 2.06898 0
M  V30 4334 C 412.555 -1.28784 1.38059 0
M  V30 4335 O 411.912 -1.76453 0.465893 0
M  V30 4336 C 411.963 -0.244386 3.60673 0
M  V30 4337 O 411.684 0.983172 4.26925 0
M  V30 4338 C 413.185 -0.818289 4.35682 0
M  V30 4339 H 410.405 0.0304161 0.67031 0
M  V30 4340 H 412.949 0.726799 1.91149 0
M  V30 4341 H 411.104 -0.930847 3.76051 0
M  V30 4342 H 411.518 0.759653 5.1897 0
M  V30 4343 H 412.992 -0.93201 5.44075 0
M  V30 4344 H 413.469 -1.82153 3.99646 0
M  V30 4345 H 414.075 -0.168609 4.24966 0
M  V30 4346 N 412.39 -1.55475 0.257931 0
M  V30 4347 C 413.3 -2.2549 -0.647425 0
M  V30 4348 C 414.316 -1.2748 -1.18427 0
M  V30 4349 O 415.492 -1.6038 -1.2182 0
M  V30 4350 C 412.557 -2.94916 -1.82278 0
M  V30 4351 C 411.618 -4.08363 -1.32432 0
M  V30 4352 C 410.851 -4.74469 -2.44366 0
M  V30 4353 O 411.074 -4.39701 -3.63344 0
M  V30 4354 O 410.008 -5.62763 -2.13497 0
M  V30 4355 H 413.834 -3.03593 -0.0807707 0
M  V30 4356 H 411.419 -1.49377 0.0259962 0
M  V30 4357 H 413.301 -3.38606 -2.50846 0
M  V30 4358 H 411.976 -2.19744 -2.37685 0
M  V30 4359 H 410.883 -3.69166 -0.605605 0
M  V30 4360 H 412.216 -4.85385 -0.816211 0
M  V30 4361 N 413.868 0.0150385 -1.57593 0
M  V30 4362 C 415.114 0.69849 -1.91031 0
M  V30 4363 C 415.469 1.72208 -0.85804 0
M  V30 4364 O 414.762 1.91147 0.131614 0
M  V30 4365 C 414.956 1.39686 -3.28972 0
M  V30 4366 C 414.785 0.442428 -4.47518 0
M  V30 4367 C 413.555 0.0583223 -5.05266 0
M  V30 4368 C 415.753 -0.285072 -5.13509 0
M  V30 4369 N 413.735 -0.895893 -6.07328 0
M  V30 4370 C 415.106 -1.09447 -6.10263 0
M  V30 4371 C 417.161 -0.350518 -4.96665 0
M  V30 4372 C 415.864 -1.96333 -6.91987 0
M  V30 4373 C 417.89 -1.20655 -5.78962 0
M  V30 4374 C 417.252 -2.00383 -6.75297 0
M  V30 4375 H 413.351 0.22926 -0.747639 0
M  V30 4376 H 415.935 -0.0417748 -1.94655 0
M  V30 4377 H 414.106 2.1075 -3.2625 0
M  V30 4378 H 415.838 2.03381 -3.49883 0
M  V30 4379 H 412.593 0.423506 -4.71703 0
M  V30 4380 H 413.017 -1.36792 -6.63036 0
M  V30 4381 H 417.659 0.251596 -4.22051 0
M  V30 4382 H 415.377 -2.57618 -7.65936 0
M  V30 4383 H 418.963 -1.2609 -5.67972 0
M  V30 4384 H 417.843 -2.65552 -7.3787 0
M  V30 4385 N 415.346 1.54954 0.287554 0
M  V30 4386 C 416.757 1.65732 0.859634 0
M  V30 4387 C 417.108 0.574767 1.87592 0
M  V30 4388 O 416.233 -0.286299 2.14498 0
M  V30 4389 C 416.828 3.00438 1.56597 0
M  V30 4390 C 415.387 3.13292 2.08627 0
M  V30 4391 C 414.534 2.61473 0.923416 0
M  V30 4392 H 417.485 1.5857 0.0642338 0
M  V30 4393 H 417.506 2.92613 2.43224 0
M  V30 4394 H 417.018 3.79207 0.826053 0
M  V30 4395 H 415.119 2.39268 2.85625 0
M  V30 4396 H 415.232 4.19647 2.31157 0
M  V30 4397 H 413.596 2.18264 1.31275 0
M  V30 4398 H 414.379 3.42733 0.197241 0
M  V30 4399 N 416.824 -0.551391 1.4764 0
M  V30 4400 C 417.754 -1.66757 1.63445 0
M  V30 4401 C 418.735 -1.63077 0.483742 0
M  V30 4402 O 419.92 -1.80607 0.71377 0
M  V30 4403 C 417.05 -3.05387 1.65396 0
M  V30 4404 C 416.004 -3.23918 2.79752 0
M  V30 4405 C 415.33 -4.63393 2.66779 0
M  V30 4406 C 416.63 -3.08735 4.21284 0
M  V30 4407 H 418.324 -1.53786 2.56886 0
M  V30 4408 H 415.87 -0.738415 1.23626 0
M  V30 4409 H 417.823 -3.83325 1.75043 0
M  V30 4410 H 416.547 -3.19332 0.685195 0
M  V30 4411 H 415.206 -2.48391 2.69625 0
M  V30 4412 H 414.854 -4.74144 1.67918 0
M  V30 4413 H 414.554 -4.7674 3.43501 0
M  V30 4414 H 416.078 -5.43458 2.78364 0
M  V30 4415 H 417.492 -3.76484 4.32357 0
M  V30 4416 H 415.889 -3.33588 4.98838 0
M  V30 4417 H 416.959 -2.0541 4.39243 0
M  V30 4418 N 418.302 -1.35869 -0.798587 0
M  V30 4419 C 419.53 -1.32722 -1.58722 0
M  V30 4420 C 419.945 0.0935631 -1.88568 0
M  V30 4421 O 419.302 1.04784 -1.49421 0
M  V30 4422 C 419.353 -2.13974 -2.91371 0
M  V30 4423 O 419.074 -3.50514 -2.62815 0
M  V30 4424 C 420.575 -2.18504 -3.85708 0
M  V30 4425 H 417.795 -0.45562 -0.492596 0
M  V30 4426 H 420.339 -1.78837 -0.991843 0
M  V30 4427 H 418.494 -1.71438 -3.47402 0
M  V30 4428 H 418.908 -3.92806 -3.47568 0
M  V30 4429 H 420.382 -2.79732 -4.75872 0
M  V30 4430 H 420.859 -1.18597 -4.22885 0
M  V30 4431 H 421.465 -2.61236 -3.35612 0
M  V30 4432 N 419.78 1.02168 -1.19998 0
M  V30 4433 C 421.191 1.57135 -1.00825 0
M  V30 4434 C 421.542 1.91276 0.436818 0
M  V30 4435 O 420.667 1.71679 1.3174 0
M  V30 4436 C 421.262 2.85514 -1.82393 0
M  V30 4437 C 419.821 3.37027 -1.67601 0
M  V30 4438 C 418.968 2.10388 -1.80644 0
M  V30 4439 H 421.919 0.846106 -1.34264 0
M  V30 4440 H 421.94 3.56711 -1.32429 0
M  V30 4441 H 421.452 2.60634 -2.87561 0
M  V30 4442 H 419.553 3.66878 -0.650485 0
M  V30 4443 H 419.666 4.09572 -2.4857 0
M  V30 4444 H 418.03 2.22601 -1.23778 0
M  V30 4445 H 418.813 1.8794 -2.87286 0
M  V30 4446 N 421.258 1.00505 1.21394 0
M  V30 4447 C 422.19 0.52372 2.23136 0
M  V30 4448 C 423.203 -0.387714 1.58116 0
M  V30 4449 O 424.392 -0.187905 1.77508 0
M  V30 4450 C 421.492 -0.258885 3.3791 0
M  V30 4451 C 420.665 0.651634 4.32519 0
M  V30 4452 C 419.724 -0.0813705 5.26137 0
M  V30 4453 O 418.75 0.537295 5.66658 0
M  V30 4454 N 419.952 -1.35992 5.64346 0
M  V30 4455 H 422.717 1.39865 2.65062 0
M  V30 4456 H 420.278 0.881196 1.35818 0
M  V30 4457 H 422.27 -0.758208 3.97534 0
M  V30 4458 H 420.84 -1.035 2.94968 0
M  V30 4459 H 420.06 1.33145 3.71034 0
M  V30 4460 H 421.348 1.27129 4.92662 0
M  V30 4461 H 420.746 -1.88368 5.33417 0
M  V30 4462 H 419.303 -1.8042 6.26332 0
M  V30 4463 N 422.737 -1.36956 0.779787 0
M  V30 4464 C 423.685 -2.32053 0.15942 0
M  V30 4465 C 424.679 -1.55333 -0.675878 0
M  V30 4466 O 425.885 -1.70668 -0.57204 0
M  V30 4467 H 422.26 -0.751286 0.0327707 0
M  V30 4468 H 424.231 -2.8195 0.977078 0
M  V30 4469 C 422.98 -3.40602 -0.698977 0
M  V30 4470 H 422.303 -3.99746 -0.0655966 0
M  V30 4471 H 423.743 -4.09486 -1.09989 0
M  V30 4472 C 422.202 -2.81359 -1.85307 0
M  V30 4473 O 422.732 -2.72751 -2.94906 0
M  V30 4474 N 420.938 -2.38786 -1.65619 0
M  V30 4475 H 420.485 -2.45987 -0.764725 0
M  V30 4476 H 420.443 -1.99493 -2.43002 0
M  V30 4477 N 424.215 -0.530993 -1.48385 0
M  V30 4478 C 425.464 0.00474348 -2.01699 0
M  V30 4479 C 425.777 1.35227 -1.41325 0
M  V30 4480 O 426.983 1.97643 -1.86144 0
M  V30 4481 C 425.439 0.0588473 -3.59852 0
M  V30 4482 C 425.047 -1.28385 -4.2921 0
M  V30 4483 C 426.791 0.543358 -4.21008 0
M  V30 4484 C 424.698 -1.19028 -5.79298 0
M  V30 4485 H 423.628 0.00554317 -0.75398 0
M  V30 4486 H 426.279 -0.674924 -1.70637 0
M  V30 4487 H 424.661 0.803612 -3.8776 0
M  V30 4488 H 425.835 -2.04426 -4.12973 0
M  V30 4489 H 424.15 -1.70418 -3.7993 0
M  V30 4490 H 426.747 0.631351 -5.3096 0
M  V30 4491 H 427.09 1.54937 -3.86394 0
M  V30 4492 H 427.623 -0.145754 -3.97533 0
M  V30 4493 H 424.362 -2.17147 -6.18488 0
M  V30 4494 H 423.882 -0.471246 -5.97946 0
M  V30 4495 H 425.561 -0.881365 -6.40969 0
M  V30 4496 N 425.693 1.55336 -0.266172 0
M  V30 4497 C 427.109 1.59356 0.0882065 0
M  V30 4498 C 427.309 1.2834 1.55342 0
M  V30 4499 O 426.365 1.03996 2.30089 0
M  V30 4500 C 427.678 2.99409 -0.278364 0
M  V30 4501 C 429.226 3.12196 -0.224243 0
M  V30 4502 C 429.701 4.545 -0.565123 0
M  V30 4503 N 431.192 4.60313 -0.51634 0
M  V30 4504 C 431.927 5.68434 -0.753013 0
M  V30 4505 N 431.423 6.84738 -1.05383 0
M  V30 4506 N 433.216 5.57942 -0.682414 0
M  V30 4507 H 425.367 1.73764 -1.22147 0
M  V30 4508 H 427.63 0.809822 -0.492841 0
M  V30 4509 H 427.336 3.2691 -1.29703 0
M  V30 4510 H 427.21 3.75228 0.385186 0
M  V30 4511 H 429.597 2.84464 0.78512 0
M  V30 4512 H 429.678 2.38609 -0.921922 0
M  V30 4513 H 429.322 4.82956 -1.57213 0
M  V30 4514 H 429.252 5.26374 0.154248 0
M  V30 4515 H 431.743 3.7676 -0.29335 0
M  V30 4516 H 432.056 7.63088 -1.22133 0
M  V30 4517 H 430.401 6.86375 -1.09151 0
M  V30 4518 H 433.592 4.65958 -0.44731 0
M  V30 4519 H 433.765 6.4213 -0.870248 0
M  V30 4520 N 427.171 -0.0066808 1.57599 0
M  V30 4521 C 428.103 -1.02827 2.04839 0
M  V30 4522 C 429.116 -1.31108 0.965113 0
M  V30 4523 O 430.305 -1.28202 1.24203 0
M  V30 4524 C 427.405 -2.36464 2.42771 0
M  V30 4525 C 426.578 -2.27219 3.73751 0
M  V30 4526 C 425.637 -3.43489 3.98625 0
M  V30 4527 O 424.663 -3.21976 4.69382 0
M  V30 4528 N 425.865 -4.66116 3.46 0
M  V30 4529 H 428.63 -0.625455 2.93101 0
M  V30 4530 H 426.191 -0.194198 1.60731 0
M  V30 4531 H 428.183 -3.13008 2.56531 0
M  V30 4532 H 426.753 -2.68512 1.60063 0
M  V30 4533 H 425.973 -1.35629 3.70133 0
M  V30 4534 H 427.261 -2.18208 4.59633 0
M  V30 4535 H 426.659 -4.86493 2.88688 0
M  V30 4536 H 425.216 -5.39949 3.65101 0
M  V30 4537 N 428.649 -1.55105 -0.279332 0
M  V30 4538 C 429.897 -1.75066 -1.00977 0
M  V30 4539 C 430.218 -0.551276 -1.87045 0
M  V30 4540 O 429.488 0.433984 -1.91032 0
M  V30 4541 H 428.068 -0.645578 -0.375816 0
M  V30 4542 H 430.73 -1.92497 -0.305089 0
M  V30 4543 H 429.826 -2.64894 -1.65038 0
M  V30 4544 N 430.127 0.543554 -1.4793 0
M  V30 4545 C 431.057 1.65888 -1.64327 0
M  V30 4546 C 432.038 1.62818 -0.492383 0
M  V30 4547 O 433.223 1.80226 -0.723338 0
M  V30 4548 C 430.353 3.04506 -1.67013 0
M  V30 4549 C 429.307 3.2243 -2.81466 0
M  V30 4550 C 428.633 4.61972 -2.69233 0
M  V30 4551 C 429.933 3.06496 -4.22915 0
M  V30 4552 H 431.627 1.52421 -2.57698 0
M  V30 4553 H 429.173 0.731849 -1.24016 0
M  V30 4554 H 431.126 3.82391 -1.77074 0
M  V30 4555 H 429.85 3.18964 -0.70212 0
M  V30 4556 H 428.509 2.46957 -2.70938 0
M  V30 4557 H 428.157 4.73247 -1.7043 0
M  V30 4558 H 427.857 4.74911 -3.46025 0
M  V30 4559 H 429.381 5.41974 -2.81242 0
M  V30 4560 H 430.795 3.74186 -4.34348 0
M  V30 4561 H 429.192 3.30938 -5.006 0
M  V30 4562 H 430.262 2.03077 -4.40327 0
M  V30 4563 N 431.605 1.3629 0.791371 0
M  V30 4564 C 432.568 1.30309 1.88553 0
M  V30 4565 C 433.568 0.211204 1.59407 0
M  V30 4566 O 434.758 0.465865 1.67855 0
M  V30 4567 C 431.89 1.01956 3.25297 0
M  V30 4568 H 433.083 2.27614 1.95273 0
M  V30 4569 H 430.636 1.21035 0.988953 0
M  V30 4570 H 431.371 0.050998 3.2426 0
M  V30 4571 H 431.156 1.80968 3.4784 0
M  V30 4572 H 432.646 1.0037 4.05359 0
M  V30 4573 N 433.083 -1.0153 1.20538 0
M  V30 4574 C 434.046 -2.0826 0.957098 0
M  V30 4575 C 435.046 -1.60657 -0.0678655 0
M  V30 4576 O 436.236 -1.73385 0.168332 0
M  V30 4577 C 433.368 -3.38033 0.441188 0
M  V30 4578 H 434.561 -2.31719 1.90384 0
M  V30 4579 H 432.114 -1.1835 1.02093 0
M  V30 4580 H 432.849 -3.20249 -0.510961 0
M  V30 4581 H 432.634 -3.73911 1.18038 0
M  V30 4582 H 434.124 -4.16613 0.287009 0
M  V30 4583 N 434.561 -1.01147 -1.20859 0
M  V30 4584 C 435.786 -0.716698 -1.94623 0
M  V30 4585 C 436.211 0.715415 -1.73964 0
M  V30 4586 O 435.569 1.49157 -1.03062 0
M  V30 4587 C 435.617 -1.0513 -3.44935 0
M  V30 4588 O 434.721 -0.160131 -4.12089 0
M  V30 4589 H 434.062 -0.266404 -0.608214 0
M  V30 4590 H 436.592 -1.35346 -1.53436 0
M  V30 4591 H 436.602 -1.00086 -3.95533 0
M  V30 4592 H 435.277 -2.09475 -3.59295 0
M  V30 4593 H 433.854 -0.267657 -3.71938 0
M  V30 4594 N 436.039 1.36541 -0.78704 0
M  V30 4595 C 436.989 2.27459 -0.156957 0
M  V30 4596 C 437.973 1.46843 0.657709 0
M  V30 4597 O 439.165 1.69245 0.518173 0
M  V30 4598 C 436.294 3.35893 0.709278 0
M  V30 4599 C 435.38 4.23947 -0.114049 0
M  V30 4600 N 435.771 4.92145 -1.16736 0
M  V30 4601 C 434.069 4.4587 0.107497 0
M  V30 4602 C 434.77 5.57261 -1.66837 0
M  V30 4603 N 433.746 5.3473 -0.977992 0
M  V30 4604 H 437.548 2.77669 -0.963185 0
M  V30 4605 H 435.062 1.49839 -0.62627 0
M  V30 4606 H 437.059 3.99953 1.17656 0
M  V30 4607 H 435.719 2.87238 1.51408 0
M  V30 4608 H 436.73 4.94169 -1.54976 0
M  V30 4609 H 433.407 4.08056 0.882994 0
M  V30 4610 H 434.797 6.21728 -2.54762 0
M  V30 4611 N 437.518 0.538854 1.48102 0
M  V30 4612 C 438.764 0.0161732 2.03394 0
M  V30 4613 C 439.119 -1.31154 1.40771 0
M  V30 4614 O 438.412 -1.83613 0.547421 0
M  V30 4615 C 438.606 -0.153808 3.57069 0
M  V30 4616 C 438.435 1.15588 4.34591 0
M  V30 4617 C 437.205 1.71818 4.75191 0
M  V30 4618 C 439.403 2.06867 4.70861 0
M  V30 4619 N 437.385 2.96983 5.37284 0
M  V30 4620 C 438.756 3.16609 5.33066 0
M  V30 4621 C 440.811 2.07085 4.52791 0
M  V30 4622 C 439.514 4.26645 5.79109 0
M  V30 4623 C 441.54 3.16121 4.99821 0
M  V30 4624 C 440.902 4.24582 5.62058 0
M  V30 4625 H 437.001 0.0476346 0.780548 0
M  V30 4626 H 439.585 0.722094 1.80815 0
M  V30 4627 H 437.756 -0.828825 3.79454 0
M  V30 4628 H 439.488 -0.676896 3.98999 0
M  V30 4629 H 436.243 1.25845 4.56574 0
M  V30 4630 H 436.667 3.60732 5.72889 0
M  V30 4631 H 441.309 1.24522 4.04047 0
M  V30 4632 H 439.027 5.0998 6.26854 0
M  V30 4633 H 442.613 3.17355 4.87624 0
M  V30 4634 H 441.493 5.07562 5.97788 0
M  V30 4635 N 438.996 -1.55193 0.274407 0
M  V30 4636 C 440.407 -1.85358 -0.223488 0
M  V30 4637 C 440.758 -1.19642 -1.555 0
M  V30 4638 O 439.883 -0.484498 -2.10907 0
M  V30 4639 C 440.478 -3.36282 -0.412285 0
M  V30 4640 C 439.037 -3.66574 -0.854413 0
M  V30 4641 C 438.184 -2.7725 0.0527056 0
M  V30 4642 H 441.135 -1.50743 0.496215 0
M  V30 4643 H 441.156 -3.59349 -1.25094 0
M  V30 4644 H 440.668 -3.84083 0.556965 0
M  V30 4645 H 438.769 -3.24273 -1.83516 0
M  V30 4646 H 438.882 -4.74073 -0.692226 0
M  V30 4647 H 437.246 -2.50447 -0.463484 0
M  V30 4648 H 438.029 -3.27865 1.01783 0
M  V30 4649 N 440.474 -0.00167713 -1.576 0
M  V30 4650 C 441.437 0.974046 -2.07473 0
M  V30 4651 C 442.437 1.27143 -0.984444 0
M  V30 4652 O 443.627 1.21633 -1.24703 0
M  V30 4653 C 440.759 2.29849 -2.51759 0
M  V30 4654 H 441.952 0.54262 -2.9495 0
M  V30 4655 H 439.505 0.245829 -1.54355 0
M  V30 4656 H 440.24 2.77677 -1.67529 0
M  V30 4657 H 440.025 2.09584 -3.31386 0
M  V30 4658 H 441.515 2.9984 -2.90664 0
M  V30 4659 N 441.952 1.55251 0.271103 0
M  V30 4660 C 443.368 1.47133 0.618393 0
M  V30 4661 C 443.568 0.686994 1.89427 0
M  V30 4662 O 442.624 0.206609 2.51653 0
M  V30 4663 C 443.937 2.91361 0.743593 0
M  V30 4664 C 445.485 3.01587 0.837522 0
M  V30 4665 C 445.96 4.47073 0.994483 0
M  V30 4666 N 447.451 4.50909 1.05996 0
M  V30 4667 C 448.186 5.60698 1.20024 0
M  V30 4668 N 447.682 6.80348 1.30759 0
M  V30 4669 N 449.475 5.48444 1.23149 0
M  V30 4670 H 441.626 2.04698 -0.566784 0
M  V30 4671 H 443.889 0.928319 -0.192165 0
M  V30 4672 H 443.595 3.51483 -0.123493 0
M  V30 4673 H 443.469 3.40484 1.62328 0
M  V30 4674 H 445.856 2.4156 1.69507 0
M  V30 4675 H 445.937 2.55713 -0.0668086 0
M  V30 4676 H 445.581 5.07703 0.141582 0
M  V30 4677 H 445.511 4.90605 1.91349 0
M  V30 4678 H 448.002 3.6472 0.989316 0
M  V30 4679 H 448.315 7.59772 1.41303 0
M  V30 4680 H 446.66 6.83156 1.27761 0
M  V30 4681 H 449.851 4.53907 1.14394 0
M  V30 4682 H 450.024 6.34049 1.33738 0
M  V30 4683 N 443.43 -0.535701 1.48216 0
M  V30 4684 C 444.36 -1.65014 1.65204 0
M  V30 4685 C 445.341 -1.62554 0.501011 0
M  V30 4686 O 446.526 -1.7984 0.732886 0
M  V30 4687 C 443.656 -3.03616 1.68626 0
M  V30 4688 C 442.61 -3.20932 2.83172 0
M  V30 4689 C 441.936 -4.60537 2.71679 0
M  V30 4690 C 443.236 -3.04249 4.24535 0
M  V30 4691 H 444.93 -1.51053 2.58502 0
M  V30 4692 H 442.476 -0.725262 1.24402 0
M  V30 4693 H 444.429 -3.81446 1.79099 0
M  V30 4694 H 443.153 -3.18587 0.719026 0
M  V30 4695 H 441.812 -2.45517 2.72244 0
M  V30 4696 H 441.46 -4.72336 1.72937 0
M  V30 4697 H 441.16 -4.73069 3.48538 0
M  V30 4698 H 442.684 -5.40475 2.84112 0
M  V30 4699 H 444.098 -3.71877 4.36326 0
M  V30 4700 H 442.495 -3.28278 5.02348 0
M  V30 4701 H 443.565 -2.00739 4.41397 0
M  V30 4702 N 444.908 -1.36708 -0.784132 0
M  V30 4703 C 445.818 -1.3363 -1.92822 0
M  V30 4704 C 446.834 -0.237686 -1.72369 0
M  V30 4705 O 448.01 -0.470962 -1.95816 0
M  V30 4706 C 445.075 -1.13011 -3.27764 0
M  V30 4707 C 444.136 -2.32397 -3.60957 0
M  V30 4708 C 443.369 -2.12752 -4.89461 0
M  V30 4709 O 443.592 -1.10541 -5.59586 0
M  V30 4710 O 442.526 -3.00653 -5.21432 0
M  V30 4711 H 446.352 -2.29964 -1.98369 0
M  V30 4712 H 443.937 -1.1731 -0.925136 0
M  V30 4713 H 445.819 -1.03451 -4.08504 0
M  V30 4714 H 444.494 -0.19743 -3.23097 0
M  V30 4715 H 443.401 -2.47527 -2.80502 0
M  V30 4716 H 444.734 -3.2419 -3.70354 0
M  V30 4717 N 446.386 1.0089 -1.21074 0
M  V30 4718 C 447.333 2.09588 -0.966512 0
M  V30 4719 C 448.303 1.65761 0.106089 0
M  V30 4720 O 449.488 1.90758 -0.0402287 0
M  V30 4721 C 446.628 3.40958 -0.533058 0
M  V30 4722 C 445.741 3.9822 -1.67467 0
M  V30 4723 C 444.876 5.17682 -1.19076 0
M  V30 4724 C 443.915 5.67043 -2.30496 0
M  V30 4725 N 443.052 6.77759 -1.83267 0
M  V30 4726 H 447.892 2.29815 -1.89708 0
M  V30 4727 H 445.429 1.12689 -0.945489 0
M  V30 4728 H 447.387 4.1637 -0.263019 0
M  V30 4729 H 446.017 3.20781 0.360505 0
M  V30 4730 H 445.069 3.1983 -2.05944 0
M  V30 4731 H 446.381 4.3085 -2.51336 0
M  V30 4732 H 445.535 6.00326 -0.877151 0
M  V30 4733 H 444.274 4.86635 -0.322066 0
M  V30 4734 H 443.279 4.82999 -2.62664 0
M  V30 4735 H 444.504 6.00121 -3.17855 0
M  V30 4736 H 442.45 6.48527 -0.987356 0
M  V30 4737 H 442.367 7.09624 -2.60711 0
M  V30 4738 H 443.635 7.63949 -1.54928 0
M  V30 4739 N 447.864 1.01787 1.20321 0
M  V30 4740 C 449.113 0.703249 1.89043 0
M  V30 4741 C 449.426 -0.770445 1.79787 0
M  V30 4742 O 450.632 -1.19767 2.43656 0
M  V30 4743 C 449.088 1.20749 3.3904 0
M  V30 4744 C 448.696 2.70817 3.56878 0
M  V30 4745 C 450.44 0.968352 4.13308 0
M  V30 4746 C 448.347 3.14716 5.00708 0
M  V30 4747 H 447.277 0.259354 0.707991 0
M  V30 4748 H 449.928 1.23072 1.36108 0
M  V30 4749 H 448.31 0.607989 3.91305 0
M  V30 4750 H 449.484 3.36327 3.14993 0
M  V30 4751 H 447.799 2.92888 2.95983 0
M  V30 4752 H 450.396 1.27173 5.19356 0
M  V30 4753 H 450.739 -0.095149 4.16191 0
M  V30 4754 H 451.272 1.53129 3.67146 0
M  V30 4755 H 448.011 4.20347 5.02979 0
M  V30 4756 H 447.531 2.53927 5.43398 0
M  V30 4757 H 449.21 3.07426 5.69296 0
M  V30 4758 N 449.342 -1.36122 0.79427 0
M  V30 4759 C 450.567 -2.03891 0.379871 0
M  V30 4760 C 450.992 -1.59488 -0.997251 0
M  V30 4761 O 450.35 -0.765652 -1.64339 0
M  V30 4762 C 450.398 -3.57687 0.457442 0
M  V30 4763 O 449.502 -4.08931 -0.5338 0
M  V30 4764 H 448.843 -0.6443 0.160541 0
M  V30 4765 H 451.373 -1.73976 1.07673 0
M  V30 4766 H 451.383 -4.06721 0.322792 0
M  V30 4767 H 450.058 -3.89357 1.46199 0
M  V30 4768 H 448.635 -3.71154 -0.360409 0
M  V30 4769 N 450.82 -0.546701 -1.47814 0
M  V30 4770 C 452.097 0.0464413 -1.95545 0
M  V30 4771 C 452.477 1.4962 -1.48919 0
M  V30 4772 O 451.825 2.16752 -0.723232 0
M  V30 4773 C 452.035 -0.0881298 -3.48889 0
M  V30 4774 C 453.383 0.0626059 -4.24554 0
M  V30 4775 O 454.407 -0.0151555 -3.56197 0
M  V30 4776 O 453.266 0.228071 -5.46024 0
M  V30 4777 H 450.36 0.0700004 -0.824032 0
M  V30 4778 H 452.906 -0.612482 -1.58262 0
M  V30 4779 H 451.678 -1.09737 -3.75597 0
M  V30 4780 H 451.301 0.608886 -3.9291 0
M  V30 4781 N 452.299 1.55045 -0.282633 0
M  V30 4782 C 453.527 2.04168 0.33512 0
M  V30 4783 C 453.942 1.16071 1.48906 0
M  V30 4784 O 453.299 0.182391 1.81586 0
M  V30 4785 C 453.35 3.52332 0.808957 0
M  V30 4786 O 453.071 4.37078 -0.299038 0
M  V30 4787 C 454.572 4.17375 1.49375 0
M  V30 4788 H 451.792 0.666744 0.0754543 0
M  V30 4789 H 454.336 2.00205 -0.416918 0
M  V30 4790 H 452.491 3.56715 1.51106 0
M  V30 4791 H 452.905 5.24458 0.0665514 0
M  V30 4792 H 454.379 5.22627 1.77664 0
M  V30 4793 H 454.856 3.65999 2.42778 0
M  V30 4794 H 455.462 4.17016 0.835305 0
M  V30 4795 N 453.777 0.010035 1.57597 0
M  V30 4796 C 455.188 -0.531426 1.78977 0
M  V30 4797 C 455.539 -1.73375 0.918454 0
M  V30 4798 O 454.664 -2.16047 0.123635 0
M  V30 4799 C 455.259 -0.97086 3.24592 0
M  V30 4800 C 453.818 -1.45756 3.47033 0
M  V30 4801 C 452.965 -0.413384 2.74201 0
M  V30 4802 H 455.916 0.236166 1.56933 0
M  V30 4803 H 455.937 -1.83633 3.33255 0
M  V30 4804 H 455.449 -0.0955893 3.87982 0
M  V30 4805 H 453.55 -2.35339 2.88871 0
M  V30 4806 H 453.663 -1.4781 4.55729 0
M  V30 4807 H 452.027 -0.877266 2.39115 0
M  V30 4808 H 452.81 0.453092 3.40297 0
M  V30 4809 N 455.255 -1.55392 -0.262866 0
M  V30 4810 C 456.185 -1.91978 -1.32917 0
M  V30 4811 C 457.166 -0.7828 -1.51017 0
M  V30 4812 O 458.351 -1.04178 -1.63892 0
M  V30 4813 C 455.481 -2.20055 -2.68687 0
M  V30 4814 C 454.435 -3.35854 -2.65304 0
M  V30 4815 C 453.761 -3.49435 -4.04721 0
M  V30 4816 C 455.061 -4.71977 -2.23685 0
M  V30 4817 H 456.755 -2.81292 -1.02544 0
M  V30 4818 H 454.301 -1.3534 -0.491846 0
M  V30 4819 H 456.254 -2.44237 -3.43404 0
M  V30 4820 H 454.978 -1.27551 -3.00663 0
M  V30 4821 H 453.637 -3.11655 -1.93045 0
M  V30 4822 H 453.285 -2.54379 -4.33936 0
M  V30 4823 H 452.985 -4.27297 -4.0335 0
M  V30 4824 H 454.509 -3.7592 -4.81161 0
M  V30 4825 H 455.923 -4.95637 -2.88127 0
M  V30 4826 H 454.32 -5.52828 -2.33456 0
M  V30 4827 H 455.39 -4.70115 -1.18827 0
M  V30 4828 N 456.733 0.527833 -1.48498 0
M  V30 4829 C 457.982 1.28003 -1.55878 0
M  V30 4830 C 458.295 1.9414 -0.238577 0
M  V30 4831 O 459.501 2.7083 -0.190643 0
M  V30 4832 C 457.957 2.32272 -2.74914 0
M  V30 4833 C 457.565 1.72196 -4.13585 0
M  V30 4834 C 459.309 3.08488 -2.91608 0
M  V30 4835 C 457.216 2.74417 -5.23879 0
M  V30 4836 H 456.146 0.481413 -0.580308 0
M  V30 4837 H 458.797 0.557195 -1.74836 0
M  V30 4838 H 457.179 3.07601 -2.49395 0
M  V30 4839 H 458.353 1.03041 -4.49132 0
M  V30 4840 H 456.668 1.08464 -4.02025 0
M  V30 4841 H 459.265 3.84879 -3.71177 0
M  V30 4842 H 459.608 3.64481 -2.01145 0
M  V30 4843 H 460.141 2.40274 -3.17038 0
M  V30 4844 H 456.88 2.23242 -6.16314 0
M  V30 4845 H 456.4 3.41893 -4.92818 0
M  V30 4846 H 458.079 3.37362 -5.52083 0
M  V30 4847 N 458.211 1.37122 0.776871 0
M  V30 4848 C 459.457 1.32243 1.53752 0
M  V30 4849 C 459.79 -0.0944745 1.9397 0
M  V30 4850 O 459.065 -1.05068 1.6368 0
M  V30 4851 C 459.348 2.25681 2.80607 0
M  V30 4852 C 459.201 3.76127 2.46676 0
M  V30 4853 C 460.52 2.17657 3.82509 0
M  V30 4854 H 457.639 0.481704 0.557791 0
M  V30 4855 H 460.281 1.6778 0.891612 0
M  V30 4856 H 458.431 1.95505 3.35723 0
M  V30 4857 H 460.103 4.16877 1.97513 0
M  V30 4858 H 458.346 3.94946 1.79443 0
M  V30 4859 H 459.017 4.36933 3.37333 0
M  V30 4860 H 461.493 2.44245 3.36873 0
M  V30 4861 H 460.369 2.85185 4.69 0
M  V30 4862 H 460.63 1.16785 4.26396 0
M  V30 4863 N 459.689 -1.00246 1.21608 0
M  V30 4864 C 460.938 -1.73476 1.02902 0
M  V30 4865 C 461.251 -1.90643 -0.437561 0
M  V30 4866 O 462.457 -2.61105 -0.74407 0
M  V30 4867 C 460.913 -3.12079 1.79261 0
M  V30 4868 C 460.521 -3.02877 3.30106 0
M  V30 4869 C 462.265 -3.89421 1.68972 0
M  V30 4870 C 460.172 -4.36575 3.98944 0
M  V30 4871 H 459.102 -0.650408 0.381425 0
M  V30 4872 H 461.753 -1.11985 1.45367 0
M  V30 4873 H 460.135 -3.74196 1.2959 0
M  V30 4874 H 461.309 -2.49983 3.87098 0
M  V30 4875 H 459.624 -2.39022 3.40965 0
M  V30 4876 H 462.221 -4.88362 2.17731 0
M  V30 4877 H 462.564 -4.1122 0.648397 0
M  V30 4878 H 463.097 -3.33963 2.16133 0
M  V30 4879 H 459.836 -4.19978 5.03288 0
M  V30 4880 H 459.356 -4.8942 3.4674 0
M  V30 4881 H 461.035 -5.05364 4.04 0
M  V30 4882 N 461.167 -1.02423 -1.1978 0
M  V30 4883 C 462.444 -0.632802 -1.85081 0
M  V30 4884 C 462.824 0.888745 -1.9148 0
M  V30 4885 O 462.172 1.78357 -1.42832 0
M  V30 4886 C 462.382 -1.28947 -3.24305 0
M  V30 4887 C 463.73 -1.40976 -4.00513 0
M  V30 4888 O 464.754 -1.24628 -3.33686 0
M  V30 4889 O 463.613 -1.67467 -5.20209 0
M  V30 4890 H 460.707 -0.219348 -0.79738 0
M  V30 4891 H 463.253 -1.12209 -1.27307 0
M  V30 4892 H 462.025 -2.3288 -3.14456 0
M  V30 4893 H 461.648 -0.787748 -3.89718 0
M  V30 4894 N 462.645 1.35699 -0.801477 0
M  V30 4895 C 463.893 1.9852 -0.37871 0
M  V30 4896 C 464.214 1.63907 1.05638 0
M  V30 4897 O 463.484 0.919013 1.73006 0
M  V30 4898 H 462.064 0.734322 -0.137042 0
M  V30 4899 H 464.726 1.65697 -1.02619 0
M  V30 4900 H 463.822 3.08382 -0.480284 0
M  V30 4901 N 464.123 0.554532 1.47522 0
M  V30 4902 C 465.086 -0.184174 2.28459 0
M  V30 4903 C 466.086 -0.845195 1.36796 0
M  V30 4904 O 467.276 -0.701467 1.59452 0
M  V30 4905 C 464.408 -1.26903 3.16399 0
M  V30 4906 H 465.601 0.526751 2.95238 0
M  V30 4907 H 463.154 0.311375 1.53167 0
M  V30 4908 H 463.889 -2.01244 2.54306 0
M  V30 4909 H 463.674 -0.799883 3.83854 0
M  V30 4910 H 465.164 -1.78794 3.77389 0
M  V30 4911 N 465.601 -1.54893 0.290851 0
M  V30 4912 C 466.551 -2.19838 -0.604599 0
M  V30 4913 C 467.535 -1.16805 -1.10659 0
M  V30 4914 O 468.727 -1.42562 -1.04905 0
M  V30 4915 C 465.856 -2.93497 -1.78086 0
M  V30 4916 C 464.942 -4.03835 -1.29531 0
M  V30 4917 N 465.333 -5.03047 -0.527024 0
M  V30 4918 C 463.631 -4.17192 -1.57693 0
M  V30 4919 C 464.332 -5.81074 -0.269728 0
M  V30 4920 N 463.308 -5.36966 -0.846651 0
M  V30 4921 H 467.11 -2.93898 -0.00995032 0
M  V30 4922 H 464.624 -1.62121 0.0951353 0
M  V30 4923 H 466.621 -3.38484 -2.43381 0
M  V30 4924 H 465.281 -2.2095 -2.37931 0
M  V30 4925 H 466.292 -5.17611 -0.172872 0
M  V30 4926 H 462.969 -3.55845 -2.18359 0
M  V30 4927 H 464.359 -6.71005 0.346643 0
M  V30 4928 N 467.08 -0.0183926 -1.57589 0
M  V30 4929 C 468.028 0.985111 -2.10709 0
M  V30 4930 C 469.022 1.34397 -1.0312 0
M  V30 4931 O 470.228 1.32746 -1.21567 0
M  V30 4932 H 466.603 0.335418 -0.673052 0
M  V30 4933 H 468.574 0.511689 -2.9398 0
M  V30 4934 C 467.323 2.26202 -2.64061 0
M  V30 4935 H 466.646 1.9946 -3.4649 0
M  V30 4936 H 468.086 2.94652 -3.04887 0
M  V30 4937 C 466.545 2.98444 -1.5631 0
M  V30 4938 O 467.075 3.90142 -0.956674 0
M  V30 4939 N 465.281 2.6059 -1.28612 0
M  V30 4940 H 464.828 1.86101 -1.78112 0
M  V30 4941 H 464.786 3.09238 -0.567406 0
M  V30 4942 N 468.558 1.5553 0.254621 0
M  V30 4943 C 469.969 1.67518 0.824286 0
M  V30 4944 C 470.32 0.614429 1.86331 0
M  V30 4945 O 469.445 -0.240736 2.15057 0
M  V30 4946 C 470.04 3.03692 1.50189 0
M  V30 4947 C 468.599 3.17646 2.01935 0
M  V30 4948 C 467.746 2.63373 0.867746 0
M  V30 4949 H 470.697 1.58671 0.0305843 0
M  V30 4950 H 470.718 2.97706 2.36962 0
M  V30 4951 H 470.23 3.80874 0.745431 0
M  V30 4952 H 468.331 2.45273 2.80485 0
M  V30 4953 H 468.444 4.24455 2.22204 0
M  V30 4954 H 466.808 2.20999 1.26616 0
M  V30 4955 H 467.591 3.43074 0.124498 0
M  V30 4956 N 470.036 -0.519951 1.48776 0
M  V30 4957 C 471.313 -1.28123 1.47797 0
M  V30 4958 C 471.693 -2.10196 0.195157 0
M  V30 4959 O 471.041 -2.13167 -0.822925 0
M  V30 4960 C 471.251 -2.15413 2.74587 0
M  V30 4961 C 472.599 -2.75225 3.23321 0
M  V30 4962 O 473.623 -2.25694 2.75574 0
M  V30 4963 O 472.482 -3.65346 4.06429 0
M  V30 4964 H 469.576 -0.578793 0.590701 0
M  V30 4965 H 472.122 -0.535779 1.6102 0
M  V30 4966 H 470.894 -1.54617 3.59457 0
M  V30 4967 H 470.517 -2.97186 2.64132 0
M  V30 4968 N 471.514 -1.37532 -0.769588 0
M  V30 4969 C 472.762 -1.32597 -1.5252 0
M  V30 4970 C 473.083 0.0884294 -1.94799 0
M  V30 4971 O 472.353 1.03289 -1.66458 0
M  V30 4972 H 470.933 -0.487846 -0.565699 0
M  V30 4973 H 473.595 -1.72044 -0.915806 0
M  V30 4974 H 472.691 -1.96643 -2.42359 0
M  V30 4975 N 472.992 0.995999 -1.22138 0
M  V30 4976 C 474.241 1.72928 -1.03821 0
M  V30 4977 C 474.554 1.90872 0.427444 0
M  V30 4978 O 475.76 2.61496 0.730212 0
M  V30 4979 C 474.216 3.11124 -1.80913 0
M  V30 4980 C 473.824 3.01122 -3.31707 0
M  V30 4981 C 475.568 3.8852 -1.71035 0
M  V30 4982 C 473.475 4.34453 -4.01253 0
M  V30 4983 H 472.405 0.648376 -0.384869 0
M  V30 4984 H 475.056 1.11213 -1.45959 0
M  V30 4985 H 473.438 3.73503 -1.31573 0
M  V30 4986 H 474.612 2.47926 -3.88419 0
M  V30 4987 H 472.927 2.3721 -3.42228 0
M  V30 4988 H 475.524 4.872 -2.20318 0
M  V30 4989 H 475.867 4.1087 -0.670196 0
M  V30 4990 H 476.4 3.32812 -2.17902 0
M  V30 4991 H 473.139 4.17303 -5.05508 0
M  V30 4992 H 472.659 4.87574 -3.49331 0
M  V30 4993 H 474.338 5.03215 -4.06674 0
M  V30 4994 N 474.47 1.03057 1.19235 0
M  V30 4995 C 475.418 0.606391 2.24557 0
M  V30 4996 C 476.412 -0.361826 1.65491 0
M  V30 4997 O 477.618 -0.23022 1.78522 0
M  V30 4998 H 473.993 0.177838 0.730669 0
M  V30 4999 H 475.964 1.50529 2.5765 0
M  V30 5000 C 474.713 -0.0252127 3.47691 0
M  V30 5001 H 474.036 0.710838 3.9343 0
M  V30 5002 H 475.476 -0.284931 4.23042 0
M  V30 5003 C 473.935 -1.27229 3.11953 0
M  V30 5004 O 474.465 -2.36416 3.24762 0
M  V30 5005 N 472.671 -1.16169 2.6637 0
M  V30 5006 H 472.218 -0.273189 2.56147 0
M  V30 5007 H 472.176 -1.99703 2.42829 0
M  V30 5008 N 475.948 -1.35272 0.808662 0
M  V30 5009 C 477.196 -1.98316 0.389233 0
M  V30 5010 C 477.517 -1.64465 -1.04767 0
M  V30 5011 O 476.787 -0.928175 -1.72516 0
M  V30 5012 H 475.367 -0.733585 0.140935 0
M  V30 5013 H 478.029 -1.6515 1.03496 0
M  V30 5014 H 477.125 -3.08123 0.496631 0
M  V30 5015 N 477.426 -0.562348 -1.47226 0
M  V30 5016 C 478.356 0.170627 -2.32876 0
M  V30 5017 C 479.337 0.903748 -1.44106 0
M  V30 5018 O 480.522 0.883206 -1.72954 0
M  V30 5019 C 477.652 1.19786 -3.25989 0
M  V30 5020 C 476.606 0.580875 -4.2404 0
M  V30 5021 C 475.932 1.71311 -5.06514 0
M  V30 5022 C 477.232 -0.468714 -5.20193 0
M  V30 5023 H 478.926 -0.544441 -2.94408 0
M  V30 5024 H 476.472 -0.263271 -1.41573 0
M  V30 5025 H 478.425 1.71884 -3.84752 0
M  V30 5026 H 477.149 1.94294 -2.62521 0
M  V30 5027 H 475.808 0.0811538 -3.6651 0
M  V30 5028 H 475.456 2.44736 -4.39447 0
M  V30 5029 H 475.156 1.30604 -5.72902 0
M  V30 5030 H 476.68 2.23725 -5.68137 0
M  V30 5031 H 478.094 -0.0336028 -5.7329 0
M  V30 5032 H 476.491 -0.794957 -5.94811 0
M  V30 5033 H 477.561 -1.36269 -4.65359 0
M  V30 5034 N 478.904 1.54736 -0.299062 0
M  V30 5035 C 480.153 1.99279 0.311549 0
M  V30 5036 C 480.466 1.19107 1.55154 0
M  V30 5037 O 481.672 1.53908 2.23662 0
M  V30 5038 C 480.128 3.54768 0.605632 0
M  V30 5039 C 479.736 4.43746 -0.615914 0
M  V30 5040 C 481.48 4.07841 1.17754 0
M  V30 5041 C 479.387 5.90663 -0.29509 0
M  V30 5042 H 478.317 0.744359 0.120187 0
M  V30 5043 H 480.968 1.78919 -0.407464 0
M  V30 5044 H 479.35 3.71021 1.38419 0
M  V30 5045 H 480.524 4.39267 -1.39218 0
M  V30 5046 H 478.839 4.01434 -1.10633 0
M  V30 5047 H 481.436 5.15174 1.43179 0
M  V30 5048 H 481.779 3.58324 2.11918 0
M  V30 5049 H 482.312 3.95123 0.460739 0
M  V30 5050 H 479.051 6.44325 -1.20524 0
M  V30 5051 H 478.571 5.98155 0.44394 0
M  V30 5052 H 480.25 6.46916 0.104048 0
M  V30 5053 N 480.382 0.0267497 1.57577 0
M  V30 5054 C 481.61 -0.662661 1.96001 0
M  V30 5055 C 482.025 -1.65799 0.903117 0
M  V30 5056 O 481.382 -1.82135 -0.115317 0
M  V30 5057 C 481.433 -1.37112 3.34488 0
M  V30 5058 O 481.154 -0.415683 4.36123 0
M  V30 5059 C 482.655 -2.15257 3.8753 0
M  V30 5060 H 479.875 -0.18287 0.6456 0
M  V30 5061 H 482.419 0.0858116 2.0432 0
M  V30 5062 H 480.574 -2.07101 3.27395 0
M  V30 5063 H 480.988 -0.918496 5.16395 0
M  V30 5064 H 482.462 -2.60285 4.86781 0
M  V30 5065 H 482.939 -2.99063 3.21649 0
M  V30 5066 H 483.545 -1.50231 3.97883 0
M  V30 5067 N 481.861 -1.55662 -0.24637 0
M  V30 5068 C 482.824 -1.89558 -1.28842 0
M  V30 5069 C 483.824 -0.772082 -1.41052 0
M  V30 5070 O 485.014 -1.04007 -1.39743 0
M  V30 5071 C 482.146 -2.12449 -2.66605 0
M  V30 5072 H 483.339 -2.82735 -1.00004 0
M  V30 5073 H 480.892 -1.48562 -0.485684 0
M  V30 5074 H 481.627 -1.21742 -3.00582 0
M  V30 5075 H 481.412 -2.94273 -2.59125 0
M  V30 5076 H 482.902 -2.39854 -3.41847 0
M  V30 5077 N 483.339 0.512053 -1.4905 0
M  V30 5078 C 484.269 1.62365 -1.67809 0
M  V30 5079 C 485.25 1.61737 -0.526809 0
M  V30 5080 O 486.435 1.78651 -0.761404 0
M  V30 5081 C 483.565 3.00895 -1.73435 0
M  V30 5082 C 482.519 3.16387 -2.88242 0
M  V30 5083 C 481.845 4.56157 -2.78971 0
M  V30 5084 C 483.145 2.97457 -4.29321 0
M  V30 5085 H 484.839 1.46921 -2.60873 0
M  V30 5086 H 482.385 0.705379 -1.2554 0
M  V30 5087 H 484.338 3.78549 -1.85145 0
M  V30 5088 H 483.062 3.17403 -0.769619 0
M  V30 5089 H 481.721 2.41155 -2.76116 0
M  V30 5090 H 481.369 4.69525 -1.8043 0
M  V30 5091 H 481.069 4.67465 -3.5602 0
M  V30 5092 H 482.593 5.35886 -2.92675 0
M  V30 5093 H 484.007 3.64888 -4.42187 0
M  V30 5094 H 482.404 3.20245 -5.07507 0
M  V30 5095 H 483.474 1.93692 -4.44535 0
M  V30 5096 N 484.817 1.37938 0.762283 0
M  V30 5097 C 485.764 1.34467 1.87583 0
M  V30 5098 C 486.734 0.208633 1.64785 0
M  V30 5099 O 487.919 0.399494 1.86571 0
M  V30 5100 C 485.059 1.16692 3.24772 0
M  V30 5101 C 484.172 2.39608 3.59461 0
M  V30 5102 C 483.307 2.14631 4.85908 0
M  V30 5103 C 482.346 3.33364 5.13357 0
M  V30 5104 N 481.483 3.07877 6.30996 0
M  V30 5105 H 486.323 2.29669 1.89885 0
M  V30 5106 H 483.86 1.14116 0.928219 0
M  V30 5107 H 485.818 1.04405 4.03925 0
M  V30 5108 H 484.448 0.251333 3.2182 0
M  V30 5109 H 483.5 2.626 2.75219 0
M  V30 5110 H 484.812 3.28128 3.75678 0
M  V30 5111 H 483.966 1.99429 5.72986 0
M  V30 5112 H 482.705 1.23463 4.71814 0
M  V30 5113 H 481.71 3.49094 4.24751 0
M  V30 5114 H 482.935 4.25395 5.29354 0
M  V30 5115 H 480.881 2.19348 6.18241 0
M  V30 5116 H 480.798 3.89944 6.47673 0
M  V30 5117 H 482.066 2.96313 7.20985 0
M  V30 5118 N 486.295 -0.989507 1.22664 0
M  V30 5119 C 487.227 -2.0824 0.957542 0
M  V30 5120 C 488.24 -1.6267 -0.0651098 0
M  V30 5121 O 489.429 -1.77695 0.169312 0
M  V30 5122 C 486.529 -3.36298 0.419145 0
M  V30 5123 C 485.702 -4.10882 1.49982 0
M  V30 5124 C 484.761 -5.17221 0.967904 0
M  V30 5125 O 483.787 -5.44613 1.65487 0
M  V30 5126 N 484.989 -5.80124 -0.20896 0
M  V30 5127 H 487.754 -2.31904 1.89843 0
M  V30 5128 H 485.315 -1.15552 1.13399 0
M  V30 5129 H 487.307 -4.04671 0.0485451 0
M  V30 5130 H 485.877 -3.09671 -0.426937 0
M  V30 5131 H 485.097 -3.37092 2.04359 0
M  V30 5132 H 486.385 -4.57482 2.22682 0
M  V30 5133 H 485.783 -5.60244 -0.783818 0
M  V30 5134 H 484.34 -6.49715 -0.520913 0
M  V30 5135 N 487.773 -1.03688 -1.18687 0
M  V30 5136 C 488.703 -0.645407 -2.24403 0
M  V30 5137 C 489.684 0.349511 -1.66471 0
M  V30 5138 O 490.869 0.230453 -1.92828 0
M  V30 5139 C 487.999 -0.00365337 -3.473 0
M  V30 5140 C 486.953 -0.921705 -4.17958 0
M  V30 5141 C 486.279 -0.144629 -5.34504 0
M  V30 5142 C 487.579 -2.23909 -4.71871 0
M  V30 5143 H 489.273 -1.52917 -2.57404 0
M  V30 5144 H 486.819 -0.736711 -1.23728 0
M  V30 5145 H 488.772 0.281908 -4.20456 0
M  V30 5146 H 487.496 0.914963 -3.13522 0
M  V30 5147 H 486.155 -1.19159 -3.46694 0
M  V30 5148 H 485.803 0.776274 -4.96974 0
M  V30 5149 H 485.503 -0.756206 -5.82714 0
M  V30 5150 H 487.027 0.134004 -6.10453 0
M  V30 5151 H 488.441 -2.0145 -5.36741 0
M  V30 5152 H 486.838 -2.8033 -5.30599 0
M  V30 5153 H 487.908 -2.88822 -3.895 0
M  V30 5154 N 489.251 1.34841 -0.815825 0
M  V30 5155 C 490.498 1.98499 -0.400535 0
M  V30 5156 C 490.826 1.64699 1.03463 0
M  V30 5157 O 490.081 0.907006 1.73412 0
M  V30 5158 C 490.38 3.53273 -0.541541 0
M  V30 5159 C 490.046 4.06966 -1.94138 0
M  V30 5160 C 488.708 4.21341 -2.32433 0
M  V30 5161 C 491.06 4.35933 -2.85677 0
M  V30 5162 C 488.388 4.62007 -3.61617 0
M  V30 5163 C 490.74 4.78042 -4.14317 0
M  V30 5164 C 489.404 4.90622 -4.52599 0
M  V30 5165 H 488.674 0.72636 -0.146566 0
M  V30 5166 H 491.321 1.60902 -1.0384 0
M  V30 5167 H 489.626 3.91387 0.179741 0
M  V30 5168 H 491.323 4.00497 -0.20085 0
M  V30 5169 H 487.913 3.96235 -1.63388 0
M  V30 5170 H 492.097 4.24372 -2.57337 0
M  V30 5171 H 487.353 4.69937 -3.91113 0
M  V30 5172 H 491.527 4.99415 -4.85342 0
M  V30 5173 H 489.154 5.2189 -5.52752 0
M  V30 5174 N 490.729 0.570148 1.46925 0
M  V30 5175 C 491.954 0.0542592 2.07329 0
M  V30 5176 C 492.379 -1.23582 1.41806 0
M  V30 5177 O 491.737 -1.74341 0.497479 0
M  V30 5178 C 491.785 -0.111175 3.60429 0
M  V30 5179 O 490.889 -1.17071 3.95434 0
M  V30 5180 H 490.23 0.0571425 0.661537 0
M  V30 5181 H 492.76 0.789516 1.88753 0
M  V30 5182 H 492.77 -0.321315 4.06733 0
M  V30 5183 H 491.445 0.831012 4.07513 0
M  V30 5184 H 490.022 -0.940029 3.60857 0
M  V30 5185 N 492.207 -1.54576 0.307264 0
M  V30 5186 C 493.139 -2.21212 -0.599807 0
M  V30 5187 C 494.152 -1.20685 -1.09266 0
M  V30 5188 O 495.341 -1.47244 -1.00903 0
M  V30 5189 C 492.441 -2.84994 -1.83389 0
M  V30 5190 C 491.614 -4.11511 -1.48248 0
M  V30 5191 C 490.673 -4.59038 -2.57237 0
M  V30 5192 O 489.699 -5.24095 -2.22065 0
M  V30 5193 N 490.901 -4.31884 -3.87887 0
M  V30 5194 H 493.666 -2.99686 -0.0293075 0
M  V30 5195 H 491.227 -1.61379 0.129738 0
M  V30 5196 H 493.219 -3.1372 -2.5566 0
M  V30 5197 H 491.789 -2.10324 -2.31263 0
M  V30 5198 H 491.009 -3.89728 -0.592122 0
M  V30 5199 H 492.297 -4.93879 -1.22316 0
M  V30 5200 H 491.695 -3.79778 -4.19268 0
M  V30 5201 H 490.252 -4.65304 -4.56438 0
M  V30 5202 N 493.685 -0.035106 -1.57561 0
M  V30 5203 C 495.096 0.502885 -1.798 0
M  V30 5204 C 495.447 1.71892 -0.945921 0
M  V30 5205 O 494.572 2.15822 -0.157991 0
M  V30 5206 C 495.167 0.919097 -3.26095 0
M  V30 5207 C 493.726 1.40216 -3.49308 0
M  V30 5208 C 492.873 0.369709 -2.74824 0
M  V30 5209 H 495.824 -0.261102 -1.56537 0
M  V30 5210 H 495.845 1.78308 -3.36135 0
M  V30 5211 H 495.357 0.0338526 -3.88085 0
M  V30 5212 H 493.458 2.30714 -2.92578 0
M  V30 5213 H 493.571 1.40541 -4.58023 0
M  V30 5214 H 491.935 0.839113 -2.40481 0
M  V30 5215 H 492.718 -0.507173 -3.39533 0
M  V30 5216 N 495.163 1.55791 0.238111 0
M  V30 5217 C 496.412 1.77234 0.962868 0
M  V30 5218 C 496.725 0.600661 1.86149 0
M  V30 5219 O 497.931 0.698315 2.62366 0
M  V30 5220 C 496.387 3.13808 1.76218 0
M  V30 5221 C 495.995 4.3865 0.910518 0
M  V30 5222 C 497.739 3.44585 2.47914 0
M  V30 5223 C 495.646 5.66252 1.70623 0
M  V30 5224 H 494.576 0.660731 0.36325 0
M  V30 5225 H 497.227 1.8221 0.217242 0
M  V30 5226 H 495.609 3.02963 2.55009 0
M  V30 5227 H 496.783 4.60507 0.164316 0
M  V30 5228 H 495.098 4.15271 0.30647 0
M  V30 5229 H 497.695 4.3714 3.07917 0
M  V30 5230 H 498.038 2.66314 3.19973 0
M  V30 5231 H 498.571 3.56685 1.76127 0
M  V30 5232 H 495.31 6.47369 1.02923 0
M  V30 5233 H 494.83 5.48483 2.42748 0
M  V30 5234 H 496.509 6.05829 2.27114 0
M  V30 5235 N 496.642 -0.504142 1.49319 0
M  V30 5236 C 497.87 -1.28256 1.62351 0
M  V30 5237 C 498.285 -1.86502 0.293682 0
M  V30 5238 O 497.642 -1.67678 -0.720449 0
M  V30 5239 C 497.693 -2.41507 2.68992 0
M  V30 5240 O 497.414 -1.85656 3.96817 0
M  V30 5241 C 498.915 -3.32929 2.927 0
M  V30 5242 H 496.135 -0.389115 0.546654 0
M  V30 5243 H 498.679 -0.605531 1.95329 0
M  V30 5244 H 496.834 -3.05046 2.38801 0
M  V30 5245 H 497.248 -2.59981 4.55533 0
M  V30 5246 H 498.722 -4.0868 3.71058 0
M  V30 5247 H 499.199 -3.89733 2.02496 0
M  V30 5248 H 499.805 -2.75158 3.24296 0
M  V30 5249 N 498.12 -1.38341 -0.754957 0
M  V30 5250 C 499.366 -1.34672 -1.51628 0
M  V30 5251 C 499.699 0.0636036 -1.94096 0
M  V30 5252 O 498.974 1.0245 -1.6533 0
M  V30 5253 C 499.257 -2.30116 -2.76981 0
M  V30 5254 C 499.11 -3.80003 -2.4066 0
M  V30 5255 C 500.429 -2.23715 -3.78998 0
M  V30 5256 H 497.548 -0.490517 -0.550056 0
M  V30 5257 H 500.19 -1.69178 -0.864807 0
M  V30 5258 H 498.34 -2.00821 -3.3257 0
M  V30 5259 H 500.012 -4.19966 -1.90856 0
M  V30 5260 H 498.255 -3.97751 -1.73137 0
M  V30 5261 H 498.926 -4.42244 -3.30339 0
M  V30 5262 H 501.402 -2.49574 -3.32945 0
M  V30 5263 H 500.278 -2.9261 -4.64403 0
M  V30 5264 H 500.539 -1.23554 -4.24484 0
M  V30 5265 N 499.598 0.982988 -1.23187 0
M  V30 5266 C 500.847 1.71817 -1.05649 0
M  V30 5267 C 501.16 1.91315 0.407176 0
M  V30 5268 O 502.366 2.62256 0.702436 0
M  V30 5269 C 500.822 3.09188 -1.84203 0
M  V30 5270 C 500.43 2.97586 -3.34882 0
M  V30 5271 C 502.174 3.86684 -1.75146 0
M  V30 5272 C 500.081 4.30173 -4.05839 0
M  V30 5273 H 499.011 0.644258 -0.391724 0
M  V30 5274 H 501.662 1.09659 -1.4713 0
M  V30 5275 H 500.044 3.72087 -1.35527 0
M  V30 5276 H 501.218 2.43793 -3.91026 0
M  V30 5277 H 499.533 2.33567 -3.44725 0
M  V30 5278 H 502.13 4.84836 -2.25473 0
M  V30 5279 H 502.473 4.10136 -0.713737 0
M  V30 5280 H 503.006 3.30482 -2.21419 0
M  V30 5281 H 499.745 4.11918 -5.09906 0
M  V30 5282 H 499.265 4.83841 -3.54482 0
M  V30 5283 H 500.944 4.98873 -4.11989 0
M  V30 5284 N 501.076 1.04316 1.18135 0
M  V30 5285 C 502.039 0.640794 2.2006 0
M  V30 5286 C 503.039 -0.303124 1.57917 0
M  V30 5287 O 504.229 -0.0881855 1.73977 0
M  V30 5288 C 501.361 -0.060148 3.40847 0
M  V30 5289 H 502.554 1.54281 2.57172 0
M  V30 5290 H 500.107 0.836004 1.32063 0
M  V30 5291 H 500.842 -0.975845 3.0927 0
M  V30 5292 H 500.627 0.618319 3.87194 0
M  V30 5293 H 502.117 -0.328082 4.16309 0
M  V30 5294 N 502.554 -1.34406 0.822964 0
M  V30 5295 C 503.802 -1.97892 0.410245 0
M  V30 5296 C 504.123 -1.65567 -1.03017 0
M  V30 5297 O 503.393 -0.94642 -1.71522 0
M  V30 5298 H 501.973 -0.732049 0.148707 0
M  V30 5299 H 504.635 -1.64043 1.05242 0
M  V30 5300 H 503.731 -3.07579 0.529284 0
M  V30 5301 N 504.032 -0.577932 -1.46621 0
M  V30 5302 C 505.281 -0.0594281 -2.01612 0
M  V30 5303 C 505.594 1.30663 -1.45556 0
M  V30 5304 O 506.8 1.91621 -1.92337 0
M  V30 5305 C 505.256 -0.0556666 -3.59857 0
M  V30 5306 C 504.864 -1.41975 -4.24908 0
M  V30 5307 C 506.608 0.409143 -4.22524 0
M  V30 5308 C 504.515 -1.37397 -5.75218 0
M  V30 5309 H 503.445 -0.0184469 -0.753774 0
M  V30 5310 H 506.096 -0.728869 -1.68404 0
M  V30 5311 H 504.478 0.679843 -3.90121 0
M  V30 5312 H 505.652 -2.17461 -4.0626 0
M  V30 5313 H 503.967 -1.82419 -3.74316 0
M  V30 5314 H 506.564 0.46211 -5.32699 0
M  V30 5315 H 506.907 1.42565 -3.91128 0
M  V30 5316 H 507.44 -0.272152 -3.96868 0
M  V30 5317 H 504.179 -2.36714 -6.11267 0
M  V30 5318 H 503.699 -0.661239 -5.96144 0
M  V30 5319 H 505.378 -1.08484 -6.3784 0
M  V30 5320 N 505.51 1.54411 -0.315457 0
M  V30 5321 C 506.44 2.27002 0.547039 0
M  V30 5322 C 507.421 1.27492 1.12605 0
M  V30 5323 O 508.606 1.5629 1.15269 0
M  V30 5324 C 505.736 3.02171 1.71201 0
M  V30 5325 C 504.69 4.0895 1.26268 0
M  V30 5326 C 504.016 4.71915 2.51396 0
M  V30 5327 C 505.316 5.20891 0.383419 0
M  V30 5328 H 507.01 2.99343 -0.0584517 0
M  V30 5329 H 504.556 1.4397 -0.0295527 0
M  V30 5330 H 506.509 3.51681 2.32161 0
M  V30 5331 H 505.233 2.27433 2.34397 0
M  V30 5332 H 503.892 3.60312 0.676062 0
M  V30 5333 H 503.54 3.93801 3.12937 0
M  V30 5334 H 503.24 5.44039 2.22026 0
M  V30 5335 H 504.764 5.24195 3.13133 0
M  V30 5336 H 506.178 5.66206 0.899082 0
M  V30 5337 H 504.575 5.99821 0.182857 0
M  V30 5338 H 505.645 4.81324 -0.587821 0
M  V30 5339 N 506.988 0.0434614 1.5754 0
M  V30 5340 C 507.951 -0.918696 2.09982 0
M  V30 5341 C 508.951 -1.24488 1.01781 0
M  V30 5342 O 510.141 -1.18284 1.27885 0
M  V30 5343 C 507.273 -2.23093 2.57764 0
M  V30 5344 H 508.466 -0.464229 2.96285 0
M  V30 5345 H 506.019 -0.204818 1.54952 0
M  V30 5346 H 506.754 -2.73137 1.74832 0
M  V30 5347 H 506.539 -2.00724 3.36827 0
M  V30 5348 H 508.029 -2.92028 2.98512 0
M  V30 5349 N 508.466 -1.55915 -0.229846 0
M  V30 5350 C 509.743 -1.6932 -0.979295 0
M  V30 5351 C 510.123 -0.588321 -2.02736 0
M  V30 5352 O 509.471 0.40586 -2.24867 0
M  V30 5353 C 509.681 -3.10305 -1.59724 0
M  V30 5354 C 511.029 -3.6945 -2.09264 0
M  V30 5355 O 512.053 -3.13214 -1.69633 0
M  V30 5356 O 510.912 -4.68072 -2.82082 0
M  V30 5357 H 508.006 -0.689314 -0.456919 0
M  V30 5358 H 510.552 -1.68238 -0.222283 0
M  V30 5359 H 509.324 -3.82177 -0.840039 0
M  V30 5360 H 508.947 -3.1547 -2.42001 0
M  V30 5361 N 509.944 0.496216 -1.49584 0
M  V30 5362 C 510.891 1.59722 -1.66606 0
M  V30 5363 C 511.861 1.58158 -0.507477 0
M  V30 5364 O 513.046 1.76072 -0.735076 0
M  V30 5365 C 510.186 2.97844 -1.74308 0
M  V30 5366 C 509.299 3.09388 -3.01502 0
M  V30 5367 C 508.434 4.38271 -3.00153 0
M  V30 5368 C 507.473 4.43466 -4.21906 0
M  V30 5369 N 506.61 5.63784 -4.1844 0
M  V30 5370 H 511.45 1.44515 -2.60613 0
M  V30 5371 H 508.987 0.703048 -1.29212 0
M  V30 5372 H 510.945 3.77907 -1.76754 0
M  V30 5373 H 509.575 3.11743 -0.837619 0
M  V30 5374 H 508.627 2.22357 -3.08645 0
M  V30 5375 H 509.939 3.09085 -3.91494 0
M  V30 5376 H 509.093 5.2666 -3.01188 0
M  V30 5377 H 507.832 4.41146 -2.07947 0
M  V30 5378 H 506.837 3.53478 -4.21109 0
M  V30 5379 H 508.062 4.42303 -5.1531 0
M  V30 5380 H 506.008 5.67491 -3.29074 0
M  V30 5381 H 505.925 5.65118 -5.02173 0
M  V30 5382 H 507.193 6.54367 -4.23585 0
M  V30 5383 N 511.423 1.38739 0.74761 0
M  V30 5384 C 512.7 1.25791 1.49786 0
M  V30 5385 C 513.08 -0.138075 2.10648 0
M  V30 5386 O 512.428 -1.14815 1.9756 0
M  V30 5387 C 512.638 2.37265 2.55942 0
M  V30 5388 C 513.986 2.75978 3.22679 0
M  V30 5389 O 515.01 2.36621 2.6625 0
M  V30 5390 O 513.869 3.43867 4.24756 0
M  V30 5391 H 510.963 0.492251 0.664543 0
M  V30 5392 H 513.509 1.50582 0.782511 0
M  V30 5393 H 512.281 3.30644 2.0926 0
M  V30 5394 H 511.904 2.14071 3.35051 0
M  V30 5395 N 512.901 -0.976442 1.23707 0
M  V30 5396 C 514.131 -1.75087 1.09673 0
M  V30 5397 C 514.539 -1.85852 -0.354344 0
M  V30 5398 O 513.882 -1.33985 -1.25673 0
M  V30 5399 C 513.944 -3.19272 1.65245 0
M  V30 5400 C 513.608 -3.32004 3.14042 0
M  V30 5401 C 514.605 -3.18017 4.11292 0
M  V30 5402 C 512.29 -3.56525 3.53829 0
M  V30 5403 C 514.284 -3.28363 5.46312 0
M  V30 5404 C 511.971 -3.6651 4.88993 0
M  V30 5405 C 512.969 -3.52439 5.85043 0
M  V30 5406 O 512.657 -3.62063 7.1775 0
M  V30 5407 H 512.389 -0.556164 0.384262 0
M  V30 5408 H 514.943 -1.23518 1.64111 0
M  V30 5409 H 513.173 -3.72107 1.05231 0
M  V30 5410 H 514.862 -3.7849 1.46629 0
M  V30 5411 H 515.628 -2.98966 3.81896 0
M  V30 5412 H 511.507 -3.66547 2.79579 0
M  V30 5413 H 515.051 -3.17297 6.21263 0
M  V30 5414 H 510.948 -3.85072 5.18063 0
M  V30 5415 H 511.716 -3.78833 7.25553 0
M  V30 5416 N 514.379 -1.04941 -1.1758 0
M  V30 5417 C 515.342 -0.652456 -2.19717 0
M  V30 5418 C 516.342 0.294745 -1.58076 0
M  V30 5419 O 517.532 0.0789579 -1.74021 0
M  V30 5420 C 514.664 0.0420712 -3.40874 0
M  V30 5421 H 515.857 -1.55642 -2.5635 0
M  V30 5422 H 513.41 -0.842995 -1.31618 0
M  V30 5423 H 514.145 0.95943 -3.09783 0
M  V30 5424 H 513.93 -0.638844 -3.86861 0
M  V30 5425 H 515.42 0.306 -4.16477 0
M  V30 5426 N 515.857 1.33968 -0.830081 0
M  V30 5427 C 516.82 2.27694 -0.26235 0
M  V30 5428 C 517.82 1.50589 0.563876 0
M  V30 5429 O 519.01 1.70028 0.378941 0
M  V30 5430 C 516.142 3.35002 0.63138 0
M  V30 5431 H 517.335 2.79419 -1.08928 0
M  V30 5432 H 514.888 1.44221 -0.602486 0
M  V30 5433 H 515.623 2.88504 1.48109 0
M  V30 5434 H 515.408 3.92079 0.0403276 0
M  V30 5435 H 516.898 4.04897 1.02217 0
M  V30 5436 N 517.335 0.585699 1.46312 0
M  V30 5437 C 518.268 -0.194257 2.27372 0
M  V30 5438 C 519.246 -0.894116 1.3581 0
M  V30 5439 O 520.43 -0.907402 1.65222 0
M  V30 5440 C 517.557 -1.27901 3.13622 0
M  V30 5441 C 516.603 -0.684666 4.20969 0
M  V30 5442 S 517.436 0.490745 5.33247 0
M  V30 5443 C 518.592 -0.595137 6.23064 0
M  V30 5444 H 518.825 0.493515 2.93175 0
M  V30 5445 H 516.358 0.372666 1.49835 0
M  V30 5446 H 518.316 -1.90008 3.63878 0
M  V30 5447 H 516.977 -1.93875 2.47126 0
M  V30 5448 H 516.17 -1.50015 4.81156 0
M  V30 5449 H 515.772 -0.139204 3.73741 0
M  V30 5450 H 518.064 -1.48002 6.61137 0
M  V30 5451 H 519.007 -0.0299446 7.08094 0
M  V30 5452 H 519.415 -0.900627 5.57269 0
M  V30 5453 N 518.813 -1.54241 0.323641 0
M  V30 5454 C 519.776 -2.22997 -0.529602 0
M  V30 5455 C 520.776 -1.22345 -1.04347 0
M  V30 5456 O 521.966 -1.46924 -0.935889 0
M  V30 5457 C 519.098 -2.93409 -1.73562 0
M  V30 5458 H 520.291 -2.99815 0.0714518 0
M  V30 5459 H 517.844 -1.56121 0.0747258 0
M  V30 5460 H 518.579 -2.20729 -2.37591 0
M  V30 5461 H 518.364 -3.67217 -1.37456 0
M  V30 5462 H 519.854 -3.45794 -2.34128 0
M  V30 5463 N 520.291 -0.0518155 -1.57515 0
M  V30 5464 C 521.568 0.661727 -1.84067 0
M  V30 5465 C 521.948 1.88999 -0.940351 0
M  V30 5466 O 521.296 2.285 -0.00155404 0
M  V30 5467 C 521.506 1.01841 -3.3381 0
M  V30 5468 C 522.854 1.40043 -4.00841 0
M  V30 5469 O 523.878 1.11073 -3.38439 0
M  V30 5470 O 522.737 1.94111 -5.10865 0
M  V30 5471 H 519.831 0.326702 -0.759733 0
M  V30 5472 H 522.377 -0.0812277 -1.69505 0
M  V30 5473 H 521.149 0.145202 -3.91031 0
M  V30 5474 H 520.772 1.81879 -3.53562 0
M  V30 5475 N 521.769 1.56035 0.221574 0
M  V30 5476 C 523.185 1.49026 0.571271 0
M  V30 5477 C 523.385 0.746912 1.87146 0
M  V30 5478 O 522.441 0.286566 2.50869 0
M  V30 5479 C 523.754 2.93579 0.650522 0
M  V30 5480 C 525.302 3.04099 0.741151 0
M  V30 5481 C 525.777 4.5001 0.851747 0
M  V30 5482 N 527.268 4.54053 0.915968 0
M  V30 5483 C 528.003 5.64232 1.02125 0
M  V30 5484 N 527.499 6.84164 1.09049 0
M  V30 5485 N 529.292 5.52084 1.05639 0
M  V30 5486 H 521.443 2.02791 -0.63162 0
M  V30 5487 H 523.706 0.921736 -0.221602 0
M  V30 5488 H 523.412 3.50912 -0.235253 0
M  V30 5489 H 523.286 3.45476 1.51413 0
M  V30 5490 H 525.673 2.4683 1.61737 0
M  V30 5491 H 525.754 2.55371 -0.148128 0
M  V30 5492 H 525.398 5.07896 -0.0200117 0
M  V30 5493 H 525.328 4.96444 1.75644 0
M  V30 5494 H 527.819 3.67683 0.872782 0
M  V30 5495 H 528.132 7.63883 1.1706 0
M  V30 5496 H 526.477 6.86875 1.05962 0
M  V30 5497 H 529.668 4.57317 0.998953 0
M  V30 5498 H 529.841 6.37983 1.13498 0
M  V30 5499 N 523.247 -0.488276 1.49845 0
M  V30 5500 C 524.177 -1.59675 1.70371 0
M  V30 5501 C 525.158 -1.60878 0.552473 0
M  V30 5502 O 526.343 -1.77417 0.78973 0
M  V30 5503 C 523.473 -2.98098 1.782 0
M  V30 5504 C 522.427 -3.11761 2.93239 0
M  V30 5505 C 521.753 -4.51661 2.86193 0
M  V30 5506 C 523.053 -2.90589 4.33999 0
M  V30 5507 H 524.747 -1.42752 2.63177 0
M  V30 5508 H 522.293 -0.685317 1.26647 0
M  V30 5509 H 524.246 -3.75555 1.91144 0
M  V30 5510 H 522.97 -3.16138 0.820018 0
M  V30 5511 H 521.629 -2.36732 2.79917 0
M  V30 5512 H 521.277 -4.66595 1.87877 0
M  V30 5513 H 520.977 -4.61742 3.63412 0
M  V30 5514 H 522.501 -5.31162 3.01163 0
M  V30 5515 H 523.915 -3.57807 4.47936 0
M  V30 5516 H 522.312 -3.1213 5.12538 0
M  V30 5517 H 523.382 -1.86595 4.4756 0
M  V30 5518 N 524.725 -1.39134 -0.740242 0
M  V30 5519 C 525.953 -1.39334 -1.5295 0
M  V30 5520 C 526.368 0.0135008 -1.88795 0
M  V30 5521 O 525.725 0.983524 -1.5373 0
M  V30 5522 C 525.776 -2.2614 -2.82034 0
M  V30 5523 O 525.497 -3.61345 -2.47712 0
M  V30 5524 C 526.998 -2.34666 -3.76094 0
M  V30 5525 H 524.218 -0.476103 -0.472828 0
M  V30 5526 H 526.762 -1.82883 -0.9151 0
M  V30 5527 H 524.917 -1.86018 -3.39818 0
M  V30 5528 H 525.331 -4.07194 -3.30595 0
M  V30 5529 H 526.805 -2.99663 -4.63579 0
M  V30 5530 H 527.282 -1.36426 -4.17474 0
M  V30 5531 H 527.888 -2.75236 -3.2423 0
M  V30 5532 N 526.204 0.969867 -1.24223 0
M  V30 5533 C 527.167 2.04564 -1.03373 0
M  V30 5534 C 528.167 1.60798 0.00819206 0
M  V30 5535 O 529.357 1.72641 -0.232567 0
M  V30 5536 C 526.489 3.36163 -0.566343 0
M  V30 5537 H 527.682 2.24494 -1.98853 0
M  V30 5538 H 525.235 1.1448 -1.06415 0
M  V30 5539 H 525.97 3.21925 0.391751 0
M  V30 5540 H 525.755 3.69273 -1.31834 0
M  V30 5541 H 527.245 4.1526 -0.441435 0
M  V30 5542 N 527.682 1.05563 1.17022 0
M  V30 5543 C 528.645 0.664098 2.19368 0
M  V30 5544 C 529.645 -0.286358 1.5823 0
M  V30 5545 O 530.835 -0.069728 1.7406 0
M  V30 5546 C 527.967 -0.0239932 3.40892 0
M  V30 5547 H 529.16 1.57 2.55521 0
M  V30 5548 H 526.713 0.849964 1.31169 0
M  V30 5549 H 527.448 -0.942988 3.10287 0
M  V30 5550 H 527.233 0.659351 3.86516 0
M  V30 5551 H 528.723 -0.283909 4.16634 0
M  V30 5552 N 529.16 -1.33526 0.837174 0
M  V30 5553 C 530.407 -1.97837 0.432064 0
M  V30 5554 C 530.735 -1.66324 -1.00829 0
M  V30 5555 O 529.99 -0.93448 -1.71948 0
M  V30 5556 C 530.289 -3.52367 0.597675 0
M  V30 5557 C 529.955 -4.03826 2.00587 0
M  V30 5558 C 528.617 -4.1759 2.39106 0
M  V30 5559 C 530.969 -4.31333 2.92576 0
M  V30 5560 C 528.297 -4.56195 3.68921 0
M  V30 5561 C 530.649 -4.7139 4.2187 0
M  V30 5562 C 529.313 -4.8336 4.60347 0
M  V30 5563 H 528.583 -0.723937 0.158104 0
M  V30 5564 H 531.23 -1.5923 1.06387 0
M  V30 5565 H 529.535 -3.91624 -0.117452 0
M  V30 5566 H 531.232 -4.00126 0.26454 0
M  V30 5567 H 527.822 -3.93586 1.69671 0
M  V30 5568 H 532.006 -4.20224 2.64056 0
M  V30 5569 H 527.262 -4.63655 3.9854 0
M  V30 5570 H 531.436 -4.91631 4.93226 0
M  V30 5571 H 529.063 -5.1303 5.60985 0
M  V30 5572 N 530.638 -0.59345 -1.46 0
M  V30 5573 C 531.863 -0.0872365 -2.07216 0
M  V30 5574 C 532.288 1.2131 -1.43755 0
M  V30 5575 O 531.646 1.73528 -0.525152 0
M  V30 5576 C 531.694 0.0538197 -3.6056 0
M  V30 5577 O 530.798 1.10765 -3.97247 0
M  V30 5578 H 530.139 -0.0676598 -0.660544 0
M  V30 5579 H 532.669 -0.819445 -1.87473 0
M  V30 5580 H 532.679 0.256567 -4.07193 0
M  V30 5581 H 531.354 -0.895739 -4.0614 0
M  V30 5582 H 529.931 0.882501 -3.62307 0
M  V30 5583 N 532.116 1.54067 -0.331816 0
M  V30 5584 C 533.344 2.05131 0.269996 0
M  V30 5585 C 533.759 1.20749 1.45138 0
M  V30 5586 O 533.116 0.240069 1.80914 0
M  V30 5587 C 533.167 3.54728 0.696456 0
M  V30 5588 O 532.888 4.35906 -0.43794 0
M  V30 5589 C 534.389 4.21916 1.36021 0
M  V30 5590 H 531.609 0.668807 0.0542042 0
M  V30 5591 H 534.153 1.98777 -0.4804 0
M  V30 5592 H 532.308 3.61342 1.39681 0
M  V30 5593 H 532.722 5.24404 -0.100334 0
M  V30 5594 H 534.196 5.28015 1.60947 0
M  V30 5595 H 534.673 3.73538 2.31011 0
M  V30 5596 H 535.279 4.19463 0.702212 0
M  V30 5597 N 533.594 0.0601682 1.57485 0
M  V30 5598 C 534.84 -0.612501 1.93329 0
M  V30 5599 C 535.173 -1.6996 0.939526 0
M  V30 5600 O 534.448 -1.94472 -0.0330957 0
M  V30 5601 C 534.731 -1.20025 3.39508 0
M  V30 5602 C 534.584 -0.12059 4.49638 0
M  V30 5603 C 535.903 -2.10923 3.86264 0
M  V30 5604 H 533.022 -0.221185 0.703027 0
M  V30 5605 H 535.664 0.123768 1.89596 0
M  V30 5606 H 533.814 -1.82774 3.42821 0
M  V30 5607 H 535.486 0.51185 4.58452 0
M  V30 5608 H 533.729 0.550251 4.30296 0
M  V30 5609 H 534.4 -0.572019 5.49028 0
M  V30 5610 H 536.876 -1.58124 3.84884 0
M  V30 5611 H 535.752 -2.48987 4.8918 0
M  V30 5612 H 536.013 -3.01292 3.23536 0
M  V30 5613 N 535.072 -1.5615 -0.213296 0
M  V30 5614 C 536.302 -1.83372 -0.951757 0
M  V30 5615 C 536.71 -0.638158 -1.78113 0
M  V30 5616 O 536.053 0.402609 -1.79234 0
M  V30 5617 C 536.115 -3.04444 -1.91192 0
M  V30 5618 C 535.779 -4.39107 -1.26627 0
M  V30 5619 C 536.776 -5.15794 -0.652087 0
M  V30 5620 C 534.461 -4.85834 -1.27556 0
M  V30 5621 C 536.455 -6.37376 -0.055814 0
M  V30 5622 C 534.142 -6.07356 -0.675451 0
M  V30 5623 C 535.14 -6.82967 -0.0666367 0
M  V30 5624 O 534.828 -8.0219 0.524119 0
M  V30 5625 H 534.56 -0.613398 -0.284111 0
M  V30 5626 H 537.114 -2.04096 -0.231112 0
M  V30 5627 H 535.344 -2.79559 -2.67178 0
M  V30 5628 H 537.033 -3.18466 -2.51662 0
M  V30 5629 H 537.799 -4.80796 -0.637172 0
M  V30 5630 H 533.678 -4.26949 -1.73883 0
M  V30 5631 H 537.222 -6.96334 0.420004 0
M  V30 5632 H 533.119 -6.41825 -0.687806 0
M  V30 5633 H 533.887 -8.17426 0.419243 0
M  V30 5634 N 536.55 0.480323 -1.50102 0
M  V30 5635 C 537.48 1.58769 -1.71215 0
M  V30 5636 C 538.461 1.60583 -0.560997 0
M  V30 5637 O 539.646 1.76996 -0.799127 0
M  V30 5638 C 536.776 2.97148 -1.79778 0
M  V30 5639 C 535.73 3.10201 -2.94888 0
M  V30 5640 C 535.056 4.50137 -2.88584 0
M  V30 5641 C 536.356 2.88283 -4.35534 0
M  V30 5642 H 538.05 1.41354 -2.6393 0
M  V30 5643 H 535.596 0.678591 -1.27008 0
M  V30 5644 H 537.549 3.74536 -1.93133 0
M  V30 5645 H 536.273 3.15699 -0.836772 0
M  V30 5646 H 534.932 2.35244 -2.81169 0
M  V30 5647 H 534.58 4.65593 -1.90349 0
M  V30 5648 H 534.28 4.59808 -3.65856 0
M  V30 5649 H 535.804 5.29558 -3.03976 0
M  V30 5650 H 537.218 3.55427 -4.49827 0
M  V30 5651 H 535.615 3.09408 -5.14186 0
M  V30 5652 H 536.685 1.84219 -4.48544 0
M  V30 5653 N 538.028 1.39524 0.732853 0
M  V30 5654 C 539.274 1.37068 1.49467 0
M  V30 5655 C 539.607 -0.0327166 1.94172 0
M  V30 5656 O 538.882 -0.998071 1.66939 0
M  V30 5657 C 539.165 2.34494 2.73285 0
M  V30 5658 C 539.018 3.83784 2.34585 0
M  V30 5659 C 540.337 2.29717 3.75391 0
M  V30 5660 H 537.456 0.499206 0.542183 0
M  V30 5661 H 540.098 1.70532 0.837783 0
M  V30 5662 H 538.248 2.06087 3.29333 0
M  V30 5663 H 539.92 4.22949 1.84151 0
M  V30 5664 H 538.163 4.00455 1.66787 0
M  V30 5665 H 538.834 4.47444 3.23262 0
M  V30 5666 H 541.31 2.54839 3.28932 0
M  V30 5667 H 540.186 2.99962 4.59689 0
M  V30 5668 H 540.447 1.30291 4.22465 0
M  V30 5669 N 539.506 -0.963266 1.24736 0
M  V30 5670 C 540.917 -1.52145 1.08207 0
M  V30 5671 C 541.268 -1.93142 -0.345061 0
M  V30 5672 O 540.393 -1.77769 -1.23399 0
M  V30 5673 C 540.988 -2.76486 1.95808 0
M  V30 5674 C 539.547 -3.28646 1.8349 0
M  V30 5675 C 538.694 -2.01529 1.90476 0
M  V30 5676 H 541.645 -0.781083 1.38148 0
M  V30 5677 H 541.666 -3.49986 1.49297 0
M  V30 5678 H 541.178 -2.46617 2.99669 0
M  V30 5679 H 539.279 -3.63357 0.824787 0
M  V30 5680 H 539.392 -3.97246 2.67829 0
M  V30 5681 H 537.756 -2.16442 1.34258 0
M  V30 5682 H 538.539 -1.7402 2.95926 0
M  V30 5683 N 540.985 -1.06182 -1.16461 0
M  V30 5684 C 542.231 -0.779015 -1.87241 0
M  V30 5685 C 542.564 0.692715 -1.81425 0
M  V30 5686 O 541.839 1.5074 -1.22913 0
M  V30 5687 C 542.122 -1.2728 -3.36856 0
M  V30 5688 C 541.975 -2.80821 -3.51368 0
M  V30 5689 C 543.294 -0.879799 -4.31216 0
M  V30 5690 H 540.413 -0.284464 -0.679889 0
M  V30 5691 H 543.055 -1.31755 -1.36896 0
M  V30 5692 H 541.205 -0.814673 -3.79862 0
M  V30 5693 H 542.877 -3.34833 -3.17308 0
M  V30 5694 H 541.12 -3.19606 -2.93316 0
M  V30 5695 H 541.791 -3.10435 -4.56436 0
M  V30 5696 H 544.267 -1.27436 -3.96105 0
M  V30 5697 H 543.143 -1.25278 -5.34412 0
M  V30 5698 H 543.404 0.215372 -4.41575 0
M  V30 5699 N 542.463 1.3308 -0.844243 0
M  V30 5700 C 543.874 1.7992 -0.498566 0
M  V30 5701 C 544.225 1.69808 0.982834 0
M  V30 5702 O 543.35 1.25051 1.7661 0
M  V30 5703 C 543.945 3.26677 -0.898204 0
M  V30 5704 C 542.504 3.71513 -0.604583 0
M  V30 5705 C 541.651 2.54393 -1.10362 0
M  V30 5706 H 544.602 1.20526 -1.03244 0
M  V30 5707 H 544.623 3.79918 -0.21039 0
M  V30 5708 H 544.135 3.34004 -1.97643 0
M  V30 5709 H 542.236 3.69708 0.46335 0
M  V30 5710 H 542.349 4.64755 -1.16358 0
M  V30 5711 H 540.713 2.49246 -0.524273 0
M  V30 5712 H 541.496 2.6448 -2.18873 0
M  V30 5713 N 543.941 0.601185 1.45683 0
M  V30 5714 C 545.189 0.0936957 2.01883 0
M  V30 5715 C 545.51 -1.2779 1.47291 0
M  V30 5716 O 544.78 -1.84279 0.664691 0
M  V30 5717 H 543.36 0.0316466 0.746329 0
M  V30 5718 H 546.022 0.781137 1.78562 0
M  V30 5719 H 545.118 0.0386297 3.12076 0
M  V30 5720 N 545.419 -1.53889 0.339982 0
M  V30 5721 C 546.647 -2.05271 -0.259114 0
M  V30 5722 C 547.062 -1.21517 -1.44496 0
M  V30 5723 O 546.419 -0.24966 -1.80784 0
M  V30 5724 C 546.47 -3.55092 -0.677634 0
M  V30 5725 O 546.191 -4.35667 0.461051 0
M  V30 5726 C 547.692 -4.22631 -1.33782 0
M  V30 5727 H 544.912 -0.669085 -0.0506566 0
M  V30 5728 H 547.456 -1.9852 0.490935 0
M  V30 5729 H 545.611 -3.62077 -1.37763 0
M  V30 5730 H 546.025 -5.24343 0.128144 0
M  V30 5731 H 547.499 -5.28861 -1.58145 0
M  V30 5732 H 547.976 -3.74758 -2.29027 0
M  V30 5733 H 548.582 -4.19829 -0.679957 0
M  V30 5734 N 546.897 -0.0685191 -1.57451 0
M  V30 5735 C 548.308 0.464634 -1.80826 0
M  V30 5736 C 548.659 1.69847 -0.982169 0
M  V30 5737 O 547.784 2.15439 -0.203734 0
M  V30 5738 C 548.379 0.849721 -3.27971 0
M  V30 5739 C 546.938 1.32776 -3.52204 0
M  V30 5740 C 546.085 0.311332 -2.75547 0
M  V30 5741 H 549.036 -0.294248 -1.55948 0
M  V30 5742 H 549.057 1.71138 -3.39841 0
M  V30 5743 H 548.569 -0.0484736 -3.8807 0
M  V30 5744 H 546.67 2.24456 -2.97406 0
M  V30 5745 H 546.783 1.30794 -4.60901 0
M  V30 5746 H 545.147 0.787915 -2.42206 0
M  V30 5747 H 545.93 -0.579078 -3.38381 0
M  V30 5748 N 548.375 1.56261 0.205012 0
M  V30 5749 C 549.791 1.49623 0.555433 0
M  V30 5750 C 549.991 0.766719 1.86343 0
M  V30 5751 O 549.047 0.313158 2.50551 0
M  V30 5752 C 550.36 2.94253 0.619347 0
M  V30 5753 C 551.908 3.04868 0.708855 0
M  V30 5754 C 552.383 4.50888 0.803969 0
M  V30 5755 N 553.874 4.54999 0.867758 0
M  V30 5756 C 554.609 5.65284 0.96135 0
M  V30 5757 N 554.105 6.85282 1.01786 0
M  V30 5758 N 555.898 5.53174 0.997771 0
M  V30 5759 H 548.049 2.0211 -0.653094 0
M  V30 5760 H 550.312 0.919333 -0.231366 0
M  V30 5761 H 550.018 3.50643 -0.272458 0
M  V30 5762 H 549.892 3.47063 1.47741 0
M  V30 5763 H 552.279 2.48532 1.5911 0
M  V30 5764 H 552.36 2.55199 -0.175205 0
M  V30 5765 H 552.004 5.07846 -0.0738798 0
M  V30 5766 H 551.934 4.98279 1.70369 0
M  V30 5767 H 554.425 3.68588 0.833735 0
M  V30 5768 H 554.738 7.65081 1.08951 0
M  V30 5769 H 553.083 6.8796 0.986706 0
M  V30 5770 H 556.274 4.5835 0.950392 0
M  V30 5771 H 556.447 6.39151 1.06725 0
M  V30 5772 N 549.853 -0.472356 1.50355 0
M  V30 5773 C 550.816 -1.5529 1.68576 0
M  V30 5774 C 551.816 -1.50863 0.556511 0
M  V30 5775 O 553.006 -1.53505 0.823516 0
M  V30 5776 C 550.138 -2.94921 1.70981 0
M  V30 5777 H 551.331 -1.40451 2.64978 0
M  V30 5778 H 548.884 -0.698645 1.39816 0
M  V30 5779 H 549.619 -3.15204 0.762675 0
M  V30 5780 H 549.404 -2.99541 2.53017 0
M  V30 5781 H 550.894 -3.73372 1.87037 0
M  V30 5782 N 551.331 -1.39911 -0.725443 0
M  V30 5783 C 552.261 -1.42138 -1.85254 0
M  V30 5784 C 553.242 -0.283513 -1.67721 0
M  V30 5785 O 554.427 -0.490717 -1.87898 0
M  V30 5786 C 551.557 -1.27354 -3.23107 0
M  V30 5787 C 550.511 -2.3864 -3.55296 0
M  V30 5788 C 549.837 -2.08939 -4.92188 0
M  V30 5789 C 551.137 -3.8097 -3.57295 0
M  V30 5790 H 552.831 -2.36461 -1.83648 0
M  V30 5791 H 550.377 -1.13817 -0.882138 0
M  V30 5792 H 552.33 -1.2753 -4.01639 0
M  V30 5793 H 551.054 -0.295025 -3.25265 0
M  V30 5794 H 549.713 -2.37696 -2.79099 0
M  V30 5795 H 549.361 -1.09502 -4.90936 0
M  V30 5796 H 549.061 -2.83491 -5.14691 0
M  V30 5797 H 550.585 -2.10781 -5.73065 0
M  V30 5798 H 551.999 -3.8379 -4.25885 0
M  V30 5799 H 550.396 -4.5496 -3.9132 0
M  V30 5800 H 551.466 -4.11261 -2.5689 0
M  V30 5801 N 552.809 0.956637 -1.25245 0
M  V30 5802 C 554.22 1.51569 -1.09012 0
M  V30 5803 C 554.571 1.93322 0.334813 0
M  V30 5804 O 553.696 1.78421 1.22454 0
M  V30 5805 C 554.291 2.75444 -1.97271 0
M  V30 5806 C 552.85 3.27669 -1.8523 0
M  V30 5807 C 551.997 2.00517 -1.91542 0
M  V30 5808 H 554.948 0.773746 -1.3856 0
M  V30 5809 H 554.969 3.4919 -1.51151 0
M  V30 5810 H 554.481 2.45024 -3.00973 0
M  V30 5811 H 552.582 3.62914 -0.844045 0
M  V30 5812 H 552.695 3.9582 -2.69932 0
M  V30 5813 H 551.059 2.15727 -1.35404 0
M  V30 5814 H 551.842 1.72448 -2.96844 0
M  V30 5815 N 554.287 1.06798 1.15896 0
M  V30 5816 C 555.197 0.694564 2.24083 0
M  V30 5817 C 556.213 -0.291687 1.71538 0
M  V30 5818 O 557.389 -0.139723 2.00915 0
M  V30 5819 C 554.454 0.0921014 3.46578 0
M  V30 5820 C 553.515 1.13087 4.14137 0
M  V30 5821 C 552.748 0.557064 5.30785 0
M  V30 5822 O 552.971 -0.628623 5.66925 0
M  V30 5823 O 551.905 1.29924 5.8771 0
M  V30 5824 H 555.731 1.59663 2.58344 0
M  V30 5825 H 553.316 0.840575 1.2351 0
M  V30 5826 H 555.198 -0.241884 4.20705 0
M  V30 5827 H 553.873 -0.78337 3.14078 0
M  V30 5828 H 552.78 1.51712 3.41957 0
M  V30 5829 H 554.113 1.97805 4.50704 0
M  V30 5830 N 555.766 -1.3263 0.851289 0
M  V30 5831 C 556.729 -2.27247 0.298541 0
M  V30 5832 C 557.729 -1.51467 -0.539847 0
M  V30 5833 O 558.919 -1.7061 -0.351843 0
M  V30 5834 C 556.051 -3.35964 -0.578004 0
M  V30 5835 H 557.244 -2.7765 1.13359 0
M  V30 5836 H 554.797 -1.43245 0.625354 0
M  V30 5837 H 555.532 -2.90823 -1.435 0
M  V30 5838 H 555.317 -3.92094 0.0220539 0
M  V30 5839 H 556.807 -4.06472 -0.957626 0
M  V30 5840 N 557.244 -0.608902 -1.45362 0
M  V30 5841 C 558.492 -0.104401 -2.0183 0
M  V30 5842 C 558.813 1.27007 -1.47967 0
M  V30 5843 O 558.083 1.83924 -0.674455 0
M  V30 5844 H 556.663 -0.0356042 -0.746151 0
M  V30 5845 H 559.325 -0.790596 -1.78145 0
M  V30 5846 H 558.421 -0.0551793 -3.12051 0
M  V30 5847 N 558.722 1.53707 -0.348139 0
M  V30 5848 C 559.952 2.05108 0.247864 0
M  V30 5849 C 560.36 1.22252 1.44399 0
M  V30 5850 O 559.703 0.251853 1.81965 0
M  V30 5851 C 559.765 3.52171 0.722187 0
M  V30 5852 C 559.429 4.5562 -0.354902 0
M  V30 5853 C 560.426 5.05883 -1.19911 0
M  V30 5854 C 558.111 4.99703 -0.510145 0
M  V30 5855 C 560.105 5.98814 -2.18406 0
M  V30 5856 C 557.792 5.92443 -1.49848 0
M  V30 5857 C 558.79 6.41887 -2.33389 0
M  V30 5858 O 558.478 7.32802 -3.3054 0
M  V30 5859 H 558.21 0.674086 0.0508296 0
M  V30 5860 H 560.764 1.99229 -0.49968 0
M  V30 5861 H 558.994 3.55529 1.52105 0
M  V30 5862 H 560.683 3.8652 1.23925 0
M  V30 5863 H 561.449 4.72586 -1.09028 0
M  V30 5864 H 557.328 4.60816 0.130274 0
M  V30 5865 H 560.872 6.3733 -2.83649 0
M  V30 5866 H 556.769 6.25155 -1.60786 0
M  V30 5867 H 557.537 7.50749 -3.26064 0
M  V30 5868 N 560.2 0.0768682 1.57412 0
M  V30 5869 C 561.11 -0.903207 2.16516 0
M  V30 5870 C 562.126 -1.32341 1.12968 0
M  V30 5871 O 563.302 -1.39507 1.45258 0
M  V30 5872 C 560.367 -2.1508 2.71922 0
M  V30 5873 C 559.428 -1.78653 3.90361 0
M  V30 5874 C 558.661 -2.97465 4.43114 0
M  V30 5875 O 558.884 -4.11638 3.94854 0
M  V30 5876 O 557.818 -2.76987 5.3438 0
M  V30 5877 H 561.644 -0.430427 3.00634 0
M  V30 5878 H 559.229 -0.146485 1.4868 0
M  V30 5879 H 561.111 -2.8823 3.07411 0
M  V30 5880 H 559.786 -2.61446 1.9086 0
M  V30 5881 H 558.693 -1.0274 3.59716 0
M  V30 5882 H 560.026 -1.37066 4.7273 0
M  V30 5883 N 561.678 -1.56367 -0.196722 0
M  V30 5884 C 562.641 -1.93561 -1.22746 0
M  V30 5885 C 563.641 -0.816566 -1.38524 0
M  V30 5886 O 564.831 -1.084 -1.36363 0
M  V30 5887 C 561.963 -2.20823 -2.59712 0
M  V30 5888 H 563.156 -2.85774 -0.909586 0
M  V30 5889 H 560.709 -1.50032 -0.438174 0
M  V30 5890 H 561.444 -1.31243 -2.96557 0
M  V30 5891 H 561.229 -3.02368 -2.49632 0
M  V30 5892 H 562.719 -2.50608 -3.34044 0
M  V30 5893 N 563.156 0.464375 -1.50603 0
M  V30 5894 C 564.086 1.56944 -1.72889 0
M  V30 5895 C 565.067 1.59979 -0.577997 0
M  V30 5896 O 566.252 1.76138 -0.817855 0
M  V30 5897 C 563.382 2.95225 -1.8292 0
M  V30 5898 C 562.336 3.07056 -2.98162 0
M  V30 5899 C 561.662 4.47051 -2.93343 0
M  V30 5900 C 562.962 2.83648 -4.38567 0
M  V30 5901 H 564.656 1.38547 -2.65415 0
M  V30 5902 H 562.202 0.665082 -1.27721 0
M  V30 5903 H 564.155 3.72467 -1.97095 0
M  V30 5904 H 562.879 3.14793 -0.870209 0
M  V30 5905 H 561.538 2.32248 -2.83648 0
M  V30 5906 H 561.186 4.63547 -1.95276 0
M  V30 5907 H 560.886 4.55902 -3.70712 0
M  V30 5908 H 562.41 5.26304 -3.09575 0
M  V30 5909 H 563.824 3.50636 -4.53572 0
M  V30 5910 H 562.221 3.03937 -5.17438 0
M  V30 5911 H 563.291 1.79451 -4.50472 0
M  V30 5912 N 564.634 1.40294 0.718013 0
M  V30 5913 C 565.584 1.36847 1.82365 0
M  V30 5914 C 566.568 0.246424 1.59002 0
M  V30 5915 O 567.76 0.485336 1.70216 0
M  V30 5916 C 564.889 1.23105 3.20469 0
M  V30 5917 C 563.975 2.4008 3.49603 0
M  V30 5918 N 564.366 3.65562 3.49568 0
M  V30 5919 C 562.664 2.33407 3.80049 0
M  V30 5920 C 563.365 4.43015 3.76978 0
M  V30 5921 N 562.341 3.72823 3.95606 0
M  V30 5922 H 566.143 2.31811 1.80668 0
M  V30 5923 H 563.657 1.34031 0.91703 0
M  V30 5924 H 565.654 1.18718 3.9964 0
M  V30 5925 H 564.314 0.291056 3.23393 0
M  V30 5926 H 565.325 3.98756 3.30476 0
M  V30 5927 H 562.002 1.47762 3.90478 0
M  V30 5928 H 563.392 5.51859 3.83276 0
M  V30 5929 N 566.112 -0.949982 1.2575 0
M  V30 5930 C 567.022 -2.08109 1.08295 0
M  V30 5931 C 568.038 -1.7399 0.0188181 0
M  V30 5932 O 569.214 -2.00187 0.220724 0
M  V30 5933 C 566.279 -3.39383 0.708534 0
M  V30 5934 C 565.34 -3.8734 1.85111 0
M  V30 5935 C 564.573 -5.12349 1.49447 0
M  V30 5936 O 564.796 -5.6905 0.392212 0
M  V30 5937 O 563.73 -5.5513 2.32624 0
M  V30 5938 H 567.556 -2.25738 2.03165 0
M  V30 5939 H 565.141 -1.06545 1.04731 0
M  V30 5940 H 567.023 -4.18277 0.512061 0
M  V30 5941 H 565.698 -3.23013 -0.210854 0
M  V30 5942 H 564.605 -3.09429 2.10248 0
M  V30 5943 H 565.938 -4.08216 2.74991 0
M  V30 5944 N 567.59 -1.07411 -1.15328 0
M  V30 5945 C 568.838 -0.796073 -1.85761 0
M  V30 5946 C 569.159 0.679864 -1.82764 0
M  V30 5947 O 568.429 1.49242 -1.269 0
M  V30 5948 H 567.009 -0.291495 -0.687779 0
M  V30 5949 H 569.671 -1.35799 -1.39802 0
M  V30 5950 H 568.767 -1.13114 -2.90881 0
M  V30 5951 N 569.068 1.32177 -0.85831 0
M  V30 5952 C 570.484 1.49873 -0.548656 0
M  V30 5953 C 570.684 1.79278 0.919874 0
M  V30 5954 O 569.74 1.86451 1.70271 0
M  V30 5955 C 571.053 2.64043 -1.4388 0
M  V30 5956 C 572.601 2.77928 -1.43961 0
M  V30 5957 C 573.076 3.95182 -2.31506 0
M  V30 5958 N 574.567 4.0245 -2.29321 0
M  V30 5959 C 575.302 4.9242 -2.93786 0
M  V30 5960 N 574.798 5.87373 -3.67376 0
M  V30 5961 N 576.591 4.85572 -2.83155 0
M  V30 5962 H 568.742 1.11357 -1.80868 0
M  V30 5963 H 571.005 0.549175 -0.772729 0
M  V30 5964 H 570.711 2.49055 -2.48324 0
M  V30 5965 H 570.585 3.59912 -1.12885 0
M  V30 5966 H 572.972 2.92338 -0.402813 0
M  V30 5967 H 573.053 1.82762 -1.78974 0
M  V30 5968 H 572.697 3.81531 -3.35256 0
M  V30 5969 H 572.627 4.89633 -1.93823 0
M  V30 5970 H 575.118 3.34507 -1.75822 0
M  V30 5971 H 575.431 6.52728 -4.13722 0
M  V30 5972 H 573.776 5.87388 -3.71484 0
M  V30 5973 H 576.967 4.10363 -2.25211 0
M  V30 5974 H 577.14 5.55486 -3.33676 0
M  V30 5975 N 570.547 0.616602 1.45037 0
M  V30 5976 C 571.477 -0.0840787 2.33349 0
M  V30 5977 C 572.458 -0.849641 1.4736 0
M  V30 5978 O 573.643 -0.818407 1.76113 0
M  V30 5979 C 570.773 -1.07604 3.3021 0
M  V30 5980 C 569.727 -0.423096 4.25904 0
M  V30 5981 C 569.053 -1.52394 5.12523 0
M  V30 5982 C 570.353 0.661457 5.18095 0
M  V30 5983 H 572.047 0.653333 2.92185 0
M  V30 5984 H 569.593 0.315634 1.40498 0
M  V30 5985 H 571.546 -1.57485 3.90866 0
M  V30 5986 H 570.27 -1.84416 2.69552 0
M  V30 5987 H 568.929 0.05493 3.66559 0
M  V30 5988 H 568.577 -2.28257 4.48227 0
M  V30 5989 H 568.277 -1.09251 5.77354 0
M  V30 5990 H 569.801 -2.02485 5.76049 0
M  V30 5991 H 571.215 0.246353 5.7277 0
M  V30 5992 H 569.612 1.01517 5.91451 0
M  V30 5993 H 570.682 1.53446 4.59981 0
M  V30 5994 N 572.025 -1.5352 0.356285 0
M  V30 5995 C 572.972 -2.25439 -0.494569 0
M  V30 5996 C 573.942 -1.25752 -1.08516 0
M  V30 5997 O 575.127 -1.54513 -1.1194 0
M  V30 5998 C 572.267 -3.04011 -1.63313 0
M  V30 5999 C 571.38 -4.18574 -1.06862 0
M  V30 6000 C 570.515 -4.84607 -2.17552 0
M  V30 6001 C 569.554 -5.91218 -1.58518 0
M  V30 6002 N 568.691 -6.50979 -2.63003 0
M  V30 6003 H 573.531 -2.97737 0.125244 0
M  V30 6004 H 571.068 -1.46916 0.0735789 0
M  V30 6005 H 573.026 -3.47834 -2.30363 0
M  V30 6006 H 571.656 -2.33986 -2.22374 0
M  V30 6007 H 570.708 -3.79303 -0.288672 0
M  V30 6008 H 572.02 -4.95215 -0.596924 0
M  V30 6009 H 571.174 -5.31566 -2.92442 0
M  V30 6010 H 569.913 -4.07418 -2.6807 0
M  V30 6011 H 568.918 -5.4363 -0.821391 0
M  V30 6012 H 570.143 -6.70322 -1.08836 0
M  V30 6013 H 568.089 -5.76648 -3.12751 0
M  V30 6014 H 568.006 -7.23131 -2.20493 0
M  V30 6015 H 569.274 -7.02589 -3.37623 0
M  V30 6016 N 573.503 -0.0852151 -1.57369 0
M  V30 6017 C 574.78 0.622534 -1.85429 0
M  V30 6018 C 575.16 1.86962 -0.980229 0
M  V30 6019 O 574.508 2.28445 -0.0500219 0
M  V30 6020 C 574.718 0.947374 -3.35896 0
M  V30 6021 C 576.066 1.31509 -4.03721 0
M  V30 6022 O 577.09 1.03869 -3.40719 0
M  V30 6023 O 575.949 1.83231 -5.14868 0
M  V30 6024 H 573.043 0.310513 -0.766492 0
M  V30 6025 H 575.589 -0.117164 -1.69295 0
M  V30 6026 H 574.361 0.0622264 -3.91251 0
M  V30 6027 H 573.984 1.74338 -3.5734 0
M  V30 6028 N 574.981 1.5647 0.188427 0
M  V30 6029 C 576.206 1.85486 0.927891 0
M  V30 6030 C 576.631 0.669575 1.75779 0
M  V30 6031 O 575.989 -0.381573 1.77239 0
M  V30 6032 C 576.037 3.12784 1.7944 0
M  V30 6033 O 575.141 2.93805 2.894 0
M  V30 6034 H 574.482 0.610585 0.260925 0
M  V30 6035 H 577.012 2.037 0.191729 0
M  V30 6036 H 577.022 3.43749 2.19774 0
M  V30 6037 H 575.697 3.98671 1.18468 0
M  V30 6038 H 574.274 2.74153 2.52774 0
M  V30 6039 N 576.459 -0.456382 1.50847 0
M  V30 6040 C 577.705 -1.20618 1.63777 0
M  V30 6041 C 578.06 -1.8936 0.340677 0
M  V30 6042 O 577.353 -1.79786 -0.662378 0
M  V30 6043 C 577.547 -2.26336 2.76599 0
M  V30 6044 C 577.376 -1.67968 4.17153 0
M  V30 6045 C 576.146 -1.47293 4.83356 0
M  V30 6046 C 578.344 -1.16643 5.00898 0
M  V30 6047 N 576.326 -0.843222 6.08081 0
M  V30 6048 C 577.697 -0.660843 6.16468 0
M  V30 6049 C 579.752 -1.05637 4.86565 0
M  V30 6050 C 578.455 -0.0560365 7.19278 0
M  V30 6051 C 580.481 -0.465485 5.89565 0
M  V30 6052 C 579.843 0.0296516 7.04394 0
M  V30 6053 H 575.942 -0.429725 0.653345 0
M  V30 6054 H 578.526 -0.505784 1.88016 0
M  V30 6055 H 576.697 -2.93785 2.54056 0
M  V30 6056 H 578.429 -2.9334 2.78808 0
M  V30 6057 H 575.184 -1.72934 4.40898 0
M  V30 6058 H 575.608 -0.546357 6.74792 0
M  V30 6059 H 580.25 -1.42508 3.98059 0
M  V30 6060 H 577.968 0.324845 8.07447 0
M  V30 6061 H 581.554 -0.382493 5.80541 0
M  V30 6062 H 580.434 0.479705 7.82731 0
M  V30 6063 N 577.937 -1.40673 -0.710563 0
M  V30 6064 C 578.869 -1.37256 -1.83558 0
M  V30 6065 C 579.882 -0.277133 -1.60424 0
M  V30 6066 O 581.071 -0.537831 -1.70205 0
M  V30 6067 C 578.171 -1.1144 -3.20054 0
M  V30 6068 C 577.344 -2.32734 -3.70342 0
M  V30 6069 C 576.403 -2.03002 -4.85465 0
M  V30 6070 O 575.429 -2.75912 -4.97857 0
M  V30 6071 N 576.631 -1.01105 -5.71627 0
M  V30 6072 H 579.396 -2.34215 -1.86985 0
M  V30 6073 H 576.957 -1.35091 -0.892301 0
M  V30 6074 H 578.949 -0.895265 -3.94673 0
M  V30 6075 H 577.519 -0.231307 -3.11743 0
M  V30 6076 H 576.739 -2.70446 -2.86798 0
M  V30 6077 H 578.027 -3.13584 -4.00678 0
M  V30 6078 H 577.425 -0.407303 -5.64232 0
M  V30 6079 H 575.982 -0.85182 -6.4621 0
M  V30 6080 N 579.415 0.9433 -1.26252 0
M  V30 6081 C 580.325 2.07532 -1.09397 0
M  V30 6082 C 581.341 1.73977 -0.0280449 0
M  V30 6083 O 582.517 2.00067 -0.231337 0
M  V30 6084 C 579.582 3.39002 -0.726523 0
M  V30 6085 C 578.643 3.86353 -1.87163 0
M  V30 6086 C 577.876 5.11549 -1.52162 0
M  V30 6087 O 578.099 5.68834 -0.422385 0
M  V30 6088 O 577.033 5.53889 -2.35565 0
M  V30 6089 H 580.859 2.24658 -2.04359 0
M  V30 6090 H 578.444 1.05988 -1.05295 0
M  V30 6091 H 580.326 4.18 -0.534236 0
M  V30 6092 H 579.001 3.2312 0.193721 0
M  V30 6093 H 577.908 3.0831 -2.11886 0
M  V30 6094 H 579.241 4.06752 -2.77152 0
M  V30 6095 N 580.893 1.08022 1.14757 0
M  V30 6096 C 581.856 0.71048 2.1791 0
M  V30 6097 C 582.856 -0.252731 1.58801 0
M  V30 6098 O 584.046 -0.0327915 1.74169 0
M  V30 6099 C 581.178 0.0483203 3.40866 0
M  V30 6100 H 582.371 1.62384 2.52134 0
M  V30 6101 H 579.924 0.877595 1.29337 0
M  V30 6102 H 580.659 -0.876959 3.12218 0
M  V30 6103 H 580.444 0.741189 3.85031 0
M  V30 6104 H 581.934 -0.195471 4.17142 0
M  V30 6105 N 582.371 -1.3172 0.865308 0
M  V30 6106 C 583.301 -2.31109 0.333302 0
M  V30 6107 C 584.282 -1.60148 -0.573301 0
M  V30 6108 O 585.467 -1.87882 -0.491305 0
M  V30 6109 C 582.597 -3.44104 -0.470078 0
M  V30 6110 C 581.551 -4.26623 0.343021 0
M  V30 6111 C 580.877 -5.31482 -0.585756 0
M  V30 6112 C 582.177 -4.98001 1.57456 0
M  V30 6113 H 583.871 -2.75855 1.1638 0
M  V30 6114 H 581.417 -1.3262 0.561069 0
M  V30 6115 H 583.37 -4.12682 -0.852752 0
M  V30 6116 H 582.094 -2.98112 -1.33404 0
M  V30 6117 H 580.753 -3.59707 0.707583 0
M  V30 6118 H 580.401 -4.81741 -1.44686 0
M  V30 6119 H 580.101 -5.87582 -0.0456494 0
M  V30 6120 H 581.625 -6.0292 -0.965375 0
M  V30 6121 H 583.039 -5.59201 1.26359 0
M  V30 6122 H 581.436 -5.63876 2.05339 0
M  V30 6123 H 582.506 -4.25253 2.32997 0
M  V30 6124 N 583.85 -0.624285 -1.44708 0
M  V30 6125 C 584.812 0.0749638 -2.29077 0
M  V30 6126 C 585.812 0.778965 -1.40673 0
M  V30 6127 O 587.003 0.624591 -1.62618 0
M  V30 6128 C 584.135 1.11663 -3.22094 0
M  V30 6129 H 585.327 -0.667013 -2.92388 0
M  V30 6130 H 582.88 -0.384098 -1.51507 0
M  V30 6131 H 583.615 1.88881 -2.63618 0
M  V30 6132 H 583.401 0.61583 -3.87234 0
M  V30 6133 H 584.891 1.60585 -3.8549 0
M  V30 6134 N 585.328 1.53329 -0.364422 0
M  V30 6135 C 586.291 2.24323 0.470292 0
M  V30 6136 C 587.291 1.25068 1.01067 0
M  V30 6137 O 588.481 1.49354 0.896605 0
M  V30 6138 C 585.613 2.97908 1.65722 0
M  V30 6139 H 586.806 2.9952 -0.150917 0
M  V30 6140 H 584.359 1.55868 -0.116092 0
M  V30 6141 H 585.094 2.2695 2.31655 0
M  V30 6142 H 584.879 3.70732 1.27671 0
M  V30 6143 H 586.369 3.5188 2.24878 0
M  V30 6144 N 586.806 0.0935595 1.57322 0
M  V30 6145 C 588.031 -0.582324 1.99057 0
M  V30 6146 C 588.456 -1.61025 0.972242 0
M  V30 6147 O 587.814 -1.81202 -0.0594622 0
M  V30 6148 C 587.862 -1.20799 3.39765 0
M  V30 6149 O 586.966 -2.32382 3.40694 0
M  V30 6150 H 586.307 -0.147884 0.647323 0
M  V30 6151 H 588.837 0.174516 2.03854 0
M  V30 6152 H 588.847 -1.54966 3.77425 0
M  V30 6153 H 587.522 -0.454914 4.13405 0
M  V30 6154 H 586.099 -1.99845 3.14827 0
M  V30 6155 N 588.284 -1.56567 -0.180126 0
M  V30 6156 C 589.214 -1.98753 -1.22553 0
M  V30 6157 C 590.195 -0.86175 -1.46656 0
M  V30 6158 O 591.38 -1.12719 -1.58139 0
M  V30 6159 C 588.51 -2.33988 -2.56645 0
M  V30 6160 C 587.464 -3.49445 -2.47128 0
M  V30 6161 C 586.79 -3.70397 -3.8563 0
M  V30 6162 C 588.09 -4.83171 -1.98352 0
M  V30 6163 H 589.784 -2.86332 -0.874896 0
M  V30 6164 H 587.33 -1.37757 -0.419414 0
M  V30 6165 H 589.283 -2.62097 -3.29974 0
M  V30 6166 H 588.007 -1.43309 -2.93479 0
M  V30 6167 H 586.666 -3.2145 -1.76254 0
M  V30 6168 H 586.314 -2.77023 -4.19842 0
M  V30 6169 H 586.014 -4.48077 -3.80132 0
M  V30 6170 H 587.538 -4.00897 -4.60558 0
M  V30 6171 H 588.952 -5.10213 -2.61449 0
M  V30 6172 H 587.349 -5.64425 -2.03823 0
M  V30 6173 H 588.419 -4.75753 -0.937402 0
M  V30 6174 N 589.762 0.448376 -1.51087 0
M  V30 6175 C 590.71 1.56407 -1.72161 0
M  V30 6176 C 591.704 1.58878 -0.587721 0
M  V30 6177 O 592.91 1.62755 -0.768822 0
M  V30 6178 H 589.285 0.519423 -0.543786 0
M  V30 6179 H 591.256 1.35803 -2.65707 0
M  V30 6180 C 590.005 2.94163 -1.85373 0
M  V30 6181 H 589.328 2.9299 -2.72024 0
M  V30 6182 H 590.768 3.71625 -2.04135 0
M  V30 6183 C 589.227 3.31317 -0.610803 0
M  V30 6184 O 589.757 4.00985 0.239636 0
M  V30 6185 N 587.963 2.86966 -0.458127 0
M  V30 6186 H 587.51 2.30443 -1.15124 0
M  V30 6187 H 587.468 3.12188 0.372289 0
M  V30 6188 N 591.24 1.41047 0.703093 0
M  V30 6189 C 592.517 1.30493 1.45708 0
M  V30 6190 C 592.897 -0.0709892 2.10981 0
M  V30 6191 O 592.245 -1.08471 2.01113 0
M  V30 6192 C 592.455 2.45287 2.48265 0
M  V30 6193 C 593.803 2.86104 3.13735 0
M  V30 6194 O 594.827 2.44971 2.58587 0
M  V30 6195 O 593.686 3.57206 4.13601 0
M  V30 6196 H 590.78 0.513144 0.648546 0
M  V30 6197 H 593.326 1.52995 0.734208 0
M  V30 6198 H 592.098 3.37135 1.98635 0
M  V30 6199 H 591.721 2.24622 3.28071 0
M  V30 6200 N 592.718 -0.936591 1.26751 0
M  V30 6201 C 593.964 -1.6858 1.12733 0
M  V30 6202 C 594.297 -1.91414 -0.327745 0
M  V30 6203 O 593.572 -1.49812 -1.24043 0
M  V30 6204 C 593.855 -3.05779 1.90187 0
M  V30 6205 C 593.708 -2.90242 3.43627 0
M  V30 6206 C 595.027 -4.0597 1.69931 0
M  V30 6207 H 592.146 -0.61182 0.410908 0
M  V30 6208 H 594.788 -1.08747 1.55801 0
M  V30 6209 H 592.938 -3.56853 1.53584 0
M  V30 6210 H 594.61 -2.46354 3.9001 0
M  V30 6211 H 592.853 -2.2577 3.70419 0
M  V30 6212 H 593.524 -3.87572 3.93055 0
M  V30 6213 H 596 -3.63874 2.0183 0
M  V30 6214 H 594.876 -4.99974 2.26534 0
M  V30 6215 H 595.137 -4.37369 0.64502 0
M  V30 6216 N 594.196 -1.08629 -1.14182 0
M  V30 6217 C 595.607 -0.838003 -1.66836 0
M  V30 6218 C 595.958 0.634885 -1.85644 0
M  V30 6219 O 595.083 1.49008 -1.56926 0
M  V30 6220 C 595.678 -1.51465 -3.03058 0
M  V30 6221 C 594.237 -1.31355 -3.52736 0
M  V30 6222 C 593.384 -1.57599 -2.28162 0
M  V30 6223 H 596.335 -1.24656 -0.982165 0
M  V30 6224 H 596.356 -0.943134 -3.68626 0
M  V30 6225 H 595.868 -2.58661 -2.89337 0
M  V30 6226 H 593.969 -0.262384 -3.71675 0
M  V30 6227 H 594.082 -2.04275 -4.33369 0
M  V30 6228 H 592.446 -0.997659 -2.34348 0
M  V30 6229 H 593.229 -2.66006 -2.17015 0
M  V30 6230 N 595.674 1.31259 -0.872281 0
M  V30 6231 C 596.951 1.91362 -0.404943 0
M  V30 6232 C 597.331 1.79362 1.11321 0
M  V30 6233 O 596.679 1.20277 1.94283 0
M  V30 6234 C 596.889 3.3749 -0.888893 0
M  V30 6235 C 598.237 4.14593 -0.916384 0
M  V30 6236 O 599.261 3.46282 -0.834701 0
M  V30 6237 O 598.12 5.3661 -1.03498 0
M  V30 6238 H 595.214 0.818016 -0.121569 0
M  V30 6239 H 597.76 1.39912 -0.960346 0
M  V30 6240 H 596.532 3.40249 -1.93251 0
M  V30 6241 H 596.155 3.96375 -0.311932 0
M  V30 6242 N 597.152 0.631951 1.44375 0
M  V30 6243 C 598.084 -0.110911 2.28931 0
M  V30 6244 C 599.097 -0.808086 1.41329 0
M  V30 6245 O 600.286 -0.669396 1.65473 0
M  V30 6246 C 597.386 -1.17928 3.1772 0
M  V30 6247 C 596.559 -0.564458 4.33743 0
M  V30 6248 C 595.618 -1.5269 5.0356 0
M  V30 6249 O 594.644 -1.04372 5.59549 0
M  V30 6250 N 595.846 -2.86123 5.05088 0
M  V30 6251 H 598.611 0.614758 2.93327 0
M  V30 6252 H 596.172 0.473171 1.54831 0
M  V30 6253 H 598.164 -1.82348 3.61291 0
M  V30 6254 H 596.734 -1.80717 2.55069 0
M  V30 6255 H 595.954 0.258373 3.93352 0
M  V30 6256 H 597.242 -0.134355 5.08623 0
M  V30 6257 H 596.64 -3.27959 4.60933 0
M  V30 6258 H 595.197 -3.45901 5.52445 0
M  V30 6259 N 598.631 -1.53133 0.372548 0
M  V30 6260 C 600.042 -1.86404 -0.105155 0
M  V30 6261 C 600.393 -1.29289 -1.47576 0
M  V30 6262 O 599.518 -0.617646 -2.07398 0
M  V30 6263 C 600.113 -3.38223 -0.197588 0
M  V30 6264 C 598.672 -3.71266 -0.619556 0
M  V30 6265 C 597.819 -2.76353 0.228919 0
M  V30 6266 H 600.77 -1.47282 0.591077 0
M  V30 6267 H 600.791 -3.66577 -1.01987 0
M  V30 6268 H 600.303 -3.79763 0.800099 0
M  V30 6269 H 598.404 -3.35287 -1.62522 0
M  V30 6270 H 598.517 -4.77515 -0.389332 0
M  V30 6271 H 596.881 -2.52888 -0.303271 0
M  V30 6272 H 597.664 -3.20728 1.22428 0
M  V30 6273 N 600.109 -0.101901 -1.5727 0
M  V30 6274 C 601.358 0.559922 -1.93772 0
M  V30 6275 C 601.671 1.68913 -0.98629 0
M  V30 6276 O 602.877 2.41256 -1.24529 0
M  V30 6277 C 601.333 1.04739 -3.44322 0
M  V30 6278 C 600.941 -0.05243 -4.47969 0
M  V30 6279 C 602.685 1.68157 -3.89774 0
M  V30 6280 C 600.592 0.450781 -5.8968 0
M  V30 6281 H 599.522 0.212931 -0.723309 0
M  V30 6282 H 602.173 -0.179001 -1.82625 0
M  V30 6283 H 600.555 1.84021 -3.50645 0
M  V30 6284 H 601.729 -0.828157 -4.53297 0
M  V30 6285 H 600.044 -0.592202 -4.12167 0
M  V30 6286 H 602.641 2.0689 -4.93052 0
M  V30 6287 H 602.984 2.55338 -3.28798 0
M  V30 6288 H 603.517 0.954453 -3.8618 0
M  V30 6289 H 600.256 -0.38458 -6.54371 0
M  V30 6290 H 599.776 1.19336 -5.87809 0
M  V30 6291 H 601.455 0.917555 -6.40461 0
M  V30 6292 N 601.587 1.56661 0.17182 0
M  V30 6293 C 602.833 1.82235 0.889845 0
M  V30 6294 C 603.166 0.679673 1.81918 0
M  V30 6295 O 602.441 -0.318404 1.91876 0
M  V30 6296 C 602.724 3.18195 1.68595 0
M  V30 6297 C 602.577 4.42989 0.779773 0
M  V30 6298 C 603.896 3.5109 2.65375 0
M  V30 6299 H 601.015 0.66291 0.322056 0
M  V30 6300 H 603.657 1.89358 0.15608 0
M  V30 6301 H 601.807 3.12253 2.3115 0
M  V30 6302 H 603.479 4.60997 0.16714 0
M  V30 6303 H 601.722 4.33711 0.0877964 0
M  V30 6304 H 602.393 5.3467 1.3723 0
M  V30 6305 H 604.869 3.57482 2.12946 0
M  V30 6306 H 603.745 4.47298 3.18144 0
M  V30 6307 H 604.006 2.75768 3.45549 0
M  V30 6308 N 603.065 -0.440357 1.51323 0
M  V30 6309 C 604.314 -1.18697 1.63076 0
M  V30 6310 C 604.627 -1.92418 0.35136 0
M  V30 6311 O 605.833 -2.69258 0.348221 0
M  V30 6312 C 604.289 -2.15849 2.87988 0
M  V30 6313 C 603.897 -1.47789 4.22921 0
M  V30 6314 C 605.641 -2.90962 3.09098 0
M  V30 6315 C 603.548 -2.43407 5.38987 0
M  V30 6316 H 602.478 -0.44676 0.607389 0
M  V30 6317 H 605.129 -0.454313 1.77787 0
M  V30 6318 H 603.511 -2.92537 2.66905 0
M  V30 6319 H 604.685 -0.7668 4.54375 0
M  V30 6320 H 603 -0.848404 4.07665 0
M  V30 6321 H 605.597 -3.62584 3.92985 0
M  V30 6322 H 605.94 -3.52133 2.22053 0
M  V30 6323 H 606.473 -2.21381 3.30507 0
M  V30 6324 H 603.212 -1.86929 6.28282 0
M  V30 6325 H 602.732 -3.12579 5.11913 0
M  V30 6326 H 604.411 -3.046 5.70813 0
M  V30 6327 N 604.543 -1.41418 -0.695603 0
M  V30 6328 C 605.771 -1.4413 -1.48439 0
M  V30 6329 C 606.186 -0.0465698 -1.88743 0
M  V30 6330 O 605.543 0.934117 -1.56782 0
M  V30 6331 C 605.594 -2.34998 -2.74696 0
M  V30 6332 O 605.315 -3.69043 -2.36091 0
M  V30 6333 C 606.816 -2.46513 -3.68438 0
M  V30 6334 H 604.036 -0.490905 -0.457442 0
M  V30 6335 H 606.58 -1.85702 -0.856454 0
M  V30 6336 H 604.735 -1.96735 -3.33728 0
M  V30 6337 H 605.149 -4.17505 -3.17474 0
M  V30 6338 H 606.623 -3.1426 -4.53811 0
M  V30 6339 H 607.1 -1.49638 -4.12922 0
M  V30 6340 H 607.706 -2.85412 -3.1531 0
M  V30 6341 N 606.021 0.929856 -1.27246 0
M  V30 6342 C 607.269 1.674 -1.13233 0
M  V30 6343 C 607.59 1.92311 0.322744 0
M  V30 6344 O 606.86 1.52784 1.22612 0
M  V30 6345 H 605.44 0.620411 -0.416052 0
M  V30 6346 H 608.102 1.11663 -1.59741 0
M  V30 6347 H 607.198 2.64308 -1.65975 0
M  V30 6348 N 607.499 1.09233 1.13605 0
M  V30 6349 C 608.724 0.849067 1.89224 0
M  V30 6350 C 609.149 -0.593875 1.78479 0
M  V30 6351 O 608.507 -1.41703 1.13092 0
M  V30 6352 C 608.555 1.28642 3.36873 0
M  V30 6353 O 607.659 0.44363 4.10007 0
M  V30 6354 H 607 0.30767 0.588417 0
M  V30 6355 H 609.53 1.45595 1.43748 0
M  V30 6356 H 609.54 1.27096 3.87699 0
M  V30 6357 H 608.215 2.33729 3.44011 0
M  V30 6358 H 606.792 0.523241 3.69211 0
M  V30 6359 N 608.977 -1.30795 0.87923 0
M  V30 6360 C 609.907 -2.30742 0.357796 0
M  V30 6361 C 610.888 -1.60747 -0.556283 0
M  V30 6362 O 612.073 -1.88393 -0.47135 0
M  V30 6363 C 609.203 -3.44583 -0.433555 0
M  V30 6364 C 608.157 -4.26235 0.388251 0
M  V30 6365 C 607.483 -5.32073 -0.529352 0
M  V30 6366 C 608.783 -4.96303 1.62729 0
M  V30 6367 H 610.477 -2.74605 1.19299 0
M  V30 6368 H 608.023 -1.32017 0.575104 0
M  V30 6369 H 609.976 -4.13563 -0.808934 0
M  V30 6370 H 608.7 -2.99511 -1.30234 0
M  V30 6371 H 607.359 -3.58936 0.745695 0
M  V30 6372 H 607.007 -4.83249 -1.39569 0
M  V30 6373 H 606.707 -5.87598 0.0166741 0
M  V30 6374 H 608.231 -6.0391 -0.901373 0
M  V30 6375 H 609.645 -5.5783 1.32283 0
M  V30 6376 H 608.042 -5.61666 2.11309 0
M  V30 6377 H 609.112 -4.22758 2.37494 0
M  V30 6378 N 610.455 -0.639598 -1.44038 0
M  V30 6379 C 611.685 -0.154586 -2.06021 0
M  V30 6380 C 612.093 1.17951 -1.47933 0
M  V30 6381 O 611.436 1.73627 -0.59994 0
M  V30 6382 C 611.498 0.0255459 -3.59491 0
M  V30 6383 C 611.162 -1.2317 -4.40089 0
M  V30 6384 C 612.159 -2.15735 -4.73027 0
M  V30 6385 C 609.844 -1.46949 -4.80324 0
M  V30 6386 C 611.838 -3.30382 -5.45093 0
M  V30 6387 C 609.525 -2.61891 -5.52138 0
M  V30 6388 C 610.523 -3.53433 -5.84443 0
M  V30 6389 O 610.211 -4.6637 -6.54793 0
M  V30 6390 H 609.943 -0.0808543 -0.671147 0
M  V30 6391 H 612.497 -0.876541 -1.85758 0
M  V30 6392 H 610.727 0.802733 -3.78276 0
M  V30 6393 H 612.416 0.466184 -4.03214 0
M  V30 6394 H 613.182 -1.98602 -4.42473 0
M  V30 6395 H 609.061 -0.765815 -4.54595 0
M  V30 6396 H 612.605 -4.01856 -5.70226 0
M  V30 6397 H 608.502 -2.78964 -5.82108 0
M  V30 6398 H 609.27 -4.6546 -6.73267 0
M  V30 6399 N 611.933 1.52934 -0.380664 0
M  V30 6400 C 612.863 2.29118 0.450268 0
M  V30 6401 C 613.844 1.32153 1.07096 0
M  V30 6402 O 615.029 1.61038 1.08537 0
M  V30 6403 C 612.159 3.09161 1.58231 0
M  V30 6404 C 611.113 4.13938 1.0881 0
M  V30 6405 C 610.439 4.82153 2.31155 0
M  V30 6406 C 611.739 5.22048 0.162146 0
M  V30 6407 H 613.433 2.98826 -0.185361 0
M  V30 6408 H 610.979 1.43715 -0.0905886 0
M  V30 6409 H 612.932 3.61211 2.17036 0
M  V30 6410 H 611.656 2.3717 2.2454 0
M  V30 6411 H 610.315 3.62855 0.522633 0
M  V30 6412 H 609.963 4.06719 2.95953 0
M  V30 6413 H 609.663 5.52966 1.98752 0
M  V30 6414 H 611.187 5.37004 2.90618 0
M  V30 6415 H 612.601 5.6951 0.658126 0
M  V30 6416 H 610.998 6.00057 -0.0717122 0
M  V30 6417 H 612.068 4.78398 -0.791438 0
M  V30 6418 N 613.412 0.11024 1.57214 0
M  V30 6419 C 614.375 -0.828808 2.1369 0
M  V30 6420 C 615.375 -1.20059 1.06969 0
M  V30 6421 O 616.565 -1.12754 1.32786 0
M  V30 6422 C 613.697 -2.11959 2.66994 0
M  V30 6423 H 614.89 -0.338146 2.97988 0
M  V30 6424 H 612.443 -0.138913 1.55681 0
M  V30 6425 H 613.178 -2.65476 1.8626 0
M  V30 6426 H 612.963 -1.86258 3.45037 0
M  V30 6427 H 614.453 -2.79105 3.10629 0
M  V30 6428 N 614.89 -1.56749 -0.16351 0
M  V30 6429 C 616.115 -1.86938 -0.898264 0
M  V30 6430 C 616.54 -0.697456 -1.74692 0
M  V30 6431 O 615.898 0.353327 -1.77824 0
M  V30 6432 C 615.946 -3.15599 -1.74441 0
M  V30 6433 O 615.05 -2.98371 -2.8469 0
M  V30 6434 H 614.391 -0.614659 -0.251178 0
M  V30 6435 H 616.921 -2.03979 -0.159298 0
M  V30 6436 H 616.931 -3.47202 -2.14277 0
M  V30 6437 H 615.606 -4.00505 -1.1211 0
M  V30 6438 H 614.183 -2.7814 -2.4838 0
M  V30 6439 N 616.368 0.432326 -1.51554 0
M  V30 6440 C 617.331 1.50765 -1.72634 0
M  V30 6441 C 618.331 1.49334 -0.596314 0
M  V30 6442 O 619.521 1.51268 -0.863925 0
M  V30 6443 C 616.653 2.90284 -1.7874 0
M  V30 6444 H 617.846 1.33377 -2.68609 0
M  V30 6445 H 615.399 0.661329 -1.4162 0
M  V30 6446 H 616.134 3.13071 -0.845977 0
M  V30 6447 H 615.919 2.92727 -2.6087 0
M  V30 6448 H 617.409 3.68282 -1.96871 0
M  V30 6449 N 617.846 1.41785 0.688094 0
M  V30 6450 C 619.092 1.41753 1.4503 0
M  V30 6451 C 619.425 0.0290745 1.94178 0
M  V30 6452 O 618.7 -0.944456 1.7003 0
M  V30 6453 C 618.983 2.43069 2.65686 0
M  V30 6454 C 618.836 3.91053 2.22256 0
M  V30 6455 C 620.155 2.41543 3.67893 0
M  V30 6456 H 617.274 0.516202 0.526027 0
M  V30 6457 H 619.916 1.73111 0.783105 0
M  V30 6458 H 618.066 2.1646 3.2261 0
M  V30 6459 H 619.738 4.28594 1.70602 0
M  V30 6460 H 617.981 4.05559 1.53963 0
M  V30 6461 H 618.652 4.57501 3.08863 0
M  V30 6462 H 621.128 2.65175 3.20658 0
M  V30 6463 H 620.004 3.14434 4.49914 0
M  V30 6464 H 620.265 1.43666 4.18106 0
M  V30 6465 N 619.324 -0.923095 1.27737 0
M  V30 6466 C 620.74 -1.19985 1.05241 0
M  V30 6467 C 620.94 -2.00391 -0.21113 0
M  V30 6468 O 619.996 -2.35324 -0.915366 0
M  V30 6469 C 621.309 -1.94352 2.29451 0
M  V30 6470 C 622.857 -2.07273 2.34536 0
M  V30 6471 C 623.332 -2.85046 3.58487 0
M  V30 6472 N 624.823 -2.92612 3.59072 0
M  V30 6473 C 625.558 -3.53266 4.51654 0
M  V30 6474 N 625.054 -4.15274 5.54545 0
M  V30 6475 N 626.847 -3.50714 4.39268 0
M  V30 6476 H 618.998 -0.386042 2.08862 0
M  V30 6477 H 621.261 -0.233407 0.918817 0
M  V30 6478 H 620.967 -1.42692 3.21453 0
M  V30 6479 H 620.841 -2.94947 2.3513 0
M  V30 6480 H 623.228 -2.58117 1.43037 0
M  V30 6481 H 623.309 -1.05884 2.32857 0
M  V30 6482 H 622.953 -2.34884 4.50324 0
M  V30 6483 H 622.883 -3.8673 3.57418 0
M  V30 6484 H 625.374 -2.48547 2.84663 0
M  V30 6485 H 625.687 -4.59507 6.21348 0
M  V30 6486 H 624.032 -4.13806 5.58382 0
M  V30 6487 H 627.223 -3.01475 3.58093 0
M  V30 6488 H 627.396 -3.97693 5.1161 0
M  V30 6489 N 620.802 -1.09834 -1.13024 0
M  V30 6490 C 621.734 -0.699379 -2.18269 0
M  V30 6491 C 622.747 0.260841 -1.60697 0
M  V30 6492 O 623.936 0.0462538 -1.7844 0
M  V30 6493 C 621.036 -0.0104537 -3.38898 0
M  V30 6494 C 620.209 -0.993275 -4.25973 0
M  V30 6495 C 619.268 -0.336982 -5.2512 0
M  V30 6496 O 618.294 -0.985892 -5.60597 0
M  V30 6497 N 619.496 0.90716 -5.73368 0
M  V30 6498 H 622.261 -1.60486 -2.5311 0
M  V30 6499 H 619.822 -0.986337 -1.28386 0
M  V30 6500 H 621.814 0.43991 -4.02302 0
M  V30 6501 H 620.384 0.797335 -3.0226 0
M  V30 6502 H 619.604 -1.62208 -3.5928 0
M  V30 6503 H 620.892 -1.65876 -4.81002 0
M  V30 6504 H 620.29 1.45384 -5.46699 0
M  V30 6505 H 618.847 1.30077 -6.38689 0
M  V30 6506 N 622.28 1.30327 -0.886154 0
M  V30 6507 C 623.508 2.00254 -0.520176 0
M  V30 6508 C 623.923 1.66419 0.891637 0
M  V30 6509 O 623.28 0.901951 1.58654 0
M  V30 6510 C 623.331 3.54916 -0.686775 0
M  V30 6511 O 623.052 3.87547 -2.04301 0
M  V30 6512 C 624.553 4.42115 -0.323945 0
M  V30 6513 H 621.773 0.640204 -0.200947 0
M  V30 6514 H 624.317 1.66183 -1.19178 0
M  V30 6515 H 622.472 3.8735 -0.0625273 0
M  V30 6516 H 622.886 4.82247 -2.06249 0
M  V30 6517 H 624.36 5.49808 -0.491407 0
M  V30 6518 H 624.837 4.32953 0.73811 0
M  V30 6519 H 625.443 4.15129 -0.924565 0
M  V30 6520 N 623.758 0.647228 1.43697 0
M  V30 6521 C 624.688 -0.0345631 2.33474 0
M  V30 6522 C 625.669 -0.818193 1.4913 0
M  V30 6523 O 626.854 -0.780867 1.77809 0
M  V30 6524 C 623.984 -1.00576 3.32418 0
M  V30 6525 C 622.938 -0.33266 4.26705 0
M  V30 6526 C 622.264 -1.41489 5.1564 0
M  V30 6527 C 623.564 0.771204 5.16575 0
M  V30 6528 H 625.258 0.715163 2.90733 0
M  V30 6529 H 622.804 0.345364 1.39797 0
M  V30 6530 H 624.757 -1.49159 3.94119 0
M  V30 6531 H 623.481 -1.78657 2.73403 0
M  V30 6532 H 622.14 0.13267 3.6636 0
M  V30 6533 H 621.788 -2.18698 4.52968 0
M  V30 6534 H 621.488 -0.969799 5.79542 0
M  V30 6535 H 623.012 -1.9022 5.80214 0
M  V30 6536 H 624.426 0.36779 5.72119 0
M  V30 6537 H 622.823 1.1404 5.89165 0
M  V30 6538 H 623.893 1.63169 4.56622 0
M  V30 6539 N 625.236 -1.5273 0.388769 0
M  V30 6540 C 626.166 -2.29353 -0.438111 0
M  V30 6541 C 627.147 -1.32719 -1.06394 0
M  V30 6542 O 628.332 -1.61612 -1.07681 0
M  V30 6543 C 625.462 -3.09995 -1.56589 0
M  V30 6544 C 624.416 -4.14509 -1.06613 0
M  V30 6545 C 623.742 -4.83372 -2.28594 0
M  V30 6546 C 625.042 -5.22127 -0.134459 0
M  V30 6547 H 626.736 -2.98723 0.201206 0
M  V30 6548 H 624.282 -1.43665 0.0982089 0
M  V30 6549 H 626.235 -3.62357 -2.15118 0
M  V30 6550 H 624.959 -2.38357 -2.23279 0
M  V30 6551 H 623.618 -3.63128 -0.503383 0
M  V30 6552 H 623.266 -4.08283 -2.93792 0
M  V30 6553 H 622.966 -5.54012 -1.95817 0
M  V30 6554 H 624.49 -5.38538 -2.87766 0
M  V30 6555 H 625.904 -5.69851 -0.627914 0
M  V30 6556 H 624.301 -6.00011 0.103534 0
M  V30 6557 H 625.371 -4.77971 0.816798 0
M  V30 6558 N 626.714 -0.118576 -1.57153 0
M  V30 6559 C 627.962 0.538461 -1.94795 0
M  V30 6560 C 628.283 1.67243 -1.00274 0
M  V30 6561 O 627.553 1.95811 -0.0589692 0
M  V30 6562 H 626.133 0.201904 -0.719197 0
M  V30 6563 H 628.795 -0.187418 -1.93997 0
M  V30 6564 H 627.891 0.933315 -2.97818 0
M  V30 6565 N 628.193 1.56834 0.155195 0
M  V30 6566 C 629.441 1.82536 0.867462 0
M  V30 6567 C 629.762 0.698168 1.82073 0
M  V30 6568 O 629.032 -0.280807 1.93877 0
M  V30 6569 H 627.612 0.673401 0.323327 0
M  V30 6570 H 630.274 1.94313 0.151156 0
M  V30 6571 H 629.37 2.77171 1.43466 0
M  V30 6572 N 629.671 -0.424282 1.51781 0
M  V30 6573 C 630.618 -1.51591 1.74037 0
M  V30 6574 C 631.588 -1.55556 0.582358 0
M  V30 6575 O 632.773 -1.72364 0.818245 0
M  V30 6576 C 629.913 -2.89188 1.8832 0
M  V30 6577 C 629.026 -2.9465 3.1592 0
M  V30 6578 C 628.161 -4.23452 3.20721 0
M  V30 6579 C 627.2 -4.22831 4.42584 0
M  V30 6580 N 626.337 -5.43178 4.44862 0
M  V30 6581 H 631.177 -1.31917 2.67212 0
M  V30 6582 H 628.714 -0.640599 1.32419 0
M  V30 6583 H 630.672 -3.69044 1.94583 0
M  V30 6584 H 629.302 -3.07392 0.985402 0
M  V30 6585 H 628.354 -2.07378 3.18902 0
M  V30 6586 H 629.666 -2.90055 4.05795 0
M  V30 6587 H 628.82 -5.1169 3.25973 0
M  V30 6588 H 627.559 -4.30722 2.28757 0
M  V30 6589 H 626.564 -3.32984 4.37495 0
M  V30 6590 H 627.789 -4.17213 5.35826 0
M  V30 6591 H 625.735 -5.51145 3.55775 0
M  V30 6592 H 625.652 -5.40515 5.28563 0
M  V30 6593 H 626.92 -6.33412 4.54324 0
M  V30 6594 N 631.149 -1.42148 -0.680565 0
M  V30 6595 C 632.374 -1.45901 -1.47403 0
M  V30 6596 C 632.799 -0.0700985 -1.87969 0
M  V30 6597 O 632.157 0.930145 -1.55621 0
M  V30 6598 C 632.205 -2.38661 -2.70321 0
M  V30 6599 O 631.309 -1.85399 -3.68376 0
M  V30 6600 H 630.65 -0.494565 -0.443059 0
M  V30 6601 H 633.18 -1.86774 -0.835251 0
M  V30 6602 H 633.19 -2.55046 -3.18458 0
M  V30 6603 H 631.865 -3.39571 -2.40134 0
M  V30 6604 H 630.442 -1.78541 -3.2738 0
M  V30 6605 O 632.666 0.823011 -1.38956 0
M  V30 6606 H 633.357 1.46633 -1.26564 0
M  V30 END ATOM
M  V30 BEGIN BOND
M  V30 END BOND
M  V30 END CTAB
M  END
$$$$
