drugbank_target|P36969 Phospholipid hydroperoxide glutathione peroxidase, mitochondrial (DB00143; DB03310)
 OpenBabel12092119483D

  0  0  0     0  0            999 V3000
M  V30 BEGIN CTAB
M  V30 COUNTS 3096 3133 0 0 0
M  V30 BEGIN ATOM
M  V30 1 H -0.908 1.98254 -0.117106 0
M  V30 2 N 0 1.576 0 0
M  V30 3 C 0.933 2.03868 1.02534 0
M  V30 4 C 1.911 0.928543 1.3348 0
M  V30 5 O 3.095 1.19667 1.45644 0
M  V30 6 C 0.222 2.43627 2.35294 0
M  V30 7 C -0.732 3.65373 2.2001 0
M  V30 8 S 0.101 5.13292 1.52614 0
M  V30 9 C 1.257 5.56322 2.86805 0
M  V30 10 H 1.49 2.90518 0.631377 0
M  V30 11 H -0.977 1.52953 0.210867 0
M  V30 12 H 0.981 2.67203 3.11629 0
M  V30 13 H -0.358 1.57376 2.7183 0
M  V30 14 H -1.165 3.90944 3.18086 0
M  V30 15 H -1.563 3.418 1.51819 0
M  V30 16 H 0.729 5.58782 3.83104 0
M  V30 17 H 1.672 6.56266 2.65933 0
M  V30 18 H 2.08 4.83886 2.90714 0
M  V30 19 N 1.4781 -0.272755 1.55222 0
M  V30 20 C 2.7031 -1.02683 1.80197 0
M  V30 21 C 3.1281 -1.79142 0.573551 0
M  V30 22 O 2.4861 -1.74917 -0.476849 0
M  V30 23 C 2.5341 -1.9609 3.02624 0
M  V30 24 O 1.6381 -3.04863 2.77727 0
M  V30 25 H 0.9791 -0.293557 0.595584 0
M  V30 26 H 3.5091 -0.30159 2.02365 0
M  V30 27 H 3.5191 -2.38039 3.31363 0
M  V30 28 H 2.1941 -1.39851 3.91682 0
M  V30 29 H 0.7711 -2.67228 2.60084 0
M  V30 30 N 2.9562 -1.48159 -0.537278 0
M  V30 31 C 3.8862 -1.65029 -1.6519 0
M  V30 32 C 4.8672 -0.499281 -1.62607 0
M  V30 33 O 6.0522 -0.730972 -1.79918 0
M  V30 34 C 3.1822 -1.68303 -3.03795 0
M  V30 35 C 2.1362 -2.8283 -3.21234 0
M  V30 36 C 1.4622 -2.71189 -4.60826 0
M  V30 37 C 2.7622 -4.24211 -3.04701 0
M  V30 38 H 4.4562 -2.58341 -1.51328 0
M  V30 39 H 2.0022 -1.24325 -0.726585 0
M  V30 40 H 3.9552 -1.78693 -3.81637 0
M  V30 41 H 2.6792 -0.715635 -3.18663 0
M  V30 42 H 1.3382 -2.71983 -2.45807 0
M  V30 43 H 0.9862 -1.72435 -4.7252 0
M  V30 44 H 0.6862 -3.48035 -4.7344 0
M  V30 45 H 2.2102 -2.83537 -5.40777 0
M  V30 46 H 3.6242 -4.3593 -3.72341 0
M  V30 47 H 2.0212 -5.01998 -3.28813 0
M  V30 48 H 3.0912 -4.41184 -2.01209 0
M  V30 49 N 4.4343 0.785586 -1.36625 0
M  V30 50 C 5.6823 1.54057 -1.30808 0
M  V30 51 C 6.0033 1.94683 0.111157 0
M  V30 52 O 5.2733 1.65241 1.05224 0
M  V30 53 H 3.8533 0.571354 -0.481211 0
M  V30 54 H 6.5153 0.935821 -1.70963 0
M  V30 55 H 5.6113 2.44637 -1.93801 0
M  V30 56 N 5.9124 1.20967 1.01018 0
M  V30 57 C 7.3284 0.965905 1.27053 0
M  V30 58 C 7.5284 -0.350785 1.98423 0
M  V30 59 O 6.5844 -1.07773 2.28344 0
M  V30 60 C 7.8974 2.15294 2.09926 0
M  V30 61 C 9.4454 2.19463 2.23171 0
M  V30 62 C 9.9204 3.3767 3.09424 0
M  V30 63 N 11.4114 3.37724 3.17012 0
M  V30 64 C 12.1464 4.25837 3.83993 0
M  V30 65 N 11.6424 5.24138 4.53047 0
M  V30 66 N 13.4354 4.1366 3.80581 0
M  V30 67 H 5.5864 2.0565 0.531194 0
M  V30 68 H 7.8494 0.90024 0.297106 0
M  V30 69 H 7.5554 3.10684 1.64828 0
M  V30 70 H 7.4294 2.13923 3.10672 0
M  V30 71 H 9.8164 1.24632 2.6749 0
M  V30 72 H 9.8974 2.2488 1.21912 0
M  V30 73 H 9.5414 4.32791 2.65808 0
M  V30 74 H 9.4714 3.29491 4.10784 0
M  V30 75 H 11.9624 2.6658 2.6785 0
M  V30 76 H 12.2754 5.87684 5.01844 0
M  V30 77 H 10.6204 5.28068 4.5185 0
M  V30 78 H 13.8114 3.36127 3.25785 0
M  V30 79 H 13.9844 4.82538 4.32505 0
M  V30 80 N 7.3905 -1.2043 1.01659 0
M  V30 81 C 8.3205 -2.25466 0.607226 0
M  V30 82 C 9.3015 -1.65853 -0.377716 0
M  V30 83 O 10.4865 -1.92409 -0.263149 0
M  V30 84 C 7.6165 -3.47256 -0.0552949 0
M  V30 85 C 6.5705 -4.19462 0.850632 0
M  V30 86 C 5.8965 -5.34673 0.0538859 0
M  V30 87 C 7.1965 -4.75603 2.15868 0
M  V30 88 H 8.8905 -2.59962 1.48526 0
M  V30 89 H 6.4365 -1.2496 0.715605 0
M  V30 90 H 8.3895 -4.19917 -0.353233 0
M  V30 91 H 7.1135 -3.11924 -0.968045 0
M  V30 92 H 5.7725 -3.48667 1.13257 0
M  V30 93 H 5.4205 -4.95585 -0.860514 0
M  V30 94 H 5.1205 -5.83913 0.657192 0
M  V30 95 H 6.6445 -6.10138 -0.237598 0
M  V30 96 H 8.0585 -5.40083 1.92311 0
M  V30 97 H 6.4555 -5.3528 2.71284 0
M  V30 98 H 7.5255 -3.94346 2.82169 0
M  V30 99 N 8.8686 -0.792821 -1.36206 0
M  V30 100 C 10.1086 -0.372238 -2.00982 0
M  V30 101 C 10.4726 1.03749 -1.61555 0
M  V30 102 O 11.6736 1.55934 -2.18948 0
M  V30 103 C 9.9446 -0.534566 -3.5338 0
M  V30 104 S 11.5036 -0.202365 -4.38333 0
M  V30 105 H 8.3216 -0.142044 -0.696667 0
M  V30 106 H 10.9236 -1.03206 -1.66039 0
M  V30 107 H 9.6276 -1.5608 -3.79562 0
M  V30 108 H 9.1586 0.141065 -3.93147 0
M  V30 109 H 11.1736 0.994869 -4.86124 0
M  V30 110 N 10.3467 1.47872 -0.545128 0
M  V30 111 C 11.7627 1.5829 -0.204032 0
M  V30 112 C 11.9627 1.54529 1.29317 0
M  V30 113 O 11.0187 1.44232 2.07252 0
M  V30 114 C 12.3317 2.89304 -0.819987 0
M  V30 115 C 13.8797 3.02864 -0.790105 0
M  V30 116 C 14.3547 4.3656 -1.38491 0
M  V30 117 N 15.8457 4.43165 -1.34755 0
M  V30 118 C 16.5807 5.45153 -1.77753 0
M  V30 119 N 16.0767 6.54016 -2.2855 0
M  V30 120 N 17.8697 5.36125 -1.68897 0
M  V30 121 H 10.0207 1.4856 -1.51802 0
M  V30 122 H 12.2837 0.706305 -0.632327 0
M  V30 123 H 11.9897 2.97757 -1.87173 0
M  V30 124 H 11.8637 3.75957 -0.305915 0
M  V30 125 H 14.2507 2.94014 0.252913 0
M  V30 126 H 14.3317 2.17782 -1.34181 0
M  V30 127 H 13.9757 4.46164 -2.42693 0
M  V30 128 H 13.9057 5.20353 -0.808754 0
M  V30 129 H 16.3967 3.65083 -0.975855 0
M  V30 130 H 16.7097 7.27994 -2.59314 0
M  V30 131 H 15.0547 6.54938 -2.32553 0
M  V30 132 H 18.2457 4.49975 -1.28998 0
M  V30 133 H 18.4187 6.15472 -2.02726 0
M  V30 134 N 11.8248 0.280983 1.55075 0
M  V30 135 C 12.7548 -0.597469 2.25727 0
M  V30 136 C 13.7358 -1.15417 1.24952 0
M  V30 137 O 14.9208 -1.18722 1.53684 0
M  V30 138 C 12.0508 -1.7789 2.98283 0
M  V30 139 C 11.0048 -1.35347 4.06036 0
M  V30 140 C 10.3308 -2.61846 4.66198 0
M  V30 141 C 11.6308 -0.499354 5.19907 0
M  V30 142 H 13.3248 -0.00824265 2.99399 0
M  V30 143 H 10.8708 -0.0025244 1.44 0
M  V30 144 H 12.8238 -2.39937 3.46422 0
M  V30 145 H 11.5478 -2.39405 2.22155 0
M  V30 146 H 10.2068 -0.756156 3.58717 0
M  V30 147 H 9.8548 -3.21632 3.86732 0
M  V30 148 H 9.5548 -2.3409 5.38958 0
M  V30 149 H 11.0788 -3.24732 5.1709 0
M  V30 150 H 12.4928 -1.02498 5.64063 0
M  V30 151 H 10.8898 -0.316424 5.99265 0
M  V30 152 H 11.9598 0.480459 4.82514 0
M  V30 153 N 13.3029 -1.57598 0.00835791 0
M  V30 154 C 14.2329 -2.1198 -0.979113 0
M  V30 155 C 15.2139 -1.03091 -1.35301 0
M  V30 156 O 16.3989 -1.30818 -1.43528 0
M  V30 157 C 13.5289 -2.62995 -2.26828 0
M  V30 158 C 12.4829 -3.76485 -2.03576 0
M  V30 159 C 11.8089 -4.13846 -3.38579 0
M  V30 160 C 13.1089 -5.0342 -1.39161 0
M  V30 161 H 14.8029 -2.94738 -0.526281 0
M  V30 162 H 12.3489 -1.41783 -0.251704 0
M  V30 163 H 14.3019 -2.99669 -2.96271 0
M  V30 164 H 13.0259 -1.7737 -2.7424 0
M  V30 165 H 11.6849 -3.40217 -1.36557 0
M  V30 166 H 11.3329 -3.25232 -3.83709 0
M  V30 167 H 11.0329 -4.90312 -3.23834 0
M  V30 168 H 12.5569 -4.53086 -4.09323 0
M  V30 169 H 13.9709 -5.37812 -1.98573 0
M  V30 170 H 12.3679 -5.84746 -1.34878 0
M  V30 171 H 13.4379 -4.83548 -0.361868 0
M  V30 172 N 14.781 0.264519 -1.55364 0
M  V30 173 C 15.728 1.32717 -1.88825 0
M  V30 174 C 16.698 1.48675 -0.740605 0
M  V30 175 O 17.883 1.62945 -0.992657 0
M  V30 176 C 15.023 2.68089 -2.17307 0
M  V30 177 C 14.136 2.60284 -3.44785 0
M  V30 178 C 13.271 3.87892 -3.62924 0
M  V30 179 C 12.31 3.74631 -4.84064 0
M  V30 180 N 11.447 4.94092 -4.98816 0
M  V30 181 H 16.287 1.03481 -2.79456 0
M  V30 182 H 13.824 0.499757 -1.3835 0
M  V30 183 H 15.782 3.46864 -2.31821 0
M  V30 184 H 14.412 2.95509 -1.299 0
M  V30 185 H 13.464 1.73173 -3.38697 0
M  V30 186 H 14.776 2.46388 -4.33698 0
M  V30 187 H 13.93 4.75109 -3.77302 0
M  V30 188 H 12.669 4.04664 -2.7221 0
M  V30 189 H 11.674 2.85797 -4.69681 0
M  V30 190 H 12.899 3.5937 -5.76221 0
M  V30 191 H 10.845 5.11259 -4.11036 0
M  V30 192 H 10.762 4.8276 -5.81789 0
M  V30 193 H 12.03 5.82857 -5.17588 0
M  V30 194 N 16.2591 1.48442 0.529413 0
M  V30 195 C 17.6701 1.5002 1.11134 0
M  V30 196 C 18.0211 0.27031 1.94329 0
M  V30 197 O 17.1461 -0.622507 2.07253 0
M  V30 198 C 17.7411 2.71834 2.02217 0
M  V30 199 C 16.3001 2.76283 2.55627 0
M  V30 200 C 15.4471 2.43542 1.326 0
M  V30 201 H 18.3981 1.5555 0.314641 0
M  V30 202 H 18.4191 2.50384 2.8651 0
M  V30 203 H 17.9311 3.61331 1.41639 0
M  V30 204 H 16.0321 1.90995 3.19924 0
M  V30 205 H 16.1451 3.77725 2.94721 0
M  V30 206 H 14.5091 1.94709 1.64196 0
M  V30 207 H 15.2921 3.3528 0.737734 0
M  V30 208 N 17.7372 -0.778329 1.37039 0
M  V30 209 C 18.7002 -1.87301 1.32102 0
M  V30 210 C 19.7002 -1.59198 0.226405 0
M  V30 211 O 20.8902 -1.67403 0.481861 0
M  V30 212 C 18.0222 -3.24309 1.05055 0
M  V30 213 H 19.2152 -1.93093 2.29467 0
M  V30 214 H 16.7682 -0.977358 1.21973 0
M  V30 215 H 17.5032 -3.24196 0.0819373 0
M  V30 216 H 17.2882 -3.46098 1.84279 0
M  V30 217 H 18.7782 -4.04382 1.04234 0
M  V30 218 N 19.2153 -1.21501 -1.00376 0
M  V30 219 C 20.1453 -0.999478 -2.11028 0
M  V30 220 C 21.1263 0.0759671 -1.6993 0
M  V30 221 O 22.3113 -0.0841106 -1.94018 0
M  V30 222 C 19.4413 -0.564709 -3.42678 0
M  V30 223 C 18.3953 -1.58486 -3.97576 0
M  V30 224 C 17.7213 -1.00628 -5.25146 0
M  V30 225 C 19.0213 -2.97204 -4.29496 0
M  V30 226 H 20.7153 -1.92495 -2.29317 0
M  V30 227 H 18.2613 -0.92693 -1.102 0
M  V30 228 H 20.2143 -0.401091 -4.19487 0
M  V30 229 H 18.9383 0.396411 -3.24185 0
M  V30 230 H 17.5973 -1.73606 -3.22888 0
M  V30 231 H 17.2453 -0.0368439 -5.02987 0
M  V30 232 H 16.9453 -1.68771 -5.62841 0
M  V30 233 H 18.4693 -0.854015 -6.04598 0
M  V30 234 H 19.8833 -2.8552 -4.97143 0
M  V30 235 H 18.2803 -3.62372 -4.78338 0
M  V30 236 H 19.3503 -3.47956 -3.3772 0
M  V30 237 N 20.6934 1.19889 -1.02296 0
M  V30 238 C 21.6234 2.25141 -0.619174 0
M  V30 239 C 22.6044 1.66051 0.368915 0
M  V30 240 O 23.7894 1.92546 0.252941 0
M  V30 241 C 20.9194 3.4728 0.0368783 0
M  V30 242 C 19.8734 4.19005 -0.872865 0
M  V30 243 C 19.1994 5.34637 -0.0822402 0
M  V30 244 C 20.4994 4.74452 -2.18387 0
M  V30 245 H 22.1934 2.59171 -1.49903 0
M  V30 246 H 19.7394 1.24579 -0.722222 0
M  V30 247 H 21.6924 4.20098 0.330958 0
M  V30 248 H 20.4164 3.12433 0.95149 0
M  V30 249 H 19.0754 3.48061 -1.15105 0
M  V30 250 H 18.7234 4.96034 0.83422 0
M  V30 251 H 18.4234 5.83557 -0.688149 0
M  V30 252 H 19.9474 6.10255 0.205238 0
M  V30 253 H 21.3614 5.39055 -1.95172 0
M  V30 254 H 19.7584 5.33834 -2.74119 0
M  V30 255 H 20.8284 3.92844 -2.84257 0
M  V30 256 N 22.1715 0.800033 1.35784 0
M  V30 257 C 23.4115 0.382891 2.00782 0
M  V30 258 C 23.7755 -1.02891 1.62103 0
M  V30 259 O 24.9765 -1.54771 2.19771 0
M  V30 260 C 23.2475 0.553299 3.53091 0
M  V30 261 S 24.8065 0.225608 4.3822 0
M  V30 262 H 21.6245 0.145737 0.695904 0
M  V30 263 H 24.2265 1.04085 1.65489 0
M  V30 264 H 22.9305 1.58091 3.78729 0
M  V30 265 H 22.4615 -0.120214 3.93216 0
M  V30 266 H 24.4765 -0.969074 4.86645 0
M  V30 267 N 23.6496 -1.47581 0.552962 0
M  V30 268 C 24.8976 -2.02082 0.0272703 0
M  V30 269 C 25.2186 -1.4301 -1.32563 0
M  V30 270 O 24.4886 -0.603745 -1.86365 0
M  V30 271 H 23.0686 -0.746966 0.00709182 0
M  V30 272 H 25.7306 -1.81033 0.722008 0
M  V30 273 H 24.8266 -3.12034 -0.0639951 0
M  V30 274 N 25.1277 -0.289203 -1.54924 0
M  V30 275 C 26.0907 0.579144 -2.21762 0
M  V30 276 C 27.0907 1.07047 -1.1999 0
M  V30 277 O 28.2807 0.968384 -1.44803 0
M  V30 278 C 25.4127 1.80055 -2.8947 0
M  V30 279 H 26.6057 -0.00464908 -2.999 0
M  V30 280 H 24.1587 -0.0399306 -1.56249 0
M  V30 281 H 24.8937 2.42449 -2.15381 0
M  V30 282 H 24.6787 1.45602 -3.64064 0
M  V30 283 H 26.1687 2.41773 -3.40493 0
M  V30 284 N 26.6058 1.57591 -0.0167156 0
M  V30 285 C 27.5358 2.12496 0.967858 0
M  V30 286 C 28.5168 1.03807 1.34752 0
M  V30 287 O 29.7018 1.31577 1.42833 0
M  V30 288 C 26.8318 2.64194 2.25431 0
M  V30 289 C 25.7858 3.77559 2.01576 0
M  V30 290 C 25.1118 4.15636 3.36379 0
M  V30 291 C 26.4118 5.04151 1.36489 0
M  V30 292 H 28.1058 2.95013 0.510643 0
M  V30 293 H 25.6518 1.41915 0.244181 0
M  V30 294 H 27.6048 3.01236 2.94678 0
M  V30 295 H 26.3288 1.78821 2.73296 0
M  V30 296 H 24.9878 3.40937 1.34751 0
M  V30 297 H 24.6358 3.27263 3.81979 0
M  V30 298 H 24.3358 4.92022 3.21229 0
M  V30 299 H 25.8598 4.5525 4.06915 0
M  V30 300 H 27.2738 5.38857 1.95718 0
M  V30 301 H 25.6708 5.85453 1.31776 0
M  V30 302 H 26.7408 4.83733 0.336219 0
M  V30 303 N 28.0839 -0.256276 1.55502 0
M  V30 304 C 29.0469 -1.30047 1.88734 0
M  V30 305 C 30.0469 -1.4154 0.763086 0
M  V30 306 O 31.2369 -1.40403 1.03115 0
M  V30 307 C 28.3689 -2.67953 2.10747 0
M  V30 308 H 29.5619 -1.01802 2.82093 0
M  V30 309 H 27.1149 -0.495134 1.4825 0
M  V30 310 H 27.8499 -3.01351 1.19825 0
M  V30 311 H 27.6349 -2.60993 2.92617 0
M  V30 312 H 29.1249 -3.43368 2.37673 0
M  V30 313 N 29.562 -1.4872 -0.521534 0
M  V30 314 C 30.525 -1.63379 -1.60748 0
M  V30 315 C 31.525 -0.50661 -1.52611 0
M  V30 316 O 32.715 -0.772601 -1.5613 0
M  V30 317 C 29.847 -1.61192 -3.00383 0
M  V30 318 H 31.04 -2.60217 -1.49087 0
M  V30 319 H 28.593 -1.37444 -0.744235 0
M  V30 320 H 29.328 -0.65863 -3.17541 0
M  V30 321 H 29.113 -2.43032 -3.07698 0
M  V30 322 H 30.603 -1.7466 -3.7932 0
M  V30 323 N 31.0401 0.771051 -1.3745 0
M  V30 324 C 32.4511 1.34737 -1.29239 0
M  V30 325 C 32.8021 1.96109 0.0596908 0
M  V30 326 O 31.9271 1.93865 0.961534 0
M  V30 327 C 32.5221 2.44973 -2.34037 0
M  V30 328 C 31.0811 2.98372 -2.29458 0
M  V30 329 C 30.2281 1.71595 -2.17831 0
M  V30 330 H 33.1791 0.571256 -1.48062 0
M  V30 331 H 33.2001 3.24471 -1.98744 0
M  V30 332 H 32.7121 2.00276 -3.32432 0
M  V30 333 H 30.8131 3.47443 -1.34589 0
M  V30 334 H 30.9261 3.53939 -3.229 0
M  V30 335 H 29.2901 1.94547 -1.64388 0
M  V30 336 H 30.0731 1.29001 -3.18141 0
M  V30 337 N 32.5182 1.22032 0.997298 0
M  V30 338 C 33.7662 1.04016 1.73278 0
M  V30 339 C 34.0872 -0.426255 1.90284 0
M  V30 340 O 33.3572 -1.30694 1.45931 0
M  V30 341 H 31.9372 0.381897 0.642 0
M  V30 342 H 34.5992 1.5347 1.20137 0
M  V30 343 H 33.6952 1.51441 2.72896 0
M  V30 344 N 33.9963 -1.19345 1.0293 0
M  V30 345 C 34.9263 -2.2481 0.631105 0
M  V30 346 C 35.9073 -1.66245 -0.360104 0
M  V30 347 O 37.0923 -1.92677 -0.242726 0
M  V30 348 C 34.2223 -3.47295 -0.0184607 0
M  V30 349 C 33.1763 -4.18536 0.895073 0
M  V30 350 C 32.5023 -5.34586 0.110592 0
M  V30 351 C 33.8023 -4.73287 2.209 0
M  V30 352 H 35.4963 -2.58372 1.51275 0
M  V30 353 H 33.0423 -1.24194 0.728818 0
M  V30 354 H 34.9953 -4.20268 -0.308675 0
M  V30 355 H 33.7193 -3.12933 -0.934907 0
M  V30 356 H 32.3783 -3.47446 1.16949 0
M  V30 357 H 32.0263 -4.96469 -0.807902 0
M  V30 358 H 31.7263 -5.83183 0.719087 0
M  V30 359 H 33.2503 -6.10355 -0.172871 0
M  V30 360 H 34.6643 -5.38013 1.98028 0
M  V30 361 H 33.0613 -5.32373 2.76946 0
M  V30 362 H 34.1313 -3.91331 2.86336 0
M  V30 363 N 35.4744 -0.807222 -1.35358 0
M  V30 364 C 36.4374 -0.223665 -2.28106 0
M  V30 365 C 37.4374 0.589354 -1.4961 0
M  V30 366 O 38.6274 0.407745 -1.69361 0
M  V30 367 C 35.7594 0.688149 -3.33882 0
M  V30 368 H 36.9524 -1.04169 -2.81227 0
M  V30 369 H 34.5054 -0.577921 -1.45223 0
M  V30 370 H 35.2404 1.52984 -2.85948 0
M  V30 371 H 35.0254 0.10687 -3.91954 0
M  V30 372 H 36.5154 1.09075 -4.03104 0
M  V30 373 N 36.9525 1.47285 -0.560781 0
M  V30 374 C 38.2005 2.02064 -0.0379868 0
M  V30 375 C 38.5215 1.43711 1.31803 0
M  V30 376 O 37.7915 0.61362 1.86042 0
M  V30 377 H 36.3715 0.746918 -0.0110531 0
M  V30 378 H 39.0335 1.80648 -0.731598 0
M  V30 379 H 38.1295 3.12064 0.0474463 0
M  V30 380 N 38.4306 0.297415 1.54768 0
M  V30 381 C 39.6586 -0.315623 2.04478 0
M  V30 382 C 40.0736 -1.47792 1.17486 0
M  V30 383 O 39.4306 -1.81404 0.19971 0
M  V30 384 C 39.4816 -0.7753 3.53088 0
M  V30 385 O 39.2026 0.340732 4.36773 0
M  V30 386 C 40.7036 -1.45386 4.18781 0
M  V30 387 H 37.9236 -0.0690887 0.667434 0
M  V30 388 H 40.4676 0.436003 1.99798 0
M  V30 389 H 38.6226 -1.47696 3.58141 0
M  V30 390 H 39.0366 -0.0165035 5.24497 0
M  V30 391 H 40.5106 -1.72669 5.24299 0
M  V30 392 H 40.9876 -2.39275 3.68299 0
M  V30 393 H 41.5936 -0.795475 4.17795 0
M  V30 394 N 39.9087 -1.5758 0.0250728 0
M  V30 395 C 40.8417 -2.05473 -0.992777 0
M  V30 396 C 41.8197 -0.949661 -1.31986 0
M  V30 397 O 43.0037 -1.21969 -1.43722 0
M  V30 398 C 40.1307 -2.4734 -2.31389 0
M  V30 399 C 39.1767 -3.68827 -2.1417 0
M  V30 400 S 40.0097 -5.15655 -1.44429 0
M  V30 401 C 41.1657 -5.60814 -2.77918 0
M  V30 402 H 41.3987 -2.91486 -0.585078 0
M  V30 403 H 38.9317 -1.53269 -0.186507 0
M  V30 404 H 40.8897 -2.72127 -3.07339 0
M  V30 405 H 39.5507 -1.6168 -2.69292 0
M  V30 406 H 38.7437 -3.95955 -3.11826 0
M  V30 407 H 38.3457 -3.44172 -1.46362 0
M  V30 408 H 40.6377 -5.64806 -3.74166 0
M  V30 409 H 41.5807 -6.60414 -2.55459 0
M  V30 410 H 41.9887 -4.8845 -2.82979 0
M  V30 411 N 41.3868 0.248026 -1.55636 0
M  V30 412 C 42.6268 0.983592 -1.79178 0
M  V30 413 C 42.9908 1.82567 -0.594414 0
M  V30 414 O 44.1918 2.59292 -0.708583 0
M  V30 415 C 42.4628 1.82228 -3.07454 0
M  V30 416 S 44.0218 2.61709 -3.52213 0
M  V30 417 H 40.8398 0.330866 -0.629324 0
M  V30 418 H 43.4418 0.251562 -1.93875 0
M  V30 419 H 42.1458 1.19333 -3.92668 0
M  V30 420 H 41.6768 2.59708 -2.95492 0
M  V30 421 H 43.6918 3.84655 -3.13457 0
M  V30 422 N 42.8649 1.48995 0.513639 0
M  V30 423 C 43.8279 1.64229 1.59879 0
M  V30 424 C 44.8279 0.514696 1.5234 0
M  V30 425 O 46.0179 0.78087 1.55718 0
M  V30 426 C 43.1499 1.62783 2.99524 0
M  V30 427 H 44.3429 2.61004 1.47705 0
M  V30 428 H 41.8959 1.37837 0.736936 0
M  V30 429 H 42.6309 0.675461 3.17188 0
M  V30 430 H 42.4159 2.4466 3.06404 0
M  V30 431 H 43.9059 1.76669 3.78388 0
M  V30 432 N 44.343 -0.763751 1.37857 0
M  V30 433 C 45.568 -1.55805 1.36893 0
M  V30 434 C 45.993 -1.88054 -0.0416135 0
M  V30 435 O 45.351 -1.49825 -1.02089 0
M  V30 436 C 45.399 -2.84012 2.22192 0
M  V30 437 O 44.503 -3.78732 1.63204 0
M  V30 438 H 43.844 -0.471638 0.46739 0
M  V30 439 H 46.374 -0.944657 1.81487 0
M  V30 440 H 46.384 -3.33037 2.35691 0
M  V30 441 H 45.059 -2.59869 3.24716 0
M  V30 442 H 43.636 -3.37402 1.58791 0
M  V30 443 N 45.8211 -1.22559 -0.990812 0
M  V30 444 C 47.2371 -0.985996 -1.255 0
M  V30 445 C 47.4371 0.319173 -1.98956 0
M  V30 446 O 46.4931 1.04127 -2.3003 0
M  V30 447 C 47.8061 -2.18607 -2.06474 0
M  V30 448 C 49.3541 -2.22985 -2.19651 0
M  V30 449 C 49.8291 -3.4255 -3.04012 0
M  V30 450 N 51.3201 -3.42725 -3.11599 0
M  V30 451 C 52.0551 -4.31892 -3.7717 0
M  V30 452 N 51.5511 -5.31279 -4.44651 0
M  V30 453 N 53.3441 -4.19662 -3.73952 0
M  V30 454 H 45.4951 -2.06469 -0.49841 0
M  V30 455 H 47.7581 -0.904853 -0.282747 0
M  V30 456 H 47.4641 -3.13267 -1.59865 0
M  V30 457 H 47.3381 -2.18838 -3.07229 0
M  V30 458 H 49.7251 -1.28871 -2.65474 0
M  V30 459 H 49.8061 -2.26791 -1.18319 0
M  V30 460 H 49.4501 -4.36965 -2.58889 0
M  V30 461 H 49.3801 -3.35984 -4.0549 0
M  V30 462 H 51.8711 -2.70807 -2.63575 0
M  V30 463 H 52.1841 -5.95593 -4.92431 0
M  V30 464 H 50.5291 -5.3519 -4.43392 0
M  V30 465 H 53.7201 -3.41268 -3.20396 0
M  V30 466 H 53.8931 -4.89358 -4.24774 0
M  V30 467 N 47.2992 1.18797 -1.03562 0
M  V30 468 C 48.5762 1.84469 -0.650434 0
M  V30 469 C 48.9562 1.92319 0.870433 0
M  V30 470 O 48.3042 1.44528 1.76986 0
M  V30 471 C 48.5142 3.2306 -1.32036 0
M  V30 472 C 49.8622 3.9915 -1.44792 0
M  V30 473 O 50.8862 3.32481 -1.27806 0
M  V30 474 O 49.7452 5.18587 -1.72423 0
M  V30 475 H 46.8392 0.795251 -0.226946 0
M  V30 476 H 49.3852 1.26231 -1.13419 0
M  V30 477 H 48.1572 3.1222 -2.3587 0
M  V30 478 H 47.7802 3.88949 -0.8249 0
M  V30 479 N 48.7773 0.814389 1.34928 0
M  V30 480 C 50.0543 0.321363 1.92942 0
M  V30 481 C 50.4343 -1.19014 1.74353 0
M  V30 482 O 49.7823 -1.99328 1.11716 0
M  V30 483 C 49.9923 0.741323 3.41036 0
M  V30 484 C 51.3403 0.735266 4.18185 0
M  V30 485 O 52.3643 0.68336 3.49584 0
M  V30 486 O 51.2233 0.800703 5.40602 0
M  V30 487 H 48.3173 0.0858893 0.822528 0
M  V30 488 H 50.8633 0.898609 1.43955 0
M  V30 489 H 49.6353 1.78276 3.4833 0
M  V30 490 H 49.2583 0.139307 3.97356 0
M  V30 491 N 50.2554 -1.46986 0.568584 0
M  V30 492 C 51.5014 -2.0332 0.0571487 0
M  V30 493 C 51.8564 -1.43384 -1.28291 0
M  V30 494 O 51.1494 -0.584304 -1.82473 0
M  V30 495 C 51.3434 -3.57306 -0.081836 0
M  V30 496 C 51.1724 -4.32174 1.24321 0
M  V30 497 C 49.9424 -4.71633 1.81358 0
M  V30 498 C 52.1404 -4.66598 2.16312 0
M  V30 499 N 50.1224 -5.31191 3.07748 0
M  V30 500 C 51.4934 -5.26578 3.27285 0
M  V30 501 C 53.5484 -4.48527 2.16166 0
M  V30 502 C 52.2514 -5.70395 4.38226 0
M  V30 503 C 54.2774 -4.93351 3.26127 0
M  V30 504 C 53.6394 -5.5339 4.3582 0
M  V30 505 H 49.7384 -0.77943 0.063351 0
M  V30 506 H 52.3224 -1.79323 0.758378 0
M  V30 507 H 50.4934 -3.81046 -0.752207 0
M  V30 508 H 52.2254 -4.00282 -0.59637 0
M  V30 509 H 48.9804 -4.53946 1.35019 0
M  V30 510 H 49.4044 -5.65505 3.72201 0
M  V30 511 H 54.0464 -4.01456 1.32638 0
M  V30 512 H 51.7644 -6.16452 5.22506 0
M  V30 513 H 55.3504 -4.81131 3.27115 0
M  V30 514 H 54.2304 -5.87441 5.19503 0
M  V30 515 N 51.7335 -0.305618 -1.54608 0
M  V30 516 C 53.1495 0.0476228 -1.59529 0
M  V30 517 C 53.3495 1.52025 -1.32252 0
M  V30 518 O 52.4055 2.27368 -1.09818 0
M  V30 519 C 53.7185 -0.354471 -2.98603 0
M  V30 520 C 55.2665 -0.303622 -3.11524 0
M  V30 521 C 55.7415 -0.680608 -4.52915 0
M  V30 522 N 57.2325 -0.63332 -4.5885 0
M  V30 523 C 57.9675 -0.897432 -5.66334 0
M  V30 524 N 57.4635 -1.22775 -6.81834 0
M  V30 525 N 59.2565 -0.824186 -5.56025 0
M  V30 526 H 51.4075 -1.2653 -1.70599 0
M  V30 527 H 53.6705 -0.513291 -0.797017 0
M  V30 528 H 53.3765 -1.3798 -3.23503 0
M  V30 529 H 53.2505 0.289568 -3.76087 0
M  V30 530 H 55.6375 0.712472 -2.8637 0
M  V30 531 H 55.7185 -0.982348 -2.36185 0
M  V30 532 H 55.3625 -1.69453 -4.78799 0
M  V30 533 H 55.2925 0.0202385 -5.26596 0
M  V30 534 H 57.7835 -0.389138 -3.75891 0
M  V30 535 H 58.0965 -1.41513 -7.59733 0
M  V30 536 H 56.4415 -1.26583 -6.83375 0
M  V30 537 H 59.6325 -0.565748 -4.64669 0
M  V30 538 H 59.8055 -1.03338 -6.39707 0
M  V30 539 N 53.2116 1.57565 -0.0334293 0
M  V30 540 C 54.4516 1.93844 0.648379 0
M  V30 541 C 54.8156 0.910387 1.69044 0
M  V30 542 O 56.0166 1.15952 2.42505 0
M  V30 543 C 54.2876 3.35017 1.24492 0
M  V30 544 S 55.8466 3.93229 1.94721 0
M  V30 545 H 52.6646 0.678231 0.213364 0
M  V30 546 H 55.2666 1.95254 -0.0981253 0
M  V30 547 H 53.9706 4.07652 0.474128 0
M  V30 548 H 53.5016 3.37061 2.02864 0
M  V30 549 H 55.5166 3.77014 3.22606 0
M  V30 550 N 54.6897 -0.239769 1.55765 0
M  V30 551 C 55.6527 -1.28038 1.90103 0
M  V30 552 C 56.6527 -1.40723 0.778055 0
M  V30 553 O 57.8427 -1.39301 1.04599 0
M  V30 554 C 54.9747 -2.65702 2.13577 0
M  V30 555 H 56.1677 -0.988048 2.83157 0
M  V30 556 H 53.7207 -0.479382 1.48767 0
M  V30 557 H 54.4557 -3.00063 1.23015 0
M  V30 558 H 54.2407 -2.57875 2.95369 0
M  V30 559 H 55.7307 -3.40828 2.41301 0
M  V30 560 N 56.1678 -1.49265 -0.50573 0
M  V30 561 C 57.5838 -1.35923 -0.836486 0
M  V30 562 C 57.7838 -0.388704 -1.97715 0
M  V30 563 O 56.8398 0.181336 -2.51848 0
M  V30 564 C 58.1528 -2.76531 -1.18115 0
M  V30 565 C 59.7008 -2.85197 -1.28964 0
M  V30 566 C 60.1758 -4.26561 -1.66761 0
M  V30 567 N 61.6668 -4.2935 -1.73819 0
M  V30 568 C 62.4018 -5.35693 -2.045 0
M  V30 569 N 61.8978 -6.52287 -2.33438 0
M  V30 570 N 63.6908 -5.23105 -2.05711 0
M  V30 571 H 55.8418 -2.10965 0.246519 0
M  V30 572 H 58.1048 -0.9468 0.0476887 0
M  V30 573 H 57.8108 -3.49226 -0.416398 0
M  V30 574 H 57.6848 -3.11599 -2.1257 0
M  V30 575 H 60.0718 -2.12742 -2.04511 0
M  V30 576 H 60.1528 -2.53718 -0.325704 0
M  V30 577 H 59.7968 -4.99541 -0.917656 0
M  V30 578 H 59.7268 -4.55502 -2.64246 0
M  V30 579 H 62.2178 -3.4526 -1.53635 0
M  V30 580 H 62.5308 -7.29158 -2.56024 0
M  V30 581 H 60.8758 -6.55521 -2.30905 0
M  V30 582 H 64.0668 -4.31026 -1.82577 0
M  V30 583 H 64.2398 -6.06078 -2.29289 0
M  V30 584 N 57.6459 0.756429 -1.3826 0
M  V30 585 C 58.8709 1.55077 -1.37717 0
M  V30 586 C 59.2959 1.88073 0.03164 0
M  V30 587 O 58.6539 1.50364 1.01293 0
M  V30 588 C 58.7019 2.8283 -2.23695 0
M  V30 589 O 57.8059 3.77862 -1.6521 0
M  V30 590 H 57.1469 0.469152 -0.469885 0
M  V30 591 H 59.6769 0.935019 -1.81985 0
M  V30 592 H 59.6869 3.31783 -2.37453 0
M  V30 593 H 58.3619 2.58144 -3.2609 0
M  V30 594 H 56.9389 3.36555 -1.60578 0
M  V30 595 N 59.124 1.23083 0.984299 0
M  V30 596 C 60.057 0.951786 2.07404 0
M  V30 597 C 61.035 -0.10848 1.62238 0
M  V30 598 O 62.219 0.0249467 1.88483 0
M  V30 599 C 59.346 0.433142 3.35919 0
M  V30 600 C 58.392 1.47941 4.0002 0
M  V30 601 S 59.225 3.05556 4.39768 0
M  V30 602 C 60.381 2.55351 5.71442 0
M  V30 603 H 60.614 1.87456 2.30754 0
M  V30 604 H 58.147 1.06284 1.11996 0
M  V30 605 H 60.105 0.140506 4.10259 0
M  V30 606 H 58.766 -0.468656 3.10584 0
M  V30 607 H 57.959 1.06658 4.92585 0
M  V30 608 H 57.561 1.7212 3.3204 0
M  V30 609 H 59.853 1.97128 6.48187 0
M  V30 610 H 60.796 3.46441 6.17563 0
M  V30 611 H 61.204 1.96339 5.29255 0
M  V30 612 N 60.6021 -1.18246 1.0419 0
M  V30 613 C 61.5521 -2.19843 0.604392 0
M  V30 614 C 62.5361 -1.56962 -0.353814 0
M  V30 615 O 63.7281 -1.76156 -0.17267 0
M  V30 616 C 60.8571 -3.43287 -0.0298975 0
M  V30 617 C 59.9431 -4.13288 0.951531 0
M  V30 618 N 60.3341 -4.59271 2.11906 0
M  V30 619 C 58.6321 -4.39165 0.7778 0
M  V30 620 C 59.3331 -5.13173 2.73912 0
M  V30 621 N 58.3091 -5.04763 2.01779 0
M  V30 622 H 62.1111 -2.53089 1.4941 0
M  V30 623 H 59.6251 -1.34465 0.910658 0
M  V30 624 H 61.6221 -4.15334 -0.361037 0
M  V30 625 H 60.2821 -3.11537 -0.915127 0
M  V30 626 H 61.2931 -4.5368 2.49789 0
M  V30 627 H 57.9701 -4.17461 -0.0572331 0
M  V30 628 H 59.3601 -5.58947 3.72864 0
M  V30 629 N 62.0802 -0.821533 -1.34494 0
M  V30 630 C 62.9902 -0.244355 -2.33324 0
M  V30 631 C 64.0062 0.620527 -1.62559 0
M  V30 632 O 65.1822 0.528754 -1.94335 0
M  V30 633 C 62.2472 0.585368 -3.41723 0
M  V30 634 C 61.3082 -0.301752 -4.28238 0
M  V30 635 C 60.5412 0.488466 -5.3146 0
M  V30 636 O 60.7642 1.72186 -5.4379 0
M  V30 637 O 59.6982 -0.12848 -6.01763 0
M  V30 638 H 63.5242 -1.06231 -2.84515 0
M  V30 639 H 61.1092 -0.583645 -1.37528 0
M  V30 640 H 62.9912 1.05747 -4.07916 0
M  V30 641 H 61.6662 1.38068 -2.92778 0
M  V30 642 H 60.5732 -0.821315 -3.64973 0
M  V30 643 H 61.9062 -1.06138 -4.8062 0
M  V30 644 N 63.5583 1.46682 -0.576371 0
M  V30 645 C 64.8053 2.02412 -0.0595339 0
M  V30 646 C 65.1333 1.44859 1.29793 0
M  V30 647 O 64.3883 0.601099 1.8624 0
M  V30 648 C 64.6873 3.57345 0.062886 0
M  V30 649 C 64.3533 4.33908 -1.22616 0
M  V30 650 C 63.0153 4.54544 -1.57933 0
M  V30 651 C 65.3673 4.77919 -2.07948 0
M  V30 652 C 62.6953 5.16444 -2.78393 0
M  V30 653 C 65.0473 5.41149 -3.27629 0
M  V30 654 C 63.7113 5.60014 -3.63236 0
M  V30 655 H 62.9813 0.74068 -0.021785 0
M  V30 656 H 65.6283 1.76128 -0.751735 0
M  V30 657 H 63.9333 3.82729 0.838178 0
M  V30 658 H 65.6303 3.98136 0.478439 0
M  V30 659 H 62.2203 4.18138 -0.941202 0
M  V30 660 H 66.4043 4.61738 -1.81967 0
M  V30 661 H 61.6603 5.29242 -3.06126 0
M  V30 662 H 65.8343 5.74211 -3.94023 0
M  V30 663 H 63.4613 6.07748 -4.56669 0
M  V30 664 N 65.0364 0.313813 1.54444 0
M  V30 665 C 66.2614 -0.296681 2.05267 0
M  V30 666 C 66.6864 -1.45757 1.18897 0
M  V30 667 O 66.0444 -1.80239 0.195886 0
M  V30 668 C 66.0924 -0.71831 3.53373 0
M  V30 669 O 65.1964 -1.82175 3.69981 0
M  V30 670 H 64.5374 -0.0554061 0.661684 0
M  V30 671 H 67.0674 0.459387 1.99376 0
M  V30 672 H 67.0774 -1.00364 3.95463 0
M  V30 673 H 65.7524 0.130821 4.15694 0
M  V30 674 H 64.3294 -1.53598 3.39797 0
M  V30 675 N 66.5145 -1.57545 0.0417849 0
M  V30 676 C 67.4775 -2.09885 -0.92093 0
M  V30 677 C 68.4775 -1.01648 -1.24596 0
M  V30 678 O 69.6675 -1.27759 -1.1842 0
M  V30 679 C 66.7995 -2.57527 -2.23367 0
M  V30 680 H 67.9925 -2.96236 -0.467382 0
M  V30 681 H 65.5455 -1.5493 -0.206467 0
M  V30 682 H 66.2805 -1.74542 -2.73323 0
M  V30 683 H 66.0655 -3.36613 -2.01083 0
M  V30 684 H 67.5555 -2.98201 -2.92346 0
M  V30 685 N 67.9926 0.231505 -1.5589 0
M  V30 686 C 68.9396 1.28682 -1.91598 0
M  V30 687 C 69.9096 1.47071 -0.771974 0
M  V30 688 O 71.0946 1.60802 -1.027 0
M  V30 689 C 68.2346 2.6342 -2.22944 0
M  V30 690 C 67.3476 2.52912 -3.50228 0
M  V30 691 C 66.4826 3.80106 -3.7107 0
M  V30 692 C 65.5216 3.64279 -4.91902 0
M  V30 693 N 64.6586 4.834 -5.09184 0
M  V30 694 H 69.4986 0.975305 -2.81588 0
M  V30 695 H 67.0356 0.470299 -1.39379 0
M  V30 696 H 68.9936 3.41869 -2.39126 0
M  V30 697 H 67.6236 2.92687 -1.36139 0
M  V30 698 H 66.6756 1.6595 -3.42294 0
M  V30 699 H 67.9876 2.37133 -4.38827 0
M  V30 700 H 67.1416 4.66999 -3.87295 0
M  V30 701 H 65.8806 3.98799 -2.80733 0
M  V30 702 H 64.8856 2.7577 -4.75637 0
M  V30 703 H 66.1106 3.47067 -5.83714 0
M  V30 704 H 64.0566 5.02425 -4.21788 0
M  V30 705 H 63.9736 4.70311 -5.91898 0
M  V30 706 H 65.2416 5.71747 -5.29835 0
M  V30 707 N 69.4707 1.49531 0.497807 0
M  V30 708 C 70.7477 1.49682 1.25915 0
M  V30 709 C 71.1277 0.226339 2.09883 0
M  V30 710 O 70.4757 -0.791189 2.14365 0
M  V30 711 C 70.6857 2.77755 2.11313 0
M  V30 712 C 72.0337 3.27371 2.70395 0
M  V30 713 O 73.0577 2.78894 2.21578 0
M  V30 714 O 71.9167 4.11808 3.59272 0
M  V30 715 H 69.0107 0.599228 0.56996 0
M  V30 716 H 71.5567 1.61798 0.511816 0
M  V30 717 H 70.3287 3.61713 1.49264 0
M  V30 718 H 69.9517 2.68515 2.93233 0
M  V30 719 N 70.9488 -0.749086 1.3866 0
M  V30 720 C 72.1978 -1.50371 1.3443 0
M  V30 721 C 72.5108 -1.95503 -0.0616397 0
M  V30 722 O 73.7168 -2.70554 -0.226489 0
M  V30 723 C 72.1728 -2.71644 2.36088 0
M  V30 724 C 71.7808 -2.3352 3.82325 0
M  V30 725 C 73.5248 -3.49518 2.40909 0
M  V30 726 C 71.4318 -3.51431 4.75658 0
M  V30 727 H 70.3618 -0.564628 0.499712 0
M  V30 728 H 73.0128 -0.818449 1.64237 0
M  V30 729 H 71.3948 -3.42175 1.9933 0
M  V30 730 H 72.5688 -1.70627 4.28046 0
M  V30 731 H 70.8838 -1.6877 3.80665 0
M  V30 732 H 73.4808 -4.37197 3.07836 0
M  V30 733 H 73.8238 -3.90992 1.42937 0
M  V30 734 H 74.3568 -2.86005 2.76489 0
M  V30 735 H 71.0958 -3.15019 5.74842 0
M  V30 736 H 70.6158 -4.13352 4.34627 0
M  V30 737 H 72.2948 -4.17953 4.93887 0
M  V30 738 N 72.4269 -1.23603 -0.977757 0
M  V30 739 C 73.7039 -0.977897 -1.69401 0
M  V30 740 C 74.0839 0.502738 -2.05026 0
M  V30 741 O 73.4319 1.47459 -1.74551 0
M  V30 742 C 73.6419 -1.89077 -2.93345 0
M  V30 743 C 74.9899 -2.15579 -3.65802 0
M  V30 744 O 76.0139 -1.86648 -3.03383 0
M  V30 745 O 74.8729 -2.64658 -4.78141 0
M  V30 746 H 71.9669 -0.369025 -0.740101 0
M  V30 747 H 74.5129 -1.34657 -1.03274 0
M  V30 748 H 73.2849 -2.89158 -2.63634 0
M  V30 749 H 72.9079 -1.52463 -3.67207 0
M  V30 750 N 73.905 1.17692 -1.04816 0
M  V30 751 C 75.153 1.87488 -0.754497 0
M  V30 752 C 75.474 1.81205 0.720407 0
M  V30 753 O 74.744 1.23544 1.52032 0
M  V30 754 H 73.324 0.694101 -0.276102 0
M  V30 755 H 75.986 1.42793 -1.32651 0
M  V30 756 H 75.082 2.93328 -1.06606 0
M  V30 757 N 75.3831 0.828654 1.34056 0
M  V30 758 C 76.3331 0.226828 2.26869 0
M  V30 759 C 77.3171 -0.612243 1.48796 0
M  V30 760 O 78.5091 -0.465884 1.70759 0
M  V30 761 C 75.6381 -0.605654 3.37915 0
M  V30 762 C 74.7241 0.244361 4.23395 0
M  V30 763 N 75.1151 1.31815 4.88322 0
M  V30 764 C 73.4131 0.0296616 4.4599 0
M  V30 765 C 74.1141 1.83895 5.51867 0
M  V30 766 N 73.0901 1.14196 5.3147 0
M  V30 767 H 76.8921 1.04811 2.74576 0
M  V30 768 H 74.4061 0.67205 1.47842 0
M  V30 769 H 76.4031 -1.05302 4.03382 0
M  V30 770 H 75.0631 -1.42504 2.91758 0
M  V30 771 H 76.0741 1.70099 4.8917 0
M  V30 772 H 72.7511 -0.757097 4.10578 0
M  V30 773 H 74.1411 2.7376 6.136 0
M  V30 774 N 76.8612 -1.46375 0.584142 0
M  V30 775 C 77.7942 -2.27351 -0.196676 0
M  V30 776 C 78.7722 -1.35715 -0.895561 0
M  V30 777 O 79.9562 -1.65126 -0.90916 0
M  V30 778 C 77.0832 -3.13486 -1.28235 0
M  V30 779 C 76.1292 -4.20896 -0.689145 0
M  V30 780 S 76.9622 -5.33299 0.48507 0
M  V30 781 C 78.1182 -6.23 -0.601767 0
M  V30 782 H 78.3512 -2.93228 0.490395 0
M  V30 783 H 75.8842 -1.49875 0.371071 0
M  V30 784 H 77.8422 -3.63676 -1.90395 0
M  V30 785 H 76.5032 -2.4692 -1.94138 0
M  V30 786 H 75.6962 -4.80997 -1.50527 0
M  V30 787 H 75.2982 -3.73726 -0.143181 0
M  V30 788 H 77.5902 -6.60979 -1.48705 0
M  V30 789 H 78.5332 -7.0809 -0.0374799 0
M  V30 790 H 78.9412 -5.57173 -0.906557 0
M  V30 791 N 78.3393 -0.321999 -1.54275 0
M  V30 792 C 79.5853 0.281461 -2.00837 0
M  V30 793 C 79.9183 1.51909 -1.20985 0
M  V30 794 O 79.1933 1.923 -0.291733 0
M  V30 795 C 79.4763 0.617162 -3.54772 0
M  V30 796 C 79.3293 -0.631064 -4.45351 0
M  V30 797 C 80.6483 1.43542 -4.16033 0
M  V30 798 H 77.7673 0.100826 -0.730071 0
M  V30 799 H 80.4093 -0.438268 -1.84876 0
M  V30 800 H 78.5593 1.23034 -3.68504 0
M  V30 801 H 80.2313 -1.26934 -4.43492 0
M  V30 802 H 78.4743 -1.26025 -4.15091 0
M  V30 803 H 79.1453 -0.351735 -5.50878 0
M  V30 804 H 81.6213 0.917134 -4.05867 0
M  V30 805 H 80.4973 1.63907 -5.23856 0
M  V30 806 H 80.7583 2.43108 -3.69257 0
M  V30 807 N 79.8174 1.5752 -0.0501392 0
M  V30 808 C 80.7654 2.12651 0.942459 0
M  V30 809 C 81.7594 1.05807 1.32292 0
M  V30 810 O 82.9654 1.24217 1.3027 0
M  V30 811 H 79.3404 0.679673 0.321789 0
M  V30 812 H 81.3114 2.94951 0.452356 0
M  V30 813 C 80.0604 2.68565 2.20836 0
M  V30 814 H 79.3834 3.50439 1.92439 0
M  V30 815 H 80.8234 3.10761 2.8845 0
M  V30 816 C 79.2824 1.62291 2.95234 0
M  V30 817 O 79.8124 1.03508 3.88135 0
M  V30 818 N 78.0184 1.33836 2.57946 0
M  V30 819 H 77.5654 1.81826 1.82475 0
M  V30 820 H 77.5234 0.629595 3.08032 0
M  V30 821 N 81.2955 -0.223234 1.56011 0
M  V30 822 C 82.2255 -1.27988 1.95298 0
M  V30 823 C 83.2065 -1.48976 0.820979 0
M  V30 824 O 84.3915 -1.61188 1.08315 0
M  V30 825 C 81.5215 -2.63 2.26822 0
M  V30 826 C 80.4755 -2.56671 3.42497 0
M  V30 827 C 79.8015 -3.95697 3.59622 0
M  V30 828 C 81.1015 -2.11601 4.77517 0
M  V30 829 H 82.7955 -0.953525 2.8381 0
M  V30 830 H 80.3415 -0.457244 1.36548 0
M  V30 831 H 82.2945 -3.37077 2.52898 0
M  V30 832 H 81.0185 -2.9732 1.35161 0
M  V30 833 H 79.6775 -1.85051 3.16467 0
M  V30 834 H 79.3255 -4.27322 2.6534 0
M  V30 835 H 79.0255 -3.92345 4.37424 0
M  V30 836 H 80.5495 -4.71438 3.88044 0
M  V30 837 H 81.9635 -2.7542 5.02809 0
M  V30 838 H 80.3605 -2.19311 5.5859 0
M  V30 839 H 81.4305 -1.06824 4.72987 0
M  V30 840 N 82.7736 -1.49793 -0.48987 0
M  V30 841 C 84.0506 -1.50348 -1.25119 0
M  V30 842 C 84.4306 -0.237466 -2.0976 0
M  V30 843 O 83.7786 0.77981 -2.14782 0
M  V30 844 C 83.9886 -2.78872 -2.09837 0
M  V30 845 C 85.3366 -3.288 -2.68655 0
M  V30 846 O 86.3606 -2.80065 -2.20096 0
M  V30 847 O 85.2196 -4.13707 -3.57083 0
M  V30 848 H 82.3136 -0.602242 -0.566775 0
M  V30 849 H 84.8596 -1.62067 -0.503229 0
M  V30 850 H 83.6316 -3.62499 -1.47343 0
M  V30 851 H 83.2546 -2.70066 -2.91805 0
M  V30 852 N 84.2517 0.741722 -1.39055 0
M  V30 853 C 85.1987 1.85566 -1.37237 0
M  V30 854 C 86.1687 1.64457 -0.233072 0
M  V30 855 O 87.3537 1.85957 -0.427147 0
M  V30 856 C 84.4937 3.23004 -1.215 0
M  V30 857 C 83.6067 3.55864 -2.44918 0
M  V30 858 C 82.7417 4.82669 -2.21821 0
M  V30 859 C 81.7807 5.08351 -3.40948 0
M  V30 860 N 80.9177 6.26356 -3.17211 0
M  V30 861 H 85.7577 1.86455 -2.32462 0
M  V30 862 H 83.2947 0.911176 -1.15482 0
M  V30 863 H 85.2527 4.02331 -1.10389 0
M  V30 864 H 83.8827 3.21411 -0.29908 0
M  V30 865 H 82.9347 2.7129 -2.66657 0
M  V30 866 H 84.2467 3.70765 -3.33668 0
M  V30 867 H 83.4007 5.69962 -2.07914 0
M  V30 868 H 82.1397 4.69929 -1.30454 0
M  V30 869 H 81.1447 4.19522 -3.55361 0
M  V30 870 H 82.3697 5.22981 -4.33207 0
M  V30 871 H 80.3157 6.14917 -2.28502 0
M  V30 872 H 80.2327 6.41813 -3.99515 0
M  V30 873 H 81.5007 7.16506 -3.06984 0
M  V30 874 N 85.7298 1.2412 0.971189 0
M  V30 875 C 86.9598 1.10415 1.7462 0
M  V30 876 C 87.3678 -0.346462 1.86001 0
M  V30 877 O 86.7108 -1.25104 1.34517 0
M  V30 878 C 86.7728 1.66596 3.18568 0
M  V30 879 C 86.4368 3.15446 3.3067 0
M  V30 880 C 87.4338 4.12636 3.16271 0
M  V30 881 C 85.1188 3.55337 3.55022 0
M  V30 882 C 87.1128 5.47699 3.26044 0
M  V30 883 C 84.7998 4.90542 3.64434 0
M  V30 884 C 85.7978 5.86532 3.49956 0
M  V30 885 O 85.4858 7.19279 3.59017 0
M  V30 886 H 85.2178 0.386616 0.55453 0
M  V30 887 H 87.7718 1.64633 1.22821 0
M  V30 888 H 86.0018 1.06808 3.71657 0
M  V30 889 H 87.6908 1.48232 3.77865 0
M  V30 890 H 88.4568 3.8316 2.97344 0
M  V30 891 H 84.3358 2.8113 3.65359 0
M  V30 892 H 87.8798 6.22603 3.14661 0
M  V30 893 H 83.7768 5.19691 3.82873 0
M  V30 894 H 84.5448 7.27153 3.75754 0
M  V30 895 N 87.2079 -1.17134 1.05439 0
M  V30 896 C 88.6239 -1.39454 0.776201 0
M  V30 897 C 88.8239 -1.91454 -0.628307 0
M  V30 898 O 87.8799 -2.10777 -1.39031 0
M  V30 899 C 89.1929 -2.38305 1.83388 0
M  V30 900 C 90.7409 -2.52006 1.85639 0
M  V30 901 C 91.2159 -3.54133 2.90437 0
M  V30 902 N 92.7069 -3.61653 2.89415 0
M  V30 903 C 93.4419 -4.4044 3.67152 0
M  V30 904 N 92.9379 -5.22721 4.54681 0
M  V30 905 N 94.7309 -4.35337 3.55581 0
M  V30 906 H 86.8819 -0.817134 1.96053 0
M  V30 907 H 89.1449 -0.421626 0.849079 0
M  V30 908 H 88.8509 -2.07173 2.84204 0
M  V30 909 H 88.7249 -3.37841 1.67761 0
M  V30 910 H 91.1119 -2.82447 0.85486 0
M  V30 911 H 91.1929 -1.52537 2.05344 0
M  V30 912 H 90.8369 -3.24431 3.90777 0
M  V30 913 H 90.7669 -4.53313 2.67983 0
M  V30 914 H 93.2579 -3.02909 2.25952 0
M  V30 915 H 93.5709 -5.80027 5.10674 0
M  V30 916 H 91.9159 -5.22093 4.58741 0
M  V30 917 H 95.1069 -3.70112 2.86592 0
M  V30 918 H 95.2799 -4.96494 4.1641 0
M  V30 919 N 88.686 -0.835752 -1.33615 0
M  V30 920 C 89.934 -0.429109 -1.97492 0
M  V30 921 C 90.255 1.01433 -1.66543 0
M  V30 922 O 89.525 1.70611 -0.962744 0
M  V30 923 H 88.105 -0.155686 -0.730596 0
M  V30 924 H 90.767 -1.06802 -1.63031 0
M  V30 925 H 89.863 -0.55861 -3.0706 0
M  V30 926 N 90.1641 1.46063 -0.591896 0
M  V30 927 C 91.4111 2.02338 -0.0809991 0
M  V30 928 C 91.7391 1.46228 1.28249 0
M  V30 929 O 90.9941 0.620818 1.85592 0
M  V30 930 C 91.2931 3.57391 0.0249813 0
M  V30 931 C 90.9591 4.32583 -1.27211 0
M  V30 932 C 89.6211 4.52844 -1.62745 0
M  V30 933 C 91.9731 4.75687 -2.13005 0
M  V30 934 C 89.3011 5.13462 -2.83855 0
M  V30 935 C 91.6531 5.37644 -3.3335 0
M  V30 936 C 90.3171 5.5613 -3.69155 0
M  V30 937 H 89.5871 0.740407 -0.0296397 0
M  V30 938 H 92.2341 1.75321 -0.770374 0
M  V30 939 H 90.5391 3.83597 0.797537 0
M  V30 940 H 92.2361 3.98621 0.436184 0
M  V30 941 H 88.8261 4.17116 -0.985499 0
M  V30 942 H 93.0101 4.59782 -1.86855 0
M  V30 943 H 88.2661 5.25965 -3.11722 0
M  V30 944 H 92.4401 5.7 -4.00092 0
M  V30 945 H 90.0671 6.0287 -4.63089 0
M  V30 946 N 91.6422 0.330177 1.54103 0
M  V30 947 C 92.8882 -0.270806 2.00984 0
M  V30 948 C 93.2212 -1.51265 1.21789 0
M  V30 949 O 92.4962 -1.92142 0.301927 0
M  V30 950 C 92.7792 -0.598339 3.55094 0
M  V30 951 C 92.6322 0.654674 4.4501 0
M  V30 952 C 93.9512 -1.41334 4.16789 0
M  V30 953 H 91.0702 -0.0969531 0.730595 0
M  V30 954 H 93.7122 0.448066 1.84641 0
M  V30 955 H 91.8622 -1.21078 3.69151 0
M  V30 956 H 93.5342 1.29285 4.42813 0
M  V30 957 H 91.7772 1.28224 4.14416 0
M  V30 958 H 92.4482 0.380944 5.50684 0
M  V30 959 H 94.9242 -0.895597 4.06347 0
M  V30 960 H 93.8002 -1.61127 5.24718 0
M  V30 961 H 94.0612 -2.41146 3.70541 0
M  V30 962 N 93.1203 -1.57491 0.0584922 0
M  V30 963 C 94.3603 -1.94851 -0.617458 0
M  V30 964 C 94.7243 -0.937165 -1.67575 0
M  V30 965 O 95.9253 -1.19795 -2.40629 0
M  V30 966 C 94.1963 -3.36955 -1.19147 0
M  V30 967 S 95.7553 -3.96277 -1.8844 0
M  V30 968 H 92.5733 -0.681539 -0.202547 0
M  V30 969 H 95.1753 -1.95073 0.129176 0
M  V30 970 H 93.8793 -4.08355 -0.409215 0
M  V30 971 H 93.4103 -3.40245 -1.97476 0
M  V30 972 H 95.4253 -3.82099 -3.16568 0
M  V30 973 N 94.5984 0.214957 -1.56127 0
M  V30 974 C 95.8474 0.936451 -1.78643 0
M  V30 975 C 96.1604 1.85237 -0.628229 0
M  V30 976 O 97.3664 2.613 -0.737186 0
M  V30 977 C 95.8224 1.7154 -3.16389 0
M  V30 978 C 95.4304 0.845299 -4.39953 0
M  V30 979 C 97.1744 2.42772 -3.48227 0
M  V30 980 C 95.0814 1.62198 -5.68723 0
M  V30 981 H 94.0114 0.353401 -0.666051 0
M  V30 982 H 96.6624 0.190169 -1.82512 0
M  V30 983 H 95.0444 2.50484 -3.06715 0
M  V30 984 H 96.2184 0.0959353 -4.607 0
M  V30 985 H 94.5334 0.244789 -4.1568 0
M  V30 986 H 97.1304 3.01394 -4.41663 0
M  V30 987 H 97.4734 3.15984 -2.71035 0
M  V30 988 H 98.0064 1.70813 -3.5926 0
M  V30 989 H 94.7454 0.933011 -6.48826 0
M  V30 990 H 94.2654 2.34579 -5.52026 0
M  V30 991 H 95.9444 2.18095 -6.09133 0
M  V30 992 N 96.0765 1.50051 0.48192 0
M  V30 993 C 97.3225 1.60736 1.2366 0
M  V30 994 C 97.6555 0.301786 1.91841 0
M  V30 995 O 96.9305 -0.696025 1.8162 0
M  V30 996 C 97.2135 2.78009 2.28874 0
M  V30 997 C 97.0665 4.18416 1.65069 0
M  V30 998 C 98.3855 2.90867 3.30279 0
M  V30 999 H 95.5045 0.585031 0.448228 0
M  V30 1000 H 98.1465 1.82402 0.531946 0
M  V30 1001 H 96.2965 2.59667 2.88973 0
M  V30 1002 H 97.9685 4.48322 1.0865 0
M  V30 1003 H 96.2115 4.23177 0.954148 0
M  V30 1004 H 96.8825 4.96381 2.41474 0
M  V30 1005 H 99.3585 3.07623 2.80191 0
M  V30 1006 H 98.2345 3.74566 4.01238 0
M  V30 1007 H 98.4955 2.01021 3.93755 0
M  V30 1008 N 97.5546 -0.734337 1.39446 0
M  V30 1009 C 98.7826 -1.52358 1.39981 0
M  V30 1010 C 99.1976 -1.88799 -0.0054975 0
M  V30 1011 O 98.5546 -1.54146 -0.976998 0
M  V30 1012 C 98.6056 -2.81072 2.27333 0
M  V30 1013 O 98.3266 -2.46178 3.62392 0
M  V30 1014 C 99.8276 -3.75096 2.36259 0
M  V30 1015 H 97.0476 -0.470806 0.478103 0
M  V30 1016 H 99.5916 -0.907339 1.83269 0
M  V30 1017 H 97.7466 -3.39026 1.87457 0
M  V30 1018 H 98.1606 -3.28866 4.08592 0
M  V30 1019 H 99.6346 -4.62305 3.01626 0
M  V30 1020 H 100.112 -4.16892 1.38194 0
M  V30 1021 H 100.718 -3.23061 2.76608 0
M  V30 1022 N 99.0327 -1.24633 -0.964593 0
M  V30 1023 C 99.9807 -1.03917 -2.08096 0
M  V30 1024 C 100.975 0.0268581 -1.69379 0
M  V30 1025 O 102.181 -0.127952 -1.79545 0
M  V30 1026 H 98.5557 -0.319044 -0.680966 0
M  V30 1027 H 100.527 -1.98581 -2.22729 0
M  V30 1028 C 99.2757 -0.663983 -3.41301 0
M  V30 1029 H 98.5987 -1.47605 -3.71555 0
M  V30 1030 H 100.039 -0.558663 -4.20303 0
M  V30 1031 C 98.4977 0.629169 -3.30973 0
M  V30 1032 O 99.0277 1.67404 -3.65156 0
M  V30 1033 N 97.2337 0.611057 -2.84103 0
M  V30 1034 H 96.7807 -0.239593 -2.56483 0
M  V30 1035 H 96.7387 1.47647 -2.77575 0
M  V30 1036 N 100.511 1.16574 -1.06058 0
M  V30 1037 C 101.757 1.87324 -0.777022 0
M  V30 1038 C 102.09 1.81351 0.694645 0
M  V30 1039 O 101.365 1.22753 1.50871 0
M  V30 1040 C 101.648 3.36991 -1.26922 0
M  V30 1041 C 101.501 3.51667 -2.80447 0
M  V30 1042 C 102.82 4.3131 -0.87521 0
M  V30 1043 H 99.9388 0.680191 -0.28374 0
M  V30 1044 H 102.581 1.37036 -1.3161 0
M  V30 1045 H 100.731 3.79949 -0.81063 0
M  V30 1046 H 102.403 3.17664 -3.34495 0
M  V30 1047 H 100.646 2.93656 -3.19294 0
M  V30 1048 H 101.317 4.56766 -3.0995 0
M  V30 1049 H 103.793 3.9624 -1.27014 0
M  V30 1050 H 102.669 5.34545 -1.2471 0
M  V30 1051 H 102.93 4.41552 0.220071 0
M  V30 1052 N 101.989 0.842826 1.3317 0
M  V30 1053 C 102.952 0.284065 2.27433 0
M  V30 1054 C 103.952 -0.54948 1.5112 0
M  V30 1055 O 105.142 -0.362699 1.70382 0
M  V30 1056 C 102.274 -0.599384 3.35589 0
M  V30 1057 H 103.467 1.11589 2.78366 0
M  V30 1058 H 101.02 0.616221 1.4364 0
M  V30 1059 H 101.755 -1.45349 2.89904 0
M  V30 1060 H 101.54 -0.00291266 3.921 0
M  V30 1061 H 103.03 -0.983488 4.05854 0
M  V30 1062 N 103.467 -1.45747 0.599634 0
M  V30 1063 C 104.692 -2.07178 0.0960198 0
M  V30 1064 C 105.117 -1.44268 -1.207 0
M  V30 1065 O 104.475 -0.532503 -1.73303 0
M  V30 1066 C 104.523 -3.60579 -0.0385348 0
M  V30 1067 O 103.627 -3.97713 -1.0908 0
M  V30 1068 H 102.968 -0.660251 0.0704593 0
M  V30 1069 H 105.498 -1.87124 0.827385 0
M  V30 1070 H 105.508 -4.07298 -0.239304 0
M  V30 1071 H 104.183 -4.05756 0.912947 0
M  V30 1072 H 102.76 -3.62678 -0.867135 0
M  V30 1073 N 104.945 -0.338344 -1.53925 0
M  V30 1074 C 105.877 0.555117 -2.22376 0
M  V30 1075 C 106.89 1.06812 -1.22862 0
M  V30 1076 O 108.079 0.979163 -1.49247 0
M  V30 1077 C 105.179 1.77609 -2.88631 0
M  V30 1078 C 104.352 1.39927 -4.14414 0
M  V30 1079 C 103.411 2.47936 -4.64127 0
M  V30 1080 O 102.437 2.11461 -5.28463 0
M  V30 1081 N 103.639 3.79107 -4.39612 0
M  V30 1082 H 106.404 -0.0310778 -2.99684 0
M  V30 1083 H 103.965 -0.162226 -1.61085 0
M  V30 1084 H 105.957 2.49287 -3.18807 0
M  V30 1085 H 104.527 2.26978 -2.14941 0
M  V30 1086 H 103.747 0.513481 -3.90841 0
M  V30 1087 H 105.035 1.12341 -4.96243 0
M  V30 1088 H 104.433 4.11531 -3.88148 0
M  V30 1089 H 102.99 4.4697 -4.74406 0
M  V30 1090 N 106.423 1.57458 -0.0668435 0
M  V30 1091 C 107.663 1.95175 0.607116 0
M  V30 1092 C 108.027 0.946039 1.67075 0
M  V30 1093 O 109.228 1.2107 2.39991 0
M  V30 1094 C 107.499 3.37582 1.17358 0
M  V30 1095 Se 109.058 3.97271 1.86336 0
M  V30 1096 H 105.876 0.682604 0.19893 0
M  V30 1097 H 108.478 1.95002 -0.139519 0
M  V30 1098 H 107.182 4.08566 0.387553 0
M  V30 1099 H 106.713 3.41288 1.95669 0
M  V30 1100 H 108.728 3.83772 3.14537 0
M  V30 1101 N 107.901 -0.206675 1.56239 0
M  V30 1102 C 109.149 -0.927007 1.79586 0
M  V30 1103 C 109.47 -1.8427 0.637929 0
M  V30 1104 O 108.74 -1.92849 -0.344398 0
M  V30 1105 H 107.32 -0.345292 0.662407 0
M  V30 1106 H 109.982 -0.21496 1.93711 0
M  V30 1107 H 109.078 -1.52501 2.72305 0
M  V30 1108 N 109.379 -1.50304 -0.473955 0
M  V30 1109 C 110.326 -1.68959 -1.57231 0
M  V30 1110 C 111.296 -0.530899 -1.57387 0
M  V30 1111 O 112.481 -0.761133 -1.74961 0
M  V30 1112 C 109.621 -1.7871 -2.95223 0
M  V30 1113 C 108.734 -3.06061 -3.04878 0
M  V30 1114 C 107.869 -3.06626 -4.33767 0
M  V30 1115 C 106.908 -4.28443 -4.37154 0
M  V30 1116 N 106.045 -4.26763 -5.5751 0
M  V30 1117 H 110.885 -2.6273 -1.40631 0
M  V30 1118 H 108.422 -1.30241 -0.683789 0
M  V30 1119 H 110.38 -1.82344 -3.75242 0
M  V30 1120 H 109.01 -0.883806 -3.10465 0
M  V30 1121 H 108.062 -3.11911 -2.17751 0
M  V30 1122 H 109.374 -3.96039 -3.0324 0
M  V30 1123 H 108.528 -3.08973 -5.22131 0
M  V30 1124 H 107.267 -2.14473 -4.3801 0
M  V30 1125 H 106.272 -4.2631 -3.47188 0
M  V30 1126 H 107.497 -5.2182 -4.34605 0
M  V30 1127 H 105.443 -3.37462 -5.62544 0
M  V30 1128 H 105.36 -5.10507 -5.57601 0
M  V30 1129 H 106.628 -4.33253 -6.48006 0
M  V30 1130 N 110.857 0.726932 -1.39834 0
M  V30 1131 C 112.085 1.51613 -1.40787 0
M  V30 1132 C 112.5 1.88799 -0.00451505 0
M  V30 1133 O 111.857 1.54662 0.968809 0
M  V30 1134 C 111.908 2.79863 -2.28821 0
M  V30 1135 O 111.629 2.44253 -3.63692 0
M  V30 1136 C 113.13 3.73837 -2.38245 0
M  V30 1137 H 110.35 0.468264 -0.480593 0
M  V30 1138 H 112.894 0.897607 -1.83748 0
M  V30 1139 H 111.049 3.38027 -1.89252 0
M  V30 1140 H 111.463 3.26695 -4.1033 0
M  V30 1141 H 112.937 4.60699 -3.04073 0
M  V30 1142 H 113.414 4.16153 -1.40403 0
M  V30 1143 H 114.02 3.21589 -2.78317 0
M  V30 1144 N 112.336 1.25143 0.95797 0
M  V30 1145 C 113.246 1.06968 2.08794 0
M  V30 1146 C 114.262 0.00773911 1.73998 0
M  V30 1147 O 115.438 0.207972 2.00323 0
M  V30 1148 C 112.503 0.68691 3.39827 0
M  V30 1149 C 111.564 1.82641 3.88511 0
M  V30 1150 C 110.797 1.46181 5.1329 0
M  V30 1151 O 111.02 0.355971 5.69288 0
M  V30 1152 O 109.954 2.29085 5.566 0
M  V30 1153 H 113.78 2.01723 2.27027 0
M  V30 1154 H 111.365 1.04051 1.07209 0
M  V30 1155 H 113.247 0.485417 4.18595 0
M  V30 1156 H 111.922 -0.231417 3.22872 0
M  V30 1157 H 110.829 2.08274 3.10762 0
M  V30 1158 H 112.162 2.72386 4.09959 0
M  V30 1159 N 113.814 -1.1601 1.06675 0
M  V30 1160 C 115.06 -1.86909 0.786945 0
M  V30 1161 C 115.393 -1.81717 -0.685018 0
M  V30 1162 O 114.668 -1.23551 -1.50218 0
M  V30 1163 C 114.951 -3.36313 1.28707 0
M  V30 1164 C 114.804 -3.50175 2.82308 0
M  V30 1165 C 116.123 -4.3084 0.898071 0
M  V30 1166 H 113.242 -0.678677 0.287343 0
M  V30 1167 H 115.884 -1.36336 1.32334 0
M  V30 1168 H 114.034 -3.79513 0.830768 0
M  V30 1169 H 115.706 -3.15886 3.36175 0
M  V30 1170 H 113.949 -2.91959 3.20847 0
M  V30 1171 H 114.62 -4.55116 3.12368 0
M  V30 1172 H 117.096 -3.95561 1.29114 0
M  V30 1173 H 115.972 -5.33876 1.27543 0
M  V30 1174 H 116.233 -4.41662 -0.196651 0
M  V30 1175 N 115.292 -0.849877 -1.32721 0
M  V30 1176 C 116.24 -0.279745 -2.30912 0
M  V30 1177 C 117.234 0.594278 -1.58634 0
M  V30 1178 O 118.44 0.482613 -1.73409 0
M  V30 1179 H 114.815 -0.0717521 -0.748569 0
M  V30 1180 H 116.786 -1.12222 -2.76494 0
M  V30 1181 C 115.535 0.521108 -3.43773 0
M  V30 1182 H 114.858 -0.142141 -3.99547 0
M  V30 1183 H 116.298 0.885693 -4.14646 0
M  V30 1184 C 114.757 1.70442 -2.90605 0
M  V30 1185 O 115.287 2.8034 -2.87702 0
M  V30 1186 N 113.493 1.52991 -2.47067 0
M  V30 1187 H 113.04 0.635914 -2.49628 0
M  V30 1188 H 112.998 2.32311 -2.11847 0
M  V30 1189 N 116.77 1.45427 -0.607355 0
M  V30 1190 C 118 2.06314 -0.108656 0
M  V30 1191 C 118.408 1.45269 1.21217 0
M  V30 1192 O 117.751 0.561115 1.74921 0
M  V30 1193 C 117.813 3.59345 0.105618 0
M  V30 1194 C 117.477 4.42723 -1.13337 0
M  V30 1195 C 118.474 4.77715 -2.05145 0
M  V30 1196 C 116.159 4.83478 -1.36213 0
M  V30 1197 C 118.153 5.52317 -3.18158 0
M  V30 1198 C 115.84 5.57835 -2.49527 0
M  V30 1199 C 116.838 5.92171 -3.40327 0
M  V30 1200 O 116.526 6.65019 -4.51669 0
M  V30 1201 H 116.258 0.672782 -0.0658842 0
M  V30 1202 H 118.812 1.87664 -0.834945 0
M  V30 1203 H 117.042 3.76394 0.886796 0
M  V30 1204 H 118.731 4.02076 0.555886 0
M  V30 1205 H 119.497 4.46787 -1.88697 0
M  V30 1206 H 115.376 4.56188 -0.664362 0
M  V30 1207 H 118.92 5.79036 -3.89054 0
M  V30 1208 H 114.817 5.88177 -2.65928 0
M  V30 1209 H 115.585 6.83469 -4.50348 0
M  V30 1210 N 118.248 0.346503 1.53744 0
M  V30 1211 C 119.476 -0.25041 2.05379 0
M  V30 1212 C 119.891 -1.43979 1.22129 0
M  V30 1213 O 119.248 -1.80677 0.257321 0
M  V30 1214 C 119.299 -0.662575 3.55376 0
M  V30 1215 O 119.02 0.479515 4.35468 0
M  V30 1216 C 120.521 -1.31989 4.23195 0
M  V30 1217 H 117.741 -0.0478198 0.669294 0
M  V30 1218 H 120.285 0.499346 1.9831 0
M  V30 1219 H 118.44 -1.36227 3.62658 0
M  V30 1220 H 118.854 0.15037 5.24284 0
M  V30 1221 H 120.328 -1.55902 5.29527 0
M  V30 1222 H 120.805 -2.27436 3.75725 0
M  V30 1223 H 121.411 -0.662154 4.20114 0
M  V30 1224 N 119.726 -1.57421 0.075193 0
M  V30 1225 C 120.658 -2.09904 -0.920483 0
M  V30 1226 C 121.671 -1.03191 -1.25918 0
M  V30 1227 O 122.86 -1.30695 -1.21577 0
M  V30 1228 C 119.96 -2.54726 -2.23534 0
M  V30 1229 C 119.133 -3.8505 -2.07498 0
M  V30 1230 C 118.192 -4.15929 -3.22319 0
M  V30 1231 O 117.218 -4.85474 -2.9716 0
M  V30 1232 N 118.42 -3.69745 -4.47514 0
M  V30 1233 H 121.185 -2.95954 -0.472359 0
M  V30 1234 H 118.746 -1.61523 -0.110444 0
M  V30 1235 H 120.738 -2.72443 -2.9926 0
M  V30 1236 H 119.308 -1.73795 -2.59835 0
M  V30 1237 H 118.528 -3.76679 -1.16219 0
M  V30 1238 H 119.816 -4.70348 -1.94038 0
M  V30 1239 H 119.214 -3.13569 -4.7084 0
M  V30 1240 H 117.771 -3.92655 -5.20255 0
M  V30 1241 N 121.204 0.198386 -1.56346 0
M  V30 1242 C 122.134 1.24865 -1.9731 0
M  V30 1243 C 123.115 1.47651 -0.844576 0
M  V30 1244 O 124.3 1.59444 -1.10866 0
M  V30 1245 C 121.43 2.59358 -2.30977 0
M  V30 1246 C 120.384 2.5119 -3.46537 0
M  V30 1247 C 119.71 3.89926 -3.65871 0
M  V30 1248 C 121.01 2.03977 -4.80823 0
M  V30 1249 H 122.704 0.908252 -2.85291 0
M  V30 1250 H 120.25 0.435462 -1.37258 0
M  V30 1251 H 122.203 3.33011 -2.58228 0
M  V30 1252 H 120.927 2.95132 -1.39874 0
M  V30 1253 H 119.586 1.79993 -3.19371 0
M  V30 1254 H 119.234 4.23046 -2.72105 0
M  V30 1255 H 118.934 3.85336 -4.4361 0
M  V30 1256 H 120.458 4.65205 -3.95495 0
M  V30 1257 H 121.872 2.67386 -5.07127 0
M  V30 1258 H 120.269 2.10397 -5.62008 0
M  V30 1259 H 121.339 0.992861 -4.74626 0
M  V30 1260 N 122.682 1.50554 0.465978 0
M  V30 1261 C 123.928 1.62038 1.21949 0
M  V30 1262 C 124.261 0.322116 1.9151 0
M  V30 1263 O 123.536 -0.676723 1.82348 0
M  V30 1264 C 123.819 2.80421 2.25912 0
M  V30 1265 C 123.672 4.20144 1.60622 0
M  V30 1266 C 124.991 2.94354 3.27176 0
M  V30 1267 H 122.11 0.589752 0.441998 0
M  V30 1268 H 124.752 1.82956 0.51257 0
M  V30 1269 H 122.902 2.62717 2.86203 0
M  V30 1270 H 124.574 4.49449 1.03889 0
M  V30 1271 H 122.817 4.24165 0.909211 0
M  V30 1272 H 123.488 4.98914 2.36196 0
M  V30 1273 H 125.964 3.10578 2.76913 0
M  V30 1274 H 124.84 3.788 3.97242 0
M  V30 1275 H 125.101 2.05186 3.916 0
M  V30 1276 N 124.16 -0.719506 1.40217 0
M  V30 1277 C 125.437 -1.47221 1.28784 0
M  V30 1278 C 125.817 -2.10883 -0.0956067 0
M  V30 1279 O 125.165 -1.99833 -1.10811 0
M  V30 1280 C 125.375 -2.5111 2.42373 0
M  V30 1281 C 126.723 -3.17053 2.82423 0
M  V30 1282 O 127.747 -2.61429 2.41937 0
M  V30 1283 O 126.606 -4.17742 3.52355 0
M  V30 1284 H 123.7 -0.654491 0.50554 0
M  V30 1285 H 126.246 -0.752014 1.52128 0
M  V30 1286 H 125.018 -2.02556 3.34793 0
M  V30 1287 H 124.641 -3.3067 2.20778 0
M  V30 1288 N 125.638 -1.25649 -0.95132 0
M  V30 1289 C 126.568 -1.08808 -2.06599 0
M  V30 1290 C 127.549 0.00382547 -1.701 0
M  V30 1291 O 128.734 -0.166325 -1.93486 0
M  V30 1292 C 125.864 -0.709542 -3.39975 0
M  V30 1293 C 124.818 -1.75206 -3.90496 0
M  V30 1294 C 124.144 -1.22811 -5.20405 0
M  V30 1295 C 125.444 -3.15153 -4.16504 0
M  V30 1296 H 127.138 -2.02048 -2.20946 0
M  V30 1297 H 124.684 -0.972835 -1.06169 0
M  V30 1298 H 126.637 -0.578649 -4.17408 0
M  V30 1299 H 125.361 0.258556 -3.25575 0
M  V30 1300 H 124.02 -1.87145 -3.15234 0
M  V30 1301 H 123.668 -0.250145 -5.02378 0
M  V30 1302 H 123.368 -1.92492 -5.55176 0
M  V30 1303 H 124.892 -1.10968 -6.00432 0
M  V30 1304 H 126.306 -3.06349 -4.84586 0
M  V30 1305 H 124.703 -3.82333 -4.62538 0
M  V30 1306 H 125.773 -3.61966 -3.22658 0
M  V30 1307 N 127.117 1.15442 -1.07289 0
M  V30 1308 C 128.067 2.18164 -0.662467 0
M  V30 1309 C 129.051 1.57845 0.312074 0
M  V30 1310 O 130.243 1.76552 0.125905 0
M  V30 1311 C 127.372 3.43246 -0.0611295 0
M  V30 1312 C 126.458 4.1062 -1.06077 0
M  V30 1313 N 126.849 4.53491 -2.24008 0
M  V30 1314 C 125.147 4.36949 -0.893964 0
M  V30 1315 C 125.848 5.05731 -2.87422 0
M  V30 1316 N 124.824 4.99236 -2.15091 0
M  V30 1317 H 128.626 2.49038 -1.56068 0
M  V30 1318 H 126.14 1.32003 -0.945988 0
M  V30 1319 H 128.137 4.16145 0.250792 0
M  V30 1320 H 126.797 3.13854 0.832207 0
M  V30 1321 H 127.808 4.46898 -2.6173 0
M  V30 1322 H 124.485 4.17466 -0.0534693 0
M  V30 1323 H 125.875 5.48865 -3.87553 0
M  V30 1324 N 128.595 0.856903 1.32268 0
M  V30 1325 C 129.558 0.308171 2.27119 0
M  V30 1326 C 130.558 -0.533421 1.51695 0
M  V30 1327 O 131.748 -0.344607 1.70757 0
M  V30 1328 C 128.88 -0.563757 3.36206 0
M  V30 1329 H 130.073 1.14535 2.77167 0
M  V30 1330 H 127.626 0.631421 1.42978 0
M  V30 1331 H 128.361 -1.42266 2.91429 0
M  V30 1332 H 128.146 0.0386749 3.92081 0
M  V30 1333 H 129.636 -0.940386 4.06874 0
M  V30 1334 N 130.073 -1.45103 0.615059 0
M  V30 1335 C 131.489 -1.57137 0.279322 0
M  V30 1336 C 131.689 -1.60523 -1.21797 0
M  V30 1337 O 130.745 -1.53956 -2.00134 0
M  V30 1338 C 132.058 -2.85062 0.957083 0
M  V30 1339 C 133.606 -2.98749 0.933706 0
M  V30 1340 C 134.081 -4.29455 1.59162 0
M  V30 1341 N 135.572 -4.36231 1.55746 0
M  V30 1342 C 136.307 -5.36051 2.0356 0
M  V30 1343 N 135.803 -6.42367 2.59494 0
M  V30 1344 N 137.596 -5.27456 1.94284 0
M  V30 1345 H 129.747 -1.41148 1.58717 0
M  V30 1346 H 132.01 -0.675331 0.665306 0
M  V30 1347 H 131.716 -2.88488 2.01166 0
M  V30 1348 H 131.59 -3.7407 0.48494 0
M  V30 1349 H 133.977 -2.94886 -0.112347 0
M  V30 1350 H 134.058 -2.11132 1.44419 0
M  V30 1351 H 133.702 -4.34077 2.63704 0
M  V30 1352 H 133.632 -5.15901 1.0561 0
M  V30 1353 H 136.123 -3.60011 1.14893 0
M  V30 1354 H 136.436 -7.14793 2.93752 0
M  V30 1355 H 134.781 -6.43097 2.63537 0
M  V30 1356 H 137.972 -4.43308 1.5032 0
M  V30 1357 H 138.145 -6.05099 2.3186 0
M  V30 1358 N 131.551 -0.354651 -1.53558 0
M  V30 1359 C 132.781 0.239167 -2.05211 0
M  V30 1360 C 133.189 1.43879 -1.22863 0
M  V30 1361 O 132.532 1.81857 -0.259565 0
M  V30 1362 C 132.594 0.707251 -3.52474 0
M  V30 1363 C 132.258 -0.374212 -4.55465 0
M  V30 1364 C 133.255 -1.22054 -5.0537 0
M  V30 1365 C 130.94 -0.531323 -4.99482 0
M  V30 1366 C 132.934 -2.20942 -5.97882 0
M  V30 1367 C 130.621 -1.52358 -5.91802 0
M  V30 1368 C 131.619 -2.36108 -6.40892 0
M  V30 1369 O 131.307 -3.33643 -7.31394 0
M  V30 1370 H 131.039 0.0479716 -0.674296 0
M  V30 1371 H 133.593 -0.508121 -1.99016 0
M  V30 1372 H 131.823 1.50596 -3.56171 0
M  V30 1373 H 133.512 1.22285 -3.87042 0
M  V30 1374 H 134.278 -1.1103 -4.7212 0
M  V30 1375 H 130.157 0.110738 -4.60867 0
M  V30 1376 H 133.701 -2.86348 -6.36121 0
M  V30 1377 H 129.598 -1.63434 -6.24467 0
M  V30 1378 H 130.366 -3.29244 -7.4936 0
M  V30 1379 N 133.029 1.57378 -0.0835403 0
M  V30 1380 C 133.992 2.12252 0.864959 0
M  V30 1381 C 134.992 1.04916 1.21858 0
M  V30 1382 O 136.182 1.30853 1.14991 0
M  V30 1383 C 133.314 2.63358 2.16461 0
M  V30 1384 H 134.507 2.97371 0.388676 0
M  V30 1385 H 132.06 1.55423 0.165317 0
M  V30 1386 H 132.795 1.81727 2.686 0
M  V30 1387 H 132.58 3.41826 1.92087 0
M  V30 1388 H 134.07 3.05847 2.84337 0
M  V30 1389 N 134.507 -0.190092 1.56449 0
M  V30 1390 C 135.417 -1.25591 1.98152 0
M  V30 1391 C 136.433 -1.49519 0.889944 0
M  V30 1392 O 137.609 -1.62036 1.19609 0
M  V30 1393 C 134.674 -2.57916 2.3169 0
M  V30 1394 C 133.735 -2.42015 3.5458 0
M  V30 1395 C 132.968 -3.6803 3.8651 0
M  V30 1396 O 133.191 -4.72413 3.1966 0
M  V30 1397 O 132.125 -3.6326 4.79923 0
M  V30 1398 H 135.951 -0.931988 2.89046 0
M  V30 1399 H 133.536 -0.395488 1.4407 0
M  V30 1400 H 135.418 -3.36008 2.54316 0
M  V30 1401 H 134.093 -2.89925 1.43963 0
M  V30 1402 H 133 -1.62017 3.37196 0
M  V30 1403 H 134.333 -2.14937 4.4279 0
M  V30 1404 N 135.985 -1.50799 -0.457987 0
M  V30 1405 C 137.225 -1.64088 -1.21879 0
M  V30 1406 C 137.589 -0.339848 -1.88968 0
M  V30 1407 O 138.79 -0.348301 -2.66534 0
M  V30 1408 C 137.061 -2.79726 -2.2246 0
M  V30 1409 S 138.62 -3.13225 -3.07303 0
M  V30 1410 H 135.438 -0.578314 -0.41361 0
M  V30 1411 H 138.04 -1.88632 -0.513645 0
M  V30 1412 H 136.744 -3.72722 -1.71775 0
M  V30 1413 H 136.275 -2.57308 -2.97584 0
M  V30 1414 H 138.29 -2.58062 -4.23814 0
M  V30 1415 N 137.463 0.71206 -1.40597 0
M  V30 1416 C 138.711 1.46907 -1.38791 0
M  V30 1417 C 139.032 1.94998 0.00780391 0
M  V30 1418 O 138.302 1.70587 0.963174 0
M  V30 1419 H 136.882 0.545043 -0.51082 0
M  V30 1420 H 139.544 0.843882 -1.75683 0
M  V30 1421 H 138.64 2.34021 -2.06496 0
M  V30 1422 N 138.941 1.26152 0.944643 0
M  V30 1423 C 139.871 1.09902 2.06019 0
M  V30 1424 C 140.852 0.00519538 1.70099 0
M  V30 1425 O 142.037 0.176583 1.93396 0
M  V30 1426 C 139.167 0.727562 3.39594 0
M  V30 1427 C 138.121 1.77274 3.89561 0
M  V30 1428 C 137.447 1.25569 5.19747 0
M  V30 1429 C 138.747 3.17357 4.14827 0
M  V30 1430 H 140.441 2.03217 2.19871 0
M  V30 1431 H 137.987 0.978452 1.05652 0
M  V30 1432 H 139.94 0.600777 4.17095 0
M  V30 1433 H 138.664 -0.241287 3.25707 0
M  V30 1434 H 137.323 1.88814 3.14237 0
M  V30 1435 H 136.971 0.276783 5.02238 0
M  V30 1436 H 136.671 1.95433 5.54148 0
M  V30 1437 H 138.195 1.1415 5.99835 0
M  V30 1438 H 139.609 3.08914 4.82954 0
M  V30 1439 H 138.006 3.84781 4.60504 0
M  V30 1440 H 139.076 3.63673 3.20734 0
M  V30 1441 N 140.419 -1.14872 1.07899 0
M  V30 1442 C 141.835 -1.37776 0.805606 0
M  V30 1443 C 142.035 -1.92743 -0.587555 0
M  V30 1444 O 141.091 -2.13678 -1.34528 0
M  V30 1445 C 142.404 -2.34361 1.88402 0
M  V30 1446 C 143.952 -2.48012 1.90942 0
M  V30 1447 C 144.427 -3.47893 2.97883 0
M  V30 1448 N 145.918 -3.55433 2.97021 0
M  V30 1449 C 146.653 -4.32553 3.76412 0
M  V30 1450 N 146.149 -5.12959 4.65666 0
M  V30 1451 N 147.942 -4.27697 3.64735 0
M  V30 1452 H 140.093 -0.775365 1.97742 0
M  V30 1453 H 142.356 -0.403521 0.857831 0
M  V30 1454 H 142.062 -2.01098 2.88535 0
M  V30 1455 H 141.936 -3.34206 1.74889 0
M  V30 1456 H 144.323 -2.8057 0.914579 0
M  V30 1457 H 144.404 -1.48147 2.08534 0
M  V30 1458 H 144.048 -3.16069 3.97571 0
M  V30 1459 H 143.978 -4.47527 2.77538 0
M  V30 1460 H 146.469 -2.98048 2.32326 0
M  V30 1461 H 146.782 -5.69065 5.22862 0
M  V30 1462 H 145.127 -5.12245 4.69712 0
M  V30 1463 H 148.318 -3.63949 2.94378 0
M  V30 1464 H 148.491 -4.8755 4.26848 0
M  V30 1465 N 141.898 -0.863906 -1.31812 0
M  V30 1466 C 143.147 -0.46801 -1.96195 0
M  V30 1467 C 143.46 0.983474 -1.69077 0
M  V30 1468 O 144.666 1.48523 -2.27273 0
M  V30 1469 C 143.122 -0.785995 -3.51212 0
M  V30 1470 C 142.73 -2.25383 -3.87178 0
M  V30 1471 C 144.474 -0.458274 -4.22019 0
M  V30 1472 C 142.381 -2.51455 -5.3528 0
M  V30 1473 H 141.311 -0.171283 -0.734287 0
M  V30 1474 H 143.962 -1.05597 -1.50072 0
M  V30 1475 H 142.344 -0.127359 -3.95795 0
M  V30 1476 H 143.518 -2.95502 -3.53575 0
M  V30 1477 H 141.833 -2.54698 -3.2942 0
M  V30 1478 H 144.43 -0.630369 -5.30971 0
M  V30 1479 H 144.773 0.600834 -4.11941 0
M  V30 1480 H 145.306 -1.07319 -3.8305 0
M  V30 1481 H 142.045 -3.56025 -5.50387 0
M  V30 1482 H 141.565 -1.85923 -5.70257 0
M  V30 1483 H 143.244 -2.35874 -6.02472 0
M  V30 1484 N 143.376 1.44774 -0.622745 0
M  V30 1485 C 144.306 2.33382 0.0741861 0
M  V30 1486 C 145.287 1.47719 0.843387 0
M  V30 1487 O 146.472 1.76458 0.810934 0
M  V30 1488 C 143.602 3.30663 1.06204 0
M  V30 1489 C 142.556 4.26079 0.405037 0
M  V30 1490 C 141.882 5.13165 1.5022 0
M  V30 1491 C 143.182 5.1781 -0.683414 0
M  V30 1492 H 144.876 2.91905 -0.665713 0
M  V30 1493 H 142.422 1.40363 -0.321587 0
M  V30 1494 H 144.375 3.9153 1.55827 0
M  V30 1495 H 143.099 2.70331 1.83272 0
M  V30 1496 H 141.758 3.66532 -0.0704683 0
M  V30 1497 H 141.406 4.49191 2.26355 0
M  V30 1498 H 141.106 5.77812 1.06803 0
M  V30 1499 H 142.63 5.76902 2.00041 0
M  V30 1500 H 144.044 5.72661 -0.270631 0
M  V30 1501 H 142.441 5.91015 -1.04023 0
M  V30 1502 H 143.511 4.59326 -1.55395 0
M  V30 1503 N 144.854 0.36279 1.53368 0
M  V30 1504 C 145.817 -0.472679 2.24273 0
M  V30 1505 C 146.817 -1.012 1.24961 0
M  V30 1506 O 148.007 -0.898194 1.49259 0
M  V30 1507 C 145.139 -1.66039 2.97731 0
M  V30 1508 H 146.332 0.14773 2.99536 0
M  V30 1509 H 143.885 0.114434 1.55881 0
M  V30 1510 H 144.62 -2.31896 2.26704 0
M  V30 1511 H 144.405 -1.28066 3.70596 0
M  V30 1512 H 145.895 -2.25252 3.51641 0
M  V30 1513 N 146.332 -1.57332 0.0918853 0
M  V30 1514 C 147.579 -1.94236 -0.572577 0
M  V30 1515 C 147.907 -0.973398 -1.6839 0
M  V30 1516 O 147.162 0.00756912 -1.95699 0
M  V30 1517 C 147.461 -3.37689 -1.17051 0
M  V30 1518 C 147.127 -4.50527 -0.183304 0
M  V30 1519 C 145.789 -4.81119 0.0882276 0
M  V30 1520 C 148.141 -5.18883 0.49095 0
M  V30 1521 C 145.469 -5.77395 1.04076 0
M  V30 1522 C 147.821 -6.1618 1.43193 0
M  V30 1523 C 146.485 -6.45179 1.71173 0
M  V30 1524 H 145.755 -0.710762 -0.209521 0
M  V30 1525 H 148.402 -1.9077 0.167036 0
M  V30 1526 H 146.707 -3.37718 -1.9863 0
M  V30 1527 H 148.404 -3.63543 -1.69227 0
M  V30 1528 H 144.994 -4.26681 -0.405124 0
M  V30 1529 H 149.178 -4.95427 0.294312 0
M  V30 1530 H 144.434 -5.98179 1.26457 0
M  V30 1531 H 148.608 -6.68243 1.96023 0
M  V30 1532 H 146.235 -7.1959 2.4514 0
M  V30 1533 N 147.81 0.181792 -1.56548 0
M  V30 1534 C 149.221 0.745244 -1.71181 0
M  V30 1535 C 149.572 1.83262 -0.70068 0
M  V30 1536 O 148.697 2.15946 0.140154 0
M  V30 1537 C 149.292 1.35859 -3.10367 0
M  V30 1538 C 147.851 1.86898 -3.2672 0
M  V30 1539 C 146.998 0.743942 -2.67134 0
M  V30 1540 H 149.949 -0.0434661 -1.5864 0
M  V30 1541 H 149.97 2.22817 -3.08436 0
M  V30 1542 H 149.482 0.566948 -3.83937 0
M  V30 1543 H 147.583 2.68738 -2.5809 0
M  V30 1544 H 147.696 2.02162 -4.34359 0
M  V30 1545 H 146.06 1.16169 -2.26665 0
M  V30 1546 H 146.843 -0.035676 -3.43281 0
M  V30 1547 N 149.288 1.51039 0.449983 0
M  V30 1548 C 150.528 1.64732 1.21007 0
M  V30 1549 C 150.892 0.349865 1.88785 0
M  V30 1550 O 152.093 0.362431 2.66345 0
M  V30 1551 C 150.364 2.80902 2.20973 0
M  V30 1552 S 151.923 3.14851 3.05638 0
M  V30 1553 H 148.741 0.5805 0.410538 0
M  V30 1554 H 151.343 1.88901 0.503634 0
M  V30 1555 H 150.047 3.73627 1.69796 0
M  V30 1556 H 149.578 2.58882 2.96215 0
M  V30 1557 H 151.593 2.60306 4.22439 0
M  V30 1558 N 150.766 -0.704594 1.40972 0
M  V30 1559 C 151.714 -1.83994 1.42299 0
M  V30 1560 C 152.708 -1.66684 0.302111 0
M  V30 1561 O 153.914 -1.73655 0.473697 0
M  V30 1562 H 150.289 -0.606171 0.44504 0
M  V30 1563 H 152.26 -1.79992 2.38003 0
M  V30 1564 C 151.009 -3.21946 1.31323 0
M  V30 1565 H 150.332 -3.35878 2.16855 0
M  V30 1566 H 151.772 -4.01491 1.36311 0
M  V30 1567 C 150.231 -3.36891 0.0245977 0
M  V30 1568 O 150.761 -3.90687 -0.934153 0
M  V30 1569 N 148.967 -2.90559 -0.0485243 0
M  V30 1570 H 148.514 -2.46968 0.732419 0
M  V30 1571 H 148.472 -3.00937 -0.910171 0
M  V30 1572 N 152.244 -1.26651 -0.937939 0
M  V30 1573 C 153.176 -1.04283 -2.04102 0
M  V30 1574 C 154.189 -0.00221014 -1.628 0
M  V30 1575 O 155.378 -0.242645 -1.76843 0
M  V30 1576 C 152.478 -0.557846 -3.34277 0
M  V30 1577 C 151.651 -1.66843 -4.04329 0
M  V30 1578 C 150.71 -1.18095 -5.12777 0
M  V30 1579 O 149.736 -1.87865 -5.37304 0
M  V30 1580 N 150.938 -0.0311006 -5.80492 0
M  V30 1581 H 153.703 -1.9927 -2.23856 0
M  V30 1582 H 151.264 -1.1808 -1.10764 0
M  V30 1583 H 153.256 -0.215836 -4.04124 0
M  V30 1584 H 151.826 0.298523 -3.11171 0
M  V30 1585 H 151.046 -2.18123 -3.28353 0
M  V30 1586 H 152.334 -2.41408 -4.47883 0
M  V30 1587 H 151.732 0.551486 -5.63005 0
M  V30 1588 H 150.289 0.251809 -6.51313 0
M  V30 1589 N 153.722 1.14298 -1.08507 0
M  V30 1590 C 154.969 1.85359 -0.815373 0
M  V30 1591 C 155.297 1.83001 0.658865 0
M  V30 1592 O 154.552 1.25655 1.50031 0
M  V30 1593 C 154.851 3.33547 -1.28379 0
M  V30 1594 C 154.517 3.56093 -2.76602 0
M  V30 1595 C 153.179 3.61955 -3.17084 0
M  V30 1596 C 155.531 3.64834 -3.72217 0
M  V30 1597 C 152.859 3.74082 -4.51973 0
M  V30 1598 C 155.211 3.78487 -5.06883 0
M  V30 1599 C 153.875 3.82598 -5.46969 0
M  V30 1600 H 153.145 0.678276 -0.298366 0
M  V30 1601 H 155.792 1.35002 -1.35819 0
M  V30 1602 H 154.097 3.86191 -0.660593 0
M  V30 1603 H 155.794 3.86959 -1.05186 0
M  V30 1604 H 152.384 3.52179 -2.4427 0
M  V30 1605 H 156.568 3.59595 -3.42061 0
M  V30 1606 H 151.824 3.75527 -4.82483 0
M  V30 1607 H 155.998 3.84193 -5.80834 0
M  V30 1608 H 153.625 3.91747 -6.51489 0
M  V30 1609 N 155.201 0.870884 1.31352 0
M  V30 1610 C 156.449 0.48132 1.96285 0
M  V30 1611 C 156.77 -0.969813 1.69173 0
M  V30 1612 O 156.04 -1.67998 1.00764 0
M  V30 1613 H 154.62 0.175002 0.726212 0
M  V30 1614 H 157.282 1.11087 1.60143 0
M  V30 1615 H 156.378 0.639825 3.05471 0
M  V30 1616 N 156.679 -1.44442 0.630414 0
M  V30 1617 C 157.626 -2.30678 -0.0749355 0
M  V30 1618 C 158.596 -1.4344 -0.837502 0
M  V30 1619 O 159.781 -1.72343 -0.818684 0
M  V30 1620 C 156.921 -3.28706 -1.05103 0
M  V30 1621 C 156.034 -4.31046 -0.286954 0
M  V30 1622 C 155.169 -5.16167 -1.2548 0
M  V30 1623 C 154.208 -6.10216 -0.479843 0
M  V30 1624 N 153.345 -6.88039 -1.39811 0
M  V30 1625 H 158.185 -2.90454 0.666386 0
M  V30 1626 H 155.722 -1.43107 0.340404 0
M  V30 1627 H 157.68 -3.84027 -1.63031 0
M  V30 1628 H 156.31 -2.70632 -1.75949 0
M  V30 1629 H 155.362 -3.78203 0.408243 0
M  V30 1630 H 156.674 -4.97794 0.316657 0
M  V30 1631 H 155.828 -5.76002 -1.90544 0
M  V30 1632 H 154.567 -4.49491 -1.89233 0
M  V30 1633 H 153.572 -5.49491 0.184295 0
M  V30 1634 H 154.797 -6.78928 0.152965 0
M  V30 1635 H 152.743 -6.24032 -2.02287 0
M  V30 1636 H 152.66 -7.51223 -0.848508 0
M  V30 1637 H 153.928 -7.52397 -2.03762 0
M  V30 1638 N 158.157 -0.370918 -1.53173 0
M  V30 1639 C 159.089 0.507823 -2.23503 0
M  V30 1640 C 160.102 1.04182 -1.251 0
M  V30 1641 O 161.291 0.947286 -1.5129 0
M  V30 1642 C 158.391 1.71447 -2.92334 0
M  V30 1643 C 157.564 1.31105 -4.17289 0
M  V30 1644 C 156.623 2.38035 -4.69282 0
M  V30 1645 O 155.649 2.00204 -5.32829 0
M  V30 1646 N 156.851 3.69697 -4.47554 0
M  V30 1647 H 159.616 -0.0946382 -2.99551 0
M  V30 1648 H 157.177 -0.196358 -1.60705 0
M  V30 1649 H 159.169 2.42469 -3.24023 0
M  V30 1650 H 157.739 2.22368 -2.19707 0
M  V30 1651 H 156.959 0.430462 -3.91843 0
M  V30 1652 H 158.247 1.0179 -4.98514 0
M  V30 1653 H 157.645 4.03205 -3.9679 0
M  V30 1654 H 156.202 4.36807 -4.8378 0
M  V30 1655 N 159.635 1.57281 -0.100228 0
M  V30 1656 C 160.545 2.17833 0.870965 0
M  V30 1657 C 161.561 1.14921 1.30649 0
M  V30 1658 O 162.737 1.47313 1.37335 0
M  V30 1659 C 159.802 2.75085 2.1102 0
M  V30 1660 C 158.863 3.9297 1.72838 0
M  V30 1661 C 158.096 4.47482 2.90854 0
M  V30 1662 O 158.319 4.00922 4.05731 0
M  V30 1663 O 157.253 5.38433 2.69023 0
M  V30 1664 H 161.079 3.0124 0.38575 0
M  V30 1665 H 158.664 1.48881 0.124397 0
M  V30 1666 H 160.546 3.11656 2.83634 0
M  V30 1667 H 159.221 1.94721 2.58584 0
M  V30 1668 H 158.128 3.61201 0.973883 0
M  V30 1669 H 159.461 4.74713 1.30033 0
M  V30 1670 N 161.113 -0.173488 1.56642 0
M  V30 1671 C 162.524 -0.736155 1.71574 0
M  V30 1672 C 162.875 -1.82888 0.710389 0
M  V30 1673 O 162 -2.16017 -0.1287 0
M  V30 1674 C 162.595 -1.34211 3.11083 0
M  V30 1675 C 161.154 -1.85162 3.27707 0
M  V30 1676 C 160.301 -0.729765 2.67525 0
M  V30 1677 H 163.252 0.0518786 1.58615 0
M  V30 1678 H 163.273 -2.21178 3.09613 0
M  V30 1679 H 162.785 -0.546579 3.84232 0
M  V30 1680 H 160.886 -2.67366 2.59512 0
M  V30 1681 H 160.999 -1.99855 4.35425 0
M  V30 1682 H 159.363 -1.14965 2.27278 0
M  V30 1683 H 160.146 0.0538806 3.43258 0
M  V30 1684 N 162.591 -1.51276 -0.441967 0
M  V30 1685 C 163.839 -1.63392 -1.18943 0
M  V30 1686 C 164.16 -0.350159 -1.9183 0
M  V30 1687 O 163.43 0.633784 -1.85364 0
M  V30 1688 H 162.01 -0.602164 -0.442049 0
M  V30 1689 H 164.672 -1.88186 -0.507165 0
M  V30 1690 H 163.768 -2.45934 -1.92154 0
M  V30 1691 N 164.069 0.697108 -1.41344 0
M  V30 1692 C 165.294 1.49096 -1.44171 0
M  V30 1693 C 165.719 1.88038 -0.0481568 0
M  V30 1694 O 165.077 1.54525 0.948243 0
M  V30 1695 C 165.125 2.73088 -2.3549 0
M  V30 1696 O 164.229 3.70514 -1.81088 0
M  V30 1697 H 163.57 0.448801 -0.489361 0
M  V30 1698 H 166.1 0.856992 -1.85787 0
M  V30 1699 H 166.11 3.21413 -2.51312 0
M  V30 1700 H 164.785 2.44081 -3.36745 0
M  V30 1701 H 163.362 3.29441 -1.74708 0
M  V30 1702 N 165.547 1.27147 0.931209 0
M  V30 1703 C 166.495 1.09398 2.05268 0
M  V30 1704 C 167.489 0.0180591 1.6939 0
M  V30 1705 O 168.695 0.17551 1.79142 0
M  V30 1706 H 165.07 0.336986 0.672268 0
M  V30 1707 H 167.041 2.04416 2.17386 0
M  V30 1708 C 165.79 0.75424 3.39421 0
M  V30 1709 H 165.113 1.57404 3.67511 0
M  V30 1710 H 166.553 0.669903 4.18674 0
M  V30 1711 C 165.012 -0.541197 3.32525 0
M  V30 1712 O 165.542 -1.57664 3.69466 0
M  V30 1713 N 163.748 -0.535517 2.85623 0
M  V30 1714 H 163.295 0.307511 2.55758 0
M  V30 1715 H 163.253 -1.40236 2.81392 0
M  V30 1716 N 167.025 -1.13721 1.09112 0
M  V30 1717 C 167.935 -2.22638 0.73957 0
M  V30 1718 C 168.951 -1.72091 -0.257068 0
M  V30 1719 O 170.127 -2.01155 -0.0992154 0
M  V30 1720 C 167.192 -3.46322 0.16191 0
M  V30 1721 C 166.253 -4.11775 1.21408 0
M  V30 1722 C 165.486 -5.29555 0.663891 0
M  V30 1723 O 165.709 -5.68077 -0.514274 0
M  V30 1724 O 164.643 -5.84973 1.41738 0
M  V30 1725 H 168.469 -2.55074 1.64836 0
M  V30 1726 H 166.054 -1.21791 0.865289 0
M  V30 1727 H 167.936 -4.21107 -0.157073 0
M  V30 1728 H 166.611 -3.15593 -0.719932 0
M  V30 1729 H 165.518 -3.3883 1.58571 0
M  V30 1730 H 166.851 -4.46627 2.06845 0
M  V30 1731 N 168.503 -0.877838 -1.30888 0
M  V30 1732 C 169.413 -0.343096 -2.32078 0
M  V30 1733 C 170.429 0.551022 -1.65045 0
M  V30 1734 O 171.605 0.445854 -1.96403 0
M  V30 1735 C 168.67 0.439905 -3.43898 0
M  V30 1736 C 167.731 -0.483111 -4.26573 0
M  V30 1737 C 166.964 0.262616 -5.33053 0
M  V30 1738 O 167.187 1.48967 -5.50604 0
M  V30 1739 O 166.121 -0.383593 -6.00676 0
M  V30 1740 H 169.947 -1.18203 -2.79753 0
M  V30 1741 H 167.532 -0.64145 -1.34929 0
M  V30 1742 H 169.414 0.883504 -4.12034 0
M  V30 1743 H 168.089 1.25526 -2.98371 0
M  V30 1744 H 166.996 -0.975374 -3.61161 0
M  V30 1745 H 168.329 -1.26427 -4.75686 0
M  V30 1746 N 169.982 1.44106 -0.638065 0
M  V30 1747 C 171.231 2.01194 -0.142744 0
M  V30 1748 C 171.544 1.50835 1.24532 0
M  V30 1749 O 172.75 2.00096 1.83504 0
M  V30 1750 C 171.206 3.59319 -0.20442 0
M  V30 1751 C 170.814 4.18674 -1.59423 0
M  V30 1752 C 172.558 4.23854 0.234079 0
M  V30 1753 C 170.465 5.69045 -1.61065 0
M  V30 1754 H 169.395 0.752367 -0.0495998 0
M  V30 1755 H 172.046 1.65246 -0.797881 0
M  V30 1756 H 170.428 3.92598 0.517946 0
M  V30 1757 H 171.602 3.96921 -2.34074 0
M  V30 1758 H 169.917 3.66453 -1.97741 0
M  V30 1759 H 172.514 5.34155 0.241443 0
M  V30 1760 H 172.857 3.96688 1.2627 0
M  V30 1761 H 173.39 3.95403 -0.436025 0
M  V30 1762 H 170.129 6.00956 -2.61787 0
M  V30 1763 H 169.649 5.929 -0.90718 0
M  V30 1764 H 171.328 6.32809 -1.34766 0
M  V30 1765 N 171.46 0.379036 1.52974 0
M  V30 1766 C 172.407 -0.461048 2.26148 0
M  V30 1767 C 173.377 -1.06637 1.27349 0
M  V30 1768 O 174.562 -1.09633 1.56157 0
M  V30 1769 C 171.702 -1.58782 3.06402 0
M  V30 1770 C 170.815 -1.00636 4.20115 0
M  V30 1771 C 169.95 -2.10334 4.87784 0
M  V30 1772 C 168.989 -1.49724 5.93506 0
M  V30 1773 N 168.126 -2.5331 6.54812 0
M  V30 1774 H 172.966 0.169429 2.97518 0
M  V30 1775 H 170.503 0.0953806 1.4679 0
M  V30 1776 H 172.461 -2.25174 3.51215 0
M  V30 1777 H 171.091 -2.18876 2.37261 0
M  V30 1778 H 170.143 -0.232332 3.7969 0
M  V30 1779 H 171.455 -0.523343 4.96047 0
M  V30 1780 H 170.609 -2.84519 5.35849 0
M  V30 1781 H 169.348 -2.61992 4.11353 0
M  V30 1782 H 168.353 -0.740598 5.44789 0
M  V30 1783 H 169.578 -0.988732 6.71864 0
M  V30 1784 H 167.524 -3.04156 5.81227 0
M  V30 1785 H 167.441 -2.09734 7.26325 0
M  V30 1786 H 168.709 -3.27155 7.07524 0
M  V30 1787 N 172.938 -1.57226 0.108567 0
M  V30 1788 C 173.848 -2.18292 -0.859401 0
M  V30 1789 C 174.864 -1.15612 -1.30038 0
M  V30 1790 O 176.04 -1.48039 -1.36552 0
M  V30 1791 C 173.105 -2.762 -2.09558 0
M  V30 1792 C 172.166 -3.93881 -1.70752 0
M  V30 1793 C 171.399 -4.49018 -2.88477 0
M  V30 1794 O 171.622 -4.03068 -4.036 0
M  V30 1795 O 170.556 -5.39852 -2.66164 0
M  V30 1796 H 174.382 -3.01441 -0.369769 0
M  V30 1797 H 171.967 -1.48945 -0.1165 0
M  V30 1798 H 173.849 -3.13156 -2.81978 0
M  V30 1799 H 172.524 -1.96089 -2.57548 0
M  V30 1800 H 171.431 -3.61713 -0.954714 0
M  V30 1801 H 172.764 -4.75396 -1.27513 0
M  V30 1802 N 174.416 0.165178 -1.56732 0
M  V30 1803 C 175.663 0.880807 -1.8234 0
M  V30 1804 C 175.991 1.81977 -0.686621 0
M  V30 1805 O 175.246 1.92971 0.325697 0
M  V30 1806 C 175.545 1.70405 -3.1416 0
M  V30 1807 C 175.211 0.913475 -4.4155 0
M  V30 1808 C 173.873 0.695303 -4.7615 0
M  V30 1809 C 176.225 0.359349 -5.1996 0
M  V30 1810 C 173.553 -0.0879947 -5.86634 0
M  V30 1811 C 175.905 -0.410893 -6.31264 0
M  V30 1812 C 174.569 -0.639808 -6.64427 0
M  V30 1813 H 173.839 0.32231 -0.667231 0
M  V30 1814 H 176.486 0.145402 -1.90947 0
M  V30 1815 H 174.791 2.50903 -3.00923 0
M  V30 1816 H 176.488 2.26091 -3.31186 0
M  V30 1817 H 173.078 1.09357 -4.14414 0
M  V30 1818 H 177.262 0.515228 -4.93618 0
M  V30 1819 H 172.518 -0.27503 -6.10781 0
M  V30 1820 H 176.692 -0.847494 -6.91224 0
M  V30 1821 H 174.319 -1.24864 -7.49875 0
M  V30 1822 N 175.894 1.51508 0.433938 0
M  V30 1823 C 176.857 1.72473 1.50949 0
M  V30 1824 C 177.857 0.594725 1.49398 0
M  V30 1825 O 179.047 0.862315 1.5136 0
M  V30 1826 C 176.179 1.78431 2.90474 0
M  V30 1827 H 177.372 2.68467 1.33662 0
M  V30 1828 H 174.925 1.41549 0.662836 0
M  V30 1829 H 175.66 0.842645 3.13161 0
M  V30 1830 H 175.445 2.60558 2.93005 0
M  V30 1831 H 176.935 1.96479 3.68491 0
M  V30 1832 N 177.372 -0.689602 1.41712 0
M  V30 1833 C 178.335 -1.78521 1.43746 0
M  V30 1834 C 179.335 -1.57436 0.327191 0
M  V30 1835 O 180.525 -1.64 0.587348 0
M  V30 1836 C 177.657 -3.16971 1.25467 0
M  V30 1837 H 178.85 -1.78108 2.41283 0
M  V30 1838 H 176.403 -0.89781 1.27942 0
M  V30 1839 H 177.138 -3.23019 0.287948 0
M  V30 1840 H 176.923 -3.33678 2.05917 0
M  V30 1841 H 178.413 -3.96935 1.2974 0
M  V30 1842 N 178.85 -1.27639 -0.924453 0
M  V30 1843 C 180.098 -1.13941 -1.66918 0
M  V30 1844 C 180.419 0.314589 -1.92446 0
M  V30 1845 O 179.689 1.21964 -1.53303 0
M  V30 1846 H 178.269 -0.418678 -0.618642 0
M  V30 1847 H 180.931 -1.60213 -1.10985 0
M  V30 1848 H 180.027 -1.67094 -2.63602 0
M  V30 1849 N 180.328 1.1314 -1.09713 0
M  V30 1850 C 181.558 1.88048 -0.855656 0
M  V30 1851 C 181.966 1.79537 0.596919 0
M  V30 1852 O 181.309 1.16196 1.42282 0
M  V30 1853 C 181.371 3.38314 -1.21589 0
M  V30 1854 C 181.035 3.70605 -2.67397 0
M  V30 1855 C 182.032 3.69596 -3.65643 0
M  V30 1856 C 179.717 4.0017 -3.03593 0
M  V30 1857 C 181.711 3.977 -4.9811 0
M  V30 1858 C 179.398 4.27935 -4.36251 0
M  V30 1859 C 180.396 4.26685 -5.33318 0
M  V30 1860 O 180.084 4.53767 -6.63589 0
M  V30 1861 H 179.816 0.60208 -0.307368 0
M  V30 1862 H 182.37 1.44128 -1.46343 0
M  V30 1863 H 180.6 3.82752 -0.551177 0
M  V30 1864 H 182.289 3.94552 -0.953083 0
M  V30 1865 H 183.055 3.46826 -3.39023 0
M  V30 1866 H 178.934 4.00289 -2.2867 0
M  V30 1867 H 182.478 3.9664 -5.73866 0
M  V30 1868 H 178.375 4.50178 -4.62613 0
M  V30 1869 H 179.143 4.71422 -6.69107 0
M  V30 1870 N 181.806 0.884767 1.30421 0
M  V30 1871 C 182.754 0.340869 2.30089 0
M  V30 1872 C 183.748 -0.55201 1.60154 0
M  V30 1873 O 184.954 -0.436467 1.74628 0
M  V30 1874 H 181.329 0.0915739 0.746404 0
M  V30 1875 H 183.3 1.19513 2.73421 0
M  V30 1876 C 182.049 -0.429779 3.45034 0
M  V30 1877 H 181.372 0.248024 3.9903 0
M  V30 1878 H 182.812 -0.775445 4.16849 0
M  V30 1879 C 181.271 -1.62677 2.95022 0
M  V30 1880 O 181.801 -2.72614 2.95033 0
M  V30 1881 N 180.007 -1.46387 2.51036 0
M  V30 1882 H 179.554 -0.569506 2.51226 0
M  V30 1883 H 179.512 -2.26612 2.17932 0
M  V30 1884 N 183.284 -1.43765 0.645699 0
M  V30 1885 C 184.53 -2.02197 0.156271 0
M  V30 1886 C 184.863 -1.50776 -1.22393 0
M  V30 1887 O 184.138 -0.697771 -1.81553 0
M  V30 1888 C 184.421 -3.59749 0.158872 0
M  V30 1889 C 184.274 -4.21419 1.57245 0
M  V30 1890 C 185.593 -4.37149 -0.50879 0
M  V30 1891 H 182.712 -0.734694 0.0582602 0
M  V30 1892 H 185.354 -1.71157 0.824951 0
M  V30 1893 H 183.504 -3.86325 -0.410525 0
M  V30 1894 H 185.176 -4.059 2.19186 0
M  V30 1895 H 183.419 -3.78356 2.122 0
M  V30 1896 H 184.09 -5.30482 1.52619 0
M  V30 1897 H 186.566 -4.16093 -0.024412 0
M  V30 1898 H 185.442 -5.4683 -0.476213 0
M  V30 1899 H 185.703 -4.12839 -1.58165 0
M  V30 1900 N 184.763 -0.387143 -1.52771 0
M  V30 1901 C 185.71 0.449048 -2.26389 0
M  V30 1902 C 186.68 1.05961 -1.27912 0
M  V30 1903 O 187.865 1.08804 -1.56737 0
M  V30 1904 C 185.005 1.57155 -3.0724 0
M  V30 1905 C 184.118 0.984066 -4.20643 0
M  V30 1906 C 183.253 2.07745 -4.88892 0
M  V30 1907 C 182.292 1.46574 -5.94292 0
M  V30 1908 N 181.429 2.49834 -6.56146 0
M  V30 1909 H 186.269 -0.185205 -2.97424 0
M  V30 1910 H 183.806 -0.103164 -1.46738 0
M  V30 1911 H 185.764 2.23309 -3.52405 0
M  V30 1912 H 184.394 2.17615 -2.38419 0
M  V30 1913 H 183.446 0.212193 -3.79808 0
M  V30 1914 H 184.758 0.497029 -4.96318 0
M  V30 1915 H 183.912 2.81673 -5.3735 0
M  V30 1916 H 182.651 2.59807 -4.12737 0
M  V30 1917 H 181.656 0.711696 -5.45174 0
M  V30 1918 H 182.881 0.953088 -6.72379 0
M  V30 1919 H 180.827 3.0107 -5.82832 0
M  V30 1920 H 180.744 2.05879 -7.27427 0
M  V30 1921 H 182.012 3.23399 -7.09249 0
M  V30 1922 N 186.241 1.57166 -0.116904 0
M  V30 1923 C 187.488 1.95123 0.541603 0
M  V30 1924 C 187.816 1.00006 1.6682 0
M  V30 1925 O 187.071 0.0235658 1.95686 0
M  V30 1926 C 187.37 3.39508 1.11664 0
M  V30 1927 C 187.036 4.50762 0.111606 0
M  V30 1928 C 185.698 4.80918 -0.164758 0
M  V30 1929 C 188.05 5.18036 -0.573438 0
M  V30 1930 C 185.378 5.75666 -1.13249 0
M  V30 1931 C 187.73 6.13824 -1.52978 0
M  V30 1932 C 186.394 6.42374 -1.81415 0
M  V30 1933 H 185.664 0.714005 0.198187 0
M  V30 1934 H 188.311 1.9048 -0.197365 0
M  V30 1935 H 186.616 3.40835 1.93232 0
M  V30 1936 H 188.313 3.66189 1.63422 0
M  V30 1937 H 184.903 4.27272 0.337192 0
M  V30 1938 H 189.087 4.94896 -0.373092 0
M  V30 1939 H 184.343 5.96092 -1.35958 0
M  V30 1940 H 188.517 6.65039 -2.06629 0
M  V30 1941 H 186.144 7.15599 -2.56557 0
M  V30 1942 N 187.719 -0.156864 1.56817 0
M  V30 1943 C 188.996 -0.899244 1.73704 0
M  V30 1944 C 189.376 -1.99771 0.682254 0
M  V30 1945 O 188.724 -2.26515 -0.300522 0
M  V30 1946 C 188.934 -1.45075 3.17418 0
M  V30 1947 C 190.282 -1.91802 3.7881 0
M  V30 1948 O 191.306 -1.54838 3.20786 0
M  V30 1949 O 190.165 -2.5994 4.80722 0
M  V30 1950 H 187.259 -0.424267 0.709878 0
M  V30 1951 H 189.805 -0.143561 1.69092 0
M  V30 1952 H 188.577 -0.660846 3.85679 0
M  V30 1953 H 188.2 -2.27021 3.26416 0
M  V30 1954 N 189.197 -1.51736 -0.425897 0
M  V30 1955 C 190.13 -1.68574 -1.53812 0
M  V30 1956 C 191.108 -0.53328 -1.53606 0
M  V30 1957 O 192.292 -0.758555 -1.72564 0
M  V30 1958 C 189.419 -1.70977 -2.92377 0
M  V30 1959 C 188.465 -2.92324 -3.10563 0
M  V30 1960 S 189.298 -4.52952 -2.85648 0
M  V30 1961 C 190.454 -4.58117 -4.26474 0
M  V30 1962 H 190.687 -2.62647 -1.39298 0
M  V30 1963 H 188.22 -1.41564 -0.616361 0
M  V30 1964 H 190.178 -1.73047 -3.72243 0
M  V30 1965 H 188.839 -0.78061 -3.04245 0
M  V30 1966 H 188.032 -2.90439 -4.11899 0
M  V30 1967 H 187.634 -2.88055 -2.38538 0
M  V30 1968 H 189.926 -4.34462 -5.19855 0
M  V30 1969 H 190.869 -5.59983 -4.33388 0
M  V30 1970 H 191.277 -3.8732 -4.10662 0
M  V30 1971 N 190.675 0.682077 -1.42076 0
M  V30 1972 C 191.922 1.44215 -1.42156 0
M  V30 1973 C 192.25 1.94468 -0.0354186 0
M  V30 1974 O 191.505 1.70816 0.955002 0
M  V30 1975 C 191.804 2.66036 -2.38662 0
M  V30 1976 C 191.47 2.34366 -3.85206 0
M  V30 1977 C 190.132 2.25439 -4.25124 0
M  V30 1978 C 192.484 2.08513 -4.77673 0
M  V30 1979 C 189.812 1.88775 -5.55501 0
M  V30 1980 C 192.164 1.73354 -6.08384 0
M  V30 1981 C 190.828 1.62933 -6.47309 0
M  V30 1982 H 190.098 0.527718 -0.520187 0
M  V30 1983 H 192.745 0.778387 -1.74967 0
M  V30 1984 H 191.05 3.3741 -1.99152 0
M  V30 1985 H 192.747 3.24205 -2.35991 0
M  V30 1986 H 189.337 2.42213 -3.53597 0
M  V30 1987 H 193.521 2.14346 -4.47626 0
M  V30 1988 H 188.777 1.7927 -5.84527 0
M  V30 1989 H 192.951 1.52373 -6.79526 0
M  V30 1990 H 190.578 1.34292 -7.48244 0
M  V30 1991 N 192.153 1.28127 0.917671 0
M  V30 1992 C 193.378 1.18007 1.70555 0
M  V30 1993 C 193.803 -0.258257 1.86319 0
M  V30 1994 O 193.161 -1.1869 1.37049 0
M  V30 1995 C 193.209 1.87948 3.07746 0
M  V30 1996 O 192.313 1.18427 3.9503 0
M  V30 1997 H 191.654 0.409867 0.522403 0
M  V30 1998 H 194.184 1.69379 1.1477 0
M  V30 1999 H 194.194 1.95701 3.58001 0
M  V30 2000 H 192.869 2.92573 2.95591 0
M  V30 2001 H 191.446 1.18811 3.53466 0
M  V30 2002 N 193.631 -1.12557 1.10312 0
M  V30 2003 C 194.578 -2.18247 0.750781 0
M  V30 2004 C 195.548 -1.63853 -0.272293 0
M  V30 2005 O 196.733 -1.90195 -0.151862 0
M  V30 2006 C 193.873 -3.44591 0.187379 0
M  V30 2007 C 192.986 -4.13046 1.2656 0
M  V30 2008 C 192.121 -5.27034 0.663978 0
M  V30 2009 C 191.16 -5.87353 1.72287 0
M  V30 2010 N 190.297 -6.92757 1.1416 0
M  V30 2011 H 195.137 -2.47732 1.65628 0
M  V30 2012 H 192.674 -1.21629 0.827337 0
M  V30 2013 H 194.632 -4.16904 -0.157148 0
M  V30 2014 H 193.262 -3.15527 -0.681355 0
M  V30 2015 H 192.314 -3.38924 1.72727 0
M  V30 2016 H 193.626 -4.53947 2.06721 0
M  V30 2017 H 192.78 -6.06104 0.268824 0
M  V30 2018 H 191.519 -4.87407 -0.169082 0
M  V30 2019 H 190.524 -5.06971 2.12746 0
M  V30 2020 H 191.749 -6.29051 2.55875 0
M  V30 2021 H 189.695 -6.5517 0.329984 0
M  V30 2022 H 189.612 -7.3225 1.88007 0
M  V30 2023 H 190.88 -7.75658 0.772956 0
M  V30 2024 N 195.109 -0.891671 -1.2995 0
M  V30 2025 C 196.358 -0.509521 -1.95158 0
M  V30 2026 C 196.671 0.947388 -1.71125 0
M  V30 2027 O 197.877 1.43669 -2.30372 0
M  V30 2028 C 196.333 -0.860315 -3.49466 0
M  V30 2029 C 195.941 -2.33545 -3.8231 0
M  V30 2030 C 197.685 -0.547687 -4.20952 0
M  V30 2031 C 195.592 -2.62752 -5.29826 0
M  V30 2032 H 194.522 -0.18682 -0.730489 0
M  V30 2033 H 197.173 -1.08756 -1.47798 0
M  V30 2034 H 195.555 -0.211285 -3.95436 0
M  V30 2035 H 196.729 -3.02936 -3.47227 0
M  V30 2036 H 195.044 -2.61629 -3.23944 0
M  V30 2037 H 197.641 -0.742854 -5.29515 0
M  V30 2038 H 197.984 0.51332 -4.13123 0
M  V30 2039 H 198.517 -1.1542 -3.80688 0
M  V30 2040 H 195.256 -3.6762 -5.42712 0
M  V30 2041 H 194.776 -1.97977 -5.66185 0
M  V30 2042 H 196.455 -2.48601 -5.97333 0
M  V30 2043 N 196.587 1.43421 -0.653314 0
M  V30 2044 C 197.827 2.03689 -0.170346 0
M  V30 2045 C 198.191 1.50427 1.19314 0
M  V30 2046 O 199.392 2.0234 1.76952 0
M  V30 2047 C 197.663 3.56946 -0.180183 0
M  V30 2048 S 199.222 4.38171 0.234925 0
M  V30 2049 H 196.04 0.707345 -0.0719976 0
M  V30 2050 H 198.642 1.75486 -0.86167 0
M  V30 2051 H 197.346 3.93212 -1.17526 0
M  V30 2052 H 196.877 3.89791 0.531675 0
M  V30 2053 H 198.892 4.73808 1.47378 0
M  V30 2054 N 198.065 0.39524 1.52563 0
M  V30 2055 C 199.311 -0.185318 2.01952 0
M  V30 2056 C 199.644 -1.45964 1.28095 0
M  V30 2057 O 198.919 -1.90689 0.38315 0
M  V30 2058 C 199.202 -0.447193 3.57312 0
M  V30 2059 C 199.055 0.842828 4.41833 0
M  V30 2060 C 200.374 -1.23529 4.22408 0
M  V30 2061 H 197.493 -0.0658788 0.73405 0
M  V30 2062 H 200.135 0.525975 1.82575 0
M  V30 2063 H 198.285 -1.05312 3.73954 0
M  V30 2064 H 199.957 1.4795 4.36931 0
M  V30 2065 H 198.2 1.45686 4.08605 0
M  V30 2066 H 198.871 0.614165 5.48573 0
M  V30 2067 H 201.347 -0.722445 4.0978 0
M  V30 2068 H 200.223 -1.38727 5.3108 0
M  V30 2069 H 200.484 -2.25213 3.80436 0
M  V30 2070 N 199.544 -1.57102 0.125237 0
M  V30 2071 C 200.492 -2.16905 -0.839927 0
M  V30 2072 C 201.486 -1.11998 -1.27094 0
M  V30 2073 O 202.692 -1.3029 -1.24195 0
M  V30 2074 H 199.067 -0.694252 -0.288995 0
M  V30 2075 H 201.038 -2.96774 -0.311115 0
M  V30 2076 C 199.787 -2.78795 -2.07771 0
M  V30 2077 H 199.11 -3.59221 -1.755 0
M  V30 2078 H 200.55 -3.2417 -2.73295 0
M  V30 2079 C 199.009 -1.76193 -2.87155 0
M  V30 2080 O 199.539 -1.21909 -3.82755 0
M  V30 2081 N 197.745 -1.45991 -2.51267 0
M  V30 2082 H 197.292 -1.90325 -1.73592 0
M  V30 2083 H 197.25 -0.775844 -3.04677 0
M  V30 2084 N 201.022 0.148545 -1.56898 0
M  V30 2085 C 202.27 0.859717 -1.82902 0
M  V30 2086 C 202.591 1.81775 -0.70588 0
M  V30 2087 O 201.861 1.93994 0.272586 0
M  V30 2088 H 200.441 0.320469 -0.674766 0
M  V30 2089 H 203.103 0.142918 -1.94375 0
M  V30 2090 H 202.199 1.4229 -2.77777 0
M  V30 2091 N 202.5 1.5196 0.417844 0
M  V30 2092 C 203.777 1.56146 1.17803 0
M  V30 2093 C 204.157 0.337275 2.08388 0
M  V30 2094 O 203.505 -0.676447 2.18258 0
M  V30 2095 C 203.715 2.88566 1.96293 0
M  V30 2096 C 205.063 3.41244 2.52662 0
M  V30 2097 O 206.087 2.90247 2.06483 0
M  V30 2098 O 204.946 4.30273 3.36938 0
M  V30 2099 H 202.04 0.628598 0.537395 0
M  V30 2100 H 204.586 1.64283 0.425331 0
M  V30 2101 H 203.358 3.69116 1.2988 0
M  V30 2102 H 202.981 2.83681 2.78587 0
M  V30 2103 N 203.978 -0.674533 1.42435 0
M  V30 2104 C 205.255 -1.4305 1.33402 0
M  V30 2105 C 205.635 -2.11081 -0.0284674 0
M  V30 2106 O 204.983 -2.03257 -1.04397 0
M  V30 2107 C 205.193 -2.43272 2.50239 0
M  V30 2108 C 206.541 -3.07907 2.92367 0
M  V30 2109 O 207.565 -2.53599 2.50132 0
M  V30 2110 O 206.424 -4.0632 3.65467 0
M  V30 2111 H 203.518 -0.638076 0.526106 0
M  V30 2112 H 206.064 -0.703235 1.54443 0
M  V30 2113 H 204.836 -1.91803 3.41068 0
M  V30 2114 H 204.459 -3.23479 2.31186 0
M  V30 2115 N 205.456 -1.28612 -0.910864 0
M  V30 2116 C 206.419 -1.12803 -1.9952 0
M  V30 2117 C 207.419 -0.0668264 -1.60661 0
M  V30 2118 O 208.609 -0.312847 -1.71368 0
M  V30 2119 C 205.741 -0.72254 -3.33155 0
M  V30 2120 H 206.934 -2.09109 -2.14973 0
M  V30 2121 H 204.487 -1.11639 -1.09391 0
M  V30 2122 H 205.222 0.241152 -3.23402 0
M  V30 2123 H 205.007 -1.48916 -3.62721 0
M  V30 2124 H 206.497 -0.634666 -4.12749 0
M  V30 2125 N 206.934 1.1197 -1.10907 0
M  V30 2126 C 207.884 2.15946 -0.731538 0
M  V30 2127 C 208.868 1.58758 0.261699 0
M  V30 2128 O 210.06 1.76863 0.0696722 0
M  V30 2129 C 207.189 3.42877 -0.170299 0
M  V30 2130 C 206.275 4.07037 -1.19087 0
M  V30 2131 N 206.666 4.46135 -2.38322 0
M  V30 2132 C 204.964 4.33884 -1.03252 0
M  V30 2133 C 205.665 4.96331 -3.03366 0
M  V30 2134 N 204.641 4.9214 -2.30865 0
M  V30 2135 H 208.443 2.43947 -1.63912 0
M  V30 2136 H 205.957 1.28927 -0.987505 0
M  V30 2137 H 207.954 4.16732 0.118271 0
M  V30 2138 H 206.614 3.16343 0.731935 0
M  V30 2139 H 207.625 4.38345 -2.75815 0
M  V30 2140 H 204.302 4.17084 -0.186256 0
M  V30 2141 H 205.692 5.36257 -4.04818 0
M  V30 2142 N 208.412 0.89855 1.29475 0
M  V30 2143 C 209.823 0.572537 1.77705 0
M  V30 2144 C 210.174 -0.911778 1.73727 0
M  V30 2145 O 209.299 -1.71288 1.32247 0
M  V30 2146 C 209.894 1.03252 3.22683 0
M  V30 2147 C 208.453 0.757687 3.68695 0
M  V30 2148 C 207.6 1.20787 2.49612 0
M  V30 2149 H 210.551 1.08139 1.16153 0
M  V30 2150 H 210.572 0.367307 3.78723 0
M  V30 2151 H 210.084 2.11285 3.25546 0
M  V30 2152 H 208.185 -0.310079 3.71308 0
M  V30 2153 H 208.298 1.35476 4.59547 0
M  V30 2154 H 206.662 0.626888 2.46865 0
M  V30 2155 H 207.445 2.29622 2.55203 0
M  V30 2156 N 209.89 -1.43072 0.660911 0
M  V30 2157 C 210.82 -2.33497 -0.0122829 0
M  V30 2158 C 211.801 -1.49903 -0.803925 0
M  V30 2159 O 212.986 -1.78546 -0.763864 0
M  V30 2160 C 210.116 -3.33363 -0.973994 0
M  V30 2161 C 209.07 -4.27003 -0.291928 0
M  V30 2162 C 208.396 -5.16967 -1.36562 0
M  V30 2163 C 209.696 -5.15816 0.820462 0
M  V30 2164 H 211.39 -2.90038 0.742873 0
M  V30 2165 H 208.936 -1.39461 0.358688 0
M  V30 2166 H 210.889 -3.95524 -1.45392 0
M  V30 2167 H 209.613 -2.75095 -1.7604 0
M  V30 2168 H 208.272 -3.66217 0.167623 0
M  V30 2169 H 207.92 -4.55034 -2.14366 0
M  V30 2170 H 207.62 -5.80441 -0.914454 0
M  V30 2171 H 209.144 -5.82003 -1.84675 0
M  V30 2172 H 210.558 -5.71742 0.422366 0
M  V30 2173 H 208.955 -5.8805 1.19656 0
M  V30 2174 H 210.025 -4.55045 1.67518 0
M  V30 2175 N 211.368 -0.403325 -1.52352 0
M  V30 2176 C 212.614 0.167015 -2.02713 0
M  V30 2177 C 212.969 1.43296 -1.28391 0
M  V30 2178 O 212.262 1.87796 -0.379885 0
M  V30 2179 C 212.456 0.474665 -3.54234 0
M  V30 2180 C 212.285 -0.759909 -4.43233 0
M  V30 2181 C 211.055 -1.28338 -4.88731 0
M  V30 2182 C 213.253 -1.63634 -4.87574 0
M  V30 2183 N 211.235 -2.47404 -5.6184 0
M  V30 2184 C 212.606 -2.67329 -5.59406 0
M  V30 2185 C 214.661 -1.65478 -4.69597 0
M  V30 2186 C 213.364 -3.72773 -6.15169 0
M  V30 2187 C 215.39 -2.69837 -5.26253 0
M  V30 2188 C 214.752 -3.72253 -5.98002 0
M  V30 2189 H 210.851 0.0228343 -0.781667 0
M  V30 2190 H 213.435 -0.556368 -1.86581 0
M  V30 2191 H 211.606 1.16709 -3.7045 0
M  V30 2192 H 213.338 1.03338 -3.91284 0
M  V30 2193 H 210.093 -0.842273 -4.6605 0
M  V30 2194 H 210.517 -3.07688 -6.0304 0
M  V30 2195 H 215.159 -0.876389 -4.13617 0
M  V30 2196 H 212.877 -4.51471 -6.70223 0
M  V30 2197 H 216.463 -2.72164 -5.14216 0
M  V30 2198 H 215.343 -4.51679 -6.41058 0
M  V30 2199 N 212.846 1.57033 -0.133567 0
M  V30 2200 C 213.793 2.16074 0.811208 0
M  V30 2201 C 214.763 1.08979 1.2535 0
M  V30 2202 O 215.948 1.36958 1.32843 0
M  V30 2203 C 213.088 2.77595 2.05024 0
M  V30 2204 C 212.201 3.99042 1.65498 0
M  V30 2205 C 211.336 4.48603 2.84479 0
M  V30 2206 C 210.375 5.62547 2.41262 0
M  V30 2207 N 209.512 6.06787 3.53206 0
M  V30 2208 H 214.352 2.96477 0.300906 0
M  V30 2209 H 211.889 1.46462 0.136822 0
M  V30 2210 H 213.847 3.11402 2.77642 0
M  V30 2211 H 212.477 1.99859 2.53488 0
M  V30 2212 H 211.529 3.71302 0.826981 0
M  V30 2213 H 212.841 4.81629 1.29748 0
M  V30 2214 H 211.995 4.84395 3.65303 0
M  V30 2215 H 210.734 3.64995 3.23465 0
M  V30 2216 H 209.739 5.26345 1.58874 0
M  V30 2217 H 210.964 6.47931 2.03377 0
M  V30 2218 H 208.91 5.26117 3.91838 0
M  V30 2219 H 208.827 6.84266 3.21427 0
M  V30 2220 H 210.095 6.4722 4.34427 0
M  V30 2221 N 214.325 -0.140222 1.56975 0
M  V30 2222 C 215.571 -0.848084 1.84876 0
M  V30 2223 C 215.926 -1.78481 0.718481 0
M  V30 2224 O 215.219 -1.89497 -0.283093 0
M  V30 2225 C 215.413 -1.65386 3.16832 0
M  V30 2226 C 215.242 -0.79665 4.42587 0
M  V30 2227 C 214.012 -0.459648 5.03205 0
M  V30 2228 C 216.21 -0.12389 5.14151 0
M  V30 2229 N 214.192 0.410446 6.12526 0
M  V30 2230 C 215.563 0.606064 6.17031 0
M  V30 2231 C 217.618 -0.0452654 4.97879 0
M  V30 2232 C 216.321 1.40723 7.054 0
M  V30 2233 C 218.347 0.742658 5.86718 0
M  V30 2234 C 217.709 1.46087 6.89085 0
M  V30 2235 H 213.808 -0.287946 0.727056 0
M  V30 2236 H 216.392 -0.11304 1.94372 0
M  V30 2237 H 214.563 -2.36009 3.08471 0
M  V30 2238 H 216.295 -2.30541 3.32615 0
M  V30 2239 H 213.05 -0.797006 4.66846 0
M  V30 2240 H 213.474 0.836716 6.7181 0
M  V30 2241 H 218.116 -0.586184 4.18717 0
M  V30 2242 H 215.834 1.95938 7.83986 0
M  V30 2243 H 219.42 0.805574 5.76196 0
M  V30 2244 H 218.3 2.06077 7.56639 0
M  V30 2245 N 215.803 -1.52179 -0.40978 0
M  V30 2246 C 216.736 -1.70196 -1.52015 0
M  V30 2247 C 217.714 -0.549542 -1.53032 0
M  V30 2248 O 218.898 -0.776815 -1.71749 0
M  V30 2249 C 216.025 -1.74069 -2.90547 0
M  V30 2250 C 215.071 -2.95601 -3.07445 0
M  V30 2251 S 215.904 -4.55956 -2.80827 0
M  V30 2252 C 217.06 -4.62614 -4.21591 0
M  V30 2253 H 217.293 -2.64109 -1.36504 0
M  V30 2254 H 214.826 -1.4221 -0.601312 0
M  V30 2255 H 216.784 -1.76985 -3.70387 0
M  V30 2256 H 215.445 -0.812835 -3.034 0
M  V30 2257 H 214.638 -2.94791 -4.08796 0
M  V30 2258 H 214.24 -2.90569 -2.35469 0
M  V30 2259 H 216.532 -4.39951 -5.15218 0
M  V30 2260 H 217.475 -5.64548 -4.27424 0
M  V30 2261 H 217.883 -3.91654 -4.06531 0
M  V30 2262 N 217.281 0.66697 -1.42791 0
M  V30 2263 C 218.228 1.7803 -1.4688 0
M  V30 2264 C 219.198 1.6299 -0.319919 0
M  V30 2265 O 220.383 1.83432 -0.525118 0
M  V30 2266 C 217.523 3.1611 -1.38451 0
M  V30 2267 C 216.636 3.42381 -2.63437 0
M  V30 2268 C 215.771 4.70232 -2.47094 0
M  V30 2269 C 214.81 4.89564 -3.67415 0
M  V30 2270 N 213.947 6.08661 -3.49966 0
M  V30 2271 H 218.787 1.7387 -2.42019 0
M  V30 2272 H 216.324 0.84868 -1.20149 0
M  V30 2273 H 218.282 3.95914 -1.31561 0
M  V30 2274 H 216.912 3.19374 -0.469033 0
M  V30 2275 H 215.964 2.56774 -2.80662 0
M  V30 2276 H 217.276 3.52557 -3.52853 0
M  V30 2277 H 216.43 5.5814 -2.37834 0
M  V30 2278 H 215.169 4.62353 -1.5518 0
M  V30 2279 H 214.174 4.00096 -3.77099 0
M  V30 2280 H 215.399 4.99282 -4.6032 0
M  V30 2281 H 213.345 6.0194 -2.60776 0
M  V30 2282 H 213.262 6.19733 -4.32975 0
M  V30 2283 H 214.53 6.99226 -3.44532 0
M  V30 2284 N 218.759 1.29093 0.90403 0
M  V30 2285 C 220.008 1.16187 1.64874 0
M  V30 2286 C 220.321 -0.286742 1.93487 0
M  V30 2287 O 221.527 -0.537062 2.66135 0
M  V30 2288 C 219.983 2.03177 2.97064 0
M  V30 2289 C 219.591 3.52836 2.76062 0
M  V30 2290 C 221.335 1.98984 3.74974 0
M  V30 2291 C 219.242 4.31945 4.03952 0
M  V30 2292 H 218.172 0.431246 0.618501 0
M  V30 2293 H 220.823 1.53699 1.00243 0
M  V30 2294 H 219.205 1.5853 3.62883 0
M  V30 2295 H 220.379 4.05507 2.18863 0
M  V30 2296 H 218.694 3.58656 2.11553 0
M  V30 2297 H 221.291 2.55351 4.69787 0
M  V30 2298 H 221.634 0.968815 4.0487 0
M  V30 2299 H 222.167 2.41652 3.15989 0
M  V30 2300 H 218.906 5.34667 3.79225 0
M  V30 2301 H 218.426 3.84045 4.60727 0
M  V30 2302 H 220.105 4.42379 4.72133 0
M  V30 2303 N 220.237 -1.11381 1.11499 0
M  V30 2304 C 221.169 -2.17207 0.731704 0
M  V30 2305 C 222.182 -1.61066 -0.236957 0
M  V30 2306 O 223.371 -1.78489 -0.0197591 0
M  V30 2307 C 220.471 -3.38846 0.0607624 0
M  V30 2308 C 219.644 -4.24451 1.0564 0
M  V30 2309 C 218.703 -5.24562 0.4149 0
M  V30 2310 O 217.729 -5.59071 1.069 0
M  V30 2311 N 218.931 -5.74651 -0.821943 0
M  V30 2312 H 221.696 -2.50699 1.64225 0
M  V30 2313 H 219.257 -1.26908 1.00529 0
M  V30 2314 H 221.249 -4.02911 -0.380139 0
M  V30 2315 H 219.819 -3.03411 -0.752376 0
M  V30 2316 H 219.039 -3.56833 1.67524 0
M  V30 2317 H 220.327 -4.78486 1.72998 0
M  V30 2318 H 219.725 -5.48797 -1.37252 0
M  V30 2319 H 218.282 -6.40549 -1.20582 0
M  V30 2320 N 221.715 -0.905404 -1.28997 0
M  V30 2321 C 223.126 -0.581953 -1.77398 0
M  V30 2322 C 223.477 0.902552 -1.74208 0
M  V30 2323 O 222.602 1.70584 -1.33154 0
M  V30 2324 C 223.197 -1.04961 -3.22131 0
M  V30 2325 C 221.756 -0.777229 -3.68288 0
M  V30 2326 C 220.903 -1.22109 -2.48967 0
M  V30 2327 H 223.854 -1.08754 -1.15578 0
M  V30 2328 H 223.875 -0.387387 -3.78523 0
M  V30 2329 H 223.387 -2.13008 -3.24421 0
M  V30 2330 H 221.488 0.290383 -3.71467 0
M  V30 2331 H 221.601 -1.37911 -4.58822 0
M  V30 2332 H 219.965 -0.639971 -2.46529 0
M  V30 2333 H 220.748 -2.30972 -2.53982 0
M  V30 2334 N 223.193 1.4272 -0.668489 0
M  V30 2335 C 224.14 2.30796 0.0137489 0
M  V30 2336 C 225.11 1.4561 0.799177 0
M  V30 2337 O 226.295 1.74453 0.772702 0
M  V30 2338 C 223.435 3.31377 0.963507 0
M  V30 2339 C 222.548 4.31655 0.172569 0
M  V30 2340 C 221.683 5.19312 1.1175 0
M  V30 2341 C 220.722 6.11274 0.317886 0
M  V30 2342 N 219.859 6.91504 1.2152 0
M  V30 2343 H 224.699 2.88585 -0.743161 0
M  V30 2344 H 222.236 1.42154 -0.378226 0
M  V30 2345 H 224.194 3.88214 1.52792 0
M  V30 2346 H 222.824 2.75202 1.68712 0
M  V30 2347 H 221.876 3.76988 -0.508374 0
M  V30 2348 H 223.188 4.96779 -0.448527 0
M  V30 2349 H 222.342 5.80851 1.75206 0
M  V30 2350 H 221.081 4.5435 1.77249 0
M  V30 2351 H 220.086 5.48809 -0.329918 0
M  V30 2352 H 221.311 6.78283 -0.332917 0
M  V30 2353 H 219.257 6.29176 1.85671 0
M  V30 2354 H 219.174 7.53209 0.649036 0
M  V30 2355 H 220.442 7.57535 1.83742 0
M  V30 2356 N 224.671 0.411399 1.52136 0
M  V30 2357 C 225.919 -0.163322 2.01439 0
M  V30 2358 C 226.24 -1.45453 1.29879 0
M  V30 2359 O 225.51 -1.91225 0.4254 0
M  V30 2360 H 224.09 -0.0633447 0.744309 0
M  V30 2361 H 226.752 0.548161 1.87033 0
M  V30 2362 H 225.848 -0.357817 3.10042 0
M  V30 2363 N 226.149 -1.5696 0.141893 0
M  V30 2364 C 227.096 -2.16501 -0.799737 0
M  V30 2365 C 228.066 -1.09643 -1.24771 0
M  V30 2366 O 229.251 -1.3766 -1.32115 0
M  V30 2367 C 226.391 -2.78679 -2.03549 0
M  V30 2368 C 225.504 -3.99914 -1.6338 0
M  V30 2369 C 224.639 -4.50106 -2.82096 0
M  V30 2370 C 223.678 -5.63819 -2.38275 0
M  V30 2371 N 222.815 -6.08651 -3.49983 0
M  V30 2372 H 227.655 -2.96632 -0.285179 0
M  V30 2373 H 225.192 -1.46533 -0.129053 0
M  V30 2374 H 227.15 -3.1287 -2.75986 0
M  V30 2375 H 225.78 -2.012 -2.52425 0
M  V30 2376 H 224.832 -3.71735 -0.807279 0
M  V30 2377 H 226.144 -4.82311 -1.27192 0
M  V30 2378 H 225.298 -4.86325 -3.62729 0
M  V30 2379 H 224.037 -3.66706 -3.21525 0
M  V30 2380 H 223.042 -5.2718 -1.56081 0
M  V30 2381 H 224.267 -6.49 -1.99938 0
M  V30 2382 H 222.213 -5.28188 -3.89042 0
M  V30 2383 H 222.13 -6.85961 -3.17794 0
M  V30 2384 H 223.398 -6.49515 -4.30988 0
M  V30 2385 N 227.627 0.131896 -1.57047 0
M  V30 2386 C 228.875 0.840269 -1.83804 0
M  V30 2387 C 229.196 1.81017 -0.72512 0
M  V30 2388 O 228.466 1.94272 0.251995 0
M  V30 2389 H 227.046 0.313294 -0.678127 0
M  V30 2390 H 229.708 0.122294 -1.94516 0
M  V30 2391 H 228.804 1.39335 -2.79271 0
M  V30 2392 N 229.106 1.52395 0.401703 0
M  V30 2393 C 230.355 1.66044 1.14509 0
M  V30 2394 C 230.668 0.400216 1.91462 0
M  V30 2395 O 231.874 0.416632 2.68284 0
M  V30 2396 C 230.33 2.93388 2.0845 0
M  V30 2397 C 229.938 4.26545 1.36978 0
M  V30 2398 C 231.682 3.16402 2.83001 0
M  V30 2399 C 229.589 5.45007 2.29611 0
M  V30 2400 H 228.519 0.618562 0.431158 0
M  V30 2401 H 231.17 1.78886 0.40892 0
M  V30 2402 H 229.552 2.74263 2.8565 0
M  V30 2403 H 230.726 4.56179 0.650916 0
M  V30 2404 H 229.041 4.09692 0.74438 0
M  V30 2405 H 231.638 4.02085 3.52465 0
M  V30 2406 H 231.981 2.30943 3.46368 0
M  V30 2407 H 232.514 3.36034 2.12898 0
M  V30 2408 H 229.253 6.32835 1.70879 0
M  V30 2409 H 228.773 5.19702 2.9945 0
M  V30 2410 H 230.452 5.7838 2.89974 0
M  V30 2411 N 230.584 -0.659388 1.43143 0
M  V30 2412 C 231.514 -1.78422 1.50625 0
M  V30 2413 C 232.495 -1.66216 0.361443 0
M  V30 2414 O 233.68 -1.85404 0.577834 0
M  V30 2415 C 230.81 -3.16815 1.42287 0
M  V30 2416 C 229.764 -3.43777 2.54954 0
M  V30 2417 C 229.09 -4.81905 2.31671 0
M  V30 2418 C 230.39 -3.39134 3.97222 0
M  V30 2419 H 232.084 -1.72417 2.44771 0
M  V30 2420 H 229.63 -0.828084 1.17808 0
M  V30 2421 H 231.583 -3.95253 1.46127 0
M  V30 2422 H 230.307 -3.23534 0.446435 0
M  V30 2423 H 228.966 -2.67707 2.50457 0
M  V30 2424 H 228.614 -4.85294 1.32284 0
M  V30 2425 H 228.314 -5.00906 3.07192 0
M  V30 2426 H 229.838 -5.62609 2.37284 0
M  V30 2427 H 231.252 -4.07518 4.03239 0
M  V30 2428 H 229.649 -3.69671 4.72719 0
M  V30 2429 H 230.719 -2.37426 4.22797 0
M  V30 2430 N 232.062 -1.29571 -0.897171 0
M  V30 2431 C 233.31 -1.17456 -1.64464 0
M  V30 2432 C 233.631 0.273698 -1.9307 0
M  V30 2433 O 232.901 1.18684 -1.55855 0
M  V30 2434 H 231.481 -0.431706 -0.609622 0
M  V30 2435 H 234.143 -1.62531 -1.07562 0
M  V30 2436 H 233.239 -1.72648 -2.59998 0
M  V30 2437 N 233.54 1.10788 -1.12088 0
M  V30 2438 C 234.488 2.19111 -0.780587 0
M  V30 2439 C 235.482 1.67818 0.230961 0
M  V30 2440 O 236.688 1.79777 0.0895427 0
M  V30 2441 H 233.063 0.714477 -0.234578 0
M  V30 2442 H 235.034 2.45055 -1.70266 0
M  V30 2443 C 233.783 3.46818 -0.24747 0
M  V30 2444 H 233.106 3.86646 -1.01712 0
M  V30 2445 H 234.546 4.23973 -0.0476291 0
M  V30 2446 C 233.005 3.20968 1.02378 0
M  V30 2447 O 233.535 3.42298 2.10226 0
M  V30 2448 N 231.741 2.74658 0.949271 0
M  V30 2449 H 231.288 2.57501 0.0715173 0
M  V30 2450 H 231.246 2.57739 1.80049 0
M  V30 2451 N 235.018 0.912232 1.28515 0
M  V30 2452 C 235.981 0.404223 2.25607 0
M  V30 2453 C 236.981 -0.468602 1.53821 0
M  V30 2454 O 238.171 -0.271873 1.72065 0
M  V30 2455 C 235.303 -0.420653 3.38295 0
M  V30 2456 H 236.496 1.26188 2.7206 0
M  V30 2457 H 234.049 0.691495 1.40171 0
M  V30 2458 H 234.784 -1.29777 2.97201 0
M  V30 2459 H 234.569 0.204935 3.91564 0
M  V30 2460 H 236.059 -0.766971 4.10496 0
M  V30 2461 N 236.496 -1.42363 0.676048 0
M  V30 2462 C 237.745 -2.00745 0.196037 0
M  V30 2463 C 238.058 -1.54083 -1.20489 0
M  V30 2464 O 239.264 -2.04891 -1.78134 0
M  V30 2465 C 237.72 -3.58651 0.299616 0
M  V30 2466 C 237.328 -4.143 1.70468 0
M  V30 2467 C 239.072 -4.24326 -0.121619 0
M  V30 2468 C 236.979 -5.64574 1.76096 0
M  V30 2469 H 235.909 -0.750787 0.0695301 0
M  V30 2470 H 238.56 -1.63072 0.841412 0
M  V30 2471 H 236.942 -3.93833 -0.413673 0
M  V30 2472 H 238.116 -3.90575 2.44515 0
M  V30 2473 H 236.431 -3.61081 2.07387 0
M  V30 2474 H 239.028 -5.34607 -0.0997362 0
M  V30 2475 H 239.371 -3.99897 -1.15708 0
M  V30 2476 H 239.904 -3.94108 0.540706 0
M  V30 2477 H 236.643 -5.93804 2.77628 0
M  V30 2478 H 236.163 -5.90286 1.06406 0
M  V30 2479 H 237.842 -6.29013 1.51496 0
M  V30 2480 N 237.974 -0.419461 -1.51915 0
M  V30 2481 C 238.921 0.400927 -2.27291 0
M  V30 2482 C 239.891 1.03224 -1.30131 0
M  V30 2483 O 241.076 1.05455 -1.59009 0
M  V30 2484 C 238.216 1.50603 -3.10504 0
M  V30 2485 C 237.329 0.89462 -4.22635 0
M  V30 2486 C 236.464 1.97328 -4.93189 0
M  V30 2487 C 235.503 1.33935 -5.97267 0
M  V30 2488 N 234.64 2.3586 -6.61298 0
M  V30 2489 H 239.48 -0.248251 -2.96964 0
M  V30 2490 H 237.017 -0.134266 -1.46486 0
M  V30 2491 H 238.975 2.15783 -3.57062 0
M  V30 2492 H 237.605 2.12509 -2.42981 0
M  V30 2493 H 236.657 0.131583 -3.80172 0
M  V30 2494 H 237.969 0.391641 -4.9726 0
M  V30 2495 H 237.123 2.70211 -5.43204 0
M  V30 2496 H 235.862 2.50994 -4.18155 0
M  V30 2497 H 234.867 0.595896 -5.46561 0
M  V30 2498 H 236.092 0.810252 -6.74249 0
M  V30 2499 H 234.038 2.88639 -5.89087 0
M  V30 2500 H 233.955 1.90403 -7.3163 0
M  V30 2501 H 235.223 3.08282 -7.15949 0
M  V30 2502 N 239.452 1.56882 -0.150215 0
M  V30 2503 C 240.698 1.97299 0.494427 0
M  V30 2504 C 241.053 1.0338 1.62266 0
M  V30 2505 O 240.346 0.0694497 1.91474 0
M  V30 2506 C 240.54 3.41801 1.04437 0
M  V30 2507 C 240.369 4.49691 -0.0290451 0
M  V30 2508 C 239.139 5.03095 -0.47156 0
M  V30 2509 C 241.337 5.07693 -0.821703 0
M  V30 2510 N 239.319 5.94593 -1.52749 0
M  V30 2511 C 240.69 5.95431 -1.72805 0
M  V30 2512 C 242.745 4.90256 -0.869134 0
M  V30 2513 C 241.448 6.67599 -2.67777 0
M  V30 2514 C 243.474 5.63127 -1.8067 0
M  V30 2515 C 242.836 6.50576 -2.70057 0
M  V30 2516 H 238.935 0.76755 0.149639 0
M  V30 2517 H 241.519 1.93145 -0.24556 0
M  V30 2518 H 239.69 3.46541 1.75396 0
M  V30 2519 H 241.422 3.69272 1.6559 0
M  V30 2520 H 238.177 4.73543 -0.0732101 0
M  V30 2521 H 238.601 6.45047 -2.05531 0
M  V30 2522 H 243.243 4.22363 -0.192134 0
M  V30 2523 H 240.961 7.34717 -3.36476 0
M  V30 2524 H 244.547 5.51629 -1.84924 0
M  V30 2525 H 243.427 7.05974 -3.41424 0
M  V30 2526 N 240.93 -0.123565 1.57115 0
M  V30 2527 C 241.878 -1.17082 2.00984 0
M  V30 2528 C 242.872 -1.43136 0.906009 0
M  V30 2529 O 244.078 -1.43152 1.09121 0
M  V30 2530 H 240.453 -0.394653 0.64012 0
M  V30 2531 H 242.424 -0.774292 2.88179 0
M  V30 2532 C 241.173 -2.49057 2.42623 0
M  V30 2533 H 240.496 -2.29846 3.27125 0
M  V30 2534 H 241.936 -3.20906 2.7712 0
M  V30 2535 C 240.395 -3.11305 1.28805 0
M  V30 2536 O 240.925 -3.97171 0.60153 0
M  V30 2537 N 239.131 -2.71111 1.04628 0
M  V30 2538 H 238.678 -2.01382 1.60634 0
M  V30 2539 H 238.636 -3.1309 0.286685 0
M  V30 2540 N 242.408 -1.52605 -0.393616 0
M  V30 2541 C 243.655 -1.67424 -1.1391 0
M  V30 2542 C 243.983 -0.411859 -1.90089 0
M  V30 2543 O 243.238 0.605626 -1.86093 0
M  V30 2544 C 243.537 -2.85721 -2.14705 0
M  V30 2545 C 243.203 -4.23342 -1.55218 0
M  V30 2546 C 241.865 -4.60771 -1.3872 0
M  V30 2547 C 244.217 -5.09041 -1.11924 0
M  V30 2548 C 241.545 -5.81563 -0.774689 0
M  V30 2549 C 243.897 -6.30452 -0.520853 0
M  V30 2550 C 242.561 -6.66617 -0.343134 0
M  V30 2551 H 241.831 -0.612648 -0.416826 0
M  V30 2552 H 244.478 -1.8674 -0.424315 0
M  V30 2553 H 242.783 -2.60803 -2.92385 0
M  V30 2554 H 244.48 -2.94382 -2.72288 0
M  V30 2555 H 241.07 -3.93855 -1.69045 0
M  V30 2556 H 245.254 -4.80695 -1.23473 0
M  V30 2557 H 240.51 -6.08196 -0.625154 0
M  V30 2558 H 244.684 -6.96175 -0.177065 0
M  V30 2559 H 242.311 -7.60083 0.133571 0
M  V30 2560 N 243.887 0.651787 -1.4349 0
M  V30 2561 C 245.115 1.43937 -1.48626 0
M  V30 2562 C 245.53 1.8851 -0.104587 0
M  V30 2563 O 244.887 1.5958 0.885464 0
M  V30 2564 C 244.938 2.6734 -2.43334 0
M  V30 2565 O 244.659 2.24631 -3.76128 0
M  V30 2566 C 246.16 3.60683 -2.57726 0
M  V30 2567 H 243.38 0.44213 -0.504739 0
M  V30 2568 H 245.924 0.798944 -1.88248 0
M  V30 2569 H 244.079 3.2752 -2.06904 0
M  V30 2570 H 244.493 3.04485 -4.2707 0
M  V30 2571 H 245.967 4.43933 -3.28067 0
M  V30 2572 H 246.444 4.08126 -1.62265 0
M  V30 2573 H 247.05 3.06384 -2.94973 0
M  V30 2574 N 245.365 1.30045 0.890287 0
M  V30 2575 C 246.312 1.15976 1.99545 0
M  V30 2576 C 247.282 0.0506202 1.66023 0
M  V30 2577 O 248.467 0.219847 1.89529 0
M  V30 2578 C 245.607 0.852054 3.34416 0
M  V30 2579 C 244.72 2.04255 3.80662 0
M  V30 2580 C 243.855 1.6734 5.04154 0
M  V30 2581 C 242.894 2.82916 5.42794 0
M  V30 2582 N 242.031 2.46333 6.57468 0
M  V30 2583 H 246.871 2.10524 2.10911 0
M  V30 2584 H 244.408 1.04749 1.03276 0
M  V30 2585 H 246.366 0.654296 4.12037 0
M  V30 2586 H 244.996 -0.0565502 3.2275 0
M  V30 2587 H 244.048 2.35172 2.98995 0
M  V30 2588 H 245.36 2.90826 4.05242 0
M  V30 2589 H 244.514 1.43908 5.89386 0
M  V30 2590 H 243.253 0.779308 4.81433 0
M  V30 2591 H 242.258 3.0702 4.56091 0
M  V30 2592 H 243.483 3.73004 5.6749 0
M  V30 2593 H 241.429 1.59423 6.36334 0
M  V30 2594 H 241.346 3.26436 6.81891 0
M  V30 2595 H 242.614 2.26244 7.45945 0
M  V30 2596 N 246.843 -1.10192 1.12674 0
M  V30 2597 C 248.09 -1.82205 0.883606 0
M  V30 2598 C 248.418 -1.8532 -0.590492 0
M  V30 2599 O 247.673 -1.31137 -1.45264 0
M  V30 2600 C 247.972 -3.28552 1.4067 0
M  V30 2601 C 247.638 -3.45582 2.89627 0
M  V30 2602 C 246.3 -3.49937 3.30299 0
M  V30 2603 C 248.652 -3.50768 3.85501 0
M  V30 2604 C 245.98 -3.57049 4.65546 0
M  V30 2605 C 248.332 -3.59414 5.20581 0
M  V30 2606 C 246.996 -3.62034 5.60792 0
M  V30 2607 H 246.266 -0.666735 0.323334 0
M  V30 2608 H 248.913 -1.29868 1.40736 0
M  V30 2609 H 247.218 -3.83473 0.80347 0
M  V30 2610 H 248.915 -3.82788 1.19475 0
M  V30 2611 H 245.505 -3.42871 2.57172 0
M  V30 2612 H 249.689 -3.46651 3.55171 0
M  V30 2613 H 244.945 -3.57361 4.96088 0
M  V30 2614 H 249.119 -3.62371 5.94693 0
M  V30 2615 H 246.746 -3.67298 6.6558 0
M  V30 2616 N 248.321 -0.919034 -1.28029 0
M  V30 2617 C 249.251 -0.428581 -2.29533 0
M  V30 2618 C 250.232 0.50659 -1.62381 0
M  V30 2619 O 251.417 0.413195 -1.89753 0
M  V30 2620 C 248.547 0.327388 -3.45753 0
M  V30 2621 C 247.501 -0.519137 -4.2484 0
M  V30 2622 C 246.827 0.365486 -5.33449 0
M  V30 2623 C 248.127 -1.77914 -4.91064 0
M  V30 2624 H 249.821 -1.27687 -2.70807 0
M  V30 2625 H 247.367 -0.615428 -1.30186 0
M  V30 2626 H 249.32 0.681378 -4.15855 0
M  V30 2627 H 248.044 1.20963 -3.03374 0
M  V30 2628 H 246.703 -0.855717 -3.56473 0
M  V30 2629 H 246.351 1.24642 -4.87312 0
M  V30 2630 H 246.051 -0.197356 -5.87268 0
M  V30 2631 H 247.575 0.715241 -6.06396 0
M  V30 2632 H 248.989 -1.49374 -5.53498 0
M  V30 2633 H 247.386 -2.2848 -5.54903 0
M  V30 2634 H 248.456 -2.50382 -4.15255 0
M  V30 2635 N 249.799 1.42003 -0.683588 0
M  V30 2636 C 251.048 2.00638 -0.206681 0
M  V30 2637 C 251.361 1.5472 1.19671 0
M  V30 2638 O 252.567 2.05833 1.77045 0
M  V30 2639 C 251.023 3.58487 -0.318632 0
M  V30 2640 C 250.631 4.1339 -1.72663 0
M  V30 2641 C 252.375 4.24384 0.0991141 0
M  V30 2642 C 250.282 5.63633 -1.79087 0
M  V30 2643 H 249.212 0.750408 -0.0735107 0
M  V30 2644 H 251.863 1.62624 -0.850048 0
M  V30 2645 H 250.245 3.94047 0.392781 0
M  V30 2646 H 251.419 3.89273 -2.46583 0
M  V30 2647 H 249.734 3.59976 -2.09299 0
M  V30 2648 H 252.331 5.34652 0.0713833 0
M  V30 2649 H 252.674 4.00505 1.13586 0
M  V30 2650 H 253.207 3.93816 -0.561599 0
M  V30 2651 H 249.946 5.92323 -2.80774 0
M  V30 2652 H 249.466 5.89714 -1.09535 0
M  V30 2653 H 251.145 6.28201 -1.5483 0
M  V30 2654 N 251.277 0.427512 1.51691 0
M  V30 2655 C 252.554 -0.201684 1.94557 0
M  V30 2656 C 252.934 -1.60981 1.36559 0
M  V30 2657 O 252.282 -2.21814 0.548702 0
M  V30 2658 C 252.492 -0.189394 3.48486 0
M  V30 2659 C 253.84 -0.39978 4.22714 0
M  V30 2660 O 254.864 -0.267945 3.55191 0
M  V30 2661 O 253.723 -0.661249 5.42485 0
M  V30 2662 H 250.817 -0.135261 0.815864 0
M  V30 2663 H 253.363 0.484782 1.62628 0
M  V30 2664 H 252.135 0.795431 3.8313 0
M  V30 2665 H 251.758 -0.919187 3.86829 0
M  V30 2666 N 252.755 -1.56801 0.158532 0
M  V30 2667 C 253.702 -2.17337 -0.776729 0
M  V30 2668 C 254.672 -1.1096 -1.23601 0
M  V30 2669 O 255.857 -1.39054 -1.30647 0
M  V30 2670 C 252.997 -2.80822 -2.00582 0
M  V30 2671 C 252.11 -4.01624 -1.59129 0
M  V30 2672 C 251.245 -4.53072 -2.77306 0
M  V30 2673 C 250.284 -5.66314 -2.32282 0
M  V30 2674 N 249.421 -6.12329 -3.43508 0
M  V30 2675 H 254.261 -2.96918 -0.253701 0
M  V30 2676 H 251.798 -1.46661 -0.113504 0
M  V30 2677 H 253.756 -3.15779 -2.72652 0
M  V30 2678 H 252.386 -2.03866 -2.50277 0
M  V30 2679 H 251.438 -3.72571 -0.767806 0
M  V30 2680 H 252.75 -4.83633 -1.2207 0
M  V30 2681 H 251.904 -4.90145 -3.57551 0
M  V30 2682 H 250.643 -3.70095 -3.17617 0
M  V30 2683 H 249.648 -5.28806 -1.5048 0
M  V30 2684 H 250.873 -6.51085 -1.93043 0
M  V30 2685 H 248.819 -5.32284 -3.83418 0
M  V30 2686 H 248.736 -6.89293 -3.105 0
M  V30 2687 H 250.004 -6.5405 -4.24075 0
M  V30 2688 N 254.233 0.115231 -1.57178 0
M  V30 2689 C 255.181 1.16014 -2.01602 0
M  V30 2690 C 256.175 1.42653 -0.913587 0
M  V30 2691 O 257.381 1.42571 -1.09879 0
M  V30 2692 H 253.756 0.391252 -0.642204 0
M  V30 2693 H 255.727 0.758998 -2.88586 0
M  V30 2694 C 254.476 2.47767 -2.4394 0
M  V30 2695 H 253.799 2.28108 -3.28339 0
M  V30 2696 H 255.239 3.19432 -2.78818 0
M  V30 2697 C 253.698 3.10617 -1.30455 0
M  V30 2698 O 254.228 3.96846 -0.622585 0
M  V30 2699 N 252.434 2.70553 -1.06064 0
M  V30 2700 H 251.981 2.00527 -1.61699 0
M  V30 2701 H 251.939 3.12934 -0.303284 0
M  V30 2702 N 255.711 1.52812 0.385517 0
M  V30 2703 C 256.959 1.67694 1.12797 0
M  V30 2704 C 257.28 0.421115 1.90399 0
M  V30 2705 O 256.55 -0.564551 1.87589 0
M  V30 2706 H 255.13 0.618155 0.419396 0
M  V30 2707 H 257.792 1.89938 0.436972 0
M  V30 2708 H 256.888 2.52896 1.82894 0
M  V30 2709 N 257.189 -0.644168 1.43834 0
M  V30 2710 C 258.429 -1.41565 1.47441 0
M  V30 2711 C 258.793 -1.91743 0.0992723 0
M  V30 2712 O 259.994 -2.68798 0.0100192 0
M  V30 2713 C 258.265 -2.55902 2.49498 0
M  V30 2714 S 259.824 -3.44287 2.72051 0
M  V30 2715 H 256.642 -0.483118 0.521649 0
M  V30 2716 H 259.244 -0.747008 1.80666 0
M  V30 2717 H 257.948 -2.17327 3.48134 0
M  V30 2718 H 257.479 -3.27607 2.17801 0
M  V30 2719 H 259.494 -4.52927 2.0266 0
M  V30 2720 N 258.668 -1.30515 -0.883378 0
M  V30 2721 C 259.914 -1.19607 -1.63774 0
M  V30 2722 C 260.247 0.248314 -1.92606 0
M  V30 2723 O 259.522 1.17742 -1.54813 0
M  V30 2724 C 259.805 -2.02669 -2.97653 0
M  V30 2725 C 259.658 -3.55335 -2.75784 0
M  V30 2726 C 260.977 -1.86573 -3.98596 0
M  V30 2727 H 258.096 -0.435856 -0.594305 0
M  V30 2728 H 260.738 -1.60165 -1.02212 0
M  V30 2729 H 258.888 -1.68208 -3.50197 0
M  V30 2730 H 260.56 -3.99863 -2.30016 0
M  V30 2731 H 258.803 -3.79438 -2.1026 0
M  V30 2732 H 259.474 -4.08745 -3.70988 0
M  V30 2733 H 261.95 -2.16703 -3.55217 0
M  V30 2734 H 260.826 -2.47014 -4.90179 0
M  V30 2735 H 261.087 -0.825321 -4.34328 0
M  V30 2736 N 260.146 1.09593 -1.13257 0
M  V30 2737 C 261.392 1.82003 -0.89458 0
M  V30 2738 C 261.725 1.85402 0.577906 0
M  V30 2739 O 261 1.32099 1.42759 0
M  V30 2740 C 261.283 3.28237 -1.48096 0
M  V30 2741 C 261.136 3.3312 -3.02244 0
M  V30 2742 C 262.455 4.24871 -1.14774 0
M  V30 2743 H 259.574 0.66077 -0.326424 0
M  V30 2744 H 262.216 1.28389 -1.40058 0
M  V30 2745 H 260.366 3.74024 -1.05062 0
M  V30 2746 H 262.038 2.95748 -3.54021 0
M  V30 2747 H 260.281 2.72756 -3.37323 0
M  V30 2748 H 260.952 4.3613 -3.38371 0
M  V30 2749 H 263.428 3.87361 -1.51957 0
M  V30 2750 H 262.304 5.25532 -1.58452 0
M  V30 2751 H 262.565 4.42058 -0.0611849 0
M  V30 2752 N 261.624 0.925811 1.2754 0
M  V30 2753 C 262.571 0.422045 2.26908 0
M  V30 2754 C 263.541 -0.510029 1.58076 0
M  V30 2755 O 264.726 -0.429599 1.85901 0
M  V30 2756 C 261.866 -0.320837 3.43605 0
M  V30 2757 C 260.979 0.64513 4.27156 0
M  V30 2758 C 260.114 -0.117405 5.3107 0
M  V30 2759 C 259.153 0.841391 6.0629 0
M  V30 2760 N 258.29 0.111604 7.02011 0
M  V30 2761 H 263.13 1.27441 2.69375 0
M  V30 2762 H 260.667 0.639697 1.32462 0
M  V30 2763 H 262.625 -0.76785 4.10073 0
M  V30 2764 H 261.255 -1.13745 3.02096 0
M  V30 2765 H 260.307 1.21067 3.6062 0
M  V30 2766 H 261.619 1.37797 4.79389 0
M  V30 2767 H 260.773 -0.624422 6.03478 0
M  V30 2768 H 259.512 -0.883219 4.79636 0
M  V30 2769 H 258.517 1.35967 5.32722 0
M  V30 2770 H 259.742 1.60696 6.59813 0
M  V30 2771 H 257.688 -0.635999 6.5291 0
M  V30 2772 H 257.605 0.784044 7.51923 0
M  V30 2773 H 258.873 -0.374823 7.78598 0
M  V30 2774 N 263.102 -1.41638 0.69111 0
M  V30 2775 C 264.518 -1.55435 0.362224 0
M  V30 2776 C 264.718 -1.66754 -1.13117 0
M  V30 2777 O 263.774 -1.64348 -1.91692 0
M  V30 2778 C 265.087 -2.79588 1.10684 0
M  V30 2779 C 266.635 -2.9338 1.09075 0
M  V30 2780 C 267.11 -4.20414 1.81703 0
M  V30 2781 N 268.601 -4.27362 1.7865 0
M  V30 2782 C 269.336 -5.24507 2.31689 0
M  V30 2783 N 268.832 -6.27708 2.93179 0
M  V30 2784 N 270.625 -5.16416 2.2197 0
M  V30 2785 H 262.776 -1.32536 1.65976 0
M  V30 2786 H 265.039 -0.639115 0.700168 0
M  V30 2787 H 264.745 -2.77419 2.16175 0
M  V30 2788 H 264.619 -3.70973 0.682545 0
M  V30 2789 H 267.006 -2.95067 0.0441238 0
M  V30 2790 H 267.087 -2.0318 1.55407 0
M  V30 2791 H 266.731 -4.19488 2.86343 0
M  V30 2792 H 266.661 -5.09578 1.32808 0
M  V30 2793 H 269.152 -3.53415 1.33815 0
M  V30 2794 H 269.465 -6.98217 3.31229 0
M  V30 2795 H 267.81 -6.28223 2.97255 0
M  V30 2796 H 271.001 -4.34716 1.73607 0
M  V30 2797 H 271.174 -5.91958 2.63609 0
M  V30 2798 N 264.58 -0.43555 -1.51462 0
M  V30 2799 C 265.81 0.130053 -2.0619 0
M  V30 2800 C 266.218 1.37164 -1.30317 0
M  V30 2801 O 265.561 1.80225 -0.355598 0
M  V30 2802 C 265.623 0.519418 -3.55728 0
M  V30 2803 C 265.287 -0.615119 -4.52841 0
M  V30 2804 C 266.284 -1.48671 -4.9819 0
M  V30 2805 C 263.969 -0.795341 -4.95963 0
M  V30 2806 C 265.963 -2.52324 -5.8533 0
M  V30 2807 C 263.65 -1.83514 -5.82894 0
M  V30 2808 C 264.648 -2.69748 -6.27475 0
M  V30 2809 O 264.336 -3.71944 -7.1268 0
M  V30 2810 H 264.068 0.0121612 -0.675891 0
M  V30 2811 H 266.622 -0.6129 -1.96043 0
M  V30 2812 H 264.852 1.31505 -3.63653 0
M  V30 2813 H 266.541 1.01597 -3.92979 0
M  V30 2814 H 267.307 -1.359 -4.65571 0
M  V30 2815 H 263.186 -0.133713 -4.60806 0
M  V30 2816 H 266.73 -3.19665 -6.20048 0
M  V30 2817 H 262.627 -1.96306 -6.14926 0
M  V30 2818 H 263.395 -3.68503 -7.30854 0
M  V30 2819 N 266.058 1.56714 -0.166846 0
M  V30 2820 C 267.306 1.96358 0.478305 0
M  V30 2821 C 267.627 1.0537 1.6408 0
M  V30 2822 O 266.897 0.119154 1.95537 0
M  V30 2823 H 265.477 0.725065 0.179692 0
M  V30 2824 H 268.139 1.93329 -0.246985 0
M  V30 2825 H 267.235 3.00547 0.841292 0
M  V30 2826 N 267.536 -0.106894 1.57237 0
M  V30 2827 C 268.947 -0.662723 1.74542 0
M  V30 2828 C 269.298 -1.7971 0.787319 0
M  V30 2829 O 268.423 -2.16368 -0.0369636 0
M  V30 2830 C 269.018 -1.20896 3.16496 0
M  V30 2831 C 267.577 -1.71096 3.35266 0
M  V30 2832 C 266.724 -0.615642 2.7038 0
M  V30 2833 H 269.675 0.119106 1.58252 0
M  V30 2834 H 269.696 -2.07847 3.18716 0
M  V30 2835 H 269.208 -0.383122 3.86204 0
M  V30 2836 H 267.309 -2.56119 2.70618 0
M  V30 2837 H 267.422 -1.81208 4.43509 0
M  V30 2838 H 265.786 -1.05222 2.31949 0
M  V30 2839 H 266.569 0.199419 3.4272 0
M  V30 2840 N 269.014 -1.53014 -0.377408 0
M  V30 2841 C 269.947 -1.73382 -1.48371 0
M  V30 2842 C 270.925 -0.581879 -1.51832 0
M  V30 2843 O 272.109 -0.81307 -1.70063 0
M  V30 2844 C 269.236 -1.80192 -2.8679 0
M  V30 2845 C 268.282 -3.02056 -3.01105 0
M  V30 2846 S 269.115 -4.61811 -2.71093 0
M  V30 2847 C 270.271 -4.71453 -4.11683 0
M  V30 2848 H 270.504 -2.66946 -1.30872 0
M  V30 2849 H 268.037 -1.43453 -0.571012 0
M  V30 2850 H 269.995 -1.84802 -3.6655 0
M  V30 2851 H 268.656 -0.877008 -3.01608 0
M  V30 2852 H 267.849 -3.03396 -4.02451 0
M  V30 2853 H 267.451 -2.95498 -2.29253 0
M  V30 2854 H 269.743 -4.50781 -5.0577 0
M  V30 2855 H 270.686 -5.73487 -4.15353 0
M  V30 2856 H 271.094 -4.00189 -3.98132 0
M  V30 2857 N 270.492 0.636531 -1.44174 0
M  V30 2858 C 271.402 1.77754 -1.53103 0
M  V30 2859 C 272.418 1.68928 -0.417034 0
M  V30 2860 O 273.594 1.89801 -0.6736 0
M  V30 2861 C 270.659 3.14115 -1.46741 0
M  V30 2862 C 269.72 3.34612 -2.68948 0
M  V30 2863 C 268.953 4.64467 -2.6288 0
M  V30 2864 O 269.176 5.44919 -1.68581 0
M  V30 2865 O 268.11 4.87049 -3.53648 0
M  V30 2866 H 271.936 1.73174 -2.49489 0
M  V30 2867 H 269.521 0.79709 -1.2636 0
M  V30 2868 H 271.403 3.95412 -1.45696 0
M  V30 2869 H 270.078 3.19249 -0.534975 0
M  V30 2870 H 268.985 2.53014 -2.75562 0
M  V30 2871 H 270.318 3.34336 -3.61221 0
M  V30 2872 N 271.97 1.30982 0.876444 0
M  V30 2873 C 272.88 1.2003 2.01569 0
M  V30 2874 C 273.896 0.11838 1.73597 0
M  V30 2875 O 275.072 0.33495 1.98595 0
M  V30 2876 C 272.137 0.901637 3.34771 0
M  V30 2877 C 271.198 2.06979 3.76109 0
M  V30 2878 C 270.431 1.78529 5.02954 0
M  V30 2879 O 270.654 0.717296 5.65872 0
M  V30 2880 O 269.588 2.64019 5.40905 0
M  V30 2881 H 273.414 2.15753 2.13739 0
M  V30 2882 H 270.999 1.10658 1.00375 0
M  V30 2883 H 272.881 0.750645 4.1466 0
M  V30 2884 H 271.556 -0.0256141 3.2369 0
M  V30 2885 H 270.463 2.27616 2.96887 0
M  V30 2886 H 271.796 2.97907 3.91807 0
M  V30 2887 N 273.449 -1.08991 1.13837 0
M  V30 2888 C 274.86 -1.62746 0.914917 0
M  V30 2889 C 275.211 -1.88403 -0.547594 0
M  V30 2890 O 274.336 -1.63706 -1.41525 0
M  V30 2891 C 274.931 -2.95662 1.65437 0
M  V30 2892 C 273.49 -3.46225 1.47666 0
M  V30 2893 C 272.637 -2.20562 1.6807 0
M  V30 2894 H 275.588 -0.922946 1.29102 0
M  V30 2895 H 275.609 -3.63825 1.11407 0
M  V30 2896 H 275.121 -2.76956 2.71877 0
M  V30 2897 H 273.222 -3.70046 0.435478 0
M  V30 2898 H 273.335 -4.23368 2.24268 0
M  V30 2899 H 271.699 -2.29439 1.10589 0
M  V30 2900 H 272.482 -2.0437 2.7584 0
M  V30 2901 N 274.927 -0.932562 -1.27047 0
M  V30 2902 C 275.857 -0.452902 -2.29066 0
M  V30 2903 C 276.838 0.489338 -1.62909 0
M  V30 2904 O 278.023 0.393046 -1.90181 0
M  V30 2905 C 275.153 0.290698 -3.46081 0
M  V30 2906 C 274.107 -0.564168 -4.24265 0
M  V30 2907 C 273.433 0.308886 -5.33807 0
M  V30 2908 C 274.733 -1.83112 -4.89149 0
M  V30 2909 H 276.427 -1.30552 -2.69437 0
M  V30 2910 H 273.973 -0.629201 -1.29526 0
M  V30 2911 H 275.926 0.637233 -4.16554 0
M  V30 2912 H 274.65 1.17738 -3.0464 0
M  V30 2913 H 273.309 -0.893477 -3.55545 0
M  V30 2914 H 272.957 1.19467 -4.88607 0
M  V30 2915 H 272.657 -0.259633 -5.87026 0
M  V30 2916 H 274.181 0.650884 -6.07121 0
M  V30 2917 H 275.595 -1.55236 -5.51883 0
M  V30 2918 H 273.992 -2.34353 -5.52448 0
M  V30 2919 H 275.062 -2.54772 -4.12576 0
M  V30 2920 N 276.405 1.4127 -0.698611 0
M  V30 2921 C 277.651 2.01478 -0.231207 0
M  V30 2922 C 277.984 1.55215 1.16713 0
M  V30 2923 O 277.259 0.764672 1.78838 0
M  V30 2924 C 277.542 3.58912 -0.292281 0
M  V30 2925 C 277.395 4.15293 -1.72778 0
M  V30 2926 C 278.714 4.38736 0.346194 0
M  V30 2927 H 275.833 0.732025 -0.0854878 0
M  V30 2928 H 278.475 1.67977 -0.887906 0
M  V30 2929 H 276.625 3.87582 0.26686 0
M  V30 2930 H 278.297 3.97486 -2.341 0
M  V30 2931 H 276.54 3.7022 -2.26096 0
M  V30 2932 H 277.211 5.24452 -1.72202 0
M  V30 2933 H 279.687 4.15897 -0.130035 0
M  V30 2934 H 278.563 5.48221 0.272932 0
M  V30 2935 H 278.824 4.18425 1.42734 0
M  V30 2936 N 277.883 0.443576 1.51229 0
M  V30 2937 C 279.132 -0.122332 2.01329 0
M  V30 2938 C 279.445 -1.43237 1.33201 0
M  V30 2939 O 280.651 -2.0816 1.74304 0
M  V30 2940 C 279.107 -0.268551 3.58897 0
M  V30 2941 C 278.715 1.03142 4.35965 0
M  V30 2942 C 280.459 -0.787894 4.17124 0
M  V30 2943 C 278.366 0.850504 5.85252 0
M  V30 2944 H 277.296 -0.0494929 0.752374 0
M  V30 2945 H 279.947 0.574289 1.74282 0
M  V30 2946 H 278.329 -1.02832 3.82415 0
M  V30 2947 H 279.503 1.80001 4.24189 0
M  V30 2948 H 277.818 1.47977 3.89219 0
M  V30 2949 H 280.415 -0.939841 5.26375 0
M  V30 2950 H 280.758 -1.77201 3.76703 0
M  V30 2951 H 281.291 -0.0862669 3.97706 0
M  V30 2952 H 278.03 1.80718 6.30096 0
M  V30 2953 H 277.55 0.121825 5.99676 0
M  V30 2954 H 279.229 0.506163 6.45017 0
M  V30 2955 N 279.361 -1.56624 0.175154 0
M  V30 2956 C 280.271 -2.21741 -0.766042 0
M  V30 2957 C 281.287 -1.21023 -1.25018 0
M  V30 2958 O 282.463 -1.53697 -1.3015 0
M  V30 2959 C 279.528 -2.84839 -1.97655 0
M  V30 2960 C 278.589 -4.00769 -1.53892 0
M  V30 2961 C 277.822 -4.60849 -2.69173 0
M  V30 2962 O 278.045 -4.19823 -3.86141 0
M  V30 2963 O 276.979 -5.50655 -2.43028 0
M  V30 2964 H 280.805 -3.02738 -0.241585 0
M  V30 2965 H 278.39 -1.49305 -0.053222 0
M  V30 2966 H 280.272 -3.24834 -2.68442 0
M  V30 2967 H 278.947 -2.06836 -2.48999 0
M  V30 2968 H 277.854 -3.65436 -0.80044 0
M  V30 2969 H 279.187 -4.80376 -1.07236 0
M  V30 2970 N 280.839 0.0985539 -1.57292 0
M  V30 2971 C 281.786 1.11981 -2.01814 0
M  V30 2972 C 282.756 1.39999 -0.89384 0
M  V30 2973 O 283.941 1.5152 -1.15958 0
M  V30 2974 C 281.081 2.43577 -2.44467 0
M  V30 2975 C 280.194 2.2232 -3.70402 0
M  V30 2976 C 279.329 3.4729 -4.01949 0
M  V30 2977 C 278.368 3.2128 -5.21005 0
M  V30 2978 N 277.505 4.38507 -5.48321 0
M  V30 2979 H 282.345 0.733149 -2.88841 0
M  V30 2980 H 279.882 0.350482 -1.42864 0
M  V30 2981 H 281.84 3.20373 -2.6724 0
M  V30 2982 H 280.47 2.80097 -1.60455 0
M  V30 2983 H 279.522 1.36343 -3.55126 0
M  V30 2984 H 280.834 1.99089 -4.57345 0
M  V30 2985 H 279.988 4.32495 -4.25479 0
M  V30 2986 H 278.727 3.73572 -3.13521 0
M  V30 2987 H 277.732 2.34468 -4.97298 0
M  V30 2988 H 278.957 2.96348 -6.11028 0
M  V30 2989 H 276.903 4.64871 -4.62851 0
M  V30 2990 H 276.82 4.18455 -6.29628 0
M  V30 2991 H 278.088 5.24787 -5.76385 0
M  V30 2992 N 282.317 1.53212 0.369288 0
M  V30 2993 C 283.594 1.59815 1.12776 0
M  V30 2994 C 283.974 0.403402 2.0721 0
M  V30 2995 O 283.322 -0.606667 2.20299 0
M  V30 2996 C 283.532 2.94664 1.87013 0
M  V30 2997 C 284.88 3.49109 2.41677 0
M  V30 2998 O 285.904 2.96669 1.97144 0
M  V30 2999 O 284.763 4.40775 3.23079 0
M  V30 3000 H 281.857 0.645376 0.517125 0
M  V30 3001 H 284.403 1.65553 0.37285 0
M  V30 3002 H 283.175 3.73061 1.18071 0
M  V30 3003 H 282.798 2.92401 2.69421 0
M  V30 3004 N 283.795 -0.628877 1.44509 0
M  V30 3005 C 284.725 -1.75187 1.54376 0
M  V30 3006 C 285.706 -1.65411 0.396618 0
M  V30 3007 O 286.891 -1.84137 0.617031 0
M  V30 3008 C 284.021 -3.13725 1.48976 0
M  V30 3009 C 282.975 -3.38291 2.62189 0
M  V30 3010 C 282.301 -4.76883 2.41841 0
M  V30 3011 C 283.601 -3.30632 4.04326 0
M  V30 3012 H 285.295 -1.67187 2.48373 0
M  V30 3013 H 282.841 -0.802909 1.19538 0
M  V30 3014 H 284.794 -3.92064 1.54478 0
M  V30 3015 H 283.518 -3.22515 0.514961 0
M  V30 3016 H 282.177 -2.62334 2.56079 0
M  V30 3017 H 281.825 -4.82378 1.42548 0
M  V30 3018 H 281.525 -4.94278 3.17747 0
M  V30 3019 H 283.049 -5.57449 2.49165 0
M  V30 3020 H 284.463 -3.98873 4.11793 0
M  V30 3021 H 282.86 -3.59561 4.80454 0
M  V30 3022 H 283.93 -2.28404 4.27738 0
M  V30 3023 N 285.273 -1.31445 -0.869486 0
M  V30 3024 C 286.684 -1.19042 -1.43826 0
M  V30 3025 C 287.035 0.202919 -1.95148 0
M  V30 3026 O 286.16 1.10071 -1.86315 0
M  V30 3027 C 286.755 -2.15499 -2.6143 0
M  V30 3028 C 285.314 -2.07028 -3.14351 0
M  V30 3029 C 284.461 -2.04701 -1.87063 0
M  V30 3030 H 287.412 -1.43489 -0.677984 0
M  V30 3031 H 287.433 -1.74488 -3.38134 0
M  V30 3032 H 286.945 -3.16899 -2.24046 0
M  V30 3033 H 285.046 -1.08825 -3.56354 0
M  V30 3034 H 285.159 -2.96157 -3.766 0
M  V30 3035 H 283.523 -1.49724 -2.06046 0
M  V30 3036 H 284.306 -3.07857 -1.51917 0
M  V30 3037 N 286.751 1.08385 -1.14413 0
M  V30 3038 C 287.701 2.13509 -0.79987 0
M  V30 3039 C 288.685 1.5951 0.211059 0
M  V30 3040 O 289.877 1.76995 0.0133694 0
M  V30 3041 C 287.006 3.42162 -0.279297 0
M  V30 3042 C 286.092 4.03042 -1.31976 0
M  V30 3043 N 286.483 4.38327 -2.52395 0
M  V30 3044 C 284.781 4.30379 -1.17004 0
M  V30 3045 C 285.482 4.86428 -3.19003 0
M  V30 3046 N 284.458 4.84547 -2.46405 0
M  V30 3047 H 288.26 2.38609 -1.7159 0
M  V30 3048 H 285.774 1.2572 -1.02802 0
M  V30 3049 H 287.771 4.16898 -0.0143688 0
M  V30 3050 H 286.431 3.18511 0.630923 0
M  V30 3051 H 287.442 4.29349 -2.89621 0
M  V30 3052 H 284.119 4.16281 -0.318854 0
M  V30 3053 H 285.509 5.23107 -4.21674 0
M  V30 3054 N 288.23 0.939286 1.26551 0
M  V30 3055 C 289.46 0.601663 1.97645 0
M  V30 3056 C 289.868 -0.827206 1.70159 0
M  V30 3057 O 289.211 -1.56291 0.965338 0
M  V30 3058 C 289.273 0.761725 3.51337 0
M  V30 3059 C 288.937 2.16487 4.0247 0
M  V30 3060 C 289.934 3.14016 4.14355 0
M  V30 3061 C 287.619 2.48494 4.36527 0
M  V30 3062 C 289.613 4.41654 4.59587 0
M  V30 3063 C 287.3 3.76364 4.81449 0
M  V30 3064 C 288.298 4.72758 4.92939 0
M  V30 3065 O 287.986 5.98352 5.36871 0
M  V30 3066 H 287.718 0.225758 0.637189 0
M  V30 3067 H 290.272 1.26178 1.62075 0
M  V30 3068 H 288.502 0.0444808 3.86674 0
M  V30 3069 H 290.191 0.427442 4.03643 0
M  V30 3070 H 290.957 2.90613 3.8829 0
M  V30 3071 H 286.836 1.74202 4.26819 0
M  V30 3072 H 290.38 5.16896 4.68471 0
M  V30 3073 H 286.277 3.99582 5.06956 0
M  V30 3074 H 287.045 6.01507 5.55096 0
M  V30 3075 N 289.708 -1.40897 0.706093 0
M  V30 3076 C 290.955 -2.01054 0.241531 0
M  V30 3077 C 291.283 -1.55956 -1.16223 0
M  V30 3078 O 290.538 -0.766336 -1.80072 0
M  V30 3079 C 290.837 -3.5646 0.259099 0
M  V30 3080 C 290.503 -4.21106 1.61184 0
M  V30 3081 C 289.165 -4.38479 1.98216 0
M  V30 3082 C 291.517 -4.57256 2.50132 0
M  V30 3083 C 288.845 -4.89282 3.2376 0
M  V30 3084 C 291.197 -5.09454 3.7502 0
M  V30 3085 C 289.861 -5.25037 4.12181 0
M  V30 3086 H 289.131 -0.73571 0.0883825 0
M  V30 3087 H 291.778 -1.68645 0.907257 0
M  V30 3088 H 290.083 -3.88721 -0.490189 0
M  V30 3089 H 291.78 -4.00826 -0.11804 0
M  V30 3090 H 288.37 -4.07966 1.31384 0
M  V30 3091 H 292.554 -4.43479 2.228 0
M  V30 3092 H 287.81 -4.99531 3.52532 0
M  V30 3093 H 291.984 -5.36404 4.44121 0
M  V30 3094 H 289.611 -5.64164 5.09532 0
M  V30 3095 O 291.225 -0.593567 -1.50197 0
M  V30 3096 H 291.916 -0.101366 -1.93435 0
M  V30 END ATOM
M  V30 BEGIN BOND
M  V30 END BOND
M  V30 END CTAB
M  END
$$$$
