drugbank_target|Q86V86 Serine/threonine-protein kinase pim-3 (DB12010)
 OpenBabel12092121183D

  0  0  0     0  0            999 V3000
M  V30 BEGIN CTAB
M  V30 COUNTS 5052 5110 0 0 0
M  V30 BEGIN ATOM
M  V30 1 H -0.908 1.98254 -0.117106 0
M  V30 2 N 0 1.576 0 0
M  V30 3 C 0.933 2.03868 1.02534 0
M  V30 4 C 1.911 0.928543 1.3348 0
M  V30 5 O 3.095 1.19667 1.45644 0
M  V30 6 C 0.222 2.43627 2.35294 0
M  V30 7 C -0.732 3.65373 2.2001 0
M  V30 8 S 0.101 5.13292 1.52614 0
M  V30 9 C 1.257 5.56322 2.86805 0
M  V30 10 H 1.49 2.90518 0.631377 0
M  V30 11 H -0.977 1.52953 0.210867 0
M  V30 12 H 0.981 2.67203 3.11629 0
M  V30 13 H -0.358 1.57376 2.7183 0
M  V30 14 H -1.165 3.90944 3.18086 0
M  V30 15 H -1.563 3.418 1.51819 0
M  V30 16 H 0.729 5.58782 3.83104 0
M  V30 17 H 1.672 6.56266 2.65933 0
M  V30 18 H 2.08 4.83886 2.90714 0
M  V30 19 N 1.4781 -0.272755 1.55222 0
M  V30 20 C 2.4081 -1.34136 1.91127 0
M  V30 21 C 3.3891 -1.51513 0.773168 0
M  V30 22 O 4.5741 -1.64552 1.03132 0
M  V30 23 C 1.7041 -2.70083 2.1834 0
M  V30 24 C 0.6581 -2.67437 3.34158 0
M  V30 25 C -0.0159 -4.06938 3.46851 0
M  V30 26 C 1.2841 -2.26686 4.70543 0
M  V30 27 H 2.9781 -1.04333 2.80633 0
M  V30 28 H 0.5241 -0.500454 1.35024 0
M  V30 29 H 2.4771 -3.44952 2.42046 0
M  V30 30 H 1.2011 -3.01469 1.25634 0
M  V30 31 H -0.1399 -1.95026 3.1042 0
M  V30 32 H -0.4919 -4.35547 2.51611 0
M  V30 33 H -0.7919 -4.06062 4.2472 0
M  V30 34 H 0.7321 -4.83545 3.72849 0
M  V30 35 H 2.1461 -2.91277 4.93792 0
M  V30 36 H 0.5431 -2.36971 5.5133 0
M  V30 37 H 1.6131 -1.21818 4.69349 0
M  V30 38 N 2.9562 -1.48159 -0.537278 0
M  V30 39 C 3.8862 -1.65029 -1.6519 0
M  V30 40 C 4.8672 -0.499281 -1.62607 0
M  V30 41 O 6.0522 -0.730972 -1.79918 0
M  V30 42 C 3.1822 -1.68303 -3.03795 0
M  V30 43 C 2.1362 -2.8283 -3.21234 0
M  V30 44 C 1.4622 -2.71189 -4.60826 0
M  V30 45 C 2.7622 -4.24211 -3.04701 0
M  V30 46 H 4.4562 -2.58341 -1.51328 0
M  V30 47 H 2.0022 -1.24325 -0.726585 0
M  V30 48 H 3.9552 -1.78693 -3.81637 0
M  V30 49 H 2.6792 -0.715635 -3.18663 0
M  V30 50 H 1.3382 -2.71983 -2.45807 0
M  V30 51 H 0.9862 -1.72435 -4.7252 0
M  V30 52 H 0.6862 -3.48035 -4.7344 0
M  V30 53 H 2.2102 -2.83537 -5.40777 0
M  V30 54 H 3.6242 -4.3593 -3.72341 0
M  V30 55 H 2.0212 -5.01998 -3.28813 0
M  V30 56 H 3.0912 -4.41184 -2.01209 0
M  V30 57 N 4.4343 0.785586 -1.36625 0
M  V30 58 C 5.6593 1.57963 -1.34397 0
M  V30 59 C 6.0843 1.87964 0.071526 0
M  V30 60 O 5.4423 1.48182 1.0446 0
M  V30 61 C 5.4903 2.87511 -2.17646 0
M  V30 62 O 4.5943 3.81281 -1.57158 0
M  V30 63 H 3.9353 0.479014 -0.459828 0
M  V30 64 H 6.4653 0.973411 -1.79961 0
M  V30 65 H 6.4753 3.36745 -2.30362 0
M  V30 66 H 5.1503 2.65002 -3.20541 0
M  V30 67 H 3.7273 3.39885 -1.53403 0
M  V30 68 N 5.9124 1.20967 1.01018 0
M  V30 69 C 6.8594 0.964281 2.09691 0
M  V30 70 C 7.8294 -0.107853 1.65749 0
M  V30 71 O 9.0144 0.0381987 1.90762 0
M  V30 72 C 6.1544 0.52943 3.41015 0
M  V30 73 C 5.2674 1.67043 3.98398 0
M  V30 74 C 4.4024 1.18525 5.17808 0
M  V30 75 C 3.4414 2.29892 5.67288 0
M  V30 76 N 2.5784 1.82546 6.77954 0
M  V30 77 H 7.4184 1.89463 2.30017 0
M  V30 78 H 4.9554 0.944289 1.1279 0
M  V30 79 H 6.9134 0.258588 4.16398 0
M  V30 80 H 5.5434 -0.363919 3.20742 0
M  V30 81 H 4.5954 2.05603 3.20049 0
M  V30 82 H 5.9074 2.50877 4.31117 0
M  V30 83 H 5.0614 0.870762 6.00419 0
M  V30 84 H 3.8004 0.316887 4.86669 0
M  V30 85 H 2.8054 2.6215 4.83278 0
M  V30 86 H 4.0304 3.17216 6.00459 0
M  V30 87 H 1.9764 0.980454 6.48632 0
M  V30 88 H 1.8934 2.59956 7.09901 0
M  V30 89 H 3.1614 1.54115 7.64113 0
M  V30 90 N 7.3905 -1.2043 1.01659 0
M  V30 91 C 8.6375 -1.89797 0.705917 0
M  V30 92 C 8.9655 -1.78848 -0.764439 0
M  V30 93 O 8.2205 -1.16694 -1.57102 0
M  V30 94 C 8.5195 -3.40464 1.08714 0
M  V30 95 C 8.1855 -3.71614 2.5537 0
M  V30 96 C 6.8475 -3.79826 2.95441 0
M  V30 97 C 9.1995 -3.85915 3.50313 0
M  V30 98 C 6.5275 -3.99797 4.29394 0
M  V30 99 C 8.8795 -4.07396 4.83954 0
M  V30 100 C 7.5435 -4.13837 5.23732 0
M  V30 101 H 6.8135 -0.694518 0.258313 0
M  V30 102 H 9.4605 -1.42691 1.27717 0
M  V30 103 H 7.7655 -3.89385 0.434309 0
M  V30 104 H 9.4625 -3.92433 0.824461 0
M  V30 105 H 6.0525 -3.65822 2.23321 0
M  V30 106 H 10.2365 -3.78926 3.20513 0
M  V30 107 H 5.4925 -4.03018 4.59768 0
M  V30 108 H 9.6665 -4.17404 5.57447 0
M  V30 109 H 7.2935 -4.29064 6.27541 0
M  V30 110 N 8.8686 -0.792821 -1.36206 0
M  V30 111 C 10.1166 -0.366062 -1.98757 0
M  V30 112 C 10.4376 1.0668 -1.63231 0
M  V30 113 O 9.7076 1.73587 -0.907978 0
M  V30 114 H 8.2876 -0.132364 -0.735179 0
M  V30 115 H 10.9496 -1.01562 -1.66347 0
M  V30 116 H 10.0456 -0.460638 -3.08682 0
M  V30 117 N 10.3467 1.47872 -0.545128 0
M  V30 118 C 11.5717 2.07391 -0.0190611 0
M  V30 119 C 11.9967 1.39688 1.25971 0
M  V30 120 O 11.3547 0.467816 1.7516 0
M  V30 121 C 11.4027 3.60188 0.172335 0
M  V30 122 O 10.5067 3.9339 1.23766 0
M  V30 123 H 9.8477 0.662411 -0.0459059 0
M  V30 124 H 12.3777 1.90066 -0.757365 0
M  V30 125 H 12.3877 4.06129 0.390305 0
M  V30 126 H 11.0627 4.08865 -0.761725 0
M  V30 127 H 9.6397 3.5921 1.00114 0
M  V30 128 N 11.8248 0.280983 1.55075 0
M  V30 129 C 12.7548 -0.597469 2.25727 0
M  V30 130 C 13.7358 -1.15417 1.24952 0
M  V30 131 O 14.9208 -1.18722 1.53684 0
M  V30 132 C 12.0508 -1.7789 2.98283 0
M  V30 133 C 11.0048 -1.35347 4.06036 0
M  V30 134 C 10.3308 -2.61846 4.66198 0
M  V30 135 C 11.6308 -0.499354 5.19907 0
M  V30 136 H 13.3248 -0.00824265 2.99399 0
M  V30 137 H 10.8708 -0.0025244 1.44 0
M  V30 138 H 12.8238 -2.39937 3.46422 0
M  V30 139 H 11.5478 -2.39405 2.22155 0
M  V30 140 H 10.2068 -0.756156 3.58717 0
M  V30 141 H 9.8548 -3.21632 3.86732 0
M  V30 142 H 9.5548 -2.3409 5.38958 0
M  V30 143 H 11.0788 -3.24732 5.1709 0
M  V30 144 H 12.4928 -1.02498 5.64063 0
M  V30 145 H 10.8898 -0.316424 5.99265 0
M  V30 146 H 11.9598 0.480459 4.82514 0
M  V30 147 N 13.3029 -1.57598 0.00835791 0
M  V30 148 C 14.2659 -2.07884 -0.965242 0
M  V30 149 C 15.2659 -0.989825 -1.26725 0
M  V30 150 O 16.4559 -1.25218 -1.21104 0
M  V30 151 C 13.5879 -2.52731 -2.28779 0
M  V30 152 H 14.7809 -2.95178 -0.530112 0
M  V30 153 H 12.3339 -1.54458 -0.239283 0
M  V30 154 H 13.0689 -1.68705 -2.76964 0
M  V30 155 H 12.8539 -3.32272 -2.08177 0
M  V30 156 H 14.3439 -2.91933 -2.98605 0
M  V30 157 N 14.781 0.264519 -1.55364 0
M  V30 158 C 15.731 1.32966 -1.85214 0
M  V30 159 C 16.715 1.44306 -0.711653 0
M  V30 160 O 17.907 1.47844 -0.973192 0
M  V30 161 C 15.036 2.68839 -2.13495 0
M  V30 162 C 14.122 2.61575 -3.33825 0
M  V30 163 N 14.513 2.23933 -4.53528 0
M  V30 164 C 12.811 2.92621 -3.36584 0
M  V30 165 C 13.512 2.26868 -5.35636 0
M  V30 166 N 12.488 2.65677 -4.74254 0
M  V30 167 H 16.29 1.02884 -2.75304 0
M  V30 168 H 13.804 0.473157 -1.55354 0
M  V30 169 H 15.801 3.45685 -2.33039 0
M  V30 170 H 14.461 2.99802 -1.24694 0
M  V30 171 H 15.472 1.95769 -4.79474 0
M  V30 172 H 12.149 3.2824 -2.58002 0
M  V30 173 H 13.539 2.00254 -6.41364 0
M  V30 174 N 16.2591 1.48442 0.529413 0
M  V30 175 C 17.1891 1.65902 1.64313 0
M  V30 176 C 18.1701 0.507897 1.6234 0
M  V30 177 O 19.3551 0.740503 1.79528 0
M  V30 178 C 16.4851 1.69911 3.02898 0
M  V30 179 C 15.4391 2.8453 3.19729 0
M  V30 180 C 14.7651 2.73629 4.59381 0
M  V30 181 C 16.0651 4.25821 3.02447 0
M  V30 182 H 17.7591 2.5914 1.49955 0
M  V30 183 H 15.3051 1.24709 0.719982 0
M  V30 184 H 17.2581 1.80715 3.80684 0
M  V30 185 H 15.9821 0.732524 3.18279 0
M  V30 186 H 14.6411 2.73283 2.44361 0
M  V30 187 H 14.2891 1.74938 4.71599 0
M  V30 188 H 13.9891 3.50541 4.71588 0
M  V30 189 H 15.5131 2.86401 5.39265 0
M  V30 190 H 16.9271 4.37898 3.70024 0
M  V30 191 H 15.3241 5.03735 3.26146 0
M  V30 192 H 16.3941 4.42244 1.98867 0
M  V30 193 N 17.7372 -0.778329 1.37039 0
M  V30 194 C 18.9772 -1.54973 1.33276 0
M  V30 195 C 19.3412 -1.91816 -0.0839376 0
M  V30 196 O 20.5422 -2.6767 -0.246228 0
M  V30 197 C 18.8132 -2.78517 2.23971 0
M  V30 198 S 20.3722 -3.6865 2.37997 0
M  V30 199 H 17.1902 -0.530639 0.473226 0
M  V30 200 H 19.7922 -0.915806 1.72723 0
M  V30 201 H 18.4962 -2.4952 3.25835 0
M  V30 202 H 18.0272 -3.46875 1.85584 0
M  V30 203 H 20.0422 -4.70182 1.58567 0
M  V30 204 N 19.2153 -1.21501 -1.00376 0
M  V30 205 C 20.4633 -1.03095 -1.73827 0
M  V30 206 C 20.7843 0.436341 -1.90055 0
M  V30 207 O 20.0543 1.31466 -1.45236 0
M  V30 208 H 18.6343 -0.378487 -0.644016 0
M  V30 209 H 21.2963 -1.52831 -1.20949 0
M  V30 210 H 20.3923 -1.49991 -2.73695 0
M  V30 211 N 20.6934 1.19889 -1.02296 0
M  V30 212 C 22.1044 1.71124 -0.746568 0
M  V30 213 C 22.4554 1.81939 0.734335 0
M  V30 214 O 21.5804 1.48639 1.57275 0
M  V30 215 C 22.1754 3.10804 -1.34857 0
M  V30 216 C 20.7344 3.59323 -1.1209 0
M  V30 217 C 19.8814 2.3635 -1.45031 0
M  V30 218 H 22.8324 1.04813 -1.19163 0
M  V30 219 H 22.8534 3.73186 -0.742437 0
M  V30 220 H 22.3654 3.029 -2.42638 0
M  V30 221 H 20.4664 3.7255 -0.0610337 0
M  V30 222 H 20.5794 4.4378 -1.80544 0
M  V30 223 H 18.9434 2.39399 -0.869487 0
M  V30 224 H 19.7264 2.31081 -2.53883 0
M  V30 225 N 22.1715 0.800033 1.35784 0
M  V30 226 C 23.4195 0.376597 1.9856 0
M  V30 227 C 23.7405 -1.05812 1.63795 0
M  V30 228 O 23.0105 -1.73103 0.917171 0
M  V30 229 H 21.5905 0.136261 0.734467 0
M  V30 230 H 24.2525 1.02442 1.65806 0
M  V30 231 H 23.3485 0.477002 3.08433 0
M  V30 232 N 23.6496 -1.47581 0.552962 0
M  V30 233 C 24.8976 -2.02082 0.0272703 0
M  V30 234 C 25.2186 -1.4301 -1.32563 0
M  V30 235 O 24.4886 -0.603745 -1.86365 0
M  V30 236 H 23.0686 -0.746966 0.00709182 0
M  V30 237 H 25.7306 -1.81033 0.722008 0
M  V30 238 H 24.8266 -3.12034 -0.0639951 0
M  V30 239 N 25.1277 -0.289203 -1.54924 0
M  V30 240 C 26.3737 0.323998 -2.00195 0
M  V30 241 C 26.7067 1.54441 -1.17735 0
M  V30 242 O 25.9817 1.92875 -0.250878 0
M  V30 243 C 26.2647 0.692276 -3.53383 0
M  V30 244 C 26.1177 -0.536457 -4.46589 0
M  V30 245 C 27.4367 1.52335 -4.12895 0
M  V30 246 H 24.5557 0.116289 -0.727768 0
M  V30 247 H 27.1977 -0.398954 -1.85764 0
M  V30 248 H 25.3477 1.30822 -3.65811 0
M  V30 249 H 27.0197 -1.17499 -4.46085 0
M  V30 250 H 25.2627 -1.17192 -4.1767 0
M  V30 251 H 25.9337 -0.234806 -5.515 0
M  V30 252 H 28.4097 1.00302 -4.0383 0
M  V30 253 H 27.2857 1.74982 -5.20262 0
M  V30 254 H 27.5467 2.50886 -3.64018 0
M  V30 255 N 26.6058 1.57591 -0.0167156 0
M  V30 256 C 27.8828 1.82547 0.702564 0
M  V30 257 C 28.2628 0.898018 1.91047 0
M  V30 258 O 27.6108 -0.0493456 2.28447 0
M  V30 259 C 27.8208 3.31459 1.09251 0
M  V30 260 C 29.1688 3.97622 1.48937 0
M  V30 261 O 30.1928 3.35881 1.18584 0
M  V30 262 O 29.0518 5.06415 2.05442 0
M  V30 263 H 26.1458 0.752268 0.343544 0
M  V30 264 H 28.6918 1.69644 -0.0434495 0
M  V30 265 H 27.4638 3.9061 0.23227 0
M  V30 266 H 27.0868 3.49422 1.89709 0
M  V30 267 N 28.0839 -0.256276 1.55502 0
M  V30 268 C 29.0339 -1.31981 1.85916 0
M  V30 269 C 30.0179 -1.43927 0.719296 0
M  V30 270 O 31.2099 -1.47326 0.981019 0
M  V30 271 C 28.3389 -2.67703 2.14918 0
M  V30 272 C 27.4249 -2.59801 3.35208 0
M  V30 273 N 27.8159 -2.21524 4.54709 0
M  V30 274 C 26.1139 -2.90832 3.38131 0
M  V30 275 C 26.8149 -2.24024 5.36832 0
M  V30 276 N 25.7909 -2.63158 4.75656 0
M  V30 277 H 29.5929 -1.01423 2.75845 0
M  V30 278 H 27.1069 -0.464911 1.55603 0
M  V30 279 H 29.1039 -3.44445 2.34869 0
M  V30 280 H 27.7639 -2.99137 1.26282 0
M  V30 281 H 28.7749 -1.93223 4.80505 0
M  V30 282 H 25.4519 -3.26867 2.59739 0
M  V30 283 H 26.8419 -1.9685 6.42417 0
M  V30 284 N 29.562 -1.4872 -0.521534 0
M  V30 285 C 30.492 -1.66771 -1.63431 0
M  V30 286 C 31.473 -0.516499 -1.62069 0
M  V30 287 O 32.658 -0.750013 -1.79132 0
M  V30 288 C 29.788 -1.71515 -3.01993 0
M  V30 289 C 28.742 -2.86222 -3.18216 0
M  V30 290 C 28.068 -2.76061 -4.57924 0
M  V30 291 C 29.368 -4.27419 -3.00184 0
M  V30 292 H 31.062 -2.59932 -1.48579 0
M  V30 293 H 28.608 -1.25089 -0.713358 0
M  V30 294 H 30.561 -1.82731 -3.7972 0
M  V30 295 H 29.285 -0.749393 -3.17886 0
M  V30 296 H 27.944 -2.74575 -2.42908 0
M  V30 297 H 27.592 -1.77437 -4.70665 0
M  V30 298 H 27.292 -3.53037 -4.69722 0
M  V30 299 H 28.816 -2.89256 -5.37739 0
M  V30 300 H 30.23 -4.39855 -3.67697 0
M  V30 301 H 28.627 -5.05458 -3.2347 0
M  V30 302 H 29.697 -4.43293 -1.96518 0
M  V30 303 N 31.0401 0.771051 -1.3745 0
M  V30 304 C 32.4511 1.34737 -1.29239 0
M  V30 305 C 32.8021 1.96109 0.0596908 0
M  V30 306 O 31.9271 1.93865 0.961534 0
M  V30 307 C 32.5221 2.44973 -2.34037 0
M  V30 308 C 31.0811 2.98372 -2.29458 0
M  V30 309 C 30.2281 1.71595 -2.17831 0
M  V30 310 H 33.1791 0.571256 -1.48062 0
M  V30 311 H 33.2001 3.24471 -1.98744 0
M  V30 312 H 32.7121 2.00276 -3.32432 0
M  V30 313 H 30.8131 3.47443 -1.34589 0
M  V30 314 H 30.9261 3.53939 -3.229 0
M  V30 315 H 29.2901 1.94547 -1.64388 0
M  V30 316 H 30.0731 1.29001 -3.18141 0
M  V30 317 N 32.5182 1.22032 0.997298 0
M  V30 318 C 33.7642 1.04376 1.73878 0
M  V30 319 C 34.0972 -0.420716 1.89588 0
M  V30 320 O 33.3722 -1.31202 1.43583 0
M  V30 321 C 33.6552 1.75047 3.14691 0
M  V30 322 C 33.5082 3.29062 3.06656 0
M  V30 323 C 34.8272 1.49928 4.13775 0
M  V30 324 H 31.9462 0.380578 0.631133 0
M  V30 325 H 34.5882 1.50312 1.16217 0
M  V30 326 H 32.7382 1.35996 3.63919 0
M  V30 327 H 34.4102 3.7753 2.65083 0
M  V30 328 H 32.6532 3.58967 2.43568 0
M  V30 329 H 33.3242 3.73683 4.06282 0
M  V30 330 H 35.8002 1.83842 3.73285 0
M  V30 331 H 34.6762 2.01878 5.10428 0
M  V30 332 H 34.9372 0.430929 4.39995 0
M  V30 333 N 33.9963 -1.19345 1.0293 0
M  V30 334 C 34.9433 -2.2258 0.610464 0
M  V30 335 C 35.9133 -1.6179 -0.375946 0
M  V30 336 O 37.0983 -1.88844 -0.272511 0
M  V30 337 C 34.2383 -3.45085 -0.0321473 0
M  V30 338 C 33.3513 -4.20258 1.00035 0
M  V30 339 C 32.4863 -5.3019 0.32746 0
M  V30 340 C 31.5253 -5.97121 1.34584 0
M  V30 341 N 30.6623 -6.98615 0.698726 0
M  V30 342 H 35.5023 -2.57764 1.49538 0
M  V30 343 H 33.0393 -1.26644 0.748311 0
M  V30 344 H 34.9973 -4.15061 -0.421966 0
M  V30 345 H 33.6273 -3.10555 -0.88064 0
M  V30 346 H 32.6793 -3.49223 1.50823 0
M  V30 347 H 33.9913 -4.66175 1.77433 0
M  V30 348 H 33.1453 -6.06587 -0.11718 0
M  V30 349 H 31.8843 -4.85345 -0.478713 0
M  V30 350 H 30.8893 -5.19474 1.80074 0
M  V30 351 H 32.1143 -6.4405 2.15352 0
M  V30 352 H 30.0603 -6.55942 -0.0873471 0
M  V30 353 H 29.9773 -7.42724 1.41058 0
M  V30 354 H 31.2453 -7.79004 0.278102 0
M  V30 355 N 35.4744 -0.807222 -1.35358 0
M  V30 356 C 36.7234 -0.384376 -1.98004 0
M  V30 357 C 37.0364 1.0543 -1.64754 0
M  V30 358 O 38.2424 1.58029 -2.20769 0
M  V30 359 C 36.6984 -0.636326 -3.5423 0
M  V30 360 C 36.3064 -2.08759 -3.96388 0
M  V30 361 C 38.0504 -0.278869 -4.23583 0
M  V30 362 C 35.9574 -2.28525 -5.45463 0
M  V30 363 H 34.8874 -0.139986 -0.740891 0
M  V30 364 H 37.5384 -0.991369 -1.54415 0
M  V30 365 H 35.9204 0.0406256 -3.95979 0
M  V30 366 H 37.0944 -2.8024 -3.6579 0
M  V30 367 H 35.4094 -2.40497 -3.39926 0
M  V30 368 H 38.0064 -0.404599 -5.33167 0
M  V30 369 H 38.3494 0.775012 -4.09022 0
M  V30 370 H 38.8824 -0.909764 -3.87257 0
M  V30 371 H 35.6214 -3.32361 -5.64992 0
M  V30 372 H 35.1414 -1.61569 -5.77629 0
M  V30 373 H 36.8204 -2.10109 -6.11934 0
M  V30 374 N 36.9525 1.47285 -0.560781 0
M  V30 375 C 37.8825 2.32857 0.173105 0
M  V30 376 C 38.8635 1.44009 0.905281 0
M  V30 377 O 40.0485 1.7286 0.885046 0
M  V30 378 C 37.1785 3.25861 1.20133 0
M  V30 379 C 36.1325 4.23978 0.585388 0
M  V30 380 C 35.4585 5.06332 1.7185 0
M  V30 381 C 36.7585 5.20242 -0.463178 0
M  V30 382 H 38.4525 2.94466 -0.541307 0
M  V30 383 H 35.9985 1.41601 -0.261764 0
M  V30 384 H 37.9515 3.84569 1.72293 0
M  V30 385 H 36.6755 2.62315 1.94573 0
M  V30 386 H 35.3345 3.66501 0.085054 0
M  V30 387 H 34.9825 4.39186 2.45203 0
M  V30 388 H 34.6825 5.72762 1.31213 0
M  V30 389 H 36.2065 5.67899 2.24329 0
M  V30 390 H 37.6205 5.73293 -0.027502 0
M  V30 391 H 36.0175 5.94896 -0.788627 0
M  V30 392 H 37.0875 4.65504 -1.35773 0
M  V30 393 N 38.4306 0.297415 1.54768 0
M  V30 394 C 39.3626 -0.613881 2.20826 0
M  V30 395 C 40.3756 -1.10032 1.19987 0
M  V30 396 O 41.5646 -1.01839 1.46598 0
M  V30 397 C 38.6646 -1.852 2.83821 0
M  V30 398 C 37.8376 -1.50865 4.10559 0
M  V30 399 C 36.8966 -2.60154 4.57391 0
M  V30 400 O 35.9226 -2.25398 5.2267 0
M  V30 401 N 37.1246 -3.90629 4.29406 0
M  V30 402 H 39.8896 -0.048389 2.99661 0
M  V30 403 H 37.4506 0.11946 1.61459 0
M  V30 404 H 39.4426 -2.57652 3.12086 0
M  V30 405 H 38.0126 -2.32597 2.08847 0
M  V30 406 H 37.2326 -0.616925 3.89343 0
M  V30 407 H 38.5206 -1.25458 4.9309 0
M  V30 408 H 37.9186 -4.21677 3.77101 0
M  V30 409 H 36.4756 -4.59391 4.62388 0
M  V30 410 N 39.9087 -1.5758 0.0250728 0
M  V30 411 C 41.3197 -1.79476 -0.514323 0
M  V30 412 C 41.6707 -0.934956 -1.72491 0
M  V30 413 O 40.7957 -0.144245 -2.15919 0
M  V30 414 C 41.3907 -3.25503 -0.939842 0
M  V30 415 C 39.9497 -3.48408 -1.42438 0
M  V30 416 C 39.0967 -2.74583 -0.387201 0
M  V30 417 H 42.0477 -1.567 0.25113 0
M  V30 418 H 42.0687 -3.34992 -1.80445 0
M  V30 419 H 41.5807 -3.88056 -0.0585628 0
M  V30 420 H 39.6817 -2.91103 -2.32572 0
M  V30 421 H 39.7947 -4.57119 -1.43455 0
M  V30 422 H 38.1587 -2.39942 -0.854409 0
M  V30 423 H 38.9417 -3.39849 0.485543 0
M  V30 424 N 41.3868 0.248026 -1.55636 0
M  V30 425 C 42.3498 1.29044 -1.89421 0
M  V30 426 C 43.3498 1.41134 -0.770581 0
M  V30 427 O 44.5398 1.39854 -1.03858 0
M  V30 428 C 41.6718 2.66831 -2.12165 0
M  V30 429 H 42.8648 1.00305 -2.82629 0
M  V30 430 H 40.4178 0.487265 -1.48511 0
M  V30 431 H 41.1528 3.00711 -1.21422 0
M  V30 432 H 40.9378 2.59438 -2.93997 0
M  V30 433 H 42.4278 3.42103 -2.3949 0
M  V30 434 N 42.8649 1.48995 0.513639 0
M  V30 435 C 43.8119 1.6473 1.61656 0
M  V30 436 C 44.7819 0.488984 1.58739 0
M  V30 437 O 45.9669 0.714478 1.76918 0
M  V30 438 C 43.1069 1.7082 2.99858 0
M  V30 439 C 42.2199 2.9787 3.12885 0
M  V30 440 C 41.3549 2.95017 4.41744 0
M  V30 441 C 40.3939 4.16702 4.48359 0
M  V30 442 N 39.5309 4.11832 5.68629 0
M  V30 443 H 44.3709 2.58909 1.47547 0
M  V30 444 H 41.9079 1.28382 0.71808 0
M  V30 445 H 43.8659 1.72331 3.79944 0
M  V30 446 H 42.4959 0.801181 3.12699 0
M  V30 447 H 41.5479 3.06029 2.25944 0
M  V30 448 H 42.8599 3.8786 3.13633 0
M  V30 449 H 42.0139 2.95021 5.30139 0
M  V30 450 H 40.7529 2.02784 4.43542 0
M  V30 451 H 39.7579 4.16955 3.58369 0
M  V30 452 H 40.9829 5.10113 4.48287 0
M  V30 453 H 38.9289 3.22428 5.71293 0
M  V30 454 H 38.8459 4.95543 5.7094 0
M  V30 455 H 40.1139 4.1592 6.59266 0
M  V30 456 N 44.343 -0.763751 1.37857 0
M  V30 457 C 45.306 -1.85889 1.34081 0
M  V30 458 C 46.306 -1.58949 0.243277 0
M  V30 459 O 47.496 -1.66882 0.499589 0
M  V30 460 C 44.628 -3.23176 1.08489 0
M  V30 461 H 45.821 -1.90648 2.31502 0
M  V30 462 H 43.374 -0.964367 1.23003 0
M  V30 463 H 44.109 -3.24091 0.116318 0
M  V30 464 H 43.894 -3.44124 1.8794 0
M  V30 465 H 45.384 -4.03254 1.08517 0
M  V30 466 N 45.8211 -1.22559 -0.990812 0
M  V30 467 C 47.0981 -0.959875 -1.70428 0
M  V30 468 C 47.4781 0.524455 -2.04481 0
M  V30 469 O 46.8261 1.49302 -1.72977 0
M  V30 470 C 47.0361 -1.85955 -2.95333 0
M  V30 471 C 48.3841 -2.11687 -3.68068 0
M  V30 472 O 49.4081 -1.8342 -3.05345 0
M  V30 473 O 48.2671 -2.59572 -4.80921 0
M  V30 474 H 45.3611 -0.361154 -0.743974 0
M  V30 475 H 47.9071 -1.33554 -1.04697 0
M  V30 476 H 46.6791 -2.86346 -2.66687 0
M  V30 477 H 46.3021 -1.4856 -3.68803 0
M  V30 478 N 47.2992 1.18797 -1.03562 0
M  V30 479 C 48.2462 2.22253 -0.622259 0
M  V30 480 C 49.2162 1.61987 0.36736 0
M  V30 481 O 50.4012 1.88986 0.262492 0
M  V30 482 C 47.5412 3.45097 0.0138462 0
M  V30 483 C 46.6542 4.19722 -1.02263 0
M  V30 484 C 45.7892 5.30009 -0.355573 0
M  V30 485 C 44.8282 5.96399 -1.37749 0
M  V30 486 N 43.9652 6.98234 -0.735766 0
M  V30 487 H 48.8052 2.56968 -1.50903 0
M  V30 488 H 46.3422 1.26245 -0.755017 0
M  V30 489 H 48.3002 4.15279 0.399948 0
M  V30 490 H 46.9302 3.11018 0.864158 0
M  V30 491 H 45.9822 3.48418 -1.52673 0
M  V30 492 H 47.2942 4.65227 -1.79903 0
M  V30 493 H 46.4482 6.0664 0.0850095 0
M  V30 494 H 45.1872 4.85592 0.452967 0
M  V30 495 H 44.1922 5.18512 -1.82826 0
M  V30 496 H 45.4172 6.42899 -2.18764 0
M  V30 497 H 43.3632 6.55979 0.0525597 0
M  V30 498 H 43.2802 7.41965 -1.44995 0
M  V30 499 H 44.5482 7.78845 -0.31941 0
M  V30 500 N 48.7773 0.814389 1.34928 0
M  V30 501 C 49.6873 0.231978 2.3345 0
M  V30 502 C 50.7033 -0.629139 1.62228 0
M  V30 503 O 51.8793 -0.539052 1.94052 0
M  V30 504 C 48.9443 -0.603482 3.41407 0
M  V30 505 C 48.0053 0.279037 4.28392 0
M  V30 506 C 47.2383 -0.516643 5.31193 0
M  V30 507 O 47.4613 -1.75068 5.4287 0
M  V30 508 O 46.3953 0.0965652 6.01823 0
M  V30 509 H 50.2213 1.04721 2.85074 0
M  V30 510 H 47.8063 0.576343 1.37836 0
M  V30 511 H 49.6883 -1.07908 4.0735 0
M  V30 512 H 48.3633 -1.39618 2.92042 0
M  V30 513 H 47.2703 0.801948 3.65403 0
M  V30 514 H 48.6033 1.03588 4.81176 0
M  V30 515 N 50.2554 -1.46986 0.568584 0
M  V30 516 C 51.4804 -2.07335 0.0520528 0
M  V30 517 C 51.9054 -1.41675 -1.23733 0
M  V30 518 O 51.2634 -0.495623 -1.74394 0
M  V30 519 C 51.3114 -3.60417 -0.11501 0
M  V30 520 O 50.4154 -3.95309 -1.17492 0
M  V30 521 H 49.7564 -0.661597 0.0564385 0
M  V30 522 H 52.2864 -1.88837 0.787507 0
M  V30 523 H 52.2964 -4.06698 -0.325644 0
M  V30 524 H 50.9714 -4.07601 0.826675 0
M  V30 525 H 49.5484 -3.60757 -0.943869 0
M  V30 526 N 51.7335 -0.305618 -1.54608 0
M  V30 527 C 52.9805 0.302298 -2.00231 0
M  V30 528 C 53.3085 1.5354 -1.19398 0
M  V30 529 O 52.5635 1.93973 -0.259423 0
M  V30 530 C 52.8625 0.698983 -3.50498 0
M  V30 531 C 52.5285 -0.432903 -4.48817 0
M  V30 532 C 51.1905 -0.743622 -4.75419 0
M  V30 533 C 53.5425 -1.19409 -5.07337 0
M  V30 534 C 50.8705 -1.81857 -5.57804 0
M  V30 535 C 53.2225 -2.25899 -5.90891 0
M  V30 536 C 51.8865 -2.57572 -6.15803 0
M  V30 537 H 51.1565 0.110619 -0.732697 0
M  V30 538 H 53.8035 -0.425674 -1.86709 0
M  V30 539 H 52.1085 1.50711 -3.61654 0
M  V30 540 H 53.8055 1.1806 -3.83227 0
M  V30 541 H 50.3955 -0.18063 -4.28219 0
M  V30 542 H 54.5795 -0.967295 -4.86782 0
M  V30 543 H 49.8355 -2.06864 -5.75341 0
M  V30 544 H 54.0095 -2.85335 -6.35261 0
M  V30 545 H 51.6365 -3.40998 -6.7943 0
M  V30 546 N 53.2116 1.57565 -0.0334293 0
M  V30 547 C 54.1216 2.13943 0.962572 0
M  V30 548 C 55.1376 1.09276 1.35406 0
M  V30 549 O 56.3136 1.41355 1.4346 0
M  V30 550 C 53.3786 2.65887 2.22497 0
M  V30 551 C 52.4396 3.85286 1.8935 0
M  V30 552 C 51.6726 4.34743 3.09571 0
M  V30 553 O 51.8956 3.83352 4.22371 0
M  V30 554 O 50.8296 5.26538 2.91618 0
M  V30 555 H 54.6556 2.99333 0.513169 0
M  V30 556 H 52.2406 1.4822 0.18743 0
M  V30 557 H 54.1226 2.99346 2.96598 0
M  V30 558 H 52.7976 1.83578 2.6661 0
M  V30 559 H 51.7046 3.56746 1.1262 0
M  V30 560 H 53.0376 4.68771 1.5005 0
M  V30 561 N 54.6897 -0.239769 1.55765 0
M  V30 562 C 55.6367 -1.29696 1.90913 0
M  V30 563 C 56.6067 -1.47478 0.764164 0
M  V30 564 O 57.7917 -1.61345 1.01845 0
M  V30 565 C 54.9317 -2.64598 2.21544 0
M  V30 566 C 54.0447 -2.54765 3.48882 0
M  V30 567 C 53.1797 -3.82069 3.69049 0
M  V30 568 C 52.2187 -3.66883 4.89963 0
M  V30 569 N 51.3557 -4.86094 5.06614 0
M  V30 570 H 56.1957 -0.990224 2.81067 0
M  V30 571 H 53.7327 -0.477684 1.39128 0
M  V30 572 H 55.6907 -3.43132 2.3731 0
M  V30 573 H 54.3207 -2.93405 1.34585 0
M  V30 574 H 53.3727 -1.67763 3.41409 0
M  V30 575 H 54.6847 -2.39457 4.37563 0
M  V30 576 H 53.8387 -4.69046 3.84812 0
M  V30 577 H 52.5777 -4.00282 2.78614 0
M  V30 578 H 51.5827 -2.78289 4.74168 0
M  V30 579 H 52.8077 -3.50157 5.81865 0
M  V30 580 H 50.7537 -5.04655 4.19117 0
M  V30 581 H 50.6707 -4.73443 5.89396 0
M  V30 582 H 51.9387 -5.74549 5.26795 0
M  V30 583 N 56.1678 -1.49265 -0.50573 0
M  V30 584 C 57.1308 -1.65075 -1.59006 0
M  V30 585 C 58.1308 -0.522768 -1.52065 0
M  V30 586 O 59.3208 -0.789117 -1.55302 0
M  V30 587 C 56.4528 -1.64369 -2.98656 0
M  V30 588 H 57.6458 -2.61784 -1.46319 0
M  V30 589 H 55.1988 -1.38226 -0.729616 0
M  V30 590 H 55.9338 -0.692272 -3.16825 0
M  V30 591 H 55.7188 -2.46282 -3.05103 0
M  V30 592 H 57.2088 -1.78674 -3.77446 0
M  V30 593 N 57.6459 0.756429 -1.3826 0
M  V30 594 C 58.8759 1.54341 -1.3734 0
M  V30 595 C 59.2839 1.89159 0.0393917 0
M  V30 596 O 58.6269 1.5307 1.01565 0
M  V30 597 C 58.6889 2.87238 -2.16182 0
M  V30 598 C 58.3529 2.74973 -3.65019 0
M  V30 599 C 59.3499 2.44962 -4.58574 0
M  V30 600 C 57.0349 2.92515 -4.08338 0
M  V30 601 C 59.0289 2.32642 -5.93428 0
M  V30 602 C 56.7159 2.79815 -5.43274 0
M  V30 603 C 57.7139 2.49921 -6.35632 0
M  V30 604 O 57.4019 2.37275 -7.68086 0
M  V30 605 H 57.1339 0.484281 -0.471643 0
M  V30 606 H 59.6879 0.944152 -1.82414 0
M  V30 607 H 57.9179 3.49342 -1.65822 0
M  V30 608 H 59.6069 3.48731 -2.07705 0
M  V30 609 H 60.3729 2.31081 -4.26412 0
M  V30 610 H 56.2519 3.14781 -3.368 0
M  V30 611 H 59.7959 2.0923 -6.65484 0
M  V30 612 H 55.6929 2.93269 -5.75034 0
M  V30 613 H 56.4609 2.52509 -7.78577 0
M  V30 614 N 59.124 1.23083 0.984299 0
M  V30 615 C 60.056 0.96636 2.07832 0
M  V30 616 C 61.069 -0.0582135 1.62696 0
M  V30 617 O 62.258 0.176843 1.77622 0
M  V30 618 C 59.358 0.433397 3.36117 0
M  V30 619 C 58.531 1.51722 4.10243 0
M  V30 620 C 57.59 0.989821 5.16807 0
M  V30 621 O 56.616 1.67794 5.43906 0
M  V30 622 N 57.818 -0.184367 5.80207 0
M  V30 623 H 60.583 1.90824 2.31098 0
M  V30 624 H 58.144 1.13888 1.1507 0
M  V30 625 H 60.136 0.065699 4.04647 0
M  V30 626 H 58.706 -0.413806 3.09849 0
M  V30 627 H 57.926 2.05786 3.36223 0
M  V30 628 H 59.214 2.24619 4.56534 0
M  V30 629 H 58.612 -0.760062 5.60571 0
M  V30 630 H 57.169 -0.493366 6.4993 0
M  V30 631 N 60.6021 -1.18246 1.0419 0
M  V30 632 C 61.8481 -1.88536 0.747122 0
M  V30 633 C 62.1811 -1.80223 -0.723409 0
M  V30 634 O 61.4561 -1.20337 -1.52804 0
M  V30 635 C 61.7391 -3.38968 1.21544 0
M  V30 636 C 61.5921 -3.56084 2.74816 0
M  V30 637 C 62.9111 -4.32648 0.806482 0
M  V30 638 H 60.0301 -0.684619 0.272883 0
M  V30 639 H 62.6721 -1.39113 1.29413 0
M  V30 640 H 60.8221 -3.8119 0.750081 0
M  V30 641 H 62.4941 -3.22946 3.29399 0
M  V30 642 H 60.7371 -2.98699 3.14582 0
M  V30 643 H 61.4081 -4.61639 3.02644 0
M  V30 644 H 63.8841 -3.98211 1.20695 0
M  V30 645 H 62.7601 -5.36462 1.1619 0
M  V30 646 H 63.0211 -4.41146 -0.29029 0
M  V30 647 N 62.0802 -0.821533 -1.34494 0
M  V30 648 C 63.3282 -0.408139 -1.97936 0
M  V30 649 C 63.6492 1.03193 -1.65457 0
M  V30 650 O 62.9192 1.71622 -0.944595 0
M  V30 651 H 61.4992 -0.147928 -0.732206 0
M  V30 652 H 64.1612 -1.05067 -1.64155 0
M  V30 653 H 63.2572 -0.52601 -3.07635 0
M  V30 654 N 63.5583 1.46682 -0.576371 0
M  V30 655 C 64.5213 2.28707 0.150239 0
M  V30 656 C 65.5213 1.38035 0.824794 0
M  V30 657 O 66.7113 1.60476 0.677719 0
M  V30 658 C 63.8433 3.18248 1.22192 0
M  V30 659 H 65.0363 2.94423 -0.570521 0
M  V30 660 H 62.5893 1.52688 -0.334078 0
M  V30 661 H 63.3243 2.57265 1.97447 0
M  V30 662 H 63.1093 3.85 0.742812 0
M  V30 663 H 64.5993 3.80001 1.73172 0
M  V30 664 N 65.0364 0.313813 1.54444 0
M  V30 665 C 66.2824 -0.292108 2.00685 0
M  V30 666 C 66.6154 -1.52548 1.20177 0
M  V30 667 O 65.8904 -1.92452 0.281531 0
M  V30 668 C 66.1734 -0.635968 3.5444 0
M  V30 669 C 66.0264 0.607437 4.4568 0
M  V30 670 C 67.3454 -1.45747 4.15266 0
M  V30 671 H 64.4644 -0.104697 0.729526 0
M  V30 672 H 67.1064 0.428457 1.85106 0
M  V30 673 H 65.2564 -1.24986 3.67846 0
M  V30 674 H 66.9284 1.24581 4.44159 0
M  V30 675 H 65.1714 1.23822 4.15753 0
M  V30 676 H 65.8424 0.322515 5.51057 0
M  V30 677 H 68.3184 -0.938645 4.05375 0
M  V30 678 H 67.1944 -1.66683 5.2298 0
M  V30 679 H 67.4554 -2.45063 3.67963 0
M  V30 680 N 66.5145 -1.57545 0.0417849 0
M  V30 681 C 67.4445 -2.14009 -0.933929 0
M  V30 682 C 68.4255 -1.05938 -1.33083 0
M  V30 683 O 69.6105 -1.33833 -1.40721 0
M  V30 684 C 66.7405 -2.67747 -2.21199 0
M  V30 685 C 65.6945 -3.80718 -1.95544 0
M  V30 686 C 65.0205 -4.20935 -3.29724 0
M  V30 687 C 66.3205 -5.06258 -1.28452 0
M  V30 688 H 68.0145 -2.95788 -0.463645 0
M  V30 689 H 65.5605 -1.42285 -0.221573 0
M  V30 690 H 67.5135 -3.05886 -2.89848 0
M  V30 691 H 66.2375 -1.83147 -2.70416 0
M  V30 692 H 64.8965 -3.43037 -1.2931 0
M  V30 693 H 64.5445 -3.33298 -3.76724 0
M  V30 694 H 64.2445 -4.9707 -3.13361 0
M  V30 695 H 65.7685 -4.61666 -3.9962 0
M  V30 696 H 67.1825 -5.41903 -1.8712 0
M  V30 697 H 65.5795 -5.87475 -1.22445 0
M  V30 698 H 66.6495 -4.84207 -0.259219 0
M  V30 699 N 67.9926 0.231505 -1.5589 0
M  V30 700 C 69.2406 0.955461 -1.78088 0
M  V30 701 C 69.5616 1.85262 -0.608533 0
M  V30 702 O 68.8316 1.92277 0.375035 0
M  V30 703 H 67.4116 0.355787 -0.656829 0
M  V30 704 H 70.0736 0.245751 -1.93344 0
M  V30 705 H 69.1696 1.56814 -2.69844 0
M  V30 706 N 69.4707 1.49531 0.497807 0
M  V30 707 C 70.6957 1.63159 1.28039 0
M  V30 708 C 71.1207 0.30418 1.85624 0
M  V30 709 O 70.4787 -0.728618 1.66015 0
M  V30 710 C 70.5267 2.70537 2.38416 0
M  V30 711 O 69.6307 2.29931 3.42353 0
M  V30 712 H 68.9717 0.546001 0.377861 0
M  V30 713 H 71.5017 1.9574 0.59558 0
M  V30 714 H 71.5117 2.92802 2.84132 0
M  V30 715 H 70.1867 3.6689 1.95869 0
M  V30 716 H 68.7637 2.18009 3.02533 0
M  V30 717 N 70.9488 -0.749086 1.3866 0
M  V30 718 C 72.1968 -1.50535 1.34847 0
M  V30 719 C 72.5178 -1.94909 -0.0595016 0
M  V30 720 O 71.7878 -1.67973 -1.00806 0
M  V30 721 H 70.3678 -0.558395 0.49619 0
M  V30 722 H 73.0298 -0.890165 1.73384 0
M  V30 723 H 72.1258 -2.39413 2.00219 0
M  V30 724 N 72.4269 -1.23603 -0.977757 0
M  V30 725 C 73.6749 -1.06759 -1.71601 0
M  V30 726 C 73.9959 0.395929 -1.90938 0
M  V30 727 O 73.2659 1.28356 -1.47992 0
M  V30 728 H 71.8459 -0.392062 -0.635843 0
M  V30 729 H 74.5079 -1.55362 -1.1768 0
M  V30 730 H 73.6039 -1.55763 -2.70452 0
M  V30 731 N 73.905 1.17692 -1.04816 0
M  V30 732 C 75.152 1.87859 -0.75599 0
M  V30 733 C 75.48 1.80812 0.716752 0
M  V30 734 O 74.735 1.20819 1.53952 0
M  V30 735 C 75.034 3.37462 -1.17703 0
M  V30 736 C 74.7 3.64713 -2.65133 0
M  V30 737 C 73.362 3.71859 -3.05408 0
M  V30 738 C 75.714 3.76492 -3.60421 0
M  V30 739 C 73.042 3.88271 -4.39843 0
M  V30 740 C 75.394 3.94421 -4.94585 0
M  V30 741 C 74.058 3.99806 -5.3452 0
M  V30 742 H 73.328 0.687425 -0.276636 0
M  V30 743 H 75.975 1.39255 -1.31455 0
M  V30 744 H 74.28 3.88097 -0.537395 0
M  V30 745 H 75.977 3.90109 -0.928218 0
M  V30 746 H 72.567 3.59772 -2.32942 0
M  V30 747 H 76.751 3.70295 -3.30447 0
M  V30 748 H 72.007 3.90687 -4.70291 0
M  V30 749 H 76.181 4.02477 -5.68318 0
M  V30 750 H 73.808 4.12276 -6.38696 0
M  V30 751 N 75.3831 0.828654 1.34056 0
M  V30 752 C 76.6311 0.41863 1.97717 0
M  V30 753 C 76.9521 -1.02314 1.66002 0
M  V30 754 O 76.2221 -1.71119 0.953683 0
M  V30 755 H 74.8021 0.151809 0.731412 0
M  V30 756 H 77.4641 1.05936 1.63596 0
M  V30 757 H 76.5601 0.542318 3.07352 0
M  V30 758 N 76.8612 -1.46375 0.584142 0
M  V30 759 C 78.0892 -2.06761 0.0759296 0
M  V30 760 C 78.5042 -1.43266 -1.22965 0
M  V30 761 O 77.8612 -0.538458 -1.74376 0
M  V30 762 C 77.9122 -3.61375 -0.0950384 0
M  V30 763 O 77.6332 -4.22495 1.15887 0
M  V30 764 C 79.1342 -4.38693 -0.637434 0
M  V30 765 H 76.3542 -0.668479 0.0581075 0
M  V30 766 H 78.8982 -1.8798 0.805218 0
M  V30 767 H 77.0532 -3.79578 -0.774554 0
M  V30 768 H 77.4672 -5.15385 0.973598 0
M  V30 769 H 78.9412 -5.47464 -0.706237 0
M  V30 770 H 79.4182 -4.06836 -1.65472 0
M  V30 771 H 80.0242 -4.25299 0.00725967 0
M  V30 772 N 78.3393 -0.321999 -1.54275 0
M  V30 773 C 79.5853 0.281461 -2.00837 0
M  V30 774 C 79.9183 1.51909 -1.20985 0
M  V30 775 O 79.1933 1.923 -0.291733 0
M  V30 776 C 79.4763 0.617162 -3.54772 0
M  V30 777 C 79.3293 -0.631064 -4.45351 0
M  V30 778 C 80.6483 1.43542 -4.16033 0
M  V30 779 H 77.7673 0.100826 -0.730071 0
M  V30 780 H 80.4093 -0.438268 -1.84876 0
M  V30 781 H 78.5593 1.23034 -3.68504 0
M  V30 782 H 80.2313 -1.26934 -4.43492 0
M  V30 783 H 78.4743 -1.26025 -4.15091 0
M  V30 784 H 79.1453 -0.351735 -5.50878 0
M  V30 785 H 81.6213 0.917134 -4.05867 0
M  V30 786 H 80.4973 1.63907 -5.23856 0
M  V30 787 H 80.7583 2.43108 -3.69257 0
M  V30 788 N 79.8174 1.5752 -0.0501392 0
M  V30 789 C 81.0474 1.96678 0.632573 0
M  V30 790 C 81.4554 0.926298 1.64974 0
M  V30 791 O 80.7984 -0.09802 1.83438 0
M  V30 792 C 80.8604 3.32068 1.37735 0
M  V30 793 C 80.5244 4.54076 0.516131 0
M  V30 794 C 81.5214 5.19445 -0.217357 0
M  V30 795 C 79.2064 5.00304 0.44736 0
M  V30 796 C 81.2004 6.29378 -1.00807 0
M  V30 797 C 78.8874 6.10114 -0.347038 0
M  V30 798 C 79.8854 6.74512 -1.07344 0
M  V30 799 O 79.5734 7.82211 -1.85477 0
M  V30 800 H 79.3054 0.652193 0.177821 0
M  V30 801 H 81.8594 2.05091 -0.112543 0
M  V30 802 H 80.0894 3.20206 2.16807 0
M  V30 803 H 81.7784 3.55981 1.95019 0
M  V30 804 H 82.5444 4.84689 -0.173688 0
M  V30 805 H 78.4234 4.49971 1.00235 0
M  V30 806 H 81.9674 6.79575 -1.57556 0
M  V30 807 H 77.8644 6.44307 -0.392349 0
M  V30 808 H 78.6324 7.98982 -1.77678 0
M  V30 809 N 81.2955 -0.223234 1.56011 0
M  V30 810 C 82.2585 -1.26014 1.9145 0
M  V30 811 C 83.2585 -1.3989 0.792937 0
M  V30 812 O 84.4485 -1.38184 1.0607 0
M  V30 813 C 81.5805 -2.63422 2.16383 0
M  V30 814 H 82.7735 -0.95796 2.84189 0
M  V30 815 H 80.3265 -0.463576 1.49267 0
M  V30 816 H 81.0615 -2.98741 1.2619 0
M  V30 817 H 80.8465 -2.54728 2.98088 0
M  V30 818 H 82.3365 -3.38249 2.44903 0
M  V30 819 N 82.7736 -1.49793 -0.48987 0
M  V30 820 C 84.0216 -1.59525 -1.24081 0
M  V30 821 C 84.3426 -0.288953 -1.92847 0
M  V30 822 O 83.6126 0.692436 -1.83254 0
M  V30 823 H 82.1926 -0.587796 -0.460983 0
M  V30 824 H 84.8546 -1.86477 -0.566778 0
M  V30 825 H 83.9506 -2.39696 -1.99881 0
M  V30 826 N 84.2517 0.741722 -1.39055 0
M  V30 827 C 85.4767 1.53607 -1.39354 0
M  V30 828 C 85.9017 1.88096 0.0116905 0
M  V30 829 O 85.2597 1.5143 0.996924 0
M  V30 830 C 85.3077 2.80441 -2.26682 0
M  V30 831 O 84.4117 3.76088 -1.69208 0
M  V30 832 H 83.7527 0.464142 -0.474835 0
M  V30 833 H 86.2827 0.915665 -1.82967 0
M  V30 834 H 86.2927 3.29246 -2.40959 0
M  V30 835 H 84.9677 2.5467 -3.2881 0
M  V30 836 H 83.5447 3.34833 -1.64138 0
M  V30 837 N 85.7298 1.2412 0.971189 0
M  V30 838 C 87.1458 1.00584 1.23916 0
M  V30 839 C 87.3458 -0.287481 1.99439 0
M  V30 840 O 86.4018 -1.00454 2.31658 0
M  V30 841 C 87.7148 2.21864 2.0297 0
M  V30 842 C 89.2628 2.26452 2.16076 0
M  V30 843 C 89.7378 3.47343 2.98524 0
M  V30 844 N 91.2288 3.47639 3.06107 0
M  V30 845 C 91.9638 4.37837 3.70251 0
M  V30 846 N 91.4598 5.38286 4.36142 0
M  V30 847 N 93.2528 4.25558 3.67228 0
M  V30 848 H 85.4038 2.07236 0.465499 0
M  V30 849 H 87.6668 0.909236 0.268315 0
M  V30 850 H 87.3728 3.15771 1.54861 0
M  V30 851 H 87.2468 2.23698 3.03709 0
M  V30 852 H 89.6338 1.33078 2.6339 0
M  V30 853 H 89.7148 2.28645 1.14696 0
M  V30 854 H 89.3588 4.41029 2.51905 0
M  V30 855 H 89.2888 3.42393 4.00093 0
M  V30 856 H 91.7798 2.74966 2.59233 0
M  V30 857 H 92.0928 6.03352 4.82894 0
M  V30 858 H 90.4378 5.42176 4.34822 0
M  V30 859 H 93.6288 3.46322 3.14927 0
M  V30 860 H 93.8018 4.96054 4.16935 0
M  V30 861 N 87.2079 -1.17134 1.05439 0
M  V30 862 C 88.4569 -1.86791 0.761049 0
M  V30 863 C 88.7699 -1.82072 -0.714795 0
M  V30 864 O 89.9759 -2.47223 -1.12218 0
M  V30 865 C 88.4319 -3.35166 1.31117 0
M  V30 866 C 88.0399 -3.48381 2.81664 0
M  V30 867 C 89.7839 -4.10134 1.09499 0
M  V30 868 C 87.6909 -4.90793 3.29964 0
M  V30 869 H 86.6209 -0.699681 0.281002 0
M  V30 870 H 89.2719 -1.3226 1.27199 0
M  V30 871 H 87.6539 -3.8925 0.72803 0
M  V30 872 H 88.8279 -3.04502 3.45855 0
M  V30 873 H 87.1429 -2.86836 3.01851 0
M  V30 874 H 89.7399 -5.152 1.43084 0
M  V30 875 H 90.0829 -4.16287 0.0328772 0
M  V30 876 H 90.6159 -3.62264 1.64346 0
M  V30 877 H 87.3549 -4.89816 4.35616 0
M  V30 878 H 86.8749 -5.35333 2.70516 0
M  V30 879 H 88.5539 -5.59573 3.24787 0
M  V30 880 N 88.686 -0.835752 -1.33615 0
M  V30 881 C 89.649 -0.272 -2.2758 0
M  V30 882 C 90.649 0.557487 -1.50827 0
M  V30 883 O 91.839 0.37173 -1.70188 0
M  V30 884 C 88.971 0.617173 -3.35267 0
M  V30 885 H 90.164 -1.10111 -2.78954 0
M  V30 886 H 87.717 -0.608594 -1.43965 0
M  V30 887 H 88.452 1.46884 -2.89129 0
M  V30 888 H 88.237 0.0237066 -3.92093 0
M  V30 889 H 89.727 1.005 -4.05326 0
M  V30 890 N 90.1641 1.46063 -0.591896 0
M  V30 891 C 91.4411 1.95595 -0.0137119 0
M  V30 892 C 91.8211 1.5345 1.4497 0
M  V30 893 O 91.1691 0.789543 2.14426 0
M  V30 894 C 91.3791 3.48453 -0.195373 0
M  V30 895 C 92.7271 4.24546 -0.0679765 0
M  V30 896 O 93.7511 3.55982 -0.124681 0
M  V30 897 O 92.6101 5.46467 0.0600579 0
M  V30 898 H 89.7041 0.825795 0.0446279 0
M  V30 899 H 92.2501 1.56303 -0.660859 0
M  V30 900 H 91.0221 3.72045 -1.21235 0
M  V30 901 H 90.6451 3.94597 0.487775 0
M  V30 902 N 91.6422 0.330177 1.54103 0
M  V30 903 C 92.8902 -0.269871 2.0029 0
M  V30 904 C 93.2112 -1.52133 1.21986 0
M  V30 905 O 92.4812 -1.93212 0.323438 0
M  V30 906 H 91.0612 -0.10271 0.739905 0
M  V30 907 H 93.7232 0.448249 1.89675 0
M  V30 908 H 92.8192 -0.52166 3.07709 0
M  V30 909 N 93.1203 -1.57491 0.0584922 0
M  V30 910 C 94.0503 -2.14988 -0.911178 0
M  V30 911 C 95.0313 -1.07343 -1.31952 0
M  V30 912 O 96.2163 -1.35318 -1.39294 0
M  V30 913 C 93.3463 -2.70078 -2.18347 0
M  V30 914 C 92.3003 -3.82771 -1.91495 0
M  V30 915 C 91.6263 -4.24408 -3.25241 0
M  V30 916 C 92.9263 -5.07592 -1.23075 0
M  V30 917 H 94.6203 -2.96263 -0.432246 0
M  V30 918 H 92.1663 -1.42512 -0.206469 0
M  V30 919 H 94.1193 -3.08943 -2.86587 0
M  V30 920 H 92.8433 -1.86005 -2.68458 0
M  V30 921 H 91.5023 -3.44389 -1.25664 0
M  V30 922 H 91.1503 -3.37275 -3.73168 0
M  V30 923 H 90.8503 -5.00366 -3.08071 0
M  V30 924 H 92.3743 -4.65879 -3.94701 0
M  V30 925 H 93.7883 -5.43857 -1.81362 0
M  V30 926 H 92.1853 -5.88741 -1.16207 0
M  V30 927 H 93.2553 -4.84454 -0.207847 0
M  V30 928 N 94.5984 0.214957 -1.56127 0
M  V30 929 C 96.0094 0.781386 -1.69562 0
M  V30 930 C 96.3604 1.84707 -0.66165 0
M  V30 931 O 95.4854 2.156 0.185927 0
M  V30 932 C 96.0804 1.42411 -3.07416 0
M  V30 933 C 94.6394 1.93786 -3.22683 0
M  V30 934 C 93.7864 0.800438 -2.65496 0
M  V30 935 H 96.7374 -0.00980633 -1.58697 0
M  V30 936 H 96.7584 2.29309 -3.0364 0
M  V30 937 H 96.2704 0.64826 -3.82648 0
M  V30 938 H 94.3714 2.74152 -2.52332 0
M  V30 939 H 94.4844 2.1133 -4.29973 0
M  V30 940 H 92.8484 1.2095 -2.2415 0
M  V30 941 H 93.6314 0.0371471 -3.4328 0
M  V30 942 N 96.0765 1.50051 0.48192 0
M  V30 943 C 97.3225 1.60736 1.2366 0
M  V30 944 C 97.6555 0.301786 1.91841 0
M  V30 945 O 96.9305 -0.696025 1.8162 0
M  V30 946 C 97.2135 2.78009 2.28874 0
M  V30 947 C 97.0665 4.18416 1.65069 0
M  V30 948 C 98.3855 2.90867 3.30279 0
M  V30 949 H 95.5045 0.585031 0.448228 0
M  V30 950 H 98.1465 1.82402 0.531946 0
M  V30 951 H 96.2965 2.59667 2.88973 0
M  V30 952 H 97.9685 4.48322 1.0865 0
M  V30 953 H 96.2115 4.23177 0.954148 0
M  V30 954 H 96.8825 4.96381 2.41474 0
M  V30 955 H 99.3585 3.07623 2.80191 0
M  V30 956 H 98.2345 3.74566 4.01238 0
M  V30 957 H 98.4955 2.01021 3.93755 0
M  V30 958 N 97.5546 -0.734337 1.39446 0
M  V30 959 C 98.5176 -1.83004 1.37994 0
M  V30 960 C 99.5176 -1.58397 0.276938 0
M  V30 961 O 100.708 -1.65785 0.534875 0
M  V30 962 C 97.8396 -3.20802 1.1532 0
M  V30 963 H 99.0326 -1.85694 2.35494 0
M  V30 964 H 96.5856 -0.938059 1.25021 0
M  V30 965 H 97.3206 -3.23772 0.185036 0
M  V30 966 H 97.1056 -3.4006 1.95197 0
M  V30 967 H 98.5956 -4.00862 1.17046 0
M  V30 968 N 99.0327 -1.24633 -0.964593 0
M  V30 969 C 100.279 -1.08949 -1.71049 0
M  V30 970 C 100.612 0.370302 -1.90637 0
M  V30 971 O 99.8867 1.27349 -1.47011 0
M  V30 972 C 100.17 -1.83329 -3.0994 0
M  V30 973 C 100.023 -3.37077 -2.97824 0
M  V30 974 C 101.342 -1.60846 -4.09654 0
M  V30 975 H 98.4607 -0.397178 -0.620821 0
M  V30 976 H 101.103 -1.5334 -1.12191 0
M  V30 977 H 99.2527 -1.45597 -3.60186 0
M  V30 978 H 100.925 -3.84425 -2.5498 0
M  V30 979 H 99.1677 -3.65298 -2.33965 0
M  V30 980 H 99.8387 -3.84324 -3.96231 0
M  V30 981 H 102.315 -1.93674 -3.68279 0
M  V30 982 H 101.191 -2.1534 -5.04896 0
M  V30 983 H 101.452 -0.547434 -4.38698 0
M  V30 984 N 100.511 1.16574 -1.06058 0
M  V30 985 C 101.458 2.20883 -0.669263 0
M  V30 986 C 102.428 1.62729 0.332918 0
M  V30 987 O 103.613 1.895 0.222346 0
M  V30 988 C 100.753 3.45049 -0.0593572 0
M  V30 989 C 99.8658 4.17458 -1.11143 0
M  V30 990 C 99.0008 5.29135 -0.467916 0
M  V30 991 C 98.0398 5.93343 -1.50369 0
M  V30 992 N 97.1768 6.96516 -0.883706 0
M  V30 993 H 102.017 2.53709 -1.5632 0
M  V30 994 H 99.5538 1.24616 -0.781625 0
M  V30 995 H 101.512 4.16033 0.311771 0
M  V30 996 H 100.142 3.12781 0.797992 0
M  V30 997 H 99.1938 3.45101 -1.60029 0
M  V30 998 H 100.506 4.61307 -1.89731 0
M  V30 999 H 99.6598 6.06684 -0.0436871 0
M  V30 1000 H 98.3988 4.86443 0.349864 0
M  V30 1001 H 97.4038 5.14517 -1.93784 0
M  V30 1002 H 98.6288 6.38114 -2.32352 0
M  V30 1003 H 96.5748 6.55943 -0.086595 0
M  V30 1004 H 96.4918 7.38723 -1.607 0
M  V30 1005 H 97.7598 7.77993 -0.484543 0
M  V30 1006 N 101.989 0.842826 1.3317 0
M  V30 1007 C 102.939 0.250877 2.26616 0
M  V30 1008 C 103.923 -0.596427 1.49437 0
M  V30 1009 O 105.115 -0.447747 1.71243 0
M  V30 1010 C 102.244 -0.569779 3.38539 0
M  V30 1011 C 101.33 0.289254 4.23112 0
M  V30 1012 N 101.721 1.36987 4.86897 0
M  V30 1013 C 100.019 0.0769631 4.45934 0
M  V30 1014 C 100.72 1.89737 5.49886 0
M  V30 1015 N 99.6959 1.19827 5.30229 0
M  V30 1016 H 103.498 1.07718 2.73448 0
M  V30 1017 H 101.012 0.687693 1.47121 0
M  V30 1018 H 103.009 -1.01018 4.04476 0
M  V30 1019 H 101.669 -1.39401 2.93253 0
M  V30 1020 H 102.68 1.75277 4.87338 0
M  V30 1021 H 99.3569 -0.713507 4.11358 0
M  V30 1022 H 100.747 2.80253 6.10662 0
M  V30 1023 N 103.467 -1.45747 0.599634 0
M  V30 1024 C 104.713 -2.02592 0.0918643 0
M  V30 1025 C 105.046 -1.46806 -1.27128 0
M  V30 1026 O 104.321 -0.639658 -1.83681 0
M  V30 1027 C 104.604 -3.60073 0.0443398 0
M  V30 1028 C 104.457 -4.26208 1.43759 0
M  V30 1029 C 105.776 -4.35309 -0.647608 0
M  V30 1030 H 102.895 -0.736175 0.034857 0
M  V30 1031 H 105.537 -1.73694 0.770081 0
M  V30 1032 H 103.687 -3.84823 -0.533224 0
M  V30 1033 H 105.359 -4.12668 2.06162 0
M  V30 1034 H 103.602 -3.84916 2.00056 0
M  V30 1035 H 104.273 -5.35069 1.35665 0
M  V30 1036 H 106.749 -4.15805 -0.156776 0
M  V30 1037 H 105.625 -5.45038 -0.649942 0
M  V30 1038 H 105.886 -4.07598 -1.71219 0
M  V30 1039 N 104.945 -0.338344 -1.53925 0
M  V30 1040 C 106.191 0.260143 -2.01125 0
M  V30 1041 C 106.524 1.50617 -1.22589 0
M  V30 1042 O 105.799 1.91979 -0.312113 0
M  V30 1043 C 106.082 0.579499 -3.55407 0
M  V30 1044 C 105.935 -0.678264 -4.44657 0
M  V30 1045 C 107.254 1.39122 -4.17532 0
M  V30 1046 H 104.373 0.0930772 -0.731099 0
M  V30 1047 H 107.015 -0.457852 -1.84401 0
M  V30 1048 H 105.165 1.19118 -3.69788 0
M  V30 1049 H 106.837 -1.31631 -4.42121 0
M  V30 1050 H 105.08 -1.3042 -4.13731 0
M  V30 1051 H 105.751 -0.410143 -5.50474 0
M  V30 1052 H 108.227 0.874035 -4.06817 0
M  V30 1053 H 107.103 1.58342 -5.25565 0
M  V30 1054 H 107.364 2.39178 -3.71815 0
M  V30 1055 N 106.423 1.57458 -0.0668435 0
M  V30 1056 C 107.37 2.12439 0.902122 0
M  V30 1057 C 108.34 1.03565 1.2986 0
M  V30 1058 O 109.525 1.312 1.38532 0
M  V30 1059 C 106.665 2.6865 2.16614 0
M  V30 1060 C 105.778 3.91663 1.82274 0
M  V30 1061 C 104.913 4.36134 3.0325 0
M  V30 1062 C 103.952 5.51808 2.64904 0
M  V30 1063 N 103.089 5.9126 3.78624 0
M  V30 1064 H 107.929 2.94934 0.426382 0
M  V30 1065 H 105.466 1.4575 0.198819 0
M  V30 1066 H 107.424 2.99346 2.90599 0
M  V30 1067 H 106.054 1.88928 2.61737 0
M  V30 1068 H 105.106 3.6746 0.983719 0
M  V30 1069 H 106.418 4.75693 1.50059 0
M  V30 1070 H 105.572 4.68465 3.85519 0
M  V30 1071 H 104.311 3.50948 3.38655 0
M  V30 1072 H 103.316 5.19133 1.81055 0
M  V30 1073 H 104.541 6.38722 2.30675 0
M  V30 1074 H 102.487 5.09024 4.138 0
M  V30 1075 H 102.404 6.70018 3.5016 0
M  V30 1076 H 103.672 6.28212 4.61486 0
M  V30 1077 N 107.901 -0.206675 1.56239 0
M  V30 1078 C 108.811 -1.27686 1.96808 0
M  V30 1079 C 109.827 -1.50455 0.874035 0
M  V30 1080 O 111.003 -1.63295 1.17884 0
M  V30 1081 C 108.068 -2.60358 2.28942 0
M  V30 1082 C 107.129 -2.45762 3.51994 0
M  V30 1083 C 106.362 -3.72108 3.82585 0
M  V30 1084 O 106.585 -4.75776 3.14631 0
M  V30 1085 O 105.519 -3.6833 4.76043 0
M  V30 1086 H 109.345 -0.962593 2.88041 0
M  V30 1087 H 106.93 -0.410746 1.43643 0
M  V30 1088 H 108.812 -3.38687 2.50737 0
M  V30 1089 H 107.487 -2.91435 1.4088 0
M  V30 1090 H 106.394 -1.65584 3.35459 0
M  V30 1091 H 107.727 -2.19621 4.40486 0
M  V30 1092 N 109.379 -1.50304 -0.473955 0
M  V30 1093 C 110.795 -1.37667 -0.807466 0
M  V30 1094 C 110.995 -0.430555 -1.96846 0
M  V30 1095 O 110.051 0.127874 -2.52176 0
M  V30 1096 C 111.364 -2.78974 -1.12223 0
M  V30 1097 C 112.912 -2.87868 -1.22885 0
M  V30 1098 C 113.387 -4.30003 -1.57676 0
M  V30 1099 N 114.878 -4.3294 -1.64673 0
M  V30 1100 C 115.613 -5.3991 -1.93091 0
M  V30 1101 N 115.109 -6.57092 -2.1955 0
M  V30 1102 N 116.902 -5.27351 -1.94569 0
M  V30 1103 H 109.053 -2.10394 0.291212 0
M  V30 1104 H 111.316 -0.945575 0.0677609 0
M  V30 1105 H 111.022 -3.50031 -0.342229 0
M  V30 1106 H 110.896 -3.16038 -2.05913 0
M  V30 1107 H 113.283 -2.17032 -1.99953 0
M  V30 1108 H 113.364 -2.54352 -0.271814 0
M  V30 1109 H 113.008 -5.01375 -0.81149 0
M  V30 1110 H 112.938 -4.61004 -2.54525 0
M  V30 1111 H 115.429 -3.48441 -1.46277 0
M  V30 1112 H 115.742 -7.34425 -2.405 0
M  V30 1113 H 114.087 -6.60272 -2.16948 0
M  V30 1114 H 117.278 -4.34801 -1.73394 0
M  V30 1115 H 117.451 -6.10805 -2.16381 0
M  V30 1116 N 110.857 0.726932 -1.39834 0
M  V30 1117 C 112.103 1.48884 -1.377 0
M  V30 1118 C 112.436 1.94185 0.0244852 0
M  V30 1119 O 111.711 1.67361 0.990986 0
M  V30 1120 C 111.994 2.72288 -2.3565 0
M  V30 1121 C 111.847 2.32956 -3.84775 0
M  V30 1122 C 113.166 3.74414 -2.31306 0
M  V30 1123 H 110.285 0.540062 -0.5015 0
M  V30 1124 H 112.927 0.830547 -1.70886 0
M  V30 1125 H 111.077 3.28457 -2.07481 0
M  V30 1126 H 112.749 1.82356 -4.23726 0
M  V30 1127 H 110.992 1.65088 -4.01159 0
M  V30 1128 H 111.663 3.21362 -4.4881 0
M  V30 1129 H 114.139 3.27849 -2.56231 0
M  V30 1130 H 113.015 4.58414 -3.01907 0
M  V30 1131 H 113.276 4.21909 -1.32081 0
M  V30 1132 N 112.336 1.25143 0.95797 0
M  V30 1133 C 113.564 1.12424 1.73691 0
M  V30 1134 C 113.979 -0.322304 1.86029 0
M  V30 1135 O 113.336 -1.22186 1.35561 0
M  V30 1136 C 113.387 1.76933 3.15241 0
M  V30 1137 O 113.108 3.15932 3.03511 0
M  V30 1138 C 114.609 1.6995 4.09429 0
M  V30 1139 H 111.829 0.3923 0.544373 0
M  V30 1140 H 114.373 1.6544 1.20207 0
M  V30 1141 H 112.528 1.27895 3.6568 0
M  V30 1142 H 112.942 3.47598 3.9278 0
M  V30 1143 H 114.416 2.19753 5.06372 0
M  V30 1144 H 114.893 0.662619 4.34173 0
M  V30 1145 H 115.499 2.18461 3.64904 0
M  V30 1146 N 113.814 -1.1601 1.06675 0
M  V30 1147 C 114.724 -2.24156 0.692179 0
M  V30 1148 C 115.74 -1.71507 -0.293513 0
M  V30 1149 O 116.916 -2.009 -0.141861 0
M  V30 1150 C 113.981 -3.46587 0.0884131 0
M  V30 1151 C 113.042 -4.14257 1.12646 0
M  V30 1152 C 112.275 -5.30844 0.551416 0
M  V30 1153 O 112.498 -5.66858 -0.634656 0
M  V30 1154 O 111.432 -5.87848 1.29298 0
M  V30 1155 H 115.258 -2.58513 1.59388 0
M  V30 1156 H 112.843 -1.23599 0.83926 0
M  V30 1157 H 114.725 -4.20679 -0.246361 0
M  V30 1158 H 113.4 -3.13994 -0.786712 0
M  V30 1159 H 112.307 -3.42118 1.51348 0
M  V30 1160 H 113.64 -4.50914 1.97325 0
M  V30 1161 N 115.292 -0.849877 -1.32721 0
M  V30 1162 C 116.538 -0.460855 -1.9811 0
M  V30 1163 C 116.893 0.971716 -1.66059 0
M  V30 1164 O 116.186 1.67184 -0.935944 0
M  V30 1165 C 116.38 -0.631272 -3.51781 0
M  V30 1166 C 116.209 -2.07886 -3.98765 0
M  V30 1167 C 114.979 -2.71637 -4.26077 0
M  V30 1168 C 117.177 -3.04889 -4.14182 0
M  V30 1169 N 115.159 -4.07356 -4.59276 0
M  V30 1170 C 116.53 -4.25583 -4.50865 0
M  V30 1171 C 118.585 -3.01148 -3.96503 0
M  V30 1172 C 117.288 -5.43027 -4.71714 0
M  V30 1173 C 119.314 -4.17832 -4.18533 0
M  V30 1174 C 118.676 -5.37284 -4.55528 0
M  V30 1175 H 114.775 -0.217283 -0.751207 0
M  V30 1176 H 117.359 -1.10026 -1.60631 0
M  V30 1177 H 115.53 -0.0215966 -3.88394 0
M  V30 1178 H 117.262 -0.212614 -4.04141 0
M  V30 1179 H 114.017 -2.22705 -4.17971 0
M  V30 1180 H 114.441 -4.77351 -4.80068 0
M  V30 1181 H 119.083 -2.0992 -3.67006 0
M  V30 1182 H 116.801 -6.34791 -5.00066 0
M  V30 1183 H 120.387 -4.16368 -4.06361 0
M  V30 1184 H 119.267 -6.26071 -4.72234 0
M  V30 1185 N 116.77 1.45427 -0.607355 0
M  V30 1186 C 118.018 2.01841 -0.102253 0
M  V30 1187 C 118.339 1.47832 1.27164 0
M  V30 1188 O 117.609 0.672497 1.83995 0
M  V30 1189 H 116.189 0.746188 -0.0348101 0
M  V30 1190 H 118.851 1.78229 -0.7887 0
M  V30 1191 H 117.947 3.12057 -0.0518585 0
M  V30 1192 N 118.248 0.346503 1.53744 0
M  V30 1193 C 119.473 -0.253074 2.0585 0
M  V30 1194 C 119.898 -1.43202 1.21962 0
M  V30 1195 O 119.256 -1.79783 0.234073 0
M  V30 1196 C 119.304 -0.643193 3.54817 0
M  V30 1197 O 118.408 -1.74286 3.73762 0
M  V30 1198 H 117.749 -0.0413583 0.662711 0
M  V30 1199 H 120.279 0.501574 1.98357 0
M  V30 1200 H 120.289 -0.919526 3.97503 0
M  V30 1201 H 118.964 0.218966 4.15323 0
M  V30 1202 H 117.541 -1.46356 3.42979 0
M  V30 1203 N 119.726 -1.57421 0.075193 0
M  V30 1204 C 120.656 -2.15942 -0.888324 0
M  V30 1205 C 121.637 -1.08737 -1.30806 0
M  V30 1206 O 122.822 -1.36787 -1.37851 0
M  V30 1207 C 119.952 -2.72379 -2.1547 0
M  V30 1208 C 118.906 -3.8478 -1.87425 0
M  V30 1209 C 118.232 -4.27834 -3.20721 0
M  V30 1210 C 119.532 -5.08869 -1.17684 0
M  V30 1211 H 121.226 -2.96705 -0.400799 0
M  V30 1212 H 118.772 -1.42723 -0.191342 0
M  V30 1213 H 120.725 -3.11965 -2.83295 0
M  V30 1214 H 119.449 -1.88841 -2.6647 0
M  V30 1215 H 118.108 -3.45703 -1.22004 0
M  V30 1216 H 117.756 -3.41214 -3.6957 0
M  V30 1217 H 117.456 -5.03605 -3.02746 0
M  V30 1218 H 118.98 -4.70039 -3.89738 0
M  V30 1219 H 120.394 -5.4575 -1.75584 0
M  V30 1220 H 118.791 -5.8994 -1.09956 0
M  V30 1221 H 119.861 -4.84648 -0.156453 0
M  V30 1222 N 121.204 0.198386 -1.56346 0
M  V30 1223 C 122.452 0.91747 -1.80075 0
M  V30 1224 C 122.773 1.83929 -0.647692 0
M  V30 1225 O 122.043 1.93029 0.334166 0
M  V30 1226 H 120.623 0.341774 -0.664228 0
M  V30 1227 H 123.285 0.204684 -1.93822 0
M  V30 1228 H 122.381 1.51055 -2.7311 0
M  V30 1229 N 122.682 1.50554 0.465978 0
M  V30 1230 C 123.93 1.61479 1.21528 0
M  V30 1231 C 124.251 0.319596 1.92363 0
M  V30 1232 O 123.521 -0.663194 1.84333 0
M  V30 1233 H 122.101 0.595055 0.451573 0
M  V30 1234 H 124.763 1.87355 0.53704 0
M  V30 1235 H 123.859 2.42846 1.96042 0
M  V30 1236 N 124.16 -0.719506 1.40217 0
M  V30 1237 C 125.123 -1.8153 1.39927 0
M  V30 1238 C 126.123 -1.58095 0.293723 0
M  V30 1239 O 127.313 -1.65209 0.552429 0
M  V30 1240 C 124.445 -3.19561 1.18716 0
M  V30 1241 H 125.638 -1.83186 2.37451 0
M  V30 1242 H 123.191 -0.924746 1.26008 0
M  V30 1243 H 123.926 -3.23557 0.219366 0
M  V30 1244 H 123.711 -3.3797 1.98793 0
M  V30 1245 H 125.201 -3.99598 1.21291 0
M  V30 1246 N 125.638 -1.25649 -0.95132 0
M  V30 1247 C 126.866 -1.13343 -1.73092 0
M  V30 1248 C 127.281 0.312434 -1.86197 0
M  V30 1249 O 126.638 1.21465 -1.36207 0
M  V30 1250 C 126.689 -1.78602 -3.14299 0
M  V30 1251 O 126.41 -3.17537 -3.01831 0
M  V30 1252 C 127.911 -1.72119 -4.08522 0
M  V30 1253 H 125.131 -0.395181 -0.542285 0
M  V30 1254 H 127.675 -1.66076 -1.19328 0
M  V30 1255 H 125.83 -1.29832 -3.64996 0
M  V30 1256 H 126.244 -3.49676 -3.90931 0
M  V30 1257 H 127.718 -2.22435 -5.052 0
M  V30 1258 H 128.195 -0.685635 -4.33815 0
M  V30 1259 H 128.801 -2.20393 -3.63741 0
M  V30 1260 N 127.117 1.15442 -1.07289 0
M  V30 1261 C 128.363 1.86489 -0.796846 0
M  V30 1262 C 128.696 1.82078 0.675371 0
M  V30 1263 O 127.971 1.24346 1.4956 0
M  V30 1264 C 128.254 3.35626 -1.30489 0
M  V30 1265 C 128.107 3.48673 -2.84161 0
M  V30 1266 C 129.426 4.30357 -0.920907 0
M  V30 1267 H 126.545 0.677144 -0.290939 0
M  V30 1268 H 129.187 1.35633 -1.33056 0
M  V30 1269 H 127.337 3.79068 -0.850883 0
M  V30 1270 H 129.009 3.14099 -3.37846 0
M  V30 1271 H 127.252 2.90253 -3.22391 0
M  V30 1272 H 127.923 4.53453 -3.14777 0
M  V30 1273 H 130.399 3.94871 -1.3121 0
M  V30 1274 H 129.275 5.33193 -1.30372 0
M  V30 1275 H 129.536 4.4176 0.173226 0
M  V30 1276 N 128.595 0.856903 1.32268 0
M  V30 1277 C 130.006 0.515711 1.79436 0
M  V30 1278 C 130.357 -0.966586 1.70738 0
M  V30 1279 O 129.482 -1.75409 1.26731 0
M  V30 1280 C 130.077 0.929335 3.25805 0
M  V30 1281 C 128.636 0.640006 3.70919 0
M  V30 1282 C 127.783 1.12784 2.53328 0
M  V30 1283 H 130.734 1.04389 1.19535 0
M  V30 1284 H 130.755 0.246633 3.797 0
M  V30 1285 H 130.267 2.00821 3.32103 0
M  V30 1286 H 128.368 -0.428051 3.70133 0
M  V30 1287 H 128.481 1.20788 4.63624 0
M  V30 1288 H 126.845 0.548033 2.48734 0
M  V30 1289 H 127.628 2.21387 2.62379 0
M  V30 1290 N 130.073 -1.45103 0.615059 0
M  V30 1291 C 131.003 -2.33339 -0.0865619 0
M  V30 1292 C 131.984 -1.4727 -0.851209 0
M  V30 1293 O 133.169 -1.76026 -0.820281 0
M  V30 1294 C 130.299 -3.30095 -1.07956 0
M  V30 1295 C 129.253 -4.25858 -0.427628 0
M  V30 1296 C 128.579 -5.12361 -1.5294 0
M  V30 1297 C 129.879 -5.18165 0.655944 0
M  V30 1298 H 131.573 -2.92254 0.650224 0
M  V30 1299 H 129.119 -1.40532 0.314138 0
M  V30 1300 H 131.072 -3.90698 -1.57901 0
M  V30 1301 H 129.796 -2.69355 -1.84703 0
M  V30 1302 H 128.455 -3.66564 0.0510292 0
M  V30 1303 H 128.103 -4.47984 -2.28734 0
M  V30 1304 H 127.803 -5.77238 -1.09865 0
M  V30 1305 H 129.327 -5.75833 -2.03098 0
M  V30 1306 H 130.741 -5.72796 0.240257 0
M  V30 1307 H 129.138 -5.91559 1.00888 0
M  V30 1308 H 130.208 -4.60144 1.52957 0
M  V30 1309 N 131.551 -0.354651 -1.53558 0
M  V30 1310 C 132.461 0.50515 -2.29097 0
M  V30 1311 C 133.477 1.10223 -1.34636 0
M  V30 1312 O 134.653 1.11553 -1.67684 0
M  V30 1313 C 131.718 1.63479 -3.05738 0
M  V30 1314 C 130.779 1.06636 -4.15845 0
M  V30 1315 C 130.012 2.14217 -4.88822 0
M  V30 1316 O 130.235 3.35137 -4.61562 0
M  V30 1317 O 129.169 1.77887 -5.75013 0
M  V30 1318 H 132.995 -0.109237 -3.03503 0
M  V30 1319 H 130.58 -0.119357 -1.48922 0
M  V30 1320 H 132.462 2.2918 -3.5363 0
M  V30 1321 H 131.137 2.23478 -2.34178 0
M  V30 1322 H 130.044 0.373565 -3.7223 0
M  V30 1323 H 131.377 0.511081 -4.89539 0
M  V30 1324 N 133.029 1.57378 -0.0835403 0
M  V30 1325 C 134.275 1.94217 0.583733 0
M  V30 1326 C 134.608 0.964653 1.68547 0
M  V30 1327 O 133.883 -0.00422258 1.945 0
M  V30 1328 C 134.166 3.41253 1.14972 0
M  V30 1329 C 134.019 4.49768 0.0538277 0
M  V30 1330 C 135.338 3.89352 2.05166 0
M  V30 1331 H 132.457 0.706233 0.210724 0
M  V30 1332 H 135.099 1.89392 -0.1519 0
M  V30 1333 H 133.249 3.45496 1.77665 0
M  V30 1334 H 134.921 4.57641 -0.579851 0
M  V30 1335 H 133.164 4.29432 -0.614068 0
M  V30 1336 H 133.835 5.49817 0.490452 0
M  V30 1337 H 136.311 3.87189 1.52393 0
M  V30 1338 H 135.187 4.92822 2.41698 0
M  V30 1339 H 135.448 3.27973 2.96456 0
M  V30 1340 N 134.507 -0.190092 1.56449 0
M  V30 1341 C 135.753 -0.911052 1.81184 0
M  V30 1342 C 136.086 -1.82699 0.658396 0
M  V30 1343 O 135.361 -1.91491 -0.340775 0
M  V30 1344 C 135.644 -1.72297 3.16205 0
M  V30 1345 C 135.497 -0.831419 4.42049 0
M  V30 1346 C 136.816 -2.69454 3.47969 0
M  V30 1347 H 133.935 -0.32977 0.659106 0
M  V30 1348 H 136.577 -0.178169 1.89163 0
M  V30 1349 H 134.727 -2.34778 3.09534 0
M  V30 1350 H 136.399 -0.220929 4.60771 0
M  V30 1351 H 134.642 -0.138406 4.33579 0
M  V30 1352 H 135.313 -1.43461 5.33032 0
M  V30 1353 H 137.789 -2.17104 3.54972 0
M  V30 1354 H 136.665 -3.23342 4.43555 0
M  V30 1355 H 136.926 -3.48744 2.71717 0
M  V30 1356 N 135.985 -1.50799 -0.457987 0
M  V30 1357 C 136.915 -1.73553 -1.5621 0
M  V30 1358 C 137.896 -0.584774 -1.59732 0
M  V30 1359 O 139.081 -0.825314 -1.7579 0
M  V30 1360 C 136.211 -1.84169 -2.94447 0
M  V30 1361 C 135.165 -2.99461 -3.0579 0
M  V30 1362 C 134.491 -2.95235 -4.45803 0
M  V30 1363 C 135.791 -4.39766 -2.81786 0
M  V30 1364 H 137.485 -2.66 -1.37421 0
M  V30 1365 H 135.031 -1.28002 -0.659662 0
M  V30 1366 H 136.984 -1.98672 -3.71628 0
M  V30 1367 H 135.708 -0.883545 -3.14422 0
M  V30 1368 H 134.367 -2.8463 -2.31044 0
M  V30 1369 H 134.015 -1.97239 -4.62715 0
M  V30 1370 H 133.715 -3.72642 -4.54326 0
M  V30 1371 H 135.239 -3.11803 -5.24987 0
M  V30 1372 H 136.653 -4.55054 -3.4871 0
M  V30 1373 H 135.05 -5.18722 -3.0174 0
M  V30 1374 H 136.12 -4.51229 -1.7754 0
M  V30 1375 N 137.463 0.71206 -1.40597 0
M  V30 1376 C 138.393 1.83889 -1.43899 0
M  V30 1377 C 139.374 1.67442 -0.299504 0
M  V30 1378 O 140.559 1.87421 -0.508624 0
M  V30 1379 C 137.689 3.21877 -1.30431 0
M  V30 1380 C 136.643 3.53002 -2.42019 0
M  V30 1381 C 135.969 4.90172 -2.13626 0
M  V30 1382 C 137.269 3.53643 -3.84362 0
M  V30 1383 H 138.963 1.81383 -2.38203 0
M  V30 1384 H 136.509 0.871237 -1.14654 0
M  V30 1385 H 138.462 4.00404 -1.31357 0
M  V30 1386 H 137.186 3.24968 -0.326049 0
M  V30 1387 H 135.845 2.76818 -2.40349 0
M  V30 1388 H 135.493 4.89869 -1.14182 0
M  V30 1389 H 135.193 5.11962 -2.88389 0
M  V30 1390 H 136.717 5.71028 -2.1624 0
M  V30 1391 H 138.131 4.22203 -3.87837 0
M  V30 1392 H 136.528 3.86961 -4.58673 0
M  V30 1393 H 137.598 2.52954 -4.13693 0
M  V30 1394 N 138.941 1.26152 0.944643 0
M  V30 1395 C 140.357 1.03189 1.21754 0
M  V30 1396 C 140.557 -0.245112 2.00004 0
M  V30 1397 O 139.613 -0.955176 2.33736 0
M  V30 1398 C 140.926 2.26119 1.98219 0
M  V30 1399 C 142.474 2.30984 2.11224 0
M  V30 1400 C 142.949 3.53597 2.91089 0
M  V30 1401 N 144.44 3.54053 2.98664 0
M  V30 1402 C 145.175 4.45593 3.60881 0
M  V30 1403 N 144.671 5.47416 4.24626 0
M  V30 1404 N 146.464 4.33252 3.58119 0
M  V30 1405 H 138.615 2.08177 0.421437 0
M  V30 1406 H 140.878 0.914723 0.248969 0
M  V30 1407 H 140.584 3.18984 1.48128 0
M  V30 1408 H 140.458 2.3009 2.98895 0
M  V30 1409 H 142.845 1.38635 2.60508 0
M  V30 1410 H 142.926 2.31026 1.09821 0
M  V30 1411 H 142.57 4.46273 2.42493 0
M  V30 1412 H 142.5 3.50802 3.92741 0
M  V30 1413 H 144.991 2.80403 2.53343 0
M  V30 1414 H 145.304 6.13459 4.69987 0
M  V30 1415 H 143.649 5.51278 4.23223 0
M  V30 1416 H 146.84 3.52924 3.0751 0
M  V30 1417 H 147.013 5.04786 4.06319 0
M  V30 1418 N 140.419 -1.14872 1.07899 0
M  V30 1419 C 141.366 -2.19791 0.704319 0
M  V30 1420 C 142.336 -1.63238 -0.306987 0
M  V30 1421 O 143.521 -1.8983 -0.192171 0
M  V30 1422 C 140.661 -3.44911 0.114244 0
M  V30 1423 C 139.774 -4.15637 1.1777 0
M  V30 1424 C 138.909 -5.28324 0.552037 0
M  V30 1425 C 137.948 -5.90875 1.59789 0
M  V30 1426 N 137.085 -6.95022 0.994404 0
M  V30 1427 H 141.925 -2.5119 1.60336 0
M  V30 1428 H 139.462 -1.23356 0.801352 0
M  V30 1429 H 141.42 -4.16477 -0.245544 0
M  V30 1430 H 140.05 -3.14011 -0.74813 0
M  V30 1431 H 139.102 -3.42512 1.65499 0
M  V30 1432 H 140.414 -4.5823 1.97046 0
M  V30 1433 H 139.568 -6.06538 0.1402 0
M  V30 1434 H 138.307 -4.86939 -0.272431 0
M  V30 1435 H 137.312 -5.11369 2.01945 0
M  V30 1436 H 138.537 -6.34337 2.42474 0
M  V30 1437 H 136.483 -6.55722 0.190939 0
M  V30 1438 H 136.4 -7.36073 1.72432 0
M  V30 1439 H 137.668 -7.77123 0.608253 0
M  V30 1440 N 141.898 -0.863906 -1.31812 0
M  V30 1441 C 143.144 -0.472535 -1.97218 0
M  V30 1442 C 143.477 0.971394 -1.68159 0
M  V30 1443 O 142.752 1.68309 -0.974798 0
M  V30 1444 C 143.035 -0.723054 -3.52766 0
M  V30 1445 C 142.888 -2.21608 -3.91421 0
M  V30 1446 C 144.207 -0.185522 -4.39709 0
M  V30 1447 H 141.326 -0.173158 -0.71637 0
M  V30 1448 H 143.968 -1.08403 -1.56041 0
M  V30 1449 H 142.118 -0.202577 -3.87971 0
M  V30 1450 H 143.79 -2.80334 -3.66347 0
M  V30 1451 H 142.033 -2.691 -3.40246 0
M  V30 1452 H 142.704 -2.34203 -4.99853 0
M  V30 1453 H 145.18 -0.630726 -4.11292 0
M  V30 1454 H 144.056 -0.390306 -5.47511 0
M  V30 1455 H 144.317 0.912229 -4.32586 0
M  V30 1456 N 143.376 1.44774 -0.622745 0
M  V30 1457 C 144.624 2.01721 -0.123655 0
M  V30 1458 C 144.945 1.49172 1.25589 0
M  V30 1459 O 144.215 0.691974 1.83272 0
M  V30 1460 H 142.795 0.745777 -0.0427225 0
M  V30 1461 H 145.457 1.77382 -0.807559 0
M  V30 1462 H 144.553 3.11984 -0.0849534 0
M  V30 1463 N 144.854 0.36279 1.53368 0
M  V30 1464 C 145.817 -0.472679 2.24273 0
M  V30 1465 C 146.817 -1.012 1.24961 0
M  V30 1466 O 148.007 -0.898194 1.49259 0
M  V30 1467 C 145.139 -1.66039 2.97731 0
M  V30 1468 H 146.332 0.14773 2.99536 0
M  V30 1469 H 143.885 0.114434 1.55881 0
M  V30 1470 H 144.62 -2.31896 2.26704 0
M  V30 1471 H 144.405 -1.28066 3.70596 0
M  V30 1472 H 145.895 -2.25252 3.51641 0
M  V30 1473 N 146.332 -1.57332 0.0918853 0
M  V30 1474 C 147.295 -2.12708 -0.85369 0
M  V30 1475 C 148.295 -1.05561 -1.213 0
M  V30 1476 O 149.485 -1.31461 -1.14296 0
M  V30 1477 C 146.617 -2.64503 -2.15061 0
M  V30 1478 H 147.81 -2.97573 -0.3729 0
M  V30 1479 H 145.363 -1.55509 -0.157072 0
M  V30 1480 H 146.098 -1.83149 -2.67632 0
M  V30 1481 H 145.883 -3.4284 -1.90272 0
M  V30 1482 H 147.373 -3.07351 -2.82711 0
M  V30 1483 N 147.81 0.181792 -1.56548 0
M  V30 1484 C 149.058 0.89832 -1.81038 0
M  V30 1485 C 149.379 1.83232 -0.667164 0
M  V30 1486 O 148.649 1.93372 0.313673 0
M  V30 1487 H 147.229 0.33471 -0.667816 0
M  V30 1488 H 149.891 0.184116 -1.94028 0
M  V30 1489 H 148.987 1.4815 -2.74696 0
M  V30 1490 N 149.288 1.51039 0.449983 0
M  V30 1491 C 150.536 1.62759 1.19808 0
M  V30 1492 C 150.857 0.339981 1.92013 0
M  V30 1493 O 150.127 -0.643606 1.85026 0
M  V30 1494 H 148.707 0.599811 0.445237 0
M  V30 1495 H 151.369 1.87914 0.517138 0
M  V30 1496 H 150.465 2.44911 1.93455 0
M  V30 1497 N 150.766 -0.704594 1.40972 0
M  V30 1498 C 151.729 -1.80035 1.41845 0
M  V30 1499 C 152.729 -1.57774 0.310474 0
M  V30 1500 O 153.919 -1.64613 0.56992 0
M  V30 1501 C 151.051 -3.18284 1.22098 0
M  V30 1502 H 152.244 -1.80658 2.3938 0
M  V30 1503 H 149.797 -0.911329 1.26982 0
M  V30 1504 H 150.532 -3.23306 0.253672 0
M  V30 1505 H 150.317 -3.35843 2.02366 0
M  V30 1506 H 151.807 -3.98289 1.25522 0
M  V30 1507 N 152.244 -1.26651 -0.937939 0
M  V30 1508 C 153.66 -1.03834 -1.21205 0
M  V30 1509 C 153.86 0.234502 -2.00131 0
M  V30 1510 O 152.916 0.942767 -2.3424 0
M  V30 1511 C 154.229 -2.27167 -1.97017 0
M  V30 1512 C 155.777 -2.32101 -2.09996 0
M  V30 1513 C 156.252 -3.55136 -2.8921 0
M  V30 1514 N 157.743 -3.55632 -2.96783 0
M  V30 1515 C 158.478 -4.475 -3.58512 0
M  V30 1516 N 157.974 -5.4966 -4.21717 0
M  V30 1517 N 159.767 -4.35145 -3.55816 0
M  V30 1518 H 151.918 -2.08398 -0.410391 0
M  V30 1519 H 154.181 -0.916031 -0.244114 0
M  V30 1520 H 153.887 -3.19765 -1.46434 0
M  V30 1521 H 153.761 -2.31672 -2.97671 0
M  V30 1522 H 156.148 -1.40015 -2.59769 0
M  V30 1523 H 156.229 -2.31605 -1.08594 0
M  V30 1524 H 155.873 -4.47553 -2.40123 0
M  V30 1525 H 155.803 -3.5288 -3.90875 0
M  V30 1526 H 158.294 -2.81743 -2.51852 0
M  V30 1527 H 158.607 -6.15943 -4.66727 0
M  V30 1528 H 156.952 -5.53514 -4.20294 0
M  V30 1529 H 160.143 -3.5455 -3.05634 0
M  V30 1530 H 160.316 -5.06934 -4.03636 0
M  V30 1531 N 153.722 1.14298 -1.08507 0
M  V30 1532 C 154.97 1.84993 -0.813763 0
M  V30 1533 C 155.291 1.83405 0.662393 0
M  V30 1534 O 154.561 1.28319 1.48024 0
M  V30 1535 H 153.141 0.684966 -0.298045 0
M  V30 1536 H 155.803 1.385 -1.37126 0
M  V30 1537 H 154.899 2.89788 -1.15884 0
M  V30 1538 N 155.201 0.870884 1.31352 0
M  V30 1539 C 156.447 0.482987 1.96965 0
M  V30 1540 C 156.78 -0.962462 1.68672 0
M  V30 1541 O 156.055 -1.6779 0.98371 0
M  V30 1542 C 156.338 0.741752 3.52378 0
M  V30 1543 C 156.191 2.2368 3.9024 0
M  V30 1544 C 157.51 0.208838 4.39604 0
M  V30 1545 H 154.629 0.176955 0.715441 0
M  V30 1546 H 157.271 1.09229 1.55464 0
M  V30 1547 H 155.421 0.223149 3.87859 0
M  V30 1548 H 157.093 2.82273 3.64856 0
M  V30 1549 H 155.336 2.70901 3.38814 0
M  V30 1550 H 156.007 2.3685 4.98604 0
M  V30 1551 H 158.483 0.652529 4.10952 0
M  V30 1552 H 157.359 0.419336 5.47296 0
M  V30 1553 H 157.62 -0.889275 4.33064 0
M  V30 1554 N 156.679 -1.44442 0.630414 0
M  V30 1555 C 157.928 -2.01267 0.132073 0
M  V30 1556 C 158.241 -1.50172 -1.25331 0
M  V30 1557 O 159.447 -1.9912 -1.84562 0
M  V30 1558 C 157.903 -3.59422 0.185362 0
M  V30 1559 C 157.511 -4.19514 1.57201 0
M  V30 1560 C 159.255 -4.23724 -0.256553 0
M  V30 1561 C 157.162 -5.69891 1.58045 0
M  V30 1562 H 156.092 -0.752619 0.0456092 0
M  V30 1563 H 158.743 -1.65666 0.789106 0
M  V30 1564 H 157.125 -3.92318 -0.538759 0
M  V30 1565 H 158.299 -3.98156 2.31966 0
M  V30 1566 H 156.614 -3.67496 1.95795 0
M  V30 1567 H 159.211 -5.34019 -0.269767 0
M  V30 1568 H 159.554 -3.96013 -1.28372 0
M  V30 1569 H 160.087 -3.95629 0.41505 0
M  V30 1570 H 156.826 -6.02336 2.58597 0
M  V30 1571 H 156.346 -5.93373 0.875725 0
M  V30 1572 H 158.025 -6.33515 1.31408 0
M  V30 1573 N 158.157 -0.370918 -1.53173 0
M  V30 1574 C 159.573 -0.0200818 -1.59587 0
M  V30 1575 C 159.773 1.46279 -1.38581 0
M  V30 1576 O 158.829 2.22506 -1.19363 0
M  V30 1577 C 160.142 -0.4808 -2.96831 0
M  V30 1578 C 161.69 -0.435477 -3.09956 0
M  V30 1579 C 162.165 -0.872092 -4.4962 0
M  V30 1580 N 163.656 -0.827364 -4.55751 0
M  V30 1581 C 164.391 -1.13683 -5.62018 0
M  V30 1582 N 163.887 -1.51584 -6.76014 0
M  V30 1583 N 165.68 -1.05927 -5.52029 0
M  V30 1584 H 157.831 -1.33652 -1.65079 0
M  V30 1585 H 160.094 -0.546634 -0.774529 0
M  V30 1586 H 159.8 -1.51577 -3.1736 0
M  V30 1587 H 159.674 0.129796 -3.76977 0
M  V30 1588 H 162.061 0.590371 -2.89134 0
M  V30 1589 H 162.142 -1.08164 -2.31806 0
M  V30 1590 H 161.786 -1.89608 -4.71181 0
M  V30 1591 H 161.716 -0.203127 -5.26208 0
M  V30 1592 H 164.207 -0.548216 -3.73902 0
M  V30 1593 H 164.52 -1.73609 -7.53047 0
M  V30 1594 H 162.865 -1.55454 -6.77391 0
M  V30 1595 H 166.056 -0.762321 -4.61851 0
M  V30 1596 H 166.229 -1.30378 -6.34749 0
M  V30 1597 N 159.635 1.57281 -0.100228 0
M  V30 1598 C 160.565 2.17328 0.853857 0
M  V30 1599 C 161.546 1.10804 1.2906 0
M  V30 1600 O 162.731 1.38963 1.35657 0
M  V30 1601 C 159.861 2.75772 2.11109 0
M  V30 1602 C 158.815 3.87713 1.81279 0
M  V30 1603 C 158.141 4.32882 3.13874 0
M  V30 1604 C 159.441 5.10677 1.09574 0
M  V30 1605 H 161.135 2.97305 0.353545 0
M  V30 1606 H 158.681 1.43009 0.168612 0
M  V30 1607 H 160.634 3.16433 2.78296 0
M  V30 1608 H 159.358 1.93057 2.63432 0
M  V30 1609 H 158.017 3.476 1.16489 0
M  V30 1610 H 157.665 3.47051 3.64095 0
M  V30 1611 H 157.365 5.08358 2.94696 0
M  V30 1612 H 158.889 4.7618 3.82211 0
M  V30 1613 H 160.303 5.48474 1.66879 0
M  V30 1614 H 158.7 5.91615 1.00557 0
M  V30 1615 H 159.77 4.84835 0.0793299 0
M  V30 1616 N 161.113 -0.173488 1.56642 0
M  V30 1617 C 162.043 -1.2171 1.99271 0
M  V30 1618 C 163.024 -1.46289 0.867959 0
M  V30 1619 O 164.209 -1.5766 1.13388 0
M  V30 1620 C 161.339 -2.55651 2.35074 0
M  V30 1621 C 160.293 -2.45645 3.50489 0
M  V30 1622 C 159.619 -3.84056 3.72028 0
M  V30 1623 C 160.919 -1.96302 4.84007 0
M  V30 1624 H 162.613 -0.86275 2.867 0
M  V30 1625 H 160.159 -0.413571 1.37933 0
M  V30 1626 H 162.112 -3.2886 2.63494 0
M  V30 1627 H 160.836 -2.92869 1.44552 0
M  V30 1628 H 159.495 -1.7489 3.22194 0
M  V30 1629 H 159.143 -4.18664 2.788 0
M  V30 1630 H 158.843 -3.7823 4.49684 0
M  V30 1631 H 160.367 -4.58854 4.02846 0
M  V30 1632 H 161.781 -2.59284 5.11317 0
M  V30 1633 H 160.178 -2.01429 5.65284 0
M  V30 1634 H 161.248 -0.917226 4.76146 0
M  V30 1635 N 162.591 -1.51276 -0.441967 0
M  V30 1636 C 163.868 -1.54252 -1.20273 0
M  V30 1637 C 164.248 -0.30408 -2.08898 0
M  V30 1638 O 163.596 0.711084 -2.17154 0
M  V30 1639 C 163.806 -2.85406 -2.00859 0
M  V30 1640 C 165.154 -3.37181 -2.58059 0
M  V30 1641 O 166.178 -2.86925 -2.11074 0
M  V30 1642 O 165.037 -4.24858 -3.43741 0
M  V30 1643 H 162.131 -0.619969 -0.547328 0
M  V30 1644 H 164.677 -1.63586 -0.451413 0
M  V30 1645 H 163.449 -3.67003 -1.35736 0
M  V30 1646 H 163.072 -2.79213 -2.83065 0
M  V30 1647 N 164.069 0.697108 -1.41344 0
M  V30 1648 C 165.315 1.45796 -1.41828 0
M  V30 1649 C 165.67 1.92382 -0.0261743 0
M  V30 1650 O 164.963 1.66522 0.947688 0
M  V30 1651 C 165.157 2.68553 -2.35826 0
M  V30 1652 C 164.986 2.33975 -3.84039 0
M  V30 1653 C 163.756 2.24414 -4.52732 0
M  V30 1654 C 165.954 1.97048 -4.75054 0
M  V30 1655 N 163.936 1.82705 -5.86082 0
M  V30 1656 C 165.307 1.66086 -5.9734 0
M  V30 1657 C 167.362 1.83845 -4.62715 0
M  V30 1658 C 166.065 1.23246 -7.08663 0
M  V30 1659 C 168.091 1.4241 -5.73998 0
M  V30 1660 C 167.453 1.12357 -6.95381 0
M  V30 1661 H 163.552 0.530859 -0.574206 0
M  V30 1662 H 166.136 0.806674 -1.77203 0
M  V30 1663 H 164.307 3.31404 -2.02549 0
M  V30 1664 H 166.039 3.35015 -2.2704 0
M  V30 1665 H 162.794 2.4276 -4.0665 0
M  V30 1666 H 163.218 1.64337 -6.56751 0
M  V30 1667 H 167.86 2.05734 -3.69369 0
M  V30 1668 H 165.578 1.00102 -8.01876 0
M  V30 1669 H 169.164 1.32746 -5.66454 0
M  V30 1670 H 168.044 0.807795 -7.80028 0
M  V30 1671 N 165.547 1.27147 0.931209 0
M  V30 1672 C 166.794 1.13278 1.67852 0
M  V30 1673 C 167.122 -0.32204 1.91815 0
M  V30 1674 O 166.377 -1.25224 1.50391 0
M  V30 1675 C 166.676 1.8579 3.05314 0
M  V30 1676 C 166.342 3.35657 3.01073 0
M  V30 1677 C 165.004 3.76536 2.99623 0
M  V30 1678 C 167.356 4.31299 2.92627 0
M  V30 1679 C 164.684 5.11426 2.87506 0
M  V30 1680 C 167.036 5.66242 2.82051 0
M  V30 1681 C 165.7 6.06418 2.7895 0
M  V30 1682 H 164.97 0.414515 0.614214 0
M  V30 1683 H 167.617 1.57712 1.08624 0
M  V30 1684 H 165.922 1.33854 3.68226 0
M  V30 1685 H 167.619 1.72491 3.62005 0
M  V30 1686 H 164.209 3.03146 3.02986 0
M  V30 1687 H 168.393 4.00692 2.92848 0
M  V30 1688 H 163.649 5.41705 2.83489 0
M  V30 1689 H 167.823 6.40026 2.74481 0
M  V30 1690 H 165.45 7.10895 2.69318 0
M  V30 1691 N 167.025 -1.13721 1.09112 0
M  V30 1692 C 167.935 -2.22638 0.73957 0
M  V30 1693 C 168.951 -1.72091 -0.257068 0
M  V30 1694 O 170.127 -2.01155 -0.0992154 0
M  V30 1695 C 167.192 -3.46322 0.16191 0
M  V30 1696 C 166.253 -4.11775 1.21408 0
M  V30 1697 C 165.486 -5.29555 0.663891 0
M  V30 1698 O 165.709 -5.68077 -0.514274 0
M  V30 1699 O 164.643 -5.84973 1.41738 0
M  V30 1700 H 168.469 -2.55074 1.64836 0
M  V30 1701 H 166.054 -1.21791 0.865289 0
M  V30 1702 H 167.936 -4.21107 -0.157073 0
M  V30 1703 H 166.611 -3.15593 -0.719932 0
M  V30 1704 H 165.518 -3.3883 1.58571 0
M  V30 1705 H 166.851 -4.46627 2.06845 0
M  V30 1706 N 168.503 -0.877838 -1.30888 0
M  V30 1707 C 169.919 -0.570844 -1.49042 0
M  V30 1708 C 170.119 0.893159 -1.80624 0
M  V30 1709 O 169.175 1.67485 -1.88958 0
M  V30 1710 C 170.488 -1.47784 -2.61878 0
M  V30 1711 C 172.036 -1.48071 -2.75761 0
M  V30 1712 C 172.511 -2.37347 -3.91702 0
M  V30 1713 N 174.002 -2.35271 -3.99001 0
M  V30 1714 C 174.737 -3.01063 -4.88004 0
M  V30 1715 N 174.233 -3.76055 -5.81854 0
M  V30 1716 N 176.026 -2.90332 -4.81315 0
M  V30 1717 H 168.177 -1.82502 -1.0866 0
M  V30 1718 H 170.44 -0.780797 -0.537644 0
M  V30 1719 H 170.146 -2.51993 -2.45341 0
M  V30 1720 H 170.02 -1.18215 -3.58197 0
M  V30 1721 H 172.407 -0.446166 -2.91708 0
M  V30 1722 H 172.488 -1.81668 -1.80085 0
M  V30 1723 H 172.132 -3.40883 -3.76512 0
M  V30 1724 H 172.062 -2.01071 -4.86701 0
M  V30 1725 H 174.553 -1.80768 -3.3186 0
M  V30 1726 H 174.866 -4.23366 -6.46514 0
M  V30 1727 H 173.211 -3.80163 -5.81808 0
M  V30 1728 H 176.402 -2.31278 -4.06974 0
M  V30 1729 H 176.575 -3.41885 -5.50471 0
M  V30 1730 N 169.982 1.44106 -0.638065 0
M  V30 1731 C 171.393 1.85316 -0.226894 0
M  V30 1732 C 171.744 1.53399 1.22324 0
M  V30 1733 O 170.869 0.975463 1.93167 0
M  V30 1734 C 171.464 3.3637 -0.405013 0
M  V30 1735 C 170.023 3.76369 -0.0482902 0
M  V30 1736 C 169.17 2.67921 -0.715108 0
M  V30 1737 H 172.121 1.34474 -0.842764 0
M  V30 1738 H 172.142 3.7885 0.354 0
M  V30 1739 H 171.654 3.59569 -1.46053 0
M  V30 1740 H 169.755 3.58784 1.00522 0
M  V30 1741 H 169.868 4.76856 -0.463187 0
M  V30 1742 H 168.232 2.54259 -0.149753 0
M  V30 1743 H 169.015 2.93951 -1.77335 0
M  V30 1744 N 171.46 0.379036 1.52974 0
M  V30 1745 C 172.737 -0.263479 1.93817 0
M  V30 1746 C 173.117 -1.65244 1.31368 0
M  V30 1747 O 172.465 -2.23448 0.477856 0
M  V30 1748 C 172.675 -0.300166 3.47707 0
M  V30 1749 C 174.023 -0.534061 4.21228 0
M  V30 1750 O 175.047 -0.38081 3.54159 0
M  V30 1751 O 173.906 -0.833501 5.40106 0
M  V30 1752 H 171 -0.161149 0.811147 0
M  V30 1753 H 173.546 0.432798 1.64088 0
M  V30 1754 H 172.318 0.673138 3.85467 0
M  V30 1755 H 171.941 -1.04179 3.83709 0
M  V30 1756 N 172.938 -1.57226 0.108567 0
M  V30 1757 C 174.186 -1.94448 -0.550853 0
M  V30 1758 C 174.507 -0.992074 -1.67878 0
M  V30 1759 O 173.777 -0.0465 -1.95845 0
M  V30 1760 H 172.357 -0.717897 -0.206479 0
M  V30 1761 H 175.019 -1.94112 0.175062 0
M  V30 1762 H 174.115 -2.97218 -0.952259 0
M  V30 1763 N 174.416 0.165178 -1.56732 0
M  V30 1764 C 175.663 0.880807 -1.8234 0
M  V30 1765 C 175.991 1.81977 -0.686621 0
M  V30 1766 O 175.246 1.92971 0.325697 0
M  V30 1767 C 175.545 1.70405 -3.1416 0
M  V30 1768 C 175.211 0.913475 -4.4155 0
M  V30 1769 C 173.873 0.695303 -4.7615 0
M  V30 1770 C 176.225 0.359349 -5.1996 0
M  V30 1771 C 173.553 -0.0879947 -5.86634 0
M  V30 1772 C 175.905 -0.410893 -6.31264 0
M  V30 1773 C 174.569 -0.639808 -6.64427 0
M  V30 1774 H 173.839 0.32231 -0.667231 0
M  V30 1775 H 176.486 0.145402 -1.90947 0
M  V30 1776 H 174.791 2.50903 -3.00923 0
M  V30 1777 H 176.488 2.26091 -3.31186 0
M  V30 1778 H 173.078 1.09357 -4.14414 0
M  V30 1779 H 177.262 0.515228 -4.93618 0
M  V30 1780 H 172.518 -0.27503 -6.10781 0
M  V30 1781 H 176.692 -0.847494 -6.91224 0
M  V30 1782 H 174.319 -1.24864 -7.49875 0
M  V30 1783 N 175.894 1.51508 0.433938 0
M  V30 1784 C 176.824 1.76016 1.53429 0
M  V30 1785 C 177.805 0.610112 1.58782 0
M  V30 1786 O 178.99 0.853177 1.74455 0
M  V30 1787 C 176.12 1.88831 2.9148 0
M  V30 1788 C 175.074 3.04288 3.00987 0
M  V30 1789 C 174.4 3.0229 4.4105 0
M  V30 1790 C 175.7 4.44193 2.74754 0
M  V30 1791 H 177.394 2.68152 1.33171 0
M  V30 1792 H 174.94 1.29035 0.639214 0
M  V30 1793 H 176.893 2.04559 3.6842 0
M  V30 1794 H 175.617 0.933455 3.12976 0
M  V30 1795 H 174.276 2.8827 2.26486 0
M  V30 1796 H 173.924 2.04576 4.59519 0
M  V30 1797 H 173.624 3.79822 4.4834 0
M  V30 1798 H 175.148 3.20116 5.1996 0
M  V30 1799 H 176.562 4.60544 3.41426 0
M  V30 1800 H 174.959 5.23457 2.9345 0
M  V30 1801 H 176.029 4.53996 1.70339 0
M  V30 1802 N 177.372 -0.689602 1.41712 0
M  V30 1803 C 178.302 -1.81577 1.46806 0
M  V30 1804 C 179.283 -1.66945 0.326105 0
M  V30 1805 O 180.468 -1.86588 0.538377 0
M  V30 1806 C 177.598 -3.19762 1.35535 0
M  V30 1807 C 176.552 -3.49107 2.47605 0
M  V30 1808 C 175.878 -4.86711 2.21397 0
M  V30 1809 C 177.178 -3.47483 3.89939 0
M  V30 1810 H 178.872 -1.7757 2.41058 0
M  V30 1811 H 176.418 -0.852887 1.16025 0
M  V30 1812 H 178.371 -3.98263 1.3771 0
M  V30 1813 H 177.095 -3.24409 0.377708 0
M  V30 1814 H 175.754 -2.72959 2.44722 0
M  V30 1815 H 175.402 -4.8799 1.21961 0
M  V30 1816 H 175.102 -5.0731 2.96497 0
M  V30 1817 H 176.626 -5.67515 2.25297 0
M  V30 1818 H 178.04 -4.1598 3.94505 0
M  V30 1819 H 176.437 -3.79615 4.64771 0
M  V30 1820 H 177.507 -2.46341 4.17665 0
M  V30 1821 N 178.85 -1.27639 -0.924453 0
M  V30 1822 C 180.096 -1.14336 -1.67497 0
M  V30 1823 C 180.429 0.309465 -1.91718 0
M  V30 1824 O 179.704 1.22608 -1.50989 0
M  V30 1825 C 179.987 -1.93096 -3.0395 0
M  V30 1826 C 179.84 -3.46381 -2.8695 0
M  V30 1827 C 181.159 -1.73798 -4.0433 0
M  V30 1828 H 178.278 -0.416728 -0.607871 0
M  V30 1829 H 180.92 -1.56832 -1.07256 0
M  V30 1830 H 179.07 -1.56982 -3.55372 0
M  V30 1831 H 180.742 -3.92343 -2.42621 0
M  V30 1832 H 178.985 -3.72557 -2.22225 0
M  V30 1833 H 179.656 -3.96735 -3.83804 0
M  V30 1834 H 182.132 -2.05293 -3.61931 0
M  V30 1835 H 181.008 -2.31294 -4.97789 0
M  V30 1836 H 181.269 -0.686725 -4.36734 0
M  V30 1837 N 180.328 1.1314 -1.09713 0
M  V30 1838 C 181.258 2.20748 -0.761102 0
M  V30 1839 C 182.239 1.68061 0.262566 0
M  V30 1840 O 183.424 1.93765 0.129977 0
M  V30 1841 C 180.554 3.46812 -0.184054 0
M  V30 1842 C 179.508 4.12606 -1.13757 0
M  V30 1843 C 178.834 5.33031 -0.422083 0
M  V30 1844 C 180.134 4.59603 -2.48118 0
M  V30 1845 H 181.828 2.49113 -1.66082 0
M  V30 1846 H 179.374 1.19734 -0.799987 0
M  V30 1847 H 181.327 4.21353 0.0631215 0
M  V30 1848 H 180.051 3.17851 0.750868 0
M  V30 1849 H 178.71 3.40036 -1.37007 0
M  V30 1850 H 178.358 5.00335 0.517072 0
M  V30 1851 H 178.058 5.77999 -1.05788 0
M  V30 1852 H 179.582 6.10325 -0.183277 0
M  V30 1853 H 180.996 5.25552 -2.29059 0
M  V30 1854 H 179.393 5.15321 -3.07514 0
M  V30 1855 H 180.463 3.73971 -3.08665 0
M  V30 1856 N 181.806 0.884767 1.30421 0
M  V30 1857 C 182.716 0.355398 2.31892 0
M  V30 1858 C 183.732 -0.542261 1.65335 0
M  V30 1859 O 184.908 -0.435432 1.96637 0
M  V30 1860 C 181.973 -0.421661 3.44126 0
M  V30 1861 C 181.034 0.505727 4.26311 0
M  V30 1862 C 180.267 -0.234343 5.33185 0
M  V30 1863 O 180.49 -1.46045 5.51386 0
M  V30 1864 O 179.424 0.415443 6.00465 0
M  V30 1865 H 183.25 1.19685 2.79122 0
M  V30 1866 H 180.835 0.648596 1.34587 0
M  V30 1867 H 182.717 -0.861641 4.12497 0
M  V30 1868 H 181.392 -1.23942 2.99032 0
M  V30 1869 H 180.299 0.994513 3.60639 0
M  V30 1870 H 181.632 1.28948 4.75009 0
M  V30 1871 N 183.284 -1.43765 0.645699 0
M  V30 1872 C 184.7 -1.56509 0.312591 0
M  V30 1873 C 184.9 -1.6307 -1.18365 0
M  V30 1874 O 183.956 -1.58167 -1.96824 0
M  V30 1875 C 185.269 -2.82968 1.01733 0
M  V30 1876 C 186.817 -2.96701 0.996865 0
M  V30 1877 C 187.292 -4.25982 1.68236 0
M  V30 1878 N 188.783 -4.32829 1.64964 0
M  V30 1879 C 189.518 -5.31613 2.14885 0
M  V30 1880 N 189.014 -6.36718 2.73061 0
M  V30 1881 N 190.807 -5.23217 2.05428 0
M  V30 1882 H 182.958 -1.3775 1.61675 0
M  V30 1883 H 185.221 -0.661067 0.679481 0
M  V30 1884 H 184.927 -2.84156 2.0724 0
M  V30 1885 H 184.801 -3.72957 0.564177 0
M  V30 1886 H 187.188 -2.95058 -0.0497719 0
M  V30 1887 H 187.269 -2.08022 1.48865 0
M  V30 1888 H 186.913 -4.28386 2.72852 0
M  V30 1889 H 186.843 -5.13545 1.16529 0
M  V30 1890 H 189.334 -3.57493 1.22503 0
M  V30 1891 H 189.647 -7.08401 3.08848 0
M  V30 1892 H 187.992 -6.37362 2.77118 0
M  V30 1893 H 191.183 -4.40019 1.59689 0
M  V30 1894 H 191.356 -6.00045 2.44643 0
M  V30 1895 N 184.763 -0.387143 -1.52771 0
M  V30 1896 C 186.174 0.0873634 -1.86495 0
M  V30 1897 C 186.525 1.46336 -1.30691 0
M  V30 1898 O 185.65 2.068 -0.637409 0
M  V30 1899 C 186.245 0.165305 -3.38396 0
M  V30 1900 C 184.804 0.584101 -3.7184 0
M  V30 1901 C 183.951 -0.255279 -2.76122 0
M  V30 1902 H 186.902 -0.605104 -1.46711 0
M  V30 1903 H 186.923 0.984848 -3.67534 0
M  V30 1904 H 186.435 -0.836301 -3.78982 0
M  V30 1905 H 184.536 1.59315 -3.36823 0
M  V30 1906 H 184.649 0.343749 -4.77865 0
M  V30 1907 H 183.013 0.279126 -2.53166 0
M  V30 1908 H 183.796 -1.25482 -3.19545 0
M  V30 1909 N 186.241 1.57166 -0.116904 0
M  V30 1910 C 187.151 2.18745 0.847812 0
M  V30 1911 C 188.167 1.163 1.29423 0
M  V30 1912 O 189.343 1.48761 1.35765 0
M  V30 1913 C 186.408 2.77307 2.0809 0
M  V30 1914 C 185.469 3.94781 1.68661 0
M  V30 1915 C 184.702 4.50541 2.86091 0
M  V30 1916 O 184.925 4.05202 4.01456 0
M  V30 1917 O 183.859 5.41256 2.63298 0
M  V30 1918 H 187.685 3.01632 0.353778 0
M  V30 1919 H 185.27 1.49005 0.108599 0
M  V30 1920 H 187.152 3.14647 2.80313 0
M  V30 1921 H 185.827 1.97452 2.56504 0
M  V30 1922 H 184.734 3.62214 0.935518 0
M  V30 1923 H 186.067 4.76065 1.24991 0
M  V30 1924 N 187.719 -0.156864 1.56817 0
M  V30 1925 C 189.13 -0.717916 1.72345 0
M  V30 1926 C 189.481 -1.82124 0.729747 0
M  V30 1927 O 188.606 -2.16141 -0.105781 0
M  V30 1928 C 189.201 -1.30904 3.12489 0
M  V30 1929 C 187.76 -1.81676 3.29653 0
M  V30 1930 C 186.907 -0.701349 2.68284 0
M  V30 1931 H 189.858 0.0686989 1.58551 0
M  V30 1932 H 189.879 -2.17882 3.11942 0
M  V30 1933 H 189.391 -0.505796 3.8479 0
M  V30 1934 H 187.492 -2.64598 2.62333 0
M  V30 1935 H 187.605 -1.95226 4.3752 0
M  V30 1936 H 185.969 -1.12548 2.28484 0
M  V30 1937 H 186.752 0.0902846 3.43181 0
M  V30 1938 N 189.197 -1.51736 -0.425897 0
M  V30 1939 C 190.16 -1.73271 -1.50032 0
M  V30 1940 C 191.16 -0.602639 -1.4908 0
M  V30 1941 O 192.35 -0.87033 -1.509 0
M  V30 1942 C 189.482 -1.79969 -2.89523 0
M  V30 1943 H 190.675 -2.69172 -1.32237 0
M  V30 1944 H 188.228 -1.41899 -0.65532 0
M  V30 1945 H 188.963 -0.859241 -3.1271 0
M  V30 1946 H 188.748 -2.62109 -2.91619 0
M  V30 1947 H 190.238 -1.9843 -3.67444 0
M  V30 1948 N 190.675 0.682077 -1.42076 0
M  V30 1949 C 191.607 1.80755 -1.40926 0
M  V30 1950 C 192.62 1.59833 -0.309398 0
M  V30 1951 O 193.809 1.69087 -0.572014 0
M  V30 1952 C 190.909 3.17744 -1.17865 0
M  V30 1953 C 190.082 3.65578 -2.40149 0
M  V30 1954 C 189.141 4.81277 -2.12742 0
M  V30 1955 O 188.167 4.92197 -2.85887 0
M  V30 1956 N 189.369 5.69474 -1.12602 0
M  V30 1957 H 192.134 1.82229 -2.37935 0
M  V30 1958 H 189.695 0.864903 -1.36861 0
M  V30 1959 H 191.687 3.9279 -0.9746 0
M  V30 1960 H 190.257 3.11214 -0.294068 0
M  V30 1961 H 189.477 2.81291 -2.76169 0
M  V30 1962 H 190.765 3.94278 -3.21593 0
M  V30 1963 H 190.163 5.63297 -0.520899 0
M  V30 1964 H 188.72 6.44363 -0.981842 0
M  V30 1965 N 192.153 1.28127 0.917671 0
M  V30 1966 C 193.43 1.05761 1.64542 0
M  V30 1967 C 193.81 -0.404344 2.07191 0
M  V30 1968 O 193.158 -1.38963 1.81388 0
M  V30 1969 C 193.368 2.02857 2.83989 0
M  V30 1970 C 194.716 2.32786 3.551 0
M  V30 1971 O 195.74 2.0091 2.94132 0
M  V30 1972 O 194.599 2.87169 4.64969 0
M  V30 1973 H 191.693 0.403916 0.721652 0
M  V30 1974 H 194.239 1.39431 0.967322 0
M  V30 1975 H 193.011 3.01407 2.49538 0
M  V30 1976 H 192.634 1.69809 3.59514 0
M  V30 1977 N 193.631 -1.12557 1.10312 0
M  V30 1978 C 194.561 -2.20341 0.772798 0
M  V30 1979 C 195.542 -1.68198 -0.25365 0
M  V30 1980 O 196.727 -1.93831 -0.119699 0
M  V30 1981 C 193.857 -3.46709 0.202443 0
M  V30 1982 C 192.811 -4.11996 1.15943 0
M  V30 1983 C 192.137 -5.328 0.450345 0
M  V30 1984 C 193.437 -4.5828 2.50552 0
M  V30 1985 H 195.131 -2.48229 1.674 0
M  V30 1986 H 192.677 -1.19308 0.806326 0
M  V30 1987 H 194.63 -4.2138 -0.0407752 0
M  V30 1988 H 193.354 -3.18245 -0.734001 0
M  V30 1989 H 192.013 -3.39305 1.38808 0
M  V30 1990 H 191.661 -5.00602 -0.490531 0
M  V30 1991 H 191.361 -5.7743 1.08851 0
M  V30 1992 H 192.885 -6.10219 0.215642 0
M  V30 1993 H 194.299 -5.2433 2.31843 0
M  V30 1994 H 192.696 -5.13683 3.10242 0
M  V30 1995 H 193.766 -3.72329 3.10643 0
M  V30 1996 N 195.109 -0.891671 -1.2995 0
M  V30 1997 C 196.356 -0.513501 -1.95881 0
M  V30 1998 C 196.684 0.938655 -1.70351 0
M  V30 1999 O 195.939 1.67936 -1.00478 0
M  V30 2000 C 196.238 -0.742868 -3.49594 0
M  V30 2001 C 195.904 -2.17114 -3.95186 0
M  V30 2002 C 194.566 -2.56169 -4.07346 0
M  V30 2003 C 196.918 -3.10162 -4.18866 0
M  V30 2004 C 194.246 -3.87469 -4.4055 0
M  V30 2005 C 196.598 -4.41001 -4.53542 0
M  V30 2006 C 195.262 -4.79941 -4.63911 0
M  V30 2007 H 194.532 -0.187903 -0.71678 0
M  V30 2008 H 197.179 -1.1288 -1.54694 0
M  V30 2009 H 195.484 -0.044586 -3.91775 0
M  V30 2010 H 197.181 -0.429767 -3.9869 0
M  V30 2011 H 193.771 -1.85801 -3.86233 0
M  V30 2012 H 197.955 -2.81206 -4.08946 0
M  V30 2013 H 193.211 -4.17371 -4.46779 0
M  V30 2014 H 197.385 -5.13133 -4.70815 0
M  V30 2015 H 195.012 -5.81719 -4.89395 0
M  V30 2016 N 196.587 1.43421 -0.653314 0
M  V30 2017 C 197.864 1.95361 -0.0966581 0
M  V30 2018 C 198.244 1.59461 1.38331 0
M  V30 2019 O 197.592 0.879777 2.10884 0
M  V30 2020 C 197.802 3.47311 -0.342988 0
M  V30 2021 C 199.15 4.23875 -0.24798 0
M  V30 2022 O 200.174 3.55133 -0.275553 0
M  V30 2023 O 199.033 5.4623 -0.171771 0
M  V30 2024 H 196.127 0.826945 0.00956291 0
M  V30 2025 H 198.673 1.5336 -0.726558 0
M  V30 2026 H 197.445 3.66569 -1.36906 0
M  V30 2027 H 197.068 3.9631 0.319975 0
M  V30 2028 N 198.065 0.39524 1.52563 0
M  V30 2029 C 199.312 -0.185044 2.01653 0
M  V30 2030 C 199.64 -1.46317 1.28146 0
M  V30 2031 O 198.895 -1.9213 0.372074 0
M  V30 2032 C 199.194 -0.493444 3.53977 0
M  V30 2033 C 198.86 0.69384 4.4553 0
M  V30 2034 C 197.522 1.01954 4.70275 0
M  V30 2035 C 199.874 1.48785 4.99512 0
M  V30 2036 C 197.202 2.14069 5.46252 0
M  V30 2037 C 199.554 2.59965 5.76716 0
M  V30 2038 C 198.218 2.93037 5.99738 0
M  V30 2039 H 197.488 -0.0677123 0.7379 0
M  V30 2040 H 200.135 0.533807 1.8391 0
M  V30 2041 H 198.44 -1.29369 3.69825 0
M  V30 2042 H 200.137 -0.955163 3.89458 0
M  V30 2043 H 196.727 0.429987 4.26438 0
M  V30 2044 H 200.911 1.24946 4.80315 0
M  V30 2045 H 196.167 2.40056 5.62302 0
M  V30 2046 H 200.341 3.21887 6.17545 0
M  V30 2047 H 197.968 3.8003 6.58393 0
M  V30 2048 N 199.544 -1.57102 0.125237 0
M  V30 2049 C 200.793 -1.94582 -0.531095 0
M  V30 2050 C 201.106 -1.01126 -1.6743 0
M  V30 2051 O 202.312 -1.28097 -2.39381 0
M  V30 2052 C 200.768 -3.45839 -0.996164 0
M  V30 2053 C 200.376 -4.47842 0.118926 0
M  V30 2054 C 202.12 -3.92227 -1.62352 0
M  V30 2055 C 200.027 -5.90284 -0.363192 0
M  V30 2056 H 198.957 -0.726391 -0.20217 0
M  V30 2057 H 201.608 -1.82339 0.206092 0
M  V30 2058 H 199.99 -3.53338 -1.78796 0
M  V30 2059 H 201.164 -4.52018 0.895358 0
M  V30 2060 H 199.479 -4.11243 0.653324 0
M  V30 2061 H 202.076 -4.96069 -1.99548 0
M  V30 2062 H 202.419 -3.32552 -2.50429 0
M  V30 2063 H 202.952 -3.87554 -0.897019 0
M  V30 2064 H 199.691 -6.53728 0.481679 0
M  V30 2065 H 199.211 -5.89515 -1.10597 0
M  V30 2066 H 200.89 -6.41752 -0.822377 0
M  V30 2067 N 201.022 0.148545 -1.56898 0
M  V30 2068 C 202.25 0.876389 -1.87422 0
M  V30 2069 C 202.665 1.74809 -0.713256 0
M  V30 2070 O 202.022 1.79725 0.317025 0
M  V30 2071 C 202.073 1.73438 -3.17178 0
M  V30 2072 O 201.794 0.897809 -4.28802 0
M  V30 2073 C 203.295 2.56993 -3.61205 0
M  V30 2074 H 200.515 0.253489 -0.621277 0
M  V30 2075 H 203.059 0.141798 -2.04008 0
M  V30 2076 H 201.214 2.42205 -3.0235 0
M  V30 2077 H 201.628 1.48672 -5.02988 0
M  V30 2078 H 203.102 3.12773 -4.54838 0
M  V30 2079 H 203.579 3.32958 -2.86419 0
M  V30 2080 H 204.185 1.9352 -3.78722 0
M  V30 2081 N 202.5 1.5196 0.417844 0
M  V30 2082 C 203.41 1.77554 1.53336 0
M  V30 2083 C 204.426 0.660655 1.6097 0
M  V30 2084 O 205.602 0.945099 1.77848 0
M  V30 2085 C 202.667 1.91291 2.89152 0
M  V30 2086 C 201.728 3.15183 2.91475 0
M  V30 2087 C 200.961 3.28256 4.20813 0
M  V30 2088 O 201.184 2.46798 5.14244 0
M  V30 2089 O 200.118 4.21356 4.29817 0
M  V30 2090 H 203.944 2.7222 1.34647 0
M  V30 2091 H 201.529 1.36698 0.602828 0
M  V30 2092 H 203.411 2.02199 3.69721 0
M  V30 2093 H 202.086 0.998129 3.07927 0
M  V30 2094 H 200.993 3.09739 2.09791 0
M  V30 2095 H 202.326 4.06414 2.77648 0
M  V30 2096 N 203.978 -0.674533 1.42435 0
M  V30 2097 C 205.394 -0.98769 1.25367 0
M  V30 2098 C 205.594 -2.00879 0.158044 0
M  V30 2099 O 204.65 -2.48075 -0.470633 0
M  V30 2100 C 205.963 -1.49224 2.6106 0
M  V30 2101 C 207.511 -1.61 2.68417 0
M  V30 2102 C 207.986 -2.14852 4.04478 0
M  V30 2103 N 209.477 -2.22185 4.06434 0
M  V30 2104 C 210.212 -2.64928 5.08528 0
M  V30 2105 N 209.708 -3.07121 6.21006 0
M  V30 2106 N 211.501 -2.64679 4.95885 0
M  V30 2107 H 203.652 0.00152503 2.124 0
M  V30 2108 H 205.915 -0.0618434 0.945981 0
M  V30 2109 H 205.621 -0.816453 3.42092 0
M  V30 2110 H 205.495 -2.47094 2.84999 0
M  V30 2111 H 207.882 -2.27686 1.87732 0
M  V30 2112 H 207.963 -0.616195 2.48267 0
M  V30 2113 H 207.607 -1.48775 4.85622 0
M  V30 2114 H 207.537 -3.15024 4.2198 0
M  V30 2115 H 210.028 -1.92435 3.25234 0
M  V30 2116 H 210.341 -3.38423 6.94759 0
M  V30 2117 H 208.686 -3.04978 6.24511 0
M  V30 2118 H 211.877 -2.31078 4.07088 0
M  V30 2119 H 212.05 -2.9767 5.75584 0
M  V30 2120 N 205.456 -1.28612 -0.910864 0
M  V30 2121 C 206.704 -1.15705 -1.65701 0
M  V30 2122 C 207.025 0.29416 -1.92769 0
M  V30 2123 O 206.295 1.20331 -1.54588 0
M  V30 2124 H 204.875 -0.425216 -0.614167 0
M  V30 2125 H 207.537 -1.61381 -1.0928 0
M  V30 2126 H 206.633 -1.6988 -2.61815 0
M  V30 2127 N 206.934 1.1197 -1.10907 0
M  V30 2128 C 207.897 2.16031 -0.765707 0
M  V30 2129 C 208.897 1.59393 0.212235 0
M  V30 2130 O 210.087 1.74196 -0.0115441 0
M  V30 2131 C 207.219 3.40632 -0.135053 0
M  V30 2132 H 208.412 2.47919 -1.68748 0
M  V30 2133 H 205.965 1.27061 -0.910226 0
M  V30 2134 H 206.7 3.14348 0.797218 0
M  V30 2135 H 206.485 3.8302 -0.838937 0
M  V30 2136 H 207.975 4.17505 0.0892469 0
M  V30 2137 N 208.412 0.89855 1.29475 0
M  V30 2138 C 209.342 0.39201 2.30186 0
M  V30 2139 C 210.323 -0.532359 1.61555 0
M  V30 2140 O 211.508 -0.443331 1.89072 0
M  V30 2141 C 208.638 -0.382353 3.45189 0
M  V30 2142 C 207.592 0.451483 4.25612 0
M  V30 2143 C 206.918 -0.450307 5.328 0
M  V30 2144 C 208.218 1.70079 4.93832 0
M  V30 2145 H 209.912 1.23362 2.72804 0
M  V30 2146 H 207.458 0.594638 1.31149 0
M  V30 2147 H 209.411 -0.747451 4.14718 0
M  V30 2148 H 208.135 -1.25774 3.01411 0
M  V30 2149 H 206.794 0.798897 3.57789 0
M  V30 2150 H 206.442 -1.32379 4.85268 0
M  V30 2151 H 206.142 0.103902 5.87508 0
M  V30 2152 H 207.666 -0.811623 6.05182 0
M  V30 2153 H 209.08 1.40549 5.55805 0
M  V30 2154 H 207.477 2.19623 5.58467 0
M  V30 2155 H 208.547 2.43744 4.19186 0
M  V30 2156 N 209.89 -1.43072 0.660911 0
M  V30 2157 C 211.167 -1.95307 0.107017 0
M  V30 2158 C 211.547 -1.60192 -1.37484 0
M  V30 2159 O 210.895 -0.890949 -2.10415 0
M  V30 2160 C 211.105 -3.47124 0.361402 0
M  V30 2161 C 212.453 -4.23738 0.270455 0
M  V30 2162 O 213.477 -3.54981 0.294382 0
M  V30 2163 O 212.336 -5.46131 0.200737 0
M  V30 2164 H 209.43 -0.826984 -0.00517729 0
M  V30 2165 H 211.976 -1.52972 0.734681 0
M  V30 2166 H 210.748 -3.65837 1.38848 0
M  V30 2167 H 210.371 -3.96475 -0.298953 0
M  V30 2168 N 211.368 -0.403325 -1.52352 0
M  V30 2169 C 212.278 0.432009 -2.30588 0
M  V30 2170 C 213.294 1.05884 -1.38075 0
M  V30 2171 O 214.47 1.06161 -1.71148 0
M  V30 2172 C 211.535 1.53669 -3.10784 0
M  V30 2173 C 210.596 0.933525 -4.19027 0
M  V30 2174 C 209.829 1.98557 -4.9539 0
M  V30 2175 O 210.052 3.20283 -4.71991 0
M  V30 2176 O 208.986 1.59504 -5.80381 0
M  V30 2177 H 212.812 -0.205739 -3.03002 0
M  V30 2178 H 210.397 -0.166675 -1.48467 0
M  V30 2179 H 212.279 2.17814 -3.60742 0
M  V30 2180 H 210.954 2.15915 -2.41169 0
M  V30 2181 H 209.861 0.254954 -3.7323 0
M  V30 2182 H 211.194 0.35508 -4.90918 0
M  V30 2183 N 212.846 1.57033 -0.133567 0
M  V30 2184 C 214.257 1.82593 0.389464 0
M  V30 2185 C 214.608 1.05156 1.6564 0
M  V30 2186 O 213.733 0.292644 2.14412 0
M  V30 2187 C 214.328 3.31204 0.713377 0
M  V30 2188 C 212.887 3.57393 1.18098 0
M  V30 2189 C 212.034 2.76598 0.197126 0
M  V30 2190 H 214.985 1.54598 -0.358481 0
M  V30 2191 H 215.006 3.46627 1.56939 0
M  V30 2192 H 214.518 3.87537 -0.2089 0
M  V30 2193 H 212.619 3.06433 2.11966 0
M  V30 2194 H 212.732 4.65915 1.11624 0
M  V30 2195 H 211.096 2.45257 0.687088 0
M  V30 2196 H 211.879 3.35697 -0.718504 0
M  V30 2197 N 214.325 -0.140222 1.56975 0
M  V30 2198 C 215.255 -1.17456 2.01808 0
M  V30 2199 C 216.236 -1.44415 0.898794 0
M  V30 2200 O 217.421 -1.5522 1.16707 0
M  V30 2201 C 214.551 -2.50607 2.40444 0
M  V30 2202 C 213.505 -2.38155 3.55621 0
M  V30 2203 C 212.831 -3.76078 3.80091 0
M  V30 2204 C 214.131 -1.85991 4.88062 0
M  V30 2205 H 215.825 -0.801743 2.88466 0
M  V30 2206 H 213.371 -0.38422 1.38779 0
M  V30 2207 H 215.324 -3.23197 2.7041 0
M  V30 2208 H 214.048 -2.89737 1.50732 0
M  V30 2209 H 212.707 -1.68016 3.25832 0
M  V30 2210 H 212.355 -4.12656 2.87618 0
M  V30 2211 H 212.055 -3.68606 4.57606 0
M  V30 2212 H 213.579 -4.50206 4.12488 0
M  V30 2213 H 214.993 -2.4838 5.16701 0
M  V30 2214 H 213.39 -1.89393 5.6943 0
M  V30 2215 H 214.46 -0.816023 4.77984 0
M  V30 2216 N 215.803 -1.52179 -0.40978 0
M  V30 2217 C 216.766 -1.74853 -1.48186 0
M  V30 2218 C 217.766 -0.618417 -1.48433 0
M  V30 2219 O 218.956 -0.886286 -1.49969 0
M  V30 2220 C 216.088 -1.8303 -2.87598 0
M  V30 2221 H 217.281 -2.70559 -1.29374 0
M  V30 2222 H 214.834 -1.42586 -0.640233 0
M  V30 2223 H 215.569 -0.89236 -3.11781 0
M  V30 2224 H 215.354 -2.65187 -2.88822 0
M  V30 2225 H 216.844 -2.02316 -3.65319 0
M  V30 2226 N 217.281 0.66697 -1.42791 0
M  V30 2227 C 218.697 0.981027 -1.25889 0
M  V30 2228 C 218.897 2.00793 -0.168695 0
M  V30 2229 O 217.953 2.48321 0.45747 0
M  V30 2230 C 219.266 1.47838 -2.61848 0
M  V30 2231 C 220.814 1.59575 -2.69267 0
M  V30 2232 C 221.289 2.12704 -4.05612 0
M  V30 2233 N 222.78 2.20026 -4.07606 0
M  V30 2234 C 223.515 2.62227 -5.09926 0
M  V30 2235 N 223.011 3.03824 -6.22626 0
M  V30 2236 N 224.804 2.62045 -4.97281 0
M  V30 2237 H 216.955 -0.0127891 -2.12396 0
M  V30 2238 H 219.218 0.0568258 -0.946295 0
M  V30 2239 H 218.924 0.798299 -3.4252 0
M  V30 2240 H 218.798 2.45579 -2.86305 0
M  V30 2241 H 221.185 2.26687 -1.88936 0
M  V30 2242 H 221.266 0.60302 -2.48591 0
M  V30 2243 H 220.91 1.46198 -4.86404 0
M  V30 2244 H 220.84 3.12782 -4.23645 0
M  V30 2245 H 223.331 1.90708 -3.2625 0
M  V30 2246 H 223.644 3.34734 -6.96544 0
M  V30 2247 H 221.989 3.01662 -6.26119 0
M  V30 2248 H 225.18 2.28916 -4.08308 0
M  V30 2249 H 225.353 2.94613 -5.77154 0
M  V30 2250 N 218.759 1.29093 0.90403 0
M  V30 2251 C 220.175 1.07011 1.1841 0
M  V30 2252 C 220.375 -0.181358 2.00682 0
M  V30 2253 O 219.431 -0.880331 2.36657 0
M  V30 2254 C 220.744 2.32311 1.90924 0
M  V30 2255 C 222.292 2.37587 2.03768 0
M  V30 2256 C 222.767 3.62679 2.79693 0
M  V30 2257 N 224.258 3.63376 2.87249 0
M  V30 2258 C 224.993 4.56848 3.46522 0
M  V30 2259 N 224.489 5.60648 4.06996 0
M  V30 2260 N 226.282 4.44426 3.44154 0
M  V30 2261 H 218.433 2.09412 0.354993 0
M  V30 2262 H 220.696 0.922181 0.219742 0
M  V30 2263 H 220.402 3.23536 1.37905 0
M  V30 2264 H 220.276 2.39483 2.91424 0
M  V30 2265 H 222.663 1.46853 2.55965 0
M  V30 2266 H 222.744 2.34403 1.02415 0
M  V30 2267 H 222.388 4.53762 2.28173 0
M  V30 2268 H 222.318 3.63119 3.81381 0
M  V30 2269 H 224.809 2.88321 2.44293 0
M  V30 2270 H 225.122 6.28101 4.50232 0
M  V30 2271 H 223.467 5.64463 4.05471 0
M  V30 2272 H 226.658 3.62529 2.96126 0
M  V30 2273 H 226.831 5.17457 3.90054 0
M  V30 2274 N 220.237 -1.11381 1.11499 0
M  V30 2275 C 221.484 -1.83132 0.864231 0
M  V30 2276 C 221.812 -1.84683 -0.610114 0
M  V30 2277 O 221.067 -1.29589 -1.46646 0
M  V30 2278 C 221.366 -3.30026 1.37177 0
M  V30 2279 C 221.032 -3.48634 2.85946 0
M  V30 2280 C 219.694 -3.53421 3.26569 0
M  V30 2281 C 222.046 -3.54837 3.81759 0
M  V30 2282 C 219.374 -3.61967 4.61733 0
M  V30 2283 C 221.726 -3.64915 5.1674 0
M  V30 2284 C 220.39 -3.67962 5.5692 0
M  V30 2285 H 219.66 -0.670127 0.316245 0
M  V30 2286 H 222.307 -1.31354 1.3935 0
M  V30 2287 H 220.612 -3.84304 0.762753 0
M  V30 2288 H 222.309 -3.84034 1.15408 0
M  V30 2289 H 218.899 -3.45579 2.53521 0
M  V30 2290 H 223.083 -3.50399 3.51474 0
M  V30 2291 H 218.339 -3.62603 4.92269 0
M  V30 2292 H 222.513 -3.68658 5.90816 0
M  V30 2293 H 220.14 -3.74336 6.61647 0
M  V30 2294 N 221.715 -0.905404 -1.28997 0
M  V30 2295 C 222.962 -0.534248 -1.95325 0
M  V30 2296 C 223.29 0.920535 -1.71337 0
M  V30 2297 O 222.545 1.66861 -1.02254 0
M  V30 2298 C 222.844 -0.779906 -3.48787 0
M  V30 2299 C 222.51 -2.21293 -3.92861 0
M  V30 2300 C 221.172 -2.60475 -4.04606 0
M  V30 2301 C 223.524 -3.14587 -4.15553 0
M  V30 2302 C 220.852 -3.9212 -4.36416 0
M  V30 2303 C 223.204 -4.45787 -4.48839 0
M  V30 2304 C 221.868 -4.84834 -4.58794 0
M  V30 2305 H 221.138 -0.195495 -0.714747 0
M  V30 2306 H 223.785 -1.14514 -1.53488 0
M  V30 2307 H 222.09 -0.0861365 -3.91705 0
M  V30 2308 H 223.787 -0.472029 -3.98212 0
M  V30 2309 H 220.377 -1.89887 -3.84241 0
M  V30 2310 H 224.561 -2.85528 -4.0594 0
M  V30 2311 H 219.817 -4.22086 -4.42327 0
M  V30 2312 H 223.991 -5.18098 -4.65346 0
M  V30 2313 H 221.618 -5.86877 -4.83197 0
M  V30 2314 N 223.193 1.4272 -0.668489 0
M  V30 2315 C 224.156 2.292 0.00448567 0
M  V30 2316 C 225.156 1.43001 0.735339 0
M  V30 2317 O 226.346 1.64461 0.57429 0
M  V30 2318 C 223.478 3.25375 1.01705 0
M  V30 2319 H 224.671 2.90199 -0.756608 0
M  V30 2320 H 222.224 1.50254 -0.430506 0
M  V30 2321 H 222.959 2.69301 1.80686 0
M  V30 2322 H 222.744 3.88944 0.496463 0
M  V30 2323 H 224.234 3.90245 1.48655 0
M  V30 2324 N 224.671 0.411399 1.52136 0
M  V30 2325 C 225.603 -0.448386 2.24771 0
M  V30 2326 C 226.616 -1.00828 1.27818 0
M  V30 2327 O 227.805 -0.906841 1.53749 0
M  V30 2328 C 224.905 -1.63636 2.96777 0
M  V30 2329 C 224.078 -1.19995 4.20618 0
M  V30 2330 C 223.137 -2.25509 4.75428 0
M  V30 2331 O 222.163 -1.86007 5.3795 0
M  V30 2332 N 223.365 -3.577 4.57199 0
M  V30 2333 H 226.13 0.174025 2.99194 0
M  V30 2334 H 223.691 0.238897 1.60128 0
M  V30 2335 H 225.683 -2.33793 3.30338 0
M  V30 2336 H 224.253 -2.16465 2.25526 0
M  V30 2337 H 223.473 -0.326421 3.92846 0
M  V30 2338 H 224.761 -0.885365 5.01038 0
M  V30 2339 H 224.159 -3.92543 4.07341 0
M  V30 2340 H 222.716 -4.23827 4.95191 0
M  V30 2341 N 226.149 -1.5696 0.141893 0
M  V30 2342 C 227.395 -1.9625 -0.511248 0
M  V30 2343 C 227.728 -1.02654 -1.64851 0
M  V30 2344 O 227.003 -0.0679676 -1.94381 0
M  V30 2345 C 227.286 -3.45285 -1.02227 0
M  V30 2346 C 227.139 -4.49658 0.113138 0
M  V30 2347 C 228.458 -3.96698 -1.90574 0
M  V30 2348 H 225.577 -0.713567 -0.184367 0
M  V30 2349 H 228.219 -1.88698 0.222087 0
M  V30 2350 H 226.369 -3.51852 -1.64719 0
M  V30 2351 H 228.041 -4.55174 0.749302 0
M  V30 2352 H 226.284 -4.26857 0.773026 0
M  V30 2353 H 226.955 -5.51258 -0.286053 0
M  V30 2354 H 229.431 -3.92578 -1.37918 0
M  V30 2355 H 228.307 -5.01453 -2.2324 0
M  V30 2356 H 228.568 -3.3875 -2.84079 0
M  V30 2357 N 227.627 0.131896 -1.57047 0
M  V30 2358 C 228.557 1.16384 -2.02428 0
M  V30 2359 C 229.538 1.43936 -0.90644 0
M  V30 2360 O 230.723 1.54599 -1.17528 0
M  V30 2361 C 227.853 2.49328 -2.4177 0
M  V30 2362 C 226.807 2.36266 -3.56879 0
M  V30 2363 C 226.133 3.74057 -3.8208 0
M  V30 2364 C 227.433 1.834 -4.89042 0
M  V30 2365 H 229.127 0.786433 -2.88887 0
M  V30 2366 H 226.673 0.376855 -1.38981 0
M  V30 2367 H 228.626 3.21759 -2.7212 0
M  V30 2368 H 227.35 2.88934 -1.52266 0
M  V30 2369 H 226.009 1.66286 -3.26718 0
M  V30 2370 H 225.657 4.11125 -2.89803 0
M  V30 2371 H 225.357 3.66174 -4.59554 0
M  V30 2372 H 226.881 4.48012 -4.1487 0
M  V30 2373 H 228.295 2.45636 -5.18011 0
M  V30 2374 H 226.692 1.8637 -5.70426 0
M  V30 2375 H 227.762 0.790662 -4.7841 0
M  V30 2376 N 229.106 1.52395 0.401703 0
M  V30 2377 C 230.069 1.75636 1.47257 0
M  V30 2378 C 231.069 0.62628 1.48103 0
M  V30 2379 O 232.259 0.894227 1.49497 0
M  V30 2380 C 229.391 1.84553 2.86624 0
M  V30 2381 H 230.584 2.71241 1.27938 0
M  V30 2382 H 228.137 1.42923 0.632662 0
M  V30 2383 H 228.872 0.908882 3.11303 0
M  V30 2384 H 228.657 2.66715 2.87412 0
M  V30 2385 H 230.147 2.04251 3.64241 0
M  V30 2386 N 230.584 -0.659388 1.43143 0
M  V30 2387 C 231.547 -1.75432 1.47501 0
M  V30 2388 C 232.547 -1.56707 0.360512 0
M  V30 2389 O 233.737 -1.62717 0.622002 0
M  V30 2390 C 230.869 -3.14239 1.32162 0
M  V30 2391 H 232.062 -1.7295 2.45006 0
M  V30 2392 H 229.615 -0.870469 1.29817 0
M  V30 2393 H 230.35 -3.22336 0.356401 0
M  V30 2394 H 230.135 -3.29235 2.12948 0
M  V30 2395 H 231.625 -3.94094 1.3813 0
M  V30 2396 N 232.062 -1.29571 -0.897171 0
M  V30 2397 C 233.308 -1.17863 -1.65034 0
M  V30 2398 C 233.641 0.268729 -1.92332 0
M  V30 2399 O 232.916 1.19378 -1.53555 0
M  V30 2400 C 233.199 -1.995 -2.99786 0
M  V30 2401 C 233.052 -3.5239 -2.79538 0
M  V30 2402 C 234.371 -1.82335 -4.00552 0
M  V30 2403 H 231.49 -0.429528 -0.598895 0
M  V30 2404 H 234.132 -1.59072 -1.03905 0
M  V30 2405 H 232.282 -1.64485 -3.51962 0
M  V30 2406 H 233.954 -3.97401 -2.34244 0
M  V30 2407 H 232.197 -3.77187 -2.14273 0
M  V30 2408 H 232.868 -4.04787 -3.75302 0
M  V30 2409 H 235.344 -2.12924 -3.57495 0
M  V30 2410 H 234.22 -2.41801 -4.92771 0
M  V30 2411 H 234.481 -0.779209 -4.35179 0
M  V30 2412 N 233.54 1.10788 -1.12088 0
M  V30 2413 C 234.956 1.34691 -0.856186 0
M  V30 2414 C 235.156 1.94791 0.515615 0
M  V30 2415 O 234.212 2.18524 1.26505 0
M  V30 2416 C 235.525 2.27208 -1.9697 0
M  V30 2417 C 237.073 2.40755 -2.00016 0
M  V30 2418 C 237.548 3.36598 -3.1059 0
M  V30 2419 N 239.039 3.44164 -3.10008 0
M  V30 2420 C 239.774 4.18284 -3.92206 0
M  V30 2421 N 239.27 4.95322 -4.84384 0
M  V30 2422 N 241.063 4.13865 -3.80357 0
M  V30 2423 H 233.214 0.70144 -2.00483 0
M  V30 2424 H 235.477 0.371405 -0.872217 0
M  V30 2425 H 235.183 1.90251 -2.958 0
M  V30 2426 H 235.057 3.27485 -1.87172 0
M  V30 2427 H 237.444 2.76982 -1.01808 0
M  V30 2428 H 237.525 1.40305 -2.13888 0
M  V30 2429 H 237.169 3.01096 -4.09028 0
M  V30 2430 H 237.099 4.36918 -2.93956 0
M  V30 2431 H 239.59 2.8922 -2.43228 0
M  V30 2432 H 239.903 5.49267 -5.43623 0
M  V30 2433 H 238.248 4.94459 -4.884 0
M  V30 2434 H 241.439 3.52773 -3.07683 0
M  V30 2435 H 241.612 4.71372 -4.44649 0
M  V30 2436 N 235.018 0.912232 1.28515 0
M  V30 2437 C 235.968 0.370649 2.24967 0
M  V30 2438 C 236.952 -0.516375 1.52389 0
M  V30 2439 O 238.144 -0.356345 1.73376 0
M  V30 2440 C 235.273 -0.389526 3.41083 0
M  V30 2441 C 234.359 0.51313 4.20984 0
M  V30 2442 N 234.75 1.62604 4.78951 0
M  V30 2443 C 233.048 0.313235 4.44899 0
M  V30 2444 C 233.749 2.18619 5.39055 0
M  V30 2445 N 232.725 1.47765 5.23132 0
M  V30 2446 H 236.527 1.22061 2.67354 0
M  V30 2447 H 234.041 0.764712 1.43269 0
M  V30 2448 H 236.038 -0.794353 4.09262 0
M  V30 2449 H 234.698 -1.2366 3.0023 0
M  V30 2450 H 235.709 2.00864 4.77362 0
M  V30 2451 H 232.386 -0.494452 4.14562 0
M  V30 2452 H 233.776 3.12228 5.94948 0
M  V30 2453 N 236.496 -1.42363 0.676048 0
M  V30 2454 C 237.736 -2.03392 0.20273 0
M  V30 2455 C 238.1 -1.52306 -1.16906 0
M  V30 2456 O 239.301 -2.05129 -1.73711 0
M  V30 2457 C 237.572 -3.56614 0.236947 0
M  V30 2458 S 239.131 -4.38489 -0.165186 0
M  V30 2459 H 235.949 -0.70611 0.0832418 0
M  V30 2460 H 238.551 -1.74093 0.88948 0
M  V30 2461 H 237.255 -3.91293 1.23767 0
M  V30 2462 H 236.786 -3.90587 -0.469596 0
M  V30 2463 H 238.801 -4.76093 -1.39822 0
M  V30 2464 N 237.974 -0.419461 -1.51915 0
M  V30 2465 C 238.924 0.418496 -2.24126 0
M  V30 2466 C 239.908 1.00495 -1.25656 0
M  V30 2467 O 241.1 0.926058 -1.50842 0
M  V30 2468 C 238.229 1.52899 -3.07371 0
M  V30 2469 C 237.315 0.952797 -4.13258 0
M  V30 2470 N 237.706 0.104175 -5.05693 0
M  V30 2471 C 236.004 1.22224 -4.28926 0
M  V30 2472 C 236.705 -0.21752 -5.81293 0
M  V30 2473 N 235.681 0.394293 -5.42168 0
M  V30 2474 H 239.483 -0.236048 -2.92951 0
M  V30 2475 H 236.997 -0.230481 -1.60756 0
M  V30 2476 H 238.994 2.14199 -3.57665 0
M  V30 2477 H 237.654 2.18605 -2.40088 0
M  V30 2478 H 238.665 -0.260924 -5.17242 0
M  V30 2479 H 235.342 1.87812 -3.72871 0
M  V30 2480 H 236.732 -0.906992 -6.6575 0
M  V30 2481 N 239.452 1.56882 -0.150215 0
M  V30 2482 C 240.677 2.01027 0.510184 0
M  V30 2483 C 241.102 1.02966 1.57415 0
M  V30 2484 O 240.46 0.00590158 1.81299 0
M  V30 2485 C 240.508 3.43899 1.08472 0
M  V30 2486 O 239.612 3.4885 2.19948 0
M  V30 2487 H 238.953 0.652233 0.124451 0
M  V30 2488 H 241.483 2.03093 -0.247894 0
M  V30 2489 H 241.493 3.82766 1.41259 0
M  V30 2490 H 240.168 4.14776 0.305582 0
M  V30 2491 H 238.745 3.21827 1.88366 0
M  V30 2492 N 240.93 -0.123565 1.57115 0
M  V30 2493 C 242.17 -0.838097 1.86428 0
M  V30 2494 C 242.534 -1.77266 0.737611 0
M  V30 2495 O 243.735 -2.52842 0.912389 0
M  V30 2496 C 242.006 -1.57219 3.20962 0
M  V30 2497 S 243.565 -2.32893 3.71896 0
M  V30 2498 H 240.383 -0.279811 0.653626 0
M  V30 2499 H 242.985 -0.0967034 1.95261 0
M  V30 2500 H 241.689 -0.877522 4.00909 0
M  V30 2501 H 241.22 -2.35405 3.15195 0
M  V30 2502 H 243.235 -3.5853 3.43032 0
M  V30 2503 N 242.408 -1.52605 -0.393616 0
M  V30 2504 C 243.656 -1.67093 -1.13685 0
M  V30 2505 C 243.977 -0.411011 -1.90619 0
M  V30 2506 O 243.247 0.574491 -1.87287 0
M  V30 2507 H 241.827 -0.615923 -0.422668 0
M  V30 2508 H 244.489 -1.89704 -0.447039 0
M  V30 2509 H 243.585 -2.51922 -1.84232 0
M  V30 2510 N 243.887 0.651787 -1.4349 0
M  V30 2511 C 245.133 1.41376 -1.45398 0
M  V30 2512 C 245.466 1.94041 -0.0784823 0
M  V30 2513 O 244.741 1.72379 0.900878 0
M  V30 2514 C 245.024 2.59414 -2.49752 0
M  V30 2515 C 244.877 2.12232 -3.96582 0
M  V30 2516 C 246.196 3.61626 -2.50827 0
M  V30 2517 H 243.315 0.512719 -0.529422 0
M  V30 2518 H 245.957 0.738796 -1.75048 0
M  V30 2519 H 244.107 3.16997 -2.246 0
M  V30 2520 H 245.779 1.59639 -4.32797 0
M  V30 2521 H 244.022 1.43592 -4.09346 0
M  V30 2522 H 244.693 2.9712 -4.65214 0
M  V30 2523 H 247.169 3.13805 -2.7325 0
M  V30 2524 H 246.045 4.41766 -3.25783 0
M  V30 2525 H 246.306 4.14314 -1.5426 0
M  V30 2526 N 245.365 1.30045 0.890287 0
M  V30 2527 C 246.611 1.18737 1.64406 0
M  V30 2528 C 246.944 -0.258525 1.92472 0
M  V30 2529 O 246.219 -1.18562 1.54186 0
M  V30 2530 C 246.502 2.01087 2.98724 0
M  V30 2531 C 246.355 3.53867 2.77665 0
M  V30 2532 C 247.674 1.84457 3.9958 0
M  V30 2533 H 244.793 0.432698 0.596608 0
M  V30 2534 H 247.435 1.5962 1.0306 0
M  V30 2535 H 245.585 1.66349 3.51084 0
M  V30 2536 H 247.257 3.98637 2.32133 0
M  V30 2537 H 245.5 3.78318 2.12269 0
M  V30 2538 H 246.171 4.06772 3.7315 0
M  V30 2539 H 248.647 2.14817 3.56361 0
M  V30 2540 H 247.523 2.44411 4.91482 0
M  V30 2541 H 247.784 0.802276 4.3476 0
M  V30 2542 N 246.843 -1.10192 1.12674 0
M  V30 2543 C 247.793 -2.14754 0.765801 0
M  V30 2544 C 248.777 -1.59154 -0.236409 0
M  V30 2545 O 249.969 -1.76951 -0.0415261 0
M  V30 2546 C 247.098 -3.42563 0.224827 0
M  V30 2547 C 246.184 -4.05091 1.25548 0
M  V30 2548 N 246.575 -4.42287 2.4539 0
M  V30 2549 C 244.873 -4.32186 1.10142 0
M  V30 2550 C 245.574 -4.91441 3.11224 0
M  V30 2551 N 244.55 -4.88405 2.38666 0
M  V30 2552 H 248.352 -2.41309 1.67772 0
M  V30 2553 H 245.866 -1.27339 1.00789 0
M  V30 2554 H 247.863 -4.16868 -0.0519578 0
M  V30 2555 H 246.523 -3.17467 -0.681515 0
M  V30 2556 H 247.534 -4.33902 2.82754 0
M  V30 2557 H 244.211 -4.16735 0.252587 0
M  V30 2558 H 245.601 -5.29749 4.13298 0
M  V30 2559 N 248.321 -0.919034 -1.28029 0
M  V30 2560 C 249.737 -0.617972 -1.4715 0
M  V30 2561 C 249.937 0.835242 -1.83374 0
M  V30 2562 O 248.993 1.61388 -1.94191 0
M  V30 2563 C 250.306 -1.56041 -2.57044 0
M  V30 2564 C 251.854 -1.56769 -2.7091 0
M  V30 2565 C 252.329 -2.49688 -3.83953 0
M  V30 2566 N 253.82 -2.47845 -3.91314 0
M  V30 2567 C 254.555 -3.16437 -4.78179 0
M  V30 2568 N 254.051 -3.94376 -5.69596 0
M  V30 2569 N 255.844 -3.05498 -4.71834 0
M  V30 2570 H 247.995 -1.85866 -1.02798 0
M  V30 2571 H 250.258 -0.797506 -0.512531 0
M  V30 2572 H 249.964 -2.59671 -2.372 0
M  V30 2573 H 249.838 -1.29551 -3.54255 0
M  V30 2574 H 252.225 -0.538745 -2.90141 0
M  V30 2575 H 252.306 -1.87305 -1.74214 0
M  V30 2576 H 251.95 -3.52688 -3.65477 0
M  V30 2577 H 251.88 -2.16453 -4.80058 0
M  V30 2578 H 254.371 -1.91234 -3.25941 0
M  V30 2579 H 254.684 -4.43721 -6.32718 0
M  V30 2580 H 253.029 -3.98481 -5.69419 0
M  V30 2581 H 256.22 -2.44108 -3.99411 0
M  V30 2582 H 256.393 -3.59225 -5.39316 0
M  V30 2583 N 249.799 1.42003 -0.683588 0
M  V30 2584 C 251.076 1.95112 -0.138075 0
M  V30 2585 C 251.456 1.62359 1.34918 0
M  V30 2586 O 250.804 0.924311 2.08971 0
M  V30 2587 C 251.014 3.46505 -0.416581 0
M  V30 2588 C 252.362 4.23254 -0.337834 0
M  V30 2589 O 253.386 3.54468 -0.35082 0
M  V30 2590 O 252.245 5.45743 -0.287596 0
M  V30 2591 H 249.339 0.826961 -0.00797996 0
M  V30 2592 H 251.885 1.51784 -0.758924 0
M  V30 2593 H 250.657 3.63582 -1.4465 0
M  V30 2594 H 250.28 3.969 0.235839 0
M  V30 2595 N 251.277 0.427512 1.51691 0
M  V30 2596 C 252.526 -0.143679 2.01188 0
M  V30 2597 C 252.839 -1.44642 1.31674 0
M  V30 2598 O 254.045 -2.09997 1.72086 0
M  V30 2599 C 252.501 -0.306602 3.58592 0
M  V30 2600 C 252.109 0.985125 4.37035 0
M  V30 2601 C 253.853 -0.832091 4.16265 0
M  V30 2602 C 251.76 0.788382 5.86122 0
M  V30 2603 H 250.69 -0.0574701 0.751807 0
M  V30 2604 H 253.341 0.555772 1.74881 0
M  V30 2605 H 251.723 -1.06882 3.81303 0
M  V30 2606 H 252.897 1.75492 4.26074 0
M  V30 2607 H 251.212 1.4384 3.90767 0
M  V30 2608 H 253.809 -0.995617 5.25349 0
M  V30 2609 H 254.152 -1.81186 3.74803 0
M  V30 2610 H 254.685 -0.128444 3.97593 0
M  V30 2611 H 251.424 1.74025 6.31978 0
M  V30 2612 H 250.944 0.0582143 5.99772 0
M  V30 2613 H 252.623 0.437722 6.45518 0
M  V30 2614 N 252.755 -1.56801 0.158532 0
M  V30 2615 C 253.702 -2.17337 -0.776729 0
M  V30 2616 C 254.672 -1.1096 -1.23601 0
M  V30 2617 O 255.857 -1.39054 -1.30647 0
M  V30 2618 C 252.997 -2.80822 -2.00582 0
M  V30 2619 C 252.11 -4.01624 -1.59129 0
M  V30 2620 C 251.245 -4.53072 -2.77306 0
M  V30 2621 C 250.284 -5.66314 -2.32282 0
M  V30 2622 N 249.421 -6.12329 -3.43508 0
M  V30 2623 H 254.261 -2.96918 -0.253701 0
M  V30 2624 H 251.798 -1.46661 -0.113504 0
M  V30 2625 H 253.756 -3.15779 -2.72652 0
M  V30 2626 H 252.386 -2.03866 -2.50277 0
M  V30 2627 H 251.438 -3.72571 -0.767806 0
M  V30 2628 H 252.75 -4.83633 -1.2207 0
M  V30 2629 H 251.904 -4.90145 -3.57551 0
M  V30 2630 H 250.643 -3.70095 -3.17617 0
M  V30 2631 H 249.648 -5.28806 -1.5048 0
M  V30 2632 H 250.873 -6.51085 -1.93043 0
M  V30 2633 H 248.819 -5.32284 -3.83418 0
M  V30 2634 H 248.736 -6.89293 -3.105 0
M  V30 2635 H 250.004 -6.5405 -4.24075 0
M  V30 2636 N 254.233 0.115231 -1.57178 0
M  V30 2637 C 255.51 0.852873 -1.76027 0
M  V30 2638 C 255.89 1.97892 -0.73498 0
M  V30 2639 O 255.238 2.27232 0.24036 0
M  V30 2640 C 255.448 1.36608 -3.21153 0
M  V30 2641 C 256.796 1.81692 -3.83762 0
M  V30 2642 O 257.82 1.46278 -3.24779 0
M  V30 2643 O 256.679 2.47104 -4.87444 0
M  V30 2644 H 253.773 0.405296 -0.720877 0
M  V30 2645 H 256.319 0.0986785 -1.69413 0
M  V30 2646 H 255.091 0.558357 -3.87296 0
M  V30 2647 H 254.714 2.18287 -3.3232 0
M  V30 2648 N 255.711 1.52812 0.385517 0
M  V30 2649 C 256.621 1.80766 1.49535 0
M  V30 2650 C 257.637 0.694651 1.59532 0
M  V30 2651 O 258.813 0.982611 1.75803 0
M  V30 2652 C 255.878 1.97381 2.85029 0
M  V30 2653 C 254.939 3.21295 2.84724 0
M  V30 2654 C 254.172 3.37108 4.13756 0
M  V30 2655 O 254.395 2.5765 5.08893 0
M  V30 2656 O 253.329 4.30378 4.20783 0
M  V30 2657 H 257.155 2.75015 1.28842 0
M  V30 2658 H 254.74 1.37946 0.573697 0
M  V30 2659 H 256.622 2.09996 3.65349 0
M  V30 2660 H 255.297 1.06322 3.05741 0
M  V30 2661 H 254.204 3.1412 2.03174 0
M  V30 2662 H 255.537 4.12212 2.68965 0
M  V30 2663 N 257.189 -0.644168 1.43834 0
M  V30 2664 C 258.137 -1.77793 1.49974 0
M  V30 2665 C 259.131 -1.65253 0.372536 0
M  V30 2666 O 260.337 -1.7149 0.546924 0
M  V30 2667 H 256.712 -0.58675 0.47035 0
M  V30 2668 H 258.683 -1.69736 2.45423 0
M  V30 2669 C 257.432 -3.16087 1.4486 0
M  V30 2670 H 256.755 -3.26378 2.30905 0
M  V30 2671 H 258.195 -3.95349 1.53217 0
M  V30 2672 C 256.654 -3.36484 0.167463 0
M  V30 2673 O 257.184 -3.94298 -0.767609 0
M  V30 2674 N 255.39 -2.90504 0.0747556 0
M  V30 2675 H 254.937 -2.4364 0.836507 0
M  V30 2676 H 254.895 -3.04527 -0.781714 0
M  V30 2677 N 258.668 -1.30515 -0.883378 0
M  V30 2678 C 259.598 -1.19607 -2.00541 0
M  V30 2679 C 260.579 -0.086346 -1.69881 0
M  V30 2680 O 261.764 -0.268654 -1.92333 0
M  V30 2681 C 258.894 -0.888758 -3.35736 0
M  V30 2682 C 257.848 -1.95659 -3.8066 0
M  V30 2683 C 257.174 -1.50224 -5.13164 0
M  V30 2684 C 258.474 -3.36788 -3.99213 0
M  V30 2685 H 260.168 -2.13476 -2.09925 0
M  V30 2686 H 257.714 -1.02775 -1.00863 0
M  V30 2687 H 259.667 -0.799094 -4.13754 0
M  V30 2688 H 258.391 0.0856125 -3.26488 0
M  V30 2689 H 257.05 -2.03591 -3.04871 0
M  V30 2690 H 256.698 -0.516092 -5.00345 0
M  V30 2691 H 256.398 -2.2165 -5.44192 0
M  V30 2692 H 257.922 -1.42639 -5.93706 0
M  V30 2693 H 259.336 -3.31605 -4.67665 0
M  V30 2694 H 257.733 -4.06314 -4.41621 0
M  V30 2695 H 258.803 -3.78561 -3.03017 0
M  V30 2696 N 260.146 1.09593 -1.13257 0
M  V30 2697 C 261.076 2.18214 -0.830946 0
M  V30 2698 C 262.057 1.68812 0.208966 0
M  V30 2699 O 263.242 1.9408 0.0682666 0
M  V30 2700 C 260.372 3.46051 -0.294296 0
M  V30 2701 C 259.326 4.08778 -1.26826 0
M  V30 2702 C 258.652 5.31419 -0.591449 0
M  V30 2703 C 259.952 4.51476 -2.62615 0
M  V30 2704 H 261.646 2.43703 -1.73923 0
M  V30 2705 H 259.192 1.17128 -0.837675 0
M  V30 2706 H 261.145 4.2134 -0.0709606 0
M  V30 2707 H 259.869 3.20079 0.649366 0
M  V30 2708 H 258.528 3.35505 -1.47756 0
M  V30 2709 H 258.176 5.01727 0.357633 0
M  V30 2710 H 257.876 5.74341 -1.24123 0
M  V30 2711 H 259.4 6.09433 -0.377355 0
M  V30 2712 H 260.814 5.17999 -2.45663 0
M  V30 2713 H 259.211 5.05277 -3.23752 0
M  V30 2714 H 260.281 3.63962 -3.20406 0
M  V30 2715 N 261.624 0.925811 1.2754 0
M  V30 2716 C 262.87 0.566092 1.94739 0
M  V30 2717 C 263.203 -0.890057 1.72603 0
M  V30 2718 O 262.478 -1.63467 1.05399 0
M  V30 2719 C 262.761 0.89054 3.48915 0
M  V30 2720 C 262.614 2.4003 3.80402 0
M  V30 2721 C 263.933 0.395101 4.38323 0
M  V30 2722 H 261.052 0.20714 0.707292 0
M  V30 2723 H 263.694 1.15725 1.50691 0
M  V30 2724 H 261.844 0.387452 3.86563 0
M  V30 2725 H 263.516 2.97494 3.52555 0
M  V30 2726 H 261.759 2.85028 3.2702 0
M  V30 2727 H 262.43 2.57785 4.8811 0
M  V30 2728 H 264.906 0.826241 4.07814 0
M  V30 2729 H 263.782 0.651086 5.45025 0
M  V30 2730 H 264.043 -0.704798 4.36446 0
M  V30 2731 N 263.102 -1.41638 0.69111 0
M  V30 2732 C 264.379 -1.95036 0.148421 0
M  V30 2733 C 264.759 -1.63072 -1.34055 0
M  V30 2734 O 264.107 -0.93538 -2.08478 0
M  V30 2735 C 264.317 -3.46279 0.434951 0
M  V30 2736 C 265.665 -4.23069 0.360275 0
M  V30 2737 O 266.689 -3.54277 0.369613 0
M  V30 2738 O 265.548 -5.45583 0.316534 0
M  V30 2739 H 262.642 -0.826908 0.0123654 0
M  V30 2740 H 265.188 -1.5138 0.766963 0
M  V30 2741 H 263.96 -3.6281 1.46576 0
M  V30 2742 H 263.583 -3.97019 -0.214787 0
M  V30 2743 N 264.58 -0.43555 -1.51462 0
M  V30 2744 C 265.51 0.367376 -2.30592 0
M  V30 2745 C 266.491 1.02263 -1.35928 0
M  V30 2746 O 267.676 1.02661 -1.64847 0
M  V30 2747 C 264.806 1.46983 -3.14664 0
M  V30 2748 C 263.76 0.938161 -4.17591 0
M  V30 2749 C 263.086 2.13622 -4.90173 0
M  V30 2750 C 264.386 -0.0261621 -5.22293 0
M  V30 2751 H 266.08 -0.292969 -2.97963 0
M  V30 2752 H 263.626 -0.14234 -1.43295 0
M  V30 2753 H 265.579 2.03873 -3.688 0
M  V30 2754 H 264.303 2.15843 -2.4511 0
M  V30 2755 H 262.962 0.391481 -3.64504 0
M  V30 2756 H 262.61 2.81098 -4.17124 0
M  V30 2757 H 262.31 1.78688 -5.59772 0
M  V30 2758 H 263.834 2.7107 -5.47132 0
M  V30 2759 H 265.248 0.452384 -5.71512 0
M  V30 2760 H 263.645 -0.287992 -5.99409 0
M  V30 2761 H 264.715 -0.963391 -4.75233 0
M  V30 2762 N 266.058 1.56714 -0.166846 0
M  V30 2763 C 267.474 1.58473 0.189372 0
M  V30 2764 C 267.674 1.18201 1.63189 0
M  V30 2765 O 266.73 0.891528 2.36237 0
M  V30 2766 C 268.043 3.00573 -0.0873872 0
M  V30 2767 C 269.591 3.1299 -0.0252443 0
M  V30 2768 C 270.066 4.57174 -0.274934 0
M  V30 2769 N 271.557 4.62665 -0.222553 0
M  V30 2770 C 272.292 5.72072 -0.389985 0
M  V30 2771 N 271.788 6.90054 -0.616229 0
M  V30 2772 N 273.581 5.61153 -0.326202 0
M  V30 2773 H 265.732 1.8118 -1.10849 0
M  V30 2774 H 267.995 0.839525 -0.440342 0
M  V30 2775 H 267.701 3.34497 -1.0865 0
M  V30 2776 H 267.575 3.72019 0.623037 0
M  V30 2777 H 269.962 2.78895 0.96444 0
M  V30 2778 H 270.043 2.43989 -0.768309 0
M  V30 2779 H 269.687 4.91976 -1.26181 0
M  V30 2780 H 269.617 5.24328 0.48869 0
M  V30 2781 H 272.108 3.77863 -0.0531512 0
M  V30 2782 H 272.421 7.69311 -0.733559 0
M  V30 2783 H 270.766 6.91927 -0.652791 0
M  V30 2784 H 273.957 4.67859 -0.150072 0
M  V30 2785 H 274.13 6.46364 -0.460116 0
M  V30 2786 N 267.536 -0.106894 1.57237 0
M  V30 2787 C 268.761 -0.830287 1.90055 0
M  V30 2788 C 269.186 -1.72064 0.75998 0
M  V30 2789 O 268.544 -1.78982 -0.288991 0
M  V30 2790 C 268.592 -1.6295 3.21683 0
M  V30 2791 O 267.696 -2.73748 3.08441 0
M  V30 2792 H 267.037 -0.228855 0.623315 0
M  V30 2793 H 269.567 -0.085658 2.04421 0
M  V30 2794 H 269.577 -2.01621 3.54701 0
M  V30 2795 H 268.252 -0.975989 4.04286 0
M  V30 2796 H 266.829 -2.38192 2.86913 0
M  V30 2797 N 269.014 -1.53014 -0.377408 0
M  V30 2798 C 270.262 -1.6829 -1.11906 0
M  V30 2799 C 270.583 -0.431206 -1.90173 0
M  V30 2800 O 269.853 0.554595 -1.87886 0
M  V30 2801 H 268.433 -0.620371 -0.416112 0
M  V30 2802 H 271.095 -1.90167 -0.426893 0
M  V30 2803 H 270.191 -2.53862 -1.8155 0
M  V30 2804 N 270.492 0.636531 -1.44174 0
M  V30 2805 C 271.402 1.77754 -1.53103 0
M  V30 2806 C 272.418 1.68928 -0.417034 0
M  V30 2807 O 273.594 1.89801 -0.6736 0
M  V30 2808 C 270.659 3.14115 -1.46741 0
M  V30 2809 C 269.72 3.34612 -2.68948 0
M  V30 2810 C 268.953 4.64467 -2.6288 0
M  V30 2811 O 269.176 5.44919 -1.68581 0
M  V30 2812 O 268.11 4.87049 -3.53648 0
M  V30 2813 H 271.936 1.73174 -2.49489 0
M  V30 2814 H 269.521 0.79709 -1.2636 0
M  V30 2815 H 271.403 3.95412 -1.45696 0
M  V30 2816 H 270.078 3.19249 -0.534975 0
M  V30 2817 H 268.985 2.53014 -2.75562 0
M  V30 2818 H 270.318 3.34336 -3.61221 0
M  V30 2819 N 271.97 1.30982 0.876444 0
M  V30 2820 C 272.9 1.20668 1.99903 0
M  V30 2821 C 273.881 0.095354 1.69833 0
M  V30 2822 O 275.066 0.27885 1.92188 0
M  V30 2823 C 272.196 0.90655 3.3526 0
M  V30 2824 C 271.15 1.97675 3.79617 0
M  V30 2825 C 270.476 1.52943 5.1236 0
M  V30 2826 C 271.776 3.389 3.97422 0
M  V30 2827 H 273.47 2.14586 2.0879 0
M  V30 2828 H 271.016 1.03308 1.00317 0
M  V30 2829 H 272.969 0.821025 4.13324 0
M  V30 2830 H 271.693 -0.0682969 3.26529 0
M  V30 2831 H 270.352 2.05205 3.03787 0
M  V30 2832 H 270 0.54262 5.00065 0
M  V30 2833 H 269.7 2.24532 5.43009 0
M  V30 2834 H 271.224 1.45786 5.92941 0
M  V30 2835 H 272.638 3.34081 4.659 0
M  V30 2836 H 271.035 4.0865 4.3946 0
M  V30 2837 H 272.105 3.80163 3.01006 0
M  V30 2838 N 273.449 -1.08991 1.13837 0
M  V30 2839 C 274.396 -2.15748 0.819835 0
M  V30 2840 C 275.366 -1.64636 -0.220026 0
M  V30 2841 O 276.551 -1.90582 -0.0912757 0
M  V30 2842 C 273.691 -3.4382 0.296913 0
M  V30 2843 C 272.804 -4.0881 1.39636 0
M  V30 2844 C 271.939 -5.24655 0.831314 0
M  V30 2845 C 270.978 -5.81575 1.90886 0
M  V30 2846 N 270.115 -6.88774 1.36142 0
M  V30 2847 H 274.955 -2.42338 1.73426 0
M  V30 2848 H 272.492 -1.18935 0.865613 0
M  V30 2849 H 274.45 -4.17193 -0.0244339 0
M  V30 2850 H 273.08 -3.17535 -0.580628 0
M  V30 2851 H 272.132 -3.33258 1.83422 0
M  V30 2852 H 273.444 -4.47141 2.21058 0
M  V30 2853 H 272.598 -6.04942 0.461515 0
M  V30 2854 H 271.337 -4.87698 -0.013932 0
M  V30 2855 H 270.342 -4.99946 2.28767 0
M  V30 2856 H 271.567 -6.20592 2.75758 0
M  V30 2857 H 269.513 -6.53788 0.538254 0
M  V30 2858 H 269.43 -7.25898 2.11208 0
M  V30 2859 H 270.698 -7.72806 1.01933 0
M  V30 2860 N 274.927 -0.932562 -1.27047 0
M  V30 2861 C 275.857 -0.452902 -2.29066 0
M  V30 2862 C 276.838 0.489338 -1.62909 0
M  V30 2863 O 278.023 0.393046 -1.90181 0
M  V30 2864 C 275.153 0.290698 -3.46081 0
M  V30 2865 C 274.107 -0.564168 -4.24265 0
M  V30 2866 C 273.433 0.308886 -5.33807 0
M  V30 2867 C 274.733 -1.83112 -4.89149 0
M  V30 2868 H 276.427 -1.30552 -2.69437 0
M  V30 2869 H 273.973 -0.629201 -1.29526 0
M  V30 2870 H 275.926 0.637233 -4.16554 0
M  V30 2871 H 274.65 1.17738 -3.0464 0
M  V30 2872 H 273.309 -0.893477 -3.55545 0
M  V30 2873 H 272.957 1.19467 -4.88607 0
M  V30 2874 H 272.657 -0.259633 -5.87026 0
M  V30 2875 H 274.181 0.650884 -6.07121 0
M  V30 2876 H 275.595 -1.55236 -5.51883 0
M  V30 2877 H 273.992 -2.34353 -5.52448 0
M  V30 2878 H 275.062 -2.54772 -4.12576 0
M  V30 2879 N 276.405 1.4127 -0.698611 0
M  V30 2880 C 277.654 2.00408 -0.227949 0
M  V30 2881 C 277.967 1.55981 1.18023 0
M  V30 2882 O 279.173 2.07699 1.74852 0
M  V30 2883 C 277.629 3.58129 -0.356636 0
M  V30 2884 C 277.237 4.11536 -1.77037 0
M  V30 2885 C 278.981 4.24466 0.0540969 0
M  V30 2886 C 276.888 5.61701 -1.85055 0
M  V30 2887 H 275.818 0.749586 -0.0814657 0
M  V30 2888 H 278.469 1.61713 -0.867249 0
M  V30 2889 H 276.851 3.94442 0.350965 0
M  V30 2890 H 278.025 3.86636 -2.50698 0
M  V30 2891 H 276.34 3.57736 -2.13105 0
M  V30 2892 H 278.937 5.34698 0.0146723 0
M  V30 2893 H 279.28 4.01687 1.09332 0
M  V30 2894 H 279.813 3.93198 -0.603337 0
M  V30 2895 H 276.552 5.89312 -2.8704 0
M  V30 2896 H 276.072 5.88519 -1.15783 0
M  V30 2897 H 277.751 6.26524 -1.61484 0
M  V30 2898 N 277.883 0.443576 1.51229 0
M  V30 2899 C 279.16 -0.181038 1.9476 0
M  V30 2900 C 279.54 -1.59523 1.38259 0
M  V30 2901 O 278.888 -2.2122 0.572198 0
M  V30 2902 C 279.098 -0.152422 3.48667 0
M  V30 2903 C 280.446 -0.354923 4.23114 0
M  V30 2904 O 281.47 -0.230257 3.55455 0
M  V30 2905 O 280.329 -0.603674 5.43156 0
M  V30 2906 H 277.423 -0.1266 0.817252 0
M  V30 2907 H 279.969 0.502004 1.62105 0
M  V30 2908 H 278.741 0.836022 3.82265 0
M  V30 2909 H 278.364 -0.878107 3.87782 0
M  V30 2910 N 279.361 -1.56624 0.175154 0
M  V30 2911 C 280.608 -1.96999 -0.468811 0
M  V30 2912 C 280.936 -1.06129 -1.62994 0
M  V30 2913 O 280.191 -0.0961771 -1.95464 0
M  V30 2914 C 280.49 -3.43419 -0.989864 0
M  V30 2915 C 280.156 -4.50866 0.0557687 0
M  V30 2916 C 278.818 -4.79975 0.343134 0
M  V30 2917 C 281.17 -5.15551 0.765308 0
M  V30 2918 C 278.498 -5.71066 1.34536 0
M  V30 2919 C 280.85 -6.07724 1.75654 0
M  V30 2920 C 279.514 -6.35199 2.05132 0
M  V30 2921 H 278.784 -0.720869 -0.17155 0
M  V30 2922 H 281.431 -1.89616 0.267924 0
M  V30 2923 H 279.736 -3.47772 -1.80449 0
M  V30 2924 H 281.433 -3.72002 -1.49719 0
M  V30 2925 H 278.023 -4.28229 -0.178381 0
M  V30 2926 H 282.207 -4.9317 0.556513 0
M  V30 2927 H 277.463 -5.90635 1.57988 0
M  V30 2928 H 281.637 -6.56912 2.31169 0
M  V30 2929 H 279.264 -7.05584 2.8294 0
M  V30 2930 N 280.839 0.0985539 -1.57292 0
M  V30 2931 C 282.087 0.801092 -1.85545 0
M  V30 2932 C 282.408 1.79438 -0.763353 0
M  V30 2933 O 281.678 1.94763 0.21073 0
M  V30 2934 H 280.258 0.29884 -0.684619 0
M  V30 2935 H 282.92 0.0810064 -1.94732 0
M  V30 2936 H 282.016 1.3338 -2.82163 0
M  V30 2937 N 282.317 1.53212 0.369288 0
M  V30 2938 C 283.542 1.73423 1.1375 0
M  V30 2939 C 283.967 0.460404 1.82378 0
M  V30 2940 O 283.325 -0.585298 1.71592 0
M  V30 2941 C 283.373 2.89769 2.1463 0
M  V30 2942 O 282.477 2.58119 3.21634 0
M  V30 2943 H 281.818 0.576061 0.330227 0
M  V30 2944 H 284.348 2.00083 0.427547 0
M  V30 2945 H 284.358 3.15829 2.58294 0
M  V30 2946 H 283.033 3.8217 1.64071 0
M  V30 2947 H 281.61 2.42864 2.82969 0
M  V30 2948 N 283.795 -0.628877 1.44509 0
M  V30 2949 C 285.043 -1.38565 1.4712 0
M  V30 2950 C 285.364 -1.94712 0.105899 0
M  V30 2951 O 284.634 -1.75912 -0.862079 0
M  V30 2952 H 283.214 -0.514333 0.541729 0
M  V30 2953 H 285.876 -0.740018 1.80305 0
M  V30 2954 H 284.972 -2.21583 2.19789 0
M  V30 2955 N 285.273 -1.31445 -0.869486 0
M  V30 2956 C 286.236 -1.19094 -1.9583 0
M  V30 2957 C 287.236 -0.117906 -1.60367 0
M  V30 2958 O 288.426 -0.367208 -1.70286 0
M  V30 2959 C 285.558 -0.828165 -3.30688 0
M  V30 2960 H 286.751 -2.15842 -2.08212 0
M  V30 2961 H 284.304 -1.15063 -1.05784 0
M  V30 2962 H 285.039 0.138142 -3.24006 0
M  V30 2963 H 284.824 -1.6038 -3.578 0
M  V30 2964 H 286.314 -0.765658 -4.10521 0
M  V30 2965 N 286.751 1.08385 -1.14413 0
M  V30 2966 C 287.681 2.17321 -0.854044 0
M  V30 2967 C 288.662 1.69024 0.191049 0
M  V30 2968 O 289.847 1.94141 0.0476779 0
M  V30 2969 C 286.977 3.45719 -0.330983 0
M  V30 2970 C 285.931 4.07409 -1.31155 0
M  V30 2971 C 285.257 5.30762 -0.64778 0
M  V30 2972 C 286.557 4.48665 -2.67388 0
M  V30 2973 H 288.251 2.41845 -1.76498 0
M  V30 2974 H 285.797 1.16233 -0.850051 0
M  V30 2975 H 287.75 4.21241 -0.115645 0
M  V30 2976 H 286.474 3.2075 0.615381 0
M  V30 2977 H 285.133 3.33919 -1.51306 0
M  V30 2978 H 284.781 5.02078 0.304398 0
M  V30 2979 H 284.481 5.72992 -1.30207 0
M  V30 2980 H 286.005 6.08998 -0.441972 0
M  V30 2981 H 287.419 5.15364 -2.51143 0
M  V30 2982 H 285.816 5.01814 -3.29093 0
M  V30 2983 H 286.886 3.60543 -3.24248 0
M  V30 2984 N 288.23 0.939286 1.26551 0
M  V30 2985 C 289.16 0.465044 2.28822 0
M  V30 2986 C 290.141 -0.480692 1.63167 0
M  V30 2987 O 291.326 -0.382955 1.90387 0
M  V30 2988 C 288.456 -0.27234 3.46231 0
M  V30 2989 C 287.41 0.58666 4.2396 0
M  V30 2990 C 286.736 -0.280573 5.33963 0
M  V30 2991 C 288.036 1.85704 4.88171 0
M  V30 2992 H 289.73 1.31979 2.68741 0
M  V30 2993 H 287.276 0.636061 1.29191 0
M  V30 2994 H 289.229 -0.615133 4.16886 0
M  V30 2995 H 287.953 -1.16121 3.0526 0
M  V30 2996 H 286.612 0.91232 3.55067 0
M  V30 2997 H 286.26 -1.16874 4.89234 0
M  V30 2998 H 285.96 0.29076 5.8688 0
M  V30 2999 H 287.484 -0.618678 6.07458 0
M  V30 3000 H 288.898 1.58161 5.51052 0
M  V30 3001 H 287.295 2.37279 5.51197 0
M  V30 3002 H 288.365 2.56957 4.11219 0
M  V30 3003 N 289.708 -1.40897 0.706093 0
M  V30 3004 C 290.655 -2.30751 0.0474474 0
M  V30 3005 C 291.625 -1.47678 -0.76029 0
M  V30 3006 O 292.81 -1.76441 -0.726177 0
M  V30 3007 C 289.95 -3.33815 -0.875309 0
M  V30 3008 C 289.063 -4.31961 -0.0580623 0
M  V30 3009 C 288.198 -5.22093 -0.979425 0
M  V30 3010 C 287.237 -6.11902 -0.155706 0
M  V30 3011 N 286.374 -6.94482 -1.03144 0
M  V30 3012 H 291.214 -2.86513 0.819413 0
M  V30 3013 H 288.751 -1.41102 0.415783 0
M  V30 3014 H 290.709 -3.92129 -1.42446 0
M  V30 3015 H 289.339 -2.79579 -1.61356 0
M  V30 3016 H 288.391 -3.75507 0.608147 0
M  V30 3017 H 289.703 -4.95415 0.580082 0
M  V30 3018 H 288.857 -5.85292 -1.59744 0
M  V30 3019 H 287.596 -4.5889 -1.65141 0
M  V30 3020 H 286.601 -5.47742 0.475309 0
M  V30 3021 H 287.826 -6.77162 0.512635 0
M  V30 3022 H 285.772 -6.33877 -1.68924 0
M  V30 3023 H 285.689 -7.54665 -0.449108 0
M  V30 3024 H 286.957 -7.6214 -1.63593 0
M  V30 3025 N 291.186 -0.45159 -1.50991 0
M  V30 3026 C 292.463 0.170707 -1.94854 0
M  V30 3027 C 292.843 1.58788 -1.39103 0
M  V30 3028 O 292.191 2.20913 -0.583921 0
M  V30 3029 C 292.401 0.133929 -3.48743 0
M  V30 3030 C 293.749 0.33248 -4.23296 0
M  V30 3031 O 294.773 0.211403 -3.55572 0
M  V30 3032 O 293.632 0.57486 -5.43468 0
M  V30 3033 H 290.726 0.122264 -0.817912 0
M  V30 3034 H 293.272 -0.510594 -1.61836 0
M  V30 3035 H 292.044 -0.856283 -3.81816 0
M  V30 3036 H 291.667 0.857529 -3.88242 0
M  V30 3037 N 292.664 1.56529 -0.183458 0
M  V30 3038 C 293.892 2.01623 0.464285 0
M  V30 3039 C 294.307 1.06366 1.55986 0
M  V30 3040 O 293.664 0.0665398 1.82379 0
M  V30 3041 C 293.715 3.46475 1.03139 0
M  V30 3042 O 293.436 4.38095 -0.0204675 0
M  V30 3043 C 294.937 4.0703 1.75617 0
M  V30 3044 H 292.157 0.660596 0.117704 0
M  V30 3045 H 294.701 2.02451 -0.288751 0
M  V30 3046 H 292.856 3.46383 1.73486 0
M  V30 3047 H 293.27 5.22973 0.399952 0
M  V30 3048 H 294.744 5.10271 2.10542 0
M  V30 3049 H 295.221 3.49819 2.65563 0
M  V30 3050 H 295.827 4.1086 1.09882 0
M  V30 3051 N 294.142 -0.090211 1.57342 0
M  V30 3052 C 295.388 -0.793982 1.86611 0
M  V30 3053 C 295.721 -1.78142 0.773252 0
M  V30 3054 O 294.996 -1.93271 -0.218304 0
M  V30 3055 C 295.279 -1.51839 3.26523 0
M  V30 3056 C 295.132 -0.548609 4.46442 0
M  V30 3057 C 296.451 -2.46779 3.64401 0
M  V30 3058 H 293.57 -0.287186 0.678744 0
M  V30 3059 H 296.212 -0.0575076 1.89913 0
M  V30 3060 H 294.362 -2.14617 3.23839 0
M  V30 3061 H 296.034 0.0725513 4.61243 0
M  V30 3062 H 294.277 0.137614 4.33582 0
M  V30 3063 H 294.948 -1.09271 5.41076 0
M  V30 3064 H 297.424 -1.94089 3.68061 0
M  V30 3065 H 296.3 -2.94479 4.63221 0
M  V30 3066 H 296.561 -3.30758 2.93346 0
M  V30 3067 N 295.62 -1.53406 -0.361157 0
M  V30 3068 C 296.85 -1.73465 -1.1222 0
M  V30 3069 C 297.258 -0.465486 -1.83384 0
M  V30 3070 O 296.601 0.571611 -1.7458 0
M  V30 3071 C 296.663 -2.84834 -2.19339 0
M  V30 3072 C 296.327 -4.25038 -1.67903 0
M  V30 3073 C 297.324 -5.07231 -1.14074 0
M  V30 3074 C 295.009 -4.71464 -1.73282 0
M  V30 3075 C 297.003 -6.33942 -0.663068 0
M  V30 3076 C 294.69 -5.98153 -1.25127 0
M  V30 3077 C 295.688 -6.79223 -0.717296 0
M  V30 3078 O 295.376 -8.03533 -0.242865 0
M  V30 3079 H 295.108 -0.583526 -0.341283 0
M  V30 3080 H 297.662 -2.00964 -0.424591 0
M  V30 3081 H 295.892 -2.5282 -2.92607 0
M  V30 3082 H 297.581 -2.9303 -2.80871 0
M  V30 3083 H 298.347 -4.72534 -1.09254 0
M  V30 3084 H 294.226 -4.08432 -2.13786 0
M  V30 3085 H 297.77 -6.97167 -0.245612 0
M  V30 3086 H 293.667 -6.32347 -1.29642 0
M  V30 3087 H 294.435 -8.177 -0.361786 0
M  V30 3088 N 297.098 0.621204 -1.44841 0
M  V30 3089 C 298.326 1.40752 -1.51646 0
M  V30 3090 C 298.741 1.88246 -0.144549 0
M  V30 3091 O 298.098 1.61422 0.851416 0
M  V30 3092 C 298.149 2.62119 -2.4895 0
M  V30 3093 O 297.87 2.16602 -3.80808 0
M  V30 3094 C 299.371 3.55135 -2.65319 0
M  V30 3095 H 296.591 0.431325 -0.514004 0
M  V30 3096 H 299.135 0.758835 -1.899 0
M  V30 3097 H 297.29 3.23058 -2.13805 0
M  V30 3098 H 297.704 2.95358 -4.33433 0
M  V30 3099 H 299.178 4.36874 -3.37409 0
M  V30 3100 H 299.655 4.04592 -1.70886 0
M  V30 3101 H 300.261 3.00058 -3.01405 0
M  V30 3102 N 298.576 1.31904 0.862503 0
M  V30 3103 C 299.853 1.12644 1.59908 0
M  V30 3104 C 300.233 -0.316104 2.0872 0
M  V30 3105 O 299.581 -1.31145 1.87118 0
M  V30 3106 C 299.791 2.1472 2.7513 0
M  V30 3107 C 301.139 2.47637 3.44907 0
M  V30 3108 O 302.163 2.13205 2.85346 0
M  V30 3109 O 301.022 3.06632 4.52371 0
M  V30 3110 H 298.116 0.43416 0.703871 0
M  V30 3111 H 300.662 1.43408 0.907314 0
M  V30 3112 H 299.434 3.1172 2.3653 0
M  V30 3113 H 299.057 1.84905 3.51989 0
M  V30 3114 N 300.054 -1.07777 1.14986 0
M  V30 3115 C 301.301 -1.8029 0.922056 0
M  V30 3116 C 301.629 -1.86531 -0.55105 0
M  V30 3117 O 300.884 -1.34189 -1.42449 0
M  V30 3118 C 301.183 -3.25495 1.47608 0
M  V30 3119 C 300.849 -3.39361 2.96893 0
M  V30 3120 C 299.511 -3.42852 3.37647 0
M  V30 3121 C 301.863 -3.42512 3.92854 0
M  V30 3122 C 299.191 -3.47094 4.73015 0
M  V30 3123 C 301.543 -3.4829 5.28088 0
M  V30 3124 C 300.207 -3.50058 5.68345 0
M  V30 3125 H 299.477 -0.659727 0.337404 0
M  V30 3126 H 302.124 -1.26854 1.43459 0
M  V30 3127 H 300.429 -3.81683 0.88463 0
M  V30 3128 H 302.126 -3.80168 1.27568 0
M  V30 3129 H 298.716 -3.37339 2.64387 0
M  V30 3130 H 302.9 -3.3904 3.62444 0
M  V30 3131 H 298.156 -3.46758 5.03556 0
M  V30 3132 H 302.33 -3.49675 6.02246 0
M  V30 3133 H 299.957 -3.53097 6.73221 0
M  V30 3134 N 301.532 -0.945985 -1.26051 0
M  V30 3135 C 302.809 -0.513816 -1.88731 0
M  V30 3136 C 303.189 1.00872 -1.8544 0
M  V30 3137 O 302.537 1.8708 -1.312 0
M  V30 3138 C 302.747 -1.08062 -3.31849 0
M  V30 3139 C 304.095 -1.1522 -4.08668 0
M  V30 3140 O 305.119 -1.03155 -3.40936 0
M  V30 3141 O 303.978 -1.34044 -5.29806 0
M  V30 3142 H 301.072 -0.168193 -0.809716 0
M  V30 3143 H 303.618 -1.03886 -1.34186 0
M  V30 3144 H 302.39 -2.1241 -3.2863 0
M  V30 3145 H 302.013 -0.538307 -3.93939 0
M  V30 3146 N 303.011 1.40521 -0.713556 0
M  V30 3147 C 304.259 2.00527 -0.251692 0
M  V30 3148 C 304.58 1.56857 1.15848 0
M  V30 3149 O 303.85 0.807127 1.785 0
M  V30 3150 H 302.43 0.741551 -0.0900646 0
M  V30 3151 H 305.092 1.71887 -0.918733 0
M  V30 3152 H 304.188 3.10813 -0.283192 0
M  V30 3153 N 304.489 0.459591 1.5075 0
M  V30 3154 C 305.717 -0.0973749 2.06671 0
M  V30 3155 C 306.132 -1.34524 1.32472 0
M  V30 3156 O 305.489 -1.7827 0.390634 0
M  V30 3157 C 305.54 -0.39714 3.59312 0
M  V30 3158 O 305.261 0.801214 4.30711 0
M  V30 3159 C 306.762 -1.00234 4.31819 0
M  V30 3160 H 303.982 0.00195854 0.670997 0
M  V30 3161 H 306.526 0.645072 1.94059 0
M  V30 3162 H 304.681 -1.08951 3.71764 0
M  V30 3163 H 305.095 0.538857 5.21725 0
M  V30 3164 H 306.569 -1.16193 5.39632 0
M  V30 3165 H 307.046 -1.98939 3.91561 0
M  V30 3166 H 307.652 -0.348699 4.23868 0
M  V30 3167 N 305.967 -1.56429 0.191757 0
M  V30 3168 C 307.383 -1.58754 -0.164137 0
M  V30 3169 C 307.583 -1.20782 -1.61288 0
M  V30 3170 O 306.639 -0.928999 -2.34789 0
M  V30 3171 C 307.952 -3.00396 0.135195 0
M  V30 3172 C 309.5 -3.1291 0.0750351 0
M  V30 3173 C 309.975 -4.56679 0.347632 0
M  V30 3174 N 311.466 -4.62252 0.296131 0
M  V30 3175 C 312.201 -5.71379 0.480948 0
M  V30 3176 N 311.697 -6.88986 0.725933 0
M  V30 3177 N 313.49 -5.60563 0.415435 0
M  V30 3178 H 305.641 -1.79393 1.13718 0
M  V30 3179 H 307.904 -0.832414 0.453643 0
M  V30 3180 H 307.61 -3.32726 1.13958 0
M  V30 3181 H 307.484 -3.72963 -0.563773 0
M  V30 3182 H 309.871 -2.80394 -0.919948 0
M  V30 3183 H 309.952 -2.42736 0.807029 0
M  V30 3184 H 309.596 -4.89907 1.33992 0
M  V30 3185 H 309.526 -5.25039 -0.405212 0
M  V30 3186 H 312.017 -3.7773 0.113259 0
M  V30 3187 H 312.33 -7.68046 0.855857 0
M  V30 3188 H 310.675 -6.90801 0.762788 0
M  V30 3189 H 313.866 -4.67561 0.224486 0
M  V30 3190 H 314.039 -6.45551 0.562889 0
M  V30 3191 N 307.445 0.0818655 -1.57387 0
M  V30 3192 C 308.691 0.784074 -1.8703 0
M  V30 3193 C 309.024 1.77729 -0.782689 0
M  V30 3194 O 308.299 1.93384 0.208051 0
M  V30 3195 C 308.582 1.50105 -3.27323 0
M  V30 3196 C 308.435 0.524925 -4.46727 0
M  V30 3197 C 309.754 2.44843 -3.65705 0
M  V30 3198 H 306.873 0.283582 -0.680257 0
M  V30 3199 H 309.515 0.0474352 -1.89941 0
M  V30 3200 H 307.665 2.12897 -3.24972 0
M  V30 3201 H 309.337 -0.0970111 -4.61198 0
M  V30 3202 H 307.58 -0.160606 -4.33503 0
M  V30 3203 H 308.251 1.064 -5.41648 0
M  V30 3204 H 310.727 1.92135 -3.69085 0
M  V30 3205 H 309.603 2.92018 -4.64776 0
M  V30 3206 H 309.864 3.29197 -2.95096 0
M  V30 3207 N 308.923 1.53595 0.353017 0
M  V30 3208 C 310.153 1.74058 1.11299 0
M  V30 3209 C 310.561 0.475205 1.83135 0
M  V30 3210 O 309.904 -0.562344 1.74881 0
M  V30 3211 C 309.966 2.85994 2.17825 0
M  V30 3212 C 309.63 4.25923 1.65647 0
M  V30 3213 C 310.627 5.07829 1.11383 0
M  V30 3214 C 308.312 4.72377 1.7078 0
M  V30 3215 C 310.306 6.34285 0.629439 0
M  V30 3216 C 307.993 5.98808 1.21953 0
M  V30 3217 C 308.991 6.79594 0.681265 0
M  V30 3218 O 308.679 8.03651 0.200248 0
M  V30 3219 H 308.411 0.585327 0.338183 0
M  V30 3220 H 310.965 2.01186 0.413927 0
M  V30 3221 H 309.195 2.54368 2.91262 0
M  V30 3222 H 310.884 2.94515 2.79313 0
M  V30 3223 H 311.65 4.73107 1.06746 0
M  V30 3224 H 307.529 4.0956 2.11617 0
M  V30 3225 H 311.073 6.97288 0.208636 0
M  V30 3226 H 306.97 6.33026 1.26287 0
M  V30 3227 H 307.738 8.1788 0.318416 0
M  V30 3228 N 310.401 -0.613514 1.45168 0
M  V30 3229 C 311.626 -1.40437 1.52618 0
M  V30 3230 C 312.051 -1.87438 0.157707 0
M  V30 3231 O 311.409 -1.59791 -0.856537 0
M  V30 3232 C 311.457 -2.58894 2.51011 0
M  V30 3233 O 310.561 -3.59326 2.02382 0
M  V30 3234 H 309.902 -0.419506 0.514695 0
M  V30 3235 H 312.432 -0.747215 1.90467 0
M  V30 3236 H 312.442 -3.06214 2.69624 0
M  V30 3237 H 311.117 -2.24032 3.50403 0
M  V30 3238 H 309.694 -3.18695 1.93618 0
M  V30 3239 N 311.879 -1.3236 -0.855495 0
M  V30 3240 C 313.29 -1.2056 -1.42556 0
M  V30 3241 C 313.641 0.182209 -1.95352 0
M  V30 3242 O 312.766 1.08088 -1.87472 0
M  V30 3243 C 313.361 -2.1826 -2.59129 0
M  V30 3244 C 311.92 -2.10351 -3.12137 0
M  V30 3245 C 311.067 -2.06674 -1.84882 0
M  V30 3246 H 314.018 -1.442 -0.662727 0
M  V30 3247 H 314.039 -1.78064 -3.36264 0
M  V30 3248 H 313.551 -3.19257 -2.20673 0
M  V30 3249 H 311.652 -1.12599 -3.55179 0
M  V30 3250 H 311.765 -3.00135 -3.73438 0
M  V30 3251 H 310.129 -1.51901 -2.04446 0
M  V30 3252 H 310.912 -3.09451 -1.48643 0
M  V30 3253 N 313.357 1.07166 -1.15556 0
M  V30 3254 C 314.768 1.6127 -0.940693 0
M  V30 3255 C 315.119 1.89251 0.517551 0
M  V30 3256 O 314.244 1.65937 1.38903 0
M  V30 3257 C 314.839 2.92993 -1.7012 0
M  V30 3258 C 313.398 3.43832 -1.53156 0
M  V30 3259 C 312.545 2.1786 -1.71558 0
M  V30 3260 H 315.496 0.90229 -1.30554 0
M  V30 3261 H 315.517 3.62007 -1.17181 0
M  V30 3262 H 315.029 2.72596 -2.76248 0
M  V30 3263 H 313.13 3.69307 -0.494294 0
M  V30 3264 H 313.243 4.19747 -2.30975 0
M  V30 3265 H 311.607 2.2765 -1.14225 0
M  V30 3266 H 312.39 1.99956 -2.79056 0
M  V30 3267 N 314.835 0.952656 1.25548 0
M  V30 3268 C 315.745 0.47782 2.29682 0
M  V30 3269 C 316.761 -0.453859 1.67977 0
M  V30 3270 O 317.937 -0.330587 1.98668 0
M  V30 3271 C 315.002 -0.238655 3.45878 0
M  V30 3272 C 314.063 0.730994 4.23031 0
M  V30 3273 C 313.296 0.0486165 5.33678 0
M  V30 3274 O 313.519 -1.16612 5.58353 0
M  V30 3275 O 312.453 0.733152 5.97418 0
M  V30 3276 H 316.279 1.34312 2.72386 0
M  V30 3277 H 313.864 0.719026 1.30959 0
M  V30 3278 H 315.746 -0.641774 4.16484 0
M  V30 3279 H 314.421 -1.07916 3.05181 0
M  V30 3280 H 313.328 1.18428 3.5486 0
M  V30 3281 H 314.661 1.53946 4.67506 0
M  V30 3282 N 316.313 -1.40141 0.720998 0
M  V30 3283 C 317.559 -2.01572 0.272075 0
M  V30 3284 C 317.914 -1.5616 -1.12391 0
M  V30 3285 O 317.207 -0.774198 -1.75262 0
M  V30 3286 C 317.401 -3.56165 0.296892 0
M  V30 3287 C 317.23 -4.16584 1.69375 0
M  V30 3288 C 316 -4.49783 2.30269 0
M  V30 3289 C 318.198 -4.41076 2.64493 0
M  V30 3290 N 316.18 -4.95626 3.62254 0
M  V30 3291 C 317.551 -4.88971 3.81192 0
M  V30 3292 C 319.606 -4.23122 2.62435 0
M  V30 3293 C 318.309 -5.20796 4.96149 0
M  V30 3294 C 320.335 -4.56052 3.76524 0
M  V30 3295 C 319.697 -5.04141 4.91956 0
M  V30 3296 H 315.796 -0.768343 0.145511 0
M  V30 3297 H 318.38 -1.70287 0.943959 0
M  V30 3298 H 316.551 -3.86868 -0.344578 0
M  V30 3299 H 318.283 -4.04346 -0.169254 0
M  V30 3300 H 315.038 -4.37101 1.82318 0
M  V30 3301 H 315.462 -5.22923 4.29977 0
M  V30 3302 H 320.104 -3.85158 1.74393 0
M  V30 3303 H 317.822 -5.57672 5.84831 0
M  V30 3304 H 321.408 -4.43796 3.76213 0
M  V30 3305 H 320.288 -5.29142 5.78774 0
M  V30 3306 N 317.792 -0.46758 -1.50504 0
M  V30 3307 C 319.041 0.0902868 -2.01498 0
M  V30 3308 C 319.354 1.411 -1.35463 0
M  V30 3309 O 320.56 2.0536 -1.77594 0
M  V30 3310 C 319.016 0.21142 -3.59278 0
M  V30 3311 C 318.624 -1.10065 -4.34269 0
M  V30 3312 C 320.368 0.721433 -4.18325 0
M  V30 3313 C 318.275 -0.943505 -5.83825 0
M  V30 3314 H 317.205 0.037517 -0.753066 0
M  V30 3315 H 319.856 -0.601943 -1.73346 0
M  V30 3316 H 318.238 0.967352 -3.84003 0
M  V30 3317 H 319.412 -1.86726 -4.21272 0
M  V30 3318 H 317.727 -1.5415 -3.86816 0
M  V30 3319 H 320.324 0.85598 -5.27804 0
M  V30 3320 H 320.667 1.71186 -3.79475 0
M  V30 3321 H 321.2 0.0229843 -3.97793 0
M  V30 3322 H 317.939 -1.90719 -6.27141 0
M  V30 3323 H 317.459 -0.217213 -5.99407 0
M  V30 3324 H 319.138 -0.608715 -6.4413 0
M  V30 3325 N 319.27 1.56325 -0.20005 0
M  V30 3326 C 320.686 1.58839 0.155716 0
M  V30 3327 C 320.886 1.21636 1.60645 0
M  V30 3328 O 319.942 0.941437 2.34293 0
M  V30 3329 C 321.255 3.0032 -0.151124 0
M  V30 3330 C 322.803 3.12866 -0.0916284 0
M  V30 3331 C 323.278 4.56488 -0.371845 0
M  V30 3332 N 324.769 4.62089 -0.320641 0
M  V30 3333 C 325.504 5.71116 -0.511243 0
M  V30 3334 N 325 6.88592 -0.762461 0
M  V30 3335 N 326.793 5.60335 -0.445157 0
M  V30 3336 H 318.944 1.78788 -1.14668 0
M  V30 3337 H 321.207 0.829996 -0.458051 0
M  V30 3338 H 320.913 3.32117 -1.15721 0
M  V30 3339 H 320.787 3.73257 0.543986 0
M  V30 3340 H 323.174 2.80878 0.905065 0
M  V30 3341 H 323.255 2.42304 -0.81989 0
M  V30 3342 H 322.899 4.89189 -1.36588 0
M  V30 3343 H 322.829 5.25246 0.377362 0
M  V30 3344 H 325.32 3.77665 -0.13329 0
M  V30 3345 H 325.633 7.67581 -0.896576 0
M  V30 3346 H 323.978 6.90387 -0.799412 0
M  V30 3347 H 327.169 4.67436 -0.249278 0
M  V30 3348 H 327.342 6.45243 -0.597116 0
M  V30 3349 N 320.748 -0.0735177 1.57428 0
M  V30 3350 C 321.978 -0.78483 1.91112 0
M  V30 3351 C 322.386 -1.71729 0.7941 0
M  V30 3352 O 321.729 -1.82105 -0.241542 0
M  V30 3353 C 321.791 -1.63346 3.20247 0
M  V30 3354 C 321.455 -0.870557 4.48632 0
M  V30 3355 C 322.452 -0.19058 5.19551 0
M  V30 3356 C 320.137 -0.838242 4.95256 0
M  V30 3357 C 322.131 0.511503 6.35344 0
M  V30 3358 C 319.818 -0.132386 6.10957 0
M  V30 3359 C 320.816 0.541288 6.80852 0
M  V30 3360 O 320.504 1.23578 7.94345 0
M  V30 3361 H 320.236 -0.228408 0.636244 0
M  V30 3362 H 322.79 -0.0486039 2.05342 0
M  V30 3363 H 321.02 -2.41245 3.02222 0
M  V30 3364 H 322.709 -2.22329 3.39595 0
M  V30 3365 H 323.475 -0.206864 4.84559 0
M  V30 3366 H 319.354 -1.35206 4.40727 0
M  V30 3367 H 322.898 1.03789 6.89836 0
M  V30 3368 H 318.795 -0.114023 6.45399 0
M  V30 3369 H 319.563 1.14487 8.10454 0
M  V30 3370 N 322.226 -1.5378 -0.344866 0
M  V30 3371 C 323.176 -1.78057 -1.42407 0
M  V30 3372 C 324.16 -0.635732 -1.47808 0
M  V30 3373 O 325.352 -0.89508 -1.527 0
M  V30 3374 C 322.481 -1.99242 -2.79566 0
M  V30 3375 C 321.567 -3.19787 -2.78562 0
M  V30 3376 N 321.958 -4.41284 -2.47189 0
M  V30 3377 C 320.256 -3.2093 -3.0971 0
M  V30 3378 C 320.957 -5.23128 -2.54385 0
M  V30 3379 N 319.933 -4.59813 -2.89953 0
M  V30 3380 H 323.735 -2.69588 -1.17046 0
M  V30 3381 H 321.249 -1.52687 -0.553217 0
M  V30 3382 H 323.246 -2.14768 -3.57324 0
M  V30 3383 H 321.906 -1.08953 -3.05875 0
M  V30 3384 H 322.917 -4.68657 -2.20411 0
M  V30 3385 H 319.594 -2.40603 -3.41199 0
M  V30 3386 H 320.984 -6.30096 -2.333 0
M  V30 3387 N 323.704 0.605807 -1.45491 0
M  V30 3388 C 325.12 0.926751 -1.29936 0
M  V30 3389 C 325.32 1.99896 -0.253706 0
M  V30 3390 O 324.376 2.50038 0.351737 0
M  V30 3391 C 325.689 1.36599 -2.67883 0
M  V30 3392 C 327.237 1.4801 -2.75793 0
M  V30 3393 C 327.712 1.95309 -4.14268 0
M  V30 3394 N 329.203 2.0254 -4.16571 0
M  V30 3395 C 329.938 2.40363 -5.20589 0
M  V30 3396 N 329.434 2.77143 -6.34952 0
M  V30 3397 N 331.227 2.40718 -5.07948 0
M  V30 3398 H 323.378 -0.102862 -2.12151 0
M  V30 3399 H 325.641 0.016639 -0.947854 0
M  V30 3400 H 325.347 0.652306 -3.45598 0
M  V30 3401 H 325.221 2.33215 -2.96463 0
M  V30 3402 H 327.608 2.1847 -1.98381 0
M  V30 3403 H 327.689 0.497041 -2.50925 0
M  V30 3404 H 327.333 1.25436 -4.92167 0
M  V30 3405 H 327.263 2.94532 -4.3653 0
M  V30 3406 H 329.754 1.76699 -3.34045 0
M  V30 3407 H 330.067 3.0489 -7.10114 0
M  V30 3408 H 328.412 2.74834 -6.3835 0
M  V30 3409 H 331.603 2.11392 -4.1765 0
M  V30 3410 H 331.776 2.69869 -5.89131 0
M  V30 3411 N 325.182 1.32811 0.848464 0
M  V30 3412 C 326.412 1.26556 1.63301 0
M  V30 3413 C 326.82 -0.1676 1.88456 0
M  V30 3414 O 326.163 -1.11713 1.45828 0
M  V30 3415 C 326.225 1.96202 3.01239 0
M  V30 3416 C 325.889 3.45528 2.99098 0
M  V30 3417 C 326.886 4.40903 2.75501 0
M  V30 3418 C 324.571 3.87558 3.19537 0
M  V30 3419 C 326.565 5.76282 2.72356 0
M  V30 3420 C 324.252 5.23044 3.16019 0
M  V30 3421 C 325.25 6.17217 2.92458 0
M  V30 3422 O 324.938 7.50223 2.88825 0
M  V30 3423 H 324.67 0.43771 0.515156 0
M  V30 3424 H 327.224 1.7559 1.0657 0
M  V30 3425 H 325.454 1.41746 3.59785 0
M  V30 3426 H 327.143 1.83573 3.62016 0
M  V30 3427 H 327.909 4.09756 2.5947 0
M  V30 3428 H 323.788 3.14674 3.369 0
M  V30 3429 H 327.332 6.4976 2.53886 0
M  V30 3430 H 323.229 5.53818 3.31596 0
M  V30 3431 H 323.997 7.59657 3.04735 0
M  V30 3432 N 326.66 -1.06551 1.16123 0
M  V30 3433 C 327.61 -2.12209 0.833736 0
M  V30 3434 C 328.594 -1.59825 -0.185656 0
M  V30 3435 O 329.786 -1.76994 0.0147906 0
M  V30 3436 C 326.915 -3.41674 0.333697 0
M  V30 3437 C 326.001 -4.00892 1.38372 0
M  V30 3438 N 326.392 -4.34256 2.59337 0
M  V30 3439 C 324.69 -4.28463 1.23836 0
M  V30 3440 C 325.391 -4.81291 3.26701 0
M  V30 3441 N 324.367 -4.80565 2.54083 0
M  V30 3442 H 328.169 -2.35849 1.75364 0
M  V30 3443 H 325.683 -1.24068 1.04789 0
M  V30 3444 H 327.68 -4.16822 0.0806918 0
M  V30 3445 H 326.34 -3.19475 -0.58017 0
M  V30 3446 H 327.351 -4.24687 2.96415 0
M  V30 3447 H 324.028 -4.15721 0.38504 0
M  V30 3448 H 325.418 -5.16332 4.29943 0
M  V30 3449 N 328.138 -0.959301 -1.25041 0
M  V30 3450 C 329.386 -0.615393 -1.92503 0
M  V30 3451 C 329.707 0.850969 -1.75452 0
M  V30 3452 O 328.977 1.60658 -1.12098 0
M  V30 3453 H 327.557 -0.224613 -0.712431 0
M  V30 3454 H 330.219 -1.21855 -1.5211 0
M  V30 3455 H 329.315 -0.848738 -3.00338 0
M  V30 3456 N 329.616 1.39756 -0.72842 0
M  V30 3457 C 331.032 1.5442 -0.403308 0
M  V30 3458 C 331.232 1.69694 1.08656 0
M  V30 3459 O 330.288 1.69373 1.87267 0
M  V30 3460 C 331.601 2.76555 -1.18058 0
M  V30 3461 C 333.149 2.90384 -1.16815 0
M  V30 3462 C 333.624 4.15449 -1.92785 0
M  V30 3463 N 335.115 4.22475 -1.89918 0
M  V30 3464 C 335.85 5.1818 -2.45514 0
M  V30 3465 N 335.346 6.19714 -3.09719 0
M  V30 3466 N 337.139 5.1035 -2.35584 0
M  V30 3467 H 329.29 1.28089 -1.69431 0
M  V30 3468 H 331.553 0.620327 -0.716867 0
M  V30 3469 H 331.259 2.7159 -2.23455 0
M  V30 3470 H 331.133 3.69033 -0.780662 0
M  V30 3471 H 333.52 2.94846 -0.12234 0
M  V30 3472 H 333.601 1.98988 -1.6074 0
M  V30 3473 H 333.245 4.11749 -2.97364 0
M  V30 3474 H 333.175 5.05877 -1.46272 0
M  V30 3475 H 335.666 3.49743 -1.43138 0
M  V30 3476 H 335.979 6.8919 -3.49625 0
M  V30 3477 H 334.324 6.20121 -3.13807 0
M  V30 3478 H 337.515 4.2996 -1.85072 0
M  V30 3479 H 337.688 5.84761 -2.79211 0
M  V30 3480 N 331.094 0.475555 1.50254 0
M  V30 3481 C 332.319 -0.0777042 2.07254 0
M  V30 3482 C 332.744 -1.3235 1.3366 0
M  V30 3483 O 332.102 -1.77152 0.385597 0
M  V30 3484 C 332.15 -0.340169 3.58992 0
M  V30 3485 O 331.254 -1.41982 3.87188 0
M  V30 3486 H 330.595 0.0149556 0.663832 0
M  V30 3487 H 333.125 0.667878 1.93392 0
M  V30 3488 H 333.135 -0.579332 4.03866 0
M  V30 3489 H 331.81 0.570167 4.11973 0
M  V30 3490 H 330.387 -1.16762 3.54148 0
M  V30 3491 N 332.573 -1.56217 0.208337 0
M  V30 3492 C 333.536 -2.18455 -0.693557 0
M  V30 3493 C 334.536 -1.14268 -1.13135 0
M  V30 3494 O 335.726 -1.39577 -1.0423 0
M  V30 3495 C 332.858 -2.79727 -1.94848 0
M  V30 3496 H 334.051 -2.99519 -0.15114 0
M  V30 3497 H 331.604 -1.56245 -0.041287 0
M  V30 3498 H 332.339 -2.02497 -2.53309 0
M  V30 3499 H 332.124 -3.56009 -1.64316 0
M  V30 3500 H 333.614 -3.27475 -2.59133 0
M  V30 3501 N 334.051 0.0651679 -1.57465 0
M  V30 3502 C 335.279 0.775808 -1.91804 0
M  V30 3503 C 335.694 1.70782 -0.804916 0
M  V30 3504 O 335.051 1.81153 0.221311 0
M  V30 3505 C 335.102 1.56381 -3.25925 0
M  V30 3506 O 334.823 0.669248 -4.32958 0
M  V30 3507 C 336.324 2.37485 -3.7432 0
M  V30 3508 H 333.544 0.2202 -0.63384 0
M  V30 3509 H 336.088 0.0334587 -2.04473 0
M  V30 3510 H 334.243 2.25837 -3.14764 0
M  V30 3511 H 334.657 1.21801 -5.10162 0
M  V30 3512 H 336.131 2.88223 -4.70778 0
M  V30 3513 H 336.608 3.17307 -3.03666 0
M  V30 3514 H 337.214 1.73173 -3.88447 0
M  V30 3515 N 335.529 1.53961 0.336706 0
M  V30 3516 C 336.775 1.7179 1.07777 0
M  V30 3517 C 337.108 0.483263 1.88091 0
M  V30 3518 O 336.383 -0.519747 1.87427 0
M  V30 3519 C 336.666 2.98558 2.01334 0
M  V30 3520 C 336.519 4.32245 1.24437 0
M  V30 3521 C 337.838 3.21023 3.01052 0
M  V30 3522 H 334.957 0.625089 0.390426 0
M  V30 3523 H 337.599 1.86641 0.35567 0
M  V30 3524 H 335.749 2.86028 2.62908 0
M  V30 3525 H 337.421 4.56637 0.654243 0
M  V30 3526 H 335.664 4.30344 0.546458 0
M  V30 3527 H 336.335 5.17137 1.93063 0
M  V30 3528 H 338.811 3.32929 2.49595 0
M  V30 3529 H 337.687 4.11104 3.6371 0
M  V30 3530 H 337.948 2.37637 3.72802 0
M  V30 3531 N 337.007 -0.598083 1.45811 0
M  V30 3532 C 338.253 -1.35679 1.51535 0
M  V30 3533 C 338.608 -1.91745 0.15864 0
M  V30 3534 O 337.901 -1.72654 -0.830724 0
M  V30 3535 C 338.095 -2.51669 2.53766 0
M  V30 3536 C 337.924 -2.06963 3.99245 0
M  V30 3537 C 336.694 -1.92693 4.67116 0
M  V30 3538 C 338.892 -1.63855 4.875 0
M  V30 3539 N 336.874 -1.41897 5.97276 0
M  V30 3540 C 338.245 -1.24541 6.07363 0
M  V30 3541 C 340.3 -1.51533 4.74281 0
M  V30 3542 C 339.003 -0.741354 7.15469 0
M  V30 3543 C 341.029 -1.0253 5.82444 0
M  V30 3544 C 340.391 -0.641869 7.01469 0
M  V30 3545 H 336.49 -0.490042 0.609412 0
M  V30 3546 H 339.074 -0.682687 1.82339 0
M  V30 3547 H 337.245 -3.16663 2.24898 0
M  V30 3548 H 338.977 -3.18578 2.4958 0
M  V30 3549 H 335.732 -2.1417 4.22408 0
M  V30 3550 H 336.156 -1.18704 6.66512 0
M  V30 3551 H 340.798 -1.798 3.82664 0
M  V30 3552 H 338.516 -0.446243 8.06867 0
M  V30 3553 H 342.102 -0.934088 5.74253 0
M  V30 3554 H 340.982 -0.268531 7.8374 0
M  V30 3555 N 338.485 -1.33259 -0.841409 0
M  V30 3556 C 339.71 -1.2775 -1.63385 0
M  V30 3557 C 340.135 0.149188 -1.87507 0
M  V30 3558 O 339.493 1.10498 -1.43736 0
M  V30 3559 C 339.541 -2.05571 -2.96265 0
M  V30 3560 O 338.645 -1.41257 -3.87453 0
M  V30 3561 H 337.986 -0.439627 -0.497618 0
M  V30 3562 H 340.516 -1.75782 -1.04699 0
M  V30 3563 H 340.526 -2.16241 -3.45982 0
M  V30 3564 H 339.201 -3.09309 -2.7803 0
M  V30 3565 H 337.778 -1.39217 -3.45938 0
M  V30 3566 N 339.963 1.05934 -1.16686 0
M  V30 3567 C 340.893 2.1546 -0.899949 0
M  V30 3568 C 341.874 1.69391 0.155154 0
M  V30 3569 O 343.059 1.94199 0.00648693 0
M  V30 3570 C 340.189 3.44939 -0.404241 0
M  V30 3571 C 339.143 4.04536 -1.39767 0
M  V30 3572 C 338.469 5.29268 -0.760216 0
M  V30 3573 C 339.769 4.42893 -2.76845 0
M  V30 3574 H 341.463 2.38046 -1.81588 0
M  V30 3575 H 339.009 1.14404 -0.874514 0
M  V30 3576 H 340.962 4.20901 -0.204971 0
M  V30 3577 H 339.686 3.21983 0.547206 0
M  V30 3578 H 338.345 3.30635 -1.58355 0
M  V30 3579 H 337.993 5.02611 0.197831 0
M  V30 3580 H 337.693 5.70101 -1.42332 0
M  V30 3581 H 339.217 6.07924 -0.57105 0
M  V30 3582 H 340.631 5.09921 -2.62019 0
M  V30 3583 H 339.028 4.94721 -3.39663 0
M  V30 3584 H 340.098 3.53584 -3.31823 0
M  V30 3585 N 341.441 0.965919 1.2453 0
M  V30 3586 C 342.689 0.625593 1.92174 0
M  V30 3587 C 343.01 -0.841652 1.75901 0
M  V30 3588 O 342.28 -1.60061 1.12948 0
M  V30 3589 H 340.86 0.228388 0.71123 0
M  V30 3590 H 343.522 1.2266 1.51461 0
M  V30 3591 H 342.618 0.864653 2.99884 0
M  V30 3592 N 342.919 -1.39368 0.735821 0
M  V30 3593 C 344.165 -2.00794 0.284544 0
M  V30 3594 C 344.498 -1.58255 -1.12557 0
M  V30 3595 O 343.773 -0.811819 -1.76748 0
M  V30 3596 C 344.056 -3.58011 0.387337 0
M  V30 3597 C 343.909 -4.10566 1.83728 0
M  V30 3598 C 345.228 -4.395 -0.22975 0
M  V30 3599 H 342.347 -0.729501 0.104866 0
M  V30 3600 H 344.989 -1.65564 0.93213 0
M  V30 3601 H 343.139 -3.88154 -0.164006 0
M  V30 3602 H 344.811 -3.91139 2.44556 0
M  V30 3603 H 343.054 -3.64095 2.35833 0
M  V30 3604 H 343.725 -5.19702 1.86047 0
M  V30 3605 H 346.201 -4.15406 0.240257 0
M  V30 3606 H 345.077 -5.48752 -0.127485 0
M  V30 3607 H 345.338 -4.22062 -1.3159 0
M  V30 3608 N 344.397 -0.483516 -1.5 0
M  V30 3609 C 345.327 0.293829 -2.31644 0
M  V30 3610 C 346.308 0.978864 -1.39112 0
M  V30 3611 O 347.493 0.973644 -1.68029 0
M  V30 3612 C 344.623 1.36897 -3.19181 0
M  V30 3613 C 343.577 0.804833 -4.20365 0
M  V30 3614 C 342.903 1.9792 -4.96721 0
M  V30 3615 C 344.203 -0.192313 -5.21946 0
M  V30 3616 H 345.897 -0.387616 -2.9688 0
M  V30 3617 H 343.443 -0.187856 -1.42769 0
M  V30 3618 H 345.396 1.92037 -3.751 0
M  V30 3619 H 344.12 2.07936 -2.51853 0
M  V30 3620 H 342.779 0.275319 -3.65565 0
M  V30 3621 H 342.427 2.67686 -4.25856 0
M  V30 3622 H 342.127 1.60789 -5.65173 0
M  V30 3623 H 343.651 2.53526 -5.55479 0
M  V30 3624 H 345.065 0.270333 -5.72662 0
M  V30 3625 H 343.462 -0.478543 -5.98189 0
M  V30 3626 H 344.532 -1.11409 -4.71928 0
M  V30 3627 N 345.875 1.56104 -0.216619 0
M  V30 3628 C 346.805 2.23063 0.690296 0
M  V30 3629 C 347.786 1.20072 1.20485 0
M  V30 3630 O 348.971 1.48643 1.24976 0
M  V30 3631 C 346.101 2.90672 1.90072 0
M  V30 3632 C 345.055 4.00092 1.5202 0
M  V30 3633 C 344.381 4.54972 2.80899 0
M  V30 3634 C 345.681 5.17398 0.71391 0
M  V30 3635 H 347.375 2.99109 0.132038 0
M  V30 3636 H 344.921 1.43866 0.0620664 0
M  V30 3637 H 346.874 3.36204 2.54057 0
M  V30 3638 H 345.598 2.12066 2.48386 0
M  V30 3639 H 344.257 3.55283 0.903839 0
M  V30 3640 H 343.905 3.73102 3.37348 0
M  V30 3641 H 343.605 5.28817 2.56176 0
M  V30 3642 H 345.129 5.0322 3.45836 0
M  V30 3643 H 346.543 5.59342 1.25735 0
M  V30 3644 H 344.94 5.97444 0.563951 0
M  V30 3645 H 346.01 4.84088 -0.280527 0
M  V30 3646 N 347.353 -0.0568162 1.57498 0
M  V30 3647 C 348.583 -0.764515 1.91934 0
M  V30 3648 C 348.991 -1.70877 0.81227 0
M  V30 3649 O 348.334 -1.82351 -0.222213 0
M  V30 3650 C 348.396 -1.5994 3.21962 0
M  V30 3651 C 348.06 -0.822925 4.4953 0
M  V30 3652 C 349.057 -0.135464 5.19723 0
M  V30 3653 C 346.742 -0.785666 4.96117 0
M  V30 3654 C 348.736 0.578861 6.34766 0
M  V30 3655 C 346.423 -0.0675784 6.11063 0
M  V30 3656 C 347.421 0.613471 6.80239 0
M  V30 3657 O 347.109 1.31996 7.92989 0
M  V30 3658 H 346.841 -0.221647 0.63863 0
M  V30 3659 H 349.395 -0.0268218 2.05382 0
M  V30 3660 H 347.625 -2.38026 3.04763 0
M  V30 3661 H 349.314 -2.18715 3.41934 0
M  V30 3662 H 350.08 -0.155458 4.84751 0
M  V30 3663 H 345.959 -1.30524 4.42136 0
M  V30 3664 H 349.503 1.111 6.88696 0
M  V30 3665 H 345.4 -0.0455636 6.45484 0
M  V30 3666 H 346.168 1.23077 8.09194 0
M  V30 3667 N 348.832 -1.54138 -0.328536 0
M  V30 3668 C 350.109 -1.62749 -1.08499 0
M  V30 3669 C 350.489 -0.458198 -2.06067 0
M  V30 3670 O 349.837 0.548046 -2.2183 0
M  V30 3671 C 350.047 -2.99519 -1.79135 0
M  V30 3672 C 351.395 -3.55394 -2.32337 0
M  V30 3673 O 352.419 -3.01792 -1.89209 0
M  V30 3674 O 351.278 -4.49186 -3.11279 0
M  V30 3675 H 348.372 -0.65886 -0.499832 0
M  V30 3676 H 350.918 -1.66484 -0.328826 0
M  V30 3677 H 349.69 -3.76061 -1.08139 0
M  V30 3678 H 349.313 -2.99441 -2.61574 0
M  V30 3679 N 350.31 0.590341 -1.46126 0
M  V30 3680 C 351.243 1.71434 -1.50617 0
M  V30 3681 C 352.221 1.58543 -0.360948 0
M  V30 3682 O 353.405 1.79865 -0.563985 0
M  V30 3683 C 350.532 3.09422 -1.37753 0
M  V30 3684 C 349.578 3.40854 -2.5636 0
M  V30 3685 S 350.411 3.33773 -4.18755 0
M  V30 3686 C 351.567 4.74312 -4.08386 0
M  V30 3687 H 351.8 1.67364 -2.45717 0
M  V30 3688 H 349.333 0.76845 -1.33919 0
M  V30 3689 H 351.291 3.8903 -1.31018 0
M  V30 3690 H 349.952 3.10989 -0.440949 0
M  V30 3691 H 349.145 4.41368 -2.43332 0
M  V30 3692 H 348.747 2.68798 -2.60046 0
M  V30 3693 H 351.039 5.64522 -3.74595 0
M  V30 3694 H 351.982 4.92397 -5.08872 0
M  V30 3695 H 352.39 4.50803 -3.3976 0
M  V30 3696 N 351.788 1.33704 0.83433 0
M  V30 3697 C 353.034 1.25603 1.59222 0
M  V30 3698 C 353.367 -0.176659 1.93395 0
M  V30 3699 O 352.642 -1.11915 1.59076 0
M  V30 3700 C 352.925 2.13576 2.89926 0
M  V30 3701 C 352.778 3.65326 2.62406 0
M  V30 3702 C 354.097 2.01238 3.91397 0
M  V30 3703 H 351.216 0.457613 0.577719 0
M  V30 3704 H 353.858 1.63848 0.961972 0
M  V30 3705 H 352.008 1.8109 3.43713 0
M  V30 3706 H 353.68 4.08124 2.15017 0
M  V30 3707 H 351.923 3.8698 1.96033 0
M  V30 3708 H 352.594 4.22232 3.55562 0
M  V30 3709 H 355.07 2.29738 3.46929 0
M  V30 3710 H 353.946 2.65036 4.80673 0
M  V30 3711 H 354.207 0.985951 4.30966 0
M  V30 3712 N 353.266 -1.05314 1.17247 0
M  V30 3713 C 354.506 -1.79869 0.970898 0
M  V30 3714 C 354.87 -1.85594 -0.491808 0
M  V30 3715 O 356.071 -2.56229 -0.812409 0
M  V30 3716 C 354.342 -3.19937 1.59295 0
M  V30 3717 S 355.901 -4.10986 1.53741 0
M  V30 3718 H 352.719 -0.61949 0.348931 0
M  V30 3719 H 355.321 -1.26368 1.49169 0
M  V30 3720 H 354.025 -3.13372 2.65003 0
M  V30 3721 H 353.556 -3.78515 1.07191 0
M  V30 3722 H 355.571 -4.93203 0.544537 0
M  V30 3723 N 354.744 -0.972509 -1.24016 0
M  V30 3724 C 355.992 -0.635776 -1.91839 0
M  V30 3725 C 356.313 0.832312 -1.76345 0
M  V30 3726 O 355.583 1.5946 -1.13795 0
M  V30 3727 H 354.163 -0.232157 -0.710009 0
M  V30 3728 H 356.825 -1.23462 -1.50809 0
M  V30 3729 H 355.921 -0.880545 -2.99421 0
M  V30 3730 N 356.222 1.38976 -0.743202 0
M  V30 3731 C 357.499 1.94351 -0.220705 0
M  V30 3732 C 357.879 1.67935 1.2791 0
M  V30 3733 O 357.227 1.01211 2.04862 0
M  V30 3734 C 357.437 3.44426 -0.563171 0
M  V30 3735 C 358.785 4.2144 -0.517046 0
M  V30 3736 O 359.809 3.52661 -0.500846 0
M  V30 3737 O 358.668 5.44032 -0.518806 0
M  V30 3738 H 355.762 0.825879 -0.043047 0
M  V30 3739 H 358.308 1.48429 -0.822618 0
M  V30 3740 H 357.08 3.5712 -1.59941 0
M  V30 3741 H 356.703 3.97543 0.0672883 0
M  V30 3742 N 357.7 0.491464 1.49741 0
M  V30 3743 C 358.949 -0.0582189 2.01616 0
M  V30 3744 C 359.262 -1.38927 1.3769 0
M  V30 3745 O 360.468 -2.02509 1.80838 0
M  V30 3746 C 358.924 -0.154235 3.59569 0
M  V30 3747 C 358.532 1.1696 4.32463 0
M  V30 3748 C 360.276 -0.65479 4.1942 0
M  V30 3749 C 358.183 1.03627 5.8225 0
M  V30 3750 H 357.113 -0.0255317 0.753568 0
M  V30 3751 H 359.764 0.629445 1.72367 0
M  V30 3752 H 358.146 -0.906138 3.85493 0
M  V30 3753 H 359.32 1.93405 4.18248 0
M  V30 3754 H 357.635 1.60285 3.84315 0
M  V30 3755 H 360.232 -0.771903 5.29099 0
M  V30 3756 H 360.575 -1.65127 3.8215 0
M  V30 3757 H 361.108 0.040304 3.9778 0
M  V30 3758 H 357.847 2.00672 6.24028 0
M  V30 3759 H 357.367 0.312546 5.98985 0
M  V30 3760 H 359.046 0.711114 6.4308 0
M  V30 3761 N 359.178 -1.55987 0.224894 0
M  V30 3762 C 360.589 -1.84553 -0.282345 0
M  V30 3763 C 360.94 -1.14634 -1.59227 0
M  V30 3764 O 360.065 -0.417155 -2.12341 0
M  V30 3765 C 360.66 -3.348 -0.519062 0
M  V30 3766 C 359.219 -3.63671 -0.970604 0
M  V30 3767 C 358.366 -2.77277 -0.0355261 0
M  V30 3768 H 361.317 -1.52245 0.448006 0
M  V30 3769 H 361.338 -3.55187 -1.36463 0
M  V30 3770 H 360.85 -3.8566 0.43449 0
M  V30 3771 H 358.951 -3.1827 -1.9374 0
M  V30 3772 H 359.064 -4.71631 -0.842698 0
M  V30 3773 H 357.428 -2.48846 -0.542927 0
M  V30 3774 H 358.211 -3.30937 0.913003 0
M  V30 3775 N 360.656 0.0484629 -1.57525 0
M  V30 3776 C 361.903 0.743125 -1.88372 0
M  V30 3777 C 362.231 1.76383 -0.819715 0
M  V30 3778 O 361.486 1.94855 0.181659 0
M  V30 3779 C 361.785 1.46632 -3.25935 0
M  V30 3780 C 361.451 0.583427 -4.4711 0
M  V30 3781 C 360.113 0.340191 -4.79996 0
M  V30 3782 C 362.465 -0.0273345 -5.21193 0
M  V30 3783 C 359.793 -0.522903 -5.84365 0
M  V30 3784 C 362.145 -0.878017 -6.26477 0
M  V30 3785 C 360.809 -1.1309 -6.5785 0
M  V30 3786 H 360.079 0.271929 -0.689301 0
M  V30 3787 H 362.726 0.00336166 -1.915 0
M  V30 3788 H 361.031 2.2789 -3.18706 0
M  V30 3789 H 362.728 2.00902 -3.47044 0
M  V30 3790 H 359.318 0.783151 -4.21384 0
M  V30 3791 H 363.502 0.147654 -4.9608 0
M  V30 3792 H 358.758 -0.727335 -6.07058 0
M  V30 3793 H 362.932 -1.35789 -6.83033 0
M  V30 3794 H 360.559 -1.80144 -7.38547 0
M  V30 3795 N 362.134 1.5431 0.320358 0
M  V30 3796 C 363.044 1.86946 1.41734 0
M  V30 3797 C 364.06 0.761689 1.56443 0
M  V30 3798 O 365.236 1.05629 1.71477 0
M  V30 3799 C 362.301 2.09293 2.76401 0
M  V30 3800 C 361.362 3.33082 2.70841 0
M  V30 3801 C 360.595 3.54353 3.99086 0
M  V30 3802 O 360.818 2.79002 4.97508 0
M  V30 3803 O 359.752 4.47838 4.0215 0
M  V30 3804 H 363.578 2.80232 1.17062 0
M  V30 3805 H 361.163 1.40255 0.514673 0
M  V30 3806 H 363.045 2.25303 3.56113 0
M  V30 3807 H 361.72 1.19194 3.00956 0
M  V30 3808 H 360.627 3.22454 1.89668 0
M  V30 3809 H 361.96 4.23249 2.5124 0
M  V30 3810 N 363.613 -0.582584 1.46437 0
M  V30 3811 C 364.545 -1.70618 1.53043 0
M  V30 3812 C 365.558 -1.57322 0.418769 0
M  V30 3813 O 366.747 -1.64744 0.687136 0
M  V30 3814 C 363.847 -3.08869 1.39474 0
M  V30 3815 C 363.02 -3.48166 2.64762 0
M  V30 3816 C 362.079 -4.65478 2.4539 0
M  V30 3817 O 361.105 -4.71333 3.19114 0
M  V30 3818 N 362.307 -5.60365 1.51564 0
M  V30 3819 H 365.072 -1.65405 2.49923 0
M  V30 3820 H 362.633 -0.768567 1.42494 0
M  V30 3821 H 364.625 -3.85143 1.24287 0
M  V30 3822 H 363.195 -3.08449 0.507758 0
M  V30 3823 H 362.415 -2.61598 2.9489 0
M  V30 3824 H 363.703 -3.71188 3.4799 0
M  V30 3825 H 363.101 -5.5837 0.907705 0
M  V30 3826 H 361.658 -6.36068 1.4234 0
M  V30 3827 N 365.091 -1.34144 -0.827227 0
M  V30 3828 C 366.368 -1.16844 -1.56865 0
M  V30 3829 C 366.748 0.260654 -2.09485 0
M  V30 3830 O 366.096 1.26138 -1.9053 0
M  V30 3831 C 366.306 -2.21939 -2.6934 0
M  V30 3832 C 367.654 -2.56695 -3.3822 0
M  V30 3833 O 368.678 -2.20695 -2.79593 0
M  V30 3834 O 367.537 -3.18518 -4.44082 0
M  V30 3835 H 364.631 -0.452669 -0.692112 0
M  V30 3836 H 367.177 -1.45763 -0.868973 0
M  V30 3837 H 365.949 -3.17882 -2.28182 0
M  V30 3838 H 365.572 -1.94172 -3.46962 0
M  V30 3839 N 366.569 1.04691 -1.17803 0
M  V30 3840 C 367.479 2.16057 -0.914151 0
M  V30 3841 C 368.495 1.73589 0.119503 0
M  V30 3842 O 369.671 2.01308 -0.0609468 0
M  V30 3843 C 366.736 3.4394 -0.436603 0
M  V30 3844 C 365.797 4.00825 -1.53746 0
M  V30 3845 C 365.03 5.22604 -1.0826 0
M  V30 3846 O 365.253 5.70367 0.0612244 0
M  V30 3847 O 364.187 5.7186 -1.87775 0
M  V30 3848 H 368.013 2.41169 -1.84584 0
M  V30 3849 H 365.598 1.1453 -0.959334 0
M  V30 3850 H 367.48 4.21024 -0.178057 0
M  V30 3851 H 366.155 3.20316 0.466869 0
M  V30 3852 H 365.062 3.25158 -1.84995 0
M  V30 3853 H 366.395 4.28778 -2.41683 0
M  V30 3854 N 368.047 0.979072 1.23499 0
M  V30 3855 C 368.957 0.526431 2.28617 0
M  V30 3856 C 369.973 -0.418126 1.68901 0
M  V30 3857 O 371.149 -0.288372 1.99325 0
M  V30 3858 C 368.214 -0.165235 3.46306 0
M  V30 3859 C 367.275 0.82056 4.21385 0
M  V30 3860 C 366.508 0.161807 5.33455 0
M  V30 3861 O 366.731 -1.04742 5.60701 0
M  V30 3862 O 365.665 0.859708 5.95729 0
M  V30 3863 H 369.491 1.4006 2.69475 0
M  V30 3864 H 367.076 0.746643 1.29405 0
M  V30 3865 H 368.958 -0.553287 4.17752 0
M  V30 3866 H 367.633 -1.01419 3.07402 0
M  V30 3867 H 366.54 1.25929 3.52268 0
M  V30 3868 H 367.873 1.63828 4.64135 0
M  V30 3869 N 369.525 -1.3858 0.750561 0
M  V30 3870 C 370.774 -1.99424 0.302172 0
M  V30 3871 C 371.087 -1.60254 -1.12152 0
M  V30 3872 O 372.293 -2.14046 -1.67023 0
M  V30 3873 C 370.749 -3.56558 0.489307 0
M  V30 3874 C 370.357 -4.04682 1.92189 0
M  V30 3875 C 372.101 -4.24374 0.103478 0
M  V30 3876 C 370.008 -5.54446 2.05775 0
M  V30 3877 H 368.938 -0.746046 0.10923 0
M  V30 3878 H 371.589 -1.58383 0.92667 0
M  V30 3879 H 369.971 -3.95472 -0.204329 0
M  V30 3880 H 371.145 -3.77065 2.64875 0
M  V30 3881 H 369.46 -3.4958 2.26236 0
M  V30 3882 H 372.057 -5.34384 0.183787 0
M  V30 3883 H 372.4 -4.05468 -0.943481 0
M  V30 3884 H 372.933 -3.90688 0.748854 0
M  V30 3885 H 369.672 -5.78252 3.08714 0
M  V30 3886 H 369.192 -5.83816 1.37546 0
M  V30 3887 H 370.871 -6.20099 1.84626 0
M  V30 3888 N 371.003 -0.499398 -1.49478 0
M  V30 3889 C 371.933 0.269244 -2.31943 0
M  V30 3890 C 372.914 0.964054 -1.40143 0
M  V30 3891 O 374.099 0.955767 -1.69052 0
M  V30 3892 C 371.229 1.33504 -3.20615 0
M  V30 3893 C 370.183 0.760202 -4.21195 0
M  V30 3894 C 369.509 1.9264 -4.98792 0
M  V30 3895 C 370.809 -0.247661 -5.21712 0
M  V30 3896 H 372.503 -0.419082 -2.96452 0
M  V30 3897 H 370.049 -0.202988 -1.42562 0
M  V30 3898 H 372.002 1.88048 -3.77115 0
M  V30 3899 H 370.726 2.05253 -2.54045 0
M  V30 3900 H 369.385 0.23653 -3.65836 0
M  V30 3901 H 369.033 2.63154 -4.28671 0
M  V30 3902 H 368.733 1.54785 -5.66847 0
M  V30 3903 H 370.257 2.4762 -5.58137 0
M  V30 3904 H 371.671 0.209579 -5.72917 0
M  V30 3905 H 370.068 -0.541962 -5.97648 0
M  V30 3906 H 371.138 -1.16409 -4.7072 0
M  V30 3907 N 372.481 1.55866 -0.233164 0
M  V30 3908 C 373.897 1.59133 0.121988 0
M  V30 3909 C 374.097 1.25016 1.58029 0
M  V30 3910 O 373.153 0.990922 2.32243 0
M  V30 3911 C 374.466 2.99932 -0.214792 0
M  V30 3912 C 376.014 3.12601 -0.157971 0
M  V30 3913 C 376.489 4.55597 -0.46859 0
M  V30 3914 N 377.98 4.61305 -0.418585 0
M  V30 3915 C 378.715 5.69903 -0.63227 0
M  V30 3916 N 378.211 6.86819 -0.90835 0
M  V30 3917 N 380.004 5.59264 -0.563913 0
M  V30 3918 H 372.155 1.76315 -1.18434 0
M  V30 3919 H 374.418 0.820093 -0.475553 0
M  V30 3920 H 374.124 3.29588 -1.22739 0
M  V30 3921 H 373.998 3.74327 0.464691 0
M  V30 3922 H 376.385 2.82735 0.845283 0
M  V30 3923 H 376.466 2.40511 -0.871102 0
M  V30 3924 H 376.11 4.86182 -1.46934 0
M  V30 3925 H 376.04 5.25928 0.265865 0
M  V30 3926 H 378.531 3.77297 -0.213368 0
M  V30 3927 H 378.844 7.65507 -1.05919 0
M  V30 3928 H 377.189 6.88536 -0.945673 0
M  V30 3929 H 380.38 4.66802 -0.348372 0
M  V30 3930 H 380.553 6.43831 -0.733847 0
M  V30 3931 N 373.959 -0.0401083 1.57549 0
M  V30 3932 C 375.207 -0.731677 1.8839 0
M  V30 3933 C 375.528 -1.76481 0.829425 0
M  V30 3934 O 374.798 -1.95411 -0.1383 0
M  V30 3935 H 373.378 -0.273225 0.695239 0
M  V30 3936 H 376.04 -0.00867725 1.94898 0
M  V30 3937 H 375.136 -1.22816 2.86919 0
M  V30 3938 N 375.437 -1.54477 -0.31217 0
M  V30 3939 C 376.853 -1.45442 -0.657185 0
M  V30 3940 C 377.053 -0.63653 -1.91182 0
M  V30 3941 O 376.109 -0.139815 -2.52113 0
M  V30 3942 C 377.422 -2.89287 -0.82058 0
M  V30 3943 C 378.97 -2.9926 -0.917188 0
M  V30 3944 C 379.445 -4.44279 -1.11267 0
M  V30 3945 N 380.936 -4.4794 -1.17914 0
M  V30 3946 C 381.671 -5.57318 -1.34848 0
M  V30 3947 N 381.167 -6.76642 -1.48752 0
M  V30 3948 N 382.96 -5.44986 -1.37647 0
M  V30 3949 H 375.111 -2.06129 0.512313 0
M  V30 3950 H 377.374 -0.933088 0.167485 0
M  V30 3951 H 377.08 -3.51687 0.0302604 0
M  V30 3952 H 376.954 -3.36061 -1.71298 0
M  V30 3953 H 379.341 -2.36981 -1.75852 0
M  V30 3954 H 379.422 -2.558 -0.00101257 0
M  V30 3955 H 379.066 -5.07149 -0.27614 0
M  V30 3956 H 378.996 -4.85359 -2.04289 0
M  V30 3957 H 381.487 -3.61969 -1.08567 0
M  V30 3958 H 381.8 -7.55758 -1.61397 0
M  V30 3959 H 380.145 -6.79529 -1.45828 0
M  V30 3960 H 383.336 -4.50715 -1.26388 0
M  V30 3961 H 383.509 -6.3028 -1.50501 0
M  V30 3962 N 376.915 0.57481 -1.46744 0
M  V30 3963 C 377.845 1.69337 -1.60771 0
M  V30 3964 C 378.826 1.63825 -0.457736 0
M  V30 3965 O 380.011 1.8172 -0.684947 0
M  V30 3966 C 377.141 3.0798 -1.60517 0
M  V30 3967 C 376.095 3.28327 -2.74564 0
M  V30 3968 C 375.421 4.67578 -2.59373 0
M  V30 3969 C 376.721 3.15398 -4.16319 0
M  V30 3970 H 378.415 1.57853 -2.54407 0
M  V30 3971 H 375.961 0.75799 -1.22436 0
M  V30 3972 H 377.914 3.86061 -1.68923 0
M  V30 3973 H 376.638 3.20381 -0.634305 0
M  V30 3974 H 375.297 2.52649 -2.65639 0
M  V30 3975 H 374.945 4.76755 -1.60353 0
M  V30 3976 H 374.645 4.82144 -3.35873 0
M  V30 3977 H 376.169 5.47817 -2.69682 0
M  V30 3978 H 377.583 3.83315 -4.26313 0
M  V30 3979 H 375.98 3.41482 -4.93468 0
M  V30 3980 H 377.05 2.12372 -4.3592 0
M  V30 3981 N 378.394 1.34581 0.820102 0
M  V30 3982 C 379.324 1.29038 1.94606 0
M  V30 3983 C 380.305 0.1673 1.69275 0
M  V30 3984 O 381.49 0.360112 1.90832 0
M  V30 3985 C 378.62 1.04793 3.31113 0
M  V30 3986 C 377.574 2.13597 3.70891 0
M  V30 3987 C 376.9 1.74537 5.05412 0
M  V30 3988 C 378.2 3.55451 3.8269 0
M  V30 3989 H 379.894 2.23248 1.99501 0
M  V30 3990 H 377.44 1.0747 0.958449 0
M  V30 3991 H 379.393 0.995592 4.0947 0
M  V30 3992 H 378.117 0.0702565 3.26524 0
M  V30 3993 H 376.776 2.17905 2.9481 0
M  V30 3994 H 376.424 0.754226 4.97313 0
M  V30 3995 H 376.124 2.47361 5.32997 0
M  V30 3996 H 377.648 1.70803 5.86224 0
M  V30 3997 H 379.062 3.5354 4.51312 0
M  V30 3998 H 377.459 4.26922 4.21732 0
M  V30 3999 H 378.529 3.92587 2.84611 0
M  V30 4000 N 379.872 -1.04064 1.18357 0
M  V30 4001 C 381.119 -1.77265 0.978947 0
M  V30 4002 C 381.447 -1.88189 -0.491428 0
M  V30 4003 O 380.702 -1.38653 -1.38108 0
M  V30 4004 C 381.001 -3.20634 1.57888 0
M  V30 4005 C 380.667 -3.29743 3.07539 0
M  V30 4006 C 379.329 -3.31937 3.48384 0
M  V30 4007 C 381.681 -3.29841 4.03552 0
M  V30 4008 C 379.009 -3.3187 4.83818 0
M  V30 4009 C 381.361 -3.31313 5.38901 0
M  V30 4010 C 380.025 -3.31799 5.79194 0
M  V30 4011 H 379.295 -0.648659 0.358222 0
M  V30 4012 H 381.942 -1.22225 1.47422 0
M  V30 4013 H 380.247 -3.78675 1.00561 0
M  V30 4014 H 381.944 -3.75917 1.39598 0
M  V30 4015 H 378.534 -3.28757 2.74986 0
M  V30 4016 H 382.718 -3.27337 3.73047 0
M  V30 4017 H 377.974 -3.30562 5.14333 0
M  V30 4018 H 382.148 -3.30338 6.13066 0
M  V30 4019 H 379.775 -3.315 6.84114 0
M  V30 4020 N 381.35 -0.985608 -1.22978 0
M  V30 4021 C 382.766 -0.695104 -1.43668 0
M  V30 4022 C 382.966 0.736866 -1.87543 0
M  V30 4023 O 382.022 1.50868 -2.02473 0
M  V30 4024 C 383.335 -1.69447 -2.48412 0
M  V30 4025 C 384.883 -1.70909 -2.62219 0
M  V30 4026 C 385.358 -2.6969 -3.70178 0
M  V30 4027 N 386.849 -2.6824 -3.77626 0
M  V30 4028 C 387.584 -3.41339 -4.60733 0
M  V30 4029 N 387.08 -4.24015 -5.4789 0
M  V30 4030 N 388.873 -3.30079 -4.54977 0
M  V30 4031 H 381.024 -1.91054 -0.928016 0
M  V30 4032 H 383.287 -0.823553 -0.469536 0
M  V30 4033 H 382.993 -2.7188 -2.23102 0
M  V30 4034 H 382.867 -1.48147 -3.46889 0
M  V30 4035 H 385.254 -0.691785 -2.86877 0
M  V30 4036 H 385.335 -1.96276 -1.6404 0
M  V30 4037 H 384.979 -3.71566 -3.46268 0
M  V30 4038 H 384.909 -2.41595 -4.67909 0
M  V30 4039 H 387.4 -2.08243 -3.15346 0
M  V30 4040 H 387.713 -4.76636 -6.08308 0
M  V30 4041 H 386.058 -4.28104 -5.47496 0
M  V30 4042 H 389.249 -2.64937 -3.85909 0
M  V30 4043 H 389.422 -3.87308 -5.19516 0
M  V30 4044 N 382.828 1.3818 -0.7579 0
M  V30 4045 C 384.244 1.5353 -0.435972 0
M  V30 4046 C 384.444 1.71961 1.05032 0
M  V30 4047 O 383.5 1.73307 1.83633 0
M  V30 4048 C 384.813 2.73989 -1.23898 0
M  V30 4049 C 386.361 2.87841 -1.22949 0
M  V30 4050 C 386.836 4.11266 -2.01554 0
M  V30 4051 N 388.327 4.18352 -1.98837 0
M  V30 4052 C 389.062 5.12856 -2.5645 0
M  V30 4053 N 388.558 6.13005 -3.22794 0
M  V30 4054 N 390.351 5.05238 -2.46356 0
M  V30 4055 H 382.502 1.24467 -1.7211 0
M  V30 4056 H 384.765 0.604982 -0.729864 0
M  V30 4057 H 384.471 2.66789 -2.29165 0
M  V30 4058 H 384.345 3.67294 -0.858764 0
M  V30 4059 H 386.732 2.9452 -0.184854 0
M  V30 4060 H 386.813 1.95534 -1.64924 0
M  V30 4061 H 386.457 4.05349 -3.06031 0
M  V30 4062 H 386.387 5.02661 -1.5697 0
M  V30 4063 H 388.878 3.46628 -1.50524 0
M  V30 4064 H 389.191 6.81619 -3.64165 0
M  V30 4065 H 387.536 6.13325 -3.2689 0
M  V30 4066 H 390.727 4.25938 -1.9415 0
M  V30 4067 H 390.9 5.78707 -2.91552 0
M  V30 4068 N 384.306 0.507319 1.49211 0
M  V30 4069 C 385.722 0.163682 1.58758 0
M  V30 4070 C 385.922 -1.33208 1.51188 0
M  V30 4071 O 384.978 -2.10855 1.38911 0
M  V30 4072 C 386.291 0.746095 2.91297 0
M  V30 4073 C 387.839 0.712773 3.04776 0
M  V30 4074 C 388.314 1.27336 4.39943 0
M  V30 4075 N 389.805 1.23433 4.46451 0
M  V30 4076 C 390.54 1.63821 5.495 0
M  V30 4077 N 390.036 2.11832 6.5962 0
M  V30 4078 N 391.829 1.55198 5.4025 0
M  V30 4079 H 383.98 1.47972 1.52375 0
M  V30 4080 H 386.243 0.614147 0.722168 0
M  V30 4081 H 385.949 1.79534 3.02424 0
M  V30 4082 H 385.823 0.210137 3.76614 0
M  V30 4083 H 388.21 -0.327656 2.93275 0
M  V30 4084 H 388.291 1.28595 2.21127 0
M  V30 4085 H 387.935 2.3126 4.52196 0
M  V30 4086 H 387.865 0.676066 5.22242 0
M  V30 4087 H 390.356 0.882627 3.67448 0
M  V30 4088 H 390.669 2.40703 7.34358 0
M  V30 4089 H 389.014 2.1581 6.60644 0
M  V30 4090 H 392.205 1.17505 4.53112 0
M  V30 4091 H 392.378 1.86997 6.20432 0
M  V30 4092 N 385.784 -1.5574 0.241426 0
M  V30 4093 C 387.03 -1.99104 -0.385406 0
M  V30 4094 C 387.363 -1.1293 -1.57988 0
M  V30 4095 O 386.638 -0.191449 -1.93555 0
M  V30 4096 C 386.921 -3.51087 -0.800616 0
M  V30 4097 C 386.774 -4.48028 0.398874 0
M  V30 4098 C 388.093 -4.08015 -1.64959 0
M  V30 4099 H 385.212 -0.723848 -0.138614 0
M  V30 4100 H 387.854 -1.86903 0.341642 0
M  V30 4101 H 386.004 -3.61615 -1.4201 0
M  V30 4102 H 387.676 -4.49487 1.03726 0
M  V30 4103 H 385.919 -4.21077 1.04293 0
M  V30 4104 H 386.59 -5.51962 0.0651056 0
M  V30 4105 H 389.066 -4.00555 -1.12672 0
M  V30 4106 H 387.942 -5.14635 -1.90898 0
M  V30 4107 H 388.203 -3.56131 -2.61961 0
M  V30 4108 N 387.262 0.0317525 -1.57568 0
M  V30 4109 C 388.487 0.738664 -1.938 0
M  V30 4110 C 388.912 1.68242 -0.841208 0
M  V30 4111 O 388.27 1.80157 0.203267 0
M  V30 4112 C 388.318 1.47417 -3.29091 0
M  V30 4113 O 387.422 2.5872 -3.2115 0
M  V30 4114 H 386.763 0.198856 -0.633524 0
M  V30 4115 H 389.293 -0.0119713 -2.04596 0
M  V30 4116 H 389.303 1.84468 -3.63917 0
M  V30 4117 H 387.978 0.781988 -4.08482 0
M  V30 4118 H 386.555 2.24231 -2.97951 0
M  V30 4119 N 388.74 1.54641 0.303973 0
M  V30 4120 C 390.151 1.64811 0.877163 0
M  V30 4121 C 390.502 0.554838 1.88191 0
M  V30 4122 O 389.627 -0.309033 2.14182 0
M  V30 4123 C 390.222 2.9876 1.59775 0
M  V30 4124 C 388.781 3.11061 2.11938 0
M  V30 4125 C 387.928 2.60479 0.951097 0
M  V30 4126 H 390.879 1.58493 0.0810486 0
M  V30 4127 H 390.9 2.90017 2.46314 0
M  V30 4128 H 390.412 3.7831 0.866226 0
M  V30 4129 H 388.513 2.36225 2.88146 0
M  V30 4130 H 388.626 4.17171 2.35595 0
M  V30 4131 H 386.99 2.16859 1.33583 0
M  V30 4132 H 387.773 3.42504 0.233581 0
M  V30 4133 N 390.218 -0.567019 1.47046 0
M  V30 4134 C 391.128 -1.70247 1.6141 0
M  V30 4135 C 392.144 -1.66746 0.497157 0
M  V30 4136 O 393.32 -1.86371 0.763389 0
M  V30 4137 C 390.385 -3.06756 1.61561 0
M  V30 4138 C 389.446 -3.21399 2.84607 0
M  V30 4139 C 388.679 -4.51396 2.84741 0
M  V30 4140 O 388.902 -5.36255 1.94388 0
M  V30 4141 O 387.836 -4.69621 3.76483 0
M  V30 4142 H 391.662 -1.61073 2.57467 0
M  V30 4143 H 389.247 -0.735894 1.30019 0
M  V30 4144 H 391.129 -3.8801 1.64396 0
M  V30 4145 H 389.804 -3.16333 0.686684 0
M  V30 4146 H 388.711 -2.39579 2.8732 0
M  V30 4147 H 390.044 -3.16721 3.76761 0
M  V30 4148 N 391.696 -1.35014 -0.812953 0
M  V30 4149 C 392.936 -1.29289 -1.58315 0
M  V30 4150 C 393.3 0.132727 -1.91541 0
M  V30 4151 O 394.501 0.314269 -2.66957 0
M  V30 4152 C 392.772 -2.1681 -2.84127 0
M  V30 4153 S 394.331 -2.28538 -3.74588 0
M  V30 4154 H 391.149 -0.459569 -0.542511 0
M  V30 4155 H 393.751 -1.70336 -0.959467 0
M  V30 4156 H 392.455 -3.19379 -2.57731 0
M  V30 4157 H 391.986 -1.76697 -3.51485 0
M  V30 4158 H 394.001 -1.4655 -4.74065 0
M  V30 4159 N 393.175 1.03435 -1.18907 0
M  V30 4160 C 394.107 2.1165 -0.879595 0
M  V30 4161 C 395.12 1.62316 0.125439 0
M  V30 4162 O 396.309 1.78201 -0.103245 0
M  V30 4163 C 393.409 3.37622 -0.294042 0
M  V30 4164 C 392.582 4.16166 -1.34629 0
M  V30 4165 C 391.641 5.20457 -0.775274 0
M  V30 4166 O 390.667 5.50379 -1.4516 0
M  V30 4167 N 391.869 5.78949 0.424126 0
M  V30 4168 H 394.634 2.38791 -1.81105 0
M  V30 4169 H 392.195 1.19681 -1.09032 0
M  V30 4170 H 394.187 4.04572 0.101679 0
M  V30 4171 H 392.757 3.07873 0.541575 0
M  V30 4172 H 391.977 3.44444 -1.91707 0
M  V30 4173 H 393.265 4.65432 -2.05549 0
M  V30 4174 H 392.663 5.56948 0.991209 0
M  V30 4175 H 391.22 6.47334 0.761691 0
M  V30 4176 N 394.653 0.992116 1.22453 0
M  V30 4177 C 395.585 0.500024 2.23679 0
M  V30 4178 C 396.598 -0.404463 1.57696 0
M  V30 4179 O 397.787 -0.206722 1.77299 0
M  V30 4180 C 394.887 -0.294711 3.37616 0
M  V30 4181 C 394.06 0.605723 4.33186 0
M  V30 4182 C 393.119 -0.13717 5.26021 0
M  V30 4183 O 392.145 0.477164 5.67196 0
M  V30 4184 N 393.347 -1.4197 5.62872 0
M  V30 4185 H 396.112 1.37045 2.66531 0
M  V30 4186 H 393.673 0.866741 1.36745 0
M  V30 4187 H 395.665 -0.800329 3.96707 0
M  V30 4188 H 394.235 -1.06623 2.93854 0
M  V30 4189 H 393.455 1.29202 3.72425 0
M  V30 4190 H 394.743 1.21896 4.93983 0
M  V30 4191 H 394.141 -1.94015 5.31389 0
M  V30 4192 H 392.698 -1.87052 6.24383 0
M  V30 4193 N 396.131 -1.37776 0.765217 0
M  V30 4194 C 397.061 -2.32945 0.160953 0
M  V30 4195 C 398.042 -1.55454 -0.690516 0
M  V30 4196 O 399.227 -1.83721 -0.629318 0
M  V30 4197 C 396.357 -3.39669 -0.724031 0
M  V30 4198 C 395.311 -4.27992 0.0256173 0
M  V30 4199 C 394.637 -5.25673 -0.978383 0
M  V30 4200 C 395.937 -5.08309 1.20082 0
M  V30 4201 H 397.631 -2.83728 0.955969 0
M  V30 4202 H 395.177 -1.36416 0.461149 0
M  V30 4203 H 397.13 -4.05219 -1.15652 0
M  V30 4204 H 395.854 -2.87396 -1.5515 0
M  V30 4205 H 394.513 -3.63964 0.438812 0
M  V30 4206 H 394.161 -4.69682 -1.80022 0
M  V30 4207 H 393.861 -5.85625 -0.481378 0
M  V30 4208 H 395.385 -5.94098 -1.40995 0
M  V30 4209 H 396.799 -5.67034 0.845307 0
M  V30 4210 H 395.196 -5.77554 1.62947 0
M  V30 4211 H 396.266 -4.41365 2.00811 0
M  V30 4212 N 397.609 -0.515225 -1.4894 0
M  V30 4213 C 398.858 0.0261361 -2.01683 0
M  V30 4214 C 399.171 1.36719 -1.39883 0
M  V30 4215 O 400.377 1.99606 -1.84037 0
M  V30 4216 C 398.833 0.0970111 -3.59769 0
M  V30 4217 C 398.441 -1.23825 -4.30548 0
M  V30 4218 C 400.185 0.587981 -4.20408 0
M  V30 4219 C 398.092 -1.12877 -5.80528 0
M  V30 4220 H 397.022 0.0135398 -0.753878 0
M  V30 4221 H 399.673 -0.656787 -1.71343 0
M  V30 4222 H 398.055 0.844694 -3.86886 0
M  V30 4223 H 399.229 -2.00034 -4.15118 0
M  V30 4224 H 397.544 -1.66379 -3.81716 0
M  V30 4225 H 400.141 0.68763 -5.3026 0
M  V30 4226 H 400.484 1.59026 -3.84729 0
M  V30 4227 H 401.017 -0.103582 -3.97665 0
M  V30 4228 H 397.756 -2.10575 -6.20756 0
M  V30 4229 H 397.276 -0.407799 -5.98412 0
M  V30 4230 H 398.955 -0.813332 -6.41868 0
M  V30 4231 N 399.087 1.5561 -0.249682 0
M  V30 4232 C 400.503 1.59254 0.105103 0
M  V30 4233 C 400.703 1.26685 1.56694 0
M  V30 4234 O 399.759 1.0155 2.31179 0
M  V30 4235 C 401.072 2.99687 -0.246592 0
M  V30 4236 C 402.62 3.12416 -0.191118 0
M  V30 4237 C 403.095 4.55074 -0.516885 0
M  V30 4238 N 404.586 4.60835 -0.467489 0
M  V30 4239 C 405.321 5.69201 -0.69268 0
M  V30 4240 N 404.817 6.85817 -0.981146 0
M  V30 4241 N 406.61 5.58635 -0.623198 0
M  V30 4242 H 398.761 1.75049 -1.20298 0
M  V30 4243 H 401.024 0.815003 -0.484225 0
M  V30 4244 H 400.73 3.28267 -1.26228 0
M  V30 4245 H 400.604 3.74798 0.424962 0
M  V30 4246 H 402.991 2.83615 0.815247 0
M  V30 4247 H 403.072 2.39573 -0.896563 0
M  V30 4248 H 402.716 4.84596 -1.52082 0
M  V30 4249 H 402.646 5.26181 0.210068 0
M  V30 4250 H 405.137 3.7705 -0.253373 0
M  V30 4251 H 405.45 7.64341 -1.14032 0
M  V30 4252 H 403.795 6.87494 -1.01865 0
M  V30 4253 H 406.986 4.66406 -0.397863 0
M  V30 4254 H 407.159 6.43017 -0.802093 0
M  V30 4255 N 400.565 -0.0233959 1.57583 0
M  V30 4256 C 401.811 -0.708611 1.90657 0
M  V30 4257 C 402.166 -1.7266 0.848895 0
M  V30 4258 O 401.459 -1.91075 -0.141749 0
M  V30 4259 C 401.653 -1.41428 3.28227 0
M  V30 4260 C 401.482 -0.466155 4.47277 0
M  V30 4261 C 400.252 -0.085117 5.05228 0
M  V30 4262 C 402.45 0.257836 5.13653 0
M  V30 4263 N 400.432 0.863672 6.07794 0
M  V30 4264 C 401.803 1.06209 6.10835 0
M  V30 4265 C 403.858 0.324174 4.96844 0
M  V30 4266 C 402.561 1.9266 6.93018 0
M  V30 4267 C 404.587 1.17583 5.79593 0
M  V30 4268 C 403.949 1.96799 6.7635 0
M  V30 4269 H 400.048 -0.233222 0.746412 0
M  V30 4270 H 402.632 0.0314512 1.94675 0
M  V30 4271 H 400.803 -2.12477 3.25128 0
M  V30 4272 H 402.535 -2.05233 3.488 0
M  V30 4273 H 399.29 -0.448516 4.71471 0
M  V30 4274 H 399.714 1.33274 6.63752 0
M  V30 4275 H 404.356 -0.273975 4.21911 0
M  V30 4276 H 402.074 2.53552 7.67292 0
M  V30 4277 H 405.66 1.23076 5.68633 0
M  V30 4278 H 404.54 2.61635 7.39268 0
M  V30 4279 N 402.043 -1.548 -0.295768 0
M  V30 4280 C 403.283 -1.76069 -1.03823 0
M  V30 4281 C 403.647 -0.537992 -1.84309 0
M  V30 4282 O 404.848 -0.628514 -2.61349 0
M  V30 4283 C 403.119 -3.01705 -1.91596 0
M  V30 4284 S 404.678 -3.43998 -2.72416 0
M  V30 4285 H 401.496 -0.618852 -0.350062 0
M  V30 4286 H 404.098 -1.93009 -0.31106 0
M  V30 4287 H 402.802 -3.88812 -1.31351 0
M  V30 4288 H 402.333 -2.87366 -2.68671 0
M  V30 4289 H 404.348 -3.0148 -3.94112 0
M  V30 4290 N 403.521 0.559213 -1.47345 0
M  V30 4291 C 404.451 1.67622 -1.62558 0
M  V30 4292 C 405.432 1.63331 -0.475087 0
M  V30 4293 O 406.617 1.80983 -0.704182 0
M  V30 4294 C 403.747 3.0626 -1.63774 0
M  V30 4295 C 402.701 3.25397 -2.7803 0
M  V30 4296 C 402.027 4.64801 -2.64318 0
M  V30 4297 C 403.327 3.10965 -4.19641 0
M  V30 4298 H 405.021 1.55146 -2.56067 0
M  V30 4299 H 402.567 0.744961 -1.23233 0
M  V30 4300 H 404.52 3.84247 -1.73008 0
M  V30 4301 H 403.244 3.1969 -0.66825 0
M  V30 4302 H 401.903 2.49817 -2.68304 0
M  V30 4303 H 401.551 4.75028 -1.65401 0
M  V30 4304 H 401.251 4.78555 -3.40968 0
M  V30 4305 H 402.775 5.44926 -2.75478 0
M  V30 4306 H 404.189 3.78772 -4.30354 0
M  V30 4307 H 402.586 3.36229 -4.97062 0
M  V30 4308 H 403.656 2.07736 -4.38148 0
M  V30 4309 N 404.999 1.35443 0.805782 0
M  V30 4310 C 406.224 1.32037 1.59941 0
M  V30 4311 C 406.649 -0.0994215 1.87837 0
M  V30 4312 O 406.007 -1.06648 1.46615 0
M  V30 4313 C 406.055 2.13354 2.90711 0
M  V30 4314 O 405.159 1.5148 3.83572 0
M  V30 4315 H 404.5 0.452666 0.485787 0
M  V30 4316 H 407.03 1.78496 1.00002 0
M  V30 4317 H 407.04 2.25338 3.40128 0
M  V30 4318 H 405.715 3.16572 2.69732 0
M  V30 4319 H 404.292 1.4834 3.42125 0
M  V30 4320 N 406.477 -1.02803 1.19454 0
M  V30 4321 C 407.407 -2.12999 0.956758 0
M  V30 4322 C 408.388 -1.69743 -0.110188 0
M  V30 4323 O 409.573 -1.94148 0.0450038 0
M  V30 4324 C 406.703 -3.43746 0.495553 0
M  V30 4325 C 405.657 -4.00688 1.50443 0
M  V30 4326 C 404.983 -5.27067 0.900275 0
M  V30 4327 C 406.283 -4.35397 2.8849 0
M  V30 4328 H 407.977 -2.33148 1.87836 0
M  V30 4329 H 405.523 -1.12045 0.904539 0
M  V30 4330 H 407.476 -4.2021 0.316493 0
M  V30 4331 H 406.2 -3.23321 -0.461646 0
M  V30 4332 H 404.859 -3.2632 1.67065 0
M  V30 4333 H 404.507 -5.02959 -0.064503 0
M  V30 4334 H 404.207 -5.66127 1.57397 0
M  V30 4335 H 405.731 -6.06196 0.73203 0
M  V30 4336 H 407.145 -5.02795 2.75446 0
M  V30 4337 H 405.542 -4.85541 3.52661 0
M  V30 4338 H 406.612 -3.44662 3.41081 0
M  V30 4339 N 407.956 -0.998596 -1.21925 0
M  V30 4340 C 409.372 -0.710303 -1.42923 0
M  V30 4341 C 409.572 0.716933 -1.88314 0
M  V30 4342 O 408.628 1.48712 -2.04062 0
M  V30 4343 C 409.941 -1.72072 -2.466 0
M  V30 4344 C 411.489 -1.73681 -2.60392 0
M  V30 4345 C 411.964 -2.73601 -3.67296 0
M  V30 4346 N 413.455 -2.7223 -3.7476 0
M  V30 4347 C 414.19 -3.46206 -4.57087 0
M  V30 4348 N 413.686 -4.29802 -5.43362 0
M  V30 4349 N 415.479 -3.34886 -4.51451 0
M  V30 4350 H 407.63 -1.92028 -0.9077 0
M  V30 4351 H 409.893 -0.828487 -0.460775 0
M  V30 4352 H 409.599 -2.74231 -2.20206 0
M  V30 4353 H 409.473 -1.51818 -3.45299 0
M  V30 4354 H 411.86 -0.722173 -2.86127 0
M  V30 4355 H 411.941 -1.98005 -1.61949 0
M  V30 4356 H 411.585 -3.75217 -3.42307 0
M  V30 4357 H 411.515 -2.46545 -4.65321 0
M  V30 4358 H 414.006 -2.11576 -3.1312 0
M  V30 4359 H 414.319 -4.83061 -6.03218 0
M  V30 4360 H 412.664 -4.33887 -5.42925 0
M  V30 4361 H 415.855 -2.69015 -3.83078 0
M  V30 4362 H 416.028 -3.92796 -5.15379 0
M  V30 4363 N 409.434 1.37368 -0.772513 0
M  V30 4364 C 410.845 1.8231 -0.402493 0
M  V30 4365 C 411.196 1.6436 1.07146 0
M  V30 4366 O 410.321 1.15514 1.82991 0
M  V30 4367 C 410.916 3.30979 -0.723776 0
M  V30 4368 C 409.475 3.74195 -0.406802 0
M  V30 4369 C 408.622 2.59885 -0.967218 0
M  V30 4370 H 411.573 1.25829 -0.967099 0
M  V30 4371 H 411.594 3.80499 -0.00870832 0
M  V30 4372 H 411.106 3.44011 -1.7966 0
M  V30 4373 H 409.207 3.66732 0.658673 0
M  V30 4374 H 409.32 4.7027 -0.915588 0
M  V30 4375 H 407.684 2.51674 -0.391416 0
M  V30 4376 H 408.467 2.7571 -2.04546 0
M  V30 4377 N 410.912 0.523116 1.48665 0
M  V30 4378 C 412.137 -0.0117284 2.07397 0
M  V30 4379 C 412.562 -1.28031 1.37803 0
M  V30 4380 O 411.92 -1.75836 0.441762 0
M  V30 4381 C 411.968 -0.225786 3.59892 0
M  V30 4382 O 411.072 -1.29592 3.91509 0
M  V30 4383 H 410.413 0.0360673 0.66302 0
M  V30 4384 H 412.943 0.729066 1.9117 0
M  V30 4385 H 412.953 -0.450552 4.05505 0
M  V30 4386 H 411.628 0.700944 4.09951 0
M  V30 4387 H 410.205 -1.05436 3.57684 0
M  V30 4388 N 412.39 -1.55475 0.257931 0
M  V30 4389 C 413.3 -2.2549 -0.647425 0
M  V30 4390 C 414.316 -1.2748 -1.18427 0
M  V30 4391 O 415.492 -1.6038 -1.2182 0
M  V30 4392 C 412.557 -2.94916 -1.82278 0
M  V30 4393 C 411.618 -4.08363 -1.32432 0
M  V30 4394 C 410.851 -4.74469 -2.44366 0
M  V30 4395 O 411.074 -4.39701 -3.63344 0
M  V30 4396 O 410.008 -5.62763 -2.13497 0
M  V30 4397 H 413.834 -3.03593 -0.0807707 0
M  V30 4398 H 411.419 -1.49377 0.0259962 0
M  V30 4399 H 413.301 -3.38606 -2.50846 0
M  V30 4400 H 411.976 -2.19744 -2.37685 0
M  V30 4401 H 410.883 -3.69166 -0.605605 0
M  V30 4402 H 412.216 -4.85385 -0.816211 0
M  V30 4403 N 413.868 0.0150385 -1.57593 0
M  V30 4404 C 415.284 0.370907 -1.5523 0
M  V30 4405 C 415.484 1.75735 -0.985882 0
M  V30 4406 O 414.54 2.44944 -0.613077 0
M  V30 4407 C 415.853 0.259908 -2.99575 0
M  V30 4408 C 417.401 0.335959 -3.11192 0
M  V30 4409 C 417.876 0.254253 -4.57294 0
M  V30 4410 N 419.367 0.312618 -4.62144 0
M  V30 4411 C 420.102 0.272505 -5.72752 0
M  V30 4412 N 419.598 0.183864 -6.92556 0
M  V30 4413 N 421.391 0.323267 -5.6117 0
M  V30 4414 H 413.542 -0.892104 -1.92757 0
M  V30 4415 H 415.805 -0.340563 -0.884715 0
M  V30 4416 H 415.511 -0.693403 -3.44797 0
M  V30 4417 H 415.385 1.048 -3.62349 0
M  V30 4418 H 417.772 1.27971 -2.65909 0
M  V30 4419 H 417.853 -0.481739 -2.51223 0
M  V30 4420 H 417.497 -0.685887 -5.03247 0
M  V30 4421 H 417.427 1.09024 -5.15191 0
M  V30 4422 H 419.918 0.38307 -3.75953 0
M  V30 4423 H 420.231 0.15874 -7.72637 0
M  V30 4424 H 418.576 0.149708 -6.94839 0
M  V30 4425 H 421.767 0.390607 -4.66467 0
M  V30 4426 H 421.94 0.288539 -6.47357 0
M  V30 4427 N 415.346 1.54954 0.287554 0
M  V30 4428 C 416.757 1.65732 0.859634 0
M  V30 4429 C 417.108 0.574767 1.87592 0
M  V30 4430 O 416.233 -0.286299 2.14498 0
M  V30 4431 C 416.828 3.00438 1.56597 0
M  V30 4432 C 415.387 3.13292 2.08627 0
M  V30 4433 C 414.534 2.61473 0.923416 0
M  V30 4434 H 417.485 1.5857 0.0642338 0
M  V30 4435 H 417.506 2.92613 2.43224 0
M  V30 4436 H 417.018 3.79207 0.826053 0
M  V30 4437 H 415.119 2.39268 2.85625 0
M  V30 4438 H 415.232 4.19647 2.31157 0
M  V30 4439 H 413.596 2.18264 1.31275 0
M  V30 4440 H 414.379 3.42733 0.197241 0
M  V30 4441 N 416.824 -0.551391 1.4764 0
M  V30 4442 C 418.049 -1.33837 1.58437 0
M  V30 4443 C 418.474 -1.866 0.237063 0
M  V30 4444 O 417.832 -1.6328 -0.787994 0
M  V30 4445 C 417.88 -2.48014 2.61766 0
M  V30 4446 O 416.984 -3.50419 2.1744 0
M  V30 4447 H 416.325 -0.397299 0.532024 0
M  V30 4448 H 418.855 -0.665759 1.93465 0
M  V30 4449 H 418.865 -2.94503 2.82369 0
M  V30 4450 H 417.54 -2.08969 3.5959 0
M  V30 4451 H 416.117 -3.10196 2.06961 0
M  V30 4452 N 418.302 -1.35869 -0.798587 0
M  V30 4453 C 419.232 -1.32118 -1.92528 0
M  V30 4454 C 420.213 -0.194209 -1.68988 0
M  V30 4455 O 421.398 -0.390426 -1.90235 0
M  V30 4456 C 418.528 -1.10047 -3.29404 0
M  V30 4457 C 417.482 -2.19471 -3.67446 0
M  V30 4458 C 416.808 -1.82555 -5.02571 0
M  V30 4459 C 418.108 -3.61495 -3.76987 0
M  V30 4460 H 419.802 -2.26394 -1.95924 0
M  V30 4461 H 417.348 -1.08981 -0.94123 0
M  V30 4462 H 419.301 -1.06061 -4.07835 0
M  V30 4463 H 418.025 -0.122195 -3.26371 0
M  V30 4464 H 416.684 -2.22568 -2.91306 0
M  V30 4465 H 416.332 -0.833249 -4.9605 0
M  V30 4466 H 416.032 -2.5581 -5.28995 0
M  V30 4467 H 417.556 -1.80108 -5.83432 0
M  V30 4468 H 418.97 -3.60676 -4.4563 0
M  V30 4469 H 417.367 -4.33577 -4.14887 0
M  V30 4470 H 418.437 -3.97065 -2.78329 0
M  V30 4471 N 419.78 1.02168 -1.19998 0
M  V30 4472 C 421.057 1.72816 -0.916191 0
M  V30 4473 C 421.437 2.03081 0.576325 0
M  V30 4474 O 420.785 1.69122 1.53656 0
M  V30 4475 C 420.995 2.9997 -1.78378 0
M  V30 4476 C 422.343 3.73336 -2.02251 0
M  V30 4477 O 423.367 3.09914 -1.75589 0
M  V30 4478 O 422.226 4.87371 -2.47249 0
M  V30 4479 H 419.32 0.752924 -0.342103 0
M  V30 4480 H 421.866 1.08062 -1.30846 0
M  V30 4481 H 420.638 2.73888 -2.79466 0
M  V30 4482 H 420.261 3.72464 -1.39126 0
M  V30 4483 N 421.258 1.00505 1.21394 0
M  V30 4484 C 422.19 0.52372 2.23136 0
M  V30 4485 C 423.203 -0.387714 1.58116 0
M  V30 4486 O 424.392 -0.187905 1.77508 0
M  V30 4487 C 421.492 -0.258885 3.3791 0
M  V30 4488 C 420.665 0.651634 4.32519 0
M  V30 4489 C 419.724 -0.0813705 5.26137 0
M  V30 4490 O 418.75 0.537295 5.66658 0
M  V30 4491 N 419.952 -1.35992 5.64346 0
M  V30 4492 H 422.717 1.39865 2.65062 0
M  V30 4493 H 420.278 0.881196 1.35818 0
M  V30 4494 H 422.27 -0.758208 3.97534 0
M  V30 4495 H 420.84 -1.035 2.94968 0
M  V30 4496 H 420.06 1.33145 3.71034 0
M  V30 4497 H 421.348 1.27129 4.92662 0
M  V30 4498 H 420.746 -1.88368 5.33417 0
M  V30 4499 H 419.303 -1.8042 6.26332 0
M  V30 4500 N 422.737 -1.36956 0.779787 0
M  V30 4501 C 423.986 -1.98738 0.344405 0
M  V30 4502 C 424.299 -1.62596 -1.08728 0
M  V30 4503 O 425.505 -2.1754 -1.62445 0
M  V30 4504 C 423.961 -3.5544 0.564829 0
M  V30 4505 C 423.569 -4.00514 2.0073 0
M  V30 4506 C 425.313 -4.24059 0.193471 0
M  V30 4507 C 423.22 -5.49957 2.17489 0
M  V30 4508 H 422.15 -0.743561 0.12503 0
M  V30 4509 H 424.801 -1.56381 0.960057 0
M  V30 4510 H 423.183 -3.95817 -0.120397 0
M  V30 4511 H 424.357 -3.71362 2.72814 0
M  V30 4512 H 422.672 -3.44703 2.336 0
M  V30 4513 H 425.269 -5.33874 0.297097 0
M  V30 4514 H 425.612 -4.07378 -0.857263 0
M  V30 4515 H 426.145 -3.89012 0.831556 0
M  V30 4516 H 422.884 -5.71574 3.2091 0
M  V30 4517 H 422.404 -5.80767 1.49899 0
M  V30 4518 H 424.083 -6.16043 1.97738 0
M  V30 4519 N 424.215 -0.530993 -1.48385 0
M  V30 4520 C 425.178 0.220497 -2.28137 0
M  V30 4521 C 426.178 0.866851 -1.35434 0
M  V30 4522 O 427.368 0.726746 -1.58316 0
M  V30 4523 C 424.5 1.31921 -3.1434 0
M  V30 4524 H 425.693 -0.479714 -2.96038 0
M  V30 4525 H 423.246 -0.286968 -1.53643 0
M  V30 4526 H 423.981 2.05264 -2.51072 0
M  V30 4527 H 423.766 0.86085 -3.82533 0
M  V30 4528 H 425.256 1.84776 -3.74497 0
M  V30 4529 N 425.693 1.55336 -0.266172 0
M  V30 4530 C 426.656 2.20878 0.612001 0
M  V30 4531 C 427.656 1.18388 1.08816 0
M  V30 4532 O 428.846 1.4335 0.989774 0
M  V30 4533 C 425.978 2.86765 1.84332 0
M  V30 4534 H 427.171 2.99873 0.0398718 0
M  V30 4535 H 424.724 1.56291 -0.0167309 0
M  V30 4536 H 425.459 2.11759 2.45619 0
M  V30 4537 H 425.244 3.61862 1.5099 0
M  V30 4538 H 426.734 3.36867 2.46801 0
M  V30 4539 N 427.171 -0.0066808 1.57599 0
M  V30 4540 C 428.121 -1.0086 2.04478 0
M  V30 4541 C 429.105 -1.30714 0.938231 0
M  V30 4542 O 430.297 -1.29924 1.20203 0
M  V30 4543 C 427.426 -2.30273 2.54615 0
M  V30 4544 C 426.512 -2.03413 3.72134 0
M  V30 4545 N 426.903 -1.46688 4.84062 0
M  V30 4546 C 425.201 -2.33589 3.79937 0
M  V30 4547 C 425.902 -1.36146 5.65543 0
M  V30 4548 N 424.878 -1.84477 5.1134 0
M  V30 4549 H 428.68 -0.564402 2.8843 0
M  V30 4550 H 426.194 -0.212521 1.61003 0
M  V30 4551 H 428.191 -3.02885 2.86472 0
M  V30 4552 H 426.851 -2.75352 1.72079 0
M  V30 4553 H 427.862 -1.14658 5.05049 0
M  V30 4554 H 424.539 -2.81589 3.08243 0
M  V30 4555 H 425.929 -0.925873 6.6549 0
M  V30 4556 N 428.649 -1.55105 -0.279332 0
M  V30 4557 C 430.06 -1.66186 -0.850832 0
M  V30 4558 C 430.411 -0.584707 -1.87285 0
M  V30 4559 O 429.536 0.274919 -2.14647 0
M  V30 4560 C 430.131 -3.01264 -1.55001 0
M  V30 4561 C 428.69 -3.14394 -2.06963 0
M  V30 4562 C 427.837 -2.61959 -0.909536 0
M  V30 4563 H 430.788 -1.58602 -0.0558235 0
M  V30 4564 H 430.809 -2.93899 -2.41669 0
M  V30 4565 H 430.321 -3.7964 -0.805931 0
M  V30 4566 H 428.422 -2.4078 -2.84352 0
M  V30 4567 H 428.535 -4.20867 -2.28928 0
M  V30 4568 H 426.899 -2.18957 -1.30116 0
M  V30 4569 H 427.682 -3.42833 -0.179062 0
M  V30 4570 N 430.127 0.543554 -1.4793 0
M  V30 4571 C 431.373 1.29961 -1.56466 0
M  V30 4572 C 431.728 1.91024 -0.229696 0
M  V30 4573 O 431.021 1.75619 0.766072 0
M  V30 4574 C 431.215 2.42078 -2.62932 0
M  V30 4575 C 431.044 1.92003 -4.06651 0
M  V30 4576 C 429.814 1.75223 -4.73946 0
M  V30 4577 C 432.012 1.45648 -4.93245 0
M  V30 4578 N 429.994 1.19632 -6.02131 0
M  V30 4579 C 431.365 1.01914 -6.11566 0
M  V30 4580 C 433.42 1.33826 -4.79578 0
M  V30 4581 C 432.123 0.475301 -7.17728 0
M  V30 4582 C 434.149 0.808427 -5.85848 0
M  V30 4583 C 433.511 0.381081 -7.03368 0
M  V30 4584 H 429.61 0.467086 -0.62718 0
M  V30 4585 H 432.194 0.614543 -1.84747 0
M  V30 4586 H 430.365 3.08098 -2.36496 0
M  V30 4587 H 432.097 3.09096 -2.61231 0
M  V30 4588 H 428.852 1.98345 -4.30065 0
M  V30 4589 H 429.276 0.93885 -6.70458 0
M  V30 4590 H 433.918 1.65474 -3.89074 0
M  V30 4591 H 431.636 0.146472 -8.07967 0
M  V30 4592 H 435.222 0.720315 -5.77324 0
M  V30 4593 H 434.102 -0.0225344 -7.84197 0
M  V30 4594 N 431.605 1.3629 0.791371 0
M  V30 4595 C 432.538 1.24816 1.9104 0
M  V30 4596 C 433.516 0.132739 1.62057 0
M  V30 4597 O 434.7 0.303527 1.8604 0
M  V30 4598 C 431.827 0.925355 3.25814 0
M  V30 4599 C 430.873 2.05495 3.7373 0
M  V30 4600 S 431.706 3.67255 3.89723 0
M  V30 4601 C 432.862 3.37084 5.27376 0
M  V30 4602 H 433.095 2.19533 2.00481 0
M  V30 4603 H 430.628 1.21684 0.950393 0
M  V30 4604 H 432.586 0.745924 4.03666 0
M  V30 4605 H 431.247 -0.00400098 3.141 0
M  V30 4606 H 430.44 1.7836 4.71385 0
M  V30 4607 H 430.042 2.1935 3.02922 0
M  V30 4608 H 432.334 2.90856 6.1189 0
M  V30 4609 H 433.277 4.33995 5.59512 0
M  V30 4610 H 433.685 2.7248 4.94383 0
M  V30 4611 N 433.083 -1.0153 1.20538 0
M  V30 4612 C 434.013 -2.11972 0.979295 0
M  V30 4613 C 434.994 -1.6985 -0.0921787 0
M  V30 4614 O 436.179 -1.94089 0.0655932 0
M  V30 4615 C 433.309 -3.43201 0.531984 0
M  V30 4616 C 432.263 -3.9907 1.54685 0
M  V30 4617 C 431.589 -5.26082 0.956127 0
M  V30 4618 C 432.889 -4.32313 2.93092 0
M  V30 4619 H 434.583 -2.31143 1.90298 0
M  V30 4620 H 432.129 -1.11079 0.916372 0
M  V30 4621 H 434.082 -4.1985 0.361044 0
M  V30 4622 H 432.806 -3.23792 -0.427327 0
M  V30 4623 H 431.465 -3.2453 1.70517 0
M  V30 4624 H 431.113 -5.02999 -0.0111538 0
M  V30 4625 H 430.813 -5.64426 1.63393 0
M  V30 4626 H 432.337 -6.05386 0.796284 0
M  V30 4627 H 433.751 -4.99845 2.80763 0
M  V30 4628 H 432.148 -4.81774 3.57791 0
M  V30 4629 H 433.218 -3.41025 3.44717 0
M  V30 4630 N 434.561 -1.01147 -1.20859 0
M  V30 4631 C 435.809 -0.696486 -1.89719 0
M  V30 4632 C 436.13 0.775788 -1.78904 0
M  V30 4633 O 435.4 1.55759 -1.18811 0
M  V30 4634 H 433.98 -0.254628 -0.702263 0
M  V30 4635 H 436.642 -1.28197 -1.46804 0
M  V30 4636 H 435.738 -0.975357 -2.96468 0
M  V30 4637 N 436.039 1.36541 -0.78704 0
M  V30 4638 C 437.002 2.28413 -0.189778 0
M  V30 4639 C 438.002 1.48719 0.611499 0
M  V30 4640 O 439.192 1.68737 0.432842 0
M  V30 4641 C 436.324 3.32824 0.737638 0
M  V30 4642 H 437.517 2.82743 -0.999831 0
M  V30 4643 H 435.07 1.46065 -0.556298 0
M  V30 4644 H 435.805 2.83646 1.57212 0
M  V30 4645 H 435.59 3.91752 0.165044 0
M  V30 4646 H 437.08 4.0144 1.15047 0
M  V30 4647 N 437.518 0.538854 1.48102 0
M  V30 4648 C 438.795 -0.0568108 1.95517 0
M  V30 4649 C 439.175 -1.50408 1.48124 0
M  V30 4650 O 438.523 -2.17133 0.711727 0
M  V30 4651 C 438.733 0.0696262 3.48931 0
M  V30 4652 C 440.081 -0.0851202 4.24515 0
M  V30 4653 O 441.105 -0.0037347 3.562 0
M  V30 4654 O 439.964 -0.257025 5.45895 0
M  V30 4655 H 437.058 -0.0743695 0.823649 0
M  V30 4656 H 439.604 0.604081 1.58584 0
M  V30 4657 H 438.376 1.07744 3.76174 0
M  V30 4658 H 437.999 -0.629714 3.92582 0
M  V30 4659 N 438.996 -1.55193 0.274407 0
M  V30 4660 C 440.244 -1.99187 -0.341902 0
M  V30 4661 C 440.565 -1.16422 -1.56431 0
M  V30 4662 O 439.835 -0.253573 -1.94252 0
M  V30 4663 H 438.415 -0.735721 -0.129317 0
M  V30 4664 H 441.077 -1.91168 0.379578 0
M  V30 4665 H 440.173 -3.05629 -0.632253 0
M  V30 4666 N 440.474 -0.00167713 -1.576 0
M  V30 4667 C 441.722 0.681471 -1.90264 0
M  V30 4668 C 442.043 1.7422 -0.875924 0
M  V30 4669 O 441.313 1.95709 0.0864412 0
M  V30 4670 H 439.893 0.254696 -0.702239 0
M  V30 4671 H 442.555 -0.0429996 -1.94853 0
M  V30 4672 H 441.651 1.15166 -2.90075 0
M  V30 4673 N 441.952 1.55251 0.271103 0
M  V30 4674 C 443.198 1.76207 1.00394 0
M  V30 4675 C 443.531 0.562604 1.85872 0
M  V30 4676 O 442.806 -0.439785 1.89463 0
M  V30 4677 C 443.089 3.06828 1.8849 0
M  V30 4678 C 442.942 4.37134 1.05992 0
M  V30 4679 C 444.261 3.33503 2.87165 0
M  V30 4680 H 441.38 0.641086 0.363562 0
M  V30 4681 H 444.022 1.87982 0.276189 0
M  V30 4682 H 442.172 2.96921 2.5054 0
M  V30 4683 H 443.844 4.59001 0.459978 0
M  V30 4684 H 442.087 4.32275 0.363443 0
M  V30 4685 H 442.758 5.2486 1.70955 0
M  V30 4686 H 445.234 3.43215 2.3525 0
M  V30 4687 H 444.11 4.2616 3.45946 0
M  V30 4688 H 444.371 2.53235 3.62387 0
M  V30 4689 N 443.43 -0.535701 1.48216 0
M  V30 4690 C 444.841 -1.11769 1.49548 0
M  V30 4691 C 445.192 -1.94442 0.26207 0
M  V30 4692 O 444.317 -2.06987 -0.631287 0
M  V30 4693 C 444.912 -2.03367 2.70975 0
M  V30 4694 C 443.471 -2.56795 2.75196 0
M  V30 4695 C 442.618 -1.33631 2.42977 0
M  V30 4696 H 445.569 -0.321232 1.55415 0
M  V30 4697 H 445.59 -2.87569 2.49167 0
M  V30 4698 H 445.102 -1.43169 3.60727 0
M  V30 4699 H 443.203 -3.20731 1.89638 0
M  V30 4700 H 443.316 -2.9632 3.76472 0
M  V30 4701 H 441.68 -1.6502 1.94012 0
M  V30 4702 H 442.463 -0.75194 3.34964 0
M  V30 4703 N 444.908 -1.36708 -0.784132 0
M  V30 4704 C 445.818 -1.3363 -1.92822 0
M  V30 4705 C 446.834 -0.237686 -1.72369 0
M  V30 4706 O 448.01 -0.470962 -1.95816 0
M  V30 4707 C 445.075 -1.13011 -3.27764 0
M  V30 4708 C 444.136 -2.32397 -3.60957 0
M  V30 4709 C 443.369 -2.12752 -4.89461 0
M  V30 4710 O 443.592 -1.10541 -5.59586 0
M  V30 4711 O 442.526 -3.00653 -5.21432 0
M  V30 4712 H 446.352 -2.29964 -1.98369 0
M  V30 4713 H 443.937 -1.1731 -0.925136 0
M  V30 4714 H 445.819 -1.03451 -4.08504 0
M  V30 4715 H 444.494 -0.19743 -3.23097 0
M  V30 4716 H 443.401 -2.47527 -2.80502 0
M  V30 4717 H 444.734 -3.2419 -3.70354 0
M  V30 4718 N 446.386 1.0089 -1.21074 0
M  V30 4719 C 447.611 1.78727 -1.05221 0
M  V30 4720 C 448.036 1.83932 0.393795 0
M  V30 4721 O 447.394 1.28004 1.28393 0
M  V30 4722 C 447.442 3.20665 -1.64944 0
M  V30 4723 O 446.546 4.02632 -0.892273 0
M  V30 4724 H 445.887 0.550973 -0.370574 0
M  V30 4725 H 448.417 1.26847 -1.60534 0
M  V30 4726 H 448.427 3.71352 -1.69002 0
M  V30 4727 H 447.102 3.16191 -2.70177 0
M  V30 4728 H 445.679 3.61207 -0.926492 0
M  V30 4729 N 447.864 1.01787 1.20321 0
M  V30 4730 C 449.104 0.716493 1.91431 0
M  V30 4731 C 449.468 -0.740352 1.77152 0
M  V30 4732 O 450.669 -1.1543 2.42754 0
M  V30 4733 C 448.94 1.14169 3.38674 0
M  V30 4734 S 450.499 0.962482 4.28114 0
M  V30 4735 H 447.317 0.261175 0.661293 0
M  V30 4736 H 449.919 1.30539 1.45533 0
M  V30 4737 H 448.623 2.19784 3.46588 0
M  V30 4738 H 448.154 0.545621 3.89598 0
M  V30 4739 H 450.169 -0.133253 4.96021 0
M  V30 4740 N 449.342 -1.36122 0.79427 0
M  V30 4741 C 450.619 -1.93398 0.292685 0
M  V30 4742 C 450.999 -1.72567 -1.21589 0
M  V30 4743 O 450.347 -1.08745 -2.00965 0
M  V30 4744 C 450.557 -3.42099 0.690614 0
M  V30 4745 C 451.905 -4.19231 0.673105 0
M  V30 4746 O 452.929 -3.50559 0.631389 0
M  V30 4747 O 451.788 -5.41732 0.720362 0
M  V30 4748 H 448.882 -0.823712 0.0736693 0
M  V30 4749 H 451.428 -1.45273 0.87714 0
M  V30 4750 H 450.2 -3.50938 1.73085 0
M  V30 4751 H 449.823 -3.97519 0.0803036 0
M  V30 4752 N 450.82 -0.546701 -1.47814 0
M  V30 4753 C 451.75 0.195317 -2.32682 0
M  V30 4754 C 452.731 0.918981 -1.43139 0
M  V30 4755 O 453.916 0.901501 -1.72008 0
M  V30 4756 C 451.046 1.23237 -3.247 0
M  V30 4757 C 450 0.625818 -4.234 0
M  V30 4758 C 449.326 1.76674 -5.04669 0
M  V30 4759 C 450.626 -0.413515 -5.2066 0
M  V30 4760 H 452.32 -0.513184 -2.94969 0
M  V30 4761 H 449.866 -0.248241 -1.41844 0
M  V30 4762 H 451.819 1.75955 -3.82907 0
M  V30 4763 H 450.543 1.97067 -2.60446 0
M  V30 4764 H 449.202 0.120023 -3.66403 0
M  V30 4765 H 448.85 2.49383 -4.36826 0
M  V30 4766 H 448.55 1.36673 -5.71484 0
M  V30 4767 H 450.074 2.29738 -5.65732 0
M  V30 4768 H 451.488 0.0272042 -5.73294 0
M  V30 4769 H 449.885 -0.731825 -5.95621 0
M  V30 4770 H 450.955 -1.31325 -4.66778 0
M  V30 4771 N 452.299 1.55045 -0.282633 0
M  V30 4772 C 453.715 1.59441 0.0712997 0
M  V30 4773 C 453.915 1.2998 1.53972 0
M  V30 4774 O 452.971 1.06431 2.28973 0
M  V30 4775 C 454.284 2.99097 -0.310104 0
M  V30 4776 C 455.832 3.1194 -0.257343 0
M  V30 4777 C 456.307 4.53875 -0.613297 0
M  V30 4778 N 457.798 4.5974 -0.565134 0
M  V30 4779 C 458.533 5.67603 -0.81326 0
M  V30 4780 N 458.029 6.83582 -1.1264 0
M  V30 4781 N 459.822 5.57187 -0.741553 0
M  V30 4782 H 451.973 1.72458 -1.23984 0
M  V30 4783 H 454.236 0.804549 -0.501403 0
M  V30 4784 H 453.942 3.25516 -1.33163 0
M  V30 4785 H 453.816 3.75616 0.345366 0
M  V30 4786 H 456.203 2.85281 0.754905 0
M  V30 4787 H 456.284 2.37618 -0.947178 0
M  V30 4788 H 455.928 4.81261 -1.62327 0
M  V30 4789 H 455.858 5.26508 0.09841 0
M  V30 4790 H 458.349 3.76427 -0.333294 0
M  V30 4791 H 458.662 7.6175 -1.30219 0
M  V30 4792 H 457.007 6.85179 -1.16425 0
M  V30 4793 H 460.198 4.65457 -0.496705 0
M  V30 4794 H 460.371 6.41171 -0.938306 0
M  V30 4795 N 453.777 0.010035 1.57597 0
M  V30 4796 C 454.707 -0.976857 2.12084 0
M  V30 4797 C 455.688 -1.35191 1.03235 0
M  V30 4798 O 456.873 -1.43389 1.3097 0
M  V30 4799 C 454.003 -2.26548 2.63236 0
M  V30 4800 C 452.957 -2.03175 3.76701 0
M  V30 4801 C 452.283 -3.38138 4.14206 0
M  V30 4802 C 453.583 -1.38625 5.03568 0
M  V30 4803 H 455.277 -0.523145 2.94794 0
M  V30 4804 H 452.823 -0.250195 1.4181 0
M  V30 4805 H 454.776 -2.95952 2.99984 0
M  V30 4806 H 453.5 -2.74051 1.77661 0
M  V30 4807 H 452.159 -1.36195 3.40362 0
M  V30 4808 H 451.807 -3.83363 3.25641 0
M  V30 4809 H 451.507 -3.23312 4.90656 0
M  V30 4810 H 453.031 -4.08841 4.53521 0
M  V30 4811 H 454.445 -1.98 5.38023 0
M  V30 4812 H 452.842 -1.34256 5.84889 0
M  V30 4813 H 453.912 -0.356722 4.83586 0
M  V30 4814 N 455.255 -1.55392 -0.262866 0
M  V30 4815 C 456.495 -1.78231 -1.00064 0
M  V30 4816 C 456.859 -0.576966 -1.83126 0
M  V30 4817 O 458.06 -0.683809 -2.59957 0
M  V30 4818 C 456.331 -3.05701 -1.85153 0
M  V30 4819 S 457.89 -3.49699 -2.65058 0
M  V30 4820 H 454.708 -0.626138 -0.336856 0
M  V30 4821 H 457.31 -1.93626 -0.27005 0
M  V30 4822 H 456.014 -3.91511 -1.23074 0
M  V30 4823 H 455.545 -2.93 -2.62515 0
M  V30 4824 H 457.56 -3.09772 -3.87629 0
M  V30 4825 N 456.733 0.527833 -1.48498 0
M  V30 4826 C 457.961 1.30823 -1.6029 0
M  V30 4827 C 458.376 1.86945 -0.263974 0
M  V30 4828 O 457.733 1.6651 0.747034 0
M  V30 4829 C 457.784 2.45756 -2.65116 0
M  V30 4830 O 457.505 1.91946 -3.93813 0
M  V30 4831 C 459.006 3.37543 -2.87367 0
M  V30 4832 H 456.226 0.397763 -0.540394 0
M  V30 4833 H 458.77 0.636529 -1.94341 0
M  V30 4834 H 456.925 3.08806 -2.33917 0
M  V30 4835 H 457.339 2.67195 -4.51339 0
M  V30 4836 H 458.813 4.14532 -3.6451 0
M  V30 4837 H 459.29 3.92905 -1.9627 0
M  V30 4838 H 459.896 2.80283 -3.19878 0
M  V30 4839 N 458.211 1.37122 0.776871 0
M  V30 4840 C 459.141 1.35164 1.90402 0
M  V30 4841 C 460.122 0.221069 1.68657 0
M  V30 4842 O 461.307 0.420642 1.8959 0
M  V30 4843 C 458.437 1.15274 3.27611 0
M  V30 4844 C 457.391 2.25289 3.63908 0
M  V30 4845 C 456.717 1.90527 4.99603 0
M  V30 4846 C 458.017 3.67446 3.71188 0
M  V30 4847 H 459.711 2.29482 1.92297 0
M  V30 4848 H 457.257 1.10465 0.923773 0
M  V30 4849 H 459.21 1.12536 4.06096 0
M  V30 4850 H 457.934 0.174102 3.26136 0
M  V30 4851 H 456.593 2.27174 2.87728 0
M  V30 4852 H 456.241 0.91206 4.94662 0
M  V30 4853 H 455.941 2.64193 5.24858 0
M  V30 4854 H 457.465 1.89367 5.80493 0
M  V30 4855 H 458.879 3.67719 4.39836 0
M  V30 4856 H 457.276 4.40123 4.07936 0
M  V30 4857 H 458.346 4.01443 2.71977 0
M  V30 4858 N 459.689 -1.00246 1.21608 0
M  V30 4859 C 460.966 -1.71336 0.943568 0
M  V30 4860 C 461.346 -2.03972 -0.543943 0
M  V30 4861 O 460.694 -1.71545 -1.50946 0
M  V30 4862 C 460.904 -2.97094 1.83128 0
M  V30 4863 C 462.252 -3.70071 2.08165 0
M  V30 4864 O 463.276 -3.07081 1.80498 0
M  V30 4865 O 462.135 -4.83376 2.54971 0
M  V30 4866 H 459.229 -0.747386 0.354039 0
M  V30 4867 H 461.775 -1.05967 1.32549 0
M  V30 4868 H 460.547 -2.69407 2.83788 0
M  V30 4869 H 460.17 -3.70204 1.45034 0
M  V30 4870 N 461.167 -1.02423 -1.1978 0
M  V30 4871 C 462.578 -0.748389 -1.71044 0
M  V30 4872 C 462.929 0.732398 -1.82017 0
M  V30 4873 O 462.054 1.57116 -1.48807 0
M  V30 4874 C 462.649 -1.35187 -3.1066 0
M  V30 4875 C 461.208 -1.12472 -3.59203 0
M  V30 4876 C 460.355 -1.45283 -2.36195 0
M  V30 4877 H 463.306 -1.19275 -1.04686 0
M  V30 4878 H 463.327 -0.746408 -3.73107 0
M  V30 4879 H 462.839 -2.4296 -3.02642 0
M  V30 4880 H 460.94 -0.0649983 -3.72543 0
M  V30 4881 H 461.053 -1.81016 -4.43588 0
M  V30 4882 H 459.417 -0.872034 -2.39307 0
M  V30 4883 H 460.2 -2.54129 -2.30811 0
M  V30 4884 N 462.645 1.35699 -0.801477 0
M  V30 4885 C 463.922 1.9324 -0.302937 0
M  V30 4886 C 464.302 1.73209 1.20672 0
M  V30 4887 O 463.65 1.09809 2.00385 0
M  V30 4888 C 463.86 3.41728 -0.708747 0
M  V30 4889 C 465.208 4.18868 -0.695328 0
M  V30 4890 O 466.232 3.5022 -0.649971 0
M  V30 4891 O 465.091 5.41342 -0.749081 0
M  V30 4892 H 462.185 0.82331 -0.0780367 0
M  V30 4893 H 464.731 1.44806 -0.884832 0
M  V30 4894 H 463.503 3.50015 -1.74944 0
M  V30 4895 H 463.126 3.97471 -0.101384 0
M  V30 4896 N 464.123 0.554532 1.47522 0
M  V30 4897 C 465.4 -0.0360704 1.95567 0
M  V30 4898 C 465.78 -1.48828 1.49711 0
M  V30 4899 O 465.128 -2.16366 0.734717 0
M  V30 4900 C 465.338 0.106631 3.48837 0
M  V30 4901 C 466.686 -0.0400899 4.24581 0
M  V30 4902 O 467.71 0.0340453 3.56184 0
M  V30 4903 O 466.569 -0.199111 5.46137 0
M  V30 4904 H 463.663 -0.0656294 0.824392 0
M  V30 4905 H 466.209 0.620867 1.57935 0
M  V30 4906 H 464.981 1.11727 3.7501 0
M  V30 4907 H 464.604 -0.58804 3.93227 0
M  V30 4908 N 465.601 -1.54893 0.290851 0
M  V30 4909 C 466.847 -2.0023 -0.321867 0
M  V30 4910 C 467.18 -1.179 -1.54316 0
M  V30 4911 O 466.455 -0.25293 -1.92848 0
M  V30 4912 C 466.738 -3.53456 -0.688515 0
M  V30 4913 C 466.591 -4.46532 0.541209 0
M  V30 4914 C 467.91 -4.13057 -1.51895 0
M  V30 4915 H 465.029 -0.727891 -0.115515 0
M  V30 4916 H 467.671 -1.85722 0.400931 0
M  V30 4917 H 465.821 -3.6595 -1.30433 0
M  V30 4918 H 467.493 -4.4596 1.17973 0
M  V30 4919 H 465.736 -4.17545 1.17636 0
M  V30 4920 H 466.407 -5.51475 0.240675 0
M  V30 4921 H 468.883 -4.03937 -0.99872 0
M  V30 4922 H 467.759 -5.20448 -1.74429 0
M  V30 4923 H 468.02 -3.64284 -2.50498 0
M  V30 4924 N 467.08 -0.0183926 -1.57589 0
M  V30 4925 C 468.043 0.951986 -2.08494 0
M  V30 4926 C 469.043 1.26092 -0.997874 0
M  V30 4927 O 470.233 1.20304 -1.25987 0
M  V30 4928 C 467.365 2.27165 -2.54182 0
M  V30 4929 H 468.558 0.511307 -2.95509 0
M  V30 4930 H 466.111 0.229444 -1.54607 0
M  V30 4931 H 466.846 2.75884 -1.70465 0
M  V30 4932 H 466.631 2.06057 -3.33591 0
M  V30 4933 H 468.121 2.9674 -2.93828 0
M  V30 4934 N 468.558 1.5553 0.254621 0
M  V30 4935 C 469.783 1.81383 1.00573 0
M  V30 4936 C 470.208 0.594419 1.78461 0
M  V30 4937 O 469.566 -0.456403 1.75461 0
M  V30 4938 C 469.614 3.04892 1.92545 0
M  V30 4939 O 468.718 2.81266 3.01601 0
M  V30 4940 H 468.059 0.598969 0.286587 0
M  V30 4941 H 470.589 2.02703 0.277952 0
M  V30 4942 H 470.599 3.34119 2.34155 0
M  V30 4943 H 469.274 3.93287 1.3527 0
M  V30 4944 H 467.851 2.63185 2.64174 0
M  V30 4945 N 470.036 -0.519951 1.48776 0
M  V30 4946 C 471.264 -1.29971 1.60982 0
M  V30 4947 C 471.679 -1.86803 0.273885 0
M  V30 4948 O 471.036 -1.66904 -0.738193 0
M  V30 4949 C 471.087 -2.44346 2.66415 0
M  V30 4950 O 470.808 -1.89855 3.94825 0
M  V30 4951 C 472.309 -3.36014 2.89153 0
M  V30 4952 H 469.529 -0.394891 0.542496 0
M  V30 4953 H 472.073 -0.626214 1.94676 0
M  V30 4954 H 470.228 -3.07562 2.35552 0
M  V30 4955 H 470.642 -2.64798 4.5275 0
M  V30 4956 H 472.116 -4.12593 3.66703 0
M  V30 4957 H 472.593 -3.91859 1.98351 0
M  V30 4958 H 473.199 -2.78582 3.21359 0
M  V30 4959 N 471.514 -1.37532 -0.769588 0
M  V30 4960 C 472.742 -1.36059 -1.55871 0
M  V30 4961 C 473.157 0.053544 -1.88724 0
M  V30 4962 O 472.514 1.01591 -1.5161 0
M  V30 4963 C 472.565 -2.20107 -2.86767 0
M  V30 4964 O 472.286 -3.56009 -2.55321 0
M  V30 4965 C 473.787 -2.26636 -3.80987 0
M  V30 4966 H 471.007 -0.465967 -0.482821 0
M  V30 4967 H 473.551 -1.80901 -0.953686 0
M  V30 4968 H 471.706 -1.78768 -3.43687 0
M  V30 4969 H 472.12 -4.0009 -3.39158 0
M  V30 4970 H 473.594 -2.89763 -4.69831 0
M  V30 4971 H 474.071 -1.2754 -4.20274 0
M  V30 4972 H 474.677 -2.68296 -3.29996 0
M  V30 4973 N 472.992 0.995999 -1.22138 0
M  V30 4974 C 474.217 1.77601 -1.0711 0
M  V30 4975 C 474.642 1.84339 0.374264 0
M  V30 4976 O 474 1.29359 1.27028 0
M  V30 4977 C 474.048 3.18897 -1.68336 0
M  V30 4978 O 473.152 4.01663 -0.934928 0
M  V30 4979 H 472.493 0.547011 -0.376397 0
M  V30 4980 H 475.023 1.25137 -1.6187 0
M  V30 4981 H 475.033 3.69539 -1.72931 0
M  V30 4982 H 473.708 3.13308 -2.73516 0
M  V30 4983 H 472.285 3.60204 -0.964751 0
M  V30 4984 N 474.47 1.03057 1.19235 0
M  V30 4985 C 475.695 0.74757 1.93458 0
M  V30 4986 C 476.12 -0.687648 1.7508 0
M  V30 4987 O 475.478 -1.47499 1.05422 0
M  V30 4988 C 475.526 1.10604 3.43219 0
M  V30 4989 O 474.63 0.225671 4.11782 0
M  V30 4990 H 473.971 0.276047 0.603899 0
M  V30 4991 H 476.501 1.3777 1.51263 0
M  V30 4992 H 476.511 1.06366 3.93891 0
M  V30 4993 H 475.186 2.15165 3.55917 0
M  V30 4994 H 473.763 0.326795 3.71465 0
M  V30 4995 N 475.948 -1.35272 0.808662 0
M  V30 4996 C 477.173 -2.03477 0.401475 0
M  V30 4997 C 477.598 -1.60537 -0.980279 0
M  V30 4998 O 476.956 -0.78304 -1.63518 0
M  V30 4999 C 477.004 -3.57181 0.495354 0
M  V30 5000 O 476.108 -4.09474 -0.490397 0
M  V30 5001 H 475.449 -0.642561 0.167366 0
M  V30 5002 H 477.979 -1.72824 1.09512 0
M  V30 5003 H 477.989 -4.06356 0.365912 0
M  V30 5004 H 476.664 -3.87784 1.5032 0
M  V30 5005 H 475.241 -3.71516 -0.321023 0
M  V30 5006 N 477.426 -0.562348 -1.47226 0
M  V30 5007 C 478.336 0.185466 -2.33866 0
M  V30 5008 C 479.352 0.906713 -1.48508 0
M  V30 5009 O 480.528 0.874458 -1.81425 0
M  V30 5010 C 477.593 1.19904 -3.25306 0
M  V30 5011 C 476.654 0.484669 -4.26555 0
M  V30 5012 C 475.887 1.44996 -5.13626 0
M  V30 5013 O 476.11 2.68515 -5.03245 0
M  V30 5014 O 475.044 0.971642 -5.94006 0
M  V30 5015 H 478.87 -0.525361 -2.99121 0
M  V30 5016 H 476.455 -0.322916 -1.45868 0
M  V30 5017 H 478.337 1.78399 -3.81774 0
M  V30 5018 H 477.012 1.8917 -2.62672 0
M  V30 5019 H 475.919 -0.141605 -3.73832 0
M  V30 5020 H 477.252 -0.166634 -4.91918 0
M  V30 5021 N 478.904 1.54736 -0.299062 0
M  V30 5022 C 480.129 2.04975 0.316254 0
M  V30 5023 C 480.554 1.17501 1.46885 0
M  V30 5024 O 479.912 0.178678 1.80417 0
M  V30 5025 C 479.96 3.52672 0.751997 0
M  V30 5026 O 479.064 3.68226 1.85697 0
M  V30 5027 H 478.405 0.661126 0.0617175 0
M  V30 5028 H 480.935 1.99805 -0.440341 0
M  V30 5029 H 480.945 3.94488 1.04133 0
M  V30 5030 H 479.62 4.158 -0.0911482 0
M  V30 5031 H 478.197 3.38316 1.56834 0
M  V30 5032 N 480.382 0.0267497 1.57577 0
M  V30 5033 C 481.312 -0.954308 2.13108 0
M  V30 5034 C 482.293 -1.34088 1.04663 0
M  V30 5035 O 483.478 -1.41992 1.32484 0
M  V30 5036 C 480.608 -2.23744 2.65624 0
M  V30 5037 C 479.562 -1.99168 3.78835 0
M  V30 5038 C 478.888 -3.33726 4.17769 0
M  V30 5039 C 480.188 -1.33277 5.0501 0
M  V30 5040 H 481.882 -0.491848 2.95332 0
M  V30 5041 H 479.428 -0.23514 1.42067 0
M  V30 5042 H 481.381 -2.92754 3.03106 0
M  V30 5043 H 480.105 -2.72151 1.80558 0
M  V30 5044 H 478.764 -1.32577 3.41788 0
M  V30 5045 H 478.412 -3.79888 3.29688 0
M  V30 5046 H 478.112 -3.18089 4.94058 0
M  V30 5047 H 479.636 -4.04008 4.57832 0
M  V30 5048 H 481.05 -1.92283 5.40093 0
M  V30 5049 H 479.447 -1.28045 5.8628 0
M  V30 5050 H 480.517 -0.305411 4.83937 0
M  V30 5051 O 481.899 -1.6109 -0.114939 0
M  V30 5052 H 482.59 -1.78767 -0.745784 0
M  V30 END ATOM
M  V30 BEGIN BOND
M  V30 END BOND
M  V30 END CTAB
M  END
$$$$
