drugbank_target|Q13237 cGMP-dependent protein kinase 2 (DB12010)
 OpenBabel12092121183D

  0  0  0     0  0            999 V3000
M  V30 BEGIN CTAB
M  V30 COUNTS 12356 12477 0 0 0
M  V30 BEGIN ATOM
M  V30 1 H -0.908 1.98254 -0.117106 0
M  V30 2 N 0 1.576 0 0
M  V30 3 C 0.933 2.03868 1.02534 0
M  V30 4 C 1.911 0.928543 1.3348 0
M  V30 5 O 3.095 1.19667 1.45644 0
M  V30 6 C 0.222 2.43627 2.35294 0
M  V30 7 C -0.732 3.65373 2.2001 0
M  V30 8 S 0.101 5.13292 1.52614 0
M  V30 9 C 1.257 5.56322 2.86805 0
M  V30 10 H 1.49 2.90518 0.631377 0
M  V30 11 H -0.977 1.52953 0.210867 0
M  V30 12 H 0.981 2.67203 3.11629 0
M  V30 13 H -0.358 1.57376 2.7183 0
M  V30 14 H -1.165 3.90944 3.18086 0
M  V30 15 H -1.563 3.418 1.51819 0
M  V30 16 H 0.729 5.58782 3.83104 0
M  V30 17 H 1.672 6.56266 2.65933 0
M  V30 18 H 2.08 4.83886 2.90714 0
M  V30 19 N 1.4781 -0.272755 1.55222 0
M  V30 20 C 2.7261 -1.00234 1.75492 0
M  V30 21 C 3.0471 -1.8681 0.5592 0
M  V30 22 O 2.3171 -1.91215 -0.425882 0
M  V30 23 H 0.8971 -0.373076 0.647166 0
M  V30 24 H 3.5591 -0.296926 1.92625 0
M  V30 25 H 2.6551 -1.63913 2.65592 0
M  V30 26 N 2.9562 -1.48159 -0.537278 0
M  V30 27 C 3.9042 -1.62573 -1.66352 0
M  V30 28 C 4.8982 -0.492366 -1.62087 0
M  V30 29 O 6.1042 -0.670847 -1.67032 0
M  V30 30 H 2.4792 -0.511992 -0.550789 0
M  V30 31 H 4.4502 -2.57176 -1.51337 0
M  V30 32 C 3.1992 -1.67583 -3.04649 0
M  V30 33 H 2.5222 -2.54151 -3.08622 0
M  V30 34 H 3.9622 -1.81713 -3.83088 0
M  V30 35 C 2.4212 -0.413039 -3.34358 0
M  V30 36 O 2.9512 0.477259 -3.98855 0
M  V30 37 N 1.1572 -0.286961 -2.8918 0
M  V30 38 H 0.7042 -1.01241 -2.36871 0
M  V30 39 H 0.6622 0.556963 -3.09427 0
M  V30 40 N 4.4343 0.785586 -1.36625 0
M  V30 41 C 5.6823 1.54057 -1.30808 0
M  V30 42 C 6.0033 1.94683 0.111157 0
M  V30 43 O 5.2733 1.65241 1.05224 0
M  V30 44 H 3.8533 0.571354 -0.481211 0
M  V30 45 H 6.5153 0.935821 -1.70963 0
M  V30 46 H 5.6113 2.44637 -1.93801 0
M  V30 47 N 5.9124 1.20967 1.01018 0
M  V30 48 C 7.1374 1.0503 1.78839 0
M  V30 49 C 7.5624 -0.395752 1.8389 0
M  V30 50 O 6.9204 -1.28529 1.27867 0
M  V30 51 C 6.9684 1.64602 3.2084 0
M  V30 52 O 6.0724 0.887988 4.02726 0
M  V30 53 H 5.4134 0.369987 0.551367 0
M  V30 54 H 7.9434 1.60399 1.27018 0
M  V30 55 H 7.9534 1.68607 3.71532 0
M  V30 56 H 6.6284 2.69841 3.16479 0
M  V30 57 H 5.2054 0.922648 3.61305 0
M  V30 58 N 7.3905 -1.2043 1.01659 0
M  V30 59 C 8.6365 -1.90079 0.706963 0
M  V30 60 C 8.9695 -1.78648 -0.761474 0
M  V30 61 O 8.2445 -1.17069 -1.55323 0
M  V30 62 C 8.5275 -3.41469 1.14327 0
M  V30 63 C 8.3805 -3.61833 2.67201 0
M  V30 64 C 9.6995 -4.34261 0.714529 0
M  V30 65 H 6.8185 -0.690254 0.2583 0
M  V30 66 H 9.4605 -1.41826 1.26433 0
M  V30 67 H 7.6105 -3.82696 0.669056 0
M  V30 68 H 9.2825 -3.2986 3.22475 0
M  V30 69 H 7.5255 -3.05304 3.08175 0
M  V30 70 H 8.1965 -4.67955 2.92783 0
M  V30 71 H 10.6725 -4.00682 1.12221 0
M  V30 72 H 9.5485 -5.38806 1.04784 0
M  V30 73 H 9.8095 -4.40431 -0.383799 0
M  V30 74 N 8.8686 -0.792821 -1.36206 0
M  V30 75 C 9.8156 -0.191653 -2.30003 0
M  V30 76 C 10.7856 0.666453 -1.52143 0
M  V30 77 O 11.9706 0.61442 -1.80636 0
M  V30 78 C 9.1106 0.664848 -3.38635 0
M  V30 79 C 8.2236 -0.212175 -4.31479 0
M  V30 80 C 7.3586 0.651022 -5.27196 0
M  V30 81 C 6.3976 -0.227247 -6.11678 0
M  V30 82 N 5.5346 0.595127 -6.99573 0
M  V30 83 H 10.3746 -0.996978 -2.80828 0
M  V30 84 H 7.9116 -0.503206 -1.38225 0
M  V30 85 H 9.8696 1.17645 -4.00269 0
M  V30 86 H 8.4996 1.43557 -2.89122 0
M  V30 87 H 7.5516 -0.841777 -3.70969 0
M  V30 88 H 8.8636 -0.888751 -4.90818 0
M  V30 89 H 8.0176 1.2283 -5.94136 0
M  V30 90 H 6.7566 1.36121 -4.68319 0
M  V30 91 H 5.7616 -0.816904 -5.43697 0
M  V30 92 H 6.9866 -0.93509 -6.72631 0
M  V30 93 H 4.9326 1.28955 -6.432 0
M  V30 94 H 4.8496 -0.0236952 -7.55996 0
M  V30 95 H 6.1176 1.15613 -7.70879 0
M  V30 96 N 10.3467 1.47872 -0.545128 0
M  V30 97 C 11.7577 1.86384 -0.108581 0
M  V30 98 C 12.1087 1.45309 1.31832 0
M  V30 99 O 11.2337 0.850641 1.9898 0
M  V30 100 C 11.8287 3.38265 -0.190274 0
M  V30 101 C 10.3877 3.75914 0.191164 0
M  V30 102 C 9.5347 2.71926 -0.543273 0
M  V30 103 H 12.4857 1.39561 -0.755537 0
M  V30 104 H 12.5067 3.75831 0.594217 0
M  V30 105 H 12.0187 3.6813 -1.2289 0
M  V30 106 H 10.1197 3.51665 1.23136 0
M  V30 107 H 10.2327 4.78836 -0.158987 0
M  V30 108 H 8.5967 2.54697 0.0122495 0
M  V30 109 H 9.3797 3.04634 -1.58282 0
M  V30 110 N 11.8248 0.280983 1.55075 0
M  V30 111 C 12.7718 -0.603937 2.22758 0
M  V30 112 C 13.7418 -1.1452 1.20309 0
M  V30 113 O 14.9268 -1.19343 1.48869 0
M  V30 114 C 12.0668 -1.77947 2.95684 0
M  V30 115 C 11.1798 -1.2715 4.12864 0
M  V30 116 C 10.3148 -2.4093 4.7342 0
M  V30 117 C 9.3538 -1.87165 5.82783 0
M  V30 118 N 8.4908 -2.94441 6.37377 0
M  V30 119 H 13.3308 -0.020124 2.97993 0
M  V30 120 H 10.8678 0.00183425 1.471 0
M  V30 121 H 12.8258 -2.47055 3.36184 0
M  V30 122 H 11.4558 -2.33522 2.22861 0
M  V30 123 H 10.5078 -0.473331 3.77444 0
M  V30 124 H 11.8198 -0.837751 4.91715 0
M  V30 125 H 10.9738 -3.18021 5.1667 0
M  V30 126 H 9.7128 -2.87623 3.93859 0
M  V30 127 H 8.7178 -1.08556 5.38976 0
M  V30 128 H 9.9428 -1.41401 6.64216 0
M  V30 129 H 7.8888 -3.40505 5.60707 0
M  V30 130 H 7.8058 -2.55501 7.11516 0
M  V30 131 H 9.0738 -3.71489 6.85285 0
M  V30 132 N 13.3029 -1.57598 0.00835791 0
M  V30 133 C 14.2529 -2.05431 -0.989045 0
M  V30 134 C 15.2369 -0.950662 -1.29812 0
M  V30 135 O 16.4289 -1.21438 -1.28771 0
M  V30 136 C 13.5579 -2.56801 -2.27833 0
M  V30 137 C 12.6439 -3.74058 -1.99853 0
M  V30 138 N 13.0349 -4.8544 -1.42062 0
M  V30 139 C 11.3329 -3.82148 -2.29953 0
M  V30 140 C 12.0339 -5.66817 -1.30743 0
M  V30 141 N 11.0099 -5.13077 -1.7959 0
M  V30 142 H 14.8119 -2.88955 -0.536853 0
M  V30 143 H 12.3259 -1.61199 -0.197148 0
M  V30 144 H 14.3229 -2.89349 -3.00137 0
M  V30 145 H 12.9829 -1.74699 -2.73698 0
M  V30 146 H 13.9939 -5.0612 -1.09833 0
M  V30 147 H 10.6709 -3.10916 -2.78635 0
M  V30 148 H 12.0609 -6.66343 -0.862328 0
M  V30 149 N 14.781 0.264519 -1.55364 0
M  V30 150 C 16.006 1.01726 -1.80739 0
M  V30 151 C 16.431 1.78836 -0.583044 0
M  V30 152 O 15.789 1.75167 0.467566 0
M  V30 153 C 15.837 1.94482 -3.03659 0
M  V30 154 O 14.941 3.03386 -2.7934 0
M  V30 155 H 14.282 0.290395 -0.597132 0
M  V30 156 H 16.812 0.290854 -2.02522 0
M  V30 157 H 16.822 2.36278 -3.32621 0
M  V30 158 H 15.497 1.37772 -3.92418 0
M  V30 159 H 14.074 2.65844 -2.61498 0
M  V30 160 N 16.2591 1.48442 0.529413 0
M  V30 161 C 17.2061 1.63007 1.63394 0
M  V30 162 C 18.1761 0.47212 1.59249 0
M  V30 163 O 19.3611 0.695673 1.77666 0
M  V30 164 C 16.5011 1.6763 3.01653 0
M  V30 165 C 15.6141 2.94535 3.16027 0
M  V30 166 C 14.7491 2.90316 4.44849 0
M  V30 167 C 13.7881 4.11923 4.52754 0
M  V30 168 N 12.9251 4.05777 5.72965 0
M  V30 169 H 17.7651 2.5733 1.50285 0
M  V30 170 H 15.3021 1.27613 0.731656 0
M  V30 171 H 17.2601 1.68292 3.81751 0
M  V30 172 H 15.8901 0.76797 3.13532 0
M  V30 173 H 14.9421 3.03615 2.29177 0
M  V30 174 H 16.2541 3.84512 3.17729 0
M  V30 175 H 15.4081 2.89382 5.33238 0
M  V30 176 H 14.1471 1.98068 4.45668 0
M  V30 177 H 13.1521 4.13131 3.62771 0
M  V30 178 H 14.3771 5.0533 4.53672 0
M  V30 179 H 12.3231 3.16351 5.74681 0
M  V30 180 H 12.2401 4.8946 5.76164 0
M  V30 181 H 13.5081 4.08904 6.6364 0
M  V30 182 N 17.7372 -0.778329 1.37039 0
M  V30 183 C 18.6872 -1.88142 1.28789 0
M  V30 184 C 19.6712 -1.59923 0.177063 0
M  V30 185 O 20.8632 -1.72165 0.410873 0
M  V30 186 C 17.9922 -3.25518 1.09055 0
M  V30 187 C 17.0782 -3.5971 2.24654 0
M  V30 188 N 17.4692 -3.65131 3.50018 0
M  V30 189 C 15.7672 -3.89837 2.16663 0
M  V30 190 C 16.4682 -3.95882 4.26207 0
M  V30 191 N 15.4442 -4.11441 3.55271 0
M  V30 192 H 19.2462 -1.90575 2.23737 0
M  V30 193 H 16.7602 -0.974435 1.29917 0
M  V30 194 H 18.7572 -4.04423 1.0123 0
M  V30 195 H 17.4172 -3.24353 0.15018 0
M  V30 196 H 18.4282 -3.475 3.84011 0
M  V30 197 H 15.1052 -3.96533 1.30645 0
M  V30 198 H 16.4952 -4.06907 5.34674 0
M  V30 199 N 19.2153 -1.21501 -1.00376 0
M  V30 200 C 20.6263 -1.03146 -1.55621 0
M  V30 201 C 20.9773 0.408375 -1.91903 0
M  V30 202 O 20.1023 1.29177 -1.73616 0
M  V30 203 C 20.6973 -1.86612 -2.82775 0
M  V30 204 C 19.2563 -1.72586 -3.34501 0
M  V30 205 C 18.4033 -1.83747 -2.07683 0
M  V30 206 H 21.3543 -1.35505 -0.826081 0
M  V30 207 H 21.3753 -1.3771 -3.54706 0
M  V30 208 H 20.8873 -2.91399 -2.56336 0
M  V30 209 H 18.9883 -0.704877 -3.65872 0
M  V30 210 H 19.1013 -2.54623 -4.05837 0
M  V30 211 H 17.4653 -1.27069 -2.20739 0
M  V30 212 H 18.2483 -2.90044 -1.83655 0
M  V30 213 N 20.6934 1.19889 -1.02296 0
M  V30 214 C 21.9704 1.85148 -0.630832 0
M  V30 215 C 22.3504 1.91385 0.890782 0
M  V30 216 O 21.6984 1.42642 1.78509 0
M  V30 217 C 21.9084 3.24442 -1.28602 0
M  V30 218 C 23.2564 4.00663 -1.4055 0
M  V30 219 O 24.2804 3.33818 -1.24273 0
M  V30 220 O 23.1394 5.20387 -1.66913 0
M  V30 221 H 20.2334 0.797613 -0.218499 0
M  V30 222 H 22.7794 1.27427 -1.12074 0
M  V30 223 H 21.5514 3.14704 -2.32545 0
M  V30 224 H 21.1744 3.89802 -0.7836 0
M  V30 225 N 22.1715 0.800033 1.35784 0
M  V30 226 C 23.4195 0.376597 1.9856 0
M  V30 227 C 23.7405 -1.05812 1.63795 0
M  V30 228 O 23.0105 -1.73103 0.917171 0
M  V30 229 H 21.5905 0.136261 0.734467 0
M  V30 230 H 24.2525 1.02442 1.65806 0
M  V30 231 H 23.3485 0.477002 3.08433 0
M  V30 232 N 23.6496 -1.47581 0.552962 0
M  V30 233 C 24.5996 -2.26961 -0.217423 0
M  V30 234 C 25.5836 -1.34099 -0.889168 0
M  V30 235 O 26.7756 -1.58483 -0.788176 0
M  V30 236 C 23.9046 -3.19756 -1.24944 0
M  V30 237 C 22.9906 -4.20097 -0.581327 0
M  V30 238 N 23.3816 -5.04614 0.346171 0
M  V30 239 C 21.6796 -4.38099 -0.835767 0
M  V30 240 C 22.3806 -5.77052 0.733854 0
M  V30 241 N 21.3566 -5.43526 0.0896567 0
M  V30 242 H 25.1586 -2.89688 0.495761 0
M  V30 243 H 22.6726 -1.58068 0.372597 0
M  V30 244 H 24.6696 -3.75305 -1.81527 0
M  V30 245 H 23.3296 -2.58585 -1.96376 0
M  V30 246 H 24.3406 -5.12869 0.720098 0
M  V30 247 H 21.0176 -3.88102 -1.53892 0
M  V30 248 H 22.4076 -6.5504 1.49574 0
M  V30 249 N 25.1277 -0.289203 -1.54924 0
M  V30 250 C 26.3527 0.329299 -2.04769 0
M  V30 251 C 26.7777 1.4763 -1.16564 0
M  V30 252 O 26.1357 1.80527 -0.167186 0
M  V30 253 C 26.1837 0.774438 -3.52186 0
M  V30 254 O 25.2877 1.88038 -3.67036 0
M  V30 255 H 24.6287 0.0659259 -0.660719 0
M  V30 256 H 27.1587 -0.42761 -2.00082 0
M  V30 257 H 27.1687 1.06642 -3.93816 0
M  V30 258 H 25.8437 -0.0646707 -4.1585 0
M  V30 259 H 24.4207 1.58985 -3.3731 0
M  V30 260 N 26.6058 1.57591 -0.0167156 0
M  V30 261 C 27.8538 1.90906 0.663285 0
M  V30 262 C 28.1748 0.892509 1.73376 0
M  V30 263 O 27.4448 -0.0677623 1.95783 0
M  V30 264 H 26.0248 0.704637 0.247983 0
M  V30 265 H 28.6868 1.94803 -0.0615909 0
M  V30 266 H 27.7828 2.9116 1.12393 0
M  V30 267 N 28.0839 -0.256276 1.55502 0
M  V30 268 C 29.0319 -1.33694 1.90338 0
M  V30 269 C 30.0259 -1.50299 0.781441 0
M  V30 270 O 31.2319 -1.51885 0.965966 0
M  V30 271 H 27.6069 -0.447483 0.60437 0
M  V30 272 H 29.5779 -1.01574 2.8058 0
M  V30 273 C 28.3269 -2.68724 2.20642 0
M  V30 274 H 27.6499 -2.56743 3.06469 0
M  V30 275 H 29.0899 -3.43237 2.48926 0
M  V30 276 C 27.5489 -3.21101 1.01959 0
M  V30 277 O 28.0789 -4.0084 0.262762 0
M  V30 278 N 26.2849 -2.79003 0.812746 0
M  V30 279 H 25.8319 -2.14271 1.42989 0
M  V30 280 H 25.7899 -3.14393 0.0203076 0
M  V30 281 N 29.562 -1.4872 -0.521534 0
M  V30 282 C 30.492 -1.66771 -1.63431 0
M  V30 283 C 31.473 -0.516499 -1.62069 0
M  V30 284 O 32.658 -0.750013 -1.79132 0
M  V30 285 C 29.788 -1.71515 -3.01993 0
M  V30 286 C 28.742 -2.86222 -3.18216 0
M  V30 287 C 28.068 -2.76061 -4.57924 0
M  V30 288 C 29.368 -4.27419 -3.00184 0
M  V30 289 H 31.062 -2.59932 -1.48579 0
M  V30 290 H 28.608 -1.25089 -0.713358 0
M  V30 291 H 30.561 -1.82731 -3.7972 0
M  V30 292 H 29.285 -0.749393 -3.17886 0
M  V30 293 H 27.944 -2.74575 -2.42908 0
M  V30 294 H 27.592 -1.77437 -4.70665 0
M  V30 295 H 27.292 -3.53037 -4.69722 0
M  V30 296 H 28.816 -2.89256 -5.37739 0
M  V30 297 H 30.23 -4.39855 -3.67697 0
M  V30 298 H 28.627 -5.05458 -3.2347 0
M  V30 299 H 29.697 -4.43293 -1.96518 0
M  V30 300 N 31.0401 0.771051 -1.3745 0
M  V30 301 C 32.2681 1.56015 -1.35893 0
M  V30 302 C 32.6831 1.88718 0.0555523 0
M  V30 303 O 32.0401 1.51502 1.01752 0
M  V30 304 C 32.0911 2.87001 -2.19801 0
M  V30 305 O 31.8121 2.557 -3.55738 0
M  V30 306 C 33.3131 3.81228 -2.26231 0
M  V30 307 H 30.5331 0.483317 -0.465453 0
M  V30 308 H 33.0771 0.955611 -1.80799 0
M  V30 309 H 31.2321 3.43877 -1.78402 0
M  V30 310 H 31.6461 3.39584 -3.99729 0
M  V30 311 H 33.1201 4.70139 -2.89263 0
M  V30 312 H 33.5971 4.20409 -1.27093 0
M  V30 313 H 34.2031 3.30281 -2.67945 0
M  V30 314 N 32.5182 1.22032 0.997298 0
M  V30 315 C 33.7462 1.06841 1.7718 0
M  V30 316 C 34.1612 -0.381325 1.84909 0
M  V30 317 O 33.5182 -1.26437 1.31605 0
M  V30 318 C 33.5692 1.66814 3.20711 0
M  V30 319 O 33.2902 3.06116 3.13408 0
M  V30 320 C 34.7912 1.56838 4.14628 0
M  V30 321 H 32.0112 0.374782 0.556578 0
M  V30 322 H 34.5552 1.61532 1.2541 0
M  V30 323 H 32.7102 1.16196 3.69564 0
M  V30 324 H 33.1242 3.34926 4.0364 0
M  V30 325 H 34.5982 2.03532 5.13107 0
M  V30 326 H 35.0752 0.524155 4.36061 0
M  V30 327 H 35.6812 2.06741 3.7167 0
M  V30 328 N 33.9963 -1.19345 1.0293 0
M  V30 329 C 35.2733 -1.84811 0.640642 0
M  V30 330 C 35.6533 -1.91855 -0.88062 0
M  V30 331 O 35.0013 -1.43587 -1.7775 0
M  V30 332 C 35.2113 -3.23755 1.30321 0
M  V30 333 C 36.5593 -3.99912 1.42673 0
M  V30 334 O 37.5833 -3.33155 1.26041 0
M  V30 335 O 36.4423 -5.19494 1.6967 0
M  V30 336 H 33.5363 -0.796443 0.222726 0
M  V30 337 H 36.0823 -1.26831 1.12748 0
M  V30 338 H 34.8543 -3.13466 2.34211 0
M  V30 339 H 34.4773 -3.89381 0.804261 0
M  V30 340 N 35.4744 -0.807222 -1.35358 0
M  V30 341 C 36.4374 -0.223665 -2.28106 0
M  V30 342 C 37.4374 0.589354 -1.4961 0
M  V30 343 O 38.6274 0.407745 -1.69361 0
M  V30 344 C 35.7594 0.688149 -3.33882 0
M  V30 345 H 36.9524 -1.04169 -2.81227 0
M  V30 346 H 34.5054 -0.577921 -1.45223 0
M  V30 347 H 35.2404 1.52984 -2.85948 0
M  V30 348 H 35.0254 0.10687 -3.91954 0
M  V30 349 H 36.5154 1.09075 -4.03104 0
M  V30 350 N 36.9525 1.47285 -0.560781 0
M  V30 351 C 37.8825 2.32857 0.173105 0
M  V30 352 C 38.8635 1.44009 0.905281 0
M  V30 353 O 40.0485 1.7286 0.885046 0
M  V30 354 C 37.1785 3.25861 1.20133 0
M  V30 355 C 36.1325 4.23978 0.585388 0
M  V30 356 C 35.4585 5.06332 1.7185 0
M  V30 357 C 36.7585 5.20242 -0.463178 0
M  V30 358 H 38.4525 2.94466 -0.541307 0
M  V30 359 H 35.9985 1.41601 -0.261764 0
M  V30 360 H 37.9515 3.84569 1.72293 0
M  V30 361 H 36.6755 2.62315 1.94573 0
M  V30 362 H 35.3345 3.66501 0.085054 0
M  V30 363 H 34.9825 4.39186 2.45203 0
M  V30 364 H 34.6825 5.72762 1.31213 0
M  V30 365 H 36.2065 5.67899 2.24329 0
M  V30 366 H 37.6205 5.73293 -0.027502 0
M  V30 367 H 36.0175 5.94896 -0.788627 0
M  V30 368 H 37.0875 4.65504 -1.35773 0
M  V30 369 N 38.4306 0.297415 1.54768 0
M  V30 370 C 39.8466 -0.0560823 1.59501 0
M  V30 371 C 40.0466 -1.52725 1.31444 0
M  V30 372 O 39.1026 -2.27947 1.08611 0
M  V30 373 C 40.4156 0.338631 2.98787 0
M  V30 374 C 41.9636 0.287097 3.11681 0
M  V30 375 C 42.4386 0.656579 4.53269 0
M  V30 376 N 43.9296 0.608977 4.59179 0
M  V30 377 C 44.6646 0.867385 5.66802 0
M  V30 378 N 44.1606 1.19157 6.82476 0
M  V30 379 N 45.9536 0.794687 5.56454 0
M  V30 380 H 38.1046 1.25624 1.71267 0
M  V30 381 H 40.3676 0.509057 0.799728 0
M  V30 382 H 40.0736 1.36263 3.2423 0
M  V30 383 H 39.9476 -0.309508 3.75928 0
M  V30 384 H 42.3346 -0.727649 2.85988 0
M  V30 385 H 42.4156 0.969809 2.36703 0
M  V30 386 H 42.0596 1.66912 4.7969 0
M  V30 387 H 41.9896 -0.0481649 5.26578 0
M  V30 388 H 44.4806 0.369198 3.76092 0
M  V30 389 H 44.7936 1.37482 7.60473 0
M  V30 390 H 43.1386 1.22958 6.84037 0
M  V30 391 H 46.3296 0.541098 4.64962 0
M  V30 392 H 46.5026 0.999445 6.40246 0
M  V30 393 N 39.9087 -1.5758 0.0250728 0
M  V30 394 C 40.8567 -2.11125 -0.97617 0
M  V30 395 C 41.8507 -1.03689 -1.33959 0
M  V30 396 O 43.0567 -1.22128 -1.3223 0
M  V30 397 H 39.4317 -0.674468 -0.332561 0
M  V30 398 H 41.4027 -2.94194 -0.499223 0
M  V30 399 C 40.1517 -2.65017 -2.2508 0
M  V30 400 H 39.4747 -3.47333 -1.9799 0
M  V30 401 H 40.9147 -3.06133 -2.93357 0
M  V30 402 C 39.3737 -1.57574 -2.97779 0
M  V30 403 O 39.9037 -0.973203 -3.89733 0
M  V30 404 N 38.1097 -1.29716 -2.60043 0
M  V30 405 H 37.6567 -1.789 -1.85345 0
M  V30 406 H 37.6147 -0.58051 -3.08994 0
M  V30 407 N 41.3868 0.248026 -1.55636 0
M  V30 408 C 42.3338 1.30707 -1.90222 0
M  V30 409 C 43.3038 1.47881 -0.756332 0
M  V30 410 O 44.4888 1.61883 -1.00988 0
M  V30 411 C 41.6288 2.65769 -2.20138 0
M  V30 412 C 40.7418 2.56612 -3.47526 0
M  V30 413 C 39.8768 3.8402 -3.67017 0
M  V30 414 C 38.9158 3.69476 -4.8801 0
M  V30 415 N 38.0528 4.88774 -5.04029 0
M  V30 416 H 42.8928 1.00512 -2.80538 0
M  V30 417 H 40.4298 0.485055 -1.38873 0
M  V30 418 H 42.3878 3.44386 -2.35487 0
M  V30 419 H 41.0178 2.94115 -1.33027 0
M  V30 420 H 40.0698 1.69571 -3.40514 0
M  V30 421 H 41.3818 2.41774 -4.36287 0
M  V30 422 H 40.5358 4.7108 -3.8232 0
M  V30 423 H 39.2748 4.01754 -2.76487 0
M  V30 424 H 38.2798 2.80799 -4.72686 0
M  V30 425 H 39.5048 3.53238 -5.8 0
M  V30 426 H 37.4508 5.0687 -4.16435 0
M  V30 427 H 37.3678 4.76562 -5.86877 0
M  V30 428 H 38.6358 5.77335 -5.23741 0
M  V30 429 N 42.8649 1.48995 0.513639 0
M  V30 430 C 44.1109 1.58076 1.27042 0
M  V30 431 C 44.4439 0.261026 1.92438 0
M  V30 432 O 43.7189 -0.734393 1.80103 0
M  V30 433 C 44.0019 2.73091 2.34719 0
M  V30 434 C 43.8549 4.14821 1.73907 0
M  V30 435 C 45.1739 2.83796 3.36375 0
M  V30 436 H 42.2929 0.575391 0.460536 0
M  V30 437 H 44.9349 1.81232 0.570516 0
M  V30 438 H 43.0849 2.53479 2.94416 0
M  V30 439 H 44.7569 4.45917 1.18135 0
M  V30 440 H 42.9999 4.21058 1.0437 0
M  V30 441 H 43.6709 4.91147 2.51949 0
M  V30 442 H 46.1469 3.01611 2.86653 0
M  V30 443 H 45.0229 3.65971 4.09093 0
M  V30 444 H 45.2839 1.92624 3.9793 0
M  V30 445 N 44.343 -0.763751 1.37857 0
M  V30 446 C 45.571 -1.55293 1.36718 0
M  V30 447 C 45.986 -1.88745 -0.0455434 0
M  V30 448 O 45.343 -1.52039 -1.00947 0
M  V30 449 C 45.394 -2.85831 2.2132 0
M  V30 450 O 45.115 -2.5381 3.57089 0
M  V30 451 C 46.616 -3.80023 2.28249 0
M  V30 452 H 43.836 -0.480841 0.468009 0
M  V30 453 H 46.38 -0.946009 1.81303 0
M  V30 454 H 44.535 -3.42926 1.80223 0
M  V30 455 H 44.949 -3.37459 4.01524 0
M  V30 456 H 46.423 -4.68599 2.91752 0
M  V30 457 H 46.9 -4.1973 1.2932 0
M  V30 458 H 47.506 -3.28855 2.69693 0
M  V30 459 N 45.8211 -1.22559 -0.990812 0
M  V30 460 C 46.7311 -1.01394 -2.11557 0
M  V30 461 C 47.7471 0.0383962 -1.73958 0
M  V30 462 O 48.9231 -0.154787 -2.00804 0
M  V30 463 C 45.9881 -0.596569 -3.41529 0
M  V30 464 C 45.0491 -1.72276 -3.93217 0
M  V30 465 C 44.2821 -1.32521 -5.16985 0
M  V30 466 O 44.5051 -0.204909 -5.70032 0
M  V30 467 O 43.4391 -2.14247 -5.62478 0
M  V30 468 H 47.2651 -1.95633 -2.32296 0
M  V30 469 H 44.8501 -1.01172 -1.0993 0
M  V30 470 H 46.7321 -0.374263 -4.19735 0
M  V30 471 H 45.4071 0.316939 -3.22145 0
M  V30 472 H 44.3141 -1.99961 -3.16174 0
M  V30 473 H 45.6471 -2.61421 -4.17037 0
M  V30 474 N 47.2992 1.18797 -1.03562 0
M  V30 475 C 48.2292 2.24472 -0.643019 0
M  V30 476 C 49.2102 1.66433 0.351283 0
M  V30 477 O 50.3952 1.92803 0.232505 0
M  V30 478 C 47.5252 3.473 4.24935e-05 0
M  V30 479 C 46.4792 4.18055 -0.917257 0
M  V30 480 C 45.8052 5.34519 -0.138941 0
M  V30 481 C 47.1052 4.72109 -2.23407 0
M  V30 482 H 48.7992 2.57566 -1.52643 0
M  V30 483 H 46.3452 1.23806 -0.735394 0
M  V30 484 H 48.2982 4.20426 0.286383 0
M  V30 485 H 47.0222 3.13424 0.918299 0
M  V30 486 H 45.6812 3.46821 -1.1879 0
M  V30 487 H 45.3292 4.96891 0.781562 0
M  V30 488 H 45.0292 5.82794 -0.750005 0
M  V30 489 H 46.5532 6.10438 0.1405 0
M  V30 490 H 47.9672 5.36955 -2.00879 0
M  V30 491 H 46.3642 5.30897 -2.79765 0
M  V30 492 H 47.4342 3.89807 -2.88407 0
M  V30 493 N 48.7773 0.814389 1.34928 0
M  V30 494 C 49.6873 0.231978 2.3345 0
M  V30 495 C 50.7033 -0.629139 1.62228 0
M  V30 496 O 51.8793 -0.539052 1.94052 0
M  V30 497 C 48.9443 -0.603482 3.41407 0
M  V30 498 C 48.0053 0.279037 4.28392 0
M  V30 499 C 47.2383 -0.516643 5.31193 0
M  V30 500 O 47.4613 -1.75068 5.4287 0
M  V30 501 O 46.3953 0.0965652 6.01823 0
M  V30 502 H 50.2213 1.04721 2.85074 0
M  V30 503 H 47.8063 0.576343 1.37836 0
M  V30 504 H 49.6883 -1.07908 4.0735 0
M  V30 505 H 48.3633 -1.39618 2.92042 0
M  V30 506 H 47.2703 0.801948 3.65403 0
M  V30 507 H 48.6033 1.03588 4.81176 0
M  V30 508 N 50.2554 -1.46986 0.568584 0
M  V30 509 C 51.6714 -1.57946 0.229189 0
M  V30 510 C 51.8714 -1.56567 -1.26843 0
M  V30 511 O 50.9274 -1.47511 -2.04931 0
M  V30 512 C 52.2404 -2.87963 0.865909 0
M  V30 513 C 53.7884 -3.01568 0.838188 0
M  V30 514 C 54.2634 -4.34301 1.45419 0
M  V30 515 N 55.7544 -4.40965 1.41788 0
M  V30 516 C 56.4894 -5.42256 1.86403 0
M  V30 517 N 55.9854 -6.50297 2.38926 0
M  V30 518 N 57.7784 -5.3337 1.77405 0
M  V30 519 H 49.9294 -1.46126 1.54146 0
M  V30 520 H 52.1924 -0.696156 0.643484 0
M  V30 521 H 51.8984 -2.94742 1.91886 0
M  V30 522 H 51.7724 -3.75423 0.365687 0
M  V30 523 H 54.1594 -2.94379 -0.206106 0
M  V30 524 H 54.2404 -2.1562 1.37629 0
M  V30 525 H 53.8844 -4.42247 2.49761 0
M  V30 526 H 53.8144 -5.19 0.891435 0
M  V30 527 H 56.3054 -3.63484 1.03381 0
M  V30 528 H 56.6184 -7.23777 2.70863 0
M  V30 529 H 54.9634 -6.51155 2.42944 0
M  V30 530 H 58.1544 -4.47865 1.3614 0
M  V30 531 H 58.3274 -6.12169 2.12492 0
M  V30 532 N 51.7335 -0.305618 -1.54608 0
M  V30 533 C 52.6435 0.57778 -2.27374 0
M  V30 534 C 53.6595 1.14451 -1.31061 0
M  V30 535 O 54.8355 1.16831 -1.6405 0
M  V30 536 C 51.9005 1.73123 -3.00382 0
M  V30 537 C 50.9615 1.19812 -4.12242 0
M  V30 538 C 50.1945 2.2966 -4.81759 0
M  V30 539 O 50.4175 3.49651 -4.50666 0
M  V30 540 O 49.3515 1.96091 -5.69062 0
M  V30 541 H 53.1775 -0.012624 -3.03697 0
M  V30 542 H 50.7625 -0.0719184 -1.49227 0
M  V30 543 H 52.6445 2.40315 -3.4616 0
M  V30 544 H 51.3195 2.30815 -2.26949 0
M  V30 545 H 50.2265 0.491798 -3.70853 0
M  V30 546 H 51.5595 0.666566 -4.87666 0
M  V30 547 N 53.2116 1.57565 -0.0334293 0
M  V30 548 C 54.1416 2.13511 0.945265 0
M  V30 549 C 55.1226 1.05231 1.33643 0
M  V30 550 O 56.3076 1.33084 1.41429 0
M  V30 551 C 53.4376 2.6657 2.22616 0
M  V30 552 C 52.3916 3.79676 1.97561 0
M  V30 553 C 51.7176 4.1918 3.31952 0
M  V30 554 C 53.0176 5.0557 1.31135 0
M  V30 555 H 54.7116 2.95538 0.479325 0
M  V30 556 H 52.2576 1.42166 0.229115 0
M  V30 557 H 54.2106 3.04344 2.91466 0
M  V30 558 H 52.9346 1.8171 2.71384 0
M  V30 559 H 51.5936 3.42347 1.31127 0
M  V30 560 H 51.2416 3.31296 3.78487 0
M  V30 561 H 50.9416 4.95402 3.15992 0
M  V30 562 H 52.4656 4.59541 4.02063 0
M  V30 563 H 53.8796 5.40903 1.89992 0
M  V30 564 H 52.2766 5.86818 1.25559 0
M  V30 565 H 53.3466 4.84062 0.284894 0
M  V30 566 N 54.6897 -0.239769 1.55765 0
M  V30 567 C 56.1057 -0.588624 1.48349 0
M  V30 568 C 56.3057 -1.88005 0.72502 0
M  V30 569 O 55.3617 -2.51186 0.257269 0
M  V30 570 C 56.6747 -0.68474 2.928 0
M  V30 571 C 58.2227 -0.77659 3.03213 0
M  V30 572 C 58.6977 -0.904207 4.48986 0
M  V30 573 N 60.1887 -0.968896 4.52953 0
M  V30 574 C 60.9237 -1.08703 5.63002 0
M  V30 575 N 60.4197 -1.17026 6.82845 0
M  V30 576 N 62.2127 -1.12074 5.50814 0
M  V30 577 H 54.3637 0.607911 2.03515 0
M  V30 578 H 56.6267 0.21083 0.924259 0
M  V30 579 H 56.3327 0.194284 3.51163 0
M  V30 580 H 56.2067 -1.55435 3.43686 0
M  V30 581 H 58.5937 -1.64606 2.44926 0
M  V30 582 H 58.6747 0.118315 2.55526 0
M  V30 583 H 58.3187 -0.0392633 5.07885 0
M  V30 584 H 58.2487 -1.81426 4.9436 0
M  V30 585 H 60.7397 -0.915633 3.6664 0
M  V30 586 H 61.0527 -1.25966 7.62465 0
M  V30 587 H 59.3977 -1.13971 6.85591 0
M  V30 588 H 62.5887 -1.05226 4.5612 0
M  V30 589 H 62.7617 -1.20936 6.36615 0
M  V30 590 N 56.1678 -1.49265 -0.50573 0
M  V30 591 C 57.5838 -1.35923 -0.836486 0
M  V30 592 C 57.7838 -0.388704 -1.97715 0
M  V30 593 O 56.8398 0.181336 -2.51848 0
M  V30 594 C 58.1528 -2.76531 -1.18115 0
M  V30 595 C 59.7008 -2.85197 -1.28964 0
M  V30 596 C 60.1758 -4.26561 -1.66761 0
M  V30 597 N 61.6668 -4.2935 -1.73819 0
M  V30 598 C 62.4018 -5.35693 -2.045 0
M  V30 599 N 61.8978 -6.52287 -2.33438 0
M  V30 600 N 63.6908 -5.23105 -2.05711 0
M  V30 601 H 55.8418 -2.10965 0.246519 0
M  V30 602 H 58.1048 -0.9468 0.0476887 0
M  V30 603 H 57.8108 -3.49226 -0.416398 0
M  V30 604 H 57.6848 -3.11599 -2.1257 0
M  V30 605 H 60.0718 -2.12742 -2.04511 0
M  V30 606 H 60.1528 -2.53718 -0.325704 0
M  V30 607 H 59.7968 -4.99541 -0.917656 0
M  V30 608 H 59.7268 -4.55502 -2.64246 0
M  V30 609 H 62.2178 -3.4526 -1.53635 0
M  V30 610 H 62.5308 -7.29158 -2.56024 0
M  V30 611 H 60.8758 -6.55521 -2.30905 0
M  V30 612 H 64.0668 -4.31026 -1.82577 0
M  V30 613 H 64.2398 -6.06078 -2.29289 0
M  V30 614 N 57.6459 0.756429 -1.3826 0
M  V30 615 C 58.5929 1.87011 -1.35261 0
M  V30 616 C 59.5629 1.64695 -0.215616 0
M  V30 617 O 60.7479 1.864 -0.407399 0
M  V30 618 C 57.8879 3.24275 -1.18068 0
M  V30 619 C 57.0009 3.58442 -2.41129 0
M  V30 620 C 56.1359 4.84994 -2.16689 0
M  V30 621 C 55.1749 5.11939 -3.35537 0
M  V30 622 N 54.3119 6.29685 -3.10549 0
M  V30 623 H 59.1519 1.8891 -2.30472 0
M  V30 624 H 56.6889 0.923373 -1.14509 0
M  V30 625 H 58.6469 4.03479 -1.06116 0
M  V30 626 H 57.2769 3.21711 -0.264973 0
M  V30 627 H 56.3289 2.74103 -2.63764 0
M  V30 628 H 57.6409 3.74283 -3.29717 0
M  V30 629 H 56.7949 5.72135 -2.01857 0
M  V30 630 H 55.5339 4.71286 -1.25462 0
M  V30 631 H 54.5389 4.23268 -3.50891 0
M  V30 632 H 55.7639 5.27546 -4.27635 0
M  V30 633 H 53.7099 6.17306 -2.21967 0
M  V30 634 H 53.6269 6.46014 -3.92686 0
M  V30 635 H 54.8949 7.19722 -2.99367 0
M  V30 636 N 59.124 1.23083 0.984299 0
M  V30 637 C 60.401 0.9689 1.69917 0
M  V30 638 C 60.781 -0.513604 2.04757 0
M  V30 639 O 60.129 -1.48383 1.73767 0
M  V30 640 C 60.339 1.87518 2.94343 0
M  V30 641 C 61.687 2.13636 3.6694 0
M  V30 642 O 62.711 1.85036 3.04368 0
M  V30 643 O 61.57 2.62119 4.79537 0
M  V30 644 H 58.664 0.365095 0.742048 0
M  V30 645 H 61.21 1.34107 1.03987 0
M  V30 646 H 59.982 2.87756 2.65164 0
M  V30 647 H 59.605 1.50514 3.6801 0
M  V30 648 N 60.6021 -1.18246 1.0419 0
M  V30 649 C 61.5651 -2.20128 0.638452 0
M  V30 650 C 62.5651 -1.57885 -0.304805 0
M  V30 651 O 63.7551 -1.73967 -0.0900369 0
M  V30 652 C 60.8871 -3.4084 -0.0637751 0
M  V30 653 H 62.0801 -2.57336 1.54007 0
M  V30 654 H 59.6331 -1.32152 0.834598 0
M  V30 655 H 60.3681 -3.09166 -0.979136 0
M  V30 656 H 60.1531 -3.8726 0.614198 0
M  V30 657 H 61.6431 -4.16274 -0.332512 0
M  V30 658 N 62.0802 -0.821533 -1.34494 0
M  V30 659 C 62.9902 -0.244355 -2.33324 0
M  V30 660 C 64.0062 0.620527 -1.62559 0
M  V30 661 O 65.1822 0.528754 -1.94335 0
M  V30 662 C 62.2472 0.585368 -3.41723 0
M  V30 663 C 61.3082 -0.301752 -4.28238 0
M  V30 664 C 60.5412 0.488466 -5.3146 0
M  V30 665 O 60.7642 1.72186 -5.4379 0
M  V30 666 O 59.6982 -0.12848 -6.01763 0
M  V30 667 H 63.5242 -1.06231 -2.84515 0
M  V30 668 H 61.1092 -0.583645 -1.37528 0
M  V30 669 H 62.9912 1.05747 -4.07916 0
M  V30 670 H 61.6662 1.38068 -2.92778 0
M  V30 671 H 60.5732 -0.821315 -3.64973 0
M  V30 672 H 61.9062 -1.06138 -4.8062 0
M  V30 673 N 63.5583 1.46682 -0.576371 0
M  V30 674 C 64.8073 2.01619 -0.0572825 0
M  V30 675 C 65.1203 1.45417 1.30818 0
M  V30 676 O 66.3263 1.92133 1.91825 0
M  V30 677 C 64.7823 3.59863 -0.0518371 0
M  V30 678 C 64.3903 4.25059 -1.41523 0
M  V30 679 C 66.1343 4.2248 0.413639 0
M  V30 680 C 64.0413 5.75364 -1.36785 0
M  V30 681 H 62.9713 0.753794 -0.0176448 0
M  V30 682 H 65.6223 1.68481 -0.727076 0
M  V30 683 H 64.0043 3.90048 0.683994 0
M  V30 684 H 65.1783 4.06491 -2.17029 0
M  V30 685 H 63.4933 3.7451 -1.8202 0
M  V30 686 H 66.0903 5.3265 0.467779 0
M  V30 687 H 66.4333 3.90976 1.42982 0
M  V30 688 H 66.9663 3.96897 -0.267929 0
M  V30 689 H 63.7053 6.11518 -2.36063 0
M  V30 690 H 63.2253 5.96214 -0.654895 0
M  V30 691 H 64.9043 6.37955 -1.07805 0
M  V30 692 N 65.0364 0.313813 1.54444 0
M  V30 693 C 65.9684 -0.590425 2.21465 0
M  V30 694 C 66.9814 -1.08753 1.21147 0
M  V30 695 O 68.1704 -1.00278 1.4767 0
M  V30 696 C 65.2704 -1.82179 2.85769 0
M  V30 697 C 64.4434 -1.46502 4.12136 0
M  V30 698 C 63.5024 -2.55288 4.60124 0
M  V30 699 O 62.5284 -2.19842 5.25032 0
M  V30 700 N 63.7304 -3.86053 4.33525 0
M  V30 701 H 66.4954 -0.0166033 2.99695 0
M  V30 702 H 64.0564 0.136578 1.61323 0
M  V30 703 H 66.0484 -2.54328 3.14801 0
M  V30 704 H 64.6184 -2.30369 2.11303 0
M  V30 705 H 63.8384 -0.575595 3.89975 0
M  V30 706 H 65.1264 -1.20221 4.94393 0
M  V30 707 H 64.5244 -4.17654 3.81552 0
M  V30 708 H 63.0814 -4.54461 4.67235 0
M  V30 709 N 66.5145 -1.57545 0.0417849 0
M  V30 710 C 67.4245 -2.14451 -0.951213 0
M  V30 711 C 68.4405 -1.09992 -1.34825 0
M  V30 712 O 69.6165 -1.42114 -1.42708 0
M  V30 713 C 66.6815 -2.67063 -2.21084 0
M  V30 714 C 65.7425 -3.86284 -1.87304 0
M  V30 715 C 64.9755 -4.36378 -3.07261 0
M  V30 716 O 65.1985 -3.85587 -4.20332 0
M  V30 717 O 64.1325 -5.28077 -2.88822 0
M  V30 718 H 67.9585 -2.99601 -0.497287 0
M  V30 719 H 65.5435 -1.48317 -0.179567 0
M  V30 720 H 67.4255 -3.00914 -2.95006 0
M  V30 721 H 66.1005 -1.84989 -2.65633 0
M  V30 722 H 65.0075 -3.57338 -1.10727 0
M  V30 723 H 66.3405 -4.6956 -1.47562 0
M  V30 724 N 67.9926 0.231505 -1.5589 0
M  V30 725 C 69.4086 0.580748 -1.48659 0
M  V30 726 C 69.6086 1.87617 -0.73498 0
M  V30 727 O 68.6646 2.51046 -0.270586 0
M  V30 728 C 69.9776 0.669202 -2.93159 0
M  V30 729 C 71.5256 0.760499 -3.03621 0
M  V30 730 C 72.0006 0.880383 -4.49459 0
M  V30 731 N 73.4916 0.944861 -4.53461 0
M  V30 732 C 74.2266 1.05716 -5.63571 0
M  V30 733 N 73.7226 1.13403 -6.83456 0
M  V30 734 N 75.5156 1.09152 -5.514 0
M  V30 735 H 67.6666 -0.618695 -2.03189 0
M  V30 736 H 69.9296 -0.215728 -0.923128 0
M  V30 737 H 69.6356 -0.212904 -3.51055 0
M  V30 738 H 69.5096 1.5361 -3.44505 0
M  V30 739 H 71.8966 1.63305 -2.45796 0
M  V30 740 H 71.9776 -0.131864 -2.5546 0
M  V30 741 H 71.6216 0.0123284 -5.07899 0
M  V30 742 H 71.5516 1.78802 -4.95316 0
M  V30 743 H 74.0426 0.896176 -3.6712 0
M  V30 744 H 74.3556 1.21921 -7.63122 0
M  V30 745 H 72.7006 1.10333 -6.86186 0
M  V30 746 H 75.8916 1.02805 -4.56671 0
M  V30 747 H 76.0646 1.17558 -6.37247 0
M  V30 748 N 69.4707 1.49531 0.497807 0
M  V30 749 C 70.3807 1.69176 1.62532 0
M  V30 750 C 71.3967 0.5744 1.64246 0
M  V30 751 O 72.5727 0.849497 1.82608 0
M  V30 752 C 69.6377 1.75695 2.98885 0
M  V30 753 C 68.6987 2.9929 3.07773 0
M  V30 754 C 67.9317 3.05488 4.37622 0
M  V30 755 O 68.1547 2.19192 5.26603 0
M  V30 756 O 67.0887 3.9798 4.51548 0
M  V30 757 H 70.9147 2.647 1.48887 0
M  V30 758 H 68.4997 1.3331 0.674441 0
M  V30 759 H 70.3817 1.82317 3.79919 0
M  V30 760 H 69.0567 0.8335 3.12785 0
M  V30 761 H 67.9637 2.98183 2.25915 0
M  V30 762 H 69.2967 3.91125 2.98801 0
M  V30 763 N 70.9488 -0.749086 1.3866 0
M  V30 764 C 72.1788 -1.53611 1.38157 0
M  V30 765 C 72.5868 -1.89177 -0.0293595 0
M  V30 766 O 71.9298 -1.53606 -1.00752 0
M  V30 767 C 71.9918 -2.86087 2.17702 0
M  V30 768 C 71.6558 -2.73034 3.66472 0
M  V30 769 C 72.6528 -2.42526 4.59866 0
M  V30 770 C 70.3378 -2.90345 4.09884 0
M  V30 771 C 72.3318 -2.29492 5.94653 0
M  V30 772 C 70.0188 -2.7693 5.4475 0
M  V30 773 C 71.0168 -2.46547 6.36949 0
M  V30 774 O 70.7048 -2.33199 7.69333 0
M  V30 775 H 70.4368 -0.481773 0.474205 0
M  V30 776 H 72.9908 -0.934465 1.82912 0
M  V30 777 H 71.2208 -3.48458 1.67672 0
M  V30 778 H 72.9098 -3.47625 2.09551 0
M  V30 779 H 73.6758 -2.28816 4.27631 0
M  V30 780 H 69.5548 -3.1299 3.38464 0
M  V30 781 H 73.0988 -2.05698 6.66584 0
M  V30 782 H 68.9958 -2.90215 5.76581 0
M  V30 783 H 69.7638 -2.48376 7.79905 0
M  V30 784 N 72.4269 -1.23603 -0.977757 0
M  V30 785 C 73.3769 -0.986664 -2.05545 0
M  V30 786 C 74.3609 0.0683009 -1.60755 0
M  V30 787 O 75.5529 -0.144162 -1.76412 0
M  V30 788 C 72.6819 -0.582623 -3.3832 0
M  V30 789 C 71.7679 -1.67313 -3.89701 0
M  V30 790 N 72.1589 -2.90394 -4.14132 0
M  V30 791 C 70.4569 -1.54832 -4.18262 0
M  V30 792 C 71.1579 -3.61017 -4.56116 0
M  V30 793 N 70.1339 -2.8854 -4.60701 0
M  V30 794 H 73.9359 -1.92139 -2.22396 0
M  V30 795 H 71.4499 -1.1358 -1.16074 0
M  V30 796 H 73.4469 -0.38524 -4.15116 0
M  V30 797 H 72.1069 0.34503 -3.22862 0
M  V30 798 H 73.1179 -3.26673 -4.01877 0
M  V30 799 H 69.7949 -0.687969 -4.11793 0
M  V30 800 H 71.1849 -4.66544 -4.83514 0
M  V30 801 N 73.905 1.17692 -1.04816 0
M  V30 802 C 74.835 2.23777 -0.666791 0
M  V30 803 C 75.816 1.66796 0.33361 0
M  V30 804 O 77.001 1.93039 0.212042 0
M  V30 805 C 74.131 3.47281 -0.0367933 0
M  V30 806 C 73.085 4.17059 -0.961546 0
M  V30 807 C 72.411 5.34342 -0.195626 0
M  V30 808 C 73.711 4.69713 -2.28402 0
M  V30 809 H 75.405 2.55933 -1.55367 0
M  V30 810 H 72.951 1.23019 -0.748484 0
M  V30 811 H 74.904 4.20706 0.241775 0
M  V30 812 H 73.628 3.14381 0.885004 0
M  V30 813 H 72.287 3.45541 -1.22462 0
M  V30 814 H 71.935 4.97692 0.728816 0
M  V30 815 H 71.635 5.81966 -0.811775 0
M  V30 816 H 73.159 6.10553 0.0757473 0
M  V30 817 H 74.573 5.34794 -2.06563 0
M  V30 818 H 72.97 5.279 -2.8538 0
M  V30 819 H 74.04 3.86726 -2.92525 0
M  V30 820 N 75.3831 0.828654 1.34056 0
M  V30 821 C 76.3301 0.252567 2.29414 0
M  V30 822 C 77.3001 -0.62588 1.53857 0
M  V30 823 O 78.4851 -0.566312 1.82202 0
M  V30 824 C 75.6251 -0.574831 3.40279 0
M  V30 825 C 74.7381 0.326499 4.30764 0
M  V30 826 C 73.8731 -0.511016 5.28736 0
M  V30 827 C 72.9121 0.389342 6.1086 0
M  V30 828 N 72.0491 -0.409439 7.00905 0
M  V30 829 H 76.8891 1.07108 2.78086 0
M  V30 830 H 74.4261 0.539677 1.36843 0
M  V30 831 H 76.3841 -1.06992 4.03248 0
M  V30 832 H 75.0141 -1.35841 2.92826 0
M  V30 833 H 74.0661 0.939837 3.68607 0
M  V30 834 H 75.3781 1.01857 4.88289 0
M  V30 835 H 74.5321 -1.07035 5.97184 0
M  V30 836 H 73.2711 -1.23657 4.71763 0
M  V30 837 H 72.2761 0.960769 5.4134 0
M  V30 838 H 73.5011 1.1131 6.69916 0
M  V30 839 H 71.4471 -1.11856 6.46393 0
M  V30 840 H 71.3641 0.224126 7.55668 0
M  V30 841 H 72.6321 -0.951336 7.73673 0
M  V30 842 N 76.8612 -1.46375 0.584142 0
M  V30 843 C 77.7712 -2.34115 -0.150728 0
M  V30 844 C 78.7872 -1.49838 -0.884567 0
M  V30 845 O 79.9632 -1.82704 -0.847429 0
M  V30 846 C 77.0282 -3.2705 -1.15062 0
M  V30 847 C 76.0892 -4.27228 -0.421293 0
M  V30 848 C 75.3222 -5.15722 -1.37355 0
M  V30 849 O 75.5452 -5.07176 -2.61014 0
M  V30 850 O 74.4792 -5.95383 -0.883355 0
M  V30 851 H 78.3052 -2.98309 0.569708 0
M  V30 852 H 75.8902 -1.45373 0.344535 0
M  V30 853 H 77.7722 -3.84381 -1.72712 0
M  V30 854 H 76.4472 -2.65451 -1.8525 0
M  V30 855 H 75.3542 -3.7358 0.197085 0
M  V30 856 H 76.6872 -4.91616 0.239641 0
M  V30 857 N 78.3393 -0.321999 -1.54275 0
M  V30 858 C 79.2693 0.537411 -2.27231 0
M  V30 859 C 80.2503 1.12064 -1.27968 0
M  V30 860 O 81.4353 1.14606 -1.56777 0
M  V30 861 C 78.5653 1.69919 -3.02894 0
M  V30 862 C 77.5193 1.24534 -4.09482 0
M  V30 863 C 76.8453 2.49394 -4.72977 0
M  V30 864 C 78.1453 0.361335 -5.21049 0
M  V30 865 H 79.8393 -0.0711406 -2.99315 0
M  V30 866 H 77.3853 -0.0356555 -1.43956 0
M  V30 867 H 79.3383 2.30668 -3.52662 0
M  V30 868 H 78.0623 2.33431 -2.28424 0
M  V30 869 H 76.7213 0.660782 -3.60596 0
M  V30 870 H 76.3693 3.11265 -3.95124 0
M  V30 871 H 76.0693 2.19718 -5.44975 0
M  V30 872 H 77.5933 3.10908 -5.25517 0
M  V30 873 H 79.0073 0.875072 -5.66582 0
M  V30 874 H 77.4043 0.157428 -5.99893 0
M  V30 875 H 78.4743 -0.60822 -4.8107 0
M  V30 876 N 79.8174 1.5752 -0.0501392 0
M  V30 877 C 81.2334 1.56631 0.306402 0
M  V30 878 C 81.4334 1.0577 1.71508 0
M  V30 879 O 80.4894 0.713837 2.422 0
M  V30 880 C 81.8024 3.00393 0.135811 0
M  V30 881 C 83.3504 3.12315 0.206993 0
M  V30 882 C 83.8254 4.57954 0.064944 0
M  V30 883 N 85.3164 4.63041 0.121254 0
M  V30 884 C 86.0514 5.73389 0.0354381 0
M  V30 885 N 85.5474 6.92724 -0.102666 0
M  V30 886 N 87.3404 5.62026 0.090946 0
M  V30 887 H 79.4914 1.88903 -0.971046 0
M  V30 888 H 81.7544 0.869876 -0.376855 0
M  V30 889 H 81.4604 3.41635 -0.835384 0
M  V30 890 H 81.3344 3.66373 0.897275 0
M  V30 891 H 83.7214 2.70973 1.16866 0
M  V30 892 H 83.8024 2.49016 -0.585208 0
M  V30 893 H 83.4464 4.99981 -0.893394 0
M  V30 894 H 83.3764 5.19258 0.876277 0
M  V30 895 H 85.8674 3.77216 0.227284 0
M  V30 896 H 86.1804 7.72633 -0.160882 0
M  V30 897 H 84.5254 6.94864 -0.137737 0
M  V30 898 H 87.7164 4.67684 0.197388 0
M  V30 899 H 87.8894 6.47997 0.0206089 0
M  V30 900 N 81.2955 -0.223234 1.56011 0
M  V30 901 C 82.2055 -1.29766 1.95443 0
M  V30 902 C 83.2215 -1.51373 0.858028 0
M  V30 903 O 84.3975 -1.64536 1.16146 0
M  V30 904 C 81.4625 -2.62772 2.26167 0
M  V30 905 C 80.5235 -2.49482 3.49367 0
M  V30 906 C 79.7565 -3.76145 3.78616 0
M  V30 907 O 79.9795 -4.79087 3.09568 0
M  V30 908 O 78.9135 -3.73358 4.72109 0
M  V30 909 H 82.7395 -0.99309 2.87004 0
M  V30 910 H 80.3245 -0.425958 1.43199 0
M  V30 911 H 82.2065 -3.41327 2.47131 0
M  V30 912 H 80.8815 -2.92913 1.37781 0
M  V30 913 H 79.7885 -1.69133 3.33684 0
M  V30 914 H 81.1215 -2.2428 4.38131 0
M  V30 915 N 82.7736 -1.49793 -0.48987 0
M  V30 916 C 83.7056 -1.63413 -1.60713 0
M  V30 917 C 84.7186 -0.516329 -1.54395 0
M  V30 918 O 85.9076 -0.788812 -1.60125 0
M  V30 919 C 83.0076 -1.58516 -2.99543 0
M  V30 920 C 82.1806 -2.86016 -3.30928 0
M  V30 921 C 81.2396 -2.74018 -4.49222 0
M  V30 922 O 80.2656 -3.47964 -4.50455 0
M  V30 923 N 81.4676 -1.86309 -5.4979 0
M  V30 924 H 84.2326 -2.59777 -1.49452 0
M  V30 925 H 81.7936 -1.47022 -0.677955 0
M  V30 926 H 83.7856 -1.48128 -3.76617 0
M  V30 927 H 82.3556 -0.69965 -3.0467 0
M  V30 928 H 81.5756 -3.10672 -2.42645 0
M  V30 929 H 82.8636 -3.70521 -3.487 0
M  V30 930 H 82.2616 -1.2551 -5.51601 0
M  V30 931 H 80.8186 -1.81837 -6.25922 0
M  V30 932 N 84.2517 0.741722 -1.39055 0
M  V30 933 C 85.1817 1.869 -1.39966 0
M  V30 934 C 86.1627 1.6804 -0.26392 0
M  V30 935 O 87.3477 1.88458 -0.468755 0
M  V30 936 C 84.4777 3.24572 -1.23574 0
M  V30 937 C 83.4317 3.58056 -2.34477 0
M  V30 938 C 82.7577 4.94593 -2.0318 0
M  V30 939 C 84.0577 3.61716 -3.76774 0
M  V30 940 H 85.7517 1.86395 -2.34302 0
M  V30 941 H 83.2977 0.895361 -1.1278 0
M  V30 942 H 85.2507 4.031 -1.22834 0
M  V30 943 H 83.9747 3.25587 -0.257045 0
M  V30 944 H 82.6337 2.81854 -2.34423 0
M  V30 945 H 82.2817 4.92181 -1.03765 0
M  V30 946 H 81.9817 5.17964 -2.77465 0
M  V30 947 H 83.5057 5.75486 -2.04079 0
M  V30 948 H 84.9197 4.30335 -3.78794 0
M  V30 949 H 83.3167 3.96603 -4.50362 0
M  V30 950 H 84.3867 2.61672 -4.08235 0
M  V30 951 N 85.7298 1.2412 0.971189 0
M  V30 952 C 86.9548 1.10667 1.75407 0
M  V30 953 C 87.3798 -0.337048 1.85056 0
M  V30 954 O 86.7378 -1.24396 1.31892 0
M  V30 955 C 86.7858 1.74726 3.15441 0
M  V30 956 O 85.8898 1.01566 3.99697 0
M  V30 957 H 85.2308 0.387341 0.539317 0
M  V30 958 H 87.7608 1.64358 1.2185 0
M  V30 959 H 87.7708 1.80341 3.6598 0
M  V30 960 H 86.4458 2.79773 3.07734 0
M  V30 961 H 85.0228 1.03713 3.58187 0
M  V30 962 N 87.2079 -1.17134 1.05439 0
M  V30 963 C 88.1549 -2.21235 0.657539 0
M  V30 964 C 89.1249 -1.62551 -0.341543 0
M  V30 965 O 90.3099 -1.89379 -0.232393 0
M  V30 966 C 87.4499 -3.45076 0.0410575 0
M  V30 967 C 86.5629 -4.18042 1.08927 0
M  V30 968 C 85.6979 -5.29376 0.439848 0
M  V30 969 C 84.7369 -5.94132 1.4722 0
M  V30 970 N 83.8739 -6.96975 0.846756 0
M  V30 971 H 88.7139 -2.54534 1.54972 0
M  V30 972 H 86.2509 -1.25028 0.775006 0
M  V30 973 H 88.2089 -4.15862 -0.33383 0
M  V30 974 H 86.8389 -3.12353 -0.814568 0
M  V30 975 H 85.8909 -3.45945 1.58196 0
M  V30 976 H 87.2029 -4.62306 1.87282 0
M  V30 977 H 86.3569 -6.06699 0.0115125 0
M  V30 978 H 85.0959 -4.86251 -0.375656 0
M  V30 979 H 84.1009 -5.15538 1.91052 0
M  V30 980 H 85.3259 -6.39337 2.28965 0
M  V30 981 H 83.2719 -6.5598 0.0518075 0
M  V30 982 H 83.1889 -7.39565 1.5678 0
M  V30 983 H 84.4569 -7.78239 0.443277 0
M  V30 984 N 88.686 -0.835752 -1.33615 0
M  V30 985 C 89.618 -0.224151 -2.28101 0
M  V30 986 C 90.631 0.593331 -1.51603 0
M  V30 987 O 91.82 0.420911 -1.73466 0
M  V30 988 C 88.92 0.703309 -3.31522 0
M  V30 989 C 88.093 -0.0741528 -4.37337 0
M  V30 990 C 87.152 0.776176 -5.20444 0
M  V30 991 O 86.178 0.216506 -5.68788 0
M  V30 992 N 87.38 2.09401 -5.41416 0
M  V30 993 H 90.145 -1.03598 -2.81225 0
M  V30 994 H 87.706 -0.69392 -1.46275 0
M  V30 995 H 89.698 1.27707 -3.84022 0
M  V30 996 H 88.268 1.41585 -2.78698 0
M  V30 997 H 87.488 -0.82928 -3.85378 0
M  V30 998 H 88.776 -0.608863 -5.05144 0
M  V30 999 H 88.174 2.57229 -5.03835 0
M  V30 1000 H 86.731 2.61633 -5.96985 0
M  V30 1001 N 90.1641 1.46063 -0.591896 0
M  V30 1002 C 91.3921 2.06717 -0.0868936 0
M  V30 1003 C 91.8071 1.43916 1.22203 0
M  V30 1004 O 91.1641 0.547698 1.74088 0
M  V30 1005 C 91.2151 3.6142 0.0758725 0
M  V30 1006 O 90.9361 4.21874 -1.18126 0
M  V30 1007 C 92.4371 4.39025 0.61416 0
M  V30 1008 H 89.6571 0.668162 -0.0616518 0
M  V30 1009 H 92.2011 1.8755 -0.815175 0
M  V30 1010 H 90.3561 3.79983 0.754413 0
M  V30 1011 H 90.7701 5.14861 -1.00092 0
M  V30 1012 H 92.2441 5.4783 0.677193 0
M  V30 1013 H 92.7211 4.07708 1.63312 0
M  V30 1014 H 93.3271 4.2529 -0.0298142 0
M  V30 1015 N 91.6422 0.330177 1.54103 0
M  V30 1016 C 92.8882 -0.270806 2.00984 0
M  V30 1017 C 93.2212 -1.51265 1.21789 0
M  V30 1018 O 92.4962 -1.92142 0.301927 0
M  V30 1019 C 92.7792 -0.598339 3.55094 0
M  V30 1020 C 92.6322 0.654674 4.4501 0
M  V30 1021 C 93.9512 -1.41334 4.16789 0
M  V30 1022 H 91.0702 -0.0969531 0.730595 0
M  V30 1023 H 93.7122 0.448066 1.84641 0
M  V30 1024 H 91.8622 -1.21078 3.69151 0
M  V30 1025 H 93.5342 1.29285 4.42813 0
M  V30 1026 H 91.7772 1.28224 4.14416 0
M  V30 1027 H 92.4482 0.380944 5.50684 0
M  V30 1028 H 94.9242 -0.895597 4.06347 0
M  V30 1029 H 93.8002 -1.61127 5.24718 0
M  V30 1030 H 94.0612 -2.41146 3.70541 0
M  V30 1031 N 93.1203 -1.57491 0.0584922 0
M  V30 1032 C 94.0833 -2.1085 -0.898617 0
M  V30 1033 C 95.0833 -1.02964 -1.23511 0
M  V30 1034 O 96.2733 -1.29007 -1.17059 0
M  V30 1035 C 93.4053 -2.59881 -2.20623 0
M  V30 1036 H 94.5983 -2.96715 -0.435936 0
M  V30 1037 H 92.1513 -1.55141 -0.190023 0
M  V30 1038 H 92.8863 -1.77431 -2.71457 0
M  V30 1039 H 92.6713 -3.38727 -1.97501 0
M  V30 1040 H 94.1613 -3.01285 -2.89166 0
M  V30 1041 N 94.5984 0.214957 -1.56127 0
M  V30 1042 C 95.8474 0.936451 -1.78643 0
M  V30 1043 C 96.1604 1.85237 -0.628229 0
M  V30 1044 O 97.3664 2.613 -0.737186 0
M  V30 1045 C 95.8224 1.7154 -3.16389 0
M  V30 1046 C 95.4304 0.845299 -4.39953 0
M  V30 1047 C 97.1744 2.42772 -3.48227 0
M  V30 1048 C 95.0814 1.62198 -5.68723 0
M  V30 1049 H 94.0114 0.353401 -0.666051 0
M  V30 1050 H 96.6624 0.190169 -1.82512 0
M  V30 1051 H 95.0444 2.50484 -3.06715 0
M  V30 1052 H 96.2184 0.0959353 -4.607 0
M  V30 1053 H 94.5334 0.244789 -4.1568 0
M  V30 1054 H 97.1304 3.01394 -4.41663 0
M  V30 1055 H 97.4734 3.15984 -2.71035 0
M  V30 1056 H 98.0064 1.70813 -3.5926 0
M  V30 1057 H 94.7454 0.933011 -6.48826 0
M  V30 1058 H 94.2654 2.34579 -5.52026 0
M  V30 1059 H 95.9444 2.18095 -6.09133 0
M  V30 1060 N 96.0765 1.50051 0.48192 0
M  V30 1061 C 97.0395 1.67584 1.5636 0
M  V30 1062 C 98.0395 0.546894 1.51214 0
M  V30 1063 O 99.2295 0.813725 1.54026 0
M  V30 1064 C 96.3615 1.691 2.96003 0
M  V30 1065 H 97.5545 2.64078 1.42136 0
M  V30 1066 H 95.1075 1.39369 0.707533 0
M  V30 1067 H 95.8425 0.742589 3.15684 0
M  V30 1068 H 95.6275 2.51105 3.01146 0
M  V30 1069 H 97.1175 1.84656 3.74556 0
M  V30 1070 N 97.5546 -0.734337 1.39446 0
M  V30 1071 C 98.4646 -1.87879 1.40495 0
M  V30 1072 C 99.4806 -1.714 0.299672 0
M  V30 1073 O 100.657 -1.93991 0.541249 0
M  V30 1074 C 97.7216 -3.23477 1.24754 0
M  V30 1075 C 96.7826 -3.52344 2.45259 0
M  V30 1076 C 96.0156 -4.81473 2.30259 0
M  V30 1077 O 96.2386 -5.55237 1.30643 0
M  V30 1078 O 95.1726 -5.10254 3.19256 0
M  V30 1079 H 98.9986 -1.89949 2.36966 0
M  V30 1080 H 96.5836 -0.882243 1.20569 0
M  V30 1081 H 98.4656 -4.04509 1.18111 0
M  V30 1082 H 97.1406 -3.22176 0.313781 0
M  V30 1083 H 96.0476 -2.71396 2.57478 0
M  V30 1084 H 97.3806 -3.58426 3.37331 0
M  V30 1085 N 99.0327 -1.24633 -0.964593 0
M  V30 1086 C 99.9627 -1.06611 -2.07741 0
M  V30 1087 C 100.944 0.0218666 -1.70086 0
M  V30 1088 O 102.129 -0.145793 -1.93652 0
M  V30 1089 C 99.2587 -0.673444 -3.40708 0
M  V30 1090 C 98.2127 -1.71054 -3.92332 0
M  V30 1091 C 97.5387 -1.17285 -5.21678 0
M  V30 1092 C 98.8387 -3.10718 -4.19824 0
M  V30 1093 H 100.533 -1.99693 -2.23076 0
M  V30 1094 H 98.0787 -0.96152 -1.07195 0
M  V30 1095 H 100.032 -0.534345 -4.17998 0
M  V30 1096 H 98.7557 0.293073 -3.25282 0
M  V30 1097 H 97.4147 -1.83791 -3.17201 0
M  V30 1098 H 97.0627 -0.196847 -5.02615 0
M  V30 1099 H 96.7627 -1.86592 -5.57187 0
M  V30 1100 H 98.2867 -1.04593 -6.01575 0
M  V30 1101 H 99.7007 -3.01192 -4.87808 0
M  V30 1102 H 98.0977 -3.77406 -4.66567 0
M  V30 1103 H 99.1677 -3.58524 -3.26479 0
M  V30 1104 N 100.511 1.16574 -1.06058 0
M  V30 1105 C 101.739 1.90952 -0.796552 0
M  V30 1106 C 102.154 1.77302 0.648808 0
M  V30 1107 O 101.511 1.11605 1.44397 0
M  V30 1108 C 101.562 3.41736 -1.17894 0
M  V30 1109 O 101.283 3.54975 -2.56758 0
M  V30 1110 C 102.784 4.33169 -0.942308 0
M  V30 1111 H 100.004 0.605594 -0.288959 0
M  V30 1112 H 102.548 1.47777 -1.41358 0
M  V30 1113 H 100.703 3.82623 -0.606491 0
M  V30 1114 H 101.117 4.4846 -2.72 0
M  V30 1115 H 102.591 5.37439 -1.25952 0
M  V30 1116 H 103.068 4.3903 0.122078 0
M  V30 1117 H 103.674 3.98007 -1.49902 0
M  V30 1118 N 101.989 0.842826 1.3317 0
M  V30 1119 C 102.899 0.281444 2.32906 0
M  V30 1120 C 103.915 -0.594587 1.63526 0
M  V30 1121 O 105.091 -0.49777 1.95152 0
M  V30 1122 C 102.156 -0.530929 3.42611 0
M  V30 1123 C 101.217 0.369843 4.27704 0
M  V30 1124 C 100.45 -0.403853 5.3217 0
M  V30 1125 O 100.673 -1.63513 5.46461 0
M  V30 1126 O 99.6069 0.224199 6.01482 0
M  V30 1127 H 103.433 1.10744 2.82789 0
M  V30 1128 H 101.018 0.60545 1.36582 0
M  V30 1129 H 102.9 -0.992437 4.09547 0
M  V30 1130 H 101.575 -1.33392 2.94938 0
M  V30 1131 H 100.482 0.879275 3.6362 0
M  V30 1132 H 101.815 1.13771 4.78871 0
M  V30 1133 N 103.467 -1.45747 0.599634 0
M  V30 1134 C 104.377 -2.34262 -0.125888 0
M  V30 1135 C 105.393 -1.50768 -0.868625 0
M  V30 1136 O 106.569 -1.83592 -0.828003 0
M  V30 1137 C 103.634 -3.28252 -1.11587 0
M  V30 1138 C 102.695 -4.27651 -0.375956 0
M  V30 1139 C 101.928 -5.1715 -1.31877 0
M  V30 1140 O 102.151 -5.09916 -2.55621 0
M  V30 1141 O 101.085 -5.96286 -0.820157 0
M  V30 1142 H 104.911 -2.97688 0.601315 0
M  V30 1143 H 102.496 -1.44999 0.359934 0
M  V30 1144 H 104.378 -3.86191 -1.68626 0
M  V30 1145 H 103.053 -2.67401 -1.82424 0
M  V30 1146 H 101.96 -3.7335 0.236698 0
M  V30 1147 H 103.293 -4.91334 0.29177 0
M  V30 1148 N 104.945 -0.338344 -1.53925 0
M  V30 1149 C 105.875 0.51328 -2.27789 0
M  V30 1150 C 106.856 1.107 -1.29149 0
M  V30 1151 O 108.041 1.12937 -1.57984 0
M  V30 1152 C 105.171 1.66697 -3.04679 0
M  V30 1153 C 104.125 1.20183 -4.1078 0
M  V30 1154 C 103.451 2.44363 -4.75595 0
M  V30 1155 C 104.751 0.30605 -5.21403 0
M  V30 1156 H 106.445 -0.102883 -2.99223 0
M  V30 1157 H 103.991 -0.0509219 -1.4391 0
M  V30 1158 H 105.944 2.26915 -3.55088 0
M  V30 1159 H 104.668 2.30995 -2.30887 0
M  V30 1160 H 103.327 0.622499 -3.61276 0
M  V30 1161 H 102.975 3.07057 -3.98403 0
M  V30 1162 H 102.675 2.13925 -5.47275 0
M  V30 1163 H 104.199 3.05317 -5.28786 0
M  V30 1164 H 105.613 0.814929 -5.67478 0
M  V30 1165 H 104.01 0.0937929 -6.00027 0
M  V30 1166 H 105.08 -0.65921 -4.80398 0
M  V30 1167 N 106.423 1.57458 -0.0668435 0
M  V30 1168 C 107.355 2.09413 0.931601 0
M  V30 1169 C 108.368 1.02522 1.26464 0
M  V30 1170 O 109.557 1.30049 1.22269 0
M  V30 1171 C 106.657 2.53537 2.24882 0
M  V30 1172 C 105.83 3.83944 2.09537 0
M  V30 1173 C 104.889 4.14214 3.2452 0
M  V30 1174 O 103.915 4.83891 2.9973 0
M  V30 1175 N 105.117 3.67367 4.49469 0
M  V30 1176 H 107.882 2.95699 0.488048 0
M  V30 1177 H 105.443 1.61462 0.119009 0
M  V30 1178 H 107.435 2.70853 3.00701 0
M  V30 1179 H 106.005 1.72415 2.60753 0
M  V30 1180 H 105.225 3.76057 1.18215 0
M  V30 1181 H 106.513 4.69312 1.96529 0
M  V30 1182 H 105.911 3.11068 4.72497 0
M  V30 1183 H 104.468 3.89891 5.2233 0
M  V30 1184 N 107.901 -0.206675 1.56239 0
M  V30 1185 C 108.849 -1.27571 1.94495 0
M  V30 1186 C 109.843 -1.47737 0.828862 0
M  V30 1187 O 111.049 -1.48735 1.0138 0
M  V30 1188 H 107.424 -0.428029 0.6183 0
M  V30 1189 H 109.395 -0.925961 2.8367 0
M  V30 1190 C 108.144 -2.61568 2.29079 0
M  V30 1191 H 107.467 -2.46863 3.14482 0
M  V30 1192 H 108.907 -3.35144 2.5972 0
M  V30 1193 C 107.366 -3.17695 1.12123 0
M  V30 1194 O 107.896 -3.99801 0.390153 0
M  V30 1195 N 106.102 -2.76276 0.901097 0
M  V30 1196 H 105.649 -2.09613 1.49733 0
M  V30 1197 H 105.607 -3.1417 0.120319 0
M  V30 1198 N 109.379 -1.50304 -0.473955 0
M  V30 1199 C 110.326 -1.68959 -1.57231 0
M  V30 1200 C 111.296 -0.530899 -1.57387 0
M  V30 1201 O 112.481 -0.761133 -1.74961 0
M  V30 1202 C 109.621 -1.7871 -2.95223 0
M  V30 1203 C 108.734 -3.06061 -3.04878 0
M  V30 1204 C 107.869 -3.06626 -4.33767 0
M  V30 1205 C 106.908 -4.28443 -4.37154 0
M  V30 1206 N 106.045 -4.26763 -5.5751 0
M  V30 1207 H 110.885 -2.6273 -1.40631 0
M  V30 1208 H 108.422 -1.30241 -0.683789 0
M  V30 1209 H 110.38 -1.82344 -3.75242 0
M  V30 1210 H 109.01 -0.883806 -3.10465 0
M  V30 1211 H 108.062 -3.11911 -2.17751 0
M  V30 1212 H 109.374 -3.96039 -3.0324 0
M  V30 1213 H 108.528 -3.08973 -5.22131 0
M  V30 1214 H 107.267 -2.14473 -4.3801 0
M  V30 1215 H 106.272 -4.2631 -3.47188 0
M  V30 1216 H 107.497 -5.2182 -4.34605 0
M  V30 1217 H 105.443 -3.37462 -5.62544 0
M  V30 1218 H 105.36 -5.10507 -5.57601 0
M  V30 1219 H 106.628 -4.33253 -6.48006 0
M  V30 1220 N 110.857 0.726932 -1.39834 0
M  V30 1221 C 112.097 1.4992 -1.38936 0
M  V30 1222 C 112.461 1.91996 0.0126883 0
M  V30 1223 O 113.662 2.68399 0.146715 0
M  V30 1224 C 111.933 2.70013 -2.34153 0
M  V30 1225 S 113.492 3.59563 -2.51515 0
M  V30 1226 H 110.31 0.51271 -0.492595 0
M  V30 1227 H 112.912 0.85107 -1.76003 0
M  V30 1228 H 111.616 2.37254 -3.34871 0
M  V30 1229 H 111.147 3.39748 -1.98331 0
M  V30 1230 H 113.162 4.63973 -1.75909 0
M  V30 1231 N 112.336 1.25143 0.95797 0
M  V30 1232 C 113.585 1.0909 1.69654 0
M  V30 1233 C 113.898 -0.368548 1.92097 0
M  V30 1234 O 115.104 -0.649455 2.63618 0
M  V30 1235 C 113.56 1.90395 3.05414 0
M  V30 1236 C 113.168 3.4081 2.90779 0
M  V30 1237 C 114.912 1.82901 3.83076 0
M  V30 1238 C 112.819 4.14423 4.21909 0
M  V30 1239 H 111.749 0.404625 0.636235 0
M  V30 1240 H 114.4 1.4931 1.06672 0
M  V30 1241 H 112.782 1.42996 3.69281 0
M  V30 1242 H 113.956 3.95859 2.35865 0
M  V30 1243 H 112.271 3.49361 2.26575 0
M  V30 1244 H 114.868 2.35196 4.80195 0
M  V30 1245 H 115.211 0.796224 4.08615 0
M  V30 1246 H 115.744 2.28033 3.25954 0
M  V30 1247 H 112.483 5.18102 4.01561 0
M  V30 1248 H 112.003 3.64159 4.76601 0
M  V30 1249 H 113.682 4.21956 4.90471 0
M  V30 1250 N 113.814 -1.1601 1.06675 0
M  V30 1251 C 114.746 -2.20115 0.638921 0
M  V30 1252 C 115.759 -1.59916 -0.305057 0
M  V30 1253 O 116.948 -1.78245 -0.0954446 0
M  V30 1254 C 114.048 -3.38798 -0.0830083 0
M  V30 1255 C 113.221 -4.2855 0.875426 0
M  V30 1256 C 112.28 -5.25849 0.192042 0
M  V30 1257 O 111.306 -5.63102 0.830921 0
M  V30 1258 N 112.508 -5.70648 -1.06493 0
M  V30 1259 H 115.273 -2.57439 1.53444 0
M  V30 1260 H 112.834 -1.31057 0.950557 0
M  V30 1261 H 114.826 -4.00936 -0.550685 0
M  V30 1262 H 113.396 -2.99947 -0.880386 0
M  V30 1263 H 112.616 -3.63617 1.52238 0
M  V30 1264 H 113.904 -4.85393 1.52548 0
M  V30 1265 H 113.302 -5.42482 -1.60405 0
M  V30 1266 H 111.859 -6.34859 -1.47641 0
M  V30 1267 N 115.292 -0.849877 -1.32721 0
M  V30 1268 C 116.222 -0.306308 -2.31482 0
M  V30 1269 C 117.203 0.591952 -1.59468 0
M  V30 1270 O 118.388 0.513199 -1.87296 0
M  V30 1271 C 115.518 0.510204 -3.43532 0
M  V30 1272 C 114.472 -0.293209 -4.26994 0
M  V30 1273 C 113.798 0.647743 -5.30762 0
M  V30 1274 C 115.098 -1.51634 -4.99804 0
M  V30 1275 H 116.792 -1.13153 -2.77195 0
M  V30 1276 H 114.338 -0.545553 -1.33266 0
M  V30 1277 H 116.291 0.900856 -4.11658 0
M  V30 1278 H 115.015 1.36874 -2.96535 0
M  V30 1279 H 113.674 -0.665555 -3.60508 0
M  V30 1280 H 113.322 1.50299 -4.8002 0
M  V30 1281 H 113.022 0.11422 -5.87489 0
M  V30 1282 H 114.546 1.03567 -6.01753 0
M  V30 1283 H 115.96 -1.19824 -5.60638 0
M  V30 1284 H 114.357 -1.98745 -5.66234 0
M  V30 1285 H 115.427 -2.28018 -4.27943 0
M  V30 1286 N 116.77 1.45427 -0.607355 0
M  V30 1287 C 117.718 2.32269 0.12411 0
M  V30 1288 C 118.712 1.45955 0.859854 0
M  V30 1289 O 119.918 1.6244 0.775447 0
M  V30 1290 H 116.293 0.749691 0.0588839 0
M  V30 1291 H 118.264 2.91743 -0.626762 0
M  V30 1292 C 117.013 3.29567 1.1082 0
M  V30 1293 H 116.336 3.95978 0.551492 0
M  V30 1294 H 117.776 3.93061 1.58995 0
M  V30 1295 C 116.235 2.56722 2.18164 0
M  V30 1296 O 116.765 2.34842 3.25902 0
M  V30 1297 N 114.971 2.16861 1.93442 0
M  V30 1298 H 114.518 2.34855 1.05834 0
M  V30 1299 H 114.476 1.68444 2.65469 0
M  V30 1300 N 118.248 0.346503 1.53744 0
M  V30 1301 C 119.195 -0.508914 2.25119 0
M  V30 1302 C 120.165 -1.09315 1.25058 0
M  V30 1303 O 121.35 -1.12921 1.53797 0
M  V30 1304 C 118.49 -1.65246 3.02965 0
M  V30 1305 C 117.603 -1.09525 4.17886 0
M  V30 1306 C 116.738 -2.20634 4.83212 0
M  V30 1307 C 115.777 -1.62279 5.90196 0
M  V30 1308 N 114.914 -2.67143 6.49291 0
M  V30 1309 H 119.754 0.106283 2.9781 0
M  V30 1310 H 117.291 0.0642227 1.4696 0
M  V30 1311 H 119.249 -2.32574 3.4636 0
M  V30 1312 H 117.879 -2.2386 2.32565 0
M  V30 1313 H 116.931 -0.312818 3.79112 0
M  V30 1314 H 118.243 -0.628444 4.94825 0
M  V30 1315 H 117.397 -2.95821 5.29693 0
M  V30 1316 H 116.136 -2.70659 4.05703 0
M  V30 1317 H 115.141 -0.855989 5.43096 0
M  V30 1318 H 116.366 -1.13102 6.69615 0
M  V30 1319 H 114.312 -3.16417 5.74645 0
M  V30 1320 H 114.229 -2.25093 7.21713 0
M  V30 1321 H 115.497 -3.4209 7.00425 0
M  V30 1322 N 119.726 -1.57421 0.075193 0
M  V30 1323 C 120.656 -2.15942 -0.888324 0
M  V30 1324 C 121.637 -1.08737 -1.30806 0
M  V30 1325 O 122.822 -1.36787 -1.37851 0
M  V30 1326 C 119.952 -2.72379 -2.1547 0
M  V30 1327 C 118.906 -3.8478 -1.87425 0
M  V30 1328 C 118.232 -4.27834 -3.20721 0
M  V30 1329 C 119.532 -5.08869 -1.17684 0
M  V30 1330 H 121.226 -2.96705 -0.400799 0
M  V30 1331 H 118.772 -1.42723 -0.191342 0
M  V30 1332 H 120.725 -3.11965 -2.83295 0
M  V30 1333 H 119.449 -1.88841 -2.6647 0
M  V30 1334 H 118.108 -3.45703 -1.22004 0
M  V30 1335 H 117.756 -3.41214 -3.6957 0
M  V30 1336 H 117.456 -5.03605 -3.02746 0
M  V30 1337 H 118.98 -4.70039 -3.89738 0
M  V30 1338 H 120.394 -5.4575 -1.75584 0
M  V30 1339 H 118.791 -5.8994 -1.09956 0
M  V30 1340 H 119.861 -4.84648 -0.156453 0
M  V30 1341 N 121.204 0.198386 -1.56346 0
M  V30 1342 C 122.136 1.26987 -1.90806 0
M  V30 1343 C 123.149 1.41877 -0.798419 0
M  V30 1344 O 124.338 1.42362 -1.07682 0
M  V30 1345 C 121.438 2.64246 -2.12196 0
M  V30 1346 C 120.611 2.71007 -3.43328 0
M  V30 1347 C 119.67 3.89439 -3.5387 0
M  V30 1348 O 118.696 3.76695 -4.26719 0
M  V30 1349 N 119.898 5.04752 -2.86715 0
M  V30 1350 H 122.663 0.977433 -2.83313 0
M  V30 1351 H 120.224 0.388322 -1.57174 0
M  V30 1352 H 122.216 3.41896 -2.1654 0
M  V30 1353 H 120.786 2.85992 -1.26204 0
M  V30 1354 H 120.006 1.79657 -3.50881 0
M  V30 1355 H 121.294 2.72512 -4.29668 0
M  V30 1356 H 120.692 5.18004 -2.2735 0
M  V30 1357 H 119.249 5.8036 -2.96691 0
M  V30 1358 N 122.682 1.50554 0.465978 0
M  V30 1359 C 123.959 1.5232 1.22712 0
M  V30 1360 C 124.339 0.270807 2.09356 0
M  V30 1361 O 123.687 -0.745541 2.15995 0
M  V30 1362 C 123.897 2.82175 2.05374 0
M  V30 1363 C 125.245 3.33033 2.6339 0
M  V30 1364 O 126.269 2.83531 2.15612 0
M  V30 1365 O 125.128 4.19336 3.50456 0
M  V30 1366 H 122.222 0.611183 0.557122 0
M  V30 1367 H 124.768 1.62847 0.477381 0
M  V30 1368 H 123.54 3.64797 1.41558 0
M  V30 1369 H 123.163 2.74675 2.87471 0
M  V30 1370 N 124.16 -0.719506 1.40217 0
M  V30 1371 C 125.406 -1.48152 1.38488 0
M  V30 1372 C 125.739 -1.94195 -0.0141867 0
M  V30 1373 O 125.014 -1.67884 -0.982096 0
M  V30 1374 C 125.297 -2.71035 2.37091 0
M  V30 1375 C 125.15 -2.30912 3.86005 0
M  V30 1376 C 126.469 -3.73182 2.33288 0
M  V30 1377 H 123.588 -0.537395 0.504357 0
M  V30 1378 H 126.23 -0.821472 1.71324 0
M  V30 1379 H 124.38 -3.27352 2.0922 0
M  V30 1380 H 126.052 -1.80107 4.24687 0
M  V30 1381 H 124.295 -1.62958 4.02029 0
M  V30 1382 H 124.966 -3.18978 4.50508 0
M  V30 1383 H 127.442 -3.26485 2.57966 0
M  V30 1384 H 126.318 -4.56806 3.04334 0
M  V30 1385 H 126.579 -4.21202 1.34317 0
M  V30 1386 N 125.638 -1.25649 -0.95132 0
M  V30 1387 C 126.884 -1.10757 -1.69884 0
M  V30 1388 C 127.217 0.350061 -1.91019 0
M  V30 1389 O 126.492 1.25783 -1.48354 0
M  V30 1390 C 126.775 -1.86606 -3.07978 0
M  V30 1391 C 126.628 -3.40217 -2.94232 0
M  V30 1392 C 127.947 -1.65182 -4.07925 0
M  V30 1393 H 125.066 -0.40374 -0.616574 0
M  V30 1394 H 127.708 -1.54521 -1.10558 0
M  V30 1395 H 125.858 -1.49409 -3.58621 0
M  V30 1396 H 127.53 -3.87108 -2.50889 0
M  V30 1397 H 125.773 -3.67759 -2.30078 0
M  V30 1398 H 126.444 -3.88505 -3.92133 0
M  V30 1399 H 128.92 -1.9757 -3.66204 0
M  V30 1400 H 127.796 -2.20683 -5.02583 0
M  V30 1401 H 128.057 -0.593933 -4.38092 0
M  V30 1402 N 127.117 1.15442 -1.07289 0
M  V30 1403 C 128.067 2.18164 -0.662467 0
M  V30 1404 C 129.051 1.57845 0.312074 0
M  V30 1405 O 130.243 1.76552 0.125905 0
M  V30 1406 C 127.372 3.43246 -0.0611295 0
M  V30 1407 C 126.458 4.1062 -1.06077 0
M  V30 1408 N 126.849 4.53491 -2.24008 0
M  V30 1409 C 125.147 4.36949 -0.893964 0
M  V30 1410 C 125.848 5.05731 -2.87422 0
M  V30 1411 N 124.824 4.99236 -2.15091 0
M  V30 1412 H 128.626 2.49038 -1.56068 0
M  V30 1413 H 126.14 1.32003 -0.945988 0
M  V30 1414 H 128.137 4.16145 0.250792 0
M  V30 1415 H 126.797 3.13854 0.832207 0
M  V30 1416 H 127.808 4.46898 -2.6173 0
M  V30 1417 H 124.485 4.17466 -0.0534693 0
M  V30 1418 H 125.875 5.48865 -3.87553 0
M  V30 1419 N 128.595 0.856903 1.32268 0
M  V30 1420 C 129.528 0.247937 2.26849 0
M  V30 1421 C 130.506 -0.615382 1.50505 0
M  V30 1422 O 131.69 -0.571689 1.79622 0
M  V30 1423 C 128.817 -0.650093 3.32403 0
M  V30 1424 C 127.863 0.140138 4.2627 0
M  V30 1425 S 128.696 1.51004 5.13769 0
M  V30 1426 C 129.852 0.61778 6.22844 0
M  V30 1427 H 130.085 1.04971 2.78152 0
M  V30 1428 H 127.618 0.654665 1.39834 0
M  V30 1429 H 129.576 -1.16256 3.93694 0
M  V30 1430 H 128.237 -1.4257 2.7988 0
M  V30 1431 H 127.43 -0.543945 5.01056 0
M  V30 1432 H 127.032 0.584267 3.69408 0
M  V30 1433 H 129.324 -0.177053 6.77269 0
M  V30 1434 H 130.267 1.33636 6.95375 0
M  V30 1435 H 130.675 0.191124 5.64176 0
M  V30 1436 N 130.073 -1.45103 0.615059 0
M  V30 1437 C 131.005 -2.28786 -0.13762 0
M  V30 1438 C 132.018 -1.40376 -0.824525 0
M  V30 1439 O 133.207 -1.64681 -0.688662 0
M  V30 1440 C 130.307 -3.16322 -1.21628 0
M  V30 1441 C 129.48 -4.33054 -0.615039 0
M  V30 1442 C 128.539 -5.01743 -1.58556 0
M  V30 1443 O 127.565 -5.58293 -1.10895 0
M  V30 1444 N 128.767 -5.01714 -2.91998 0
M  V30 1445 H 131.532 -2.94025 0.580483 0
M  V30 1446 H 129.093 -1.55373 0.45507 0
M  V30 1447 H 131.085 -3.59139 -1.86552 0
M  V30 1448 H 129.655 -2.52943 -1.83681 0
M  V30 1449 H 128.875 -3.93627 0.21245 0
M  V30 1450 H 130.163 -5.08431 -0.193704 0
M  V30 1451 H 129.561 -4.57075 -3.33316 0
M  V30 1452 H 128.118 -5.48371 -3.52325 0
M  V30 1453 N 131.551 -0.354651 -1.53558 0
M  V30 1454 C 132.799 0.237972 -2.00694 0
M  V30 1455 C 133.12 1.50173 -1.24391 0
M  V30 1456 O 132.39 1.92673 -0.354135 0
M  V30 1457 H 130.97 0.0909256 -0.741446 0
M  V30 1458 H 133.632 -0.478368 -1.88938 0
M  V30 1459 H 132.728 0.47264 -3.085 0
M  V30 1460 N 133.029 1.57378 -0.0835403 0
M  V30 1461 C 134.277 1.93547 0.581718 0
M  V30 1462 C 134.598 0.96524 1.69435 0
M  V30 1463 O 133.868 0.0153369 1.95894 0
M  V30 1464 H 132.448 0.714521 0.217874 0
M  V30 1465 H 135.11 1.94366 -0.144158 0
M  V30 1466 H 134.206 2.95665 0.999423 0
M  V30 1467 N 134.507 -0.190092 1.56449 0
M  V30 1468 C 135.732 -0.929864 1.85387 0
M  V30 1469 C 136.157 -1.7585 0.667704 0
M  V30 1470 O 135.515 -1.77198 -0.383459 0
M  V30 1471 C 135.563 -1.79773 3.12593 0
M  V30 1472 O 134.667 -2.89713 2.93496 0
M  V30 1473 H 134.008 -0.261574 0.610307 0
M  V30 1474 H 136.538 -0.193896 2.03679 0
M  V30 1475 H 136.548 -2.20139 3.43515 0
M  V30 1476 H 135.223 -1.18892 3.98544 0
M  V30 1477 H 133.8 -2.53065 2.73884 0
M  V30 1478 N 135.985 -1.50799 -0.457987 0
M  V30 1479 C 137.396 -1.55152 -1.0385 0
M  V30 1480 C 137.747 -0.362719 -1.92818 0
M  V30 1481 O 136.872 0.522915 -2.09987 0
M  V30 1482 C 137.467 -2.81173 -1.89017 0
M  V30 1483 C 136.026 -2.88164 -2.42154 0
M  V30 1484 C 135.173 -2.49591 -1.20829 0
M  V30 1485 H 138.124 -1.56874 -0.240068 0
M  V30 1486 H 138.145 -2.63769 -2.74238 0
M  V30 1487 H 137.657 -3.67677 -1.24238 0
M  V30 1488 H 135.758 -2.06042 -3.10447 0
M  V30 1489 H 135.871 -3.91356 -2.76364 0
M  V30 1490 H 134.235 -2.02322 -1.54719 0
M  V30 1491 H 135.018 -3.38418 -0.576927 0
M  V30 1492 N 137.463 0.71206 -1.40597 0
M  V30 1493 C 138.393 1.83889 -1.43899 0
M  V30 1494 C 139.374 1.67442 -0.299504 0
M  V30 1495 O 140.559 1.87421 -0.508624 0
M  V30 1496 C 137.689 3.21877 -1.30431 0
M  V30 1497 C 136.643 3.53002 -2.42019 0
M  V30 1498 C 135.969 4.90172 -2.13626 0
M  V30 1499 C 137.269 3.53643 -3.84362 0
M  V30 1500 H 138.963 1.81383 -2.38203 0
M  V30 1501 H 136.509 0.871237 -1.14654 0
M  V30 1502 H 138.462 4.00404 -1.31357 0
M  V30 1503 H 137.186 3.24968 -0.326049 0
M  V30 1504 H 135.845 2.76818 -2.40349 0
M  V30 1505 H 135.493 4.89869 -1.14182 0
M  V30 1506 H 135.193 5.11962 -2.88389 0
M  V30 1507 H 136.717 5.71028 -2.1624 0
M  V30 1508 H 138.131 4.22203 -3.87837 0
M  V30 1509 H 136.528 3.86961 -4.58673 0
M  V30 1510 H 137.598 2.52954 -4.13693 0
M  V30 1511 N 138.941 1.26152 0.944643 0
M  V30 1512 C 139.873 1.03199 2.04652 0
M  V30 1513 C 140.886 -0.00642356 1.62799 0
M  V30 1514 O 142.075 0.233263 1.76969 0
M  V30 1515 C 139.175 0.540111 3.34568 0
M  V30 1516 C 138.348 1.64697 4.05208 0
M  V30 1517 C 137.407 1.15374 5.13396 0
M  V30 1518 O 136.433 1.85013 5.38293 0
M  V30 1519 N 137.635 0.00031529 5.805 0
M  V30 1520 H 140.4 1.9808 2.2491 0
M  V30 1521 H 137.961 1.17491 1.11389 0
M  V30 1522 H 139.953 0.194401 4.04233 0
M  V30 1523 H 138.523 -0.315021 3.11009 0
M  V30 1524 H 137.743 2.16379 3.29506 0
M  V30 1525 H 139.031 2.3903 4.49157 0
M  V30 1526 H 138.429 -0.581336 5.62705 0
M  V30 1527 H 136.986 -0.286346 6.51171 0
M  V30 1528 N 140.419 -1.14872 1.07899 0
M  V30 1529 C 141.382 -2.17986 0.708161 0
M  V30 1530 C 142.382 -1.58775 -0.25442 0
M  V30 1531 O 143.572 -1.74166 -0.034645 0
M  V30 1532 C 140.704 -3.40871 0.0446929 0
M  V30 1533 H 141.897 -2.52306 1.62116 0
M  V30 1534 H 139.45 -1.2943 0.876218 0
M  V30 1535 H 140.185 -3.12124 -0.880281 0
M  V30 1536 H 139.97 -3.8511 0.737091 0
M  V30 1537 H 141.46 -4.17121 -0.19991 0
M  V30 1538 N 141.898 -0.863906 -1.31812 0
M  V30 1539 C 143.123 -0.48527 -2.01643 0
M  V30 1540 C 143.548 0.913058 -1.64453 0
M  V30 1541 O 142.906 1.6014 -0.849985 0
M  V30 1542 C 142.954 -0.642625 -3.54828 0
M  V30 1543 O 142.058 0.320659 -4.11151 0
M  V30 1544 H 141.399 -0.193793 -0.635091 0
M  V30 1545 H 143.929 -1.16565 -1.68148 0
M  V30 1546 H 143.939 -0.533628 -4.04495 0
M  V30 1547 H 142.614 -1.66227 -3.81237 0
M  V30 1548 H 141.191 0.167126 -3.72525 0
M  V30 1549 N 143.376 1.44774 -0.622745 0
M  V30 1550 C 144.787 1.85546 -0.207226 0
M  V30 1551 C 145.138 1.52093 1.23944 0
M  V30 1552 O 144.263 0.95492 1.94191 0
M  V30 1553 C 144.858 3.36781 -0.369313 0
M  V30 1554 C 143.417 3.76399 -0.00836847 0
M  V30 1555 C 142.564 2.68664 -0.686651 0
M  V30 1556 H 145.515 1.3536 -0.828454 0
M  V30 1557 H 145.536 3.78453 0.394162 0
M  V30 1558 H 145.048 3.61098 -1.42231 0
M  V30 1559 H 143.149 3.57698 1.04322 0
M  V30 1560 H 143.262 4.7732 -0.412584 0
M  V30 1561 H 141.626 2.54404 -0.122777 0
M  V30 1562 H 142.409 2.95815 -1.74208 0
M  V30 1563 N 144.854 0.36279 1.53368 0
M  V30 1564 C 146.131 -0.284021 1.93527 0
M  V30 1565 C 146.511 -1.66628 1.29608 0
M  V30 1566 O 145.859 -2.23942 0.45413 0
M  V30 1567 C 146.069 -0.337028 3.47369 0
M  V30 1568 C 147.417 -0.578708 4.20638 0
M  V30 1569 O 148.441 -0.418352 3.53735 0
M  V30 1570 O 147.3 -0.89074 5.39192 0
M  V30 1571 H 144.394 -0.169743 0.809393 0
M  V30 1572 H 146.94 0.41537 1.64538 0
M  V30 1573 H 145.712 0.632217 3.86159 0
M  V30 1574 H 145.335 -1.08243 3.82582 0
M  V30 1575 N 146.332 -1.57332 0.0918853 0
M  V30 1576 C 147.279 -2.13847 -0.868211 0
M  V30 1577 C 148.249 -1.05618 -1.28196 0
M  V30 1578 O 149.434 -1.33387 -1.36427 0
M  V30 1579 C 146.574 -2.72062 -2.12312 0
M  V30 1580 C 145.687 -3.94514 -1.7602 0
M  V30 1581 C 144.822 -4.40903 -2.96273 0
M  V30 1582 C 143.861 -5.55953 -2.56092 0
M  V30 1583 N 142.998 -5.97209 -3.69169 0
M  V30 1584 H 147.838 -2.95575 -0.379406 0
M  V30 1585 H 145.375 -1.46048 -0.175606 0
M  V30 1586 H 147.333 -3.03931 -2.858 0
M  V30 1587 H 145.963 -1.93068 -2.58698 0
M  V30 1588 H 145.015 -3.68979 -0.925135 0
M  V30 1589 H 146.327 -4.7802 -1.42472 0
M  V30 1590 H 145.481 -4.74539 -3.78018 0
M  V30 1591 H 144.22 -3.56291 -3.33029 0
M  V30 1592 H 143.225 -5.21948 -1.72773 0
M  V30 1593 H 144.45 -6.42311 -2.20484 0
M  V30 1594 H 142.396 -5.15543 -4.05649 0
M  V30 1595 H 142.313 -6.75504 -3.39456 0
M  V30 1596 H 143.581 -6.35475 -4.51434 0
M  V30 1597 N 147.81 0.181792 -1.56548 0
M  V30 1598 C 149.056 0.901431 -1.81665 0
M  V30 1599 C 149.389 1.82347 -0.668075 0
M  V30 1600 O 148.664 1.91669 0.330615 0
M  V30 1601 C 148.947 1.70618 -3.17115 0
M  V30 1602 C 148.8 0.807964 -4.42484 0
M  V30 1603 C 150.119 2.67605 -3.49393 0
M  V30 1604 H 147.238 0.32627 -0.660846 0
M  V30 1605 H 149.88 0.168134 -1.89255 0
M  V30 1606 H 148.03 2.33133 -3.10775 0
M  V30 1607 H 149.702 0.19649 -4.60881 0
M  V30 1608 H 147.945 0.115411 -4.33646 0
M  V30 1609 H 148.616 1.40632 -5.33785 0
M  V30 1610 H 151.092 2.15218 -3.56118 0
M  V30 1611 H 149.968 3.20985 -4.45264 0
M  V30 1612 H 150.229 3.47298 -2.73563 0
M  V30 1613 N 149.288 1.51039 0.449983 0
M  V30 1614 C 150.699 1.557 1.03026 0
M  V30 1615 C 151.05 0.372939 1.92623 0
M  V30 1616 O 150.175 -0.511771 2.10261 0
M  V30 1617 C 150.77 2.82171 1.87523 0
M  V30 1618 C 149.329 2.89444 2.40622 0
M  V30 1619 C 148.476 2.50228 1.19504 0
M  V30 1620 H 151.427 1.56999 0.231745 0
M  V30 1621 H 151.448 2.65219 2.72835 0
M  V30 1622 H 150.96 3.68331 1.22286 0
M  V30 1623 H 149.061 2.07685 3.0935 0
M  V30 1624 H 149.174 3.92816 2.74285 0
M  V30 1625 H 147.538 2.03139 1.53644 0
M  V30 1626 H 148.321 3.38719 0.558972 0
M  V30 1627 N 150.766 -0.704594 1.40972 0
M  V30 1628 C 151.696 -1.83124 1.44872 0
M  V30 1629 C 152.677 -1.67281 0.30838 0
M  V30 1630 O 153.862 -1.87149 0.518556 0
M  V30 1631 C 150.992 -3.21181 1.32136 0
M  V30 1632 C 149.946 -3.51714 2.43888 0
M  V30 1633 C 149.272 -4.89032 2.16222 0
M  V30 1634 C 150.572 -3.516 3.86232 0
M  V30 1635 H 152.266 -1.80117 2.39161 0
M  V30 1636 H 149.812 -0.865145 1.15114 0
M  V30 1637 H 151.765 -3.99702 1.33479 0
M  V30 1638 H 150.489 -3.24791 0.343279 0
M  V30 1639 H 149.148 -2.75539 2.41813 0
M  V30 1640 H 148.796 -4.89256 1.16778 0
M  V30 1641 H 148.496 -5.10426 2.911 0
M  V30 1642 H 150.02 -5.69873 2.19265 0
M  V30 1643 H 151.434 -4.2014 3.9007 0
M  V30 1644 H 149.831 -3.84523 4.60719 0
M  V30 1645 H 150.901 -2.50757 4.15029 0
M  V30 1646 N 152.244 -1.26651 -0.937939 0
M  V30 1647 C 153.154 -1.10276 -2.07066 0
M  V30 1648 C 154.17 -0.0354197 -1.73964 0
M  V30 1649 O 155.346 -0.239816 -1.99967 0
M  V30 1650 C 152.411 -0.740887 -3.38691 0
M  V30 1651 C 151.472 -1.88799 -3.85556 0
M  V30 1652 C 150.705 -1.54329 -5.10899 0
M  V30 1653 O 150.928 -0.446494 -5.6865 0
M  V30 1654 O 149.862 -2.37911 -5.52885 0
M  V30 1655 H 153.688 -2.05309 -2.23789 0
M  V30 1656 H 151.273 -1.05743 -1.0554 0
M  V30 1657 H 153.155 -0.55195 -4.1777 0
M  V30 1658 H 151.83 0.180022 -3.23199 0
M  V30 1659 H 150.737 -2.13191 -3.07409 0
M  V30 1660 H 152.07 -2.78874 -4.05574 0
M  V30 1661 N 153.722 1.14298 -1.08507 0
M  V30 1662 C 154.968 1.85633 -0.816581 0
M  V30 1663 C 155.301 1.82784 0.656021 0
M  V30 1664 O 154.576 1.25926 1.48233 0
M  V30 1665 C 154.859 3.34223 -1.34041 0
M  V30 1666 C 154.712 3.45639 -2.87843 0
M  V30 1667 C 156.031 4.29356 -0.9665 0
M  V30 1668 H 153.15 0.67402 -0.298104 0
M  V30 1669 H 155.792 1.34214 -1.34487 0
M  V30 1670 H 153.942 3.78144 -0.89104 0
M  V30 1671 H 155.614 3.10498 -3.41158 0
M  V30 1672 H 153.857 2.86817 -3.25451 0
M  V30 1673 H 154.528 4.50089 -3.19569 0
M  V30 1674 H 157.004 3.93457 -1.35391 0
M  V30 1675 H 155.88 5.3178 -1.3602 0
M  V30 1676 H 156.141 4.41919 0.126362 0
M  V30 1677 N 155.201 0.870884 1.31352 0
M  V30 1678 C 156.151 0.298889 2.26032 0
M  V30 1679 C 157.135 -0.564595 1.50669 0
M  V30 1680 O 158.327 -0.411323 1.72154 0
M  V30 1681 C 155.456 -0.497842 3.39671 0
M  V30 1682 C 154.542 0.378937 4.22404 0
M  V30 1683 N 154.933 1.47284 4.83881 0
M  V30 1684 C 153.231 0.171535 4.4567 0
M  V30 1685 C 153.932 2.01359 5.45738 0
M  V30 1686 N 152.908 1.31047 5.27568 0
M  V30 1687 H 156.71 1.13494 2.71102 0
M  V30 1688 H 154.224 0.718745 1.45629 0
M  V30 1689 H 156.221 -0.924155 4.06528 0
M  V30 1690 H 154.881 -1.33149 2.96144 0
M  V30 1691 H 155.892 1.85575 4.8351 0
M  V30 1692 H 152.569 -0.626091 4.12779 0
M  V30 1693 H 153.959 2.93143 6.0458 0
M  V30 1694 N 156.679 -1.44442 0.630414 0
M  V30 1695 C 158.095 -1.56832 0.295973 0
M  V30 1696 C 158.295 -1.61806 -1.20088 0
M  V30 1697 O 157.351 -1.5607 -1.9849 0
M  V30 1698 C 158.664 -2.84031 0.987264 0
M  V30 1699 C 160.212 -2.97742 0.96534 0
M  V30 1700 C 160.687 -4.27743 1.63708 0
M  V30 1701 N 162.178 -4.34555 1.60364 0
M  V30 1702 C 162.913 -5.33862 2.09234 0
M  V30 1703 N 162.409 -6.39578 2.66292 0
M  V30 1704 N 164.202 -5.25366 1.99867 0
M  V30 1705 H 156.353 -1.39457 1.60205 0
M  V30 1706 H 158.616 -0.668237 0.672431 0
M  V30 1707 H 158.322 -2.86338 2.04215 0
M  V30 1708 H 158.196 -3.73534 0.524588 0
M  V30 1709 H 160.583 -2.94989 -0.0810639 0
M  V30 1710 H 160.664 -2.09589 1.4665 0
M  V30 1711 H 160.308 -4.31255 2.68293 0
M  V30 1712 H 160.238 -5.14752 1.11076 0
M  V30 1713 H 162.729 -3.58772 1.18705 0
M  V30 1714 H 163.042 -7.11637 3.01317 0
M  V30 1715 H 161.387 -6.40265 2.70343 0
M  V30 1716 H 164.578 -4.41688 1.55013 0
M  V30 1717 H 164.751 -6.02606 2.38265 0
M  V30 1718 N 158.157 -0.370918 -1.53173 0
M  V30 1719 C 159.104 0.473035 -2.259 0
M  V30 1720 C 160.074 1.07311 -1.26781 0
M  V30 1721 O 161.259 1.1046 -1.55574 0
M  V30 1722 C 158.399 1.60405 -3.05556 0
M  V30 1723 C 157.512 1.02863 -4.19575 0
M  V30 1724 C 156.647 2.12918 -4.86661 0
M  V30 1725 C 155.686 1.52869 -5.92704 0
M  V30 1726 N 154.823 2.56779 -6.53459 0
M  V30 1727 H 159.663 -0.153649 -2.97604 0
M  V30 1728 H 157.2 -0.0875946 -1.46839 0
M  V30 1729 H 159.158 2.27034 -3.50016 0
M  V30 1730 H 157.788 2.20131 -2.36097 0
M  V30 1731 H 156.84 0.252465 -3.79561 0
M  V30 1732 H 158.152 0.549642 -4.95762 0
M  V30 1733 H 157.306 2.87356 -5.34333 0
M  V30 1734 H 156.045 2.6417 -4.09958 0
M  V30 1735 H 155.05 0.769479 -5.44389 0
M  V30 1736 H 156.275 1.02435 -6.7133 0
M  V30 1737 H 154.221 3.07235 -5.79606 0
M  V30 1738 H 154.138 2.13583 -7.25202 0
M  V30 1739 H 155.406 3.30903 -7.05779 0
M  V30 1740 N 159.635 1.57281 -0.100228 0
M  V30 1741 C 160.863 1.98879 0.570509 0
M  V30 1742 C 161.278 0.979476 1.61405 0
M  V30 1743 O 160.635 -0.0302288 1.82475 0
M  V30 1744 C 160.686 3.4052 1.2136 0
M  V30 1745 O 160.407 4.37588 0.211786 0
M  V30 1746 C 161.908 3.97149 1.96945 0
M  V30 1747 H 159.128 0.653428 0.152555 0
M  V30 1748 H 161.672 2.03697 -0.18103 0
M  V30 1749 H 159.827 3.367 1.91603 0
M  V30 1750 H 160.241 5.20118 0.676607 0
M  V30 1751 H 161.715 4.98393 2.37294 0
M  V30 1752 H 162.192 3.3525 2.83733 0
M  V30 1753 H 162.798 4.04458 1.31506 0
M  V30 1754 N 161.113 -0.173488 1.56642 0
M  V30 1755 C 162.338 -0.910149 1.86363 0
M  V30 1756 C 162.763 -1.75132 0.686318 0
M  V30 1757 O 162.121 -1.77595 -0.364643 0
M  V30 1758 C 162.169 -1.76447 3.14482 0
M  V30 1759 O 161.273 -2.86584 2.96553 0
M  V30 1760 H 160.614 -0.255086 0.613047 0
M  V30 1761 H 163.144 -0.172283 2.03873 0
M  V30 1762 H 163.154 -2.16483 3.45831 0
M  V30 1763 H 161.829 -1.14658 3.99783 0
M  V30 1764 H 160.406 -2.50146 2.76553 0
M  V30 1765 N 162.591 -1.51276 -0.441967 0
M  V30 1766 C 163.839 -1.63392 -1.18943 0
M  V30 1767 C 164.16 -0.350159 -1.9183 0
M  V30 1768 O 163.43 0.633784 -1.85364 0
M  V30 1769 H 162.01 -0.602164 -0.442049 0
M  V30 1770 H 164.672 -1.88186 -0.507165 0
M  V30 1771 H 163.768 -2.45934 -1.92154 0
M  V30 1772 N 164.069 0.697108 -1.41344 0
M  V30 1773 C 164.999 1.82353 -1.45841 0
M  V30 1774 C 165.98 1.67115 -0.317247 0
M  V30 1775 O 167.165 1.86871 -0.528474 0
M  V30 1776 C 164.295 3.20476 -1.33838 0
M  V30 1777 C 163.249 3.50415 -2.4575 0
M  V30 1778 C 162.575 4.87878 -2.18813 0
M  V30 1779 C 163.875 3.49546 -3.88091 0
M  V30 1780 H 165.569 1.78846 -2.40113 0
M  V30 1781 H 163.115 0.859028 -1.15571 0
M  V30 1782 H 165.068 3.98988 -1.35596 0
M  V30 1783 H 163.792 3.24604 -0.360498 0
M  V30 1784 H 162.451 2.74253 -2.43271 0
M  V30 1785 H 162.099 4.8863 -1.19371 0
M  V30 1786 H 161.799 5.08875 -2.93803 0
M  V30 1787 H 163.323 5.68702 -2.22284 0
M  V30 1788 H 164.737 4.18066 -3.92293 0
M  V30 1789 H 163.134 3.82075 -4.62751 0
M  V30 1790 H 164.204 2.48552 -4.16353 0
M  V30 1791 N 165.547 1.27147 0.931209 0
M  V30 1792 C 166.793 1.13446 1.68101 0
M  V30 1793 C 167.126 -0.319628 1.91552 0
M  V30 1794 O 166.401 -1.23407 1.50336 0
M  V30 1795 C 166.684 1.91482 3.0497 0
M  V30 1796 C 166.537 3.44855 2.88782 0
M  V30 1797 C 167.856 1.71651 4.05246 0
M  V30 1798 H 164.975 0.413498 0.610072 0
M  V30 1799 H 167.617 1.56261 1.08086 0
M  V30 1800 H 165.767 1.55095 3.56199 0
M  V30 1801 H 167.439 3.9105 2.44698 0
M  V30 1802 H 165.682 3.71373 2.24198 0
M  V30 1803 H 166.353 3.94694 3.85902 0
M  V30 1804 H 168.829 2.0337 3.63015 0
M  V30 1805 H 167.705 2.28651 4.99009 0
M  V30 1806 H 167.966 0.663555 4.37092 0
M  V30 1807 N 167.025 -1.13721 1.09112 0
M  V30 1808 C 168.25 -1.89314 0.847053 0
M  V30 1809 C 168.675 -1.78416 -0.595774 0
M  V30 1810 O 168.033 -1.12942 -1.41823 0
M  V30 1811 C 168.081 -3.3701 1.28284 0
M  V30 1812 O 167.185 -4.10054 0.439267 0
M  V30 1813 H 166.526 -0.588745 0.307044 0
M  V30 1814 H 169.056 -1.43902 1.45442 0
M  V30 1815 H 169.066 -3.87834 1.26683 0
M  V30 1816 H 167.741 -3.4426 2.33363 0
M  V30 1817 H 166.318 -3.69266 0.519312 0
M  V30 1818 N 168.503 -0.877838 -1.30888 0
M  V30 1819 C 169.433 -0.35534 -2.3078 0
M  V30 1820 C 170.414 0.557994 -1.60687 0
M  V30 1821 O 171.599 0.473355 -1.88343 0
M  V30 1822 C 168.729 0.437221 -3.44537 0
M  V30 1823 C 167.683 -0.383715 -4.26276 0
M  V30 1824 C 167.009 0.535014 -5.32017 0
M  V30 1825 C 168.309 -1.62201 -4.96476 0
M  V30 1826 H 170.003 -1.19007 -2.74732 0
M  V30 1827 H 167.549 -0.573698 -1.32078 0
M  V30 1828 H 169.502 0.813334 -4.13477 0
M  V30 1829 H 168.226 1.30553 -2.99372 0
M  V30 1830 H 166.885 -0.741874 -3.59015 0
M  V30 1831 H 166.533 1.40083 -4.831 0
M  V30 1832 H 166.233 -0.0104211 -5.87599 0
M  V30 1833 H 167.757 0.907799 -6.03814 0
M  V30 1834 H 169.171 -1.31689 -5.5797 0
M  V30 1835 H 167.568 -2.10711 -5.61891 0
M  V30 1836 H 168.638 -2.37044 -4.23011 0
M  V30 1837 N 169.982 1.44106 -0.638065 0
M  V30 1838 C 170.932 2.27843 0.0847285 0
M  V30 1839 C 171.916 1.39055 0.809471 0
M  V30 1840 O 173.108 1.62808 0.694435 0
M  V30 1841 C 170.237 3.26497 1.06089 0
M  V30 1842 C 169.323 4.22772 0.33541 0
M  V30 1843 N 169.714 5.01737 -0.639787 0
M  V30 1844 C 168.012 4.42227 0.578921 0
M  V30 1845 C 168.713 5.71792 -1.06904 0
M  V30 1846 N 167.689 5.42079 -0.406395 0
M  V30 1847 H 171.491 2.86305 -0.663814 0
M  V30 1848 H 169.005 1.55627 -0.464122 0
M  V30 1849 H 171.002 3.8525 1.59337 0
M  V30 1850 H 169.662 2.69595 1.80966 0
M  V30 1851 H 170.673 5.07799 -1.01789 0
M  V30 1852 H 167.35 3.96415 1.31003 0
M  V30 1853 H 168.74 6.45205 -1.8751 0
M  V30 1854 N 171.46 0.379036 1.52974 0
M  V30 1855 C 172.685 -0.209353 2.06341 0
M  V30 1856 C 173.11 -1.40583 1.24972 0
M  V30 1857 O 172.468 -1.79246 0.272155 0
M  V30 1858 C 172.516 -0.567786 3.56102 0
M  V30 1859 O 171.62 -1.66318 3.77375 0
M  V30 1860 H 170.961 -0.0272919 0.663439 0
M  V30 1861 H 173.491 0.543536 1.97248 0
M  V30 1862 H 173.501 -0.835003 3.99364 0
M  V30 1863 H 172.176 0.307013 4.14765 0
M  V30 1864 H 170.753 -1.39048 3.46006 0
M  V30 1865 N 172.938 -1.57226 0.108567 0
M  V30 1866 C 174.354 -1.5766 -0.248058 0
M  V30 1867 C 174.554 -1.12063 -1.67464 0
M  V30 1868 O 173.61 -0.803236 -2.39383 0
M  V30 1869 C 174.923 -3.0069 -0.0242287 0
M  V30 1870 C 176.471 -3.12868 -0.0909372 0
M  V30 1871 C 176.946 -4.57879 0.105067 0
M  V30 1872 N 178.437 -4.63172 0.0506846 0
M  V30 1873 C 179.172 -5.73126 0.177396 0
M  V30 1874 N 178.668 -6.91866 0.359696 0
M  V30 1875 N 180.461 -5.61977 0.117709 0
M  V30 1876 H 172.612 -1.85169 1.04049 0
M  V30 1877 H 174.875 -0.85529 0.40888 0
M  V30 1878 H 174.581 -3.38299 0.961604 0
M  V30 1879 H 174.455 -3.6945 -0.76068 0
M  V30 1880 H 176.842 -2.75124 -1.06729 0
M  V30 1881 H 176.923 -2.46672 0.677225 0
M  V30 1882 H 176.567 -4.96321 1.07834 0
M  V30 1883 H 176.497 -5.22153 -0.682954 0
M  V30 1884 H 178.988 -3.778 -0.0871266 0
M  V30 1885 H 179.301 -7.71503 0.447529 0
M  V30 1886 H 177.646 -6.93874 0.395536 0
M  V30 1887 H 180.837 -4.68094 -0.0236741 0
M  V30 1888 H 181.01 -6.47627 0.219905 0
M  V30 1889 N 174.416 0.165178 -1.56732 0
M  V30 1890 C 175.832 0.517174 -1.50988 0
M  V30 1891 C 176.032 1.84331 -0.813894 0
M  V30 1892 O 175.088 2.49672 -0.37682 0
M  V30 1893 C 176.401 0.544261 -2.95733 0
M  V30 1894 C 177.949 0.631039 -3.06573 0
M  V30 1895 C 178.424 0.68896 -4.52788 0
M  V30 1896 N 179.915 0.751683 -4.5706 0
M  V30 1897 C 180.65 0.817177 -5.67547 0
M  V30 1898 N 180.146 0.843129 -6.8765 0
M  V30 1899 N 181.939 0.856668 -5.55534 0
M  V30 1900 H 174.09 -0.704318 -2.00382 0
M  V30 1901 H 176.353 -0.254687 -0.913148 0
M  V30 1902 H 176.059 -0.361607 -3.49836 0
M  V30 1903 H 175.933 1.3886 -3.5071 0
M  V30 1904 H 178.32 1.52733 -2.52501 0
M  V30 1905 H 178.401 -0.240095 -2.54671 0
M  V30 1906 H 178.045 -0.2031 -5.07494 0
M  V30 1907 H 177.975 1.57633 -5.02454 0
M  V30 1908 H 180.466 0.739661 -3.70591 0
M  V30 1909 H 180.779 0.894448 -7.67606 0
M  V30 1910 H 179.124 0.811304 -6.90248 0
M  V30 1911 H 182.315 0.833437 -4.60621 0
M  V30 1912 H 182.488 0.904247 -6.4166 0
M  V30 1913 N 175.894 1.51508 0.433938 0
M  V30 1914 C 177.142 1.6402 1.18075 0
M  V30 1915 C 177.463 0.360328 1.91642 0
M  V30 1916 O 176.733 -0.623945 1.85698 0
M  V30 1917 H 175.313 0.6045 0.43885 0
M  V30 1918 H 177.975 1.88452 0.497178 0
M  V30 1919 H 177.071 2.46949 1.90847 0
M  V30 1920 N 177.372 -0.689602 1.41712 0
M  V30 1921 C 178.335 -1.78521 1.43746 0
M  V30 1922 C 179.335 -1.57436 0.327191 0
M  V30 1923 O 180.525 -1.64 0.587348 0
M  V30 1924 C 177.657 -3.16971 1.25467 0
M  V30 1925 H 178.85 -1.78108 2.41283 0
M  V30 1926 H 176.403 -0.89781 1.27942 0
M  V30 1927 H 177.138 -3.23019 0.287948 0
M  V30 1928 H 176.923 -3.33678 2.05917 0
M  V30 1929 H 178.413 -3.96935 1.2974 0
M  V30 1930 N 178.85 -1.27639 -0.924453 0
M  V30 1931 C 179.797 -1.10644 -2.0255 0
M  V30 1932 C 180.767 -0.00658438 -1.66099 0
M  V30 1933 O 181.952 -0.16952 -1.90045 0
M  V30 1934 C 179.092 -0.76309 -3.36557 0
M  V30 1935 C 178.205 -1.94091 -3.85944 0
M  V30 1936 C 177.34 -1.53914 -5.08413 0
M  V30 1937 C 176.379 -2.68425 -5.50104 0
M  V30 1938 N 175.516 -2.28815 -6.63768 0
M  V30 1939 H 180.356 -2.04858 -2.16419 0
M  V30 1940 H 177.893 -1.01974 -1.06017 0
M  V30 1941 H 179.851 -0.544822 -4.13627 0
M  V30 1942 H 178.481 0.142102 -3.22487 0
M  V30 1943 H 177.533 -2.27162 -3.05125 0
M  V30 1944 H 178.845 -2.7998 -4.12811 0
M  V30 1945 H 177.999 -1.28231 -5.92994 0
M  V30 1946 H 176.738 -0.651391 -4.8333 0
M  V30 1947 H 175.743 -2.94819 -4.64071 0
M  V30 1948 H 176.968 -3.57826 -5.7718 0
M  V30 1949 H 174.914 -1.42495 -6.40337 0
M  V30 1950 H 174.831 -3.08242 -6.90306 0
M  V30 1951 H 176.099 -2.06387 -7.51681 0
M  V30 1952 N 180.328 1.1314 -1.09713 0
M  V30 1953 C 181.291 2.16831 -0.742751 0
M  V30 1954 C 182.291 1.59159 0.229129 0
M  V30 1955 O 183.481 1.74199 0.00693237 0
M  V30 1956 C 180.613 3.40756 -0.0989168 0
M  V30 1957 H 181.806 2.49695 -1.66109 0
M  V30 1958 H 179.359 1.2802 -0.896699 0
M  V30 1959 H 180.094 3.13485 0.830514 0
M  V30 1960 H 179.879 3.83888 -0.798265 0
M  V30 1961 H 181.369 4.17386 0.133524 0
M  V30 1962 N 181.806 0.884767 1.30421 0
M  V30 1963 C 183.054 0.502112 1.95763 0
M  V30 1964 C 183.375 -0.951815 1.70192 0
M  V30 1965 O 182.645 -1.6692 1.0254 0
M  V30 1966 H 181.225 0.182694 0.724315 0
M  V30 1967 H 183.887 1.1278 1.58955 0
M  V30 1968 H 182.983 0.672188 3.04775 0
M  V30 1969 N 183.284 -1.43765 0.645699 0
M  V30 1970 C 184.53 -2.02197 0.156271 0
M  V30 1971 C 184.863 -1.50776 -1.22393 0
M  V30 1972 O 184.138 -0.697771 -1.81553 0
M  V30 1973 C 184.421 -3.59749 0.158872 0
M  V30 1974 C 184.274 -4.21419 1.57245 0
M  V30 1975 C 185.593 -4.37149 -0.50879 0
M  V30 1976 H 182.712 -0.734694 0.0582602 0
M  V30 1977 H 185.354 -1.71157 0.824951 0
M  V30 1978 H 183.504 -3.86325 -0.410525 0
M  V30 1979 H 185.176 -4.059 2.19186 0
M  V30 1980 H 183.419 -3.78356 2.122 0
M  V30 1981 H 184.09 -5.30482 1.52619 0
M  V30 1982 H 186.566 -4.16093 -0.024412 0
M  V30 1983 H 185.442 -5.4683 -0.476213 0
M  V30 1984 H 185.703 -4.12839 -1.58165 0
M  V30 1985 N 184.763 -0.387143 -1.52771 0
M  V30 1986 C 185.988 0.198407 -2.06449 0
M  V30 1987 C 186.413 1.39918 -1.25716 0
M  V30 1988 O 185.771 1.79099 -0.281657 0
M  V30 1989 C 185.819 0.548893 -3.56398 0
M  V30 1990 O 184.923 1.64315 -3.78252 0
M  V30 1991 H 184.264 0.0237731 -0.663574 0
M  V30 1992 H 186.794 -0.553989 -1.96957 0
M  V30 1993 H 186.804 0.813812 -3.99801 0
M  V30 1994 H 185.479 -0.329005 -4.14597 0
M  V30 1995 H 184.056 1.37211 -3.46738 0
M  V30 1996 N 186.241 1.57166 -0.116904 0
M  V30 1997 C 187.204 2.14039 0.819742 0
M  V30 1998 C 188.204 1.07477 1.19605 0
M  V30 1999 O 189.394 1.33263 1.1219 0
M  V30 2000 C 186.526 2.67891 2.10826 0
M  V30 2001 H 187.719 2.98128 0.325511 0
M  V30 2002 H 185.272 1.55739 0.132312 0
M  V30 2003 H 186.007 1.87384 2.64685 0
M  V30 2004 H 185.792 3.45823 1.84793 0
M  V30 2005 H 187.282 3.11809 2.77785 0
M  V30 2006 N 187.719 -0.156864 1.56817 0
M  V30 2007 C 188.629 -1.2136 2.00771 0
M  V30 2008 C 189.645 -1.47598 0.921459 0
M  V30 2009 O 190.821 -1.59462 1.2302 0
M  V30 2010 C 187.886 -2.52943 2.37109 0
M  V30 2011 C 186.947 -2.34439 3.59634 0
M  V30 2012 C 186.18 -3.59748 3.94229 0
M  V30 2013 O 186.403 -4.65526 3.29609 0
M  V30 2014 O 185.337 -3.52998 4.8752 0
M  V30 2015 H 189.163 -0.870468 2.90958 0
M  V30 2016 H 186.748 -0.36484 1.44877 0
M  V30 2017 H 188.63 -3.30538 2.61386 0
M  V30 2018 H 187.305 -2.86806 1.5008 0
M  V30 2019 H 186.212 -1.54828 3.40557 0
M  V30 2020 H 187.545 -2.05496 4.4725 0
M  V30 2021 N 189.197 -1.51736 -0.425897 0
M  V30 2022 C 190.608 -1.5732 -1.00536 0
M  V30 2023 C 190.959 -0.403537 -1.92005 0
M  V30 2024 O 190.084 0.478256 -2.11049 0
M  V30 2025 C 190.679 -2.85119 -1.8301 0
M  V30 2026 C 189.238 -2.93236 -2.35987 0
M  V30 2027 C 188.385 -2.52098 -1.15508 0
M  V30 2028 H 191.336 -1.57348 -0.206739 0
M  V30 2029 H 191.357 -2.69526 -2.68581 0
M  V30 2030 H 190.869 -3.7023 -1.16411 0
M  V30 2031 H 188.97 -2.12581 -3.06007 0
M  V30 2032 H 189.083 -3.9713 -2.68001 0
M  V30 2033 H 187.447 -2.05558 -1.50393 0
M  V30 2034 H 188.23 -3.39565 -0.505014 0
M  V30 2035 N 190.675 0.682077 -1.42076 0
M  V30 2036 C 191.903 1.47057 -1.4554 0
M  V30 2037 C 192.318 1.8869 -0.0645779 0
M  V30 2038 O 191.675 1.57666 0.919115 0
M  V30 2039 C 191.726 2.72442 -2.37609 0
M  V30 2040 O 191.447 2.32559 -3.71279 0
M  V30 2041 C 192.948 3.66069 -2.50017 0
M  V30 2042 H 190.168 0.452737 -0.495248 0
M  V30 2043 H 192.712 0.838695 -1.8651 0
M  V30 2044 H 190.867 3.31835 -1.9991 0
M  V30 2045 H 191.281 3.13475 -4.20516 0
M  V30 2046 H 192.755 4.50792 -3.18576 0
M  V30 2047 H 193.232 4.11476 -1.53572 0
M  V30 2048 H 193.838 3.12572 -2.88407 0
M  V30 2049 N 192.153 1.28127 0.917671 0
M  V30 2050 C 193.381 1.17892 1.70026 0
M  V30 2051 C 193.796 -0.262958 1.8696 0
M  V30 2052 O 193.153 -1.17811 1.3938 0
M  V30 2053 C 193.204 1.86872 3.09453 0
M  V30 2054 O 192.925 3.25428 2.93306 0
M  V30 2055 C 194.426 1.8289 4.03815 0
M  V30 2056 H 191.646 0.40942 0.531617 0
M  V30 2057 H 194.19 1.69181 1.14883 0
M  V30 2058 H 192.345 1.39464 3.61426 0
M  V30 2059 H 192.759 3.59918 3.81523 0
M  V30 2060 H 194.233 2.35751 4.99125 0
M  V30 2061 H 194.71 0.800412 4.31845 0
M  V30 2062 H 195.316 2.29959 3.57769 0
M  V30 2063 N 193.631 -1.12557 1.10312 0
M  V30 2064 C 195.047 -1.36036 0.834649 0
M  V30 2065 C 195.247 -1.93946 -0.546539 0
M  V30 2066 O 194.303 -2.16484 -1.29966 0
M  V30 2067 C 195.616 -2.30312 1.9333 0
M  V30 2068 C 197.164 -2.43906 1.9616 0
M  V30 2069 C 197.639 -3.41496 3.05195 0
M  V30 2070 N 199.13 -3.49053 3.04494 0
M  V30 2071 C 199.865 -4.24471 3.85502 0
M  V30 2072 N 199.361 -5.02966 4.76442 0
M  V30 2073 N 201.154 -4.19864 3.73725 0
M  V30 2074 H 193.305 -0.733246 1.99342 0
M  V30 2075 H 195.568 -0.385234 0.866198 0
M  V30 2076 H 195.274 -1.94933 2.92735 0
M  V30 2077 H 195.148 -3.30421 1.81939 0
M  V30 2078 H 197.535 -2.78567 0.973886 0
M  V30 2079 H 197.616 -1.4369 2.11629 0
M  V30 2080 H 197.26 -3.07565 4.04186 0
M  V30 2081 H 197.19 -4.41539 2.86968 0
M  V30 2082 H 199.681 -2.93053 2.38596 0
M  V30 2083 H 199.994 -5.57846 5.34815 0
M  V30 2084 H 198.339 -5.02167 4.80472 0
M  V30 2085 H 201.53 -3.57623 3.02032 0
M  V30 2086 H 201.703 -4.78386 4.37093 0
M  V30 2087 N 195.109 -0.891671 -1.2995 0
M  V30 2088 C 196.337 -0.52866 -2.00032 0
M  V30 2089 C 196.752 0.884574 -1.66795 0
M  V30 2090 O 196.109 1.5827 -0.908669 0
M  V30 2091 C 196.16 -0.701814 -3.54622 0
M  V30 2092 O 195.881 -2.05942 -3.86678 0
M  V30 2093 C 197.382 -0.342683 -4.41973 0
M  V30 2094 H 194.602 -0.203659 -0.639347 0
M  V30 2095 H 197.146 -1.19881 -1.65677 0
M  V30 2096 H 195.301 -0.0789468 -3.8732 0
M  V30 2097 H 195.715 -2.08291 -4.81368 0
M  V30 2098 H 197.189 -0.514709 -5.49595 0
M  V30 2099 H 197.666 0.71975 -4.33262 0
M  V30 2100 H 198.272 -0.942154 -4.14733 0
M  V30 2101 N 196.587 1.43421 -0.653314 0
M  V30 2102 C 197.817 2.05864 -0.174238 0
M  V30 2103 C 198.225 1.49052 1.16534 0
M  V30 2104 O 197.568 0.616481 1.73047 0
M  V30 2105 C 197.63 3.59499 -0.00875873 0
M  V30 2106 C 197.294 4.38893 -1.27364 0
M  V30 2107 C 198.291 4.70947 -2.20239 0
M  V30 2108 C 195.976 4.789 -1.51525 0
M  V30 2109 C 197.97 5.41916 -3.35568 0
M  V30 2110 C 195.657 5.49614 -2.67147 0
M  V30 2111 C 196.655 5.81044 -3.58994 0
M  V30 2112 O 196.343 6.50313 -4.72597 0
M  V30 2113 H 196.075 0.670345 -0.0872549 0
M  V30 2114 H 198.629 1.84913 -0.894226 0
M  V30 2115 H 196.859 3.79025 0.7666 0
M  V30 2116 H 198.548 4.0364 0.427687 0
M  V30 2117 H 199.314 4.40558 -2.02815 0
M  V30 2118 H 195.193 4.53843 -0.809158 0
M  V30 2119 H 198.737 5.66365 -4.07279 0
M  V30 2120 H 194.634 5.79419 -2.84505 0
M  V30 2121 H 195.402 6.68795 -4.71864 0
M  V30 2122 N 198.065 0.39524 1.52563 0
M  V30 2123 C 199.342 -0.242908 1.94086 0
M  V30 2124 C 199.722 -1.63841 1.33114 0
M  V30 2125 O 199.07 -2.22928 0.501529 0
M  V30 2126 C 199.28 -0.26327 3.48006 0
M  V30 2127 C 200.628 -0.489354 4.21771 0
M  V30 2128 O 201.652 -0.343226 3.54543 0
M  V30 2129 O 200.511 -0.776169 5.4096 0
M  V30 2130 H 197.605 -0.152536 0.812811 0
M  V30 2131 H 200.151 0.450178 1.6362 0
M  V30 2132 H 198.923 0.713985 3.84731 0
M  V30 2133 H 198.546 -1.00103 3.84792 0
M  V30 2134 N 199.544 -1.57102 0.125237 0
M  V30 2135 C 200.474 -2.18659 -0.819174 0
M  V30 2136 C 201.455 -1.12843 -1.27281 0
M  V30 2137 O 202.64 -1.41104 -1.33429 0
M  V30 2138 C 199.77 -2.79096 -2.06695 0
M  V30 2139 C 198.724 -3.90548 -1.75088 0
M  V30 2140 C 198.05 -4.37821 -3.06948 0
M  V30 2141 C 199.35 -5.12356 -1.01435 0
M  V30 2142 H 201.044 -2.9783 -0.306202 0
M  V30 2143 H 198.59 -1.4326 -0.145839 0
M  V30 2144 H 200.543 -3.2082 -2.73226 0
M  V30 2145 H 199.267 -1.97223 -2.60328 0
M  V30 2146 H 197.926 -3.49409 -1.10944 0
M  V30 2147 H 197.574 -3.52799 -3.58527 0
M  V30 2148 H 197.274 -5.12982 -2.86571 0
M  V30 2149 H 198.798 -4.822 -3.74587 0
M  V30 2150 H 200.212 -5.5106 -1.58132 0
M  V30 2151 H 198.609 -5.9314 -0.911319 0
M  V30 2152 H 199.679 -4.849 -0.00218681 0
M  V30 2153 N 201.022 0.148545 -1.56898 0
M  V30 2154 C 201.97 1.20265 -1.99096 0
M  V30 2155 C 202.964 1.44559 -0.883123 0
M  V30 2156 O 204.17 1.4487 -1.0683 0
M  V30 2157 H 200.545 0.404786 -0.63376 0
M  V30 2158 H 202.516 0.82004 -2.86911 0
M  V30 2159 C 201.265 2.52886 -2.3863 0
M  V30 2160 H 200.588 2.35021 -3.23427 0
M  V30 2161 H 202.028 3.25274 -2.7198 0
M  V30 2162 C 200.487 3.13315 -1.23837 0
M  V30 2163 O 201.017 3.98077 -0.538268 0
M  V30 2164 N 199.223 2.72742 -1.00301 0
M  V30 2165 H 198.77 2.03912 -1.5741 0
M  V30 2166 H 198.728 3.13507 -0.236838 0
M  V30 2167 N 202.5 1.5196 0.417844 0
M  V30 2168 C 203.447 1.74678 1.50852 0
M  V30 2169 C 204.417 0.588947 1.55308 0
M  V30 2170 O 205.602 0.825544 1.72016 0
M  V30 2171 C 202.742 1.89544 2.88387 0
M  V30 2172 C 201.855 3.17166 2.93309 0
M  V30 2173 C 200.99 3.22513 4.22088 0
M  V30 2174 C 200.029 4.44372 4.20951 0
M  V30 2175 N 199.166 4.47161 5.41287 0
M  V30 2176 H 204.006 2.67768 1.30783 0
M  V30 2177 H 201.543 1.32689 0.63498 0
M  V30 2178 H 203.501 1.96146 3.68216 0
M  V30 2179 H 202.131 0.998424 3.06971 0
M  V30 2180 H 201.183 3.19778 2.06024 0
M  V30 2181 H 202.495 4.07021 2.88332 0
M  V30 2182 H 201.649 3.28139 5.10303 0
M  V30 2183 H 200.388 2.30581 4.29748 0
M  V30 2184 H 199.393 4.38902 3.31127 0
M  V30 2185 H 200.618 5.3759 4.14938 0
M  V30 2186 H 198.564 3.58108 5.49632 0
M  V30 2187 H 198.481 5.3085 5.3827 0
M  V30 2188 H 199.749 4.57005 6.3148 0
M  V30 2189 N 203.978 -0.674533 1.42435 0
M  V30 2190 C 205.389 -1.25514 1.38214 0
M  V30 2191 C 205.74 -1.96055 0.0755464 0
M  V30 2192 O 204.865 -2.00028 -0.8257 0
M  V30 2193 C 205.46 -2.28269 2.50357 0
M  V30 2194 C 204.019 -2.81856 2.49467 0
M  V30 2195 C 203.166 -1.56182 2.29134 0
M  V30 2196 H 206.117 -0.467902 1.51646 0
M  V30 2197 H 206.138 -3.10009 2.20624 0
M  V30 2198 H 205.65 -1.769 3.45439 0
M  V30 2199 H 203.751 -3.37346 1.58204 0
M  V30 2200 H 203.864 -3.30854 3.46515 0
M  V30 2201 H 202.228 -1.82761 1.774 0
M  V30 2202 H 203.011 -1.06778 3.26272 0
M  V30 2203 N 205.456 -1.28612 -0.910864 0
M  V30 2204 C 206.867 -1.14406 -1.47541 0
M  V30 2205 C 207.218 0.264901 -1.94403 0
M  V30 2206 O 206.343 1.15942 -1.82719 0
M  V30 2207 C 206.938 -2.07073 -2.68153 0
M  V30 2208 C 205.497 -1.96923 -3.20778 0
M  V30 2209 C 204.644 -1.98646 -1.93481 0
M  V30 2210 H 207.595 -1.41259 -0.723291 0
M  V30 2211 H 207.616 -1.63642 -3.43514 0
M  V30 2212 H 207.128 -3.09611 -2.34015 0
M  V30 2213 H 205.229 -0.97433 -3.59635 0
M  V30 2214 H 205.342 -2.84026 -3.85832 0
M  V30 2215 H 203.706 -1.43093 -2.10705 0
M  V30 2216 H 204.489 -3.02868 -1.61634 0
M  V30 2217 N 206.934 1.1197 -1.10907 0
M  V30 2218 C 207.844 2.21433 -0.774896 0
M  V30 2219 C 208.86 1.72478 0.229657 0
M  V30 2220 O 210.036 2.01288 0.0672008 0
M  V30 2221 C 207.101 3.4602 -0.216986 0
M  V30 2222 C 206.162 4.09791 -1.27944 0
M  V30 2223 C 205.395 5.28431 -0.748055 0
M  V30 2224 O 205.618 5.68823 0.423833 0
M  V30 2225 O 204.552 5.82644 -1.51027 0
M  V30 2226 H 208.378 2.5242 -1.68873 0
M  V30 2227 H 205.963 1.20399 -0.884555 0
M  V30 2228 H 207.845 4.21304 0.090059 0
M  V30 2229 H 206.52 3.16698 0.669633 0
M  V30 2230 H 205.427 3.36265 -1.63941 0
M  V30 2231 H 206.76 4.4328 -2.13925 0
M  V30 2232 N 208.412 0.89855 1.29475 0
M  V30 2233 C 209.659 0.523882 1.95606 0
M  V30 2234 C 209.987 -0.929608 1.70847 0
M  V30 2235 O 209.242 -1.67401 1.01367 0
M  V30 2236 C 209.541 0.761398 3.49195 0
M  V30 2237 C 209.207 2.19207 3.94029 0
M  V30 2238 C 207.869 2.58326 4.05982 0
M  V30 2239 C 210.221 3.12379 4.17216 0
M  V30 2240 C 207.549 3.898 4.38489 0
M  V30 2241 C 209.901 4.43401 4.51197 0
M  V30 2242 C 208.565 4.82394 4.61359 0
M  V30 2243 H 207.835 0.191702 0.715773 0
M  V30 2244 H 210.482 1.13699 1.54094 0
M  V30 2245 H 208.787 0.0653622 3.91745 0
M  V30 2246 H 210.484 0.450904 3.98457 0
M  V30 2247 H 207.074 1.87846 3.85242 0
M  V30 2248 H 211.258 2.83371 4.07449 0
M  V30 2249 H 206.514 4.19734 4.44559 0
M  V30 2250 H 210.688 5.15623 4.68087 0
M  V30 2251 H 208.315 5.84306 4.86303 0
M  V30 2252 N 209.89 -1.43072 0.660911 0
M  V30 2253 C 211.115 -2.06584 0.183805 0
M  V30 2254 C 211.54 -1.49257 -1.14472 0
M  V30 2255 O 210.898 -0.605528 -1.70889 0
M  V30 2256 C 210.946 -3.60418 0.114434 0
M  V30 2257 O 210.05 -4.01981 -0.921137 0
M  V30 2258 H 209.391 -0.656669 0.0983994 0
M  V30 2259 H 211.921 -1.83447 0.906006 0
M  V30 2260 H 211.931 -4.07946 -0.0663394 0
M  V30 2261 H 210.606 -4.01519 1.08422 0
M  V30 2262 H 209.183 -3.66029 -0.71253 0
M  V30 2263 N 211.368 -0.403325 -1.52352 0
M  V30 2264 C 212.615 0.174347 -2.01748 0
M  V30 2265 C 212.943 1.45636 -1.2892 0
M  V30 2266 O 212.198 1.9193 -0.382258 0
M  V30 2267 C 212.497 0.474665 -3.54234 0
M  V30 2268 C 212.163 -0.717458 -4.45155 0
M  V30 2269 C 210.825 -1.04447 -4.69728 0
M  V30 2270 C 213.177 -1.51432 -4.98716 0
M  V30 2271 C 210.505 -2.16963 -5.45109 0
M  V30 2272 C 212.857 -2.6302 -5.75329 0
M  V30 2273 C 211.521 -2.96213 -5.98175 0
M  V30 2274 H 210.791 0.0637981 -0.738248 0
M  V30 2275 H 213.438 -0.543553 -1.83624 0
M  V30 2276 H 211.743 1.27406 -3.70506 0
M  V30 2277 H 213.44 0.934496 -3.89959 0
M  V30 2278 H 210.03 -0.452596 -4.26204 0
M  V30 2279 H 214.214 -1.27491 -4.79645 0
M  V30 2280 H 209.47 -2.43034 -5.61021 0
M  V30 2281 H 213.644 -3.25158 -6.15829 0
M  V30 2282 H 211.271 -3.83516 -6.56368 0
M  V30 2283 N 212.846 1.57033 -0.133567 0
M  V30 2284 C 213.756 2.19632 0.824564 0
M  V30 2285 C 214.772 1.17666 1.28182 0
M  V30 2286 O 215.948 1.50193 1.3418 0
M  V30 2287 C 213.013 2.79499 2.05137 0
M  V30 2288 C 212.074 3.96548 1.64464 0
M  V30 2289 C 211.307 4.5355 2.81297 0
M  V30 2290 O 211.53 4.09438 3.97136 0
M  V30 2291 O 210.464 5.44018 2.57542 0
M  V30 2292 H 214.29 3.01991 0.321766 0
M  V30 2293 H 211.875 1.49112 0.0927889 0
M  V30 2294 H 213.757 3.17602 2.7696 0
M  V30 2295 H 212.432 2.00162 2.54395 0
M  V30 2296 H 211.339 3.63186 0.897048 0
M  V30 2297 H 212.672 4.77364 1.19934 0
M  V30 2298 N 214.325 -0.140222 1.56975 0
M  V30 2299 C 215.272 -1.17292 1.98774 0
M  V30 2300 C 216.242 -1.4232 0.856408 0
M  V30 2301 O 217.427 -1.54541 1.119 0
M  V30 2302 C 214.567 -2.49973 2.37923 0
M  V30 2303 C 213.68 -2.32062 3.64378 0
M  V30 2304 C 212.815 -3.57825 3.926 0
M  V30 2305 C 211.854 -3.3498 5.12303 0
M  V30 2306 N 210.991 -4.52891 5.36502 0
M  V30 2307 H 215.831 -0.809472 2.86795 0
M  V30 2308 H 213.368 -0.388237 1.41884 0
M  V30 2309 H 215.326 -3.27346 2.58652 0
M  V30 2310 H 213.956 -2.84252 1.52972 0
M  V30 2311 H 213.008 -1.45711 3.51387 0
M  V30 2312 H 214.32 -2.11145 4.51906 0
M  V30 2313 H 213.474 -4.43624 4.13863 0
M  V30 2314 H 212.213 -3.81753 3.03506 0
M  V30 2315 H 211.218 -2.4757 4.90906 0
M  V30 2316 H 212.443 -3.12444 6.02956 0
M  V30 2317 H 210.389 -4.76979 4.50363 0
M  V30 2318 H 210.306 -4.35001 6.18312 0
M  V30 2319 H 211.574 -5.39884 5.62268 0
M  V30 2320 N 215.803 -1.52179 -0.40978 0
M  V30 2321 C 216.766 -1.74853 -1.48186 0
M  V30 2322 C 217.766 -0.618417 -1.48433 0
M  V30 2323 O 218.956 -0.886286 -1.49969 0
M  V30 2324 C 216.088 -1.8303 -2.87598 0
M  V30 2325 H 217.281 -2.70559 -1.29374 0
M  V30 2326 H 214.834 -1.42586 -0.640233 0
M  V30 2327 H 215.569 -0.89236 -3.11781 0
M  V30 2328 H 215.354 -2.65187 -2.88822 0
M  V30 2329 H 216.844 -2.02316 -3.65319 0
M  V30 2330 N 217.281 0.66697 -1.42791 0
M  V30 2331 C 218.697 0.981027 -1.25889 0
M  V30 2332 C 218.897 2.00793 -0.168695 0
M  V30 2333 O 217.953 2.48321 0.45747 0
M  V30 2334 C 219.266 1.47838 -2.61848 0
M  V30 2335 C 220.814 1.59575 -2.69267 0
M  V30 2336 C 221.289 2.12704 -4.05612 0
M  V30 2337 N 222.78 2.20026 -4.07606 0
M  V30 2338 C 223.515 2.62227 -5.09926 0
M  V30 2339 N 223.011 3.03824 -6.22626 0
M  V30 2340 N 224.804 2.62045 -4.97281 0
M  V30 2341 H 216.955 -0.0127891 -2.12396 0
M  V30 2342 H 219.218 0.0568258 -0.946295 0
M  V30 2343 H 218.924 0.798299 -3.4252 0
M  V30 2344 H 218.798 2.45579 -2.86305 0
M  V30 2345 H 221.185 2.26687 -1.88936 0
M  V30 2346 H 221.266 0.60302 -2.48591 0
M  V30 2347 H 220.91 1.46198 -4.86404 0
M  V30 2348 H 220.84 3.12782 -4.23645 0
M  V30 2349 H 223.331 1.90708 -3.2625 0
M  V30 2350 H 223.644 3.34734 -6.96544 0
M  V30 2351 H 221.989 3.01662 -6.26119 0
M  V30 2352 H 225.18 2.28916 -4.08308 0
M  V30 2353 H 225.353 2.94613 -5.77154 0
M  V30 2354 N 218.759 1.29093 0.90403 0
M  V30 2355 C 220.005 1.16986 1.65656 0
M  V30 2356 C 220.338 -0.278925 1.92186 0
M  V30 2357 O 219.613 -1.2019 1.5292 0
M  V30 2358 C 219.896 1.97908 3.0084 0
M  V30 2359 C 219.749 3.50903 2.81403 0
M  V30 2360 C 221.068 1.80208 4.01513 0
M  V30 2361 H 218.187 0.426346 0.601164 0
M  V30 2362 H 220.829 1.58518 1.04747 0
M  V30 2363 H 218.979 1.62616 3.52829 0
M  V30 2364 H 220.651 3.96153 2.36348 0
M  V30 2365 H 218.894 3.76045 2.1627 0
M  V30 2366 H 219.565 4.02791 3.77443 0
M  V30 2367 H 222.041 2.11025 3.58619 0
M  V30 2368 H 220.917 2.39184 4.94047 0
M  V30 2369 H 221.178 0.756119 4.35586 0
M  V30 2370 N 220.237 -1.11381 1.11499 0
M  V30 2371 C 221.653 -1.35143 0.849031 0
M  V30 2372 C 221.853 -1.94515 -0.525938 0
M  V30 2373 O 220.909 -2.1785 -1.27662 0
M  V30 2374 C 222.222 -2.28249 1.95762 0
M  V30 2375 C 223.77 -2.41812 1.98736 0
M  V30 2376 C 224.245 -3.3824 3.088 0
M  V30 2377 N 225.736 -3.45803 3.08179 0
M  V30 2378 C 226.471 -4.20358 3.89982 0
M  V30 2379 N 225.967 -4.97884 4.8175 0
M  V30 2380 N 227.76 -4.15877 3.78157 0
M  V30 2381 H 219.911 -0.712062 2.00109 0
M  V30 2382 H 222.174 -0.376025 0.870235 0
M  V30 2383 H 221.88 -1.91817 2.94787 0
M  V30 2384 H 221.754 -3.28473 1.85433 0
M  V30 2385 H 224.141 -2.77518 1.00338 0
M  V30 2386 H 224.222 -1.41437 2.13141 0
M  V30 2387 H 223.866 -3.03261 4.07425 0
M  V30 2388 H 223.796 -4.38471 2.91635 0
M  V30 2389 H 226.287 -2.90506 2.41691 0
M  V30 2390 H 226.6 -5.52142 5.40702 0
M  V30 2391 H 224.945 -4.97043 4.85771 0
M  V30 2392 H 228.136 -3.544 3.05808 0
M  V30 2393 H 228.309 -4.73723 4.42143 0
M  V30 2394 N 221.715 -0.905404 -1.28997 0
M  V30 2395 C 222.662 -0.385892 -2.27551 0
M  V30 2396 C 223.632 0.535113 -1.57244 0
M  V30 2397 O 224.817 0.459119 -1.85194 0
M  V30 2398 C 221.957 0.375461 -3.43051 0
M  V30 2399 C 221.07 -0.577092 -4.28128 0
M  V30 2400 C 220.205 0.201879 -5.30816 0
M  V30 2401 C 219.244 -0.744829 -6.07551 0
M  V30 2402 N 218.381 9.42587e-05 -7.021 0
M  V30 2403 H 223.221 -1.23139 -2.71368 0
M  V30 2404 H 220.758 -0.618542 -1.33463 0
M  V30 2405 H 222.716 0.832992 -4.088 0
M  V30 2406 H 221.346 1.18537 -3.00248 0
M  V30 2407 H 220.398 -1.15315 -3.62501 0
M  V30 2408 H 221.71 -1.30152 -4.8152 0
M  V30 2409 H 220.864 0.720351 -6.02408 0
M  V30 2410 H 219.603 0.959413 -4.7817 0
M  V30 2411 H 218.608 -1.27475 -5.34818 0
M  V30 2412 H 219.833 -1.50178 -6.62286 0
M  V30 2413 H 217.779 0.739791 -6.51815 0
M  V30 2414 H 217.696 -0.664321 -7.53076 0
M  V30 2415 H 218.964 0.498644 -7.77903 0
M  V30 2416 N 223.193 1.4272 -0.668489 0
M  V30 2417 C 224.47 1.95248 -0.117373 0
M  V30 2418 C 224.85 1.60919 1.36632 0
M  V30 2419 O 224.198 0.902095 2.09939 0
M  V30 2420 C 224.408 3.46927 -0.379806 0
M  V30 2421 C 225.756 4.23588 -0.292923 0
M  V30 2422 O 226.78 3.5482 -0.313204 0
M  V30 2423 O 225.639 5.46017 -0.229697 0
M  V30 2424 H 222.733 0.827 0.00079152 0
M  V30 2425 H 225.279 1.52581 -0.742783 0
M  V30 2426 H 224.051 3.65096 -1.40786 0
M  V30 2427 H 223.674 3.96627 0.277923 0
M  V30 2428 N 224.671 0.411399 1.52136 0
M  V30 2429 C 225.896 -0.165538 2.06738 0
M  V30 2430 C 226.321 -1.379 1.27926 0
M  V30 2431 O 225.679 -1.78628 0.310114 0
M  V30 2432 C 225.727 -0.492124 3.57226 0
M  V30 2433 O 224.831 -1.58276 3.80818 0
M  V30 2434 H 224.172 -0.0132132 0.663869 0
M  V30 2435 H 226.702 0.585253 1.96051 0
M  V30 2436 H 226.712 -0.750104 4.01045 0
M  V30 2437 H 225.387 0.394922 4.14021 0
M  V30 2438 H 223.964 -1.31677 3.48877 0
M  V30 2439 N 226.149 -1.5696 0.141893 0
M  V30 2440 C 227.374 -2.00754 -0.520838 0
M  V30 2441 C 227.799 -1.0213 -1.57959 0
M  V30 2442 O 227.157 0.00371324 -1.813 0
M  V30 2443 C 227.205 -3.43318 -1.10294 0
M  V30 2444 O 226.309 -3.47679 -2.21795 0
M  V30 2445 H 225.65 -0.651564 -0.127908 0
M  V30 2446 H 228.18 -2.03221 0.23712 0
M  V30 2447 H 228.19 -3.82012 -1.43287 0
M  V30 2448 H 226.865 -4.14608 -0.327574 0
M  V30 2449 H 225.442 -3.20824 -1.9007 0
M  V30 2450 N 227.627 0.131896 -1.57047 0
M  V30 2451 C 228.537 1.1815 -2.02676 0
M  V30 2452 C 229.553 1.46113 -0.944824 0
M  V30 2453 O 230.729 1.57485 -1.25541 0
M  V30 2454 C 227.794 2.49139 -2.41103 0
M  V30 2455 C 226.855 2.28688 -3.63318 0
M  V30 2456 C 226.088 3.53431 -3.99903 0
M  V30 2457 O 226.311 4.60223 -3.36973 0
M  V30 2458 O 225.245 3.45198 -4.93074 0
M  V30 2459 H 229.071 0.824069 -2.92306 0
M  V30 2460 H 226.656 0.341745 -1.45439 0
M  V30 2461 H 228.538 3.26338 -2.66611 0
M  V30 2462 H 227.213 2.84382 -1.54624 0
M  V30 2463 H 226.12 1.4939 -3.42977 0
M  V30 2464 H 227.453 1.98355 -4.50462 0
M  V30 2465 N 229.106 1.52395 0.401703 0
M  V30 2466 C 230.053 1.76268 1.48991 0
M  V30 2467 C 231.023 0.605386 1.54675 0
M  V30 2468 O 232.208 0.843742 1.7113 0
M  V30 2469 C 229.348 1.92592 2.86361 0
M  V30 2470 C 228.461 3.20259 2.89928 0
M  V30 2471 C 227.596 3.26972 4.18644 0
M  V30 2472 C 226.635 4.48812 4.16214 0
M  V30 2473 N 225.772 4.52877 5.36514 0
M  V30 2474 H 230.612 2.6914 1.27935 0
M  V30 2475 H 228.149 1.33355 0.620871 0
M  V30 2476 H 230.107 2.0004 3.66115 0
M  V30 2477 H 228.737 1.03093 3.05895 0
M  V30 2478 H 227.789 3.21945 2.02621 0
M  V30 2479 H 229.101 4.10056 2.83999 0
M  V30 2480 H 228.255 3.33533 5.06794 0
M  V30 2481 H 226.994 2.35126 4.27278 0
M  V30 2482 H 225.999 4.4239 3.26453 0
M  V30 2483 H 227.224 5.41961 4.09213 0
M  V30 2484 H 225.17 3.63917 5.45802 0
M  V30 2485 H 225.087 5.36529 5.32609 0
M  V30 2486 H 226.355 4.63676 6.26597 0
M  V30 2487 N 230.584 -0.659388 1.43143 0
M  V30 2488 C 231.531 -1.77249 1.47822 0
M  V30 2489 C 232.501 -1.62818 0.328558 0
M  V30 2490 O 233.686 -1.83151 0.534838 0
M  V30 2491 C 230.826 -3.15371 1.40126 0
M  V30 2492 C 229.939 -3.4098 2.65249 0
M  V30 2493 C 229.074 -4.68915 2.49584 0
M  V30 2494 C 228.113 -4.87608 3.70006 0
M  V30 2495 N 227.25 -6.06796 3.53189 0
M  V30 2496 H 232.09 -1.72584 2.42938 0
M  V30 2497 H 229.627 -0.842297 1.20598 0
M  V30 2498 H 231.585 -3.9521 1.33659 0
M  V30 2499 H 230.215 -3.19121 0.485964 0
M  V30 2500 H 229.267 -2.55282 2.8202 0
M  V30 2501 H 230.579 -3.50681 3.54717 0
M  V30 2502 H 229.733 -5.56871 2.4079 0
M  V30 2503 H 228.472 -4.61524 1.5763 0
M  V30 2504 H 227.477 -3.9809 3.79215 0
M  V30 2505 H 228.702 -4.96834 4.62961 0
M  V30 2506 H 226.648 -6.00549 2.63965 0
M  V30 2507 H 226.565 -6.17428 4.36255 0
M  V30 2508 H 227.833 -6.9739 3.48236 0
M  V30 2509 N 232.062 -1.29571 -0.897171 0
M  V30 2510 C 232.992 -1.17473 -2.01798 0
M  V30 2511 C 233.973 -0.068323 -1.69963 0
M  V30 2512 O 235.158 -0.248239 -1.92607 0
M  V30 2513 C 232.288 -0.853099 -3.36659 0
M  V30 2514 C 231.242 -1.9161 -3.82713 0
M  V30 2515 C 230.568 -1.44773 -5.14728 0
M  V30 2516 C 231.868 -3.32535 -4.02763 0
M  V30 2517 H 233.562 -2.11237 -2.12177 0
M  V30 2518 H 231.108 -1.01699 -1.01948 0
M  V30 2519 H 233.061 -0.755165 -4.14578 0
M  V30 2520 H 231.785 0.120236 -3.26379 0
M  V30 2521 H 230.444 -2.00346 -3.07013 0
M  V30 2522 H 230.092 -0.462995 -5.00865 0
M  V30 2523 H 229.792 -2.15865 -5.46513 0
M  V30 2524 H 231.316 -1.36334 -5.95185 0
M  V30 2525 H 232.73 -3.26626 -4.71156 0
M  V30 2526 H 231.127 -4.01607 -4.45905 0
M  V30 2527 H 232.197 -3.75326 -3.07016 0
M  V30 2528 N 233.54 1.10788 -1.12088 0
M  V30 2529 C 234.789 1.82036 -0.868659 0
M  V30 2530 C 235.102 1.85929 0.607426 0
M  V30 2531 O 236.308 2.53346 0.97613 0
M  V30 2532 C 234.764 3.26951 -1.50435 0
M  V30 2533 C 234.372 3.31367 -3.01496 0
M  V30 2534 C 236.116 4.03053 -1.33225 0
M  V30 2535 C 234.023 4.7072 -3.58017 0
M  V30 2536 H 232.953 0.682108 -0.321318 0
M  V30 2537 H 235.604 1.24618 -1.34694 0
M  V30 2538 H 233.986 3.84343 -0.953735 0
M  V30 2539 H 235.16 2.83819 -3.6302 0
M  V30 2540 H 233.475 2.6875 -3.18061 0
M  V30 2541 H 236.072 5.05981 -1.72878 0
M  V30 2542 H 236.415 4.15387 -0.275529 0
M  V30 2543 H 236.948 3.52066 -1.85188 0
M  V30 2544 H 233.687 4.63585 -4.63432 0
M  V30 2545 H 233.207 5.1865 -3.01268 0
M  V30 2546 H 234.886 5.39685 -3.56859 0
M  V30 2547 N 235.018 0.912232 1.28515 0
M  V30 2548 C 236.246 0.560416 1.99166 0
M  V30 2549 C 236.661 -0.857927 1.68182 0
M  V30 2550 O 236.018 -1.56805 0.933733 0
M  V30 2551 C 236.069 0.758142 3.53461 0
M  V30 2552 O 235.79 2.12067 3.83352 0
M  V30 2553 C 237.291 0.412954 4.41372 0
M  V30 2554 H 234.511 0.213805 0.636026 0
M  V30 2555 H 237.055 1.22502 1.63749 0
M  V30 2556 H 235.21 0.140556 3.87145 0
M  V30 2557 H 235.624 2.15923 4.77993 0
M  V30 2558 H 237.098 0.60208 5.48707 0
M  V30 2559 H 237.575 -0.65073 4.34353 0
M  V30 2560 H 238.181 1.00802 4.13182 0
M  V30 2561 N 236.496 -1.42363 0.676048 0
M  V30 2562 C 237.773 -1.95183 0.127726 0
M  V30 2563 C 238.153 -1.61641 -1.35777 0
M  V30 2564 O 237.501 -0.913216 -2.09458 0
M  V30 2565 C 237.711 -3.46721 0.398199 0
M  V30 2566 C 239.059 -4.23427 0.315383 0
M  V30 2567 O 240.083 -3.54649 0.332016 0
M  V30 2568 O 238.942 -5.45888 0.25865 0
M  V30 2569 H 236.036 -0.826992 0.00359427 0
M  V30 2570 H 238.582 -1.52184 0.750864 0
M  V30 2571 H 237.354 -3.64344 1.4272 0
M  V30 2572 H 236.977 -3.96769 -0.256885 0
M  V30 2573 N 237.974 -0.419461 -1.51915 0
M  V30 2574 C 238.937 0.389116 -2.25873 0
M  V30 2575 C 239.937 0.964924 -1.28631 0
M  V30 2576 O 241.127 0.842179 -1.52489 0
M  V30 2577 C 238.259 1.54874 -3.03689 0
M  V30 2578 H 239.452 -0.258799 -2.98781 0
M  V30 2579 H 237.005 -0.172209 -1.55348 0
M  V30 2580 H 237.74 2.23323 -2.35154 0
M  V30 2581 H 237.525 1.14223 -3.75094 0
M  V30 2582 H 239.015 2.12046 -3.59759 0
M  V30 2583 N 239.452 1.56882 -0.150215 0
M  V30 2584 C 240.382 2.19935 0.784284 0
M  V30 2585 C 241.363 1.14854 1.25469 0
M  V30 2586 O 242.548 1.43209 1.31168 0
M  V30 2587 C 239.678 2.82349 2.02229 0
M  V30 2588 C 238.632 3.93285 1.68853 0
M  V30 2589 C 237.958 4.42649 2.99944 0
M  V30 2590 C 239.258 5.13904 0.932714 0
M  V30 2591 H 240.952 2.9828 0.258781 0
M  V30 2592 H 238.498 1.43473 0.123029 0
M  V30 2593 H 240.451 3.25126 2.68088 0
M  V30 2594 H 239.175 2.0134 2.57157 0
M  V30 2595 H 237.834 3.5113 1.05371 0
M  V30 2596 H 237.482 3.58458 3.52869 0
M  V30 2597 H 237.182 5.17476 2.78374 0
M  V30 2598 H 238.706 4.88099 3.66868 0
M  V30 2599 H 240.12 5.53506 1.49345 0
M  V30 2600 H 238.517 5.94515 0.81684 0
M  V30 2601 H 239.587 4.84842 -0.0749568 0
M  V30 2602 N 240.93 -0.123565 1.57115 0
M  V30 2603 C 241.878 -1.17082 2.00984 0
M  V30 2604 C 242.872 -1.43136 0.906009 0
M  V30 2605 O 244.078 -1.43152 1.09121 0
M  V30 2606 H 240.453 -0.394653 0.64012 0
M  V30 2607 H 242.424 -0.774292 2.88179 0
M  V30 2608 C 241.173 -2.49057 2.42623 0
M  V30 2609 H 240.496 -2.29846 3.27125 0
M  V30 2610 H 241.936 -3.20906 2.7712 0
M  V30 2611 C 240.395 -3.11305 1.28805 0
M  V30 2612 O 240.925 -3.97171 0.60153 0
M  V30 2613 N 239.131 -2.71111 1.04628 0
M  V30 2614 H 238.678 -2.01382 1.60634 0
M  V30 2615 H 238.636 -3.1309 0.286685 0
M  V30 2616 N 242.408 -1.52605 -0.393616 0
M  V30 2617 C 243.355 -1.77055 -1.48054 0
M  V30 2618 C 244.325 -0.61358 -1.54352 0
M  V30 2619 O 245.51 -0.852806 -1.70681 0
M  V30 2620 C 242.65 -1.94108 -2.85335 0
M  V30 2621 C 241.763 -3.21792 -2.88226 0
M  V30 2622 C 240.898 -3.29188 -4.16904 0
M  V30 2623 C 239.937 -4.51013 -4.13828 0
M  V30 2624 N 239.074 -4.55716 -5.34105 0
M  V30 2625 H 243.914 -2.69815 -1.26506 0
M  V30 2626 H 241.451 -1.33683 -0.61379 0
M  V30 2627 H 243.409 -2.01979 -3.65049 0
M  V30 2628 H 242.039 -1.04713 -3.05344 0
M  V30 2629 H 241.091 -3.23015 -2.00911 0
M  V30 2630 H 242.403 -4.11557 -2.8182 0
M  V30 2631 H 241.557 -3.36216 -5.05018 0
M  V30 2632 H 240.296 -2.37389 -4.26026 0
M  V30 2633 H 239.301 -4.44115 -3.24102 0
M  V30 2634 H 240.526 -5.44123 -4.06333 0
M  V30 2635 H 238.472 -3.66807 -5.43865 0
M  V30 2636 H 238.389 -5.39346 -5.29756 0
M  V30 2637 H 239.657 -4.66993 -6.2413 0
M  V30 2638 N 243.887 0.651787 -1.4349 0
M  V30 2639 C 244.835 1.78586 -1.49029 0
M  V30 2640 C 245.829 1.65448 -0.363767 0
M  V30 2641 O 247.035 1.71777 -0.537821 0
M  V30 2642 H 243.41 0.589236 -0.467231 0
M  V30 2643 H 245.381 1.71035 -2.44519 0
M  V30 2644 C 244.13 3.16851 -1.43181 0
M  V30 2645 H 243.453 3.27598 -2.29171 0
M  V30 2646 H 244.893 3.96156 -1.51118 0
M  V30 2647 C 243.352 3.36568 -0.149616 0
M  V30 2648 O 243.882 3.93885 0.788509 0
M  V30 2649 N 242.088 2.90539 -0.0593484 0
M  V30 2650 H 241.635 2.4408 -0.823575 0
M  V30 2651 H 241.593 3.04108 0.797853 0
M  V30 2652 N 245.365 1.30045 0.890287 0
M  V30 2653 C 246.297 1.11786 2.00091 0
M  V30 2654 C 247.31 0.0626307 1.62679 0
M  V30 2655 O 248.499 0.308112 1.75821 0
M  V30 2656 C 245.599 0.681527 3.31977 0
M  V30 2657 C 244.772 1.81735 3.97858 0
M  V30 2658 C 243.831 1.37045 5.08041 0
M  V30 2659 O 242.857 2.07677 5.29961 0
M  V30 2660 N 244.059 0.246525 5.79976 0
M  V30 2661 H 246.824 2.07441 2.16306 0
M  V30 2662 H 244.385 1.2211 1.06305 0
M  V30 2663 H 246.377 0.365675 4.03045 0
M  V30 2664 H 244.947 -0.182828 3.12065 0
M  V30 2665 H 244.167 2.30159 3.20032 0
M  V30 2666 H 245.455 2.57865 4.38615 0
M  V30 2667 H 244.853 -0.34215 5.64664 0
M  V30 2668 H 243.41 -0.00990438 6.51799 0
M  V30 2669 N 246.843 -1.10192 1.12674 0
M  V30 2670 C 248.09 -1.82205 0.883606 0
M  V30 2671 C 248.418 -1.8532 -0.590492 0
M  V30 2672 O 247.673 -1.31137 -1.45264 0
M  V30 2673 C 247.972 -3.28552 1.4067 0
M  V30 2674 C 247.638 -3.45582 2.89627 0
M  V30 2675 C 246.3 -3.49937 3.30299 0
M  V30 2676 C 248.652 -3.50768 3.85501 0
M  V30 2677 C 245.98 -3.57049 4.65546 0
M  V30 2678 C 248.332 -3.59414 5.20581 0
M  V30 2679 C 246.996 -3.62034 5.60792 0
M  V30 2680 H 246.266 -0.666735 0.323334 0
M  V30 2681 H 248.913 -1.29868 1.40736 0
M  V30 2682 H 247.218 -3.83473 0.80347 0
M  V30 2683 H 248.915 -3.82788 1.19475 0
M  V30 2684 H 245.505 -3.42871 2.57172 0
M  V30 2685 H 249.689 -3.46651 3.55171 0
M  V30 2686 H 244.945 -3.57361 4.96088 0
M  V30 2687 H 249.119 -3.62371 5.94693 0
M  V30 2688 H 246.746 -3.67298 6.6558 0
M  V30 2689 N 248.321 -0.919034 -1.28029 0
M  V30 2690 C 249.251 -0.428581 -2.29533 0
M  V30 2691 C 250.232 0.50659 -1.62381 0
M  V30 2692 O 251.417 0.413195 -1.89753 0
M  V30 2693 C 248.547 0.327388 -3.45753 0
M  V30 2694 C 247.501 -0.519137 -4.2484 0
M  V30 2695 C 246.827 0.365486 -5.33449 0
M  V30 2696 C 248.127 -1.77914 -4.91064 0
M  V30 2697 H 249.821 -1.27687 -2.70807 0
M  V30 2698 H 247.367 -0.615428 -1.30186 0
M  V30 2699 H 249.32 0.681378 -4.15855 0
M  V30 2700 H 248.044 1.20963 -3.03374 0
M  V30 2701 H 246.703 -0.855717 -3.56473 0
M  V30 2702 H 246.351 1.24642 -4.87312 0
M  V30 2703 H 246.051 -0.197356 -5.87268 0
M  V30 2704 H 247.575 0.715241 -6.06396 0
M  V30 2705 H 248.989 -1.49374 -5.53498 0
M  V30 2706 H 247.386 -2.2848 -5.54903 0
M  V30 2707 H 248.456 -2.50382 -4.15255 0
M  V30 2708 N 249.799 1.42003 -0.683588 0
M  V30 2709 C 250.746 2.30798 -0.0107309 0
M  V30 2710 C 251.716 1.4645 0.783688 0
M  V30 2711 O 252.901 1.75263 0.754156 0
M  V30 2712 C 250.041 3.3238 0.928306 0
M  V30 2713 C 249.154 4.31814 0.126776 0
M  V30 2714 C 248.289 5.20468 1.06236 0
M  V30 2715 C 247.328 6.11577 0.253035 0
M  V30 2716 N 246.465 6.92754 1.14179 0
M  V30 2717 H 251.305 2.8778 -0.773727 0
M  V30 2718 H 248.842 1.41745 -0.393283 0
M  V30 2719 H 250.8 3.89813 1.48666 0
M  V30 2720 H 249.43 2.76976 1.65783 0
M  V30 2721 H 248.482 3.76427 -0.54833 0
M  V30 2722 H 249.794 4.96276 -0.501192 0
M  V30 2723 H 248.948 5.82677 1.69035 0
M  V30 2724 H 247.687 4.56204 1.7242 0
M  V30 2725 H 246.692 5.48428 -0.388108 0
M  V30 2726 H 247.917 6.77892 -0.404839 0
M  V30 2727 H 245.863 6.3111 1.78987 0
M  V30 2728 H 245.78 7.53855 0.569111 0
M  V30 2729 H 247.048 7.59441 1.75697 0
M  V30 2730 N 251.277 0.427512 1.51691 0
M  V30 2731 C 252.693 0.0792977 1.59403 0
M  V30 2732 C 252.893 -1.41035 1.43914 0
M  V30 2733 O 251.949 -2.17922 1.27539 0
M  V30 2734 C 253.262 0.590636 2.94842 0
M  V30 2735 C 254.81 0.550215 3.08126 0
M  V30 2736 C 255.285 1.03836 4.46074 0
M  V30 2737 N 256.776 0.995943 4.52366 0
M  V30 2738 C 257.511 1.34463 5.57411 0
M  V30 2739 N 257.007 1.76569 6.69922 0
M  V30 2740 N 258.8 1.26343 5.47717 0
M  V30 2741 H 250.951 1.39687 1.60004 0
M  V30 2742 H 253.214 0.575003 0.753708 0
M  V30 2743 H 252.92 1.63251 3.11516 0
M  V30 2744 H 252.794 0.0102061 3.77199 0
M  V30 2745 H 255.181 -0.482654 2.91126 0
M  V30 2746 H 255.262 1.16693 2.27632 0
M  V30 2747 H 254.906 2.06965 4.63819 0
M  V30 2748 H 254.836 0.398286 5.25092 0
M  V30 2749 H 257.327 0.68661 3.7161 0
M  V30 2750 H 257.64 2.01438 7.46085 0
M  V30 2751 H 255.985 1.80488 6.71155 0
M  V30 2752 H 259.176 0.933209 4.58703 0
M  V30 2753 H 259.349 1.53846 6.29472 0
M  V30 2754 N 252.755 -1.56801 0.158532 0
M  V30 2755 C 253.685 -2.20347 -0.772609 0
M  V30 2756 C 254.666 -1.15518 -1.24859 0
M  V30 2757 O 255.851 -1.43902 -1.30406 0
M  V30 2758 C 252.981 -2.83417 -2.00729 0
M  V30 2759 C 251.935 -3.94174 -1.66765 0
M  V30 2760 C 251.261 -4.44233 -2.97592 0
M  V30 2761 C 252.561 -5.14392 -0.905447 0
M  V30 2762 H 254.255 -2.98413 -0.242959 0
M  V30 2763 H 251.801 -1.43537 -0.115419 0
M  V30 2764 H 253.754 -3.26543 -2.6636 0
M  V30 2765 H 252.478 -2.02701 -2.56086 0
M  V30 2766 H 251.137 -3.51684 -1.03508 0
M  V30 2767 H 250.785 -3.60325 -3.50963 0
M  V30 2768 H 250.485 -5.18945 -2.75626 0
M  V30 2769 H 252.009 -4.90037 -3.64274 0
M  V30 2770 H 253.423 -5.5429 -1.46408 0
M  V30 2771 H 251.82 -5.9494 -0.7853 0
M  V30 2772 H 252.89 -4.84795 0.100668 0
M  V30 2773 N 254.233 0.115231 -1.57178 0
M  V30 2774 C 255.51 0.852873 -1.76027 0
M  V30 2775 C 255.89 1.97892 -0.73498 0
M  V30 2776 O 255.238 2.27232 0.24036 0
M  V30 2777 C 255.448 1.36608 -3.21153 0
M  V30 2778 C 256.796 1.81692 -3.83762 0
M  V30 2779 O 257.82 1.46278 -3.24779 0
M  V30 2780 O 256.679 2.47104 -4.87444 0
M  V30 2781 H 253.773 0.405296 -0.720877 0
M  V30 2782 H 256.319 0.0986785 -1.69413 0
M  V30 2783 H 255.091 0.558357 -3.87296 0
M  V30 2784 H 254.714 2.18287 -3.3232 0
M  V30 2785 N 255.711 1.52812 0.385517 0
M  V30 2786 C 257.122 1.5993 0.963293 0
M  V30 2787 C 257.473 0.454302 1.90868 0
M  V30 2788 O 256.598 -0.422132 2.12243 0
M  V30 2789 C 257.193 2.89871 1.75387 0
M  V30 2790 C 255.752 2.99389 2.28129 0
M  V30 2791 C 254.899 2.55071 1.08783 0
M  V30 2792 H 257.85 1.5784 0.164948 0
M  V30 2793 H 257.871 2.76553 2.61341 0
M  V30 2794 H 257.383 3.73186 1.06554 0
M  V30 2795 H 255.484 2.20619 3.00263 0
M  V30 2796 H 255.597 4.04096 2.57377 0
M  V30 2797 H 253.961 2.09473 1.4489 0
M  V30 2798 H 254.744 3.40785 0.414807 0
M  V30 2799 N 257.189 -0.644168 1.43834 0
M  V30 2800 C 258.121 -1.76955 1.45669 0
M  V30 2801 C 259.134 -1.58956 0.351666 0
M  V30 2802 O 260.323 -1.6751 0.616644 0
M  V30 2803 C 257.423 -3.14507 1.26248 0
M  V30 2804 C 256.596 -3.59083 2.49757 0
M  V30 2805 C 255.655 -4.75467 2.25427 0
M  V30 2806 O 254.681 -4.84444 2.98836 0
M  V30 2807 N 255.883 -5.66289 1.27661 0
M  V30 2808 H 258.648 -1.75856 2.42682 0
M  V30 2809 H 256.209 -0.828312 1.39106 0
M  V30 2810 H 258.201 -3.90067 1.0784 0
M  V30 2811 H 256.771 -3.10325 0.376478 0
M  V30 2812 H 255.991 -2.7387 2.8353 0
M  V30 2813 H 257.279 -3.85613 3.31934 0
M  V30 2814 H 256.677 -5.61718 0.670064 0
M  V30 2815 H 255.234 -6.41533 1.15234 0
M  V30 2816 N 258.668 -1.30515 -0.883378 0
M  V30 2817 C 259.6 -1.12846 -1.99496 0
M  V30 2818 C 260.613 -0.0712571 -1.62644 0
M  V30 2819 O 261.802 -0.317432 -1.75655 0
M  V30 2820 C 258.902 -0.699123 -3.3161 0
M  V30 2821 C 258.075 -1.83842 -3.96889 0
M  V30 2822 C 257.134 -1.39737 -5.07307 0
M  V30 2823 O 256.16 -2.10485 -5.28852 0
M  V30 2824 N 257.362 -0.277279 -5.79837 0
M  V30 2825 H 260.127 -2.08585 -2.15203 0
M  V30 2826 H 257.688 -1.22672 -1.05656 0
M  V30 2827 H 259.68 -0.387044 -4.02845 0
M  V30 2828 H 258.25 0.166276 -3.12157 0
M  V30 2829 H 257.47 -2.31853 -3.18807 0
M  V30 2830 H 258.758 -2.60187 -4.37241 0
M  V30 2831 H 258.156 0.3122 -5.64838 0
M  V30 2832 H 256.713 -0.0246623 -6.51795 0
M  V30 2833 N 260.146 1.09593 -1.13257 0
M  V30 2834 C 261.395 1.81105 -0.887917 0
M  V30 2835 C 261.708 1.86563 0.587672 0
M  V30 2836 O 262.914 2.54367 0.949204 0
M  V30 2837 C 261.37 3.25338 -1.53895 0
M  V30 2838 C 260.978 3.28151 -3.04994 0
M  V30 2839 C 262.722 4.01617 -1.37492 0
M  V30 2840 C 260.629 4.66897 -3.6299 0
M  V30 2841 H 259.559 0.678661 -0.328534 0
M  V30 2842 H 262.21 1.23183 -1.36008 0
M  V30 2843 H 260.592 3.8331 -0.994446 0
M  V30 2844 H 261.766 2.79953 -3.66009 0
M  V30 2845 H 260.081 2.65361 -3.20893 0
M  V30 2846 H 262.678 5.04119 -1.78235 0
M  V30 2847 H 263.021 4.15072 -0.31957 0
M  V30 2848 H 263.554 3.50082 -1.88912 0
M  V30 2849 H 260.293 4.58643 -4.68323 0
M  V30 2850 H 259.813 5.15426 -3.06752 0
M  V30 2851 H 261.492 5.3587 -3.62563 0
M  V30 2852 N 261.624 0.925811 1.2754 0
M  V30 2853 C 262.571 0.422045 2.26908 0
M  V30 2854 C 263.541 -0.510029 1.58076 0
M  V30 2855 O 264.726 -0.429599 1.85901 0
M  V30 2856 C 261.866 -0.320837 3.43605 0
M  V30 2857 C 260.979 0.64513 4.27156 0
M  V30 2858 C 260.114 -0.117405 5.3107 0
M  V30 2859 C 259.153 0.841391 6.0629 0
M  V30 2860 N 258.29 0.111604 7.02011 0
M  V30 2861 H 263.13 1.27441 2.69375 0
M  V30 2862 H 260.667 0.639697 1.32462 0
M  V30 2863 H 262.625 -0.76785 4.10073 0
M  V30 2864 H 261.255 -1.13745 3.02096 0
M  V30 2865 H 260.307 1.21067 3.6062 0
M  V30 2866 H 261.619 1.37797 4.79389 0
M  V30 2867 H 260.773 -0.624422 6.03478 0
M  V30 2868 H 259.512 -0.883219 4.79636 0
M  V30 2869 H 258.517 1.35967 5.32722 0
M  V30 2870 H 259.742 1.60696 6.59813 0
M  V30 2871 H 257.688 -0.635999 6.5291 0
M  V30 2872 H 257.605 0.784044 7.51923 0
M  V30 2873 H 258.873 -0.374823 7.78598 0
M  V30 2874 N 263.102 -1.41638 0.69111 0
M  V30 2875 C 264.379 -1.95036 0.148421 0
M  V30 2876 C 264.759 -1.63072 -1.34055 0
M  V30 2877 O 264.107 -0.93538 -2.08478 0
M  V30 2878 C 264.317 -3.46279 0.434951 0
M  V30 2879 C 265.665 -4.23069 0.360275 0
M  V30 2880 O 266.689 -3.54277 0.369613 0
M  V30 2881 O 265.548 -5.45583 0.316534 0
M  V30 2882 H 262.642 -0.826908 0.0123654 0
M  V30 2883 H 265.188 -1.5138 0.766963 0
M  V30 2884 H 263.96 -3.6281 1.46576 0
M  V30 2885 H 263.583 -3.97019 -0.214787 0
M  V30 2886 N 264.58 -0.43555 -1.51462 0
M  V30 2887 C 265.513 0.421989 -2.24264 0
M  V30 2888 C 266.491 1.02619 -1.26127 0
M  V30 2889 O 267.675 1.069 -1.55257 0
M  V30 2890 C 264.802 1.588 -2.99166 0
M  V30 2891 C 263.848 1.10465 -4.11946 0
M  V30 2892 S 264.681 0.048146 -5.35478 0
M  V30 2893 C 265.837 1.21887 -6.13917 0
M  V30 2894 H 266.07 -0.196102 -2.96653 0
M  V30 2895 H 263.603 -0.220054 -1.52824 0
M  V30 2896 H 265.561 2.25647 -3.42919 0
M  V30 2897 H 264.222 2.1775 -2.26371 0
M  V30 2898 H 263.415 1.97654 -4.63626 0
M  V30 2899 H 263.017 0.51445 -3.70445 0
M  V30 2900 H 265.309 2.13756 -6.42895 0
M  V30 2901 H 266.252 0.742076 -7.04201 0
M  V30 2902 H 266.66 1.45663 -5.45383 0
M  V30 2903 N 266.058 1.56714 -0.166846 0
M  V30 2904 C 267.304 1.97039 0.479962 0
M  V30 2905 C 267.637 1.05264 1.63197 0
M  V30 2906 O 266.912 0.0988833 1.94248 0
M  V30 2907 C 267.195 3.46867 0.967212 0
M  V30 2908 C 267.048 4.49421 -0.18466 0
M  V30 2909 C 268.367 3.9968 1.84238 0
M  V30 2910 H 265.486 0.71641 0.172992 0
M  V30 2911 H 268.128 1.8832 -0.252079 0
M  V30 2912 H 266.278 3.54428 1.59101 0
M  V30 2913 H 267.95 4.53924 -0.821621 0
M  V30 2914 H 266.193 4.25573 -0.840837 0
M  V30 2915 H 266.864 5.51644 0.198317 0
M  V30 2916 H 269.34 3.94723 1.31655 0
M  V30 2917 H 268.216 5.04941 2.15234 0
M  V30 2918 H 268.477 3.43226 2.78654 0
M  V30 2919 N 267.536 -0.106894 1.57237 0
M  V30 2920 C 268.446 -1.14911 2.0453 0
M  V30 2921 C 269.462 -1.44592 0.96795 0
M  V30 2922 O 270.638 -1.55468 1.2803 0
M  V30 2923 C 267.703 -2.45272 2.45036 0
M  V30 2924 C 266.764 -2.22879 3.66911 0
M  V30 2925 C 265.997 -3.47024 4.05475 0
M  V30 2926 O 266.22 -4.54804 3.44252 0
M  V30 2927 O 265.154 -3.3731 4.98504 0
M  V30 2928 H 268.98 -0.777461 2.9358 0
M  V30 2929 H 266.565 -0.318563 1.45964 0
M  V30 2930 H 268.447 -3.22055 2.71769 0
M  V30 2931 H 267.122 -2.81886 1.59129 0
M  V30 2932 H 266.029 -1.43915 3.45311 0
M  V30 2933 H 267.362 -1.91163 4.53561 0
M  V30 2934 N 269.014 -1.53014 -0.377408 0
M  V30 2935 C 270.254 -1.70318 -1.1301 0
M  V30 2936 C 270.618 -0.439538 -1.86901 0
M  V30 2937 O 271.819 -0.489095 -2.64313 0
M  V30 2938 C 270.09 -2.91125 -2.07319 0
M  V30 2939 S 271.649 -3.29075 -2.90268 0
M  V30 2940 H 268.467 -0.599426 -0.382374 0
M  V30 2941 H 271.069 -1.91089 -0.412933 0
M  V30 2942 H 269.773 -3.81303 -1.51777 0
M  V30 2943 H 269.304 -2.7272 -2.83526 0
M  V30 2944 H 271.319 -2.80165 -4.09539 0
M  V30 2945 N 270.492 0.636531 -1.44174 0
M  V30 2946 C 271.425 1.76139 -1.45087 0
M  V30 2947 C 272.403 1.59611 -0.310326 0
M  V30 2948 O 273.587 1.81568 -0.506477 0
M  V30 2949 C 270.714 3.13648 -1.27839 0
M  V30 2950 C 269.76 3.48838 -2.45386 0
M  V30 2951 S 270.593 3.46927 -4.07924 0
M  V30 2952 C 271.749 4.87064 -3.9309 0
M  V30 2953 H 271.982 1.75096 -2.40268 0
M  V30 2954 H 269.515 0.810666 -1.31406 0
M  V30 2955 H 271.473 3.93002 -1.18575 0
M  V30 2956 H 270.134 3.12235 -0.341787 0
M  V30 2957 H 269.327 4.48886 -2.29167 0
M  V30 2958 H 268.929 2.76935 -2.51362 0
M  V30 2959 H 271.221 5.76153 -3.56446 0
M  V30 2960 H 272.164 5.08337 -4.92949 0
M  V30 2961 H 272.572 4.61384 -3.25246 0
M  V30 2962 N 271.97 1.30982 0.876444 0
M  V30 2963 C 273.2 1.23063 1.65949 0
M  V30 2964 C 273.608 -0.207537 1.88058 0
M  V30 2965 O 272.951 -1.14781 1.43426 0
M  V30 2966 C 273.013 1.89768 3.05333 0
M  V30 2967 C 272.677 3.39106 3.0636 0
M  V30 2968 C 273.674 4.3496 2.84791 0
M  V30 2969 C 271.359 3.80693 3.27686 0
M  V30 2970 C 273.353 5.70375 2.84519 0
M  V30 2971 C 271.04 5.16223 3.27043 0
M  V30 2972 C 272.038 6.10875 3.05485 0
M  V30 2973 O 271.726 7.43928 3.04674 0
M  V30 2974 H 271.458 0.426685 0.524324 0
M  V30 2975 H 274.012 1.7329 1.10271 0
M  V30 2976 H 272.242 1.34082 3.6271 0
M  V30 2977 H 273.931 1.75853 3.65829 0
M  V30 2978 H 274.697 4.0416 2.68103 0
M  V30 2979 H 270.576 3.07457 3.43499 0
M  V30 2980 H 274.12 6.44228 2.67611 0
M  V30 2981 H 270.017 5.4666 3.43269 0
M  V30 2982 H 270.785 7.53022 3.2078 0
M  V30 2983 N 273.449 -1.08991 1.13837 0
M  V30 2984 C 274.697 -1.80899 0.901098 0
M  V30 2985 C 275.018 -1.86356 -0.574134 0
M  V30 2986 O 274.288 -1.35235 -1.41733 0
M  V30 2987 H 272.868 -0.669966 0.330386 0
M  V30 2988 H 275.53 -1.318 1.43578 0
M  V30 2989 H 274.626 -2.83929 1.29578 0
M  V30 2990 N 274.927 -0.932562 -1.27047 0
M  V30 2991 C 276.343 -0.633544 -1.46487 0
M  V30 2992 C 276.543 0.815746 -1.84249 0
M  V30 2993 O 275.599 1.59319 -1.95892 0
M  V30 2994 C 276.912 -1.58758 -2.55375 0
M  V30 2995 C 278.46 -1.59634 -2.69232 0
M  V30 2996 C 278.935 -2.53747 -3.81283 0
M  V30 2997 N 280.426 -2.51982 -3.88664 0
M  V30 2998 C 281.161 -3.21491 -4.74796 0
M  V30 2999 N 280.657 -4.00395 -5.65381 0
M  V30 3000 N 282.45 -3.10485 -4.68568 0
M  V30 3001 H 274.601 -1.86946 -1.00821 0
M  V30 3002 H 276.864 -0.802897 -0.504044 0
M  V30 3003 H 276.57 -2.62172 -2.34432 0
M  V30 3004 H 276.444 -1.33301 -3.52861 0
M  V30 3005 H 278.831 -0.569488 -2.89553 0
M  V30 3006 H 278.912 -1.89142 -1.72218 0
M  V30 3007 H 278.556 -3.56545 -3.61715 0
M  V30 3008 H 278.486 -2.21532 -4.77735 0
M  V30 3009 H 280.977 -1.94681 -3.23895 0
M  V30 3010 H 281.29 -4.50406 -6.27976 0
M  V30 3011 H 279.635 -4.04498 -5.65161 0
M  V30 3012 H 282.826 -2.48331 -3.96799 0
M  V30 3013 H 282.999 -3.64925 -5.35475 0
M  V30 3014 N 276.405 1.4127 -0.698611 0
M  V30 3015 C 277.353 2.32588 -0.023855 0
M  V30 3016 C 278.347 1.51128 0.765292 0
M  V30 3017 O 279.553 1.67043 0.670571 0
M  V30 3018 H 275.928 0.751918 0.0110871 0
M  V30 3019 H 277.899 2.87167 -0.811031 0
M  V30 3020 C 276.648 3.35947 0.896369 0
M  V30 3021 H 275.971 3.98684 0.298548 0
M  V30 3022 H 277.411 4.02376 1.33676 0
M  V30 3023 C 275.87 2.70076 2.01396 0
M  V30 3024 O 276.4 2.55093 3.10307 0
M  V30 3025 N 274.606 2.28724 1.79259 0
M  V30 3026 H 274.153 2.4111 0.906841 0
M  V30 3027 H 274.111 1.84986 2.54219 0
M  V30 3028 N 277.883 0.443576 1.51229 0
M  V30 3029 C 279.113 -0.119117 2.06256 0
M  V30 3030 C 279.521 -1.36471 1.31043 0
M  V30 3031 O 278.864 -1.80034 0.365151 0
M  V30 3032 C 278.926 -0.500546 3.55998 0
M  V30 3033 C 278.59 0.639125 4.52509 0
M  V30 3034 C 279.587 1.51311 4.97394 0
M  V30 3035 C 277.272 0.821632 4.95535 0
M  V30 3036 C 279.266 2.55425 5.83984 0
M  V30 3037 C 276.953 1.86603 5.81913 0
M  V30 3038 C 277.951 2.73072 6.26036 0
M  V30 3039 O 277.639 3.75718 7.10698 0
M  V30 3040 H 277.371 -0.00857665 0.675946 0
M  V30 3041 H 279.925 0.623288 1.95715 0
M  V30 3042 H 278.155 -1.29575 3.64345 0
M  V30 3043 H 279.844 -0.995116 3.93513 0
M  V30 3044 H 280.61 1.38367 4.64844 0
M  V30 3045 H 276.489 0.158149 4.60729 0
M  V30 3046 H 280.033 3.22949 6.18344 0
M  V30 3047 H 275.93 1.99564 6.13876 0
M  V30 3048 H 276.698 3.72374 7.2889 0
M  V30 3049 N 279.361 -1.56624 0.175154 0
M  V30 3050 C 280.293 -2.15333 -0.785128 0
M  V30 3051 C 281.306 -1.1099 -1.19101 0
M  V30 3052 O 282.495 -1.38162 -1.13019 0
M  V30 3053 C 279.595 -2.68427 -2.06882 0
M  V30 3054 C 278.768 -3.97466 -1.8259 0
M  V30 3055 C 277.827 -4.35585 -2.95215 0
M  V30 3056 O 276.853 -5.03389 -2.65684 0
M  V30 3057 N 278.055 -3.97457 -4.23094 0
M  V30 3058 H 280.82 -2.98359 -0.283187 0
M  V30 3059 H 278.381 -1.61898 -0.00749817 0
M  V30 3060 H 280.373 -2.90924 -2.81328 0
M  V30 3061 H 278.943 -1.89968 -2.48256 0
M  V30 3062 H 278.163 -3.83307 -0.920287 0
M  V30 3063 H 279.451 -4.81736 -1.63733 0
M  V30 3064 H 278.849 -3.42878 -4.49945 0
M  V30 3065 H 277.406 -4.24947 -4.9423 0
M  V30 3066 N 280.839 0.0985539 -1.57292 0
M  V30 3067 C 281.771 1.14595 -1.98496 0
M  V30 3068 C 282.784 1.36512 -0.887031 0
M  V30 3069 O 283.973 1.35225 -1.16518 0
M  V30 3070 C 281.073 2.50216 -2.28572 0
M  V30 3071 C 280.246 2.48624 -3.59868 0
M  V30 3072 C 279.305 3.66146 -3.7792 0
M  V30 3073 O 278.331 3.48795 -4.49812 0
M  V30 3074 N 279.533 4.85496 -3.18235 0
M  V30 3075 H 282.298 0.795277 -2.88956 0
M  V30 3076 H 279.859 0.287579 -1.59325 0
M  V30 3077 H 281.851 3.27432 -2.37845 0
M  V30 3078 H 280.421 2.77387 -1.44136 0
M  V30 3079 H 279.641 1.56978 -3.61596 0
M  V30 3080 H 280.929 2.44635 -4.46129 0
M  V30 3081 H 280.327 5.02497 -2.59833 0
M  V30 3082 H 278.884 5.60317 -3.32999 0
M  V30 3083 N 282.317 1.53212 0.369288 0
M  V30 3084 C 283.565 1.68881 1.11012 0
M  V30 3085 C 283.886 0.441285 1.89941 0
M  V30 3086 O 283.156 -0.544623 1.88177 0
M  V30 3087 H 281.736 0.622569 0.412816 0
M  V30 3088 H 284.398 1.90391 0.416802 0
M  V30 3089 H 283.494 2.54822 1.80201 0
M  V30 3090 N 283.795 -0.628877 1.44509 0
M  V30 3091 C 285.02 -1.42048 1.5112 0
M  V30 3092 C 285.445 -1.87594 0.137818 0
M  V30 3093 O 284.803 -1.58873 -0.873437 0
M  V30 3094 C 284.851 -2.61541 2.48251 0
M  V30 3095 O 283.955 -3.61453 1.98559 0
M  V30 3096 H 283.296 -0.424942 0.510216 0
M  V30 3097 H 285.826 -0.767374 1.89664 0
M  V30 3098 H 285.836 -3.09057 2.66361 0
M  V30 3099 H 284.511 -2.27736 3.48007 0
M  V30 3100 H 283.088 -3.20731 1.90227 0
M  V30 3101 N 285.273 -1.31445 -0.869486 0
M  V30 3102 C 286.503 -1.23942 -1.65294 0
M  V30 3103 C 286.911 0.197561 -1.88166 0
M  V30 3104 O 286.254 1.14019 -1.44033 0
M  V30 3105 C 286.316 -1.91385 -3.04322 0
M  V30 3106 C 285.98 -3.40726 -3.04557 0
M  V30 3107 C 286.977 -4.36464 -2.82481 0
M  V30 3108 C 284.662 -3.82425 -3.25663 0
M  V30 3109 C 286.656 -5.71876 -2.8149 0
M  V30 3110 C 284.343 -5.1795 -3.243 0
M  V30 3111 C 285.341 -6.12486 -3.02241 0
M  V30 3112 O 285.029 -7.45534 -3.00724 0
M  V30 3113 H 284.761 -0.429459 -0.522054 0
M  V30 3114 H 287.315 -1.73873 -1.0935 0
M  V30 3115 H 285.545 -1.36004 -3.61994 0
M  V30 3116 H 287.234 -1.77791 -3.64891 0
M  V30 3117 H 288 -4.05576 -2.65956 0
M  V30 3118 H 283.879 -3.09274 -3.41863 0
M  V30 3119 H 287.423 -6.45638 -2.64191 0
M  V30 3120 H 283.32 -5.48473 -3.40365 0
M  V30 3121 H 284.088 -7.54713 -3.16782 0
M  V30 3122 N 286.751 1.08385 -1.14413 0
M  V30 3123 C 288 1.80153 -0.907076 0
M  V30 3124 C 288.313 1.87176 0.567851 0
M  V30 3125 O 289.519 2.55359 0.922172 0
M  V30 3126 C 287.975 3.23687 -1.57336 0
M  V30 3127 C 287.583 3.24897 -3.08457 0
M  V30 3128 C 289.327 4.00136 -1.41744 0
M  V30 3129 C 287.234 4.6302 -3.67921 0
M  V30 3130 H 286.164 0.675139 -0.335714 0
M  V30 3131 H 288.815 1.21733 -1.37307 0
M  V30 3132 H 287.197 3.82234 -1.03505 0
M  V30 3133 H 288.371 2.76055 -3.68958 0
M  V30 3134 H 286.686 2.61943 -3.2369 0
M  V30 3135 H 289.283 5.02201 -1.83572 0
M  V30 3136 H 289.626 4.14709 -0.363576 0
M  V30 3137 H 290.159 3.48058 -1.92614 0
M  V30 3138 H 286.898 4.5365 -4.73161 0
M  V30 3139 H 286.418 5.12143 -3.12201 0
M  V30 3140 H 288.097 5.31994 -3.68227 0
M  V30 3141 N 288.23 0.939286 1.26551 0
M  V30 3142 C 289.479 0.581601 1.93133 0
M  V30 3143 C 289.792 -0.883224 1.74524 0
M  V30 3144 O 290.998 -1.3502 2.35546 0
M  V30 3145 C 289.454 0.989425 3.46032 0
M  V30 3146 C 289.062 2.47573 3.73379 0
M  V30 3147 C 290.806 0.703544 4.18629 0
M  V30 3148 C 288.713 2.82235 5.19709 0
M  V30 3149 H 287.643 0.213803 0.723052 0
M  V30 3150 H 290.294 1.14167 1.4366 0
M  V30 3151 H 288.676 0.357902 3.94379 0
M  V30 3152 H 289.85 3.15614 3.35744 0
M  V30 3153 H 288.165 2.73471 3.1401 0
M  V30 3154 H 290.762 0.938869 5.26393 0
M  V30 3155 H 291.105 -0.359639 4.14744 0
M  V30 3156 H 291.638 1.2947 3.76141 0
M  V30 3157 H 288.377 3.87509 5.28694 0
M  V30 3158 H 287.897 2.18854 5.58447 0
M  V30 3159 H 289.576 2.70599 5.87695 0
M  V30 3160 N 289.708 -1.40897 0.706093 0
M  V30 3161 C 290.655 -2.30751 0.0474474 0
M  V30 3162 C 291.625 -1.47678 -0.76029 0
M  V30 3163 O 292.81 -1.76441 -0.726177 0
M  V30 3164 C 289.95 -3.33815 -0.875309 0
M  V30 3165 C 289.063 -4.31961 -0.0580623 0
M  V30 3166 C 288.198 -5.22093 -0.979425 0
M  V30 3167 C 287.237 -6.11902 -0.155706 0
M  V30 3168 N 286.374 -6.94482 -1.03144 0
M  V30 3169 H 291.214 -2.86513 0.819413 0
M  V30 3170 H 288.751 -1.41102 0.415783 0
M  V30 3171 H 290.709 -3.92129 -1.42446 0
M  V30 3172 H 289.339 -2.79579 -1.61356 0
M  V30 3173 H 288.391 -3.75507 0.608147 0
M  V30 3174 H 289.703 -4.95415 0.580082 0
M  V30 3175 H 288.857 -5.85292 -1.59744 0
M  V30 3176 H 287.596 -4.5889 -1.65141 0
M  V30 3177 H 286.601 -5.47742 0.475309 0
M  V30 3178 H 287.826 -6.77162 0.512635 0
M  V30 3179 H 285.772 -6.33877 -1.68924 0
M  V30 3180 H 285.689 -7.54665 -0.449108 0
M  V30 3181 H 286.957 -7.6214 -1.63593 0
M  V30 3182 N 291.186 -0.45159 -1.50991 0
M  V30 3183 C 292.118 0.388634 -2.25881 0
M  V30 3184 C 293.131 0.974041 -1.30446 0
M  V30 3185 O 294.32 0.865758 -1.56099 0
M  V30 3186 C 291.42 1.5571 -3.01011 0
M  V30 3187 C 290.593 1.08801 -4.23652 0
M  V30 3188 C 289.652 2.12825 -4.8124 0
M  V30 3189 O 288.678 1.71678 -5.42693 0
M  V30 3190 N 289.88 3.45453 -4.66522 0
M  V30 3191 H 292.645 -0.25329 -2.98628 0
M  V30 3192 H 290.206 -0.281268 -1.59438 0
M  V30 3193 H 292.198 2.24952 -3.3642 0
M  V30 3194 H 290.768 2.10409 -2.31186 0
M  V30 3195 H 289.988 0.22215 -3.93574 0
M  V30 3196 H 291.276 0.752213 -5.03209 0
M  V30 3197 H 290.674 3.81605 -4.17605 0
M  V30 3198 H 289.231 4.10549 -5.06254 0
M  V30 3199 N 292.664 1.56529 -0.183458 0
M  V30 3200 C 293.912 1.96855 0.457452 0
M  V30 3201 C 294.233 1.07104 1.62953 0
M  V30 3202 O 293.503 0.139887 1.954 0
M  V30 3203 H 292.083 0.72693 0.171992 0
M  V30 3204 H 294.745 1.93056 -0.267476 0
M  V30 3205 H 293.841 3.01423 0.809368 0
M  V30 3206 N 294.142 -0.090211 1.57342 0
M  V30 3207 C 295.052 -1.12735 2.05738 0
M  V30 3208 C 296.068 -1.43557 0.983231 0
M  V30 3209 O 297.244 -1.54101 1.29672 0
M  V30 3210 C 294.309 -2.42659 2.47624 0
M  V30 3211 C 293.37 -2.18975 3.69254 0
M  V30 3212 C 292.603 -3.42704 4.09133 0
M  V30 3213 O 292.826 -4.51127 3.49057 0
M  V30 3214 O 291.76 -3.32003 5.02053 0
M  V30 3215 H 295.586 -0.746279 2.94388 0
M  V30 3216 H 293.171 -0.303064 1.46294 0
M  V30 3217 H 295.053 -3.19155 2.7517 0
M  V30 3218 H 293.728 -2.80182 1.62109 0
M  V30 3219 H 292.635 -1.40244 3.46818 0
M  V30 3220 H 293.968 -1.86342 4.55563 0
M  V30 3221 N 295.62 -1.53406 -0.361157 0
M  V30 3222 C 297.031 -1.61442 -0.937728 0
M  V30 3223 C 297.382 -0.48461 -1.90121 0
M  V30 3224 O 296.507 0.388312 -2.12888 0
M  V30 3225 C 297.102 -2.92624 -1.70753 0
M  V30 3226 C 295.661 -3.02981 -2.23337 0
M  V30 3227 C 294.808 -2.5677 -1.04712 0
M  V30 3228 H 297.759 -1.58083 -0.139816 0
M  V30 3229 H 297.78 -2.80675 -2.56908 0
M  V30 3230 H 297.292 -3.74834 -1.00604 0
M  V30 3231 H 295.393 -2.25368 -2.96715 0
M  V30 3232 H 295.506 -4.0814 -2.50916 0
M  V30 3233 H 293.87 -2.11752 -1.41539 0
M  V30 3234 H 294.653 -3.41402 -0.360539 0
M  V30 3235 N 297.098 0.621204 -1.44841 0
M  V30 3236 C 298.346 1.37783 -1.47852 0
M  V30 3237 C 298.667 1.94653 -0.116224 0
M  V30 3238 O 297.937 1.76367 0.852737 0
M  V30 3239 H 296.517 0.511453 -0.544449 0
M  V30 3240 H 299.179 0.730446 -1.80694 0
M  V30 3241 H 298.275 2.20414 -2.20961 0
M  V30 3242 N 298.576 1.31904 0.862503 0
M  V30 3243 C 299.524 1.20125 1.9918 0
M  V30 3244 C 300.518 0.107824 1.69056 0
M  V30 3245 O 301.724 0.270223 1.7796 0
M  V30 3246 H 298.099 0.372148 0.65346 0
M  V30 3247 H 300.07 2.15652 2.06244 0
M  V30 3248 C 298.819 0.933099 3.34946 0
M  V30 3249 H 298.142 1.76664 3.5865 0
M  V30 3250 H 299.582 0.890892 4.14535 0
M  V30 3251 C 298.041 -0.364172 3.34926 0
M  V30 3252 O 298.571 -1.37858 3.77304 0
M  V30 3253 N 296.777 -0.383362 2.8806 0
M  V30 3254 H 296.324 0.442651 2.53768 0
M  V30 3255 H 296.282 -1.25123 2.8843 0
M  V30 3256 N 300.054 -1.07777 1.14986 0
M  V30 3257 C 301.004 -2.13082 0.811181 0
M  V30 3258 C 301.988 -1.59619 -0.202597 0
M  V30 3259 O 303.18 -1.77 -0.00398275 0
M  V30 3260 C 300.309 -3.42009 0.297439 0
M  V30 3261 C 299.395 -4.02337 1.34112 0
M  V30 3262 N 299.786 -4.36982 2.54716 0
M  V30 3263 C 298.084 -4.29752 1.19285 0
M  V30 3264 C 298.785 -4.84729 3.21578 0
M  V30 3265 N 297.761 -4.83233 2.48972 0
M  V30 3266 H 301.563 -2.37696 1.72853 0
M  V30 3267 H 299.077 -1.25173 1.03468 0
M  V30 3268 H 301.074 -4.16884 0.0364777 0
M  V30 3269 H 299.734 -3.18841 -0.614022 0
M  V30 3270 H 300.745 -4.27807 2.91894 0
M  V30 3271 H 297.422 -4.16106 0.340926 0
M  V30 3272 H 298.812 -5.20863 4.24442 0
M  V30 3273 N 301.532 -0.945985 -1.26051 0
M  V30 3274 C 302.781 -0.591836 -1.92822 0
M  V30 3275 C 303.094 0.873956 -1.7499 0
M  V30 3276 O 304.3 1.33769 -2.36259 0
M  V30 3277 C 302.756 -1.00776 -3.45503 0
M  V30 3278 C 302.364 -2.4955 -3.7206 0
M  V30 3279 C 304.108 -0.725735 -4.1825 0
M  V30 3280 C 302.015 -2.84988 -5.18205 0
M  V30 3281 H 300.945 -0.217635 -0.721908 0
M  V30 3282 H 303.596 -1.14927 -1.43052 0
M  V30 3283 H 301.978 -0.378812 -3.94184 0
M  V30 3284 H 303.152 -3.1739 -3.34066 0
M  V30 3285 H 301.467 -2.75133 -3.12555 0
M  V30 3286 H 304.064 -0.966771 -5.25887 0
M  V30 3287 H 304.407 0.337639 -4.14929 0
M  V30 3288 H 304.94 -1.31463 -3.7545 0
M  V30 3289 H 301.679 -3.90307 -5.26631 0
M  V30 3290 H 301.199 -2.21813 -5.57278 0
M  V30 3291 H 302.878 -2.73712 -5.86252 0
M  V30 3292 N 303.011 1.40521 -0.713556 0
M  V30 3293 C 304.258 2.00923 -0.25219 0
M  V30 3294 C 304.586 1.56571 1.15395 0
M  V30 3295 O 303.841 0.775874 1.79663 0
M  V30 3296 C 304.14 3.56317 -0.278 0
M  V30 3297 C 303.806 4.20246 -1.63415 0
M  V30 3298 C 302.468 4.37422 -2.00538 0
M  V30 3299 C 304.82 4.55923 -2.52554 0
M  V30 3300 C 302.148 4.87558 -3.2635 0
M  V30 3301 C 304.5 5.07458 -3.77716 0
M  V30 3302 C 303.164 5.22843 -4.14959 0
M  V30 3303 H 302.434 0.735231 -0.0922829 0
M  V30 3304 H 305.081 1.68161 -0.916188 0
M  V30 3305 H 303.386 3.88976 0.469567 0
M  V30 3306 H 305.083 4.00883 0.0967819 0
M  V30 3307 H 301.673 4.07263 -1.33546 0
M  V30 3308 H 305.857 4.42291 -2.25149 0
M  V30 3309 H 301.113 4.97654 -3.55176 0
M  V30 3310 H 305.287 5.34041 -4.4696 0
M  V30 3311 H 302.914 5.61454 -5.12516 0
M  V30 3312 N 304.489 0.459591 1.5075 0
M  V30 3313 C 305.735 -0.0994966 2.02556 0
M  V30 3314 C 306.068 -1.40399 1.3417 0
M  V30 3315 O 305.343 -1.88892 0.463683 0
M  V30 3316 C 305.626 -0.295242 3.58888 0
M  V30 3317 C 305.479 1.02947 4.37861 0
M  V30 3318 C 306.798 -1.05502 4.27267 0
M  V30 3319 H 303.917 -0.034686 0.736183 0
M  V30 3320 H 306.559 0.602938 1.8018 0
M  V30 3321 H 304.709 -0.893563 3.78084 0
M  V30 3322 H 306.381 1.66348 4.30263 0
M  V30 3323 H 304.624 1.62885 4.02058 0
M  V30 3324 H 305.295 0.846281 5.45474 0
M  V30 3325 H 307.771 -0.547993 4.12476 0
M  V30 3326 H 306.647 -1.16077 5.36486 0
M  V30 3327 H 306.908 -2.08875 3.89645 0
M  V30 3328 N 305.967 -1.56429 0.191757 0
M  V30 3329 C 306.897 -2.21937 -0.725696 0
M  V30 3330 C 307.878 -1.1814 -1.2238 0
M  V30 3331 O 309.063 -1.46636 -1.27325 0
M  V30 3332 C 306.193 -2.87611 -1.94672 0
M  V30 3333 C 305.147 -3.97623 -1.58366 0
M  V30 3334 C 304.473 -4.50446 -2.88102 0
M  V30 3335 C 305.773 -5.16197 -0.796133 0
M  V30 3336 H 307.467 -2.98861 -0.179606 0
M  V30 3337 H 305.013 -1.43749 -0.0849464 0
M  V30 3338 H 306.966 -3.3212 -2.59373 0
M  V30 3339 H 305.69 -2.08087 -2.51728 0
M  V30 3340 H 304.349 -3.53801 -0.960247 0
M  V30 3341 H 303.997 -3.67688 -3.43241 0
M  V30 3342 H 303.697 -5.24675 -2.64556 0
M  V30 3343 H 305.221 -4.97654 -3.53798 0
M  V30 3344 H 306.635 -5.57271 -1.34618 0
M  V30 3345 H 305.032 -5.96471 -0.658928 0
M  V30 3346 H 306.102 -4.84473 0.203478 0
M  V30 3347 N 307.445 0.0818655 -1.57387 0
M  V30 3348 C 308.408 1.08265 -2.02018 0
M  V30 3349 C 309.408 1.32183 -0.915664 0
M  V30 3350 O 310.598 1.28073 -1.18081 0
M  V30 3351 C 307.73 2.42871 -2.39221 0
M  V30 3352 H 308.923 0.698204 -2.91659 0
M  V30 3353 H 306.476 0.327303 -1.52835 0
M  V30 3354 H 307.211 2.86167 -1.52575 0
M  V30 3355 H 306.996 2.26855 -3.19811 0
M  V30 3356 H 308.486 3.14826 -2.74362 0
M  V30 3357 N 308.923 1.53595 0.353017 0
M  V30 3358 C 309.833 1.83897 1.45667 0
M  V30 3359 C 310.849 0.728334 1.58023 0
M  V30 3360 O 312.025 1.01968 1.73679 0
M  V30 3361 C 309.09 2.03383 2.80778 0
M  V30 3362 C 308.151 3.27262 2.77845 0
M  V30 3363 C 307.384 3.45809 4.06512 0
M  V30 3364 O 307.607 2.68387 5.03314 0
M  V30 3365 O 306.541 4.39207 4.11559 0
M  V30 3366 H 310.367 2.77686 1.2298 0
M  V30 3367 H 307.952 1.39132 0.544308 0
M  V30 3368 H 309.834 2.17698 3.60812 0
M  V30 3369 H 308.509 1.12783 3.03417 0
M  V30 3370 H 307.416 3.18359 1.96465 0
M  V30 3371 H 308.749 4.17824 2.60161 0
M  V30 3372 N 310.401 -0.613514 1.45168 0
M  V30 3373 C 311.649 -1.36997 1.48581 0
M  V30 3374 C 311.97 -1.94589 0.126545 0
M  V30 3375 O 311.24 -1.76816 -0.843372 0
M  V30 3376 H 309.82 -0.508558 0.547154 0
M  V30 3377 H 312.482 -0.720853 1.81079 0
M  V30 3378 H 311.578 -2.1924 2.22127 0
M  V30 3379 N 311.879 -1.3236 -0.855495 0
M  V30 3380 C 313.295 -1.11332 -1.14356 0
M  V30 3381 C 313.495 0.106751 -2.01217 0
M  V30 3382 O 312.551 0.791891 -2.39761 0
M  V30 3383 C 313.864 -2.39237 -1.82171 0
M  V30 3384 C 315.412 -2.44986 -1.9481 0
M  V30 3385 C 315.887 -3.7281 -2.66039 0
M  V30 3386 N 317.378 -3.73787 -2.73565 0
M  V30 3387 C 318.113 -4.69394 -3.29327 0
M  V30 3388 N 317.609 -5.75367 -3.85907 0
M  V30 3389 N 319.402 -4.56893 -3.27423 0
M  V30 3390 H 311.553 -2.10586 -0.277027 0
M  V30 3391 H 313.816 -0.929701 -0.185364 0
M  V30 3392 H 313.522 -3.28431 -1.25802 0
M  V30 3393 H 313.396 -2.50134 -2.82335 0
M  V30 3394 H 315.783 -1.56252 -2.50338 0
M  V30 3395 H 315.864 -2.38043 -0.936448 0
M  V30 3396 H 315.508 -4.61918 -2.11174 0
M  V30 3397 H 315.438 -3.77024 -3.67642 0
M  V30 3398 H 317.929 -2.97189 -2.33424 0
M  V30 3399 H 318.242 -6.44378 -4.26611 0
M  V30 3400 H 316.587 -5.79123 -3.84242 0
M  V30 3401 H 319.778 -3.73269 -2.82467 0
M  V30 3402 H 319.951 -5.31577 -3.7058 0
M  V30 3403 N 313.357 1.07166 -1.15556 0
M  V30 3404 C 314.287 2.16403 -0.877046 0
M  V30 3405 C 315.268 1.69217 0.173111 0
M  V30 3406 O 316.453 1.94181 0.027084 0
M  V30 3407 C 313.583 3.45349 -0.367632 0
M  V30 3408 C 312.537 4.05995 -1.35468 0
M  V30 3409 C 311.863 5.30045 -0.704038 0
M  V30 3410 C 313.163 4.45804 -2.72132 0
M  V30 3411 H 314.857 2.39959 -1.79053 0
M  V30 3412 H 312.403 1.15325 -0.862331 0
M  V30 3413 H 314.356 4.21095 -0.160317 0
M  V30 3414 H 313.08 3.21385 0.581326 0
M  V30 3415 H 311.739 3.32296 -1.54839 0
M  V30 3416 H 311.387 5.02373 0.251128 0
M  V30 3417 H 311.087 5.71579 -1.36277 0
M  V30 3418 H 312.611 6.08495 -0.50654 0
M  V30 3419 H 314.025 5.12671 -2.56595 0
M  V30 3420 H 312.422 4.98296 -3.34397 0
M  V30 3421 H 313.492 3.57083 -3.28054 0
M  V30 3422 N 314.835 0.952656 1.25548 0
M  V30 3423 C 315.745 0.47782 2.29682 0
M  V30 3424 C 316.761 -0.453859 1.67977 0
M  V30 3425 O 317.937 -0.330587 1.98668 0
M  V30 3426 C 315.002 -0.238655 3.45878 0
M  V30 3427 C 314.063 0.730994 4.23031 0
M  V30 3428 C 313.296 0.0486165 5.33678 0
M  V30 3429 O 313.519 -1.16612 5.58353 0
M  V30 3430 O 312.453 0.733152 5.97418 0
M  V30 3431 H 316.279 1.34312 2.72386 0
M  V30 3432 H 313.864 0.719026 1.30959 0
M  V30 3433 H 315.746 -0.641774 4.16484 0
M  V30 3434 H 314.421 -1.07916 3.05181 0
M  V30 3435 H 313.328 1.18428 3.5486 0
M  V30 3436 H 314.661 1.53946 4.67506 0
M  V30 3437 N 316.313 -1.40141 0.720998 0
M  V30 3438 C 317.559 -2.01084 0.263231 0
M  V30 3439 C 317.892 -1.57052 -1.14229 0
M  V30 3440 O 317.167 -0.793027 -1.77599 0
M  V30 3441 C 317.45 -3.58401 0.349344 0
M  V30 3442 C 317.303 -4.12491 1.79363 0
M  V30 3443 C 318.622 -4.39231 -0.276351 0
M  V30 3444 H 315.741 -0.730572 0.0971228 0
M  V30 3445 H 318.383 -1.66543 0.914518 0
M  V30 3446 H 316.533 -3.87958 -0.205165 0
M  V30 3447 H 318.205 -3.93711 2.40394 0
M  V30 3448 H 316.448 -3.66576 2.31958 0
M  V30 3449 H 317.119 -5.21646 1.80524 0
M  V30 3450 H 319.595 -4.15637 0.196184 0
M  V30 3451 H 318.471 -5.48586 -0.185681 0
M  V30 3452 H 318.732 -4.20643 -1.36059 0
M  V30 3453 N 317.792 -0.46758 -1.50504 0
M  V30 3454 C 319.039 0.0886219 -2.02306 0
M  V30 3455 C 319.367 1.40037 -1.34981 0
M  V30 3456 O 318.622 1.90136 -0.463318 0
M  V30 3457 C 318.921 0.323995 -3.55928 0
M  V30 3458 C 318.587 -0.905618 -4.41712 0
M  V30 3459 C 317.249 -1.24275 -4.64875 0
M  V30 3460 C 319.601 -1.72448 -4.91845 0
M  V30 3461 C 316.929 -2.39888 -5.35417 0
M  V30 3462 C 319.281 -2.87185 -5.63656 0
M  V30 3463 C 317.945 -3.21317 -5.85074 0
M  V30 3464 H 317.215 0.0324291 -0.74029 0
M  V30 3465 H 319.862 -0.620945 -1.81153 0
M  V30 3466 H 318.167 1.11577 -3.75577 0
M  V30 3467 H 319.864 0.76826 -3.93572 0
M  V30 3468 H 316.454 -0.632956 -4.239 0
M  V30 3469 H 320.638 -1.4772 -4.73806 0
M  V30 3470 H 315.894 -2.66611 -5.50208 0
M  V30 3471 H 320.068 -3.50985 -6.01484 0
M  V30 3472 H 317.695 -4.1101 -6.39511 0
M  V30 3473 N 319.27 1.56325 -0.20005 0
M  V30 3474 C 320.202 2.16555 0.750771 0
M  V30 3475 C 321.215 1.12871 1.1732 0
M  V30 3476 O 322.404 1.39943 1.10807 0
M  V30 3477 C 319.504 2.71684 2.02586 0
M  V30 3478 C 318.677 4.00321 1.76244 0
M  V30 3479 C 317.736 4.40227 2.88248 0
M  V30 3480 O 316.762 5.07552 2.57642 0
M  V30 3481 N 317.964 4.04138 4.16717 0
M  V30 3482 H 320.729 2.98772 0.235685 0
M  V30 3483 H 318.29 1.6189 -0.0182594 0
M  V30 3484 H 320.282 2.95363 2.76664 0
M  V30 3485 H 318.852 1.93893 2.45202 0
M  V30 3486 H 318.072 3.84723 0.85919 0
M  V30 3487 H 319.36 4.84279 1.56048 0
M  V30 3488 H 318.758 3.49993 4.44434 0
M  V30 3489 H 317.315 4.32756 4.87407 0
M  V30 3490 N 320.748 -0.0735177 1.57428 0
M  V30 3491 C 321.996 -0.771472 1.86796 0
M  V30 3492 C 322.317 -1.78201 0.791804 0
M  V30 3493 O 321.587 -1.95074 -0.179718 0
M  V30 3494 H 320.167 -0.28791 0.689287 0
M  V30 3495 H 322.829 -0.0500161 1.94836 0
M  V30 3496 H 321.925 -1.28874 2.8425 0
M  V30 3497 N 322.226 -1.5378 -0.344866 0
M  V30 3498 C 323.136 -1.84667 -1.4469 0
M  V30 3499 C 324.152 -0.736704 -1.57635 0
M  V30 3500 O 325.328 -1.02888 -1.73136 0
M  V30 3501 C 322.393 -2.04869 -2.79696 0
M  V30 3502 C 321.454 -3.28731 -2.76106 0
M  V30 3503 C 320.687 -3.4796 -4.04673 0
M  V30 3504 O 320.91 -2.71052 -5.01883 0
M  V30 3505 O 319.844 -4.41383 -4.09224 0
M  V30 3506 H 323.67 -2.78334 -1.21506 0
M  V30 3507 H 321.255 -1.39418 -0.536921 0
M  V30 3508 H 323.137 -2.19609 -3.59652 0
M  V30 3509 H 321.812 -1.14391 -3.02814 0
M  V30 3510 H 320.719 -3.19396 -1.94774 0
M  V30 3511 H 322.052 -4.19198 -2.57941 0
M  V30 3512 N 323.704 0.605807 -1.45491 0
M  V30 3513 C 324.651 1.7164 -1.54299 0
M  V30 3514 C 325.621 1.61486 -0.388761 0
M  V30 3515 O 326.806 1.81039 -0.602445 0
M  V30 3516 C 323.946 3.09953 -1.51734 0
M  V30 3517 C 323.059 3.309 -2.77721 0
M  V30 3518 C 322.194 4.59329 -2.66816 0
M  V30 3519 C 321.233 4.7354 -3.87848 0
M  V30 3520 N 320.37 5.9327 -3.75467 0
M  V30 3521 H 325.21 1.63449 -2.49176 0
M  V30 3522 H 322.747 0.796957 -1.23641 0
M  V30 3523 H 324.705 3.89977 -1.48235 0
M  V30 3524 H 323.335 3.17098 -0.604068 0
M  V30 3525 H 322.387 2.44639 -2.913 0
M  V30 3526 H 323.699 3.37274 -3.67488 0
M  V30 3527 H 322.853 5.4755 -2.61292 0
M  V30 3528 H 321.592 4.55355 -1.74651 0
M  V30 3529 H 320.597 3.83741 -3.93729 0
M  V30 3530 H 321.822 4.79309 -4.81082 0
M  V30 3531 H 319.768 5.90338 -2.86072 0
M  V30 3532 H 319.685 6.00811 -4.5887 0
M  V30 3533 H 320.953 6.83984 -3.73879 0
M  V30 3534 N 325.182 1.32811 0.848464 0
M  V30 3535 C 326.112 1.24882 1.97299 0
M  V30 3536 C 327.093 0.131357 1.69592 0
M  V30 3537 O 328.278 0.319553 1.91553 0
M  V30 3538 C 325.408 0.97746 3.33261 0
M  V30 3539 C 324.362 2.05682 3.75338 0
M  V30 3540 C 323.688 1.63777 5.09 0
M  V30 3541 C 324.988 3.47254 3.90144 0
M  V30 3542 H 326.682 2.18966 2.04191 0
M  V30 3543 H 324.228 1.05413 0.981029 0
M  V30 3544 H 326.181 0.908513 4.1149 0
M  V30 3545 H 324.905 0.000980011 3.266 0
M  V30 3546 H 323.564 2.11603 2.99366 0
M  V30 3547 H 323.212 0.648569 4.98801 0
M  V30 3548 H 322.912 2.36 5.38124 0
M  V30 3549 H 324.436 1.5833 5.89715 0
M  V30 3550 H 325.85 3.43888 4.58709 0
M  V30 3551 H 324.247 4.1788 4.30693 0
M  V30 3552 H 325.317 3.86462 2.92874 0
M  V30 3553 N 326.66 -1.06551 1.16123 0
M  V30 3554 C 327.59 -2.15935 0.88851 0
M  V30 3555 C 328.571 -1.69306 -0.164135 0
M  V30 3556 O 329.756 -1.94193 -0.0167857 0
M  V30 3557 C 326.886 -3.45149 0.385942 0
M  V30 3558 C 325.84 -4.05271 1.3762 0
M  V30 3559 C 325.166 -5.29664 0.732137 0
M  V30 3560 C 326.466 -4.44355 2.74493 0
M  V30 3561 H 328.16 -2.39006 1.80323 0
M  V30 3562 H 325.706 -1.14866 0.868435 0
M  V30 3563 H 327.659 -4.21004 0.182647 0
M  V30 3564 H 326.383 -3.21689 -0.564274 0
M  V30 3565 H 325.042 -3.3147 1.56599 0
M  V30 3566 H 324.69 -5.02499 -0.224483 0
M  V30 3567 H 324.39 -5.70848 1.39307 0
M  V30 3568 H 325.914 -6.08218 0.538802 0
M  V30 3569 H 327.328 -5.11303 2.59311 0
M  V30 3570 H 325.725 -4.96515 3.37035 0
M  V30 3571 H 326.795 -3.55339 3.29943 0
M  V30 3572 N 328.138 -0.959301 -1.25041 0
M  V30 3573 C 329.363 -0.633507 -1.97488 0
M  V30 3574 C 329.788 0.788555 -1.70773 0
M  V30 3575 O 329.146 1.53394 -0.966431 0
M  V30 3576 C 329.194 -0.904057 -3.49083 0
M  V30 3577 O 328.298 0.0147939 -4.12397 0
M  V30 3578 H 327.639 -0.240368 -0.618966 0
M  V30 3579 H 330.169 -1.28717 -1.59038 0
M  V30 3580 H 330.179 -0.832203 -3.99423 0
M  V30 3581 H 328.854 -1.94048 -3.67856 0
M  V30 3582 H 327.431 -0.109664 -3.72739 0
M  V30 3583 N 329.616 1.39756 -0.72842 0
M  V30 3584 C 330.841 2.05472 -0.282159 0
M  V30 3585 C 331.266 1.54549 1.07221 0
M  V30 3586 O 330.624 0.686372 1.67805 0
M  V30 3587 C 330.672 3.59462 -0.286264 0
M  V30 3588 O 329.776 4.05918 0.728298 0
M  V30 3589 H 329.117 0.651226 -0.129618 0
M  V30 3590 H 331.647 1.78915 -0.992499 0
M  V30 3591 H 331.657 4.07798 -0.128373 0
M  V30 3592 H 330.332 3.95889 -1.27456 0
M  V30 3593 H 328.909 3.69012 0.537081 0
M  V30 3594 N 331.094 0.475555 1.50254 0
M  V30 3595 C 332.343 -0.0795996 2.01543 0
M  V30 3596 C 332.656 -1.4038 1.36209 0
M  V30 3597 O 333.862 -2.04415 1.7868 0
M  V30 3598 C 332.318 -0.192363 3.59386 0
M  V30 3599 C 331.926 1.12367 4.33679 0
M  V30 3600 C 333.67 -0.699238 4.18701 0
M  V30 3601 C 331.577 0.974453 5.83317 0
M  V30 3602 H 330.507 -0.0335228 0.753254 0
M  V30 3603 H 333.158 0.611128 1.73025 0
M  V30 3604 H 331.54 -0.946974 3.84511 0
M  V30 3605 H 332.714 1.88958 4.20276 0
M  V30 3606 H 331.029 1.562 3.85993 0
M  V30 3607 H 333.626 -0.827978 5.28251 0
M  V30 3608 H 333.969 -1.69171 3.80377 0
M  V30 3609 H 334.502 -0.00188807 3.978 0
M  V30 3610 H 331.241 1.94042 6.26121 0
M  V30 3611 H 330.761 0.248998 5.99283 0
M  V30 3612 H 332.44 0.642867 6.43798 0
M  V30 3613 N 332.573 -1.56217 0.208337 0
M  V30 3614 C 333.984 -1.84243 -0.301904 0
M  V30 3615 C 334.335 -1.12939 -1.60434 0
M  V30 3616 O 333.46 -0.39461 -2.12772 0
M  V30 3617 C 334.055 -3.34231 -0.554543 0
M  V30 3618 C 332.614 -3.62621 -1.00912 0
M  V30 3619 C 331.761 -2.77224 -0.064933 0
M  V30 3620 H 334.712 -1.52712 0.431833 0
M  V30 3621 H 334.733 -3.5372 -1.40223 0
M  V30 3622 H 334.245 -3.86099 0.393561 0
M  V30 3623 H 332.346 -3.16197 -1.97104 0
M  V30 3624 H 332.459 -4.7071 -0.892674 0
M  V30 3625 H 330.823 -2.48256 -0.56929 0
M  V30 3626 H 331.606 -3.31887 0.877851 0
M  V30 3627 N 334.051 0.0651679 -1.57465 0
M  V30 3628 C 334.984 1.10876 -1.99453 0
M  V30 3629 C 335.962 1.37205 -0.872555 0
M  V30 3630 O 337.146 1.50468 -1.13542 0
M  V30 3631 C 334.273 2.45167 -2.3369 0
M  V30 3632 C 333.319 2.3493 -3.55964 0
M  V30 3633 S 334.152 1.73708 -5.06543 0
M  V30 3634 C 335.308 3.09563 -5.43987 0
M  V30 3635 H 335.541 0.750967 -2.87659 0
M  V30 3636 H 333.074 0.273933 -1.51951 0
M  V30 3637 H 335.032 3.22412 -2.54088 0
M  V30 3638 H 333.693 2.78105 -1.46001 0
M  V30 3639 H 332.886 3.3398 -3.77457 0
M  V30 3640 H 332.488 1.65823 -3.3523 0
M  V30 3641 H 334.78 4.05882 -5.42463 0
M  V30 3642 H 335.723 2.92843 -6.44708 0
M  V30 3643 H 336.131 3.10474 -4.71451 0
M  V30 3644 N 335.529 1.53961 0.336706 0
M  V30 3645 C 336.775 1.7273 1.07406 0
M  V30 3646 C 337.13 0.488095 1.86106 0
M  V30 3647 O 336.423 -0.519379 1.84426 0
M  V30 3648 C 336.617 2.93493 2.03953 0
M  V30 3649 C 336.446 4.29039 1.34744 0
M  V30 3650 C 335.216 4.93416 1.08942 0
M  V30 3651 C 337.414 5.08501 0.770115 0
M  V30 3652 N 335.396 6.12821 0.363864 0
M  V30 3653 C 336.767 6.19752 0.175472 0
M  V30 3654 C 338.822 4.93349 0.671633 0
M  V30 3655 C 337.525 7.17503 -0.508081 0
M  V30 3656 C 339.551 5.914 0.0018076 0
M  V30 3657 C 338.913 7.01993 -0.581835 0
M  V30 3658 H 335.012 0.685026 0.377177 0
M  V30 3659 H 337.596 1.91403 0.356815 0
M  V30 3660 H 335.767 2.76308 2.72962 0
M  V30 3661 H 337.499 3.00949 2.70577 0
M  V30 3662 H 334.254 4.53099 1.37833 0
M  V30 3663 H 334.678 6.76998 0.0156092 0
M  V30 3664 H 339.32 4.08007 1.1086 0
M  V30 3665 H 337.038 8.02414 -0.956918 0
M  V30 3666 H 340.624 5.81753 -0.0738538 0
M  V30 3667 H 339.504 7.76561 -1.09192 0
M  V30 3668 N 337.007 -0.598083 1.45811 0
M  V30 3669 C 338.235 -1.38322 1.53866 0
M  V30 3670 C 338.65 -1.87992 0.174479 0
M  V30 3671 O 338.007 -1.62756 -0.825627 0
M  V30 3672 C 338.058 -2.58125 2.53089 0
M  V30 3673 O 337.779 -2.10516 3.84206 0
M  V30 3674 C 339.28 -3.50869 2.70935 0
M  V30 3675 H 336.5 -0.423093 0.520801 0
M  V30 3676 H 339.044 -0.728527 1.91083 0
M  V30 3677 H 337.199 -3.19615 2.18917 0
M  V30 3678 H 337.613 -2.88425 4.38077 0
M  V30 3679 H 339.087 -4.31451 3.44317 0
M  V30 3680 H 339.564 -4.01822 1.77301 0
M  V30 3681 H 340.17 -2.95225 3.06141 0
M  V30 3682 N 338.485 -1.33259 -0.841409 0
M  V30 3683 C 339.713 -1.27605 -1.62864 0
M  V30 3684 C 340.128 0.153507 -1.88175 0
M  V30 3685 O 339.485 1.09485 -1.46011 0
M  V30 3686 C 339.536 -2.04596 -2.98031 0
M  V30 3687 O 339.257 -3.41975 -2.73834 0
M  V30 3688 C 340.758 -2.06122 -3.92465 0
M  V30 3689 H 337.978 -0.439718 -0.506842 0
M  V30 3690 H 340.522 -1.75591 -1.04824 0
M  V30 3691 H 338.677 -1.60299 -3.5268 0
M  V30 3692 H 339.091 -3.81549 -3.59889 0
M  V30 3693 H 340.565 -2.64451 -4.84531 0
M  V30 3694 H 341.042 -1.05083 -4.26444 0
M  V30 3695 H 341.648 -2.50427 -3.43753 0
M  V30 3696 N 339.963 1.05934 -1.16686 0
M  V30 3697 C 341.21 1.788 -0.950622 0
M  V30 3698 C 341.538 1.87384 0.521305 0
M  V30 3699 O 340.793 1.36438 1.40297 0
M  V30 3700 C 341.092 3.23105 -1.52767 0
M  V30 3701 C 340.758 3.34594 -3.02254 0
M  V30 3702 C 339.42 3.37437 -3.43059 0
M  V30 3703 C 341.772 3.36219 -3.98254 0
M  V30 3704 C 339.1 3.39525 -4.78477 0
M  V30 3705 C 341.452 3.39845 -5.33562 0
M  V30 3706 C 340.116 3.40971 -5.73842 0
M  V30 3707 H 339.386 0.654275 -0.347857 0
M  V30 3708 H 342.033 1.24555 -1.45459 0
M  V30 3709 H 340.338 3.80227 -0.94524 0
M  V30 3710 H 342.035 3.7809 -1.336 0
M  V30 3711 H 338.625 3.3309 -2.6972 0
M  V30 3712 H 342.809 3.33231 -3.67792 0
M  V30 3713 H 338.065 3.38703 -5.09009 0
M  V30 3714 H 342.239 3.4005 -6.07733 0
M  V30 3715 H 339.866 3.42342 -6.78753 0
M  V30 3716 N 341.441 0.965919 1.2453 0
M  V30 3717 C 342.689 0.625593 1.92174 0
M  V30 3718 C 343.01 -0.841652 1.75901 0
M  V30 3719 O 342.28 -1.60061 1.12948 0
M  V30 3720 H 340.86 0.228388 0.71123 0
M  V30 3721 H 343.522 1.2266 1.51461 0
M  V30 3722 H 342.618 0.864653 2.99884 0
M  V30 3723 N 342.919 -1.39368 0.735821 0
M  V30 3724 C 343.829 -2.34395 0.0979693 0
M  V30 3725 C 344.845 -1.58361 -0.720968 0
M  V30 3726 O 346.021 -1.90648 -0.649245 0
M  V30 3727 C 343.086 -3.37393 -0.797916 0
M  V30 3728 C 342.147 -4.29287 0.0333662 0
M  V30 3729 C 341.38 -5.27365 -0.819854 0
M  V30 3730 O 341.603 -5.31959 -2.05855 0
M  V30 3731 O 340.537 -6.01389 -0.248079 0
M  V30 3732 H 344.363 -2.90601 0.882315 0
M  V30 3733 H 341.948 -1.40909 0.4965 0
M  V30 3734 H 343.83 -4.00505 -1.31048 0
M  V30 3735 H 342.505 -2.83571 -1.56106 0
M  V30 3736 H 341.412 -3.69395 0.591475 0
M  V30 3737 H 342.745 -4.86317 0.758752 0
M  V30 3738 N 344.397 -0.483516 -1.5 0
M  V30 3739 C 345.327 0.293829 -2.31644 0
M  V30 3740 C 346.308 0.978864 -1.39112 0
M  V30 3741 O 347.493 0.973644 -1.68029 0
M  V30 3742 C 344.623 1.36897 -3.19181 0
M  V30 3743 C 343.577 0.804833 -4.20365 0
M  V30 3744 C 342.903 1.9792 -4.96721 0
M  V30 3745 C 344.203 -0.192313 -5.21946 0
M  V30 3746 H 345.897 -0.387616 -2.9688 0
M  V30 3747 H 343.443 -0.187856 -1.42769 0
M  V30 3748 H 345.396 1.92037 -3.751 0
M  V30 3749 H 344.12 2.07936 -2.51853 0
M  V30 3750 H 342.779 0.275319 -3.65565 0
M  V30 3751 H 342.427 2.67686 -4.25856 0
M  V30 3752 H 342.127 1.60789 -5.65173 0
M  V30 3753 H 343.651 2.53526 -5.55479 0
M  V30 3754 H 345.065 0.270333 -5.72662 0
M  V30 3755 H 343.462 -0.478543 -5.98189 0
M  V30 3756 H 344.532 -1.11409 -4.71928 0
M  V30 3757 N 345.875 1.56104 -0.216619 0
M  V30 3758 C 346.838 2.18819 0.681962 0
M  V30 3759 C 347.838 1.14866 1.12528 0
M  V30 3760 O 349.028 1.40128 1.03488 0
M  V30 3761 C 346.16 2.80756 1.93362 0
M  V30 3762 H 347.353 2.99595 0.135254 0
M  V30 3763 H 344.906 1.56265 0.0330003 0
M  V30 3764 H 345.641 2.03837 2.52232 0
M  V30 3765 H 345.426 3.56876 1.62426 0
M  V30 3766 H 346.916 3.28844 2.57393 0
M  V30 3767 N 347.353 -0.0568162 1.57498 0
M  V30 3768 C 348.602 -0.752001 1.87157 0
M  V30 3769 C 348.915 -1.77978 0.811375 0
M  V30 3770 O 350.121 -2.52559 0.996293 0
M  V30 3771 C 348.577 -1.38844 3.3204 0
M  V30 3772 C 348.185 -0.398456 4.46225 0
M  V30 3773 C 349.929 -2.06512 3.70882 0
M  V30 3774 C 347.836 -1.04166 5.82154 0
M  V30 3775 H 346.766 -0.28461 0.698222 0
M  V30 3776 H 349.417 -0.00561272 1.83499 0
M  V30 3777 H 347.799 -2.1836 3.30356 0
M  V30 3778 H 348.973 0.367977 4.59328 0
M  V30 3779 H 347.288 0.174592 4.16034 0
M  V30 3780 H 349.885 -2.55437 4.6974 0
M  V30 3781 H 350.228 -2.87117 3.01445 0
M  V30 3782 H 350.761 -1.33808 3.7462 0
M  V30 3783 H 347.5 -0.275614 6.5492 0
M  V30 3784 H 347.02 -1.7786 5.72823 0
M  V30 3785 H 348.699 -1.55715 6.27982 0
M  V30 3786 N 348.832 -1.54138 -0.328536 0
M  V30 3787 C 349.762 -1.86167 -1.40939 0
M  V30 3788 C 350.743 -0.718044 -1.54202 0
M  V30 3789 O 351.928 -0.971328 -1.68163 0
M  V30 3790 C 349.058 -2.08461 -2.77779 0
M  V30 3791 C 348.012 -3.24299 -2.7931 0
M  V30 3792 C 347.338 -3.31955 -4.19178 0
M  V30 3793 C 348.638 -4.62065 -2.43502 0
M  V30 3794 H 350.332 -2.76689 -1.14383 0
M  V30 3795 H 347.878 -1.33132 -0.548806 0
M  V30 3796 H 349.831 -2.29453 -3.53454 0
M  V30 3797 H 348.555 -1.14684 -3.05802 0
M  V30 3798 H 347.214 -3.03187 -2.0609 0
M  V30 3799 H 346.862 -2.35745 -4.44335 0
M  V30 3800 H 346.562 -4.09805 -4.2111 0
M  V30 3801 H 348.086 -3.55175 -4.96672 0
M  V30 3802 H 349.5 -4.8297 -3.08889 0
M  V30 3803 H 347.897 -5.42429 -2.56693 0
M  V30 3804 H 348.967 -4.64652 -1.38659 0
M  V30 3805 N 350.31 0.590341 -1.46126 0
M  V30 3806 C 351.54 1.37304 -1.54373 0
M  V30 3807 C 351.948 1.88332 -0.181071 0
M  V30 3808 O 351.291 1.63852 0.830559 0
M  V30 3809 C 351.353 2.6012 -2.48149 0
M  V30 3810 C 351.017 2.30613 -3.94546 0
M  V30 3811 C 352.014 1.89915 -4.83971 0
M  V30 3812 C 349.699 2.42993 -4.39613 0
M  V30 3813 C 351.693 1.61981 -6.16475 0
M  V30 3814 C 349.38 2.14672 -5.72153 0
M  V30 3815 C 350.378 1.7423 -6.60404 0
M  V30 3816 O 350.066 1.46251 -7.90485 0
M  V30 3817 H 349.798 0.426086 -0.524811 0
M  V30 3818 H 352.352 0.72539 -1.92165 0
M  V30 3819 H 350.582 3.27664 -2.05361 0
M  V30 3820 H 352.271 3.22182 -2.46887 0
M  V30 3821 H 353.037 1.79872 -4.50412 0
M  V30 3822 H 348.916 2.73435 -3.71153 0
M  V30 3823 H 352.46 1.30341 -6.85315 0
M  V30 3824 H 348.357 2.24337 -6.05263 0
M  V30 3825 H 349.125 1.6016 -8.02677 0
M  V30 3826 N 351.788 1.33704 0.83433 0
M  V30 3827 C 352.736 1.24323 1.96587 0
M  V30 3828 C 353.73 0.143659 1.6879 0
M  V30 3829 O 354.936 0.30791 1.77347 0
M  V30 3830 H 351.311 0.385925 0.645419 0
M  V30 3831 H 353.282 2.19978 2.01624 0
M  V30 3832 C 352.031 1.00394 3.32891 0
M  V30 3833 H 351.354 1.84231 3.54822 0
M  V30 3834 H 352.794 0.97862 4.12552 0
M  V30 3835 C 351.253 -0.293047 3.35623 0
M  V30 3836 O 351.783 -1.29823 3.80143 0
M  V30 3837 N 349.989 -0.322174 2.88809 0
M  V30 3838 H 349.536 0.496379 2.52772 0
M  V30 3839 H 349.494 -1.18977 2.91019 0
M  V30 3840 N 353.266 -1.05314 1.17247 0
M  V30 3841 C 354.506 -1.79869 0.970898 0
M  V30 3842 C 354.87 -1.85594 -0.491808 0
M  V30 3843 O 356.071 -2.56229 -0.812409 0
M  V30 3844 C 354.342 -3.19937 1.59295 0
M  V30 3845 S 355.901 -4.10986 1.53741 0
M  V30 3846 H 352.719 -0.61949 0.348931 0
M  V30 3847 H 355.321 -1.26368 1.49169 0
M  V30 3848 H 354.025 -3.13372 2.65003 0
M  V30 3849 H 353.556 -3.78515 1.07191 0
M  V30 3850 H 355.571 -4.93203 0.544537 0
M  V30 3851 N 354.744 -0.972509 -1.24016 0
M  V30 3852 C 355.972 -0.654803 -1.96265 0
M  V30 3853 C 356.387 0.776708 -1.72083 0
M  V30 3854 O 355.744 1.52171 -1.00748 0
M  V30 3855 C 355.795 -0.92592 -3.49441 0
M  V30 3856 O 355.516 -2.30116 -3.72798 0
M  V30 3857 C 357.017 -0.623068 -4.38899 0
M  V30 3858 H 354.237 -0.243907 -0.6251 0
M  V30 3859 H 356.781 -1.30175 -1.57717 0
M  V30 3860 H 354.936 -0.325108 -3.86033 0
M  V30 3861 H 355.35 -2.38483 -4.67147 0
M  V30 3862 H 356.824 -0.863189 -5.45209 0
M  V30 3863 H 357.301 0.442754 -4.36963 0
M  V30 3864 H 357.907 -1.204 -4.07902 0
M  V30 3865 N 356.222 1.38976 -0.743202 0
M  V30 3866 C 357.638 1.53984 -0.419664 0
M  V30 3867 C 357.838 1.70837 1.0685 0
M  V30 3868 O 356.894 1.7135 1.8546 0
M  V30 3869 C 358.207 2.75287 -1.20985 0
M  V30 3870 C 359.755 2.89129 -1.19889 0
M  V30 3871 C 360.23 4.13381 -1.97181 0
M  V30 3872 N 361.721 4.20437 -1.94389 0
M  V30 3873 C 362.456 5.15547 -2.50996 0
M  V30 3874 N 361.952 6.16395 -3.16274 0
M  V30 3875 N 363.745 5.07822 -2.40984 0
M  V30 3876 H 355.896 1.26285 -1.7078 0
M  V30 3877 H 358.159 0.612689 -0.723406 0
M  V30 3878 H 357.865 2.69204 -2.26323 0
M  V30 3879 H 357.739 3.68184 -0.819759 0
M  V30 3880 H 360.126 2.947 -0.153606 0
M  V30 3881 H 360.207 1.97272 -1.62841 0
M  V30 3882 H 359.851 4.08572 -3.01714 0
M  V30 3883 H 359.781 5.04298 -1.51629 0
M  V30 3884 H 362.272 3.48205 -1.46839 0
M  V30 3885 H 362.585 6.85443 -3.56915 0
M  V30 3886 H 360.93 6.16758 -3.20367 0
M  V30 3887 H 364.121 4.27973 -1.89622 0
M  V30 3888 H 364.294 5.81767 -2.85397 0
M  V30 3889 N 357.7 0.491464 1.49741 0
M  V30 3890 C 358.928 -0.0535151 2.06831 0
M  V30 3891 C 359.343 -1.31683 1.35296 0
M  V30 3892 O 358.7 -1.77402 0.42836 0
M  V30 3893 C 358.751 -0.320835 3.60073 0
M  V30 3894 O 358.472 0.892394 4.28915 0
M  V30 3895 C 359.973 -0.910519 4.33848 0
M  V30 3896 H 357.193 0.0161909 0.670805 0
M  V30 3897 H 359.737 0.68609 1.92647 0
M  V30 3898 H 357.892 -1.0104 3.73991 0
M  V30 3899 H 358.306 0.649401 5.20464 0
M  V30 3900 H 359.78 -1.04721 5.41976 0
M  V30 3901 H 360.257 -1.90589 3.95692 0
M  V30 3902 H 360.863 -0.258712 4.24512 0
M  V30 3903 N 359.178 -1.55987 0.224894 0
M  V30 3904 C 360.141 -2.19178 -0.670348 0
M  V30 3905 C 361.141 -1.15461 -1.11917 0
M  V30 3906 O 362.331 -1.40675 -1.02743 0
M  V30 3907 C 359.463 -2.81777 -1.9187 0
M  V30 3908 H 360.656 -2.99662 -0.119364 0
M  V30 3909 H 358.209 -1.5628 -0.0247128 0
M  V30 3910 H 358.944 -2.05172 -2.51147 0
M  V30 3911 H 358.729 -3.57732 -1.60531 0
M  V30 3912 H 360.219 -3.30205 -2.55645 0
M  V30 3913 N 360.656 0.0484629 -1.57525 0
M  V30 3914 C 361.881 0.759177 -1.93006 0
M  V30 3915 C 362.306 1.69125 -0.823317 0
M  V30 3916 O 361.664 1.79931 0.222364 0
M  V30 3917 C 361.712 1.50899 -3.27509 0
M  V30 3918 O 360.816 2.62112 -3.18388 0
M  V30 3919 H 360.157 0.205564 -0.631379 0
M  V30 3920 H 362.687 0.00972959 -2.04598 0
M  V30 3921 H 362.697 1.88317 -3.6194 0
M  V30 3922 H 361.372 0.825269 -4.0763 0
M  V30 3923 H 359.949 2.27379 -2.95556 0
M  V30 3924 N 362.134 1.5431 0.320358 0
M  V30 3925 C 363.38 1.72924 1.05949 0
M  V30 3926 C 363.713 0.503185 1.87568 0
M  V30 3927 O 362.988 -0.499839 1.87968 0
M  V30 3928 C 363.271 3.00676 1.98156 0
M  V30 3929 C 363.124 4.3354 1.19845 0
M  V30 3930 C 364.443 3.24198 2.9763 0
M  V30 3931 H 361.562 0.629195 0.383774 0
M  V30 3932 H 364.204 1.87008 0.335854 0
M  V30 3933 H 362.354 2.888 2.59859 0
M  V30 3934 H 364.026 4.57305 0.605773 0
M  V30 3935 H 362.269 4.309 0.500784 0
M  V30 3936 H 362.94 5.19156 1.87567 0
M  V30 3937 H 365.416 3.35557 2.4605 0
M  V30 3938 H 364.292 4.14938 3.59329 0
M  V30 3939 H 364.553 2.41577 3.7026 0
M  V30 3940 N 363.613 -0.582584 1.46437 0
M  V30 3941 C 364.56 -1.69164 1.5701 0
M  V30 3942 C 365.53 -1.60847 0.414403 0
M  V30 3943 O 366.715 -1.80058 0.631171 0
M  V30 3944 C 363.855 -3.075 1.56646 0
M  V30 3945 C 362.968 -3.2644 2.82951 0
M  V30 3946 C 362.103 -4.55026 2.7409 0
M  V30 3947 C 361.142 -4.6731 3.95333 0
M  V30 3948 N 360.279 -5.87221 3.84858 0
M  V30 3949 H 365.119 -1.59464 2.51744 0
M  V30 3950 H 362.656 -0.777186 1.24893 0
M  V30 3951 H 364.614 -3.8757 1.5442 0
M  V30 3952 H 363.244 -3.16096 0.654439 0
M  V30 3953 H 362.296 -2.39974 2.95155 0
M  V30 3954 H 363.608 -3.31385 3.72808 0
M  V30 3955 H 362.762 -5.43324 2.6997 0
M  V30 3956 H 361.501 -4.52519 1.81873 0
M  V30 3957 H 360.506 -3.77429 3.99784 0
M  V30 3958 H 361.731 -4.71595 4.88646 0
M  V30 3959 H 359.677 -5.85712 2.95427 0
M  V30 3960 H 359.594 -5.93435 4.6837 0
M  V30 3961 H 360.862 -6.7795 3.84713 0
M  V30 3962 N 365.091 -1.34144 -0.827227 0
M  V30 3963 C 366.054 -1.25264 -1.91942 0
M  V30 3964 C 367.054 -0.168866 -1.59911 0
M  V30 3965 O 368.244 -0.421198 -1.69031 0
M  V30 3966 C 365.376 -0.932952 -3.27885 0
M  V30 3967 H 366.569 -2.22357 -2.0124 0
M  V30 3968 H 364.122 -1.1837 -1.0207 0
M  V30 3969 H 364.857 0.0349917 -3.24281 0
M  V30 3970 H 364.642 -1.71682 -3.52516 0
M  V30 3971 H 366.132 -0.895874 -4.07877 0
M  V30 3972 N 366.569 1.04691 -1.17803 0
M  V30 3973 C 367.818 1.77176 -0.963931 0
M  V30 3974 C 368.131 1.88888 0.508015 0
M  V30 3975 O 369.337 2.58164 0.840465 0
M  V30 3976 C 367.793 3.18518 -1.67555 0
M  V30 3977 C 367.401 3.14919 -3.18637 0
M  V30 3978 C 369.145 3.95424 -1.54402 0
M  V30 3979 C 367.052 4.51081 -3.82466 0
M  V30 3980 H 365.982 0.664116 -0.357023 0
M  V30 3981 H 368.633 1.17303 -1.4111 0
M  V30 3982 H 367.015 3.78748 -1.15613 0
M  V30 3983 H 368.189 2.64178 -3.77554 0
M  V30 3984 H 366.504 2.51512 -3.31859 0
M  V30 3985 H 369.101 4.96106 -1.99456 0
M  V30 3986 H 369.444 4.13343 -0.495329 0
M  V30 3987 H 369.977 3.41754 -2.0359 0
M  V30 3988 H 366.716 4.38368 -4.87354 0
M  V30 3989 H 366.236 5.01951 -3.28337 0
M  V30 3990 H 367.915 5.2001 -3.84965 0
M  V30 3991 N 368.047 0.979072 1.23499 0
M  V30 3992 C 369.275 0.665202 1.95915 0
M  V30 3993 C 369.69 -0.767571 1.72493 0
M  V30 3994 O 369.047 -1.51635 1.01554 0
M  V30 3995 C 369.098 0.944438 3.48945 0
M  V30 3996 O 368.819 2.3209 3.71572 0
M  V30 3997 C 370.32 0.646336 4.38563 0
M  V30 3998 H 367.54 0.247218 0.623798 0
M  V30 3999 H 370.084 1.31009 1.57025 0
M  V30 4000 H 368.239 0.345575 3.85856 0
M  V30 4001 H 368.653 2.40957 4.65876 0
M  V30 4002 H 370.127 0.892091 5.44744 0
M  V30 4003 H 370.604 -0.419575 4.37191 0
M  V30 4004 H 371.21 1.22562 4.07258 0
M  V30 4005 N 369.525 -1.3858 0.750561 0
M  V30 4006 C 370.473 -2.32339 0.110162 0
M  V30 4007 C 371.467 -1.53864 -0.708674 0
M  V30 4008 O 372.673 -1.69417 -0.608112 0
M  V30 4009 H 369.048 -0.751812 0.0168275 0
M  V30 4010 H 371.019 -2.83959 0.917053 0
M  V30 4011 C 369.768 -3.39043 -0.771067 0
M  V30 4012 H 369.091 -3.99517 -0.150374 0
M  V30 4013 H 370.531 -4.07061 -1.1865 0
M  V30 4014 C 368.99 -2.77365 -1.91234 0
M  V30 4015 O 369.52 -2.66434 -3.00626 0
M  V30 4016 N 367.726 -2.35219 -1.70646 0
M  V30 4017 H 367.273 -2.4431 -0.81673 0
M  V30 4018 H 367.231 -1.94294 -2.47178 0
M  V30 4019 N 371.003 -0.499398 -1.49478 0
M  V30 4020 C 372.249 0.0457576 -2.02748 0
M  V30 4021 C 372.582 1.36793 -1.37846 0
M  V30 4022 O 371.857 1.87596 -0.513601 0
M  V30 4023 C 372.14 0.199986 -3.59544 0
M  V30 4024 C 371.993 -1.1452 -4.34977 0
M  V30 4025 C 373.312 0.94137 -4.29914 0
M  V30 4026 H 370.431 0.0151552 -0.736844 0
M  V30 4027 H 373.073 -0.650498 -1.78518 0
M  V30 4028 H 371.223 0.793007 -3.8032 0
M  V30 4029 H 372.895 -1.77697 -4.25701 0
M  V30 4030 H 371.138 -1.73488 -3.97598 0
M  V30 4031 H 371.809 -0.990607 -5.43039 0
M  V30 4032 H 374.285 0.43844 -4.13784 0
M  V30 4033 H 373.161 1.01812 -5.39375 0
M  V30 4034 H 373.422 1.98471 -3.95046 0
M  V30 4035 N 372.481 1.55866 -0.233164 0
M  V30 4036 C 373.428 2.20796 0.67215 0
M  V30 4037 C 374.398 1.16731 1.18166 0
M  V30 4038 O 375.583 1.45129 1.23864 0
M  V30 4039 C 372.723 2.90072 1.86955 0
M  V30 4040 C 371.836 4.08759 1.39786 0
M  V30 4041 C 370.971 4.65787 2.55374 0
M  V30 4042 C 370.01 5.76752 2.04998 0
M  V30 4043 N 369.147 6.28021 3.13901 0
M  V30 4044 H 373.987 2.9779 0.111749 0
M  V30 4045 H 371.524 1.47036 0.0434007 0
M  V30 4046 H 373.482 3.28428 2.57276 0
M  V30 4047 H 372.112 2.15575 2.40265 0
M  V30 4048 H 371.164 3.7581 0.589173 0
M  V30 4049 H 372.476 4.88906 0.98856 0
M  V30 4050 H 371.63 5.06646 3.33758 0
M  V30 4051 H 370.369 3.84828 2.99598 0
M  V30 4052 H 369.374 5.35383 1.25079 0
M  V30 4053 H 370.599 6.59553 1.61759 0
M  V30 4054 H 368.545 5.49971 3.57586 0
M  V30 4055 H 368.462 7.03323 2.7726 0
M  V30 4056 H 369.73 6.73538 3.92386 0
M  V30 4057 N 373.959 -0.0401083 1.57549 0
M  V30 4058 C 375.187 -0.745196 1.93014 0
M  V30 4059 C 375.602 -1.6948 0.831984 0
M  V30 4060 O 374.959 -1.81482 -0.192463 0
M  V30 4061 C 375.01 -1.51176 3.28372 0
M  V30 4062 O 374.731 -0.600284 4.33968 0
M  V30 4063 C 376.232 -2.315 3.78051 0
M  V30 4064 H 373.452 -0.210088 0.637263 0
M  V30 4065 H 375.996 -0.000924689 2.045 0
M  V30 4066 H 374.151 -2.20801 3.18317 0
M  V30 4067 H 374.565 -1.13669 5.12035 0
M  V30 4068 H 376.039 -2.80697 4.75303 0
M  V30 4069 H 376.516 -3.12436 3.08675 0
M  V30 4070 H 377.122 -1.66971 3.91153 0
M  V30 4071 N 375.437 -1.54477 -0.31217 0
M  V30 4072 C 376.683 -1.74417 -1.04644 0
M  V30 4073 C 377.038 -0.517641 -1.85306 0
M  V30 4074 O 376.331 0.489973 -1.85229 0
M  V30 4075 C 376.525 -2.967 -1.99258 0
M  V30 4076 C 376.354 -4.31128 -1.27901 0
M  V30 4077 C 375.124 -4.95087 -1.01079 0
M  V30 4078 C 377.322 -5.09662 -0.689119 0
M  V30 4079 N 375.304 -6.13322 -0.266323 0
M  V30 4080 C 376.675 -6.19952 -0.0768523 0
M  V30 4081 C 378.73 -4.94355 -0.593061 0
M  V30 4082 C 377.433 -7.16604 0.622165 0
M  V30 4083 C 379.459 -5.91328 0.0922792 0
M  V30 4084 C 378.821 -7.00978 0.693443 0
M  V30 4085 H 374.92 -0.69094 -0.366231 0
M  V30 4086 H 377.504 -1.91946 -0.326319 0
M  V30 4087 H 375.675 -2.80616 -2.68532 0
M  V30 4088 H 377.407 -3.05216 -2.65755 0
M  V30 4089 H 374.162 -4.55235 -1.30607 0
M  V30 4090 H 374.586 -6.76937 0.0920973 0
M  V30 4091 H 379.228 -4.09719 -1.04355 0
M  V30 4092 H 376.946 -8.0079 1.08445 0
M  V30 4093 H 380.532 -5.81562 0.166396 0
M  V30 4094 H 379.412 -7.74725 1.21533 0
M  V30 4095 N 376.915 0.57481 -1.46744 0
M  V30 4096 C 377.878 1.66533 -1.57478 0
M  V30 4097 C 378.878 1.54338 -0.451263 0
M  V30 4098 O 380.068 1.58814 -0.715813 0
M  V30 4099 C 377.2 3.05999 -1.50259 0
M  V30 4100 H 378.393 1.58372 -2.54673 0
M  V30 4101 H 375.946 0.793301 -1.34672 0
M  V30 4102 H 376.681 3.19709 -0.543725 0
M  V30 4103 H 376.466 3.16259 -2.31781 0
M  V30 4104 H 377.956 3.8537 -1.60872 0
M  V30 4105 N 378.394 1.34581 0.820102 0
M  V30 4106 C 379.324 1.29038 1.94606 0
M  V30 4107 C 380.305 0.1673 1.69275 0
M  V30 4108 O 381.49 0.360112 1.90832 0
M  V30 4109 C 378.62 1.04793 3.31113 0
M  V30 4110 C 377.574 2.13597 3.70891 0
M  V30 4111 C 376.9 1.74537 5.05412 0
M  V30 4112 C 378.2 3.55451 3.8269 0
M  V30 4113 H 379.894 2.23248 1.99501 0
M  V30 4114 H 377.44 1.0747 0.958449 0
M  V30 4115 H 379.393 0.995592 4.0947 0
M  V30 4116 H 378.117 0.0702565 3.26524 0
M  V30 4117 H 376.776 2.17905 2.9481 0
M  V30 4118 H 376.424 0.754226 4.97313 0
M  V30 4119 H 376.124 2.47361 5.32997 0
M  V30 4120 H 377.648 1.70803 5.86224 0
M  V30 4121 H 379.062 3.5354 4.51312 0
M  V30 4122 H 377.459 4.26922 4.21732 0
M  V30 4123 H 378.529 3.92587 2.84611 0
M  V30 4124 N 379.872 -1.04064 1.18357 0
M  V30 4125 C 381.149 -1.74252 0.888581 0
M  V30 4126 C 381.529 -2.02138 -0.60856 0
M  V30 4127 O 380.877 -1.66656 -1.56327 0
M  V30 4128 C 381.087 -3.0277 1.73584 0
M  V30 4129 C 382.435 -3.76506 1.96286 0
M  V30 4130 O 383.459 -3.12668 1.70637 0
M  V30 4131 O 382.318 -4.91243 2.39464 0
M  V30 4132 H 379.412 -0.758271 0.330082 0
M  V30 4133 H 381.958 -1.1013 1.2911 0
M  V30 4134 H 380.73 -2.78299 2.75073 0
M  V30 4135 H 380.353 -3.74631 1.33183 0
M  V30 4136 N 381.35 -0.985608 -1.22978 0
M  V30 4137 C 382.766 -0.695104 -1.43668 0
M  V30 4138 C 382.966 0.736866 -1.87543 0
M  V30 4139 O 382.022 1.50868 -2.02473 0
M  V30 4140 C 383.335 -1.69447 -2.48412 0
M  V30 4141 C 384.883 -1.70909 -2.62219 0
M  V30 4142 C 385.358 -2.6969 -3.70178 0
M  V30 4143 N 386.849 -2.6824 -3.77626 0
M  V30 4144 C 387.584 -3.41339 -4.60733 0
M  V30 4145 N 387.08 -4.24015 -5.4789 0
M  V30 4146 N 388.873 -3.30079 -4.54977 0
M  V30 4147 H 381.024 -1.91054 -0.928016 0
M  V30 4148 H 383.287 -0.823553 -0.469536 0
M  V30 4149 H 382.993 -2.7188 -2.23102 0
M  V30 4150 H 382.867 -1.48147 -3.46889 0
M  V30 4151 H 385.254 -0.691785 -2.86877 0
M  V30 4152 H 385.335 -1.96276 -1.6404 0
M  V30 4153 H 384.979 -3.71566 -3.46268 0
M  V30 4154 H 384.909 -2.41595 -4.67909 0
M  V30 4155 H 387.4 -2.08243 -3.15346 0
M  V30 4156 H 387.713 -4.76636 -6.08308 0
M  V30 4157 H 386.058 -4.28104 -5.47496 0
M  V30 4158 H 389.249 -2.64937 -3.85909 0
M  V30 4159 H 389.422 -3.87308 -5.19516 0
M  V30 4160 N 382.828 1.3818 -0.7579 0
M  V30 4161 C 383.738 2.3421 -0.135247 0
M  V30 4162 C 384.754 1.59487 0.695683 0
M  V30 4163 O 385.93 1.91657 0.618832 0
M  V30 4164 C 382.995 3.3862 0.744139 0
M  V30 4165 C 382.056 4.2918 -0.101658 0
M  V30 4166 C 381.289 5.28603 0.735851 0
M  V30 4167 O 381.512 5.35166 1.97366 0
M  V30 4168 O 380.446 6.01707 0.152372 0
M  V30 4169 H 384.272 2.8916 -0.928436 0
M  V30 4170 H 381.857 1.40101 -0.518855 0
M  V30 4171 H 383.739 4.02539 1.2466 0
M  V30 4172 H 382.414 2.86019 1.51575 0
M  V30 4173 H 381.321 3.68407 -0.650167 0
M  V30 4174 H 382.654 4.85048 -0.836024 0
M  V30 4175 N 384.306 0.507319 1.49211 0
M  V30 4176 C 385.552 -0.0350047 2.0277 0
M  V30 4177 C 385.885 -1.3606 1.38569 0
M  V30 4178 O 385.16 -1.87321 0.523542 0
M  V30 4179 C 385.443 -0.180916 3.59645 0
M  V30 4180 C 385.296 1.16825 4.34364 0
M  V30 4181 C 386.615 -0.918558 4.30407 0
M  V30 4182 H 383.734 -0.0112473 0.736914 0
M  V30 4183 H 386.376 0.659956 1.7817 0
M  V30 4184 H 384.526 -0.772826 3.80736 0
M  V30 4185 H 386.198 1.79952 4.24753 0
M  V30 4186 H 384.441 1.75594 3.96673 0
M  V30 4187 H 385.112 1.01939 5.42506 0
M  V30 4188 H 387.588 -0.41649 4.1401 0
M  V30 4189 H 386.464 -0.989505 5.39907 0
M  V30 4190 H 386.725 -1.96373 3.96093 0
M  V30 4191 N 385.784 -1.5574 0.241426 0
M  V30 4192 C 387.031 -1.9881 -0.384836 0
M  V30 4193 C 387.359 -1.12947 -1.58346 0
M  V30 4194 O 386.614 -0.178993 -1.9488 0
M  V30 4195 C 386.913 -3.47308 -0.843317 0
M  V30 4196 C 386.579 -4.50223 0.246946 0
M  V30 4197 C 385.241 -4.78088 0.546399 0
M  V30 4198 C 387.593 -5.11841 0.983282 0
M  V30 4199 C 384.921 -5.64846 1.58636 0
M  V30 4200 C 387.273 -5.99727 2.01272 0
M  V30 4201 C 385.937 -6.25927 2.31888 0
M  V30 4202 H 385.207 -0.727496 -0.140821 0
M  V30 4203 H 387.854 -1.8831 0.348106 0
M  V30 4204 H 386.159 -3.55112 -1.65537 0
M  V30 4205 H 387.856 -3.78017 -1.33806 0
M  V30 4206 H 384.446 -4.286 0.00340639 0
M  V30 4207 H 388.63 -4.90366 0.765182 0
M  V30 4208 H 383.886 -5.83403 1.82896 0
M  V30 4209 H 388.06 -6.46517 2.58823 0
M  V30 4210 H 385.687 -6.92949 3.12611 0
M  V30 4211 N 387.262 0.0317525 -1.57568 0
M  V30 4212 C 388.194 1.06073 -2.03178 0
M  V30 4213 C 389.207 1.32627 -0.944132 0
M  V30 4214 O 390.396 1.30162 -1.22148 0
M  V30 4215 C 387.496 2.40297 -2.38978 0
M  V30 4216 C 386.669 2.33137 -3.70089 0
M  V30 4217 C 385.728 3.49787 -3.9311 0
M  V30 4218 O 384.754 3.29403 -4.64201 0
M  V30 4219 N 385.956 4.71562 -3.38541 0
M  V30 4220 H 388.721 0.672006 -2.92069 0
M  V30 4221 H 386.282 0.219745 -1.60402 0
M  V30 4222 H 388.274 3.1705 -2.51518 0
M  V30 4223 H 386.844 2.71024 -1.55771 0
M  V30 4224 H 386.064 1.415 -3.67928 0
M  V30 4225 H 387.352 2.25493 -4.56104 0
M  V30 4226 H 386.75 4.91024 -2.80912 0
M  V30 4227 H 385.307 5.45689 -3.56464 0
M  V30 4228 N 388.74 1.54641 0.303973 0
M  V30 4229 C 389.688 1.86137 1.39484 0
M  V30 4230 C 390.682 0.734854 1.52631 0
M  V30 4231 O 391.888 0.918803 1.54784 0
M  V30 4232 H 388.263 0.590324 0.465856 0
M  V30 4233 H 390.234 2.77324 1.10154 0
M  V30 4234 C 388.983 2.12274 2.75382 0
M  V30 4235 H 388.306 2.98429 2.66046 0
M  V30 4236 H 389.746 2.38254 3.5073 0
M  V30 4237 C 388.205 0.920365 3.24085 0
M  V30 4238 O 388.735 0.139377 4.01458 0
M  V30 4239 N 386.941 0.726566 2.81371 0
M  V30 4240 H 386.488 1.36332 2.18567 0
M  V30 4241 H 386.446 -0.0763799 3.14307 0
M  V30 4242 N 390.218 -0.567019 1.47046 0
M  V30 4243 C 391.467 -1.32091 1.5243 0
M  V30 4244 C 391.78 -1.94704 0.187021 0
M  V30 4245 O 392.986 -2.7124 0.118771 0
M  V30 4246 C 391.442 -2.39479 2.68659 0
M  V30 4247 C 391.05 -1.831 4.08874 0
M  V30 4248 C 392.794 -3.16111 2.83327 0
M  V30 4249 C 390.701 -2.8821 5.16419 0
M  V30 4250 H 389.631 -0.496629 0.56734 0
M  V30 4251 H 392.282 -0.603354 1.73297 0
M  V30 4252 H 390.664 -3.14105 2.41152 0
M  V30 4253 H 391.838 -1.14913 4.46242 0
M  V30 4254 H 390.153 -1.19085 3.99008 0
M  V30 4255 H 392.75 -3.94585 3.60842 0
M  V30 4256 H 393.093 -3.69686 1.91411 0
M  V30 4257 H 393.626 -2.48595 3.10556 0
M  V30 4258 H 390.365 -2.39504 6.10179 0
M  V30 4259 H 389.885 -3.54839 4.8358 0
M  V30 4260 H 391.564 -3.51881 5.42945 0
M  V30 4261 N 391.696 -1.35014 -0.812953 0
M  V30 4262 C 392.629 -1.21761 -1.93001 0
M  V30 4263 C 393.607 -0.10694 -1.62248 0
M  V30 4264 O 394.791 -0.273891 -1.865 0
M  V30 4265 C 391.918 -0.873404 -3.27245 0
M  V30 4266 C 390.964 -1.99523 -3.76952 0
M  V30 4267 S 391.797 -3.61009 -3.95516 0
M  V30 4268 C 392.953 -3.28651 -5.32672 0
M  V30 4269 H 393.186 -2.16315 -2.03948 0
M  V30 4270 H 390.719 -1.20156 -0.969631 0
M  V30 4271 H 392.677 -0.68161 -4.04802 0
M  V30 4272 H 391.338 0.053971 -3.14054 0
M  V30 4273 H 390.531 -1.70838 -4.74163 0
M  V30 4274 H 390.133 -2.14503 -3.06373 0
M  V30 4275 H 392.425 -2.81085 -6.1644 0
M  V30 4276 H 393.368 -4.25039 -5.66346 0
M  V30 4277 H 393.776 -2.6458 -4.98656 0
M  V30 4278 N 393.175 1.03435 -1.18907 0
M  V30 4279 C 394.591 1.28973 -0.940111 0
M  V30 4280 C 394.791 1.97676 0.390691 0
M  V30 4281 O 393.847 2.26127 1.12352 0
M  V30 4282 C 395.16 2.14221 -2.11021 0
M  V30 4283 C 396.708 2.27547 -2.14922 0
M  V30 4284 C 397.183 3.16164 -3.31367 0
M  V30 4285 N 398.674 3.23752 -3.31269 0
M  V30 4286 C 399.409 3.92495 -4.18014 0
M  V30 4287 N 398.905 4.63515 -5.14904 0
M  V30 4288 N 400.698 3.88838 -4.05908 0
M  V30 4289 H 392.849 0.57252 -2.04538 0
M  V30 4290 H 395.112 0.315184 -0.894071 0
M  V30 4291 H 394.818 1.71054 -3.073 0
M  V30 4292 H 394.692 3.14919 -2.0762 0
M  V30 4293 H 397.079 2.69947 -1.19217 0
M  V30 4294 H 397.16 1.26418 -2.22378 0
M  V30 4295 H 396.804 2.74474 -4.27348 0
M  V30 4296 H 396.734 4.17339 -3.21148 0
M  V30 4297 H 399.225 2.73167 -2.61129 0
M  V30 4298 H 399.538 5.13583 -5.77453 0
M  V30 4299 H 397.883 4.62398 -5.18857 0
M  V30 4300 H 401.074 3.32491 -3.29495 0
M  V30 4301 H 401.247 4.4214 -4.73726 0
M  V30 4302 N 394.653 0.992116 1.22453 0
M  V30 4303 C 396.069 0.702713 1.43297 0
M  V30 4304 C 396.269 -0.726909 1.87932 0
M  V30 4305 O 395.325 -1.49792 2.0327 0
M  V30 4306 C 396.638 1.70762 2.47509 0
M  V30 4307 C 398.186 1.72298 2.61309 0
M  V30 4308 C 398.661 2.71649 3.68742 0
M  V30 4309 N 400.152 2.70239 3.76199 0
M  V30 4310 C 400.887 3.43778 4.58917 0
M  V30 4311 N 400.383 4.26914 5.45633 0
M  V30 4312 N 402.176 3.32487 4.5322 0
M  V30 4313 H 394.327 1.91543 0.917871 0
M  V30 4314 H 396.59 0.826031 0.465162 0
M  V30 4315 H 396.296 2.73059 2.21657 0
M  V30 4316 H 396.17 1.49985 3.46099 0
M  V30 4317 H 398.557 0.706989 2.86506 0
M  V30 4318 H 398.638 1.97143 1.62997 0
M  V30 4319 H 398.282 3.73397 3.44292 0
M  V30 4320 H 398.212 2.44074 4.66622 0
M  V30 4321 H 400.703 2.09912 3.14237 0
M  V30 4322 H 401.016 4.79855 6.05771 0
M  V30 4323 H 399.361 4.31002 5.45218 0
M  V30 4324 H 402.552 2.6698 3.84499 0
M  V30 4325 H 402.725 3.90058 5.17454 0
M  V30 4326 N 396.131 -1.37776 0.765217 0
M  V30 4327 C 397.359 -2.04124 0.337767 0
M  V30 4328 C 397.774 -1.57715 -1.03785 0
M  V30 4329 O 397.131 -0.755447 -1.6613 0
M  V30 4330 C 397.182 -3.59658 0.364442 0
M  V30 4331 O 396.903 -4.04367 1.68579 0
M  V30 4332 C 398.404 -4.43236 -0.0754221 0
M  V30 4333 H 395.624 -0.655696 0.142491 0
M  V30 4334 H 398.168 -1.76238 1.03732 0
M  V30 4335 H 396.323 -3.86339 -0.286471 0
M  V30 4336 H 396.737 -4.98857 1.61993 0
M  V30 4337 H 398.211 -5.52 -0.00560067 0
M  V30 4338 H 398.688 -4.2455 -1.12491 0
M  V30 4339 H 399.294 -4.21767 0.547055 0
M  V30 4340 N 397.609 -0.515225 -1.4894 0
M  V30 4341 C 398.572 0.244681 -2.2789 0
M  V30 4342 C 399.572 0.881166 -1.34507 0
M  V30 4343 O 400.762 0.743497 -1.57537 0
M  V30 4344 C 397.894 1.35247 -3.12923 0
M  V30 4345 H 399.087 -0.448289 -2.96531 0
M  V30 4346 H 396.64 -0.270656 -1.53939 0
M  V30 4347 H 397.375 2.07916 -2.48881 0
M  V30 4348 H 397.16 0.901374 -3.81599 0
M  V30 4349 H 398.65 1.88737 -3.72516 0
M  V30 4350 N 399.087 1.5561 -0.249682 0
M  V30 4351 C 400.019 2.18834 0.681496 0
M  V30 4352 C 401.032 1.16546 1.1367 0
M  V30 4353 O 402.221 1.43397 1.06299 0
M  V30 4354 C 399.321 2.77992 1.9384 0
M  V30 4355 C 398.494 4.05725 1.63419 0
M  V30 4356 C 397.553 4.49174 2.74096 0
M  V30 4357 O 396.579 5.15492 2.41364 0
M  V30 4358 N 397.781 4.17191 4.03649 0
M  V30 4359 H 400.546 2.9937 0.140514 0
M  V30 4360 H 398.107 1.6175 -0.0697541 0
M  V30 4361 H 400.099 3.04015 2.67127 0
M  V30 4362 H 398.669 2.01596 2.38909 0
M  V30 4363 H 397.889 3.87261 0.736358 0
M  V30 4364 H 399.177 4.88999 1.40562 0
M  V30 4365 H 398.575 3.63955 4.33074 0
M  V30 4366 H 397.132 4.48043 4.73393 0
M  V30 4367 N 400.565 -0.0233959 1.57583 0
M  V30 4368 C 401.528 -1.00693 2.05897 0
M  V30 4369 C 402.528 -1.28693 0.964092 0
M  V30 4370 O 403.718 -1.23602 1.22753 0
M  V30 4371 C 400.85 -2.33825 2.4807 0
M  V30 4372 H 402.043 -0.589476 2.9405 0
M  V30 4373 H 399.596 -0.270354 1.53944 0
M  V30 4374 H 400.331 -2.80307 1.6309 0
M  V30 4375 H 400.116 -2.1483 3.2801 0
M  V30 4376 H 401.606 -3.04426 2.85857 0
M  V30 4377 N 402.043 -1.548 -0.295768 0
M  V30 4378 C 403.459 -1.4613 -0.641722 0
M  V30 4379 C 403.659 -0.656771 -1.90496 0
M  V30 4380 O 402.715 -0.166547 -2.5195 0
M  V30 4381 C 404.028 -2.90141 -0.789852 0
M  V30 4382 C 405.576 -3.00216 -0.885396 0
M  V30 4383 C 406.051 -4.45434 -1.06548 0
M  V30 4384 N 407.542 -4.49166 -1.13156 0
M  V30 4385 C 408.277 -5.58717 -1.28929 0
M  V30 4386 N 407.773 -6.78182 -1.41567 0
M  V30 4387 N 409.566 -5.46415 -1.31859 0
M  V30 4388 H 401.717 -2.05574 0.534147 0
M  V30 4389 H 403.98 -0.931259 0.177372 0
M  V30 4390 H 403.686 -3.51635 0.0675598 0
M  V30 4391 H 403.56 -3.37859 -1.67724 0
M  V30 4392 H 405.947 -2.38833 -1.73329 0
M  V30 4393 H 406.028 -2.55787 0.0261185 0
M  V30 4394 H 405.672 -5.07413 -0.222335 0
M  V30 4395 H 405.602 -4.87499 -1.9913 0
M  V30 4396 H 408.093 -3.631 -1.04721 0
M  V30 4397 H 408.406 -7.57428 -1.53372 0
M  V30 4398 H 406.751 -6.81037 -1.38613 0
M  V30 4399 H 409.942 -4.5203 -1.21601 0
M  V30 4400 H 410.115 -6.31841 -1.43808 0
M  V30 4401 N 403.521 0.559213 -1.47345 0
M  V30 4402 C 404.798 1.31997 -1.44348 0
M  V30 4403 C 405.178 2.1064 -0.139358 0
M  V30 4404 O 404.526 2.1091 0.879153 0
M  V30 4405 C 404.736 2.22618 -2.68779 0
M  V30 4406 C 406.084 2.83701 -3.1591 0
M  V30 4407 O 407.108 2.32921 -2.69493 0
M  V30 4408 O 405.967 3.75993 -3.966 0
M  V30 4409 H 403.061 0.594251 -0.575147 0
M  V30 4410 H 405.607 0.578282 -1.59543 0
M  V30 4411 H 404.379 1.64093 -3.55231 0
M  V30 4412 H 404.002 3.04085 -2.5616 0
M  V30 4413 N 404.999 1.35443 0.805782 0
M  V30 4414 C 405.909 1.30546 1.94923 0
M  V30 4415 C 406.925 0.210233 1.72725 0
M  V30 4416 O 408.101 0.43975 1.9654 0
M  V30 4417 C 405.166 1.07782 3.29521 0
M  V30 4418 C 404.227 2.26625 3.64609 0
M  V30 4419 C 403.46 2.04938 4.92784 0
M  V30 4420 O 403.683 1.01624 5.61274 0
M  V30 4421 O 402.617 2.9232 5.26149 0
M  V30 4422 H 406.443 2.26779 2.02002 0
M  V30 4423 H 404.028 1.15823 0.943682 0
M  V30 4424 H 405.91 0.969392 4.10098 0
M  V30 4425 H 404.585 0.146003 3.23371 0
M  V30 4426 H 403.492 2.43033 2.84404 0
M  V30 4427 H 404.825 3.18257 3.75464 0
M  V30 4428 N 406.477 -1.02803 1.19454 0
M  V30 4429 C 407.409 -2.11181 0.890807 0
M  V30 4430 C 408.422 -1.6238 -0.116829 0
M  V30 4431 O 409.611 -1.78144 0.112694 0
M  V30 4432 C 406.711 -3.37461 0.311942 0
M  V30 4433 C 405.884 -4.15446 1.36834 0
M  V30 4434 C 404.943 -5.20039 0.802864 0
M  V30 4435 O 403.969 -5.49602 1.48077 0
M  V30 4436 N 405.171 -5.79165 -0.393417 0
M  V30 4437 H 407.936 -2.37827 1.82369 0
M  V30 4438 H 405.497 -1.19101 1.09666 0
M  V30 4439 H 407.489 -4.0462 -0.0802225 0
M  V30 4440 H 406.059 -3.08156 -0.52524 0
M  V30 4441 H 405.279 -3.43423 1.93531 0
M  V30 4442 H 406.567 -4.64335 2.08015 0
M  V30 4443 H 405.965 -5.57466 -0.961658 0
M  V30 4444 H 404.522 -6.47729 -0.727351 0
M  V30 4445 N 407.956 -0.998596 -1.21925 0
M  V30 4446 C 409.186 -0.695276 -1.94549 0
M  V30 4447 C 409.594 0.745079 -1.73911 0
M  V30 4448 O 408.937 1.51507 -1.03881 0
M  V30 4449 C 408.999 -0.928485 -3.47303 0
M  V30 4450 C 408.663 -2.35443 -3.91683 0
M  V30 4451 C 409.66 -3.33428 -3.98901 0
M  V30 4452 C 407.345 -2.69038 -4.24174 0
M  V30 4453 C 409.339 -4.63079 -4.37992 0
M  V30 4454 C 407.026 -3.98906 -4.62944 0
M  V30 4455 C 408.024 -4.95738 -4.69822 0
M  V30 4456 O 407.712 -6.23285 -5.07711 0
M  V30 4457 H 407.444 -0.255902 -0.625692 0
M  V30 4458 H 409.998 -1.33767 -1.5587 0
M  V30 4459 H 408.228 -0.228917 -3.86022 0
M  V30 4460 H 409.917 -0.619539 -4.01144 0
M  V30 4461 H 410.683 -3.08807 -3.73983 0
M  V30 4462 H 406.562 -1.94367 -4.18022 0
M  V30 4463 H 410.106 -5.38658 -4.43275 0
M  V30 4464 H 406.003 -4.23314 -4.87314 0
M  V30 4465 H 406.771 -6.27306 -5.25766 0
M  V30 4466 N 409.434 1.37368 -0.772513 0
M  V30 4467 C 410.85 1.53059 -0.452231 0
M  V30 4468 C 411.05 1.73065 1.03203 0
M  V30 4469 O 410.106 1.75245 1.81784 0
M  V30 4470 C 411.419 2.72659 -1.26797 0
M  V30 4471 C 412.967 2.86521 -1.25995 0
M  V30 4472 C 413.442 4.09105 -2.05905 0
M  V30 4473 N 414.933 4.16219 -2.03263 0
M  V30 4474 C 415.668 5.10107 -2.61875 0
M  V30 4475 N 415.164 6.09547 -3.29278 0
M  V30 4476 N 416.957 5.02596 -2.51701 0
M  V30 4477 H 409.108 1.22634 -1.7342 0
M  V30 4478 H 411.371 0.597206 -0.736239 0
M  V30 4479 H 411.077 2.64343 -2.31982 0
M  V30 4480 H 410.951 3.66363 -0.897672 0
M  V30 4481 H 413.338 2.94308 -0.216081 0
M  V30 4482 H 413.419 1.93774 -1.66989 0
M  V30 4483 H 413.063 4.0208 -3.10313 0
M  V30 4484 H 412.993 5.00968 -1.62292 0
M  V30 4485 H 415.484 3.45012 -1.54192 0
M  V30 4486 H 415.797 6.77718 -3.71374 0
M  V30 4487 H 414.142 6.09824 -3.33377 0
M  V30 4488 H 417.333 4.23855 -1.98657 0
M  V30 4489 H 417.506 5.75582 -2.97673 0
M  V30 4490 N 410.912 0.523116 1.48665 0
M  V30 4491 C 411.86 -0.256859 2.31177 0
M  V30 4492 C 412.854 -0.94199 1.40794 0
M  V30 4493 O 414.06 -0.867157 1.57735 0
M  V30 4494 H 410.435 -0.1017 0.745091 0
M  V30 4495 H 412.406 0.458739 2.94853 0
M  V30 4496 C 411.155 -1.29503 3.22683 0
M  V30 4497 H 410.478 -0.777248 3.92172 0
M  V30 4498 H 411.918 -1.81233 3.83315 0
M  V30 4499 C 410.377 -2.32501 2.43813 0
M  V30 4500 O 410.907 -3.3881 2.15803 0
M  V30 4501 N 409.113 -2.05538 2.05432 0
M  V30 4502 H 408.66 -1.19104 2.28412 0
M  V30 4503 H 408.618 -2.74676 1.52973 0
M  V30 4504 N 412.39 -1.55475 0.257931 0
M  V30 4505 C 413.637 -1.99207 -0.363728 0
M  V30 4506 C 413.965 -1.1462 -1.57139 0
M  V30 4507 O 413.22 -0.199653 -1.94679 0
M  V30 4508 C 413.519 -3.48183 -0.806433 0
M  V30 4509 C 413.185 -4.49936 0.294684 0
M  V30 4510 C 411.847 -4.77481 0.597076 0
M  V30 4511 C 414.199 -5.10769 1.03751 0
M  V30 4512 C 411.527 -5.63132 1.64618 0
M  V30 4513 C 413.879 -5.97558 2.07622 0
M  V30 4514 C 412.543 -6.23432 2.38514 0
M  V30 4515 H 411.813 -0.728949 -0.133097 0
M  V30 4516 H 414.46 -1.8793 0.368059 0
M  V30 4517 H 412.765 -3.56848 -1.61761 0
M  V30 4518 H 414.462 -3.79415 -1.29789 0
M  V30 4519 H 411.052 -4.28572 0.0488649 0
M  V30 4520 H 415.236 -4.89527 0.817149 0
M  V30 4521 H 410.492 -5.8143 1.89074 0
M  V30 4522 H 414.666 -6.43735 2.65666 0
M  V30 4523 H 412.293 -6.89594 3.19943 0
M  V30 4524 N 413.868 0.0150385 -1.57593 0
M  V30 4525 C 414.798 1.01047 -2.10503 0
M  V30 4526 C 415.779 1.36816 -1.01071 0
M  V30 4527 O 416.964 1.45455 -1.28672 0
M  V30 4528 C 414.094 2.30708 -2.59598 0
M  V30 4529 C 413.048 2.09142 -3.73421 0
M  V30 4530 C 412.374 3.44685 -4.08774 0
M  V30 4531 C 413.674 1.46619 -5.01298 0
M  V30 4532 H 415.368 0.569978 -2.93925 0
M  V30 4533 H 412.914 0.272724 -1.41394 0
M  V30 4534 H 414.867 3.00687 -2.95238 0
M  V30 4535 H 413.591 2.76843 -1.73279 0
M  V30 4536 H 412.25 1.41592 -3.38153 0
M  V30 4537 H 411.898 3.88495 -3.195 0
M  V30 4538 H 411.598 3.31077 -4.8545 0
M  V30 4539 H 413.122 4.16004 -4.4696 0
M  V30 4540 H 414.536 2.06535 -5.34805 0
M  V30 4541 H 412.933 1.43544 -5.82679 0
M  V30 4542 H 414.003 0.433611 -4.82957 0
M  V30 4543 N 415.346 1.54954 0.287554 0
M  V30 4544 C 416.762 1.46469 0.633964 0
M  V30 4545 C 416.962 0.666865 1.90145 0
M  V30 4546 O 416.018 0.179906 2.51858 0
M  V30 4547 C 417.331 2.90556 0.774454 0
M  V30 4548 C 418.879 3.00681 0.869462 0
M  V30 4549 C 419.354 4.45993 1.04184 0
M  V30 4550 N 420.845 4.4976 1.10772 0
M  V30 4551 C 421.58 5.59393 1.25964 0
M  V30 4552 N 421.076 6.78923 1.37968 0
M  V30 4553 N 422.869 5.47107 1.28959 0
M  V30 4554 H 415.02 2.05288 -0.545041 0
M  V30 4555 H 417.283 0.930305 -0.182308 0
M  V30 4556 H 416.989 3.51594 -0.086207 0
M  V30 4557 H 416.863 3.38743 1.6593 0
M  V30 4558 H 419.25 2.39749 1.7206 0
M  V30 4559 H 419.331 2.55769 -0.0396831 0
M  V30 4560 H 418.975 5.07524 0.195422 0
M  V30 4561 H 418.905 4.88548 1.96542 0
M  V30 4562 H 421.396 3.63651 1.02794 0
M  V30 4563 H 421.709 7.58231 1.49353 0
M  V30 4564 H 420.054 6.81763 1.34999 0
M  V30 4565 H 423.245 4.52668 1.19202 0
M  V30 4566 H 423.418 6.32595 1.40455 0
M  V30 4567 N 416.824 -0.551391 1.4764 0
M  V30 4568 C 418.049 -1.33837 1.58437 0
M  V30 4569 C 418.474 -1.866 0.237063 0
M  V30 4570 O 417.832 -1.6328 -0.787994 0
M  V30 4571 C 417.88 -2.48014 2.61766 0
M  V30 4572 O 416.984 -3.50419 2.1744 0
M  V30 4573 H 416.325 -0.397299 0.532024 0
M  V30 4574 H 418.855 -0.665759 1.93465 0
M  V30 4575 H 418.865 -2.94503 2.82369 0
M  V30 4576 H 417.54 -2.08969 3.5959 0
M  V30 4577 H 416.117 -3.10196 2.06961 0
M  V30 4578 N 418.302 -1.35869 -0.798587 0
M  V30 4579 C 419.548 -1.2978 -1.55836 0
M  V30 4580 C 419.881 0.125322 -1.93795 0
M  V30 4581 O 419.156 1.07658 -1.61987 0
M  V30 4582 C 419.439 -2.21188 -2.84162 0
M  V30 4583 C 419.292 -3.72155 -2.52628 0
M  V30 4584 C 420.611 -2.11545 -3.85923 0
M  V30 4585 H 417.73 -0.472769 -0.565383 0
M  V30 4586 H 420.372 -1.66341 -0.918192 0
M  V30 4587 H 418.522 -1.90139 -3.38791 0
M  V30 4588 H 420.194 -4.13682 -2.04121 0
M  V30 4589 H 418.437 -3.92042 -1.85704 0
M  V30 4590 H 419.108 -4.31511 -3.44242 0
M  V30 4591 H 421.584 -2.38855 -3.40716 0
M  V30 4592 H 420.46 -2.77688 -4.73477 0
M  V30 4593 H 420.721 -1.09987 -4.282 0
M  V30 4594 N 419.78 1.02168 -1.19998 0
M  V30 4595 C 421.005 1.79833 -1.03319 0
M  V30 4596 C 421.43 1.83504 0.413281 0
M  V30 4597 O 420.788 1.26635 1.29743 0
M  V30 4598 C 420.836 3.22396 -1.61533 0
M  V30 4599 O 419.94 4.03555 -0.849519 0
M  V30 4600 H 419.281 0.554872 -0.364709 0
M  V30 4601 H 421.811 1.28542 -1.59179 0
M  V30 4602 H 421.821 3.73124 -1.65054 0
M  V30 4603 H 420.496 3.19039 -2.66809 0
M  V30 4604 H 419.073 3.62169 -0.888129 0
M  V30 4605 N 421.258 1.00505 1.21394 0
M  V30 4606 C 422.188 0.585684 2.26035 0
M  V30 4607 C 423.169 -0.393525 1.65485 0
M  V30 4608 O 424.354 -0.281497 1.92149 0
M  V30 4609 C 421.484 -0.0884283 3.47187 0
M  V30 4610 C 420.438 0.810567 4.20254 0
M  V30 4611 C 419.764 0.00286382 5.347 0
M  V30 4612 C 421.064 2.1132 4.77641 0
M  V30 4613 H 422.758 1.46039 2.61368 0
M  V30 4614 H 420.304 0.703648 1.25638 0
M  V30 4615 H 422.257 -0.393286 4.19561 0
M  V30 4616 H 420.981 -0.997766 3.10986 0
M  V30 4617 H 419.64 1.09925 3.49731 0
M  V30 4618 H 419.288 -0.907765 4.94741 0
M  V30 4619 H 418.988 0.601444 5.84514 0
M  V30 4620 H 420.512 -0.295808 6.09883 0
M  V30 4621 H 421.926 1.87148 5.41893 0
M  V30 4622 H 420.323 2.66164 5.37845 0
M  V30 4623 H 421.393 2.78393 3.9702 0
M  V30 4624 N 422.737 -1.36956 0.779787 0
M  V30 4625 C 423.667 -2.32761 0.185651 0
M  V30 4626 C 424.648 -1.56177 -0.673989 0
M  V30 4627 O 425.833 -1.84378 -0.609797 0
M  V30 4628 C 422.963 -3.40418 -0.687964 0
M  V30 4629 C 421.917 -4.27941 0.0710102 0
M  V30 4630 C 421.243 -5.26681 -0.922573 0
M  V30 4631 C 422.543 -5.07006 1.25467 0
M  V30 4632 H 424.237 -2.82698 0.986008 0
M  V30 4633 H 421.783 -1.3592 0.475592 0
M  V30 4634 H 423.736 -4.06423 -1.11348 0
M  V30 4635 H 422.46 -2.89025 -1.52093 0
M  V30 4636 H 421.119 -3.63478 0.47739 0
M  V30 4637 H 420.767 -4.71565 -1.7503 0
M  V30 4638 H 420.467 -5.86103 -0.419237 0
M  V30 4639 H 421.991 -5.9556 -1.34686 0
M  V30 4640 H 423.405 -5.66105 0.905401 0
M  V30 4641 H 421.802 -5.75793 1.69063 0
M  V30 4642 H 422.872 -4.3921 2.05481 0
M  V30 4643 N 424.215 -0.530993 -1.48385 0
M  V30 4644 C 425.162 0.231223 -2.29639 0
M  V30 4645 C 426.132 0.932864 -1.37429 0
M  V30 4646 O 427.317 0.933692 -1.66394 0
M  V30 4647 C 424.457 1.27155 -3.2082 0
M  V30 4648 C 423.57 0.578655 -4.28107 0
M  V30 4649 C 422.705 1.602 -5.06467 0
M  V30 4650 C 421.744 0.892625 -6.05556 0
M  V30 4651 N 420.881 1.86157 -6.76971 0
M  V30 4652 H 425.721 -0.467848 -2.94305 0
M  V30 4653 H 423.258 -0.242556 -1.45086 0
M  V30 4654 H 425.216 1.88703 -3.72085 0
M  V30 4655 H 423.846 1.939 -2.58075 0
M  V30 4656 H 422.898 -0.150782 -3.80101 0
M  V30 4657 H 424.21 0.0217065 -4.98795 0
M  V30 4658 H 423.364 2.29173 -5.61751 0
M  V30 4659 H 422.103 2.19285 -4.35621 0
M  V30 4660 H 421.108 0.188829 -5.49476 0
M  V30 4661 H 422.333 0.307878 -6.78402 0
M  V30 4662 H 420.279 2.44147 -6.08875 0
M  V30 4663 H 420.196 1.35608 -7.43738 0
M  V30 4664 H 421.464 2.54325 -7.36844 0
M  V30 4665 N 425.693 1.55336 -0.266172 0
M  V30 4666 C 426.641 2.23587 0.641228 0
M  V30 4667 C 427.635 1.22986 1.16494 0
M  V30 4668 O 428.841 1.40943 1.1196 0
M  V30 4669 H 425.216 0.717452 0.225315 0
M  V30 4670 H 427.187 2.9837 0.0426561 0
M  V30 4671 C 425.936 2.96369 1.81826 0
M  V30 4672 H 425.259 3.73563 1.42445 0
M  V30 4673 H 426.699 3.47459 2.42998 0
M  V30 4674 C 425.158 2.0133 2.70125 0
M  V30 4675 O 425.688 1.55875 3.70224 0
M  V30 4676 N 423.894 1.6802 2.37102 0
M  V30 4677 H 423.441 2.05181 1.55751 0
M  V30 4678 H 423.399 1.047 2.96454 0
M  V30 4679 N 427.171 -0.0066808 1.57599 0
M  V30 4680 C 428.101 -0.999296 2.11036 0
M  V30 4681 C 429.082 -1.36278 1.01795 0
M  V30 4682 O 430.267 -1.4477 1.29442 0
M  V30 4683 C 427.397 -2.29328 2.60818 0
M  V30 4684 C 426.351 -2.07159 3.74525 0
M  V30 4685 C 425.677 -3.42512 4.10596 0
M  V30 4686 C 426.977 -1.43959 5.02069 0
M  V30 4687 H 428.671 -0.554382 2.94223 0
M  V30 4688 H 426.217 -0.265221 1.41536 0
M  V30 4689 H 428.17 -2.99117 2.96828 0
M  V30 4690 H 426.894 -2.7592 1.74745 0
M  V30 4691 H 425.553 -1.39797 3.38899 0
M  V30 4692 H 425.201 -3.86795 3.21556 0
M  V30 4693 H 424.901 -3.28498 4.87199 0
M  V30 4694 H 426.425 -4.13628 4.4916 0
M  V30 4695 H 427.839 -2.03696 5.35893 0
M  V30 4696 H 426.236 -1.40452 5.83432 0
M  V30 4697 H 427.306 -0.407992 4.83181 0
M  V30 4698 N 428.649 -1.55105 -0.279332 0
M  V30 4699 C 430.06 -1.66186 -0.850832 0
M  V30 4700 C 430.411 -0.584707 -1.87285 0
M  V30 4701 O 429.536 0.274919 -2.14647 0
M  V30 4702 C 430.131 -3.01264 -1.55001 0
M  V30 4703 C 428.69 -3.14394 -2.06963 0
M  V30 4704 C 427.837 -2.61959 -0.909536 0
M  V30 4705 H 430.788 -1.58602 -0.0558235 0
M  V30 4706 H 430.809 -2.93899 -2.41669 0
M  V30 4707 H 430.321 -3.7964 -0.805931 0
M  V30 4708 H 428.422 -2.4078 -2.84352 0
M  V30 4709 H 428.535 -4.20867 -2.28928 0
M  V30 4710 H 426.899 -2.18957 -1.30116 0
M  V30 4711 H 427.682 -3.42833 -0.179062 0
M  V30 4712 N 430.127 0.543554 -1.4793 0
M  V30 4713 C 431.037 1.67657 -1.64098 0
M  V30 4714 C 432.053 1.65934 -0.523622 0
M  V30 4715 O 433.229 1.85133 -0.792943 0
M  V30 4716 C 430.294 3.04146 -1.66421 0
M  V30 4717 C 429.355 3.16831 -2.89684 0
M  V30 4718 C 428.588 4.46809 -2.91886 0
M  V30 4719 O 428.811 5.33095 -2.02895 0
M  V30 4720 O 427.745 4.63573 -3.83906 0
M  V30 4721 H 431.571 1.56957 -2.59997 0
M  V30 4722 H 429.156 0.715116 -1.31173 0
M  V30 4723 H 431.038 3.85346 -1.70548 0
M  V30 4724 H 429.713 3.152 -0.736923 0
M  V30 4725 H 428.62 2.34977 -2.91095 0
M  V30 4726 H 429.953 3.10687 -3.81752 0
M  V30 4727 N 431.605 1.3629 0.791371 0
M  V30 4728 C 432.882 1.20962 1.53712 0
M  V30 4729 C 433.262 -0.205021 2.10102 0
M  V30 4730 O 432.61 -1.21042 1.93807 0
M  V30 4731 C 432.82 2.29002 2.63361 0
M  V30 4732 C 434.168 2.65572 3.31295 0
M  V30 4733 O 435.192 2.2803 2.73643 0
M  V30 4734 O 434.051 3.3018 4.35481 0
M  V30 4735 H 431.145 0.47086 0.679867 0
M  V30 4736 H 433.691 1.48016 0.830021 0
M  V30 4737 H 432.463 3.2382 2.19674 0
M  V30 4738 H 432.086 2.03303 3.41692 0
M  V30 4739 N 433.083 -1.0153 1.20538 0
M  V30 4740 C 434.03 -2.10098 0.955383 0
M  V30 4741 C 435 -1.65702 -0.114878 0
M  V30 4742 O 436.185 -1.90776 0.0301118 0
M  V30 4743 C 433.325 -3.41236 0.514969 0
M  V30 4744 C 432.438 -3.99102 1.65353 0
M  V30 4745 C 431.573 -5.18306 1.16329 0
M  V30 4746 C 430.612 -5.68258 2.27485 0
M  V30 4747 N 429.749 -6.78722 1.7967 0
M  V30 4748 H 434.589 -2.30818 1.88486 0
M  V30 4749 H 432.126 -1.13189 0.939499 0
M  V30 4750 H 434.084 -4.16504 0.240935 0
M  V30 4751 H 432.714 -3.20585 -0.377512 0
M  V30 4752 H 431.766 -3.20918 2.04245 0
M  V30 4753 H 433.078 -4.32177 2.49047 0
M  V30 4754 H 432.232 -6.00782 0.845302 0
M  V30 4755 H 430.971 -4.86799 0.296254 0
M  V30 4756 H 429.976 -4.84385 2.60099 0
M  V30 4757 H 431.201 -6.01798 3.14667 0
M  V30 4758 H 429.147 -6.49042 0.95295 0
M  V30 4759 H 429.064 -7.10996 2.56944 0
M  V30 4760 H 430.332 -7.64759 1.50875 0
M  V30 4761 N 434.561 -1.01147 -1.20859 0
M  V30 4762 C 435.491 -0.597663 -2.25722 0
M  V30 4763 C 436.472 0.384744 -1.65692 0
M  V30 4764 O 437.657 0.271303 -1.92296 0
M  V30 4765 C 434.787 0.0700149 -3.47229 0
M  V30 4766 C 433.741 -0.832843 -4.19819 0
M  V30 4767 C 433.067 -0.0312202 -5.34691 0
M  V30 4768 C 434.367 -2.1385 -4.76514 0
M  V30 4769 H 436.061 -1.47423 -2.60589 0
M  V30 4770 H 433.607 -0.710301 -1.25263 0
M  V30 4771 H 435.56 0.37103 -4.19763 0
M  V30 4772 H 434.284 0.981259 -3.11511 0
M  V30 4773 H 432.943 -1.11778 -3.49144 0
M  V30 4774 H 432.591 0.881515 -4.95215 0
M  V30 4775 H 432.291 -0.632434 -5.84187 0
M  V30 4776 H 433.815 0.26346 -6.10031 0
M  V30 4777 H 435.229 -1.9002 -5.40893 0
M  V30 4778 H 433.626 -2.69012 -5.36426 0
M  V30 4779 H 434.696 -2.80495 -3.95538 0
M  V30 4780 N 436.039 1.36541 -0.78704 0
M  V30 4781 C 437.267 2.03561 -0.370199 0
M  V30 4782 C 437.682 1.59347 1.01263 0
M  V30 4783 O 437.039 0.781781 1.64907 0
M  V30 4784 C 437.09 3.59033 -0.421614 0
M  V30 4785 O 436.811 4.01634 -1.7499 0
M  V30 4786 C 438.312 4.433 0.00489763 0
M  V30 4787 H 435.532 0.653346 -0.152904 0
M  V30 4788 H 438.076 1.74566 -1.06522 0
M  V30 4789 H 436.231 3.86746 0.224971 0
M  V30 4790 H 436.645 4.96217 -1.69909 0
M  V30 4791 H 438.119 5.51939 -0.0822184 0
M  V30 4792 H 438.596 4.26285 1.05723 0
M  V30 4793 H 439.202 4.20843 -0.614085 0
M  V30 4794 N 437.518 0.538854 1.48102 0
M  V30 4795 C 438.465 -0.219042 2.29758 0
M  V30 4796 C 439.435 -0.925562 1.37922 0
M  V30 4797 O 440.62 -0.924855 1.66886 0
M  V30 4798 C 437.76 -1.25452 3.2149 0
M  V30 4799 C 436.873 -0.555943 4.28408 0
M  V30 4800 C 436.008 -1.57512 5.0731 0
M  V30 4801 C 435.047 -0.860498 6.06021 0
M  V30 4802 N 434.184 -1.82564 6.77949 0
M  V30 4803 H 439.024 0.483449 2.94052 0
M  V30 4804 H 436.561 0.250247 1.44956 0
M  V30 4805 H 438.519 -1.86727 3.7308 0
M  V30 4806 H 437.149 -1.92528 2.591 0
M  V30 4807 H 436.201 0.170938 3.80016 0
M  V30 4808 H 437.513 0.00474616 4.988 0
M  V30 4809 H 436.667 -2.26191 5.62959 0
M  V30 4810 H 435.406 -2.16972 4.36778 0
M  V30 4811 H 434.411 -0.159686 5.49568 0
M  V30 4812 H 435.636 -0.271897 6.78555 0
M  V30 4813 H 433.582 -2.40915 6.10161 0
M  V30 4814 H 433.499 -1.31662 7.44447 0
M  V30 4815 H 434.767 -2.50414 7.38182 0
M  V30 4816 N 438.996 -1.55193 0.274407 0
M  V30 4817 C 440.245 -1.98758 -0.343213 0
M  V30 4818 C 440.558 -1.16624 -1.5703 0
M  V30 4819 O 441.764 -1.5033 -2.26082 0
M  V30 4820 C 440.22 -3.53759 -0.661996 0
M  V30 4821 C 439.828 -4.4467 0.54524 0
M  V30 4822 C 441.572 -4.05916 -1.24228 0
M  V30 4823 C 439.479 -5.91058 0.201084 0
M  V30 4824 H 438.409 -0.742353 -0.132014 0
M  V30 4825 H 441.06 -1.79545 0.378948 0
M  V30 4826 H 439.442 -3.68772 -1.44304 0
M  V30 4827 H 440.616 -4.41426 1.32212 0
M  V30 4828 H 438.931 -4.03143 1.04232 0
M  V30 4829 H 441.528 -5.12831 -1.51357 0
M  V30 4830 H 441.871 -3.54908 -2.17592 0
M  V30 4831 H 442.404 -3.9434 -0.523542 0
M  V30 4832 H 439.143 -6.46161 1.10258 0
M  V30 4833 H 438.663 -5.97373 -0.539045 0
M  V30 4834 H 440.342 -6.46669 -0.206954 0
M  V30 4835 N 440.474 -0.00167713 -1.576 0
M  V30 4836 C 441.723 0.682021 -1.89819 0
M  V30 4837 C 442.036 1.74844 -0.876871 0
M  V30 4838 O 443.242 2.48688 -1.08934 0
M  V30 4839 C 441.698 1.26425 -3.36964 0
M  V30 4840 C 441.306 0.232568 -4.47396 0
M  V30 4841 C 443.05 1.92604 -3.78291 0
M  V30 4842 C 440.957 0.824882 -5.85619 0
M  V30 4843 H 439.887 0.258499 -0.708304 0
M  V30 4844 H 442.538 -0.0624957 -1.83394 0
M  V30 4845 H 440.92 2.05949 -3.38232 0
M  V30 4846 H 442.094 -0.5382 -4.57646 0
M  V30 4847 H 440.409 -0.32888 -4.15099 0
M  V30 4848 H 443.006 2.37827 -4.78897 0
M  V30 4849 H 443.349 2.75732 -3.11894 0
M  V30 4850 H 443.882 1.19812 -3.79328 0
M  V30 4851 H 440.621 0.0323542 -6.55492 0
M  V30 4852 H 440.141 1.56477 -5.79029 0
M  V30 4853 H 441.82 1.32301 -6.33329 0
M  V30 4854 N 441.952 1.55251 0.271103 0
M  V30 4855 C 443.229 1.66664 1.02384 0
M  V30 4856 C 443.609 0.534363 2.04225 0
M  V30 4857 O 442.957 -0.465337 2.23712 0
M  V30 4858 C 443.167 3.05961 1.67895 0
M  V30 4859 C 444.515 3.63772 2.18986 0
M  V30 4860 O 445.539 3.08606 1.77878 0
M  V30 4861 O 444.398 4.60429 2.94393 0
M  V30 4862 H 441.492 0.676957 0.475035 0
M  V30 4863 H 444.038 1.67589 0.26681 0
M  V30 4864 H 442.81 3.79815 0.941071 0
M  V30 4865 H 442.433 3.08943 2.5028 0
M  V30 4866 N 443.43 -0.535701 1.48216 0
M  V30 4867 C 444.67 -1.30238 1.57536 0
M  V30 4868 C 445.034 -1.90479 0.241229 0
M  V30 4869 O 446.235 -2.67983 0.20938 0
M  V30 4870 C 444.506 -2.3669 2.67792 0
M  V30 4871 S 446.065 -3.23159 2.9684 0
M  V30 4872 H 442.883 -0.443093 0.556048 0
M  V30 4873 H 445.485 -0.610937 1.85709 0
M  V30 4874 H 444.189 -1.90905 3.63296 0
M  V30 4875 H 443.72 -3.10548 2.41502 0
M  V30 4876 H 445.735 -4.36647 2.35699 0
M  V30 4877 N 444.908 -1.36708 -0.784132 0
M  V30 4878 C 445.838 -1.34153 -1.91116 0
M  V30 4879 C 446.819 -0.212121 -1.68772 0
M  V30 4880 O 448.004 -0.410581 -1.8981 0
M  V30 4881 C 445.134 -1.13535 -3.28218 0
M  V30 4882 C 444.088 -2.23356 -3.65097 0
M  V30 4883 C 443.414 -1.87875 -5.00607 0
M  V30 4884 C 444.714 -3.65473 -3.73131 0
M  V30 4885 H 446.408 -2.28459 -1.93512 0
M  V30 4886 H 443.954 -1.09973 -0.929618 0
M  V30 4887 H 445.907 -1.10381 -4.06687 0
M  V30 4888 H 444.631 -0.156804 -3.26223 0
M  V30 4889 H 443.29 -2.25645 -2.88929 0
M  V30 4890 H 442.938 -0.885814 -4.95139 0
M  V30 4891 H 442.638 -2.61406 -5.26252 0
M  V30 4892 H 444.162 -1.86286 -5.81489 0
M  V30 4893 H 445.576 -3.65382 -4.41779 0
M  V30 4894 H 443.973 -4.37953 -4.10265 0
M  V30 4895 H 445.043 -3.99995 -2.74102 0
M  V30 4896 N 446.386 1.0089 -1.21074 0
M  V30 4897 C 447.296 2.13039 -0.982425 0
M  V30 4898 C 448.312 1.73881 0.0642161 0
M  V30 4899 O 449.488 2.01012 -0.12496 0
M  V30 4900 C 446.553 3.42377 -0.545803 0
M  V30 4901 C 445.614 3.95731 -1.6642 0
M  V30 4902 C 444.847 5.18896 -1.24832 0
M  V30 4903 O 445.07 5.70273 -0.120265 0
M  V30 4904 O 444.004 5.65597 -2.05873 0
M  V30 4905 H 447.83 2.35175 -1.92163 0
M  V30 4906 H 445.415 1.1142 -0.995285 0
M  V30 4907 H 447.297 4.20244 -0.311912 0
M  V30 4908 H 445.972 3.21639 0.364727 0
M  V30 4909 H 444.879 3.19108 -1.95246 0
M  V30 4910 H 446.212 4.20872 -2.55201 0
M  V30 4911 N 447.864 1.01787 1.20321 0
M  V30 4912 C 449.11 0.708985 1.90003 0
M  V30 4913 C 449.443 -0.759572 1.78729 0
M  V30 4914 O 448.718 -1.55198 1.17234 0
M  V30 4915 C 449.001 1.1469 3.41348 0
M  V30 4916 C 448.854 2.67586 3.61549 0
M  V30 4917 C 450.173 0.71915 4.34185 0
M  V30 4918 H 447.292 0.259034 0.689978 0
M  V30 4919 H 449.934 1.26584 1.41692 0
M  V30 4920 H 448.084 0.673128 3.82624 0
M  V30 4921 H 449.756 3.22826 3.29517 0
M  V30 4922 H 447.999 3.085 3.04976 0
M  V30 4923 H 448.67 2.93281 4.67643 0
M  V30 4924 H 451.146 1.12647 4.00562 0
M  V30 4925 H 450.022 1.05358 5.38694 0
M  V30 4926 H 450.283 -0.379111 4.40472 0
M  V30 4927 N 449.342 -1.36122 0.79427 0
M  V30 4928 C 450.252 -2.33769 0.197296 0
M  V30 4929 C 451.268 -1.61276 -0.653153 0
M  V30 4930 O 452.444 -1.9323 -0.5678 0
M  V30 4931 C 449.509 -3.40474 -0.654098 0
M  V30 4932 C 448.57 -4.28759 0.215411 0
M  V30 4933 C 447.803 -5.30368 -0.595443 0
M  V30 4934 O 448.026 -5.40211 -1.83107 0
M  V30 4935 O 446.96 -6.019 0.00721351 0
M  V30 4936 H 450.786 -2.86597 1.00478 0
M  V30 4937 H 448.371 -1.38676 0.555818 0
M  V30 4938 H 450.253 -4.05703 -1.13944 0
M  V30 4939 H 448.928 -2.89937 -1.43938 0
M  V30 4940 H 447.835 -3.66554 0.747615 0
M  V30 4941 H 449.168 -4.82661 0.964332 0
M  V30 4942 N 450.82 -0.546701 -1.47814 0
M  V30 4943 C 452.05 -0.0232519 -2.06587 0
M  V30 4944 C 452.458 1.2712 -1.40133 0
M  V30 4945 O 451.801 1.77091 -0.488305 0
M  V30 4946 C 451.863 0.254117 -3.58601 0
M  V30 4947 C 451.527 -0.949331 -4.47031 0
M  V30 4948 C 452.524 -1.85216 -4.85789 0
M  V30 4949 C 450.209 -1.16104 -4.88697 0
M  V30 4950 C 452.203 -2.95047 -5.65001 0
M  V30 4951 C 449.89 -2.26247 -5.67676 0
M  V30 4952 C 450.888 -3.1555 -6.05737 0
M  V30 4953 O 450.576 -4.23784 -6.83127 0
M  V30 4954 H 450.308 -0.0380082 -0.674931 0
M  V30 4955 H 452.862 -0.756631 -1.90956 0
M  V30 4956 H 451.092 1.04168 -3.72406 0
M  V30 4957 H 452.781 0.72167 -3.99433 0
M  V30 4958 H 453.547 -1.70061 -4.54207 0
M  V30 4959 H 449.426 -0.475159 -4.58545 0
M  V30 4960 H 452.97 -3.64778 -5.94628 0
M  V30 4961 H 448.867 -2.41379 -5.98671 0
M  V30 4962 H 449.635 -4.21701 -7.01506 0
M  V30 4963 N 452.299 1.55045 -0.282633 0
M  V30 4964 C 453.529 2.03872 0.334635 0
M  V30 4965 C 453.937 1.16018 1.49454 0
M  V30 4966 O 453.28 0.174449 1.8287 0
M  V30 4967 C 453.342 3.48791 0.870905 0
M  V30 4968 C 453.006 4.56715 -0.161338 0
M  V30 4969 C 454.003 5.10513 -0.983466 0
M  V30 4970 C 451.688 5.01417 -0.297745 0
M  V30 4971 C 453.682 6.07538 -1.92811 0
M  V30 4972 C 451.369 5.98265 -1.24586 0
M  V30 4973 C 452.367 6.51208 -2.05954 0
M  V30 4974 O 452.055 7.46162 -2.99162 0
M  V30 4975 H 451.787 0.671324 0.0793742 0
M  V30 4976 H 454.341 2.01169 -0.41473 0
M  V30 4977 H 452.571 3.48758 1.67047 0
M  V30 4978 H 454.26 3.80916 1.40207 0
M  V30 4979 H 455.026 4.76785 -0.888856 0
M  V30 4980 H 450.905 4.59849 0.325604 0
M  V30 4981 H 454.449 6.48787 -2.56363 0
M  V30 4982 H 450.346 6.31412 -1.34126 0
M  V30 4983 H 451.114 7.63903 -2.93929 0
M  V30 4984 N 453.777 0.010035 1.57597 0
M  V30 4985 C 455.054 -0.710296 1.82248 0
M  V30 4986 C 455.434 -1.91426 0.889911 0
M  V30 4987 O 454.782 -2.28424 -0.0590292 0
M  V30 4988 C 454.992 -1.10655 3.30993 0
M  V30 4989 C 456.34 -1.50621 3.96987 0
M  V30 4990 O 457.364 -1.20007 3.35375 0
M  V30 4991 O 456.223 -2.07587 5.05539 0
M  V30 4992 H 453.317 -0.34673 0.750804 0
M  V30 4993 H 455.863 0.0362578 1.69661 0
M  V30 4994 H 454.635 -0.248826 3.90508 0
M  V30 4995 H 454.258 -1.91189 3.48615 0
M  V30 4996 N 455.255 -1.55392 -0.262866 0
M  V30 4997 C 456.202 -1.88966 -1.32516 0
M  V30 4998 C 457.172 -0.742187 -1.48596 0
M  V30 4999 O 458.357 -0.99439 -1.62839 0
M  V30 5000 C 455.497 -2.17592 -2.67858 0
M  V30 5001 C 454.61 -3.45061 -2.59917 0
M  V30 5002 C 453.745 -3.63336 -3.87505 0
M  V30 5003 C 452.784 -4.84462 -3.74116 0
M  V30 5004 N 451.921 -4.99342 -4.93561 0
M  V30 5005 H 456.761 -2.79566 -1.03184 0
M  V30 5006 H 454.298 -1.38404 -0.498285 0
M  V30 5007 H 456.256 -2.3219 -3.46617 0
M  V30 5008 H 454.886 -1.30215 -2.95371 0
M  V30 5009 H 453.938 -3.38881 -1.72812 0
M  V30 5010 H 455.25 -4.3396 -2.45926 0
M  V30 5011 H 454.404 -3.77807 -4.74707 0
M  V30 5012 H 453.143 -2.72641 -4.04374 0
M  V30 5013 H 452.148 -4.69985 -2.85297 0
M  V30 5014 H 453.373 -5.76603 -3.58757 0
M  V30 5015 H 451.319 -4.1158 -5.10821 0
M  V30 5016 H 451.236 -5.82303 -4.82141 0
M  V30 5017 H 452.504 -5.18208 -5.82306 0
M  V30 5018 N 456.733 0.527833 -1.48498 0
M  V30 5019 C 457.981 1.28101 -1.56316 0
M  V30 5020 C 458.302 1.9352 -0.239781 0
M  V30 5021 O 457.572 1.81433 0.738849 0
M  V30 5022 H 456.152 0.475793 -0.575873 0
M  V30 5023 H 458.814 0.614052 -1.84974 0
M  V30 5024 H 457.91 2.05916 -2.34532 0
M  V30 5025 N 458.211 1.37122 0.776871 0
M  V30 5026 C 459.488 1.22586 1.52421 0
M  V30 5027 C 459.868 -0.182726 2.10308 0
M  V30 5028 O 459.216 -1.18979 1.9508 0
M  V30 5029 C 459.426 2.31782 2.60918 0
M  V30 5030 C 460.774 2.69071 3.2846 0
M  V30 5031 O 461.798 2.3092 2.71209 0
M  V30 5032 O 460.657 3.3478 4.31954 0
M  V30 5033 H 457.751 0.478045 0.674835 0
M  V30 5034 H 460.297 1.48888 0.814275 0
M  V30 5035 H 459.069 3.26131 2.16227 0
M  V30 5036 H 458.692 2.06916 3.39517 0
M  V30 5037 N 459.689 -1.00246 1.21608 0
M  V30 5038 C 460.919 -1.77373 1.05935 0
M  V30 5039 C 461.327 -1.85059 -0.393686 0
M  V30 5040 O 460.67 -1.31289 -1.28487 0
M  V30 5041 C 460.732 -3.22705 1.58435 0
M  V30 5042 C 460.396 -3.38591 3.06929 0
M  V30 5043 C 461.393 -3.2667 4.04454 0
M  V30 5044 C 459.078 -3.6395 3.46187 0
M  V30 5045 C 461.072 -3.39877 5.39224 0
M  V30 5046 C 458.759 -3.768 4.81108 0
M  V30 5047 C 459.757 -3.6477 5.77436 0
M  V30 5048 O 459.445 -3.77206 7.09909 0
M  V30 5049 H 459.177 -0.56419 0.372378 0
M  V30 5050 H 461.731 -1.26971 1.61454 0
M  V30 5051 H 459.961 -3.74255 0.973147 0
M  V30 5052 H 461.65 -3.81515 1.38568 0
M  V30 5053 H 462.416 -3.06999 3.75468 0
M  V30 5054 H 458.295 -3.72395 2.71741 0
M  V30 5055 H 461.839 -3.30404 6.14393 0
M  V30 5056 H 457.736 -3.95975 5.09779 0
M  V30 5057 H 458.504 -3.94138 7.17355 0
M  V30 5058 N 461.167 -1.02423 -1.1978 0
M  V30 5059 C 462.416 -0.713265 -1.88667 0
M  V30 5060 C 462.729 0.7609 -1.80193 0
M  V30 5061 O 463.935 1.18473 -2.44288 0
M  V30 5062 C 462.391 -1.22545 -3.38394 0
M  V30 5063 C 461.999 -2.72706 -3.55437 0
M  V30 5064 C 463.743 -0.990257 -4.12788 0
M  V30 5065 C 461.65 -3.17367 -4.99031 0
M  V30 5066 H 460.58 -0.263105 -0.706606 0
M  V30 5067 H 463.231 -1.23792 -1.35454 0
M  V30 5068 H 461.613 -0.628732 -3.90977 0
M  V30 5069 H 462.787 -3.37993 -3.13205 0
M  V30 5070 H 461.102 -2.94453 -2.94425 0
M  V30 5071 H 463.699 -1.29926 -5.18675 0
M  V30 5072 H 464.042 0.0730761 -4.16236 0
M  V30 5073 H 464.575 -1.55074 -3.66329 0
M  V30 5074 H 461.314 -4.23009 -5.00743 0
M  V30 5075 H 460.834 -2.56805 -5.42044 0
M  V30 5076 H 462.513 -3.10441 -5.67658 0
M  V30 5077 N 462.645 1.35699 -0.801477 0
M  V30 5078 C 463.894 1.98165 -0.375979 0
M  V30 5079 C 464.207 1.64306 1.06127 0
M  V30 5080 O 465.413 2.20097 1.58964 0
M  V30 5081 C 463.869 3.54497 -0.621305 0
M  V30 5082 C 463.477 3.9727 -2.07076 0
M  V30 5083 C 465.221 4.23697 -0.26091 0
M  V30 5084 C 463.128 5.46427 -2.26211 0
M  V30 5085 H 462.058 0.741478 -0.136844 0
M  V30 5086 H 464.709 1.54834 -0.984814 0
M  V30 5087 H 463.091 3.95958 0.0574112 0
M  V30 5088 H 464.265 3.66974 -2.78687 0
M  V30 5089 H 462.58 3.40943 -2.39054 0
M  V30 5090 H 465.177 5.33334 -0.381994 0
M  V30 5091 H 465.52 4.0869 0.792344 0
M  V30 5092 H 466.053 3.87639 -0.893339 0
M  V30 5093 H 462.792 5.66396 -3.29963 0
M  V30 5094 H 462.312 5.78309 -1.59119 0
M  V30 5095 H 463.991 6.12819 -2.07513 0
M  V30 5096 N 464.123 0.554532 1.47522 0
M  V30 5097 C 465.539 0.214107 1.58157 0
M  V30 5098 C 465.739 -1.28331 1.55349 0
M  V30 5099 O 464.795 -2.06329 1.45549 0
M  V30 5100 C 466.108 0.838391 2.88776 0
M  V30 5101 C 467.656 0.809374 3.02354 0
M  V30 5102 C 468.131 1.41268 4.35669 0
M  V30 5103 N 469.622 1.37574 4.42298 0
M  V30 5104 C 470.357 1.8122 5.4401 0
M  V30 5105 N 469.853 2.3271 6.52547 0
M  V30 5106 N 471.646 1.72307 5.35039 0
M  V30 5107 H 463.797 1.52744 1.4759 0
M  V30 5108 H 466.06 0.636812 0.702264 0
M  V30 5109 H 465.766 1.89065 2.96559 0
M  V30 5110 H 465.64 0.329847 3.75755 0
M  V30 5111 H 468.027 -0.234187 2.94169 0
M  V30 5112 H 468.108 1.35565 2.16924 0
M  V30 5113 H 467.752 2.45529 4.4461 0
M  V30 5114 H 467.682 0.841871 5.19827 0
M  V30 5115 H 470.173 0.999081 3.64454 0
M  V30 5116 H 470.486 2.63944 7.26329 0
M  V30 5117 H 468.831 2.36719 6.53444 0
M  V30 5118 H 472.022 1.3186 4.49144 0
M  V30 5119 H 472.195 2.06641 6.14169 0
M  V30 5120 N 465.601 -1.54893 0.290851 0
M  V30 5121 C 466.511 -2.26812 -0.59945 0
M  V30 5122 C 467.527 -1.29963 -1.15696 0
M  V30 5123 O 468.703 -1.62928 -1.18391 0
M  V30 5124 C 465.768 -2.98716 -1.75982 0
M  V30 5125 C 464.829 -4.1108 -1.2374 0
M  V30 5126 C 464.062 -4.79546 -2.34246 0
M  V30 5127 O 464.285 -4.47309 -3.53936 0
M  V30 5128 O 463.219 -5.67165 -2.01512 0
M  V30 5129 H 467.045 -3.03696 -0.0163561 0
M  V30 5130 H 464.63 -1.49289 0.0576755 0
M  V30 5131 H 466.512 -3.43851 -2.43607 0
M  V30 5132 H 465.187 -2.24737 -2.3297 0
M  V30 5133 H 464.094 -3.70367 -0.527163 0
M  V30 5134 H 465.427 -4.87007 -0.71307 0
M  V30 5135 N 467.08 -0.0183926 -1.57589 0
M  V30 5136 C 468.328 0.661253 -1.90976 0
M  V30 5137 C 468.649 1.73281 -0.894353 0
M  V30 5138 O 467.919 1.9579 0.0656788 0
M  V30 5139 H 466.499 0.247233 -0.704901 0
M  V30 5140 H 469.161 -0.0636639 -1.94796 0
M  V30 5141 H 468.257 1.12083 -2.9128 0
M  V30 5142 N 468.558 1.5553 0.254621 0
M  V30 5143 C 469.468 1.92789 1.33677 0
M  V30 5144 C 470.484 0.827356 1.53071 0
M  V30 5145 O 471.66 1.12807 1.66843 0
M  V30 5146 C 468.725 2.20827 2.67275 0
M  V30 5147 C 467.786 3.4427 2.5647 0
M  V30 5148 C 467.019 3.70961 3.83697 0
M  V30 5149 O 467.242 2.99852 4.85227 0
M  V30 5150 O 466.176 4.64491 3.82794 0
M  V30 5151 H 470.002 2.84945 1.05071 0
M  V30 5152 H 467.587 1.42312 0.454723 0
M  V30 5153 H 469.469 2.40204 3.46237 0
M  V30 5154 H 468.144 1.31851 2.9563 0
M  V30 5155 H 467.051 3.30209 1.75821 0
M  V30 5156 H 468.384 4.33524 2.33062 0
M  V30 5157 N 470.036 -0.519951 1.48776 0
M  V30 5158 C 470.946 -1.65025 1.66745 0
M  V30 5159 C 471.962 -1.6508 0.549954 0
M  V30 5160 O 473.138 -1.83848 0.822295 0
M  V30 5161 C 470.203 -3.0146 1.71238 0
M  V30 5162 C 469.264 -3.12182 2.94688 0
M  V30 5163 C 468.497 -4.42109 2.98958 0
M  V30 5164 O 468.72 -5.29799 2.1135 0
M  V30 5165 O 467.654 -4.57406 3.91233 0
M  V30 5166 H 471.48 -1.52801 2.62461 0
M  V30 5167 H 469.065 -0.694157 1.32294 0
M  V30 5168 H 470.947 -3.82584 1.76657 0
M  V30 5169 H 469.622 -3.13988 0.786975 0
M  V30 5170 H 468.529 -2.30316 2.94797 0
M  V30 5171 H 469.862 -3.04574 3.86646 0
M  V30 5172 N 471.514 -1.37532 -0.769588 0
M  V30 5173 C 472.762 -1.32597 -1.5252 0
M  V30 5174 C 473.083 0.0884294 -1.94799 0
M  V30 5175 O 472.353 1.03289 -1.66458 0
M  V30 5176 H 470.933 -0.487846 -0.565699 0
M  V30 5177 H 473.595 -1.72044 -0.915806 0
M  V30 5178 H 472.691 -1.96643 -2.42359 0
M  V30 5179 N 472.992 0.995999 -1.22138 0
M  V30 5180 C 474.217 1.77601 -1.0711 0
M  V30 5181 C 474.642 1.84339 0.374264 0
M  V30 5182 O 474 1.29359 1.27028 0
M  V30 5183 C 474.048 3.18897 -1.68336 0
M  V30 5184 O 473.152 4.01663 -0.934928 0
M  V30 5185 H 472.493 0.547011 -0.376397 0
M  V30 5186 H 475.023 1.25137 -1.6187 0
M  V30 5187 H 475.033 3.69539 -1.72931 0
M  V30 5188 H 473.708 3.13308 -2.73516 0
M  V30 5189 H 472.285 3.60204 -0.964751 0
M  V30 5190 N 474.47 1.03057 1.19235 0
M  V30 5191 C 475.698 0.747697 1.92917 0
M  V30 5192 C 476.113 -0.69372 1.75593 0
M  V30 5193 O 475.47 -1.47191 1.07894 0
M  V30 5194 C 475.521 1.09159 3.44625 0
M  V30 5195 O 475.242 2.47641 3.61394 0
M  V30 5196 C 476.743 0.831763 4.35427 0
M  V30 5197 H 473.963 0.273453 0.612751 0
M  V30 5198 H 476.507 1.37552 1.51327 0
M  V30 5199 H 474.662 0.508919 3.84043 0
M  V30 5200 H 475.076 2.60499 4.55237 0
M  V30 5201 H 476.55 1.12233 5.4047 0
M  V30 5202 H 477.027 -0.233769 4.38577 0
M  V30 5203 H 477.633 1.39725 4.01693 0
M  V30 5204 N 475.948 -1.35272 0.808662 0
M  V30 5205 C 477.195 -1.98709 0.390003 0
M  V30 5206 C 477.523 -1.64148 -1.04335 0
M  V30 5207 O 476.778 -0.897797 -1.73891 0
M  V30 5208 C 477.077 -3.53556 0.522798 0
M  V30 5209 C 476.743 -4.0799 1.91977 0
M  V30 5210 C 475.405 -4.22568 2.30195 0
M  V30 5211 C 477.757 -4.37442 2.83361 0
M  V30 5212 C 475.085 -4.63918 3.59162 0
M  V30 5213 C 477.437 -4.80232 4.11776 0
M  V30 5214 C 476.101 -4.93016 4.49991 0
M  V30 5215 H 475.371 -0.727127 0.142712 0
M  V30 5216 H 478.018 -1.6145 1.02985 0
M  V30 5217 H 476.323 -3.91287 -0.200494 0
M  V30 5218 H 478.02 -4.00598 0.179608 0
M  V30 5219 H 474.61 -3.97096 1.61284 0
M  V30 5220 H 478.794 -4.25731 2.55083 0
M  V30 5221 H 474.05 -4.72005 3.88615 0
M  V30 5222 H 478.224 -5.01982 4.82687 0
M  V30 5223 H 475.851 -5.24814 5.49976 0
M  V30 5224 N 477.426 -0.562348 -1.47226 0
M  V30 5225 C 478.673 -0.0402165 -2.0246 0
M  V30 5226 C 479.001 1.31169 -1.43614 0
M  V30 5227 O 478.256 1.86805 -0.5833 0
M  V30 5228 C 478.555 0.0969817 -3.57268 0
M  V30 5229 C 478.221 -1.1847 -4.35058 0
M  V30 5230 C 476.883 -1.53588 -4.56031 0
M  V30 5231 C 479.235 -2.03378 -4.79882 0
M  V30 5232 C 476.563 -2.73452 -5.19077 0
M  V30 5233 C 478.915 -3.2245 -5.44251 0
M  V30 5234 C 477.579 -3.57876 -5.63455 0
M  V30 5235 H 476.849 -0.0147163 -0.740854 0
M  V30 5236 H 479.496 -0.734895 -1.76838 0
M  V30 5237 H 477.801 0.87466 -3.81912 0
M  V30 5238 H 479.498 0.516408 -3.97661 0
M  V30 5239 H 476.088 -0.90126 -4.19017 0
M  V30 5240 H 480.272 -1.77553 -4.63453 0
M  V30 5241 H 475.528 -3.01062 -5.32139 0
M  V30 5242 H 479.702 -3.88526 -5.77945 0
M  V30 5243 H 477.329 -4.50849 -6.12078 0
M  V30 5244 N 478.904 1.54736 -0.299062 0
M  V30 5245 C 480.153 1.99279 0.311549 0
M  V30 5246 C 480.466 1.19107 1.55154 0
M  V30 5247 O 481.672 1.53908 2.23662 0
M  V30 5248 C 480.128 3.54768 0.605632 0
M  V30 5249 C 479.736 4.43746 -0.615914 0
M  V30 5250 C 481.48 4.07841 1.17754 0
M  V30 5251 C 479.387 5.90663 -0.29509 0
M  V30 5252 H 478.317 0.744359 0.120187 0
M  V30 5253 H 480.968 1.78919 -0.407464 0
M  V30 5254 H 479.35 3.71021 1.38419 0
M  V30 5255 H 480.524 4.39267 -1.39218 0
M  V30 5256 H 478.839 4.01434 -1.10633 0
M  V30 5257 H 481.436 5.15174 1.43179 0
M  V30 5258 H 481.779 3.58324 2.11918 0
M  V30 5259 H 482.312 3.95123 0.460739 0
M  V30 5260 H 479.051 6.44325 -1.20524 0
M  V30 5261 H 478.571 5.98155 0.44394 0
M  V30 5262 H 480.25 6.46916 0.104048 0
M  V30 5263 N 480.382 0.0267497 1.57577 0
M  V30 5264 C 481.312 -0.954308 2.13108 0
M  V30 5265 C 482.293 -1.34088 1.04663 0
M  V30 5266 O 483.478 -1.41992 1.32484 0
M  V30 5267 C 480.608 -2.23744 2.65624 0
M  V30 5268 C 479.562 -1.99168 3.78835 0
M  V30 5269 C 478.888 -3.33726 4.17769 0
M  V30 5270 C 480.188 -1.33277 5.0501 0
M  V30 5271 H 481.882 -0.491848 2.95332 0
M  V30 5272 H 479.428 -0.23514 1.42067 0
M  V30 5273 H 481.381 -2.92754 3.03106 0
M  V30 5274 H 480.105 -2.72151 1.80558 0
M  V30 5275 H 478.764 -1.32577 3.41788 0
M  V30 5276 H 478.412 -3.79888 3.29688 0
M  V30 5277 H 478.112 -3.18089 4.94058 0
M  V30 5278 H 479.636 -4.04008 4.57832 0
M  V30 5279 H 481.05 -1.92283 5.40093 0
M  V30 5280 H 479.447 -1.28045 5.8628 0
M  V30 5281 H 480.517 -0.305411 4.83937 0
M  V30 5282 N 481.861 -1.55662 -0.24637 0
M  V30 5283 C 482.824 -1.89558 -1.28842 0
M  V30 5284 C 483.824 -0.772082 -1.41052 0
M  V30 5285 O 485.014 -1.04007 -1.39743 0
M  V30 5286 C 482.146 -2.12449 -2.66605 0
M  V30 5287 H 483.339 -2.82735 -1.00004 0
M  V30 5288 H 480.892 -1.48562 -0.485684 0
M  V30 5289 H 481.627 -1.21742 -3.00582 0
M  V30 5290 H 481.412 -2.94273 -2.59125 0
M  V30 5291 H 482.902 -2.39854 -3.41847 0
M  V30 5292 N 483.339 0.512053 -1.4905 0
M  V30 5293 C 484.286 1.6148 -1.64902 0
M  V30 5294 C 485.256 1.58687 -0.490673 0
M  V30 5295 O 486.441 1.76842 -0.71636 0
M  V30 5296 C 483.581 2.99676 -1.71139 0
M  V30 5297 C 482.694 3.12568 -2.98203 0
M  V30 5298 C 481.829 4.4143 -2.95487 0
M  V30 5299 C 480.868 4.47916 -4.17179 0
M  V30 5300 N 480.005 5.68191 -4.12437 0
M  V30 5301 H 484.845 1.47271 -2.59066 0
M  V30 5302 H 482.382 0.716713 -1.28459 0
M  V30 5303 H 484.34 3.79761 -1.72736 0
M  V30 5304 H 482.97 3.12614 -0.804508 0
M  V30 5305 H 482.022 2.25618 -3.06269 0
M  V30 5306 H 483.334 3.1322 -3.88194 0
M  V30 5307 H 482.488 5.29825 -2.95585 0
M  V30 5308 H 481.227 4.43326 -2.03256 0
M  V30 5309 H 480.232 3.57925 -4.17337 0
M  V30 5310 H 481.457 4.47744 -5.1059 0
M  V30 5311 H 479.403 5.7095 -3.23036 0
M  V30 5312 H 479.32 5.70413 -4.96151 0
M  V30 5313 H 480.588 6.58823 -4.16621 0
M  V30 5314 N 484.817 1.37938 0.762283 0
M  V30 5315 C 486.065 1.33404 1.51815 0
M  V30 5316 C 486.386 -0.0780975 1.94844 0
M  V30 5317 O 485.656 -1.02405 1.67003 0
M  V30 5318 H 484.236 0.490839 0.563104 0
M  V30 5319 H 486.898 1.72527 0.906669 0
M  V30 5320 H 485.994 1.97926 2.41313 0
M  V30 5321 N 486.295 -0.989507 1.22664 0
M  V30 5322 C 487.242 -2.08024 0.999733 0
M  V30 5323 C 488.212 -1.65909 -0.0797047 0
M  V30 5324 O 489.397 -1.90669 0.0705715 0
M  V30 5325 C 486.537 -3.40067 0.587234 0
M  V30 5326 C 485.65 -3.95505 1.73781 0
M  V30 5327 C 484.785 -5.15722 1.27297 0
M  V30 5328 C 483.824 -5.63305 2.39488 0
M  V30 5329 N 482.961 -6.74758 1.94026 0
M  V30 5330 H 487.801 -2.26768 1.9334 0
M  V30 5331 H 485.338 -1.11171 0.963297 0
M  V30 5332 H 487.296 -4.15899 0.329227 0
M  V30 5333 H 485.926 -3.21314 -0.309426 0
M  V30 5334 H 484.978 -3.16513 2.11006 0
M  V30 5335 H 486.29 -4.26797 2.58158 0
M  V30 5336 H 485.444 -5.98854 0.972546 0
M  V30 5337 H 484.183 -4.86061 0.399445 0
M  V30 5338 H 483.188 -4.78759 2.70315 0
M  V30 5339 H 484.413 -5.94988 3.27362 0
M  V30 5340 H 482.359 -6.46874 1.09041 0
M  V30 5341 H 482.276 -7.05386 2.71968 0
M  V30 5342 H 483.544 -7.61387 1.67062 0
M  V30 5343 N 487.773 -1.03688 -1.18687 0
M  V30 5344 C 489.019 -0.739123 -1.88851 0
M  V30 5345 C 489.352 0.731042 -1.79915 0
M  V30 5346 O 488.627 1.53313 -1.19688 0
M  V30 5347 C 488.91 -1.20106 -3.3948 0
M  V30 5348 C 488.763 -2.73304 -3.57246 0
M  V30 5349 C 490.082 -0.788134 -4.32986 0
M  V30 5350 H 487.201 -0.269978 -0.68577 0
M  V30 5351 H 489.843 -1.28822 -1.3966 0
M  V30 5352 H 487.993 -0.733915 -3.81505 0
M  V30 5353 H 489.665 -3.28027 -3.24339 0
M  V30 5354 H 487.908 -3.13313 -3.00029 0
M  V30 5355 H 488.579 -3.00684 -4.62918 0
M  V30 5356 H 491.055 -1.19005 -3.98719 0
M  V30 5357 H 489.931 -1.13915 -5.36949 0
M  V30 5358 H 490.192 0.308988 -4.41019 0
M  V30 5359 N 489.251 1.34841 -0.815825 0
M  V30 5360 C 490.198 2.29644 -0.230664 0
M  V30 5361 C 491.168 1.53253 0.640533 0
M  V30 5362 O 492.353 1.81653 0.583672 0
M  V30 5363 C 489.493 3.39715 0.607275 0
M  V30 5364 C 488.606 4.31056 -0.28538 0
M  V30 5365 C 487.741 5.28225 0.561446 0
M  V30 5366 C 486.78 6.11204 -0.331035 0
M  V30 5367 N 485.917 7.00483 0.476302 0
M  V30 5368 H 490.757 2.79095 -1.0445 0
M  V30 5369 H 488.294 1.37351 -0.526595 0
M  V30 5370 H 490.252 4.02208 1.10835 0
M  V30 5371 H 488.882 2.91517 1.38629 0
M  V30 5372 H 487.934 3.69487 -0.904621 0
M  V30 5373 H 489.246 4.89239 -0.97193 0
M  V30 5374 H 488.4 5.96135 1.12728 0
M  V30 5375 H 487.139 4.70562 1.28153 0
M  V30 5376 H 486.144 5.42232 -0.909069 0
M  V30 5377 H 487.369 6.70947 -1.04912 0
M  V30 5378 H 485.315 6.45296 1.18019 0
M  V30 5379 H 485.232 7.55847 -0.152008 0
M  V30 5380 H 486.5 7.7273 1.02512 0
M  V30 5381 N 490.729 0.570148 1.46925 0
M  V30 5382 C 491.975 0.0510284 2.02736 0
M  V30 5383 C 492.308 -1.3006 1.44215 0
M  V30 5384 O 491.583 -1.84932 0.602521 0
M  V30 5385 C 491.866 -0.028215 3.60089 0
M  V30 5386 C 491.719 1.35142 4.29018 0
M  V30 5387 C 493.038 -0.735181 4.33916 0
M  V30 5388 H 490.157 0.0200178 0.736728 0
M  V30 5389 H 492.799 0.73493 1.75211 0
M  V30 5390 H 490.949 -0.610648 3.83671 0
M  V30 5391 H 492.621 1.97806 4.16738 0
M  V30 5392 H 490.864 1.9226 3.88868 0
M  V30 5393 H 491.535 1.24857 5.37694 0
M  V30 5394 H 494.011 -0.240519 4.15404 0
M  V30 5395 H 492.887 -0.759622 5.43618 0
M  V30 5396 H 493.148 -1.79397 4.04066 0
M  V30 5397 N 492.207 -1.54576 0.307264 0
M  V30 5398 C 493.435 -2.04675 -0.302597 0
M  V30 5399 C 493.85 -1.18425 -1.47041 0
M  V30 5400 O 493.207 -0.211257 -1.81273 0
M  V30 5401 C 493.258 -3.53575 -0.752801 0
M  V30 5402 O 492.979 -4.36547 0.368536 0
M  V30 5403 C 494.48 -4.19699 -1.42717 0
M  V30 5404 H 491.7 -0.66786 -0.0648374 0
M  V30 5405 H 494.244 -1.99516 0.448716 0
M  V30 5406 H 492.399 -3.59074 -1.45412 0
M  V30 5407 H 492.813 -5.24497 0.0168937 0
M  V30 5408 H 494.287 -5.25388 -1.69327 0
M  V30 5409 H 494.764 -3.69815 -2.36925 0
M  V30 5410 H 495.37 -4.18293 -0.768856 0
M  V30 5411 N 493.685 -0.035106 -1.57561 0
M  V30 5412 C 494.617 0.973604 -2.07494 0
M  V30 5413 C 495.63 1.28504 -0.999534 0
M  V30 5414 O 496.819 1.24864 -1.27559 0
M  V30 5415 C 493.919 2.29945 -2.48955 0
M  V30 5416 C 493.092 2.1723 -3.79644 0
M  V30 5417 C 492.151 3.328 -4.07592 0
M  V30 5418 O 491.177 3.09418 -4.77754 0
M  V30 5419 N 492.379 4.56779 -3.58236 0
M  V30 5420 H 495.144 0.547525 -2.94656 0
M  V30 5421 H 492.705 0.151515 -1.61189 0
M  V30 5422 H 494.697 3.06097 -2.64739 0
M  V30 5423 H 493.267 2.64173 -1.67126 0
M  V30 5424 H 492.487 1.25768 -3.73599 0
M  V30 5425 H 493.775 2.05945 -4.65257 0
M  V30 5426 H 493.173 4.78668 -3.01485 0
M  V30 5427 H 491.73 5.30079 -3.79288 0
M  V30 5428 N 495.163 1.55791 0.238111 0
M  V30 5429 C 496.388 1.8244 0.986432 0
M  V30 5430 C 496.813 0.613314 1.7782 0
M  V30 5431 O 496.171 -0.437767 1.75935 0
M  V30 5432 C 496.219 3.06917 1.893 0
M  V30 5433 O 495.323 2.84449 2.98601 0
M  V30 5434 H 494.664 0.601975 0.280218 0
M  V30 5435 H 497.194 2.02987 0.256437 0
M  V30 5436 H 497.204 3.36583 2.30598 0
M  V30 5437 H 495.879 3.947 1.31091 0
M  V30 5438 H 494.456 2.65972 2.61368 0
M  V30 5439 N 496.642 -0.504142 1.49319 0
M  V30 5440 C 497.87 -1.28256 1.62351 0
M  V30 5441 C 498.285 -1.86502 0.293682 0
M  V30 5442 O 497.642 -1.67678 -0.720449 0
M  V30 5443 C 497.693 -2.41507 2.68992 0
M  V30 5444 O 497.414 -1.85656 3.96817 0
M  V30 5445 C 498.915 -3.32929 2.927 0
M  V30 5446 H 496.135 -0.389115 0.546654 0
M  V30 5447 H 498.679 -0.605531 1.95329 0
M  V30 5448 H 496.834 -3.05046 2.38801 0
M  V30 5449 H 497.248 -2.59981 4.55533 0
M  V30 5450 H 498.722 -4.0868 3.71058 0
M  V30 5451 H 499.199 -3.89733 2.02496 0
M  V30 5452 H 499.805 -2.75158 3.24296 0
M  V30 5453 N 498.12 -1.38341 -0.754957 0
M  V30 5454 C 499.03 -1.3769 -1.89944 0
M  V30 5455 C 500.046 -0.274194 -1.71826 0
M  V30 5456 O 501.222 -0.512391 -1.94773 0
M  V30 5457 C 498.287 -1.19938 -3.25293 0
M  V30 5458 C 497.348 -2.40001 -3.55946 0
M  V30 5459 C 496.581 -2.23087 -4.84838 0
M  V30 5460 O 496.804 -1.22386 -5.57116 0
M  V30 5461 O 495.738 -3.11646 -5.14937 0
M  V30 5462 H 499.564 -2.3412 -1.93446 0
M  V30 5463 H 497.149 -1.19246 -0.900044 0
M  V30 5464 H 499.031 -1.12093 -4.06218 0
M  V30 5465 H 497.706 -0.265919 -3.22606 0
M  V30 5466 H 496.613 -2.53421 -2.75188 0
M  V30 5467 H 497.946 -3.31973 -3.63394 0
M  V30 5468 N 499.598 0.982988 -1.23187 0
M  V30 5469 C 500.846 1.72052 -1.06031 0
M  V30 5470 C 501.167 1.90769 0.404019 0
M  V30 5471 O 500.437 1.47446 1.28982 0
M  V30 5472 H 499.017 0.637499 -0.389363 0
M  V30 5473 H 501.679 1.18338 -1.54862 0
M  V30 5474 H 500.775 2.7111 -1.54615 0
M  V30 5475 N 501.076 1.04316 1.18135 0
M  V30 5476 C 502.026 0.606731 2.19779 0
M  V30 5477 C 503.01 -0.352144 1.56999 0
M  V30 5478 O 504.202 -0.170795 1.76174 0
M  V30 5479 C 501.331 -0.0262443 3.4329 0
M  V30 5480 C 500.417 0.955928 4.13186 0
M  V30 5481 N 500.808 2.12395 4.59045 0
M  V30 5482 C 499.106 0.782473 4.39082 0
M  V30 5483 C 499.807 2.74458 5.12882 0
M  V30 5484 N 498.783 2.02316 5.04548 0
M  V30 5485 H 502.585 1.49679 2.5293 0
M  V30 5486 H 500.099 0.912088 1.34368 0
M  V30 5487 H 502.096 -0.356617 4.15372 0
M  V30 5488 H 500.756 -0.911811 3.11635 0
M  V30 5489 H 501.767 2.50272 4.53414 0
M  V30 5490 H 498.444 -0.0527906 4.17467 0
M  V30 5491 H 499.834 3.73459 5.5855 0
M  V30 5492 N 502.554 -1.34406 0.822964 0
M  V30 5493 C 503.831 -1.92733 0.333641 0
M  V30 5494 C 504.211 -1.75107 -1.17901 0
M  V30 5495 O 503.559 -1.12983 -1.98613 0
M  V30 5496 C 503.769 -3.40557 0.763023 0
M  V30 5497 C 505.117 -4.17709 0.761879 0
M  V30 5498 O 506.141 -3.49141 0.705606 0
M  V30 5499 O 505 -5.40082 0.835109 0
M  V30 5500 H 502.094 -0.821964 0.0911249 0
M  V30 5501 H 504.64 -1.4338 0.907757 0
M  V30 5502 H 503.412 -3.47187 1.8049 0
M  V30 5503 H 503.035 -3.97259 0.164605 0
M  V30 5504 N 504.032 -0.577932 -1.46621 0
M  V30 5505 C 504.964 0.195801 -2.28362 0
M  V30 5506 C 505.977 0.859983 -1.38232 0
M  V30 5507 O 507.166 0.730349 -1.62875 0
M  V30 5508 C 504.266 1.29639 -3.13124 0
M  V30 5509 C 503.439 0.725049 -4.31349 0
M  V30 5510 C 502.498 1.71274 -4.97546 0
M  V30 5511 O 501.524 1.25067 -5.5529 0
M  V30 5512 N 502.726 3.04672 -4.94121 0
M  V30 5513 H 505.491 -0.505468 -2.95407 0
M  V30 5514 H 503.052 -0.415381 -1.56481 0
M  V30 5515 H 505.044 1.95631 -3.54275 0
M  V30 5516 H 503.614 1.90059 -2.48186 0
M  V30 5517 H 502.834 -0.112205 -3.9404 0
M  V30 5518 H 504.122 0.323034 -5.07774 0
M  V30 5519 H 503.52 3.4484 -4.48444 0
M  V30 5520 H 502.077 3.66166 -5.39227 0
M  V30 5521 N 505.51 1.54411 -0.315457 0
M  V30 5522 C 506.921 1.85885 0.174265 0
M  V30 5523 C 507.272 1.23723 1.52273 0
M  V30 5524 O 506.397 0.540246 2.09548 0
M  V30 5525 C 506.992 3.37257 0.322981 0
M  V30 5526 C 505.551 3.68711 0.756922 0
M  V30 5527 C 504.698 2.77013 -0.126195 0
M  V30 5528 H 507.649 1.49374 -0.536007 0
M  V30 5529 H 507.67 3.62539 1.15522 0
M  V30 5530 H 507.182 3.82471 -0.658602 0
M  V30 5531 H 505.283 3.29024 1.74854 0
M  V30 5532 H 505.396 4.75741 0.566291 0
M  V30 5533 H 503.76 2.51588 0.39692 0
M  V30 5534 H 504.543 3.25051 -1.1044 0
M  V30 5535 N 506.988 0.0434614 1.5754 0
M  V30 5536 C 507.92 -0.962586 2.08007 0
M  V30 5537 C 508.933 -1.27972 1.00634 0
M  V30 5538 O 510.122 -1.24186 1.28219 0
M  V30 5539 C 507.222 -2.28621 2.50171 0
M  V30 5540 C 506.395 -2.15214 3.80791 0
M  V30 5541 C 505.454 -3.30633 4.09351 0
M  V30 5542 O 504.48 -3.0688 4.79388 0
M  V30 5543 N 505.682 -4.54873 3.60654 0
M  V30 5544 H 508.447 -0.531891 2.94942 0
M  V30 5545 H 506.008 -0.142965 1.61268 0
M  V30 5546 H 508 -3.04689 2.66359 0
M  V30 5547 H 506.57 -2.63283 1.68525 0
M  V30 5548 H 505.79 -1.23785 3.74261 0
M  V30 5549 H 507.078 -2.03475 4.66343 0
M  V30 5550 H 506.476 -4.77063 3.04019 0
M  V30 5551 H 505.033 -5.2806 3.82094 0
M  V30 5552 N 508.466 -1.55915 -0.229846 0
M  V30 5553 C 509.396 -1.94754 -1.28815 0
M  V30 5554 C 510.377 -0.814657 -1.49323 0
M  V30 5555 O 511.562 -1.07631 -1.61645 0
M  V30 5556 C 508.692 -2.25705 -2.63959 0
M  V30 5557 C 507.646 -3.41406 -2.5812 0
M  V30 5558 C 506.972 -3.57941 -3.97218 0
M  V30 5559 C 508.272 -4.76616 -2.13623 0
M  V30 5560 H 509.966 -2.83404 -0.965547 0
M  V30 5561 H 507.512 -1.36353 -0.463028 0
M  V30 5562 H 509.465 -2.51467 -3.38146 0
M  V30 5563 H 508.189 -1.339 -2.9789 0
M  V30 5564 H 506.848 -3.1568 -1.86391 0
M  V30 5565 H 506.496 -2.63526 -4.28443 0
M  V30 5566 H 506.196 -4.35757 -3.94195 0
M  V30 5567 H 507.72 -3.86042 -4.73079 0
M  V30 5568 H 509.134 -5.01637 -2.77549 0
M  V30 5569 H 507.531 -5.57655 -2.21677 0
M  V30 5570 H 508.601 -4.7253 -1.08829 0
M  V30 5571 N 509.944 0.496216 -1.49584 0
M  V30 5572 C 511.193 1.24668 -1.58558 0
M  V30 5573 C 511.506 1.9359 -0.279703 0
M  V30 5574 O 512.712 2.70365 -0.248048 0
M  V30 5575 C 511.168 2.26388 -2.79779 0
M  V30 5576 C 510.776 1.63384 -4.17145 0
M  V30 5577 C 512.52 3.02233 -2.98086 0
M  V30 5578 C 510.427 2.63243 -5.29582 0
M  V30 5579 H 509.357 0.468995 -0.590389 0
M  V30 5580 H 512.008 0.519985 -1.75978 0
M  V30 5581 H 510.39 3.02241 -2.55863 0
M  V30 5582 H 511.564 0.93491 -4.51216 0
M  V30 5583 H 509.879 0.999121 -4.04236 0
M  V30 5584 H 512.476 3.76919 -3.79257 0
M  V30 5585 H 512.819 3.60132 -2.08831 0
M  V30 5586 H 513.352 2.33495 -3.22063 0
M  V30 5587 H 510.091 2.10119 -6.20911 0
M  V30 5588 H 509.611 3.31363 -4.99959 0
M  V30 5589 H 511.29 3.25575 -5.59115 0
M  V30 5590 N 511.423 1.38739 0.74761 0
M  V30 5591 C 512.37 1.36449 1.86146 0
M  V30 5592 C 513.34 0.226098 1.64554 0
M  V30 5593 O 514.525 0.41926 1.86137 0
M  V30 5594 C 511.665 1.2013 3.23516 0
M  V30 5595 C 510.778 2.43407 3.56899 0
M  V30 5596 C 509.913 2.19773 4.83605 0
M  V30 5597 C 508.952 3.3879 5.09792 0
M  V30 5598 N 508.089 3.14553 6.27695 0
M  V30 5599 H 512.929 2.3167 1.87438 0
M  V30 5600 H 510.466 1.15094 0.916063 0
M  V30 5601 H 512.424 1.08683 4.02795 0
M  V30 5602 H 511.054 0.285453 3.21535 0
M  V30 5603 H 510.106 2.65504 2.72418 0
M  V30 5604 H 511.418 3.32094 3.72176 0
M  V30 5605 H 510.572 2.05496 5.70838 0
M  V30 5606 H 509.311 1.28461 4.70478 0
M  V30 5607 H 508.316 3.53579 4.21025 0
M  V30 5608 H 509.541 4.30986 5.24812 0
M  V30 5609 H 507.487 2.25893 6.1588 0
M  V30 5610 H 507.404 3.96791 6.435 0
M  V30 5611 H 508.672 3.03943 7.17801 0
M  V30 5612 N 512.901 -0.976442 1.23707 0
M  V30 5613 C 514.129 -1.75341 1.09833 0
M  V30 5614 C 514.544 -1.8553 -0.349885 0
M  V30 5615 O 513.901 -1.33732 -1.24185 0
M  V30 5616 C 513.952 -3.17833 1.72233 0
M  V30 5617 O 513.673 -3.08167 3.11391 0
M  V30 5618 C 515.174 -4.11906 1.63853 0
M  V30 5619 H 512.394 -0.550137 0.384175 0
M  V30 5620 H 514.938 -1.2265 1.63638 0
M  V30 5621 H 513.093 -3.67538 1.22452 0
M  V30 5622 H 513.507 -3.97897 3.41729 0
M  V30 5623 H 514.981 -5.09579 2.12211 0
M  V30 5624 H 515.458 -4.35109 0.598092 0
M  V30 5625 H 516.064 -3.68107 2.13019 0
M  V30 5626 N 514.379 -1.04941 -1.1758 0
M  V30 5627 C 515.309 -0.669172 -2.23706 0
M  V30 5628 C 516.29 0.331835 -1.66832 0
M  V30 5629 O 517.475 0.209988 -1.93061 0
M  V30 5630 C 514.605 -0.0404889 -3.47276 0
M  V30 5631 C 513.559 -0.965983 -4.16957 0
M  V30 5632 C 512.885 -0.201312 -5.34321 0
M  V30 5633 C 514.185 -2.28902 -4.69469 0
M  V30 5634 H 515.879 -1.55639 -2.55767 0
M  V30 5635 H 513.425 -0.749793 -1.22939 0
M  V30 5636 H 515.378 0.237298 -4.20731 0
M  V30 5637 H 514.102 0.881658 -3.14475 0
M  V30 5638 H 512.761 -1.22829 -3.45411 0
M  V30 5639 H 512.409 0.723519 -4.97769 0
M  V30 5640 H 512.109 -0.817968 -5.81879 0
M  V30 5641 H 513.633 0.0692499 -6.10561 0
M  V30 5642 H 515.047 -2.07132 -5.34574 0
M  V30 5643 H 513.444 -2.85942 -5.27596 0
M  V30 5644 H 514.514 -2.92937 -3.86414 0
M  V30 5645 N 515.857 1.33968 -0.830081 0
M  V30 5646 C 516.789 2.28194 -0.21448 0
M  V30 5647 C 517.802 1.5135 0.599752 0
M  V30 5648 O 518.991 1.73286 0.42826 0
M  V30 5649 C 516.091 3.31221 0.717356 0
M  V30 5650 C 515.264 4.37365 -0.055613 0
M  V30 5651 C 514.323 5.2011 0.798231 0
M  V30 5652 O 513.349 5.68691 0.240616 0
M  V30 5653 N 514.551 5.40523 2.11695 0
M  V30 5654 H 517.316 2.81662 -1.02405 0
M  V30 5655 H 514.877 1.46568 -0.687713 0
M  V30 5656 H 516.869 3.83477 1.29334 0
M  V30 5657 H 515.439 2.78095 1.42765 0
M  V30 5658 H 514.659 3.85727 -0.812936 0
M  V30 5659 H 515.947 5.05397 -0.587444 0
M  V30 5660 H 515.345 5.0274 2.59363 0
M  V30 5661 H 513.902 5.95871 2.64162 0
M  V30 5662 N 517.335 0.585699 1.46312 0
M  V30 5663 C 518.282 -0.145835 2.30339 0
M  V30 5664 C 519.252 -0.881215 1.40797 0
M  V30 5665 O 520.437 -0.871293 1.69744 0
M  V30 5666 C 517.577 -1.15161 3.25318 0
M  V30 5667 C 516.69 -0.419367 4.2996 0
M  V30 5668 C 515.825 -1.41293 5.12064 0
M  V30 5669 C 514.864 -0.667261 6.08452 0
M  V30 5670 N 514.001 -1.60903 6.83414 0
M  V30 5671 H 518.841 0.576755 2.92365 0
M  V30 5672 H 516.378 0.296237 1.44086 0
M  V30 5673 H 518.336 -1.74763 3.78832 0
M  V30 5674 H 516.966 -1.84188 2.65094 0
M  V30 5675 H 516.018 0.291751 3.7928 0
M  V30 5676 H 517.33 0.163433 4.98532 0
M  V30 5677 H 516.484 -2.08167 5.6987 0
M  V30 5678 H 515.223 -2.02966 4.43459 0
M  V30 5679 H 514.228 0.0152356 5.49798 0
M  V30 5680 H 515.453 -0.0558817 6.79077 0
M  V30 5681 H 513.399 -2.21381 6.17516 0
M  V30 5682 H 513.316 -1.07911 7.48259 0
M  V30 5683 H 514.584 -2.26802 7.45775 0
M  V30 5684 N 518.813 -1.54241 0.323641 0
M  V30 5685 C 520.061 -2.00174 -0.278359 0
M  V30 5686 C 520.382 -1.2134 -1.52648 0
M  V30 5687 O 519.652 -0.315244 -1.93347 0
M  V30 5688 H 518.232 -0.739463 -0.105845 0
M  V30 5689 H 520.894 -1.89864 0.440204 0
M  V30 5690 H 519.99 -3.07486 -0.5347 0
M  V30 5691 N 520.291 -0.0518155 -1.57515 0
M  V30 5692 C 521.201 0.937539 -2.15052 0
M  V30 5693 C 522.217 1.34121 -1.10849 0
M  V30 5694 O 523.393 1.418 -1.4302 0
M  V30 5695 C 520.458 2.19379 -2.68466 0
M  V30 5696 C 519.519 1.84841 -3.87469 0
M  V30 5697 C 518.752 3.04477 -4.38326 0
M  V30 5698 O 518.975 4.17868 -3.88256 0
M  V30 5699 O 517.909 2.85453 -5.29906 0
M  V30 5700 H 521.735 0.478201 -2.99912 0
M  V30 5701 H 519.32 0.17012 -1.48428 0
M  V30 5702 H 521.202 2.93084 -3.02787 0
M  V30 5703 H 519.877 2.64449 -1.86677 0
M  V30 5704 H 518.784 1.08449 -3.58036 0
M  V30 5705 H 520.117 1.44569 -4.7049 0
M  V30 5706 N 521.769 1.56035 0.221574 0
M  V30 5707 C 522.999 1.82864 0.961468 0
M  V30 5708 C 523.407 0.628703 1.78449 0
M  V30 5709 O 522.75 -0.412109 1.79018 0
M  V30 5710 C 522.812 3.03425 1.92804 0
M  V30 5711 C 522.476 4.38429 1.28954 0
M  V30 5712 C 523.473 5.15441 0.679431 0
M  V30 5713 C 521.158 4.85151 1.30131 0
M  V30 5714 C 523.152 6.37337 0.0896148 0
M  V30 5715 C 520.839 6.06989 0.707651 0
M  V30 5716 C 521.837 6.82923 0.102855 0
M  V30 5717 O 521.525 8.02456 -0.48157 0
M  V30 5718 H 521.257 0.611883 0.28736 0
M  V30 5719 H 523.811 2.0397 0.241932 0
M  V30 5720 H 522.041 2.78138 2.68656 0
M  V30 5721 H 523.73 3.17127 2.53348 0
M  V30 5722 H 524.496 4.80452 0.662661 0
M  V30 5723 H 520.375 4.26021 1.76145 0
M  V30 5724 H 523.919 6.96547 -0.383069 0
M  V30 5725 H 519.816 6.41451 0.721834 0
M  V30 5726 H 520.584 8.17636 -0.375887 0
M  V30 5727 N 523.247 -0.488276 1.49845 0
M  V30 5728 C 524.494 -1.24157 1.59973 0
M  V30 5729 C 524.822 -1.92293 0.292182 0
M  V30 5730 O 524.077 -1.81942 -0.720813 0
M  V30 5731 C 524.376 -2.32152 2.71735 0
M  V30 5732 C 524.042 -1.81387 4.12807 0
M  V30 5733 C 522.704 -1.67262 4.51195 0
M  V30 5734 C 525.056 -1.43537 5.01045 0
M  V30 5735 C 522.384 -1.13685 5.7558 0
M  V30 5736 C 524.736 -0.914081 6.25961 0
M  V30 5737 C 523.4 -0.759327 6.63167 0
M  V30 5738 H 522.67 -0.454322 0.585383 0
M  V30 5739 H 525.317 -0.540261 1.83721 0
M  V30 5740 H 523.622 -3.08122 2.42008 0
M  V30 5741 H 525.319 -2.90164 2.76778 0
M  V30 5742 H 521.909 -1.93344 3.82513 0
M  V30 5743 H 526.093 -1.53292 4.72033 0
M  V30 5744 H 521.349 -1.00426 6.03096 0
M  V30 5745 H 525.523 -0.612066 6.93705 0
M  V30 5746 H 523.15 -0.342002 7.5943 0
M  V30 5747 N 524.725 -1.39134 -0.740242 0
M  V30 5748 C 525.973 -1.35803 -1.49673 0
M  V30 5749 C 526.294 0.0470897 -1.94943 0
M  V30 5750 O 525.564 0.997347 -1.68611 0
M  V30 5751 H 524.144 -0.499736 -0.555224 0
M  V30 5752 H 526.806 -1.73947 -0.879107 0
M  V30 5753 H 525.902 -2.0174 -2.38133 0
M  V30 5754 N 526.204 0.969867 -1.24223 0
M  V30 5755 C 527.114 2.09806 -1.0497 0
M  V30 5756 C 528.13 1.73998 0.00886455 0
M  V30 5757 O 529.306 2.00513 -0.188848 0
M  V30 5758 C 526.371 3.40467 -0.654452 0
M  V30 5759 C 525.432 3.90236 -1.78926 0
M  V30 5760 C 524.665 5.14662 -1.41277 0
M  V30 5761 O 524.888 5.69602 -0.301632 0
M  V30 5762 O 523.822 5.58761 -2.23763 0
M  V30 5763 H 527.648 2.28942 -1.99548 0
M  V30 5764 H 525.233 1.08197 -1.03023 0
M  V30 5765 H 527.115 4.19039 -0.445452 0
M  V30 5766 H 525.79 3.22636 0.262216 0
M  V30 5767 H 524.697 3.12735 -2.05299 0
M  V30 5768 H 526.03 4.1254 -2.68462 0
M  V30 5769 N 527.682 1.05563 1.17022 0
M  V30 5770 C 528.629 0.659893 2.21165 0
M  V30 5771 C 529.599 -0.339813 1.62587 0
M  V30 5772 O 530.784 -0.230378 1.89404 0
M  V30 5773 C 527.924 0.0447297 3.45071 0
M  V30 5774 C 527.037 1.09372 4.17926 0
M  V30 5775 C 526.172 0.445481 5.29329 0
M  V30 5776 C 525.211 1.47852 5.93975 0
M  V30 5777 N 524.348 0.854172 6.96885 0
M  V30 5778 H 529.188 1.55243 2.54369 0
M  V30 5779 H 526.725 0.776336 1.24946 0
M  V30 5780 H 528.683 -0.329404 4.15898 0
M  V30 5781 H 527.313 -0.811244 3.1244 0
M  V30 5782 H 526.365 1.58564 3.45777 0
M  V30 5783 H 527.677 1.87773 4.62107 0
M  V30 5784 H 526.831 0.0179688 6.06697 0
M  V30 5785 H 525.57 -0.370481 4.86291 0
M  V30 5786 H 524.575 1.91601 5.15334 0
M  V30 5787 H 525.8 2.29645 6.39093 0
M  V30 5788 H 523.746 0.0587882 6.55974 0
M  V30 5789 H 523.663 1.57567 7.39397 0
M  V30 5790 H 524.931 0.451559 7.78191 0
M  V30 5791 N 529.16 -1.33526 0.837174 0
M  V30 5792 C 530.123 -2.27551 0.274421 0
M  V30 5793 C 531.123 -1.50886 -0.555881 0
M  V30 5794 O 532.313 -1.70227 -0.369918 0
M  V30 5795 C 529.445 -3.35332 -0.613605 0
M  V30 5796 H 530.638 -2.78837 1.10408 0
M  V30 5797 H 528.191 -1.439 0.610126 0
M  V30 5798 H 528.926 -2.89285 -1.46577 0
M  V30 5799 H 528.711 -3.92095 -0.0195341 0
M  V30 5800 H 530.201 -4.05433 -1.00068 0
M  V30 5801 N 530.638 -0.59345 -1.46 0
M  V30 5802 C 531.568 0.121192 -2.33185 0
M  V30 5803 C 532.549 0.872977 -1.4599 0
M  V30 5804 O 533.734 0.846321 -1.74789 0
M  V30 5805 C 530.864 1.12844 -3.28456 0
M  V30 5806 C 529.818 0.4908 -4.25177 0
M  V30 5807 C 529.144 1.60529 -5.10034 0
M  V30 5808 C 530.444 -0.578949 -5.19081 0
M  V30 5809 H 532.138 -0.606767 -2.93187 0
M  V30 5810 H 529.684 -0.293242 -1.40983 0
M  V30 5811 H 531.637 1.63684 -3.88311 0
M  V30 5812 H 530.361 1.88681 -2.66584 0
M  V30 5813 H 529.02 0.00339328 -3.666 0
M  V30 5814 H 528.668 2.35359 -4.44539 0
M  V30 5815 H 528.368 1.18422 -5.75543 0
M  V30 5816 H 529.892 2.11623 -5.72755 0
M  V30 5817 H 531.306 -0.155199 -5.7309 0
M  V30 5818 H 529.703 -0.920947 -5.92991 0
M  V30 5819 H 530.773 -1.46109 -4.62364 0
M  V30 5820 N 532.116 1.54067 -0.331816 0
M  V30 5821 C 533.365 1.99895 0.269209 0
M  V30 5822 C 533.678 1.22371 1.52593 0
M  V30 5823 O 534.884 1.58618 2.20347 0
M  V30 5824 C 533.34 3.55972 0.530244 0
M  V30 5825 C 532.948 4.4234 -0.709901 0
M  V30 5826 C 534.692 4.10247 1.09077 0
M  V30 5827 C 532.599 5.89905 -0.420312 0
M  V30 5828 H 531.529 0.746741 0.104371 0
M  V30 5829 H 534.18 1.78014 -0.445324 0
M  V30 5830 H 532.562 3.73873 1.30518 0
M  V30 5831 H 533.736 4.36215 -1.48504 0
M  V30 5832 H 532.051 3.98997 -1.19123 0
M  V30 5833 H 534.648 5.18095 1.32219 0
M  V30 5834 H 534.991 3.62739 2.0427 0
M  V30 5835 H 535.524 3.96011 0.376824 0
M  V30 5836 H 532.263 6.41623 -1.34164 0
M  V30 5837 H 531.783 5.98962 0.316962 0
M  V30 5838 H 533.462 6.46991 -0.0331956 0
M  V30 5839 N 533.594 0.0601682 1.57485 0
M  V30 5840 C 534.819 -0.624416 1.97777 0
M  V30 5841 C 535.244 -1.63051 0.937867 0
M  V30 5842 O 534.602 -1.81036 -0.0978845 0
M  V30 5843 C 534.65 -1.27979 3.37126 0
M  V30 5844 O 533.754 -2.39556 3.35688 0
M  V30 5845 H 533.095 -0.161581 0.64404 0
M  V30 5846 H 535.625 0.131237 2.04179 0
M  V30 5847 H 535.635 -1.62937 3.74053 0
M  V30 5848 H 534.31 -0.542501 4.12347 0
M  V30 5849 H 532.887 -2.06478 3.10517 0
M  V30 5850 N 535.072 -1.5615 -0.213296 0
M  V30 5851 C 536.349 -1.70349 -0.961281 0
M  V30 5852 C 536.729 -0.609791 -2.02101 0
M  V30 5853 O 536.077 0.381987 -2.25285 0
M  V30 5854 C 536.287 -3.11982 -1.56424 0
M  V30 5855 C 537.635 -3.71649 -2.05334 0
M  V30 5856 O 538.659 -3.14995 -1.66302 0
M  V30 5857 O 537.518 -4.71038 -2.77102 0
M  V30 5858 H 534.612 -0.694121 -0.449582 0
M  V30 5859 H 537.158 -1.68464 -0.204426 0
M  V30 5860 H 535.93 -3.83046 -0.799457 0
M  V30 5861 H 535.553 -3.18019 -2.38641 0
M  V30 5862 N 536.55 0.480323 -1.50102 0
M  V30 5863 C 537.827 1.24159 -1.51142 0
M  V30 5864 C 538.207 2.09605 -0.250818 0
M  V30 5865 O 537.555 2.15274 0.766118 0
M  V30 5866 C 537.765 2.08057 -2.80202 0
M  V30 5867 C 539.113 2.66556 -3.30504 0
M  V30 5868 O 540.137 2.18308 -2.81461 0
M  V30 5869 O 538.996 3.54442 -4.15973 0
M  V30 5870 H 536.09 0.562928 -0.605839 0
M  V30 5871 H 538.636 0.492899 -1.62384 0
M  V30 5872 H 537.408 1.45032 -3.6343 0
M  V30 5873 H 537.031 2.90079 -2.71919 0
M  V30 5874 N 538.028 1.39524 0.732853 0
M  V30 5875 C 539.274 1.37068 1.49467 0
M  V30 5876 C 539.607 -0.0327166 1.94172 0
M  V30 5877 O 538.882 -0.998071 1.66939 0
M  V30 5878 C 539.165 2.34494 2.73285 0
M  V30 5879 C 539.018 3.83784 2.34585 0
M  V30 5880 C 540.337 2.29717 3.75391 0
M  V30 5881 H 537.456 0.499206 0.542183 0
M  V30 5882 H 540.098 1.70532 0.837783 0
M  V30 5883 H 538.248 2.06087 3.29333 0
M  V30 5884 H 539.92 4.22949 1.84151 0
M  V30 5885 H 538.163 4.00455 1.66787 0
M  V30 5886 H 538.834 4.47444 3.23262 0
M  V30 5887 H 541.31 2.54839 3.28932 0
M  V30 5888 H 540.186 2.99962 4.59689 0
M  V30 5889 H 540.447 1.30291 4.22465 0
M  V30 5890 N 539.506 -0.963266 1.24736 0
M  V30 5891 C 540.922 -1.23273 1.01371 0
M  V30 5892 C 541.122 -1.99618 -0.274776 0
M  V30 5893 O 540.178 -2.32293 -0.989769 0
M  V30 5894 C 541.491 -2.01554 2.23152 0
M  V30 5895 C 543.039 -2.14629 2.27823 0
M  V30 5896 C 543.514 -2.96307 3.49237 0
M  V30 5897 N 545.005 -3.03887 3.49581 0
M  V30 5898 C 545.74 -3.67456 4.40186 0
M  V30 5899 N 545.236 -4.32706 5.41052 0
M  V30 5900 N 547.029 -3.64511 4.27888 0
M  V30 5901 H 539.18 -0.452294 2.07528 0
M  V30 5902 H 541.443 -0.262521 0.910926 0
M  V30 5903 H 541.149 -1.52847 3.1675 0
M  V30 5904 H 541.023 -3.02278 2.25628 0
M  V30 5905 H 543.41 -2.62537 1.34753 0
M  V30 5906 H 543.491 -1.13238 2.2937 0
M  V30 5907 H 543.135 -2.49091 4.42624 0
M  V30 5908 H 543.065 -3.97905 3.44933 0
M  V30 5909 H 545.556 -2.57477 2.76611 0
M  V30 5910 H 545.869 -4.79042 6.06415 0
M  V30 5911 H 544.214 -4.31361 5.44934 0
M  V30 5912 H 547.405 -3.12715 3.4832 0
M  V30 5913 H 547.578 -4.13768 4.98698 0
M  V30 5914 N 540.985 -1.06182 -1.16461 0
M  V30 5915 C 542.21 -0.798599 -1.91408 0
M  V30 5916 C 542.635 0.640987 -1.76842 0
M  V30 5917 O 541.993 1.44652 -1.09296 0
M  V30 5918 C 542.041 -1.19665 -3.40165 0
M  V30 5919 O 541.145 -0.334768 -4.11039 0
M  V30 5920 H 540.486 -0.291961 -0.596368 0
M  V30 5921 H 543.016 -1.41732 -1.47557 0
M  V30 5922 H 543.026 -1.16772 -3.90933 0
M  V30 5923 H 541.701 -2.24526 -3.50087 0
M  V30 5924 H 540.278 -0.425168 -3.70468 0
M  V30 5925 N 542.463 1.3308 -0.844243 0
M  V30 5926 C 543.426 2.27403 -0.286485 0
M  V30 5927 C 544.426 1.51179 0.547872 0
M  V30 5928 O 545.616 1.70421 0.360886 0
M  V30 5929 C 542.748 3.35653 0.595813 0
M  V30 5930 H 543.941 2.78248 -1.11885 0
M  V30 5931 H 541.494 1.43574 -0.617749 0
M  V30 5932 H 542.229 2.90058 1.4504 0
M  V30 5933 H 542.014 3.921 -0.00125994 0
M  V30 5934 H 543.504 4.05958 0.979168 0
M  V30 5935 N 543.941 0.601185 1.45683 0
M  V30 5936 C 544.889 -0.133955 2.32214 0
M  V30 5937 C 545.883 -0.866034 1.45589 0
M  V30 5938 O 547.089 -0.782326 1.6211 0
M  V30 5939 H 543.464 -0.0620613 0.749435 0
M  V30 5940 H 545.435 0.614389 2.92007 0
M  V30 5941 C 544.184 -1.12216 3.29094 0
M  V30 5942 H 543.507 -0.568273 3.95741 0
M  V30 5943 H 544.947 -1.60659 3.92383 0
M  V30 5944 C 543.406 -2.19251 2.55794 0
M  V30 5945 O 543.936 -3.26894 2.33459 0
M  V30 5946 N 542.142 -1.9436 2.16039 0
M  V30 5947 H 541.689 -1.06829 2.34404 0
M  V30 5948 H 541.647 -2.66181 1.67318 0
M  V30 5949 N 545.419 -1.53889 0.339982 0
M  V30 5950 C 546.668 -2.00035 -0.258604 0
M  V30 5951 C 546.981 -1.23179 -1.51942 0
M  V30 5952 O 548.187 -1.59784 -2.19503 0
M  V30 5953 C 546.643 -3.56249 -0.511359 0
M  V30 5954 C 546.251 -4.41957 0.733349 0
M  V30 5955 C 547.995 -4.1082 -1.069 0
M  V30 5956 C 545.902 -5.89673 0.451591 0
M  V30 5957 H 544.832 -0.747284 -0.10041 0
M  V30 5958 H 547.483 -1.77776 0.454758 0
M  V30 5959 H 545.865 -3.7456 -1.28533 0
M  V30 5960 H 547.039 -4.35421 1.50815 0
M  V30 5961 H 545.354 -3.9836 1.21237 0
M  V30 5962 H 547.951 -5.18789 -1.2947 0
M  V30 5963 H 548.294 -3.63817 -2.02343 0
M  V30 5964 H 548.827 -3.96205 -0.355817 0
M  V30 5965 H 545.566 -6.40903 1.37565 0
M  V30 5966 H 545.086 -5.99122 -0.285193 0
M  V30 5967 H 546.765 -6.46965 0.0675067 0
M  V30 5968 N 546.897 -0.0685191 -1.57451 0
M  V30 5969 C 548.146 0.600898 -1.92541 0
M  V30 5970 C 548.459 1.70967 -0.950239 0
M  V30 5971 O 549.665 2.43844 -1.19384 0
M  V30 5972 C 548.121 1.12019 -3.42023 0
M  V30 5973 C 547.729 0.0426028 -4.4798 0
M  V30 5974 C 549.473 1.76386 -3.86119 0
M  V30 5975 C 547.38 0.575759 -5.88591 0
M  V30 5976 H 546.31 0.228225 -0.71863 0
M  V30 5977 H 548.961 -0.140223 -1.82963 0
M  V30 5978 H 547.343 1.91418 -3.46663 0
M  V30 5979 H 548.517 -0.73182 -4.54952 0
M  V30 5980 H 546.832 -0.504642 -4.13331 0
M  V30 5981 H 549.429 2.17302 -4.88553 0
M  V30 5982 H 549.772 2.62255 -3.23308 0
M  V30 5983 H 550.305 1.03615 -3.84069 0
M  V30 5984 H 547.044 -0.245691 -6.55039 0
M  V30 5985 H 546.564 1.31778 -5.85145 0
M  V30 5986 H 548.243 1.0532 -6.3837 0
M  V30 5987 N 548.375 1.56261 0.205012 0
M  V30 5988 C 549.338 1.92908 1.23771 0
M  V30 5989 C 550.338 0.809208 1.38955 0
M  V30 5990 O 551.528 1.07676 1.36936 0
M  V30 5991 C 548.66 2.19442 2.60879 0
M  V30 5992 H 549.853 2.85287 0.924728 0
M  V30 5993 H 547.406 1.49798 0.446125 0
M  V30 5994 H 548.141 1.29668 2.97248 0
M  V30 5995 H 547.926 3.0104 2.51232 0
M  V30 5996 H 549.416 2.48833 3.35368 0
M  V30 5997 N 549.853 -0.472356 1.50355 0
M  V30 5998 C 550.763 -1.59637 1.7191 0
M  V30 5999 C 551.779 -1.63247 0.602195 0
M  V30 6000 O 552.955 -1.81139 0.880369 0
M  V30 6001 C 550.02 -2.9586 1.80742 0
M  V30 6002 C 549.081 -3.02649 3.04471 0
M  V30 6003 C 548.314 -4.32374 3.12872 0
M  V30 6004 O 548.537 -5.22807 2.28099 0
M  V30 6005 O 547.471 -4.44728 4.05587 0
M  V30 6006 H 551.297 -1.44373 2.67189 0
M  V30 6007 H 548.882 -0.651717 1.34436 0
M  V30 6008 H 550.764 -3.7677 1.88739 0
M  V30 6009 H 549.439 -3.11325 0.88647 0
M  V30 6010 H 548.346 -2.20821 3.01975 0
M  V30 6011 H 549.679 -2.92119 3.9614 0
M  V30 6012 N 551.331 -1.39911 -0.725443 0
M  V30 6013 C 552.241 -1.41688 -1.8698 0
M  V30 6014 C 553.257 -0.310579 -1.71206 0
M  V30 6015 O 554.433 -0.55359 -1.93642 0
M  V30 6016 C 551.498 -1.26811 -3.22676 0
M  V30 6017 C 550.559 -2.47497 -3.50776 0
M  V30 6018 C 549.792 -2.3332 -4.79997 0
M  V30 6019 O 550.015 -1.34175 -5.54394 0
M  V30 6020 O 548.949 -3.22498 -5.08211 0
M  V30 6021 H 552.775 -2.38171 -1.88436 0
M  V30 6022 H 550.36 -1.21128 -0.874548 0
M  V30 6023 H 552.242 -1.20684 -4.03749 0
M  V30 6024 H 550.917 -0.334289 -3.21969 0
M  V30 6025 H 549.824 -2.59201 -2.69751 0
M  V30 6026 H 551.157 -3.39606 -3.5627 0
M  V30 6027 N 552.809 0.956637 -1.25245 0
M  V30 6028 C 553.757 2.0743 -1.0524 0
M  V30 6029 C 554.751 1.69392 0.0160725 0
M  V30 6030 O 555.957 1.7946 -0.139382 0
M  V30 6031 H 552.332 0.678921 -0.323373 0
M  V30 6032 H 554.303 2.2146 -1.99995 0
M  V30 6033 C 553.052 3.40872 -0.685702 0
M  V30 6034 H 552.375 3.70607 -1.49968 0
M  V30 6035 H 553.815 4.19939 -0.585415 0
M  V30 6036 C 552.274 3.31367 0.608082 0
M  V30 6037 O 552.804 3.66214 1.65076 0
M  V30 6038 N 551.01 2.84486 0.592955 0
M  V30 6039 H 550.557 2.56326 -0.25592 0
M  V30 6040 H 550.515 2.78509 1.45877 0
M  V30 6041 N 554.287 1.06798 1.15896 0
M  V30 6042 C 555.564 0.701057 1.82605 0
M  V30 6043 C 555.944 -0.817066 1.94646 0
M  V30 6044 O 555.292 -1.72933 1.49353 0
M  V30 6045 C 555.502 1.40895 3.19296 0
M  V30 6046 C 556.85 1.55744 3.95005 0
M  V30 6047 O 557.874 1.36927 3.28831 0
M  V30 6048 O 556.733 1.86658 5.13635 0
M  V30 6049 H 553.827 0.248791 0.78869 0
M  V30 6050 H 556.373 1.16857 1.23055 0
M  V30 6051 H 555.145 2.4439 3.05596 0
M  V30 6052 H 554.768 0.931847 3.86526 0
M  V30 6053 N 555.766 -1.3263 0.851289 0
M  V30 6054 C 557.012 -1.9766 0.453694 0
M  V30 6055 C 557.345 -1.67225 -0.987396 0
M  V30 6056 O 556.62 -0.958693 -1.69232 0
M  V30 6057 C 556.903 -3.5344 0.68936 0
M  V30 6058 C 556.756 -3.93517 2.17862 0
M  V30 6059 C 558.075 -4.39866 0.143555 0
M  V30 6060 H 555.194 -0.717989 0.166314 0
M  V30 6061 H 557.836 -1.57068 1.06909 0
M  V30 6062 H 555.986 -3.88147 0.165546 0
M  V30 6063 H 557.658 -3.69006 2.76826 0
M  V30 6064 H 555.901 -3.42798 2.65841 0
M  V30 6065 H 556.572 -5.02065 2.29422 0
M  V30 6066 H 559.048 -4.11875 0.591451 0
M  V30 6067 H 557.924 -5.47858 0.338043 0
M  V30 6068 H 558.185 -4.31696 -0.953466 0
M  V30 6069 N 557.244 -0.608902 -1.45362 0
M  V30 6070 C 558.207 0.0992563 -2.28985 0
M  V30 6071 C 559.207 0.793841 -1.39838 0
M  V30 6072 O 560.397 0.641804 -1.61946 0
M  V30 6073 C 557.529 1.15073 -3.20891 0
M  V30 6074 H 558.722 -0.635964 -2.93079 0
M  V30 6075 H 556.275 -0.368007 -1.51906 0
M  V30 6076 H 557.01 1.91667 -2.616 0
M  V30 6077 H 556.795 0.656867 -3.86559 0
M  V30 6078 H 558.285 1.64665 -3.83765 0
M  V30 6079 N 558.722 1.53707 -0.348139 0
M  V30 6080 C 559.962 2.02899 0.247254 0
M  V30 6081 C 560.326 1.23033 1.47401 0
M  V30 6082 O 561.527 1.62146 2.14388 0
M  V30 6083 C 559.798 3.53156 0.549151 0
M  V30 6084 S 561.357 4.24247 1.1207 0
M  V30 6085 H 558.175 0.707213 0.0732894 0
M  V30 6086 H 560.777 1.89338 -0.486965 0
M  V30 6087 H 559.481 4.08893 -0.351435 0
M  V30 6088 H 559.012 3.70845 1.31291 0
M  V30 6089 H 561.027 4.33958 2.40613 0
M  V30 6090 N 560.2 0.0768682 1.57412 0
M  V30 6091 C 561.13 -0.886026 2.16037 0
M  V30 6092 C 562.111 -1.30691 1.08876 0
M  V30 6093 O 563.296 -1.37705 1.36934 0
M  V30 6094 C 560.426 -2.1518 2.72608 0
M  V30 6095 C 559.38 -1.87015 3.8498 0
M  V30 6096 C 558.706 -3.20266 4.28175 0
M  V30 6097 C 560.006 -1.17143 5.08994 0
M  V30 6098 H 561.7 -0.397642 2.96748 0
M  V30 6099 H 559.246 -0.189823 1.42743 0
M  V30 6100 H 561.199 -2.82962 3.12266 0
M  V30 6101 H 559.923 -2.66269 1.89125 0
M  V30 6102 H 558.582 -1.21636 3.45833 0
M  V30 6103 H 558.23 -3.69207 3.41607 0
M  V30 6104 H 557.93 -3.0221 5.03927 0
M  V30 6105 H 559.454 -3.89237 4.70454 0
M  V30 6106 H 560.868 -1.75003 5.45937 0
M  V30 6107 H 559.265 -1.09328 5.90057 0
M  V30 6108 H 560.335 -0.151295 4.84664 0
M  V30 6109 N 561.678 -1.56367 -0.196722 0
M  V30 6110 C 562.924 -1.80796 -0.918725 0
M  V30 6111 C 563.257 -0.650645 -1.82976 0
M  V30 6112 O 562.532 0.348889 -1.91345 0
M  V30 6113 C 562.815 -3.15472 -1.73636 0
M  V30 6114 C 562.668 -4.41693 -0.85015 0
M  V30 6115 C 563.987 -3.46824 -2.70927 0
M  V30 6116 H 561.106 -0.657702 -0.332561 0
M  V30 6117 H 563.748 -1.89086 -0.186186 0
M  V30 6118 H 561.898 -3.08536 -2.36088 0
M  V30 6119 H 563.57 -4.60673 -0.240459 0
M  V30 6120 H 561.813 -4.33517 -0.156785 0
M  V30 6121 H 562.484 -5.32419 -1.45719 0
M  V30 6122 H 564.96 -3.54049 -2.18607 0
M  V30 6123 H 563.836 -4.4218 -3.25219 0
M  V30 6124 H 564.097 -2.70236 -3.49893 0
M  V30 6125 N 563.156 0.464375 -1.50603 0
M  V30 6126 C 564.405 1.21277 -1.61167 0
M  V30 6127 C 564.718 1.92953 -0.320704 0
M  V30 6128 O 565.924 2.69778 -0.30534 0
M  V30 6129 C 564.38 2.20403 -2.84518 0
M  V30 6130 C 563.988 1.54499 -4.20516 0
M  V30 6131 C 565.732 2.95843 -3.0443 0
M  V30 6132 C 563.639 2.51951 -5.35047 0
M  V30 6133 H 562.569 0.456367 -0.600204 0
M  V30 6134 H 565.22 0.48254 -1.77042 0
M  V30 6135 H 563.602 2.96746 -2.62217 0
M  V30 6136 H 564.776 0.83899 -4.53098 0
M  V30 6137 H 563.091 0.913152 -4.06264 0
M  V30 6138 H 565.688 3.6879 -3.87167 0
M  V30 6139 H 566.031 3.55622 -2.16423 0
M  V30 6140 H 566.564 2.26611 -3.26944 0
M  V30 6141 H 563.303 1.96901 -6.25228 0
M  V30 6142 H 562.823 3.20683 -5.06875 0
M  V30 6143 H 564.502 3.13643 -5.65895 0
M  V30 6144 N 564.634 1.40294 0.718013 0
M  V30 6145 C 565.911 1.2894 1.47084 0
M  V30 6146 C 566.291 -0.0933625 2.10893 0
M  V30 6147 O 565.639 -1.10598 1.99951 0
M  V30 6148 C 565.849 2.4264 2.50852 0
M  V30 6149 C 567.197 2.8276 3.16752 0
M  V30 6150 O 568.221 2.42215 2.61171 0
M  V30 6151 O 567.08 3.528 4.17366 0
M  V30 6152 H 564.174 0.506236 0.653952 0
M  V30 6153 H 566.72 1.52208 0.750394 0
M  V30 6154 H 565.492 3.35009 2.022 0
M  V30 6155 H 565.115 2.21129 3.30435 0
M  V30 6156 N 566.112 -0.949982 1.2575 0
M  V30 6157 C 567.528 -1.22191 1.02672 0
M  V30 6158 C 567.728 -1.99898 -0.253588 0
M  V30 6159 O 566.784 -2.33329 -0.965076 0
M  V30 6160 C 568.097 -1.99175 2.25277 0
M  V30 6161 C 569.645 -2.12201 2.30087 0
M  V30 6162 C 570.12 -2.92586 3.5236 0
M  V30 6163 N 571.611 -3.00163 3.52784 0
M  V30 6164 C 572.346 -3.62766 4.44059 0
M  V30 6165 N 571.842 -4.26943 5.45611 0
M  V30 6166 N 573.635 -3.59953 4.3173 0
M  V30 6167 H 565.786 -0.430258 2.07996 0
M  V30 6168 H 568.049 -0.252844 0.91366 0
M  V30 6169 H 567.755 -1.49479 3.18354 0
M  V30 6170 H 567.629 -2.99868 2.28821 0
M  V30 6171 H 570.016 -2.61093 1.3753 0
M  V30 6172 H 570.097 -1.10799 2.30559 0
M  V30 6173 H 569.741 -2.44383 4.45241 0
M  V30 6174 H 569.671 -3.94224 3.49134 0
M  V30 6175 H 572.162 -2.54529 2.79327 0
M  V30 6176 H 572.475 -4.72583 6.11461 0
M  V30 6177 H 570.82 -4.25557 5.49478 0
M  V30 6178 H 574.011 -3.09003 3.51617 0
M  V30 6179 H 574.184 -4.08455 5.03059 0
M  V30 6180 N 567.59 -1.07411 -1.15328 0
M  V30 6181 C 568.5 -0.706438 -2.23711 0
M  V30 6182 C 569.516 0.282586 -1.7169 0
M  V30 6183 O 570.692 0.129066 -2.00986 0
M  V30 6184 C 567.757 -0.11048 -3.46524 0
M  V30 6185 C 566.818 -1.15282 -4.13532 0
M  V30 6186 C 566.051 -0.585205 -5.30482 0
M  V30 6187 O 566.274 0.598549 -5.67251 0
M  V30 6188 O 565.208 -1.33039 -5.87013 0
M  V30 6189 H 569.034 -1.61031 -2.57493 0
M  V30 6190 H 566.619 -0.847113 -1.23062 0
M  V30 6191 H 568.501 0.21957 -4.20828 0
M  V30 6192 H 567.176 0.766703 -3.14489 0
M  V30 6193 H 566.083 -1.53523 -3.41147 0
M  V30 6194 H 567.416 -2.00192 -4.49649 0
M  V30 6195 N 569.068 1.32177 -0.85831 0
M  V30 6196 C 570.296 2.01313 -0.477582 0
M  V30 6197 C 570.711 1.6449 0.926736 0
M  V30 6198 O 570.068 0.868096 1.60531 0
M  V30 6199 C 570.119 3.56293 -0.611337 0
M  V30 6200 O 569.84 3.91794 -1.96034 0
M  V30 6201 C 571.341 4.42702 -0.230093 0
M  V30 6202 H 568.561 0.644323 -0.187322 0
M  V30 6203 H 571.105 1.68674 -1.15626 0
M  V30 6204 H 569.26 3.87395 0.0196494 0
M  V30 6205 H 569.674 4.86513 -1.95973 0
M  V30 6206 H 571.148 5.50727 -0.374674 0
M  V30 6207 H 571.625 4.3129 0.829779 0
M  V30 6208 H 572.231 4.16997 -0.836302 0
M  V30 6209 N 570.547 0.616602 1.45037 0
M  V30 6210 C 571.794 0.115331 2.02171 0
M  V30 6211 C 572.122 -1.25748 1.48383 0
M  V30 6212 O 571.377 -1.84511 0.652229 0
M  V30 6213 C 571.676 0.0356829 3.57382 0
M  V30 6214 C 571.342 1.34535 4.30362 0
M  V30 6215 C 570.004 1.70408 4.50016 0
M  V30 6216 C 572.356 2.21049 4.72003 0
M  V30 6217 C 569.684 2.92529 5.0857 0
M  V30 6218 C 572.036 3.42427 5.31908 0
M  V30 6219 C 570.7 3.78541 5.49784 0
M  V30 6220 H 569.97 0.0422024 0.739797 0
M  V30 6221 H 572.617 0.80002 1.73988 0
M  V30 6222 H 570.922 -0.732314 3.84895 0
M  V30 6223 H 572.619 -0.368463 3.99304 0
M  V30 6224 H 569.209 1.05615 4.15383 0
M  V30 6225 H 573.393 1.94632 4.56544 0
M  V30 6226 H 568.649 3.20605 5.20598 0
M  V30 6227 H 572.823 4.09709 5.63127 0
M  V30 6228 H 570.45 4.73255 5.94923 0
M  V30 6229 N 572.025 -1.5352 0.356285 0
M  V30 6230 C 572.973 -2.26945 -0.50978 0
M  V30 6231 C 573.967 -1.29569 -1.09125 0
M  V30 6232 O 575.173 -1.47231 -1.03552 0
M  V30 6233 H 571.548 -0.729368 -0.183102 0
M  V30 6234 H 573.519 -2.98111 0.131374 0
M  V30 6235 C 572.268 -3.06466 -1.64237 0
M  V30 6236 H 571.591 -3.81233 -1.20423 0
M  V30 6237 H 573.031 -3.61035 -2.22327 0
M  V30 6238 C 571.49 -2.16737 -2.57928 0
M  V30 6239 O 572.02 -1.77195 -3.60507 0
M  V30 6240 N 570.226 -1.81558 -2.26903 0
M  V30 6241 H 569.773 -2.13913 -1.43524 0
M  V30 6242 H 569.731 -1.21806 -2.89846 0
M  V30 6243 N 573.503 -0.0852151 -1.57369 0
M  V30 6244 C 574.435 0.907099 -2.10486 0
M  V30 6245 C 575.448 1.25259 -1.03991 0
M  V30 6246 O 576.637 1.20743 -1.31467 0
M  V30 6247 C 573.737 2.21908 -2.56145 0
M  V30 6248 C 572.91 2.05042 -3.86363 0
M  V30 6249 C 571.969 3.19664 -4.17973 0
M  V30 6250 O 570.995 2.94062 -4.87356 0
M  V30 6251 N 572.197 4.45151 -3.72587 0
M  V30 6252 H 574.962 0.453505 -2.96249 0
M  V30 6253 H 572.523 0.100157 -1.6159 0
M  V30 6254 H 574.515 2.97519 -2.74343 0
M  V30 6255 H 573.085 2.58723 -1.75446 0
M  V30 6256 H 572.305 1.13819 -3.77411 0
M  V30 6257 H 573.593 1.91039 -4.71574 0
M  V30 6258 H 572.991 4.68834 -3.16561 0
M  V30 6259 H 571.548 5.17744 -3.9596 0
M  V30 6260 N 574.981 1.5647 0.188427 0
M  V30 6261 C 576.209 1.85131 0.923803 0
M  V30 6262 C 576.624 0.668537 1.76567 0
M  V30 6263 O 575.981 -0.362662 1.7886 0
M  V30 6264 C 576.032 3.12661 1.81453 0
M  V30 6265 O 575.753 4.26378 1.00665 0
M  V30 6266 C 577.254 3.54548 2.66103 0
M  V30 6267 H 574.474 0.614624 0.269218 0
M  V30 6268 H 577.018 2.03581 0.193671 0
M  V30 6269 H 575.173 2.96088 2.49821 0
M  V30 6270 H 575.587 4.99041 1.61425 0
M  V30 6271 H 577.061 4.4673 3.24247 0
M  V30 6272 H 577.538 2.77853 3.40139 0
M  V30 6273 H 578.144 3.73674 2.03096 0
M  V30 6274 N 576.459 -0.456382 1.50847 0
M  V30 6275 C 577.705 -1.20914 1.62811 0
M  V30 6276 C 578.038 -1.91301 0.334304 0
M  V30 6277 O 577.313 -1.82775 -0.665098 0
M  V30 6278 C 577.596 -2.24122 2.81853 0
M  V30 6279 C 577.449 -1.57944 4.21158 0
M  V30 6280 C 578.768 -3.25295 2.96431 0
M  V30 6281 H 575.887 -0.438233 0.592554 0
M  V30 6282 H 578.529 -0.50091 1.83278 0
M  V30 6283 H 576.679 -2.84524 2.64534 0
M  V30 6284 H 578.351 -1.01025 4.50102 0
M  V30 6285 H 576.594 -0.882185 4.24735 0
M  V30 6286 H 577.265 -2.33014 5.00408 0
M  V30 6287 H 579.741 -2.7493 3.12335 0
M  V30 6288 H 578.617 -3.94822 3.81322 0
M  V30 6289 H 578.878 -3.90286 2.07676 0
M  V30 6290 N 577.937 -1.40673 -0.710563 0
M  V30 6291 C 579.185 -1.38947 -1.46759 0
M  V30 6292 C 579.506 0.00572879 -1.94999 0
M  V30 6293 O 578.776 0.961358 -1.70689 0
M  V30 6294 H 577.356 -0.5114 -0.544499 0
M  V30 6295 H 580.018 -1.75773 -0.842012 0
M  V30 6296 H 579.114 -2.06745 -2.33801 0
M  V30 6297 N 579.415 0.9433 -1.26252 0
M  V30 6298 C 580.643 1.72367 -1.14443 0
M  V30 6299 C 581.058 1.86392 0.300572 0
M  V30 6300 O 580.415 1.36978 1.20596 0
M  V30 6301 C 580.466 3.13155 -1.806 0
M  V30 6302 O 580.187 2.99803 -3.19452 0
M  V30 6303 C 581.688 4.07417 -1.74717 0
M  V30 6304 H 578.908 0.539758 -0.398626 0
M  V30 6305 H 581.452 1.18268 -1.66832 0
M  V30 6306 H 579.607 3.64162 -1.32154 0
M  V30 6307 H 580.021 3.88697 -3.52158 0
M  V30 6308 H 581.495 5.03773 -2.25647 0
M  V30 6309 H 581.972 4.3337 -0.713244 0
M  V30 6310 H 582.578 3.6233 -2.22704 0
M  V30 6311 N 580.893 1.08022 1.14757 0
M  V30 6312 C 582.14 0.807509 1.85703 0
M  V30 6313 C 582.468 -0.666617 1.8272 0
M  V30 6314 O 581.723 -1.50562 1.25018 0
M  V30 6315 C 582.022 1.26964 3.34088 0
M  V30 6316 C 581.688 2.7509 3.57262 0
M  V30 6317 C 580.35 3.15547 3.63296 0
M  V30 6318 C 582.702 3.70667 3.66409 0
M  V30 6319 C 580.03 4.50384 3.75994 0
M  V30 6320 C 582.382 5.05274 3.80632 0
M  V30 6321 C 581.046 5.45342 3.84913 0
M  V30 6322 H 580.316 0.295488 0.679535 0
M  V30 6323 H 582.963 1.35245 1.35577 0
M  V30 6324 H 581.268 0.644216 3.86467 0
M  V30 6325 H 582.965 1.03544 3.87401 0
M  V30 6326 H 579.555 2.42775 3.53212 0
M  V30 6327 H 583.739 3.40533 3.61041 0
M  V30 6328 H 578.995 4.80886 3.77569 0
M  V30 6329 H 583.169 5.79201 3.86652 0
M  V30 6330 H 580.796 6.49823 3.94505 0
M  V30 6331 N 582.371 -1.3172 0.865308 0
M  V30 6332 C 583.281 -2.32394 0.320935 0
M  V30 6333 C 584.297 -1.64511 -0.566746 0
M  V30 6334 O 585.473 -1.95969 -0.464575 0
M  V30 6335 C 582.538 -3.43462 -0.472701 0
M  V30 6336 C 581.599 -4.27015 0.442385 0
M  V30 6337 C 580.832 -5.32779 -0.313469 0
M  V30 6338 O 581.055 -5.49158 -1.54214 0
M  V30 6339 O 579.989 -6.01015 0.326257 0
M  V30 6340 H 583.815 -2.80868 1.15528 0
M  V30 6341 H 581.4 -1.35535 0.628545 0
M  V30 6342 H 583.282 -4.11172 -0.922781 0
M  V30 6343 H 581.957 -2.97159 -1.28367 0
M  V30 6344 H 580.864 -3.62075 0.940866 0
M  V30 6345 H 582.197 -4.76871 1.21882 0
M  V30 6346 N 583.85 -0.624285 -1.44708 0
M  V30 6347 C 584.76 0.0861083 -2.34442 0
M  V30 6348 C 585.776 0.84291 -1.5222 0
M  V30 6349 O 586.952 0.796723 -1.84971 0
M  V30 6350 C 584.017 1.05999 -3.30099 0
M  V30 6351 C 583.077 0.303316 -4.28227 0
M  V30 6352 C 582.311 1.23081 -5.19314 0
M  V30 6353 O 582.534 2.46929 -5.14181 0
M  V30 6354 O 581.468 0.71883 -5.97592 0
M  V30 6355 H 585.293 -0.651756 -2.96624 0
M  V30 6356 H 582.879 -0.384493 -1.44368 0
M  V30 6357 H 584.76 1.62046 -3.88997 0
M  V30 6358 H 583.436 1.77859 -2.70459 0
M  V30 6359 H 582.343 -0.300033 -3.72895 0
M  V30 6360 H 583.676 -0.375123 -4.90768 0
M  V30 6361 N 585.328 1.53329 -0.364422 0
M  V30 6362 C 586.258 2.28627 0.474543 0
M  V30 6363 C 587.239 1.31009 1.08492 0
M  V30 6364 O 588.424 1.59878 1.10239 0
M  V30 6365 C 585.554 3.07465 1.61501 0
M  V30 6366 C 584.508 4.1276 1.13194 0
M  V30 6367 C 583.834 4.79674 2.36255 0
M  V30 6368 C 585.134 5.21847 0.217507 0
M  V30 6369 H 586.828 2.99005 -0.153656 0
M  V30 6370 H 584.374 1.43803 -0.0753406 0
M  V30 6371 H 586.327 3.58889 2.20855 0
M  V30 6372 H 585.051 2.34775 2.27042 0
M  V30 6373 H 583.71 3.62281 0.56109 0
M  V30 6374 H 583.358 4.03557 3.00251 0
M  V30 6375 H 583.058 5.50827 2.04606 0
M  V30 6376 H 584.582 5.33892 2.96297 0
M  V30 6377 H 585.996 5.6878 0.718493 0
M  V30 6378 H 584.393 6.00099 -0.00806408 0
M  V30 6379 H 585.463 4.7921 -0.740653 0
M  V30 6380 N 586.806 0.0935595 1.57322 0
M  V30 6381 C 587.738 -0.895923 2.10964 0
M  V30 6382 C 588.751 -1.24705 1.04654 0
M  V30 6383 O 589.94 -1.20044 1.32105 0
M  V30 6384 C 587.04 -2.20546 2.57318 0
M  V30 6385 C 586.213 -2.0299 3.87445 0
M  V30 6386 C 585.272 -3.17443 4.19662 0
M  V30 6387 O 584.298 -2.91474 4.88909 0
M  V30 6388 N 585.5 -4.43168 3.74943 0
M  V30 6389 H 588.265 -0.437788 2.96485 0
M  V30 6390 H 585.826 -0.0915863 1.61641 0
M  V30 6391 H 587.818 -2.9606 2.75917 0
M  V30 6392 H 586.388 -2.57789 1.76816 0
M  V30 6393 H 585.608 -1.11815 3.78009 0
M  V30 6394 H 586.896 -1.88535 4.7258 0
M  V30 6395 H 586.294 -4.67149 3.19043 0
M  V30 6396 H 584.851 -5.15637 3.987 0
M  V30 6397 N 588.284 -1.56567 -0.180126 0
M  V30 6398 C 589.231 -1.95725 -1.22313 0
M  V30 6399 C 590.201 -0.819911 -1.44453 0
M  V30 6400 O 591.386 -1.07931 -1.57339 0
M  V30 6401 C 588.526 -2.31484 -2.55947 0
M  V30 6402 C 587.639 -3.58354 -2.4126 0
M  V30 6403 C 586.774 -3.83366 -3.67701 0
M  V30 6404 C 585.813 -5.03612 -3.47909 0
M  V30 6405 N 584.95 -5.24802 -4.66398 0
M  V30 6406 H 589.79 -2.84642 -0.882198 0
M  V30 6407 H 587.327 -1.4085 -0.42422 0
M  V30 6408 H 589.285 -2.50237 -3.33822 0
M  V30 6409 H 587.915 -1.45689 -2.88053 0
M  V30 6410 H 586.967 -3.47565 -1.54606 0
M  V30 6411 H 588.279 -4.46386 -2.22577 0
M  V30 6412 H 587.433 -4.02439 -4.54013 0
M  V30 6413 H 586.172 -2.93692 -3.89353 0
M  V30 6414 H 585.177 -4.84447 -2.59983 0
M  V30 6415 H 586.402 -5.94809 -3.27688 0
M  V30 6416 H 584.348 -4.38079 -4.88286 0
M  V30 6417 H 584.265 -6.07041 -4.50596 0
M  V30 6418 H 585.533 -5.48346 -5.54019 0
M  V30 6419 N 589.762 0.448376 -1.51087 0
M  V30 6420 C 590.992 1.21965 -1.66757 0
M  V30 6421 C 591.4 1.85748 -0.359753 0
M  V30 6422 O 590.743 1.71022 0.670604 0
M  V30 6423 C 590.805 2.35284 -2.71812 0
M  V30 6424 C 590.469 1.91957 -4.1473 0
M  V30 6425 C 591.466 1.42921 -4.9987 0
M  V30 6426 C 589.151 1.99985 -4.60772 0
M  V30 6427 C 591.145 1.02485 -6.29107 0
M  V30 6428 C 588.832 1.5916 -5.90009 0
M  V30 6429 C 589.83 1.10491 -6.74004 0
M  V30 6430 O 589.518 0.702413 -8.00825 0
M  V30 6431 H 589.25 0.374125 -0.563034 0
M  V30 6432 H 591.804 0.538927 -1.98204 0
M  V30 6433 H 590.034 3.06599 -2.35657 0
M  V30 6434 H 591.723 2.97184 -2.76472 0
M  V30 6435 H 592.489 1.36123 -4.65506 0
M  V30 6436 H 588.368 2.36814 -3.95525 0
M  V30 6437 H 591.912 0.644271 -6.94619 0
M  V30 6438 H 587.809 1.65626 -6.2389 0
M  V30 6439 H 588.577 0.829248 -8.14288 0
M  V30 6440 N 591.24 1.41047 0.703093 0
M  V30 6441 C 592.17 1.45067 1.82969 0
M  V30 6442 C 593.151 0.31016 1.67248 0
M  V30 6443 O 594.336 0.520548 1.87093 0
M  V30 6444 C 591.466 1.32478 3.2104 0
M  V30 6445 C 590.42 2.44262 3.51454 0
M  V30 6446 C 589.746 2.16742 4.88801 0
M  V30 6447 C 591.046 3.86606 3.51189 0
M  V30 6448 H 592.74 2.39353 1.79863 0
M  V30 6449 H 590.286 1.15206 0.863919 0
M  V30 6450 H 592.239 1.33904 3.99559 0
M  V30 6451 H 590.963 0.346735 3.24754 0
M  V30 6452 H 589.622 2.42107 2.75282 0
M  V30 6453 H 589.27 1.17299 4.89132 0
M  V30 6454 H 588.97 2.91643 5.10116 0
M  V30 6455 H 590.494 2.19872 5.69639 0
M  V30 6456 H 591.908 3.90517 4.19725 0
M  V30 6457 H 590.305 4.61128 3.84033 0
M  V30 6458 H 591.375 4.15296 2.50315 0
M  V30 6459 N 592.718 -0.936591 1.26751 0
M  V30 6460 C 593.628 -2.06949 1.10496 0
M  V30 6461 C 594.644 -1.7396 0.037271 0
M  V30 6462 O 595.82 -1.99941 0.241944 0
M  V30 6463 C 592.885 -3.38612 0.744491 0
M  V30 6464 C 591.946 -3.85355 1.89209 0
M  V30 6465 C 591.179 -5.10735 1.54873 0
M  V30 6466 O 591.402 -5.68602 0.452546 0
M  V30 6467 O 590.336 -5.52632 2.38499 0
M  V30 6468 H 594.162 -2.23571 2.05547 0
M  V30 6469 H 591.747 -1.05428 1.05855 0
M  V30 6470 H 593.629 -4.17711 0.556396 0
M  V30 6471 H 592.304 -3.23218 -0.176582 0
M  V30 6472 H 591.211 -3.07182 2.13518 0
M  V30 6473 H 592.544 -4.05277 2.79305 0
M  V30 6474 N 594.196 -1.08629 -1.14182 0
M  V30 6475 C 595.444 -0.815731 -1.84906 0
M  V30 6476 C 595.765 0.660441 -1.83475 0
M  V30 6477 O 595.035 1.47888 -1.28476 0
M  V30 6478 H 593.615 -0.298773 -0.684648 0
M  V30 6479 H 596.277 -1.37274 -1.38354 0
M  V30 6480 H 595.373 -1.16193 -2.89665 0
M  V30 6481 N 595.674 1.31259 -0.872281 0
M  V30 6482 C 596.904 2.00504 -0.498183 0
M  V30 6483 C 597.312 1.65632 0.914479 0
M  V30 6484 O 596.655 0.882849 1.61095 0
M  V30 6485 C 596.717 3.5482 -0.578194 0
M  V30 6486 C 596.381 4.13172 -1.95289 0
M  V30 6487 C 597.378 4.30107 -2.92069 0
M  V30 6488 C 595.063 4.48846 -2.25483 0
M  V30 6489 C 597.057 4.81908 -4.17185 0
M  V30 6490 C 594.744 5.00349 -3.50847 0
M  V30 6491 C 595.742 5.16831 -4.46514 0
M  V30 6492 O 595.43 5.67228 -5.69656 0
M  V30 6493 H 595.162 0.648055 -0.192354 0
M  V30 6494 H 597.716 1.6841 -1.17589 0
M  V30 6495 H 595.946 3.86383 0.156438 0
M  V30 6496 H 597.635 4.05318 -0.217192 0
M  V30 6497 H 598.401 4.02862 -2.7005 0
M  V30 6498 H 594.28 4.35292 -1.51795 0
M  V30 6499 H 597.824 4.94688 -4.91863 0
M  V30 6500 H 593.721 5.27028 -3.72708 0
M  V30 6501 H 594.489 5.85592 -5.7186 0
M  V30 6502 N 597.152 0.631951 1.44375 0
M  V30 6503 C 598.398 0.13697 2.02337 0
M  V30 6504 C 598.731 -1.23826 1.49602 0
M  V30 6505 O 598.006 -1.8221 0.680415 0
M  V30 6506 C 598.289 0.124536 3.59885 0
M  V30 6507 C 598.142 1.53217 4.229 0
M  V30 6508 C 599.461 -0.550481 4.36644 0
M  V30 6509 H 596.58 0.051247 0.735216 0
M  V30 6510 H 599.222 0.808581 1.71936 0
M  V30 6511 H 597.372 -0.44737 3.85916 0
M  V30 6512 H 599.044 2.15303 4.07973 0
M  V30 6513 H 597.287 2.0858 3.80364 0
M  V30 6514 H 597.958 1.4755 5.31914 0
M  V30 6515 H 600.434 -0.0641154 4.16051 0
M  V30 6516 H 599.31 -0.528371 5.46351 0
M  V30 6517 H 599.571 -1.62097 4.11311 0
M  V30 6518 N 598.631 -1.53133 0.372548 0
M  V30 6519 C 599.594 -2.24569 -0.458389 0
M  V30 6520 C 600.594 -1.25603 -1.00402 0
M  V30 6521 O 601.784 -1.49827 -0.888672 0
M  V30 6522 C 598.916 -2.98783 -1.6414 0
M  V30 6523 H 600.109 -2.99436 0.166799 0
M  V30 6524 H 597.662 -1.55805 0.124357 0
M  V30 6525 H 598.397 -2.28176 -2.30448 0
M  V30 6526 H 598.182 -3.71404 -1.25704 0
M  V30 6527 H 599.672 -3.53068 -2.23008 0
M  V30 6528 N 600.109 -0.101901 -1.5727 0
M  V30 6529 C 601.057 0.872034 -2.15635 0
M  V30 6530 C 602.051 1.28742 -1.10099 0
M  V30 6531 O 603.257 1.26116 -1.28432 0
M  V30 6532 H 599.632 0.299269 -0.689886 0
M  V30 6533 H 601.603 0.355137 -2.96279 0
M  V30 6534 C 600.352 2.11886 -2.7568 0
M  V30 6535 H 599.675 1.80813 -3.56576 0
M  V30 6536 H 601.115 2.78077 -3.20077 0
M  V30 6537 C 599.574 2.89739 -1.7191 0
M  V30 6538 O 600.104 3.84522 -1.16213 0
M  V30 6539 N 598.31 2.53407 -1.42245 0
M  V30 6540 H 597.857 1.76398 -1.87727 0
M  V30 6541 H 597.815 3.05795 -0.730529 0
M  V30 6542 N 601.587 1.56661 0.17182 0
M  V30 6543 C 602.517 1.99401 1.21498 0
M  V30 6544 C 603.498 0.869516 1.46197 0
M  V30 6545 O 604.683 1.13556 1.57539 0
M  V30 6546 C 601.813 2.35346 2.55401 0
M  V30 6547 C 600.767 3.5075 2.45272 0
M  V30 6548 C 600.093 3.72437 3.8366 0
M  V30 6549 C 601.393 4.84216 1.95787 0
M  V30 6550 H 603.087 2.86792 0.859699 0
M  V30 6551 H 600.633 1.37977 0.412103 0
M  V30 6552 H 602.586 2.63843 3.2858 0
M  V30 6553 H 601.31 1.44864 2.92715 0
M  V30 6554 H 599.969 3.2238 1.74547 0
M  V30 6555 H 599.617 2.79246 4.18367 0
M  V30 6556 H 599.317 4.50087 3.77751 0
M  V30 6557 H 600.841 4.03334 4.58426 0
M  V30 6558 H 602.255 5.11592 2.5874 0
M  V30 6559 H 600.652 5.65498 2.00827 0
M  V30 6560 H 601.722 4.76243 0.912159 0
M  V30 6561 N 603.065 -0.440357 1.51323 0
M  V30 6562 C 604.013 -1.55492 1.72988 0
M  V30 6563 C 605.007 -1.58564 0.596138 0
M  V30 6564 O 606.213 -1.62345 0.777443 0
M  V30 6565 H 602.588 -0.516532 0.546533 0
M  V30 6566 H 604.559 -1.34392 2.66423 0
M  V30 6567 C 603.308 -2.93176 1.86931 0
M  V30 6568 H 602.631 -2.91543 2.73574 0
M  V30 6569 H 604.071 -3.70537 2.06103 0
M  V30 6570 C 602.53 -3.30988 0.628365 0
M  V30 6571 O 603.06 -4.01106 -0.218367 0
M  V30 6572 N 601.266 -2.86719 0.473339 0
M  V30 6573 H 600.813 -2.2983 1.16345 0
M  V30 6574 H 600.771 -3.12381 -0.355727 0
M  V30 6575 N 604.543 -1.41418 -0.695603 0
M  V30 6576 C 605.959 -1.23887 -1.00619 0
M  V30 6577 C 606.159 -0.128206 -2.01092 0
M  V30 6578 O 605.215 0.507408 -2.47349 0
M  V30 6579 C 606.528 -2.58816 -1.53083 0
M  V30 6580 C 608.076 -2.65998 -1.64967 0
M  V30 6581 C 608.551 -4.01244 -2.20833 0
M  V30 6582 N 610.042 -4.0309 -2.28194 0
M  V30 6583 C 610.777 -5.04539 -2.72448 0
M  V30 6584 N 610.273 -6.16378 -3.16306 0
M  V30 6585 N 612.066 -4.91901 -2.72011 0
M  V30 6586 H 604.217 -2.12379 -0.0300061 0
M  V30 6587 H 606.48 -0.944958 -0.0758797 0
M  V30 6588 H 606.186 -3.40842 -0.867147 0
M  V30 6589 H 606.06 -2.81299 -2.51298 0
M  V30 6590 H 608.447 -1.84331 -2.30448 0
M  V30 6591 H 608.528 -2.47325 -0.652982 0
M  V30 6592 H 608.172 -4.83359 -1.55968 0
M  V30 6593 H 608.102 -4.17257 -3.21254 0
M  V30 6594 H 610.593 -3.22341 -1.97242 0
M  V30 6595 H 610.906 -6.89658 -3.487 0
M  V30 6596 H 609.251 -6.19914 -3.14215 0
M  V30 6597 H 612.442 -4.03613 -2.37095 0
M  V30 6598 H 612.615 -5.71102 -3.06181 0
M  V30 6599 N 606.021 0.929856 -1.27246 0
M  V30 6600 C 607.298 1.65544 -1.04186 0
M  V30 6601 C 607.678 2.06796 0.424097 0
M  V30 6602 O 607.026 1.80053 1.40688 0
M  V30 6603 C 607.236 2.85912 -2.00138 0
M  V30 6604 C 608.584 3.57305 -2.29387 0
M  V30 6605 O 609.608 2.96036 -1.98094 0
M  V30 6606 O 608.467 4.67688 -2.82719 0
M  V30 6607 H 605.561 0.725473 -0.397011 0
M  V30 6608 H 608.107 0.980583 -1.38501 0
M  V30 6609 H 606.879 2.52403 -2.99013 0
M  V30 6610 H 606.502 3.61118 -1.66371 0
M  V30 6611 N 607.499 1.09233 1.13605 0
M  V30 6612 C 608.776 0.739633 1.81077 0
M  V30 6613 C 609.156 -0.775595 1.96336 0
M  V30 6614 O 608.504 -1.69726 1.52988 0
M  V30 6615 C 608.714 1.47636 3.16235 0
M  V30 6616 C 610.062 1.64087 3.91613 0
M  V30 6617 O 611.086 1.43871 3.25852 0
M  V30 6618 O 609.945 1.97511 5.0956 0
M  V30 6619 H 607.039 0.265464 0.783236 0
M  V30 6620 H 609.585 1.19441 1.20549 0
M  V30 6621 H 608.357 2.50818 3.00344 0
M  V30 6622 H 607.98 1.01362 3.84462 0
M  V30 6623 N 608.977 -1.30795 0.87923 0
M  V30 6624 C 609.887 -2.32041 0.345565 0
M  V30 6625 C 610.903 -1.65103 -0.549265 0
M  V30 6626 O 612.079 -1.9645 -0.443763 0
M  V30 6627 C 609.144 -3.43944 -0.436245 0
M  V30 6628 C 608.205 -4.26521 0.48765 0
M  V30 6629 C 607.438 -5.33081 -0.256943 0
M  V30 6630 O 607.661 -5.50762 -1.48381 0
M  V30 6631 O 606.595 -6.00635 0.389985 0
M  V30 6632 H 610.421 -2.79627 1.18501 0
M  V30 6633 H 608.006 -1.3486 0.642885 0
M  V30 6634 H 609.888 -4.12128 -0.879119 0
M  V30 6635 H 608.563 -2.98504 -1.25208 0
M  V30 6636 H 607.47 -3.61057 0.979216 0
M  V30 6637 H 608.803 -4.75551 1.26933 0
M  V30 6638 N 610.455 -0.639598 -1.44038 0
M  V30 6639 C 611.402 0.0602458 -2.30721 0
M  V30 6640 C 612.372 0.828352 -1.43971 0
M  V30 6641 O 613.557 0.807693 -1.72861 0
M  V30 6642 C 610.697 1.03008 -3.29368 0
M  V30 6643 C 609.81 0.259502 -4.3122 0
M  V30 6644 C 608.945 1.22191 -5.16955 0
M  V30 6645 C 607.984 0.440978 -6.10509 0
M  V30 6646 N 607.121 1.35428 -6.88915 0
M  V30 6647 H 611.961 -0.684867 -2.90023 0
M  V30 6648 H 609.498 -0.349509 -1.42888 0
M  V30 6649 H 611.456 1.60583 -3.85057 0
M  V30 6650 H 610.086 1.74222 -2.71747 0
M  V30 6651 H 609.138 -0.432317 -3.77935 0
M  V30 6652 H 610.45 -0.348347 -4.97582 0
M  V30 6653 H 609.604 1.86873 -5.77203 0
M  V30 6654 H 608.343 1.86367 -4.50687 0
M  V30 6655 H 607.348 -0.219279 -5.49363 0
M  V30 6656 H 608.573 -0.196192 -6.78817 0
M  V30 6657 H 606.519 1.9831 -6.25307 0
M  V30 6658 H 606.436 0.800657 -7.51748 0
M  V30 6659 H 607.704 1.98967 -7.53679 0
M  V30 6660 N 611.933 1.52934 -0.380664 0
M  V30 6661 C 613.349 1.59571 -0.0302429 0
M  V30 6662 C 613.549 1.39509 1.45394 0
M  V30 6663 O 612.605 1.20777 2.21741 0
M  V30 6664 C 613.918 2.96519 -0.499691 0
M  V30 6665 C 615.466 3.09672 -0.455204 0
M  V30 6666 C 615.941 4.49056 -0.900703 0
M  V30 6667 N 617.432 4.55215 -0.856367 0
M  V30 6668 C 618.167 5.61282 -1.17259 0
M  V30 6669 N 617.663 6.75035 -1.55885 0
M  V30 6670 N 619.456 5.51343 -1.0944 0
M  V30 6671 H 611.607 1.64224 -1.347 0
M  V30 6672 H 613.87 0.771033 -0.551554 0
M  V30 6673 H 613.576 3.16388 -1.53595 0
M  V30 6674 H 613.45 3.77052 0.105789 0
M  V30 6675 H 615.837 2.89504 0.571949 0
M  V30 6676 H 615.918 2.31113 -1.09638 0
M  V30 6677 H 615.562 4.69964 -1.92604 0
M  V30 6678 H 615.492 5.26068 -0.236629 0
M  V30 6679 H 617.983 3.73546 -0.572013 0
M  V30 6680 H 618.296 7.51926 -1.784 0
M  V30 6681 H 616.641 6.76388 -1.59764 0
M  V30 6682 H 619.832 4.61356 -0.791713 0
M  V30 6683 H 620.005 6.33905 -1.34417 0
M  V30 6684 N 613.412 0.11024 1.57214 0
M  V30 6685 C 614.362 -0.854147 2.11396 0
M  V30 6686 C 615.346 -1.23394 1.03261 0
M  V30 6687 O 616.538 -1.20649 1.2951 0
M  V30 6688 C 613.667 -2.10752 2.70995 0
M  V30 6689 C 612.753 -1.75249 3.86198 0
M  V30 6690 N 613.144 -1.10377 4.9361 0
M  V30 6691 C 611.442 -2.04763 3.96217 0
M  V30 6692 C 612.143 -0.938199 5.74084 0
M  V30 6693 N 611.119 -1.46039 5.23616 0
M  V30 6694 H 614.921 -0.348897 2.91822 0
M  V30 6695 H 612.435 -0.0925071 1.62136 0
M  V30 6696 H 614.432 -2.80801 3.0815 0
M  V30 6697 H 613.092 -2.61829 1.9203 0
M  V30 6698 H 614.103 -0.768785 5.12162 0
M  V30 6699 H 610.78 -2.57948 3.28282 0
M  V30 6700 H 612.17 -0.429678 6.70525 0
M  V30 6701 N 614.89 -1.56749 -0.16351 0
M  V30 6702 C 615.853 -1.96121 -1.18613 0
M  V30 6703 C 616.853 -0.845765 -1.36761 0
M  V30 6704 O 618.043 -1.11268 -1.34033 0
M  V30 6705 C 615.175 -2.26282 -2.54969 0
M  V30 6706 H 616.368 -2.87639 -0.848764 0
M  V30 6707 H 613.921 -1.50928 -0.406251 0
M  V30 6708 H 614.656 -1.37504 -2.93706 0
M  V30 6709 H 614.441 -3.07595 -2.43162 0
M  V30 6710 H 615.931 -2.57638 -3.28653 0
M  V30 6711 N 616.368 0.432326 -1.51554 0
M  V30 6712 C 617.315 1.52512 -1.7323 0
M  V30 6713 C 618.285 1.55863 -0.5741 0
M  V30 6714 O 619.47 1.72796 -0.809093 0
M  V30 6715 C 616.61 2.90183 -1.86783 0
M  V30 6716 C 615.723 2.96322 -3.14352 0
M  V30 6717 C 614.858 4.25147 -3.18471 0
M  V30 6718 C 613.897 4.25172 -4.40335 0
M  V30 6719 N 613.034 5.45529 -4.41975 0
M  V30 6720 H 617.874 1.33332 -2.66508 0
M  V30 6721 H 615.411 0.647613 -1.32077 0
M  V30 6722 H 617.369 3.70071 -1.92623 0
M  V30 6723 H 615.999 3.0791 -0.969087 0
M  V30 6724 H 615.051 2.09066 -3.17798 0
M  V30 6725 H 616.363 2.92203 -4.04251 0
M  V30 6726 H 615.517 5.13411 -3.23255 0
M  V30 6727 H 614.256 4.31929 -2.2647 0
M  V30 6728 H 613.261 3.353 -4.35723 0
M  V30 6729 H 614.486 4.20049 -5.33606 0
M  V30 6730 H 612.432 5.53024 -3.52847 0
M  V30 6731 H 612.349 5.43311 -5.25689 0
M  V30 6732 H 613.617 6.35812 -4.50958 0
M  V30 6733 N 617.846 1.41785 0.688094 0
M  V30 6734 C 619.262 1.24419 0.999608 0
M  V30 6735 C 619.462 0.138868 2.01021 0
M  V30 6736 O 618.518 -0.494283 2.47615 0
M  V30 6737 C 619.831 2.59625 1.51709 0
M  V30 6738 C 621.379 2.66869 1.63554 0
M  V30 6739 C 621.854 4.0241 2.18702 0
M  V30 6740 N 623.345 4.04295 2.26053 0
M  V30 6741 C 624.08 5.05977 2.69768 0
M  V30 6742 N 623.576 6.18047 3.13033 0
M  V30 6743 N 625.369 4.93336 2.69398 0
M  V30 6744 H 617.52 2.12392 0.0187427 0
M  V30 6745 H 619.783 0.945347 0.0708673 0
M  V30 6746 H 619.489 3.41297 0.849059 0
M  V30 6747 H 619.363 2.82628 2.49803 0
M  V30 6748 H 621.75 1.8555 2.29467 0
M  V30 6749 H 621.831 2.47668 0.639857 0
M  V30 6750 H 621.475 4.8418 1.53402 0
M  V30 6751 H 621.405 4.18955 3.19037 0
M  V30 6752 H 623.896 3.23383 1.9553 0
M  V30 6753 H 624.209 6.91498 3.45038 0
M  V30 6754 H 622.554 6.21572 3.10923 0
M  V30 6755 H 625.745 4.04865 2.34952 0
M  V30 6756 H 625.918 5.72717 3.03148 0
M  V30 6757 N 619.324 -0.923095 1.27737 0
M  V30 6758 C 620.549 -1.71054 1.17283 0
M  V30 6759 C 620.974 -1.86208 -0.266153 0
M  V30 6760 O 620.332 -1.36545 -1.1927 0
M  V30 6761 C 620.38 -3.0854 1.86642 0
M  V30 6762 O 619.484 -3.95528 1.16752 0
M  V30 6763 H 618.825 -0.524136 0.407649 0
M  V30 6764 H 621.355 -1.15487 1.6889 0
M  V30 6765 H 621.365 -3.58828 1.94182 0
M  V30 6766 H 620.04 -2.96828 2.91317 0
M  V30 6767 H 618.617 -3.53967 1.17312 0
M  V30 6768 N 620.802 -1.09834 -1.13024 0
M  V30 6769 C 621.735 -0.685453 -2.17662 0
M  V30 6770 C 622.713 0.310142 -1.59615 0
M  V30 6771 O 623.897 0.21052 -1.87321 0
M  V30 6772 C 621.024 -0.0104476 -3.38698 0
M  V30 6773 C 620.07 -0.968522 -4.15358 0
M  V30 6774 S 620.903 -2.48272 -4.74469 0
M  V30 6775 C 622.059 -1.82025 -5.98847 0
M  V30 6776 H 622.292 -1.57187 -2.52348 0
M  V30 6777 H 619.825 -0.914728 -1.24387 0
M  V30 6778 H 621.783 0.372694 -4.08805 0
M  V30 6779 H 620.444 0.852673 -3.02305 0
M  V30 6780 H 619.637 -0.443373 -5.02046 0
M  V30 6781 H 619.239 -1.29327 -3.50928 0
M  V30 6782 H 621.531 -1.14678 -6.67724 0
M  V30 6783 H 622.474 -2.66645 -6.55977 0
M  V30 6784 H 622.882 -1.2874 -5.49624 0
M  V30 6785 N 622.28 1.30327 -0.886154 0
M  V30 6786 C 623.505 2.0079 -0.519425 0
M  V30 6787 C 623.93 1.65979 0.885013 0
M  V30 6788 O 623.288 0.877043 1.58675 0
M  V30 6789 C 623.336 3.53686 -0.702758 0
M  V30 6790 O 622.44 4.11637 0.250828 0
M  V30 6791 H 621.781 0.63171 -0.204544 0
M  V30 6792 H 624.311 1.66145 -1.19402 0
M  V30 6793 H 624.321 4.03531 -0.602207 0
M  V30 6794 H 622.996 3.78361 -1.72673 0
M  V30 6795 H 621.573 3.72755 0.103873 0
M  V30 6796 N 623.758 0.647228 1.43697 0
M  V30 6797 C 624.706 -0.0600105 2.32523 0
M  V30 6798 C 625.7 -0.819277 1.48271 0
M  V30 6799 O 626.906 -0.730356 1.64517 0
M  V30 6800 H 623.281 -0.0381872 0.75103 0
M  V30 6801 H 625.252 0.706978 2.89904 0
M  V30 6802 C 624.001 -1.0169 3.32497 0
M  V30 6803 H 623.324 -0.442083 3.97348 0
M  V30 6804 H 624.764 -1.48095 3.97296 0
M  V30 6805 C 623.223 -2.11002 2.6264 0
M  V30 6806 O 623.753 -3.19302 2.4374 0
M  V30 6807 N 621.959 -1.87388 2.22113 0
M  V30 6808 H 621.506 -0.993174 2.37684 0
M  V30 6809 H 621.464 -2.60723 1.75701 0
M  V30 6810 N 625.236 -1.5273 0.388769 0
M  V30 6811 C 626.482 -2.02545 -0.186351 0
M  V30 6812 C 626.837 -1.27017 -1.44514 0
M  V30 6813 O 626.13 -0.361948 -1.8815 0
M  V30 6814 C 626.324 -3.53765 -0.508445 0
M  V30 6815 C 626.153 -4.43938 0.71758 0
M  V30 6816 C 624.923 -4.89933 1.23668 0
M  V30 6817 C 627.121 -4.89113 1.58974 0
M  V30 6818 N 625.103 -5.64176 2.42031 0
M  V30 6819 C 626.474 -5.61931 2.61979 0
M  V30 6820 C 628.529 -4.71155 1.60989 0
M  V30 6821 C 627.232 -6.18698 3.66886 0
M  V30 6822 C 629.258 -5.28804 2.64803 0
M  V30 6823 C 628.62 -6.01527 3.6653 0
M  V30 6824 H 624.719 -0.781413 -0.0302921 0
M  V30 6825 H 627.303 -1.87104 0.538539 0
M  V30 6826 H 625.474 -3.6932 -1.20239 0
M  V30 6827 H 627.206 -3.9028 -1.07067 0
M  V30 6828 H 623.961 -4.66833 0.797763 0
M  V30 6829 H 624.385 -6.05949 3.01919 0
M  V30 6830 H 629.027 -4.14435 0.836881 0
M  V30 6831 H 626.745 -6.74501 4.45055 0
M  V30 6832 H 630.331 -5.1679 2.67245 0
M  V30 6833 H 629.211 -6.45339 4.45542 0
M  V30 6834 N 626.714 -0.118576 -1.57153 0
M  V30 6835 C 627.661 0.831789 -2.1529 0
M  V30 6836 C 628.631 1.26385 -1.07778 0
M  V30 6837 O 629.816 1.34144 -1.35684 0
M  V30 6838 C 626.956 2.07664 -2.75626 0
M  V30 6839 C 626.069 1.69298 -3.97444 0
M  V30 6840 C 625.204 2.88747 -4.45868 0
M  V30 6841 C 624.243 2.46619 -5.60219 0
M  V30 6842 N 623.38 3.5898 -6.03389 0
M  V30 6843 H 628.22 0.329183 -2.96176 0
M  V30 6844 H 625.757 0.150792 -1.46325 0
M  V30 6845 H 627.715 2.80601 -3.08738 0
M  V30 6846 H 626.345 2.55384 -1.97431 0
M  V30 6847 H 625.397 0.862374 -3.70496 0
M  V30 6848 H 626.709 1.34338 -4.80369 0
M  V30 6849 H 625.863 3.69909 -4.80887 0
M  V30 6850 H 624.602 3.26933 -3.61892 0
M  V30 6851 H 623.607 1.63889 -5.24805 0
M  V30 6852 H 624.832 2.0955 -6.45961 0
M  V30 6853 H 622.778 3.9684 -5.22354 0
M  V30 6854 H 622.695 3.27942 -6.81168 0
M  V30 6855 H 623.963 4.40583 -6.43045 0
M  V30 6856 N 628.193 1.56834 0.155195 0
M  V30 6857 C 629.123 2.00678 1.19376 0
M  V30 6858 C 630.104 0.884973 1.45266 0
M  V30 6859 O 631.289 1.1522 1.56326 0
M  V30 6860 C 628.419 2.38042 2.5289 0
M  V30 6861 C 627.373 3.53332 2.41538 0
M  V30 6862 C 626.699 3.76485 3.79688 0
M  V30 6863 C 627.999 4.86265 1.9064 0
M  V30 6864 H 629.693 2.87688 0.829232 0
M  V30 6865 H 627.239 1.38407 0.397445 0
M  V30 6866 H 629.192 2.67314 3.25763 0
M  V30 6867 H 627.916 1.4796 2.91162 0
M  V30 6868 H 626.575 3.24213 1.71117 0
M  V30 6869 H 626.223 2.83667 4.15382 0
M  V30 6870 H 625.923 4.54068 3.72956 0
M  V30 6871 H 627.447 4.08174 4.54122 0
M  V30 6872 H 628.861 5.14308 2.53299 0
M  V30 6873 H 627.258 5.67597 1.94818 0
M  V30 6874 H 628.328 4.77184 0.861596 0
M  V30 6875 N 629.671 -0.424282 1.51781 0
M  V30 6876 C 630.896 -1.19928 1.6921 0
M  V30 6877 C 631.321 -1.8392 0.394355 0
M  V30 6878 O 630.679 -1.69371 -0.646778 0
M  V30 6879 C 630.727 -2.24937 2.81843 0
M  V30 6880 O 629.831 -3.3073 2.46356 0
M  V30 6881 H 629.172 -0.35078 0.563781 0
M  V30 6882 H 631.702 -0.499401 1.98412 0
M  V30 6883 H 631.712 -2.69512 3.06312 0
M  V30 6884 H 630.387 -1.77742 3.76006 0
M  V30 6885 H 628.964 -2.9154 2.32505 0
M  V30 6886 N 631.149 -1.42148 -0.680565 0
M  V30 6887 C 632.096 -1.45175 -1.79424 0
M  V30 6888 C 633.066 -0.304352 -1.63288 0
M  V30 6889 O 634.251 -0.507591 -1.83924 0
M  V30 6890 C 631.391 -1.35429 -3.17416 0
M  V30 6891 C 630.504 -2.60158 -3.4488 0
M  V30 6892 C 629.639 -2.42596 -4.72568 0
M  V30 6893 C 628.678 -3.62727 -4.93047 0
M  V30 6894 N 627.815 -3.44143 -6.11973 0
M  V30 6895 H 632.655 -2.40349 -1.76172 0
M  V30 6896 H 630.192 -1.19334 -0.860107 0
M  V30 6897 H 632.15 -1.27777 -3.97151 0
M  V30 6898 H 630.78 -0.438536 -3.19807 0
M  V30 6899 H 629.832 -2.78199 -2.5944 0
M  V30 6900 H 631.144 -3.49473 -3.55908 0
M  V30 6901 H 630.298 -2.32497 -5.60384 0
M  V30 6902 H 629.037 -1.50761 -4.63813 0
M  V30 6903 H 628.042 -3.73264 -4.03676 0
M  V30 6904 H 629.267 -4.55534 -5.03652 0
M  V30 6905 H 627.213 -2.5502 -6.04401 0
M  V30 6906 H 627.13 -4.27041 -6.23836 0
M  V30 6907 H 628.398 -3.37845 -7.02482 0
M  V30 6908 N 632.627 0.916307 -1.28225 0
M  V30 6909 C 633.59 1.99996 -1.11957 0
M  V30 6910 C 634.59 1.60688 -0.0600152 0
M  V30 6911 O 635.78 1.71499 -0.30558 0
M  V30 6912 C 632.912 3.33458 -0.708411 0
M  V30 6913 H 634.105 2.15858 -2.08196 0
M  V30 6914 H 631.658 1.09863 -1.11175 0
M  V30 6915 H 632.393 3.23297 0.254859 0
M  V30 6916 H 632.178 3.63349 -1.47377 0
M  V30 6917 H 633.668 4.13014 -0.617164 0
M  V30 6918 N 634.105 1.10431 1.1244 0
M  V30 6919 C 635.035 0.775143 2.20258 0
M  V30 6920 C 636.016 -0.25186 1.68225 0
M  V30 6921 O 637.201 -0.117637 1.93843 0
M  V30 6922 C 634.331 0.206133 3.46688 0
M  V30 6923 C 633.285 1.16382 4.11873 0
M  V30 6924 C 632.611 0.456014 5.32752 0
M  V30 6925 C 633.911 2.5104 4.58013 0
M  V30 6926 H 635.605 1.67665 2.4805 0
M  V30 6927 H 633.151 0.807595 1.19222 0
M  V30 6928 H 635.104 -0.036291 4.21384 0
M  V30 6929 H 633.828 -0.730614 3.18323 0
M  V30 6930 H 632.487 1.39169 3.39157 0
M  V30 6931 H 632.135 -0.485203 5.00654 0
M  V30 6932 H 631.835 1.09466 5.77314 0
M  V30 6933 H 633.359 0.222135 6.10196 0
M  V30 6934 H 634.773 2.32401 5.24083 0
M  V30 6935 H 633.17 3.10789 5.13352 0
M  V30 6936 H 634.24 3.11039 3.71998 0
M  V30 6937 N 635.583 -1.29855 0.893053 0
M  V30 6938 C 636.808 -2.00512 0.530066 0
M  V30 6939 C 637.233 -1.66446 -0.876199 0
M  V30 6940 O 636.591 -0.885446 -1.58207 0
M  V30 6941 C 636.639 -3.53308 0.721505 0
M  V30 6942 O 635.743 -4.11764 -0.228994 0
M  V30 6943 H 635.084 -0.630617 0.207891 0
M  V30 6944 H 637.614 -1.6551 1.20282 0
M  V30 6945 H 637.624 -4.03206 0.623599 0
M  V30 6946 H 636.299 -3.77439 1.74678 0
M  V30 6947 H 634.876 -3.72805 -0.0841034 0
M  V30 6948 N 637.061 -0.65484 -1.43351 0
M  V30 6949 C 637.991 0.0221809 -2.33489 0
M  V30 6950 C 638.972 0.810272 -1.49561 0
M  V30 6951 O 640.157 0.771426 -1.78221 0
M  V30 6952 C 637.287 0.988117 -3.32947 0
M  V30 6953 C 636.241 0.310026 -4.26876 0
M  V30 6954 C 635.567 1.38752 -5.16384 0
M  V30 6955 C 636.867 -0.798589 -5.16159 0
M  V30 6956 H 638.561 -0.730571 -2.9035 0
M  V30 6957 H 636.107 -0.352773 -1.39612 0
M  V30 6958 H 638.06 1.47067 -3.94904 0
M  V30 6959 H 636.784 1.77205 -2.74346 0
M  V30 6960 H 635.443 -0.152097 -3.66284 0
M  V30 6961 H 635.091 2.16293 -4.54121 0
M  V30 6962 H 634.791 0.939051 -5.80048 0
M  V30 6963 H 636.315 1.87141 -5.81215 0
M  V30 6964 H 637.729 -0.398126 -5.71916 0
M  V30 6965 H 636.126 -1.17163 -5.88552 0
M  V30 6966 H 637.196 -1.65588 -4.55751 0
M  V30 6967 N 638.539 1.52521 -0.396863 0
M  V30 6968 C 639.449 2.30403 0.44178 0
M  V30 6969 C 640.465 1.37625 1.06468 0
M  V30 6970 O 641.641 1.70697 1.06886 0
M  V30 6971 C 638.706 3.1013 1.54986 0
M  V30 6972 C 637.767 4.18628 0.951279 0
M  V30 6973 C 637 4.94543 2.00655 0
M  V30 6974 O 637.223 4.70629 3.22281 0
M  V30 6975 O 636.157 5.797 1.61962 0
M  V30 6976 H 639.983 3.03087 -0.192892 0
M  V30 6977 H 637.568 1.48537 -0.16038 0
M  V30 6978 H 639.45 3.59816 2.19341 0
M  V30 6979 H 638.125 2.40251 2.16935 0
M  V30 6980 H 637.032 3.73119 0.270773 0
M  V30 6981 H 638.365 4.90763 0.375887 0
M  V30 6982 N 640.017 0.126909 1.57088 0
M  V30 6983 C 640.95 -0.857844 2.11462 0
M  V30 6984 C 641.928 -1.25569 1.03301 0
M  V30 6985 O 643.112 -1.35535 1.31006 0
M  V30 6986 C 640.239 -2.14912 2.61784 0
M  V30 6987 C 639.285 -1.89874 3.81903 0
M  V30 6988 S 640.118 -1.10785 5.23915 0
M  V30 6989 C 641.274 -2.41075 5.7761 0
M  V30 6990 H 641.507 -0.395384 2.94659 0
M  V30 6991 H 639.04 -0.0870151 1.54155 0
M  V30 6992 H 640.998 -2.89101 2.91429 0
M  V30 6993 H 639.659 -2.58275 1.78754 0
M  V30 6994 H 638.852 -2.85572 4.15289 0
M  V30 6995 H 638.454 -1.23802 3.52915 0
M  V30 6996 H 640.746 -3.36864 5.87817 0
M  V30 6997 H 641.689 -2.12223 6.75549 0
M  V30 6998 H 642.097 -2.50804 5.05725 0
M  V30 6999 N 641.495 -1.56914 -0.146875 0
M  V30 7000 C 642.744 -1.82546 -0.857898 0
M  V30 7001 C 643.057 -0.708169 -1.8233 0
M  V30 7002 O 644.263 -0.850093 -2.57848 0
M  V30 7003 C 642.719 -3.23548 -1.57623 0
M  V30 7004 C 642.327 -4.43212 -0.653224 0
M  V30 7005 C 644.071 -3.58453 -2.27402 0
M  V30 7006 C 641.978 -5.75237 -1.37318 0
M  V30 7007 H 640.908 -0.680786 -0.32411 0
M  V30 7008 H 643.559 -1.83166 -0.110639 0
M  V30 7009 H 641.941 -3.17315 -2.36912 0
M  V30 7010 H 643.115 -4.60682 0.104452 0
M  V30 7011 H 641.43 -4.16351 -0.0638336 0
M  V30 7012 H 644.027 -4.54349 -2.81907 0
M  V30 7013 H 644.37 -2.84516 -3.03901 0
M  V30 7014 H 644.903 -3.66347 -1.55032 0
M  V30 7015 H 641.642 -6.52269 -0.650041 0
M  V30 7016 H 641.162 -5.61703 -2.10357 0
M  V30 7017 H 642.841 -6.18039 -1.91406 0
M  V30 7018 N 642.974 0.416227 -1.52004 0
M  V30 7019 C 643.906 1.52552 -1.71058 0
M  V30 7020 C 644.919 1.51693 -0.59102 0
M  V30 7021 O 646.108 1.56087 -0.865973 0
M  V30 7022 C 643.208 2.91455 -1.72937 0
M  V30 7023 C 642.381 3.16584 -3.01816 0
M  V30 7024 C 641.44 4.35322 -2.95603 0
M  V30 7025 O 640.466 4.32947 -3.6952 0
M  V30 7026 N 641.668 5.40049 -2.12903 0
M  V30 7027 H 644.433 1.36604 -2.66757 0
M  V30 7028 H 641.994 0.60544 -1.50153 0
M  V30 7029 H 643.986 3.68944 -1.66321 0
M  V30 7030 H 642.556 3.00895 -0.847418 0
M  V30 7031 H 641.776 2.27203 -3.22137 0
M  V30 7032 H 643.064 3.30213 -3.87088 0
M  V30 7033 H 642.462 5.44823 -1.52265 0
M  V30 7034 H 641.019 6.16308 -2.1215 0
M  V30 7035 N 644.452 1.42507 0.673017 0
M  V30 7036 C 645.382 1.48916 1.79851 0
M  V30 7037 C 646.363 0.345566 1.66553 0
M  V30 7038 O 647.548 0.560116 1.85947 0
M  V30 7039 C 644.678 1.39258 3.18158 0
M  V30 7040 C 643.632 2.51662 3.46194 0
M  V30 7041 C 642.958 2.27062 4.84094 0
M  V30 7042 C 644.258 3.93968 3.42909 0
M  V30 7043 H 645.952 2.43114 1.74745 0
M  V30 7044 H 643.498 1.17013 0.839288 0
M  V30 7045 H 645.451 1.42349 3.96629 0
M  V30 7046 H 644.175 0.415542 3.23946 0
M  V30 7047 H 642.834 2.47891 2.70084 0
M  V30 7048 H 642.482 1.27648 4.86534 0
M  V30 7049 H 642.182 3.02398 5.03815 0
M  V30 7050 H 643.706 2.31905 5.64847 0
M  V30 7051 H 645.12 3.99332 4.11347 0
M  V30 7052 H 643.517 4.6917 3.74165 0
M  V30 7053 H 644.587 4.20512 2.41449 0
M  V30 7054 N 645.93 -0.909495 1.28709 0
M  V30 7055 C 646.877 -2.01245 1.13 0
M  V30 7056 C 647.847 -1.6608 0.0259684 0
M  V30 7057 O 649.032 -1.89835 0.191687 0
M  V30 7058 C 646.172 -3.35644 0.802315 0
M  V30 7059 C 645.285 -3.83653 1.98582 0
M  V30 7060 C 644.42 -5.06582 1.59837 0
M  V30 7061 C 643.459 -5.46934 2.74827 0
M  V30 7062 N 642.596 -6.61053 2.36546 0
M  V30 7063 H 647.436 -2.14013 2.0737 0
M  V30 7064 H 644.973 -1.0482 1.03205 0
M  V30 7065 H 646.931 -4.12963 0.593057 0
M  V30 7066 H 645.561 -3.22631 -0.104457 0
M  V30 7067 H 644.613 -3.02454 2.30708 0
M  V30 7068 H 645.925 -4.09515 2.84779 0
M  V30 7069 H 645.079 -5.91457 1.35143 0
M  V30 7070 H 643.818 -4.82537 0.707753 0
M  V30 7071 H 642.823 -4.60599 3.00215 0
M  V30 7072 H 644.048 -5.72965 3.64538 0
M  V30 7073 H 641.994 -6.3863 1.49959 0
M  V30 7074 H 641.911 -6.86662 3.16277 0
M  V30 7075 H 643.179 -7.49221 2.15146 0
M  V30 7076 N 647.408 -1.11026 -1.11852 0
M  V30 7077 C 648.318 -0.777252 -2.2135 0
M  V30 7078 C 649.334 0.227821 -1.72502 0
M  V30 7079 O 650.51 0.0650587 -2.01295 0
M  V30 7080 C 647.575 -0.220668 -3.45997 0
M  V30 7081 C 646.636 -1.2838 -4.09655 0
M  V30 7082 C 645.869 -0.753678 -5.28352 0
M  V30 7083 O 646.092 0.417779 -5.68868 0
M  V30 7084 O 645.026 -1.51647 -5.82483 0
M  V30 7085 H 648.852 -1.69141 -2.5224 0
M  V30 7086 H 646.437 -0.885836 -1.20305 0
M  V30 7087 H 648.319 0.0855756 -4.21313 0
M  V30 7088 H 646.994 0.666262 -3.16769 0
M  V30 7089 H 645.901 -1.64299 -3.3609 0
M  V30 7090 H 647.234 -2.14396 -4.43052 0
M  V30 7091 N 648.886 1.2938 -0.899927 0
M  V30 7092 C 649.833 2.27713 -0.376243 0
M  V30 7093 C 650.803 1.57016 0.541774 0
M  V30 7094 O 651.988 1.84997 0.466966 0
M  V30 7095 C 649.128 3.42889 0.39 0
M  V30 7096 C 648.241 4.28369 -0.558938 0
M  V30 7097 C 647.376 5.30726 0.224379 0
M  V30 7098 C 646.415 6.07862 -0.719068 0
M  V30 7099 N 645.552 7.02094 0.0298569 0
M  V30 7100 H 650.392 2.71888 -1.21988 0
M  V30 7101 H 647.929 1.33724 -0.612879 0
M  V30 7102 H 649.887 4.08443 0.850314 0
M  V30 7103 H 648.517 2.99743 1.19809 0
M  V30 7104 H 647.569 3.62986 -1.13777 0
M  V30 7105 H 648.881 4.82068 -1.2811 0
M  V30 7106 H 648.035 6.02098 0.745881 0
M  V30 7107 H 646.774 4.77759 0.979674 0
M  V30 7108 H 645.779 5.35353 -1.25207 0
M  V30 7109 H 647.004 6.62917 -1.4737 0
M  V30 7110 H 644.95 6.51496 0.767415 0
M  V30 7111 H 644.867 7.5335 -0.632391 0
M  V30 7112 H 646.135 7.77685 0.531615 0
M  V30 7113 N 650.364 0.662433 1.43002 0
M  V30 7114 C 651.61 0.179857 2.02001 0
M  V30 7115 C 651.943 -1.20625 1.52195 0
M  V30 7116 O 651.218 -1.80726 0.718911 0
M  V30 7117 C 651.501 0.200845 3.59539 0
M  V30 7118 C 651.354 1.62153 4.19555 0
M  V30 7119 C 652.673 -0.457738 4.37713 0
M  V30 7120 H 649.792 0.0668305 0.733964 0
M  V30 7121 H 652.434 0.84487 1.70182 0
M  V30 7122 H 650.584 -0.365411 3.86778 0
M  V30 7123 H 652.256 2.23908 4.03315 0
M  V30 7124 H 650.499 2.16601 3.75854 0
M  V30 7125 H 651.17 1.58799 5.28665 0
M  V30 7126 H 653.646 0.0241495 4.16093 0
M  V30 7127 H 652.522 -0.412363 5.47349 0
M  V30 7128 H 652.783 -1.53336 4.14657 0
M  V30 7129 N 651.842 -1.52309 0.404946 0
M  V30 7130 C 652.805 -2.25491 -0.410651 0
M  V30 7131 C 653.805 -1.27704 -0.977154 0
M  V30 7132 O 654.995 -1.51679 -0.856691 0
M  V30 7133 C 652.127 -3.02197 -1.57765 0
M  V30 7134 H 653.32 -2.99015 0.230277 0
M  V30 7135 H 650.873 -1.55506 0.157377 0
M  V30 7136 H 651.608 -2.33013 -2.25556 0
M  V30 7137 H 651.393 -3.73987 -1.17797 0
M  V30 7138 H 652.883 -3.57719 -2.15469 0
M  V30 7139 N 653.32 -0.135238 -1.57019 0
M  V30 7140 C 654.736 0.221262 -1.58059 0
M  V30 7141 C 654.936 1.65538 -1.14889 0
M  V30 7142 O 653.992 2.37985 -0.843751 0
M  V30 7143 C 655.305 -0.0268114 -3.00688 0
M  V30 7144 C 656.853 0.0378206 -3.12977 0
M  V30 7145 C 657.328 -0.182769 -4.57635 0
M  V30 7146 N 658.819 -0.129292 -4.6302 0
M  V30 7147 C 659.554 -0.274648 -5.72742 0
M  V30 7148 N 659.05 -0.477075 -6.91155 0
M  V30 7149 N 660.843 -0.213077 -5.61696 0
M  V30 7150 H 652.994 -1.07177 -1.83376 0
M  V30 7151 H 655.257 -0.423338 -0.848227 0
M  V30 7152 H 654.963 -1.01889 -3.36618 0
M  V30 7153 H 654.837 0.697863 -3.70688 0
M  V30 7154 H 657.224 1.02043 -2.76896 0
M  V30 7155 H 657.305 -0.718996 -2.45487 0
M  V30 7156 H 656.949 -1.16243 -4.94419 0
M  V30 7157 H 656.879 0.59423 -5.23237 0
M  V30 7158 H 659.37 0.0229896 -3.77893 0
M  V30 7159 H 659.683 -0.578413 -7.70632 0
M  V30 7160 H 658.028 -0.513252 -6.93102 0
M  V30 7161 H 661.219 -0.0557796 -4.68067 0
M  V30 7162 H 661.392 -0.329796 -6.4716 0
M  V30 7163 N 654.798 1.5699 0.138552 0
M  V30 7164 C 656.045 1.83809 0.849732 0
M  V30 7165 C 656.373 0.717409 1.80786 0
M  V30 7166 O 655.628 -0.292897 1.93496 0
M  V30 7167 C 655.927 3.17007 1.65049 0
M  V30 7168 C 655.593 4.43037 0.838398 0
M  V30 7169 C 654.255 4.77262 0.614385 0
M  V30 7170 C 656.607 5.20495 0.271044 0
M  V30 7171 C 653.935 5.864 -0.187552 0
M  V30 7172 C 656.287 6.30476 -0.517979 0
M  V30 7173 C 654.951 6.63245 -0.75249 0
M  V30 7174 H 654.221 0.672605 0.310939 0
M  V30 7175 H 656.868 1.91166 0.112971 0
M  V30 7176 H 655.173 3.05138 2.4576 0
M  V30 7177 H 656.87 3.34975 2.20437 0
M  V30 7178 H 653.46 4.16211 1.02307 0
M  V30 7179 H 657.644 4.94422 0.431371 0
M  V30 7180 H 652.9 6.10226 -0.378659 0
M  V30 7181 H 657.074 6.89686 -0.964694 0
M  V30 7182 H 654.701 7.47648 -1.37573 0
M  V30 7183 N 656.276 -0.40816 1.52223 0
M  V30 7184 C 657.501 -1.18127 1.70472 0
M  V30 7185 C 657.926 -1.83491 0.41384 0
M  V30 7186 O 657.284 -1.70047 -0.628778 0
M  V30 7187 C 657.332 -2.21935 2.84213 0
M  V30 7188 O 656.436 -3.28099 2.4985 0
M  V30 7189 H 655.777 -0.344781 0.56747 0
M  V30 7190 H 658.307 -0.478328 1.9893 0
M  V30 7191 H 658.317 -2.66248 3.09153 0
M  V30 7192 H 656.992 -1.73744 3.7787 0
M  V30 7193 H 655.569 -2.89058 2.35584 0
M  V30 7194 N 657.755 -1.42862 -0.66545 0
M  V30 7195 C 658.98 -1.47456 -1.45848 0
M  V30 7196 C 659.405 -0.0900312 -1.87884 0
M  V30 7197 O 658.763 0.913587 -1.56599 0
M  V30 7198 C 658.811 -2.41514 -2.67774 0
M  V30 7199 O 657.915 -1.89296 -3.66389 0
M  V30 7200 H 657.256 -0.499236 -0.437789 0
M  V30 7201 H 659.786 -1.8765 -0.815394 0
M  V30 7202 H 659.796 -2.58409 -3.15735 0
M  V30 7203 H 658.471 -3.42099 -2.36519 0
M  V30 7204 H 657.048 -1.82003 -3.25468 0
M  V30 7205 N 659.233 0.902656 -1.29189 0
M  V30 7206 C 660.458 1.69167 -1.19989 0
M  V30 7207 C 660.883 1.86607 0.236495 0
M  V30 7208 O 660.241 1.38425 1.17082 0
M  V30 7209 C 660.289 3.05532 -1.91527 0
M  V30 7210 O 659.393 3.93621 -1.2303 0
M  V30 7211 H 658.734 0.517584 -0.415936 0
M  V30 7212 H 661.264 1.12785 -1.70706 0
M  V30 7213 H 661.274 3.55693 -1.99866 0
M  V30 7214 H 659.949 2.92156 -2.96003 0
M  V30 7215 H 658.526 3.52055 -1.22928 0
M  V30 7216 N 660.711 1.11618 1.11262 0
M  V30 7217 C 661.936 0.889013 1.8738 0
M  V30 7218 C 662.361 -0.555884 1.79698 0
M  V30 7219 O 661.719 -1.39272 1.16073 0
M  V30 7220 C 661.767 1.35759 3.34069 0
M  V30 7221 O 660.871 0.530499 4.08974 0
M  V30 7222 H 660.212 0.320082 0.581759 0
M  V30 7223 H 662.742 1.48611 1.40627 0
M  V30 7224 H 662.752 1.35291 3.84916 0
M  V30 7225 H 661.427 2.40973 3.38976 0
M  V30 7226 H 660.004 0.601439 3.68018 0
M  V30 7227 N 662.189 -1.289 0.906776 0
M  V30 7228 C 663.6 -1.77336 0.58384 0
M  V30 7229 C 663.951 -1.74304 -0.900697 0
M  V30 7230 O 663.076 -1.33335 -1.70443 0
M  V30 7231 C 663.671 -3.22019 1.05304 0
M  V30 7232 C 662.23 -3.68205 0.781148 0
M  V30 7233 C 661.377 -2.48837 1.22373 0
M  V30 7234 H 664.328 -1.15462 1.08877 0
M  V30 7235 H 664.349 -3.78481 0.391414 0
M  V30 7236 H 663.861 -3.24194 2.13353 0
M  V30 7237 H 661.962 -3.71497 -0.28643 0
M  V30 7238 H 662.075 -4.58675 1.384 0
M  V30 7239 H 660.439 -2.46461 0.642594 0
M  V30 7240 H 661.222 -2.53736 2.31242 0
M  V30 7241 N 663.667 -0.670007 -1.42649 0
M  V30 7242 C 664.914 -0.190286 -2.01604 0
M  V30 7243 C 665.242 1.20155 -1.52948 0
M  V30 7244 O 664.497 1.81964 -0.72026 0
M  V30 7245 C 664.796 -0.168298 -3.57004 0
M  V30 7246 C 664.462 -1.50415 -4.25072 0
M  V30 7247 C 663.124 -1.86992 -4.43382 0
M  V30 7248 C 665.476 -2.38414 -4.63474 0
M  V30 7249 C 662.804 -3.11203 -4.97363 0
M  V30 7250 C 665.156 -3.61933 -5.18833 0
M  V30 7251 C 663.82 -3.98685 -5.35356 0
M  V30 7252 H 663.09 -0.0696305 -0.737721 0
M  V30 7253 H 665.737 -0.864044 -1.70899 0
M  V30 7254 H 664.042 0.588958 -3.87348 0
M  V30 7255 H 665.739 0.22001 -4.00396 0
M  V30 7256 H 662.329 -1.20959 -4.11177 0
M  V30 7257 H 666.513 -2.11442 -4.49006 0
M  V30 7258 H 661.769 -3.39705 -5.08341 0
M  V30 7259 H 665.943 -4.30326 -5.47533 0
M  V30 7260 H 663.57 -4.95009 -5.76949 0
M  V30 7261 N 665.145 1.52092 -0.413018 0
M  V30 7262 C 666.077 2.24819 0.445994 0
M  V30 7263 C 667.09 1.27925 1.00692 0
M  V30 7264 O 668.279 1.53845 0.905204 0
M  V30 7265 C 665.379 2.96951 1.6332 0
M  V30 7266 C 664.552 4.20746 1.19548 0
M  V30 7267 C 663.611 4.75668 2.25003 0
M  V30 7268 O 662.637 5.38148 1.85434 0
M  V30 7269 N 663.839 4.57579 3.57214 0
M  V30 7270 H 666.604 2.99176 -0.177209 0
M  V30 7271 H 664.165 1.60102 -0.240601 0
M  V30 7272 H 666.157 3.30586 2.33441 0
M  V30 7273 H 664.727 2.25756 2.16225 0
M  V30 7274 H 663.947 3.92881 0.32224 0
M  V30 7275 H 665.235 5.01132 0.880033 0
M  V30 7276 H 664.633 4.07758 3.92109 0
M  V30 7277 H 663.19 4.95642 4.23299 0
M  V30 7278 N 666.623 0.143563 1.56945 0
M  V30 7279 C 667.571 -0.814556 2.17871 0
M  V30 7280 C 668.565 -1.25778 1.13474 0
M  V30 7281 O 669.771 -1.22666 1.31731 0
M  V30 7282 H 666.146 -0.280873 0.697578 0
M  V30 7283 H 668.117 -0.276459 2.97117 0
M  V30 7284 C 666.866 -2.04503 2.81201 0
M  V30 7285 H 666.189 -1.71296 3.61245 0
M  V30 7286 H 667.629 -2.69493 3.27337 0
M  V30 7287 C 666.088 -2.85079 1.79532 0
M  V30 7288 O 666.618 -3.81306 1.26368 0
M  V30 7289 N 664.824 -2.49546 1.48913 0
M  V30 7290 H 664.371 -1.71359 1.92338 0
M  V30 7291 H 664.329 -3.03751 0.811348 0
M  V30 7292 N 668.101 -1.57061 -0.130224 0
M  V30 7293 C 669.031 -2.02552 -1.16168 0
M  V30 7294 C 670.012 -0.907971 -1.4384 0
M  V30 7295 O 671.197 -1.17693 -1.54473 0
M  V30 7296 C 668.327 -2.42035 -2.49071 0
M  V30 7297 C 667.281 -3.5713 -2.35886 0
M  V30 7298 C 666.607 -3.82478 -3.7365 0
M  V30 7299 C 667.907 -4.89236 -1.8288 0
M  V30 7300 H 669.601 -2.8897 -0.783359 0
M  V30 7301 H 667.147 -1.39021 -0.375376 0
M  V30 7302 H 669.1 -2.72462 -3.21469 0
M  V30 7303 H 667.824 -1.52573 -2.88771 0
M  V30 7304 H 666.483 -3.26895 -1.65938 0
M  V30 7305 H 666.131 -2.9024 -4.10816 0
M  V30 7306 H 665.831 -4.59944 -3.65685 0
M  V30 7307 H 667.355 -4.15347 -4.47571 0
M  V30 7308 H 668.769 -5.18272 -2.45085 0
M  V30 7309 H 667.166 -5.70624 -1.85763 0
M  V30 7310 H 668.236 -4.78494 -0.785571 0
M  V30 7311 N 669.579 0.400081 -1.52437 0
M  V30 7312 C 670.489 1.51253 -1.79331 0
M  V30 7313 C 671.505 1.60188 -0.679396 0
M  V30 7314 O 672.681 1.76733 -0.965791 0
M  V30 7315 C 669.746 2.869 -1.94652 0
M  V30 7316 C 668.807 2.87777 -3.18564 0
M  V30 7317 C 668.04 4.16954 -3.33145 0
M  V30 7318 O 668.263 5.11329 -2.52783 0
M  V30 7319 O 667.197 4.2487 -4.26343 0
M  V30 7320 H 671.023 1.31461 -2.73773 0
M  V30 7321 H 668.608 0.586834 -1.37392 0
M  V30 7322 H 670.49 3.67336 -2.065 0
M  V30 7323 H 669.165 3.06741 -1.034 0
M  V30 7324 H 668.072 2.06162 -3.12167 0
M  V30 7325 H 669.405 2.72886 -4.09627 0
M  V30 7326 N 671.057 1.43213 0.657864 0
M  V30 7327 C 672.306 1.43871 1.41365 0
M  V30 7328 C 672.619 0.064898 1.95492 0
M  V30 7329 O 673.825 -0.0510796 2.71452 0
M  V30 7330 C 672.281 2.53158 2.55811 0
M  V30 7331 C 671.889 3.96624 2.08311 0
M  V30 7332 C 673.633 2.63004 3.3321 0
M  V30 7333 C 671.54 4.97385 3.1994 0
M  V30 7334 H 670.47 0.535174 0.531136 0
M  V30 7335 H 673.121 1.69185 0.710543 0
M  V30 7336 H 671.503 2.21037 3.2857 0
M  V30 7337 H 672.677 4.38182 1.42593 0
M  V30 7338 H 670.992 3.90781 1.43804 0
M  V30 7339 H 673.589 3.3546 4.16378 0
M  V30 7340 H 673.932 1.67918 3.80932 0
M  V30 7341 H 674.465 2.94403 2.67529 0
M  V30 7342 H 671.204 5.94007 2.77192 0
M  V30 7343 H 670.724 4.60444 3.84385 0
M  V30 7344 H 672.403 5.19877 3.85145 0
M  V30 7345 N 672.536 -0.895792 1.29666 0
M  V30 7346 C 673.785 -1.64131 1.17234 0
M  V30 7347 C 674.098 -1.93665 -0.274416 0
M  V30 7348 O 675.304 -2.66472 -0.520105 0
M  V30 7349 C 673.76 -2.95764 2.05065 0
M  V30 7350 C 673.368 -2.7381 3.54587 0
M  V30 7351 C 675.112 -3.737 2.01367 0
M  V30 7352 C 673.019 -4.01194 4.34508 0
M  V30 7353 H 671.949 -0.615742 0.435175 0
M  V30 7354 H 674.6 -0.992626 1.54335 0
M  V30 7355 H 672.982 -3.61867 1.60837 0
M  V30 7356 H 674.156 -2.16277 4.06892 0
M  V30 7357 H 672.471 -2.09265 3.59996 0
M  V30 7358 H 675.068 -4.68152 2.58337 0
M  V30 7359 H 675.411 -4.04245 0.994575 0
M  V30 7360 H 675.944 -3.14444 2.43659 0
M  V30 7361 H 672.683 -3.75813 5.37071 0
M  V30 7362 H 672.203 -4.58272 3.86971 0
M  V30 7363 H 673.882 -4.69307 4.45376 0
M  V30 7364 N 674.014 -1.12206 -1.10668 0
M  V30 7365 C 674.977 -0.790867 -2.15123 0
M  V30 7366 C 675.977 0.193618 -1.5963 0
M  V30 7367 O 677.167 -0.0318728 -1.74171 0
M  V30 7368 C 674.299 -0.174797 -3.40452 0
M  V30 7369 H 675.492 -1.7163 -2.45933 0
M  V30 7370 H 673.045 -0.924993 -1.2599 0
M  V30 7371 H 673.78 0.760478 -3.15257 0
M  V30 7372 H 673.565 -0.88358 -3.82015 0
M  V30 7373 H 675.055 0.0405162 -4.1758 0
M  V30 7374 N 675.492 1.28418 -0.913599 0
M  V30 7375 C 676.72 1.99106 -0.562536 0
M  V30 7376 C 677.135 1.68273 0.856137 0
M  V30 7377 O 676.492 0.935401 1.56705 0
M  V30 7378 C 676.543 3.5338 -0.761903 0
M  V30 7379 O 676.264 3.83127 -2.12475 0
M  V30 7380 C 677.765 4.41328 -0.417651 0
M  V30 7381 H 674.985 0.635798 -0.214481 0
M  V30 7382 H 677.529 1.63618 -1.22676 0
M  V30 7383 H 675.684 3.8713 -0.144676 0
M  V30 7384 H 676.098 4.77763 -2.16431 0
M  V30 7385 H 677.572 5.48642 -0.607919 0
M  V30 7386 H 678.049 4.34422 0.646108 0
M  V30 7387 H 678.655 4.13074 -1.01241 0
M  V30 7388 N 676.97 0.677563 1.42291 0
M  V30 7389 C 677.9 0.014968 2.33495 0
M  V30 7390 C 678.881 -0.786376 1.50831 0
M  V30 7391 O 680.066 -0.742975 1.79426 0
M  V30 7392 C 677.196 -0.935023 3.34477 0
M  V30 7393 C 676.15 -0.242074 4.27315 0
M  V30 7394 C 675.476 -1.30519 5.18526 0
M  V30 7395 C 676.776 0.880604 5.14823 0
M  V30 7396 H 678.47 0.776671 2.89151 0
M  V30 7397 H 676.016 0.37494 1.39033 0
M  V30 7398 H 677.969 -1.40766 3.97194 0
M  V30 7399 H 676.693 -1.72818 2.77131 0
M  V30 7400 H 675.352 0.210351 3.65996 0
M  V30 7401 H 675 -2.09041 4.57505 0
M  V30 7402 H 674.7 -0.846652 5.81468 0
M  V30 7403 H 676.224 -1.7787 5.84119 0
M  V30 7404 H 677.638 0.489062 5.7121 0
M  V30 7405 H 676.035 1.26511 5.86613 0
M  V30 7406 H 677.105 1.72818 4.53059 0
M  V30 7407 N 678.448 -1.51871 0.421078 0
M  V30 7408 C 679.696 -2.01539 -0.150492 0
M  V30 7409 C 680.017 -1.30803 -1.44623 0
M  V30 7410 O 679.287 -0.437568 -1.90951 0
M  V30 7411 H 677.867 -0.744698 -0.0586041 0
M  V30 7412 H 680.529 -1.8668 0.560059 0
M  V30 7413 H 679.625 -3.10264 -0.338068 0
M  V30 7414 N 679.926 -0.151884 -1.56866 0
M  V30 7415 C 681.172 0.498742 -1.96572 0
M  V30 7416 C 681.505 1.64194 -1.03702 0
M  V30 7417 O 680.78 1.94334 -0.0803432 0
M  V30 7418 C 681.063 1.00027 -3.45929 0
M  V30 7419 C 680.916 -0.141767 -4.49577 0
M  V30 7420 C 682.235 1.88044 -3.97904 0
M  V30 7421 H 679.354 0.17982 -0.714726 0
M  V30 7422 H 681.996 -0.234097 -1.88552 0
M  V30 7423 H 680.146 1.62476 -3.52894 0
M  V30 7424 H 681.818 -0.778269 -4.54687 0
M  V30 7425 H 680.061 -0.80019 -4.26356 0
M  V30 7426 H 680.732 0.250947 -5.51429 0
M  V30 7427 H 683.208 1.35416 -3.93449 0
M  V30 7428 H 682.084 2.20043 -5.02864 0
M  V30 7429 H 682.345 2.81916 -3.40552 0
M  V30 7430 N 681.404 1.57128 0.121893 0
M  V30 7431 C 682.652 1.84335 0.828548 0
M  V30 7432 C 682.973 0.736632 1.80551 0
M  V30 7433 O 682.243 -0.23962 1.94429 0
M  V30 7434 H 680.823 0.680108 0.30897 0
M  V30 7435 H 683.485 1.9459 0.109906 0
M  V30 7436 H 682.581 2.80152 1.37554 0
M  V30 7437 N 682.882 -0.391992 1.52647 0
M  V30 7438 C 684.13 -1.13507 1.67214 0
M  V30 7439 C 684.451 -1.90575 0.41304 0
M  V30 7440 O 683.721 -1.87348 -0.572498 0
M  V30 7441 H 682.301 -0.422013 0.616372 0
M  V30 7442 H 684.963 -0.44502 1.89751 0
M  V30 7443 H 684.059 -1.83964 2.52118 0
M  V30 7444 N 684.36 -1.4356 -0.65026 0
M  V30 7445 C 685.607 -1.45333 -1.41012 0
M  V30 7446 C 685.935 -0.0787282 -1.94341 0
M  V30 7447 O 685.19 0.916715 -1.72901 0
M  V30 7448 C 685.489 -2.44528 -2.60654 0
M  V30 7449 C 685.155 -3.90331 -2.25727 0
M  V30 7450 C 683.817 -4.3004 -2.15914 0
M  V30 7451 C 686.169 -4.822 -1.97821 0
M  V30 7452 C 683.497 -5.59568 -1.76354 0
M  V30 7453 C 685.849 -6.12095 -1.59759 0
M  V30 7454 C 684.513 -6.50778 -1.48473 0
M  V30 7455 H 683.783 -0.531813 -0.516 0
M  V30 7456 H 686.43 -1.76657 -0.739219 0
M  V30 7457 H 684.735 -2.06619 -3.3289 0
M  V30 7458 H 686.432 -2.43155 -3.18868 0
M  V30 7459 H 683.022 -3.58905 -2.34276 0
M  V30 7460 H 687.206 -4.5229 -2.04322 0
M  V30 7461 H 682.462 -5.88376 -1.66205 0
M  V30 7462 H 686.636 -6.82751 -1.37198 0
M  V30 7463 H 684.263 -7.5105 -1.17591 0
M  V30 7464 N 685.838 0.888903 -1.30139 0
M  V30 7465 C 687.086 1.63713 -1.18501 0
M  V30 7466 C 687.407 1.9324 0.261399 0
M  V30 7467 O 686.677 1.56608 1.17689 0
M  V30 7468 H 685.257 0.606861 -0.435579 0
M  V30 7469 H 687.919 1.06525 -1.63213 0
M  V30 7470 H 687.015 2.58894 -1.743 0
M  V30 7471 N 687.317 1.12792 1.10072 0
M  V30 7472 C 688.733 0.864745 1.34143 0
M  V30 7473 C 688.933 -0.503201 1.95116 0
M  V30 7474 O 687.989 -1.25111 2.19325 0
M  V30 7475 C 689.302 1.98413 2.25949 0
M  V30 7476 C 690.85 2.01545 2.39476 0
M  V30 7477 C 691.325 3.12727 3.34613 0
M  V30 7478 N 692.816 3.12194 3.42183 0
M  V30 7479 C 693.551 3.94862 4.15779 0
M  V30 7480 N 693.047 4.87528 4.92228 0
M  V30 7481 N 694.84 3.82985 4.11435 0
M  V30 7482 H 686.991 2.00926 0.68866 0
M  V30 7483 H 689.254 0.874564 0.365844 0
M  V30 7484 H 688.96 2.97005 1.88364 0
M  V30 7485 H 688.834 1.89254 3.26287 0
M  V30 7486 H 691.221 1.0357 2.76328 0
M  V30 7487 H 691.302 2.14777 1.3894 0
M  V30 7488 H 690.946 4.10936 2.98486 0
M  V30 7489 H 690.876 2.96732 4.35037 0
M  V30 7490 H 693.367 2.45065 2.87666 0
M  V30 7491 H 693.68 5.47109 5.45794 0
M  V30 7492 H 692.025 4.91539 4.9134 0
M  V30 7493 H 695.216 3.09923 3.50807 0
M  V30 7494 H 695.389 4.47641 4.68531 0
M  V30 7495 N 688.795 -1.27931 0.920396 0
M  V30 7496 C 690.041 -1.94977 0.557832 0
M  V30 7497 C 690.374 -1.72224 -0.897365 0
M  V30 7498 O 689.649 -1.04705 -1.63912 0
M  V30 7499 C 689.932 -3.49289 0.875741 0
M  V30 7500 C 689.785 -3.81416 2.38416 0
M  V30 7501 C 691.104 -4.38486 0.376517 0
M  V30 7502 H 688.223 -0.708164 0.20414 0
M  V30 7503 H 690.865 -1.5118 1.15085 0
M  V30 7504 H 689.015 -3.86724 0.371062 0
M  V30 7505 H 690.687 -3.53813 2.95997 0
M  V30 7506 H 688.93 -3.28225 2.83639 0
M  V30 7507 H 689.601 -4.89198 2.55713 0
M  V30 7508 H 692.077 -4.08161 0.808945 0
M  V30 7509 H 690.953 -5.45296 0.627976 0
M  V30 7510 H 691.214 -4.36143 -0.723293 0
M  V30 7511 N 690.273 -0.685099 -1.4193 0
M  V30 7512 C 691.183 -0.013404 -2.34596 0
M  V30 7513 C 692.199 0.777589 -1.55658 0
M  V30 7514 O 693.375 0.717553 -1.88184 0
M  V30 7515 C 690.44 0.919031 -3.34297 0
M  V30 7516 C 689.501 0.121417 -4.29128 0
M  V30 7517 C 688.734 1.00944 -5.24067 0
M  V30 7518 O 688.957 2.24898 -5.24192 0
M  V30 7519 O 687.891 0.464724 -6.00103 0
M  V30 7520 H 691.717 -0.776978 -2.93593 0
M  V30 7521 H 689.302 -0.445379 -1.42607 0
M  V30 7522 H 691.184 1.45402 -3.9552 0
M  V30 7523 H 689.859 1.66228 -2.77759 0
M  V30 7524 H 688.766 -0.45792 -3.71287 0
M  V30 7525 H 690.099 -0.582937 -4.88736 0
M  V30 7526 N 691.751 1.51645 -0.429126 0
M  V30 7527 C 692.681 2.30434 0.377148 0
M  V30 7528 C 693.662 1.35493 1.02838 0
M  V30 7529 O 694.847 1.6441 1.03359 0
M  V30 7530 C 691.977 3.14038 1.48315 0
M  V30 7531 C 690.931 4.1719 0.955855 0
M  V30 7532 C 690.257 4.89263 2.15698 0
M  V30 7533 C 691.557 5.223 -0.00402136 0
M  V30 7534 H 693.251 2.98085 -0.280336 0
M  V30 7535 H 690.797 1.43354 -0.136265 0
M  V30 7536 H 692.75 3.67933 2.05435 0
M  V30 7537 H 691.474 2.44193 2.16881 0
M  V30 7538 H 690.133 3.64335 0.406929 0
M  V30 7539 H 689.781 4.15929 2.82864 0
M  V30 7540 H 689.481 5.59009 1.81059 0
M  V30 7541 H 691.005 5.45978 2.73387 0
M  V30 7542 H 692.419 5.71315 0.476607 0
M  V30 7543 H 690.816 5.99525 -0.26258 0
M  V30 7544 H 691.886 4.75638 -0.943236 0
M  V30 7545 N 693.229 0.160201 1.56784 0
M  V30 7546 C 694.475 -0.48831 1.96833 0
M  V30 7547 C 694.808 -1.63641 1.04571 0
M  V30 7548 O 694.083 -1.94289 0.0906481 0
M  V30 7549 C 694.366 -0.981908 3.46454 0
M  V30 7550 C 694.219 0.165607 4.49495 0
M  V30 7551 C 695.538 -1.85931 3.98896 0
M  V30 7552 H 692.657 -0.176027 0.71567 0
M  V30 7553 H 695.299 0.244093 1.88426 0
M  V30 7554 H 693.449 -1.60602 3.5375 0
M  V30 7555 H 695.121 0.802372 4.54268 0
M  V30 7556 H 693.364 0.822789 4.25926 0
M  V30 7557 H 694.035 -0.221699 5.51555 0
M  V30 7558 H 696.511 -1.33327 3.94161 0
M  V30 7559 H 695.387 -2.17373 5.04024 0
M  V30 7560 H 695.648 -2.80106 3.42042 0
M  V30 7561 N 694.707 -1.5719 -0.113559 0
M  V30 7562 C 695.654 -2.00736 -1.13901 0
M  V30 7563 C 696.624 -0.88044 -1.40846 0
M  V30 7564 O 697.809 -1.14507 -1.5262 0
M  V30 7565 C 694.949 -2.42132 -2.45899 0
M  V30 7566 C 694.062 -3.68264 -2.25844 0
M  V30 7567 C 693.197 -3.98617 -3.5111 0
M  V30 7568 C 692.236 -5.17915 -3.26236 0
M  V30 7569 N 691.373 -5.44111 -4.4372 0
M  V30 7570 H 696.213 -2.88128 -0.760677 0
M  V30 7571 H 693.75 -1.42523 -0.364099 0
M  V30 7572 H 695.708 -2.6417 -3.22908 0
M  V30 7573 H 694.338 -1.57775 -2.81615 0
M  V30 7574 H 693.39 -3.53809 -1.39726 0
M  V30 7575 H 694.702 -4.55425 -2.03444 0
M  V30 7576 H 693.856 -4.21333 -4.36536 0
M  V30 7577 H 692.595 -3.09942 -3.76546 0
M  V30 7578 H 691.6 -4.95038 -2.39202 0
M  V30 7579 H 692.825 -6.08172 -3.02165 0
M  V30 7580 H 690.771 -4.58394 -4.69266 0
M  V30 7581 H 690.688 -6.25606 -4.24444 0
M  V30 7582 H 691.956 -5.71351 -5.30263 0
M  V30 7583 N 696.185 0.383891 -1.52853 0
M  V30 7584 C 697.431 1.13009 -1.68395 0
M  V30 7585 C 697.764 1.89488 -0.425195 0
M  V30 7586 O 697.039 1.8574 0.577136 0
M  V30 7587 C 697.322 2.10419 -2.92226 0
M  V30 7588 C 697.175 1.3767 -4.28214 0
M  V30 7589 C 698.494 3.10781 -3.11614 0
M  V30 7590 H 695.613 0.409463 -0.612788 0
M  V30 7591 H 698.255 0.412895 -1.85459 0
M  V30 7592 H 696.405 2.71579 -2.77808 0
M  V30 7593 H 698.077 0.794352 -4.54409 0
M  V30 7594 H 696.32 0.678533 -4.2846 0
M  V30 7595 H 696.991 2.08874 -5.10956 0
M  V30 7596 H 699.467 2.59715 -3.25096 0
M  V30 7597 H 698.343 3.76179 -3.99725 0
M  V30 7598 H 698.604 3.79933 -2.2606 0
M  V30 7599 N 697.663 1.43903 0.642637 0
M  V30 7600 C 698.61 1.49881 1.75512 0
M  V30 7601 C 699.58 0.347538 1.62423 0
M  V30 7602 O 700.765 0.556177 1.82514 0
M  V30 7603 C 697.905 1.43797 3.13714 0
M  V30 7604 C 697.018 2.6921 3.37861 0
M  V30 7605 C 696.153 2.5504 4.6597 0
M  V30 7606 C 695.192 3.75671 4.83257 0
M  V30 7607 N 694.329 3.60247 6.02633 0
M  V30 7608 H 699.169 2.44935 1.69737 0
M  V30 7609 H 696.706 1.21572 0.828165 0
M  V30 7610 H 698.664 1.38262 3.93624 0
M  V30 7611 H 697.294 0.523173 3.18532 0
M  V30 7612 H 696.346 2.8498 2.51973 0
M  V30 7613 H 697.658 3.58786 3.46517 0
M  V30 7614 H 696.812 2.47273 5.54023 0
M  V30 7615 H 695.551 1.63006 4.59653 0
M  V30 7616 H 694.556 3.83836 3.93637 0
M  V30 7617 H 695.781 4.68728 4.91397 0
M  V30 7618 H 693.727 2.70955 5.97427 0
M  V30 7619 H 693.644 4.43431 6.12295 0
M  V30 7620 H 694.912 3.56351 6.93278 0
M  V30 7621 N 699.141 -0.881989 1.30609 0
M  V30 7622 C 700.089 -2.00942 1.17155 0
M  V30 7623 C 701.083 -1.69198 0.0827154 0
M  V30 7624 O 702.289 -1.78342 0.243775 0
M  V30 7625 H 698.664 -0.658913 0.362406 0
M  V30 7626 H 700.635 -2.09423 2.12567 0
M  V30 7627 C 699.384 -3.36294 0.883273 0
M  V30 7628 H 698.707 -3.61233 1.7132 0
M  V30 7629 H 700.147 -4.15812 0.829255 0
M  V30 7630 C 698.606 -3.34348 -0.413851 0
M  V30 7631 O 699.136 -3.75216 -1.43444 0
M  V30 7632 N 697.342 -2.87459 -0.426082 0
M  V30 7633 H 696.889 -2.54397 0.40493 0
M  V30 7634 H 696.847 -2.8654 -1.29391 0
M  V30 7635 N 700.619 -1.13374 -1.09472 0
M  V30 7636 C 701.529 -0.824029 -2.19652 0
M  V30 7637 C 702.545 0.19118 -1.72947 0
M  V30 7638 O 703.721 0.0223464 -2.01388 0
M  V30 7639 C 700.786 -0.294009 -3.45451 0
M  V30 7640 C 699.847 -1.3704 -4.0684 0
M  V30 7641 C 699.08 -0.86558 -5.26634 0
M  V30 7642 O 699.303 0.29702 -5.69626 0
M  V30 7643 O 698.237 -1.63968 -5.79136 0
M  V30 7644 H 702.063 -1.74454 -2.48595 0
M  V30 7645 H 699.648 -0.911155 -1.18399 0
M  V30 7646 H 701.53 -0.00381039 -4.214 0
M  V30 7647 H 700.205 0.598921 -3.18111 0
M  V30 7648 H 699.112 -1.71391 -3.3253 0
M  V30 7649 H 700.445 -2.23746 -4.38405 0
M  V30 7650 N 702.098 1.27442 -0.927168 0
M  V30 7651 C 703.046 2.28844 -0.416333 0
M  V30 7652 C 704.04 1.61882 0.499057 0
M  V30 7653 O 705.246 1.75969 0.378817 0
M  V30 7654 H 701.621 0.742989 -0.116065 0
M  V30 7655 H 703.592 2.69344 -1.28438 0
M  V30 7656 C 702.341 3.4626 0.316107 0
M  V30 7657 H 701.664 3.97999 -0.379082 0
M  V30 7658 H 703.104 4.19173 0.637975 0
M  V30 7659 C 701.563 3.00211 1.5289 0
M  V30 7660 O 702.093 3.03837 2.62766 0
M  V30 7661 N 700.299 2.55713 1.38054 0
M  V30 7662 H 699.846 2.52962 0.4866 0
M  V30 7663 H 699.804 2.25264 2.19325 0
M  V30 7664 N 703.576 0.692616 1.41565 0
M  V30 7665 C 704.822 0.222664 2.01574 0
M  V30 7666 C 705.155 -1.1737 1.54719 0
M  V30 7667 O 704.43 -1.79161 0.757084 0
M  V30 7668 C 704.713 0.277064 3.59033 0
M  V30 7669 C 704.566 1.71016 4.16021 0
M  V30 7670 C 705.885 -0.36479 4.38586 0
M  V30 7671 H 703.004 0.0823839 0.732381 0
M  V30 7672 H 705.646 0.880778 1.68352 0
M  V30 7673 H 703.796 -0.283288 3.87466 0
M  V30 7674 H 705.468 2.32413 3.98475 0
M  V30 7675 H 703.711 2.24525 3.71175 0
M  V30 7676 H 704.382 1.69978 5.25178 0
M  V30 7677 H 706.858 0.112404 4.15948 0
M  V30 7678 H 705.734 -0.296169 5.481 0
M  V30 7679 H 705.995 -1.44506 4.17816 0
M  V30 7680 N 705.054 -1.51416 0.437162 0
M  V30 7681 C 706.017 -2.26312 -0.362729 0
M  V30 7682 C 707.017 -1.29748 -0.949847 0
M  V30 7683 O 708.207 -1.53462 -0.824325 0
M  V30 7684 C 705.339 -3.05475 -1.5132 0
M  V30 7685 H 706.532 -2.98459 0.29365 0
M  V30 7686 H 704.085 -1.55137 0.190327 0
M  V30 7687 H 704.82 -2.37744 -2.20563 0
M  V30 7688 H 704.605 -3.76401 -1.09838 0
M  V30 7689 H 706.095 -3.62209 -2.07833 0
M  V30 7690 N 706.532 -0.168513 -1.56696 0
M  V30 7691 C 707.779 0.477158 -1.96798 0
M  V30 7692 C 708.107 1.63442 -1.05437 0
M  V30 7693 O 707.362 1.95503 -0.0878903 0
M  V30 7694 C 707.661 1.00441 -3.42996 0
M  V30 7695 C 707.327 -0.0366556 -4.50885 0
M  V30 7696 C 705.989 -0.322785 -4.80116 0
M  V30 7697 C 708.341 -0.743447 -5.1587 0
M  V30 7698 C 705.669 -1.32114 -5.71632 0
M  V30 7699 C 708.021 -1.73077 -6.08463 0
M  V30 7700 C 706.685 -2.02437 -6.36062 0
M  V30 7701 H 705.955 0.174604 -0.720135 0
M  V30 7702 H 708.602 -0.259884 -1.89728 0
M  V30 7703 H 706.907 1.81922 -3.47004 0
M  V30 7704 H 708.604 1.51294 -3.71364 0
M  V30 7705 H 705.194 0.196532 -4.28149 0
M  V30 7706 H 709.378 -0.535602 -4.93401 0
M  V30 7707 H 704.634 -1.55482 -5.913 0
M  V30 7708 H 708.808 -2.28382 -6.57886 0
M  V30 7709 H 706.435 -2.79946 -7.06777 0
M  V30 7710 N 708.01 1.57248 0.105221 0
M  V30 7711 C 708.973 2.00388 1.11252 0
M  V30 7712 C 709.973 0.89594 1.33527 0
M  V30 7713 O 711.163 1.16166 1.29811 0
M  V30 7714 C 708.295 2.35589 2.46395 0
M  V30 7715 H 709.488 2.90591 0.741424 0
M  V30 7716 H 707.041 1.52332 0.349956 0
M  V30 7717 H 707.776 1.4831 2.884 0
M  V30 7718 H 707.561 3.16408 2.31578 0
M  V30 7719 H 709.051 2.69658 3.18864 0
M  V30 7720 N 709.488 -0.375779 1.53054 0
M  V30 7721 C 710.421 -1.48187 1.7354 0
M  V30 7722 C 711.399 -1.5177 0.583495 0
M  V30 7723 O 712.583 -1.69976 0.81488 0
M  V30 7724 C 709.71 -2.86598 1.80497 0
M  V30 7725 C 708.756 -3.00784 3.02376 0
M  V30 7726 S 709.589 -2.70601 4.62099 0
M  V30 7727 C 710.745 -4.11181 4.71891 0
M  V30 7728 H 710.978 -1.30587 2.67085 0
M  V30 7729 H 708.511 -0.569485 1.43514 0
M  V30 7730 H 710.469 -3.66353 1.85192 0
M  V30 7731 H 709.13 -3.01514 0.880217 0
M  V30 7732 H 708.323 -4.02128 3.03824 0
M  V30 7733 H 707.925 -2.28939 2.95742 0
M  V30 7734 H 710.217 -5.0529 4.51319 0
M  V30 7735 H 711.16 -4.14742 5.73929 0
M  V30 7736 H 711.568 -3.97706 4.00612 0
M  V30 7737 N 710.966 -1.44241 -0.634997 0
M  V30 7738 C 711.913 -1.5081 -1.74714 0
M  V30 7739 C 712.883 -0.356147 -1.62237 0
M  V30 7740 O 714.068 -0.565848 -1.82216 0
M  V30 7741 C 711.208 -1.45458 -3.12947 0
M  V30 7742 C 710.321 -2.70998 -3.36428 0
M  V30 7743 C 709.456 -2.57507 -4.64611 0
M  V30 7744 C 708.495 -3.78229 -4.81258 0
M  V30 7745 N 707.632 -3.63438 -6.00714 0
M  V30 7746 H 712.472 -2.45832 -1.68436 0
M  V30 7747 H 710.009 -1.2201 -0.821706 0
M  V30 7748 H 711.967 -1.40347 -3.92885 0
M  V30 7749 H 710.597 -0.540058 -3.1825 0
M  V30 7750 H 709.649 -2.86312 -2.50458 0
M  V30 7751 H 710.961 -3.60619 -3.44609 0
M  V30 7752 H 710.115 -2.50207 -5.52703 0
M  V30 7753 H 708.854 -1.65441 -4.58782 0
M  V30 7754 H 707.859 -3.85918 -3.91596 0
M  V30 7755 H 709.084 -4.71327 -4.88904 0
M  V30 7756 H 707.03 -2.7412 -5.95982 0
M  V30 7757 H 706.947 -4.46672 -6.09934 0
M  V30 7758 H 708.215 -3.60022 -6.91378 0
M  V30 7759 N 712.444 0.87505 -1.31075 0
M  V30 7760 C 713.684 1.64174 -1.21763 0
M  V30 7761 C 714.048 1.90713 0.221933 0
M  V30 7762 O 715.249 2.652 0.438458 0
M  V30 7763 C 713.52 2.93932 -2.0332 0
M  V30 7764 S 715.079 3.84841 -2.10815 0
M  V30 7765 H 711.897 0.563358 -0.433761 0
M  V30 7766 H 714.499 1.03788 -1.65675 0
M  V30 7767 H 713.203 2.72349 -3.07009 0
M  V30 7768 H 712.734 3.59345 -1.60108 0
M  V30 7769 H 714.749 4.80385 -1.24276 0
M  V30 7770 N 713.922 1.13953 1.08869 0
M  V30 7771 C 715.171 0.899431 1.80536 0
M  V30 7772 C 715.484 -0.575781 1.86933 0
M  V30 7773 O 716.69 -0.932988 2.54966 0
M  V30 7774 C 715.146 1.55963 3.24351 0
M  V30 7775 C 714.754 3.07077 3.26202 0
M  V30 7776 C 716.498 1.40046 4.00733 0
M  V30 7777 C 714.405 3.65955 4.64576 0
M  V30 7778 H 713.335 0.332849 0.676556 0
M  V30 7779 H 715.986 1.3679 1.22314 0
M  V30 7780 H 714.368 1.01883 3.82669 0
M  V30 7781 H 715.542 3.67785 2.77617 0
M  V30 7782 H 713.857 3.22576 2.63312 0
M  V30 7783 H 716.454 1.81441 5.02974 0
M  V30 7784 H 716.797 0.345993 4.1486 0
M  V30 7785 H 717.33 1.91137 3.48872 0
M  V30 7786 H 714.069 4.71234 4.55652 0
M  V30 7787 H 713.589 3.10027 5.13462 0
M  V30 7788 H 715.268 3.65968 5.33551 0
M  V30 7789 N 715.4 -1.26948 0.933913 0
M  V30 7790 C 716.816 -1.46419 0.635103 0
M  V30 7791 C 717.016 -1.84336 -0.813785 0
M  V30 7792 O 716.072 -1.96061 -1.59111 0
M  V30 7793 C 717.385 -2.55206 1.5903 0
M  V30 7794 C 718.933 -2.69062 1.5992 0
M  V30 7795 C 719.408 -3.81013 2.54152 0
M  V30 7796 N 720.899 -3.88395 2.52395 0
M  V30 7797 C 721.634 -4.74454 3.21996 0
M  V30 7798 N 721.13 -5.64954 4.00997 0
M  V30 7799 N 722.923 -4.68237 3.10983 0
M  V30 7800 H 715.074 -1.00622 1.87053 0
M  V30 7801 H 717.337 -0.503189 0.803433 0
M  V30 7802 H 717.043 -2.34153 2.62422 0
M  V30 7803 H 716.917 -3.52719 1.33677 0
M  V30 7804 H 719.304 -2.89492 0.572569 0
M  V30 7805 H 719.385 -1.72016 1.89325 0
M  V30 7806 H 719.029 -3.61336 3.5693 0
M  V30 7807 H 718.959 -4.77499 2.22041 0
M  V30 7808 H 721.45 -3.23687 1.95025 0
M  V30 7809 H 721.763 -6.27496 4.51074 0
M  V30 7810 H 720.108 -5.6473 4.05099 0
M  V30 7811 H 723.299 -3.96535 2.48753 0
M  V30 7812 H 723.472 -5.35087 3.65494 0
M  V30 7813 N 716.879 -0.700114 -1.41195 0
M  V30 7814 C 717.826 -0.0376652 -2.30769 0
M  V30 7815 C 718.796 0.766544 -1.47354 0
M  V30 7816 O 719.981 0.73365 -1.76131 0
M  V30 7817 C 717.121 0.889452 -3.33441 0
M  V30 7818 C 716.234 0.076373 -4.31932 0
M  V30 7819 C 715.369 1.00155 -5.21673 0
M  V30 7820 C 714.408 0.181644 -6.1183 0
M  V30 7821 N 713.545 1.06087 -6.94039 0
M  V30 7822 H 718.385 -0.80726 -2.86858 0
M  V30 7823 H 715.922 -0.409798 -1.41277 0
M  V30 7824 H 717.88 1.44107 -3.91522 0
M  V30 7825 H 716.51 1.6254 -2.78892 0
M  V30 7826 H 715.562 -0.592223 -3.75762 0
M  V30 7827 H 716.874 -0.559076 -4.95657 0
M  V30 7828 H 716.028 1.62223 -5.8461 0
M  V30 7829 H 714.767 1.67085 -4.58186 0
M  V30 7830 H 713.772 -0.452085 -5.47938 0
M  V30 7831 H 714.997 -0.483925 -6.77374 0
M  V30 7832 H 712.943 1.7161 -6.33156 0
M  V30 7833 H 712.86 0.481094 -7.54468 0
M  V30 7834 H 714.128 1.66822 -7.6144 0
M  V30 7835 N 718.357 1.51182 -0.445186 0
M  V30 7836 C 719.304 2.27939 0.362291 0
M  V30 7837 C 720.274 1.31864 1.01 0
M  V30 7838 O 721.459 1.60776 1.02741 0
M  V30 7839 C 718.599 3.13016 1.45311 0
M  V30 7840 C 717.712 4.24093 0.822757 0
M  V30 7841 C 716.847 4.96467 1.88928 0
M  V30 7842 C 715.886 5.99454 1.23778 0
M  V30 7843 N 715.023 6.65206 2.24602 0
M  V30 7844 H 719.863 2.965 -0.29862 0
M  V30 7845 H 717.4 1.46237 -0.15911 0
M  V30 7846 H 719.358 3.60673 2.09692 0
M  V30 7847 H 717.988 2.46553 2.08354 0
M  V30 7848 H 717.04 3.80341 0.0670364 0
M  V30 7849 H 718.352 4.97853 0.307184 0
M  V30 7850 H 717.506 5.47712 2.60953 0
M  V30 7851 H 716.245 4.22355 2.4386 0
M  V30 7852 H 715.25 5.47494 0.503042 0
M  V30 7853 H 716.475 6.75527 0.695694 0
M  V30 7854 H 714.421 5.93901 2.78599 0
M  V30 7855 H 714.338 7.34756 1.77958 0
M  V30 7856 H 715.606 7.21078 2.96085 0
M  V30 7857 N 719.835 0.176821 1.56605 0
M  V30 7858 C 720.785 -0.763718 2.14829 0
M  V30 7859 C 721.769 -1.18903 1.08401 0
M  V30 7860 O 722.961 -1.15048 1.3451 0
M  V30 7861 C 720.09 -1.99069 2.7969 0
M  V30 7862 C 719.176 -1.58711 3.93283 0
M  V30 7863 N 719.567 -0.893423 4.97847 0
M  V30 7864 C 717.865 -1.87774 4.04545 0
M  V30 7865 C 718.566 -0.693866 5.77547 0
M  V30 7866 N 717.542 -1.23699 5.29339 0
M  V30 7867 H 721.344 -0.224811 2.93039 0
M  V30 7868 H 718.858 -0.0236563 1.62383 0
M  V30 7869 H 720.855 -2.67478 3.19783 0
M  V30 7870 H 719.515 -2.53449 2.02962 0
M  V30 7871 H 720.526 -0.550868 5.14962 0
M  V30 7872 H 717.203 -2.43793 3.38927 0
M  V30 7873 H 718.593 -0.144899 6.71744 0
M  V30 7874 N 721.313 -1.57302 -0.09688 0
M  V30 7875 C 722.562 -1.85183 -0.799388 0
M  V30 7876 C 722.875 -0.765818 -1.79985 0
M  V30 7877 O 724.081 -0.931696 -2.55013 0
M  V30 7878 C 722.537 -3.28399 -1.47249 0
M  V30 7879 C 722.145 -4.45066 -0.511888 0
M  V30 7880 C 723.889 -3.65506 -2.15883 0
M  V30 7881 C 721.796 -5.79315 -1.18948 0
M  V30 7882 H 720.726 -0.690752 -0.302287 0
M  V30 7883 H 723.377 -1.83425 -0.0523104 0
M  V30 7884 H 721.759 -3.24692 -2.26697 0
M  V30 7885 H 722.933 -4.60116 0.250962 0
M  V30 7886 H 721.248 -4.16343 0.0686576 0
M  V30 7887 H 723.845 -4.63087 -2.67309 0
M  V30 7888 H 724.188 -2.94041 -2.94696 0
M  V30 7889 H 724.721 -3.71094 -1.43298 0
M  V30 7890 H 721.46 -6.54007 -0.442198 0
M  V30 7891 H 720.98 -5.68111 -1.9238 0
M  V30 7892 H 722.659 -6.23816 -1.71646 0
M  V30 7893 N 722.791 0.367657 -1.53252 0
M  V30 7894 C 724.037 1.11216 -1.69584 0
M  V30 7895 C 724.37 1.89026 -0.445269 0
M  V30 7896 O 723.645 1.86342 0.557404 0
M  V30 7897 C 723.928 2.07308 -2.94441 0
M  V30 7898 C 723.781 1.3312 -4.2965 0
M  V30 7899 C 725.1 3.07459 -3.14892 0
M  V30 7900 H 722.219 0.40294 -0.617096 0
M  V30 7901 H 724.861 0.393201 -1.85887 0
M  V30 7902 H 723.011 2.68617 -2.80673 0
M  V30 7903 H 724.683 0.746111 -4.55226 0
M  V30 7904 H 722.926 0.633051 -4.29156 0
M  V30 7905 H 723.597 2.03443 -5.13142 0
M  V30 7906 H 726.073 2.56252 -3.27832 0
M  V30 7907 H 724.949 3.71919 -4.03693 0
M  V30 7908 H 725.21 3.77514 -2.30077 0
M  V30 7909 N 724.269 1.44576 0.627338 0
M  V30 7910 C 725.546 1.38033 1.38586 0
M  V30 7911 C 725.926 0.0409468 2.1106 0
M  V30 7912 O 725.274 -0.976582 2.0658 0
M  V30 7913 C 725.484 2.58102 2.34913 0
M  V30 7914 C 726.832 3.02332 2.98129 0
M  V30 7915 O 727.856 2.58334 2.45238 0
M  V30 7916 O 726.715 3.78628 3.94085 0
M  V30 7917 H 723.809 0.546801 0.620434 0
M  V30 7918 H 726.355 1.56672 0.652077 0
M  V30 7919 H 725.127 3.4719 1.80485 0
M  V30 7920 H 724.75 2.41696 3.15703 0
M  V30 7921 N 725.747 -0.868086 1.31537 0
M  V30 7922 C 726.975 -1.65402 1.24298 0
M  V30 7923 C 727.39 -1.87827 -0.191389 0
M  V30 7924 O 726.747 -1.43776 -1.12404 0
M  V30 7925 C 726.798 -3.02093 1.9855 0
M  V30 7926 O 726.519 -2.80668 3.36388 0
M  V30 7927 C 728.02 -3.96538 1.98173 0
M  V30 7928 H 725.24 -0.515598 0.429417 0
M  V30 7929 H 727.784 -1.0834 1.73444 0
M  V30 7930 H 725.939 -3.55838 1.53161 0
M  V30 7931 H 726.353 -3.67504 3.74221 0
M  V30 7932 H 727.827 -4.8976 2.54635 0
M  V30 7933 H 728.304 -4.28474 0.964697 0
M  V30 7934 H 728.91 -3.48729 2.4345 0
M  V30 7935 N 727.225 -1.14528 -1.08264 0
M  V30 7936 C 728.172 -0.833556 -2.15222 0
M  V30 7937 C 729.142 0.209539 -1.64773 0
M  V30 7938 O 730.327 0.0791388 -1.90636 0
M  V30 7939 C 727.467 -0.318799 -3.43624 0
M  V30 7940 C 726.58 -1.42237 -4.07913 0
M  V30 7941 C 725.715 -0.864704 -5.24115 0
M  V30 7942 C 724.754 -1.94585 -5.80347 0
M  V30 7943 N 723.891 -1.40525 -6.87893 0
M  V30 7944 H 728.731 -1.74965 -2.41228 0
M  V30 7945 H 726.268 -0.873169 -1.18381 0
M  V30 7946 H 728.226 -0.00213088 -4.172 0
M  V30 7947 H 726.856 0.560397 -3.17898 0
M  V30 7948 H 725.908 -1.8554 -3.32083 0
M  V30 7949 H 727.22 -2.23901 -4.45724 0
M  V30 7950 H 726.374 -0.500025 -6.04636 0
M  V30 7951 H 725.113 -0.0171219 -4.87697 0
M  V30 7952 H 724.118 -2.31946 -4.98479 0
M  V30 7953 H 725.343 -2.79704 -6.18823 0
M  V30 7954 H 723.289 -0.579873 -6.53432 0
M  V30 7955 H 723.206 -2.15825 -7.24538 0
M  V30 7956 H 724.474 -1.06852 -7.72142 0
M  V30 7957 N 728.703 1.26451 -0.940633 0
M  V30 7958 C 729.635 2.25556 -0.407104 0
M  V30 7959 C 730.648 1.55888 0.469324 0
M  V30 7960 O 731.837 1.76292 0.279858 0
M  V30 7961 C 728.937 3.36109 0.434064 0
M  V30 7962 C 728.11 4.3532 -0.426082 0
M  V30 7963 C 727.169 5.25004 0.354563 0
M  V30 7964 O 726.195 5.68684 -0.242219 0
M  V30 7965 N 727.397 5.5652 1.65123 0
M  V30 7966 H 730.162 2.7197 -1.25907 0
M  V30 7967 H 727.723 1.40212 -0.809456 0
M  V30 7968 H 729.715 3.93059 0.963684 0
M  V30 7969 H 728.285 2.89194 1.18683 0
M  V30 7970 H 727.505 3.77449 -1.13692 0
M  V30 7971 H 728.793 4.986 -1.01366 0
M  V30 7972 H 728.191 5.22912 2.15822 0
M  V30 7973 H 726.748 6.16115 2.12711 0
M  V30 7974 N 730.181 0.707592 1.40822 0
M  V30 7975 C 731.113 0.0105968 2.29198 0
M  V30 7976 C 732.126 -0.732035 1.45414 0
M  V30 7977 O 733.315 -0.580741 1.68789 0
M  V30 7978 C 730.415 -1.00921 3.23525 0
M  V30 7979 C 729.588 -0.333747 4.36125 0
M  V30 7980 C 728.647 -1.25783 5.10945 0
M  V30 7981 O 727.673 -0.745646 5.64295 0
M  V30 7982 N 728.875 -2.58947 5.19545 0
M  V30 7983 H 731.64 0.76938 2.89656 0
M  V30 7984 H 729.201 0.554579 1.52105 0
M  V30 7985 H 731.193 -1.6294 3.70449 0
M  V30 7986 H 729.763 -1.66942 2.6429 0
M  V30 7987 H 728.983 0.466518 3.9143 0
M  V30 7988 H 730.271 0.135444 5.0862 0
M  V30 7989 H 729.669 -3.03065 4.7767 0
M  V30 7990 H 728.226 -3.16131 5.70004 0
M  V30 7991 N 731.66 -1.50943 0.453197 0
M  V30 7992 C 732.57 -2.31884 -0.355963 0
M  V30 7993 C 733.586 -1.41481 -1.01287 0
M  V30 7994 O 734.762 -1.74546 -1.00477 0
M  V30 7995 C 731.827 -3.15668 -1.43369 0
M  V30 7996 C 730.888 -4.2187 -0.795253 0
M  V30 7997 C 730.121 -5.0165 -1.82162 0
M  V30 7998 O 730.344 -4.82266 -3.04592 0
M  V30 7999 O 729.278 -5.85311 -1.40336 0
M  V30 8000 H 733.104 -3.02162 0.305248 0
M  V30 8001 H 730.689 -1.47839 0.215398 0
M  V30 8002 H 732.571 -3.67709 -2.05836 0
M  V30 8003 H 731.246 -2.48137 -2.07869 0
M  V30 8004 H 730.153 -3.73867 -0.132106 0
M  V30 8005 H 731.486 -4.9182 -0.193484 0
M  V30 8006 N 733.138 -0.185124 -1.56509 0
M  V30 8007 C 734.088 0.752315 -2.15231 0
M  V30 8008 C 735.072 1.18327 -1.0903 0
M  V30 8009 O 736.264 1.14333 -1.35119 0
M  V30 8010 C 733.393 1.97583 -2.80742 0
M  V30 8011 C 732.479 1.56623 -3.94119 0
M  V30 8012 N 732.87 0.867008 -4.98314 0
M  V30 8013 C 731.168 1.85626 -4.05535 0
M  V30 8014 C 731.869 0.663228 -5.77907 0
M  V30 8015 N 730.845 1.20891 -5.29987 0
M  V30 8016 H 734.647 0.209267 -2.93154 0
M  V30 8017 H 732.161 0.0150444 -1.62393 0
M  V30 8018 H 734.158 2.65779 -3.21197 0
M  V30 8019 H 732.818 2.52369 -2.04303 0
M  V30 8020 H 733.829 0.52355 -5.15247 0
M  V30 8021 H 730.506 2.41992 -3.40215 0
M  V30 8022 H 731.896 0.109273 -6.71811 0
M  V30 8023 N 734.616 1.57351 0.0885366 0
M  V30 8024 C 735.862 1.86696 0.791996 0
M  V30 8025 C 736.195 0.775148 1.78059 0
M  V30 8026 O 735.47 -0.216247 1.93294 0
M  V30 8027 C 735.753 3.26684 1.51491 0
M  V30 8028 C 735.606 4.465 0.543858 0
M  V30 8029 C 736.925 3.64664 2.46391 0
M  V30 8030 H 734.044 0.679049 0.286463 0
M  V30 8031 H 736.686 1.89919 0.0554866 0
M  V30 8032 H 734.836 3.24067 2.14273 0
M  V30 8033 H 736.508 4.61235 -0.0774597 0
M  V30 8034 H 734.751 4.33567 -0.142228 0
M  V30 8035 H 735.422 5.41192 1.08696 0
M  V30 8036 H 737.898 3.68267 1.93698 0
M  V30 8037 H 736.774 4.63534 2.93986 0
M  V30 8038 H 737.035 2.93698 3.30445 0
M  V30 8039 N 736.094 -0.359525 1.53444 0
M  V30 8040 C 737.324 -1.12036 1.73585 0
M  V30 8041 C 737.732 -1.83335 0.467438 0
M  V30 8042 O 737.075 -1.74641 -0.569753 0
M  V30 8043 C 737.137 -2.19036 2.85068 0
M  V30 8044 C 736.801 -1.67451 4.25217 0
M  V30 8045 C 737.798 -1.13534 5.07352 0
M  V30 8046 C 735.483 -1.72781 4.71648 0
M  V30 8047 C 737.477 -0.656321 6.34012 0
M  V30 8048 C 735.164 -1.2449 5.98285 0
M  V30 8049 C 736.162 -0.710068 6.79299 0
M  V30 8050 O 735.85 -0.234314 8.03558 0
M  V30 8051 H 735.582 -0.340662 0.583888 0
M  V30 8052 H 738.136 -0.422452 2.01009 0
M  V30 8053 H 736.366 -2.92338 2.53131 0
M  V30 8054 H 738.055 -2.80559 2.93328 0
M  V30 8055 H 738.821 -1.08751 4.7265 0
M  V30 8056 H 734.7 -2.13351 4.08659 0
M  V30 8057 H 738.244 -0.238193 6.97193 0
M  V30 8058 H 734.141 -1.28969 6.32485 0
M  V30 8059 H 734.909 -0.353084 8.17738 0
M  V30 8060 N 737.572 -1.44907 -0.619662 0
M  V30 8061 C 738.797 -1.52021 -1.41083 0
M  V30 8062 C 739.222 -0.14976 -1.87503 0
M  V30 8063 O 738.58 0.863303 -1.59426 0
M  V30 8064 C 738.628 -2.49911 -2.59955 0
M  V30 8065 O 737.732 -2.00857 -3.60181 0
M  V30 8066 H 737.073 -0.512912 -0.421684 0
M  V30 8067 H 739.603 -1.90149 -0.755282 0
M  V30 8068 H 739.613 -2.68323 -3.07354 0
M  V30 8069 H 738.288 -3.4945 -2.25516 0
M  V30 8070 H 736.865 -1.92265 -3.19513 0
M  V30 8071 N 739.05 0.861098 -1.31996 0
M  V30 8072 C 739.96 2.00154 -1.22374 0
M  V30 8073 C 740.976 1.73447 -0.138631 0
M  V30 8074 O 742.152 1.98191 -0.358104 0
M  V30 8075 C 739.217 3.33696 -0.940645 0
M  V30 8076 C 738.278 3.73668 -2.11355 0
M  V30 8077 C 737.511 5.00837 -1.84386 0
M  V30 8078 O 737.734 5.64996 -0.783287 0
M  V30 8079 O 736.668 5.37787 -2.70313 0
M  V30 8080 H 740.494 2.11207 -2.18233 0
M  V30 8081 H 738.079 0.990768 -1.11822 0
M  V30 8082 H 739.961 4.13756 -0.798987 0
M  V30 8083 H 738.636 3.23698 -0.0121636 0
M  V30 8084 H 737.543 2.94211 -2.31065 0
M  V30 8085 H 738.876 3.88303 -3.02459 0
M  V30 8086 N 740.528 1.15101 1.07655 0
M  V30 8087 C 741.475 0.844958 2.14777 0
M  V30 8088 C 742.445 -0.200798 1.64882 0
M  V30 8089 O 743.63 -0.0690278 1.90675 0
M  V30 8090 C 740.77 0.337018 3.4345 0
M  V30 8091 C 739.883 1.44398 4.07153 0
M  V30 8092 C 739.018 0.892487 5.23649 0
M  V30 8093 C 738.057 1.9766 5.79307 0
M  V30 8094 N 737.194 1.44171 6.87138 0
M  V30 8095 H 742.034 1.76242 2.40297 0
M  V30 8096 H 739.571 0.879435 1.17917 0
M  V30 8097 H 741.529 0.024256 4.17193 0
M  V30 8098 H 740.159 -0.543531 3.18191 0
M  V30 8099 H 739.211 1.87299 3.31094 0
M  V30 8100 H 740.523 2.26262 4.4453 0
M  V30 8101 H 739.677 0.532083 6.04362 0
M  V30 8102 H 738.416 0.0429854 4.87681 0
M  V30 8103 H 737.421 2.34586 4.97242 0
M  V30 8104 H 738.646 2.82982 6.17331 0
M  V30 8105 H 736.592 0.614518 6.53115 0
M  V30 8106 H 736.509 2.19665 7.23383 0
M  V30 8107 H 737.777 1.10945 7.71564 0
M  V30 8108 N 742.006 -1.2595 0.947325 0
M  V30 8109 C 743.422 -1.45737 0.650597 0
M  V30 8110 C 743.622 -1.85189 -0.794188 0
M  V30 8111 O 742.678 -1.97738 -1.57022 0
M  V30 8112 C 743.991 -2.53505 1.61728 0
M  V30 8113 C 745.539 -2.67351 1.62765 0
M  V30 8114 C 746.014 -3.78296 2.58179 0
M  V30 8115 N 747.505 -3.85696 2.56501 0
M  V30 8116 C 748.24 -4.71012 3.2701 0
M  V30 8117 N 747.736 -5.60669 4.06966 0
M  V30 8118 N 749.529 -4.64912 3.15932 0
M  V30 8119 H 741.68 -0.986327 1.8811 0
M  V30 8120 H 743.943 -0.494639 0.808725 0
M  V30 8121 H 743.649 -2.31357 2.6489 0
M  V30 8122 H 743.523 -3.51281 1.3741 0
M  V30 8123 H 745.91 -2.88869 0.603241 0
M  V30 8124 H 745.991 -1.69998 1.91139 0
M  V30 8125 H 745.635 -3.5753 3.60742 0
M  V30 8126 H 745.565 -4.75117 2.27093 0
M  V30 8127 H 748.056 -3.21601 1.98447 0
M  V30 8128 H 748.369 -6.22677 4.57704 0
M  V30 8129 H 746.714 -5.60402 4.11066 0
M  V30 8130 H 749.905 -3.93874 2.52945 0
M  V30 8131 H 750.078 -5.3118 3.71149 0
M  V30 8132 N 743.484 -0.715051 -1.40445 0
M  V30 8133 C 744.733 -0.251322 -2.00128 0
M  V30 8134 C 745.046 1.16194 -1.57347 0
M  V30 8135 O 746.252 1.72416 -2.09726 0
M  V30 8136 C 744.708 -0.398407 -3.57688 0
M  V30 8137 C 744.316 -1.81828 -4.09442 0
M  V30 8138 C 746.06 0.00455625 -4.245 0
M  V30 8139 C 743.967 -1.91598 -5.59503 0
M  V30 8140 H 742.897 -0.0902081 -0.748584 0
M  V30 8141 H 745.548 -0.886062 -1.6069 0
M  V30 8142 H 743.93 0.304908 -3.94824 0
M  V30 8143 H 745.104 -2.55193 -3.83684 0
M  V30 8144 H 743.419 -2.17266 -3.55225 0
M  V30 8145 H 746.016 -0.0477303 -5.34679 0
M  V30 8146 H 746.359 1.04636 -4.02935 0
M  V30 8147 H 746.892 -0.649184 -3.92467 0
M  V30 8148 H 743.631 -2.93898 -5.85922 0
M  V30 8149 H 743.151 -1.22644 -5.87127 0
M  V30 8150 H 744.83 -1.68785 -6.24596 0
M  V30 8151 N 744.962 1.50701 -0.461195 0
M  V30 8152 C 745.892 2.31182 0.328184 0
M  V30 8153 C 746.873 1.37644 0.999408 0
M  V30 8154 O 748.058 1.66565 0.99848 0
M  V30 8155 C 745.188 3.17113 1.41621 0
M  V30 8156 C 744.142 4.19124 0.867148 0
M  V30 8157 C 743.468 4.93728 2.05272 0
M  V30 8158 C 744.768 5.22174 -0.114808 0
M  V30 8159 H 746.462 2.97423 -0.343501 0
M  V30 8160 H 744.008 1.43033 -0.166641 0
M  V30 8161 H 745.961 3.72208 1.97584 0
M  V30 8162 H 744.685 2.48739 2.11652 0
M  V30 8163 H 743.344 3.65116 0.329557 0
M  V30 8164 H 742.992 4.21835 2.73978 0
M  V30 8165 H 742.692 5.62724 1.69161 0
M  V30 8166 H 744.216 5.51654 2.61744 0
M  V30 8167 H 745.63 5.72198 0.355316 0
M  V30 8168 H 744.027 5.98833 -0.389689 0
M  V30 8169 H 745.097 4.7353 -1.04391 0
M  V30 8170 N 746.441 0.193421 1.56409 0
M  V30 8171 C 747.351 -0.740112 2.2262 0
M  V30 8172 C 748.367 -1.23597 1.22474 0
M  V30 8173 O 749.543 -1.28348 1.55206 0
M  V30 8174 C 746.608 -1.94317 2.87127 0
M  V30 8175 C 745.669 -1.49205 4.02538 0
M  V30 8176 C 744.902 -2.63776 4.63959 0
M  V30 8177 O 745.125 -3.81215 4.24301 0
M  V30 8178 O 744.059 -2.36585 5.53454 0
M  V30 8179 H 747.885 -0.206238 3.02999 0
M  V30 8180 H 745.47 -0.0357938 1.49357 0
M  V30 8181 H 747.352 -2.64633 3.27944 0
M  V30 8182 H 746.027 -2.46568 2.09728 0
M  V30 8183 H 744.934 -0.757738 3.66346 0
M  V30 8184 H 746.267 -1.01622 4.81595 0
M  V30 8185 N 747.919 -1.57396 -0.0801906 0
M  V30 8186 C 748.829 -2.06451 -1.11423 0
M  V30 8187 C 749.845 -0.992352 -1.42928 0
M  V30 8188 O 751.021 -1.30651 -1.53272 0
M  V30 8189 C 748.086 -2.49164 -2.41077 0
M  V30 8190 C 747.147 -3.70641 -2.16619 0
M  V30 8191 C 746.38 -4.11307 -3.40092 0
M  V30 8192 O 746.603 -3.51922 -4.48895 0
M  V30 8193 O 745.537 -5.04157 -3.288 0
M  V30 8194 H 749.363 -2.94857 -0.727519 0
M  V30 8195 H 746.948 -1.46484 -0.293743 0
M  V30 8196 H 748.83 -2.77196 -3.17396 0
M  V30 8197 H 747.505 -1.6389 -2.79145 0
M  V30 8198 H 746.412 -3.47703 -1.38033 0
M  V30 8199 H 747.745 -4.5674 -1.83437 0
M  V30 8200 N 749.397 0.351382 -1.53633 0
M  V30 8201 C 750.327 1.43688 -1.84055 0
M  V30 8202 C 751.308 1.55251 -0.695073 0
M  V30 8203 O 752.493 1.69587 -0.946257 0
M  V30 8204 C 749.623 2.80843 -2.04315 0
M  V30 8205 C 748.577 2.84094 -3.20117 0
M  V30 8206 C 747.903 4.2406 -3.25696 0
M  V30 8207 C 749.203 2.50334 -4.58399 0
M  V30 8208 H 750.897 1.18478 -2.74961 0
M  V30 8209 H 748.443 0.568509 -1.32303 0
M  V30 8210 H 750.396 3.56821 -2.2418 0
M  V30 8211 H 749.12 3.07471 -1.10132 0
M  V30 8212 H 747.779 2.10568 -3.00094 0
M  V30 8213 H 747.427 4.47785 -2.29123 0
M  V30 8214 H 747.127 4.27147 -4.03509 0
M  V30 8215 H 748.651 5.0189 -3.47762 0
M  V30 8216 H 750.065 3.16025 -4.78332 0
M  V30 8217 H 748.462 2.64717 -5.38558 0
M  V30 8218 H 749.532 1.45542 -4.62543 0
M  V30 8219 N 750.875 1.45233 0.611969 0
M  V30 8220 C 752.115 1.50558 1.38245 0
M  V30 8221 C 752.479 0.141959 1.91474 0
M  V30 8222 O 753.68 0.0698926 2.68709 0
M  V30 8223 C 751.951 2.55136 2.50281 0
M  V30 8224 S 753.51 2.79652 3.38142 0
M  V30 8225 H 750.328 0.532281 0.471378 0
M  V30 8226 H 752.93 1.82285 0.706578 0
M  V30 8227 H 751.634 3.52888 2.09518 0
M  V30 8228 H 751.165 2.25045 3.22674 0
M  V30 8229 H 753.18 2.12699 4.48301 0
M  V30 8230 N 752.353 -0.854086 1.3245 0
M  V30 8231 C 753.578 -1.64597 1.26185 0
M  V30 8232 C 754.003 -1.87357 -0.167074 0
M  V30 8233 O 753.361 -1.42675 -1.11864 0
M  V30 8234 C 753.409 -2.98213 2.02734 0
M  V30 8235 O 752.513 -3.88784 1.37554 0
M  V30 8236 H 751.854 -0.50179 0.434859 0
M  V30 8237 H 754.384 -1.06372 1.74775 0
M  V30 8238 H 754.394 -3.4803 2.1293 0
M  V30 8239 H 753.069 -2.80969 3.06642 0
M  V30 8240 H 751.646 -3.4725 1.3591 0
M  V30 8241 N 753.831 -1.1567 -1.07043 0
M  V30 8242 C 755.242 -0.942408 -1.61169 0
M  V30 8243 C 755.593 0.515537 -1.89306 0
M  V30 8244 O 754.718 1.38726 -1.66084 0
M  V30 8245 C 755.313 -1.70431 -2.92812 0
M  V30 8246 C 753.872 -1.53521 -3.43669 0
M  V30 8247 C 753.019 -1.7179 -2.17678 0
M  V30 8248 H 755.97 -1.3065 -0.9009 0
M  V30 8249 H 755.991 -1.17566 -3.61882 0
M  V30 8250 H 755.503 -2.76538 -2.72302 0
M  V30 8251 H 753.604 -0.498224 -3.69254 0
M  V30 8252 H 753.717 -2.31422 -4.19501 0
M  V30 8253 H 752.081 -1.14468 -2.27529 0
M  V30 8254 H 752.864 -2.79269 -1.99659 0
M  V30 8255 N 755.309 1.25446 -0.953992 0
M  V30 8256 C 756.556 1.93143 -0.608429 0
M  V30 8257 C 756.884 1.74727 0.854451 0
M  V30 8258 O 756.139 1.0855 1.62836 0
M  V30 8259 C 756.438 3.45555 -0.912496 0
M  V30 8260 C 756.104 3.84126 -2.36131 0
M  V30 8261 C 754.766 3.94367 -2.75732 0
M  V30 8262 C 757.118 4.0324 -3.30223 0
M  V30 8263 C 754.446 4.21127 -4.08496 0
M  V30 8264 C 756.798 4.31493 -4.62598 0
M  V30 8265 C 755.462 4.3995 -5.01996 0
M  V30 8266 H 754.732 0.706762 -0.22264 0
M  V30 8267 H 757.379 1.49005 -1.20291 0
M  V30 8268 H 755.684 3.91091 -0.235618 0
M  V30 8269 H 757.381 3.9612 -0.623714 0
M  V30 8270 H 753.971 3.76711 -2.04418 0
M  V30 8271 H 758.155 3.94744 -3.00817 0
M  V30 8272 H 753.411 4.2589 -4.38665 0
M  V30 8273 H 757.585 4.45227 -5.35486 0
M  V30 8274 H 755.212 4.60439 -6.04896 0
M  V30 8275 N 756.787 0.722489 1.40064 0
M  V30 8276 C 758.036 0.261932 1.99992 0
M  V30 8277 C 758.349 -1.15358 1.57961 0
M  V30 8278 O 759.555 -1.71301 2.10637 0
M  V30 8279 C 758.011 0.41737 3.57472 0
M  V30 8280 C 757.619 1.83997 4.08472 0
M  V30 8281 C 759.363 0.0179561 4.24496 0
M  V30 8282 C 757.27 1.94563 5.5848 0
M  V30 8283 H 756.2 0.0941768 0.748095 0
M  V30 8284 H 758.851 0.894572 1.60218 0
M  V30 8285 H 757.233 -0.283965 3.94981 0
M  V30 8286 H 758.407 2.57224 3.82325 0
M  V30 8287 H 756.722 2.19147 3.54067 0
M  V30 8288 H 759.319 0.076085 5.34646 0
M  V30 8289 H 759.662 -1.02498 4.03485 0
M  V30 8290 H 760.195 0.669988 3.92117 0
M  V30 8291 H 756.934 2.97001 5.84355 0
M  V30 8292 H 756.454 1.25756 5.86469 0
M  V30 8293 H 758.133 1.72095 6.23692 0
M  V30 8294 N 758.265 -1.50454 0.469181 0
M  V30 8295 C 759.511 -2.02615 -0.0865971 0
M  V30 8296 C 759.844 -1.35062 -1.39542 0
M  V30 8297 O 759.119 -0.475701 -1.88593 0
M  V30 8298 C 759.402 -3.59068 -0.272385 0
M  V30 8299 C 759.255 -4.37196 1.05733 0
M  V30 8300 C 760.574 -4.2793 -1.0278 0
M  V30 8301 H 757.693 -0.736389 -0.0299977 0
M  V30 8302 H 760.335 -1.79792 0.614399 0
M  V30 8303 H 758.485 -3.78646 -0.869471 0
M  V30 8304 H 760.157 -4.29195 1.69084 0
M  V30 8305 H 758.4 -4.01013 1.65442 0
M  V30 8306 H 759.071 -5.44924 0.880997 0
M  V30 8307 H 761.547 -4.12816 -0.521718 0
M  V30 8308 H 760.423 -5.37214 -1.12659 0
M  V30 8309 H 760.684 -3.90968 -2.0639 0
M  V30 8310 N 759.743 -0.201713 -1.56304 0
M  V30 8311 C 760.69 0.716499 -2.19397 0
M  V30 8312 C 761.66 1.20494 -1.14326 0
M  V30 8313 O 762.845 1.26763 -1.42604 0
M  V30 8314 C 759.985 1.92762 -2.86246 0
M  V30 8315 C 759.098 1.47993 -4.0586 0
M  V30 8316 C 758.233 2.64706 -4.60547 0
M  V30 8317 C 757.272 2.16576 -5.72504 0
M  V30 8318 N 756.409 3.26491 -6.21569 0
M  V30 8319 H 761.249 0.171724 -2.97505 0
M  V30 8320 H 758.786 0.073016 -1.46919 0
M  V30 8321 H 760.744 2.6384 -3.23178 0
M  V30 8322 H 759.374 2.44559 -2.10691 0
M  V30 8323 H 758.426 0.66477 -3.74546 0
M  V30 8324 H 759.738 1.08686 -4.86815 0
M  V30 8325 H 758.892 3.43898 -4.99819 0
M  V30 8326 H 757.631 3.0729 -3.78713 0
M  V30 8327 H 756.636 1.3584 -5.32755 0
M  V30 8328 H 757.861 1.75015 -6.56161 0
M  V30 8329 H 755.807 3.68594 -5.42655 0
M  V30 8330 H 755.724 2.91374 -6.97594 0
M  V30 8331 H 756.992 4.05877 -6.65495 0
M  V30 8332 N 761.222 1.57436 0.0718424 0
M  V30 8333 C 762.152 2.06724 1.08571 0
M  V30 8334 C 763.133 0.960731 1.40371 0
M  V30 8335 O 764.318 1.23345 1.49999 0
M  V30 8336 C 761.448 2.51112 2.39916 0
M  V30 8337 C 760.402 3.65639 2.22469 0
M  V30 8338 C 759.728 3.96082 3.59198 0
M  V30 8339 C 761.028 4.95687 1.64596 0
M  V30 8340 H 762.722 2.91679 0.675569 0
M  V30 8341 H 760.268 1.40319 0.32352 0
M  V30 8342 H 762.221 2.84206 3.11135 0
M  V30 8343 H 760.945 1.63186 2.8291 0
M  V30 8344 H 759.604 3.32828 1.53691 0
M  V30 8345 H 759.252 3.05287 3.99761 0
M  V30 8346 H 758.952 4.73199 3.48362 0
M  V30 8347 H 760.476 4.31672 4.31847 0
M  V30 8348 H 761.89 5.27011 2.25681 0
M  V30 8349 H 760.287 5.77126 1.64457 0
M  V30 8350 H 761.357 4.8108 0.60744 0
M  V30 8351 N 762.7 -0.34323 1.53817 0
M  V30 8352 C 763.93 -1.10188 1.74763 0
M  V30 8353 C 764.338 -1.82829 0.486856 0
M  V30 8354 O 763.681 -1.75236 -0.551198 0
M  V30 8355 C 763.743 -2.16 2.87375 0
M  V30 8356 C 763.407 -1.62931 4.26969 0
M  V30 8357 C 764.404 -1.08147 5.08528 0
M  V30 8358 C 762.089 -1.67769 4.73454 0
M  V30 8359 C 764.083 -0.589039 6.34672 0
M  V30 8360 C 761.77 -1.18138 5.99572 0
M  V30 8361 C 762.768 -0.637979 6.80014 0
M  V30 8362 O 762.456 -0.149073 8.03762 0
M  V30 8363 H 762.188 -0.33445 0.587469 0
M  V30 8364 H 764.742 -0.401109 2.01445 0
M  V30 8365 H 762.972 -2.89637 2.56218 0
M  V30 8366 H 764.661 -2.77432 2.96287 0
M  V30 8367 H 765.427 -1.03732 4.73777 0
M  V30 8368 H 761.306 -2.09004 4.10899 0
M  V30 8369 H 764.85 -0.164233 6.97407 0
M  V30 8370 H 760.747 -1.22254 6.33817 0
M  V30 8371 H 761.515 -0.266332 8.18067 0
M  V30 8372 N 764.178 -1.45556 -0.604258 0
M  V30 8373 C 765.594 -1.30035 -0.925368 0
M  V30 8374 C 765.794 -0.255833 -1.99869 0
M  V30 8375 O 764.85 0.349076 -2.50075 0
M  V30 8376 C 766.163 -2.68028 -1.36314 0
M  V30 8377 C 767.711 -2.75951 -1.47717 0
M  V30 8378 C 768.186 -4.14476 -1.94868 0
M  V30 8379 N 769.677 -4.16787 -2.02097 0
M  V30 8380 C 770.412 -5.20845 -2.39809 0
M  V30 8381 N 769.908 -6.35246 -2.76467 0
M  V30 8382 N 771.701 -5.08204 -2.40177 0
M  V30 8383 H 763.852 -2.1214 0.10512 0
M  V30 8384 H 766.115 -0.947871 -0.0156303 0
M  V30 8385 H 765.821 -3.45667 -0.648628 0
M  V30 8386 H 765.695 -2.96711 -2.329 0
M  V30 8387 H 768.082 -1.98613 -2.18258 0
M  V30 8388 H 768.163 -2.50977 -0.494371 0
M  V30 8389 H 767.807 -4.923 -1.24912 0
M  V30 8390 H 767.737 -4.36843 -2.94068 0
M  V30 8391 H 770.228 -3.34233 -1.76343 0
M  V30 8392 H 770.541 -7.10438 -3.04134 0
M  V30 8393 H 768.886 -6.38642 -2.74155 0
M  V30 8394 H 772.077 -4.17874 -2.10947 0
M  V30 8395 H 772.25 -5.89417 -2.69242 0
M  V30 8396 N 765.656 0.84705 -1.32902 0
M  V30 8397 C 766.884 1.63403 -1.26913 0
M  V30 8398 C 767.299 1.88108 0.161483 0
M  V30 8399 O 766.656 1.45546 1.10103 0
M  V30 8400 C 766.707 2.98896 -2.03331 0
M  V30 8401 O 766.428 2.75281 -3.40811 0
M  V30 8402 C 767.929 3.93335 -2.04457 0
M  V30 8403 H 765.149 0.508701 -0.437566 0
M  V30 8404 H 767.693 1.05567 -1.75145 0
M  V30 8405 H 765.848 3.53356 -1.58802 0
M  V30 8406 H 766.262 3.61504 -3.8002 0
M  V30 8407 H 767.736 4.85647 -2.62394 0
M  V30 8408 H 768.213 4.26885 -1.03274 0
M  V30 8409 H 768.819 3.44812 -2.48967 0
M  V30 8410 N 767.134 1.16236 1.06428 0
M  V30 8411 C 768.381 0.943034 1.79201 0
M  V30 8412 C 768.709 -0.529243 1.87161 0
M  V30 8413 O 767.964 -1.40874 1.35842 0
M  V30 8414 C 768.263 1.51396 3.2375 0
M  V30 8415 C 767.929 3.00833 3.35873 0
M  V30 8416 C 766.591 3.41626 3.38888 0
M  V30 8417 C 768.943 3.96825 3.37904 0
M  V30 8418 C 766.271 4.77033 3.4155 0
M  V30 8419 C 768.623 5.32116 3.42104 0
M  V30 8420 C 767.287 5.72392 3.43401 0
M  V30 8421 H 766.557 0.34508 0.655744 0
M  V30 8422 H 769.204 1.44929 1.25171 0
M  V30 8423 H 767.509 0.929114 3.80624 0
M  V30 8424 H 769.206 1.31996 3.78653 0
M  V30 8425 H 765.796 2.68306 3.3423 0
M  V30 8426 H 769.98 3.66376 3.34787 0
M  V30 8427 H 765.236 5.07569 3.40858 0
M  V30 8428 H 769.41 6.06286 3.42623 0
M  V30 8429 H 767.037 6.77296 3.45216 0
M  V30 8430 N 768.612 -1.24939 0.960631 0
M  V30 8431 C 769.559 -2.25658 0.484459 0
M  V30 8432 C 770.529 -1.59422 -0.466242 0
M  V30 8433 O 771.714 -1.87015 -0.378169 0
M  V30 8434 C 768.854 -3.44359 -0.225958 0
M  V30 8435 C 767.967 -4.25214 0.762682 0
M  V30 8436 C 767.102 -5.31192 0.0290931 0
M  V30 8437 C 766.141 -6.03739 1.00827 0
M  V30 8438 N 765.278 -7.01437 0.305155 0
M  V30 8439 H 770.118 -2.65758 1.34821 0
M  V30 8440 H 767.655 -1.30648 0.675983 0
M  V30 8441 H 769.613 -4.12035 -0.654472 0
M  V30 8442 H 768.243 -3.05118 -1.05371 0
M  V30 8443 H 767.295 -3.57144 1.30966 0
M  V30 8444 H 768.607 -4.75406 1.50964 0
M  V30 8445 H 767.761 -6.04971 -0.457763 0
M  V30 8446 H 766.5 -4.81889 -0.750614 0
M  V30 8447 H 765.505 -5.2877 1.50607 0
M  V30 8448 H 766.73 -6.55131 1.7883 0
M  V30 8449 H 764.676 -6.54415 -0.455704 0
M  V30 8450 H 764.593 -7.49475 0.991104 0
M  V30 8451 H 765.861 -7.79336 -0.159966 0
M  V30 8452 N 770.09 -0.729906 -1.39679 0
M  V30 8453 C 771.367 -0.202149 -1.94553 0
M  V30 8454 C 771.747 1.29507 -1.66707 0
M  V30 8455 O 771.095 2.05819 -0.992517 0
M  V30 8456 C 771.305 -0.530279 -3.44948 0
M  V30 8457 C 772.653 -0.476808 -4.21914 0
M  V30 8458 O 773.677 -0.467171 -3.53123 0
M  V30 8459 O 772.536 -0.466869 -5.44502 0
M  V30 8460 H 769.63 -0.0351644 -0.826252 0
M  V30 8461 H 772.176 -0.808417 -1.49207 0
M  V30 8462 H 770.948 -1.56526 -3.5863 0
M  V30 8463 H 770.571 0.10522 -3.97461 0
M  V30 8464 N 771.568 1.50203 -0.477153 0
M  V30 8465 C 772.516 2.30278 0.327826 0
M  V30 8466 C 773.51 1.37831 0.984839 0
M  V30 8467 O 774.716 1.54994 0.915251 0
M  V30 8468 H 771.091 0.741612 0.124564 0
M  V30 8469 H 773.062 2.96124 -0.367853 0
M  V30 8470 C 771.811 3.18548 1.39365 0
M  V30 8471 H 771.134 3.89596 0.897475 0
M  V30 8472 H 772.574 3.77561 1.92934 0
M  V30 8473 C 771.033 2.36548 2.39889 0
M  V30 8474 O 771.563 2.05282 3.45286 0
M  V30 8475 N 769.769 1.99015 2.11758 0
M  V30 8476 H 769.316 2.24641 1.26071 0
M  V30 8477 H 769.274 1.44454 2.7925 0
M  V30 8478 N 773.046 0.209999 1.56195 0
M  V30 8479 C 773.993 -0.704854 2.19774 0
M  V30 8480 C 774.963 -1.19886 1.14964 0
M  V30 8481 O 776.148 -1.26005 1.43274 0
M  V30 8482 C 773.288 -1.91241 2.87265 0
M  V30 8483 C 772.401 -1.45838 4.06639 0
M  V30 8484 C 771.536 -2.6226 4.61945 0
M  V30 8485 C 770.575 -2.13537 5.73645 0
M  V30 8486 N 769.712 -3.2319 6.23292 0
M  V30 8487 H 774.552 -0.155944 2.97592 0
M  V30 8488 H 772.089 -0.0652235 1.46955 0
M  V30 8489 H 774.047 -2.62123 3.24573 0
M  V30 8490 H 772.677 -2.43439 2.11985 0
M  V30 8491 H 771.729 -0.644897 3.74894 0
M  V30 8492 H 773.041 -1.06103 4.87384 0
M  V30 8493 H 772.195 -3.41243 5.01636 0
M  V30 8494 H 770.934 -3.05278 3.80338 0
M  V30 8495 H 769.939 -1.33013 5.33468 0
M  V30 8496 H 771.164 -1.71533 6.57079 0
M  V30 8497 H 769.11 -3.65711 5.44602 0
M  V30 8498 H 769.027 -2.8767 6.99129 0
M  V30 8499 H 770.295 -4.02342 6.67639 0
M  V30 8500 N 774.524 -1.57472 -0.0634922 0
M  V30 8501 C 775.754 -1.91608 -0.772645 0
M  V30 8502 C 776.162 -0.805019 -1.71219 0
M  V30 8503 O 775.505 0.229941 -1.82255 0
M  V30 8504 C 775.567 -3.21281 -1.61304 0
M  V30 8505 C 775.231 -4.49177 -0.841973 0
M  V30 8506 C 776.228 -5.19661 -0.157494 0
M  V30 8507 C 773.913 -4.9578 -0.80669 0
M  V30 8508 C 775.907 -6.35006 0.551948 0
M  V30 8509 C 773.594 -6.11028 -0.0934812 0
M  V30 8510 C 774.592 -6.80493 0.58463 0
M  V30 8511 O 774.28 -7.93542 1.28633 0
M  V30 8512 H 774.012 -0.637685 -0.224352 0
M  V30 8513 H 776.566 -2.05369 -0.0355279 0
M  V30 8514 H 774.796 -3.03752 -2.39315 0
M  V30 8515 H 776.485 -3.41003 -2.20162 0
M  V30 8516 H 777.251 -4.84681 -0.176006 0
M  V30 8517 H 773.13 -4.41579 -1.32397 0
M  V30 8518 H 776.674 -6.89161 1.0818 0
M  V30 8519 H 772.571 -6.45459 -0.0729258 0
M  V30 8520 H 773.339 -8.09708 1.19646 0
M  V30 8521 N 776.003 0.335068 -1.53997 0
M  V30 8522 C 777.249 1.07594 -1.71905 0
M  V30 8523 C 777.582 1.88039 -0.485264 0
M  V30 8524 O 776.857 1.87482 0.517752 0
M  V30 8525 C 777.14 2.01016 -2.98772 0
M  V30 8526 C 776.993 1.23977 -4.32377 0
M  V30 8527 C 778.312 3.0071 -3.21343 0
M  V30 8528 H 775.431 0.38976 -0.625505 0
M  V30 8529 H 778.073 0.353684 -1.86679 0
M  V30 8530 H 776.223 2.62603 -2.86307 0
M  V30 8531 H 777.895 0.649383 -4.56706 0
M  V30 8532 H 776.138 0.541878 -4.30402 0
M  V30 8533 H 776.809 1.92512 -5.17342 0
M  V30 8534 H 779.285 2.4924 -3.33194 0
M  V30 8535 H 778.161 3.63272 -4.11491 0
M  V30 8536 H 778.422 3.72549 -2.38033 0
M  V30 8537 N 777.481 1.45874 0.596531 0
M  V30 8538 C 778.711 1.5379 1.37958 0
M  V30 8539 C 779.119 0.173086 1.88407 0
M  V30 8540 O 778.462 -0.837498 1.63498 0
M  V30 8541 C 778.524 2.47044 2.61169 0
M  V30 8542 C 778.188 3.93565 2.32283 0
M  V30 8543 C 779.185 4.83162 1.91965 0
M  V30 8544 C 776.87 4.38579 2.44854 0
M  V30 8545 C 778.864 6.15782 1.64593 0
M  V30 8546 C 776.551 5.71238 2.17095 0
M  V30 8547 C 777.549 6.59659 1.77028 0
M  V30 8548 O 777.237 7.89857 1.49601 0
M  V30 8549 H 776.969 0.523 0.428307 0
M  V30 8550 H 779.523 1.91855 0.733529 0
M  V30 8551 H 777.753 2.0397 3.28532 0
M  V30 8552 H 779.442 2.4552 3.23226 0
M  V30 8553 H 780.208 4.49646 1.8178 0
M  V30 8554 H 776.087 3.6999 2.75006 0
M  V30 8555 H 779.631 6.84757 1.33245 0
M  V30 8556 H 775.528 6.04306 2.26901 0
M  V30 8557 H 776.296 8.01991 1.63561 0
M  V30 8558 N 778.959 -0.83999 1.33349 0
M  V30 8559 C 779.892 -1.95415 1.17848 0
M  V30 8560 C 780.87 -1.6243 0.0742296 0
M  V30 8561 O 782.054 -1.87014 0.23626 0
M  V30 8562 C 779.181 -3.28938 0.807295 0
M  V30 8563 C 778.227 -3.80895 1.91888 0
M  V30 8564 S 779.06 -4.02709 3.52967 0
M  V30 8565 C 780.216 -5.39185 3.17853 0
M  V30 8566 H 780.449 -2.08265 2.12162 0
M  V30 8567 H 777.982 -0.993643 1.18178 0
M  V30 8568 H 779.94 -4.06093 0.599914 0
M  V30 8569 H 778.601 -3.13881 -0.117234 0
M  V30 8570 H 777.794 -4.77508 1.6125 0
M  V30 8571 H 777.396 -3.10633 2.08286 0
M  V30 8572 H 779.688 -6.21978 2.68608 0
M  V30 8573 H 780.631 -5.74795 4.13542 0
M  V30 8574 H 781.039 -5.03885 2.5448 0
M  V30 8575 N 780.437 -1.16799 -1.0581 0
M  V30 8576 C 781.367 -0.902241 -2.15364 0
M  V30 8577 C 782.348 0.153351 -1.69407 0
M  V30 8578 O 783.533 0.00442032 -1.94199 0
M  V30 8579 C 780.663 -0.407911 -3.44896 0
M  V30 8580 C 779.617 -1.40197 -4.04387 0
M  V30 8581 C 778.943 -0.765848 -5.29187 0
M  V30 8582 C 780.243 -2.77316 -4.42598 0
M  V30 8583 H 781.937 -1.81841 -2.37853 0
M  V30 8584 H 779.483 -0.875731 -1.14311 0
M  V30 8585 H 781.436 -0.20945 -4.20879 0
M  V30 8586 H 780.16 0.54378 -3.22041 0
M  V30 8587 H 778.819 -1.58707 -3.30466 0
M  V30 8588 H 778.467 0.192482 -5.02632 0
M  V30 8589 H 778.167 -1.42939 -5.69949 0
M  V30 8590 H 779.691 -0.577519 -6.07863 0
M  V30 8591 H 781.105 -2.62561 -5.09642 0
M  V30 8592 H 779.502 -3.4019 -4.94359 0
M  V30 8593 H 780.572 -3.32199 -3.53231 0
M  V30 8594 N 781.915 1.24427 -0.967243 0
M  V30 8595 C 782.845 2.2773 -0.515899 0
M  V30 8596 C 783.826 1.64197 0.444227 0
M  V30 8597 O 785.011 1.91193 0.340451 0
M  V30 8598 C 782.141 3.46751 0.195149 0
M  V30 8599 C 781.095 4.22548 -0.680953 0
M  V30 8600 C 780.421 5.34456 0.161561 0
M  V30 8601 C 781.721 4.83914 -1.96532 0
M  V30 8602 H 783.415 2.65735 -1.37933 0
M  V30 8603 H 780.961 1.27742 -0.664681 0
M  V30 8604 H 782.914 4.18153 0.522117 0
M  V30 8605 H 781.638 3.07771 1.09292 0
M  V30 8606 H 780.297 3.52946 -0.991186 0
M  V30 8607 H 779.945 4.91716 1.05947 0
M  V30 8608 H 779.645 5.86087 -0.421418 0
M  V30 8609 H 781.169 6.08685 0.483211 0
M  V30 8610 H 782.583 5.47392 -1.70396 0
M  V30 8611 H 780.98 5.45775 -2.49499 0
M  V30 8612 H 782.05 4.05393 -2.66053 0
M  V30 8613 N 783.393 0.737304 1.3929 0
M  V30 8614 C 784.303 0.100464 2.34385 0
M  V30 8615 C 785.319 -0.719282 1.58437 0
M  V30 8616 O 786.495 -0.647216 1.90717 0
M  V30 8617 C 783.56 -0.794325 3.37478 0
M  V30 8618 C 782.621 0.0379345 4.29283 0
M  V30 8619 C 781.854 -0.814241 5.27452 0
M  V30 8620 O 782.077 -2.05288 5.32177 0
M  V30 8621 O 781.011 -0.241679 6.01415 0
M  V30 8622 H 784.837 0.885407 2.90507 0
M  V30 8623 H 782.422 0.497999 1.40856 0
M  V30 8624 H 784.304 -1.30622 4.00644 0
M  V30 8625 H 782.979 -1.55804 2.83737 0
M  V30 8626 H 781.886 0.595405 3.69331 0
M  V30 8627 H 783.219 0.763926 4.86236 0
M  V30 8628 N 784.871 -1.49948 0.485112 0
M  V30 8629 C 785.834 -2.27351 -0.290546 0
M  V30 8630 C 786.834 -1.32704 -0.908087 0
M  V30 8631 O 788.024 -1.56007 -0.775085 0
M  V30 8632 C 785.156 -3.10135 -1.41524 0
M  V30 8633 H 786.349 -2.97374 0.388454 0
M  V30 8634 H 783.902 -1.54453 0.239586 0
M  V30 8635 H 784.637 -2.44641 -2.12888 0
M  V30 8636 H 784.422 -3.79705 -0.978074 0
M  V30 8637 H 785.912 -3.68638 -1.96204 0
M  V30 8638 N 786.349 -0.21828 -1.56081 0
M  V30 8639 C 787.589 0.416193 -2.00118 0
M  V30 8640 C 787.953 1.5718 -1.10265 0
M  V30 8641 O 789.154 2.27206 -1.43635 0
M  V30 8642 C 787.425 0.842781 -3.47321 0
M  V30 8643 S 788.984 1.47182 -4.1338 0
M  V30 8644 H 785.802 0.132219 -0.698598 0
M  V30 8645 H 788.404 -0.326799 -1.92749 0
M  V30 8646 H 787.108 -0.00799925 -4.10399 0
M  V30 8647 H 786.639 1.61867 -3.58556 0
M  V30 8648 H 788.654 2.76087 -4.12299 0
M  V30 8649 N 787.827 1.57504 0.0551401 0
M  V30 8650 C 788.757 2.07864 1.06372 0
M  V30 8651 C 789.738 0.975565 1.39344 0
M  V30 8652 O 790.923 1.24929 1.48682 0
M  V30 8653 C 788.053 2.53643 2.3724 0
M  V30 8654 C 787.007 3.67978 2.18578 0
M  V30 8655 C 786.333 3.9987 3.54976 0
M  V30 8656 C 787.633 4.97405 1.59329 0
M  V30 8657 H 789.327 2.92379 0.644595 0
M  V30 8658 H 786.873 1.40654 0.308619 0
M  V30 8659 H 788.826 2.8749 3.08103 0
M  V30 8660 H 787.55 1.66177 2.81163 0
M  V30 8661 H 786.209 3.3444 1.50152 0
M  V30 8662 H 785.857 3.0951 3.965 0
M  V30 8663 H 785.557 4.76867 3.43324 0
M  V30 8664 H 787.081 4.36228 4.27244 0
M  V30 8665 H 788.495 5.29375 2.20078 0
M  V30 8666 H 786.892 5.78837 1.58327 0
M  V30 8667 H 787.962 4.81697 0.55638 0
M  V30 8668 N 789.305 -0.326896 1.54172 0
M  V30 8669 C 790.553 -1.06313 1.71878 0
M  V30 8670 C 790.874 -1.88652 0.493498 0
M  V30 8671 O 790.144 -1.89608 -0.492522 0
M  V30 8672 H 788.724 -0.39549 0.633716 0
M  V30 8673 H 791.386 -0.364139 1.91468 0
M  V30 8674 H 790.482 -1.73105 2.59694 0
M  V30 8675 N 790.784 -1.46188 -0.588786 0
M  V30 8676 C 792.032 -1.50885 -1.34455 0
M  V30 8677 C 792.353 -0.159555 -1.94346 0
M  V30 8678 O 791.623 0.813239 -1.78222 0
M  V30 8679 H 790.203 -0.555707 -0.499198 0
M  V30 8680 H 792.865 -1.82277 -0.690014 0
M  V30 8681 H 791.961 -2.25816 -2.15438 0
M  V30 8682 N 792.262 0.832906 -1.33792 0
M  V30 8683 C 793.172 1.97514 -1.26592 0
M  V30 8684 C 794.188 1.73114 -0.175391 0
M  V30 8685 O 795.364 1.97387 -0.400062 0
M  V30 8686 C 792.429 3.31625 -1.01121 0
M  V30 8687 C 791.49 3.69101 -2.19233 0
M  V30 8688 C 790.723 4.96813 -1.94968 0
M  V30 8689 O 790.946 5.63208 -0.902955 0
M  V30 8690 O 789.88 5.31932 -2.8166 0
M  V30 8691 H 793.706 2.0653 -2.22664 0
M  V30 8692 H 791.291 0.966826 -1.13898 0
M  V30 8693 H 793.173 4.11968 -0.886571 0
M  V30 8694 H 791.848 3.23599 -0.080822 0
M  V30 8695 H 790.755 2.89243 -2.37253 0
M  V30 8696 H 792.088 3.818 -3.10628 0
M  V30 8697 N 793.74 1.17359 1.05189 0
M  V30 8698 C 794.67 0.91365 2.14883 0
M  V30 8699 C 795.651 -0.144365 1.69486 0
M  V30 8700 O 796.836 0.00587861 1.94199 0
M  V30 8701 C 793.966 0.426196 3.44675 0
M  V30 8702 C 792.92 1.4234 4.03638 0
M  V30 8703 C 792.246 0.793902 5.28773 0
M  V30 8704 C 793.546 2.7966 4.41121 0
M  V30 8705 H 795.24 1.831 2.36885 0
M  V30 8706 H 792.786 0.881781 1.13845 0
M  V30 8707 H 794.739 0.231767 4.20762 0
M  V30 8708 H 793.463 -0.526693 3.22325 0
M  V30 8709 H 792.122 1.60457 3.2962 0
M  V30 8710 H 791.77 -0.165824 5.02727 0
M  V30 8711 H 791.47 1.45959 5.69183 0
M  V30 8712 H 792.994 0.609747 6.07548 0
M  V30 8713 H 794.408 2.6526 5.08242 0
M  V30 8714 H 792.805 3.42807 4.92548 0
M  V30 8715 H 793.875 3.34068 3.51464 0
M  V30 8716 N 795.218 -1.23913 0.973828 0
M  V30 8717 C 796.464 -1.92747 0.649635 0
M  V30 8718 C 796.819 -1.7465 -0.807157 0
M  V30 8719 O 796.112 -1.09271 -1.57386 0
M  V30 8720 C 796.306 -3.4406 0.967356 0
M  V30 8721 C 796.135 -3.76874 2.45348 0
M  V30 8722 C 794.905 -3.97915 3.11435 0
M  V30 8723 C 797.103 -3.82871 3.43386 0
M  V30 8724 N 795.085 -4.1788 4.49722 0
M  V30 8725 C 796.456 -4.07751 4.67053 0
M  V30 8726 C 798.511 -3.65634 3.37958 0
M  V30 8727 C 797.214 -4.17185 5.8596 0
M  V30 8728 C 799.24 -3.76317 4.56223 0
M  V30 8729 C 798.602 -4.01628 5.78683 0
M  V30 8730 H 794.701 -0.72677 0.288667 0
M  V30 8731 H 797.285 -1.4928 1.24994 0
M  V30 8732 H 795.456 -3.86378 0.395804 0
M  V30 8733 H 797.188 -4.00211 0.601108 0
M  V30 8734 H 793.943 -3.94562 2.61949 0
M  V30 8735 H 794.367 -4.31829 5.21395 0
M  V30 8736 H 799.009 -3.45067 2.44312 0
M  V30 8737 H 796.727 -4.36562 6.80029 0
M  V30 8738 H 800.313 -3.64343 4.53592 0
M  V30 8739 H 799.193 -4.09699 6.68667 0
M  V30 8740 N 796.696 -0.74468 -1.38897 0
M  V30 8741 C 797.921 -0.306119 -2.05128 0
M  V30 8742 C 798.346 1.0541 -1.55789 0
M  V30 8743 O 797.704 1.66993 -0.705909 0
M  V30 8744 C 797.752 -0.328195 -3.59103 0
M  V30 8745 O 796.856 0.680876 -4.06741 0
M  V30 8746 H 796.197 -0.137209 -0.649669 0
M  V30 8747 H 798.727 -1.01331 -1.77745 0
M  V30 8748 H 798.737 -0.175956 -4.0762 0
M  V30 8749 H 797.412 -1.32067 -3.94374 0
M  V30 8750 H 795.989 0.49398 -3.69614 0
M  V30 8751 N 798.174 1.49689 -0.493057 0
M  V30 8752 C 799.423 2.01622 0.0560733 0
M  V30 8753 C 799.736 1.37838 1.3878 0
M  V30 8754 O 800.942 1.81054 2.02316 0
M  V30 8755 C 799.398 3.59586 0.150409 0
M  V30 8756 C 799.006 4.32338 -1.1742 0
M  V30 8757 C 800.75 4.19489 0.650327 0
M  V30 8758 C 798.657 5.8214 -1.04246 0
M  V30 8759 H 797.587 0.753594 0.0247297 0
M  V30 8760 H 800.238 1.723 -0.631279 0
M  V30 8761 H 798.62 3.8559 0.902035 0
M  V30 8762 H 799.794 4.18042 -1.9385 0
M  V30 8763 H 798.109 3.84144 -1.60694 0
M  V30 8764 H 800.706 5.29181 0.766272 0
M  V30 8765 H 801.049 3.82326 1.6472 0
M  V30 8766 H 801.582 3.97775 -0.0445371 0
M  V30 8767 H 798.321 6.23814 -2.01336 0
M  V30 8768 H 797.841 5.98952 -0.31892 0
M  V30 8769 H 799.52 6.43004 -0.717957 0
M  V30 8770 N 799.652 0.226554 1.55963 0
M  V30 8771 C 800.582 -0.676079 2.23498 0
M  V30 8772 C 801.563 -1.19718 1.20837 0
M  V30 8773 O 802.748 -1.24027 1.49436 0
M  V30 8774 C 799.878 -1.88217 2.91876 0
M  V30 8775 C 798.832 -1.4947 4.01052 0
M  V30 8776 C 798.158 -2.77997 4.56751 0
M  V30 8777 C 799.458 -0.680951 5.17842 0
M  V30 8778 H 801.152 -0.112989 2.99187 0
M  V30 8779 H 798.698 -0.0529046 1.43903 0
M  V30 8780 H 800.651 -2.51911 3.37815 0
M  V30 8781 H 799.375 -2.47031 2.13643 0
M  V30 8782 H 798.034 -0.881199 3.55852 0
M  V30 8783 H 797.682 -3.34966 3.75243 0
M  V30 8784 H 797.382 -2.52803 5.30438 0
M  V30 8785 H 798.906 -3.42625 5.05411 0
M  V30 8786 H 800.32 -1.22171 5.60131 0
M  V30 8787 H 798.717 -0.525898 5.97791 0
M  V30 8788 H 799.787 0.311346 4.83899 0
M  V30 8789 N 801.13 -1.57531 -0.0467866 0
M  V30 8790 C 802.546 -1.54451 -0.402107 0
M  V30 8791 C 802.746 -0.950275 -1.77685 0
M  V30 8792 O 801.802 -0.563602 -2.4613 0
M  V30 8793 C 803.115 -2.9899 -0.320212 0
M  V30 8794 C 804.663 -3.10452 -0.398588 0
M  V30 8795 C 805.138 -4.56689 -0.346335 0
M  V30 8796 N 806.629 -4.6142 -0.405666 0
M  V30 8797 C 807.364 -5.72087 -0.387845 0
M  V30 8798 N 806.86 -6.92045 -0.32336 0
M  V30 8799 N 808.653 -5.60404 -0.436263 0
M  V30 8800 H 800.804 -1.94515 0.853087 0
M  V30 8801 H 803.067 -0.891397 0.322669 0
M  V30 8802 H 802.773 -3.46124 0.623794 0
M  V30 8803 H 802.647 -3.60164 -1.1208 0
M  V30 8804 H 805.034 -2.63276 -1.33302 0
M  V30 8805 H 805.115 -2.52142 0.431026 0
M  V30 8806 H 804.759 -5.04527 0.584356 0
M  V30 8807 H 804.689 -5.12889 -1.19382 0
M  V30 8808 H 807.18 -3.75105 -0.458737 0
M  V30 8809 H 807.493 -7.7216 -0.314375 0
M  V30 8810 H 805.838 -6.94396 -0.28967 0
M  V30 8811 H 809.029 -4.65586 -0.48451 0
M  V30 8812 H 809.202 -6.46645 -0.418907 0
M  V30 8813 N 802.608 0.318715 -1.54344 0
M  V30 8814 C 803.885 1.07461 -1.63437 0
M  V30 8815 C 804.265 2.05771 -0.47131 0
M  V30 8816 O 803.613 2.22175 0.53391 0
M  V30 8817 C 803.823 1.77224 -3.00654 0
M  V30 8818 C 805.171 2.30069 -3.56866 0
M  V30 8819 O 806.195 1.87284 -3.0299 0
M  V30 8820 O 805.054 3.08412 -4.51159 0
M  V30 8821 H 802.148 0.495627 -0.66203 0
M  V30 8822 H 804.694 0.318218 -1.6669 0
M  V30 8823 H 803.466 1.05742 -3.76742 0
M  V30 8824 H 803.089 2.59662 -3.01101 0
M  V30 8825 N 804.086 1.46499 0.581025 0
M  V30 8826 C 805.502 1.31491 0.904563 0
M  V30 8827 C 805.702 0.287598 1.99437 0
M  V30 8828 O 804.758 -0.309247 2.50599 0
M  V30 8829 C 806.071 2.70163 1.32032 0
M  V30 8830 C 807.619 2.78266 1.43308 0
M  V30 8831 C 808.094 4.17524 1.8825 0
M  V30 8832 N 809.585 4.19949 1.9544 0
M  V30 8833 C 810.32 5.24594 2.31493 0
M  V30 8834 N 809.816 6.39564 2.66326 0
M  V30 8835 N 811.609 5.11961 2.32062 0
M  V30 8836 H 803.76 2.11946 -0.138856 0
M  V30 8837 H 806.023 0.948 0.000548528 0
M  V30 8838 H 805.729 3.46655 0.593554 0
M  V30 8839 H 805.603 3.00379 2.2815 0
M  V30 8840 H 807.99 2.02061 2.15071 0
M  V30 8841 H 808.071 2.51732 0.45438 0
M  V30 8842 H 807.715 4.94225 1.17065 0
M  V30 8843 H 807.645 4.41466 2.87081 0
M  V30 8844 H 810.136 3.36996 1.71004 0
M  V30 8845 H 810.449 7.15187 2.92793 0
M  V30 8846 H 808.794 6.42923 2.6396 0
M  V30 8847 H 811.985 4.21177 2.04272 0
M  V30 8848 H 812.158 5.93626 2.5983 0
M  V30 8849 N 805.565 -0.825799 1.34232 0
M  V30 8850 C 806.813 -1.57873 1.26177 0
M  V30 8851 C 807.134 -1.94267 -0.168904 0
M  V30 8852 O 806.404 -1.62045 -1.10084 0
M  V30 8853 H 804.984 -0.585388 0.464037 0
M  V30 8854 H 807.646 -0.986163 1.6811 0
M  V30 8855 H 806.742 -2.50283 1.86453 0
M  V30 8856 N 807.043 -1.17915 -1.04565 0
M  V30 8857 C 808.268 -0.996749 -1.81878 0
M  V30 8858 C 808.693 0.450169 -1.82634 0
M  V30 8859 O 808.051 1.32268 -1.23995 0
M  V30 8860 C 808.099 -1.55005 -3.25585 0
M  V30 8861 O 807.203 -0.76804 -4.05185 0
M  V30 8862 H 806.544 -0.353456 -0.562108 0
M  V30 8863 H 809.074 -1.56557 -1.31723 0
M  V30 8864 H 809.084 -1.57503 -3.76373 0
M  V30 8865 H 807.759 -2.60327 -3.2435 0
M  V30 8866 H 806.336 -0.81498 -3.63885 0
M  V30 8867 N 808.521 1.23394 -0.980386 0
M  V30 8868 C 809.768 1.91809 -0.649261 0
M  V30 8869 C 810.096 1.765 0.817197 0
M  V30 8870 O 809.351 1.11979 1.60497 0
M  V30 8871 C 809.65 3.43542 -0.985588 0
M  V30 8872 C 809.316 3.79031 -2.44225 0
M  V30 8873 C 807.978 3.88429 -2.84035 0
M  V30 8874 C 810.33 3.96145 -3.38702 0
M  V30 8875 C 807.658 4.12368 -4.17336 0
M  V30 8876 C 810.01 4.21583 -4.71646 0
M  V30 8877 C 808.674 4.29203 -5.11215 0
M  V30 8878 H 807.944 0.70188 -0.237581 0
M  V30 8879 H 810.591 1.4642 -1.23424 0
M  V30 8880 H 808.896 3.90503 -0.318521 0
M  V30 8881 H 810.593 3.94708 -0.707596 0
M  V30 8882 H 807.183 3.7229 -2.12362 0
M  V30 8883 H 811.367 3.88274 -3.09123 0
M  V30 8884 H 806.623 4.1649 -4.47601 0
M  V30 8885 H 810.797 4.33769 -5.4481 0
M  V30 8886 H 808.424 4.47505 -6.14527 0
M  V30 8887 N 809.999 0.752036 1.385 0
M  V30 8888 C 811.276 0.233075 1.94206 0
M  V30 8889 C 811.656 -1.26838 1.68746 0
M  V30 8890 O 811.004 -2.04214 1.02513 0
M  V30 8891 C 811.214 0.58509 3.44061 0
M  V30 8892 C 812.562 0.543871 4.21102 0
M  V30 8893 O 813.586 0.523291 3.52335 0
M  V30 8894 O 812.445 0.553436 5.4369 0
M  V30 8895 H 809.539 0.0483049 0.825588 0
M  V30 8896 H 812.085 0.832053 1.47902 0
M  V30 8897 H 810.857 1.62212 3.56094 0
M  V30 8898 H 810.48 -0.0419738 3.97578 0
M  V30 8899 N 811.477 -1.49425 0.500989 0
M  V30 8900 C 812.387 -2.32899 -0.282011 0
M  V30 8901 C 813.403 -1.44632 -0.967346 0
M  V30 8902 O 814.579 -1.77654 -0.94873 0
M  V30 8903 C 811.644 -3.20069 -1.33253 0
M  V30 8904 C 810.705 -4.24186 -0.660636 0
M  V30 8905 C 809.938 -5.07191 -1.6611 0
M  V30 8906 O 810.161 -4.91712 -2.89094 0
M  V30 8907 O 809.095 -5.8948 -1.21643 0
M  V30 8908 H 812.921 -3.01038 0.401224 0
M  V30 8909 H 810.506 -1.47079 0.262323 0
M  V30 8910 H 812.388 -3.74071 -1.94033 0
M  V30 8911 H 811.063 -2.54625 -1.9987 0
M  V30 8912 H 809.97 -3.74098 -0.0130959 0
M  V30 8913 H 811.303 -4.92186 -0.0369179 0
M  V30 8914 N 812.955 -0.234822 -1.55841 0
M  V30 8915 C 814.366 0.270588 -1.84729 0
M  V30 8916 C 814.717 1.58494 -1.15646 0
M  V30 8917 O 813.842 2.12071 -0.430667 0
M  V30 8918 C 814.437 0.497733 -3.35124 0
M  V30 8919 C 812.996 0.947428 -3.64281 0
M  V30 8920 C 812.143 0.01787 -2.77294 0
M  V30 8921 H 815.094 -0.457691 -1.51957 0
M  V30 8922 H 815.115 1.34199 -3.56049 0
M  V30 8923 H 814.627 -0.459037 -3.85376 0
M  V30 8924 H 812.728 1.91709 -3.19497 0
M  V30 8925 H 812.841 0.812651 -4.72158 0
M  V30 8926 H 811.205 0.527071 -2.49187 0
M  V30 8927 H 811.988 -0.934056 -3.30349 0
M  V30 8928 N 814.433 1.57553 0.0384317 0
M  V30 8929 C 815.661 1.93093 0.743141 0
M  V30 8930 C 816.076 0.833787 1.69391 0
M  V30 8931 O 815.433 -0.190532 1.81503 0
M  V30 8932 C 815.484 3.28533 1.50826 0
M  V30 8933 O 815.205 4.34032 0.595665 0
M  V30 8934 C 816.706 3.78297 2.31098 0
M  V30 8935 H 813.926 0.637486 0.20941 0
M  V30 8936 H 816.47 2.045 -0.00125154 0
M  V30 8937 H 814.625 3.18552 2.20462 0
M  V30 8938 H 815.039 5.12155 1.13124 0
M  V30 8939 H 816.513 4.75602 2.80191 0
M  V30 8940 H 816.99 3.09008 3.12107 0
M  V30 8941 H 817.596 3.91331 1.66555 0
M  V30 8942 N 815.911 -0.310526 1.54511 0
M  V30 8943 C 817.136 -1.07046 1.7764 0
M  V30 8944 C 817.561 -1.80488 0.529696 0
M  V30 8945 O 816.919 -1.73702 -0.519361 0
M  V30 8946 C 816.967 -2.03411 2.97752 0
M  V30 8947 O 816.071 -3.11545 2.7021 0
M  V30 8948 H 815.412 -0.307994 0.588248 0
M  V30 8949 H 817.942 -0.350848 2.01569 0
M  V30 8950 H 817.952 -2.46048 3.2546 0
M  V30 8951 H 816.627 -1.49361 3.88155 0
M  V30 8952 H 815.204 -2.7349 2.53491 0
M  V30 8953 N 817.389 -1.46805 -0.573248 0
M  V30 8954 C 818.336 -1.58084 -1.68161 0
M  V30 8955 C 819.306 -0.424636 -1.6058 0
M  V30 8956 O 820.491 -0.642623 -1.79652 0
M  V30 8957 C 817.631 -1.58601 -3.06496 0
M  V30 8958 C 816.744 -2.85023 -3.24632 0
M  V30 8959 C 815.879 -2.76981 -4.53271 0
M  V30 8960 C 814.918 -3.983 -4.64783 0
M  V30 8961 N 814.055 -3.88589 -5.84759 0
M  V30 8962 H 818.895 -2.52755 -1.57858 0
M  V30 8963 H 816.432 -1.25385 -0.769218 0
M  V30 8964 H 818.39 -1.56885 -3.86579 0
M  V30 8965 H 817.02 -0.674553 -3.15673 0
M  V30 8966 H 816.072 -2.96678 -2.38089 0
M  V30 8967 H 817.384 -3.7491 -3.29004 0
M  V30 8968 H 816.538 -2.73424 -5.41594 0
M  V30 8969 H 815.277 -1.84751 -4.51352 0
M  V30 8970 H 814.282 -4.02179 -3.74876 0
M  V30 8971 H 815.507 -4.91639 -4.68474 0
M  V30 8972 H 813.453 -2.99151 -5.83819 0
M  V30 8973 H 813.37 -4.7214 -5.90441 0
M  V30 8974 H 814.638 -3.89022 -6.75486 0
M  V30 8975 N 818.867 0.818669 -1.34668 0
M  V30 8976 C 820.114 1.57512 -1.27264 0
M  V30 8977 C 820.442 1.93871 0.156254 0
M  V30 8978 O 819.697 1.60582 1.11857 0
M  V30 8979 C 819.996 2.88245 -2.11304 0
M  V30 8980 C 819.662 2.71159 -3.60255 0
M  V30 8981 C 818.324 2.66207 -4.00858 0
M  V30 8982 C 820.676 2.54538 -4.54819 0
M  V30 8983 C 818.004 2.4256 -5.34211 0
M  V30 8984 C 820.356 2.32421 -5.88356 0
M  V30 8985 C 819.02 2.25884 -6.28118 0
M  V30 8986 H 818.29 0.576378 -0.465692 0
M  V30 8987 H 820.937 0.9469 -1.66451 0
M  V30 8988 H 819.242 3.55381 -1.64958 0
M  V30 8989 H 820.939 3.45869 -2.02919 0
M  V30 8990 H 817.529 2.75856 -3.28027 0
M  V30 8991 H 821.713 2.57384 -4.24343 0
M  V30 8992 H 816.969 2.35959 -5.64033 0
M  V30 8993 H 821.143 2.18548 -6.61218 0
M  V30 8994 H 818.77 2.07322 -7.31383 0
M  V30 8995 N 820.346 1.18468 1.03938 0
M  V30 8996 C 821.586 0.991823 1.78724 0
M  V30 8997 C 821.95 -0.470115 1.86156 0
M  V30 8998 O 823.151 -0.782451 2.5716 0
M  V30 8999 C 821.422 1.63018 3.18056 0
M  V30 9000 S 822.981 1.58527 4.09163 0
M  V30 9001 H 819.799 0.356137 0.615376 0
M  V30 9002 H 822.401 1.50634 1.24618 0
M  V30 9003 H 821.105 2.68642 3.10258 0
M  V30 9004 H 820.636 1.11601 3.77238 0
M  V30 9005 H 822.651 0.602059 4.92534 0
M  V30 9006 N 821.824 -1.22873 0.986916 0
M  V30 9007 C 823.07 -1.91746 0.660401 0
M  V30 9008 C 823.403 -1.76738 -0.804812 0
M  V30 9009 O 822.678 -1.13246 -1.58131 0
M  V30 9010 C 822.961 -3.44156 1.05966 0
M  V30 9011 C 822.814 -3.68242 2.58298 0
M  V30 9012 C 824.133 -4.35874 0.60842 0
M  V30 9013 H 821.252 -0.696347 0.241391 0
M  V30 9014 H 823.894 -1.44867 1.22937 0
M  V30 9015 H 822.044 -3.84213 0.575534 0
M  V30 9016 H 823.716 -3.37626 3.14335 0
M  V30 9017 H 821.959 -3.12728 3.00638 0
M  V30 9018 H 822.63 -4.74956 2.81285 0
M  V30 9019 H 825.106 -4.03299 1.02417 0
M  V30 9020 H 823.982 -5.41201 0.916142 0
M  V30 9021 H 824.243 -4.39364 -0.491086 0
M  V30 9022 N 823.302 -0.75937 -1.38099 0
M  V30 9023 C 824.265 -0.14372 -2.28749 0
M  V30 9024 C 825.265 0.641338 -1.47457 0
M  V30 9025 O 826.455 0.466751 -1.67831 0
M  V30 9026 C 823.587 0.804545 -3.3127 0
M  V30 9027 H 824.78 -0.942663 -2.847 0
M  V30 9028 H 822.333 -0.526757 -1.47156 0
M  V30 9029 H 823.068 1.62895 -2.80421 0
M  V30 9030 H 822.853 0.243939 -3.9134 0
M  V30 9031 H 824.343 1.23111 -3.99041 0
M  V30 9032 N 824.78 1.49157 -0.508906 0
M  V30 9033 C 826.02 2.04376 0.0310623 0
M  V30 9034 C 826.384 1.37946 1.33547 0
M  V30 9035 O 827.585 1.83931 1.96017 0
M  V30 9036 C 825.856 3.56985 0.172191 0
M  V30 9037 S 827.415 4.33728 0.665267 0
M  V30 9038 H 824.233 0.710997 -0.00199266 0
M  V30 9039 H 826.835 1.83119 -0.684674 0
M  V30 9040 H 825.539 4.02874 -0.78234 0
M  V30 9041 H 825.07 3.82661 0.912933 0
M  V30 9042 H 827.085 4.56992 1.9332 0
M  V30 9043 N 826.258 0.243083 1.55714 0
M  V30 9044 C 827.504 -0.383287 1.99145 0
M  V30 9045 C 827.837 -1.57868 1.13098 0
M  V30 9046 O 827.112 -1.93535 0.193509 0
M  V30 9047 C 827.395 -0.796879 3.51172 0
M  V30 9048 C 827.248 0.403642 4.47985 0
M  V30 9049 C 828.567 -1.64525 4.08191 0
M  V30 9050 H 825.686 -0.137843 0.723995 0
M  V30 9051 H 828.328 0.343631 1.86867 0
M  V30 9052 H 826.478 -1.41625 3.61766 0
M  V30 9053 H 828.15 1.04204 4.49376 0
M  V30 9054 H 826.393 1.04741 4.20965 0
M  V30 9055 H 827.064 0.0709794 5.51954 0
M  V30 9056 H 829.54 -1.12246 4.00674 0
M  V30 9057 H 828.416 -1.9035 5.14838 0
M  V30 9058 H 828.677 -2.61582 3.56409 0
M  V30 9059 N 827.736 -1.57571 -0.0300757 0
M  V30 9060 C 828.964 -1.93485 -0.732891 0
M  V30 9061 C 829.379 -0.842758 -1.68947 0
M  V30 9062 O 828.736 0.180904 -1.81601 0
M  V30 9063 C 828.787 -3.29328 -1.49082 0
M  V30 9064 O 828.508 -4.34341 -0.572639 0
M  V30 9065 C 830.009 -3.79517 -2.29088 0
M  V30 9066 H 827.229 -0.638588 -0.206026 0
M  V30 9067 H 829.773 -2.04496 0.0120966 0
M  V30 9068 H 827.928 -3.19716 -2.1877 0
M  V30 9069 H 828.342 -5.12748 -1.10406 0
M  V30 9070 H 829.816 -4.77081 -2.77665 0
M  V30 9071 H 830.293 -3.10659 -3.10464 0
M  V30 9072 H 830.899 -3.92208 -1.64477 0
M  V30 9073 N 829.214 0.302327 -1.54673 0
M  V30 9074 C 830.124 1.39542 -1.88587 0
M  V30 9075 C 831.14 1.55543 -0.779895 0
M  V30 9076 O 832.316 1.70233 -1.07623 0
M  V30 9077 C 829.381 2.7394 -2.12504 0
M  V30 9078 C 828.442 2.66935 -3.3622 0
M  V30 9079 C 827.675 3.94923 -3.58987 0
M  V30 9080 O 827.898 4.94218 -2.84789 0
M  V30 9081 O 826.832 3.96896 -4.52501 0
M  V30 9082 H 830.658 1.13784 -2.81579 0
M  V30 9083 H 828.243 0.49827 -1.40846 0
M  V30 9084 H 830.125 3.5346 -2.29443 0
M  V30 9085 H 828.8 2.99544 -1.22698 0
M  V30 9086 H 827.707 1.85892 -3.24646 0
M  V30 9087 H 829.04 2.46283 -4.26152 0
M  V30 9088 N 830.692 1.47107 0.565454 0
M  V30 9089 C 831.655 1.58535 1.65527 0
M  V30 9090 C 832.655 0.461081 1.54048 0
M  V30 9091 O 833.845 0.725911 1.58355 0
M  V30 9092 C 830.977 1.52204 3.05036 0
M  V30 9093 H 832.17 2.55676 1.56747 0
M  V30 9094 H 829.723 1.35174 0.78471 0
M  V30 9095 H 830.458 0.564071 3.19357 0
M  V30 9096 H 830.243 2.3379 3.14777 0
M  V30 9097 H 831.733 1.63322 3.84338 0
M  V30 9098 N 832.17 -0.811516 1.35101 0
M  V30 9099 C 833.417 -1.56835 1.28098 0
M  V30 9100 C 833.745 -1.93951 -0.14597 0
M  V30 9101 O 833 -1.61173 -1.11004 0
M  V30 9102 C 833.299 -2.87121 2.1283 0
M  V30 9103 C 832.965 -2.69245 3.61688 0
M  V30 9104 C 831.627 -2.64078 4.02264 0
M  V30 9105 C 833.979 -2.52122 4.56162 0
M  V30 9106 C 831.307 -2.39724 5.3549 0
M  V30 9107 C 833.659 -2.29298 5.89581 0
M  V30 9108 C 832.323 -2.2255 6.29307 0
M  V30 9109 H 831.593 -0.5739 0.468742 0
M  V30 9110 H 834.24 -0.93806 1.66951 0
M  V30 9111 H 832.545 -3.54502 1.66841 0
M  V30 9112 H 834.242 -3.44788 2.0475 0
M  V30 9113 H 830.832 -2.74112 3.29485 0
M  V30 9114 H 835.016 -2.5513 4.25702 0
M  V30 9115 H 830.272 -2.32965 5.65276 0
M  V30 9116 H 834.446 -2.15038 6.62368 0
M  V30 9117 H 832.073 -2.0344 7.32473 0
M  V30 9118 N 833.648 -1.19017 -1.03309 0
M  V30 9119 C 834.925 -0.899659 -1.73682 0
M  V30 9120 C 835.305 0.595677 -2.02521 0
M  V30 9121 O 834.653 1.55263 -1.67648 0
M  V30 9122 C 834.863 -1.75508 -3.01659 0
M  V30 9123 C 836.211 -1.98679 -3.75249 0
M  V30 9124 O 837.235 -1.72624 -3.11576 0
M  V30 9125 O 836.094 -2.42587 -4.89708 0
M  V30 9126 H 833.188 -0.334903 -0.756154 0
M  V30 9127 H 835.734 -1.29809 -1.09305 0
M  V30 9128 H 834.506 -2.7684 -2.76542 0
M  V30 9129 H 834.129 -1.35565 -3.73775 0
M  V30 9130 N 835.127 1.22348 -0.993418 0
M  V30 9131 C 836.357 1.94842 -0.687023 0
M  V30 9132 C 836.765 1.73594 0.752445 0
M  V30 9133 O 836.108 1.03238 1.51946 0
M  V30 9134 C 836.17 3.47694 -0.913754 0
M  V30 9135 C 835.834 3.92678 -2.33781 0
M  V30 9136 C 836.831 4.0031 -3.31734 0
M  V30 9137 C 834.516 4.25311 -2.67237 0
M  V30 9138 C 836.51 4.39951 -4.61218 0
M  V30 9139 C 834.197 4.64631 -3.9694 0
M  V30 9140 C 835.195 4.71919 -4.93742 0
M  V30 9141 O 834.883 5.10349 -6.21127 0
M  V30 9142 H 834.615 0.626771 -0.253247 0
M  V30 9143 H 837.169 1.56436 -1.33105 0
M  V30 9144 H 835.399 3.86115 -0.212552 0
M  V30 9145 H 837.088 4.01403 -0.602528 0
M  V30 9146 H 837.854 3.75288 -3.07219 0
M  V30 9147 H 833.733 4.18842 -1.92594 0
M  V30 9148 H 837.277 4.45555 -5.36774 0
M  V30 9149 H 833.174 4.89104 -4.21245 0
M  V30 9150 H 833.942 5.2842 -6.25072 0
M  V30 9151 N 836.605 0.766683 1.37694 0
M  V30 9152 C 837.535 0.163432 2.32927 0
M  V30 9153 C 838.516 -0.688861 1.55527 0
M  V30 9154 O 839.701 -0.627363 1.83787 0
M  V30 9155 C 836.831 -0.720416 3.39746 0
M  V30 9156 C 835.785 0.0301718 4.27989 0
M  V30 9157 C 835.111 -0.972788 5.25776 0
M  V30 9158 C 836.411 1.20623 5.0818 0
M  V30 9159 H 838.105 0.958988 2.83626 0
M  V30 9160 H 835.651 0.462601 1.36367 0
M  V30 9161 H 837.604 -1.15221 4.05342 0
M  V30 9162 H 836.328 -1.54844 2.8756 0
M  V30 9163 H 834.987 0.442685 3.63917 0
M  V30 9164 H 834.635 -1.79522 4.69873 0
M  V30 9165 H 834.335 -0.475145 5.85676 0
M  V30 9166 H 835.859 -1.40362 5.94248 0
M  V30 9167 H 837.273 0.851341 5.66944 0
M  V30 9168 H 835.67 1.63561 5.7738 0
M  V30 9169 H 836.74 2.01281 4.41151 0
M  V30 9170 N 838.083 -1.48885 0.516809 0
M  V30 9171 C 839.033 -2.26363 -0.272704 0
M  V30 9172 C 840.017 -1.31891 -0.921604 0
M  V30 9173 O 841.209 -1.56514 -0.826589 0
M  V30 9174 C 838.338 -3.16614 -1.32705 0
M  V30 9175 C 837.424 -4.18554 -0.683598 0
M  V30 9176 N 837.815 -5.05308 0.223015 0
M  V30 9177 C 836.113 -4.35931 -0.942351 0
M  V30 9178 C 836.814 -5.7867 0.592918 0
M  V30 9179 N 835.79 -5.43583 -0.042912 0
M  V30 9180 H 839.592 -2.90811 0.424971 0
M  V30 9181 H 837.106 -1.5893 0.333941 0
M  V30 9182 H 839.103 -3.70766 -1.90625 0
M  V30 9183 H 837.763 -2.5372 -2.02624 0
M  V30 9184 H 838.774 -5.14473 0.594818 0
M  V30 9185 H 835.451 -3.84234 -1.6331 0
M  V30 9186 H 836.841 -6.58493 1.33556 0
M  V30 9187 N 839.561 -0.251338 -1.55583 0
M  V30 9188 C 840.977 0.103409 -1.59265 0
M  V30 9189 C 841.177 1.56559 -1.26852 0
M  V30 9190 O 840.233 2.31071 -1.01796 0
M  V30 9191 C 841.546 -0.249781 -2.99661 0
M  V30 9192 C 843.094 -0.194442 -3.12395 0
M  V30 9193 C 843.569 -0.521728 -4.55019 0
M  V30 9194 N 845.06 -0.472393 -4.60785 0
M  V30 9195 C 845.795 -0.698737 -5.69127 0
M  V30 9196 N 845.291 -0.988443 -6.85713 0
M  V30 9197 N 847.084 -0.629143 -5.58568 0
M  V30 9198 H 839.235 -1.20484 -1.74921 0
M  V30 9199 H 841.498 -0.485092 -0.814488 0
M  V30 9200 H 841.204 -1.26577 -3.28133 0
M  V30 9201 H 841.078 0.420973 -3.74844 0
M  V30 9202 H 843.465 0.812229 -2.83702 0
M  V30 9203 H 843.546 -0.899111 -2.39478 0
M  V30 9204 H 843.19 -1.52597 -4.84434 0
M  V30 9205 H 843.12 0.204468 -5.26203 0
M  V30 9206 H 845.611 -0.257386 -3.77022 0
M  V30 9207 H 845.924 -1.14846 -7.64219 0
M  V30 9208 H 844.269 -1.02596 -6.87386 0
M  V30 9209 H 847.46 -0.402826 -4.66364 0
M  V30 9210 H 847.633 -0.808935 -6.42931 0
M  V30 9211 N 841.039 1.57585 0.0217189 0
M  V30 9212 C 841.969 2.10073 1.01939 0
M  V30 9213 C 842.95 1.0049 1.37243 0
M  V30 9214 O 844.135 1.28055 1.45999 0
M  V30 9215 C 841.265 2.58618 2.31806 0
M  V30 9216 C 840.219 3.72531 2.10724 0
M  V30 9217 C 839.545 4.07309 3.46415 0
M  V30 9218 C 840.845 5.00672 1.48743 0
M  V30 9219 H 842.539 2.9368 0.582432 0
M  V30 9220 H 840.085 1.41277 0.278715 0
M  V30 9221 H 842.038 2.9396 3.01936 0
M  V30 9222 H 840.762 1.72104 2.77575 0
M  V30 9223 H 839.421 3.37549 1.43025 0
M  V30 9224 H 839.069 3.17851 3.89846 0
M  V30 9225 H 838.769 4.84042 3.33132 0
M  V30 9226 H 840.293 4.45192 4.17895 0
M  V30 9227 H 841.707 5.33925 2.088 0
M  V30 9228 H 840.104 5.82065 1.46013 0
M  V30 9229 H 841.174 4.82769 0.45408 0
M  V30 9230 N 842.517 -0.29412 1.54831 0
M  V30 9231 C 843.765 -1.02643 1.74094 0
M  V30 9232 C 844.086 -1.87563 0.533402 0
M  V30 9233 O 843.356 -1.9061 -0.452192 0
M  V30 9234 H 841.936 -0.381959 0.641963 0
M  V30 9235 H 844.598 -0.323444 1.92197 0
M  V30 9236 H 843.694 -1.67558 2.63307 0
M  V30 9237 N 843.995 -1.47404 -0.557645 0
M  V30 9238 C 845.244 -1.53268 -1.31118 0
M  V30 9239 C 845.557 -0.199414 -1.94581 0
M  V30 9240 O 846.763 -0.136039 -2.71159 0
M  V30 9241 C 845.219 -2.70178 -2.37764 0
M  V30 9242 C 844.827 -4.10032 -1.80493 0
M  V30 9243 C 846.571 -2.85334 -3.14301 0
M  V30 9244 C 844.478 -5.18244 -2.84916 0
M  V30 9245 H 843.408 -0.570491 -0.493007 0
M  V30 9246 H 846.059 -1.73678 -0.592308 0
M  V30 9247 H 844.441 -2.43147 -3.12563 0
M  V30 9248 H 845.615 -4.46964 -1.12069 0
M  V30 9249 H 843.93 -3.99759 -1.16542 0
M  V30 9250 H 846.527 -3.63347 -3.92279 0
M  V30 9251 H 846.87 -1.93761 -3.68459 0
M  V30 9252 H 847.403 -3.12133 -2.46613 0
M  V30 9253 H 844.142 -6.11691 -2.35614 0
M  V30 9254 H 843.662 -4.85829 -3.51753 0
M  V30 9255 H 845.341 -5.45174 -3.48417 0
M  V30 9256 N 845.473 0.80434 -1.35529 0
M  V30 9257 C 846.722 1.55665 -1.28263 0
M  V30 9258 C 847.035 1.95096 0.140352 0
M  V30 9259 O 848.241 2.69422 0.335303 0
M  V30 9260 C 846.697 2.80935 -2.24952 0
M  V30 9261 C 846.305 2.48733 -3.72607 0
M  V30 9262 C 848.049 3.5894 -2.26632 0
M  V30 9263 C 845.956 3.70308 -4.61114 0
M  V30 9264 H 844.886 0.584301 -0.476559 0
M  V30 9265 H 847.537 0.88395 -1.60806 0
M  V30 9266 H 845.919 3.49927 -1.85383 0
M  V30 9267 H 847.093 1.87733 -4.20824 0
M  V30 9268 H 845.408 1.83969 -3.73557 0
M  V30 9269 H 848.005 4.49244 -2.89973 0
M  V30 9270 H 848.348 3.96433 -1.27069 0
M  V30 9271 H 848.881 2.96912 -2.64742 0
M  V30 9272 H 845.62 3.37922 -5.61684 0
M  V30 9273 H 845.14 4.30526 -4.17621 0
M  V30 9274 H 846.819 4.37511 -4.76648 0
M  V30 9275 N 846.951 1.19563 1.02676 0
M  V30 9276 C 848.181 1.0234 1.79472 0
M  V30 9277 C 848.589 -0.430891 1.84228 0
M  V30 9278 O 847.932 -1.31106 1.28674 0
M  V30 9279 C 847.994 1.51901 3.25832 0
M  V30 9280 C 847.658 3.00045 3.44706 0
M  V30 9281 C 848.655 3.9779 3.34752 0
M  V30 9282 C 846.34 3.38784 3.70851 0
M  V30 9283 C 848.334 5.32267 3.50672 0
M  V30 9284 C 846.021 4.73419 3.86416 0
M  V30 9285 C 847.019 5.69969 3.7633 0
M  V30 9286 O 846.707 7.02165 3.91432 0
M  V30 9287 H 846.439 0.360936 0.571578 0
M  V30 9288 H 848.993 1.58863 1.30198 0
M  V30 9289 H 847.223 0.897546 3.7614 0
M  V30 9290 H 848.912 1.30853 3.84229 0
M  V30 9291 H 849.678 3.69207 3.14502 0
M  V30 9292 H 845.557 2.64183 3.77794 0
M  V30 9293 H 849.101 6.07612 3.42715 0
M  V30 9294 H 844.998 5.01697 4.06165 0
M  V30 9295 H 845.766 7.09268 4.08511 0
M  V30 9296 N 848.429 -1.21819 0.999893 0
M  V30 9297 C 849.845 -1.42847 0.711824 0
M  V30 9298 C 850.045 -1.88391 -0.714928 0
M  V30 9299 O 849.101 -2.0422 -1.48494 0
M  V30 9300 C 850.414 -2.46417 1.72334 0
M  V30 9301 C 851.962 -2.60207 1.73958 0
M  V30 9302 C 852.437 -3.67005 2.73992 0
M  V30 9303 N 853.928 -3.7447 2.72628 0
M  V30 9304 C 854.663 -4.56718 3.46693 0
M  V30 9305 N 854.159 -5.42904 4.3038 0
M  V30 9306 N 855.952 -4.51094 3.35366 0
M  V30 9307 H 848.103 -0.905656 1.92124 0
M  V30 9308 H 850.366 -0.459893 0.828977 0
M  V30 9309 H 850.072 -2.19914 2.74465 0
M  V30 9310 H 849.946 -3.45137 1.52186 0
M  V30 9311 H 852.333 -2.8605 0.725217 0
M  V30 9312 H 852.414 -1.61739 1.98177 0
M  V30 9313 H 852.058 -3.41908 3.75582 0
M  V30 9314 H 851.988 -4.65058 2.4704 0
M  V30 9315 H 854.479 -3.12895 2.11909 0
M  V30 9316 H 854.792 -6.02704 4.83702 0
M  V30 9317 H 853.137 -5.42463 4.34464 0
M  V30 9318 H 856.328 -3.82791 2.69423 0
M  V30 9319 H 856.501 -5.1496 3.93344 0
M  V30 9320 N 849.908 -0.773975 -1.37286 0
M  V30 9321 C 851.185 -0.263942 -1.93811 0
M  V30 9322 C 851.565 1.24138 -1.70743 0
M  V30 9323 O 850.913 2.02557 -1.05749 0
M  V30 9324 C 851.123 -0.639753 -3.43086 0
M  V30 9325 C 852.471 -0.610796 -4.20184 0
M  V30 9326 O 853.495 -0.579278 -3.51458 0
M  V30 9327 O 852.354 -0.639862 -5.42741 0
M  V30 9328 H 849.448 -0.0614331 -0.824715 0
M  V30 9329 H 851.994 -0.855477 -1.46559 0
M  V30 9330 H 850.766 -1.67856 -3.53469 0
M  V30 9331 H 850.389 -0.0212827 -3.97594 0
M  V30 9332 N 851.386 1.48609 -0.524698 0
M  V30 9333 C 852.316 2.32366 0.229837 0
M  V30 9334 C 853.297 1.41759 0.940129 0
M  V30 9335 O 854.482 1.7065 0.926936 0
M  V30 9336 C 851.612 3.22835 1.28043 0
M  V30 9337 C 850.566 4.22424 0.688603 0
M  V30 9338 C 849.892 5.0199 1.84146 0
M  V30 9339 C 851.192 5.21217 -0.336176 0
M  V30 9340 H 852.886 2.95698 -0.469339 0
M  V30 9341 H 850.432 1.42197 -0.227156 0
M  V30 9342 H 852.385 3.80253 1.8162 0
M  V30 9343 H 851.109 2.57492 2.00912 0
M  V30 9344 H 849.768 3.66185 0.174402 0
M  V30 9345 H 849.416 4.33076 2.5584 0
M  V30 9346 H 849.116 5.69392 1.45142 0
M  V30 9347 H 850.64 5.62259 2.38111 0
M  V30 9348 H 852.054 5.7319 0.112307 0
M  V30 9349 H 850.451 5.96642 -0.643324 0
M  V30 9350 H 851.521 4.68676 -1.24381 0
M  V30 9351 N 852.864 0.259585 1.55447 0
M  V30 9352 C 853.811 -0.634578 2.21905 0
M  V30 9353 C 854.781 -1.16168 1.18719 0
M  V30 9354 O 855.966 -1.21383 1.4721 0
M  V30 9355 C 853.106 -1.82005 2.93203 0
M  V30 9356 C 852.219 -1.32828 4.11073 0
M  V30 9357 C 851.354 -2.47431 4.70055 0
M  V30 9358 C 850.393 -1.95179 5.80148 0
M  V30 9359 N 849.53 -3.03197 6.33258 0
M  V30 9360 H 854.37 -0.0611886 2.97937 0
M  V30 9361 H 851.907 -0.0184378 1.47088 0
M  V30 9362 H 853.865 -2.51664 3.32748 0
M  V30 9363 H 852.495 -2.36571 2.19622 0
M  V30 9364 H 851.547 -0.525301 3.76756 0
M  V30 9365 H 852.859 -0.905435 4.90513 0
M  V30 9366 H 852.013 -3.25111 5.12238 0
M  V30 9367 H 850.752 -2.93023 3.89857 0
M  V30 9368 H 849.757 -1.15974 5.37429 0
M  V30 9369 H 850.982 -1.50541 6.62204 0
M  V30 9370 H 848.928 -3.48199 5.55961 0
M  V30 9371 H 848.845 -2.65282 7.07928 0
M  V30 9372 H 850.113 -3.80898 6.80101 0
M  V30 9373 N 854.342 -1.57594 -0.0133615 0
M  V30 9374 C 855.753 -1.78168 -0.557937 0
M  V30 9375 C 856.104 -0.892616 -1.74719 0
M  V30 9376 O 855.229 -0.0915491 -2.16206 0
M  V30 9377 C 855.824 -3.23115 -1.01894 0
M  V30 9378 C 854.383 -3.44831 -1.50892 0
M  V30 9379 C 853.53 -2.73558 -0.454044 0
M  V30 9380 H 856.481 -1.57266 0.212843 0
M  V30 9381 H 856.502 -3.30493 -1.8856 0
M  V30 9382 H 856.014 -3.87798 -0.153175 0
M  V30 9383 H 854.115 -2.85345 -2.39602 0
M  V30 9384 H 854.228 -4.53485 -1.54559 0
M  V30 9385 H 852.592 -2.37787 -0.912666 0
M  V30 9386 H 853.375 -3.40932 0.402524 0
M  V30 9387 N 855.82 0.285905 -1.54985 0
M  V30 9388 C 856.73 1.37534 -1.90057 0
M  V30 9389 C 857.746 1.54707 -0.796348 0
M  V30 9390 O 858.922 1.69082 -1.09423 0
M  V30 9391 C 855.987 2.7167 -2.15398 0
M  V30 9392 C 855.048 2.63354 -3.39033 0
M  V30 9393 C 854.281 3.91093 -3.63155 0
M  V30 9394 O 854.504 4.91169 -2.90015 0
M  V30 9395 O 853.438 3.92075 -4.56685 0
M  V30 9396 H 857.264 1.10791 -2.8277 0
M  V30 9397 H 854.849 0.483303 -1.41367 0
M  V30 9398 H 856.731 3.51006 -2.33179 0
M  V30 9399 H 855.406 2.98226 -1.25868 0
M  V30 9400 H 854.313 1.82438 -3.26599 0
M  V30 9401 H 855.646 2.41749 -4.2874 0
M  V30 9402 N 857.298 1.47698 0.54982 0
M  V30 9403 C 858.246 1.61156 1.67724 0
M  V30 9404 C 859.24 0.478606 1.62498 0
M  V30 9405 O 860.446 0.656661 1.67595 0
M  V30 9406 H 856.821 0.507304 0.55511 0
M  V30 9407 H 858.792 2.55884 1.53512 0
M  V30 9408 C 857.541 1.64994 3.06059 0
M  V30 9409 H 856.864 2.51525 3.10765 0
M  V30 9410 H 858.304 1.78459 3.84615 0
M  V30 9411 C 856.763 0.384677 3.34697 0
M  V30 9412 O 857.293 -0.511057 3.98436 0
M  V30 9413 N 855.499 0.262434 2.89413 0
M  V30 9414 H 855.046 0.99229 2.37721 0
M  V30 9415 H 855.004 -0.583177 3.08944 0
M  V30 9416 N 858.776 -0.797141 1.35954 0
M  V30 9417 C 859.706 -1.92387 1.32323 0
M  V30 9418 C 860.687 -1.68967 0.196007 0
M  V30 9419 O 861.872 -1.90193 0.39245 0
M  V30 9420 C 859.002 -3.29286 1.10398 0
M  V30 9421 C 857.956 -3.67212 2.19862 0
M  V30 9422 C 857.282 -5.02377 1.8309 0
M  V30 9423 C 858.582 -3.76602 3.61896 0
M  V30 9424 H 860.276 -1.95683 2.26602 0
M  V30 9425 H 857.822 -0.94007 1.09081 0
M  V30 9426 H 859.775 -4.07721 1.06495 0
M  V30 9427 H 858.499 -3.26358 0.125668 0
M  V30 9428 H 857.158 -2.91069 2.22878 0
M  V30 9429 H 856.806 -4.95961 0.838527 0
M  V30 9430 H 856.506 -5.28722 2.56372 0
M  V30 9431 H 858.03 -5.8324 1.80729 0
M  V30 9432 H 859.444 -4.45246 3.6115 0
M  V30 9433 H 857.841 -4.14425 4.34018 0
M  V30 9434 H 858.911 -2.77906 3.97361 0
M  V30 9435 N 860.254 -1.20106 -1.0204 0
M  V30 9436 C 861.503 -1.00316 -1.74985 0
M  V30 9437 C 861.816 0.465814 -1.89972 0
M  V30 9438 O 863.022 0.782749 -2.59972 0
M  V30 9439 C 861.478 -1.74608 -3.14706 0
M  V30 9440 C 861.086 -3.25573 -3.07744 0
M  V30 9441 C 862.83 -1.63172 -3.91887 0
M  V30 9442 C 860.737 -3.92419 -4.42449 0
M  V30 9443 H 859.667 -0.371728 -0.655999 0
M  V30 9444 H 862.318 -1.43688 -1.14131 0
M  V30 9445 H 860.7 -1.24021 -3.76078 0
M  V30 9446 H 861.874 -3.83345 -2.55702 0
M  V30 9447 H 860.189 -3.3738 -2.44057 0
M  V30 9448 H 862.786 -2.10457 -4.9154 0
M  V30 9449 H 863.129 -0.58728 -4.12137 0
M  V30 9450 H 863.662 -2.11152 -3.37135 0
M  V30 9451 H 860.401 -4.96998 -4.27403 0
M  V30 9452 H 859.921 -3.39436 -4.94513 0
M  V30 9453 H 861.6 -3.96453 -5.11306 0
M  V30 9454 N 861.732 1.21287 -1.00634 0
M  V30 9455 C 862.662 2.25973 -0.588089 0
M  V30 9456 C 863.643 1.65527 0.391764 0
M  V30 9457 O 864.828 1.92179 0.279452 0
M  V30 9458 C 861.958 3.47197 0.0847336 0
M  V30 9459 C 860.912 4.20168 -0.815039 0
M  V30 9460 C 860.238 5.34699 -0.00855393 0
M  V30 9461 C 861.538 4.77416 -2.11828 0
M  V30 9462 H 863.232 2.61212 -1.46317 0
M  V30 9463 H 860.778 1.25563 -0.704985 0
M  V30 9464 H 862.731 4.19602 0.388821 0
M  V30 9465 H 861.455 3.11092 0.994456 0
M  V30 9466 H 860.114 3.49614 -1.10297 0
M  V30 9467 H 859.762 4.94837 0.902499 0
M  V30 9468 H 859.462 5.84449 -0.607664 0
M  V30 9469 H 860.986 6.09914 0.289317 0
M  V30 9470 H 862.4 5.41694 -1.87725 0
M  V30 9471 H 860.797 5.37561 -2.66736 0
M  V30 9472 H 861.867 3.96724 -2.78816 0
M  V30 9473 N 863.21 0.781244 1.36873 0
M  V30 9474 C 864.487 0.274217 1.93668 0
M  V30 9475 C 864.867 -1.2323 1.71399 0
M  V30 9476 O 864.215 -2.01993 1.06822 0
M  V30 9477 C 864.425 0.657939 3.42742 0
M  V30 9478 C 865.773 0.63307 4.19854 0
M  V30 9479 O 866.797 0.597909 3.51146 0
M  V30 9480 O 865.656 0.668636 5.42394 0
M  V30 9481 H 862.75 0.0658059 0.824378 0
M  V30 9482 H 865.296 0.863238 1.46104 0
M  V30 9483 H 864.068 1.69728 3.52573 0
M  V30 9484 H 863.691 0.0423678 3.97577 0
M  V30 9485 N 864.689 -1.48329 0.532571 0
M  V30 9486 C 865.652 -2.2816 -0.218069 0
M  V30 9487 C 866.652 -1.35526 -0.865409 0
M  V30 9488 O 867.842 -1.58394 -0.725061 0
M  V30 9489 C 864.974 -3.1448 -1.31586 0
M  V30 9490 H 866.167 -2.95987 0.482865 0
M  V30 9491 H 863.72 -1.53612 0.288603 0
M  V30 9492 H 864.455 -2.5129 -2.04997 0
M  V30 9493 H 864.24 -3.82625 -0.856779 0
M  V30 9494 H 865.73 -3.74693 -1.84377 0
M  V30 9495 N 866.167 -0.267825 -1.55308 0
M  V30 9496 C 867.077 0.633055 -2.25897 0
M  V30 9497 C 868.093 1.17613 -1.28231 0
M  V30 9498 O 869.269 1.20797 -1.61153 0
M  V30 9499 C 866.334 1.80397 -2.96071 0
M  V30 9500 C 865.395 1.29829 -4.09198 0
M  V30 9501 C 864.628 2.4134 -4.76016 0
M  V30 9502 O 864.851 3.60537 -4.42006 0
M  V30 9503 O 863.785 2.09909 -5.64111 0
M  V30 9504 H 867.611 0.0614381 -3.03638 0
M  V30 9505 H 865.196 -0.0355072 -1.49358 0
M  V30 9506 H 867.078 2.48685 -3.40197 0
M  V30 9507 H 865.753 2.36281 -2.21253 0
M  V30 9508 H 864.66 0.582086 -3.69544 0
M  V30 9509 H 865.993 0.785288 -4.85895 0
M  V30 9510 N 867.645 1.57599 0.00500368 0
M  V30 9511 C 868.893 1.89973 0.68953 0
M  V30 9512 C 869.214 0.868531 1.7459 0
M  V30 9513 O 868.484 -0.0947367 1.95671 0
M  V30 9514 H 867.064 0.701153 0.25767 0
M  V30 9515 H 869.726 1.94869 -0.0347392 0
M  V30 9516 H 868.822 2.89584 1.16394 0
M  V30 9517 N 869.123 -0.277682 1.55134 0
M  V30 9518 C 870.353 -1.02677 1.79279 0
M  V30 9519 C 870.761 -1.80599 0.563962 0
M  V30 9520 O 870.104 -1.77416 -0.476378 0
M  V30 9521 C 870.166 -2.03617 2.96277 0
M  V30 9522 C 869.83 -1.44676 4.33495 0
M  V30 9523 C 870.827 -0.864811 5.12657 0
M  V30 9524 C 868.512 -1.47537 4.80144 0
M  V30 9525 C 870.506 -0.319322 6.366 0
M  V30 9526 C 868.193 -0.926016 6.04043 0
M  V30 9527 C 869.191 -0.348988 6.82108 0
M  V30 9528 O 868.879 0.191964 8.03671 0
M  V30 9529 H 868.611 -0.309232 0.601125 0
M  V30 9530 H 871.165 -0.315308 2.02965 0
M  V30 9531 H 869.395 -2.78509 2.68272 0
M  V30 9532 H 871.084 -2.64616 3.07788 0
M  V30 9533 H 871.85 -0.835438 4.7775 0
M  V30 9534 H 867.729 -1.91389 4.19394 0
M  V30 9535 H 871.273 0.131709 6.97476 0
M  V30 9536 H 867.17 -0.952613 6.38432 0
M  V30 9537 H 867.938 0.0808779 8.1846 0
M  V30 9538 N 870.601 -1.47988 -0.541979 0
M  V30 9539 C 871.531 -1.64503 -1.65713 0
M  V30 9540 C 872.512 -0.494116 -1.62765 0
M  V30 9541 O 873.697 -0.725256 -1.80149 0
M  V30 9542 C 870.827 -1.67337 -3.04328 0
M  V30 9543 C 869.781 -2.81809 -3.2213 0
M  V30 9544 C 869.107 -2.69724 -4.61685 0
M  V30 9545 C 870.407 -4.23241 -3.06046 0
M  V30 9546 H 872.101 -2.5786 -1.52147 0
M  V30 9547 H 869.647 -1.24094 -0.730529 0
M  V30 9548 H 871.6 -1.77481 -3.82202 0
M  V30 9549 H 870.324 -0.705514 -3.18889 0
M  V30 9550 H 868.983 -2.71201 -2.46669 0
M  V30 9551 H 868.631 -1.70934 -4.73065 0
M  V30 9552 H 868.331 -3.4653 -4.74543 0
M  V30 9553 H 869.855 -2.81818 -5.41674 0
M  V30 9554 H 871.269 -4.34746 -3.73723 0
M  V30 9555 H 869.666 -5.00952 -3.30405 0
M  V30 9556 H 870.736 -4.40543 -2.02609 0
M  V30 9557 N 872.079 0.78992 -1.36375 0
M  V30 9558 C 873.026 1.90254 -1.3066 0
M  V30 9559 C 873.996 1.65171 -0.17539 0
M  V30 9560 O 875.181 1.87338 -0.361824 0
M  V30 9561 C 872.321 3.27057 -1.10125 0
M  V30 9562 C 871.434 3.64215 -2.32317 0
M  V30 9563 C 870.569 4.90134 -2.04798 0
M  V30 9564 C 869.608 5.19969 -3.22953 0
M  V30 9565 N 868.745 6.37071 -2.95102 0
M  V30 9566 H 873.585 1.94474 -2.25796 0
M  V30 9567 H 871.122 0.951022 -1.12223 0
M  V30 9568 H 873.08 4.05947 -0.962453 0
M  V30 9569 H 871.71 3.22261 -0.186444 0
M  V30 9570 H 870.762 2.80454 -2.57002 0
M  V30 9571 H 872.074 3.82212 -3.20492 0
M  V30 9572 H 871.228 5.76888 -1.87845 0
M  V30 9573 H 869.967 4.74205 -1.13932 0
M  V30 9574 H 868.972 4.31699 -3.40465 0
M  V30 9575 H 870.197 5.37817 -4.14644 0
M  V30 9576 H 868.143 6.22535 -2.06848 0
M  V30 9577 H 868.06 6.55398 -3.76815 0
M  V30 9578 H 869.328 7.26808 -2.81727 0
M  V30 9579 N 873.557 1.20646 1.01402 0
M  V30 9580 C 874.487 0.98155 2.11867 0
M  V30 9581 C 875.468 -0.0903712 1.6986 0
M  V30 9582 O 876.653 0.0676586 1.94082 0
M  V30 9583 C 873.783 0.535636 3.43145 0
M  V30 9584 C 872.737 1.55109 3.98905 0
M  V30 9585 C 872.063 0.961725 5.2598 0
M  V30 9586 C 873.363 2.93552 4.32001 0
M  V30 9587 H 875.057 1.90544 2.3094 0
M  V30 9588 H 872.603 0.917554 1.10982 0
M  V30 9589 H 874.556 0.365512 4.19812 0
M  V30 9590 H 873.28 -0.423882 3.23838 0
M  V30 9591 H 871.939 1.70862 3.24348 0
M  V30 9592 H 871.587 -0.00580108 5.03 0
M  V30 9593 H 871.287 1.63993 5.64252 0
M  V30 9594 H 872.811 0.802726 6.053 0
M  V30 9595 H 874.225 2.81295 4.99546 0
M  V30 9596 H 872.622 3.58303 4.81393 0
M  V30 9597 H 873.692 3.4508 3.40658 0
M  V30 9598 N 875.035 -1.20752 1.01276 0
M  V30 9599 C 876.281 -1.90302 0.700924 0
M  V30 9600 C 876.614 -1.78406 -0.767142 0
M  V30 9601 O 875.889 -1.16575 -1.55694 0
M  V30 9602 C 876.172 -3.41831 1.13242 0
M  V30 9603 C 876.025 -3.6268 2.66051 0
M  V30 9604 C 877.344 -4.34486 0.700738 0
M  V30 9605 H 874.463 -0.69107 0.256107 0
M  V30 9606 H 877.105 -1.42227 1.25982 0
M  V30 9607 H 875.255 -3.82906 0.656902 0
M  V30 9608 H 876.927 -3.30882 3.21426 0
M  V30 9609 H 875.17 -3.06281 3.07204 0
M  V30 9610 H 875.841 -4.68882 2.91296 0
M  V30 9611 H 878.317 -4.01036 1.10948 0
M  V30 9612 H 877.193 -5.39136 1.03073 0
M  V30 9613 H 877.454 -4.40307 -0.39778 0
M  V30 9614 N 876.513 -0.788492 -1.36457 0
M  V30 9615 C 877.79 -0.284484 -1.9352 0
M  V30 9616 C 878.17 1.2232 -1.7205 0
M  V30 9617 O 877.518 2.01424 -1.07892 0
M  V30 9618 C 877.728 -0.676106 -3.42388 0
M  V30 9619 C 879.076 -0.655327 -4.19512 0
M  V30 9620 O 880.1 -0.616523 -3.50824 0
M  V30 9621 O 878.959 -0.697391 -5.42032 0
M  V30 9622 H 876.053 -0.0701769 -0.824017 0
M  V30 9623 H 878.599 -0.870974 -1.45644 0
M  V30 9624 H 877.371 -1.71596 -3.51668 0
M  V30 9625 H 876.994 -0.0634517 -3.97549 0
M  V30 9626 N 877.991 1.48044 -0.54043 0
M  V30 9627 C 879.238 2.02497 -0.0101567 0
M  V30 9628 C 879.566 1.41651 1.33286 0
M  V30 9629 O 878.821 0.555504 1.8765 0
M  V30 9630 C 879.12 3.57085 0.150008 0
M  V30 9631 C 878.786 4.36769 -1.11998 0
M  V30 9632 C 877.448 4.58261 -1.46801 0
M  V30 9633 C 879.8 4.82848 -1.96232 0
M  V30 9634 C 877.128 5.23079 -2.65717 0
M  V30 9635 C 879.48 5.48977 -3.14335 0
M  V30 9636 C 878.144 5.68705 -3.49472 0
M  V30 9637 H 877.414 0.740991 -0.00371661 0
M  V30 9638 H 880.061 1.77909 -0.708562 0
M  V30 9639 H 878.366 3.80572 0.931259 0
M  V30 9640 H 880.063 3.96851 0.575384 0
M  V30 9641 H 876.653 4.20309 -0.838957 0
M  V30 9642 H 880.837 4.66038 -1.70654 0
M  V30 9643 H 876.093 5.36549 -2.93129 0
M  V30 9644 H 880.267 5.83649 -3.79904 0
M  V30 9645 H 877.894 6.18703 -4.41713 0
M  V30 9646 N 879.47 0.276058 1.55163 0
M  V30 9647 C 880.718 -0.339782 1.99223 0
M  V30 9648 C 881.039 -1.56307 1.16589 0
M  V30 9649 O 880.309 -1.94225 0.25564 0
M  V30 9650 H 878.889 -0.128534 0.735859 0
M  V30 9651 H 881.551 0.381612 1.91128 0
M  V30 9652 H 880.647 -0.629 3.05696 0
M  V30 9653 N 880.948 -1.576 0.00335426 0
M  V30 9654 C 882.195 -1.90713 -0.680791 0
M  V30 9655 C 882.523 -0.877263 -1.73592 0
M  V30 9656 O 881.778 0.117497 -1.95347 0
M  V30 9657 C 882.077 -3.3058 -1.35837 0
M  V30 9658 C 881.743 -4.48786 -0.436111 0
M  V30 9659 C 880.405 -4.80855 -0.182195 0
M  V30 9660 C 882.757 -5.20821 0.198677 0
M  V30 9661 C 880.085 -5.8233 0.714747 0
M  V30 9662 C 882.437 -6.23252 1.08351 0
M  V30 9663 C 881.101 -6.53776 1.34658 0
M  V30 9664 H 880.371 -0.697869 -0.249119 0
M  V30 9665 H 883.018 -1.91407 0.0596011 0
M  V30 9666 H 881.323 -3.26026 -2.17289 0
M  V30 9667 H 883.02 -3.53462 -1.89383 0
M  V30 9668 H 879.61 -4.23731 -0.644186 0
M  V30 9669 H 883.794 -4.96298 0.0155259 0
M  V30 9670 H 879.05 -6.04339 0.926529 0
M  V30 9671 H 883.224 -6.78199 1.58172 0
M  V30 9672 H 880.851 -7.32225 2.04328 0
M  V30 9673 N 882.426 0.269451 -1.5528 0
M  V30 9674 C 883.389 1.31642 -1.87625 0
M  V30 9675 C 884.389 1.42182 -0.751058 0
M  V30 9676 O 885.579 1.41272 -1.01921 0
M  V30 9677 C 882.711 2.6973 -2.08467 0
M  V30 9678 H 883.904 1.0419 -2.81219 0
M  V30 9679 H 881.457 0.507685 -1.47825 0
M  V30 9680 H 882.192 3.02356 -1.17266 0
M  V30 9681 H 881.977 2.63465 -2.90394 0
M  V30 9682 H 883.467 3.4537 -2.34753 0
M  V30 9683 N 883.904 1.48273 0.534124 0
M  V30 9684 C 884.851 1.62487 1.6391 0
M  V30 9685 C 885.821 0.467062 1.59398 0
M  V30 9686 O 887.006 0.690029 1.77885 0
M  V30 9687 C 884.146 1.66671 3.02183 0
M  V30 9688 C 883.259 2.9353 3.16961 0
M  V30 9689 C 882.394 2.88902 4.45768 0
M  V30 9690 C 881.433 4.10483 4.54059 0
M  V30 9691 N 880.57 4.03956 5.74251 0
M  V30 9692 H 885.41 2.56851 1.51101 0
M  V30 9693 H 882.947 1.27381 0.735704 0
M  V30 9694 H 884.905 1.67079 3.82283 0
M  V30 9695 H 883.535 0.758011 3.13774 0
M  V30 9696 H 882.587 3.02886 2.3014 0
M  V30 9697 H 883.899 3.83501 3.18949 0
M  V30 9698 H 883.053 2.87688 5.34154 0
M  V30 9699 H 881.792 1.96652 4.46295 0
M  V30 9700 H 880.797 4.11977 3.64081 0
M  V30 9701 H 882.022 5.03887 4.55274 0
M  V30 9702 H 879.968 3.14525 5.75682 0
M  V30 9703 H 879.885 4.87628 5.77715 0
M  V30 9704 H 881.153 4.06795 6.64935 0
M  V30 9705 N 885.382 -0.782676 1.36792 0
M  V30 9706 C 886.329 -1.89558 1.31667 0
M  V30 9707 C 887.299 -1.65076 0.184147 0
M  V30 9708 O 888.484 -1.87143 0.371753 0
M  V30 9709 C 885.624 -3.26469 1.11858 0
M  V30 9710 C 884.737 -3.62978 2.34245 0
M  V30 9711 C 883.872 -4.89041 2.07394 0
M  V30 9712 C 882.911 -5.18249 3.25706 0
M  V30 9713 N 882.048 -6.35497 2.98476 0
M  V30 9714 H 886.888 -1.93274 2.26824 0
M  V30 9715 H 884.425 -0.945057 1.12726 0
M  V30 9716 H 886.383 -4.05431 0.983968 0
M  V30 9717 H 885.013 -3.22158 0.203531 0
M  V30 9718 H 884.065 -2.79087 2.58485 0
M  V30 9719 H 885.377 -3.80507 3.22514 0
M  V30 9720 H 884.531 -5.75883 1.90901 0
M  V30 9721 H 883.27 -4.73594 1.16446 0
M  V30 9722 H 882.275 -4.29887 3.4275 0
M  V30 9723 H 883.5 -5.35611 4.1749 0
M  V30 9724 H 881.446 -6.21429 2.10146 0
M  V30 9725 H 881.363 -6.5339 3.80286 0
M  V30 9726 H 882.631 -7.25304 2.85577 0
M  V30 9727 N 886.86 -1.21182 -1.00761 0
M  V30 9728 C 888.109 -1.02166 -1.73911 0
M  V30 9729 C 888.422 0.445638 -1.90456 0
M  V30 9730 O 889.628 0.755132 -2.60787 0
M  V30 9731 C 888.084 -1.77936 -3.12837 0
M  V30 9732 C 887.692 -3.28819 -3.04273 0
M  V30 9733 C 889.436 -1.67319 -3.90134 0
M  V30 9734 C 887.343 -3.97089 -4.38262 0
M  V30 9735 H 886.273 -0.378665 -0.652019 0
M  V30 9736 H 888.924 -1.44891 -1.12601 0
M  V30 9737 H 887.306 -1.28003 -3.74742 0
M  V30 9738 H 888.48 -3.86035 -2.51622 0
M  V30 9739 H 886.795 -3.39949 -2.40465 0
M  V30 9740 H 889.392 -2.15659 -4.8928 0
M  V30 9741 H 889.735 -0.630959 -4.11491 0
M  V30 9742 H 890.268 -2.14716 -3.34876 0
M  V30 9743 H 887.007 -5.01503 -4.22107 0
M  V30 9744 H 886.527 -3.44662 -4.90885 0
M  V30 9745 H 888.206 -4.01854 -5.07072 0
M  V30 9746 N 888.338 1.20213 -1.01915 0
M  V30 9747 C 889.586 1.89272 -0.708552 0
M  V30 9748 C 889.907 1.79394 0.76438 0
M  V30 9749 O 889.177 1.198 1.54999 0
M  V30 9750 H 887.757 0.700628 -0.259094 0
M  V30 9751 H 890.419 1.45985 -1.29129 0
M  V30 9752 H 889.515 2.95841 -0.994215 0
M  V30 9753 N 889.816 0.795718 1.36037 0
M  V30 9754 C 891.041 0.38204 2.03851 0
M  V30 9755 C 891.466 -0.995553 1.59594 0
M  V30 9756 O 890.824 -1.64258 0.767401 0
M  V30 9757 C 890.872 0.461248 3.57638 0
M  V30 9758 O 889.976 -0.529448 4.08987 0
M  V30 9759 H 889.317 0.161227 0.644129 0
M  V30 9760 H 891.847 1.07858 1.73861 0
M  V30 9761 H 891.857 0.32712 4.06687 0
M  V30 9762 H 890.532 1.46613 3.89201 0
M  V30 9763 H 889.109 -0.35646 3.71192 0
M  V30 9764 N 891.294 -1.47756 0.548274 0
M  V30 9765 C 892.542 -2.02089 0.0208542 0
M  V30 9766 C 892.863 -1.42589 -1.33017 0
M  V30 9767 O 892.133 -0.597825 -1.86555 0
M  V30 9768 H 890.713 -0.746985 0.00472023 0
M  V30 9769 H 893.375 -1.81262 0.716257 0
M  V30 9770 H 892.471 -3.12012 -0.0739016 0
M  V30 9771 N 892.772 -0.284283 -1.55015 0
M  V30 9772 C 893.704 0.63258 -2.20298 0
M  V30 9773 C 894.717 1.11045 -1.1905 0
M  V30 9774 O 895.906 1.03078 -1.4573 0
M  V30 9775 C 893.006 1.87599 -2.82241 0
M  V30 9776 C 892.179 1.5434 -4.09265 0
M  V30 9777 C 891.238 2.64023 -4.55169 0
M  V30 9778 O 890.264 2.29821 -5.20741 0
M  V30 9779 N 891.466 3.94255 -4.26079 0
M  V30 9780 H 894.231 0.0737928 -2.99609 0
M  V30 9781 H 891.792 -0.105767 -1.61554 0
M  V30 9782 H 893.784 2.60289 -3.0989 0
M  V30 9783 H 892.354 2.3436 -2.06868 0
M  V30 9784 H 891.574 0.649912 -3.88806 0
M  V30 9785 H 892.862 1.29634 -4.92009 0
M  V30 9786 H 892.26 4.24859 -3.73512 0
M  V30 9787 H 890.817 4.63295 -4.58477 0
M  V30 9788 N 894.251 1.57596 -0.0117121 0
M  V30 9789 C 895.198 2.09153 0.975897 0
M  V30 9790 C 896.168 0.989579 1.33404 0
M  V30 9791 O 897.353 1.26273 1.43038 0
M  V30 9792 C 894.493 2.60906 2.2588 0
M  V30 9793 C 893.606 3.85046 1.95866 0
M  V30 9794 C 892.741 4.25257 3.18323 0
M  V30 9795 C 891.78 5.42202 2.84049 0
M  V30 9796 N 890.917 5.77651 3.99079 0
M  V30 9797 H 895.757 2.93261 0.52931 0
M  V30 9798 H 893.294 1.44965 0.249691 0
M  V30 9799 H 895.252 2.88995 3.00895 0
M  V30 9800 H 893.882 1.79654 2.68187 0
M  V30 9801 H 892.934 3.63794 1.11168 0
M  V30 9802 H 894.246 4.70151 1.66611 0
M  V30 9803 H 893.4 4.5469 4.01674 0
M  V30 9804 H 892.139 3.38884 3.50726 0
M  V30 9805 H 891.144 5.1248 1.99107 0
M  V30 9806 H 892.369 6.3026 2.52881 0
M  V30 9807 H 890.315 4.94235 4.31356 0
M  V30 9808 H 890.232 6.57356 3.73388 0
M  V30 9809 H 891.5 6.11681 4.83183 0
M  V30 9810 N 895.729 -0.261212 1.5542 0
M  V30 9811 C 896.957 -1.00916 1.8062 0
M  V30 9812 C 897.372 -1.79494 0.585444 0
M  V30 9813 O 896.729 -1.76974 -0.445702 0
M  V30 9814 C 896.78 -1.95841 3.03856 0
M  V30 9815 O 896.501 -1.20445 4.21218 0
M  V30 9816 C 898.002 -2.82352 3.41749 0
M  V30 9817 H 895.222 -0.297596 0.601397 0
M  V30 9818 H 897.766 -0.288427 2.02456 0
M  V30 9819 H 895.921 -2.63361 2.84112 0
M  V30 9820 H 896.335 -1.84528 4.90968 0
M  V30 9821 H 897.809 -3.44733 4.31118 0
M  V30 9822 H 898.286 -3.5273 2.61683 0
M  V30 9823 H 898.892 -2.20306 3.63793 0
M  V30 9824 N 897.207 -1.48554 -0.526253 0
M  V30 9825 C 898.453 -1.57972 -1.28127 0
M  V30 9826 C 898.808 -0.251973 -1.90743 0
M  V30 9827 O 898.101 0.745524 -1.76501 0
M  V30 9828 C 898.295 -2.65739 -2.38993 0
M  V30 9829 C 898.124 -4.08864 -1.87244 0
M  V30 9830 C 896.894 -4.75959 -1.6968 0
M  V30 9831 C 899.092 -4.94912 -1.39882 0
M  V30 9832 N 897.074 -6.03486 -1.12596 0
M  V30 9833 C 898.445 -6.12714 -0.947696 0
M  V30 9834 C 900.5 -4.81107 -1.2822 0
M  V30 9835 C 899.203 -7.18234 -0.391507 0
M  V30 9836 C 901.229 -5.86752 -0.740001 0
M  V30 9837 C 900.591 -7.03765 -0.298968 0
M  V30 9838 H 896.69 -0.632588 -0.459735 0
M  V30 9839 H 899.274 -1.85452 -0.59294 0
M  V30 9840 H 897.445 -2.40075 -3.05317 0
M  V30 9841 H 899.177 -2.64821 -3.06026 0
M  V30 9842 H 895.932 -4.32351 -1.93312 0
M  V30 9843 H 896.356 -6.71509 -0.860541 0
M  V30 9844 H 900.998 -3.90978 -1.60922 0
M  V30 9845 H 898.716 -8.08083 -0.0521685 0
M  V30 9846 H 902.302 -5.78125 -0.652889 0
M  V30 9847 H 901.182 -7.84117 0.114052 0
M  V30 9848 N 898.685 0.775411 -1.37205 0
M  V30 9849 C 899.913 1.56446 -1.35397 0
M  V30 9850 C 900.328 1.887 0.0615437 0
M  V30 9851 O 899.685 1.51178 1.02233 0
M  V30 9852 C 899.736 2.87697 -2.18889 0
M  V30 9853 O 899.457 2.56828 -3.54924 0
M  V30 9854 C 900.958 3.81944 -2.25019 0
M  V30 9855 H 898.178 0.484792 -0.463916 0
M  V30 9856 H 900.722 0.961346 -1.80495 0
M  V30 9857 H 898.877 3.44442 -1.7731 0
M  V30 9858 H 899.291 3.40851 -3.98649 0
M  V30 9859 H 900.765 4.71055 -2.87769 0
M  V30 9860 H 901.242 4.20811 -1.25757 0
M  V30 9861 H 901.848 3.3113 -2.66895 0
M  V30 9862 N 900.163 1.21714 1.00117 0
M  V30 9863 C 901.41 1.0367 1.73951 0
M  V30 9864 C 901.738 -0.429289 1.89703 0
M  V30 9865 O 900.993 -1.33475 1.43119 0
M  V30 9866 C 901.292 1.68345 3.15269 0
M  V30 9867 C 900.958 3.18214 3.19454 0
M  V30 9868 C 899.62 3.59109 3.20303 0
M  V30 9869 C 901.972 4.14179 3.16394 0
M  V30 9870 C 899.3 4.94467 3.15783 0
M  V30 9871 C 901.652 5.49502 3.13416 0
M  V30 9872 C 900.316 5.8979 3.12577 0
M  V30 9873 H 899.586 0.379355 0.63653 0
M  V30 9874 H 902.233 1.51361 1.17312 0
M  V30 9875 H 900.538 1.12957 3.75164 0
M  V30 9876 H 902.235 1.51882 3.71124 0
M  V30 9877 H 898.825 2.85646 3.19538 0
M  V30 9878 H 903.009 3.83607 3.14895 0
M  V30 9879 H 898.265 5.24923 3.13473 0
M  V30 9880 H 902.439 6.23595 3.10003 0
M  V30 9881 H 900.066 6.94643 3.08829 0
M  V30 9882 N 901.641 -1.19671 1.02551 0
M  V30 9883 C 902.881 -1.90971 0.728668 0
M  V30 9884 C 903.245 -1.7762 -0.729057 0
M  V30 9885 O 904.446 -2.43484 -1.13882 0
M  V30 9886 C 902.717 -3.3794 1.16323 0
M  V30 9887 S 904.276 -4.27493 0.989722 0
M  V30 9888 H 901.094 -0.659617 0.265381 0
M  V30 9889 H 903.696 -1.44698 1.31463 0
M  V30 9890 H 902.4 -3.45181 2.21986 0
M  V30 9891 H 901.931 -3.89243 0.570417 0
M  V30 9892 H 903.946 -4.96096 -0.101666 0
M  V30 9893 N 903.119 -0.802921 -1.35613 0
M  V30 9894 C 904.367 -0.380822 -1.9848 0
M  V30 9895 C 904.688 1.05464 -1.6402 0
M  V30 9896 O 903.958 1.72908 -0.920854 0
M  V30 9897 H 902.538 -0.137824 -0.734176 0
M  V30 9898 H 905.2 -1.02795 -1.65587 0
M  V30 9899 H 904.296 -0.483565 -3.08331 0
M  V30 9900 N 904.597 1.47463 -0.556102 0
M  V30 9901 C 905.825 2.06868 -0.0364585 0
M  V30 9902 C 906.24 1.40893 1.25677 0
M  V30 9903 O 905.597 0.505083 1.75371 0
M  V30 9904 C 905.648 3.61128 0.163984 0
M  V30 9905 O 905.369 4.24629 -1.07803 0
M  V30 9906 C 906.87 4.37397 0.721036 0
M  V30 9907 H 904.09 0.669466 -0.0453399 0
M  V30 9908 H 906.634 1.89482 -0.769198 0
M  V30 9909 H 904.789 3.78031 0.84685 0
M  V30 9910 H 905.203 5.17149 -0.875067 0
M  V30 9911 H 906.677 5.46016 0.810584 0
M  V30 9912 H 907.154 4.03604 1.73206 0
M  V30 9913 H 907.76 4.25236 0.073904 0
M  V30 9914 N 906.075 0.2925 1.54862 0
M  V30 9915 C 907.486 -0.201841 1.85606 0
M  V30 9916 C 907.837 -1.54093 1.21449 0
M  V30 9917 O 906.962 -2.10327 0.509079 0
M  V30 9918 C 907.557 -0.373011 3.3674 0
M  V30 9919 C 906.116 -0.811574 3.67547 0
M  V30 9920 C 905.263 0.0850583 2.7717 0
M  V30 9921 H 908.214 0.513774 1.50153 0
M  V30 9922 H 908.235 -1.20892 3.60785 0
M  V30 9923 H 907.747 0.601751 3.83407 0
M  V30 9924 H 905.848 -1.79719 3.26392 0
M  V30 9925 H 905.961 -0.636853 4.74848 0
M  V30 9926 H 904.325 -0.434224 2.50971 0
M  V30 9927 H 905.108 1.05602 3.26654 0
M  V30 9928 N 907.553 -1.57587 0.0200696 0
M  V30 9929 C 908.463 -2.13119 -0.980676 0
M  V30 9930 C 909.479 -1.08124 -1.36328 0
M  V30 9931 O 910.655 -1.40134 -1.44653 0
M  V30 9932 C 907.72 -2.63991 -2.24743 0
M  V30 9933 C 906.781 -3.83667 -1.9261 0
M  V30 9934 C 906.014 -4.32103 -3.13246 0
M  V30 9935 O 906.237 -3.79758 -4.25606 0
M  V30 9936 O 905.171 -5.24047 -2.96072 0
M  V30 9937 H 908.997 -2.98887 -0.538528 0
M  V30 9938 H 906.582 -1.48055 -0.19999 0
M  V30 9939 H 908.464 -2.9682 -2.99125 0
M  V30 9940 H 907.139 -1.81311 -2.68157 0
M  V30 9941 H 906.046 -3.55778 -1.15641 0
M  V30 9942 H 907.379 -4.67482 -1.54019 0
M  V30 9943 N 909.032 0.252966 -1.55557 0
M  V30 9944 C 910.262 0.998115 -1.8089 0
M  V30 9945 C 910.67 1.79679 -0.592623 0
M  V30 9946 O 910.013 1.78151 0.448093 0
M  V30 9947 C 910.075 1.98878 -2.99479 0
M  V30 9948 C 909.739 1.37761 -4.35742 0
M  V30 9949 C 910.736 0.783142 -5.13968 0
M  V30 9950 C 908.421 1.39879 -4.8243 0
M  V30 9951 C 910.415 0.218004 -6.37027 0
M  V30 9952 C 908.102 0.829801 -6.0544 0
M  V30 9953 C 909.1 0.240426 -6.82577 0
M  V30 9954 O 908.788 -0.319797 -8.03264 0
M  V30 9955 H 908.52 0.29963 -0.605969 0
M  V30 9956 H 911.074 0.282978 -2.03441 0
M  V30 9957 H 909.304 2.74206 -2.72669 0
M  V30 9958 H 910.993 2.59686 -3.11959 0
M  V30 9959 H 911.759 0.759326 -4.79019 0
M  V30 9960 H 907.638 1.84692 -4.22386 0
M  V30 9961 H 911.182 -0.242654 -6.97178 0
M  V30 9962 H 907.079 0.850924 -6.39867 0
M  V30 9963 H 907.847 -0.211078 -8.18228 0
M  V30 9964 N 910.51 1.48831 0.518367 0
M  V30 9965 C 911.756 1.57672 1.27543 0
M  V30 9966 C 912.089 0.254915 1.9252 0
M  V30 9967 O 911.364 -0.740107 1.79868 0
M  V30 9968 C 911.647 2.72345 2.35585 0
M  V30 9969 C 911.5 4.14267 1.75224 0
M  V30 9970 C 912.819 2.82726 3.37274 0
M  V30 9971 H 909.938 0.573926 0.462361 0
M  V30 9972 H 912.58 1.8105 0.576267 0
M  V30 9973 H 910.73 2.52543 2.95219 0
M  V30 9974 H 912.402 4.45539 1.19551 0
M  V30 9975 H 910.645 4.20724 1.05706 0
M  V30 9976 H 911.316 4.90345 2.53507 0
M  V30 9977 H 913.792 3.00699 2.8761 0
M  V30 9978 H 912.668 3.6467 4.10252 0
M  V30 9979 H 912.929 1.9136 3.9854 0
M  V30 9980 N 911.988 -0.768124 1.37614 0
M  V30 9981 C 912.951 -1.86314 1.3349 0
M  V30 9982 C 913.951 -1.59025 0.23823 0
M  V30 9983 O 915.141 -1.6704 0.494288 0
M  V30 9984 C 912.273 -3.23519 1.07462 0
M  V30 9985 H 913.466 -1.91382 2.30896 0
M  V30 9986 H 911.019 -0.968267 1.22696 0
M  V30 9987 H 911.754 -3.24127 0.106028 0
M  V30 9988 H 911.539 -3.44719 1.86846 0
M  V30 9989 H 913.029 -4.03597 1.07236 0
M  V30 9990 N 913.466 -1.22244 -0.994698 0
M  V30 9991 C 914.877 -1.043 -1.5485 0
M  V30 9992 C 915.228 0.394102 -1.92201 0
M  V30 9993 O 914.353 1.27883 -1.74571 0
M  V30 9994 C 914.948 -1.88708 -2.8138 0
M  V30 9995 C 913.507 -1.75067 -3.3321 0
M  V30 9996 C 912.654 -1.85286 -2.06312 0
M  V30 9997 H 915.605 -1.36115 -0.815988 0
M  V30 9998 H 915.626 -1.40342 -3.53673 0
M  V30 9999 H 915.138 -2.93296 -2.54164 0
M  V30 10000 H 913.239 -0.732047 -3.65338 0
M  V30 10001 H 913.352 -2.57632 -4.03934 0
M  V30 10002 H 911.716 -1.28706 -2.19788 0
M  V30 10003 H 912.499 -2.91401 -1.81494 0
M  V30 10004 N 914.944 1.19125 -1.03184 0
M  V30 10005 C 915.854 2.26112 -0.625329 0
M  V30 10006 C 916.87 1.7056 0.344298 0
M  V30 10007 O 918.046 2.0039 0.20144 0
M  V30 10008 C 915.111 3.46697 0.0145169 0
M  V30 10009 C 914.172 4.17419 -1.00299 0
M  V30 10010 C 913.405 5.32247 -0.393581 0
M  V30 10011 O 913.628 5.64724 0.802659 0
M  V30 10012 O 912.562 5.91428 -1.1179 0
M  V30 10013 H 916.388 2.63131 -1.51643 0
M  V30 10014 H 913.973 1.26036 -0.802197 0
M  V30 10015 H 915.855 4.19762 0.371139 0
M  V30 10016 H 914.53 3.11521 0.879581 0
M  V30 10017 H 913.437 3.4646 -1.41125 0
M  V30 10018 H 914.77 4.56573 -1.83852 0
M  V30 10019 N 916.422 0.810101 1.35185 0
M  V30 10020 C 917.668 0.392698 1.98962 0
M  V30 10021 C 918.001 -1.03835 1.64109 0
M  V30 10022 O 917.276 -1.721 0.9062 0
M  V30 10023 C 917.559 0.580349 3.55393 0
M  V30 10024 C 917.412 2.05658 4.00031 0
M  V30 10025 C 918.731 0.00822618 4.40099 0
M  V30 10026 H 915.85 0.144157 0.722764 0
M  V30 10027 H 918.492 1.02029 1.60281 0
M  V30 10028 H 916.642 0.0461106 3.88473 0
M  V30 10029 H 918.314 2.65348 3.77344 0
M  V30 10030 H 916.557 2.55174 3.50811 0
M  V30 10031 H 917.228 2.13875 5.08883 0
M  V30 10032 H 919.704 0.464517 4.13499 0
M  V30 10033 H 918.58 0.169414 5.48638 0
M  V30 10034 H 918.841 -1.08576 4.2856 0
M  V30 10035 N 917.9 -1.47166 0.563914 0
M  V30 10036 C 919.149 -2.0166 0.0401871 0
M  V30 10037 C 919.462 -1.44303 -1.32046 0
M  V30 10038 O 920.668 -1.905 -1.93448 0
M  V30 10039 C 919.124 -3.59894 0.0213257 0
M  V30 10040 C 918.732 -4.26244 1.37914 0
M  V30 10041 C 920.476 -4.22114 -0.449442 0
M  V30 10042 C 918.383 -5.76503 1.31902 0
M  V30 10043 H 917.313 -0.753916 0.0112534 0
M  V30 10044 H 919.964 -1.69091 0.712766 0
M  V30 10045 H 918.346 -3.89454 -0.717038 0
M  V30 10046 H 919.52 -4.08317 2.13574 0
M  V30 10047 H 917.835 -3.76039 1.78839 0
M  V30 10048 H 920.432 -5.32234 -0.51292 0
M  V30 10049 H 920.775 -3.89749 -1.46291 0
M  V30 10050 H 921.308 -3.9711 0.23427 0
M  V30 10051 H 918.047 -6.13498 2.3087 0
M  V30 10052 H 917.567 -5.96748 0.604324 0
M  V30 10053 H 919.246 -6.38846 1.02392 0
M  V30 10054 N 919.378 -0.300708 -1.54705 0
M  V30 10055 C 920.308 0.568675 -2.26469 0
M  V30 10056 C 921.289 1.13817 -1.26411 0
M  V30 10057 O 922.474 1.16756 -1.55183 0
M  V30 10058 C 919.604 1.74077 -3.00524 0
M  V30 10059 C 918.558 1.30165 -4.07727 0
M  V30 10060 C 917.884 2.55888 -4.69495 0
M  V30 10061 C 919.184 0.433106 -5.20501 0
M  V30 10062 H 920.878 -0.0298851 -2.99385 0
M  V30 10063 H 918.424 -0.0158135 -1.43991 0
M  V30 10064 H 920.377 2.35506 -3.49449 0
M  V30 10065 H 919.101 2.36556 -2.25186 0
M  V30 10066 H 917.76 0.710414 -3.59651 0
M  V30 10067 H 917.408 3.16681 -3.90797 0
M  V30 10068 H 917.108 2.27207 -5.41895 0
M  V30 10069 H 918.632 3.18121 -5.21183 0
M  V30 10070 H 920.046 0.95307 -5.65322 0
M  V30 10071 H 918.443 0.240085 -5.9962 0
M  V30 10072 H 919.513 -0.541866 -4.81863 0
M  V30 10073 N 920.856 1.57574 -0.0284266 0
M  V30 10074 C 921.804 2.11332 0.971675 0
M  V30 10075 C 922.798 1.03974 1.33738 0
M  V30 10076 O 924.004 1.22409 1.31969 0
M  V30 10077 H 920.379 0.675174 0.331125 0
M  V30 10078 H 922.35 2.943 0.49296 0
M  V30 10079 C 921.099 2.65496 2.24516 0
M  V30 10080 H 920.422 3.47753 1.9725 0
M  V30 10081 H 921.862 3.06757 2.92705 0
M  V30 10082 C 920.321 1.58207 2.97443 0
M  V30 10083 O 920.851 0.981496 3.89525 0
M  V30 10084 N 919.057 1.30269 2.59766 0
M  V30 10085 H 918.604 1.79294 1.84963 0
M  V30 10086 H 918.562 0.587085 3.0887 0
M  V30 10087 N 922.334 -0.244713 1.55689 0
M  V30 10088 C 923.281 -1.30301 1.905 0
M  V30 10089 C 924.251 -1.4772 0.759478 0
M  V30 10090 O 925.436 -1.61667 1.01333 0
M  V30 10091 C 922.576 -2.653 2.20703 0
M  V30 10092 C 921.689 -2.55872 3.48071 0
M  V30 10093 C 920.824 -3.83238 3.67834 0
M  V30 10094 C 919.863 -3.68436 4.88796 0
M  V30 10095 N 919 -4.877 5.05068 0
M  V30 10096 H 923.84 -0.999143 2.80751 0
M  V30 10097 H 921.377 -0.482099 1.38976 0
M  V30 10098 H 923.335 -3.43884 2.36219 0
M  V30 10099 H 921.965 -2.93831 1.33653 0
M  V30 10100 H 921.017 -1.68846 3.40874 0
M  V30 10101 H 922.329 -2.40845 4.36801 0
M  V30 10102 H 921.483 -4.70266 3.83321 0
M  V30 10103 H 920.222 -4.01165 2.77341 0
M  V30 10104 H 919.227 -2.79793 4.73282 0
M  V30 10105 H 920.452 -3.52003 5.8075 0
M  V30 10106 H 918.398 -5.05983 4.17513 0
M  V30 10107 H 918.315 -4.75312 5.8789 0
M  V30 10108 H 919.583 -5.76219 5.24969 0
M  V30 10109 N 923.813 -1.49104 -0.510467 0
M  V30 10110 C 925.061 -1.578 -1.26268 0
M  V30 10111 C 925.382 -0.262349 -1.93227 0
M  V30 10112 O 924.652 0.717624 -1.82283 0
M  V30 10113 H 923.232 -0.581387 -0.46904 0
M  V30 10114 H 925.894 -1.85678 -0.592423 0
M  V30 10115 H 924.99 -2.36919 -2.03165 0
M  V30 10116 N 925.291 0.760815 -1.38019 0
M  V30 10117 C 926.241 1.86487 -1.31174 0
M  V30 10118 C 927.225 1.59684 -0.197414 0
M  V30 10119 O 928.417 1.71628 -0.432764 0
M  V30 10120 C 925.546 3.24103 -1.13192 0
M  V30 10121 C 924.632 3.5682 -2.29216 0
M  V30 10122 N 925.023 3.60644 -3.5464 0
M  V30 10123 C 923.321 3.87047 -2.2161 0
M  V30 10124 C 924.022 3.90423 -4.31214 0
M  V30 10125 N 922.998 4.06883 -3.60482 0
M  V30 10126 H 926.8 1.87711 -2.26146 0
M  V30 10127 H 924.314 0.957811 -1.31148 0
M  V30 10128 H 926.311 4.03101 -1.06372 0
M  V30 10129 H 924.971 3.24135 -0.191473 0
M  V30 10130 H 925.982 3.42581 -3.88405 0
M  V30 10131 H 922.659 3.94837 -1.35684 0
M  V30 10132 H 924.049 4.00065 -5.39812 0
M  V30 10133 N 926.769 1.22769 0.988202 0
M  V30 10134 C 928.046 0.9635 1.70223 0
M  V30 10135 C 928.426 -0.520102 2.04593 0
M  V30 10136 O 927.774 -1.48934 1.73295 0
M  V30 10137 C 927.984 1.86583 2.94937 0
M  V30 10138 C 929.332 2.12469 3.67616 0
M  V30 10139 O 930.356 1.84069 3.04954 0
M  V30 10140 O 929.215 2.60595 4.80367 0
M  V30 10141 H 926.309 0.362737 0.743203 0
M  V30 10142 H 928.855 1.33776 1.04412 0
M  V30 10143 H 927.627 2.86913 2.66077 0
M  V30 10144 H 927.25 1.49344 3.68486 0
M  V30 10145 N 928.247 -1.18576 1.03814 0
M  V30 10146 C 929.494 -1.88493 0.740036 0
M  V30 10147 C 929.822 -1.80198 -0.732056 0
M  V30 10148 O 929.077 -1.19509 -1.54971 0
M  V30 10149 C 929.376 -3.38448 1.14837 0
M  V30 10150 C 929.042 -3.66947 2.62031 0
M  V30 10151 C 927.704 -3.74435 3.02244 0
M  V30 10152 C 930.056 -3.79534 3.57217 0
M  V30 10153 C 927.384 -3.91986 4.36536 0
M  V30 10154 C 929.736 -3.986 4.91223 0
M  V30 10155 C 928.4 -4.04323 5.31111 0
M  V30 10156 H 927.67 -0.689746 0.270798 0
M  V30 10157 H 930.317 -1.40364 1.3027 0
M  V30 10158 H 928.622 -3.88539 0.504472 0
M  V30 10159 H 930.319 -3.90882 0.89511 0
M  V30 10160 H 926.909 -3.61734 2.29883 0
M  V30 10161 H 931.093 -3.73083 3.27296 0
M  V30 10162 H 926.349 -3.9466 4.66962 0
M  V30 10163 H 930.523 -4.07281 5.64885 0
M  V30 10164 H 928.15 -4.17676 6.35178 0
M  V30 10165 N 929.725 -0.817259 -1.34754 0
M  V30 10166 C 930.95 -0.414423 -2.03217 0
M  V30 10167 C 931.375 0.970037 -1.61158 0
M  V30 10168 O 930.733 1.63016 -0.793436 0
M  V30 10169 C 930.781 -0.518087 -3.56859 0
M  V30 10170 O 929.885 0.464314 -4.09778 0
M  V30 10171 H 929.226 -0.171454 -0.641482 0
M  V30 10172 H 931.756 -1.10611 -1.72123 0
M  V30 10173 H 931.766 -0.391779 -4.06115 0
M  V30 10174 H 930.441 -1.52786 -3.86819 0
M  V30 10175 H 929.018 0.297361 -3.71712 0
M  V30 10176 N 931.203 1.46865 -0.571711 0
M  V30 10177 C 932.449 2.0273 -0.0531858 0
M  V30 10178 C 932.782 1.44353 1.29907 0
M  V30 10179 O 932.057 0.604488 1.84868 0
M  V30 10180 C 932.34 3.60092 0.0243831 0
M  V30 10181 C 932.193 4.28874 -1.35599 0
M  V30 10182 C 933.512 4.33994 0.730563 0
M  V30 10183 H 930.631 0.736706 -0.0208018 0
M  V30 10184 H 933.273 1.75132 -0.736794 0
M  V30 10185 H 931.423 3.83736 0.606565 0
M  V30 10186 H 933.095 4.16527 -1.98249 0
M  V30 10187 H 931.338 3.88664 -1.92674 0
M  V30 10188 H 932.009 5.37561 -1.25429 0
M  V30 10189 H 934.485 4.1543 0.236098 0
M  V30 10190 H 933.361 5.43699 0.753836 0
M  V30 10191 H 933.622 4.04257 1.78967 0
M  V30 10192 N 932.681 0.308908 1.54543 0
M  V30 10193 C 933.958 -0.351558 1.92415 0
M  V30 10194 C 934.338 -1.71061 1.23699 0
M  V30 10195 O 933.686 -2.25394 0.3755 0
M  V30 10196 C 933.896 -0.458357 3.45977 0
M  V30 10197 C 935.244 -0.725524 4.18355 0
M  V30 10198 O 936.268 -0.541859 3.52054 0
M  V30 10199 O 935.127 -1.07884 5.35745 0
M  V30 10200 H 932.221 -0.197957 0.802958 0
M  V30 10201 H 934.767 0.357548 1.65891 0
M  V30 10202 H 933.539 0.496723 3.88134 0
M  V30 10203 H 933.162 -1.21562 3.78561 0
M  V30 10204 N 934.159 -1.57557 0.0367827 0
M  V30 10205 C 935.406 -1.92114 -0.640185 0
M  V30 10206 C 935.734 -0.913887 -1.71693 0
M  V30 10207 O 934.989 0.0760343 -1.95552 0
M  V30 10208 C 935.288 -3.33387 -1.28794 0
M  V30 10209 C 934.954 -4.4961 -0.340819 0
M  V30 10210 C 933.616 -4.81133 -0.0801574 0
M  V30 10211 C 935.968 -5.20283 0.309106 0
M  V30 10212 C 933.296 -5.80683 0.838107 0
M  V30 10213 C 935.648 -6.20813 1.21547 0
M  V30 10214 C 934.312 -6.50773 1.48495 0
M  V30 10215 H 933.582 -0.702996 -0.23426 0
M  V30 10216 H 936.229 -1.91238 0.100188 0
M  V30 10217 H 934.534 -3.30561 -2.10324 0
M  V30 10218 H 936.231 -3.57399 -1.81843 0
M  V30 10219 H 932.821 -4.25002 -0.554161 0
M  V30 10220 H 937.005 -4.96153 0.120794 0
M  V30 10221 H 932.261 -6.02238 1.05451 0
M  V30 10222 H 936.435 -6.74692 1.72522 0
M  V30 10223 H 934.062 -7.27727 2.19814 0
M  V30 10224 N 935.637 0.236453 -1.55816 0
M  V30 10225 C 936.883 0.960127 -1.79313 0
M  V30 10226 C 937.238 1.8256 -0.607406 0
M  V30 10227 O 936.531 1.87398 0.399046 0
M  V30 10228 C 936.725 1.84549 -3.06066 0
M  V30 10229 C 936.554 1.06721 -4.36853 0
M  V30 10230 C 935.324 0.76811 -4.99428 0
M  V30 10231 C 937.522 0.439715 -5.12417 0
M  V30 10232 N 935.504 -0.0331365 -6.13891 0
M  V30 10233 C 936.875 -0.225616 -6.19589 0
M  V30 10234 C 938.93 0.351237 -4.9666 0
M  V30 10235 C 937.633 -0.970943 -7.12717 0
M  V30 10236 C 939.659 -0.380585 -5.90174 0
M  V30 10237 C 939.021 -1.03451 -6.96762 0
M  V30 10238 H 935.12 0.332095 -0.707981 0
M  V30 10239 H 937.704 0.232311 -1.93309 0
M  V30 10240 H 935.875 2.54525 -2.93379 0
M  V30 10241 H 937.607 2.50552 -3.17814 0
M  V30 10242 H 934.362 1.08248 -4.61063 0
M  V30 10243 H 934.786 -0.422159 -6.75682 0
M  V30 10244 H 939.428 0.842469 -4.14321 0
M  V30 10245 H 937.146 -1.47374 -7.94548 0
M  V30 10246 H 940.732 -0.449851 -5.80058 0
M  V30 10247 H 939.612 -1.59175 -7.67876 0
M  V30 10248 N 937.115 1.49373 0.502552 0
M  V30 10249 C 938.34 1.62752 1.28556 0
M  V30 10250 C 938.765 0.298285 1.8572 0
M  V30 10251 O 938.123 -0.733885 1.65782 0
M  V30 10252 C 938.171 2.69778 2.39274 0
M  V30 10253 O 937.275 2.28843 3.43081 0
M  V30 10254 H 936.616 0.544799 0.379592 0
M  V30 10255 H 939.146 1.9555 0.601792 0
M  V30 10256 H 939.156 2.91899 2.8506 0
M  V30 10257 H 937.831 3.66266 1.97033 0
M  V30 10258 H 936.408 2.17047 3.03224 0
M  V30 10259 N 938.594 -0.753485 1.38421 0
M  V30 10260 C 939.524 -1.8808 1.38377 0
M  V30 10261 C 940.505 -1.68258 0.249664 0
M  V30 10262 O 941.69 -1.88848 0.45276 0
M  V30 10263 C 938.82 -3.25608 1.20818 0
M  V30 10264 C 937.774 -3.60032 2.31433 0
M  V30 10265 C 937.1 -4.96297 1.9898 0
M  V30 10266 C 938.4 -3.64898 3.73694 0
M  V30 10267 H 940.094 -1.88375 2.32713 0
M  V30 10268 H 937.64 -0.90489 1.12017 0
M  V30 10269 H 939.593 -4.04127 1.19412 0
M  V30 10270 H 938.317 -3.25793 0.229433 0
M  V30 10271 H 936.976 -2.83831 2.32025 0
M  V30 10272 H 936.624 -4.93043 0.995889 0
M  V30 10273 H 936.324 -5.20298 2.73063 0
M  V30 10274 H 937.848 -5.77196 1.99193 0
M  V30 10275 H 939.262 -4.33531 3.75132 0
M  V30 10276 H 937.659 -4.00407 4.46983 0
M  V30 10277 H 938.729 -2.65124 4.06002 0
M  V30 10278 N 940.072 -1.23292 -0.981677 0
M  V30 10279 C 941.32 -1.06214 -1.71939 0
M  V30 10280 C 941.641 0.401989 -1.90812 0
M  V30 10281 O 940.911 1.28825 -1.47584 0
M  V30 10282 H 939.491 -0.390042 -0.637084 0
M  V30 10283 H 942.153 -1.54988 -1.18173 0
M  V30 10284 H 941.249 -1.54904 -2.70945 0
M  V30 10285 N 941.55 1.18024 -1.04442 0
M  V30 10286 C 942.799 1.8743 -0.745185 0
M  V30 10287 C 943.112 1.81459 0.730206 0
M  V30 10288 O 944.318 2.46263 1.1431 0
M  V30 10289 C 942.774 3.36266 -1.28271 0
M  V30 10290 C 942.382 3.50757 -2.787 0
M  V30 10291 C 944.126 4.11048 -1.06018 0
M  V30 10292 C 942.033 4.93573 -3.25791 0
M  V30 10293 H 940.963 0.702038 -0.27506 0
M  V30 10294 H 943.614 1.33333 -1.26073 0
M  V30 10295 H 941.996 3.89853 -0.695002 0
M  V30 10296 H 943.17 3.07423 -3.43261 0
M  V30 10297 H 941.485 2.89385 -2.99408 0
M  V30 10298 H 944.082 5.16395 -1.38711 0
M  V30 10299 H 944.425 4.163 0.00241716 0
M  V30 10300 H 944.958 3.63644 -1.61269 0
M  V30 10301 H 941.697 4.93491 -4.31447 0
M  V30 10302 H 941.217 5.37607 -2.65968 0
M  V30 10303 H 942.896 5.62307 -3.20031 0
M  V30 10304 N 943.028 0.824394 1.34319 0
M  V30 10305 C 943.958 0.262077 2.32025 0
M  V30 10306 C 944.939 -0.622277 1.58309 0
M  V30 10307 O 946.124 -0.548848 1.86283 0
M  V30 10308 C 943.254 -0.57567 3.42496 0
M  V30 10309 C 942.208 0.21167 4.27476 0
M  V30 10310 C 941.534 -0.748913 5.29429 0
M  V30 10311 C 942.834 1.42068 5.02607 0
M  V30 10312 H 944.528 1.07842 2.79304 0
M  V30 10313 H 942.074 0.520022 1.34282 0
M  V30 10314 H 944.027 -0.979251 4.09864 0
M  V30 10315 H 942.751 -1.42508 2.93869 0
M  V30 10316 H 941.41 0.596636 3.61712 0
M  V30 10317 H 941.058 -1.59432 4.77064 0
M  V30 10318 H 940.758 -0.226313 5.87164 0
M  V30 10319 H 942.282 -1.15032 5.99667 0
M  V30 10320 H 943.696 1.09103 5.62823 0
M  V30 10321 H 942.093 1.87903 5.69923 0
M  V30 10322 H 943.163 2.1981 4.32217 0
M  V30 10323 N 944.506 -1.46559 0.579492 0
M  V30 10324 C 945.752 -2.02699 0.0639363 0
M  V30 10325 C 946.085 -1.4504 -1.29139 0
M  V30 10326 O 945.36 -0.614284 -1.84545 0
M  V30 10327 C 945.643 -3.601 -0.00528618 0
M  V30 10328 C 945.496 -4.28149 1.37871 0
M  V30 10329 C 946.815 -4.34375 -0.707537 0
M  V30 10330 H 943.934 -0.736586 0.0247085 0
M  V30 10331 H 946.576 -1.74739 0.746071 0
M  V30 10332 H 944.726 -3.84052 -0.586206 0
M  V30 10333 H 946.398 -4.1547 2.00455 0
M  V30 10334 H 944.641 -3.87636 1.94732 0
M  V30 10335 H 945.312 -5.36888 1.28278 0
M  V30 10336 H 947.788 -4.15549 -0.214064 0
M  V30 10337 H 946.664 -5.44091 -0.724992 0
M  V30 10338 H 946.925 -4.052 -1.7682 0
M  V30 10339 N 945.984 -0.3171 -1.54377 0
M  V30 10340 C 947.214 0.289138 -2.04567 0
M  V30 10341 C 947.622 1.46833 -1.19318 0
M  V30 10342 O 946.965 1.82436 -0.215141 0
M  V30 10343 C 947.027 0.792994 -3.50645 0
M  V30 10344 C 946.691 -0.263033 -4.56242 0
M  V30 10345 C 947.688 -1.09694 -5.08196 0
M  V30 10346 C 945.373 -0.409364 -5.00629 0
M  V30 10347 C 947.367 -2.06297 -6.03092 0
M  V30 10348 C 945.054 -1.37882 -5.95342 0
M  V30 10349 C 946.052 -2.20409 -6.46459 0
M  V30 10350 O 945.74 -3.15708 -7.39313 0
M  V30 10351 H 945.472 0.0644005 -0.672925 0
M  V30 10352 H 948.026 -0.459438 -2.00196 0
M  V30 10353 H 946.256 1.59237 -3.52392 0
M  V30 10354 H 947.945 1.31687 -3.83944 0
M  V30 10355 H 948.711 -0.994842 -4.74687 0
M  V30 10356 H 944.59 0.223091 -4.6046 0
M  V30 10357 H 948.134 -2.70751 -6.42915 0
M  V30 10358 H 944.031 -1.48158 -6.28267 0
M  V30 10359 H 944.799 -3.10873 -7.57166 0
M  V30 10360 N 947.462 1.57535 -0.0451378 0
M  V30 10361 C 948.372 2.14653 0.946646 0
M  V30 10362 C 949.388 1.10279 1.3459 0
M  V30 10363 O 950.564 1.42417 1.42405 0
M  V30 10364 C 947.629 2.67533 2.20515 0
M  V30 10365 C 946.69 3.86682 1.86481 0
M  V30 10366 C 945.923 4.37031 3.06332 0
M  V30 10367 O 946.146 3.86481 4.1951 0
M  V30 10368 O 945.08 5.28691 2.87697 0
M  V30 10369 H 948.906 2.99706 0.49091 0
M  V30 10370 H 946.491 1.48355 0.17641 0
M  V30 10371 H 948.373 3.01542 2.94365 0
M  V30 10372 H 947.048 1.85554 2.65238 0
M  V30 10373 H 945.955 3.57573 1.09966 0
M  V30 10374 H 947.288 4.69873 1.46562 0
M  V30 10375 N 948.94 -0.228186 1.55939 0
M  V30 10376 C 949.87 -1.28607 1.94891 0
M  V30 10377 C 950.851 -1.49236 0.816245 0
M  V30 10378 O 952.036 -1.61531 1.07803 0
M  V30 10379 C 949.166 -2.63719 2.25986 0
M  V30 10380 C 948.12 -2.57757 3.4168 0
M  V30 10381 C 947.446 -3.96837 3.58364 0
M  V30 10382 C 948.746 -2.13116 4.76843 0
M  V30 10383 H 950.44 -0.962531 2.83506 0
M  V30 10384 H 947.986 -0.461577 1.36402 0
M  V30 10385 H 949.939 -3.37878 2.51826 0
M  V30 10386 H 948.663 -2.97747 1.34217 0
M  V30 10387 H 947.322 -1.86055 3.15878 0
M  V30 10388 H 946.97 -4.28162 2.63982 0
M  V30 10389 H 946.67 -3.93731 4.36176 0
M  V30 10390 H 948.194 -4.72668 3.86545 0
M  V30 10391 H 949.608 -2.77015 5.01932 0
M  V30 10392 H 948.005 -2.21083 5.57891 0
M  V30 10393 H 949.075 -1.08326 4.72645 0
M  V30 10394 N 950.418 -1.49637 -0.494624 0
M  V30 10395 C 951.348 -1.69692 -1.60396 0
M  V30 10396 C 952.329 -0.545648 -1.61111 0
M  V30 10397 O 953.514 -0.782202 -1.77751 0
M  V30 10398 C 950.644 -1.76934 -2.9885 0
M  V30 10399 C 949.598 -2.91915 -3.13001 0
M  V30 10400 C 948.924 -2.84276 -4.5287 0
M  V30 10401 C 950.224 -4.32764 -2.92426 0
M  V30 10402 H 951.918 -2.6257 -1.43866 0
M  V30 10403 H 949.464 -1.26355 -0.690679 0
M  V30 10404 H 951.417 -1.8955 -3.76362 0
M  V30 10405 H 950.141 -0.806609 -3.16483 0
M  V30 10406 H 948.8 -2.78911 -2.37916 0
M  V30 10407 H 948.448 -1.85897 -4.67388 0
M  V30 10408 H 948.148 -3.61452 -4.63278 0
M  V30 10409 H 949.672 -2.98909 -5.32434 0
M  V30 10410 H 951.086 -4.46415 -3.59703 0
M  V30 10411 H 949.483 -5.1121 -3.143 0
M  V30 10412 H 950.553 -4.46765 -1.88491 0
M  V30 10413 N 951.896 0.746133 -1.38819 0
M  V30 10414 C 953.124 1.53539 -1.38685 0
M  V30 10415 C 953.539 1.88788 0.0215039 0
M  V30 10416 O 952.896 1.53312 0.990031 0
M  V30 10417 C 952.947 2.8299 -2.24942 0
M  V30 10418 O 952.668 2.49242 -3.60292 0
M  V30 10419 C 954.169 3.77085 -2.3307 0
M  V30 10420 H 951.389 0.474842 -0.474095 0
M  V30 10421 H 953.933 0.922844 -1.82493 0
M  V30 10422 H 952.088 3.40603 -1.84576 0
M  V30 10423 H 952.502 3.32319 -4.05789 0
M  V30 10424 H 953.976 4.64845 -2.97696 0
M  V30 10425 H 954.453 4.18049 -1.34655 0
M  V30 10426 H 955.059 3.25394 -2.73859 0
M  V30 10427 N 953.375 1.23811 0.975125 0
M  V30 10428 C 954.623 1.07124 1.71373 0
M  V30 10429 C 954.944 -0.391864 1.91022 0
M  V30 10430 O 954.214 -1.28041 1.48265 0
M  V30 10431 H 952.794 0.393415 0.635007 0
M  V30 10432 H 955.456 1.55612 1.17349 0
M  V30 10433 H 954.552 1.56338 2.7012 0
M  V30 10434 N 954.853 -1.17469 1.05066 0
M  V30 10435 C 955.801 -2.23495 0.644418 0
M  V30 10436 C 956.795 -1.66081 -0.333685 0
M  V30 10437 O 958.001 -1.78887 -0.199886 0
M  V30 10438 H 954.376 -0.727546 0.190214 0
M  V30 10439 H 956.347 -2.55058 1.5488 0
M  V30 10440 C 955.096 -3.47684 0.0338051 0
M  V30 10441 H 954.419 -3.92167 0.777513 0
M  V30 10442 H 955.859 -4.23464 -0.213086 0
M  V30 10443 C 954.318 -3.14067 -1.21915 0
M  V30 10444 O 954.848 -3.28728 -2.3087 0
M  V30 10445 N 953.054 -2.68304 -1.11631 0
M  V30 10446 H 952.601 -2.56574 -0.229673 0
M  V30 10447 H 952.559 -2.46184 -1.95553 0
M  V30 10448 N 956.331 -0.831506 -1.3388 0
M  V30 10449 C 957.742 -0.481375 -1.80388 0
M  V30 10450 C 958.093 0.998993 -1.68863 0
M  V30 10451 O 957.218 1.77795 -1.2336 0
M  V30 10452 C 957.813 -0.86699 -3.27519 0
M  V30 10453 C 956.372 -0.569105 -3.72073 0
M  V30 10454 C 955.519 -1.07929 -2.55434 0
M  V30 10455 H 958.47 -1.02089 -1.21505 0
M  V30 10456 H 958.491 -0.174128 -3.80101 0
M  V30 10457 H 958.003 -1.94447 -3.35875 0
M  V30 10458 H 956.104 0.498607 -3.69249 0
M  V30 10459 H 956.217 -1.11918 -4.65845 0
M  V30 10460 H 954.581 -0.500465 -2.49735 0
M  V30 10461 H 955.364 -2.16339 -2.66556 0
M  V30 10462 N 957.809 1.4625 -0.587256 0
M  V30 10463 C 959.22 1.85997 -0.161918 0
M  V30 10464 C 959.571 1.49025 1.27616 0
M  V30 10465 O 958.696 0.907282 1.96462 0
M  V30 10466 C 959.291 3.37582 -0.287077 0
M  V30 10467 C 957.85 3.76308 0.0834211 0
M  V30 10468 C 956.997 2.70259 -0.620932 0
M  V30 10469 H 959.948 1.3734 -0.795199 0
M  V30 10470 H 959.969 3.77379 0.486333 0
M  V30 10471 H 959.481 3.64459 -1.33383 0
M  V30 10472 H 957.582 3.55047 1.13013 0
M  V30 10473 H 957.695 4.78184 -0.296064 0
M  V30 10474 H 956.059 2.54628 -0.0607027 0
M  V30 10475 H 956.842 2.99975 -1.66942 0
M  V30 10476 N 959.287 0.325282 1.54207 0
M  V30 10477 C 960.534 -0.276775 2.006 0
M  V30 10478 C 960.862 -1.52007 1.21343 0
M  V30 10479 O 960.117 -1.93627 0.284104 0
M  V30 10480 C 960.416 -0.654292 3.5136 0
M  V30 10481 C 960.082 0.490023 4.48229 0
M  V30 10482 C 958.744 0.804104 4.74434 0
M  V30 10483 C 961.096 1.2586 5.05775 0
M  V30 10484 C 958.424 1.88945 5.55443 0
M  V30 10485 C 960.776 2.33405 5.87967 0
M  V30 10486 C 959.44 2.65393 6.12473 0
M  V30 10487 H 958.71 -0.101279 0.734046 0
M  V30 10488 H 961.357 0.449416 1.86152 0
M  V30 10489 H 959.662 -1.46093 3.63544 0
M  V30 10490 H 961.359 -1.13171 3.84699 0
M  V30 10491 H 957.949 0.235147 4.27954 0
M  V30 10492 H 962.133 1.02921 4.85511 0
M  V30 10493 H 957.389 2.14174 5.7266 0
M  V30 10494 H 961.563 2.93402 6.31576 0
M  V30 10495 H 959.19 3.49622 6.75032 0
M  V30 10496 N 960.765 -1.57509 0.0534917 0
M  V30 10497 C 961.99 -1.97511 -0.632794 0
M  V30 10498 C 962.415 -0.930947 -1.63447 0
M  V30 10499 O 961.773 0.105558 -1.80992 0
M  V30 10500 C 961.821 -3.3658 -1.29407 0
M  V30 10501 O 960.925 -3.3467 -2.40977 0
M  V30 10502 H 960.266 -0.643349 -0.16431 0
M  V30 10503 H 962.796 -2.04232 0.12258 0
M  V30 10504 H 962.806 -3.73359 -1.64521 0
M  V30 10505 H 961.481 -4.12113 -0.559976 0
M  V30 10506 H 960.058 -3.09639 -2.07793 0
M  V30 10507 N 962.243 0.219913 -1.56058 0
M  V30 10508 C 963.491 0.942199 -1.78793 0
M  V30 10509 C 963.812 1.84804 -0.622284 0
M  V30 10510 O 963.082 1.9255 0.360735 0
M  V30 10511 H 961.662 0.350895 -0.659455 0
M  V30 10512 H 964.324 0.231376 -1.93522 0
M  V30 10513 H 963.42 1.54804 -2.71002 0
M  V30 10514 N 963.721 1.49897 0.486681 0
M  V30 10515 C 964.967 1.60342 1.2417 0
M  V30 10516 C 965.3 0.295694 1.91936 0
M  V30 10517 O 964.575 -0.701788 1.81398 0
M  V30 10518 C 964.858 2.77281 2.29755 0
M  V30 10519 C 964.711 4.1789 1.66397 0
M  V30 10520 C 966.03 2.89817 3.31201 0
M  V30 10521 H 963.149 0.583605 0.450083 0
M  V30 10522 H 965.791 1.82232 0.537734 0
M  V30 10523 H 963.941 2.58748 2.89796 0
M  V30 10524 H 965.613 4.47975 1.10073 0
M  V30 10525 H 963.856 4.22872 0.967579 0
M  V30 10526 H 964.527 4.95612 2.43049 0
M  V30 10527 H 967.003 3.06732 2.81167 0
M  V30 10528 H 965.879 3.7329 4.02425 0
M  V30 10529 H 966.14 1.9977 3.94391 0
M  V30 10530 N 965.199 -0.738761 1.39212 0
M  V30 10531 C 966.476 -1.48982 1.26742 0
M  V30 10532 C 966.856 -2.10732 -0.12466 0
M  V30 10533 O 966.204 -1.98287 -1.13554 0
M  V30 10534 C 966.414 -2.54427 2.38889 0
M  V30 10535 C 967.762 -3.20915 2.78027 0
M  V30 10536 O 968.786 -2.64738 2.38311 0
M  V30 10537 O 967.645 -4.22558 3.46565 0
M  V30 10538 H 964.739 -0.661395 0.496473 0
M  V30 10539 H 967.285 -0.772907 1.51077 0
M  V30 10540 H 966.057 -2.07151 3.3197 0
M  V30 10541 H 965.68 -3.33682 2.162 0
M  V30 10542 N 966.677 -1.24326 -0.968545 0
M  V30 10543 C 967.609 -0.992749 -2.06584 0
M  V30 10544 C 968.622 0.0374902 -1.62757 0
M  V30 10545 O 969.811 -0.199448 -1.77382 0
M  V30 10546 C 966.911 -0.476165 -3.35538 0
M  V30 10547 C 966.084 -1.56934 -4.08277 0
M  V30 10548 C 965.143 -1.05555 -5.15504 0
M  V30 10549 O 964.169 -1.74707 -5.41725 0
M  V30 10550 N 965.371 0.110465 -5.80395 0
M  V30 10551 H 968.136 -1.93752 -2.28649 0
M  V30 10552 H 965.697 -1.15344 -1.13611 0
M  V30 10553 H 967.689 -0.117223 -4.0453 0
M  V30 10554 H 966.259 0.374315 -3.10351 0
M  V30 10555 H 965.479 -2.10051 -3.33575 0
M  V30 10556 H 966.767 -2.30415 -4.53637 0
M  V30 10557 H 966.165 0.688614 -5.61493 0
M  V30 10558 H 964.722 0.41056 -6.50506 0
M  V30 10559 N 968.156 1.1691 -1.05688 0
M  V30 10560 C 969.089 2.19992 -0.606539 0
M  V30 10561 C 970.067 1.58393 0.367483 0
M  V30 10562 O 971.251 1.8644 0.277914 0
M  V30 10563 C 968.378 3.38516 0.111663 0
M  V30 10564 C 967.424 4.18579 -0.818153 0
M  V30 10565 S 968.257 4.83111 -2.31006 0
M  V30 10566 C 969.413 6.0502 -1.60317 0
M  V30 10567 H 969.646 2.57851 -1.47987 0
M  V30 10568 H 967.179 1.27604 -0.869291 0
M  V30 10569 H 969.137 4.07195 0.519829 0
M  V30 10570 H 967.798 2.99034 0.961103 0
M  V30 10571 H 966.991 5.03318 -0.262092 0
M  V30 10572 H 966.593 3.55362 -1.16592 0
M  V30 10573 H 968.885 6.71424 -0.905309 0
M  V30 10574 H 969.828 6.65164 -2.42823 0
M  V30 10575 H 970.236 5.53908 -1.08842 0
M  V30 10576 N 969.634 0.838594 1.33437 0
M  V30 10577 C 970.567 0.216651 2.27169 0
M  V30 10578 C 971.545 -0.636065 1.49643 0
M  V30 10579 O 972.729 -0.596388 1.78817 0
M  V30 10580 C 969.856 -0.69584 3.31475 0
M  V30 10581 C 968.902 0.0813808 4.26422 0
M  V30 10582 S 969.735 1.43909 5.15801 0
M  V30 10583 C 970.891 0.531887 6.23636 0
M  V30 10584 H 971.124 1.01128 2.79572 0
M  V30 10585 H 968.657 0.635332 1.40723 0
M  V30 10586 H 970.615 -1.21671 3.92054 0
M  V30 10587 H 969.276 -1.46413 2.77888 0
M  V30 10588 H 968.469 -0.612944 5.00259 0
M  V30 10589 H 968.071 0.533304 3.70178 0
M  V30 10590 H 970.363 -0.270371 6.7696 0
M  V30 10591 H 971.306 1.24041 6.97151 0
M  V30 10592 H 971.714 0.113357 5.64386 0
M  V30 10593 N 971.112 -1.45937 0.595003 0
M  V30 10594 C 972.34 -2.06698 0.091293 0
M  V30 10595 C 972.755 -1.44176 -1.21897 0
M  V30 10596 O 972.112 -0.551402 -1.73971 0
M  V30 10597 C 972.163 -3.61436 -0.0681801 0
M  V30 10598 O 971.884 -4.21622 1.19023 0
M  V30 10599 C 973.385 -4.39155 -0.604814 0
M  V30 10600 H 970.605 -0.668029 0.0630737 0
M  V30 10601 H 973.149 -1.87376 0.819165 0
M  V30 10602 H 971.304 -3.80143 -0.746324 0
M  V30 10603 H 971.718 -5.14647 1.01187 0
M  V30 10604 H 973.192 -5.47973 -0.665532 0
M  V30 10605 H 973.669 -4.08055 -1.62444 0
M  V30 10606 H 974.275 -4.25282 0.0388658 0
M  V30 10607 N 972.59 -0.333456 -1.54032 0
M  V30 10608 C 973.82 0.267425 -2.04862 0
M  V30 10609 C 974.228 1.45559 -1.20869 0
M  V30 10610 O 973.571 1.82197 -0.234478 0
M  V30 10611 C 973.633 0.755759 -3.51466 0
M  V30 10612 C 973.297 -0.311409 -4.55938 0
M  V30 10613 C 974.294 -1.15078 -5.07004 0
M  V30 10614 C 971.979 -0.462439 -5.00167 0
M  V30 10615 C 973.973 -2.12682 -6.0087 0
M  V30 10616 C 971.66 -1.44188 -5.93846 0
M  V30 10617 C 972.658 -2.27253 -6.44085 0
M  V30 10618 O 972.346 -3.23532 -7.35923 0
M  V30 10619 H 972.078 0.0572596 -0.673571 0
M  V30 10620 H 974.632 -0.480646 -1.99697 0
M  V30 10621 H 972.862 1.55491 -3.54062 0
M  V30 10622 H 974.551 1.27607 -3.8532 0
M  V30 10623 H 975.317 -1.04513 -4.73605 0
M  V30 10624 H 971.196 0.17424 -4.60671 0
M  V30 10625 H 974.74 -2.77555 -6.40007 0
M  V30 10626 H 970.637 -1.54813 -6.2666 0
M  V30 10627 H 971.405 -3.18886 -7.53826 0
M  V30 10628 N 974.068 1.57479 -0.061844 0
M  V30 10629 C 975.016 2.13346 0.926629 0
M  V30 10630 C 976.01 1.06787 1.31502 0
M  V30 10631 O 977.216 1.25181 1.29343 0
M  V30 10632 H 973.591 0.682046 0.316729 0
M  V30 10633 H 975.562 2.95279 0.430424 0
M  V30 10634 C 974.311 2.70198 2.18834 0
M  V30 10635 H 973.634 3.51859 1.89829 0
M  V30 10636 H 975.074 3.12897 2.86132 0
M  V30 10637 C 973.533 1.64481 2.9402 0
M  V30 10638 O 974.063 1.0639 3.87355 0
M  V30 10639 N 972.269 1.35749 2.56944 0
M  V30 10640 H 971.816 1.83177 1.81119 0
M  V30 10641 H 971.774 0.652469 3.07555 0
M  V30 10642 N 975.546 -0.211634 1.56173 0
M  V30 10643 C 976.476 -1.26533 1.96244 0
M  V30 10644 C 977.457 -1.48362 0.832028 0
M  V30 10645 O 978.642 -1.60378 1.0951 0
M  V30 10646 C 975.772 -2.61307 2.2877 0
M  V30 10647 C 974.726 -2.54119 3.44395 0
M  V30 10648 C 974.052 -3.93014 3.62552 0
M  V30 10649 C 975.352 -2.08046 4.79076 0
M  V30 10650 H 977.046 -0.932407 2.84511 0
M  V30 10651 H 974.592 -0.447084 1.36884 0
M  V30 10652 H 976.545 -3.35188 2.55396 0
M  V30 10653 H 975.269 -2.96307 1.37367 0
M  V30 10654 H 973.928 -1.82694 3.17834 0
M  V30 10655 H 973.576 -4.25338 2.68508 0
M  V30 10656 H 973.276 -3.89083 4.40327 0
M  V30 10657 H 974.8 -4.68542 3.91537 0
M  V30 10658 H 976.214 -2.71676 5.04842 0
M  V30 10659 H 974.611 -2.15154 5.60204 0
M  V30 10660 H 975.681 -1.03306 4.73768 0
M  V30 10661 N 977.024 -1.50153 -0.478725 0
M  V30 10662 C 978.273 -1.60002 -1.22809 0
M  V30 10663 C 978.586 -0.302277 -1.9325 0
M  V30 10664 O 979.792 -0.279583 -2.70057 0
M  V30 10665 C 978.248 -2.82402 -2.23108 0
M  V30 10666 C 977.856 -4.19023 -1.58505 0
M  V30 10667 C 979.6 -3.01593 -2.98734 0
M  V30 10668 C 977.507 -5.32618 -2.57045 0
M  V30 10669 H 976.437 -0.595822 -0.462073 0
M  V30 10670 H 979.088 -1.76573 -0.499412 0
M  V30 10671 H 977.47 -2.59373 -2.99235 0
M  V30 10672 H 978.644 -4.52277 -0.882187 0
M  V30 10673 H 976.959 -4.05374 -0.951877 0
M  V30 10674 H 979.556 -3.8363 -3.72468 0
M  V30 10675 H 979.899 -2.1302 -3.57671 0
M  V30 10676 H 980.432 -3.24766 -2.29721 0
M  V30 10677 H 977.171 -6.23321 -2.02858 0
M  V30 10678 H 976.691 -5.03792 -3.25505 0
M  V30 10679 H 978.37 -5.62877 -3.19028 0
M  V30 10680 N 978.502 0.731368 -1.39602 0
M  V30 10681 C 979.432 1.85855 -1.41351 0
M  V30 10682 C 980.413 1.67839 -0.2764 0
M  V30 10683 O 981.598 1.88104 -0.482747 0
M  V30 10684 C 978.728 3.23644 -1.25983 0
M  V30 10685 C 977.682 3.56304 -2.37132 0
M  V30 10686 C 977.008 4.93069 -2.0685 0
M  V30 10687 C 978.308 3.58906 -3.79452 0
M  V30 10688 H 980.002 1.84648 -2.3568 0
M  V30 10689 H 977.548 0.886955 -1.13442 0
M  V30 10690 H 979.501 4.02176 -1.25826 0
M  V30 10691 H 978.225 3.25387 -0.281234 0
M  V30 10692 H 976.884 2.80104 -2.36511 0
M  V30 10693 H 976.532 4.91396 -1.0742 0
M  V30 10694 H 976.232 5.15888 -2.81306 0
M  V30 10695 H 977.756 5.73953 -2.0835 0
M  V30 10696 H 979.17 4.27508 -3.81982 0
M  V30 10697 H 977.567 3.93246 -4.53297 0
M  V30 10698 H 978.637 2.58631 -4.10168 0
M  V30 10699 N 979.98 1.24838 0.961938 0
M  V30 10700 C 980.927 1.04582 2.05745 0
M  V30 10701 C 981.897 -0.0427281 1.66045 0
M  V30 10702 O 983.082 0.113026 1.90465 0
M  V30 10703 C 980.222 0.66284 3.38675 0
M  V30 10704 C 979.335 1.82548 3.91536 0
M  V30 10705 C 978.47 1.38753 5.12758 0
M  V30 10706 C 977.509 2.51976 5.5783 0
M  V30 10707 N 976.646 2.09009 6.70268 0
M  V30 10708 H 981.486 1.98343 2.22405 0
M  V30 10709 H 979.023 0.987822 1.08998 0
M  V30 10710 H 980.981 0.421788 4.15062 0
M  V30 10711 H 979.611 -0.237776 3.21923 0
M  V30 10712 H 978.663 2.18004 3.11735 0
M  V30 10713 H 979.975 2.67601 4.20941 0
M  V30 10714 H 979.129 1.1057 5.96539 0
M  V30 10715 H 977.868 0.507618 4.85051 0
M  V30 10716 H 976.873 2.80912 4.72619 0
M  V30 10717 H 978.098 3.40534 5.87549 0
M  V30 10718 H 976.044 1.23423 6.44285 0
M  V30 10719 H 975.961 2.87613 6.99153 0
M  V30 10720 H 977.229 1.83981 7.57477 0
M  V30 10721 N 981.458 -1.16348 1.06306 0
M  V30 10722 C 982.706 -1.86512 0.778311 0
M  V30 10723 C 983.027 -1.82107 -0.697273 0
M  V30 10724 O 982.297 -1.2547 -1.50446 0
M  V30 10725 H 980.877 -0.690529 0.284919 0
M  V30 10726 H 983.539 -1.41092 1.34458 0
M  V30 10727 H 982.635 -2.91947 1.10333 0
M  V30 10728 N 982.937 -0.845659 -1.3299 0
M  V30 10729 C 984.186 -0.440928 -1.96822 0
M  V30 10730 C 984.499 1.00668 -1.67706 0
M  V30 10731 O 985.705 1.51641 -2.25205 0
M  V30 10732 C 984.161 -0.73752 -3.52262 0
M  V30 10733 C 983.769 -2.20026 -3.90247 0
M  V30 10734 C 985.513 -0.400072 -4.22611 0
M  V30 10735 C 983.42 -2.44054 -5.38694 0
M  V30 10736 H 982.35 -0.161148 -0.736578 0
M  V30 10737 H 985.001 -1.03519 -1.51513 0
M  V30 10738 H 983.383 -0.0728025 -3.95933 0
M  V30 10739 H 984.557 -2.90602 -3.57613 0
M  V30 10740 H 982.872 -2.50135 -3.32899 0
M  V30 10741 H 985.469 -0.557136 -5.3179 0
M  V30 10742 H 985.812 0.657547 -4.11074 0
M  V30 10743 H 986.345 -1.0203 -3.84493 0
M  V30 10744 H 983.084 -3.48407 -5.55241 0
M  V30 10745 H 982.604 -1.78047 -5.72765 0
M  V30 10746 H 984.283 -2.27549 -6.05665 0
M  V30 10747 N 984.415 1.45619 -0.602734 0
M  V30 10748 C 985.325 2.34288 0.120902 0
M  V30 10749 C 986.341 1.50952 0.865414 0
M  V30 10750 O 987.517 1.83768 0.824094 0
M  V30 10751 C 984.582 3.28489 1.10888 0
M  V30 10752 C 983.643 4.2773 0.366853 0
M  V30 10753 C 982.876 5.17429 1.30776 0
M  V30 10754 O 983.099 5.10459 2.54535 0
M  V30 10755 O 982.033 5.96459 0.807464 0
M  V30 10756 H 985.859 2.97559 -0.60765 0
M  V30 10757 H 983.444 1.44922 -0.363019 0
M  V30 10758 H 985.326 3.86549 1.67803 0
M  V30 10759 H 984.001 2.67789 1.81854 0
M  V30 10760 H 982.908 3.73299 -0.244643 0
M  V30 10761 H 984.241 4.91271 -0.302226 0
M  V30 10762 N 985.893 0.34162 1.53853 0
M  V30 10763 C 986.84 -0.516058 2.24957 0
M  V30 10764 C 987.81 -1.09711 1.2471 0
M  V30 10765 O 988.995 -1.13409 1.53438 0
M  V30 10766 C 986.135 -1.66207 3.02439 0
M  V30 10767 C 985.248 -1.10851 4.17536 0
M  V30 10768 C 984.383 -2.22167 4.82509 0
M  V30 10769 C 983.422 -1.64152 5.89678 0
M  V30 10770 N 982.559 -2.69203 6.4844 0
M  V30 10771 H 987.399 0.0968275 2.97843 0
M  V30 10772 H 984.936 0.0595565 1.46979 0
M  V30 10773 H 986.894 -2.33672 3.4562 0
M  V30 10774 H 985.524 -2.24597 2.31853 0
M  V30 10775 H 984.576 -0.324853 3.7901 0
M  V30 10776 H 985.888 -0.644151 4.94623 0
M  V30 10777 H 985.042 -2.97501 5.28751 0
M  V30 10778 H 983.781 -2.71946 4.04842 0
M  V30 10779 H 982.786 -0.873228 5.42821 0
M  V30 10780 H 984.011 -1.15228 6.69253 0
M  V30 10781 H 981.957 -3.1824 5.73637 0
M  V30 10782 H 981.874 -2.27383 7.20994 0
M  V30 10783 H 983.142 -3.44312 6.99335 0
M  V30 10784 N 987.371 -1.57444 0.0701946 0
M  V30 10785 C 988.304 -2.08232 -0.93352 0
M  V30 10786 C 989.282 -0.987073 -1.29212 0
M  V30 10787 O 990.466 -1.26035 -1.40169 0
M  V30 10788 C 987.593 -2.53866 -2.2421 0
M  V30 10789 C 986.639 -3.7481 -2.03518 0
M  V30 10790 S 987.472 -5.1958 -1.29601 0
M  V30 10791 C 988.628 -5.68544 -2.61742 0
M  V30 10792 H 988.861 -2.93042 -0.501354 0
M  V30 10793 H 986.394 -1.53741 -0.142533 0
M  V30 10794 H 988.352 -2.80818 -2.99419 0
M  V30 10795 H 987.013 -1.69327 -2.64551 0
M  V30 10796 H 986.206 -4.04724 -3.00358 0
M  V30 10797 H 985.808 -3.48222 -1.36445 0
M  V30 10798 H 988.1 -5.75291 -3.57836 0
M  V30 10799 H 989.043 -6.67459 -2.3644 0
M  V30 10800 H 989.451 -4.96354 -2.68873 0
M  V30 10801 N 988.849 0.203349 -1.56283 0
M  V30 10802 C 990.126 0.950415 -1.70958 0
M  V30 10803 C 990.506 2.01708 -0.622647 0
M  V30 10804 O 989.854 2.25523 0.367635 0
M  V30 10805 C 990.064 1.54434 -3.12971 0
M  V30 10806 C 991.412 2.02964 -3.72949 0
M  V30 10807 O 992.436 1.64293 -3.16048 0
M  V30 10808 O 991.295 2.74097 -4.72793 0
M  V30 10809 H 988.389 0.445154 -0.69697 0
M  V30 10810 H 990.935 0.193695 -1.68591 0
M  V30 10811 H 989.707 0.77505 -3.83547 0
M  V30 10812 H 989.33 2.36611 -3.19532 0
M  V30 10813 N 990.327 1.50405 0.470755 0
M  V30 10814 C 991.574 1.61411 1.22281 0
M  V30 10815 C 991.902 0.314603 1.91939 0
M  V30 10816 O 991.157 -0.699531 1.82771 0
M  V30 10817 C 991.456 2.74426 2.28965 0
M  V30 10818 C 991.122 4.14896 1.76557 0
M  V30 10819 C 989.784 4.53116 1.61985 0
M  V30 10820 C 992.136 5.02686 1.3768 0
M  V30 10821 C 989.464 5.76868 1.0696 0
M  V30 10822 C 991.816 6.26985 0.840967 0
M  V30 10823 C 990.48 6.64008 0.68188 0
M  V30 10824 H 989.75 0.590645 0.447459 0
M  V30 10825 H 992.397 1.84339 0.518783 0
M  V30 10826 H 990.702 2.45588 3.05277 0
M  V30 10827 H 992.399 2.80146 2.86914 0
M  V30 10828 H 988.989 3.84743 1.88867 0
M  V30 10829 H 993.173 4.7379 1.47772 0
M  V30 10830 H 988.429 6.04227 0.933808 0
M  V30 10831 H 992.603 6.94372 0.531066 0
M  V30 10832 H 990.23 7.59778 0.25335 0
M  V30 10833 N 991.805 -0.723954 1.39988 0
M  V30 10834 C 993.216 -1.30273 1.33738 0
M  V30 10835 C 993.567 -1.96199 0.00690581 0
M  V30 10836 O 992.692 -1.97016 -0.895179 0
M  V30 10837 C 993.287 -2.36889 2.42217 0
M  V30 10838 C 991.846 -2.90412 2.39453 0
M  V30 10839 C 990.993 -1.64103 2.2353 0
M  V30 10840 H 993.944 -0.520672 1.49916 0
M  V30 10841 H 993.965 -3.17538 2.09642 0
M  V30 10842 H 993.477 -1.88878 3.39038 0
M  V30 10843 H 991.578 -3.42674 1.46304 0
M  V30 10844 H 991.691 -3.42775 3.34727 0
M  V30 10845 H 990.055 -1.88855 1.70897 0
M  V30 10846 H 990.838 -1.18128 3.22336 0
M  V30 10847 N 993.283 -1.25346 -0.955304 0
M  V30 10848 C 994.699 -1.02154 -1.22625 0
M  V30 10849 C 994.899 0.26206 -1.99789 0
M  V30 10850 O 993.955 0.974958 -2.32918 0
M  V30 10851 C 995.268 -2.2443 -2.00129 0
M  V30 10852 C 996.816 -2.29185 -2.13174 0
M  V30 10853 C 997.291 -3.51117 -2.94077 0
M  V30 10854 N 998.782 -3.51509 -3.01655 0
M  V30 10855 C 999.517 -4.42517 -3.64645 0
M  V30 10856 N 999.013 -5.43796 -4.29252 0
M  V30 10857 N 1000.81 -4.302 -3.61779 0
M  V30 10858 H 992.957 -2.07812 -0.439071 0
M  V30 10859 H 995.22 -0.91258 -0.256715 0
M  V30 10860 H 994.926 -3.17717 -1.50827 0
M  V30 10861 H 994.8 -2.27548 -3.00835 0
M  V30 10862 H 997.187 -1.36422 -2.61674 0
M  V30 10863 H 997.268 -2.30087 -1.11775 0
M  V30 10864 H 996.912 -4.44201 -2.46268 0
M  V30 10865 H 996.842 -3.4746 -3.95701 0
M  V30 10866 H 999.333 -2.78245 -2.55711 0
M  V30 10867 H 999.646 -6.09453 -4.75171 0
M  V30 10868 H 997.991 -5.4767 -4.27882 0
M  V30 10869 H 1001.18 -3.50304 -3.10491 0
M  V30 10870 H 1001.36 -5.01323 -4.10584 0
M  V30 10871 N 994.761 1.15782 -1.06922 0
M  V30 10872 C 995.708 2.2038 -0.685659 0
M  V30 10873 C 996.678 1.62972 0.320816 0
M  V30 10874 O 997.863 1.8966 0.208258 0
M  V30 10875 C 995.003 3.44995 -0.084998 0
M  V30 10876 C 994.116 4.16621 -1.14242 0
M  V30 10877 C 993.251 5.28773 -0.507226 0
M  V30 10878 C 992.29 5.92209 -1.54774 0
M  V30 10879 N 991.427 6.9584 -0.935443 0
M  V30 10880 H 996.267 2.5254 -1.58201 0
M  V30 10881 H 993.804 1.24031 -0.790864 0
M  V30 10882 H 995.762 4.16254 0.280845 0
M  V30 10883 H 994.392 3.13365 0.774725 0
M  V30 10884 H 993.444 3.43903 -1.62589 0
M  V30 10885 H 994.756 4.59884 -1.93154 0
M  V30 10886 H 993.91 6.06635 -0.0887719 0
M  V30 10887 H 992.649 4.8669 0.313704 0
M  V30 10888 H 991.654 5.13063 -1.97602 0
M  V30 10889 H 992.879 6.3637 -2.37088 0
M  V30 10890 H 990.825 6.5586 -0.135339 0
M  V30 10891 H 990.742 7.37508 -1.66186 0
M  V30 10892 H 992.01 7.77611 -0.542346 0
M  V30 10893 N 996.239 0.8527 1.3254 0
M  V30 10894 C 997.488 0.45136 1.96585 0
M  V30 10895 C 997.801 -0.997773 1.68237 0
M  V30 10896 O 999.007 -1.50445 2.26006 0
M  V30 10897 C 997.463 0.75619 3.51866 0
M  V30 10898 C 997.071 2.22092 3.89075 0
M  V30 10899 C 998.815 0.422478 4.22392 0
M  V30 10900 C 996.722 2.46908 5.37392 0
M  V30 10901 H 995.652 0.165052 0.735713 0
M  V30 10902 H 998.303 1.04321 1.50962 0
M  V30 10903 H 996.685 0.0937988 3.95889 0
M  V30 10904 H 997.859 2.92494 3.56067 0
M  V30 10905 H 996.174 2.51896 3.31568 0
M  V30 10906 H 998.771 0.58533 5.31487 0
M  V30 10907 H 999.114 -0.635737 4.11417 0
M  V30 10908 H 999.647 1.04068 3.83946 0
M  V30 10909 H 996.386 3.51346 5.53386 0
M  V30 10910 H 995.906 1.81082 5.71812 0
M  V30 10911 H 997.585 2.30758 6.0445 0
M  V30 10912 N 997.718 -1.45297 0.610449 0
M  V30 10913 C 998.946 -2.0659 0.113211 0
M  V30 10914 C 999.361 -1.4546 -1.20361 0
M  V30 10915 O 998.718 -0.569823 -1.73376 0
M  V30 10916 C 998.769 -3.61488 -0.0298411 0
M  V30 10917 O 998.49 -4.20336 1.23488 0
M  V30 10918 C 999.991 -4.39772 -0.558202 0
M  V30 10919 H 997.211 -0.667322 0.0701555 0
M  V30 10920 H 999.755 -1.86497 0.838993 0
M  V30 10921 H 997.91 -3.80913 -0.705963 0
M  V30 10922 H 998.324 -5.13545 1.0664 0
M  V30 10923 H 999.798 -5.48648 -0.607375 0
M  V30 10924 H 1000.27 -4.09755 -1.58107 0
M  V30 10925 H 1000.88 -4.25217 0.0839704 0
M  V30 10926 N 999.196 -0.349774 -1.5367 0
M  V30 10927 C 1000.61 0.00191293 -1.596 0
M  V30 10928 C 1000.81 1.48175 -1.36552 0
M  V30 10929 O 999.868 2.24129 -1.16285 0
M  V30 10930 C 1001.18 -0.439848 -2.97466 0
M  V30 10931 C 1002.73 -0.392721 -3.10526 0
M  V30 10932 C 1003.2 -0.810047 -4.5078 0
M  V30 10933 N 1004.69 -0.764478 -4.56848 0
M  V30 10934 C 1005.43 -1.05927 -5.63531 0
M  V30 10935 N 1004.93 -1.42253 -6.78038 0
M  V30 10936 N 1006.72 -0.983098 -5.53436 0
M  V30 10937 H 998.87 -1.31364 -1.66905 0
M  V30 10938 H 1001.13 -0.535908 -0.781989 0
M  V30 10939 H 1000.84 -1.47189 -3.19419 0
M  V30 10940 H 1000.71 0.181735 -3.76762 0
M  V30 10941 H 1003.1 0.630161 -2.88293 0
M  V30 10942 H 1003.18 -1.04959 -2.33275 0
M  V30 10943 H 1002.82 -1.83097 -4.73749 0
M  V30 10944 H 1002.75 -0.130591 -5.26438 0
M  V30 10945 H 1005.25 -0.496637 -3.74622 0
M  V30 10946 H 1005.56 -1.63215 -7.55368 0
M  V30 10947 H 1003.9 -1.46104 -6.79469 0
M  V30 10948 H 1007.09 -0.698601 -4.62858 0
M  V30 10949 H 1007.27 -1.21618 -6.36485 0
M  V30 10950 N 1000.67 1.57404 -0.0785433 0
M  V30 10951 C 1002.09 1.57158 0.2781 0
M  V30 10952 C 1002.29 1.08847 1.69572 0
M  V30 10953 O 1001.35 0.757407 2.40873 0
M  V30 10954 C 1002.66 3.00589 0.0816067 0
M  V30 10955 C 1004.21 3.12637 0.150627 0
M  V30 10956 C 1004.68 4.57997 -0.0176685 0
M  V30 10957 N 1006.17 4.63185 0.0377145 0
M  V30 10958 C 1006.91 5.7336 -0.0679907 0
M  V30 10959 N 1006.4 6.92426 -0.227598 0
M  V30 10960 N 1008.2 5.62099 -0.0104424 0
M  V30 10961 H 1000.35 1.87121 -1.00496 0
M  V30 10962 H 1002.61 0.862937 -0.392484 0
M  V30 10963 H 1002.32 3.40072 -0.896869 0
M  V30 10964 H 1002.19 3.67931 0.831046 0
M  V30 10965 H 1004.58 2.73037 1.11959 0
M  V30 10966 H 1004.66 2.4792 -0.630028 0
M  V30 10967 H 1004.3 4.98288 -0.983431 0
M  V30 10968 H 1004.23 5.20754 0.782475 0
M  V30 10969 H 1006.72 3.77564 0.159208 0
M  V30 10970 H 1007.04 7.72217 -0.300217 0
M  V30 10971 H 1005.38 6.94502 -0.263049 0
M  V30 10972 H 1008.57 4.67964 0.112999 0
M  V30 10973 H 1008.75 6.47928 -0.0962747 0
M  V30 10974 N 1002.15 -0.195058 1.56388 0
M  V30 10975 C 1003.56 -0.75973 1.70543 0
M  V30 10976 C 1003.91 -1.83849 0.685118 0
M  V30 10977 O 1003.04 -2.15819 -0.158457 0
M  V30 10978 C 1003.63 -1.38485 3.09204 0
M  V30 10979 C 1002.19 -1.89661 3.25124 0
M  V30 10980 C 1001.34 -0.766563 2.66494 0
M  V30 10981 H 1004.29 0.0300148 1.58672 0
M  V30 10982 H 1004.31 -2.25424 3.06536 0
M  V30 10983 H 1003.82 -0.599479 3.83442 0
M  V30 10984 H 1001.92 -2.70917 2.55802 0
M  V30 10985 H 1002.04 -2.05837 4.32629 0
M  V30 10986 H 1000.4 -1.18086 2.25672 0
M  V30 10987 H 1001.18 0.00657102 3.43299 0
M  V30 10988 N 1003.63 -1.50653 -0.462772 0
M  V30 10989 C 1004.54 -1.72923 -1.58539 0
M  V30 10990 C 1005.56 -0.612577 -1.6286 0
M  V30 10991 O 1006.73 -0.891885 -1.80575 0
M  V30 10992 C 1003.8 -1.82623 -2.94703 0
M  V30 10993 C 1002.86 -3.06392 -3.00704 0
M  V30 10994 C 1002.09 -3.15618 -4.30373 0
M  V30 10995 O 1002.31 -2.31423 -5.21344 0
M  V30 10996 O 1001.25 -4.0841 -4.42136 0
M  V30 10997 H 1005.07 -2.68103 -1.42669 0
M  V30 10998 H 1002.66 -1.34848 -0.643144 0
M  V30 10999 H 1004.54 -1.91134 -3.7556 0
M  V30 11000 H 1003.22 -0.906275 -3.10754 0
M  V30 11001 H 1002.12 -3.03375 -2.18894 0
M  V30 11002 H 1003.46 -3.97992 -2.89591 0
M  V30 11003 N 1005.11 0.71652 -1.4037 0
M  V30 11004 C 1006.39 1.46947 -1.29097 0
M  V30 11005 C 1006.77 2.10903 0.0911182 0
M  V30 11006 O 1006.11 2.00068 1.10385 0
M  V30 11007 C 1006.32 2.50594 -2.42907 0
M  V30 11008 C 1007.67 3.16451 -2.83097 0
M  V30 11009 O 1008.7 2.60913 -2.42493 0
M  V30 11010 O 1007.55 4.16991 -3.53244 0
M  V30 11011 H 1004.65 0.653413 -0.506932 0
M  V30 11012 H 1007.19 0.748774 -1.52287 0
M  V30 11013 H 1005.97 2.01843 -3.35224 0
M  V30 11014 H 1005.59 3.302 -2.21481 0
M  V30 11015 N 1006.59 1.25851 0.948643 0
M  V30 11016 C 1007.52 1.09248 2.06367 0
M  V30 11017 C 1008.5 -0.000205168 1.701 0
M  V30 11018 O 1009.68 0.170442 1.93451 0
M  V30 11019 C 1006.81 0.716777 3.39823 0
M  V30 11020 C 1005.77 1.76036 3.90122 0
M  V30 11021 C 1005.09 1.23918 5.20143 0
M  V30 11022 C 1006.39 3.16039 4.15833 0
M  V30 11023 H 1008.09 2.02518 2.20515 0
M  V30 11024 H 1005.63 0.975093 1.05962 0
M  V30 11025 H 1007.59 0.587531 4.17284 0
M  V30 11026 H 1006.31 -0.251626 3.25629 0
M  V30 11027 H 1004.97 1.87815 3.14835 0
M  V30 11028 H 1004.62 0.260836 5.02323 0
M  V30 11029 H 1004.32 1.93673 5.54765 0
M  V30 11030 H 1005.84 1.12245 6.00194 0
M  V30 11031 H 1007.25 3.0738 4.83933 0
M  V30 11032 H 1005.65 3.83317 4.61723 0
M  V30 11033 H 1006.72 3.62652 3.21887 0
M  V30 11034 N 1008.06 -1.15214 1.07534 0
M  V30 11035 C 1009.31 -1.85388 0.794617 0
M  V30 11036 C 1009.63 -1.83331 -0.681838 0
M  V30 11037 O 1010.83 -2.49207 -1.0774 0
M  V30 11038 C 1009.29 -3.32747 1.37141 0
M  V30 11039 C 1008.9 -3.43244 2.87902 0
M  V30 11040 C 1010.64 -4.08093 1.16879 0
M  V30 11041 C 1008.55 -4.84762 3.38763 0
M  V30 11042 H 1007.48 -0.694499 0.293577 0
M  V30 11043 H 1010.13 -1.29944 1.29564 0
M  V30 11044 H 1008.51 -3.87874 0.798121 0
M  V30 11045 H 1009.68 -2.98214 3.51291 0
M  V30 11046 H 1008 -2.81345 3.06975 0
M  V30 11047 H 1010.6 -5.12535 1.52353 0
M  V30 11048 H 1010.94 -4.1616 0.107958 0
M  V30 11049 H 1011.47 -3.59241 1.70854 0
M  V30 11050 H 1008.21 -4.81879 4.4438 0
M  V30 11051 H 1007.73 -5.30366 2.80128 0
M  V30 11052 H 1009.41 -5.53624 3.34827 0
M  V30 11053 N 1009.54 -0.859717 -1.32086 0
M  V30 11054 C 1010.96 -0.55025 -1.49815 0
M  V30 11055 C 1011.16 0.917966 -1.79376 0
M  V30 11056 O 1010.21 1.70073 -1.86632 0
M  V30 11057 C 1011.53 -1.44161 -2.6389 0
M  V30 11058 C 1013.08 -1.44257 -2.77775 0
M  V30 11059 C 1013.55 -2.31926 -3.94936 0
M  V30 11060 N 1015.04 -2.2975 -4.02206 0
M  V30 11061 C 1015.78 -2.9431 -4.92107 0
M  V30 11062 N 1015.27 -3.68001 -5.86981 0
M  V30 11063 N 1017.07 -2.83671 -4.8527 0
M  V30 11064 H 1009.22 -1.80987 -1.11164 0
M  V30 11065 H 1011.48 -0.773313 -0.548353 0
M  V30 11066 H 1011.19 -2.48588 -2.4879 0
M  V30 11067 H 1011.06 -1.13268 -3.59792 0
M  V30 11068 H 1013.45 -0.405923 -2.92295 0
M  V30 11069 H 1013.53 -1.79169 -1.82571 0
M  V30 11070 H 1013.17 -3.35661 -3.81174 0
M  V30 11071 H 1013.1 -1.94344 -4.89426 0
M  V30 11072 H 1015.59 -1.76177 -3.3432 0
M  V30 11073 H 1015.91 -4.14417 -6.52287 0
M  V30 11074 H 1014.25 -3.72109 -5.86992 0
M  V30 11075 H 1017.44 -2.25647 -4.10123 0
M  V30 11076 H 1017.61 -3.34267 -5.5513 0
M  V30 11077 N 1011.02 1.44971 -0.618145 0
M  V30 11078 C 1012.44 1.57077 -0.282666 0
M  V30 11079 C 1012.64 1.60782 1.21456 0
M  V30 11080 O 1011.69 1.54382 1.99806 0
M  V30 11081 C 1013.01 2.84858 -0.963148 0
M  V30 11082 C 1014.55 2.9855 -0.940062 0
M  V30 11083 C 1015.03 4.29115 -1.60076 0
M  V30 11084 N 1016.52 4.35899 -1.56674 0
M  V30 11085 C 1017.25 5.35617 -2.04701 0
M  V30 11086 N 1016.75 6.41813 -2.6086 0
M  V30 11087 N 1018.54 5.27042 -1.95406 0
M  V30 11088 H 1010.69 1.4081 -1.59017 0
M  V30 11089 H 1012.96 0.673914 -0.666741 0
M  V30 11090 H 1012.66 2.88059 -2.0178 0
M  V30 11091 H 1012.54 3.73966 -0.492901 0
M  V30 11092 H 1014.92 2.94909 0.10607 0
M  V30 11093 H 1015.01 2.10825 -1.44868 0
M  V30 11094 H 1014.65 4.33514 -2.64627 0
M  V30 11095 H 1014.58 5.15675 -1.06708 0
M  V30 11096 H 1017.07 3.59766 -1.15659 0
M  V30 11097 H 1017.38 7.14166 -2.95273 0
M  V30 11098 H 1015.73 6.42534 -2.64905 0
M  V30 11099 H 1018.92 4.42987 -1.51263 0
M  V30 11100 H 1019.09 6.04604 -2.33147 0
M  V30 11101 N 1012.5 0.357919 1.53482 0
M  V30 11102 C 1013.43 -0.484231 2.28424 0
M  V30 11103 C 1014.41 -1.09046 1.30548 0
M  V30 11104 O 1015.59 -1.10916 1.59409 0
M  V30 11105 C 1012.72 -1.62803 3.06778 0
M  V30 11106 C 1011.68 -1.14943 4.12277 0
M  V30 11107 C 1011 -2.38287 4.78669 0
M  V30 11108 C 1012.3 -0.239627 5.2175 0
M  V30 11109 H 1014 0.140979 2.99068 0
M  V30 11110 H 1011.54 0.069244 1.43833 0
M  V30 11111 H 1013.5 -2.22374 3.57949 0
M  V30 11112 H 1012.22 -2.28036 2.3381 0
M  V30 11113 H 1010.88 -0.576442 3.6204 0
M  V30 11114 H 1010.53 -3.01959 4.02281 0
M  V30 11115 H 1010.23 -2.06939 5.49955 0
M  V30 11116 H 1011.75 -2.98558 5.32631 0
M  V30 11117 H 1013.17 -0.742597 5.6847 0
M  V30 11118 H 1011.56 -0.0173747 6.00097 0
M  V30 11119 H 1012.63 0.720333 4.7952 0
M  V30 11120 N 1013.98 -1.5736 0.0868897 0
M  V30 11121 C 1015.22 -1.95933 -0.582212 0
M  V30 11122 C 1015.58 -0.967238 -1.65857 0
M  V30 11123 O 1016.78 -1.24116 -2.3843 0
M  V30 11124 C 1015.05 -3.39049 -1.1305 0
M  V30 11125 S 1016.61 -3.99612 -1.81262 0
M  V30 11126 H 1013.43 -0.685082 -0.190221 0
M  V30 11127 H 1016.03 -1.94808 0.164341 0
M  V30 11128 H 1014.74 -4.09026 -0.335492 0
M  V30 11129 H 1014.27 -3.43752 -1.91307 0
M  V30 11130 H 1016.28 -3.87747 -3.09624 0
M  V30 11131 N 1015.45 0.186762 -1.56489 0
M  V30 11132 C 1016.87 0.537933 -1.50261 0
M  V30 11133 C 1017.07 1.85435 -0.788414 0
M  V30 11134 O 1016.13 2.50168 -0.342377 0
M  V30 11135 C 1017.44 0.584965 -2.94955 0
M  V30 11136 C 1018.99 0.673228 -3.05674 0
M  V30 11137 C 1019.46 0.751294 -4.51796 0
M  V30 11138 N 1020.95 0.814599 -4.55981 0
M  V30 11139 C 1021.69 0.895313 -5.66367 0
M  V30 11140 N 1021.18 0.937814 -6.86423 0
M  V30 11141 N 1022.98 0.933145 -5.543 0
M  V30 11142 H 1015.13 -0.676636 -2.01334 0
M  V30 11143 H 1017.39 -0.242079 -0.916571 0
M  V30 11144 H 1017.1 -0.313361 -3.50301 0
M  V30 11145 H 1016.97 1.4368 -3.48763 0
M  V30 11146 H 1019.36 1.56198 -2.50372 0
M  V30 11147 H 1019.44 -0.204976 -2.54977 0
M  V30 11148 H 1019.08 -0.133143 -5.07725 0
M  V30 11149 H 1019.01 1.64542 -5.00233 0
M  V30 11150 H 1021.5 0.790662 -3.69536 0
M  V30 11151 H 1021.82 1.00015 -7.66301 0
M  V30 11152 H 1020.16 0.906351 -6.89065 0
M  V30 11153 H 1023.35 0.896836 -4.59428 0
M  V30 11154 H 1023.53 0.992588 -6.40353 0
M  V30 11155 N 1016.93 1.50896 0.454776 0
M  V30 11156 C 1017.86 1.6712 1.56855 0
M  V30 11157 C 1018.88 0.552223 1.53148 0
M  V30 11158 O 1020.07 0.825969 1.5824 0
M  V30 11159 C 1017.17 1.65464 2.95762 0
M  V30 11160 C 1016.34 2.93662 3.24163 0
M  V30 11161 C 1015.4 2.84428 4.42704 0
M  V30 11162 O 1014.42 3.58382 4.42211 0
M  V30 11163 N 1015.63 1.9909 5.45292 0
M  V30 11164 H 1018.39 2.63194 1.43349 0
M  V30 11165 H 1015.95 1.48564 0.643457 0
M  V30 11166 H 1017.94 1.56878 3.73057 0
M  V30 11167 H 1016.51 0.770568 3.02954 0
M  V30 11168 H 1015.73 3.16251 2.35328 0
M  V30 11169 H 1017.02 3.78558 3.39957 0
M  V30 11170 H 1016.42 1.3835 5.48521 0
M  V30 11171 H 1014.98 1.96396 6.21508 0
M  V30 11172 N 1018.41 -0.709066 1.40748 0
M  V30 11173 C 1019.36 -1.84445 1.41714 0
M  V30 11174 C 1020.35 -1.66779 0.296818 0
M  V30 11175 O 1021.56 -1.73805 0.468181 0
M  V30 11176 H 1017.93 -0.607581 0.443114 0
M  V30 11177 H 1019.9 -1.80747 2.3743 0
M  V30 11178 C 1018.65 -3.22362 1.303 0
M  V30 11179 H 1017.98 -3.36565 2.15787 0
M  V30 11180 H 1019.42 -4.01922 1.35036 0
M  V30 11181 C 1017.88 -3.36897 0.0139015 0
M  V30 11182 O 1018.41 -3.90389 -0.946553 0
M  V30 11183 N 1016.61 -2.90543 -0.0577491 0
M  V30 11184 H 1016.16 -2.472 0.724574 0
M  V30 11185 H 1016.12 -3.00647 -0.919721 0
M  V30 11186 N 1019.89 -1.26353 -0.941956 0
M  V30 11187 C 1021.3 -1.10774 -1.50287 0
M  V30 11188 C 1021.65 0.312229 -1.937 0
M  V30 11189 O 1020.78 1.20364 -1.79838 0
M  V30 11190 C 1021.37 -2.00473 -2.73123 0
M  V30 11191 C 1019.93 -1.89042 -3.25485 0
M  V30 11192 C 1019.08 -1.93869 -1.98267 0
M  V30 11193 H 1022.03 -1.39454 -0.757523 0
M  V30 11194 H 1022.05 -1.55216 -3.47402 0
M  V30 11195 H 1021.56 -3.03812 -2.41495 0
M  V30 11196 H 1019.66 -0.886341 -3.61904 0
M  V30 11197 H 1019.78 -2.74533 -3.92643 0
M  V30 11198 H 1018.14 -1.37912 -2.14132 0
M  V30 11199 H 1018.92 -2.98837 -1.68972 0
M  V30 11200 N 1021.37 1.14642 -1.08144 0
M  V30 11201 C 1022.6 1.89484 -0.830864 0
M  V30 11202 C 1023.01 1.78443 0.616722 0
M  V30 11203 O 1022.37 1.14191 1.42361 0
M  V30 11204 C 1022.42 3.39554 -1.24039 0
M  V30 11205 O 1022.14 3.50286 -2.63119 0
M  V30 11206 C 1023.64 4.31399 -1.02029 0
M  V30 11207 H 1020.86 0.600283 -0.299835 0
M  V30 11208 H 1023.4 1.45204 -1.44001 0
M  V30 11209 H 1021.56 3.81467 -0.675407 0
M  V30 11210 H 1021.97 4.43481 -2.80045 0
M  V30 11211 H 1023.45 5.35079 -1.35625 0
M  V30 11212 H 1023.92 4.39179 0.0428697 0
M  V30 11213 H 1024.53 3.95238 -1.57057 0
M  V30 11214 N 1022.85 0.866709 1.31628 0
M  V30 11215 C 1023.76 0.323408 2.3236 0
M  V30 11216 C 1024.77 -0.564995 1.64572 0
M  V30 11217 O 1025.95 -0.462489 1.96018 0
M  V30 11218 C 1023.01 -0.469045 3.43513 0
M  V30 11219 C 1022.07 0.446928 4.26967 0
M  V30 11220 C 1021.31 -0.307799 5.32812 0
M  V30 11221 O 1021.53 -1.5363 5.49321 0
M  V30 11222 O 1020.46 0.332653 6.0098 0
M  V30 11223 H 1024.29 1.15827 2.80745 0
M  V30 11224 H 1021.87 0.629987 1.35468 0
M  V30 11225 H 1023.76 -0.918405 4.1127 0
M  V30 11226 H 1022.43 -1.28051 2.97296 0
M  V30 11227 H 1021.34 0.944719 3.61975 0
M  V30 11228 H 1022.67 1.2239 4.76741 0
M  V30 11229 N 1024.32 -1.44642 0.625825 0
M  V30 11230 C 1025.74 -1.56925 0.290992 0
M  V30 11231 C 1025.94 -1.61424 -1.20601 0
M  V30 11232 O 1025 -1.55439 -1.98985 0
M  V30 11233 C 1026.31 -2.84343 0.978242 0
M  V30 11234 C 1027.86 -2.98047 0.955882 0
M  V30 11235 C 1028.33 -4.2826 1.62349 0
M  V30 11236 N 1029.82 -4.35062 1.58983 0
M  V30 11237 C 1030.56 -5.34524 2.07538 0
M  V30 11238 N 1030.05 -6.4042 2.6426 0
M  V30 11239 N 1031.85 -5.25998 1.98198 0
M  V30 11240 H 1024 -1.39965 1.59761 0
M  V30 11241 H 1026.26 -0.670368 0.670306 0
M  V30 11242 H 1025.97 -2.86985 2.03304 0
M  V30 11243 H 1025.84 -3.73699 0.512726 0
M  V30 11244 H 1028.23 -2.94961 -0.0904292 0
M  V30 11245 H 1028.31 -2.10053 1.45984 0
M  V30 11246 H 1027.95 -4.32105 2.66923 0
M  V30 11247 H 1027.88 -5.15102 1.09441 0
M  V30 11248 H 1030.37 -3.59147 1.17565 0
M  V30 11249 H 1030.69 -7.1259 2.99056 0
M  V30 11250 H 1029.03 -6.41121 2.68308 0
M  V30 11251 H 1032.22 -4.42178 1.5361 0
M  V30 11252 H 1032.4 -6.03359 2.3635 0
M  V30 11253 N 1025.8 -0.366053 -1.5329 0
M  V30 11254 C 1026.73 0.47211 -2.28677 0
M  V30 11255 C 1027.71 1.08353 -1.31125 0
M  V30 11256 O 1028.9 1.10069 -1.59995 0
M  V30 11257 C 1026.03 1.61174 -3.07637 0
M  V30 11258 C 1024.98 1.12755 -4.12881 0
M  V30 11259 C 1024.31 2.35745 -4.79925 0
M  V30 11260 C 1025.61 0.211954 -5.2187 0
M  V30 11261 H 1027.3 -0.156838 -2.98989 0
M  V30 11262 H 1024.85 -0.0768709 -1.43795 0
M  V30 11263 H 1026.8 2.20473 -3.59123 0
M  V30 11264 H 1025.52 2.26793 -2.35016 0
M  V30 11265 H 1024.18 0.557234 -3.6234 0
M  V30 11266 H 1023.83 2.99821 -4.03877 0
M  V30 11267 H 1023.53 2.04019 -5.51044 0
M  V30 11268 H 1025.06 2.95729 -5.34207 0
M  V30 11269 H 1026.47 0.71244 -5.68856 0
M  V30 11270 H 1024.87 -0.0144501 -6.00098 0
M  V30 11271 H 1025.94 -0.745753 -4.79131 0
M  V30 11272 N 1027.28 1.57312 -0.0952337 0
M  V30 11273 C 1028.53 1.93974 0.567319 0
M  V30 11274 C 1028.85 0.977805 1.68713 0
M  V30 11275 O 1028.12 0.0298944 1.95877 0
M  V30 11276 H 1026.7 0.71612 0.212558 0
M  V30 11277 H 1029.36 1.94254 -0.158598 0
M  V30 11278 H 1028.46 2.964 0.977423 0
M  V30 11279 N 1028.76 -0.17846 1.56586 0
M  V30 11280 C 1029.71 -1.24042 1.96765 0
M  V30 11281 C 1030.7 -1.46218 0.855375 0
M  V30 11282 O 1031.91 -1.46882 1.04046 0
M  V30 11283 H 1028.28 -0.416807 0.62592 0
M  V30 11284 H 1030.25 -0.874644 2.85294 0
M  V30 11285 C 1029 -2.57394 2.3376 0
M  V30 11286 H 1028.32 -2.41151 3.18883 0
M  V30 11287 H 1029.76 -3.30405 2.65723 0
M  V30 11288 C 1028.22 -3.15621 1.17835 0
M  V30 11289 O 1028.75 -3.99032 0.462202 0
M  V30 11290 N 1026.96 -2.74606 0.950783 0
M  V30 11291 H 1026.51 -2.06878 1.5349 0
M  V30 11292 H 1026.46 -3.13902 0.176967 0
M  V30 11293 N 1030.24 -1.51135 -0.446768 0
M  V30 11294 C 1031.17 -1.74709 -1.54916 0
M  V30 11295 C 1032.15 -0.596628 -1.59293 0
M  V30 11296 O 1033.33 -0.838356 -1.75172 0
M  V30 11297 C 1030.46 -1.86353 -2.9307 0
M  V30 11298 C 1029.42 -3.01725 -3.03556 0
M  V30 11299 C 1028.74 -2.9854 -4.43597 0
M  V30 11300 C 1030.04 -4.41848 -2.7851 0
M  V30 11301 H 1031.74 -2.67014 -1.3544 0
M  V30 11302 H 1029.28 -1.28489 -0.650131 0
M  V30 11303 H 1031.23 -2.01428 -3.70141 0
M  V30 11304 H 1029.96 -0.906887 -3.13756 0
M  V30 11305 H 1028.62 -2.86339 -2.28922 0
M  V30 11306 H 1028.27 -2.00673 -4.61237 0
M  V30 11307 H 1027.97 -3.76008 -4.51544 0
M  V30 11308 H 1029.49 -3.15696 -5.22655 0
M  V30 11309 H 1030.9 -4.57633 -3.45319 0
M  V30 11310 H 1029.3 -5.2095 -2.97877 0
M  V30 11311 H 1030.37 -4.52536 -1.74182 0
M  V30 11312 N 1031.71 0.701592 -1.41122 0
M  V30 11313 C 1032.66 1.81559 -1.42495 0
M  V30 11314 C 1033.63 1.63722 -0.280078 0
M  V30 11315 O 1034.82 1.84658 -0.480231 0
M  V30 11316 C 1031.96 3.19392 -1.30702 0
M  V30 11317 C 1031.07 3.48704 -2.55009 0
M  V30 11318 C 1030.2 4.76118 -2.35554 0
M  V30 11319 C 1029.24 4.98378 -3.55367 0
M  V30 11320 N 1028.38 6.17014 -3.3502 0
M  V30 11321 H 1033.22 1.7972 -2.37707 0
M  V30 11322 H 1030.76 0.877727 -1.18044 0
M  V30 11323 H 1032.71 3.99004 -1.21867 0
M  V30 11324 H 1031.34 3.20423 -0.391012 0
M  V30 11325 H 1030.4 2.63542 -2.74317 0
M  V30 11326 H 1031.71 3.61057 -3.44151 0
M  V30 11327 H 1030.86 5.63774 -2.24152 0
M  V30 11328 H 1029.6 4.66 -1.43859 0
M  V30 11329 H 1028.61 4.09172 -3.6723 0
M  V30 11330 H 1029.83 5.10359 -4.48007 0
M  V30 11331 H 1027.78 6.0812 -2.4602 0
M  V30 11332 H 1027.69 6.30107 -4.17733 0
M  V30 11333 H 1028.96 7.0742 -3.27379 0
M  V30 11334 N 1033.19 1.2685 0.935242 0
M  V30 11335 C 1034.14 1.08746 2.05614 0
M  V30 11336 C 1035.13 0.012681 1.69395 0
M  V30 11337 O 1036.34 0.169822 1.79197 0
M  V30 11338 H 1032.71 0.33485 0.673335 0
M  V30 11339 H 1034.69 2.03725 2.18033 0
M  V30 11340 C 1033.43 0.74346 3.39659 0
M  V30 11341 H 1032.76 1.56236 3.68008 0
M  V30 11342 H 1034.2 0.656607 4.18885 0
M  V30 11343 C 1032.66 -0.551751 3.32351 0
M  V30 11344 O 1033.19 -1.58836 3.68963 0
M  V30 11345 N 1031.39 -0.544583 2.85452 0
M  V30 11346 H 1030.94 0.29939 2.55854 0
M  V30 11347 H 1030.9 -1.41129 2.80945 0
M  V30 11348 N 1034.67 -1.14067 1.0875 0
M  V30 11349 C 1035.92 -1.84819 0.817698 0
M  V30 11350 C 1036.24 -1.83545 -0.658488 0
M  V30 11351 O 1035.51 -1.28633 -1.47751 0
M  V30 11352 H 1034.09 -0.68433 0.299502 0
M  V30 11353 H 1036.75 -1.38208 1.37421 0
M  V30 11354 H 1035.85 -2.89541 1.16501 0
M  V30 11355 N 1036.15 -0.873678 -1.31166 0
M  V30 11356 C 1037.4 -0.482577 -1.95842 0
M  V30 11357 C 1037.71 0.970881 -1.69804 0
M  V30 11358 O 1038.92 1.4683 -2.28371 0
M  V30 11359 C 1037.37 -0.812074 -3.50619 0
M  V30 11360 C 1036.98 -2.28254 -3.85492 0
M  V30 11361 C 1038.72 -0.489624 -4.21667 0
M  V30 11362 C 1036.63 -2.55426 -5.33396 0
M  V30 11363 H 1035.56 -0.176736 -0.732994 0
M  V30 11364 H 1038.21 -1.06709 -1.49283 0
M  V30 11365 H 1036.59 -0.156769 -3.9569 0
M  V30 11366 H 1037.77 -2.98122 -3.51369 0
M  V30 11367 H 1036.08 -2.5714 -3.27518 0
M  V30 11368 H 1038.68 -0.669811 -5.30488 0
M  V30 11369 H 1039.02 0.570204 -4.12376 0
M  V30 11370 H 1039.56 -1.10163 -3.82242 0
M  V30 11371 H 1036.3 -3.60106 -5.47726 0
M  V30 11372 H 1035.82 -1.90156 -5.68859 0
M  V30 11373 H 1037.49 -2.40345 -6.00702 0
M  V30 11374 N 1037.63 1.44308 -0.633487 0
M  V30 11375 C 1038.57 2.32455 0.0821956 0
M  V30 11376 C 1039.57 1.47482 0.833388 0
M  V30 11377 O 1040.77 1.63812 0.746021 0
M  V30 11378 H 1037.15 0.750631 0.045352 0
M  V30 11379 H 1039.12 2.90566 -0.679282 0
M  V30 11380 C 1037.87 3.31512 1.04858 0
M  V30 11381 H 1037.19 3.96908 0.479979 0
M  V30 11382 H 1038.63 3.95865 1.51879 0
M  V30 11383 C 1037.09 2.60615 2.13498 0
M  V30 11384 O 1037.62 2.40682 3.21613 0
M  V30 11385 N 1035.83 2.20315 1.89499 0
M  V30 11386 H 1035.37 2.36726 1.01581 0
M  V30 11387 H 1035.33 1.73205 2.62388 0
M  V30 11388 N 1039.1 0.374177 1.53094 0
M  V30 11389 C 1040.38 -0.269632 1.93733 0
M  V30 11390 C 1040.76 -1.6566 1.30843 0
M  V30 11391 O 1040.11 -2.23598 0.470759 0
M  V30 11392 C 1040.32 -0.311204 3.4761 0
M  V30 11393 C 1041.67 -0.547432 4.21056 0
M  V30 11394 O 1042.69 -0.392053 3.54036 0
M  V30 11395 O 1041.55 -0.850645 5.39839 0
M  V30 11396 H 1038.64 -0.163723 0.810632 0
M  V30 11397 H 1041.19 0.427586 1.64225 0
M  V30 11398 H 1039.96 0.660897 3.85678 0
M  V30 11399 H 1039.59 -1.05397 3.83376 0
M  V30 11400 N 1040.58 -1.57259 0.103575 0
M  V30 11401 C 1041.83 -1.93832 -0.55786 0
M  V30 11402 C 1042.14 -0.988087 -1.68808 0
M  V30 11403 O 1043.35 -1.24786 -2.41124 0
M  V30 11404 C 1041.81 -3.44433 -1.04373 0
M  V30 11405 C 1041.41 -4.47963 0.0571971 0
M  V30 11406 C 1043.16 -3.89953 -1.67742 0
M  V30 11407 C 1041.07 -5.89727 -0.444505 0
M  V30 11408 H 1040 -0.723536 -0.212161 0
M  V30 11409 H 1042.65 -1.82606 0.180944 0
M  V30 11410 H 1041.03 -3.50841 -1.83648 0
M  V30 11411 H 1042.2 -4.53209 0.83298 0
M  V30 11412 H 1040.52 -4.12104 0.596588 0
M  V30 11413 H 1043.11 -4.93272 -2.06365 0
M  V30 11414 H 1043.46 -3.2907 -2.54988 0
M  V30 11415 H 1043.99 -3.86281 -0.950342 0
M  V30 11416 H 1040.73 -6.5433 0.391543 0
M  V30 11417 H 1040.25 -5.87935 -1.18711 0
M  V30 11418 H 1041.93 -6.40558 -0.910739 0
M  V30 11419 N 1042.06 0.170153 -1.56679 0
M  V30 11420 C 1043.01 1.21064 -1.965 0
M  V30 11421 C 1043.98 1.43928 -0.829092 0
M  V30 11422 O 1045.16 1.56649 -1.08931 0
M  V30 11423 C 1042.3 2.54468 -2.33109 0
M  V30 11424 C 1041.42 2.38974 -3.59883 0
M  V30 11425 C 1040.55 3.65252 -3.857 0
M  V30 11426 C 1039.59 3.44696 -5.05817 0
M  V30 11427 N 1038.73 4.63047 -5.27761 0
M  V30 11428 H 1043.57 0.864055 -2.85198 0
M  V30 11429 H 1041.1 0.415243 -1.41117 0
M  V30 11430 H 1043.06 3.32222 -2.52358 0
M  V30 11431 H 1041.69 2.8712 -1.4752 0
M  V30 11432 H 1040.74 1.5239 -3.48542 0
M  V30 11433 H 1042.06 2.19731 -4.47794 0
M  V30 11434 H 1041.21 4.51441 -4.05322 0
M  V30 11435 H 1039.95 3.87475 -2.96166 0
M  V30 11436 H 1038.95 2.56893 -4.86092 0
M  V30 11437 H 1040.18 3.23894 -5.96883 0
M  V30 11438 H 1038.12 4.85487 -4.41179 0
M  V30 11439 H 1038.04 4.46722 -6.09898 0
M  V30 11440 H 1039.31 5.50516 -5.51863 0
M  V30 11441 N 1043.54 1.5137 0.438746 0
M  V30 11442 C 1044.49 1.72582 1.53245 0
M  V30 11443 C 1045.46 0.567488 1.56105 0
M  V30 11444 O 1046.64 0.80176 1.73137 0
M  V30 11445 C 1043.78 1.85551 2.90972 0
M  V30 11446 C 1042.89 3.13094 2.97652 0
M  V30 11447 C 1042.03 3.16666 4.26493 0
M  V30 11448 C 1041.07 4.38529 4.27035 0
M  V30 11449 N 1040.2 4.39659 5.47398 0
M  V30 11450 H 1045.04 2.65941 1.3446 0
M  V30 11451 H 1042.58 1.31801 0.653206 0
M  V30 11452 H 1044.54 1.91053 3.70884 0
M  V30 11453 H 1043.17 0.956025 3.08318 0
M  V30 11454 H 1042.22 3.16909 2.10412 0
M  V30 11455 H 1043.53 4.03009 2.93914 0
M  V30 11456 H 1042.69 3.21075 5.14777 0
M  V30 11457 H 1041.43 2.24637 4.32885 0
M  V30 11458 H 1040.43 4.34297 3.37144 0
M  V30 11459 H 1041.66 5.31821 4.22307 0
M  V30 11460 H 1039.6 3.50499 5.54514 0
M  V30 11461 H 1039.52 5.23382 5.45534 0
M  V30 11462 H 1040.79 4.48259 6.37718 0
M  V30 11463 N 1045.02 -0.694098 1.41492 0
M  V30 11464 C 1045.97 -1.80016 1.39923 0
M  V30 11465 C 1046.95 -1.58561 0.273377 0
M  V30 11466 O 1048.14 -1.69368 0.514157 0
M  V30 11467 C 1045.27 -3.18333 1.28526 0
M  V30 11468 C 1044.36 -3.45478 2.45979 0
M  V30 11469 N 1044.75 -3.43313 3.71443 0
M  V30 11470 C 1043.05 -3.76033 2.39824 0
M  V30 11471 C 1043.75 -3.69404 4.4935 0
M  V30 11472 N 1042.72 -3.89221 3.79484 0
M  V30 11473 H 1046.53 -1.76707 2.34844 0
M  V30 11474 H 1044.04 -0.894148 1.35568 0
M  V30 11475 H 1046.04 -3.97567 1.25484 0
M  V30 11476 H 1044.7 -3.22852 0.345904 0
M  V30 11477 H 1045.71 -3.2366 4.04308 0
M  V30 11478 H 1042.38 -3.87913 1.54368 0
M  V30 11479 H 1043.77 -3.73854 5.58285 0
M  V30 11480 N 1046.49 -1.27344 -0.928501 0
M  V30 11481 C 1047.91 -1.04732 -1.2043 0
M  V30 11482 C 1048.11 0.219623 -2.003 0
M  V30 11483 O 1047.17 0.925333 -2.34934 0
M  V30 11484 C 1048.48 -2.28625 -1.95323 0
M  V30 11485 C 1050.03 -2.33655 -2.08265 0
M  V30 11486 C 1050.5 -3.57275 -2.86563 0
M  V30 11487 N 1051.99 -3.57828 -2.94132 0
M  V30 11488 C 1052.73 -4.50152 -3.55177 0
M  V30 11489 N 1052.22 -5.52779 -4.17621 0
M  V30 11490 N 1054.02 -4.37777 -3.52573 0
M  V30 11491 H 1046.17 -2.08697 -0.394892 0
M  V30 11492 H 1048.43 -0.91782 -0.2373 0
M  V30 11493 H 1048.14 -3.20845 -1.44054 0
M  V30 11494 H 1048.01 -2.33878 -2.95941 0
M  V30 11495 H 1050.4 -1.41942 -2.58721 0
M  V30 11496 H 1050.48 -2.32406 -1.0687 0
M  V30 11497 H 1050.12 -4.49325 -2.3679 0
M  V30 11498 H 1050.05 -3.55775 -3.88242 0
M  V30 11499 H 1052.54 -2.83607 -2.49751 0
M  V30 11500 H 1052.86 -6.19394 -4.62137 0
M  V30 11501 H 1051.2 -5.56622 -4.16169 0
M  V30 11502 H 1054.39 -3.56811 -3.02991 0
M  V30 11503 H 1054.57 -5.09919 -3.99858 0
M  V30 11504 N 1047.97 1.13488 -1.09353 0
M  V30 11505 C 1049.22 1.85234 -0.840227 0
M  V30 11506 C 1049.57 1.81884 0.627379 0
M  V30 11507 O 1048.87 1.24548 1.45596 0
M  V30 11508 C 1049.06 3.32584 -1.30854 0
M  V30 11509 C 1048.89 3.50283 -2.82014 0
M  V30 11510 C 1047.66 3.64569 -3.49883 0
M  V30 11511 C 1049.86 3.46388 -3.80158 0
M  V30 11512 N 1047.84 3.70522 -4.89476 0
M  V30 11513 C 1049.21 3.58701 -5.05701 0
M  V30 11514 C 1051.27 3.29784 -3.73024 0
M  V30 11515 C 1049.97 3.56126 -6.24953 0
M  V30 11516 C 1051.99 3.28516 -4.91763 0
M  V30 11517 C 1051.36 3.4138 -6.16149 0
M  V30 11518 H 1047.46 0.694046 -0.36031 0
M  V30 11519 H 1050.04 1.35949 -1.39377 0
M  V30 11520 H 1048.21 3.80437 -0.78246 0
M  V30 11521 H 1049.94 3.92134 -1.00064 0
M  V30 11522 H 1046.7 3.66211 -3.0031 0
M  V30 11523 H 1047.12 3.77191 -5.62188 0
M  V30 11524 H 1051.76 3.18741 -2.77784 0
M  V30 11525 H 1049.48 3.65942 -7.20494 0
M  V30 11526 H 1053.07 3.16867 -4.87941 0
M  V30 11527 H 1051.95 3.40359 -7.06488 0
M  V30 11528 N 1049.45 0.880621 1.30701 0
M  V30 11529 C 1050.38 0.360251 2.30704 0
M  V30 11530 C 1051.36 -0.554572 1.60806 0
M  V30 11531 O 1052.55 -0.469345 1.88443 0
M  V30 11532 C 1049.68 -0.429888 3.44629 0
M  V30 11533 C 1048.63 0.392786 4.26194 0
M  V30 11534 C 1047.96 -0.52369 5.32129 0
M  V30 11535 C 1049.26 1.63258 4.96129 0
M  V30 11536 H 1050.95 1.19591 2.74478 0
M  V30 11537 H 1048.5 0.576508 1.31956 0
M  V30 11538 H 1050.45 -0.804532 4.13649 0
M  V30 11539 H 1049.17 -1.29916 2.99649 0
M  V30 11540 H 1047.83 0.749514 3.58856 0
M  V30 11541 H 1047.48 -1.39054 4.83397 0
M  V30 11542 H 1047.18 0.0229272 5.87596 0
M  V30 11543 H 1048.71 -0.894946 6.04006 0
M  V30 11544 H 1050.12 1.32877 5.57689 0
M  V30 11545 H 1048.52 2.11906 5.61441 0
M  V30 11546 H 1049.59 2.37944 4.22505 0
M  V30 11547 N 1050.93 -1.4397 0.641131 0
M  V30 11548 C 1051.88 -2.32495 -0.0698668 0
M  V30 11549 C 1052.87 -1.47922 -0.825555 0
M  V30 11550 O 1054.08 -1.64206 -0.737323 0
M  V30 11551 H 1050.45 -0.750861 -0.0413706 0
M  V30 11552 H 1052.42 -2.90201 0.694682 0
M  V30 11553 C 1051.17 -3.32063 -1.03098 0
M  V30 11554 H 1050.5 -3.97157 -0.458923 0
M  V30 11555 H 1051.94 -3.96664 -1.49778 0
M  V30 11556 C 1050.39 -2.61743 -2.12113 0
M  V30 11557 O 1050.92 -2.42385 -3.20332 0
M  V30 11558 N 1049.13 -2.21316 -1.88328 0
M  V30 11559 H 1048.68 -2.37261 -1.00324 0
M  V30 11560 H 1048.64 -1.74594 -2.61465 0
M  V30 11561 N 1052.41 -0.382291 -1.52893 0
M  V30 11562 C 1053.66 0.201734 -2.01091 0
M  V30 11563 C 1053.98 1.47905 -1.2708 0
M  V30 11564 O 1053.25 1.92002 -0.38883 0
M  V30 11565 H 1051.83 0.0775373 -0.742965 0
M  V30 11566 H 1054.49 -0.512369 -1.88045 0
M  V30 11567 H 1053.58 0.416919 -3.09303 0
M  V30 11568 N 1053.89 1.57202 -0.111913 0
M  V30 11569 C 1055.13 1.9495 0.547795 0
M  V30 11570 C 1055.46 0.994763 1.67137 0
M  V30 11571 O 1054.72 0.0173528 1.95692 0
M  V30 11572 C 1055.01 3.39152 1.12741 0
M  V30 11573 C 1054.68 4.50724 0.125916 0
M  V30 11574 C 1053.34 4.80968 -0.149489 0
M  V30 11575 C 1055.69 5.18215 -0.556987 0
M  V30 11576 C 1053.02 5.76023 -1.1142 0
M  V30 11577 C 1055.37 6.14307 -1.51029 0
M  V30 11578 C 1054.04 6.42947 -1.79375 0
M  V30 11579 H 1053.31 0.713372 0.200453 0
M  V30 11580 H 1055.96 1.90542 -0.191316 0
M  V30 11581 H 1054.26 3.4022 1.94313 0
M  V30 11582 H 1055.96 3.65668 1.64584 0
M  V30 11583 H 1052.55 4.27162 0.350756 0
M  V30 11584 H 1056.73 4.95012 -0.357378 0
M  V30 11585 H 1051.99 5.9652 -1.34064 0
M  V30 11586 H 1056.16 6.65692 -2.04516 0
M  V30 11587 H 1053.79 7.1641 -2.54284 0
M  V30 11588 N 1055.36 -0.161842 1.56767 0
M  V30 11589 C 1056.31 -1.21948 1.98069 0
M  V30 11590 C 1057.31 -1.45303 0.870835 0
M  V30 11591 O 1058.51 -1.45771 1.05598 0
M  V30 11592 H 1054.89 -0.410145 0.630306 0
M  V30 11593 H 1056.86 -0.844336 2.86205 0
M  V30 11594 C 1055.61 -2.549 2.36477 0
M  V30 11595 H 1054.93 -2.37755 3.21423 0
M  V30 11596 H 1056.37 -3.27568 2.69212 0
M  V30 11597 C 1054.83 -3.14353 1.21176 0
M  V30 11598 O 1055.36 -3.98519 0.504499 0
M  V30 11599 N 1053.56 -2.73582 0.979855 0
M  V30 11600 H 1053.11 -2.05239 1.55675 0
M  V30 11601 H 1053.07 -3.13696 0.21025 0
M  V30 11602 N 1056.84 -1.516 -0.430713 0
M  V30 11603 C 1058.09 -1.65801 -1.17821 0
M  V30 11604 C 1058.44 -0.372769 -1.88754 0
M  V30 11605 O 1057.74 0.631767 -1.80885 0
M  V30 11606 C 1057.93 -2.804 -2.21609 0
M  V30 11607 C 1057.76 -4.19944 -1.60863 0
M  V30 11608 C 1056.53 -4.85786 -1.39068 0
M  V30 11609 C 1058.73 -5.02806 -1.08124 0
M  V30 11610 N 1056.71 -6.09425 -0.73989 0
M  V30 11611 C 1058.08 -6.17501 -0.556114 0
M  V30 11612 C 1060.13 -4.88288 -0.973635 0
M  V30 11613 C 1058.84 -7.1927 0.0660558 0
M  V30 11614 C 1060.86 -5.9027 -0.36535 0
M  V30 11615 C 1060.23 -7.04242 0.149205 0
M  V30 11616 H 1056.32 -0.660545 -0.418574 0
M  V30 11617 H 1058.91 -1.88847 -0.473799 0
M  V30 11618 H 1057.08 -2.59006 -2.89431 0
M  V30 11619 H 1058.81 -2.83747 -2.88565 0
M  V30 11620 H 1055.57 -4.4377 -1.65425 0
M  V30 11621 H 1055.99 -6.75622 -0.431745 0
M  V30 11622 H 1060.63 -4.00421 -1.35731 0
M  V30 11623 H 1058.35 -8.06779 0.461848 0
M  V30 11624 H 1061.94 -5.81107 -0.283902 0
M  V30 11625 H 1060.82 -7.81804 0.61249 0
M  V30 11626 N 1058.32 0.686584 -1.41858 0
M  V30 11627 C 1059.23 1.83002 -1.46791 0
M  V30 11628 C 1060.25 1.70284 -0.357675 0
M  V30 11629 O 1061.42 1.92042 -0.606781 0
M  V30 11630 C 1058.49 3.19056 -1.35661 0
M  V30 11631 C 1057.55 3.43817 -2.57077 0
M  V30 11632 C 1056.78 4.7338 -2.46469 0
M  V30 11633 O 1057 5.50483 -1.49413 0
M  V30 11634 O 1055.94 4.99124 -3.36391 0
M  V30 11635 H 1059.76 1.81797 -2.43277 0
M  V30 11636 H 1057.35 0.840812 -1.23494 0
M  V30 11637 H 1059.23 4.00267 -1.31773 0
M  V30 11638 H 1057.91 3.20925 -0.422951 0
M  V30 11639 H 1056.81 2.625 -2.66541 0
M  V30 11640 H 1058.15 3.4677 -3.49302 0
M  V30 11641 N 1059.8 1.27835 0.921735 0
M  V30 11642 C 1061.05 1.14296 1.66676 0
M  V30 11643 C 1061.37 -0.310493 1.92512 0
M  V30 11644 O 1060.64 -1.21637 1.53562 0
M  V30 11645 H 1059.22 0.419994 0.617749 0
M  V30 11646 H 1061.88 1.60449 1.10644 0
M  V30 11647 H 1060.97 1.67654 2.63246 0
M  V30 11648 N 1061.28 -1.12907 1.09954 0
M  V30 11649 C 1062.21 -2.20585 0.765799 0
M  V30 11650 C 1063.19 -1.68117 -0.258989 0
M  V30 11651 O 1064.37 -1.93792 -0.125853 0
M  V30 11652 C 1061.5 -3.46772 0.191435 0
M  V30 11653 C 1060.46 -4.12363 1.14635 0
M  V30 11654 C 1059.78 -5.3294 0.433426 0
M  V30 11655 C 1061.08 -4.59073 2.49096 0
M  V30 11656 H 1062.78 -2.48759 1.66612 0
M  V30 11657 H 1060.32 -1.19563 0.802534 0
M  V30 11658 H 1062.27 -4.21365 -0.0541535 0
M  V30 11659 H 1061 -3.18011 -0.744101 0
M  V30 11660 H 1059.66 -3.39744 1.37731 0
M  V30 11661 H 1059.31 -5.00444 -0.506422 0
M  V30 11662 H 1059.01 -5.77772 1.07018 0
M  V30 11663 H 1060.53 -6.10284 0.196267 0
M  V30 11664 H 1061.94 -5.25063 2.30177 0
M  V30 11665 H 1060.34 -5.14665 3.0861 0
M  V30 11666 H 1061.41 -3.73313 3.0946 0
M  V30 11667 N 1062.75 -0.88754 -1.30232 0
M  V30 11668 C 1063.7 -0.354497 -2.28061 0
M  V30 11669 C 1064.67 0.556732 -1.56492 0
M  V30 11670 O 1065.86 0.484597 -1.84543 0
M  V30 11671 C 1063 0.422701 -3.42501 0
M  V30 11672 C 1062.11 -0.518036 -4.28883 0
M  V30 11673 C 1061.24 0.275011 -5.30488 0
M  V30 11674 C 1060.28 -0.661032 -6.0852 0
M  V30 11675 N 1059.42 0.0968509 -7.02033 0
M  V30 11676 H 1064.26 -1.19388 -2.73039 0
M  V30 11677 H 1061.8 -0.600091 -1.34303 0
M  V30 11678 H 1063.75 0.889249 -4.07613 0
M  V30 11679 H 1062.38 1.22664 -2.98586 0
M  V30 11680 H 1061.44 -1.10308 -3.64055 0
M  V30 11681 H 1062.75 -1.23504 -4.83268 0
M  V30 11682 H 1061.9 0.803301 -6.01358 0
M  V30 11683 H 1060.64 1.02522 -4.76802 0
M  V30 11684 H 1059.65 -1.20093 -5.36524 0
M  V30 11685 H 1060.87 -1.41037 -6.64293 0
M  V30 11686 H 1058.82 0.829548 -6.50734 0
M  V30 11687 H 1058.73 -0.560476 -7.5392 0
M  V30 11688 H 1060 0.6058 -7.77142 0
M  V30 11689 N 1064.23 1.43628 -0.648757 0
M  V30 11690 C 1065.2 2.29172 0.0360713 0
M  V30 11691 C 1066.2 1.41974 0.754976 0
M  V30 11692 O 1067.39 1.63654 0.5969 0
M  V30 11693 C 1064.52 3.23942 1.0618 0
M  V30 11694 H 1065.71 2.91214 -0.716544 0
M  V30 11695 H 1063.26 1.50833 -0.409759 0
M  V30 11696 H 1064 2.66786 1.8438 0
M  V30 11697 H 1063.78 3.88223 0.550016 0
M  V30 11698 H 1065.27 3.8816 1.54019 0
M  V30 11699 N 1065.71 0.390394 1.52688 0
M  V30 11700 C 1067.13 0.0404028 1.59549 0
M  V30 11701 C 1067.33 -1.44503 1.40432 0
M  V30 11702 O 1066.38 -2.20968 1.22187 0
M  V30 11703 C 1067.7 0.518561 2.96195 0
M  V30 11704 C 1069.24 0.474913 3.09376 0
M  V30 11705 C 1069.72 0.929278 4.48473 0
M  V30 11706 N 1071.21 0.885335 4.5466 0
M  V30 11707 C 1071.94 1.2083 5.60524 0
M  V30 11708 N 1071.44 1.6018 6.74028 0
M  V30 11709 N 1073.23 1.12949 5.50635 0
M  V30 11710 H 1065.38 1.35743 1.63363 0
M  V30 11711 H 1067.65 0.556453 0.767505 0
M  V30 11712 H 1067.35 1.55606 3.15404 0
M  V30 11713 H 1067.23 -0.081779 3.77111 0
M  V30 11714 H 1069.61 -0.553503 2.89863 0
M  V30 11715 H 1069.7 1.11107 2.3041 0
M  V30 11716 H 1069.34 1.95593 4.68728 0
M  V30 11717 H 1069.27 0.270121 5.25907 0
M  V30 11718 H 1071.76 0.595787 3.73174 0
M  V30 11719 H 1072.07 1.83184 7.50775 0
M  V30 11720 H 1070.42 1.64067 6.75357 0
M  V30 11721 H 1073.61 0.821074 4.60843 0
M  V30 11722 H 1073.78 1.3845 6.33037 0
M  V30 11723 N 1067.19 -1.57141 0.120249 0
M  V30 11724 C 1068.41 -2.00017 -0.548454 0
M  V30 11725 C 1068.84 -0.999433 -1.59352 0
M  V30 11726 O 1068.2 0.0286978 -1.81277 0
M  V30 11727 C 1068.24 -3.41766 -1.15015 0
M  V30 11728 O 1067.35 -3.44589 -2.26566 0
M  V30 11729 H 1066.69 -0.649739 -0.136875 0
M  V30 11730 H 1069.22 -2.03529 0.209092 0
M  V30 11731 H 1069.23 -3.80001 -1.48537 0
M  V30 11732 H 1067.9 -4.14117 -0.384681 0
M  V30 11733 H 1066.48 -3.18174 -1.94473 0
M  V30 11734 N 1068.67 0.153526 -1.5685 0
M  V30 11735 C 1069.6 1.19162 -2.00805 0
M  V30 11736 C 1070.58 1.45172 -0.886518 0
M  V30 11737 O 1071.76 1.56203 -1.15387 0
M  V30 11738 C 1068.89 2.52637 -2.38311 0
M  V30 11739 C 1067.85 2.41161 -3.53589 0
M  V30 11740 C 1067.17 3.79287 -3.76889 0
M  V30 11741 C 1068.47 1.90122 -4.86468 0
M  V30 11742 H 1070.17 0.82617 -2.87776 0
M  V30 11743 H 1067.71 0.395972 -1.38449 0
M  V30 11744 H 1069.67 3.25478 -2.6766 0
M  V30 11745 H 1068.39 2.91005 -1.4827 0
M  V30 11746 H 1067.05 1.70772 -3.24395 0
M  V30 11747 H 1066.7 4.15079 -2.84109 0
M  V30 11748 H 1066.4 3.72472 -4.54465 0
M  V30 11749 H 1067.92 4.53687 -4.08657 0
M  V30 11750 H 1069.33 2.52752 -5.14577 0
M  V30 11751 H 1067.73 1.94214 -5.67804 0
M  V30 11752 H 1068.8 0.856517 -4.77275 0
M  V30 11753 N 1070.14 1.51827 0.422667 0
M  V30 11754 C 1071.56 1.57533 1.00201 0
M  V30 11755 C 1071.91 0.407623 1.91919 0
M  V30 11756 O 1071.03 -0.473763 2.1115 0
M  V30 11757 C 1071.63 2.85508 1.82403 0
M  V30 11758 C 1070.19 2.93737 2.35362 0
M  V30 11759 C 1069.33 2.52343 1.14971 0
M  V30 11760 H 1072.28 1.57391 0.20339 0
M  V30 11761 H 1072.3 2.70097 2.68007 0
M  V30 11762 H 1071.82 3.70477 1.15623 0
M  V30 11763 H 1069.92 2.13231 3.05554 0
M  V30 11764 H 1070.03 3.977 2.67155 0
M  V30 11765 H 1068.39 2.05878 1.49955 0
M  V30 11766 H 1069.18 3.39672 0.497786 0
M  V30 11767 N 1071.62 -0.679052 1.4222 0
M  V30 11768 C 1072.85 -1.47248 1.46058 0
M  V30 11769 C 1073.27 -1.87962 0.0720987 0
M  V30 11770 O 1072.63 -1.5572 -0.928488 0
M  V30 11771 C 1072.68 -2.70067 2.38948 0
M  V30 11772 O 1071.78 -3.68178 1.85791 0
M  V30 11773 H 1071.12 -0.442533 0.495036 0
M  V30 11774 H 1073.65 -0.833263 1.86863 0
M  V30 11775 H 1073.66 -3.18187 2.55385 0
M  V30 11776 H 1072.34 -2.39773 3.39826 0
M  V30 11777 H 1070.92 -3.2719 1.78889 0
M  V30 11778 N 1073.1 -1.28322 -0.914942 0
M  V30 11779 C 1074.51 -1.13937 -1.47903 0
M  V30 11780 C 1074.86 0.271072 -1.94318 0
M  V30 11781 O 1073.99 1.16522 -1.8235 0
M  V30 11782 C 1074.58 -2.06221 -2.68809 0
M  V30 11783 C 1073.14 -1.95903 -3.21402 0
M  V30 11784 C 1072.29 -1.98031 -1.94111 0
M  V30 11785 H 1075.24 -1.41029 -0.727772 0
M  V30 11786 H 1075.26 -1.6255 -3.44031 0
M  V30 11787 H 1074.77 -3.08866 -2.34997 0
M  V30 11788 H 1072.87 -0.962907 -3.59943 0
M  V30 11789 H 1072.99 -2.82799 -3.86732 0
M  V30 11790 H 1071.35 -1.42423 -2.11158 0
M  V30 11791 H 1072.13 -3.02354 -1.62595 0
M  V30 11792 N 1074.58 1.12322 -1.10551 0
M  V30 11793 C 1075.51 2.20176 -0.777486 0
M  V30 11794 C 1076.49 1.68252 0.250069 0
M  V30 11795 O 1077.67 1.93856 0.115574 0
M  V30 11796 C 1074.8 3.46666 -0.209822 0
M  V30 11797 C 1073.76 4.11749 -1.1682 0
M  V30 11798 C 1073.08 5.32703 -0.461684 0
M  V30 11799 C 1074.38 4.57746 -2.51527 0
M  V30 11800 H 1076.08 2.47872 -1.67928 0
M  V30 11801 H 1073.62 1.19136 -0.808863 0
M  V30 11802 H 1075.58 4.21388 0.0318068 0
M  V30 11803 H 1074.3 3.18401 0.727226 0
M  V30 11804 H 1072.96 3.39009 -1.3953 0
M  V30 11805 H 1072.61 5.00706 0.479875 0
M  V30 11806 H 1072.31 5.77197 -1.1008 0
M  V30 11807 H 1073.83 6.10172 -0.228629 0
M  V30 11808 H 1075.25 5.23835 -2.32958 0
M  V30 11809 H 1073.64 5.13021 -3.11335 0
M  V30 11810 H 1074.71 3.71667 -3.11435 0
M  V30 11811 N 1076.06 0.894434 1.2976 0
M  V30 11812 C 1076.99 0.325525 2.26877 0
M  V30 11813 C 1078 -0.525218 1.54095 0
M  V30 11814 O 1079.19 -0.343231 1.75169 0
M  V30 11815 C 1076.29 -0.554952 3.34325 0
M  V30 11816 C 1075.46 0.268868 4.36573 0
M  V30 11817 C 1074.52 -0.543601 5.23385 0
M  V30 11818 O 1073.55 0.0370454 5.69188 0
M  V30 11819 N 1074.75 -1.85079 5.50205 0
M  V30 11820 H 1077.52 1.16021 2.76332 0
M  V30 11821 H 1075.08 0.758382 1.43039 0
M  V30 11822 H 1077.07 -1.10476 3.89329 0
M  V30 11823 H 1075.64 -1.29031 2.84727 0
M  V30 11824 H 1074.86 1.0001 3.81302 0
M  V30 11825 H 1076.15 0.833248 5.01931 0
M  V30 11826 H 1075.54 -2.34533 5.14792 0
M  V30 11827 H 1074.1 -2.34784 6.08046 0
M  V30 11828 N 1077.53 -1.43282 0.656365 0
M  V30 11829 C 1078.95 -1.56272 0.324213 0
M  V30 11830 C 1079.15 -1.63946 -1.1715 0
M  V30 11831 O 1078.21 -1.59625 -1.95643 0
M  V30 11832 C 1079.52 -2.82204 1.03833 0
M  V30 11833 C 1081.07 -2.95952 1.01889 0
M  V30 11834 C 1081.54 -4.2472 1.71397 0
M  V30 11835 N 1083.03 -4.31591 1.68176 0
M  V30 11836 C 1083.77 -5.30001 2.1883 0
M  V30 11837 N 1083.26 -6.34671 2.77785 0
M  V30 11838 N 1085.06 -5.21676 2.09311 0
M  V30 11839 H 1077.21 -1.36544 1.62694 0
M  V30 11840 H 1079.47 -0.655999 0.684375 0
M  V30 11841 H 1079.18 -2.82608 2.09346 0
M  V30 11842 H 1079.05 -3.72527 0.591878 0
M  V30 11843 H 1081.44 -2.95087 -0.0278431 0
M  V30 11844 H 1081.52 -2.0691 1.50406 0
M  V30 11845 H 1081.16 -4.26346 2.76028 0
M  V30 11846 H 1081.09 -5.12665 1.20342 0
M  V30 11847 H 1083.58 -3.56573 1.25157 0
M  V30 11848 H 1083.9 -7.06087 3.14104 0
M  V30 11849 H 1082.24 -6.35285 2.81847 0
M  V30 11850 H 1085.43 -4.3882 1.62955 0
M  V30 11851 H 1085.61 -5.9821 2.49095 0
M  V30 11852 N 1079.01 -0.398486 -1.52479 0
M  V30 11853 C 1079.92 0.439328 -2.3045 0
M  V30 11854 C 1080.94 1.06322 -1.37738 0
M  V30 11855 O 1082.12 1.06704 -1.7081 0
M  V30 11856 C 1079.18 1.54655 -3.10294 0
M  V30 11857 C 1078.24 0.946824 -4.18729 0
M  V30 11858 C 1077.47 2.00129 -4.94757 0
M  V30 11859 O 1077.7 3.2178 -4.70971 0
M  V30 11860 O 1076.63 1.61345 -5.79872 0
M  V30 11861 H 1080.46 -0.196118 -3.03066 0
M  V30 11862 H 1078.04 -0.161961 -1.4852 0
M  V30 11863 H 1079.92 2.18958 -3.60049 0
M  V30 11864 H 1078.6 2.1668 -2.40482 0
M  V30 11865 H 1077.51 0.266802 -3.73147 0
M  V30 11866 H 1078.84 0.370664 -4.90802 0
M  V30 11867 N 1080.49 1.57075 -0.12858 0
M  V30 11868 C 1081.42 2.18833 0.814519 0
M  V30 11869 C 1082.4 1.13114 1.2704 0
M  V30 11870 O 1083.59 1.41387 1.33129 0
M  V30 11871 C 1080.72 2.79535 2.06101 0
M  V30 11872 C 1079.67 3.9092 1.74257 0
M  V30 11873 C 1079 4.38473 3.06015 0
M  V30 11874 C 1080.3 5.1257 1.00345 0
M  V30 11875 H 1081.99 2.97895 0.299862 0
M  V30 11876 H 1079.54 1.4329 0.14279 0
M  V30 11877 H 1081.49 3.21401 2.72543 0
M  V30 11878 H 1080.21 1.97777 2.59907 0
M  V30 11879 H 1078.87 3.49645 1.102 0
M  V30 11880 H 1078.52 3.53561 3.57776 0
M  V30 11881 H 1078.22 5.13591 2.85479 0
M  V30 11882 H 1079.75 4.82997 3.7356 0
M  V30 11883 H 1081.16 5.51395 1.56959 0
M  V30 11884 H 1079.56 5.93333 0.898693 0
M  V30 11885 H 1080.63 4.84899 -0.0081335 0
M  V30 11886 N 1081.97 -0.145205 1.5693 0
M  V30 11887 C 1082.92 -1.17923 1.98401 0
M  V30 11888 C 1083.89 -1.42591 0.851885 0
M  V30 11889 O 1085.07 -1.54896 1.11409 0
M  V30 11890 C 1082.21 -2.50727 2.37128 0
M  V30 11891 C 1081.32 -2.33218 3.63639 0
M  V30 11892 C 1080.46 -3.5907 3.91462 0
M  V30 11893 C 1079.5 -3.36605 5.11237 0
M  V30 11894 N 1078.64 -4.54592 5.35061 0
M  V30 11895 H 1083.48 -0.818573 2.86537 0
M  V30 11896 H 1081.01 -0.392739 1.4176 0
M  V30 11897 H 1082.97 -3.28165 2.57611 0
M  V30 11898 H 1081.6 -2.84736 1.52069 0
M  V30 11899 H 1080.65 -1.46826 3.50922 0
M  V30 11900 H 1081.96 -2.12579 4.51234 0
M  V30 11901 H 1081.12 -4.44936 4.12453 0
M  V30 11902 H 1079.86 -3.82715 3.02293 0
M  V30 11903 H 1078.86 -2.49127 4.90118 0
M  V30 11904 H 1080.09 -3.14357 6.01961 0
M  V30 11905 H 1078.03 -4.78406 4.48847 0
M  V30 11906 H 1077.95 -4.36962 6.16928 0
M  V30 11907 H 1079.22 -5.41666 5.60551 0
M  V30 11908 N 1083.45 -1.52049 -0.414609 0
M  V30 11909 C 1084.7 -1.65511 -1.15977 0
M  V30 11910 C 1085.02 -0.384703 -1.91168 0
M  V30 11911 O 1084.29 0.600247 -1.86477 0
M  V30 11912 H 1082.87 -0.610039 -0.431116 0
M  V30 11913 H 1085.53 -1.8907 -0.473139 0
M  V30 11914 H 1084.62 -2.4936 -1.87686 0
M  V30 11915 N 1084.93 0.6715 -1.42579 0
M  V30 11916 C 1086.34 1.2522 -1.38481 0
M  V30 11917 C 1086.69 1.96038 -0.079719 0
M  V30 11918 O 1085.81 2.00203 0.821441 0
M  V30 11919 C 1086.41 2.27736 -2.50842 0
M  V30 11920 C 1084.97 2.81325 -2.50067 0
M  V30 11921 C 1084.11 1.55694 -2.29466 0
M  V30 11922 H 1087.06 0.464673 -1.51745 0
M  V30 11923 H 1087.09 3.09539 -2.21283 0
M  V30 11924 H 1086.6 1.76164 -3.45815 0
M  V30 11925 H 1084.7 3.37008 -1.58922 0
M  V30 11926 H 1084.81 3.30116 -3.47218 0
M  V30 11927 H 1083.18 1.82383 -1.77788 0
M  V30 11928 H 1083.96 1.06084 -3.26498 0
M  V30 11929 N 1086.4 1.28806 0.908124 0
M  V30 11930 C 1087.65 1.15663 1.65242 0
M  V30 11931 C 1087.97 -0.292883 1.93395 0
M  V30 11932 O 1089.17 -0.545509 2.65963 0
M  V30 11933 C 1087.63 2.02233 2.97707 0
M  V30 11934 C 1087.24 3.51958 2.77181 0
M  V30 11935 C 1088.98 1.97792 3.75604 0
M  V30 11936 C 1086.89 4.3066 4.05322 0
M  V30 11937 H 1085.82 0.42928 0.619867 0
M  V30 11938 H 1088.47 1.5338 1.00731 0
M  V30 11939 H 1086.85 1.57377 3.63385 0
M  V30 11940 H 1088.02 4.0481 2.20149 0
M  V30 11941 H 1086.34 3.57983 2.12691 0
M  V30 11942 H 1088.94 2.53858 4.70596 0
M  V30 11943 H 1089.28 0.955956 4.05175 0
M  V30 11944 H 1089.81 2.40648 3.16755 0
M  V30 11945 H 1086.55 5.3346 3.8092 0
M  V30 11946 H 1086.07 3.8258 4.61944 0
M  V30 11947 H 1087.75 4.40878 4.73535 0
M  V30 11948 N 1087.88 -1.11734 1.11145 0
M  V30 11949 C 1089.16 -1.79795 0.770261 0
M  V30 11950 C 1089.54 -1.97624 -0.742158 0
M  V30 11951 O 1088.89 -1.55847 -1.67105 0
M  V30 11952 C 1089.1 -3.13684 1.52982 0
M  V30 11953 C 1090.44 -3.88771 1.70711 0
M  V30 11954 O 1091.47 -3.23363 1.49381 0
M  V30 11955 O 1090.33 -5.06134 2.06132 0
M  V30 11956 H 1087.42 -0.778617 0.27872 0
M  V30 11957 H 1089.97 -1.18504 1.2147 0
M  V30 11958 H 1088.74 -2.96043 2.55879 0
M  V30 11959 H 1088.36 -3.82687 1.07873 0
M  V30 11960 N 1089.36 -0.901303 -1.29284 0
M  V30 11961 C 1090.31 -0.351562 -2.25273 0
M  V30 11962 C 1091.29 0.529276 -1.51946 0
M  V30 11963 O 1092.49 0.371031 -1.73068 0
M  V30 11964 C 1089.61 0.41843 -3.4074 0
M  V30 11965 C 1088.7 -0.47742 -4.21404 0
M  V30 11966 N 1089.09 -1.58537 -4.80312 0
M  V30 11967 C 1087.39 -0.275504 -4.45148 0
M  V30 11968 C 1088.09 -2.14041 -5.40889 0
M  V30 11969 N 1087.07 -1.43324 -5.24365 0
M  V30 11970 H 1090.87 -1.1979 -2.68379 0
M  V30 11971 H 1088.38 -0.752538 -1.43912 0
M  V30 11972 H 1090.38 0.829022 -4.08574 0
M  V30 11973 H 1089.04 1.26201 -2.99171 0
M  V30 11974 H 1090.05 -1.96809 -4.79047 0
M  V30 11975 H 1086.73 0.529581 -4.14128 0
M  V30 11976 H 1088.12 -3.07173 -5.97574 0
M  V30 11977 N 1090.84 1.42931 -0.663954 0
M  V30 11978 C 1092.06 2.06544 -0.188201 0
M  V30 11979 C 1092.49 1.495 1.14155 0
M  V30 11980 O 1091.85 0.609164 1.7076 0
M  V30 11981 C 1091.89 3.60393 -0.122105 0
M  V30 11982 O 1091 4.02176 0.91258 0
M  V30 11983 H 1090.34 0.656458 -0.0997967 0
M  V30 11984 H 1092.87 1.83253 -0.909909 0
M  V30 11985 H 1092.88 4.07959 0.0576568 0
M  V30 11986 H 1091.55 4.01287 -1.09276 0
M  V30 11987 H 1090.13 3.6618 0.704738 0
M  V30 11988 N 1092.32 0.406567 1.52266 0
M  V30 11989 C 1093.55 -0.169378 2.05905 0
M  V30 11990 C 1093.95 -1.39626 1.27676 0
M  V30 11991 O 1093.3 -1.80871 0.32114 0
M  V30 11992 C 1093.36 -0.587209 3.54672 0
M  V30 11993 C 1093.02 0.528588 4.53933 0
M  V30 11994 C 1094.02 1.39137 5.00936 0
M  V30 11995 C 1091.7 0.700549 4.97391 0
M  V30 11996 C 1093.7 2.41108 5.90039 0
M  V30 11997 C 1091.39 1.72357 5.8629 0
M  V30 11998 C 1092.38 2.57725 6.32509 0
M  V30 11999 O 1092.07 3.58275 7.19649 0
M  V30 12000 H 1091.8 -0.0250574 0.675535 0
M  V30 12001 H 1094.36 0.575377 1.97177 0
M  V30 12002 H 1092.59 -1.38421 3.61077 0
M  V30 12003 H 1094.28 -1.09078 3.90969 0
M  V30 12004 H 1095.04 1.26991 4.68079 0
M  V30 12005 H 1090.92 0.0457503 4.60977 0
M  V30 12006 H 1094.47 3.07774 6.26036 0
M  V30 12007 H 1090.36 1.84535 6.1856 0
M  V30 12008 H 1091.13 3.54489 7.37753 0
M  V30 12009 N 1093.79 -1.57004 0.136909 0
M  V30 12010 C 1095.04 -1.95797 -0.516711 0
M  V30 12011 C 1095.37 -1.02123 -1.65533 0
M  V30 12012 O 1094.62 -0.0484835 -1.9564 0
M  V30 12013 C 1094.92 -3.40903 -1.07331 0
M  V30 12014 C 1094.59 -4.50867 -0.0541941 0
M  V30 12015 C 1093.25 -4.80669 0.225988 0
M  V30 12016 C 1095.6 -5.17264 0.639361 0
M  V30 12017 C 1092.93 -5.74177 1.2057 0
M  V30 12018 C 1095.28 -6.11827 1.60783 0
M  V30 12019 C 1093.95 -6.40012 1.89581 0
M  V30 12020 H 1093.22 -0.716471 -0.189078 0
M  V30 12021 H 1095.86 -1.90213 0.221605 0
M  V30 12022 H 1094.17 -3.43268 -1.88876 0
M  V30 12023 H 1095.87 -3.6824 -1.58745 0
M  V30 12024 H 1092.46 -4.27666 -0.282754 0
M  V30 12025 H 1096.64 -4.9438 0.436085 0
M  V30 12026 H 1091.9 -5.94312 1.43538 0
M  V30 12027 H 1096.07 -6.62354 2.15081 0
M  V30 12028 H 1093.7 -7.12274 2.65649 0
M  V30 12029 N 1095.27 0.136881 -1.57004 0
M  V30 12030 C 1096.55 0.87705 -1.74835 0
M  V30 12031 C 1096.93 1.98886 -0.707639 0
M  V30 12032 O 1096.28 2.26879 0.271652 0
M  V30 12033 C 1096.49 1.41021 -3.1924 0
M  V30 12034 C 1097.84 1.86963 -3.81222 0
M  V30 12035 O 1098.86 1.5074 -3.22732 0
M  V30 12036 O 1097.72 2.53798 -4.83993 0
M  V30 12037 H 1094.81 0.415192 -0.715223 0
M  V30 12038 H 1097.36 0.122016 -1.69261 0
M  V30 12039 H 1096.13 0.611677 -3.8649 0
M  V30 12040 H 1095.75 2.22846 -3.2928 0
M  V30 12041 N 1096.75 1.52266 0.40654 0
M  V30 12042 C 1097.7 1.75794 1.4955 0
M  V30 12043 C 1098.67 0.600472 1.54866 0
M  V30 12044 O 1099.85 0.838305 1.71397 0
M  V30 12045 C 1096.99 1.91682 2.86971 0
M  V30 12046 C 1096.11 3.19337 2.90943 0
M  V30 12047 C 1095.24 3.25641 4.1968 0
M  V30 12048 C 1094.28 4.47488 4.17637 0
M  V30 12049 N 1093.42 4.51171 5.37949 0
M  V30 12050 H 1098.26 2.68733 1.28789 0
M  V30 12051 H 1095.79 1.33157 0.625102 0
M  V30 12052 H 1097.75 1.98877 3.66748 0
M  V30 12053 H 1096.38 1.02121 3.06221 0
M  V30 12054 H 1095.43 3.21301 2.03642 0
M  V30 12055 H 1096.75 4.09153 2.85299 0
M  V30 12056 H 1095.9 3.31922 5.07851 0
M  V30 12057 H 1094.64 2.33769 4.28023 0
M  V30 12058 H 1093.64 4.41351 3.27856 0
M  V30 12059 H 1094.87 5.40659 4.10932 0
M  V30 12060 H 1092.81 3.62182 5.46955 0
M  V30 12061 H 1092.73 5.34835 5.3431 0
M  V30 12062 H 1094 4.61685 6.28066 0
M  V30 12063 N 1098.23 -0.663929 1.42933 0
M  V30 12064 C 1099.46 -1.44981 1.47187 0
M  V30 12065 C 1099.87 -1.89009 0.0850091 0
M  V30 12066 O 1099.21 -1.59413 -0.912855 0
M  V30 12067 C 1099.27 -2.72409 2.34592 0
M  V30 12068 C 1098.94 -2.5039 3.82301 0
M  V30 12069 C 1099.93 -2.14295 4.73681 0
M  V30 12070 C 1097.62 -2.65047 4.2668 0
M  V30 12071 C 1099.61 -1.93139 6.07434 0
M  V30 12072 C 1097.3 -2.43506 5.60489 0
M  V30 12073 C 1098.3 -2.07607 6.50683 0
M  V30 12074 O 1097.98 -1.86284 7.82019 0
M  V30 12075 H 1097.72 -0.452238 0.502451 0
M  V30 12076 H 1100.27 -0.822228 1.88225 0
M  V30 12077 H 1098.5 -3.37689 1.88422 0
M  V30 12078 H 1100.19 -3.34327 2.30174 0
M  V30 12079 H 1100.96 -2.02557 4.40676 0
M  V30 12080 H 1096.83 -2.91966 3.56759 0
M  V30 12081 H 1100.38 -1.65042 6.77796 0
M  V30 12082 H 1096.28 -2.54844 5.93064 0
M  V30 12083 H 1097.04 -2.00795 7.93488 0
M  V30 12084 N 1099.71 -1.29285 -0.901281 0
M  V30 12085 C 1101.12 -1.15499 -1.46686 0
M  V30 12086 C 1101.47 0.250446 -1.94595 0
M  V30 12087 O 1100.59 1.14581 -1.83576 0
M  V30 12088 C 1101.19 -2.0906 -2.66607 0
M  V30 12089 C 1099.75 -1.99301 -3.19306 0
M  V30 12090 C 1098.89 -2.00079 -1.91999 0
M  V30 12091 H 1101.85 -1.41793 -0.712773 0
M  V30 12092 H 1101.87 -1.6619 -3.42288 0
M  V30 12093 H 1101.38 -3.11341 -2.31707 0
M  V30 12094 H 1099.48 -1.00103 -3.58901 0
M  V30 12095 H 1099.59 -2.86885 -3.8371 0
M  V30 12096 H 1097.96 -1.44655 -2.09636 0
M  V30 12097 H 1098.74 -3.04061 -1.59379 0
M  V30 12098 N 1101.18 1.11143 -1.11736 0
M  V30 12099 C 1102.6 1.64462 -0.883693 0
M  V30 12100 C 1102.95 1.87324 0.583448 0
M  V30 12101 O 1102.07 1.60975 1.44623 0
M  V30 12102 C 1102.67 2.98765 -1.59764 0
M  V30 12103 C 1101.23 3.4898 -1.41032 0
M  V30 12104 C 1100.37 2.23729 -1.63831 0
M  V30 12105 H 1103.32 0.947415 -1.27317 0
M  V30 12106 H 1103.34 3.65885 -1.04443 0
M  V30 12107 H 1102.86 2.82094 -2.66542 0
M  V30 12108 H 1100.96 3.7081 -0.364781 0
M  V30 12109 H 1101.07 4.27571 -2.16148 0
M  V30 12110 H 1099.43 2.31507 -1.06191 0
M  V30 12111 H 1100.22 2.09597 -2.7189 0
M  V30 12112 N 1102.66 0.908147 1.28804 0
M  V30 12113 C 1103.57 0.397167 2.31214 0
M  V30 12114 C 1104.59 -0.512352 1.66286 0
M  V30 12115 O 1105.76 -0.399893 1.9739 0
M  V30 12116 C 1102.83 -0.359522 3.44831 0
M  V30 12117 C 1101.89 0.582539 4.25329 0
M  V30 12118 C 1101.12 -0.138133 5.33521 0
M  V30 12119 O 1101.35 -1.36076 5.53931 0
M  V30 12120 O 1100.28 0.523682 5.99618 0
M  V30 12121 H 1104.11 1.247 2.76918 0
M  V30 12122 H 1101.69 0.672766 1.33395 0
M  V30 12123 H 1103.57 -0.787098 4.13984 0
M  V30 12124 H 1102.25 -1.18528 3.01219 0
M  V30 12125 H 1101.16 1.0594 3.58786 0
M  V30 12126 H 1102.49 1.37495 4.72605 0
M  V30 12127 N 1104.14 -1.42577 0.671525 0
M  V30 12128 C 1105.09 -2.30798 -0.00883676 0
M  V30 12129 C 1106.06 -1.4578 -0.796076 0
M  V30 12130 O 1107.24 -1.74617 -0.768987 0
M  V30 12131 C 1104.38 -3.31581 -0.956452 0
M  V30 12132 C 1103.5 -4.31691 -0.163381 0
M  V30 12133 C 1102.63 -5.19549 -1.10645 0
M  V30 12134 C 1101.67 -6.1134 -0.304876 0
M  V30 12135 N 1100.81 -6.91761 -1.20048 0
M  V30 12136 H 1105.65 -2.88426 0.749301 0
M  V30 12137 H 1103.18 -1.42074 0.381251 0
M  V30 12138 H 1105.14 -3.88539 -1.51966 0
M  V30 12139 H 1103.77 -2.75561 -1.68126 0
M  V30 12140 H 1102.82 -3.76879 0.516396 0
M  V30 12141 H 1104.14 -4.96683 0.459099 0
M  V30 12142 H 1103.29 -5.81223 -1.73969 0
M  V30 12143 H 1102.03 -4.54726 -1.76282 0
M  V30 12144 H 1101.03 -5.48738 0.341597 0
M  V30 12145 H 1102.26 -6.78211 0.347352 0
M  V30 12146 H 1100.2 -6.2957 -1.84331 0
M  V30 12147 H 1100.12 -7.53345 -0.633003 0
M  V30 12148 H 1101.39 -7.57924 -1.82129 0
M  V30 12149 N 1105.62 -0.414636 -1.52048 0
M  V30 12150 C 1106.87 0.159034 -2.01473 0
M  V30 12151 C 1107.19 1.45176 -1.30188 0
M  V30 12152 O 1106.46 1.91134 -0.429469 0
M  V30 12153 H 1105.04 0.0617604 -0.744443 0
M  V30 12154 H 1107.7 -0.552141 -1.86916 0
M  V30 12155 H 1106.8 0.351217 -3.10118 0
M  V30 12156 N 1107.1 1.56929 -0.145233 0
M  V30 12157 C 1108.03 2.12449 0.833107 0
M  V30 12158 C 1109.01 1.0476 1.24355 0
M  V30 12159 O 1110.19 1.32579 1.33997 0
M  V30 12160 C 1107.32 2.64274 2.11842 0
M  V30 12161 C 1106.36 3.84093 1.85404 0
M  V30 12162 S 1107.2 5.25172 1.04663 0
M  V30 12163 C 1108.35 5.80384 2.34318 0
M  V30 12164 H 1108.59 2.951 0.360969 0
M  V30 12165 H 1106.12 1.54246 0.0690187 0
M  V30 12166 H 1108.08 2.94783 2.8568 0
M  V30 12167 H 1106.74 1.81756 2.56171 0
M  V30 12168 H 1105.93 4.18593 2.80706 0
M  V30 12169 H 1105.53 3.54336 1.19675 0
M  V30 12170 H 1107.83 5.91709 3.29981 0
M  V30 12171 H 1108.77 6.7798 2.04325 0
M  V30 12172 H 1109.18 5.08617 2.44885 0
M  V30 12173 N 1108.58 -0.128553 1.57075 0
M  V30 12174 C 1109.99 -0.686713 1.73612 0
M  V30 12175 C 1110.34 -1.80778 0.762478 0
M  V30 12176 O 1109.46 -2.16297 -0.0667779 0
M  V30 12177 C 1110.06 -1.25246 3.148 0
M  V30 12178 C 1108.62 -1.757 3.32876 0
M  V30 12179 C 1107.76 -0.652844 2.69506 0
M  V30 12180 H 1110.71 0.0972859 1.58402 0
M  V30 12181 H 1110.74 -2.1222 3.15821 0
M  V30 12182 H 1110.25 -0.436308 3.8564 0
M  V30 12183 H 1108.35 -2.59824 2.67063 0
M  V30 12184 H 1108.46 -1.87302 4.4097 0
M  V30 12185 H 1106.83 -1.08408 2.30477 0
M  V30 12186 H 1107.61 0.15217 3.42963 0
M  V30 12187 N 1110.05 -1.5248 -0.398459 0
M  V30 12188 C 1111.46 -1.59107 -0.976817 0
M  V30 12189 C 1111.82 -0.438104 -1.91246 0
M  V30 12190 O 1110.94 0.440111 -2.11877 0
M  V30 12191 C 1111.54 -2.88373 -1.77838 0
M  V30 12192 C 1110.09 -2.97445 -2.30659 0
M  V30 12193 C 1109.24 -2.5414 -1.10942 0
M  V30 12194 H 1112.19 -1.57695 -0.178324 0
M  V30 12195 H 1112.21 -2.74327 -2.63676 0
M  V30 12196 H 1111.73 -3.72269 -1.09714 0
M  V30 12197 H 1109.83 -2.18066 -3.02123 0
M  V30 12198 H 1109.94 -4.019 -2.60794 0
M  V30 12199 H 1108.3 -2.08237 -1.46661 0
M  V30 12200 H 1109.09 -3.40421 -0.443684 0
M  V30 12201 N 1111.53 0.65634 -1.43283 0
M  V30 12202 C 1112.81 1.41339 -1.35213 0
M  V30 12203 C 1113.19 2.111 0.00158494 0
M  V30 12204 O 1112.54 2.0457 1.018 0
M  V30 12205 C 1112.75 2.40066 -2.53317 0
M  V30 12206 C 1114.09 3.04159 -2.96264 0
M  V30 12207 O 1115.12 2.50393 -2.53341 0
M  V30 12208 O 1113.98 4.01633 -3.70612 0
M  V30 12209 H 1111.07 0.631325 -0.534189 0
M  V30 12210 H 1113.62 0.68351 -1.55326 0
M  V30 12211 H 1112.39 1.87444 -3.43483 0
M  V30 12212 H 1112.01 3.20509 -2.35287 0
M  V30 12213 N 1113.01 1.29761 0.894412 0
M  V30 12214 C 1113.92 1.1724 2.03204 0
M  V30 12215 C 1114.94 0.0944452 1.73743 0
M  V30 12216 O 1116.11 0.307549 1.99038 0
M  V30 12217 C 1113.18 0.855416 3.35981 0
M  V30 12218 C 1112.24 2.01777 3.78926 0
M  V30 12219 C 1111.47 1.71581 5.05367 0
M  V30 12220 O 1111.69 0.639245 5.66807 0
M  V30 12221 O 1110.63 2.56539 5.44492 0
M  V30 12222 H 1114.45 2.12787 2.16692 0
M  V30 12223 H 1112.04 1.09264 1.0189 0
M  V30 12224 H 1113.92 0.693429 4.15656 0
M  V30 12225 H 1112.6 -0.0702195 3.23624 0
M  V30 12226 H 1111.5 2.23502 2.99996 0
M  V30 12227 H 1112.84 2.92479 3.95875 0
M  V30 12228 N 1114.49 -1.10549 1.12324 0
M  V30 12229 C 1115.42 -2.18911 0.812416 0
M  V30 12230 C 1116.4 -1.68628 -0.22327 0
M  V30 12231 O 1117.58 -1.94015 -0.0847184 0
M  V30 12232 C 1114.71 -3.46288 0.264947 0
M  V30 12233 C 1113.67 -4.09838 1.23356 0
M  V30 12234 C 1112.99 -5.31901 0.546374 0
M  V30 12235 C 1114.29 -4.53686 2.58778 0
M  V30 12236 H 1115.99 -2.45169 1.71851 0
M  V30 12237 H 1113.53 -1.17834 0.827715 0
M  V30 12238 H 1115.49 -4.21385 0.0352364 0
M  V30 12239 H 1114.21 -3.19517 -0.676479 0
M  V30 12240 H 1112.87 -3.36746 1.44906 0
M  V30 12241 H 1112.52 -5.01406 -0.400157 0
M  V30 12242 H 1112.22 -5.75372 1.19249 0
M  V30 12243 H 1113.74 -6.09731 0.325673 0
M  V30 12244 H 1115.16 -5.20063 2.41263 0
M  V30 12245 H 1113.55 -5.08003 3.19457 0
M  V30 12246 H 1114.62 -3.66665 3.17309 0
M  V30 12247 N 1115.97 -0.914965 -1.28321 0
M  V30 12248 C 1117.19 -0.564023 -1.99583 0
M  V30 12249 C 1117.62 0.847821 -1.6791 0
M  V30 12250 O 1116.97 1.56682 -0.912171 0
M  V30 12251 C 1117.02 -0.781368 -3.52033 0
M  V30 12252 O 1116.13 0.159072 -4.12093 0
M  V30 12253 H 1115.47 -0.218565 -0.626997 0
M  V30 12254 H 1118 -1.23074 -1.63444 0
M  V30 12255 H 1118.01 -0.691946 -4.0209 0
M  V30 12256 H 1116.68 -1.81059 -3.7442 0
M  V30 12257 H 1115.26 0.0208145 -3.72894 0
M  V30 12258 N 1117.44 1.42219 -0.679077 0
M  V30 12259 C 1118.69 2.01081 -0.202718 0
M  V30 12260 C 1119.01 1.53986 1.19639 0
M  V30 12261 O 1118.28 0.763359 1.80415 0
M  V30 12262 H 1116.86 0.743526 -0.0719547 0
M  V30 12263 H 1119.52 1.74077 -0.876544 0
M  V30 12264 H 1118.62 3.11411 -0.207314 0
M  V30 12265 N 1118.92 0.422693 1.51826 0
M  V30 12266 C 1120.17 -0.141187 2.02909 0
M  V30 12267 C 1120.52 -1.41649 1.30205 0
M  V30 12268 O 1119.82 -1.87297 0.403769 0
M  V30 12269 C 1120.01 -0.429516 3.5481 0
M  V30 12270 C 1119.84 0.816291 4.42229 0
M  V30 12271 C 1118.61 1.34551 4.87057 0
M  V30 12272 C 1120.81 1.69829 4.85451 0
M  V30 12273 N 1118.79 2.54538 5.58644 0
M  V30 12274 C 1120.16 2.74431 5.55956 0
M  V30 12275 C 1122.21 1.71445 4.67452 0
M  V30 12276 C 1120.92 3.80576 6.10372 0
M  V30 12277 C 1122.94 2.76516 5.22774 0
M  V30 12278 C 1122.31 3.79839 5.93213 0
M  V30 12279 H 1118.4 -0.0128783 0.781894 0
M  V30 12280 H 1120.99 0.580083 1.85858 0
M  V30 12281 H 1119.16 -1.11982 3.71907 0
M  V30 12282 H 1120.89 -0.983467 3.92568 0
M  V30 12283 H 1117.65 0.901554 4.6494 0
M  V30 12284 H 1118.07 3.15342 5.99073 0
M  V30 12285 H 1122.71 0.92899 4.12468 0
M  V30 12286 H 1120.43 4.59969 6.6442 0
M  V30 12287 H 1124.02 2.7869 5.10708 0
M  V30 12288 H 1122.9 4.59806 6.35254 0
M  V30 12289 N 1120.4 -1.5685 0.153553 0
M  V30 12290 C 1121.68 -1.8796 -0.541328 0
M  V30 12291 C 1122.06 -1.06059 -1.82523 0
M  V30 12292 O 1121.4 -0.149295 -2.28012 0
M  V30 12293 C 1121.61 -3.39697 -0.800442 0
M  V30 12294 C 1122.96 -4.09057 -1.13832 0
M  V30 12295 O 1123.99 -3.44913 -0.889578 0
M  V30 12296 O 1122.85 -5.22347 -1.60673 0
M  V30 12297 H 1119.94 -0.779268 -0.276895 0
M  V30 12298 H 1122.49 -1.68626 0.190657 0
M  V30 12299 H 1121.26 -3.91151 0.107935 0
M  V30 12300 H 1120.88 -3.64582 -1.58638 0
M  V30 12301 N 1121.88 0.120221 -1.57141 0
M  V30 12302 C 1122.82 1.14751 -2.00252 0
M  V30 12303 C 1123.79 1.41217 -0.874462 0
M  V30 12304 O 1124.98 1.53104 -1.13859 0
M  V30 12305 C 1122.12 2.46923 -2.41087 0
M  V30 12306 C 1121.23 2.27403 -3.67303 0
M  V30 12307 C 1120.37 3.52797 -3.97125 0
M  V30 12308 C 1119.41 3.28429 -5.16528 0
M  V30 12309 N 1118.54 4.46022 -5.42226 0
M  V30 12310 H 1123.38 0.772884 -2.87803 0
M  V30 12311 H 1120.92 0.370137 -1.42367 0
M  V30 12312 H 1122.88 3.24025 -2.62799 0
M  V30 12313 H 1121.51 2.82281 -1.5658 0
M  V30 12314 H 1120.56 1.41224 -3.53214 0
M  V30 12315 H 1121.87 2.05373 -4.54558 0
M  V30 12316 H 1121.03 4.38318 -4.19479 0
M  V30 12317 H 1119.77 3.77857 -3.08343 0
M  V30 12318 H 1118.77 2.41299 -4.94019 0
M  V30 12319 H 1120 3.0474 -6.06886 0
M  V30 12320 H 1117.94 4.71205 -4.56401 0
M  V30 12321 H 1117.86 4.27092 -6.23802 0
M  V30 12322 H 1119.13 5.3268 -5.69098 0
M  V30 12323 N 1123.36 1.52689 0.390367 0
M  V30 12324 C 1124.63 1.58246 1.14968 0
M  V30 12325 C 1125.01 0.374808 2.07746 0
M  V30 12326 O 1124.36 -0.636969 2.19442 0
M  V30 12327 C 1124.57 2.92059 1.91056 0
M  V30 12328 C 1125.92 3.45745 2.46466 0
M  V30 12329 O 1126.94 2.93924 2.01214 0
M  V30 12330 O 1125.8 4.3628 3.29122 0
M  V30 12331 H 1122.9 0.638189 0.52597 0
M  V30 12332 H 1125.44 1.65024 0.39563 0
M  V30 12333 H 1124.21 3.71399 1.23201 0
M  V30 12334 H 1123.84 2.8866 2.73425 0
M  V30 12335 N 1124.83 -0.648732 1.43629 0
M  V30 12336 C 1126.08 -1.40857 1.45483 0
M  V30 12337 C 1126.41 -1.94332 0.0807963 0
M  V30 12338 O 1125.66 -1.72999 -0.914875 0
M  V30 12339 C 1125.96 -2.60394 2.44806 0
M  V30 12340 C 1125.63 -2.25311 3.90571 0
M  V30 12341 C 1124.29 -2.15456 4.3027 0
M  V30 12342 C 1126.64 -1.97307 4.8241 0
M  V30 12343 C 1123.97 -1.75759 5.59755 0
M  V30 12344 C 1126.32 -1.59108 6.12264 0
M  V30 12345 C 1124.99 -1.47781 6.50936 0
M  V30 12346 H 1124.26 -0.515434 0.532362 0
M  V30 12347 H 1126.9 -0.737339 1.76736 0
M  V30 12348 H 1125.21 -3.3267 2.06973 0
M  V30 12349 H 1126.91 -3.18609 2.43494 0
M  V30 12350 H 1123.5 -2.33894 3.59154 0
M  V30 12351 H 1127.68 -2.0384 4.52507 0
M  V30 12352 H 1122.94 -1.65579 5.88552 0
M  V30 12353 H 1127.11 -1.36472 6.82897 0
M  V30 12354 H 1124.74 -1.16792 7.51175 0
M  V30 12355 O 1126.35 -1.40755 -0.791854 0
M  V30 12356 H 1127.04 -1.29799 -1.43777 0
M  V30 END ATOM
M  V30 BEGIN BOND
M  V30 END BOND
M  V30 END CTAB
M  END
$$$$
