drugbank_target|P0A9E0 Arabinose operon regulatory protein (DB03142; DB04062)
 OpenBabel12092120033D

  0  0  0     0  0            999 V3000
M  V30 BEGIN CTAB
M  V30 COUNTS 4647 4714 0 0 0
M  V30 BEGIN ATOM
M  V30 1 H -0.908 1.98254 -0.117106 0
M  V30 2 N 0 1.576 0 0
M  V30 3 C 0.933 2.03868 1.02534 0
M  V30 4 C 1.911 0.928543 1.3348 0
M  V30 5 O 3.095 1.19667 1.45644 0
M  V30 6 C 0.222 2.43627 2.35294 0
M  V30 7 C -0.732 3.65373 2.2001 0
M  V30 8 S 0.101 5.13292 1.52614 0
M  V30 9 C 1.257 5.56322 2.86805 0
M  V30 10 H 1.49 2.90518 0.631377 0
M  V30 11 H -0.977 1.52953 0.210867 0
M  V30 12 H 0.981 2.67203 3.11629 0
M  V30 13 H -0.358 1.57376 2.7183 0
M  V30 14 H -1.165 3.90944 3.18086 0
M  V30 15 H -1.563 3.418 1.51819 0
M  V30 16 H 0.729 5.58782 3.83104 0
M  V30 17 H 1.672 6.56266 2.65933 0
M  V30 18 H 2.08 4.83886 2.90714 0
M  V30 19 N 1.4781 -0.272755 1.55222 0
M  V30 20 C 2.4411 -1.32041 1.87344 0
M  V30 21 C 3.4411 -1.42342 0.74803 0
M  V30 22 O 4.6311 -1.41488 1.0162 0
M  V30 23 C 1.7631 -2.70173 2.07893 0
M  V30 24 H 2.9561 -1.04789 2.80997 0
M  V30 25 H 0.5091 -0.51083 1.47717 0
M  V30 26 H 1.2441 -3.02605 1.16622 0
M  V30 27 H 1.0291 -2.64082 2.89833 0
M  V30 28 H 2.5191 -3.45869 2.34017 0
M  V30 29 N 2.9562 -1.48159 -0.537278 0
M  V30 30 C 3.8662 -1.64807 -1.6696 0
M  V30 31 C 4.8822 -0.530651 -1.65711 0
M  V30 32 O 6.0582 -0.800784 -1.84796 0
M  V30 33 C 3.1232 -1.67708 -3.03438 0
M  V30 34 C 2.1842 -2.91025 -3.156 0
M  V30 35 C 1.4172 -2.93778 -4.45567 0
M  V30 36 O 1.6402 -2.05153 -5.3223 0
M  V30 37 O 0.5742 -3.85868 -4.61941 0
M  V30 38 H 4.4002 -2.6066 -1.55853 0
M  V30 39 H 1.9852 -1.31475 -0.709549 0
M  V30 40 H 3.8672 -1.7218 -3.84619 0
M  V30 41 H 2.5422 -0.750278 -3.14885 0
M  V30 42 H 1.4492 -2.92089 -2.33741 0
M  V30 43 H 2.7822 -3.83065 -3.09066 0
M  V30 44 N 4.4343 0.785586 -1.36625 0
M  V30 45 C 5.3973 1.87999 -1.31107 0
M  V30 46 C 6.3973 1.59316 -0.217959 0
M  V30 47 O 7.5873 1.67656 -0.472977 0
M  V30 48 C 4.7193 3.24861 -1.03334 0
M  V30 49 H 5.9123 1.94307 -2.2844 0
M  V30 50 H 3.4653 0.983813 -1.21453 0
M  V30 51 H 4.2003 3.24235 -0.0647432 0
M  V30 52 H 3.9853 3.4707 -1.82441 0
M  V30 53 H 5.4753 4.04929 -1.02088 0
M  V30 54 N 5.9124 1.20967 1.01018 0
M  V30 55 C 6.8444 0.922059 2.09835 0
M  V30 56 C 7.8574 -0.0927106 1.62536 0
M  V30 57 O 9.0464 0.139127 1.77957 0
M  V30 58 C 6.1464 0.362004 3.36961 0
M  V30 59 C 5.3194 1.42986 4.13369 0
M  V30 60 C 4.3784 0.879976 5.1879 0
M  V30 61 O 3.4044 1.56219 5.47343 0
M  V30 62 N 4.6064 -0.307396 5.79686 0
M  V30 63 H 7.3714 1.8588 2.35093 0
M  V30 64 H 4.9324 1.11422 1.1746 0
M  V30 65 H 6.9244 -0.0201474 4.04695 0
M  V30 66 H 5.4944 -0.479437 3.08902 0
M  V30 67 H 4.7144 1.98608 3.40512 0
M  V30 68 H 6.0024 2.14885 4.61196 0
M  V30 69 H 5.4004 -0.878796 5.58832 0
M  V30 70 H 3.9574 -0.631115 6.48737 0
M  V30 71 N 7.3905 -1.2043 1.01659 0
M  V30 72 C 8.3385 -2.25249 0.580143 0
M  V30 73 C 9.3325 -1.65057 -0.381115 0
M  V30 74 O 10.5385 -1.78241 -0.251039 0
M  V30 75 H 6.9135 -0.732695 0.169299 0
M  V30 76 H 8.8845 -2.59389 1.47512 0
M  V30 77 C 7.6335 -3.47638 -0.065788 0
M  V30 78 H 6.9565 -3.94233 0.664874 0
M  V30 79 H 8.3965 -4.2268 -0.334282 0
M  V30 80 C 6.8555 -3.10447 -1.3086 0
M  V30 81 O 7.3855 -3.21981 -2.4019 0
M  V30 82 N 5.5915 -2.64996 -1.1927 0
M  V30 83 H 5.1385 -2.55811 -0.303064 0
M  V30 84 H 5.0965 -2.40482 -2.02523 0
M  V30 85 N 8.8686 -0.792821 -1.36206 0
M  V30 86 C 10.1456 -0.290627 -1.93429 0
M  V30 87 C 10.5256 1.21773 -1.72437 0
M  V30 88 O 9.8736 2.0108 -1.08531 0
M  V30 89 C 10.0836 -0.686973 -3.42172 0
M  V30 90 C 11.4316 -0.668643 -4.19302 0
M  V30 91 O 12.4556 -0.627658 -3.50626 0
M  V30 92 O 11.3146 -0.714597 -5.41808 0
M  V30 93 H 8.4086 -0.0727927 -0.82379 0
M  V30 94 H 10.9546 -0.875593 -1.45367 0
M  V30 95 H 9.7266 -1.72711 -3.51122 0
M  V30 96 H 9.3496 -0.0760733 -3.97527 0
M  V30 97 N 10.3467 1.47872 -0.545128 0
M  V30 98 C 11.7577 1.86384 -0.108581 0
M  V30 99 C 12.1087 1.45309 1.31832 0
M  V30 100 O 11.2337 0.850641 1.9898 0
M  V30 101 C 11.8287 3.38265 -0.190274 0
M  V30 102 C 10.3877 3.75914 0.191164 0
M  V30 103 C 9.5347 2.71926 -0.543273 0
M  V30 104 H 12.4857 1.39561 -0.755537 0
M  V30 105 H 12.5067 3.75831 0.594217 0
M  V30 106 H 12.0187 3.6813 -1.2289 0
M  V30 107 H 10.1197 3.51665 1.23136 0
M  V30 108 H 10.2327 4.78836 -0.158987 0
M  V30 109 H 8.5967 2.54697 0.0122495 0
M  V30 110 H 9.3797 3.04634 -1.58282 0
M  V30 111 N 11.8248 0.280983 1.55075 0
M  V30 112 C 12.7548 -0.597469 2.25727 0
M  V30 113 C 13.7358 -1.15417 1.24952 0
M  V30 114 O 14.9208 -1.18722 1.53684 0
M  V30 115 C 12.0508 -1.7789 2.98283 0
M  V30 116 C 11.0048 -1.35347 4.06036 0
M  V30 117 C 10.3308 -2.61846 4.66198 0
M  V30 118 C 11.6308 -0.499354 5.19907 0
M  V30 119 H 13.3248 -0.00824265 2.99399 0
M  V30 120 H 10.8708 -0.0025244 1.44 0
M  V30 121 H 12.8238 -2.39937 3.46422 0
M  V30 122 H 11.5478 -2.39405 2.22155 0
M  V30 123 H 10.2068 -0.756156 3.58717 0
M  V30 124 H 9.8548 -3.21632 3.86732 0
M  V30 125 H 9.5548 -2.3409 5.38958 0
M  V30 126 H 11.0788 -3.24732 5.1709 0
M  V30 127 H 12.4928 -1.02498 5.64063 0
M  V30 128 H 10.8898 -0.316424 5.99265 0
M  V30 129 H 11.9598 0.480459 4.82514 0
M  V30 130 N 13.3029 -1.57598 0.00835791 0
M  V30 131 C 14.2329 -2.1198 -0.979113 0
M  V30 132 C 15.2139 -1.03091 -1.35301 0
M  V30 133 O 16.3989 -1.30818 -1.43528 0
M  V30 134 C 13.5289 -2.62995 -2.26828 0
M  V30 135 C 12.4829 -3.76485 -2.03576 0
M  V30 136 C 11.8089 -4.13846 -3.38579 0
M  V30 137 C 13.1089 -5.0342 -1.39161 0
M  V30 138 H 14.8029 -2.94738 -0.526281 0
M  V30 139 H 12.3489 -1.41783 -0.251704 0
M  V30 140 H 14.3019 -2.99669 -2.96271 0
M  V30 141 H 13.0259 -1.7737 -2.7424 0
M  V30 142 H 11.6849 -3.40217 -1.36557 0
M  V30 143 H 11.3329 -3.25232 -3.83709 0
M  V30 144 H 11.0329 -4.90312 -3.23834 0
M  V30 145 H 12.5569 -4.53086 -4.09323 0
M  V30 146 H 13.9709 -5.37812 -1.98573 0
M  V30 147 H 12.3679 -5.84746 -1.34878 0
M  V30 148 H 13.4379 -4.83548 -0.361868 0
M  V30 149 N 14.781 0.264519 -1.55364 0
M  V30 150 C 16.192 0.834936 -1.6699 0
M  V30 151 C 16.543 1.86718 -0.602552 0
M  V30 152 O 15.668 2.14899 0.254425 0
M  V30 153 C 16.263 1.5212 -3.02729 0
M  V30 154 C 14.822 2.03954 -3.16354 0
M  V30 155 C 13.969 0.884498 -2.62815 0
M  V30 156 H 16.92 0.0406869 -1.58648 0
M  V30 157 H 16.941 2.38853 -2.96191 0
M  V30 158 H 16.453 0.769668 -3.80392 0
M  V30 159 H 14.554 2.82041 -2.43482 0
M  V30 160 H 14.667 2.24902 -4.23032 0
M  V30 161 H 13.031 1.2802 -2.20188 0
M  V30 162 H 13.814 0.14634 -3.42988 0
M  V30 163 N 16.2591 1.48442 0.529413 0
M  V30 164 C 17.5071 1.56179 1.28267 0
M  V30 165 C 17.8281 0.237721 1.93546 0
M  V30 166 O 17.0981 -0.740779 1.81354 0
M  V30 167 H 15.6781 0.575367 0.476405 0
M  V30 168 H 18.3401 1.84909 0.61602 0
M  V30 169 H 17.4361 2.34312 2.06165 0
M  V30 170 N 17.7372 -0.778329 1.37039 0
M  V30 171 C 18.9672 -1.56507 1.34868 0
M  V30 172 C 19.3752 -1.89072 -0.0694802 0
M  V30 173 O 18.7182 -1.51434 -1.03987 0
M  V30 174 C 18.7802 -2.90641 2.11585 0
M  V30 175 C 18.4442 -2.80746 3.60598 0
M  V30 176 C 19.4412 -2.52226 4.54618 0
M  V30 177 C 17.1262 -2.98974 4.03633 0
M  V30 178 C 19.1202 -2.42054 5.89651 0
M  V30 179 C 16.8072 -2.88423 5.38754 0
M  V30 180 C 17.8052 -2.60002 6.31576 0
M  V30 181 O 17.4932 -2.49465 7.64214 0
M  V30 182 H 17.2252 -0.491723 0.463879 0
M  V30 183 H 19.7792 -0.973053 1.80889 0
M  V30 184 H 18.0092 -3.51936 1.60243 0
M  V30 185 H 19.6982 -3.51992 2.0213 0
M  V30 186 H 20.4642 -2.37835 4.22681 0
M  V30 187 H 16.3432 -3.20099 3.31749 0
M  V30 188 H 19.8872 -2.19791 6.62071 0
M  V30 189 H 15.7842 -3.0238 5.70295 0
M  V30 190 H 16.5522 -2.64864 7.74461 0
M  V30 191 N 19.2153 -1.21501 -1.00376 0
M  V30 192 C 20.4403 -1.05977 -1.78279 0
M  V30 193 C 20.8653 0.385994 -1.84097 0
M  V30 194 O 20.2233 1.27849 -1.28547 0
M  V30 195 C 20.2713 -1.66302 -3.19963 0
M  V30 196 O 19.3753 -0.909333 -4.0225 0
M  V30 197 H 18.7163 -0.372906 -0.549397 0
M  V30 198 H 21.2463 -1.6107 -1.26165 0
M  V30 199 H 21.2563 -1.70574 -3.70632 0
M  V30 200 H 19.9313 -2.71515 -3.15043 0
M  V30 201 H 18.5083 -0.941795 -3.60811 0
M  V30 202 N 20.6934 1.19889 -1.02296 0
M  V30 203 C 21.9404 1.8942 -0.715972 0
M  V30 204 C 22.2684 1.79251 0.754944 0
M  V30 205 O 21.5234 1.17526 1.56481 0
M  V30 206 C 21.8224 3.39883 -1.10518 0
M  V30 207 C 21.4884 3.70254 -2.57337 0
M  V30 208 C 20.1504 3.78254 -2.97452 0
M  V30 209 C 22.5024 3.84052 -3.52354 0
M  V30 210 C 19.8304 3.97514 -4.31509 0
M  V30 211 C 22.1824 4.04824 -4.86108 0
M  V30 212 C 20.8464 4.11054 -5.25919 0
M  V30 213 H 20.1164 0.693138 -0.261993 0
M  V30 214 H 22.7634 1.42012 -1.28472 0
M  V30 215 H 21.0684 3.8915 -0.454953 0
M  V30 216 H 22.7654 3.9199 -0.845261 0
M  V30 217 H 19.3554 3.64632 -2.25258 0
M  V30 218 H 23.5394 3.77221 -3.22518 0
M  V30 219 H 18.7954 4.00574 -4.61898 0
M  V30 220 H 22.9694 4.14442 -5.59653 0
M  V30 221 H 20.5964 4.2573 -6.29808 0
M  V30 222 N 22.1715 0.800033 1.35784 0
M  V30 223 C 23.1195 0.193851 2.31791 0
M  V30 224 C 24.1135 -0.652744 1.56319 0
M  V30 225 O 25.3195 -0.546641 1.71499 0
M  V30 226 H 21.6945 0.04392 0.750716 0
M  V30 227 H 23.6655 1.01883 2.80468 0
M  V30 228 C 22.4145 -0.648338 3.41602 0
M  V30 229 H 21.7375 -0.00624665 3.998 0
M  V30 230 H 23.1775 -1.03898 4.11073 0
M  V30 231 C 21.6365 -1.8111 2.84079 0
M  V30 232 O 22.1665 -2.90825 2.77099 0
M  V30 233 N 20.3725 -1.62056 2.41218 0
M  V30 234 H 19.9195 -0.728123 2.47095 0
M  V30 235 H 19.8775 -2.40013 2.03079 0
M  V30 236 N 23.6496 -1.47581 0.552962 0
M  V30 237 C 24.6126 -2.28439 -0.186605 0
M  V30 238 C 25.6126 -1.36706 -0.84665 0
M  V30 239 O 26.8026 -1.59378 -0.703164 0
M  V30 240 C 23.9346 -3.16264 -1.2724 0
M  V30 241 H 25.1276 -2.95294 0.523609 0
M  V30 242 H 22.6806 -1.532 0.309745 0
M  V30 243 H 23.4156 -2.54091 -2.01514 0
M  V30 244 H 23.2006 -3.83769 -0.803968 0
M  V30 245 H 24.6906 -3.77198 -1.79196 0
M  V30 246 N 25.1277 -0.289203 -1.54924 0
M  V30 247 C 26.0777 0.606939 -2.19773 0
M  V30 248 C 27.0617 1.10783 -1.16687 0
M  V30 249 O 28.2537 1.05057 -1.4245 0
M  V30 250 C 25.3827 1.78398 -2.93307 0
M  V30 251 C 24.4687 1.29961 -4.03697 0
M  V30 252 N 24.8597 0.532377 -5.0299 0
M  V30 253 C 23.1577 1.58136 -4.17024 0
M  V30 254 C 23.8587 0.275912 -5.81045 0
M  V30 255 N 22.8347 0.852365 -5.36876 0
M  V30 256 H 26.6367 0.0130779 -2.93897 0
M  V30 257 H 24.1507 -0.09341 -1.62131 0
M  V30 258 H 26.1477 2.43741 -3.38225 0
M  V30 259 H 24.8077 2.38166 -2.20697 0
M  V30 260 H 25.8187 0.17838 -5.17593 0
M  V30 261 H 22.4957 2.18738 -3.55612 0
M  V30 262 H 23.8857 -0.339502 -6.71042 0
M  V30 263 N 26.6058 1.57591 -0.0167156 0
M  V30 264 C 27.5358 2.12496 0.967858 0
M  V30 265 C 28.5168 1.03807 1.34752 0
M  V30 266 O 29.7018 1.31577 1.42833 0
M  V30 267 C 26.8318 2.64194 2.25431 0
M  V30 268 C 25.7858 3.77559 2.01576 0
M  V30 269 C 25.1118 4.15636 3.36379 0
M  V30 270 C 26.4118 5.04151 1.36489 0
M  V30 271 H 28.1058 2.95013 0.510643 0
M  V30 272 H 25.6518 1.41915 0.244181 0
M  V30 273 H 27.6048 3.01236 2.94678 0
M  V30 274 H 26.3288 1.78821 2.73296 0
M  V30 275 H 24.9878 3.40937 1.34751 0
M  V30 276 H 24.6358 3.27263 3.81979 0
M  V30 277 H 24.3358 4.92022 3.21229 0
M  V30 278 H 25.8598 4.5525 4.06915 0
M  V30 279 H 27.2738 5.38857 1.95718 0
M  V30 280 H 25.6708 5.85453 1.31776 0
M  V30 281 H 26.7408 4.83733 0.336219 0
M  V30 282 N 28.0839 -0.256276 1.55502 0
M  V30 283 C 29.3299 -0.987079 1.77157 0
M  V30 284 C 29.6629 -1.85327 0.580315 0
M  V30 285 O 28.9379 -1.89874 -0.421686 0
M  V30 286 C 29.2209 -1.85553 3.08613 0
M  V30 287 C 29.0739 -1.01816 4.38125 0
M  V30 288 C 30.3929 -2.8397 3.36228 0
M  V30 289 H 27.5119 -0.357428 0.644526 0
M  V30 290 H 30.1539 -0.258239 1.88237 0
M  V30 291 H 28.3039 -2.47695 2.99298 0
M  V30 292 H 29.9759 -0.416159 4.59419 0
M  V30 293 H 28.2189 -0.322178 4.32602 0
M  V30 294 H 28.8899 -1.65939 5.26468 0
M  V30 295 H 31.3659 -2.31964 3.45445 0
M  V30 296 H 30.2419 -3.41864 4.29442 0
M  V30 297 H 30.5029 -3.59955 2.56681 0
M  V30 298 N 29.562 -1.4872 -0.521534 0
M  V30 299 C 30.525 -1.63379 -1.60748 0
M  V30 300 C 31.525 -0.50661 -1.52611 0
M  V30 301 O 32.715 -0.772601 -1.5613 0
M  V30 302 C 29.847 -1.61192 -3.00383 0
M  V30 303 H 31.04 -2.60217 -1.49087 0
M  V30 304 H 28.593 -1.37444 -0.744235 0
M  V30 305 H 29.328 -0.65863 -3.17541 0
M  V30 306 H 29.113 -2.43032 -3.07698 0
M  V30 307 H 30.603 -1.7466 -3.7932 0
M  V30 308 N 31.0401 0.771051 -1.3745 0
M  V30 309 C 32.2881 1.52661 -1.32435 0
M  V30 310 C 32.6091 1.9479 0.0905024 0
M  V30 311 O 31.8791 1.66348 1.03466 0
M  V30 312 H 30.4591 0.566218 -0.487244 0
M  V30 313 H 33.1211 0.917636 -1.71946 0
M  V30 314 H 32.2171 2.42568 -1.96385 0
M  V30 315 N 32.5182 1.22032 0.997298 0
M  V30 316 C 33.4482 1.01065 2.10495 0
M  V30 317 C 34.4292 -0.0669542 1.69968 0
M  V30 318 O 35.6142 0.0943987 1.9397 0
M  V30 319 C 32.7442 0.582874 3.42374 0
M  V30 320 C 31.6982 1.60592 3.96729 0
M  V30 321 C 31.0242 1.03412 5.24605 0
M  V30 322 C 32.3242 2.99478 4.27914 0
M  V30 323 H 34.0182 1.93708 2.28292 0
M  V30 324 H 31.5642 0.932761 1.09707 0
M  V30 325 H 33.5172 0.423332 4.19268 0
M  V30 326 H 32.2412 -0.379213 3.24391 0
M  V30 327 H 30.9002 1.75316 3.21963 0
M  V30 328 H 30.5482 0.063518 5.0296 0
M  V30 329 H 30.2482 1.71754 5.61938 0
M  V30 330 H 31.7722 0.886066 6.04137 0
M  V30 331 H 33.1862 2.88153 4.95622 0
M  V30 332 H 31.5832 3.64903 4.76409 0
M  V30 333 H 32.6532 3.49742 3.3587 0
M  V30 334 N 33.9963 -1.19345 1.0293 0
M  V30 335 C 35.2243 -1.92997 0.745644 0
M  V30 336 C 35.6393 -1.75519 -0.695589 0
M  V30 337 O 34.9963 -1.07737 -1.47306 0
M  V30 338 C 35.0473 -3.44741 1.08792 0
M  V30 339 O 34.7683 -3.61658 2.47256 0
M  V30 340 C 36.2693 -4.35515 0.827129 0
M  V30 341 H 33.4893 -0.613042 0.272801 0
M  V30 342 H 36.0333 -1.51473 1.3739 0
M  V30 343 H 34.1883 -3.84097 0.504832 0
M  V30 344 H 34.6023 -4.55514 2.60015 0
M  V30 345 H 36.0763 -5.40589 1.11658 0
M  V30 346 H 36.5533 -4.38552 -0.238436 0
M  V30 347 H 37.1593 -4.01841 1.39297 0
M  V30 348 N 35.4744 -0.807222 -1.35358 0
M  V30 349 C 36.8854 -0.44876 -1.81226 0
M  V30 350 C 37.2364 1.02929 -1.67033 0
M  V30 351 O 36.3614 1.79991 -1.20133 0
M  V30 352 C 36.9564 -0.807774 -3.2903 0
M  V30 353 C 35.5154 -0.501901 -3.73039 0
M  V30 354 C 34.6624 -1.03304 -2.57339 0
M  V30 355 H 37.6134 -0.998808 -1.23327 0
M  V30 356 H 37.6344 -0.10554 -3.80354 0
M  V30 357 H 37.1464 -1.88357 -3.39328 0
M  V30 358 H 35.2474 0.565128 -3.68289 0
M  V30 359 H 35.3604 -1.03497 -4.67787 0
M  V30 360 H 33.7244 -0.455339 -2.50597 0
M  V30 361 H 34.5074 -2.11496 -2.70415 0
M  V30 362 N 36.9525 1.47285 -0.560781 0
M  V30 363 C 38.2015 2.01668 -0.035895 0
M  V30 364 C 38.5145 1.44021 1.32353 0
M  V30 365 O 39.7205 1.90088 1.93853 0
M  V30 366 C 38.1765 3.59897 -0.0136659 0
M  V30 367 C 37.7845 4.26536 -1.37006 0
M  V30 368 C 39.5285 4.22017 0.458425 0
M  V30 369 C 37.4355 5.76782 -1.30675 0
M  V30 370 H 36.3655 0.753938 -0.00964879 0
M  V30 371 H 39.0165 1.69243 -0.709166 0
M  V30 372 H 37.3985 3.89301 0.725325 0
M  V30 373 H 38.5725 4.0877 -2.12705 0
M  V30 374 H 36.8875 3.76419 -1.78038 0
M  V30 375 H 39.4845 5.32124 0.524247 0
M  V30 376 H 39.8275 3.89437 1.4712 0
M  V30 377 H 40.3605 3.97159 -0.225818 0
M  V30 378 H 37.0995 6.13988 -2.29564 0
M  V30 379 H 36.6195 5.96875 -0.591622 0
M  V30 380 H 38.2985 6.39063 -1.01033 0
M  V30 381 N 38.4306 0.297415 1.54768 0
M  V30 382 C 39.3406 -0.58983 2.27064 0
M  V30 383 C 40.3566 -1.15144 1.30453 0
M  V30 384 O 41.5326 -1.17699 1.63428 0
M  V30 385 C 38.5976 -1.74714 2.9946 0
M  V30 386 C 37.6586 -1.21997 4.11601 0
M  V30 387 C 36.8916 -2.32212 4.80535 0
M  V30 388 O 37.1146 -3.52036 4.48806 0
M  V30 389 O 36.0486 -1.99106 5.68014 0
M  V30 390 H 39.8746 -0.00348199 3.037 0
M  V30 391 H 37.4596 0.0640035 1.49263 0
M  V30 392 H 39.3416 -2.42147 3.44881 0
M  V30 393 H 38.0166 -2.32016 2.25722 0
M  V30 394 H 36.9236 -0.511458 3.70587 0
M  V30 395 H 38.2566 -0.692419 4.87305 0
M  V30 396 N 39.9087 -1.5758 0.0250728 0
M  V30 397 C 40.8717 -2.08896 -0.943139 0
M  V30 398 C 41.8717 -1.00321 -1.25668 0
M  V30 399 O 43.0617 -1.26495 -1.19769 0
M  V30 400 C 40.1937 -2.55143 -2.26086 0
M  V30 401 H 41.3867 -2.95723 -0.498775 0
M  V30 402 H 38.9397 -1.54703 -0.222888 0
M  V30 403 H 39.6747 -1.71633 -2.75159 0
M  V30 404 H 39.4597 -3.34461 -2.04641 0
M  V30 405 H 40.9497 -2.95083 -2.95492 0
M  V30 406 N 41.3868 0.248026 -1.55636 0
M  V30 407 C 42.3348 1.32683 -1.91045 0
M  V30 408 C 43.3288 1.49883 -0.789401 0
M  V30 409 O 44.5348 1.51371 -0.974007 0
M  V30 410 H 40.9098 0.444272 -0.606734 0
M  V30 411 H 42.8808 1.00085 -2.81115 0
M  V30 412 C 41.6298 2.6755 -2.22064 0
M  V30 413 H 40.9528 2.55114 -3.07826 0
M  V30 414 H 42.3928 3.41912 -2.50743 0
M  V30 415 C 40.8518 3.20556 -1.0366 0
M  V30 416 O 41.3818 4.00695 -0.284016 0
M  V30 417 N 39.5878 2.78568 -0.82753 0
M  V30 418 H 39.1348 2.1351 -1.44123 0
M  V30 419 H 39.0928 3.14378 -0.0369803 0
M  V30 420 N 42.8649 1.48995 0.513639 0
M  V30 421 C 44.1129 1.57531 1.26604 0
M  V30 422 C 44.4339 0.258236 1.93283 0
M  V30 423 O 43.7039 -0.721502 1.8213 0
M  V30 424 H 42.2839 0.580387 0.470276 0
M  V30 425 H 44.9459 1.85552 0.596373 0
M  V30 426 H 44.0419 2.36486 2.03669 0
M  V30 427 N 44.343 -0.763751 1.37857 0
M  V30 428 C 45.573 -1.55067 1.3652 0
M  V30 429 C 45.981 -1.89135 -0.0494227 0
M  V30 430 O 45.324 -1.52529 -1.02375 0
M  V30 431 C 45.386 -2.8838 2.14656 0
M  V30 432 C 45.05 -2.76905 3.63555 0
M  V30 433 C 46.047 -2.4739 4.57268 0
M  V30 434 C 43.732 -2.94676 4.06781 0
M  V30 435 C 45.726 -2.35786 5.92186 0
M  V30 436 C 43.413 -2.82692 5.41782 0
M  V30 437 C 44.411 -2.53289 6.34298 0
M  V30 438 O 44.099 -2.41345 7.66817 0
M  V30 439 H 43.831 -0.486776 0.469069 0
M  V30 440 H 46.385 -0.953812 1.81911 0
M  V30 441 H 44.615 -3.50217 1.63967 0
M  V30 442 H 46.304 -3.49828 2.05852 0
M  V30 443 H 47.07 -2.33339 4.2518 0
M  V30 444 H 42.949 -3.16563 3.35126 0
M  V30 445 H 46.493 -2.12757 6.64365 0
M  V30 446 H 42.39 -2.96314 5.7347 0
M  V30 447 H 43.158 -2.56634 7.77226 0
M  V30 448 N 45.8211 -1.22559 -0.990812 0
M  V30 449 C 46.7511 -1.0218 -2.09956 0
M  V30 450 C 47.7321 0.0579394 -1.70001 0
M  V30 451 O 48.9171 -0.104684 -1.93918 0
M  V30 452 C 46.0471 -0.601023 -3.4206 0
M  V30 453 C 45.0011 -1.62694 -3.95872 0
M  V30 454 C 44.3271 -1.06193 -5.24049 0
M  V30 455 C 45.6271 -3.01743 -4.2632 0
M  V30 456 H 47.3211 -1.94916 -2.27262 0
M  V30 457 H 44.8671 -0.938566 -1.09211 0
M  V30 458 H 46.8201 -0.445561 -4.19038 0
M  V30 459 H 45.5441 0.362005 -3.24588 0
M  V30 460 H 44.2031 -1.77021 -3.21028 0
M  V30 461 H 43.8511 -0.0901903 -5.02919 0
M  V30 462 H 43.5511 -1.74732 -5.61019 0
M  V30 463 H 45.0751 -0.918092 -6.03658 0
M  V30 464 H 46.4891 -2.90777 -4.94087 0
M  V30 465 H 44.8861 -3.67425 -4.74467 0
M  V30 466 H 45.9561 -3.51518 -3.34011 0
M  V30 467 N 47.2992 1.18797 -1.03562 0
M  V30 468 C 48.5762 1.84469 -0.650434 0
M  V30 469 C 48.9562 1.92319 0.870433 0
M  V30 470 O 48.3042 1.44528 1.76986 0
M  V30 471 C 48.5142 3.2306 -1.32036 0
M  V30 472 C 49.8622 3.9915 -1.44792 0
M  V30 473 O 50.8862 3.32481 -1.27806 0
M  V30 474 O 49.7452 5.18587 -1.72423 0
M  V30 475 H 46.8392 0.795251 -0.226946 0
M  V30 476 H 49.3852 1.26231 -1.13419 0
M  V30 477 H 48.1572 3.1222 -2.3587 0
M  V30 478 H 47.7802 3.88949 -0.8249 0
M  V30 479 N 48.7773 0.814389 1.34928 0
M  V30 480 C 50.0243 0.398423 1.98542 0
M  V30 481 C 50.3523 -1.03638 1.64589 0
M  V30 482 O 49.6073 -1.73509 0.90516 0
M  V30 483 C 49.9063 0.537781 3.53331 0
M  V30 484 C 49.5723 1.93704 4.07172 0
M  V30 485 C 48.2343 2.31984 4.21589 0
M  V30 486 C 50.5863 2.85213 4.36237 0
M  V30 487 C 47.9143 3.61125 4.62391 0
M  V30 488 C 50.2663 4.13809 4.78482 0
M  V30 489 C 48.9303 4.52077 4.91104 0
M  V30 490 H 48.2003 0.145793 0.726516 0
M  V30 491 H 50.8473 1.03669 1.61012 0
M  V30 492 H 49.1523 -0.183906 3.91368 0
M  V30 493 H 50.8493 0.196588 4.00518 0
M  V30 494 H 47.4393 1.62966 3.96409 0
M  V30 495 H 51.6233 2.56885 4.24645 0
M  V30 496 H 46.8793 3.90612 4.70353 0
M  V30 497 H 51.0533 4.84811 4.99932 0
M  V30 498 H 48.6803 5.52196 5.22478 0
M  V30 499 N 50.2554 -1.46986 0.568584 0
M  V30 500 C 51.5024 -2.02441 0.0487986 0
M  V30 501 C 51.8304 -1.44169 -1.30559 0
M  V30 502 O 51.0854 -0.591213 -1.86556 0
M  V30 503 C 51.3844 -3.57306 -0.081836 0
M  V30 504 C 51.0504 -4.34552 1.20313 0
M  V30 505 C 49.7124 -4.55376 1.5552 0
M  V30 506 C 52.0644 -4.79016 2.05411 0
M  V30 507 C 49.3924 -5.17913 2.7565 0
M  V30 508 C 51.7444 -5.42879 3.24754 0
M  V30 509 C 50.4084 -5.61933 3.60261 0
M  V30 510 H 49.6784 -0.740785 0.0178567 0
M  V30 511 H 52.3254 -1.76525 0.742384 0
M  V30 512 H 50.6304 -3.8228 -0.858463 0
M  V30 513 H 52.3274 -3.97876 -0.499546 0
M  V30 514 H 48.9174 -4.18631 0.919014 0
M  V30 515 H 53.1014 -4.62696 1.79516 0
M  V30 516 H 48.3574 -5.30858 3.03315 0
M  V30 517 H 52.5314 -5.76293 3.90973 0
M  V30 518 H 50.1584 -6.10161 4.53439 0
M  V30 519 N 51.7335 -0.305618 -1.54608 0
M  V30 520 C 52.9825 0.303098 -1.9941 0
M  V30 521 C 53.2955 1.54648 -1.19764 0
M  V30 522 O 54.5015 2.23007 -1.54855 0
M  V30 523 C 52.9575 0.590588 -3.55021 0
M  V30 524 C 52.5655 -0.634719 -4.43481 0
M  V30 525 C 54.3095 1.16025 -4.08336 0
M  V30 526 C 52.2165 -0.320126 -5.90533 0
M  V30 527 H 51.1465 0.117031 -0.744862 0
M  V30 528 H 53.7975 -0.415045 -1.78745 0
M  V30 529 H 52.1795 1.36845 -3.71604 0
M  V30 530 H 53.3535 -1.41079 -4.38672 0
M  V30 531 H 51.6685 -1.12333 -4.00962 0
M  V30 532 H 54.2655 1.40994 -5.15776 0
M  V30 533 H 54.6085 2.10397 -3.5922 0
M  V30 534 H 55.1415 0.443985 -3.95315 0
M  V30 535 H 51.8805 -1.23254 -6.43808 0
M  V30 536 H 51.4005 0.418579 -5.98338 0
M  V30 537 H 53.0795 0.0766241 -6.46955 0
M  V30 538 N 53.2116 1.57565 -0.0334293 0
M  V30 539 C 54.4886 1.83282 0.683163 0
M  V30 540 C 54.8686 0.91823 1.90084 0
M  V30 541 O 54.2166 -0.025113 2.28486 0
M  V30 542 C 54.4266 3.32599 1.0573 0
M  V30 543 C 55.7746 3.99179 1.44711 0
M  V30 544 O 56.7986 3.3712 1.15015 0
M  V30 545 O 55.6576 5.08565 2.0006 0
M  V30 546 H 52.7516 0.755869 0.335546 0
M  V30 547 H 55.2976 1.69589 -0.0614402 0
M  V30 548 H 54.0696 3.90834 0.190828 0
M  V30 549 H 53.6926 3.51415 1.85993 0
M  V30 550 N 54.6897 -0.239769 1.55765 0
M  V30 551 C 56.1057 -0.588624 1.48349 0
M  V30 552 C 56.3057 -1.88005 0.72502 0
M  V30 553 O 55.3617 -2.51186 0.257269 0
M  V30 554 C 56.6747 -0.68474 2.928 0
M  V30 555 C 58.2227 -0.77659 3.03213 0
M  V30 556 C 58.6977 -0.904207 4.48986 0
M  V30 557 N 60.1887 -0.968896 4.52953 0
M  V30 558 C 60.9237 -1.08703 5.63002 0
M  V30 559 N 60.4197 -1.17026 6.82845 0
M  V30 560 N 62.2127 -1.12074 5.50814 0
M  V30 561 H 54.3637 0.607911 2.03515 0
M  V30 562 H 56.6267 0.21083 0.924259 0
M  V30 563 H 56.3327 0.194284 3.51163 0
M  V30 564 H 56.2067 -1.55435 3.43686 0
M  V30 565 H 58.5937 -1.64606 2.44926 0
M  V30 566 H 58.6747 0.118315 2.55526 0
M  V30 567 H 58.3187 -0.0392633 5.07885 0
M  V30 568 H 58.2487 -1.81426 4.9436 0
M  V30 569 H 60.7397 -0.915633 3.6664 0
M  V30 570 H 61.0527 -1.25966 7.62465 0
M  V30 571 H 59.3977 -1.13971 6.85591 0
M  V30 572 H 62.5887 -1.05226 4.5612 0
M  V30 573 H 62.7617 -1.20936 6.36615 0
M  V30 574 N 56.1678 -1.49265 -0.50573 0
M  V30 575 C 57.5788 -1.51769 -1.08734 0
M  V30 576 C 57.9298 -0.301192 -1.93874 0
M  V30 577 O 57.0548 0.589456 -2.08217 0
M  V30 578 C 57.6498 -2.75017 -1.97867 0
M  V30 579 C 56.2088 -2.80314 -2.51199 0
M  V30 580 C 55.3558 -2.4562 -1.28709 0
M  V30 581 H 58.3068 -1.56031 -0.289855 0
M  V30 582 H 58.3278 -2.5491 -2.82491 0
M  V30 583 H 57.8398 -3.63539 -1.35873 0
M  V30 584 H 55.9408 -1.96061 -3.16845 0
M  V30 585 H 56.0538 -3.82366 -2.88675 0
M  V30 586 H 54.4178 -1.97297 -1.61078 0
M  V30 587 H 55.2008 -3.36411 -0.6843 0
M  V30 588 N 57.6459 0.756429 -1.3826 0
M  V30 589 C 58.5759 1.88374 -1.37976 0
M  V30 590 C 59.5569 1.68311 -0.246082 0
M  V30 591 O 60.7419 1.88944 -0.44874 0
M  V30 592 C 57.8719 3.25864 -1.20125 0
M  V30 593 C 56.8259 3.60523 -2.30666 0
M  V30 594 C 56.1519 4.9672 -1.97923 0
M  V30 595 C 57.4519 3.65692 -3.72916 0
M  V30 596 H 59.1459 1.88869 -2.32312 0
M  V30 597 H 56.6919 0.907272 -1.11824 0
M  V30 598 H 58.6449 4.0438 -1.18552 0
M  V30 599 H 57.3689 3.25841 -0.222498 0
M  V30 600 H 56.0279 2.84324 -2.3142 0
M  V30 601 H 55.6759 4.93253 -0.985393 0
M  V30 602 H 55.3759 5.20878 -2.71955 0
M  V30 603 H 56.8999 5.77618 -1.97964 0
M  V30 604 H 58.3139 4.34328 -3.74208 0
M  V30 605 H 56.7109 4.01358 -4.4613 0
M  V30 606 H 57.7809 2.65987 -4.05436 0
M  V30 607 N 59.124 1.23083 0.984299 0
M  V30 608 C 60.372 1.05848 1.72165 0
M  V30 609 C 60.693 -0.406049 1.90726 0
M  V30 610 O 59.963 -1.29139 1.47309 0
M  V30 611 H 58.543 0.388685 0.637913 0
M  V30 612 H 61.205 1.54736 1.18503 0
M  V30 613 H 60.301 1.54327 2.71274 0
M  V30 614 N 60.6021 -1.18246 1.0419 0
M  V30 615 C 61.5351 -2.20746 0.578474 0
M  V30 616 C 62.5131 -1.57912 -0.387624 0
M  V30 617 O 63.6971 -1.86071 -0.301634 0
M  V30 618 C 60.8241 -3.38346 -0.154762 0
M  V30 619 C 59.8701 -4.19587 0.764782 0
M  V30 620 S 60.7031 -4.86014 2.24835 0
M  V30 621 C 61.8591 -6.07012 1.526 0
M  V30 622 H 62.0921 -2.59715 1.44691 0
M  V30 623 H 59.6251 -1.287 0.85297 0
M  V30 624 H 61.5831 -4.065 -0.571641 0
M  V30 625 H 60.2441 -2.97786 -0.999105 0
M  V30 626 H 59.4371 -5.03611 0.197976 0
M  V30 627 H 59.0391 -3.56818 1.12057 0
M  V30 628 H 61.3311 -6.72523 0.819733 0
M  V30 629 H 62.2741 -6.68202 2.34333 0
M  V30 630 H 62.6821 -5.55249 1.01779 0
M  V30 631 N 62.0802 -0.821533 -1.34494 0
M  V30 632 C 63.0272 -0.240397 -2.29545 0
M  V30 633 C 63.9972 0.634031 -1.53523 0
M  V30 634 O 65.1822 0.575966 -1.81899 0
M  V30 635 C 62.3222 0.592869 -3.39969 0
M  V30 636 C 61.4352 -0.30365 -4.30932 0
M  V30 637 C 60.5702 0.539049 -5.28458 0
M  V30 638 C 59.6092 -0.356942 -6.11058 0
M  V30 639 N 58.7462 0.446603 -7.00678 0
M  V30 640 H 63.5862 -1.05632 -2.7865 0
M  V30 641 H 61.1232 -0.532413 -1.37127 0
M  V30 642 H 63.0812 1.09129 -4.02675 0
M  V30 643 H 61.7112 1.37392 -2.92102 0
M  V30 644 H 60.7632 -0.920276 -3.691 0
M  V30 645 H 62.0752 -0.992661 -4.88823 0
M  V30 646 H 61.2292 1.102 -5.96608 0
M  V30 647 H 59.9682 1.26157 -4.71101 0
M  V30 648 H 58.9732 -0.932047 -5.41842 0
M  V30 649 H 60.1982 -1.07755 -6.70497 0
M  V30 650 H 58.1442 1.15282 -6.45791 0
M  V30 651 H 58.0612 -0.184048 -7.55776 0
M  V30 652 H 59.3292 0.992352 -7.73158 0
M  V30 653 N 63.5583 1.46682 -0.576371 0
M  V30 654 C 64.8063 2.02013 -0.0594163 0
M  V30 655 C 65.1273 1.45101 1.30271 0
M  V30 656 O 64.3973 0.633317 1.8538 0
M  V30 657 H 62.9773 0.746759 -0.0189745 0
M  V30 658 H 65.6393 1.79862 -0.750717 0
M  V30 659 H 64.7353 3.12097 0.014345 0
M  V30 660 N 65.0364 0.313813 1.54444 0
M  V30 661 C 66.2664 -0.293491 2.04505 0
M  V30 662 C 66.6744 -1.47086 1.19005 0
M  V30 663 O 66.0174 -1.82481 0.211257 0
M  V30 664 C 66.0794 -0.800455 3.50475 0
M  V30 665 C 65.7434 0.253322 4.56297 0
M  V30 666 C 66.7404 1.08612 5.08428 0
M  V30 667 C 64.4254 0.398708 5.00715 0
M  V30 668 C 66.4194 2.05013 6.0353 0
M  V30 669 C 64.1064 1.36614 5.95634 0
M  V30 670 C 65.1044 2.19033 6.46926 0
M  V30 671 O 64.7924 3.14134 7.39983 0
M  V30 672 H 64.5244 -0.0658325 0.672787 0
M  V30 673 H 67.0784 0.455177 2.00293 0
M  V30 674 H 65.3084 -1.59987 3.52053 0
M  V30 675 H 66.9974 -1.32504 3.83663 0
M  V30 676 H 67.7634 0.984736 4.74898 0
M  V30 677 H 63.6424 -0.23289 4.60411 0
M  V30 678 H 67.1864 2.69382 6.4349 0
M  V30 679 H 63.0834 1.4682 6.28581 0
M  V30 680 H 63.8514 3.0926 7.57826 0
M  V30 681 N 66.5145 -1.57545 0.0417849 0
M  V30 682 C 67.7635 -1.91494 -0.633492 0
M  V30 683 C 68.0765 -0.921084 -1.72556 0
M  V30 684 O 69.2825 -1.15228 -2.45835 0
M  V30 685 C 67.7385 -3.40072 -1.17808 0
M  V30 686 C 67.3465 -4.47843 -0.118633 0
M  V30 687 C 69.0905 -3.8307 -1.82915 0
M  V30 688 C 66.9975 -5.87529 -0.675578 0
M  V30 689 H 65.9275 -0.714653 -0.24039 0
M  V30 690 H 68.5785 -1.83175 0.109148 0
M  V30 691 H 66.9605 -3.43364 -1.97274 0
M  V30 692 H 68.1345 -4.56128 0.654494 0
M  V30 693 H 66.4495 -4.14128 0.434414 0
M  V30 694 H 69.0465 -4.84794 -2.25563 0
M  V30 695 H 69.3895 -3.1881 -2.67705 0
M  V30 696 H 69.9225 -3.82255 -1.10119 0
M  V30 697 H 66.6615 -6.55362 0.134475 0
M  V30 698 H 66.1815 -5.82824 -1.4169 0
M  V30 699 H 67.8605 -6.36491 -1.1614 0
M  V30 700 N 67.9926 0.231505 -1.5589 0
M  V30 701 C 68.9226 1.29022 -1.94617 0
M  V30 702 C 69.9036 1.4941 -0.813067 0
M  V30 703 O 71.0886 1.6176 -1.07459 0
M  V30 704 C 68.2186 2.64199 -2.25424 0
M  V30 705 C 67.1726 2.58484 -3.41131 0
M  V30 706 C 66.4986 3.97599 -3.57518 0
M  V30 707 C 67.7986 2.1413 -4.76388 0
M  V30 708 H 69.4926 0.968563 -2.83301 0
M  V30 709 H 67.0386 0.464479 -1.36303 0
M  V30 710 H 68.9916 3.38413 -2.51107 0
M  V30 711 H 67.7156 2.98032 -1.33583 0
M  V30 712 H 66.3746 1.86727 -3.15481 0
M  V30 713 H 66.0226 4.28723 -2.6307 0
M  V30 714 H 65.7226 3.94659 -4.35337 0
M  V30 715 H 67.2466 4.7349 -3.85538 0
M  V30 716 H 68.6606 2.78083 -5.01341 0
M  V30 717 H 67.0576 2.2227 -5.57419 0
M  V30 718 H 68.1276 1.09331 -4.72414 0
M  V30 719 N 69.4707 1.49531 0.497807 0
M  V30 720 C 70.4187 1.66926 1.61983 0
M  V30 721 C 71.4127 0.535167 1.60724 0
M  V30 722 O 72.6187 0.714896 1.65195 0
M  V30 723 H 68.9937 0.526415 0.537021 0
M  V30 724 H 70.9647 2.61098 1.44465 0
M  V30 725 C 69.7137 1.75602 3.00099 0
M  V30 726 H 69.0367 2.62244 3.01775 0
M  V30 727 H 70.4767 1.91807 3.78135 0
M  V30 728 C 68.9357 0.501543 3.33146 0
M  V30 729 O 69.4657 -0.371342 3.9998 0
M  V30 730 N 67.6717 0.363531 2.88317 0
M  V30 731 H 67.2187 1.07485 2.34104 0
M  V30 732 H 67.1767 -0.474728 3.10795 0
M  V30 733 N 70.9488 -0.749086 1.3866 0
M  V30 734 C 71.8788 -1.8764 1.38973 0
M  V30 735 C 72.8598 -1.68178 0.255004 0
M  V30 736 O 74.0448 -1.88704 0.458754 0
M  V30 737 C 71.1748 -3.25222 1.21851 0
M  V30 738 C 70.1288 -3.59295 2.32575 0
M  V30 739 C 69.4548 -4.95663 2.00555 0
M  V30 740 C 70.7548 -3.63709 3.7485 0
M  V30 741 H 72.4488 -1.87635 2.3331 0
M  V30 742 H 69.9948 -0.901329 1.12303 0
M  V30 743 H 71.9478 -4.03746 1.20695 0
M  V30 744 H 70.6718 -3.25719 0.239775 0
M  V30 745 H 69.3308 -2.83093 2.32925 0
M  V30 746 H 68.9788 -4.92724 1.01154 0
M  V30 747 H 68.6788 -5.19429 2.74714 0
M  V30 748 H 70.2028 -5.7656 2.01024 0
M  V30 749 H 71.6168 -4.32338 3.76506 0
M  V30 750 H 70.0138 -3.98986 4.48252 0
M  V30 751 H 71.0838 -2.63834 4.06841 0
M  V30 752 N 72.4269 -1.23603 -0.977757 0
M  V30 753 C 73.6549 -1.09646 -1.75458 0
M  V30 754 C 74.0699 0.351859 -1.85492 0
M  V30 755 O 73.4269 1.24327 -1.336 0
M  V30 756 C 73.4779 -1.71895 -3.18016 0
M  V30 757 O 73.1989 -3.11063 -3.08498 0
M  V30 758 C 74.6999 -1.63415 -4.12081 0
M  V30 759 H 71.9199 -0.38359 -0.550545 0
M  V30 760 H 74.4639 -1.63507 -1.22824 0
M  V30 761 H 72.6189 -1.22061 -3.67668 0
M  V30 762 H 73.0329 -3.41305 -3.9826 0
M  V30 763 H 74.5069 -2.11669 -5.09804 0
M  V30 764 H 74.9839 -0.593462 -4.35172 0
M  V30 765 H 75.5899 -2.12628 -3.68334 0
M  V30 766 N 73.905 1.17692 -1.04816 0
M  V30 767 C 75.154 1.87192 -0.751132 0
M  V30 768 C 75.467 1.8169 0.724441 0
M  V30 769 O 76.673 2.46625 1.13527 0
M  V30 770 C 75.129 3.35857 -1.29338 0
M  V30 771 C 74.737 3.4987 -2.79812 0
M  V30 772 C 76.481 4.10709 -1.07322 0
M  V30 773 C 74.388 4.92536 -3.27356 0
M  V30 774 H 73.318 0.701162 -0.277288 0
M  V30 775 H 75.969 1.32932 -1.26496 0
M  V30 776 H 74.351 3.89631 -0.707376 0
M  V30 777 H 75.525 3.06332 -3.44235 0
M  V30 778 H 73.84 2.88433 -3.00325 0
M  V30 779 H 76.437 5.15952 -1.4035 0
M  V30 780 H 76.78 4.16299 -0.0108001 0
M  V30 781 H 77.313 3.6313 -1.62423 0
M  V30 782 H 74.052 4.92119 -4.33012 0
M  V30 783 H 73.572 5.3676 -2.67673 0
M  V30 784 H 75.251 5.61288 -3.21815 0
M  V30 785 N 75.3831 0.828654 1.34056 0
M  V30 786 C 76.7991 0.515135 1.51058 0
M  V30 787 C 76.9991 -0.959581 1.77184 0
M  V30 788 O 76.0551 -1.74382 1.82612 0
M  V30 789 C 77.3681 1.37963 2.67183 0
M  V30 790 C 78.9161 1.37735 2.81066 0
M  V30 791 C 79.3911 2.22645 4.00241 0
M  V30 792 N 80.8821 2.203 4.07458 0
M  V30 793 C 81.6171 2.82744 4.98842 0
M  V30 794 N 81.1131 3.54201 5.9541 0
M  V30 795 N 82.9061 2.72268 4.91759 0
M  V30 796 H 75.0571 1.78343 1.15358 0
M  V30 797 H 77.3201 0.760304 0.566252 0
M  V30 798 H 77.0261 2.42714 2.54525 0
M  V30 799 H 76.9001 1.0484 3.62338 0
M  V30 800 H 79.2871 0.337593 2.93163 0
M  V30 801 H 79.3681 1.74859 1.86703 0
M  V30 802 H 79.0121 3.26674 3.88905 0
M  V30 803 H 78.9421 1.82869 4.93829 0
M  V30 804 H 81.4331 1.68327 3.38341 0
M  V30 805 H 81.7461 3.9908 6.61782 0
M  V30 806 H 80.0911 3.58308 5.95517 0
M  V30 807 H 83.2821 2.16014 4.15278 0
M  V30 808 H 83.4551 3.21219 5.62781 0
M  V30 809 N 76.8612 -1.46375 0.584142 0
M  V30 810 C 78.1092 -2.01978 0.0701287 0
M  V30 811 C 78.4302 -1.4579 -1.295 0
M  V30 812 O 77.7002 -0.64314 -1.85042 0
M  V30 813 H 76.2802 -0.746648 0.0229345 0
M  V30 814 H 78.9422 -1.79461 0.760245 0
M  V30 815 H 78.0382 -3.121 0.0022064 0
M  V30 816 N 78.3393 -0.321999 -1.54275 0
M  V30 817 C 79.2713 0.578671 -2.21775 0
M  V30 818 C 80.2843 1.08109 -1.21722 0
M  V30 819 O 81.4733 0.994938 -1.482 0
M  V30 820 C 78.5733 1.80661 -2.86731 0
M  V30 821 C 77.7463 1.44314 -4.12907 0
M  V30 822 C 76.8053 2.52845 -4.61472 0
M  V30 823 O 75.8313 2.17054 -5.2619 0
M  V30 824 N 77.0333 3.83748 -4.35566 0
M  V30 825 H 79.7983 0.000709447 -2.997 0
M  V30 826 H 77.3593 -0.145132 -1.61248 0
M  V30 827 H 79.3513 2.52655 -3.16145 0
M  V30 828 H 77.9213 2.29245 -2.12521 0
M  V30 829 H 77.1413 0.554906 -3.90275 0
M  V30 830 H 78.4293 1.17598 -4.95023 0
M  V30 831 H 77.8273 4.15625 -3.83761 0
M  V30 832 H 76.3843 4.51977 -4.69638 0
M  V30 833 N 79.8174 1.5752 -0.0501392 0
M  V30 834 C 81.0654 1.9227 0.622642 0
M  V30 835 C 81.3864 0.929083 1.71444 0
M  V30 836 O 80.6564 -0.0262186 1.95882 0
M  V30 837 H 79.2364 0.709739 0.232981 0
M  V30 838 H 81.8984 1.94628 -0.102898 0
M  V30 839 H 80.9944 2.93479 1.06191 0
M  V30 840 N 81.2955 -0.223234 1.56011 0
M  V30 841 C 82.5415 -0.949279 1.79211 0
M  V30 842 C 82.8745 -1.84054 0.619494 0
M  V30 843 O 82.1495 -1.90726 -0.381317 0
M  V30 844 C 82.4325 -1.78965 3.12479 0
M  V30 845 C 82.2855 -0.924997 4.40186 0
M  V30 846 C 83.6045 -2.76774 3.42175 0
M  V30 847 H 80.7235 -0.343676 0.651963 0
M  V30 848 H 83.3655 -0.218253 1.88742 0
M  V30 849 H 81.5155 -2.41291 3.04485 0
M  V30 850 H 83.1875 -0.318615 4.60198 0
M  V30 851 H 81.4305 -0.230344 4.33188 0
M  V30 852 H 82.1015 -1.54735 5.29869 0
M  V30 853 H 84.5775 -2.24584 3.50287 0
M  V30 854 H 83.4535 -3.32678 4.36597 0
M  V30 855 H 83.7145 -3.54429 2.64258 0
M  V30 856 N 82.7736 -1.49793 -0.48987 0
M  V30 857 C 84.0196 -1.60078 -1.24511 0
M  V30 858 C 84.3526 -0.291608 -1.91998 0
M  V30 859 O 83.6276 0.705647 -1.81248 0
M  V30 860 C 83.9106 -2.76791 -2.30345 0
M  V30 861 C 83.7636 -4.17535 -1.67286 0
M  V30 862 C 85.0826 -2.89111 -3.31817 0
M  V30 863 H 82.2016 -0.582645 -0.451324 0
M  V30 864 H 84.8436 -1.82117 -0.541612 0
M  V30 865 H 82.9936 -2.5813 -2.90346 0
M  V30 866 H 84.6656 -4.4774 -1.11026 0
M  V30 867 H 82.9086 -4.22665 -0.976577 0
M  V30 868 H 83.5796 -4.95094 -2.44103 0
M  V30 869 H 86.0556 -3.06133 -2.81819 0
M  V30 870 H 84.9316 -3.72433 -4.03219 0
M  V30 871 H 85.1926 -1.9893 -3.94815 0
M  V30 872 N 84.2517 0.741722 -1.39055 0
M  V30 873 C 85.1987 1.85566 -1.37237 0
M  V30 874 C 86.1687 1.64457 -0.233072 0
M  V30 875 O 87.3537 1.85957 -0.427147 0
M  V30 876 C 84.4937 3.23004 -1.215 0
M  V30 877 C 83.6067 3.55864 -2.44918 0
M  V30 878 C 82.7417 4.82669 -2.21821 0
M  V30 879 C 81.7807 5.08351 -3.40948 0
M  V30 880 N 80.9177 6.26356 -3.17211 0
M  V30 881 H 85.7577 1.86455 -2.32462 0
M  V30 882 H 83.2947 0.911176 -1.15482 0
M  V30 883 H 85.2527 4.02331 -1.10389 0
M  V30 884 H 83.8827 3.21411 -0.29908 0
M  V30 885 H 82.9347 2.7129 -2.66657 0
M  V30 886 H 84.2467 3.70765 -3.33668 0
M  V30 887 H 83.4007 5.69962 -2.07914 0
M  V30 888 H 82.1397 4.69929 -1.30454 0
M  V30 889 H 81.1447 4.19522 -3.55361 0
M  V30 890 H 82.3697 5.22981 -4.33207 0
M  V30 891 H 80.3157 6.14917 -2.28502 0
M  V30 892 H 80.2327 6.41813 -3.99515 0
M  V30 893 H 81.5007 7.16506 -3.06984 0
M  V30 894 N 85.7298 1.2412 0.971189 0
M  V30 895 C 86.6778 1.02812 2.08644 0
M  V30 896 C 87.6718 -0.0358403 1.69362 0
M  V30 897 O 88.8778 0.118429 1.7961 0
M  V30 898 H 85.2528 0.315428 0.682649 0
M  V30 899 H 87.2238 1.97397 2.23779 0
M  V30 900 C 85.9728 0.645874 3.41649 0
M  V30 901 H 85.2958 1.45632 3.72332 0
M  V30 902 H 86.7358 0.536366 4.20594 0
M  V30 903 C 85.1948 -0.646713 3.30635 0
M  V30 904 O 85.7248 -1.69338 3.64263 0
M  V30 905 N 83.9308 -0.626115 2.83775 0
M  V30 906 H 83.4778 0.225988 2.56607 0
M  V30 907 H 83.4358 -1.49117 2.76788 0
M  V30 908 N 87.2079 -1.17134 1.05439 0
M  V30 909 C 88.1399 -2.2078 0.615539 0
M  V30 910 C 89.1529 -1.59584 -0.322001 0
M  V30 911 O 90.3419 -1.78133 -0.114344 0
M  V30 912 C 87.4419 -3.38691 -0.118938 0
M  V30 913 C 86.6149 -4.29454 0.829924 0
M  V30 914 C 85.6739 -5.26024 0.136258 0
M  V30 915 O 84.6999 -5.63952 0.77115 0
M  V30 916 N 85.9019 -5.69487 -1.1254 0
M  V30 917 H 88.6669 -2.59052 1.50705 0
M  V30 918 H 86.2279 -1.32058 0.936603 0
M  V30 919 H 88.2199 -4.00329 -0.593179 0
M  V30 920 H 86.7899 -2.98996 -0.91215 0
M  V30 921 H 86.0099 -3.65211 1.48373 0
M  V30 922 H 87.2979 -4.86984 1.47392 0
M  V30 923 H 86.6959 -5.4075 -1.6615 0
M  V30 924 H 85.2529 -6.33257 -1.54366 0
M  V30 925 N 88.686 -0.835752 -1.33615 0
M  V30 926 C 89.934 -0.429109 -1.97492 0
M  V30 927 C 90.255 1.01433 -1.66543 0
M  V30 928 O 89.525 1.70611 -0.962744 0
M  V30 929 H 88.105 -0.155686 -0.730596 0
M  V30 930 H 90.767 -1.06802 -1.63031 0
M  V30 931 H 89.863 -0.55861 -3.0706 0
M  V30 932 N 90.1641 1.46063 -0.591896 0
M  V30 933 C 91.5801 1.57561 -0.254288 0
M  V30 934 C 91.7801 1.58565 1.24336 0
M  V30 935 O 90.8361 1.50753 2.02558 0
M  V30 936 C 92.1491 2.86549 -0.911611 0
M  V30 937 C 93.6971 3.00197 -0.886059 0
M  V30 938 C 94.1721 4.31933 -1.5231 0
M  V30 939 N 95.6631 4.38654 -1.48786 0
M  V30 940 C 96.3981 5.39222 -1.95006 0
M  V30 941 N 95.8941 6.46414 -2.49241 0
M  V30 942 N 97.6871 5.3048 -1.85868 0
M  V30 943 H 89.8381 1.43655 -1.56451 0
M  V30 944 H 92.1011 0.68583 -0.654478 0
M  V30 945 H 91.8071 2.91651 -1.96551 0
M  V30 946 H 91.6811 3.74794 -0.425368 0
M  V30 947 H 94.0681 2.9467 0.159246 0
M  V30 948 H 94.1491 2.13403 -1.41041 0
M  V30 949 H 93.7931 4.38217 -2.56765 0
M  V30 950 H 93.7231 5.17516 -0.973891 0
M  V30 951 H 96.2141 3.61793 -1.09151 0
M  V30 952 H 96.5271 7.19376 -2.82344 0
M  V30 953 H 94.8721 6.47208 -2.53272 0
M  V30 954 H 98.0631 4.45643 -1.43248 0
M  V30 955 H 98.2361 6.08711 -2.22204 0
M  V30 956 N 91.6422 0.330177 1.54103 0
M  V30 957 C 92.5522 -0.541534 2.28264 0
M  V30 958 C 93.5682 -1.12351 1.32866 0
M  V30 959 O 94.7442 -1.14206 1.65888 0
M  V30 960 C 91.8092 -1.68322 3.03098 0
M  V30 961 C 90.8702 -1.13238 4.14096 0
M  V30 962 C 90.1032 -2.21966 4.85352 0
M  V30 963 O 90.3262 -3.42437 4.56172 0
M  V30 964 O 89.2602 -1.87013 5.7211 0
M  V30 965 H 93.0862 0.060938 3.03639 0
M  V30 966 H 90.6712 0.09565 1.49093 0
M  V30 967 H 92.5532 -2.34777 3.49939 0
M  V30 968 H 91.2282 -2.27176 2.30593 0
M  V30 969 H 90.1352 -0.432736 3.71589 0
M  V30 970 H 91.4682 -0.588898 4.88664 0
M  V30 971 N 93.1203 -1.57491 0.0584922 0
M  V30 972 C 94.3673 -1.92978 -0.613648 0
M  V30 973 C 94.6953 -0.937461 -1.70417 0
M  V30 974 O 93.9503 0.049078 -1.95638 0
M  V30 975 C 94.2493 -3.3513 -1.24188 0
M  V30 976 C 93.9153 -4.50037 -0.278826 0
M  V30 977 C 92.5773 -4.81198 -0.0138447 0
M  V30 978 C 94.9293 -5.19807 0.380777 0
M  V30 979 C 92.2573 -5.79473 0.918052 0
M  V30 980 C 94.6093 -6.19079 1.30091 0
M  V30 981 C 93.2733 -6.48665 1.57449 0
M  V30 982 H 92.5433 -0.706157 -0.22455 0
M  V30 983 H 95.1903 -1.91082 0.126533 0
M  V30 984 H 93.4953 -3.33429 -2.05749 0
M  V30 985 H 95.1923 -3.59871 -1.769 0
M  V30 986 H 91.7823 -4.25726 -0.495539 0
M  V30 987 H 95.9663 -4.95939 0.189158 0
M  V30 988 H 91.2223 -6.00727 1.1374 0
M  V30 989 H 95.3963 -6.7225 1.81804 0
M  V30 990 H 93.0233 -7.24628 2.29822 0
M  V30 991 N 94.5984 0.214957 -1.56127 0
M  V30 992 C 95.8444 0.939762 -1.79712 0
M  V30 993 C 96.1774 1.83723 -0.629247 0
M  V30 994 O 95.4524 1.90925 0.371197 0
M  V30 995 C 95.7354 1.77306 -3.13424 0
M  V30 996 C 95.5884 0.90164 -4.40671 0
M  V30 997 C 96.9074 2.74956 -3.43638 0
M  V30 998 H 94.0264 0.340214 -0.653776 0
M  V30 999 H 96.6684 0.20824 -1.88855 0
M  V30 1000 H 94.8184 2.39673 -3.0576 0
M  V30 1001 H 96.4904 0.294206 -4.60361 0
M  V30 1002 H 94.7334 0.207368 -4.33304 0
M  V30 1003 H 95.4044 1.51923 -5.30682 0
M  V30 1004 H 97.8804 2.22724 -3.51473 0
M  V30 1005 H 96.7564 3.30358 -4.38355 0
M  V30 1006 H 97.0174 3.53023 -2.66134 0
M  V30 1007 N 96.0765 1.50051 0.48192 0
M  V30 1008 C 97.3165 1.62128 1.24474 0
M  V30 1009 C 97.6805 0.309742 1.89485 0
M  V30 1010 O 98.8815 0.305854 2.67054 0
M  V30 1011 C 97.1525 2.76151 2.26882 0
M  V30 1012 S 98.7115 3.08297 3.12247 0
M  V30 1013 H 95.5295 0.571661 0.422759 0
M  V30 1014 H 98.1315 1.87791 0.54359 0
M  V30 1015 H 96.8355 3.69942 1.77683 0
M  V30 1016 H 96.3665 2.52541 3.0164 0
M  V30 1017 H 98.3815 2.51287 4.27866 0
M  V30 1018 N 97.5546 -0.734337 1.39446 0
M  V30 1019 C 98.9706 -1.03997 1.21065 0
M  V30 1020 C 99.1706 -2.01369 0.0727019 0
M  V30 1021 O 98.2266 -2.45856 -0.575426 0
M  V30 1022 C 99.5396 -1.60163 2.54496 0
M  V30 1023 C 101.088 -1.7224 2.61347 0
M  V30 1024 C 101.563 -2.31814 3.95002 0
M  V30 1025 N 103.054 -2.39223 3.96644 0
M  V30 1026 C 103.789 -2.86258 4.96834 0
M  V30 1027 N 103.285 -3.33184 6.07421 0
M  V30 1028 N 105.078 -2.85473 4.84213 0
M  V30 1029 H 97.2286 -0.0885624 2.12215 0
M  V30 1030 H 99.4916 -0.10191 0.942506 0
M  V30 1031 H 99.1976 -0.960811 3.38321 0
M  V30 1032 H 99.0716 -2.5896 2.74262 0
M  V30 1033 H 101.459 -2.35443 1.77906 0
M  V30 1034 H 101.54 -0.720939 2.4543 0
M  V30 1035 H 101.184 -1.69238 4.78875 0
M  V30 1036 H 101.114 -3.32638 4.08239 0
M  V30 1037 H 103.605 -2.06057 3.16779 0
M  V30 1038 H 103.918 -3.67586 6.7978 0
M  V30 1039 H 102.263 -3.31191 6.11013 0
M  V30 1040 H 105.454 -2.48136 3.96921 0
M  V30 1041 H 105.627 -3.21814 5.62441 0
M  V30 1042 N 99.0327 -1.24633 -0.964593 0
M  V30 1043 C 100.444 -1.08045 -1.5226 0
M  V30 1044 C 100.795 0.347116 -1.93105 0
M  V30 1045 O 99.9197 1.23588 -1.77637 0
M  V30 1046 C 100.515 -1.95514 -2.76695 0
M  V30 1047 C 99.0737 -1.8314 -3.28841 0
M  V30 1048 C 98.2207 -1.90262 -2.01732 0
M  V30 1049 H 101.172 -1.38064 -0.782553 0
M  V30 1050 H 101.193 -1.48925 -3.50145 0
M  V30 1051 H 100.705 -2.99407 -2.46936 0
M  V30 1052 H 98.8057 -0.82092 -3.63444 0
M  V30 1053 H 98.9187 -2.67406 -3.97531 0
M  V30 1054 H 97.2827 -1.34027 -2.16584 0
M  V30 1055 H 98.0657 -2.9574 -1.74334 0
M  V30 1056 N 100.511 1.16574 -1.06058 0
M  V30 1057 C 101.759 1.86677 -0.77434 0
M  V30 1058 C 102.08 1.81959 0.701147 0
M  V30 1059 O 101.35 1.2515 1.50713 0
M  V30 1060 H 99.9298 0.691134 -0.283449 0
M  V30 1061 H 102.592 1.41378 -1.34158 0
M  V30 1062 H 101.688 2.92181 -1.09711 0
M  V30 1063 N 101.989 0.842826 1.3317 0
M  V30 1064 C 103.266 0.362216 1.92217 0
M  V30 1065 C 103.646 -1.15289 1.76838 0
M  V30 1066 O 102.994 -1.96914 1.15919 0
M  V30 1067 C 103.204 0.813495 3.39387 0
M  V30 1068 C 104.552 0.823804 4.16532 0
M  V30 1069 O 105.576 0.757358 3.48055 0
M  V30 1070 O 104.435 0.915193 5.38782 0
M  V30 1071 H 101.529 0.103317 0.820521 0
M  V30 1072 H 104.075 0.928942 1.42017 0
M  V30 1073 H 102.847 1.85624 3.4447 0
M  V30 1074 H 102.47 0.223561 3.96971 0
M  V30 1075 N 103.467 -1.45747 0.599634 0
M  V30 1076 C 104.716 -2.01502 0.0893511 0
M  V30 1077 C 105.029 -1.4748 -1.28488 0
M  V30 1078 O 106.235 -1.95161 -1.88745 0
M  V30 1079 C 104.691 -3.59735 0.109082 0
M  V30 1080 C 104.299 -4.22754 1.48267 0
M  V30 1081 C 106.043 -4.23085 -0.346374 0
M  V30 1082 C 103.95 -5.73115 1.45921 0
M  V30 1083 H 102.88 -0.753417 0.0296347 0
M  V30 1084 H 105.531 -1.67303 0.753788 0
M  V30 1085 H 103.913 -3.91087 -0.621854 0
M  V30 1086 H 105.087 -4.02987 2.23468 0
M  V30 1087 H 103.402 -3.71567 1.87955 0
M  V30 1088 H 105.999 -5.33327 -0.38298 0
M  V30 1089 H 106.342 -3.93201 -1.36743 0
M  V30 1090 H 106.875 -3.9642 0.331038 0
M  V30 1091 H 103.614 -6.07685 2.45762 0
M  V30 1092 H 103.134 -5.95097 0.749665 0
M  V30 1093 H 104.813 -6.3616 1.17941 0
M  V30 1094 N 104.945 -0.338344 -1.53925 0
M  V30 1095 C 105.875 0.51328 -2.27789 0
M  V30 1096 C 106.856 1.107 -1.29149 0
M  V30 1097 O 108.041 1.12937 -1.57984 0
M  V30 1098 C 105.171 1.66697 -3.04679 0
M  V30 1099 C 104.125 1.20183 -4.1078 0
M  V30 1100 C 103.451 2.44363 -4.75595 0
M  V30 1101 C 104.751 0.30605 -5.21403 0
M  V30 1102 H 106.445 -0.102883 -2.99223 0
M  V30 1103 H 103.991 -0.0509219 -1.4391 0
M  V30 1104 H 105.944 2.26915 -3.55088 0
M  V30 1105 H 104.668 2.30995 -2.30887 0
M  V30 1106 H 103.327 0.622499 -3.61276 0
M  V30 1107 H 102.975 3.07057 -3.98403 0
M  V30 1108 H 102.675 2.13925 -5.47275 0
M  V30 1109 H 104.199 3.05317 -5.28786 0
M  V30 1110 H 105.613 0.814929 -5.67478 0
M  V30 1111 H 104.01 0.0937929 -6.00027 0
M  V30 1112 H 105.08 -0.65921 -4.80398 0
M  V30 1113 N 106.423 1.57458 -0.0668435 0
M  V30 1114 C 107.353 2.15468 0.899764 0
M  V30 1115 C 108.334 1.08042 1.31381 0
M  V30 1116 O 109.519 1.36054 1.38574 0
M  V30 1117 C 106.649 2.71232 2.16911 0
M  V30 1118 C 105.603 3.83781 1.89463 0
M  V30 1119 C 104.929 4.26127 3.22986 0
M  V30 1120 C 106.229 5.08238 1.20381 0
M  V30 1121 H 107.923 2.96488 0.416529 0
M  V30 1122 H 105.469 1.4262 0.198908 0
M  V30 1123 H 107.422 3.10458 2.84945 0
M  V30 1124 H 106.146 1.87426 2.67468 0
M  V30 1125 H 104.805 3.45051 1.23836 0
M  V30 1126 H 104.453 3.39249 3.71374 0
M  V30 1127 H 104.153 5.01993 3.05413 0
M  V30 1128 H 105.677 4.67966 3.92225 0
M  V30 1129 H 107.091 5.44811 1.78475 0
M  V30 1130 H 105.488 5.89349 1.13083 0
M  V30 1131 H 106.558 4.84558 0.182153 0
M  V30 1132 N 107.901 -0.206675 1.56239 0
M  V30 1133 C 109.148 -0.928842 1.79941 0
M  V30 1134 C 109.476 -1.83734 0.638131 0
M  V30 1135 O 108.731 -1.92039 -0.376746 0
M  V30 1136 C 109.03 -1.78675 3.09532 0
M  V30 1137 C 108.696 -1.03022 4.38973 0
M  V30 1138 C 107.358 -0.821302 4.74139 0
M  V30 1139 C 109.71 -0.497081 5.18824 0
M  V30 1140 C 107.038 -0.0675719 5.86661 0
M  V30 1141 C 109.39 0.24338 6.32132 0
M  V30 1142 C 108.054 0.463422 6.65889 0
M  V30 1143 H 107.324 -0.339887 0.658451 0
M  V30 1144 H 109.971 -0.195977 1.90495 0
M  V30 1145 H 108.276 -2.58794 2.94165 0
M  V30 1146 H 109.973 -2.34792 3.25075 0
M  V30 1147 H 106.563 -1.20306 4.11369 0
M  V30 1148 H 110.747 -0.645921 4.92079 0
M  V30 1149 H 106.003 0.112995 6.11296 0
M  V30 1150 H 110.177 0.66393 6.93228 0
M  V30 1151 H 107.804 1.04938 7.52922 0
M  V30 1152 N 109.379 -1.50304 -0.473955 0
M  V30 1153 C 110.79 -1.54042 -1.0549 0
M  V30 1154 C 111.141 -0.342248 -1.93192 0
M  V30 1155 O 110.266 0.545157 -2.09421 0
M  V30 1156 C 110.861 -2.79152 -1.91989 0
M  V30 1157 C 109.42 -2.8558 -2.45196 0
M  V30 1158 C 108.567 -2.48295 -1.2347 0
M  V30 1159 H 111.518 -1.5661 -0.256693 0
M  V30 1160 H 111.539 -2.60845 -2.7702 0
M  V30 1161 H 111.051 -3.66339 -1.28131 0
M  V30 1162 H 109.152 -2.02738 -3.12615 0
M  V30 1163 H 109.265 -3.88403 -2.80499 0
M  V30 1164 H 107.629 -2.00669 -1.56856 0
M  V30 1165 H 108.412 -3.37787 -0.612789 0
M  V30 1166 N 110.857 0.726932 -1.39834 0
M  V30 1167 C 112.268 1.30558 -1.3346 0
M  V30 1168 C 112.619 1.962 -0.00273003 0
M  V30 1169 O 111.744 1.96826 0.899371 0
M  V30 1170 C 112.339 2.37404 -2.41713 0
M  V30 1171 C 110.898 2.90921 -2.38835 0
M  V30 1172 C 110.045 1.64578 -2.2318 0
M  V30 1173 H 112.996 0.523862 -1.49804 0
M  V30 1174 H 113.017 3.17984 -2.08966 0
M  V30 1175 H 112.529 1.89599 -3.38635 0
M  V30 1176 H 110.63 3.42985 -1.45575 0
M  V30 1177 H 110.743 3.43487 -3.33997 0
M  V30 1178 H 109.107 1.89219 -1.70494 0
M  V30 1179 H 109.89 1.18814 -3.22084 0
M  V30 1180 N 112.336 1.25143 0.95797 0
M  V30 1181 C 113.584 1.09476 1.69881 0
M  V30 1182 C 113.905 -0.365502 1.91544 0
M  V30 1183 O 113.175 -1.25985 1.50015 0
M  V30 1184 H 111.755 0.402128 0.629525 0
M  V30 1185 H 114.417 1.57214 1.15194 0
M  V30 1186 H 113.513 1.60046 2.6794 0
M  V30 1187 N 113.814 -1.1601 1.06675 0
M  V30 1188 C 114.724 -2.24156 0.692179 0
M  V30 1189 C 115.74 -1.71507 -0.293513 0
M  V30 1190 O 116.916 -2.009 -0.141861 0
M  V30 1191 C 113.981 -3.46587 0.0884131 0
M  V30 1192 C 113.042 -4.14257 1.12646 0
M  V30 1193 C 112.275 -5.30844 0.551416 0
M  V30 1194 O 112.498 -5.66858 -0.634656 0
M  V30 1195 O 111.432 -5.87848 1.29298 0
M  V30 1196 H 115.258 -2.58513 1.59388 0
M  V30 1197 H 112.843 -1.23599 0.83926 0
M  V30 1198 H 114.725 -4.20679 -0.246361 0
M  V30 1199 H 113.4 -3.13994 -0.786712 0
M  V30 1200 H 112.307 -3.42118 1.51348 0
M  V30 1201 H 113.64 -4.50914 1.97325 0
M  V30 1202 N 115.292 -0.849877 -1.32721 0
M  V30 1203 C 116.541 -0.447175 -1.96681 0
M  V30 1204 C 116.854 1.00135 -1.68025 0
M  V30 1205 O 118.06 1.50926 -2.25685 0
M  V30 1206 C 116.516 -0.7487 -3.52026 0
M  V30 1207 C 116.124 -2.21264 -3.89546 0
M  V30 1208 C 117.868 -0.413487 -4.22481 0
M  V30 1209 C 115.775 -2.45763 -5.37917 0
M  V30 1210 H 114.705 -0.163486 -0.736063 0
M  V30 1211 H 117.356 -1.03999 -1.51183 0
M  V30 1212 H 115.738 -0.0853727 -3.95908 0
M  V30 1213 H 116.912 -2.91736 -3.56689 0
M  V30 1214 H 115.227 -2.5119 -3.32103 0
M  V30 1215 H 117.824 -0.574017 -5.3161 0
M  V30 1216 H 118.167 0.644492 -4.11281 0
M  V30 1217 H 118.7 -1.03251 -3.84167 0
M  V30 1218 H 115.439 -3.50168 -5.54132 0
M  V30 1219 H 114.959 -1.79864 -5.72197 0
M  V30 1220 H 116.638 -2.29471 -6.0494 0
M  V30 1221 N 116.77 1.45427 -0.607355 0
M  V30 1222 C 117.72 2.27612 0.133038 0
M  V30 1223 C 118.704 1.37307 0.838785 0
M  V30 1224 O 119.896 1.61299 0.728813 0
M  V30 1225 C 117.025 3.24173 1.12991 0
M  V30 1226 C 116.111 4.21965 0.425011 0
M  V30 1227 N 116.502 5.02982 -0.533217 0
M  V30 1228 C 114.8 4.40899 0.672593 0
M  V30 1229 C 115.501 5.73931 -0.947518 0
M  V30 1230 N 114.477 5.42819 -0.291321 0
M  V30 1231 H 118.279 2.87649 -0.602935 0
M  V30 1232 H 115.793 1.56576 -0.431006 0
M  V30 1233 H 117.79 3.81783 1.67473 0
M  V30 1234 H 116.45 2.65696 1.86644 0
M  V30 1235 H 117.461 5.09843 -0.90995 0
M  V30 1236 H 114.138 3.93547 1.39382 0
M  V30 1237 H 115.528 6.49037 -1.73782 0
M  V30 1238 N 118.248 0.346503 1.53744 0
M  V30 1239 C 119.198 -0.524953 2.21874 0
M  V30 1240 C 120.182 -1.06376 1.20718 0
M  V30 1241 O 121.374 -0.996972 1.46251 0
M  V30 1242 C 118.503 -1.6739 2.99726 0
M  V30 1243 C 117.589 -1.14888 4.08242 0
M  V30 1244 N 117.98 -0.345329 5.0462 0
M  V30 1245 C 116.278 -1.4255 4.22606 0
M  V30 1246 C 116.979 -0.0600706 5.81669 0
M  V30 1247 N 115.955 -0.65252 5.39669 0
M  V30 1248 H 119.757 0.0960091 2.93743 0
M  V30 1249 H 117.271 0.15352 1.61673 0
M  V30 1250 H 119.268 -2.3102 3.47038 0
M  V30 1251 H 117.928 -2.29811 2.29384 0
M  V30 1252 H 118.939 0.0138439 5.17898 0
M  V30 1253 H 115.616 -2.05389 3.63486 0
M  V30 1254 H 117.006 0.588321 6.69319 0
M  V30 1255 N 119.726 -1.57421 0.075193 0
M  V30 1256 C 120.956 -1.97659 -0.601203 0
M  V30 1257 C 121.364 -0.952427 -1.63479 0
M  V30 1258 O 120.707 0.0688241 -1.83571 0
M  V30 1259 C 120.769 -3.34218 -1.32434 0
M  V30 1260 C 120.433 -4.5484 -0.443826 0
M  V30 1261 C 121.43 -5.19034 0.299969 0
M  V30 1262 C 119.115 -5.00952 -0.367709 0
M  V30 1263 C 121.109 -6.27695 1.10807 0
M  V30 1264 C 118.796 -6.09484 0.444058 0
M  V30 1265 C 119.794 -6.72719 1.18061 0
M  V30 1266 O 119.482 -7.79161 1.97898 0
M  V30 1267 H 119.214 -0.65494 -0.167422 0
M  V30 1268 H 121.768 -2.04886 0.145157 0
M  V30 1269 H 119.998 -3.23615 -2.11685 0
M  V30 1270 H 121.687 -3.59038 -1.89331 0
M  V30 1271 H 122.453 -4.84351 0.250776 0
M  V30 1272 H 118.332 -4.51509 -0.930638 0
M  V30 1273 H 121.876 -6.76982 1.68347 0
M  V30 1274 H 117.773 -6.43601 0.494803 0
M  V30 1275 H 118.541 -7.96055 1.90367 0
M  V30 1276 N 121.204 0.198386 -1.56346 0
M  V30 1277 C 122.452 0.91747 -1.80075 0
M  V30 1278 C 122.773 1.83929 -0.647692 0
M  V30 1279 O 122.043 1.93029 0.334166 0
M  V30 1280 H 120.623 0.341774 -0.664228 0
M  V30 1281 H 123.285 0.204684 -1.93822 0
M  V30 1282 H 122.381 1.51055 -2.7311 0
M  V30 1283 N 122.682 1.50554 0.465978 0
M  V30 1284 C 124.098 1.38093 0.800154 0
M  V30 1285 C 124.298 0.440988 1.96615 0
M  V30 1286 O 123.354 -0.114499 2.5224 0
M  V30 1287 C 124.667 2.79565 1.10742 0
M  V30 1288 C 126.215 2.88516 1.21357 0
M  V30 1289 C 126.69 4.30833 1.55393 0
M  V30 1290 N 128.181 4.33807 1.62375 0
M  V30 1291 C 128.916 5.40927 1.90225 0
M  V30 1292 N 128.412 6.58247 2.16062 0
M  V30 1293 N 130.205 5.28376 1.9177 0
M  V30 1294 H 122.356 2.10237 -0.302366 0
M  V30 1295 H 124.619 0.945203 -0.0727746 0
M  V30 1296 H 124.325 3.50208 0.323661 0
M  V30 1297 H 124.199 3.17125 2.04234 0
M  V30 1298 H 126.586 2.1809 1.98799 0
M  V30 1299 H 126.667 2.54492 0.258321 0
M  V30 1300 H 126.311 5.01799 0.784889 0
M  V30 1301 H 126.241 4.62347 2.52076 0
M  V30 1302 H 128.732 3.49212 1.44427 0
M  V30 1303 H 129.045 7.3569 2.36601 0
M  V30 1304 H 127.39 6.61413 2.13444 0
M  V30 1305 H 130.581 4.35715 1.71085 0
M  V30 1306 H 130.754 6.11944 2.13139 0
M  V30 1307 N 124.16 -0.719506 1.40217 0
M  V30 1308 C 125.11 -1.8251 1.36653 0
M  V30 1309 C 126.094 -1.59028 0.244732 0
M  V30 1310 O 127.286 -1.70268 0.483524 0
M  V30 1311 C 124.415 -3.20599 1.22763 0
M  V30 1312 C 123.501 -3.49858 2.39708 0
M  V30 1313 N 123.892 -3.49957 3.6519 0
M  V30 1314 C 122.19 -3.80297 2.33002 0
M  V30 1315 C 122.891 -3.77449 4.42614 0
M  V30 1316 N 121.867 -3.96002 3.72402 0
M  V30 1317 H 125.669 -1.80914 2.31619 0
M  V30 1318 H 123.183 -0.918455 1.33933 0
M  V30 1319 H 125.18 -3.99766 1.18292 0
M  V30 1320 H 123.84 -3.23424 0.287614 0
M  V30 1321 H 124.851 -3.309 3.98404 0
M  V30 1322 H 121.528 -3.90635 1.47346 0
M  V30 1323 H 122.918 -3.83863 5.51451 0
M  V30 1324 N 125.638 -1.25649 -0.95132 0
M  V30 1325 C 127.049 -1.09654 -1.51106 0
M  V30 1326 C 127.4 0.326615 -1.93462 0
M  V30 1327 O 126.525 1.21697 -1.78938 0
M  V30 1328 C 127.12 -1.98437 -2.74605 0
M  V30 1329 C 125.679 -1.86618 -3.2688 0
M  V30 1330 C 124.826 -1.9239 -1.99703 0
M  V30 1331 H 127.777 -1.38887 -0.767865 0
M  V30 1332 H 127.798 -1.5263 -3.48546 0
M  V30 1333 H 127.31 -3.02009 -2.43746 0
M  V30 1334 H 125.411 -0.859421 -3.62553 0
M  V30 1335 H 125.524 -2.71607 -3.94673 0
M  V30 1336 H 123.888 -1.36317 -2.15151 0
M  V30 1337 H 124.671 -2.97573 -1.71188 0
M  V30 1338 N 127.117 1.15442 -1.07289 0
M  V30 1339 C 128.027 2.23786 -0.704057 0
M  V30 1340 C 129.043 1.7166 0.284413 0
M  V30 1341 O 130.219 2.00972 0.131205 0
M  V30 1342 C 127.284 3.46535 -0.106792 0
M  V30 1343 C 126.345 4.13654 -1.14842 0
M  V30 1344 C 125.578 5.30544 -0.57956 0
M  V30 1345 O 125.801 5.67187 0.604585 0
M  V30 1346 O 124.735 5.87154 -1.32414 0
M  V30 1347 H 128.561 2.57664 -1.60757 0
M  V30 1348 H 126.146 1.23152 -0.845803 0
M  V30 1349 H 128.028 4.20804 0.224048 0
M  V30 1350 H 126.703 3.14407 0.770049 0
M  V30 1351 H 125.61 3.4131 -1.5316 0
M  V30 1352 H 126.943 4.49861 -1.99714 0
M  V30 1353 N 128.595 0.856903 1.32268 0
M  V30 1354 C 129.558 0.308171 2.27119 0
M  V30 1355 C 130.558 -0.533421 1.51695 0
M  V30 1356 O 131.748 -0.344607 1.70757 0
M  V30 1357 C 128.88 -0.563757 3.36206 0
M  V30 1358 H 130.073 1.14535 2.77167 0
M  V30 1359 H 127.626 0.631421 1.42978 0
M  V30 1360 H 128.361 -1.42266 2.91429 0
M  V30 1361 H 128.146 0.0386749 3.92081 0
M  V30 1362 H 129.636 -0.940386 4.06874 0
M  V30 1363 N 130.073 -1.45103 0.615059 0
M  V30 1364 C 131.489 -1.57137 0.279322 0
M  V30 1365 C 131.689 -1.60523 -1.21797 0
M  V30 1366 O 130.745 -1.53956 -2.00134 0
M  V30 1367 C 132.058 -2.85062 0.957083 0
M  V30 1368 C 133.606 -2.98749 0.933706 0
M  V30 1369 C 134.081 -4.29455 1.59162 0
M  V30 1370 N 135.572 -4.36231 1.55746 0
M  V30 1371 C 136.307 -5.36051 2.0356 0
M  V30 1372 N 135.803 -6.42367 2.59494 0
M  V30 1373 N 137.596 -5.27456 1.94284 0
M  V30 1374 H 129.747 -1.41148 1.58717 0
M  V30 1375 H 132.01 -0.675331 0.665306 0
M  V30 1376 H 131.716 -2.88488 2.01166 0
M  V30 1377 H 131.59 -3.7407 0.48494 0
M  V30 1378 H 133.977 -2.94886 -0.112347 0
M  V30 1379 H 134.058 -2.11132 1.44419 0
M  V30 1380 H 133.702 -4.34077 2.63704 0
M  V30 1381 H 133.632 -5.15901 1.0561 0
M  V30 1382 H 136.123 -3.60011 1.14893 0
M  V30 1383 H 136.436 -7.14793 2.93752 0
M  V30 1384 H 134.781 -6.43097 2.63537 0
M  V30 1385 H 137.972 -4.43308 1.5032 0
M  V30 1386 H 138.145 -6.05099 2.3186 0
M  V30 1387 N 131.551 -0.354651 -1.53558 0
M  V30 1388 C 132.461 0.50515 -2.29097 0
M  V30 1389 C 133.477 1.10223 -1.34636 0
M  V30 1390 O 134.653 1.11553 -1.67684 0
M  V30 1391 C 131.718 1.63479 -3.05738 0
M  V30 1392 C 130.779 1.06636 -4.15845 0
M  V30 1393 C 130.012 2.14217 -4.88822 0
M  V30 1394 O 130.235 3.35137 -4.61562 0
M  V30 1395 O 129.169 1.77887 -5.75013 0
M  V30 1396 H 132.995 -0.109237 -3.03503 0
M  V30 1397 H 130.58 -0.119357 -1.48922 0
M  V30 1398 H 132.462 2.2918 -3.5363 0
M  V30 1399 H 131.137 2.23478 -2.34178 0
M  V30 1400 H 130.044 0.373565 -3.7223 0
M  V30 1401 H 131.377 0.511081 -4.89539 0
M  V30 1402 N 133.029 1.57378 -0.0835403 0
M  V30 1403 C 134.275 1.95025 0.577664 0
M  V30 1404 C 134.63 0.964049 1.66505 0
M  V30 1405 O 133.923 -0.0118235 1.91596 0
M  V30 1406 C 134.117 3.37063 1.1884 0
M  V30 1407 C 133.946 4.49409 0.16171 0
M  V30 1408 C 132.716 5.04642 -0.257756 0
M  V30 1409 C 134.914 5.10722 -0.605634 0
M  V30 1410 N 132.896 6.00537 -1.27393 0
M  V30 1411 C 134.267 6.02225 -1.47395 0
M  V30 1412 C 136.322 4.93501 -0.660418 0
M  V30 1413 C 135.025 6.78355 -2.39221 0
M  V30 1414 C 137.051 5.70283 -1.56623 0
M  V30 1415 C 136.413 6.61444 -2.4222 0
M  V30 1416 H 132.512 0.760512 0.182058 0
M  V30 1417 H 135.096 1.94013 -0.163419 0
M  V30 1418 H 133.267 3.3879 1.89936 0
M  V30 1419 H 134.999 3.61917 1.81103 0
M  V30 1420 H 131.754 4.73428 0.127702 0
M  V30 1421 H 132.178 6.53184 -1.77987 0
M  V30 1422 H 136.82 4.22798 -0.0128221 0
M  V30 1423 H 134.538 7.48327 -3.05011 0
M  V30 1424 H 138.124 5.58976 -1.61361 0
M  V30 1425 H 137.004 7.1982 -3.11174 0
M  V30 1426 N 134.507 -0.190092 1.56449 0
M  V30 1427 C 135.737 -0.92443 1.84764 0
M  V30 1428 C 136.145 -1.77146 0.664529 0
M  V30 1429 O 135.488 -1.79812 -0.375957 0
M  V30 1430 C 135.55 -1.86651 3.07248 0
M  V30 1431 C 135.214 -1.20094 4.40938 0
M  V30 1432 C 136.211 -0.575445 5.16706 0
M  V30 1433 C 133.896 -1.2033 4.87674 0
M  V30 1434 C 135.89 0.0388111 6.37388 0
M  V30 1435 C 133.577 -0.585214 6.08291 0
M  V30 1436 C 134.575 0.0347578 6.82991 0
M  V30 1437 O 134.263 0.643147 8.01323 0
M  V30 1438 H 133.995 -0.274974 0.617548 0
M  V30 1439 H 136.549 -0.200788 2.04416 0
M  V30 1440 H 134.779 -2.62998 2.83494 0
M  V30 1441 H 136.468 -2.46907 3.22167 0
M  V30 1442 H 137.234 -0.565728 4.81689 0
M  V30 1443 H 133.113 -1.67526 4.29484 0
M  V30 1444 H 136.657 0.523329 6.95634 0
M  V30 1445 H 132.554 -0.592451 6.42775 0
M  V30 1446 H 133.322 0.540545 8.16713 0
M  V30 1447 N 135.985 -1.50799 -0.457987 0
M  V30 1448 C 136.935 -1.67003 -1.55222 0
M  V30 1449 C 137.919 -0.52434 -1.52117 0
M  V30 1450 O 139.111 -0.779345 -1.58919 0
M  V30 1451 C 136.24 -1.77956 -2.93576 0
M  V30 1452 C 135.326 -2.98243 -3.01516 0
M  V30 1453 N 135.717 -4.21732 -2.79241 0
M  V30 1454 C 134.015 -2.97072 -3.32662 0
M  V30 1455 C 134.716 -5.02817 -2.92489 0
M  V30 1456 N 133.692 -4.37038 -3.23262 0
M  V30 1457 H 137.494 -2.60163 -1.36721 0
M  V30 1458 H 135.008 -1.48163 -0.664952 0
M  V30 1459 H 137.005 -1.87671 -3.72271 0
M  V30 1460 H 135.665 -0.859634 -3.13114 0
M  V30 1461 H 136.676 -4.51016 -2.54567 0
M  V30 1462 H 133.353 -2.14631 -3.58106 0
M  V30 1463 H 134.743 -6.11054 -2.79396 0
M  V30 1464 N 137.463 0.71206 -1.40597 0
M  V30 1465 C 138.395 1.83704 -1.37061 0
M  V30 1466 C 139.408 1.60453 -0.275426 0
M  V30 1467 O 140.597 1.70262 -0.53602 0
M  V30 1468 C 137.697 3.20172 -1.11099 0
M  V30 1469 C 136.87 3.7059 -2.3234 0
M  V30 1470 C 135.929 4.85681 -2.02485 0
M  V30 1471 O 134.955 4.9815 -2.75382 0
M  V30 1472 N 136.157 5.71735 -1.00497 0
M  V30 1473 H 138.922 1.87235 -2.34016 0
M  V30 1474 H 136.483 0.893739 -1.34996 0
M  V30 1475 H 138.475 3.94768 -0.891064 0
M  V30 1476 H 137.045 3.11767 -0.227989 0
M  V30 1477 H 136.265 2.87085 -2.7014 0
M  V30 1478 H 137.553 4.01011 -3.13157 0
M  V30 1479 H 136.951 5.64275 -0.401298 0
M  V30 1480 H 135.508 6.463 -0.844942 0
M  V30 1481 N 138.941 1.26152 0.944643 0
M  V30 1482 C 140.187 1.12665 1.69346 0
M  V30 1483 C 140.542 -0.3273 1.89596 0
M  V30 1484 O 139.835 -1.23717 1.46303 0
M  V30 1485 C 140.029 1.82541 3.07268 0
M  V30 1486 C 139.858 3.34582 3.00475 0
M  V30 1487 C 138.628 4.03863 3.03681 0
M  V30 1488 C 140.826 4.30828 2.80877 0
M  V30 1489 N 138.808 5.42603 2.87151 0
M  V30 1490 C 140.179 5.5672 2.7288 0
M  V30 1491 C 142.234 4.21122 2.65633 0
M  V30 1492 C 140.937 6.74013 2.51196 0
M  V30 1493 C 142.963 5.38118 2.45323 0
M  V30 1494 C 142.325 6.62955 2.38055 0
M  V30 1495 H 138.424 0.467041 0.627214 0
M  V30 1496 H 141.008 1.59391 1.11815 0
M  V30 1497 H 139.179 1.38296 3.62945 0
M  V30 1498 H 140.911 1.61708 3.70989 0
M  V30 1499 H 137.666 3.55198 3.1326 0
M  V30 1500 H 138.09 6.15443 2.82063 0
M  V30 1501 H 142.732 3.25344 2.70021 0
M  V30 1502 H 140.45 7.6989 2.4555 0
M  V30 1503 H 144.036 5.32475 2.34439 0
M  V30 1504 H 142.916 7.51959 2.22546 0
M  V30 1505 N 140.419 -1.14872 1.07899 0
M  V30 1506 C 141.665 -1.86064 0.806725 0
M  V30 1507 C 141.998 -1.82434 -0.665706 0
M  V30 1508 O 141.273 -1.25138 -1.48899 0
M  V30 1509 C 141.556 -3.34929 1.32267 0
M  V30 1510 C 141.409 -3.47161 2.86006 0
M  V30 1511 C 142.728 -4.29863 0.943717 0
M  V30 1512 H 139.847 -0.675591 0.294526 0
M  V30 1513 H 142.489 -1.34925 1.33773 0
M  V30 1514 H 140.639 -3.78611 0.870974 0
M  V30 1515 H 142.311 -3.12302 3.39507 0
M  V30 1516 H 140.554 -2.88539 3.23925 0
M  V30 1517 H 141.225 -4.51777 3.17177 0
M  V30 1518 H 143.701 -3.9417 1.33302 0
M  V30 1519 H 142.577 -5.32494 1.33198 0
M  V30 1520 H 142.838 -4.41846 -0.149796 0
M  V30 1521 N 141.898 -0.863906 -1.31812 0
M  V30 1522 C 143.128 -0.485406 -2.00817 0
M  V30 1523 C 143.536 0.925007 -1.65046 0
M  V30 1524 O 142.879 1.61653 -0.872574 0
M  V30 1525 C 142.941 -0.555589 -3.55181 0
M  V30 1526 C 142.605 -1.92654 -4.14407 0
M  V30 1527 C 143.602 -2.89324 -4.31958 0
M  V30 1528 C 141.287 -2.2262 -4.50273 0
M  V30 1529 C 143.281 -4.14108 -4.84555 0
M  V30 1530 C 140.968 -3.47654 -5.02573 0
M  V30 1531 C 141.966 -4.43214 -5.19664 0
M  V30 1532 O 141.654 -5.66033 -5.70843 0
M  V30 1533 H 141.386 -0.188224 -0.649267 0
M  V30 1534 H 143.94 -1.16514 -1.69156 0
M  V30 1535 H 142.17 0.181037 -3.86276 0
M  V30 1536 H 143.859 -0.19138 -4.05449 0
M  V30 1537 H 144.625 -2.6748 -4.04573 0
M  V30 1538 H 140.504 -1.4902 -4.3625 0
M  V30 1539 H 144.048 -4.88703 -4.9781 0
M  V30 1540 H 139.945 -3.69345 -5.29391 0
M  V30 1541 H 140.713 -5.6812 -5.89222 0
M  V30 1542 N 143.376 1.44774 -0.622745 0
M  V30 1543 C 144.623 2.02121 -0.1239 0
M  V30 1544 C 144.951 1.48915 1.25118 0
M  V30 1545 O 144.206 0.660045 1.84233 0
M  V30 1546 C 144.505 3.57364 -0.0508323 0
M  V30 1547 C 144.171 4.29787 -1.36358 0
M  V30 1548 C 142.833 4.4929 -1.72314 0
M  V30 1549 C 145.185 4.71062 -2.23048 0
M  V30 1550 C 142.513 5.07325 -2.94682 0
M  V30 1551 C 144.865 5.30452 -3.44679 0
M  V30 1552 C 143.529 5.48175 -3.80868 0
M  V30 1553 H 142.799 0.739612 -0.0453381 0
M  V30 1554 H 145.446 1.73648 -0.807389 0
M  V30 1555 H 143.751 3.85202 0.715991 0
M  V30 1556 H 145.448 3.99456 0.351533 0
M  V30 1557 H 142.038 4.14932 -1.07375 0
M  V30 1558 H 146.222 4.55715 -1.96565 0
M  V30 1559 H 141.478 5.19235 -3.22809 0
M  V30 1560 H 145.652 5.61385 -4.12092 0
M  V30 1561 H 143.279 5.92912 -4.75773 0
M  V30 1562 N 144.854 0.36279 1.53368 0
M  V30 1563 C 146.27 0.0116182 1.59596 0
M  V30 1564 C 146.47 -1.47012 1.37803 0
M  V30 1565 O 145.526 -2.23136 1.18181 0
M  V30 1566 C 146.839 0.465052 2.97082 0
M  V30 1567 C 148.387 0.419033 3.10182 0
M  V30 1568 C 148.862 0.848235 4.50077 0
M  V30 1569 N 150.353 0.803183 4.56183 0
M  V30 1570 C 151.088 1.107 5.62613 0
M  V30 1571 N 150.584 1.47996 6.76808 0
M  V30 1572 N 152.377 1.02998 5.52583 0
M  V30 1573 H 144.528 1.32775 1.65785 0
M  V30 1574 H 146.791 0.542518 0.777417 0
M  V30 1575 H 146.497 1.49892 3.18159 0
M  V30 1576 H 146.371 -0.149786 3.76902 0
M  V30 1577 H 148.758 -0.605696 2.88817 0
M  V30 1578 H 148.839 1.06933 2.32377 0
M  V30 1579 H 148.483 1.87107 4.7218 0
M  V30 1580 H 148.413 0.175218 5.26308 0
M  V30 1581 H 150.904 0.52838 3.74188 0
M  V30 1582 H 151.217 1.69613 7.53957 0
M  V30 1583 H 149.562 1.51859 6.78206 0
M  V30 1584 H 152.753 0.737817 4.62249 0
M  V30 1585 H 152.926 1.2701 6.35431 0
M  V30 1586 N 146.332 -1.57332 0.0918853 0
M  V30 1587 C 147.743 -1.81496 -0.437739 0
M  V30 1588 C 148.094 -1.00727 -1.6837 0
M  V30 1589 O 147.219 -0.235694 -2.15113 0
M  V30 1590 C 147.814 -3.29197 -0.800939 0
M  V30 1591 C 146.373 -3.54136 -1.27532 0
M  V30 1592 C 145.52 -2.75979 -0.270392 0
M  V30 1593 H 148.471 -1.55494 0.317366 0
M  V30 1594 H 148.492 -3.42344 -1.66074 0
M  V30 1595 H 148.004 -3.87955 0.106078 0
M  V30 1596 H 146.105 -3.00705 -2.20016 0
M  V30 1597 H 146.218 -4.62792 -1.23938 0
M  V30 1598 H 144.582 -2.43349 -0.751872 0
M  V30 1599 H 145.365 -3.37484 0.629248 0
M  V30 1600 N 147.81 0.181792 -1.56548 0
M  V30 1601 C 149.226 0.53316 -1.50431 0
M  V30 1602 C 149.426 1.85184 -0.794297 0
M  V30 1603 O 148.482 2.50058 -0.350318 0
M  V30 1604 C 149.795 0.575597 -2.9514 0
M  V30 1605 C 151.343 0.663519 -3.05886 0
M  V30 1606 C 151.818 0.736946 -4.52032 0
M  V30 1607 N 153.309 0.800118 -4.56237 0
M  V30 1608 C 154.044 0.877327 -5.66649 0
M  V30 1609 N 153.54 0.916016 -6.86718 0
M  V30 1610 N 155.333 0.915542 -5.54594 0
M  V30 1611 H 147.484 -0.683025 -2.01118 0
M  V30 1612 H 149.747 -0.244988 -0.915797 0
M  V30 1613 H 149.453 -0.324482 -3.502 0
M  V30 1614 H 149.327 1.42572 -3.49218 0
M  V30 1615 H 151.714 1.55403 -2.50867 0
M  V30 1616 H 151.795 -0.21307 -2.54911 0
M  V30 1617 H 151.439 -0.149262 -5.07681 0
M  V30 1618 H 151.369 1.62953 -5.00753 0
M  V30 1619 H 153.86 0.778926 -3.69785 0
M  V30 1620 H 154.173 0.975813 -7.66614 0
M  V30 1621 H 152.518 0.884469 -6.89349 0
M  V30 1622 H 155.709 0.882245 -4.59711 0
M  V30 1623 H 155.882 0.972253 -6.40665 0
M  V30 1624 N 149.288 1.51039 0.449983 0
M  V30 1625 C 150.251 1.70863 1.5277 0
M  V30 1626 C 151.251 0.578846 1.5002 0
M  V30 1627 O 152.441 0.846213 1.52266 0
M  V30 1628 C 149.573 1.75341 2.9235 0
M  V30 1629 H 150.766 2.67034 1.36502 0
M  V30 1630 H 148.319 1.40838 0.677812 0
M  V30 1631 H 149.054 0.809383 3.14037 0
M  V30 1632 H 148.839 2.57436 2.95752 0
M  V30 1633 H 150.329 1.92559 3.70555 0
M  V30 1634 N 150.766 -0.704594 1.40972 0
M  V30 1635 C 151.996 -1.49138 1.42974 0
M  V30 1636 C 152.404 -1.89175 0.0308406 0
M  V30 1637 O 151.747 -1.56734 -0.958138 0
M  V30 1638 C 151.809 -2.79016 2.26694 0
M  V30 1639 C 151.473 -2.61236 3.74973 0
M  V30 1640 C 152.47 -2.27773 4.67349 0
M  V30 1641 C 150.155 -2.77158 4.18914 0
M  V30 1642 C 152.149 -2.10457 6.01653 0
M  V30 1643 C 149.836 -2.59459 5.53285 0
M  V30 1644 C 150.834 -2.26158 6.4447 0
M  V30 1645 O 150.522 -2.08605 7.76363 0
M  V30 1646 H 150.254 -0.466443 0.489292 0
M  V30 1647 H 152.808 -0.8758 1.85793 0
M  V30 1648 H 151.038 -3.42947 1.78673 0
M  V30 1649 H 152.727 -3.40782 2.20504 0
M  V30 1650 H 153.493 -2.15095 4.34694 0
M  V30 1651 H 149.372 -3.02064 3.48251 0
M  V30 1652 H 152.916 -1.84387 6.72791 0
M  V30 1653 H 148.813 -2.71725 5.85522 0
M  V30 1654 H 149.581 -2.23439 7.87412 0
M  V30 1655 N 152.244 -1.26651 -0.937939 0
M  V30 1656 C 153.49 -1.13562 -1.68746 0
M  V30 1657 C 153.845 0.317241 -1.89767 0
M  V30 1658 O 153.138 1.22939 -1.46957 0
M  V30 1659 C 153.332 -1.84168 -3.06295 0
M  V30 1660 C 153.161 -3.36171 -2.98696 0
M  V30 1661 C 151.931 -4.05468 -3.01535 0
M  V30 1662 C 154.129 -4.32312 -2.78588 0
M  V30 1663 N 152.111 -5.44118 -2.84269 0
M  V30 1664 C 153.482 -5.58159 -2.69924 0
M  V30 1665 C 155.537 -4.22524 -2.63396 0
M  V30 1666 C 154.24 -6.75335 -2.47618 0
M  V30 1667 C 156.266 -5.39411 -2.42466 0
M  V30 1668 C 155.628 -6.64208 -2.34536 0
M  V30 1669 H 151.727 -0.470361 -0.624728 0
M  V30 1670 H 154.311 -1.59982 -1.10968 0
M  V30 1671 H 152.482 -1.40219 -3.62206 0
M  V30 1672 H 154.214 -1.63674 -3.70126 0
M  V30 1673 H 150.969 -3.56854 -3.11372 0
M  V30 1674 H 151.393 -6.1693 -2.78795 0
M  V30 1675 H 156.035 -3.26771 -2.68292 0
M  V30 1676 H 153.753 -7.71182 -2.41463 0
M  V30 1677 H 157.339 -5.33711 -2.31611 0
M  V30 1678 H 156.219 -7.53129 -2.18555 0
M  V30 1679 N 153.722 1.14298 -1.08507 0
M  V30 1680 C 154.672 2.17449 -0.685569 0
M  V30 1681 C 155.656 1.58167 0.295315 0
M  V30 1682 O 156.848 1.76675 0.107172 0
M  V30 1683 C 153.977 3.43161 -0.0975318 0
M  V30 1684 C 153.063 4.09471 -1.10426 0
M  V30 1685 N 153.454 4.51089 -2.28806 0
M  V30 1686 C 151.752 4.35976 -0.940258 0
M  V30 1687 C 152.453 5.02654 -2.9277 0
M  V30 1688 N 151.429 4.96927 -2.20374 0
M  V30 1689 H 155.231 2.47369 -1.587 0
M  V30 1690 H 152.745 1.30992 -0.959936 0
M  V30 1691 H 154.742 4.16388 0.20664 0
M  V30 1692 H 153.402 3.14719 0.798872 0
M  V30 1693 H 154.413 4.44097 -2.66455 0
M  V30 1694 H 151.09 4.17386 -0.0977441 0
M  V30 1695 H 152.48 5.44723 -3.93352 0
M  V30 1696 N 155.201 0.870884 1.31352 0
M  V30 1697 C 156.111 0.330783 2.32256 0
M  V30 1698 C 157.127 -0.559767 1.6475 0
M  V30 1699 O 158.303 -0.456263 1.96164 0
M  V30 1700 C 155.368 -0.458137 3.4366 0
M  V30 1701 C 154.429 0.460482 4.26823 0
M  V30 1702 C 153.662 -0.290881 5.32907 0
M  V30 1703 O 153.885 -1.51885 5.49806 0
M  V30 1704 O 152.819 0.351732 6.00871 0
M  V30 1705 H 156.645 1.16718 2.80376 0
M  V30 1706 H 154.23 0.634285 1.35267 0
M  V30 1707 H 156.112 -0.905343 4.1156 0
M  V30 1708 H 154.787 -1.27106 2.97701 0
M  V30 1709 H 153.694 0.956207 3.61673 0
M  V30 1710 H 155.027 1.23903 4.7635 0
M  V30 1711 N 156.679 -1.44442 0.630414 0
M  V30 1712 C 157.925 -2.02894 0.143332 0
M  V30 1713 C 158.28 -1.48697 -1.22094 0
M  V30 1714 O 157.573 -0.661171 -1.79831 0
M  V30 1715 C 157.767 -3.57332 0.0697835 0
M  V30 1716 C 157.596 -4.26512 1.42539 0
M  V30 1717 C 156.366 -4.63516 2.01198 0
M  V30 1718 C 158.564 -4.57004 2.35907 0
M  V30 1719 N 156.546 -5.17661 3.30001 0
M  V30 1720 C 157.917 -5.12223 3.49324 0
M  V30 1721 C 159.972 -4.38955 2.34995 0
M  V30 1722 C 158.675 -5.51295 4.62024 0
M  V30 1723 C 160.701 -4.79075 3.46758 0
M  V30 1724 C 160.063 -5.34407 4.58899 0
M  V30 1725 H 156.162 -0.776041 0.0963523 0
M  V30 1726 H 158.746 -1.75945 0.833752 0
M  V30 1727 H 156.917 -3.83894 -0.589915 0
M  V30 1728 H 158.649 -4.02451 -0.42606 0
M  V30 1729 H 155.404 -4.47811 1.54151 0
M  V30 1730 H 155.828 -5.4921 3.95851 0
M  V30 1731 H 160.47 -3.95469 1.49545 0
M  V30 1732 H 158.188 -5.93736 5.48182 0
M  V30 1733 H 161.774 -4.66824 3.47227 0
M  V30 1734 H 160.654 -5.64878 5.4395 0
M  V30 1735 N 158.157 -0.370918 -1.53173 0
M  V30 1736 C 159.087 0.464847 -2.28826 0
M  V30 1737 C 160.068 1.07936 -1.31468 0
M  V30 1738 O 161.253 1.0956 -1.60344 0
M  V30 1739 C 158.383 1.60196 -3.08147 0
M  V30 1740 C 157.337 1.11443 -4.13237 0
M  V30 1741 C 156.663 2.3422 -4.80672 0
M  V30 1742 C 157.963 0.195384 -5.21934 0
M  V30 1743 H 159.657 -0.166329 -2.98938 0
M  V30 1744 H 157.203 -0.0814359 -1.4377 0
M  V30 1745 H 159.156 2.19332 -3.59822 0
M  V30 1746 H 157.88 2.26045 -2.35735 0
M  V30 1747 H 156.539 0.545727 -3.62515 0
M  V30 1748 H 156.187 2.98537 -4.04827 0
M  V30 1749 H 155.887 2.02269 -5.51689 0
M  V30 1750 H 157.411 2.94032 -5.35143 0
M  V30 1751 H 158.825 0.694375 -5.69079 0
M  V30 1752 H 157.222 -0.0335027 -6.00091 0
M  V30 1753 H 158.292 -0.760961 -4.78892 0
M  V30 1754 N 159.635 1.57281 -0.100228 0
M  V30 1755 C 160.583 2.15542 0.874328 0
M  V30 1756 C 161.577 1.09962 1.28859 0
M  V30 1757 O 162.783 1.28298 1.26252 0
M  V30 1758 H 159.158 0.689567 0.300003 0
M  V30 1759 H 161.129 2.96241 0.35829 0
M  V30 1760 C 159.878 2.75454 2.1218 0
M  V30 1761 H 159.201 3.56384 1.81193 0
M  V30 1762 H 160.641 3.19781 2.78417 0
M  V30 1763 C 159.1 1.71602 2.89921 0
M  V30 1764 O 159.63 1.15804 3.84646 0
M  V30 1765 N 157.836 1.41975 2.53558 0
M  V30 1766 H 157.383 1.87539 1.76598 0
M  V30 1767 H 157.341 0.727274 3.05873 0
M  V30 1768 N 161.113 -0.173488 1.56642 0
M  V30 1769 C 162.359 -0.887108 1.83035 0
M  V30 1770 C 162.714 -1.79965 0.680461 0
M  V30 1771 O 162.007 -1.88854 -0.323225 0
M  V30 1772 C 162.201 -1.72069 3.13252 0
M  V30 1773 C 162.03 -0.89035 4.40798 0
M  V30 1774 C 160.8 -0.566282 5.02117 0
M  V30 1775 C 162.998 -0.232921 5.13772 0
M  V30 1776 N 160.98 0.280427 6.13259 0
M  V30 1777 C 162.351 0.475046 6.18177 0
M  V30 1778 C 164.406 -0.150863 4.97671 0
M  V30 1779 C 163.109 1.25729 7.08227 0
M  V30 1780 C 165.135 0.618039 5.88162 0
M  V30 1781 C 164.497 1.31438 6.92029 0
M  V30 1782 H 160.596 -0.303303 0.720785 0
M  V30 1783 H 163.18 -0.154244 1.94088 0
M  V30 1784 H 161.351 -2.42499 3.03395 0
M  V30 1785 H 163.083 -2.37545 3.2765 0
M  V30 1786 H 159.838 -0.895852 4.6505 0
M  V30 1787 H 160.262 0.694027 6.73433 0
M  V30 1788 H 164.904 -0.674868 4.17379 0
M  V30 1789 H 162.622 1.79265 7.87966 0
M  V30 1790 H 166.208 0.683173 5.77775 0
M  V30 1791 H 165.088 1.89981 7.6084 0
M  V30 1792 N 162.591 -1.51276 -0.441967 0
M  V30 1793 C 164.002 -1.56244 -1.02199 0
M  V30 1794 C 164.353 -0.383149 -1.92422 0
M  V30 1795 O 163.478 0.500613 -2.1053 0
M  V30 1796 C 164.073 -2.83162 -1.86024 0
M  V30 1797 C 162.632 -2.90716 -2.39084 0
M  V30 1798 C 161.779 -2.50858 -1.18175 0
M  V30 1799 H 164.73 -1.5712 -0.223416 0
M  V30 1800 H 164.751 -2.66663 -2.71425 0
M  V30 1801 H 164.263 -3.68974 -1.20331 0
M  V30 1802 H 162.364 -2.09323 -3.08244 0
M  V30 1803 H 162.477 -3.94266 -2.72198 0
M  V30 1804 H 160.841 -2.03951 -1.52565 0
M  V30 1805 H 161.624 -3.3901 -0.541001 0
M  V30 1806 N 164.069 0.697108 -1.41344 0
M  V30 1807 C 165.294 1.49096 -1.44171 0
M  V30 1808 C 165.719 1.88038 -0.0481568 0
M  V30 1809 O 165.077 1.54525 0.948243 0
M  V30 1810 C 165.125 2.73088 -2.3549 0
M  V30 1811 O 164.229 3.70514 -1.81088 0
M  V30 1812 H 163.57 0.448801 -0.489361 0
M  V30 1813 H 166.1 0.856992 -1.85787 0
M  V30 1814 H 166.11 3.21413 -2.51312 0
M  V30 1815 H 164.785 2.44081 -3.36745 0
M  V30 1816 H 163.362 3.29441 -1.74708 0
M  V30 1817 N 165.547 1.27147 0.931209 0
M  V30 1818 C 166.796 1.12664 1.67302 0
M  V30 1819 C 167.109 -0.327718 1.92835 0
M  V30 1820 O 168.315 -0.593392 2.64936 0
M  V30 1821 C 166.771 1.9683 3.01307 0
M  V30 1822 C 166.379 3.46901 2.83485 0
M  V30 1823 C 168.123 1.90985 3.79111 0
M  V30 1824 C 166.03 4.23279 4.13024 0
M  V30 1825 H 164.96 0.41803 0.627509 0
M  V30 1826 H 167.611 1.51539 1.03481 0
M  V30 1827 H 165.993 1.50797 3.66164 0
M  V30 1828 H 167.167 4.00773 2.27415 0
M  V30 1829 H 165.482 3.54088 2.19113 0
M  V30 1830 H 168.079 2.45328 4.75098 0
M  V30 1831 H 168.422 0.882718 4.06834 0
M  V30 1832 H 168.955 2.34895 3.21044 0
M  V30 1833 H 165.694 5.26503 3.90481 0
M  V30 1834 H 165.214 3.74186 4.6877 0
M  V30 1835 H 166.893 4.32265 4.81411 0
M  V30 1836 N 167.025 -1.13721 1.09112 0
M  V30 1837 C 168.272 -1.84924 0.825192 0
M  V30 1838 C 168.6 -1.83347 -0.649151 0
M  V30 1839 O 167.855 -1.26449 -1.49362 0
M  V30 1840 C 168.154 -3.32861 1.30146 0
M  V30 1841 C 167.82 -3.54621 2.78486 0
M  V30 1842 C 166.482 -3.60268 3.18999 0
M  V30 1843 C 168.834 -3.62855 3.74146 0
M  V30 1844 C 166.162 -3.71679 4.53951 0
M  V30 1845 C 168.514 -3.75793 5.08883 0
M  V30 1846 C 167.178 -3.79692 5.4899 0
M  V30 1847 H 166.448 -0.676684 0.301959 0
M  V30 1848 H 169.095 -1.3428 1.36533 0
M  V30 1849 H 167.4 -3.85835 0.681064 0
M  V30 1850 H 169.097 -3.86395 1.07236 0
M  V30 1851 H 165.687 -3.50879 2.46134 0
M  V30 1852 H 169.871 -3.57775 3.43963 0
M  V30 1853 H 165.127 -3.72963 4.84467 0
M  V30 1854 H 169.301 -3.81107 5.82864 0
M  V30 1855 H 166.928 -3.88287 6.53558 0
M  V30 1856 N 168.503 -0.877838 -1.30888 0
M  V30 1857 C 169.466 -0.344265 -2.266 0
M  V30 1858 C 170.466 0.50922 -1.52524 0
M  V30 1859 O 171.656 0.317398 -1.71284 0
M  V30 1860 C 168.788 0.510198 -3.37061 0
M  V30 1861 H 169.981 -1.1893 -2.7531 0
M  V30 1862 H 167.534 -0.654088 -1.41956 0
M  V30 1863 H 168.269 1.37612 -2.93655 0
M  V30 1864 H 168.054 -0.101047 -3.9197 0
M  V30 1865 H 169.544 0.875537 -4.08319 0
M  V30 1866 N 169.982 1.44106 -0.638065 0
M  V30 1867 C 170.93 2.3248 0.0748149 0
M  V30 1868 C 171.924 1.47746 0.828702 0
M  V30 1869 O 173.13 1.64049 0.740816 0
M  V30 1870 H 169.505 0.750771 0.0429686 0
M  V30 1871 H 171.476 2.90348 -0.688504 0
M  V30 1872 C 170.225 3.31843 1.03805 0
M  V30 1873 H 169.548 3.97059 0.467375 0
M  V30 1874 H 170.988 3.96345 1.50622 0
M  V30 1875 C 169.447 2.61291 2.1267 0
M  V30 1876 O 169.977 2.41702 3.20847 0
M  V30 1877 N 168.183 2.20915 1.88798 0
M  V30 1878 H 167.73 2.37047 1.00829 0
M  V30 1879 H 167.688 1.74038 2.61836 0
M  V30 1880 N 171.46 0.379036 1.52974 0
M  V30 1881 C 172.688 -0.20679 2.05864 0
M  V30 1882 C 173.103 -1.41356 1.25155 0
M  V30 1883 O 172.46 -1.8009 0.295588 0
M  V30 1884 C 172.511 -0.587045 3.56702 0
M  V30 1885 O 172.232 0.571776 4.34353 0
M  V30 1886 C 173.733 -1.22983 4.25899 0
M  V30 1887 H 170.953 -0.0336123 0.670158 0
M  V30 1888 H 173.497 0.541298 1.97206 0
M  V30 1889 H 171.652 -1.28504 3.65466 0
M  V30 1890 H 172.066 0.261544 5.23847 0
M  V30 1891 H 173.54 -1.44635 5.32715 0
M  V30 1892 H 174.017 -2.19416 3.80465 0
M  V30 1893 H 174.623 -0.572892 4.21424 0
M  V30 1894 N 172.938 -1.57226 0.108567 0
M  V30 1895 C 174.186 -1.94448 -0.550853 0
M  V30 1896 C 174.507 -0.992074 -1.67878 0
M  V30 1897 O 173.777 -0.0465 -1.95845 0
M  V30 1898 H 172.357 -0.717897 -0.206479 0
M  V30 1899 H 175.019 -1.94112 0.175062 0
M  V30 1900 H 174.115 -2.97218 -0.952259 0
M  V30 1901 N 174.416 0.165178 -1.56732 0
M  V30 1902 C 175.663 0.880807 -1.8234 0
M  V30 1903 C 175.991 1.81977 -0.686621 0
M  V30 1904 O 175.246 1.92971 0.325697 0
M  V30 1905 C 175.545 1.70405 -3.1416 0
M  V30 1906 C 175.211 0.913475 -4.4155 0
M  V30 1907 C 173.873 0.695303 -4.7615 0
M  V30 1908 C 176.225 0.359349 -5.1996 0
M  V30 1909 C 173.553 -0.0879947 -5.86634 0
M  V30 1910 C 175.905 -0.410893 -6.31264 0
M  V30 1911 C 174.569 -0.639808 -6.64427 0
M  V30 1912 H 173.839 0.32231 -0.667231 0
M  V30 1913 H 176.486 0.145402 -1.90947 0
M  V30 1914 H 174.791 2.50903 -3.00923 0
M  V30 1915 H 176.488 2.26091 -3.31186 0
M  V30 1916 H 173.078 1.09357 -4.14414 0
M  V30 1917 H 177.262 0.515228 -4.93618 0
M  V30 1918 H 172.518 -0.27503 -6.10781 0
M  V30 1919 H 176.692 -0.847494 -6.91224 0
M  V30 1920 H 174.319 -1.24864 -7.49875 0
M  V30 1921 N 175.894 1.51508 0.433938 0
M  V30 1922 C 177.141 1.64345 1.18309 0
M  V30 1923 C 177.469 0.361315 1.91115 0
M  V30 1924 O 176.724 -0.654753 1.84422 0
M  V30 1925 C 177.023 2.79928 2.22205 0
M  V30 1926 C 176.689 4.19078 1.66387 0
M  V30 1927 C 175.351 4.56932 1.50887 0
M  V30 1928 C 177.703 5.05894 1.25381 0
M  V30 1929 C 175.031 5.79305 0.928608 0
M  V30 1930 C 177.383 6.2885 0.687823 0
M  V30 1931 C 176.047 6.65473 0.519755 0
M  V30 1932 H 175.317 0.601381 0.432923 0
M  V30 1933 H 177.964 1.85549 0.473676 0
M  V30 1934 H 176.269 2.52959 2.99197 0
M  V30 1935 H 177.966 2.87059 2.79997 0
M  V30 1936 H 174.556 3.89234 1.79428 0
M  V30 1937 H 178.74 4.77253 1.36175 0
M  V30 1938 H 173.996 6.06324 0.786186 0
M  V30 1939 H 178.17 6.95461 0.361581 0
M  V30 1940 H 175.797 7.6017 0.0679979 0
M  V30 1941 N 177.372 -0.689602 1.41712 0
M  V30 1942 C 178.788 -1.00093 1.24312 0
M  V30 1943 C 178.988 -2.01036 0.136729 0
M  V30 1944 O 178.044 -2.47562 -0.496918 0
M  V30 1945 C 179.357 -1.51985 2.59463 0
M  V30 1946 C 180.905 -1.63838 2.66695 0
M  V30 1947 C 181.38 -2.1913 4.02177 0
M  V30 1948 N 182.871 -2.26483 4.04054 0
M  V30 1949 C 183.606 -2.70306 5.0569 0
M  V30 1950 N 183.102 -3.13691 6.17713 0
M  V30 1951 N 184.895 -2.69923 4.9305 0
M  V30 1952 H 177.046 -0.0210029 2.1239 0
M  V30 1953 H 179.309 -0.0718733 0.945272 0
M  V30 1954 H 179.015 -0.85269 3.41207 0
M  V30 1955 H 178.889 -2.50103 2.82362 0
M  V30 1956 H 181.276 -2.29664 1.85306 0
M  V30 1957 H 181.357 -0.642492 2.476 0
M  V30 1958 H 181.001 -1.53918 4.84016 0
M  V30 1959 H 180.931 -3.19482 4.18615 0
M  V30 1960 H 183.422 -1.95874 3.23174 0
M  V30 1961 H 183.735 -3.45773 6.9113 0
M  V30 1962 H 182.08 -3.11585 6.21241 0
M  V30 1963 H 185.271 -2.35382 4.04614 0
M  V30 1964 H 185.444 -3.03758 5.72394 0
M  V30 1965 N 178.85 -1.27639 -0.924453 0
M  V30 1966 C 180.261 -1.12834 -1.48746 0
M  V30 1967 C 180.612 0.285505 -1.94112 0
M  V30 1968 O 179.737 1.17874 -1.81479 0
M  V30 1969 C 180.332 -2.04217 -2.70334 0
M  V30 1970 C 178.891 -1.93509 -3.22848 0
M  V30 1971 C 178.038 -1.96583 -1.95577 0
M  V30 1972 H 180.989 -1.40484 -0.738233 0
M  V30 1973 H 181.01 -1.59989 -3.4523 0
M  V30 1974 H 180.522 -3.07111 -2.37285 0
M  V30 1975 H 178.623 -0.936131 -3.60649 0
M  V30 1976 H 178.736 -2.79917 -3.88823 0
M  V30 1977 H 177.1 -1.4085 -2.12211 0
M  V30 1978 H 177.883 -3.01137 -1.64837 0
M  V30 1979 N 180.328 1.1314 -1.09713 0
M  V30 1980 C 181.605 1.80762 -0.747302 0
M  V30 1981 C 181.985 1.96663 0.767265 0
M  V30 1982 O 181.333 1.53706 1.69076 0
M  V30 1983 C 181.543 3.15606 -1.48975 0
M  V30 1984 C 182.891 3.90914 -1.65746 0
M  V30 1985 O 183.915 3.25239 -1.45251 0
M  V30 1986 O 182.774 5.08718 -1.9967 0
M  V30 1987 H 179.868 0.782103 -0.268782 0
M  V30 1988 H 182.414 1.20041 -1.19951 0
M  V30 1989 H 181.186 2.99278 -2.52088 0
M  V30 1990 H 180.809 3.84029 -1.02991 0
M  V30 1991 N 181.806 0.884767 1.30421 0
M  V30 1992 C 182.716 0.355398 2.31892 0
M  V30 1993 C 183.732 -0.542261 1.65335 0
M  V30 1994 O 184.908 -0.435432 1.96637 0
M  V30 1995 C 181.973 -0.421661 3.44126 0
M  V30 1996 C 181.034 0.505727 4.26311 0
M  V30 1997 C 180.267 -0.234343 5.33185 0
M  V30 1998 O 180.49 -1.46045 5.51386 0
M  V30 1999 O 179.424 0.415443 6.00465 0
M  V30 2000 H 183.25 1.19685 2.79122 0
M  V30 2001 H 180.835 0.648596 1.34587 0
M  V30 2002 H 182.717 -0.861641 4.12497 0
M  V30 2003 H 181.392 -1.23942 2.99032 0
M  V30 2004 H 180.299 0.994513 3.60639 0
M  V30 2005 H 181.632 1.28948 4.75009 0
M  V30 2006 N 183.284 -1.43765 0.645699 0
M  V30 2007 C 184.247 -2.29163 -0.0409488 0
M  V30 2008 C 185.247 -1.41813 -0.757996 0
M  V30 2009 O 186.437 -1.63527 -0.600382 0
M  V30 2010 C 183.569 -3.23716 -1.06869 0
M  V30 2011 H 184.762 -2.91366 0.710345 0
M  V30 2012 H 182.315 -1.5092 0.406547 0
M  V30 2013 H 183.05 -2.66393 -1.84947 0
M  V30 2014 H 182.835 -3.88105 -0.558277 0
M  V30 2015 H 184.325 -3.87831 -1.54845 0
M  V30 2016 N 184.763 -0.387143 -1.52771 0
M  V30 2017 C 185.713 0.465942 -2.23188 0
M  V30 2018 C 186.697 1.03138 -1.23496 0
M  V30 2019 O 187.889 0.957845 -1.48843 0
M  V30 2020 C 185.018 1.59384 -3.04059 0
M  V30 2021 C 184.104 1.04024 -4.11144 0
M  V30 2022 N 184.495 0.211416 -5.05358 0
M  V30 2023 C 182.793 1.31295 -4.26237 0
M  V30 2024 C 183.494 -0.0941698 -5.81624 0
M  V30 2025 N 182.47 0.509207 -5.4121 0
M  V30 2026 H 186.272 -0.173856 -2.93385 0
M  V30 2027 H 183.786 -0.19633 -1.61209 0
M  V30 2028 H 185.783 2.21738 -3.53041 0
M  V30 2029 H 184.443 2.23648 -2.35397 0
M  V30 2030 H 185.454 -0.151151 -5.17679 0
M  V30 2031 H 182.131 1.95679 -3.68803 0
M  V30 2032 H 183.521 -0.765572 -6.67524 0
M  V30 2033 N 186.241 1.57166 -0.116904 0
M  V30 2034 C 187.173 2.12271 0.864507 0
M  V30 2035 C 188.186 1.06494 1.23138 0
M  V30 2036 O 189.375 1.33873 1.18069 0
M  V30 2037 C 186.475 2.60564 2.16702 0
M  V30 2038 C 185.648 3.90416 1.97216 0
M  V30 2039 C 184.707 4.24329 3.11178 0
M  V30 2040 O 183.733 4.93182 2.84184 0
M  V30 2041 N 184.935 3.8148 4.37554 0
M  V30 2042 H 187.7 2.97102 0.393726 0
M  V30 2043 H 185.261 1.61759 0.0675805 0
M  V30 2044 H 187.253 2.80282 2.91932 0
M  V30 2045 H 185.823 1.80623 2.55135 0
M  V30 2046 H 185.043 3.79627 1.06192 0
M  V30 2047 H 186.331 4.75327 1.81499 0
M  V30 2048 H 185.729 3.25943 4.62361 0
M  V30 2049 H 184.286 4.06311 5.09661 0
M  V30 2050 N 187.719 -0.156864 1.56817 0
M  V30 2051 C 189.13 -0.717916 1.72345 0
M  V30 2052 C 189.481 -1.82124 0.729747 0
M  V30 2053 O 188.606 -2.16141 -0.105781 0
M  V30 2054 C 189.201 -1.30904 3.12489 0
M  V30 2055 C 187.76 -1.81676 3.29653 0
M  V30 2056 C 186.907 -0.701349 2.68284 0
M  V30 2057 H 189.858 0.0686989 1.58551 0
M  V30 2058 H 189.879 -2.17882 3.11942 0
M  V30 2059 H 189.391 -0.505796 3.8479 0
M  V30 2060 H 187.492 -2.64598 2.62333 0
M  V30 2061 H 187.605 -1.95226 4.3752 0
M  V30 2062 H 185.969 -1.12548 2.28484 0
M  V30 2063 H 186.752 0.0902846 3.43181 0
M  V30 2064 N 189.197 -1.51736 -0.425897 0
M  V30 2065 C 190.147 -1.70258 -1.51645 0
M  V30 2066 C 191.131 -0.556488 -1.5097 0
M  V30 2067 O 192.323 -0.812879 -1.5723 0
M  V30 2068 C 189.452 -1.84143 -2.89735 0
M  V30 2069 C 188.538 -3.04572 -2.95122 0
M  V30 2070 N 188.929 -4.2756 -2.70233 0
M  V30 2071 C 187.227 -3.04061 -3.26286 0
M  V30 2072 C 187.928 -5.08908 -2.81757 0
M  V30 2073 N 186.904 -4.43797 -3.13919 0
M  V30 2074 H 190.706 -2.63004 -1.31172 0
M  V30 2075 H 188.22 -1.4954 -0.633375 0
M  V30 2076 H 190.217 -1.95525 -3.68206 0
M  V30 2077 H 188.877 -0.925857 -3.1122 0
M  V30 2078 H 189.888 -4.56315 -2.44943 0
M  V30 2079 H 186.565 -2.22179 -3.53473 0
M  V30 2080 H 187.955 -6.16843 -2.66372 0
M  V30 2081 N 190.675 0.682077 -1.42076 0
M  V30 2082 C 191.922 1.44215 -1.42156 0
M  V30 2083 C 192.25 1.94468 -0.0354186 0
M  V30 2084 O 191.505 1.70816 0.955002 0
M  V30 2085 C 191.804 2.66036 -2.38662 0
M  V30 2086 C 191.47 2.34366 -3.85206 0
M  V30 2087 C 190.132 2.25439 -4.25124 0
M  V30 2088 C 192.484 2.08513 -4.77673 0
M  V30 2089 C 189.812 1.88775 -5.55501 0
M  V30 2090 C 192.164 1.73354 -6.08384 0
M  V30 2091 C 190.828 1.62933 -6.47309 0
M  V30 2092 H 190.098 0.527718 -0.520187 0
M  V30 2093 H 192.745 0.778387 -1.74967 0
M  V30 2094 H 191.05 3.3741 -1.99152 0
M  V30 2095 H 192.747 3.24205 -2.35991 0
M  V30 2096 H 189.337 2.42213 -3.53597 0
M  V30 2097 H 193.521 2.14346 -4.47626 0
M  V30 2098 H 188.777 1.7927 -5.84527 0
M  V30 2099 H 192.951 1.52373 -6.79526 0
M  V30 2100 H 190.578 1.34292 -7.48244 0
M  V30 2101 N 192.153 1.28127 0.917671 0
M  V30 2102 C 193.378 1.18007 1.70555 0
M  V30 2103 C 193.803 -0.258257 1.86319 0
M  V30 2104 O 193.161 -1.1869 1.37049 0
M  V30 2105 C 193.209 1.87948 3.07746 0
M  V30 2106 O 192.313 1.18427 3.9503 0
M  V30 2107 H 191.654 0.409867 0.522403 0
M  V30 2108 H 194.184 1.69379 1.1477 0
M  V30 2109 H 194.194 1.95701 3.58001 0
M  V30 2110 H 192.869 2.92573 2.95591 0
M  V30 2111 H 191.446 1.18811 3.53466 0
M  V30 2112 N 193.631 -1.12557 1.10312 0
M  V30 2113 C 194.908 -1.80363 0.756878 0
M  V30 2114 C 195.288 -1.97067 -0.756824 0
M  V30 2115 O 194.636 -1.54601 -1.68259 0
M  V30 2116 C 194.846 -3.14812 1.50647 0
M  V30 2117 C 196.194 -3.90029 1.67817 0
M  V30 2118 O 197.218 -3.24464 1.46974 0
M  V30 2119 O 196.077 -5.07652 2.02365 0
M  V30 2120 H 193.171 -0.780667 0.272926 0
M  V30 2121 H 195.717 -1.19404 1.20586 0
M  V30 2122 H 194.489 -2.97936 2.53672 0
M  V30 2123 H 194.112 -3.83478 1.05026 0
M  V30 2124 N 195.109 -0.891671 -1.2995 0
M  V30 2125 C 196.039 -0.379797 -2.30391 0
M  V30 2126 C 197.02 0.540919 -1.6127 0
M  V30 2127 O 198.205 0.453352 -1.88834 0
M  V30 2128 C 195.335 0.400654 -3.44981 0
M  V30 2129 C 194.289 -0.428905 -4.25846 0
M  V30 2130 C 193.615 0.478557 -5.32554 0
M  V30 2131 C 194.915 -1.67458 -4.94727 0
M  V30 2132 H 196.609 -1.21914 -2.73454 0
M  V30 2133 H 194.155 -0.587675 -1.31462 0
M  V30 2134 H 196.108 0.769434 -4.14316 0
M  V30 2135 H 194.832 1.27371 -3.0074 0
M  V30 2136 H 193.491 -0.779911 -3.58208 0
M  V30 2137 H 193.139 1.34951 -4.84559 0
M  V30 2138 H 192.839 -0.0727433 -5.87555 0
M  V30 2139 H 194.363 0.843705 -6.04743 0
M  V30 2140 H 195.777 -1.376 -5.56542 0
M  V30 2141 H 194.174 -2.16659 -5.59624 0
M  V30 2142 H 195.244 -2.41518 -4.20473 0
M  V30 2143 N 196.587 1.43421 -0.653314 0
M  V30 2144 C 197.834 2.01812 -0.166745 0
M  V30 2145 C 198.162 1.51535 1.21931 0
M  V30 2146 O 197.417 0.698975 1.82792 0
M  V30 2147 C 197.716 3.57176 -0.126623 0
M  V30 2148 C 197.382 4.26798 -1.45444 0
M  V30 2149 C 196.044 4.45534 -1.81805 0
M  V30 2150 C 198.396 4.66225 -2.32989 0
M  V30 2151 C 195.724 5.00961 -3.05377 0
M  V30 2152 C 198.076 5.23021 -3.55853 0
M  V30 2153 C 196.74 5.39973 -3.9241 0
M  V30 2154 H 196.01 0.738484 -0.0610162 0
M  V30 2155 H 198.657 1.71896 -0.84404 0
M  V30 2156 H 196.962 3.86634 0.634123 0
M  V30 2157 H 198.659 4.00112 0.266723 0
M  V30 2158 H 195.249 4.12561 -1.16153 0
M  V30 2159 H 199.433 4.51443 -2.06187 0
M  V30 2160 H 194.689 5.12271 -3.3375 0
M  V30 2161 H 198.863 5.52518 -4.23907 0
M  V30 2162 H 196.49 5.82687 -4.88242 0
M  V30 2163 N 198.065 0.39524 1.52563 0
M  V30 2164 C 199.313 -0.184678 2.01254 0
M  V30 2165 C 199.634 -1.46822 1.28329 0
M  V30 2166 O 198.904 -1.91666 0.405094 0
M  V30 2167 H 197.484 -0.0712355 0.743596 0
M  V30 2168 H 200.146 0.528293 1.87603 0
M  V30 2169 H 199.242 -0.390681 3.09645 0
M  V30 2170 N 199.544 -1.57102 0.125237 0
M  V30 2171 C 200.476 -2.12726 -0.853237 0
M  V30 2172 C 201.489 -1.07145 -1.22571 0
M  V30 2173 O 202.678 -1.34497 -1.17358 0
M  V30 2174 C 199.778 -2.61709 -2.15317 0
M  V30 2175 C 198.951 -3.91456 -1.95143 0
M  V30 2176 C 198.01 -4.25973 -3.08923 0
M  V30 2177 O 197.036 -4.94682 -2.81564 0
M  V30 2178 N 198.238 -3.83795 -4.35524 0
M  V30 2179 H 201.003 -2.97307 -0.377964 0
M  V30 2180 H 198.564 -1.61792 -0.0590011 0
M  V30 2181 H 200.556 -2.81826 -2.90441 0
M  V30 2182 H 199.126 -1.81974 -2.54174 0
M  V30 2183 H 198.346 -3.80185 -1.04177 0
M  V30 2184 H 199.634 -4.76283 -1.78976 0
M  V30 2185 H 199.032 -3.2839 -4.60626 0
M  V30 2186 H 197.589 -4.09008 -5.07499 0
M  V30 2187 N 201.022 0.148545 -1.56898 0
M  V30 2188 C 202.271 0.85984 -1.82454 0
M  V30 2189 C 202.584 1.82406 -0.706229 0
M  V30 2190 O 203.79 2.57938 -0.847349 0
M  V30 2191 C 202.246 1.57967 -3.2338 0
M  V30 2192 C 201.854 0.65794 -4.43142 0
M  V30 2193 C 203.598 2.27784 -3.58211 0
M  V30 2194 C 201.505 1.3793 -5.75091 0
M  V30 2195 H 200.435 0.324834 -0.68044 0
M  V30 2196 H 203.086 0.112588 -1.83154 0
M  V30 2197 H 201.468 2.37249 -3.17063 0
M  V30 2198 H 202.642 -0.0995497 -4.60692 0
M  V30 2199 H 200.957 0.0682643 -4.16344 0
M  V30 2200 H 203.554 2.8239 -4.54048 0
M  V30 2201 H 203.897 3.04204 -2.84193 0
M  V30 2202 H 204.43 1.55421 -3.66182 0
M  V30 2203 H 201.169 0.656982 -6.52199 0
M  V30 2204 H 200.689 2.10954 -5.61479 0
M  V30 2205 H 202.368 1.92063 -6.17835 0
M  V30 2206 N 202.5 1.5196 0.417844 0
M  V30 2207 C 203.749 1.6482 1.16264 0
M  V30 2208 C 204.062 0.379886 1.91876 0
M  V30 2209 O 205.268 0.388154 2.68711 0
M  V30 2210 C 203.724 2.91161 2.1155 0
M  V30 2211 C 203.332 4.25068 1.41495 0
M  V30 2212 C 205.076 3.13383 2.86341 0
M  V30 2213 C 202.983 5.42541 2.35379 0
M  V30 2214 H 201.913 0.613954 0.437694 0
M  V30 2215 H 204.564 1.78442 0.427871 0
M  V30 2216 H 202.946 2.71218 2.88543 0
M  V30 2217 H 204.12 4.55463 0.699263 0
M  V30 2218 H 202.435 4.0888 0.787792 0
M  V30 2219 H 205.032 3.98324 3.5671 0
M  V30 2220 H 205.375 2.27256 3.48798 0
M  V30 2221 H 205.908 3.33757 2.1645 0
M  V30 2222 H 202.647 6.30987 1.77582 0
M  V30 2223 H 202.167 5.16497 3.04945 0
M  V30 2224 H 203.846 5.75272 2.96093 0
M  V30 2225 N 203.978 -0.674533 1.42435 0
M  V30 2226 C 204.926 -1.80934 1.46169 0
M  V30 2227 C 205.92 -1.66006 0.3374 0
M  V30 2228 O 207.126 -1.72611 0.510425 0
M  V30 2229 H 203.501 -0.596594 0.457798 0
M  V30 2230 H 205.472 -1.74903 2.41767 0
M  V30 2231 C 204.221 -3.19088 1.38123 0
M  V30 2232 H 203.544 -3.31203 2.23931 0
M  V30 2233 H 204.984 -3.9851 1.44797 0
M  V30 2234 C 203.443 -3.36763 0.0960517 0
M  V30 2235 O 203.973 -3.92581 -0.851073 0
M  V30 2236 N 202.179 -2.90597 0.0131186 0
M  V30 2237 H 201.726 -2.45359 0.784639 0
M  V30 2238 H 201.684 -3.028 -0.846133 0
M  V30 2239 N 205.456 -1.28612 -0.910864 0
M  V30 2240 C 206.419 -1.12803 -1.9952 0
M  V30 2241 C 207.419 -0.0668264 -1.60661 0
M  V30 2242 O 208.609 -0.312847 -1.71368 0
M  V30 2243 C 205.741 -0.72254 -3.33155 0
M  V30 2244 H 206.934 -2.09109 -2.14973 0
M  V30 2245 H 204.487 -1.11639 -1.09391 0
M  V30 2246 H 205.222 0.241152 -3.23402 0
M  V30 2247 H 205.007 -1.48916 -3.62721 0
M  V30 2248 H 206.497 -0.634666 -4.12749 0
M  V30 2249 N 206.934 1.1197 -1.10907 0
M  V30 2250 C 208.182 1.83225 -0.852819 0
M  V30 2251 C 208.503 1.84769 0.623341 0
M  V30 2252 O 207.773 1.3143 1.45269 0
M  V30 2253 H 206.353 0.67849 -0.312507 0
M  V30 2254 H 209.015 1.3556 -1.40033 0
M  V30 2255 H 208.111 2.87265 -1.22005 0
M  V30 2256 N 208.412 0.89855 1.29475 0
M  V30 2257 C 209.344 0.332726 2.26772 0
M  V30 2258 C 210.357 -0.520323 1.54261 0
M  V30 2259 O 211.546 -0.337668 1.75277 0
M  V30 2260 C 208.646 -0.544334 3.345 0
M  V30 2261 C 207.819 0.282728 4.36485 0
M  V30 2262 C 206.878 -0.526982 5.23555 0
M  V30 2263 O 205.904 0.0551165 5.69173 0
M  V30 2264 N 207.106 -1.83331 5.5079 0
M  V30 2265 H 209.871 1.16897 2.75962 0
M  V30 2266 H 207.432 0.762919 1.42798 0
M  V30 2267 H 209.424 -1.09239 3.89678 0
M  V30 2268 H 207.994 -1.28127 2.85136 0
M  V30 2269 H 207.214 1.01221 3.80983 0
M  V30 2270 H 208.502 0.84918 5.01664 0
M  V30 2271 H 207.9 -2.32898 5.15534 0
M  V30 2272 H 206.457 -2.32852 6.08788 0
M  V30 2273 N 209.89 -1.43072 0.660911 0
M  V30 2274 C 211.138 -2.01323 0.177094 0
M  V30 2275 C 211.459 -1.5245 -1.2159 0
M  V30 2276 O 210.729 -0.740322 -1.81373 0
M  V30 2277 H 209.309 -0.744382 0.0624804 0
M  V30 2278 H 211.971 -1.75179 0.854305 0
M  V30 2279 H 211.067 -3.11649 0.167641 0
M  V30 2280 N 211.368 -0.403325 -1.52352 0
M  V30 2281 C 212.278 0.432009 -2.30588 0
M  V30 2282 C 213.294 1.05884 -1.38075 0
M  V30 2283 O 214.47 1.06161 -1.71148 0
M  V30 2284 C 211.535 1.53669 -3.10784 0
M  V30 2285 C 210.596 0.933525 -4.19027 0
M  V30 2286 C 209.829 1.98557 -4.9539 0
M  V30 2287 O 210.052 3.20283 -4.71991 0
M  V30 2288 O 208.986 1.59504 -5.80381 0
M  V30 2289 H 212.812 -0.205739 -3.03002 0
M  V30 2290 H 210.397 -0.166675 -1.48467 0
M  V30 2291 H 212.279 2.17814 -3.60742 0
M  V30 2292 H 210.954 2.15915 -2.41169 0
M  V30 2293 H 209.861 0.254954 -3.7323 0
M  V30 2294 H 211.194 0.35508 -4.90918 0
M  V30 2295 N 212.846 1.57033 -0.133567 0
M  V30 2296 C 214.094 1.953 0.519848 0
M  V30 2297 C 214.415 1.01866 1.66278 0
M  V30 2298 O 213.685 0.0776513 1.95746 0
M  V30 2299 H 212.265 0.721091 0.195032 0
M  V30 2300 H 214.927 1.93809 -0.205921 0
M  V30 2301 H 214.023 2.98695 0.904854 0
M  V30 2302 N 214.325 -0.140222 1.56975 0
M  V30 2303 C 215.741 -0.493088 1.51792 0
M  V30 2304 C 215.941 -1.83013 0.843116 0
M  V30 2305 O 214.997 -2.49041 0.416493 0
M  V30 2306 C 216.31 -0.497144 2.96562 0
M  V30 2307 C 217.858 -0.582186 3.07538 0
M  V30 2308 C 218.333 -0.616838 4.53827 0
M  V30 2309 N 219.824 -0.678873 4.58198 0
M  V30 2310 C 220.559 -0.726782 5.68775 0
M  V30 2311 N 220.055 -0.733623 6.88905 0
M  V30 2312 N 221.848 -0.768179 5.56826 0
M  V30 2313 H 213.999 0.736108 1.99237 0
M  V30 2314 H 216.262 0.269182 0.90898 0
M  V30 2315 H 215.968 0.417217 3.49217 0
M  V30 2316 H 215.842 -1.33263 3.52875 0
M  V30 2317 H 218.229 -1.48697 2.54899 0
M  V30 2318 H 218.31 0.280581 2.54257 0
M  V30 2319 H 217.954 0.283812 5.07106 0
M  V30 2320 H 217.884 -1.49619 5.04898 0
M  V30 2321 H 220.375 -0.68061 3.7172 0
M  V30 2322 H 220.688 -0.772215 7.68932 0
M  V30 2323 H 219.033 -0.701389 6.91452 0
M  V30 2324 H 222.224 -0.760051 4.61888 0
M  V30 2325 H 222.397 -0.80205 6.43017 0
M  V30 2326 N 215.803 -1.52179 -0.40978 0
M  V30 2327 C 217.033 -1.69807 -1.17682 0
M  V30 2328 C 217.441 -0.406908 -1.84773 0
M  V30 2329 O 216.784 0.626863 -1.72673 0
M  V30 2330 C 216.846 -2.77712 -2.2829 0
M  V30 2331 C 216.51 -4.19481 -1.81341 0
M  V30 2332 C 217.507 -5.03345 -1.30154 0
M  V30 2333 C 215.192 -4.65713 -1.88194 0
M  V30 2334 C 217.186 -6.31511 -0.864416 0
M  V30 2335 C 214.873 -5.93869 -1.44093 0
M  V30 2336 C 215.871 -6.76597 -0.933023 0
M  V30 2337 O 215.559 -8.02354 -0.49838 0
M  V30 2338 H 215.291 -0.572372 -0.359675 0
M  V30 2339 H 217.845 -1.99511 -0.488311 0
M  V30 2340 H 216.075 -2.43383 -3.00502 0
M  V30 2341 H 217.764 -2.83946 -2.90051 0
M  V30 2342 H 218.53 -4.68819 -1.24232 0
M  V30 2343 H 214.409 -4.01424 -2.26671 0
M  V30 2344 H 217.953 -6.96033 -0.467286 0
M  V30 2345 H 213.85 -6.27903 -1.49694 0
M  V30 2346 H 214.618 -8.16135 -0.621747 0
M  V30 2347 N 217.281 0.66697 -1.42791 0
M  V30 2348 C 218.506 1.46004 -1.47301 0
M  V30 2349 C 218.931 1.87894 -0.0880317 0
M  V30 2350 O 218.289 1.56502 0.915253 0
M  V30 2351 C 218.337 2.68031 -2.41229 0
M  V30 2352 O 217.441 3.6659 -1.88906 0
M  V30 2353 H 216.782 0.43832 -0.49877 0
M  V30 2354 H 219.312 0.817391 -1.87563 0
M  V30 2355 H 219.322 3.1601 -2.58073 0
M  V30 2356 H 217.997 2.36883 -3.41847 0
M  V30 2357 H 216.574 3.25661 -1.81656 0
M  V30 2358 N 218.759 1.29093 0.90403 0
M  V30 2359 C 219.669 1.15727 2.0407 0
M  V30 2360 C 220.685 0.0815308 1.73809 0
M  V30 2361 O 221.861 0.292749 1.99261 0
M  V30 2362 C 218.926 0.830424 3.36608 0
M  V30 2363 C 217.987 1.98955 3.80415 0
M  V30 2364 C 217.22 1.6782 5.06628 0
M  V30 2365 O 217.443 0.597105 5.67266 0
M  V30 2366 O 216.377 2.52486 5.46383 0
M  V30 2367 H 220.203 2.11171 2.18267 0
M  V30 2368 H 217.788 1.08504 1.027 0
M  V30 2369 H 219.67 0.662521 4.16159 0
M  V30 2370 H 218.345 -0.0942678 3.23563 0
M  V30 2371 H 217.252 2.21267 3.01648 0
M  V30 2372 H 218.585 2.89529 3.98037 0
M  V30 2373 N 220.237 -1.11381 1.11499 0
M  V30 2374 C 221.167 -2.19509 0.796125 0
M  V30 2375 C 222.148 -1.68458 -0.235796 0
M  V30 2376 O 223.333 -1.93947 -0.0991344 0
M  V30 2377 C 220.463 -3.46475 0.239205 0
M  V30 2378 C 219.417 -4.10744 1.20307 0
M  V30 2379 C 218.743 -5.32293 0.50683 0
M  V30 2380 C 220.043 -4.55597 2.55399 0
M  V30 2381 H 221.737 -2.46439 1.70024 0
M  V30 2382 H 219.283 -1.18446 0.818935 0
M  V30 2383 H 221.236 -4.214 0.00392006 0
M  V30 2384 H 219.96 -3.19006 -0.700206 0
M  V30 2385 H 218.619 -3.37813 1.42399 0
M  V30 2386 H 218.267 -5.01095 -0.437408 0
M  V30 2387 H 217.967 -5.76243 1.1497 0
M  V30 2388 H 219.491 -6.09956 0.280351 0
M  V30 2389 H 220.905 -5.21841 2.37391 0
M  V30 2390 H 219.302 -5.10363 3.15673 0
M  V30 2391 H 220.372 -3.69013 3.14575 0
M  V30 2392 N 221.715 -0.905404 -1.28997 0
M  V30 2393 C 222.645 -0.404212 -2.29975 0
M  V30 2394 C 223.626 0.523784 -1.61835 0
M  V30 2395 O 224.811 0.433298 -1.89304 0
M  V30 2396 C 221.941 0.364042 -3.45387 0
M  V30 2397 C 220.895 -0.474048 -4.25367 0
M  V30 2398 C 220.221 0.422045 -5.33032 0
M  V30 2399 C 221.521 -1.72696 -4.92923 0
M  V30 2400 H 223.215 -1.24807 -2.72146 0
M  V30 2401 H 220.761 -0.601585 -1.30832 0
M  V30 2402 H 222.714 0.725447 -4.15109 0
M  V30 2403 H 221.438 1.24174 -3.02074 0
M  V30 2404 H 220.097 -0.81786 -3.57361 0
M  V30 2405 H 219.745 1.29804 -4.85963 0
M  V30 2406 H 219.445 -0.135057 -5.87445 0
M  V30 2407 H 220.969 0.779517 -6.05604 0
M  V30 2408 H 222.383 -1.43495 -5.55051 0
M  V30 2409 H 220.78 -2.22582 -5.57295 0
M  V30 2410 H 221.85 -2.45964 -4.17887 0
M  V30 2411 N 223.193 1.4272 -0.668489 0
M  V30 2412 C 224.156 2.292 0.00448567 0
M  V30 2413 C 225.156 1.43001 0.735339 0
M  V30 2414 O 226.346 1.64461 0.57429 0
M  V30 2415 C 223.478 3.25375 1.01705 0
M  V30 2416 H 224.671 2.90199 -0.756608 0
M  V30 2417 H 222.224 1.50254 -0.430506 0
M  V30 2418 H 222.959 2.69301 1.80686 0
M  V30 2419 H 222.744 3.88944 0.496463 0
M  V30 2420 H 224.234 3.90245 1.48655 0
M  V30 2421 N 224.671 0.411399 1.52136 0
M  V30 2422 C 225.92 -0.165009 2.01024 0
M  V30 2423 C 226.233 -1.4603 1.30133 0
M  V30 2424 O 227.439 -2.1181 1.69849 0
M  V30 2425 C 225.895 -0.344618 3.58246 0
M  V30 2426 C 225.503 0.938716 4.38055 0
M  V30 2427 C 227.247 -0.876195 4.15359 0
M  V30 2428 C 225.154 0.726172 5.86925 0
M  V30 2429 H 224.084 -0.0654407 0.751155 0
M  V30 2430 H 226.735 0.537192 1.75461 0
M  V30 2431 H 225.117 -1.10921 3.80148 0
M  V30 2432 H 226.291 1.70963 4.27912 0
M  V30 2433 H 224.606 1.39688 3.92271 0
M  V30 2434 H 227.203 -1.05128 5.24263 0
M  V30 2435 H 227.546 -1.85152 3.7286 0
M  V30 2436 H 228.079 -0.170607 3.97434 0
M  V30 2437 H 224.818 1.67312 6.33788 0
M  V30 2438 H 224.338 -0.00540283 5.998 0
M  V30 2439 H 226.017 0.369231 6.45946 0
M  V30 2440 N 226.149 -1.5696 0.141893 0
M  V30 2441 C 227.097 -2.17784 -0.816874 0
M  V30 2442 C 228.091 -1.1334 -1.25899 0
M  V30 2443 O 229.297 -1.316 -1.22806 0
M  V30 2444 H 225.672 -0.697278 -0.281615 0
M  V30 2445 H 227.643 -2.97087 -0.279621 0
M  V30 2446 C 226.392 -2.80983 -2.04802 0
M  V30 2447 H 225.715 -3.61062 -1.7168 0
M  V30 2448 H 227.155 -3.2705 -2.69841 0
M  V30 2449 C 225.614 -1.79228 -2.8527 0
M  V30 2450 O 226.144 -1.25962 -3.8144 0
M  V30 2451 N 224.35 -1.48647 -2.49704 0
M  V30 2452 H 223.897 -1.92155 -1.71564 0
M  V30 2453 H 223.855 -0.808115 -3.03837 0
M  V30 2454 N 227.627 0.131896 -1.57047 0
M  V30 2455 C 228.557 1.16384 -2.02428 0
M  V30 2456 C 229.538 1.43936 -0.90644 0
M  V30 2457 O 230.723 1.54599 -1.17528 0
M  V30 2458 C 227.853 2.49328 -2.4177 0
M  V30 2459 C 226.807 2.36266 -3.56879 0
M  V30 2460 C 226.133 3.74057 -3.8208 0
M  V30 2461 C 227.433 1.834 -4.89042 0
M  V30 2462 H 229.127 0.786433 -2.88887 0
M  V30 2463 H 226.673 0.376855 -1.38981 0
M  V30 2464 H 228.626 3.21759 -2.7212 0
M  V30 2465 H 227.35 2.88934 -1.52266 0
M  V30 2466 H 226.009 1.66286 -3.26718 0
M  V30 2467 H 225.657 4.11125 -2.89803 0
M  V30 2468 H 225.357 3.66174 -4.59554 0
M  V30 2469 H 226.881 4.48012 -4.1487 0
M  V30 2470 H 228.295 2.45636 -5.18011 0
M  V30 2471 H 226.692 1.8637 -5.70426 0
M  V30 2472 H 227.762 0.790662 -4.7841 0
M  V30 2473 N 229.106 1.52395 0.401703 0
M  V30 2474 C 230.036 1.79231 1.49661 0
M  V30 2475 C 231.017 0.643654 1.57452 0
M  V30 2476 O 232.202 0.889989 1.72606 0
M  V30 2477 C 229.332 1.94971 2.87409 0
M  V30 2478 C 228.286 3.10604 2.94465 0
M  V30 2479 C 227.612 3.11577 4.34538 0
M  V30 2480 C 228.912 4.49921 2.6527 0
M  V30 2481 H 230.606 2.70917 1.27454 0
M  V30 2482 H 228.152 1.30362 0.6117 0
M  V30 2483 H 230.105 2.12328 3.63999 0
M  V30 2484 H 228.829 0.999632 3.10926 0
M  V30 2485 H 227.488 2.93009 2.20321 0
M  V30 2486 H 227.136 2.14277 4.55076 0
M  V30 2487 H 226.836 3.89247 4.40183 0
M  V30 2488 H 228.36 3.31073 5.13053 0
M  V30 2489 H 229.774 4.67683 3.31581 0
M  V30 2490 H 228.171 5.29564 2.82281 0
M  V30 2491 H 229.241 4.57507 1.60671 0
M  V30 2492 N 230.584 -0.659388 1.43143 0
M  V30 2493 C 231.494 -1.80167 1.50256 0
M  V30 2494 C 232.51 -1.69571 0.390106 0
M  V30 2495 O 233.686 -1.90849 0.643319 0
M  V30 2496 C 230.751 -3.16409 1.41725 0
M  V30 2497 C 229.812 -3.38848 2.63591 0
M  V30 2498 C 229.045 -4.68591 2.55458 0
M  V30 2499 O 229.268 -5.47532 1.59891 0
M  V30 2500 O 228.202 -4.92614 3.45854 0
M  V30 2501 H 232.028 -1.77121 2.46702 0
M  V30 2502 H 229.613 -0.817092 1.25076 0
M  V30 2503 H 231.495 -3.9768 1.39387 0
M  V30 2504 H 230.17 -3.20059 0.484118 0
M  V30 2505 H 229.077 -2.57366 2.71502 0
M  V30 2506 H 230.41 -3.4004 3.55856 0
M  V30 2507 N 232.062 -1.29571 -0.897171 0
M  V30 2508 C 232.994 -1.10724 -2.00681 0
M  V30 2509 C 234.007 -0.0540026 -1.6271 0
M  V30 2510 O 235.196 -0.298783 -1.75982 0
M  V30 2511 C 232.296 -0.663912 -3.32333 0
M  V30 2512 C 231.469 -1.79622 -3.98816 0
M  V30 2513 C 230.528 -1.34349 -5.0876 0
M  V30 2514 O 229.554 -2.04864 -5.31055 0
M  V30 2515 N 230.756 -0.215764 -5.80099 0
M  V30 2516 H 233.521 -2.06291 -2.17403 0
M  V30 2517 H 231.082 -1.21544 -1.06951 0
M  V30 2518 H 233.074 -0.344295 -4.03233 0
M  V30 2519 H 231.644 0.199375 -3.11964 0
M  V30 2520 H 230.864 -2.28459 -3.21248 0
M  V30 2521 H 232.152 -2.55535 -4.39976 0
M  V30 2522 H 231.55 0.372091 -5.64475 0
M  V30 2523 H 230.107 0.0444707 -6.51785 0
M  V30 2524 N 233.54 1.10788 -1.12088 0
M  V30 2525 C 234.47 2.19083 -0.807755 0
M  V30 2526 C 235.451 1.6858 0.226859 0
M  V30 2527 O 236.636 1.93997 0.0888475 0
M  V30 2528 C 233.766 3.46344 -0.257576 0
M  V30 2529 C 232.72 4.101 -1.22483 0
M  V30 2530 C 232.046 5.32016 -0.535052 0
M  V30 2531 C 233.346 4.54236 -2.57811 0
M  V30 2532 H 235.04 2.45534 -1.71328 0
M  V30 2533 H 232.586 1.1801 -0.825205 0
M  V30 2534 H 234.539 4.21392 -0.0262679 0
M  V30 2535 H 233.263 3.19373 0.683278 0
M  V30 2536 H 231.922 3.37054 -1.44189 0
M  V30 2537 H 231.57 5.01319 0.410827 0
M  V30 2538 H 231.27 5.75625 -1.18024 0
M  V30 2539 H 232.794 6.09799 -0.312695 0
M  V30 2540 H 234.208 5.20575 -2.40155 0
M  V30 2541 H 232.605 5.08682 -3.18375 0
M  V30 2542 H 233.675 3.6734 -3.16528 0
M  V30 2543 N 235.018 0.912232 1.28515 0
M  V30 2544 C 235.948 0.416403 2.29757 0
M  V30 2545 C 236.929 -0.515194 1.6211 0
M  V30 2546 O 238.114 -0.423253 1.89532 0
M  V30 2547 C 235.244 -0.34572 3.45575 0
M  V30 2548 C 234.198 0.496599 4.25109 0
M  V30 2549 C 233.524 -0.393771 5.33248 0
M  V30 2550 C 234.824 1.75307 4.92001 0
M  V30 2551 H 236.518 1.26249 2.7148 0
M  V30 2552 H 234.064 0.608515 1.30511 0
M  V30 2553 H 236.017 -0.703422 4.15488 0
M  V30 2554 H 234.741 -1.2257 3.02728 0
M  V30 2555 H 233.4 0.8368 3.56922 0
M  V30 2556 H 233.048 -1.27225 4.86644 0
M  V30 2557 H 232.748 0.166209 5.87365 0
M  V30 2558 H 234.272 -0.747389 6.06009 0
M  V30 2559 H 235.686 1.46437 5.54283 0
M  V30 2560 H 234.083 2.25534 5.56106 0
M  V30 2561 H 235.153 2.48176 4.16577 0
M  V30 2562 N 236.496 -1.42363 0.676048 0
M  V30 2563 C 237.426 -2.33497 0.0124832 0
M  V30 2564 C 238.407 -1.50748 -0.787981 0
M  V30 2565 O 239.592 -1.79346 -0.744884 0
M  V30 2566 C 236.722 -3.34377 -0.938582 0
M  V30 2567 C 235.676 -4.27289 -0.246622 0
M  V30 2568 C 235.002 -5.18386 -1.31071 0
M  V30 2569 C 236.302 -5.14916 0.875125 0
M  V30 2570 H 237.996 -2.89233 0.773593 0
M  V30 2571 H 235.542 -1.39073 0.37346 0
M  V30 2572 H 237.495 -3.97044 -1.41188 0
M  V30 2573 H 236.219 -2.76947 -1.73113 0
M  V30 2574 H 234.878 -3.66018 0.206456 0
M  V30 2575 H 234.526 -4.57282 -2.09528 0
M  V30 2576 H 234.226 -5.81378 -0.852839 0
M  V30 2577 H 235.75 -5.83929 -1.78492 0
M  V30 2578 H 237.164 -5.71262 0.482983 0
M  V30 2579 H 235.561 -5.86747 1.25887 0
M  V30 2580 H 236.631 -4.53242 1.72335 0
M  V30 2581 N 237.974 -0.419461 -1.51915 0
M  V30 2582 C 239.39 -0.0708431 -1.59443 0
M  V30 2583 C 239.59 1.41796 -1.43164 0
M  V30 2584 O 238.646 2.18596 -1.26381 0
M  V30 2585 C 239.959 -0.574991 -2.95151 0
M  V30 2586 C 241.507 -0.533867 -3.08413 0
M  V30 2587 C 241.982 -1.01469 -4.46618 0
M  V30 2588 N 243.473 -0.971939 -4.52888 0
M  V30 2589 C 244.208 -1.31505 -5.58116 0
M  V30 2590 N 243.704 -1.73014 -6.70849 0
M  V30 2591 N 245.497 -1.23436 -5.48379 0
M  V30 2592 H 237.648 -1.38836 -1.60743 0
M  V30 2593 H 239.911 -0.570998 -0.756747 0
M  V30 2594 H 239.617 -1.61597 -3.12377 0
M  V30 2595 H 239.491 0.00979777 -3.77199 0
M  V30 2596 H 241.878 0.498086 -2.90866 0
M  V30 2597 H 241.959 -1.15484 -2.28248 0
M  V30 2598 H 241.603 -2.04502 -4.6491 0
M  V30 2599 H 241.533 -0.370433 -5.25295 0
M  V30 2600 H 244.024 -0.666893 -3.71969 0
M  V30 2601 H 244.337 -1.97479 -7.47143 0
M  V30 2602 H 242.682 -1.76926 -6.72103 0
M  V30 2603 H 245.873 -0.908869 -4.59192 0
M  V30 2604 H 246.046 -1.50506 -6.30279 0
M  V30 2605 N 239.452 1.56882 -0.150215 0
M  V30 2606 C 240.868 1.58263 0.20617 0
M  V30 2607 C 241.068 1.16464 1.64434 0
M  V30 2608 O 240.124 0.866422 2.3717 0
M  V30 2609 C 241.437 3.00649 -0.0555025 0
M  V30 2610 C 242.985 3.12999 0.00795388 0
M  V30 2611 C 243.46 4.5744 -0.226429 0
M  V30 2612 N 244.951 4.62875 -0.173469 0
M  V30 2613 C 245.686 5.72454 -0.329288 0
M  V30 2614 N 245.182 6.90669 -0.543005 0
M  V30 2615 N 246.975 5.61467 -0.266666 0
M  V30 2616 H 239.126 1.82345 -1.08922 0
M  V30 2617 H 241.389 0.844149 -0.431413 0
M  V30 2618 H 241.095 3.3563 -1.05096 0
M  V30 2619 H 240.969 3.71337 0.66246 0
M  V30 2620 H 243.356 2.77857 0.993966 0
M  V30 2621 H 243.437 2.4479 -0.742388 0
M  V30 2622 H 243.081 4.93287 -1.20956 0
M  V30 2623 H 243.011 5.2378 0.544274 0
M  V30 2624 H 245.502 3.77898 -0.0130709 0
M  V30 2625 H 245.815 7.70045 -0.651922 0
M  V30 2626 H 244.16 6.92581 -0.579366 0
M  V30 2627 H 247.351 4.67992 -0.100441 0
M  V30 2628 H 247.524 6.46816 -0.391535 0
M  V30 2629 N 240.93 -0.123565 1.57115 0
M  V30 2630 C 241.863 -1.18202 1.95201 0
M  V30 2631 C 242.841 -1.40349 0.821031 0
M  V30 2632 O 244.025 -1.54578 1.07879 0
M  V30 2633 C 241.152 -2.53671 2.24429 0
M  V30 2634 C 240.198 -2.4798 3.46999 0
M  V30 2635 S 241.031 -1.92389 4.99747 0
M  V30 2636 C 242.187 -3.2954 5.32123 0
M  V30 2637 H 242.42 -0.857212 2.84674 0
M  V30 2638 H 239.953 -0.33014 1.50829 0
M  V30 2639 H 241.911 -3.3162 2.41947 0
M  V30 2640 H 240.572 -2.83332 1.35579 0
M  V30 2641 H 239.765 -3.47758 3.64801 0
M  V30 2642 H 239.367 -1.7815 3.28844 0
M  V30 2643 H 241.659 -4.25736 5.27025 0
M  V30 2644 H 242.602 -3.16569 6.33395 0
M  V30 2645 H 243.01 -3.27758 4.59603 0
M  V30 2646 N 242.408 -1.52605 -0.393616 0
M  V30 2647 C 243.318 -1.79971 -1.50492 0
M  V30 2648 C 244.334 -0.686181 -1.59899 0
M  V30 2649 O 245.51 -0.973274 -1.76322 0
M  V30 2650 C 242.575 -1.95867 -2.86072 0
M  V30 2651 C 241.636 -3.19781 -2.86424 0
M  V30 2652 C 240.869 -3.34909 -4.15538 0
M  V30 2653 O 241.092 -2.54948 -5.10253 0
M  V30 2654 O 240.026 -4.28141 -4.23059 0
M  V30 2655 H 243.852 -2.74328 -1.30299 0
M  V30 2656 H 241.437 -1.3764 -0.581005 0
M  V30 2657 H 243.319 -2.08056 -3.66457 0
M  V30 2658 H 241.994 -1.04699 -3.063 0
M  V30 2659 H 240.901 -3.13038 -2.04837 0
M  V30 2660 H 242.234 -4.1078 -2.71147 0
M  V30 2661 N 243.887 0.651787 -1.4349 0
M  V30 2662 C 244.85 1.74647 -1.48429 0
M  V30 2663 C 245.85 1.56513 -0.368817 0
M  V30 2664 O 247.04 1.62385 -0.630623 0
M  V30 2665 C 244.172 3.13533 -1.33827 0
M  V30 2666 H 245.365 1.71649 -2.4592 0
M  V30 2667 H 242.918 0.863573 -1.30277 0
M  V30 2668 H 243.653 3.22142 -0.37349 0
M  V30 2669 H 243.438 3.28101 -2.14691 0
M  V30 2670 H 244.928 3.93356 -1.40218 0
M  V30 2671 N 245.365 1.30045 0.890287 0
M  V30 2672 C 246.614 1.17929 1.63633 0
M  V30 2673 C 246.927 -0.266204 1.9378 0
M  V30 2674 O 248.133 -0.508804 2.6669 0
M  V30 2675 C 246.589 2.06317 2.94892 0
M  V30 2676 C 246.197 3.55745 2.72305 0
M  V30 2677 C 247.941 2.0295 3.72843 0
M  V30 2678 C 245.848 4.36205 3.99348 0
M  V30 2679 H 244.778 0.437782 0.613892 0
M  V30 2680 H 247.429 1.54754 0.986075 0
M  V30 2681 H 245.811 1.6237 3.61182 0
M  V30 2682 H 246.985 4.07805 2.1455 0
M  V30 2683 H 245.3 3.6088 2.07737 0
M  V30 2684 H 247.897 2.60319 4.67053 0
M  V30 2685 H 248.24 1.0117 4.0382 0
M  V30 2686 H 248.773 2.4499 3.13408 0
M  V30 2687 H 245.512 5.38659 3.73533 0
M  V30 2688 H 245.032 3.8891 4.56628 0
M  V30 2689 H 246.711 4.47362 4.67415 0
M  V30 2690 N 246.843 -1.10192 1.12674 0
M  V30 2691 C 247.791 -2.18694 0.792196 0
M  V30 2692 C 248.785 -1.67938 -0.222058 0
M  V30 2693 O 249.991 -1.79822 -0.0800074 0
M  V30 2694 H 246.366 -0.713223 0.238364 0
M  V30 2695 H 248.337 -2.44149 1.71564 0
M  V30 2696 C 247.086 -3.46682 0.265859 0
M  V30 2697 H 246.409 -3.86101 1.03761 0
M  V30 2698 H 247.849 -4.23942 0.0701128 0
M  V30 2699 C 246.308 -3.21506 -1.00675 0
M  V30 2700 O 246.838 -3.43408 -2.08408 0
M  V30 2701 N 245.044 -2.75158 -0.934692 0
M  V30 2702 H 244.591 -2.57535 -0.0578604 0
M  V30 2703 H 244.549 -2.58691 -1.7868 0
M  V30 2704 N 248.321 -0.919034 -1.28029 0
M  V30 2705 C 249.231 -0.416756 -2.30869 0
M  V30 2706 C 250.247 0.498235 -1.66714 0
M  V30 2707 O 251.423 0.383144 -1.97722 0
M  V30 2708 C 248.488 0.330274 -3.45123 0
M  V30 2709 C 247.549 -0.618578 -4.2482 0
M  V30 2710 C 246.782 0.0928959 -5.33619 0
M  V30 2711 O 247.005 1.31375 -5.55065 0
M  V30 2712 O 245.939 -0.574499 -5.99152 0
M  V30 2713 H 249.765 -1.27043 -2.75851 0
M  V30 2714 H 247.35 -0.684052 -1.3282 0
M  V30 2715 H 249.232 0.751972 -4.14636 0
M  V30 2716 H 247.907 1.1597 -3.02213 0
M  V30 2717 H 246.814 -1.08978 -3.57875 0
M  V30 2718 H 248.147 -1.41497 -4.71423 0
M  V30 2719 N 249.799 1.42003 -0.683588 0
M  V30 2720 C 251.024 2.06265 -0.216647 0
M  V30 2721 C 251.449 1.51059 1.12083 0
M  V30 2722 O 250.807 0.632638 1.69904 0
M  V30 2723 C 250.855 3.60191 -0.171759 0
M  V30 2724 O 249.959 4.03396 0.857069 0
M  V30 2725 H 249.3 0.65502 -0.108834 0
M  V30 2726 H 251.83 1.81982 -0.935077 0
M  V30 2727 H 251.84 4.08 0.0014303 0
M  V30 2728 H 250.515 3.99743 -1.14796 0
M  V30 2729 H 249.092 3.67117 0.654208 0
M  V30 2730 N 251.277 0.427512 1.51691 0
M  V30 2731 C 252.207 -0.3796 2.30394 0
M  V30 2732 C 253.188 -1.02982 1.35384 0
M  V30 2733 O 254.373 -1.03534 1.643 0
M  V30 2734 C 251.503 -1.48649 3.1388 0
M  V30 2735 C 250.457 -0.960294 4.17088 0
M  V30 2736 C 249.783 -2.16219 4.89033 0
M  V30 2737 C 251.083 -0.00153679 5.223 0
M  V30 2738 H 252.777 0.277164 2.98114 0
M  V30 2739 H 250.323 0.134739 1.43368 0
M  V30 2740 H 252.276 -2.05826 3.67714 0
M  V30 2741 H 251 -2.1714 2.43962 0
M  V30 2742 H 249.659 -0.410806 3.64291 0
M  V30 2743 H 249.307 -2.83307 4.15628 0
M  V30 2744 H 249.007 -1.81654 5.58816 0
M  V30 2745 H 250.531 -2.73968 5.45687 0
M  V30 2746 H 251.945 -0.482687 5.71264 0
M  V30 2747 H 250.342 0.256199 5.99553 0
M  V30 2748 H 251.412 0.938174 4.75738 0
M  V30 2749 N 252.755 -1.56801 0.158532 0
M  V30 2750 C 253.705 -2.13923 -0.788738 0
M  V30 2751 C 254.689 -1.07006 -1.2016 0
M  V30 2752 O 255.881 -1.33159 -1.1661 0
M  V30 2753 C 253.01 -2.77348 -2.02319 0
M  V30 2754 C 252.096 -3.91404 -1.6329 0
M  V30 2755 N 252.487 -4.9677 -0.951463 0
M  V30 2756 C 250.785 -4.02326 -1.92482 0
M  V30 2757 C 251.486 -5.76698 -0.761221 0
M  V30 2758 N 250.462 -5.27859 -1.29869 0
M  V30 2759 H 254.264 -2.92757 -0.258995 0
M  V30 2760 H 251.778 -1.62344 -0.0426055 0
M  V30 2761 H 253.775 -3.16639 -2.71192 0
M  V30 2762 H 252.435 -1.99991 -2.558 0
M  V30 2763 H 253.446 -5.14284 -0.610928 0
M  V30 2764 H 250.123 -3.36059 -2.47732 0
M  V30 2765 H 251.513 -6.71529 -0.223284 0
M  V30 2766 N 254.233 0.115231 -1.57178 0
M  V30 2767 C 255.644 0.67197 -1.74188 0
M  V30 2768 C 255.995 1.80125 -0.777777 0
M  V30 2769 O 255.12 2.16346 0.0484376 0
M  V30 2770 C 255.715 1.22573 -3.1585 0
M  V30 2771 C 254.274 1.72872 -3.34353 0
M  V30 2772 C 253.421 0.629972 -2.70049 0
M  V30 2773 H 256.372 -0.110712 -1.58313 0
M  V30 2774 H 256.393 2.09535 -3.17609 0
M  V30 2775 H 255.905 0.403598 -3.85996 0
M  V30 2776 H 254.006 2.5755 -2.69256 0
M  V30 2777 H 254.119 1.83557 -4.42542 0
M  V30 2778 H 252.483 1.0645 -2.31388 0
M  V30 2779 H 253.266 -0.181241 -3.42821 0
M  V30 2780 N 255.711 1.52812 0.385517 0
M  V30 2781 C 257.122 1.5993 0.963293 0
M  V30 2782 C 257.473 0.454302 1.90868 0
M  V30 2783 O 256.598 -0.422132 2.12243 0
M  V30 2784 C 257.193 2.89871 1.75387 0
M  V30 2785 C 255.752 2.99389 2.28129 0
M  V30 2786 C 254.899 2.55071 1.08783 0
M  V30 2787 H 257.85 1.5784 0.164948 0
M  V30 2788 H 257.871 2.76553 2.61341 0
M  V30 2789 H 257.383 3.73186 1.06554 0
M  V30 2790 H 255.484 2.20619 3.00263 0
M  V30 2791 H 255.597 4.04096 2.57377 0
M  V30 2792 H 253.961 2.09473 1.4489 0
M  V30 2793 H 254.744 3.40785 0.414807 0
M  V30 2794 N 257.189 -0.644168 1.43834 0
M  V30 2795 C 258.122 -1.76906 1.44151 0
M  V30 2796 C 259.1 -1.59774 0.301857 0
M  V30 2797 O 260.284 -1.81834 0.496841 0
M  V30 2798 C 257.411 -3.14321 1.26174 0
M  V30 2799 C 256.457 -3.50134 2.43533 0
M  V30 2800 S 257.29 -3.49085 4.06079 0
M  V30 2801 C 258.446 -4.89142 3.90501 0
M  V30 2802 H 258.679 -1.76368 2.39336 0
M  V30 2803 H 256.212 -0.817624 1.30974 0
M  V30 2804 H 258.17 -3.93625 1.16489 0
M  V30 2805 H 256.831 -3.12412 0.325224 0
M  V30 2806 H 256.024 -4.50095 2.26783 0
M  V30 2807 H 255.626 -2.78264 2.4989 0
M  V30 2808 H 257.918 -5.78036 3.53385 0
M  V30 2809 H 258.861 -5.10945 4.90246 0
M  V30 2810 H 259.269 -4.63102 3.22795 0
M  V30 2811 N 258.668 -1.30515 -0.883378 0
M  V30 2812 C 259.945 -1.10086 -1.6168 0
M  V30 2813 C 260.325 0.349269 -2.08191 0
M  V30 2814 O 259.673 1.34105 -1.85008 0
M  V30 2815 C 259.883 -2.10315 -2.78511 0
M  V30 2816 C 261.231 -2.42119 -3.48803 0
M  V30 2817 O 262.255 -2.08638 -2.88702 0
M  V30 2818 O 261.114 -2.99396 -4.57192 0
M  V30 2819 H 258.208 -0.422907 -0.710689 0
M  V30 2820 H 260.754 -1.41947 -0.930015 0
M  V30 2821 H 259.526 -3.07917 -2.41459 0
M  V30 2822 H 259.149 -1.79282 -3.54886 0
M  V30 2823 N 260.146 1.09593 -1.13257 0
M  V30 2824 C 261.094 2.18271 -0.803783 0
M  V30 2825 C 262.088 1.68054 0.213148 0
M  V30 2826 O 263.294 1.79862 0.0704699 0
M  V30 2827 H 259.669 0.711949 -0.242143 0
M  V30 2828 H 261.64 2.43235 -1.72856 0
M  V30 2829 C 260.389 3.46536 -0.28424 0
M  V30 2830 H 259.712 3.85545 -1.05807 0
M  V30 2831 H 261.152 4.23899 -0.0925945 0
M  V30 2832 C 259.611 3.22036 0.989684 0
M  V30 2833 O 260.141 3.44509 2.06584 0
M  V30 2834 N 258.347 2.7565 0.920086 0
M  V30 2835 H 257.894 2.57562 0.0442019 0
M  V30 2836 H 257.852 2.59635 1.77306 0
M  V30 2837 N 261.624 0.925811 1.2754 0
M  V30 2838 C 263.04 0.625767 1.46821 0
M  V30 2839 C 263.24 -0.825506 1.83814 0
M  V30 2840 O 262.296 -1.60356 1.95044 0
M  V30 2841 C 263.609 1.57402 2.56213 0
M  V30 2842 C 265.157 1.58204 2.70075 0
M  V30 2843 C 265.632 2.51721 3.82623 0
M  V30 2844 N 267.123 2.49917 3.89994 0
M  V30 2845 C 267.858 3.18968 4.76494 0
M  V30 2846 N 267.354 3.97391 5.67496 0
M  V30 2847 N 269.147 3.07996 4.70208 0
M  V30 2848 H 261.298 1.86409 1.01811 0
M  V30 2849 H 263.561 0.800213 0.508295 0
M  V30 2850 H 263.267 2.60925 2.35819 0
M  V30 2851 H 263.141 1.31428 3.53563 0
M  V30 2852 H 265.528 0.554124 2.89851 0
M  V30 2853 H 265.609 1.88226 1.73218 0
M  V30 2854 H 265.253 3.54622 3.63601 0
M  V30 2855 H 265.183 2.18996 4.78903 0
M  V30 2856 H 267.674 1.9296 3.24923 0
M  V30 2857 H 267.987 4.4707 6.30356 0
M  V30 2858 H 266.332 4.01495 5.67298 0
M  V30 2859 H 269.523 2.46223 3.9811 0
M  V30 2860 H 269.696 3.6208 5.37403 0
M  V30 2861 N 263.102 -1.41638 0.69111 0
M  V30 2862 C 264.348 -2.01598 0.220519 0
M  V30 2863 C 264.681 -1.54594 -1.17535 0
M  V30 2864 O 263.956 -0.755177 -1.79241 0
M  V30 2865 C 264.239 -3.59062 0.273243 0
M  V30 2866 C 264.092 -4.16203 1.70573 0
M  V30 2867 C 265.411 -4.38546 -0.369457 0
M  V30 2868 H 262.53 -0.732468 0.0816045 0
M  V30 2869 H 265.172 -1.68445 0.878986 0
M  V30 2870 H 263.322 -3.87435 -0.287411 0
M  V30 2871 H 264.994 -3.98722 2.31989 0
M  V30 2872 H 263.237 -3.71414 2.2413 0
M  V30 2873 H 263.908 -5.25358 1.69419 0
M  V30 2874 H 266.384 -4.1596 0.107977 0
M  V30 2875 H 265.26 -5.48069 -0.302002 0
M  V30 2876 H 265.521 -4.17662 -1.44951 0
M  V30 2877 N 264.58 -0.43555 -1.51462 0
M  V30 2878 C 265.996 -0.0877501 -1.59359 0
M  V30 2879 C 266.196 1.4027 -1.4466 0
M  V30 2880 O 265.252 2.17243 -1.28693 0
M  V30 2881 C 266.565 -0.606264 -2.94525 0
M  V30 2882 C 268.113 -0.566548 -3.0783 0
M  V30 2883 C 268.588 -1.06201 -4.45517 0
M  V30 2884 N 270.079 -1.01992 -4.51832 0
M  V30 2885 C 270.814 -1.37417 -5.5669 0
M  V30 2886 N 270.31 -1.80119 -6.68976 0
M  V30 2887 N 272.103 -1.29245 -5.47039 0
M  V30 2888 H 264.254 -1.40533 -1.59261 0
M  V30 2889 H 266.517 -0.578992 -0.750648 0
M  V30 2890 H 266.223 -1.64901 -3.10645 0
M  V30 2891 H 266.097 -0.0302097 -3.77188 0
M  V30 2892 H 268.484 0.467208 -2.91378 0
M  V30 2893 H 268.565 -1.17898 -2.2701 0
M  V30 2894 H 268.209 -2.09422 -4.62715 0
M  V30 2895 H 268.139 -0.426127 -5.24873 0
M  V30 2896 H 270.63 -0.706308 -3.71241 0
M  V30 2897 H 270.943 -2.05392 -7.45006 0
M  V30 2898 H 269.288 -1.84044 -6.70189 0
M  V30 2899 H 272.479 -0.957522 -4.58202 0
M  V30 2900 H 272.652 -1.57182 -6.28648 0
M  V30 2901 N 266.058 1.56714 -0.166846 0
M  V30 2902 C 266.968 2.21331 0.777791 0
M  V30 2903 C 267.984 1.20358 1.25658 0
M  V30 2904 O 269.16 1.53005 1.30964 0
M  V30 2905 C 266.225 2.83787 1.99163 0
M  V30 2906 C 265.286 3.99947 1.56016 0
M  V30 2907 C 264.519 4.59415 2.71613 0
M  V30 2908 O 264.742 4.17769 3.88362 0
M  V30 2909 O 263.676 5.49359 2.45945 0
M  V30 2910 H 267.502 3.02605 0.257636 0
M  V30 2911 H 265.087 1.49275 0.0611393 0
M  V30 2912 H 266.969 3.23405 2.70161 0
M  V30 2913 H 265.644 2.05513 2.50092 0
M  V30 2914 H 264.551 3.65007 0.819809 0
M  V30 2915 H 265.884 4.79801 1.09782 0
M  V30 2916 N 267.536 -0.106894 1.57237 0
M  V30 2917 C 268.499 -1.11466 2.0027 0
M  V30 2918 C 269.499 -1.33623 0.894519 0
M  V30 2919 O 270.689 -1.29935 1.16028 0
M  V30 2920 C 267.821 -2.46646 2.35327 0
M  V30 2921 H 269.014 -0.744516 2.90512 0
M  V30 2922 H 266.567 -0.351576 1.52295 0
M  V30 2923 H 267.302 -2.88558 1.48003 0
M  V30 2924 H 267.087 -2.31915 3.16161 0
M  V30 2925 H 268.577 -3.19151 2.69318 0
M  V30 2926 N 269.014 -1.53014 -0.377408 0
M  V30 2927 C 270.254 -1.70318 -1.1301 0
M  V30 2928 C 270.618 -0.439538 -1.86901 0
M  V30 2929 O 271.819 -0.489095 -2.64313 0
M  V30 2930 C 270.09 -2.91125 -2.07319 0
M  V30 2931 S 271.649 -3.29075 -2.90268 0
M  V30 2932 H 268.467 -0.599426 -0.382374 0
M  V30 2933 H 271.069 -1.91089 -0.412933 0
M  V30 2934 H 269.773 -3.81303 -1.51777 0
M  V30 2935 H 269.304 -2.7272 -2.83526 0
M  V30 2936 H 271.319 -2.80165 -4.09539 0
M  V30 2937 N 270.492 0.636531 -1.44174 0
M  V30 2938 C 271.424 1.7618 -1.46606 0
M  V30 2939 C 272.437 1.58768 -0.360091 0
M  V30 2940 O 273.626 1.67181 -0.625518 0
M  V30 2941 C 270.726 3.13833 -1.27915 0
M  V30 2942 C 269.899 3.57753 -2.51658 0
M  V30 2943 C 268.958 4.74265 -2.27945 0
M  V30 2944 O 267.984 4.82852 -3.01401 0
M  V30 2945 N 269.186 5.65604 -1.30662 0
M  V30 2946 H 271.951 1.74567 -2.43612 0
M  V30 2947 H 269.512 0.820924 -1.39544 0
M  V30 2948 H 271.504 3.8949 -1.09907 0
M  V30 2949 H 270.074 3.10121 -0.39293 0
M  V30 2950 H 269.294 2.72362 -2.84978 0
M  V30 2951 H 270.582 3.83847 -3.33974 0
M  V30 2952 H 269.98 5.61354 -0.699844 0
M  V30 2953 H 268.537 6.40913 -1.18634 0
M  V30 2954 N 271.97 1.30982 0.876444 0
M  V30 2955 C 273.2 1.23063 1.65949 0
M  V30 2956 C 273.608 -0.207537 1.88058 0
M  V30 2957 O 272.951 -1.14781 1.43426 0
M  V30 2958 C 273.013 1.89768 3.05333 0
M  V30 2959 C 272.677 3.39106 3.0636 0
M  V30 2960 C 273.674 4.3496 2.84791 0
M  V30 2961 C 271.359 3.80693 3.27686 0
M  V30 2962 C 273.353 5.70375 2.84519 0
M  V30 2963 C 271.04 5.16223 3.27043 0
M  V30 2964 C 272.038 6.10875 3.05485 0
M  V30 2965 O 271.726 7.43928 3.04674 0
M  V30 2966 H 271.458 0.426685 0.524324 0
M  V30 2967 H 274.012 1.7329 1.10271 0
M  V30 2968 H 272.242 1.34082 3.6271 0
M  V30 2969 H 273.931 1.75853 3.65829 0
M  V30 2970 H 274.697 4.0416 2.68103 0
M  V30 2971 H 270.576 3.07457 3.43499 0
M  V30 2972 H 274.12 6.44228 2.67611 0
M  V30 2973 H 270.017 5.4666 3.43269 0
M  V30 2974 H 270.785 7.53022 3.2078 0
M  V30 2975 N 273.449 -1.08991 1.13837 0
M  V30 2976 C 274.698 -1.80631 0.897509 0
M  V30 2977 C 275.011 -1.86872 -0.57777 0
M  V30 2978 O 276.217 -2.54866 -0.935701 0
M  V30 2979 C 274.673 -3.24517 1.55618 0
M  V30 2980 C 274.281 -3.26529 3.0673 0
M  V30 2981 C 276.025 -4.00882 1.3962 0
M  V30 2982 C 273.932 -4.64965 3.65461 0
M  V30 2983 H 272.862 -0.67691 0.332129 0
M  V30 2984 H 275.513 -1.2246 1.3666 0
M  V30 2985 H 273.895 -3.82778 1.01476 0
M  V30 2986 H 275.069 -2.78008 3.67489 0
M  V30 2987 H 273.384 -2.63656 3.22296 0
M  V30 2988 H 275.981 -5.03167 1.80906 0
M  V30 2989 H 276.324 -4.14896 0.341578 0
M  V30 2990 H 276.857 -3.49075 1.90766 0
M  V30 2991 H 273.596 -4.56153 4.70749 0
M  V30 2992 H 273.116 -5.13792 3.09481 0
M  V30 2993 H 274.795 -5.3394 3.654 0
M  V30 2994 N 274.927 -0.932562 -1.27047 0
M  V30 2995 C 276.152 -0.591474 -1.98787 0
M  V30 2996 C 276.577 0.824601 -1.69062 0
M  V30 2997 O 275.935 1.5541 -0.933677 0
M  V30 2998 C 275.983 -0.829808 -3.50922 0
M  V30 2999 O 275.087 0.102266 -4.12273 0
M  V30 3000 H 274.428 -0.227185 -0.623926 0
M  V30 3001 H 276.958 -1.25314 -1.61733 0
M  V30 3002 H 276.968 -0.747292 -4.01098 0
M  V30 3003 H 275.643 -1.86201 -3.7189 0
M  V30 3004 H 274.22 -0.0305761 -3.72887 0
M  V30 3005 N 276.405 1.4127 -0.698611 0
M  V30 3006 C 277.682 1.94955 -0.158762 0
M  V30 3007 C 278.062 1.63781 1.33188 0
M  V30 3008 O 277.41 0.946423 2.07979 0
M  V30 3009 C 277.62 3.46044 -0.453309 0
M  V30 3010 C 278.968 4.22872 -0.382707 0
M  V30 3011 O 279.992 3.54076 -0.388396 0
M  V30 3012 O 278.851 5.45407 -0.345463 0
M  V30 3013 H 275.945 0.82683 -0.0167505 0
M  V30 3014 H 278.491 1.50971 -0.77498 0
M  V30 3015 H 277.263 3.62028 -1.48498 0
M  V30 3016 H 276.886 3.97128 0.19373 0
M  V30 3017 N 277.883 0.443576 1.51229 0
M  V30 3018 C 278.833 -0.382787 2.24764 0
M  V30 3019 C 279.817 -0.984836 1.27239 0
M  V30 3020 O 281.009 -0.901943 1.52296 0
M  V30 3021 C 278.138 -1.47989 3.09765 0
M  V30 3022 C 277.224 -0.886931 4.14722 0
M  V30 3023 N 277.615 -0.0237103 5.05794 0
M  V30 3024 C 275.913 -1.15385 4.30816 0
M  V30 3025 C 276.614 0.309971 5.80874 0
M  V30 3026 N 275.59 -0.307989 5.42727 0
M  V30 3027 H 279.392 0.282624 2.92538 0
M  V30 3028 H 276.906 0.256027 1.60369 0
M  V30 3029 H 278.903 -2.08482 3.61027 0
M  V30 3030 H 277.563 -2.14758 2.43535 0
M  V30 3031 H 278.574 0.34318 5.16762 0
M  V30 3032 H 275.251 -1.81857 3.75812 0
M  V30 3033 H 276.641 1.01279 6.64223 0
M  V30 3034 N 279.361 -1.56624 0.175154 0
M  V30 3035 C 280.291 -2.21155 -0.749195 0
M  V30 3036 C 281.272 -1.16836 -1.23626 0
M  V30 3037 O 282.457 -1.45277 -1.28873 0
M  V30 3038 C 279.587 -2.8553 -1.97711 0
M  V30 3039 C 278.541 -3.95921 -1.62575 0
M  V30 3040 C 277.867 -4.47365 -2.92864 0
M  V30 3041 C 279.167 -5.15323 -0.850838 0
M  V30 3042 H 280.861 -2.98653 -0.211295 0
M  V30 3043 H 278.407 -1.43651 -0.100188 0
M  V30 3044 H 280.36 -3.2935 -2.62881 0
M  V30 3045 H 279.084 -2.05406 -2.53921 0
M  V30 3046 H 277.743 -3.52762 -0.997719 0
M  V30 3047 H 277.391 -3.64027 -3.47122 0
M  V30 3048 H 277.091 -5.21839 -2.70106 0
M  V30 3049 H 278.615 -4.93873 -3.59056 0
M  V30 3050 H 280.029 -5.55812 -1.40521 0
M  V30 3051 H 278.426 -5.95739 -0.722154 0
M  V30 3052 H 279.496 -4.84661 0.152082 0
M  V30 3053 N 280.839 0.0985539 -1.57292 0
M  V30 3054 C 281.802 1.10402 -2.00858 0
M  V30 3055 C 282.802 1.33146 -0.901593 0
M  V30 3056 O 283.992 1.29318 -1.16716 0
M  V30 3057 C 281.124 2.45394 -2.36632 0
M  V30 3058 H 282.317 0.729099 -2.90902 0
M  V30 3059 H 279.87 0.343495 -1.52479 0
M  V30 3060 H 280.605 2.87769 -1.49531 0
M  V30 3061 H 280.39 2.30235 -3.17387 0
M  V30 3062 H 281.88 3.17718 -2.71007 0
M  V30 3063 N 282.317 1.53212 0.369288 0
M  V30 3064 C 283.594 1.59815 1.12776 0
M  V30 3065 C 283.974 0.403402 2.0721 0
M  V30 3066 O 283.322 -0.606667 2.20299 0
M  V30 3067 C 283.532 2.94664 1.87013 0
M  V30 3068 C 284.88 3.49109 2.41677 0
M  V30 3069 O 285.904 2.96669 1.97144 0
M  V30 3070 O 284.763 4.40775 3.23079 0
M  V30 3071 H 281.857 0.645376 0.517125 0
M  V30 3072 H 284.403 1.65553 0.37285 0
M  V30 3073 H 283.175 3.73061 1.18071 0
M  V30 3074 H 282.798 2.92401 2.69421 0
M  V30 3075 N 283.795 -0.628877 1.44509 0
M  V30 3076 C 285.02 -1.42048 1.5112 0
M  V30 3077 C 285.445 -1.87594 0.137818 0
M  V30 3078 O 284.803 -1.58873 -0.873437 0
M  V30 3079 C 284.851 -2.61541 2.48251 0
M  V30 3080 O 283.955 -3.61453 1.98559 0
M  V30 3081 H 283.296 -0.424942 0.510216 0
M  V30 3082 H 285.826 -0.767374 1.89664 0
M  V30 3083 H 285.836 -3.09057 2.66361 0
M  V30 3084 H 284.511 -2.27736 3.48007 0
M  V30 3085 H 283.088 -3.20731 1.90227 0
M  V30 3086 N 285.273 -1.31445 -0.869486 0
M  V30 3087 C 286.221 -1.19067 -1.99814 0
M  V30 3088 C 287.215 -0.0988569 -1.69111 0
M  V30 3089 O 288.421 -0.260781 -1.78101 0
M  V30 3090 H 284.796 -0.368677 -0.655425 0
M  V30 3091 H 286.767 -2.14555 -2.07385 0
M  V30 3092 C 285.516 -0.915323 -3.35436 0
M  V30 3093 H 284.839 -1.74759 -3.59582 0
M  V30 3094 H 286.279 -0.868895 -4.15001 0
M  V30 3095 C 284.738 0.381928 -3.34728 0
M  V30 3096 O 285.268 1.39857 -3.76567 0
M  V30 3097 N 283.474 0.398633 -2.87853 0
M  V30 3098 H 283.021 -0.429186 -2.54 0
M  V30 3099 H 282.979 1.26651 -2.87762 0
M  V30 3100 N 286.751 1.08385 -1.14413 0
M  V30 3101 C 287.998 1.80776 -0.912482 0
M  V30 3102 C 288.326 1.86236 0.560934 0
M  V30 3103 O 287.581 1.33431 1.43159 0
M  V30 3104 C 287.88 3.26273 -1.45879 0
M  V30 3105 C 287.546 3.4093 -2.95089 0
M  V30 3106 C 286.208 3.44638 -3.35824 0
M  V30 3107 C 288.56 3.44591 -3.91033 0
M  V30 3108 C 285.888 3.49597 -4.71167 0
M  V30 3109 C 288.24 3.51086 -5.26233 0
M  V30 3110 C 286.904 3.53067 -5.6648 0
M  V30 3111 H 286.174 0.661507 -0.333901 0
M  V30 3112 H 288.821 1.27613 -1.42784 0
M  V30 3113 H 287.126 3.82146 -0.864376 0
M  V30 3114 H 288.823 3.80839 -1.2555 0
M  V30 3115 H 285.413 3.38736 -2.62594 0
M  V30 3116 H 289.597 3.40957 -3.60641 0
M  V30 3117 H 284.853 3.49424 -5.0171 0
M  V30 3118 H 289.027 3.52864 -6.00383 0
M  V30 3119 H 286.654 3.56662 -6.71339 0
M  V30 3120 N 288.23 0.939286 1.26551 0
M  V30 3121 C 289.507 0.5038 1.89001 0
M  V30 3122 C 289.887 -1.01854 1.84903 0
M  V30 3123 O 289.235 -1.87773 1.30206 0
M  V30 3124 C 289.445 1.063 3.32417 0
M  V30 3125 C 290.793 1.13051 4.09273 0
M  V30 3126 O 291.817 1.01345 3.41479 0
M  V30 3127 O 290.676 1.31233 5.30509 0
M  V30 3128 H 287.77 0.163897 0.810597 0
M  V30 3129 H 290.316 1.03173 1.34735 0
M  V30 3130 H 289.088 2.10665 3.29752 0
M  V30 3131 H 288.711 0.517408 3.94219 0
M  V30 3132 N 289.708 -1.40897 0.706093 0
M  V30 3133 C 290.957 -2.00284 0.238574 0
M  V30 3134 C 291.27 -1.56604 -1.17194 0
M  V30 3135 O 292.476 -2.08624 -1.73748 0
M  V30 3136 C 290.932 -3.57934 0.375623 0
M  V30 3137 C 290.54 -4.10591 1.79217 0
M  V30 3138 C 292.284 -4.24488 -0.0315857 0
M  V30 3139 C 290.191 -5.60712 1.88032 0
M  V30 3140 H 289.121 -0.749144 0.0854398 0
M  V30 3141 H 291.772 -1.61251 0.875813 0
M  V30 3142 H 290.154 -3.94622 -0.330042 0
M  V30 3143 H 291.328 -3.85301 2.52745 0
M  V30 3144 H 289.643 -3.56601 2.15 0
M  V30 3145 H 292.24 -5.34698 0.0136842 0
M  V30 3146 H 292.583 -4.02261 -1.072 0
M  V30 3147 H 293.116 -3.92873 0.624181 0
M  V30 3148 H 289.855 -5.87781 2.90161 0
M  V30 3149 H 289.375 -5.87896 1.18903 0
M  V30 3150 H 291.054 -6.25658 1.64805 0
M  V30 3151 N 291.186 -0.45159 -1.50991 0
M  V30 3152 C 292.149 0.341117 -2.26647 0
M  V30 3153 C 293.149 0.937422 -1.30649 0
M  V30 3154 O 294.339 0.809644 -1.54241 0
M  V30 3155 C 291.471 1.48398 -3.06905 0
M  V30 3156 H 292.664 -0.322117 -2.98165 0
M  V30 3157 H 290.217 -0.205122 -1.54948 0
M  V30 3158 H 290.952 2.18284 -2.39838 0
M  V30 3159 H 290.737 1.06241 -3.77432 0
M  V30 3160 H 292.227 2.04367 -3.64176 0
M  V30 3161 N 292.664 1.56529 -0.183458 0
M  V30 3162 C 293.889 2.02064 0.467428 0
M  V30 3163 C 294.314 1.06282 1.55196 0
M  V30 3164 O 293.672 0.0443565 1.81246 0
M  V30 3165 C 293.72 3.46122 1.01153 0
M  V30 3166 O 292.824 3.53437 2.12499 0
M  V30 3167 H 292.165 0.654726 0.110588 0
M  V30 3168 H 294.695 2.02521 -0.290917 0
M  V30 3169 H 294.705 3.85676 1.33108 0
M  V30 3170 H 293.38 4.15331 0.217533 0
M  V30 3171 H 291.957 3.2575 1.81497 0
M  V30 3172 N 294.142 -0.090211 1.57342 0
M  V30 3173 C 295.388 -0.793982 1.86611 0
M  V30 3174 C 295.721 -1.78142 0.773252 0
M  V30 3175 O 294.996 -1.93271 -0.218304 0
M  V30 3176 C 295.279 -1.51839 3.26523 0
M  V30 3177 C 295.132 -0.548609 4.46442 0
M  V30 3178 C 296.451 -2.46779 3.64401 0
M  V30 3179 H 293.57 -0.287186 0.678744 0
M  V30 3180 H 296.212 -0.0575076 1.89913 0
M  V30 3181 H 294.362 -2.14617 3.23839 0
M  V30 3182 H 296.034 0.0725513 4.61243 0
M  V30 3183 H 294.277 0.137614 4.33582 0
M  V30 3184 H 294.948 -1.09271 5.41076 0
M  V30 3185 H 297.424 -1.94089 3.68061 0
M  V30 3186 H 296.3 -2.94479 4.63221 0
M  V30 3187 H 296.561 -3.30758 2.93346 0
M  V30 3188 N 295.62 -1.53406 -0.361157 0
M  V30 3189 C 296.583 -1.79479 -1.42548 0
M  V30 3190 C 297.583 -0.665327 -1.4639 0
M  V30 3191 O 298.773 -0.933549 -1.47073 0
M  V30 3192 C 295.905 -1.92087 -2.8163 0
M  V30 3193 H 297.098 -2.74538 -1.20701 0
M  V30 3194 H 294.651 -1.4455 -0.594546 0
M  V30 3195 H 295.386 -0.991099 -3.08784 0
M  V30 3196 H 295.171 -2.74241 -2.80239 0
M  V30 3197 H 296.661 -2.13836 -3.58697 0
M  V30 3198 N 297.098 0.621204 -1.44841 0
M  V30 3199 C 298.03 1.74615 -1.48466 0
M  V30 3200 C 299.043 1.58377 -0.37691 0
M  V30 3201 O 300.232 1.66508 -0.643215 0
M  V30 3202 C 297.332 3.12459 -1.31236 0
M  V30 3203 C 296.505 3.55064 -2.55438 0
M  V30 3204 C 295.564 4.71821 -2.32963 0
M  V30 3205 O 294.59 4.79628 -3.06505 0
M  V30 3206 N 295.792 5.64186 -1.36654 0
M  V30 3207 H 298.557 1.71973 -2.45449 0
M  V30 3208 H 296.118 0.806077 -1.40407 0
M  V30 3209 H 298.11 3.88302 -1.14032 0
M  V30 3210 H 296.68 3.09686 -0.4258 0
M  V30 3211 H 295.9 2.69324 -2.87851 0
M  V30 3212 H 297.188 3.80284 -3.38026 0
M  V30 3213 H 296.586 5.6058 -0.759344 0
M  V30 3214 H 295.143 6.39618 -1.25425 0
M  V30 3215 N 298.576 1.31904 0.862503 0
M  V30 3216 C 299.526 1.16772 1.95827 0
M  V30 3217 C 300.51 0.0767098 1.60717 0
M  V30 3218 O 301.702 0.302407 1.74398 0
M  V30 3219 C 298.831 0.884858 3.317 0
M  V30 3220 C 297.917 2.0172 3.73055 0
M  V30 3221 N 298.308 3.265 3.86305 0
M  V30 3222 C 296.606 1.91861 4.02623 0
M  V30 3223 C 297.307 4.00616 4.2176 0
M  V30 3224 N 296.283 3.28847 4.32852 0
M  V30 3225 H 300.085 2.11382 2.04193 0
M  V30 3226 H 297.599 1.2357 1.05377 0
M  V30 3227 H 299.596 0.757419 4.09962 0
M  V30 3228 H 298.256 -0.0529448 3.24657 0
M  V30 3229 H 299.267 3.61529 3.70833 0
M  V30 3230 H 295.944 1.05593 4.03926 0
M  V30 3231 H 297.334 5.08182 4.39546 0
M  V30 3232 N 300.054 -1.07777 1.14986 0
M  V30 3233 C 301.3 -1.80557 0.923422 0
M  V30 3234 C 301.633 -1.86298 -0.548337 0
M  V30 3235 O 300.908 -1.34354 -1.40639 0
M  V30 3236 C 301.191 -3.25839 1.53299 0
M  V30 3237 C 301.044 -3.28269 3.07505 0
M  V30 3238 C 302.363 -4.22991 1.21518 0
M  V30 3239 H 299.482 -0.655493 0.336894 0
M  V30 3240 H 302.124 -1.26144 1.42083 0
M  V30 3241 H 300.274 -3.72306 1.10999 0
M  V30 3242 H 301.946 -2.90079 3.58681 0
M  V30 3243 H 300.189 -2.67355 3.4162 0
M  V30 3244 H 300.86 -4.30691 3.45266 0
M  V30 3245 H 303.336 -3.84894 1.581 0
M  V30 3246 H 302.212 -5.22945 1.66793 0
M  V30 3247 H 302.473 -4.41904 0.131505 0
M  V30 3248 N 301.532 -0.945985 -1.26051 0
M  V30 3249 C 302.772 -0.603665 -1.95282 0
M  V30 3250 C 303.136 0.842377 -1.72534 0
M  V30 3251 O 304.337 1.29387 -2.35611 0
M  V30 3252 C 302.608 -0.942292 -3.44754 0
M  V30 3253 S 304.167 -0.711242 -4.32997 0
M  V30 3254 H 300.985 -0.222176 -0.675395 0
M  V30 3255 H 303.587 -1.21832 -1.52896 0
M  V30 3256 H 302.291 -1.99203 -3.58812 0
M  V30 3257 H 301.822 -0.317546 -3.92116 0
M  V30 3258 H 303.837 0.422221 -4.944 0
M  V30 3259 N 303.011 1.40521 -0.713556 0
M  V30 3260 C 303.941 2.33381 -0.0743864 0
M  V30 3261 C 304.922 1.52784 0.747735 0
M  V30 3262 O 306.107 1.81258 0.697071 0
M  V30 3263 C 303.237 3.36748 0.849598 0
M  V30 3264 C 302.191 4.27793 0.133247 0
M  V30 3265 C 301.517 5.21679 1.17281 0
M  V30 3266 C 302.817 5.12415 -1.01134 0
M  V30 3267 H 304.511 2.87081 -0.850007 0
M  V30 3268 H 302.057 1.38034 -0.410201 0
M  V30 3269 H 304.01 4.00648 1.30612 0
M  V30 3270 H 302.734 2.81439 1.65709 0
M  V30 3271 H 301.393 3.65342 -0.303426 0
M  V30 3272 H 301.041 4.62677 1.9733 0
M  V30 3273 H 300.741 5.83435 0.698397 0
M  V30 3274 H 302.265 5.88456 1.62947 0
M  V30 3275 H 303.679 5.69781 -0.634274 0
M  V30 3276 H 302.076 5.83203 -1.41399 0
M  V30 3277 H 303.146 4.48514 -1.84292 0
M  V30 3278 N 304.489 0.459591 1.5075 0
M  V30 3279 C 305.714 -0.0996819 2.0716 0
M  V30 3280 C 306.139 -1.33761 1.32249 0
M  V30 3281 O 305.497 -1.77551 0.366786 0
M  V30 3282 C 305.545 -0.378226 3.58611 0
M  V30 3283 O 304.649 -1.46081 3.85661 0
M  V30 3284 H 303.99 0.00791392 0.663953 0
M  V30 3285 H 306.52 0.647329 1.9409 0
M  V30 3286 H 306.53 -0.622135 4.03229 0
M  V30 3287 H 305.205 0.526439 4.12555 0
M  V30 3288 H 303.782 -1.20511 3.5289 0
M  V30 3289 N 305.967 -1.56429 0.191757 0
M  V30 3290 C 307.378 -1.83912 -0.321428 0
M  V30 3291 C 307.729 -1.11231 -1.61623 0
M  V30 3292 O 306.854 -0.37202 -2.13178 0
M  V30 3293 C 307.449 -3.33624 -0.589961 0
M  V30 3294 C 306.008 -3.6153 -1.04753 0
M  V30 3295 C 305.155 -2.7714 -0.0943327 0
M  V30 3296 H 308.106 -1.53161 0.415612 0
M  V30 3297 H 308.127 -3.52213 -1.43966 0
M  V30 3298 H 307.639 -3.86495 0.352588 0
M  V30 3299 H 305.74 -3.14089 -2.00447 0
M  V30 3300 H 305.853 -4.69737 -0.942549 0
M  V30 3301 H 304.217 -2.47638 -0.595589 0
M  V30 3302 H 305 -3.32799 0.842601 0
M  V30 3303 N 307.445 0.0818655 -1.57387 0
M  V30 3304 C 308.67 0.799946 -1.91352 0
M  V30 3305 C 309.095 1.70833 -0.787258 0
M  V30 3306 O 308.453 1.79419 0.26048 0
M  V30 3307 C 308.501 1.57812 -3.24234 0
M  V30 3308 O 307.605 2.68806 -3.12757 0
M  V30 3309 H 306.946 0.21891 -0.626877 0
M  V30 3310 H 309.476 0.0531256 -2.04531 0
M  V30 3311 H 309.486 1.95952 -3.57864 0
M  V30 3312 H 308.161 0.911548 -4.05788 0
M  V30 3313 H 306.738 2.33597 -2.90666 0
M  V30 3314 N 308.923 1.53595 0.353017 0
M  V30 3315 C 310.339 1.43648 0.695516 0
M  V30 3316 C 310.539 0.585617 1.92802 0
M  V30 3317 O 309.595 0.0729223 2.52395 0
M  V30 3318 C 310.908 2.8701 0.896991 0
M  V30 3319 C 312.456 2.96723 0.996209 0
M  V30 3320 C 312.931 4.41173 1.23007 0
M  V30 3321 N 314.422 4.44657 1.29749 0
M  V30 3322 C 315.157 5.53547 1.49577 0
M  V30 3323 N 314.653 6.72461 1.66639 0
M  V30 3324 N 316.446 5.41145 1.52048 0
M  V30 3325 H 308.597 2.07415 -0.457481 0
M  V30 3326 H 310.86 0.9372 -0.142687 0
M  V30 3327 H 310.566 3.51644 0.0629938 0
M  V30 3328 H 310.44 3.31401 1.80148 0
M  V30 3329 H 312.827 2.32235 1.82074 0
M  V30 3330 H 312.908 2.55707 0.0688331 0
M  V30 3331 H 312.552 5.06238 0.410505 0
M  V30 3332 H 312.482 4.79772 2.17086 0
M  V30 3333 H 314.973 3.58963 1.18126 0
M  V30 3334 H 315.286 7.51214 1.81378 0
M  V30 3335 H 313.631 6.75423 1.63794 0
M  V30 3336 H 316.822 4.47205 1.38294 0
M  V30 3337 H 316.995 6.26068 1.67159 0
M  V30 3338 N 310.401 -0.613514 1.45168 0
M  V30 3339 C 311.331 -1.7354 1.56225 0
M  V30 3340 C 312.312 -1.64981 0.41414 0
M  V30 3341 O 313.497 -1.83472 0.636526 0
M  V30 3342 C 310.627 -3.12128 1.52295 0
M  V30 3343 C 309.581 -3.35491 2.65762 0
M  V30 3344 C 308.907 -4.74291 2.46885 0
M  V30 3345 C 310.207 -3.26325 4.0781 0
M  V30 3346 H 311.901 -1.64543 2.50132 0
M  V30 3347 H 309.447 -0.790185 1.20383 0
M  V30 3348 H 311.4 -3.90404 1.58628 0
M  V30 3349 H 310.124 -3.2195 0.549139 0
M  V30 3350 H 308.783 -2.59603 2.58847 0
M  V30 3351 H 308.431 -4.80839 1.47657 0
M  V30 3352 H 308.131 -4.9088 3.22972 0
M  V30 3353 H 309.655 -5.54775 2.55063 0
M  V30 3354 H 311.069 -3.94483 4.16 0
M  V30 3355 H 309.466 -3.54445 4.8424 0
M  V30 3356 H 310.536 -2.23855 4.30136 0
M  V30 3357 N 311.879 -1.3236 -0.855495 0
M  V30 3358 C 313.104 -1.2601 -1.64731 0
M  V30 3359 C 313.529 0.169068 -1.87339 0
M  V30 3360 O 312.887 1.12016 -1.42556 0
M  V30 3361 C 312.935 -2.02417 -2.98429 0
M  V30 3362 O 312.039 -1.3714 -3.8893 0
M  V30 3363 H 311.38 -0.434325 -0.502253 0
M  V30 3364 H 313.91 -1.74661 -1.06558 0
M  V30 3365 H 313.92 -2.12559 -3.48257 0
M  V30 3366 H 312.595 -3.06343 -2.81295 0
M  V30 3367 H 311.172 -1.3554 -3.47395 0
M  V30 3368 N 313.357 1.07166 -1.15556 0
M  V30 3369 C 314.307 2.12649 -0.82247 0
M  V30 3370 C 315.291 1.59725 0.194129 0
M  V30 3371 O 316.483 1.76999 -0.00540402 0
M  V30 3372 C 313.612 3.41847 -0.315572 0
M  V30 3373 C 312.698 4.0162 -1.36244 0
M  V30 3374 N 313.089 4.35625 -2.5703 0
M  V30 3375 C 311.387 4.29114 -1.21562 0
M  V30 3376 C 312.088 4.83017 -3.24144 0
M  V30 3377 N 311.064 4.81906 -2.51531 0
M  V30 3378 H 314.866 2.36776 -1.74111 0
M  V30 3379 H 312.38 1.24622 -1.0413 0
M  V30 3380 H 314.377 4.16859 -0.0585855 0
M  V30 3381 H 313.037 3.19163 0.597105 0
M  V30 3382 H 314.048 4.26253 -2.94158 0
M  V30 3383 H 310.725 4.15919 -0.362988 0
M  V30 3384 H 312.115 5.18605 -4.27198 0
M  V30 3385 N 314.835 0.952656 1.25548 0
M  V30 3386 C 315.765 0.489287 2.28316 0
M  V30 3387 C 316.746 -0.463359 1.63667 0
M  V30 3388 O 317.931 -0.36274 1.90782 0
M  V30 3389 C 315.061 -0.235603 3.465 0
M  V30 3390 C 314.015 0.631593 4.23314 0
M  V30 3391 C 313.341 -0.223923 5.34231 0
M  V30 3392 C 314.641 1.90871 4.86174 0
M  V30 3393 H 316.335 1.34822 2.67326 0
M  V30 3394 H 313.881 0.649728 1.28509 0
M  V30 3395 H 315.834 -0.570882 4.17515 0
M  V30 3396 H 314.558 -1.12877 3.06474 0
M  V30 3397 H 313.217 0.949929 3.54079 0
M  V30 3398 H 312.865 -1.11678 4.90446 0
M  V30 3399 H 312.565 0.35299 5.86539 0
M  V30 3400 H 314.089 -0.554214 6.0808 0
M  V30 3401 H 315.503 1.63997 5.49343 0
M  V30 3402 H 313.9 2.43112 5.4865 0
M  V30 3403 H 314.97 2.61304 4.08471 0
M  V30 3404 N 316.313 -1.40141 0.720998 0
M  V30 3405 C 317.56 -2.00787 0.262842 0
M  V30 3406 C 317.888 -1.5718 -1.14563 0
M  V30 3407 O 317.143 -0.785391 -1.79249 0
M  V30 3408 C 317.442 -3.56165 0.296892 0
M  V30 3409 C 317.108 -4.19373 1.65641 0
M  V30 3410 C 315.77 -4.36352 2.02855 0
M  V30 3411 C 318.122 -4.54578 2.54968 0
M  V30 3412 C 315.45 -4.8582 3.28931 0
M  V30 3413 C 317.802 -5.05447 3.80402 0
M  V30 3414 C 316.466 -5.20635 4.17726 0
M  V30 3415 H 315.736 -0.734731 0.0961807 0
M  V30 3416 H 318.383 -1.67673 0.925093 0
M  V30 3417 H 316.688 -3.8922 -0.448932 0
M  V30 3418 H 318.385 -4.00929 -0.0755208 0
M  V30 3419 H 314.975 -4.06549 1.35704 0
M  V30 3420 H 319.159 -4.41091 2.27491 0
M  V30 3421 H 314.415 -4.95764 3.57811 0
M  V30 3422 H 318.589 -5.31663 4.49786 0
M  V30 3423 H 316.216 -5.58728 5.15487 0
M  V30 3424 N 317.792 -0.46758 -1.50504 0
M  V30 3425 C 319.208 -0.121533 -1.59137 0
M  V30 3426 C 319.408 1.3717 -1.47603 0
M  V30 3427 O 318.464 2.14464 -1.33272 0
M  V30 3428 C 319.777 -0.6686 -2.93173 0
M  V30 3429 C 321.325 -0.631716 -3.06559 0
M  V30 3430 C 321.8 -1.15627 -4.43164 0
M  V30 3431 N 323.291 -1.11553 -4.49567 0
M  V30 3432 C 324.026 -1.49195 -5.5365 0
M  V30 3433 N 323.522 -1.94269 -6.65005 0
M  V30 3434 N 325.315 -1.4082 -5.44175 0
M  V30 3435 H 317.466 -1.4388 -1.56245 0
M  V30 3436 H 319.729 -0.594784 -0.738198 0
M  V30 3437 H 319.435 -1.71453 -3.07078 0
M  V30 3438 H 319.309 -0.11021 -3.77039 0
M  V30 3439 H 321.696 0.405297 -2.92304 0
M  V30 3440 H 321.777 -1.22687 -2.24458 0
M  V30 3441 H 321.421 -2.1919 -4.58168 0
M  V30 3442 H 321.351 -0.537365 -5.23851 0
M  V30 3443 H 323.842 -0.784895 -3.69659 0
M  V30 3444 H 324.155 -2.21148 -7.40482 0
M  V30 3445 H 322.5 -1.98219 -6.66134 0
M  V30 3446 H 325.691 -1.0545 -4.56068 0
M  V30 3447 H 325.864 -1.70481 -6.25172 0
M  V30 3448 N 319.27 1.56325 -0.20005 0
M  V30 3449 C 320.202 2.16555 0.750771 0
M  V30 3450 C 321.215 1.12871 1.1732 0
M  V30 3451 O 322.404 1.39943 1.10807 0
M  V30 3452 C 319.504 2.71684 2.02586 0
M  V30 3453 C 318.677 4.00321 1.76244 0
M  V30 3454 C 317.736 4.40227 2.88248 0
M  V30 3455 O 316.762 5.07552 2.57642 0
M  V30 3456 N 317.964 4.04138 4.16717 0
M  V30 3457 H 320.729 2.98772 0.235685 0
M  V30 3458 H 318.29 1.6189 -0.0182594 0
M  V30 3459 H 320.282 2.95363 2.76664 0
M  V30 3460 H 318.852 1.93893 2.45202 0
M  V30 3461 H 318.072 3.84723 0.85919 0
M  V30 3462 H 319.36 4.84279 1.56048 0
M  V30 3463 H 318.758 3.49993 4.44434 0
M  V30 3464 H 317.315 4.32756 4.87407 0
M  V30 3465 N 320.748 -0.0735177 1.57428 0
M  V30 3466 C 321.68 -1.11423 2.00294 0
M  V30 3467 C 322.693 -1.35084 0.908637 0
M  V30 3468 O 323.882 -1.33355 1.18654 0
M  V30 3469 C 320.982 -2.46548 2.32523 0
M  V30 3470 C 320.155 -2.42867 3.63778 0
M  V30 3471 C 319.214 -3.60087 3.83697 0
M  V30 3472 O 318.24 -3.41595 4.55304 0
M  V30 3473 N 319.442 -4.80372 3.25919 0
M  V30 3474 H 322.207 -0.749206 2.90184 0
M  V30 3475 H 319.768 -0.262195 1.59763 0
M  V30 3476 H 321.76 -3.23607 2.43024 0
M  V30 3477 H 320.33 -2.75059 1.48531 0
M  V30 3478 H 319.55 -1.51206 3.64047 0
M  V30 3479 H 320.838 -2.37506 4.49965 0
M  V30 3480 H 320.236 -4.983 2.67795 0
M  V30 3481 H 318.793 -5.54948 3.41871 0
M  V30 3482 N 322.226 -1.5378 -0.344866 0
M  V30 3483 C 323.156 -1.84662 -1.42906 0
M  V30 3484 C 324.137 -0.701648 -1.54955 0
M  V30 3485 O 325.322 -0.953438 -1.69184 0
M  V30 3486 C 322.452 -2.05503 -2.79974 0
M  V30 3487 C 321.406 -3.21318 -2.82734 0
M  V30 3488 C 320.732 -3.2749 -4.22675 0
M  V30 3489 C 322.032 -4.59456 -2.48389 0
M  V30 3490 H 323.726 -2.75461 -1.17311 0
M  V30 3491 H 321.272 -1.32542 -0.562896 0
M  V30 3492 H 323.225 -2.25691 -3.55867 0
M  V30 3493 H 321.949 -1.11434 -3.07002 0
M  V30 3494 H 320.608 -3.00984 -2.09294 0
M  V30 3495 H 320.256 -2.31019 -4.4681 0
M  V30 3496 H 319.956 -4.05316 -4.25433 0
M  V30 3497 H 321.48 -3.49887 -5.00412 0
M  V30 3498 H 322.894 -4.79667 -3.13995 0
M  V30 3499 H 321.291 -5.39675 -2.62432 0
M  V30 3500 H 322.361 -4.63155 -1.4358 0
M  V30 3501 N 323.704 0.605807 -1.45491 0
M  V30 3502 C 324.952 1.36207 -1.49305 0
M  V30 3503 C 325.273 1.94519 -0.136863 0
M  V30 3504 O 324.543 1.77261 0.833983 0
M  V30 3505 H 323.123 0.50565 -0.549843 0
M  V30 3506 H 325.785 0.711239 -1.81459 0
M  V30 3507 H 324.881 2.18058 -2.23287 0
M  V30 3508 N 325.182 1.32811 0.848464 0
M  V30 3509 C 326.431 1.23075 1.59798 0
M  V30 3510 C 326.744 -0.204419 1.94529 0
M  V30 3511 O 327.95 -0.423701 2.68173 0
M  V30 3512 C 326.406 2.15594 2.88179 0
M  V30 3513 C 326.014 3.64228 2.60849 0
M  V30 3514 C 327.758 2.14709 3.66197 0
M  V30 3515 C 325.665 4.48689 3.85269 0
M  V30 3516 H 324.595 0.457091 0.599653 0
M  V30 3517 H 327.246 1.57813 0.936342 0
M  V30 3518 H 325.628 1.73778 3.55833 0
M  V30 3519 H 326.802 4.14424 2.01467 0
M  V30 3520 H 325.117 3.67306 1.96151 0
M  V30 3521 H 327.714 2.75046 4.58534 0
M  V30 3522 H 328.057 1.13966 4.00397 0
M  V30 3523 H 328.59 2.54837 3.05455 0
M  V30 3524 H 325.329 5.5027 3.56207 0
M  V30 3525 H 324.849 4.03241 4.44024 0
M  V30 3526 H 326.528 4.62006 4.52946 0
M  V30 3527 N 326.66 -1.06551 1.16123 0
M  V30 3528 C 327.885 -1.83544 0.965735 0
M  V30 3529 C 328.31 -1.81843 -0.481102 0
M  V30 3530 O 327.668 -1.21732 -1.34354 0
M  V30 3531 C 327.716 -3.28169 1.49457 0
M  V30 3532 O 326.82 -4.0643 0.699157 0
M  V30 3533 H 326.161 -0.568026 0.343864 0
M  V30 3534 H 328.691 -1.34362 1.54299 0
M  V30 3535 H 328.701 -3.78992 1.51092 0
M  V30 3536 H 327.376 -3.28722 2.54784 0
M  V30 3537 H 325.953 -3.65216 0.7531 0
M  V30 3538 N 328.138 -0.959301 -1.25041 0
M  V30 3539 C 329.384 -0.617525 -1.9317 0
M  V30 3540 C 329.717 0.843981 -1.74902 0
M  V30 3541 O 328.992 1.60615 -1.09696 0
M  V30 3542 C 329.275 -0.982736 -3.46431 0
M  V30 3543 C 329.128 -2.50032 -3.73904 0
M  V30 3544 C 330.447 -0.511176 -4.37121 0
M  V30 3545 H 327.566 -0.22582 -0.701552 0
M  V30 3546 H 330.208 -1.19679 -1.4757 0
M  V30 3547 H 328.358 -0.489806 -3.854 0
M  V30 3548 H 330.03 -3.06737 -3.44544 0
M  V30 3549 H 328.273 -2.93598 -3.19348 0
M  V30 3550 H 328.944 -2.70635 -4.81103 0
M  V30 3551 H 331.42 -0.934075 -4.0548 0
M  V30 3552 H 330.296 -0.795361 -5.43107 0
M  V30 3553 H 330.557 0.588834 -4.38161 0
M  V30 3554 N 329.616 1.39756 -0.72842 0
M  V30 3555 C 330.546 2.33289 -0.0991354 0
M  V30 3556 C 331.527 1.53568 0.731489 0
M  V30 3557 O 332.712 1.81987 0.677807 0
M  V30 3558 C 329.842 3.3763 0.813834 0
M  V30 3559 C 328.796 4.2791 0.0878663 0
M  V30 3560 C 328.122 5.22894 1.11741 0
M  V30 3561 C 329.422 5.11314 -1.06563 0
M  V30 3562 H 331.116 2.86163 -0.880408 0
M  V30 3563 H 328.662 1.37591 -0.424819 0
M  V30 3564 H 330.615 4.0201 1.26355 0
M  V30 3565 H 329.339 2.83181 1.62715 0
M  V30 3566 H 327.998 3.65 -0.342159 0
M  V30 3567 H 327.646 4.64744 1.92412 0
M  V30 3568 H 327.346 5.84143 0.636477 0
M  V30 3569 H 328.87 5.90151 1.56697 0
M  V30 3570 H 330.284 5.69076 -0.694671 0
M  V30 3571 H 328.681 5.81671 -1.47577 0
M  V30 3572 H 329.751 4.46534 -1.89038 0
M  V30 3573 N 331.094 0.475555 1.50254 0
M  V30 3574 C 332.319 -0.0777042 2.07254 0
M  V30 3575 C 332.744 -1.3235 1.3366 0
M  V30 3576 O 332.102 -1.77152 0.385597 0
M  V30 3577 C 332.15 -0.340169 3.58992 0
M  V30 3578 O 331.254 -1.41982 3.87188 0
M  V30 3579 H 330.595 0.0149556 0.663832 0
M  V30 3580 H 333.125 0.667878 1.93392 0
M  V30 3581 H 333.135 -0.579332 4.03866 0
M  V30 3582 H 331.81 0.570167 4.11973 0
M  V30 3583 H 330.387 -1.16762 3.54148 0
M  V30 3584 N 332.573 -1.56217 0.208337 0
M  V30 3585 C 333.819 -1.98998 -0.42086 0
M  V30 3586 C 334.174 -1.09331 -1.58317 0
M  V30 3587 O 333.467 -0.140466 -1.91084 0
M  V30 3588 C 333.661 -3.45441 -0.916797 0
M  V30 3589 C 333.49 -4.49273 0.195925 0
M  V30 3590 C 332.26 -5.00998 0.657956 0
M  V30 3591 C 334.458 -5.04294 1.00956 0
M  V30 3592 N 332.44 -5.88514 1.74712 0
M  V30 3593 C 333.811 -5.88607 1.94785 0
M  V30 3594 C 335.866 -4.86692 1.05049 0
M  V30 3595 C 334.569 -6.572 2.9237 0
M  V30 3596 C 336.595 -5.56034 2.01446 0
M  V30 3597 C 335.957 -6.40105 2.94016 0
M  V30 3598 H 332.056 -0.772574 -0.121048 0
M  V30 3599 H 334.64 -1.92101 0.317075 0
M  V30 3600 H 332.811 -3.52812 -1.62413 0
M  V30 3601 H 334.543 -3.75164 -1.51771 0
M  V30 3602 H 331.298 -4.72945 0.248912 0
M  V30 3603 H 331.722 -6.36975 2.2933 0
M  V30 3604 H 336.364 -4.21359 0.348759 0
M  V30 3605 H 334.082 -7.21723 3.63512 0
M  V30 3606 H 337.668 -5.44385 2.0527 0
M  V30 3607 H 336.548 -6.92816 3.6739 0
M  V30 3608 N 334.051 0.0651679 -1.57465 0
M  V30 3609 C 335.467 0.420105 -1.53972 0
M  V30 3610 C 335.667 1.78782 -0.929474 0
M  V30 3611 O 334.723 2.46771 -0.534839 0
M  V30 3612 C 336.036 0.355084 -2.98596 0
M  V30 3613 C 337.584 0.434792 -3.09965 0
M  V30 3614 C 338.059 0.399609 -4.56253 0
M  V30 3615 N 339.55 0.459488 -4.60915 0
M  V30 3616 C 340.285 0.454584 -5.71595 0
M  V30 3617 N 339.781 0.404102 -6.9162 0
M  V30 3618 N 341.574 0.501635 -5.59857 0
M  V30 3619 H 333.725 -0.830328 -1.95498 0
M  V30 3620 H 335.988 -0.312244 -0.895102 0
M  V30 3621 H 335.694 -0.583357 -3.46828 0
M  V30 3622 H 335.568 1.16275 -3.58831 0
M  V30 3623 H 337.955 1.36366 -2.61703 0
M  V30 3624 H 338.036 -0.40157 -2.52628 0
M  V30 3625 H 337.68 -0.525436 -5.05175 0
M  V30 3626 H 337.61 1.25359 -5.11461 0
M  V30 3627 H 340.101 0.502482 -3.74544 0
M  V30 3628 H 340.414 0.404468 -7.71741 0
M  V30 3629 H 338.759 0.37069 -6.94011 0
M  V30 3630 H 341.95 0.538812 -4.64989 0
M  V30 3631 H 342.123 0.494345 -6.46112 0
M  V30 3632 N 335.529 1.53961 0.336706 0
M  V30 3633 C 336.439 1.85432 1.43708 0
M  V30 3634 C 337.455 0.745053 1.57242 0
M  V30 3635 O 338.631 1.03804 1.72588 0
M  V30 3636 C 335.696 2.06349 2.78605 0
M  V30 3637 C 334.757 3.30191 2.74358 0
M  V30 3638 C 333.99 3.50101 4.02822 0
M  V30 3639 O 334.213 2.7371 5.00439 0
M  V30 3640 O 333.147 4.43547 4.06878 0
M  V30 3641 H 336.973 2.78975 1.20028 0
M  V30 3642 H 334.558 1.39701 0.52952 0
M  V30 3643 H 336.44 2.21513 3.58483 0
M  V30 3644 H 335.115 1.15995 3.02203 0
M  V30 3645 H 334.022 3.20425 1.93078 0
M  V30 3646 H 335.355 4.2056 2.55715 0
M  V30 3647 N 337.007 -0.598083 1.45811 0
M  V30 3648 C 338.284 -1.35777 1.40797 0
M  V30 3649 C 338.664 -2.10935 0.083462 0
M  V30 3650 O 338.012 -2.08505 -0.934763 0
M  V30 3651 C 338.222 -2.29666 2.62783 0
M  V30 3652 C 339.57 -2.91977 3.08277 0
M  V30 3653 O 340.594 -2.39984 2.63223 0
M  V30 3654 O 339.453 -3.86376 3.86491 0
M  V30 3655 H 336.547 -0.609291 0.55919 0
M  V30 3656 H 339.093 -0.620379 1.57954 0
M  V30 3657 H 337.865 -1.73454 3.50756 0
M  V30 3658 H 337.488 -3.1077 2.48008 0
M  V30 3659 N 338.485 -1.33259 -0.841409 0
M  V30 3660 C 339.417 -1.19136 -1.95804 0
M  V30 3661 C 340.43 -0.122965 -1.62335 0
M  V30 3662 O 341.619 -0.373154 -1.74556 0
M  V30 3663 C 338.719 -0.804268 -3.29218 0
M  V30 3664 C 337.892 -1.96376 -3.90839 0
M  V30 3665 C 336.951 -1.55806 -5.02604 0
M  V30 3666 O 335.977 -2.27203 -5.21888 0
M  V30 3667 N 337.179 -0.461609 -5.78662 0
M  V30 3668 H 339.944 -2.15326 -2.08458 0
M  V30 3669 H 337.505 -1.25971 -1.017 0
M  V30 3670 H 339.497 -0.51501 -4.0141 0
M  V30 3671 H 338.067 0.0668809 -3.12528 0
M  V30 3672 H 337.287 -2.41879 -3.11269 0
M  V30 3673 H 338.575 -2.73966 -4.28742 0
M  V30 3674 H 337.973 0.132343 -5.65545 0
M  V30 3675 H 336.53 -0.232013 -6.51387 0
M  V30 3676 N 339.963 1.05934 -1.16686 0
M  V30 3677 C 341.379 1.30938 -0.912542 0
M  V30 3678 C 341.579 1.96803 0.432533 0
M  V30 3679 O 340.635 2.23693 1.17123 0
M  V30 3680 C 341.948 2.18649 -2.06429 0
M  V30 3681 C 343.496 2.32055 -2.10047 0
M  V30 3682 C 343.971 3.23122 -3.24586 0
M  V30 3683 N 345.462 3.30706 -3.24327 0
M  V30 3684 C 346.197 4.01273 -4.09594 0
M  V30 3685 N 345.693 4.74332 -5.04956 0
M  V30 3686 N 347.486 3.97361 -3.97569 0
M  V30 3687 H 339.637 0.615777 -2.03278 0
M  V30 3688 H 341.9 0.334077 -0.887185 0
M  V30 3689 H 341.606 1.77534 -3.03603 0
M  V30 3690 H 341.48 3.19252 -2.00894 0
M  V30 3691 H 343.867 2.72415 -1.13464 0
M  V30 3692 H 343.948 1.31107 -2.19647 0
M  V30 3693 H 343.592 2.83477 -4.2143 0
M  V30 3694 H 343.522 4.24057 -3.12223 0
M  V30 3695 H 346.013 2.78644 -2.55276 0
M  V30 3696 H 346.326 5.25716 -5.6643 0
M  V30 3697 H 344.671 4.733 -5.08933 0
M  V30 3698 H 347.862 3.39405 -3.22369 0
M  V30 3699 H 348.035 4.52089 -4.64241 0
M  V30 3700 N 341.441 0.965919 1.2453 0
M  V30 3701 C 342.69 0.622437 1.91856 0
M  V30 3702 C 343.003 -0.846006 1.76358 0
M  V30 3703 O 344.209 -1.29993 2.38357 0
M  V30 3704 C 342.665 1.0626 3.43856 0
M  V30 3705 C 342.273 2.55437 3.68043 0
M  V30 3706 C 344.017 0.792183 4.17043 0
M  V30 3707 C 341.924 2.93196 5.13605 0
M  V30 3708 H 340.854 0.229092 0.718354 0
M  V30 3709 H 343.505 1.17189 1.41206 0
M  V30 3710 H 341.887 0.441476 3.93531 0
M  V30 3711 H 343.061 3.22665 3.28974 0
M  V30 3712 H 341.376 2.8007 3.08139 0
M  V30 3713 H 343.973 1.05031 5.24283 0
M  V30 3714 H 344.316 -0.271584 4.15413 0
M  V30 3715 H 344.849 1.37419 3.73311 0
M  V30 3716 H 341.588 3.98636 5.20355 0
M  V30 3717 H 341.108 2.30651 5.53679 0
M  V30 3718 H 342.787 2.83004 5.81823 0
M  V30 3719 N 342.919 -1.39368 0.735821 0
M  V30 3720 C 344.144 -2.05319 0.293052 0
M  V30 3721 C 344.569 -1.55115 -1.064 0
M  V30 3722 O 343.927 -0.695261 -1.67439 0
M  V30 3723 C 343.975 -3.59305 0.305323 0
M  V30 3724 O 343.079 -4.06299 -0.706761 0
M  V30 3725 H 342.42 -0.650529 0.13307 0
M  V30 3726 H 344.95 -1.78386 1.00197 0
M  V30 3727 H 344.96 -4.07724 0.149997 0
M  V30 3728 H 343.635 -3.95207 1.29553 0
M  V30 3729 H 342.212 -3.69292 -0.517504 0
M  V30 3730 N 344.397 -0.483516 -1.5 0
M  V30 3731 C 345.329 0.340634 -2.26655 0
M  V30 3732 C 346.342 0.946152 -1.32483 0
M  V30 3733 O 347.531 0.832453 -1.579 0
M  V30 3734 C 344.631 1.4929 -3.04246 0
M  V30 3735 C 343.804 0.997903 -4.25865 0
M  V30 3736 C 342.863 2.02569 -4.85646 0
M  V30 3737 O 341.889 1.60128 -5.46212 0
M  V30 3738 N 343.091 3.3548 -4.73744 0
M  V30 3739 H 345.856 -0.316577 -2.98023 0
M  V30 3740 H 343.417 -0.315024 -1.58806 0
M  V30 3741 H 345.409 2.17766 -3.41116 0
M  V30 3742 H 343.979 2.05458 -2.35597 0
M  V30 3743 H 343.199 0.138617 -3.93956 0
M  V30 3744 H 344.487 0.645305 -5.04691 0
M  V30 3745 H 343.885 3.72661 -4.25605 0
M  V30 3746 H 342.442 3.99718 -5.14848 0
M  V30 3747 N 345.875 1.56104 -0.216619 0
M  V30 3748 C 346.838 2.18819 0.681962 0
M  V30 3749 C 347.838 1.14866 1.12528 0
M  V30 3750 O 349.028 1.40128 1.03488 0
M  V30 3751 C 346.16 2.80756 1.93362 0
M  V30 3752 H 347.353 2.99595 0.135254 0
M  V30 3753 H 344.906 1.56265 0.0330003 0
M  V30 3754 H 345.641 2.03837 2.52232 0
M  V30 3755 H 345.426 3.56876 1.62426 0
M  V30 3756 H 346.916 3.28844 2.57393 0
M  V30 3757 N 347.353 -0.0568162 1.57498 0
M  V30 3758 C 348.3 -1.06591 2.04712 0
M  V30 3759 C 349.27 -1.3758 0.930644 0
M  V30 3760 O 350.455 -1.48392 1.19935 0
M  V30 3761 C 347.595 -2.3701 2.50839 0
M  V30 3762 C 346.708 -2.12421 3.76167 0
M  V30 3763 C 345.843 -3.36511 4.11015 0
M  V30 3764 C 344.882 -3.07353 5.2934 0
M  V30 3765 N 344.019 -4.23816 5.59754 0
M  V30 3766 H 348.859 -0.65631 2.90683 0
M  V30 3767 H 346.396 -0.312481 1.43743 0
M  V30 3768 H 348.354 -3.13175 2.7564 0
M  V30 3769 H 346.984 -2.75744 1.67825 0
M  V30 3770 H 346.036 -1.2688 3.58616 0
M  V30 3771 H 347.348 -1.86894 4.62463 0
M  V30 3772 H 346.502 -4.21062 4.36797 0
M  V30 3773 H 345.241 -3.65128 3.23315 0
M  V30 3774 H 344.246 -2.212 5.03339 0
M  V30 3775 H 345.471 -2.80043 6.1867 0
M  V30 3776 H 343.417 -4.52436 4.75014 0
M  V30 3777 H 343.334 -4.01614 6.40501 0
M  V30 3778 H 344.602 -5.0932 5.90096 0
M  V30 3779 N 348.832 -1.54138 -0.328536 0
M  V30 3780 C 349.762 -1.86167 -1.40939 0
M  V30 3781 C 350.743 -0.718044 -1.54202 0
M  V30 3782 O 351.928 -0.971328 -1.68163 0
M  V30 3783 C 349.058 -2.08461 -2.77779 0
M  V30 3784 C 348.012 -3.24299 -2.7931 0
M  V30 3785 C 347.338 -3.31955 -4.19178 0
M  V30 3786 C 348.638 -4.62065 -2.43502 0
M  V30 3787 H 350.332 -2.76689 -1.14383 0
M  V30 3788 H 347.878 -1.33132 -0.548806 0
M  V30 3789 H 349.831 -2.29453 -3.53454 0
M  V30 3790 H 348.555 -1.14684 -3.05802 0
M  V30 3791 H 347.214 -3.03187 -2.0609 0
M  V30 3792 H 346.862 -2.35745 -4.44335 0
M  V30 3793 H 346.562 -4.09805 -4.2111 0
M  V30 3794 H 348.086 -3.55175 -4.96672 0
M  V30 3795 H 349.5 -4.8297 -3.08889 0
M  V30 3796 H 347.897 -5.42429 -2.56693 0
M  V30 3797 H 348.967 -4.64652 -1.38659 0
M  V30 3798 N 350.31 0.590341 -1.46126 0
M  V30 3799 C 351.24 1.71032 -1.58966 0
M  V30 3800 C 352.221 1.64302 -0.440335 0
M  V30 3801 O 353.406 1.82436 -0.665634 0
M  V30 3802 C 350.536 3.09665 -1.57241 0
M  V30 3803 C 349.49 3.31221 -2.71066 0
M  V30 3804 C 348.816 4.70303 -2.54399 0
M  V30 3805 C 350.116 3.19796 -4.1295 0
M  V30 3806 H 351.81 1.60543 -2.52718 0
M  V30 3807 H 349.356 0.770933 -1.21625 0
M  V30 3808 H 351.309 3.87831 -1.64819 0
M  V30 3809 H 350.033 3.21036 -0.600289 0
M  V30 3810 H 348.692 2.55452 -2.62944 0
M  V30 3811 H 348.34 4.78429 -1.55288 0
M  V30 3812 H 348.04 4.85679 -3.30741 0
M  V30 3813 H 349.564 5.50647 -2.63857 0
M  V30 3814 H 350.978 3.87815 -4.22223 0
M  V30 3815 H 349.375 3.46696 -4.89818 0
M  V30 3816 H 350.445 2.16983 -4.33643 0
M  V30 3817 N 351.788 1.33704 0.83433 0
M  V30 3818 C 352.718 1.26967 1.95963 0
M  V30 3819 C 353.699 0.149337 1.69443 0
M  V30 3820 O 354.884 0.339852 1.91203 0
M  V30 3821 C 352.014 1.01275 3.32206 0
M  V30 3822 C 350.968 2.09652 3.73136 0
M  V30 3823 C 350.294 1.69166 5.07235 0
M  V30 3824 C 351.594 3.51372 3.86439 0
M  V30 3825 H 353.288 2.2112 2.01857 0
M  V30 3826 H 350.834 1.06447 0.969793 0
M  V30 3827 H 352.787 0.952106 4.10503 0
M  V30 3828 H 351.511 0.0356203 3.26581 0
M  V30 3829 H 350.17 2.14766 2.97104 0
M  V30 3830 H 349.818 0.701437 4.98085 0
M  V30 3831 H 349.518 2.41694 5.35591 0
M  V30 3832 H 351.042 1.64576 5.88003 0
M  V30 3833 H 352.456 3.48734 4.55036 0
M  V30 3834 H 350.853 4.22425 4.26236 0
M  V30 3835 H 351.923 3.89546 2.88759 0
M  V30 3836 N 353.266 -1.05314 1.17247 0
M  V30 3837 C 354.491 -1.82509 0.985148 0
M  V30 3838 C 354.916 -1.82343 -0.461788 0
M  V30 3839 O 354.274 -1.23151 -1.33055 0
M  V30 3840 C 354.322 -3.26566 1.52929 0
M  V30 3841 O 353.426 -4.05666 0.742225 0
M  V30 3842 H 352.767 -0.564347 0.349869 0
M  V30 3843 H 355.297 -1.32718 1.55715 0
M  V30 3844 H 355.307 -3.77369 1.55103 0
M  V30 3845 H 353.982 -3.26001 2.58256 0
M  V30 3846 H 352.559 -3.64397 0.791794 0
M  V30 3847 N 354.744 -0.972509 -1.24016 0
M  V30 3848 C 355.972 -0.654803 -1.96265 0
M  V30 3849 C 356.387 0.776708 -1.72083 0
M  V30 3850 O 355.744 1.52171 -1.00748 0
M  V30 3851 C 355.795 -0.92592 -3.49441 0
M  V30 3852 O 355.516 -2.30116 -3.72798 0
M  V30 3853 C 357.017 -0.623068 -4.38899 0
M  V30 3854 H 354.237 -0.243907 -0.6251 0
M  V30 3855 H 356.781 -1.30175 -1.57717 0
M  V30 3856 H 354.936 -0.325108 -3.86033 0
M  V30 3857 H 355.35 -2.38483 -4.67147 0
M  V30 3858 H 356.824 -0.863189 -5.45209 0
M  V30 3859 H 357.301 0.442754 -4.36963 0
M  V30 3860 H 357.907 -1.204 -4.07902 0
M  V30 3861 N 356.222 1.38976 -0.743202 0
M  V30 3862 C 357.45 2.04636 -0.30525 0
M  V30 3863 C 357.865 1.56044 1.06281 0
M  V30 3864 O 357.222 0.728921 1.67311 0
M  V30 3865 C 357.273 3.60193 -0.307177 0
M  V30 3866 O 356.994 4.06998 -1.62124 0
M  V30 3867 C 358.495 4.4306 0.145928 0
M  V30 3868 H 355.715 0.65788 -0.132041 0
M  V30 3869 H 358.259 1.77866 -1.00915 0
M  V30 3870 H 356.414 3.85835 0.347898 0
M  V30 3871 H 356.828 5.01371 -1.54036 0
M  V30 3872 H 358.302 5.51921 0.0934183 0
M  V30 3873 H 358.779 4.22706 1.19231 0
M  V30 3874 H 359.385 4.22584 -0.479886 0
M  V30 3875 N 357.7 0.491464 1.49741 0
M  V30 3876 C 359.116 0.146835 1.58923 0
M  V30 3877 C 359.316 -1.34804 1.49767 0
M  V30 3878 O 358.372 -2.12317 1.36667 0
M  V30 3879 C 359.685 0.715157 2.92072 0
M  V30 3880 C 361.233 0.680407 3.05515 0
M  V30 3881 C 361.708 1.22663 4.41269 0
M  V30 3882 N 363.199 1.18691 4.47735 0
M  V30 3883 C 363.934 1.57984 5.51207 0
M  V30 3884 N 363.43 2.04824 6.6183 0
M  V30 3885 N 365.223 1.49459 5.41866 0
M  V30 3886 H 357.374 1.46347 1.53936 0
M  V30 3887 H 359.637 0.606453 0.728642 0
M  V30 3888 H 359.343 1.76317 3.04311 0
M  V30 3889 H 359.217 0.17018 3.76816 0
M  V30 3890 H 361.604 -0.358743 2.92911 0
M  V30 3891 H 361.685 1.26242 2.22478 0
M  V30 3892 H 361.329 2.26451 4.54623 0
M  V30 3893 H 361.259 0.620637 5.2293 0
M  V30 3894 H 363.75 0.843605 3.68364 0
M  V30 3895 H 364.063 2.32901 7.3687 0
M  V30 3896 H 362.408 2.08791 6.62896 0
M  V30 3897 H 365.599 1.12692 4.54333 0
M  V30 3898 H 365.772 1.80406 6.22381 0
M  V30 3899 N 359.178 -1.55987 0.224894 0
M  V30 3900 C 360.111 -2.16413 -0.723929 0
M  V30 3901 C 361.089 -1.10952 -1.18863 0
M  V30 3902 O 362.273 -1.39225 -1.27077 0
M  V30 3903 C 359.4 -2.74711 -1.98121 0
M  V30 3904 C 358.446 -3.9303 -1.6562 0
M  V30 3905 S 359.279 -5.29817 -0.778058 0
M  V30 3906 C 360.435 -5.91555 -2.04483 0
M  V30 3907 H 360.668 -2.96555 -0.210347 0
M  V30 3908 H 358.201 -1.54397 0.00955457 0
M  V30 3909 H 360.159 -3.08938 -2.70311 0
M  V30 3910 H 358.82 -1.94555 -2.46591 0
M  V30 3911 H 358.013 -4.32334 -2.59043 0
M  V30 3912 H 357.615 -3.59966 -1.01491 0
M  V30 3913 H 359.907 -6.07732 -2.99446 0
M  V30 3914 H 360.85 -6.87498 -1.69563 0
M  V30 3915 H 361.258 -5.20419 -2.18688 0
M  V30 3916 N 360.656 0.0484629 -1.57525 0
M  V30 3917 C 362.067 0.597486 -1.76881 0
M  V30 3918 C 362.418 1.76664 -0.853475 0
M  V30 3919 O 361.543 2.16357 -0.0433656 0
M  V30 3920 C 362.138 1.09066 -3.20765 0
M  V30 3921 C 360.697 1.58535 -3.41385 0
M  V30 3922 C 359.844 0.514868 -2.72478 0
M  V30 3923 H 362.795 -0.177758 -1.57701 0
M  V30 3924 H 362.816 1.95875 -3.2621 0
M  V30 3925 H 362.328 0.239521 -3.8736 0
M  V30 3926 H 360.429 2.45898 -2.79937 0
M  V30 3927 H 360.542 1.64622 -4.49929 0
M  V30 3928 H 358.906 0.965407 -2.35695 0
M  V30 3929 H 359.689 -0.32648 -3.41744 0
M  V30 3930 N 362.134 1.5431 0.320358 0
M  V30 3931 C 363.383 1.7188 1.05546 0
M  V30 3932 C 363.696 0.501143 1.89071 0
M  V30 3933 O 364.902 0.558258 2.65699 0
M  V30 3934 C 363.358 3.04025 1.92605 0
M  V30 3935 C 362.966 4.33207 1.14176 0
M  V30 3936 C 364.71 3.30959 2.65832 0
M  V30 3937 C 362.617 5.56412 2.00399 0
M  V30 3938 H 361.547 0.640547 0.397763 0
M  V30 3939 H 364.198 1.80802 0.313522 0
M  V30 3940 H 362.58 2.89019 2.7071 0
M  V30 3941 H 363.754 4.58989 0.40819 0
M  V30 3942 H 362.069 4.13062 0.526165 0
M  V30 3943 H 364.666 4.20203 3.30656 0
M  V30 3944 H 365.009 2.48979 3.33639 0
M  V30 3945 H 365.542 3.46847 1.94787 0
M  V30 3946 H 362.281 6.41004 1.37094 0
M  V30 3947 H 361.801 5.34844 2.7148 0
M  V30 3948 H 363.48 5.92938 2.58908 0
M  V30 3949 N 363.613 -0.582584 1.46437 0
M  V30 3950 C 364.576 -1.67366 1.56592 0
M  V30 3951 C 365.576 -1.54575 0.443072 0
M  V30 3952 O 366.766 -1.59191 0.707381 0
M  V30 3953 C 363.898 -3.06791 1.48634 0
M  V30 3954 H 365.091 -1.5972 2.5383 0
M  V30 3955 H 362.644 -0.800432 1.34249 0
M  V30 3956 H 363.379 -3.19993 0.526763 0
M  V30 3957 H 363.164 -3.17484 2.30101 0
M  V30 3958 H 364.654 -3.86218 1.58826 0
M  V30 3959 N 365.091 -1.34144 -0.827227 0
M  V30 3960 C 366.319 -1.29325 -1.61501 0
M  V30 3961 C 366.734 0.13354 -1.88327 0
M  V30 3962 O 366.091 1.0793 -1.47164 0
M  V30 3963 C 366.142 -2.07746 -2.95844 0
M  V30 3964 O 365.863 -3.4486 -2.70191 0
M  V30 3965 C 367.364 -2.10273 -3.90256 0
M  V30 3966 H 364.584 -0.445069 -0.50215 0
M  V30 3967 H 367.128 -1.76693 -1.02955 0
M  V30 3968 H 365.283 -1.6403 -3.5096 0
M  V30 3969 H 365.697 -3.85345 -3.55822 0
M  V30 3970 H 367.171 -2.69575 -4.81698 0
M  V30 3971 H 367.648 -1.096 -4.25305 0
M  V30 3972 H 368.254 -2.54059 -3.41078 0
M  V30 3973 N 366.569 1.04691 -1.17803 0
M  V30 3974 C 367.815 1.78045 -0.970969 0
M  V30 3975 C 368.148 1.87686 0.498751 0
M  V30 3976 O 367.423 1.38035 1.37027 0
M  V30 3977 C 367.706 3.2166 -1.61884 0
M  V30 3978 C 367.559 3.20001 -3.161 0
M  V30 3979 C 368.878 4.1962 -1.3269 0
M  V30 3980 H 365.997 0.64633 -0.354155 0
M  V30 3981 H 368.639 1.22333 -1.45378 0
M  V30 3982 H 366.789 3.69232 -1.20831 0
M  V30 3983 H 368.461 2.80467 -3.66246 0
M  V30 3984 H 366.704 2.58203 -3.48588 0
M  V30 3985 H 367.375 4.21386 -3.56564 0
M  V30 3986 H 369.851 3.80567 -1.68249 0
M  V30 3987 H 368.727 5.18339 -1.80599 0
M  V30 3988 H 368.988 4.414 -0.248622 0
M  V30 3989 N 368.047 0.979072 1.23499 0
M  V30 3990 C 369.295 0.645941 1.91499 0
M  V30 3991 C 369.616 -0.822948 1.76784 0
M  V30 3992 O 368.886 -1.58854 1.14639 0
M  V30 3993 H 367.466 0.235919 0.708767 0
M  V30 3994 H 370.128 1.2426 1.50152 0
M  V30 3995 H 369.224 0.896411 2.9895 0
M  V30 3996 N 369.525 -1.3858 0.750561 0
M  V30 3997 C 370.941 -1.53759 0.427824 0
M  V30 3998 C 371.141 -1.71401 -1.05943 0
M  V30 3999 O 370.197 -1.72331 -1.84549 0
M  V30 4000 C 371.51 -2.74642 1.22443 0
M  V30 4001 C 373.058 -2.88489 1.2142 0
M  V30 4002 C 373.533 -4.12329 1.9937 0
M  V30 4003 N 375.024 -4.194 1.96616 0
M  V30 4004 C 375.759 -5.14209 2.53727 0
M  V30 4005 N 375.255 -6.14709 3.19539 0
M  V30 4006 N 377.048 -5.06537 2.43673 0
M  V30 4007 H 369.199 -1.25377 1.71447 0
M  V30 4008 H 371.462 -0.608844 0.726645 0
M  V30 4009 H 371.168 -2.68 2.27747 0
M  V30 4010 H 371.042 -3.67745 0.839273 0
M  V30 4011 H 373.429 -2.94614 0.169232 0
M  V30 4012 H 373.51 -1.96406 1.63885 0
M  V30 4013 H 373.154 -4.06966 3.03877 0
M  V30 4014 H 373.084 -5.03486 1.54302 0
M  V30 4015 H 375.575 -3.47421 1.48684 0
M  V30 4016 H 375.888 -6.8354 3.60545 0
M  V30 4017 H 374.233 -6.1505 3.23633 0
M  V30 4018 H 377.424 -4.26962 1.91889 0
M  V30 4019 H 377.597 -5.80245 2.88479 0
M  V30 4020 N 371.003 -0.499398 -1.49478 0
M  V30 4021 C 371.951 0.293604 -2.3074 0
M  V30 4022 C 372.945 0.96427 -1.39277 0
M  V30 4023 O 374.151 0.892141 -1.56336 0
M  V30 4024 H 370.526 0.113541 -0.743379 0
M  V30 4025 H 372.497 -0.411772 -2.95545 0
M  V30 4026 C 371.246 1.3462 -3.20582 0
M  V30 4027 H 370.569 0.83954 -3.90886 0
M  V30 4028 H 372.009 1.87308 -3.80384 0
M  V30 4029 C 370.468 2.36351 -2.40083 0
M  V30 4030 O 370.998 3.422 -2.10385 0
M  V30 4031 N 369.204 2.0878 -2.02137 0
M  V30 4032 H 368.751 1.22723 -2.26488 0
M  V30 4033 H 368.709 2.77075 -1.48583 0
M  V30 4034 N 372.481 1.55866 -0.233164 0
M  V30 4035 C 373.727 1.98897 0.395959 0
M  V30 4036 C 374.06 1.12091 1.58585 0
M  V30 4037 O 373.335 0.181182 1.93654 0
M  V30 4038 C 373.618 3.50658 0.819224 0
M  V30 4039 C 373.471 4.48233 -0.375109 0
M  V30 4040 C 374.79 4.07135 1.67121 0
M  V30 4041 H 371.909 0.723102 0.142451 0
M  V30 4042 H 374.551 1.87082 -0.331725 0
M  V30 4043 H 372.701 3.60857 1.43925 0
M  V30 4044 H 374.373 4.50031 -1.01341 0
M  V30 4045 H 372.616 4.21624 -1.02058 0
M  V30 4046 H 373.287 5.51988 -0.0358328 0
M  V30 4047 H 375.763 3.99952 1.14795 0
M  V30 4048 H 374.639 5.13615 1.93625 0
M  V30 4049 H 374.9 3.54736 2.63846 0
M  V30 4050 N 373.959 -0.0401083 1.57549 0
M  V30 4051 C 375.207 -0.731677 1.8839 0
M  V30 4052 C 375.528 -1.76481 0.829425 0
M  V30 4053 O 374.798 -1.95411 -0.1383 0
M  V30 4054 H 373.378 -0.273225 0.695239 0
M  V30 4055 H 376.04 -0.00867725 1.94898 0
M  V30 4056 H 375.136 -1.22816 2.86919 0
M  V30 4057 N 375.437 -1.54477 -0.31217 0
M  V30 4058 C 376.684 -1.73227 -1.04875 0
M  V30 4059 C 377.012 -0.512042 -1.87639 0
M  V30 4060 O 376.267 0.506131 -1.89042 0
M  V30 4061 C 376.566 -2.967 -1.99258 0
M  V30 4062 C 376.232 -4.30974 -1.32559 0
M  V30 4063 C 374.894 -4.67477 -1.141 0
M  V30 4064 C 377.246 -5.14258 -0.847835 0
M  V30 4065 C 374.574 -5.84852 -0.465326 0
M  V30 4066 C 376.926 -6.32327 -0.185931 0
M  V30 4067 C 375.59 -6.67499 0.0107077 0
M  V30 4068 H 374.86 -0.633881 -0.383765 0
M  V30 4069 H 377.507 -1.88727 -0.324731 0
M  V30 4070 H 375.812 -2.75935 -2.7815 0
M  V30 4071 H 377.509 -3.08401 -2.563 0
M  V30 4072 H 374.099 -4.02262 -1.4793 0
M  V30 4073 H 378.283 -4.86565 -0.978192 0
M  V30 4074 H 373.539 -6.10654 -0.301883 0
M  V30 4075 H 377.713 -6.96135 0.192211 0
M  V30 4076 H 375.34 -7.58306 0.536287 0
M  V30 4077 N 376.915 0.57481 -1.46744 0
M  V30 4078 C 378.192 1.3352 -1.4294 0
M  V30 4079 C 378.572 2.10775 -0.117009 0
M  V30 4080 O 377.92 2.09966 0.901474 0
M  V30 4081 C 378.13 2.25456 -2.66403 0
M  V30 4082 C 379.478 2.87035 -3.12883 0
M  V30 4083 O 380.502 2.35766 -2.67007 0
M  V30 4084 O 379.361 3.80179 -3.92589 0
M  V30 4085 H 376.455 0.600318 -0.568812 0
M  V30 4086 H 379.001 0.595171 -1.58921 0
M  V30 4087 H 377.773 1.67851 -3.53471 0
M  V30 4088 H 377.396 3.06785 -2.52921 0
M  V30 4089 N 378.394 1.34581 0.820102 0
M  V30 4090 C 379.671 1.17675 1.56244 0
M  V30 4091 C 380.051 -0.249541 2.0962 0
M  V30 4092 O 379.399 -1.25125 1.91196 0
M  V30 4093 C 379.609 2.23364 2.6816 0
M  V30 4094 C 380.957 2.58485 3.36854 0
M  V30 4095 O 381.981 2.22175 2.78418 0
M  V30 4096 O 380.84 3.20868 4.42386 0
M  V30 4097 H 377.934 0.456333 0.689702 0
M  V30 4098 H 380.48 1.46222 0.861231 0
M  V30 4099 H 379.252 3.19087 2.26493 0
M  V30 4100 H 378.875 1.96009 3.45928 0
M  V30 4101 N 379.872 -1.04064 1.18357 0
M  V30 4102 C 380.804 -2.12114 0.868358 0
M  V30 4103 C 381.817 -1.62247 -0.134045 0
M  V30 4104 O 383.006 -1.78253 0.0937933 0
M  V30 4105 C 380.106 -3.37773 0.276132 0
M  V30 4106 C 379.279 -4.16874 1.3242 0
M  V30 4107 C 378.338 -5.20861 0.747662 0
M  V30 4108 O 377.364 -5.51141 1.42239 0
M  V30 4109 N 378.566 -5.78715 -0.454823 0
M  V30 4110 H 381.331 -2.39748 1.79836 0
M  V30 4111 H 378.892 -1.20258 1.08396 0
M  V30 4112 H 380.884 -4.04513 -0.123133 0
M  V30 4113 H 379.454 -3.07581 -0.557895 0
M  V30 4114 H 378.674 -3.45456 1.89878 0
M  V30 4115 H 379.962 -4.66516 2.03078 0
M  V30 4116 H 379.36 -5.56415 -1.02073 0
M  V30 4117 H 377.917 -6.46921 -0.79601 0
M  V30 4118 N 381.35 -0.985608 -1.22978 0
M  V30 4119 C 382.28 -0.549649 -2.26939 0
M  V30 4120 C 383.261 0.419803 -1.64838 0
M  V30 4121 O 384.446 0.31203 -1.91677 0
M  V30 4122 C 381.576 0.143652 -3.47003 0
M  V30 4123 C 380.53 -0.743606 -4.21491 0
M  V30 4124 C 379.856 0.0822027 -5.34637 0
M  V30 4125 C 381.156 -2.03694 -4.80943 0
M  V30 4126 H 382.85 -1.41862 -2.63658 0
M  V30 4127 H 380.396 -0.683571 -1.26741 0
M  V30 4128 H 382.349 0.459985 -4.18882 0
M  V30 4129 H 381.073 1.04711 -3.09359 0
M  V30 4130 H 379.732 -1.04347 -3.51436 0
M  V30 4131 H 379.38 0.986359 -4.93234 0
M  V30 4132 H 379.08 -0.508377 -5.85397 0
M  V30 4133 H 380.604 0.392797 -6.09335 0
M  V30 4134 H 382.018 -1.78504 -5.44802 0
M  V30 4135 H 380.415 -2.57573 -5.42011 0
M  V30 4136 H 381.485 -2.72042 -4.01399 0
M  V30 4137 N 382.828 1.3818 -0.7579 0
M  V30 4138 C 384.058 2.04004 -0.326463 0
M  V30 4139 C 384.466 1.57286 1.05156 0
M  V30 4140 O 383.809 0.743144 1.67997 0
M  V30 4141 C 383.871 3.58444 -0.275402 0
M  V30 4142 C 383.535 4.28237 -1.59569 0
M  V30 4143 C 384.532 4.53312 -2.54566 0
M  V30 4144 C 382.217 4.66341 -1.86631 0
M  V30 4145 C 384.211 5.15531 -3.74842 0
M  V30 4146 C 381.898 5.28283 -3.0718 0
M  V30 4147 C 382.896 5.52814 -4.01106 0
M  V30 4148 O 382.584 6.13465 -5.19534 0
M  V30 4149 H 382.316 0.662026 -0.136739 0
M  V30 4150 H 384.87 1.7777 -1.02893 0
M  V30 4151 H 383.1 3.83667 0.483337 0
M  V30 4152 H 384.789 4.05701 0.127099 0
M  V30 4153 H 385.555 4.24299 -2.34936 0
M  V30 4154 H 381.434 4.46591 -1.14358 0
M  V30 4155 H 384.978 5.34594 -4.48168 0
M  V30 4156 H 380.875 5.56719 -3.26702 0
M  V30 4157 H 381.643 6.31951 -5.20173 0
M  V30 4158 N 384.306 0.507319 1.49211 0
M  V30 4159 C 385.553 -0.0349529 2.0247 0
M  V30 4160 C 385.881 -1.36409 1.38647 0
M  V30 4161 O 385.136 -1.88841 0.513566 0
M  V30 4162 C 385.435 -0.229513 3.56662 0
M  V30 4163 C 385.101 1.02241 4.39156 0
M  V30 4164 C 383.763 1.36557 4.61417 0
M  V30 4165 C 386.115 1.85428 4.871 0
M  V30 4166 C 383.443 2.53999 5.28868 0
M  V30 4167 C 385.795 3.02028 5.55843 0
M  V30 4168 C 384.459 3.36717 5.76349 0
M  V30 4169 H 383.729 -0.0127902 0.74089 0
M  V30 4170 H 386.376 0.668756 1.79443 0
M  V30 4171 H 384.681 -1.0158 3.78403 0
M  V30 4172 H 386.378 -0.663641 3.9547 0
M  V30 4173 H 382.968 0.745124 4.22073 0
M  V30 4174 H 387.152 1.6023 4.69723 0
M  V30 4175 H 382.408 2.81105 5.42946 0
M  V30 4176 H 386.582 3.66808 5.91967 0
M  V30 4177 H 384.209 4.27821 6.28389 0
M  V30 4178 N 385.784 -1.5574 0.241426 0
M  V30 4179 C 387.009 -2.0366 -0.392111 0
M  V30 4180 C 387.434 -1.11969 -1.51144 0
M  V30 4181 O 386.792 -0.111594 -1.80956 0
M  V30 4182 C 386.84 -3.49638 -0.882371 0
M  V30 4183 O 385.944 -3.6108 -1.99235 0
M  V30 4184 H 385.285 -0.658379 -0.0862122 0
M  V30 4185 H 387.815 -2.01302 0.365881 0
M  V30 4186 H 387.825 -3.90351 -1.18702 0
M  V30 4187 H 386.5 -4.15852 -0.0632361 0
M  V30 4188 H 385.077 -3.32262 -1.69282 0
M  V30 4189 N 387.262 0.0317525 -1.57568 0
M  V30 4190 C 388.678 0.38735 -1.54828 0
M  V30 4191 C 388.878 1.7677 -0.967187 0
M  V30 4192 O 387.934 2.45581 -0.587063 0
M  V30 4193 C 389.247 0.291667 -2.99282 0
M  V30 4194 C 390.795 0.368946 -3.10818 0
M  V30 4195 C 391.27 0.302741 -4.56998 0
M  V30 4196 N 392.761 0.361617 -4.61786 0
M  V30 4197 C 393.496 0.333238 -5.72431 0
M  V30 4198 N 392.992 0.257308 -6.92322 0
M  V30 4199 N 394.785 0.382769 -5.60795 0
M  V30 4200 H 386.936 -0.871609 -1.93692 0
M  V30 4201 H 389.199 -0.331161 -0.888277 0
M  V30 4202 H 388.905 -0.656794 -3.45513 0
M  V30 4203 H 388.779 1.08638 -3.61217 0
M  V30 4204 H 391.166 1.30784 -2.64536 0
M  V30 4205 H 391.247 -0.455066 -2.5172 0
M  V30 4206 H 390.891 -0.632473 -5.03947 0
M  V30 4207 H 390.821 1.14482 -5.14005 0
M  V30 4208 H 393.312 0.422923 -3.75526 0
M  V30 4209 H 393.625 0.24068 -7.72425 0
M  V30 4210 H 391.97 0.223396 -6.94641 0
M  V30 4211 H 395.161 0.44006 -4.66027 0
M  V30 4212 H 395.334 0.357184 -6.47015 0
M  V30 4213 N 388.74 1.54641 0.303973 0
M  V30 4214 C 389.986 1.74038 1.04109 0
M  V30 4215 C 390.319 0.523051 1.87024 0
M  V30 4216 O 389.594 -0.479874 1.88487 0
M  V30 4217 C 389.877 3.02761 1.94955 0
M  V30 4218 C 389.73 4.34787 1.1524 0
M  V30 4219 C 391.049 3.27336 2.94175 0
M  V30 4220 H 388.168 0.63323 0.377079 0
M  V30 4221 H 390.81 1.87354 0.316001 0
M  V30 4222 H 388.96 2.9154 2.56782 0
M  V30 4223 H 390.632 4.57922 0.557236 0
M  V30 4224 H 388.875 4.31407 0.455053 0
M  V30 4225 H 389.546 5.21116 1.8205 0
M  V30 4226 H 392.022 3.38148 2.42477 0
M  V30 4227 H 390.898 4.18726 3.54908 0
M  V30 4228 H 391.159 2.45491 3.67677 0
M  V30 4229 N 390.218 -0.567019 1.47046 0
M  V30 4230 C 391.465 -1.32462 1.53167 0
M  V30 4231 C 391.793 -1.93571 0.189841 0
M  V30 4232 O 391.048 -1.77865 -0.816243 0
M  V30 4233 C 391.347 -2.4623 2.59047 0
M  V30 4234 C 391.013 -2.03014 4.02612 0
M  V30 4235 C 389.675 -1.90944 4.41694 0
M  V30 4236 C 392.027 -1.69895 4.92732 0
M  V30 4237 C 389.355 -1.44035 5.68745 0
M  V30 4238 C 391.707 -1.2446 6.20236 0
M  V30 4239 C 390.371 -1.10979 6.5821 0
M  V30 4240 H 389.641 -0.484713 0.560477 0
M  V30 4241 H 392.288 -0.636888 1.80599 0
M  V30 4242 H 390.593 -3.20517 2.25335 0
M  V30 4243 H 392.29 -3.04427 2.61008 0
M  V30 4244 H 388.88 -2.13348 3.71726 0
M  V30 4245 H 393.064 -1.78098 4.63244 0
M  V30 4246 H 388.32 -1.32254 5.96925 0
M  V30 4247 H 392.494 -0.978924 6.89485 0
M  V30 4248 H 390.121 -0.744078 7.5655 0
M  V30 4249 N 391.696 -1.35014 -0.812953 0
M  V30 4250 C 392.643 -1.27412 -1.92444 0
M  V30 4251 C 393.613 -0.14733 -1.65445 0
M  V30 4252 O 394.798 -0.329974 -1.87925 0
M  V30 4253 C 391.938 -1.04558 -3.28879 0
M  V30 4254 C 391.051 -2.26101 -3.68106 0
M  V30 4255 C 390.186 -1.96449 -4.9354 0
M  V30 4256 C 389.225 -3.14081 -5.25376 0
M  V30 4257 N 388.362 -2.84246 -6.41988 0
M  V30 4258 H 393.202 -2.22463 -1.98278 0
M  V30 4259 H 390.739 -1.10593 -0.969933 0
M  V30 4260 H 392.697 -0.893413 -4.07522 0
M  V30 4261 H 391.327 -0.131719 -3.22531 0
M  V30 4262 H 390.379 -2.52204 -2.84775 0
M  V30 4263 H 391.691 -3.13959 -3.87597 0
M  V30 4264 H 390.845 -1.78026 -5.79993 0
M  V30 4265 H 389.584 -1.05867 -4.76071 0
M  V30 4266 H 388.589 -3.33089 -4.37415 0
M  V30 4267 H 389.814 -4.05455 -5.44778 0
M  V30 4268 H 387.76 -1.96252 -6.25956 0
M  V30 4269 H 387.677 -3.65637 -6.61699 0
M  V30 4270 H 388.945 -2.6935 -7.31485 0
M  V30 4271 N 393.175 1.03435 -1.18907 0
M  V30 4272 C 394.122 2.11591 -0.921837 0
M  V30 4273 C 395.092 1.65499 0.141226 0
M  V30 4274 O 396.277 1.908 0.000242829 0
M  V30 4275 C 393.417 3.42012 -0.460616 0
M  V30 4276 C 392.53 4.01682 -1.58982 0
M  V30 4277 C 391.665 5.20091 -1.08069 0
M  V30 4278 C 390.704 5.71805 -2.18416 0
M  V30 4279 N 389.841 6.81494 -1.68849 0
M  V30 4280 H 394.681 2.33787 -1.8479 0
M  V30 4281 H 392.218 1.1467 -0.921373 0
M  V30 4282 H 394.176 4.16834 -0.174642 0
M  V30 4283 H 392.806 3.19944 0.428467 0
M  V30 4284 H 391.858 3.24127 -1.99113 0
M  V30 4285 H 393.17 4.36084 -2.4214 0
M  V30 4286 H 392.324 6.02051 -0.749615 0
M  V30 4287 H 391.063 4.87209 -0.218771 0
M  V30 4288 H 390.068 4.88461 -2.5236 0
M  V30 4289 H 391.293 6.06728 -3.05054 0
M  V30 4290 H 389.239 6.50475 -0.849572 0
M  V30 4291 H 389.156 7.14994 -2.45601 0
M  V30 4292 H 390.424 7.67063 -1.38689 0
M  V30 4293 N 394.653 0.992116 1.22453 0
M  V30 4294 C 395.893 0.675727 1.92907 0
M  V30 4295 C 396.257 -0.777762 1.75542 0
M  V30 4296 O 397.458 -1.20553 2.40251 0
M  V30 4297 C 395.729 1.0696 3.4102 0
M  V30 4298 S 397.288 0.871456 4.30059 0
M  V30 4299 H 394.106 0.247089 0.666684 0
M  V30 4300 H 396.708 1.27423 1.48269 0
M  V30 4301 H 395.412 2.12383 3.51172 0
M  V30 4302 H 394.943 0.462858 3.90668 0
M  V30 4303 H 396.958 -0.238436 4.95627 0
M  V30 4304 N 396.131 -1.37776 0.765217 0
M  V30 4305 C 397.359 -2.04124 0.337767 0
M  V30 4306 C 397.774 -1.57715 -1.03785 0
M  V30 4307 O 397.131 -0.755447 -1.6613 0
M  V30 4308 C 397.182 -3.59658 0.364442 0
M  V30 4309 O 396.903 -4.04367 1.68579 0
M  V30 4310 C 398.404 -4.43236 -0.0754221 0
M  V30 4311 H 395.624 -0.655696 0.142491 0
M  V30 4312 H 398.168 -1.76238 1.03732 0
M  V30 4313 H 396.323 -3.86339 -0.286471 0
M  V30 4314 H 396.737 -4.98857 1.61993 0
M  V30 4315 H 398.211 -5.52 -0.00560067 0
M  V30 4316 H 398.688 -4.2455 -1.12491 0
M  V30 4317 H 399.294 -4.21767 0.547055 0
M  V30 4318 N 397.609 -0.515225 -1.4894 0
M  V30 4319 C 398.857 0.0241671 -2.02086 0
M  V30 4320 C 399.178 1.3616 -1.3959 0
M  V30 4321 O 398.448 1.87841 -0.556121 0
M  V30 4322 H 397.028 0.0119203 -0.746905 0
M  V30 4323 H 399.69 -0.675702 -1.82812 0
M  V30 4324 H 398.786 0.143385 -3.1177 0
M  V30 4325 N 399.087 1.5561 -0.249682 0
M  V30 4326 C 400.05 2.20217 0.635394 0
M  V30 4327 C 401.05 1.17227 1.10066 0
M  V30 4328 O 402.24 1.42292 1.00492 0
M  V30 4329 C 399.372 2.84794 1.87363 0
M  V30 4330 H 400.565 2.99814 0.0716752 0
M  V30 4331 H 398.118 1.563 -0.000153234 0
M  V30 4332 H 398.853 2.09142 2.47851 0
M  V30 4333 H 398.638 3.60241 1.5482 0
M  V30 4334 H 400.128 3.3423 2.5036 0
M  V30 4335 N 400.565 -0.0233959 1.57583 0
M  V30 4336 C 401.79 -0.728376 1.94189 0
M  V30 4337 C 402.215 -1.67793 0.850119 0
M  V30 4338 O 401.573 -1.80262 -0.19371 0
M  V30 4339 C 401.621 -1.45669 3.29868 0
M  V30 4340 O 400.725 -2.57013 3.22518 0
M  V30 4341 H 400.066 -0.195493 0.63457 0
M  V30 4342 H 402.596 0.0228214 2.04587 0
M  V30 4343 H 402.606 -1.82535 3.6489 0
M  V30 4344 H 401.281 -0.760314 4.08891 0
M  V30 4345 H 399.858 -2.22648 2.99136 0
M  V30 4346 N 402.043 -1.548 -0.295768 0
M  V30 4347 C 403.454 -1.65274 -0.868411 0
M  V30 4348 C 403.805 -0.56481 -1.87894 0
M  V30 4349 O 402.93 0.29767 -2.14343 0
M  V30 4350 C 403.525 -2.99603 -1.58188 0
M  V30 4351 C 402.084 -3.12181 -2.10286 0
M  V30 4352 C 401.231 -2.6098 -0.93727 0
M  V30 4353 H 404.182 -1.58534 -0.0726422 0
M  V30 4354 H 404.203 -2.91319 -2.44772 0
M  V30 4355 H 403.715 -3.78764 -0.846151 0
M  V30 4356 H 401.816 -2.3775 -2.8689 0
M  V30 4357 H 401.929 -4.18415 -2.33379 0
M  V30 4358 H 400.293 -2.17564 -1.32431 0
M  V30 4359 H 401.076 -3.42623 -0.215414 0
M  V30 4360 N 403.521 0.559213 -1.47345 0
M  V30 4361 C 404.746 1.34676 -1.57725 0
M  V30 4362 C 405.171 1.86723 -0.227164 0
M  V30 4363 O 404.529 1.6286 0.796642 0
M  V30 4364 C 404.577 2.49399 -2.60447 0
M  V30 4365 O 403.681 3.51567 -2.15578 0
M  V30 4366 H 403.022 0.400115 -0.52991 0
M  V30 4367 H 405.552 0.676009 -1.93109 0
M  V30 4368 H 405.562 2.95996 -2.80803 0
M  V30 4369 H 404.237 2.10873 -3.58477 0
M  V30 4370 H 402.814 3.11289 -2.05313 0
M  V30 4371 N 404.999 1.35443 0.805782 0
M  V30 4372 C 405.909 1.30546 1.94923 0
M  V30 4373 C 406.925 0.210233 1.72725 0
M  V30 4374 O 408.101 0.43975 1.9654 0
M  V30 4375 C 405.166 1.07782 3.29521 0
M  V30 4376 C 404.227 2.26625 3.64609 0
M  V30 4377 C 403.46 2.04938 4.92784 0
M  V30 4378 O 403.683 1.01624 5.61274 0
M  V30 4379 O 402.617 2.9232 5.26149 0
M  V30 4380 H 406.443 2.26779 2.02002 0
M  V30 4381 H 404.028 1.15823 0.943682 0
M  V30 4382 H 405.91 0.969392 4.10098 0
M  V30 4383 H 404.585 0.146003 3.23371 0
M  V30 4384 H 403.492 2.43033 2.84404 0
M  V30 4385 H 404.825 3.18257 3.75464 0
M  V30 4386 N 406.477 -1.02803 1.19454 0
M  V30 4387 C 407.724 -1.76217 0.997693 0
M  V30 4388 C 408.052 -1.887 -0.47144 0
M  V30 4389 O 407.307 -1.4011 -1.3663 0
M  V30 4390 C 407.606 -3.18941 1.6128 0
M  V30 4391 C 407.272 -3.26463 3.11019 0
M  V30 4392 C 405.934 -3.28223 3.51885 0
M  V30 4393 C 408.286 -3.25542 4.07028 0
M  V30 4394 C 405.614 -3.26719 4.8731 0
M  V30 4395 C 407.966 -3.25579 5.42385 0
M  V30 4396 C 406.63 -3.25637 5.82681 0
M  V30 4397 H 405.9 -0.644823 0.365082 0
M  V30 4398 H 408.547 -1.20655 1.4871 0
M  V30 4399 H 406.852 -3.77587 1.04572 0
M  V30 4400 H 408.549 -3.74415 1.43577 0
M  V30 4401 H 405.139 -3.25822 2.78457 0
M  V30 4402 H 409.323 -3.23362 3.76498 0
M  V30 4403 H 404.579 -3.25089 5.1781 0
M  V30 4404 H 408.753 -3.23817 6.16535 0
M  V30 4405 H 406.38 -3.24226 6.87591 0
M  V30 4406 N 407.956 -0.998596 -1.21925 0
M  V30 4407 C 409.372 -0.710303 -1.42923 0
M  V30 4408 C 409.572 0.716933 -1.88314 0
M  V30 4409 O 408.628 1.48712 -2.04062 0
M  V30 4410 C 409.941 -1.72072 -2.466 0
M  V30 4411 C 411.489 -1.73681 -2.60392 0
M  V30 4412 C 411.964 -2.73601 -3.67296 0
M  V30 4413 N 413.455 -2.7223 -3.7476 0
M  V30 4414 C 414.19 -3.46206 -4.57087 0
M  V30 4415 N 413.686 -4.29802 -5.43362 0
M  V30 4416 N 415.479 -3.34886 -4.51451 0
M  V30 4417 H 407.63 -1.92028 -0.9077 0
M  V30 4418 H 409.893 -0.828487 -0.460775 0
M  V30 4419 H 409.599 -2.74231 -2.20206 0
M  V30 4420 H 409.473 -1.51818 -3.45299 0
M  V30 4421 H 411.86 -0.722173 -2.86127 0
M  V30 4422 H 411.941 -1.98005 -1.61949 0
M  V30 4423 H 411.585 -3.75217 -3.42307 0
M  V30 4424 H 411.515 -2.46545 -4.65321 0
M  V30 4425 H 414.006 -2.11576 -3.1312 0
M  V30 4426 H 414.319 -4.83061 -6.03218 0
M  V30 4427 H 412.664 -4.33887 -5.42925 0
M  V30 4428 H 415.855 -2.69015 -3.83078 0
M  V30 4429 H 416.028 -3.92796 -5.15379 0
M  V30 4430 N 409.434 1.37368 -0.772513 0
M  V30 4431 C 410.397 2.28601 -0.165541 0
M  V30 4432 C 411.397 1.48062 0.627238 0
M  V30 4433 O 412.587 1.68268 0.450715 0
M  V30 4434 C 409.719 3.32023 0.772897 0
M  V30 4435 H 410.912 2.83787 -0.969787 0
M  V30 4436 H 408.465 1.46647 -0.540775 0
M  V30 4437 H 409.2 2.81962 1.60212 0
M  V30 4438 H 408.985 3.91555 0.206585 0
M  V30 4439 H 410.475 4.00197 1.19298 0
M  V30 4440 N 410.912 0.523116 1.48665 0
M  V30 4441 C 412.16 -0.0134497 2.02096 0
M  V30 4442 C 412.481 -1.35418 1.40311 0
M  V30 4443 O 411.751 -1.87543 0.566074 0
M  V30 4444 H 410.331 -0.00795915 0.746958 0
M  V30 4445 H 412.993 0.685388 1.82451 0
M  V30 4446 H 412.089 -0.126849 3.11842 0
M  V30 4447 N 412.39 -1.55475 0.257931 0
M  V30 4448 C 413.63 -2.01112 -0.365129 0
M  V30 4449 C 413.994 -1.1423 -1.54323 0
M  V30 4450 O 415.195 -1.49371 -2.23477 0
M  V30 4451 C 413.466 -3.49353 -0.754117 0
M  V30 4452 S 415.025 -4.16992 -1.36614 0
M  V30 4453 H 411.843 -0.701737 -0.114397 0
M  V30 4454 H 414.445 -1.91855 0.375747 0
M  V30 4455 H 413.149 -4.10246 0.112441 0
M  V30 4456 H 412.68 -3.6256 -1.52689 0
M  V30 4457 H 414.695 -4.19191 -2.65505 0
M  V30 4458 N 413.868 0.0150385 -1.57593 0
M  V30 4459 C 414.778 1.02791 -2.10882 0
M  V30 4460 C 415.794 1.38702 -1.0506 0
M  V30 4461 O 416.97 1.47739 -1.36877 0
M  V30 4462 C 414.035 2.30568 -2.58919 0
M  V30 4463 C 413.096 2.01108 -3.79281 0
M  V30 4464 C 412.329 3.22794 -4.25018 0
M  V30 4465 O 412.552 4.33959 -3.70183 0
M  V30 4466 O 411.486 3.07672 -5.17322 0
M  V30 4467 H 415.312 0.604973 -2.97613 0
M  V30 4468 H 412.897 0.23292 -1.47573 0
M  V30 4469 H 414.779 3.05662 -2.90084 0
M  V30 4470 H 413.454 2.72129 -1.75293 0
M  V30 4471 H 412.361 1.23537 -3.53114 0
M  V30 4472 H 413.694 1.64394 -4.63935 0
M  V30 4473 N 415.346 1.54954 0.287554 0
M  V30 4474 C 416.256 1.8991 1.37736 0
M  V30 4475 C 417.272 0.794701 1.54792 0
M  V30 4476 O 418.448 1.09243 1.69198 0
M  V30 4477 C 415.513 2.15108 2.71899 0
M  V30 4478 C 414.574 3.38752 2.63715 0
M  V30 4479 C 413.807 3.62739 3.91479 0
M  V30 4480 O 414.03 2.89492 4.91478 0
M  V30 4481 O 412.964 4.56267 3.92561 0
M  V30 4482 H 416.79 2.82652 1.11092 0
M  V30 4483 H 414.375 1.41315 0.484807 0
M  V30 4484 H 416.257 2.32806 3.51254 0
M  V30 4485 H 414.932 1.25551 2.9836 0
M  V30 4486 H 413.839 3.26405 1.82786 0
M  V30 4487 H 415.172 4.28483 2.42205 0
M  V30 4488 N 416.824 -0.551391 1.4764 0
M  V30 4489 C 417.771 -1.65796 1.60563 0
M  V30 4490 C 418.741 -1.59932 0.448428 0
M  V30 4491 O 419.926 -1.78679 0.669222 0
M  V30 4492 C 417.066 -3.04108 1.63133 0
M  V30 4493 C 416.179 -3.20365 2.89811 0
M  V30 4494 C 415.314 -4.49109 2.8368 0
M  V30 4495 C 414.353 -4.58819 4.05156 0
M  V30 4496 N 413.49 -5.78926 3.97227 0
M  V30 4497 H 418.33 -1.54088 2.5507 0
M  V30 4498 H 415.867 -0.75052 1.26513 0
M  V30 4499 H 417.825 -3.84207 1.62606 0
M  V30 4500 H 416.455 -3.14637 0.721341 0
M  V30 4501 H 415.507 -2.33659 3.00179 0
M  V30 4502 H 416.819 -3.23402 3.79753 0
M  V30 4503 H 415.973 -5.37475 2.81434 0
M  V30 4504 H 414.712 -4.4856 1.91431 0
M  V30 4505 H 413.717 -3.68864 4.077 0
M  V30 4506 H 414.942 -4.61124 4.98539 0
M  V30 4507 H 412.888 -5.79314 3.07785 0
M  V30 4508 H 412.805 -5.83367 4.80853 0
M  V30 4509 H 414.073 -6.69637 3.99007 0
M  V30 4510 N 418.302 -1.35869 -0.798587 0
M  V30 4511 C 419.548 -1.2978 -1.55836 0
M  V30 4512 C 419.881 0.125322 -1.93795 0
M  V30 4513 O 419.156 1.07658 -1.61987 0
M  V30 4514 C 419.439 -2.21188 -2.84162 0
M  V30 4515 C 419.292 -3.72155 -2.52628 0
M  V30 4516 C 420.611 -2.11545 -3.85923 0
M  V30 4517 H 417.73 -0.472769 -0.565383 0
M  V30 4518 H 420.372 -1.66341 -0.918192 0
M  V30 4519 H 418.522 -1.90139 -3.38791 0
M  V30 4520 H 420.194 -4.13682 -2.04121 0
M  V30 4521 H 418.437 -3.92042 -1.85704 0
M  V30 4522 H 419.108 -4.31511 -3.44242 0
M  V30 4523 H 421.584 -2.38855 -3.40716 0
M  V30 4524 H 420.46 -2.77688 -4.73477 0
M  V30 4525 H 420.721 -1.09987 -4.282 0
M  V30 4526 N 419.78 1.02168 -1.19998 0
M  V30 4527 C 420.728 2.12717 -0.940967 0
M  V30 4528 C 421.722 1.69069 0.105841 0
M  V30 4529 O 422.928 1.79946 -0.0440583 0
M  V30 4530 H 419.303 0.695108 -0.28693 0
M  V30 4531 H 421.274 2.3175 -1.87975 0
M  V30 4532 C 420.023 3.44027 -0.504049 0
M  V30 4533 H 419.346 3.78036 -1.30112 0
M  V30 4534 H 420.786 4.22452 -0.361991 0
M  V30 4535 C 419.245 3.27678 0.782878 0
M  V30 4536 O 419.775 3.56949 1.84256 0
M  V30 4537 N 417.981 2.80943 0.742921 0
M  V30 4538 H 417.528 2.57322 -0.119687 0
M  V30 4539 H 417.486 2.70385 1.60435 0
M  V30 4540 N 421.258 1.00505 1.21394 0
M  V30 4541 C 422.535 0.603277 1.86064 0
M  V30 4542 C 422.915 -0.919095 1.90042 0
M  V30 4543 O 422.263 -1.80607 1.39977 0
M  V30 4544 C 422.473 1.23772 3.26315 0
M  V30 4545 C 423.821 1.34586 4.02705 0
M  V30 4546 O 424.845 1.19304 3.35626 0
M  V30 4547 O 423.704 1.59169 5.22807 0
M  V30 4548 H 420.798 0.206634 0.800769 0
M  V30 4549 H 423.344 1.1017 1.29076 0
M  V30 4550 H 422.116 2.27848 3.18121 0
M  V30 4551 H 421.739 0.725648 3.90922 0
M  V30 4552 N 422.737 -1.36956 0.779787 0
M  V30 4553 C 423.983 -1.99787 0.348281 0
M  V30 4554 C 424.316 -1.61756 -1.07465 0
M  V30 4555 O 423.591 -0.867639 -1.74075 0
M  V30 4556 C 423.874 -3.56597 0.50104 0
M  V30 4557 C 423.727 -4.04513 1.96697 0
M  V30 4558 C 425.046 -4.40008 -0.0898097 0
M  V30 4559 H 422.165 -0.725796 0.128022 0
M  V30 4560 H 424.807 -1.62514 0.984331 0
M  V30 4561 H 422.957 -3.88479 -0.0404347 0
M  V30 4562 H 424.629 -3.83161 2.56876 0
M  V30 4563 H 422.872 -3.56408 2.47297 0
M  V30 4564 H 423.543 -5.1352 2.02486 0
M  V30 4565 H 426.019 -4.14431 0.372293 0
M  V30 4566 H 424.895 -5.4888 0.0471605 0
M  V30 4567 H 425.156 -4.26035 -1.18096 0
M  V30 4568 N 424.215 -0.530993 -1.48385 0
M  V30 4569 C 425.178 0.220497 -2.28137 0
M  V30 4570 C 426.178 0.866851 -1.35434 0
M  V30 4571 O 427.368 0.726746 -1.58316 0
M  V30 4572 C 424.5 1.31921 -3.1434 0
M  V30 4573 H 425.693 -0.479714 -2.96038 0
M  V30 4574 H 423.246 -0.286968 -1.53643 0
M  V30 4575 H 423.981 2.05264 -2.51072 0
M  V30 4576 H 423.766 0.86085 -3.82533 0
M  V30 4577 H 425.256 1.84776 -3.74497 0
M  V30 4578 N 425.693 1.55336 -0.266172 0
M  V30 4579 C 426.939 1.99692 0.353681 0
M  V30 4580 C 427.272 1.1543 1.56172 0
M  V30 4581 O 426.547 0.222218 1.93226 0
M  V30 4582 C 426.83 3.52316 0.74466 0
M  V30 4583 C 426.683 4.47337 -0.470101 0
M  V30 4584 C 428.002 4.10588 1.58447 0
M  V30 4585 H 425.121 0.725961 0.12708 0
M  V30 4586 H 427.763 1.86336 -0.371333 0
M  V30 4587 H 425.913 3.63829 1.36239 0
M  V30 4588 H 427.585 4.4778 -1.10864 0
M  V30 4589 H 425.828 4.19364 -1.10978 0
M  V30 4590 H 426.499 5.51788 -0.15291 0
M  V30 4591 H 428.975 4.02297 1.06286 0
M  V30 4592 H 427.851 5.17607 1.82686 0
M  V30 4593 H 428.112 3.60253 2.56262 0
M  V30 4594 N 427.171 -0.0066808 1.57599 0
M  V30 4595 C 428.118 -1.00024 2.08 0
M  V30 4596 C 429.088 -1.34549 0.973943 0
M  V30 4597 O 430.273 -1.44502 1.24595 0
M  V30 4598 C 427.413 -2.2891 2.58252 0
M  V30 4599 C 426.526 -2.00346 3.82734 0
M  V30 4600 C 425.661 -3.23265 4.21513 0
M  V30 4601 C 424.7 -2.90357 5.3885 0
M  V30 4602 N 423.837 -4.05793 5.72954 0
M  V30 4603 H 428.677 -0.563499 2.92624 0
M  V30 4604 H 426.214 -0.266592 1.44664 0
M  V30 4605 H 428.172 -3.04247 2.85464 0
M  V30 4606 H 426.802 -2.70265 1.76512 0
M  V30 4607 H 425.854 -1.15406 3.62471 0
M  V30 4608 H 427.166 -1.72086 4.68175 0
M  V30 4609 H 426.32 -4.06953 4.49971 0
M  V30 4610 H 425.059 -3.54657 3.34768 0
M  V30 4611 H 424.064 -2.05075 5.10122 0
M  V30 4612 H 425.289 -2.60219 6.27266 0
M  V30 4613 H 423.235 -4.37094 4.89167 0
M  V30 4614 H 423.152 -3.81034 6.52954 0
M  V30 4615 H 424.42 -4.90289 6.06001 0
M  V30 4616 N 428.649 -1.55105 -0.279332 0
M  V30 4617 C 429.579 -1.90557 -1.34945 0
M  V30 4618 C 430.56 -0.766738 -1.51839 0
M  V30 4619 O 431.745 -1.02434 -1.64988 0
M  V30 4620 C 428.875 -2.17193 -2.71006 0
M  V30 4621 C 427.829 -3.33021 -2.68851 0
M  V30 4622 C 427.155 -3.45123 -4.08405 0
M  V30 4623 C 428.455 -4.69578 -2.28678 0
M  V30 4624 H 430.149 -2.80188 -1.05522 0
M  V30 4625 H 427.695 -1.34811 -0.506173 0
M  V30 4626 H 429.648 -2.40581 -3.45975 0
M  V30 4627 H 428.372 -1.24355 -3.01999 0
M  V30 4628 H 427.031 -3.0959 -1.9634 0
M  V30 4629 H 426.679 -2.49762 -4.3661 0
M  V30 4630 H 426.379 -4.22995 -4.07859 0
M  V30 4631 H 427.903 -3.70796 -4.85121 0
M  V30 4632 H 429.317 -4.92553 -2.93368 0
M  V30 4633 H 427.714 -5.5032 -2.39306 0
M  V30 4634 H 428.784 -4.68828 -1.23807 0
M  V30 4635 N 430.127 0.543554 -1.4793 0
M  V30 4636 C 431.352 1.32995 -1.59145 0
M  V30 4637 C 431.777 1.86472 -0.246956 0
M  V30 4638 O 431.135 1.63696 0.779324 0
M  V30 4639 C 431.183 2.46623 -2.63077 0
M  V30 4640 O 430.287 3.49261 -2.19295 0
M  V30 4641 H 429.628 0.394472 -0.534124 0
M  V30 4642 H 432.158 0.655489 -1.93816 0
M  V30 4643 H 432.168 2.93001 -2.83926 0
M  V30 4644 H 430.843 2.07059 -3.60693 0
M  V30 4645 H 429.42 3.09094 -2.08603 0
M  V30 4646 O 431.644 1.46095 0.688375 0
M  V30 4647 H 432.335 1.39822 1.34051 0
M  V30 END ATOM
M  V30 BEGIN BOND
M  V30 END BOND
M  V30 END CTAB
M  END
$$$$
