drugbank_target|O34974 Putative monooxygenase MoxC (DB02379; DB03247)
 OpenBabel12092120273D

  0  0  0     0  0            999 V3000
M  V30 BEGIN CTAB
M  V30 COUNTS 6886 6973 0 0 0
M  V30 BEGIN ATOM
M  V30 1 H -0.908 1.98254 -0.117106 0
M  V30 2 N 0 1.576 0 0
M  V30 3 C 0.933 2.03868 1.02534 0
M  V30 4 C 1.911 0.928543 1.3348 0
M  V30 5 O 3.095 1.19667 1.45644 0
M  V30 6 C 0.222 2.43627 2.35294 0
M  V30 7 C -0.732 3.65373 2.2001 0
M  V30 8 S 0.101 5.13292 1.52614 0
M  V30 9 C 1.257 5.56322 2.86805 0
M  V30 10 H 1.49 2.90518 0.631377 0
M  V30 11 H -0.977 1.52953 0.210867 0
M  V30 12 H 0.981 2.67203 3.11629 0
M  V30 13 H -0.358 1.57376 2.7183 0
M  V30 14 H -1.165 3.90944 3.18086 0
M  V30 15 H -1.563 3.418 1.51819 0
M  V30 16 H 0.729 5.58782 3.83104 0
M  V30 17 H 1.672 6.56266 2.65933 0
M  V30 18 H 2.08 4.83886 2.90714 0
M  V30 19 N 1.4781 -0.272755 1.55222 0
M  V30 20 C 2.7061 -1.02255 1.79865 0
M  V30 21 C 3.1211 -1.79924 0.572088 0
M  V30 22 O 2.4781 -1.76638 -0.458842 0
M  V30 23 C 2.5291 -1.98094 3.02392 0
M  V30 24 O 2.2501 -1.23572 4.20311 0
M  V30 25 C 3.7511 -2.84884 3.39641 0
M  V30 26 H 0.9711 -0.302057 0.599168 0
M  V30 27 H 3.5151 -0.303465 2.02236 0
M  V30 28 H 1.6701 -2.65465 2.82147 0
M  V30 29 H 2.0841 -1.88172 4.89583 0
M  V30 30 H 3.5581 -3.47927 4.28545 0
M  V30 31 H 4.0351 -3.54665 2.59055 0
M  V30 32 H 4.6411 -2.23003 3.62146 0
M  V30 33 N 2.9562 -1.48159 -0.537278 0
M  V30 34 C 4.3722 -1.34118 -0.865129 0
M  V30 35 C 4.5722 -0.346678 -1.98495 0
M  V30 36 O 3.6282 0.234715 -2.51407 0
M  V30 37 C 4.9412 -2.73963 -1.23954 0
M  V30 38 C 6.4892 -2.82397 -1.34984 0
M  V30 39 C 6.9642 -4.22928 -1.75772 0
M  V30 40 N 8.4552 -4.25566 -1.82887 0
M  V30 41 C 9.1902 -5.31235 -2.15817 0
M  V30 42 N 8.6862 -6.47189 -2.47222 0
M  V30 43 N 10.4792 -5.18624 -2.16761 0
M  V30 44 H 2.6302 -2.1144 0.201715 0
M  V30 45 H 4.8932 -0.947598 0.0275949 0
M  V30 46 H 4.5992 -3.48264 -0.490381 0
M  V30 47 H 4.4732 -3.0702 -2.19132 0
M  V30 48 H 6.8602 -2.08356 -2.08978 0
M  V30 49 H 6.9412 -2.5297 -0.379448 0
M  V30 50 H 6.5852 -4.97482 -1.02341 0
M  V30 51 H 6.5152 -4.49794 -2.73848 0
M  V30 52 H 9.0062 -3.41924 -1.60924 0
M  V30 53 H 9.3192 -7.23564 -2.71433 0
M  V30 54 H 7.6642 -6.50476 -2.44757 0
M  V30 55 H 10.8552 -4.27056 -1.91679 0
M  V30 56 H 11.0282 -6.01078 -2.42093 0
M  V30 57 N 4.4343 0.785586 -1.36625 0
M  V30 58 C 5.3973 1.87999 -1.31107 0
M  V30 59 C 6.3973 1.59316 -0.217959 0
M  V30 60 O 7.5873 1.67656 -0.472977 0
M  V30 61 C 4.7193 3.24861 -1.03334 0
M  V30 62 H 5.9123 1.94307 -2.2844 0
M  V30 63 H 3.4653 0.983813 -1.21453 0
M  V30 64 H 4.2003 3.24235 -0.0647432 0
M  V30 65 H 3.9853 3.4707 -1.82441 0
M  V30 66 H 5.4753 4.04929 -1.02088 0
M  V30 67 N 5.9124 1.20967 1.01018 0
M  V30 68 C 7.1894 0.93264 1.71934 0
M  V30 69 C 7.5694 -0.55692 2.03621 0
M  V30 70 O 6.9174 -1.52035 1.7058 0
M  V30 71 C 7.1274 1.81233 2.98254 0
M  V30 72 C 8.4754 2.05804 3.71389 0
M  V30 73 O 9.4994 1.78539 3.08225 0
M  V30 74 O 8.3584 2.51888 4.84989 0
M  V30 75 H 5.4524 0.349272 0.749625 0
M  V30 76 H 7.9984 1.31871 1.06808 0
M  V30 77 H 6.7704 2.82067 2.71208 0
M  V30 78 H 6.3934 1.42674 3.7112 0
M  V30 79 N 7.3905 -1.2043 1.01659 0
M  V30 80 C 8.6375 -1.89797 0.705917 0
M  V30 81 C 8.9655 -1.78848 -0.764439 0
M  V30 82 O 8.2205 -1.16694 -1.57102 0
M  V30 83 C 8.5195 -3.40464 1.08714 0
M  V30 84 C 8.1855 -3.71614 2.5537 0
M  V30 85 C 6.8475 -3.79826 2.95441 0
M  V30 86 C 9.1995 -3.85915 3.50313 0
M  V30 87 C 6.5275 -3.99797 4.29394 0
M  V30 88 C 8.8795 -4.07396 4.83954 0
M  V30 89 C 7.5435 -4.13837 5.23732 0
M  V30 90 H 6.8135 -0.694518 0.258313 0
M  V30 91 H 9.4605 -1.42691 1.27717 0
M  V30 92 H 7.7655 -3.89385 0.434309 0
M  V30 93 H 9.4625 -3.92433 0.824461 0
M  V30 94 H 6.0525 -3.65822 2.23321 0
M  V30 95 H 10.2365 -3.78926 3.20513 0
M  V30 96 H 5.4925 -4.03018 4.59768 0
M  V30 97 H 9.6665 -4.17404 5.57447 0
M  V30 98 H 7.2935 -4.29064 6.27541 0
M  V30 99 N 8.8686 -0.792821 -1.36206 0
M  V30 100 C 10.1176 -0.363353 -1.984 0
M  V30 101 C 10.4306 1.07172 -1.63626 0
M  V30 102 O 11.6366 1.60362 -2.19081 0
M  V30 103 C 10.0926 -0.59872 -3.54885 0
M  V30 104 C 9.7006 -2.04543 -3.9858 0
M  V30 105 C 11.4446 -0.233926 -4.23855 0
M  V30 106 C 9.3516 -2.22727 -5.47856 0
M  V30 107 H 8.2816 -0.13212 -0.742334 0
M  V30 108 H 10.9326 -0.974935 -1.55458 0
M  V30 109 H 9.3146 0.0826222 -3.95914 0
M  V30 110 H 10.4886 -2.76345 -3.68741 0
M  V30 111 H 8.8036 -2.36879 -3.42458 0
M  V30 112 H 11.4006 -0.348027 -5.33566 0
M  V30 113 H 11.7436 0.818351 -4.08177 0
M  V30 114 H 12.2766 -0.868639 -3.882 0
M  V30 115 H 9.0156 -3.2635 -5.68486 0
M  V30 116 H 8.5356 -1.55434 -5.7931 0
M  V30 117 H 10.2146 -2.03607 -6.14128 0
M  V30 118 N 10.3467 1.47872 -0.545128 0
M  V30 119 C 11.2787 2.27869 0.246621 0
M  V30 120 C 12.2917 1.36282 0.890561 0
M  V30 121 O 13.4807 1.61207 0.766449 0
M  V30 122 C 10.5807 3.10159 1.36582 0
M  V30 123 C 9.7537 4.29627 0.820954 0
M  V30 124 C 8.8127 4.93607 1.82314 0
M  V30 125 O 7.8387 5.52366 1.37406 0
M  V30 126 N 9.0407 4.87211 3.15603 0
M  V30 127 H 11.8057 2.96459 -0.439539 0
M  V30 128 H 9.3667 1.57367 -0.380421 0
M  V30 129 H 11.3587 3.49829 2.03474 0
M  V30 130 H 9.9287 2.43891 1.9554 0
M  V30 131 H 9.1487 3.94192 -0.0244032 0
M  V30 132 H 10.4367 5.06928 0.436063 0
M  V30 133 H 9.8347 4.40651 3.54744 0
M  V30 134 H 8.3917 5.30937 3.78087 0
M  V30 135 N 11.8248 0.280983 1.55075 0
M  V30 136 C 13.0718 -0.334115 1.99725 0
M  V30 137 C 13.3998 -1.5542 1.1694 0
M  V30 138 O 12.6548 -1.94361 0.228531 0
M  V30 139 C 12.9538 -0.754656 3.49342 0
M  V30 140 C 12.6198 0.361445 4.49449 0
M  V30 141 C 11.2818 0.667893 4.76542 0
M  V30 142 C 13.6338 1.11322 5.09173 0
M  V30 143 C 10.9618 1.7296 5.60626 0
M  V30 144 C 13.3138 2.1647 5.9441 0
M  V30 145 C 11.9778 2.47742 6.19822 0
M  V30 146 H 11.2478 -0.122261 0.730844 0
M  V30 147 H 13.8948 0.395917 1.87363 0
M  V30 148 H 12.1998 -1.56446 3.5921 0
M  V30 149 H 13.8968 -1.24142 3.813 0
M  V30 150 H 10.4868 0.112481 4.28452 0
M  V30 151 H 14.6708 0.88973 4.8826 0
M  V30 152 H 9.9268 1.97684 5.78559 0
M  V30 153 H 14.1008 2.75193 6.3972 0
M  V30 154 H 11.7278 3.30145 6.84769 0
M  V30 155 N 13.3029 -1.57598 0.00835791 0
M  V30 156 C 14.5509 -1.90551 -0.6734 0
M  V30 157 C 14.8719 -0.883301 -1.73847 0
M  V30 158 O 14.1419 0.0781442 -1.95744 0
M  V30 159 H 12.7219 -0.703312 -0.251717 0
M  V30 160 H 15.3839 -1.94833 0.0512592 0
M  V30 161 H 14.4799 -2.9056 -1.13935 0
M  V30 162 N 14.781 0.264519 -1.55364 0
M  V30 163 C 15.744 1.31046 -1.88042 0
M  V30 164 C 16.744 1.41943 -0.755569 0
M  V30 165 O 17.934 1.40947 -1.02369 0
M  V30 166 C 15.066 2.69067 -2.09323 0
M  V30 167 H 16.259 1.03297 -2.81549 0
M  V30 168 H 13.812 0.502989 -1.47986 0
M  V30 169 H 14.547 3.01982 -1.18226 0
M  V30 170 H 14.332 2.62542 -2.91229 0
M  V30 171 H 15.822 3.44623 -2.35848 0
M  V30 172 N 16.2591 1.48442 0.529413 0
M  V30 173 C 17.1921 1.57577 1.65059 0
M  V30 174 C 18.1701 0.426198 1.56915 0
M  V30 175 O 19.3541 0.637877 1.77379 0
M  V30 176 C 16.4811 1.5043 3.03461 0
M  V30 177 C 15.5271 2.70235 3.29962 0
M  V30 178 S 16.3601 4.32198 3.16172 0
M  V30 179 C 17.5161 4.2765 4.57019 0
M  V30 180 H 17.7491 2.52427 1.5706 0
M  V30 181 H 15.2821 1.36982 0.712417 0
M  V30 182 H 17.2401 1.46992 3.8328 0
M  V30 183 H 15.9011 0.569167 3.089 0
M  V30 184 H 15.0941 2.61374 4.30929 0
M  V30 185 H 14.6961 2.70938 2.57815 0
M  V30 186 H 16.9881 3.97618 5.48549 0
M  V30 187 H 17.9311 5.28797 4.70934 0
M  V30 188 H 18.3391 3.5811 4.36368 0
M  V30 189 N 17.7372 -0.778329 1.37039 0
M  V30 190 C 18.9862 -1.53189 1.3121 0
M  V30 191 C 19.2992 -1.95328 -0.103095 0
M  V30 192 O 20.5052 -2.70012 -0.283826 0
M  V30 193 C 18.9612 -2.76591 2.30272 0
M  V30 194 C 18.5692 -2.41577 3.77286 0
M  V30 195 C 20.3132 -3.5455 2.33441 0
M  V30 196 C 18.2202 -3.61441 4.68096 0
M  V30 197 H 17.1502 -0.5751 0.487622 0
M  V30 198 H 19.8012 -0.853101 1.62464 0
M  V30 199 H 18.1832 -3.46326 1.92027 0
M  V30 200 H 19.3572 -1.79668 4.2433 0
M  V30 201 H 17.6722 -1.76806 3.76999 0
M  V30 202 H 20.2692 -4.43628 2.98493 0
M  V30 203 H 20.6122 -3.93936 1.34611 0
M  V30 204 H 21.1452 -2.91805 2.7036 0
M  V30 205 H 17.8842 -3.27142 5.6803 0
M  V30 206 H 17.4042 -4.22478 4.25761 0
M  V30 207 H 19.0832 -4.28335 4.8491 0
M  V30 208 N 19.2153 -1.21501 -1.00376 0
M  V30 209 C 20.1653 -0.942843 -2.07592 0
M  V30 210 C 21.1493 0.102384 -1.60574 0
M  V30 211 O 22.3413 -0.10671 -1.76678 0
M  V30 212 C 19.4703 -0.510729 -3.3948 0
M  V30 213 C 18.5563 -1.59009 -3.93163 0
M  V30 214 N 18.9473 -2.81544 -4.20198 0
M  V30 215 C 17.2453 -1.45925 -4.21452 0
M  V30 216 C 17.9463 -3.51261 -4.63671 0
M  V30 217 N 16.9223 -2.78703 -4.66718 0
M  V30 218 H 20.7243 -1.87378 -2.26421 0
M  V30 219 H 18.2383 -1.11093 -1.18458 0
M  V30 220 H 20.2353 -0.297101 -4.1584 0
M  V30 221 H 18.8953 0.413436 -3.22057 0
M  V30 222 H 19.9063 -3.18075 -4.08716 0
M  V30 223 H 16.5833 -0.600467 -4.13159 0
M  V30 224 H 17.9733 -4.56183 -4.93302 0
M  V30 225 N 20.6934 1.19889 -1.02296 0
M  V30 226 C 21.9414 1.89046 -0.714558 0
M  V30 227 C 22.2624 1.79636 0.758681 0
M  V30 228 O 21.5324 1.20292 1.54618 0
M  V30 229 H 20.1124 0.699802 -0.261317 0
M  V30 230 H 22.7744 1.45574 -1.29592 0
M  V30 231 H 21.8704 2.95524 -1.0036 0
M  V30 232 N 22.1715 0.800033 1.35784 0
M  V30 233 C 23.4175 0.377901 1.99248 0
M  V30 234 C 23.7505 -1.05052 1.63333 0
M  V30 235 O 23.0255 -1.72768 0.893385 0
M  V30 236 C 23.3085 0.553922 3.55814 0
M  V30 237 C 23.1615 2.0268 4.01548 0
M  V30 238 C 24.4805 -0.0244802 4.40093 0
M  V30 239 H 21.5995 0.138782 0.723815 0
M  V30 240 H 24.2415 1.00835 1.61035 0
M  V30 241 H 22.3915 0.0172398 3.88496 0
M  V30 242 H 24.0635 2.62536 3.79305 0
M  V30 243 H 22.3065 2.5256 3.52698 0
M  V30 244 H 22.9775 2.10087 5.10458 0
M  V30 245 H 25.4535 0.433775 4.13833 0
M  V30 246 H 24.3295 0.128637 5.48749 0
M  V30 247 H 24.5905 -1.11758 4.27741 0
M  V30 248 N 23.6496 -1.47581 0.552962 0
M  V30 249 C 24.8976 -2.02082 0.0272703 0
M  V30 250 C 25.2186 -1.4301 -1.32563 0
M  V30 251 O 24.4886 -0.603745 -1.86365 0
M  V30 252 H 23.0686 -0.746966 0.00709182 0
M  V30 253 H 25.7306 -1.81033 0.722008 0
M  V30 254 H 24.8266 -3.12034 -0.0639951 0
M  V30 255 N 25.1277 -0.289203 -1.54924 0
M  V30 256 C 26.3757 0.322879 -1.99504 0
M  V30 257 C 26.6967 1.55313 -1.1791 0
M  V30 258 O 25.9667 1.94001 -0.272097 0
M  V30 259 H 24.5467 0.122291 -0.736922 0
M  V30 260 H 27.2087 -0.397802 -1.90797 0
M  V30 261 H 26.3047 0.603061 -3.06218 0
M  V30 262 N 26.6058 1.57591 -0.0167156 0
M  V30 263 C 27.8338 1.95575 0.675128 0
M  V30 264 C 28.2488 0.892542 1.6637 0
M  V30 265 O 27.6058 -0.126912 1.82058 0
M  V30 266 C 27.6568 3.33608 1.39239 0
M  V30 267 O 27.3778 4.3585 0.443444 0
M  V30 268 C 28.8788 3.86151 2.17721 0
M  V30 269 H 26.0988 0.644423 0.186978 0
M  V30 270 H 28.6428 2.0437 -0.0728 0
M  V30 271 H 26.7978 3.2607 2.09182 0
M  V30 272 H 27.2118 5.158 0.951358 0
M  V30 273 H 28.6858 4.85114 2.63379 0
M  V30 274 H 29.1628 3.19738 3.01105 0
M  V30 275 H 29.7688 3.96918 1.52761 0
M  V30 276 N 28.0839 -0.256276 1.55502 0
M  V30 277 C 29.3119 -1.00342 1.8094 0
M  V30 278 C 29.7269 -1.79307 0.59114 0
M  V30 279 O 29.0839 -1.77114 -0.440081 0
M  V30 280 C 29.1349 -1.94875 3.04476 0
M  V30 281 O 28.8559 -1.19107 4.21598 0
M  V30 282 C 30.3569 -2.81266 3.42644 0
M  V30 283 H 27.5769 -0.295685 0.602338 0
M  V30 284 H 30.1209 -0.281998 2.02546 0
M  V30 285 H 28.2759 -2.62457 2.84947 0
M  V30 286 H 28.6899 -1.82969 4.91551 0
M  V30 287 H 30.1639 -3.43362 4.32211 0
M  V30 288 H 30.6409 -3.51897 2.62802 0
M  V30 289 H 31.2469 -2.1915 3.64491 0
M  V30 290 N 29.562 -1.4872 -0.521534 0
M  V30 291 C 30.839 -1.4766 -1.2828 0
M  V30 292 C 31.219 -0.19292 -2.10217 0
M  V30 293 O 30.567 0.825193 -2.13079 0
M  V30 294 C 30.777 -2.74358 -2.15705 0
M  V30 295 C 32.125 -3.23028 -2.75569 0
M  V30 296 O 33.149 -2.75333 -2.25987 0
M  V30 297 O 32.008 -4.0604 -3.65778 0
M  V30 298 H 29.102 -0.590085 -0.579421 0
M  V30 299 H 31.648 -1.60963 -0.537492 0
M  V30 300 H 30.42 -3.59292 -1.54999 0
M  V30 301 H 30.043 -2.63816 -2.97467 0
M  V30 302 N 31.0401 0.771051 -1.3745 0
M  V30 303 C 32.2881 1.52661 -1.32435 0
M  V30 304 C 32.6091 1.9479 0.0905024 0
M  V30 305 O 31.8791 1.66348 1.03466 0
M  V30 306 H 30.4591 0.566218 -0.487244 0
M  V30 307 H 33.1211 0.917636 -1.71946 0
M  V30 308 H 32.2171 2.42568 -1.96385 0
M  V30 309 N 32.5182 1.22032 0.997298 0
M  V30 310 C 33.7642 1.05382 1.73972 0
M  V30 311 C 34.1192 -0.407419 1.88037 0
M  V30 312 O 33.4122 -1.29811 1.40924 0
M  V30 313 C 33.6062 1.69345 3.14733 0
M  V30 314 C 33.4352 3.21537 3.14395 0
M  V30 315 C 32.2052 3.9062 3.20537 0
M  V30 316 C 34.4032 4.18527 2.98897 0
M  V30 317 N 32.3852 5.29935 3.09906 0
M  V30 318 C 33.7562 5.44645 2.96247 0
M  V30 319 C 35.8112 4.09476 2.83255 0
M  V30 320 C 34.5142 6.62752 2.79557 0
M  V30 321 C 36.5402 5.27228 2.67926 0
M  V30 322 C 35.9022 6.52262 2.65959 0
M  V30 323 H 32.0012 0.440018 0.646458 0
M  V30 324 H 34.5852 1.54505 1.18475 0
M  V30 325 H 32.7562 1.22778 3.68484 0
M  V30 326 H 34.4882 1.45828 3.77513 0
M  V30 327 H 31.2432 3.41592 3.28043 0
M  V30 328 H 31.6672 6.02926 3.07912 0
M  V30 329 H 36.3092 3.13598 2.83577 0
M  V30 330 H 34.0272 7.58783 2.77982 0
M  V30 331 H 37.6132 5.22053 2.56812 0
M  V30 332 H 36.4932 7.41844 2.54239 0
M  V30 333 N 33.9963 -1.19345 1.0293 0
M  V30 334 C 35.4123 -1.41069 0.746446 0
M  V30 335 C 35.6123 -1.90078 -0.668776 0
M  V30 336 O 34.6683 -2.0778 -1.4347 0
M  V30 337 C 35.9813 -2.42141 1.78292 0
M  V30 338 C 37.5293 -2.55887 1.80252 0
M  V30 339 C 38.0043 -3.60214 2.8286 0
M  V30 340 N 39.4953 -3.67711 2.81679 0
M  V30 341 C 40.2303 -4.48128 3.57727 0
M  V30 342 N 39.7263 -5.32248 4.43491 0
M  V30 343 N 41.5193 -4.42782 3.46267 0
M  V30 344 H 33.6703 -0.858536 1.94275 0
M  V30 345 H 35.9333 -0.439541 0.839945 0
M  V30 346 H 35.6393 -2.13155 2.79746 0
M  V30 347 H 35.5133 -3.41323 1.60557 0
M  V30 348 H 37.9003 -2.84196 0.794757 0
M  V30 349 H 37.9813 -1.56858 2.02062 0
M  V30 350 H 37.6253 -3.32647 3.83807 0
M  V30 351 H 37.5553 -4.58895 2.58307 0
M  V30 352 H 40.0463 -3.07634 2.19476 0
M  V30 353 H 40.3593 -5.90729 4.98256 0
M  V30 354 H 38.7043 -5.31707 4.47564 0
M  V30 355 H 41.8953 -3.76107 2.78677 0
M  V30 356 H 42.0683 -5.05215 4.05785 0
M  V30 357 N 35.4744 -0.807222 -1.35358 0
M  V30 358 C 36.4244 -0.190706 -2.27201 0
M  V30 359 C 37.4084 0.635838 -1.47804 0
M  V30 360 O 38.6004 0.492991 -1.69996 0
M  V30 361 C 35.7294 0.659337 -3.36909 0
M  V30 362 C 34.8154 -0.176971 -4.23731 0
M  V30 363 N 35.2064 -1.24029 -4.90357 0
M  V30 364 C 33.5044 0.0412953 -4.45981 0
M  V30 365 C 34.2054 -1.75092 -5.54723 0
M  V30 366 N 33.1814 -1.05727 -5.33219 0
M  V30 367 H 36.9834 -1.0043 -2.76208 0
M  V30 368 H 34.4974 -0.648445 -1.48892 0
M  V30 369 H 36.4944 1.11706 -4.01656 0
M  V30 370 H 35.1544 1.47127 -2.89454 0
M  V30 371 H 36.1654 -1.62295 -4.91814 0
M  V30 372 H 32.8424 0.82232 -4.09322 0
M  V30 373 H 34.2324 -2.63963 -6.17878 0
M  V30 374 N 36.9525 1.47285 -0.560781 0
M  V30 375 C 38.3635 1.86258 -0.128343 0
M  V30 376 C 38.7145 1.46699 1.30284 0
M  V30 377 O 37.8395 0.871698 1.98067 0
M  V30 378 C 38.4345 3.38044 -0.22614 0
M  V30 379 C 36.9935 3.76096 0.151283 0
M  V30 380 C 36.1405 2.71335 -0.572084 0
M  V30 381 H 39.0915 1.38752 -0.770297 0
M  V30 382 H 39.1125 3.76441 0.554322 0
M  V30 383 H 38.6245 3.66806 -1.26788 0
M  V30 384 H 36.7255 3.52951 1.19399 0
M  V30 385 H 36.8385 4.78641 -0.209765 0
M  V30 386 H 35.2025 2.54696 -0.0147653 0
M  V30 387 H 35.9855 3.02938 -1.61504 0
M  V30 388 N 38.4306 0.297415 1.54768 0
M  V30 389 C 39.7076 -0.365847 1.92148 0
M  V30 390 C 40.0876 -1.71975 1.22424 0
M  V30 391 O 39.4356 -2.25666 0.358739 0
M  V30 392 C 39.6456 -0.484056 3.45627 0
M  V30 393 C 40.9936 -0.756594 4.17805 0
M  V30 394 O 42.0176 -0.568007 3.51642 0
M  V30 395 O 40.8766 -1.11863 5.34929 0
M  V30 396 H 37.9706 -0.203919 0.801465 0
M  V30 397 H 40.5166 0.34521 1.66152 0
M  V30 398 H 39.2886 0.467865 3.88493 0
M  V30 399 H 38.9116 -1.24372 3.77647 0
M  V30 400 N 39.9087 -1.5758 0.0250728 0
M  V30 401 C 41.1547 -1.91917 -0.655413 0
M  V30 402 C 41.4877 -0.901433 -1.72011 0
M  V30 403 O 40.7627 0.0764069 -1.9435 0
M  V30 404 C 41.0457 -3.36751 -1.27558 0
M  V30 405 C 40.8987 -4.49258 -0.220719 0
M  V30 406 C 42.2177 -3.81469 -2.19475 0
M  V30 407 H 39.3367 -0.697925 -0.23679 0
M  V30 408 H 41.9787 -1.89825 0.0815036 0
M  V30 409 H 40.1287 -3.38664 -1.90365 0
M  V30 410 H 41.8007 -4.59478 0.409601 0
M  V30 411 H 40.0437 -4.31415 0.454264 0
M  V30 412 H 40.7147 -5.47618 -0.694175 0
M  V30 413 H 43.1907 -3.81266 -1.66659 0
M  V30 414 H 42.0667 -4.83512 -2.59822 0
M  V30 415 H 42.3277 -3.16744 -3.08424 0
M  V30 416 N 41.3868 0.248026 -1.55636 0
M  V30 417 C 42.6638 0.998988 -1.68165 0
M  V30 418 C 43.0438 2.03409 -0.564621 0
M  V30 419 O 42.3918 2.24378 0.432076 0
M  V30 420 C 42.6018 1.63334 -3.0842 0
M  V30 421 C 43.9498 2.13562 -3.66983 0
M  V30 422 O 44.9738 1.73277 -3.11213 0
M  V30 423 O 43.8328 2.87526 -4.64749 0
M  V30 424 H 40.9268 0.464933 -0.683935 0
M  V30 425 H 43.4728 0.241902 -1.67967 0
M  V30 426 H 42.2448 0.884583 -3.8117 0
M  V30 427 H 41.8678 2.45666 -3.12624 0
M  V30 428 N 42.8649 1.48995 0.513639 0
M  V30 429 C 44.2759 1.5119 1.09537 0
M  V30 430 C 44.6269 0.290906 1.94031 0
M  V30 431 O 43.7519 -0.60049 2.07902 0
M  V30 432 C 44.3469 2.73964 1.99322 0
M  V30 433 C 42.9059 2.78978 2.52682 0
M  V30 434 C 42.0529 2.44934 1.30009 0
M  V30 435 H 45.0039 1.55875 0.298125 0
M  V30 436 H 45.0249 2.53409 2.83838 0
M  V30 437 H 44.5369 3.62813 1.37799 0
M  V30 438 H 42.6379 1.94378 3.1788 0
M  V30 439 H 42.7509 3.8083 2.90698 0
M  V30 440 H 41.1149 1.9644 1.62122 0
M  V30 441 H 41.8979 3.36043 0.702131 0
M  V30 442 N 44.343 -0.763751 1.37857 0
M  V30 443 C 45.568 -1.55805 1.36893 0
M  V30 444 C 45.993 -1.88054 -0.0416135 0
M  V30 445 O 45.351 -1.49825 -1.02089 0
M  V30 446 C 45.399 -2.84012 2.22192 0
M  V30 447 O 44.503 -3.78732 1.63204 0
M  V30 448 H 43.844 -0.471638 0.46739 0
M  V30 449 H 46.374 -0.944657 1.81487 0
M  V30 450 H 46.384 -3.33037 2.35691 0
M  V30 451 H 45.059 -2.59869 3.24716 0
M  V30 452 H 43.636 -3.37402 1.58791 0
M  V30 453 N 45.8211 -1.22559 -0.990812 0
M  V30 454 C 46.7841 -0.998863 -2.0629 0
M  V30 455 C 47.7841 0.0354834 -1.60761 0
M  V30 456 O 48.9741 -0.203231 -1.7301 0
M  V30 457 C 46.1061 -0.509203 -3.37076 0
M  V30 458 H 47.2991 -1.95014 -2.27837 0
M  V30 459 H 44.8521 -1.04456 -1.16269 0
M  V30 460 H 45.5871 0.446335 -3.21214 0
M  V30 461 H 45.3721 -1.25547 -3.71457 0
M  V30 462 H 46.8621 -0.370888 -4.1595 0
M  V30 463 N 47.2992 1.18797 -1.03562 0
M  V30 464 C 48.5242 1.9314 -0.755764 0
M  V30 465 C 48.9492 1.7537 0.68022 0
M  V30 466 O 48.3072 1.06046 1.47051 0
M  V30 467 C 48.3552 3.42747 -1.12058 0
M  V30 468 O 47.4592 4.11683 -0.243124 0
M  V30 469 H 46.8002 0.602724 -0.278604 0
M  V30 470 H 49.3302 1.50678 -1.3841 0
M  V30 471 H 49.3402 3.93437 -1.08035 0
M  V30 472 H 48.0152 3.55002 -2.16672 0
M  V30 473 H 46.5922 3.71323 -0.342539 0
M  V30 474 N 48.7773 0.814389 1.34928 0
M  V30 475 C 50.0053 0.411136 2.02774 0
M  V30 476 C 50.4203 -0.980316 1.61354 0
M  V30 477 O 49.7773 -1.63299 0.814847 0
M  V30 478 C 49.8283 0.493865 3.58111 0
M  V30 479 O 49.5493 1.83047 3.98027 0
M  V30 480 C 51.0503 0.0844174 4.4322 0
M  V30 481 H 48.2703 0.166037 0.650133 0
M  V30 482 H 50.8143 1.10018 1.72384 0
M  V30 483 H 48.9693 -0.147006 3.87121 0
M  V30 484 H 49.3833 1.79872 4.92693 0
M  V30 485 H 50.8573 0.193404 5.51661 0
M  V30 486 H 51.3343 -0.97113 4.28329 0
M  V30 487 H 51.9403 0.69875 4.19521 0
M  V30 488 N 50.2554 -1.46986 0.568584 0
M  V30 489 C 51.2034 -2.31858 -0.185649 0
M  V30 490 C 52.1974 -1.43624 -0.898249 0
M  V30 491 O 53.4034 -1.60327 -0.818242 0
M  V30 492 H 49.7784 -0.747866 -0.0787399 0
M  V30 493 H 51.7494 -2.93303 0.549191 0
M  V30 494 C 50.4984 -3.26513 -1.19519 0
M  V30 495 H 49.8214 -3.94377 -0.656285 0
M  V30 496 H 51.2614 -3.88707 -1.6936 0
M  V30 497 C 49.7204 -2.50847 -2.24894 0
M  V30 498 O 50.2504 -2.26119 -3.32014 0
M  V30 499 N 48.4564 -2.11656 -1.99124 0
M  V30 500 H 48.0034 -2.31966 -1.12024 0
M  V30 501 H 47.9614 -1.61347 -2.69842 0
M  V30 502 N 51.7335 -0.305618 -1.54608 0
M  V30 503 C 52.9825 0.303098 -1.9941 0
M  V30 504 C 53.2955 1.54648 -1.19764 0
M  V30 505 O 54.5015 2.23007 -1.54855 0
M  V30 506 C 52.9575 0.590588 -3.55021 0
M  V30 507 C 52.5655 -0.634719 -4.43481 0
M  V30 508 C 54.3095 1.16025 -4.08336 0
M  V30 509 C 52.2165 -0.320126 -5.90533 0
M  V30 510 H 51.1465 0.117031 -0.744862 0
M  V30 511 H 53.7975 -0.415045 -1.78745 0
M  V30 512 H 52.1795 1.36845 -3.71604 0
M  V30 513 H 53.3535 -1.41079 -4.38672 0
M  V30 514 H 51.6685 -1.12333 -4.00962 0
M  V30 515 H 54.2655 1.40994 -5.15776 0
M  V30 516 H 54.6085 2.10397 -3.5922 0
M  V30 517 H 55.1415 0.443985 -3.95315 0
M  V30 518 H 51.8805 -1.23254 -6.43808 0
M  V30 519 H 51.4005 0.418579 -5.98338 0
M  V30 520 H 53.0795 0.0766241 -6.46955 0
M  V30 521 N 53.2116 1.57565 -0.0334293 0
M  V30 522 C 54.1216 2.13943 0.962572 0
M  V30 523 C 55.1376 1.09276 1.35406 0
M  V30 524 O 56.3136 1.41355 1.4346 0
M  V30 525 C 53.3786 2.65887 2.22497 0
M  V30 526 C 52.4396 3.85286 1.8935 0
M  V30 527 C 51.6726 4.34743 3.09571 0
M  V30 528 O 51.8956 3.83352 4.22371 0
M  V30 529 O 50.8296 5.26538 2.91618 0
M  V30 530 H 54.6556 2.99333 0.513169 0
M  V30 531 H 52.2406 1.4822 0.18743 0
M  V30 532 H 54.1226 2.99346 2.96598 0
M  V30 533 H 52.7976 1.83578 2.6661 0
M  V30 534 H 51.7046 3.56746 1.1262 0
M  V30 535 H 53.0376 4.68771 1.5005 0
M  V30 536 N 54.6897 -0.239769 1.55765 0
M  V30 537 C 55.9367 -0.966801 1.7793 0
M  V30 538 C 56.2647 -1.85046 0.599015 0
M  V30 539 O 55.5197 -1.91197 -0.417395 0
M  V30 540 C 55.8187 -1.852 3.05672 0
M  V30 541 C 55.4847 -1.1231 4.36689 0
M  V30 542 C 54.1467 -0.921689 4.72291 0
M  V30 543 C 56.4987 -0.607019 5.17653 0
M  V30 544 C 53.8267 -0.191996 5.86386 0
M  V30 545 C 56.1787 0.109241 6.32506 0
M  V30 546 C 54.8427 0.322073 6.66723 0
M  V30 547 H 54.1127 -0.353778 0.651093 0
M  V30 548 H 56.7597 -0.23634 1.90036 0
M  V30 549 H 55.0647 -2.64975 2.8861 0
M  V30 550 H 56.7617 -2.41635 3.20021 0
M  V30 551 H 53.3517 -1.29004 4.08725 0
M  V30 552 H 57.5357 -0.750153 4.90598 0
M  V30 553 H 52.7917 -0.0166949 6.11398 0
M  V30 554 H 56.9657 0.516737 6.9448 0
M  V30 555 H 54.5927 0.88944 7.54979 0
M  V30 556 N 56.1678 -1.49265 -0.50573 0
M  V30 557 C 57.3978 -1.61979 -1.28243 0
M  V30 558 C 57.8058 -0.288576 -1.86986 0
M  V30 559 O 57.1488 0.735408 -1.68337 0
M  V30 560 C 57.2108 -2.62632 -2.45489 0
M  V30 561 C 56.8748 -4.071 -2.07651 0
M  V30 562 C 57.8718 -4.94049 -1.61901 0
M  V30 563 C 55.5568 -4.52801 -2.17431 0
M  V30 564 C 57.5508 -6.24736 -1.26428 0
M  V30 565 C 55.2378 -5.83503 -1.8157 0
M  V30 566 C 56.2358 -6.69294 -1.36142 0
M  V30 567 O 55.9238 -7.9756 -1.00764 0
M  V30 568 H 55.6558 -0.54834 -0.395347 0
M  V30 569 H 58.2098 -1.96002 -0.614204 0
M  V30 570 H 56.4398 -2.2378 -3.15372 0
M  V30 571 H 58.1288 -2.64925 -3.07522 0
M  V30 572 H 58.8948 -4.5997 -1.53795 0
M  V30 573 H 54.7738 -3.86196 -2.51742 0
M  V30 574 H 58.3178 -6.91652 -0.908992 0
M  V30 575 H 54.2148 -6.17112 -1.89324 0
M  V30 576 H 54.9828 -8.10529 -1.13952 0
M  V30 577 N 57.6459 0.756429 -1.3826 0
M  V30 578 C 58.5789 1.87802 -1.29637 0
M  V30 579 C 59.5569 1.61667 -0.173939 0
M  V30 580 O 60.7409 1.85208 -0.350775 0
M  V30 581 C 57.8679 3.23354 -1.00797 0
M  V30 582 C 56.9139 3.68379 -2.14939 0
M  V30 583 S 57.7469 3.8025 -3.77054 0
M  V30 584 C 58.9029 5.18626 -3.50396 0
M  V30 585 H 59.1359 1.94829 -2.24564 0
M  V30 586 H 56.6689 0.919117 -1.24063 0
M  V30 587 H 58.6269 4.01637 -0.848413 0
M  V30 588 H 57.2879 3.14008 -0.0759369 0
M  V30 589 H 56.4809 4.66693 -1.90299 0
M  V30 590 H 56.0829 2.97242 -2.26988 0
M  V30 591 H 58.3749 6.04289 -3.06334 0
M  V30 592 H 59.3179 5.48286 -4.48094 0
M  V30 593 H 59.7259 4.87289 -2.84973 0
M  V30 594 N 59.124 1.23083 0.984299 0
M  V30 595 C 60.071 1.00854 2.07598 0
M  V30 596 C 61.041 -0.0726709 1.65941 0
M  V30 597 O 62.226 0.0786535 1.90638 0
M  V30 598 C 59.366 0.601645 3.39815 0
M  V30 599 C 58.479 1.75456 3.94765 0
M  V30 600 C 57.614 1.29482 5.15177 0
M  V30 601 C 56.653 2.41873 5.62284 0
M  V30 602 N 55.79 1.96885 6.73929 0
M  V30 603 H 60.63 1.943 2.25946 0
M  V30 604 H 58.167 0.968001 1.10762 0
M  V30 605 H 60.125 0.346854 4.15756 0
M  V30 606 H 58.755 -0.295803 3.21442 0
M  V30 607 H 57.807 2.12346 3.15616 0
M  V30 608 H 59.119 2.59965 4.25699 0
M  V30 609 H 58.273 0.997923 5.98437 0
M  V30 610 H 57.012 0.420046 4.85888 0
M  V30 611 H 56.017 2.72342 4.77608 0
M  V30 612 H 57.242 3.29881 5.93595 0
M  V30 613 H 55.188 1.11782 6.46406 0
M  V30 614 H 55.105 2.74956 7.04227 0
M  V30 615 H 56.373 1.70289 7.60672 0
M  V30 616 N 60.6021 -1.18246 1.0419 0
M  V30 617 C 61.5491 -2.2192 0.634037 0
M  V30 618 C 62.5191 -1.62179 -0.358765 0
M  V30 619 O 63.7041 -1.89122 -0.252466 0
M  V30 620 C 60.8441 -3.451 0.00445535 0
M  V30 621 C 59.9571 -4.19174 1.04487 0
M  V30 622 C 59.0921 -5.29813 0.383676 0
M  V30 623 C 58.1311 -5.9566 1.4091 0
M  V30 624 N 57.2681 -6.97834 0.772784 0
M  V30 625 H 62.1081 -2.56164 1.52263 0
M  V30 626 H 59.6451 -1.25843 0.761701 0
M  V30 627 H 61.6031 -4.15485 -0.377919 0
M  V30 628 H 60.2331 -3.11472 -0.847652 0
M  V30 629 H 59.2851 -3.47604 1.54518 0
M  V30 630 H 60.5971 -4.64267 1.82368 0
M  V30 631 H 59.7511 -6.06677 -0.0528366 0
M  V30 632 H 58.4901 -4.85825 -0.427208 0
M  V30 633 H 57.4951 -5.17535 1.85574 0
M  V30 634 H 58.7201 -6.4173 2.22171 0
M  V30 635 H 56.6661 -6.55998 -0.0177708 0
M  V30 636 H 56.5831 -7.41186 1.48928 0
M  V30 637 H 57.8511 -7.78665 0.36071 0
M  V30 638 N 62.0802 -0.821533 -1.34494 0
M  V30 639 C 63.0432 -0.247847 -2.27856 0
M  V30 640 C 64.0432 0.573453 -1.50227 0
M  V30 641 O 65.2332 0.389759 -1.69784 0
M  V30 642 C 62.3652 0.652698 -3.34593 0
M  V30 643 H 63.5582 -1.07146 -2.80107 0
M  V30 644 H 61.1112 -0.593291 -1.44602 0
M  V30 645 H 61.8462 1.49943 -2.87555 0
M  V30 646 H 61.6312 0.065292 -3.92046 0
M  V30 647 H 63.1212 1.04793 -4.04238 0
M  V30 648 N 63.5583 1.46682 -0.576371 0
M  V30 649 C 64.4903 2.28341 0.198231 0
M  V30 650 C 65.5033 1.38141 0.861453 0
M  V30 651 O 66.6923 1.62797 0.732082 0
M  V30 652 C 63.7923 3.12986 1.29972 0
M  V30 653 C 62.9653 4.31271 0.729639 0
M  V30 654 C 62.0243 4.97363 1.71803 0
M  V30 655 O 61.0503 5.55156 1.25658 0
M  V30 656 N 62.2523 4.93796 3.05198 0
M  V30 657 H 65.0173 2.9546 -0.502324 0
M  V30 658 H 62.5783 1.56525 -0.413715 0
M  V30 659 H 64.5703 3.54066 1.96008 0
M  V30 660 H 63.1403 2.47984 1.90323 0
M  V30 661 H 62.3603 3.94052 -0.108012 0
M  V30 662 H 63.6483 5.07739 0.328438 0
M  V30 663 H 63.0463 4.48077 3.45317 0
M  V30 664 H 61.6033 5.38837 3.6674 0
M  V30 665 N 65.0364 0.313813 1.54444 0
M  V30 666 C 66.2644 -0.293918 2.04802 0
M  V30 667 C 66.6794 -1.46537 1.19047 0
M  V30 668 O 66.0364 -1.81182 0.218939 0
M  V30 669 C 66.0874 -0.737806 3.53891 0
M  V30 670 O 65.8084 0.387038 4.36387 0
M  V30 671 C 67.3094 -1.40936 4.203 0
M  V30 672 H 64.5294 -0.0620057 0.668129 0
M  V30 673 H 67.0734 0.457169 1.99324 0
M  V30 674 H 65.2284 -1.43889 3.59687 0
M  V30 675 H 65.6424 0.0391274 5.24485 0
M  V30 676 H 67.1164 -1.67099 5.26101 0
M  V30 677 H 67.5934 -2.35355 3.70816 0
M  V30 678 H 68.1994 -0.751117 4.18615 0
M  V30 679 N 66.5145 -1.57545 0.0417849 0
M  V30 680 C 67.4775 -2.09885 -0.92093 0
M  V30 681 C 68.4775 -1.01648 -1.24596 0
M  V30 682 O 69.6675 -1.27759 -1.1842 0
M  V30 683 C 66.7995 -2.57527 -2.23367 0
M  V30 684 H 67.9925 -2.96236 -0.467382 0
M  V30 685 H 65.5455 -1.5493 -0.206467 0
M  V30 686 H 66.2805 -1.74542 -2.73323 0
M  V30 687 H 66.0655 -3.36613 -2.01083 0
M  V30 688 H 67.5555 -2.98201 -2.92346 0
M  V30 689 N 67.9926 0.231505 -1.5589 0
M  V30 690 C 68.9026 1.308 -1.94752 0
M  V30 691 C 69.9186 1.51826 -0.849989 0
M  V30 692 O 71.0946 1.6515 -1.15271 0
M  V30 693 C 68.1596 2.63968 -2.24771 0
M  V30 694 C 67.2206 2.51331 -3.48039 0
M  V30 695 C 66.4536 3.78148 -3.76616 0
M  V30 696 O 66.6766 4.80722 -3.07022 0
M  V30 697 O 65.6106 3.75857 -4.70123 0
M  V30 698 H 69.4366 1.0083 -2.86474 0
M  V30 699 H 67.0216 0.433547 -1.42971 0
M  V30 700 H 68.9036 3.42633 -2.45318 0
M  V30 701 H 67.5786 2.9364 -1.36225 0
M  V30 702 H 66.4856 1.709 -3.32782 0
M  V30 703 H 67.8186 2.26601 -4.36936 0
M  V30 704 N 69.4707 1.49531 0.497807 0
M  V30 705 C 70.4177 1.66436 1.59899 0
M  V30 706 C 71.3877 0.505793 1.58212 0
M  V30 707 O 72.5727 0.733202 1.7615 0
M  V30 708 C 69.7127 1.7399 2.98029 0
M  V30 709 C 68.8257 3.01172 3.09708 0
M  V30 710 C 67.9607 2.99686 4.38591 0
M  V30 711 C 66.9997 4.21434 4.43914 0
M  V30 712 N 66.1367 4.1784 5.64229 0
M  V30 713 H 70.9767 2.60459 1.44793 0
M  V30 714 H 68.5137 1.29137 0.704423 0
M  V30 715 H 70.4717 1.76352 3.78095 0
M  V30 716 H 69.1017 0.834301 3.11832 0
M  V30 717 H 68.1537 3.08408 2.22685 0
M  V30 718 H 69.4657 3.91165 3.09502 0
M  V30 719 H 68.6197 3.00628 5.2698 0
M  V30 720 H 67.3587 2.07477 4.41367 0
M  V30 721 H 66.3637 4.20733 3.53926 0
M  V30 722 H 67.5887 5.14839 4.42851 0
M  V30 723 H 65.5347 3.28469 5.67841 0
M  V30 724 H 65.4517 5.01571 5.65652 0
M  V30 725 H 66.7197 4.22889 6.54817 0
M  V30 726 N 70.9488 -0.749086 1.3866 0
M  V30 727 C 72.1968 -1.50535 1.34847 0
M  V30 728 C 72.5178 -1.94909 -0.0595016 0
M  V30 729 O 71.7878 -1.67973 -1.00806 0
M  V30 730 H 70.3678 -0.558395 0.49619 0
M  V30 731 H 73.0298 -0.890165 1.73384 0
M  V30 732 H 72.1258 -2.39413 2.00219 0
M  V30 733 N 72.4269 -1.23603 -0.977757 0
M  V30 734 C 73.3569 -1.04401 -2.0886 0
M  V30 735 C 74.3379 0.0399052 -1.70053 0
M  V30 736 O 75.5229 -0.125246 -1.93796 0
M  V30 737 C 72.6529 -0.637269 -3.41403 0
M  V30 738 C 71.6069 -1.66883 -3.94124 0
M  V30 739 C 70.9329 -1.11745 -5.22893 0
M  V30 740 C 72.2329 -3.06247 -4.23096 0
M  V30 741 H 73.9269 -1.97316 -2.25182 0
M  V30 742 H 71.4729 -0.950096 -1.08209 0
M  V30 743 H 73.4259 -0.48998 -4.18542 0
M  V30 744 H 72.1499 0.327557 -3.24953 0
M  V30 745 H 70.8089 -1.80416 -3.19133 0
M  V30 746 H 70.4569 -0.143527 -5.02795 0
M  V30 747 H 70.1569 -1.80672 -5.59134 0
M  V30 748 H 71.6809 -0.982067 -6.02651 0
M  V30 749 H 73.0949 -2.96001 -4.90975 0
M  V30 750 H 71.4919 -3.72436 -4.70544 0
M  V30 751 H 72.5619 -3.55041 -3.30263 0
M  V30 752 N 73.905 1.17692 -1.04816 0
M  V30 753 C 75.152 1.87859 -0.75599 0
M  V30 754 C 75.48 1.80812 0.716752 0
M  V30 755 O 74.735 1.20819 1.53952 0
M  V30 756 C 75.034 3.37462 -1.17703 0
M  V30 757 C 74.7 3.64713 -2.65133 0
M  V30 758 C 73.362 3.71859 -3.05408 0
M  V30 759 C 75.714 3.76492 -3.60421 0
M  V30 760 C 73.042 3.88271 -4.39843 0
M  V30 761 C 75.394 3.94421 -4.94585 0
M  V30 762 C 74.058 3.99806 -5.3452 0
M  V30 763 H 73.328 0.687425 -0.276636 0
M  V30 764 H 75.975 1.39255 -1.31455 0
M  V30 765 H 74.28 3.88097 -0.537395 0
M  V30 766 H 75.977 3.90109 -0.928218 0
M  V30 767 H 72.567 3.59772 -2.32942 0
M  V30 768 H 76.751 3.70295 -3.30447 0
M  V30 769 H 72.007 3.90687 -4.70291 0
M  V30 770 H 76.181 4.02477 -5.68318 0
M  V30 771 H 73.808 4.12276 -6.38696 0
M  V30 772 N 75.3831 0.828654 1.34056 0
M  V30 773 C 76.6081 0.431637 2.02859 0
M  V30 774 C 77.0331 -0.956339 1.61975 0
M  V30 775 O 76.3911 -1.62338 0.807228 0
M  V30 776 C 76.4391 0.548323 3.56407 0
M  V30 777 O 75.5431 -0.429556 4.10157 0
M  V30 778 H 74.8841 0.176886 0.640006 0
M  V30 779 H 77.4141 1.12066 1.71179 0
M  V30 780 H 77.4241 0.426196 4.05768 0
M  V30 781 H 76.0991 1.5606 3.8551 0
M  V30 782 H 74.6761 -0.265836 3.71951 0
M  V30 783 N 76.8612 -1.46375 0.584142 0
M  V30 784 C 78.1082 -2.02378 0.0702675 0
M  V30 785 C 78.4362 -1.45545 -1.29023 0
M  V30 786 O 77.6912 -0.610967 -1.85918 0
M  V30 787 C 77.9902 -3.57373 -0.0439342 0
M  V30 788 C 77.6562 -4.33252 1.24915 0
M  V30 789 C 76.3182 -4.53701 1.60341 0
M  V30 790 C 78.6702 -4.7681 2.1048 0
M  V30 791 C 75.9982 -5.1496 2.81128 0
M  V30 792 C 78.3502 -5.39404 3.30494 0
M  V30 793 C 77.0142 -5.5808 3.66201 0
M  V30 794 H 76.2842 -0.740554 0.0257127 0
M  V30 795 H 78.9312 -1.75727 0.761065 0
M  V30 796 H 77.2362 -3.83169 -0.817869 0
M  V30 797 H 78.9332 -3.98384 -0.457318 0
M  V30 798 H 75.5232 -4.17633 0.963364 0
M  V30 799 H 79.7072 -4.60766 1.84414 0
M  V30 800 H 74.9632 -5.27611 3.08928 0
M  V30 801 H 79.1372 -5.72114 3.97063 0
M  V30 802 H 76.7642 -6.05318 4.59885 0
M  V30 803 N 78.3393 -0.321999 -1.54275 0
M  V30 804 C 79.5883 0.281931 -1.9972 0
M  V30 805 C 79.9013 1.53369 -1.21397 0
M  V30 806 O 81.1073 2.21352 -1.57211 0
M  V30 807 C 79.5633 0.5529 -3.55628 0
M  V30 808 C 79.1713 -0.681721 -4.42783 0
M  V30 809 C 80.9153 1.11687 -4.09544 0
M  V30 810 C 78.8223 -0.382742 -5.9016 0
M  V30 811 H 77.7523 0.109124 -0.746062 0
M  V30 812 H 80.4033 -0.43398 -1.78294 0
M  V30 813 H 78.7853 1.32896 -3.73035 0
M  V30 814 H 79.9593 -1.45723 -4.37151 0
M  V30 815 H 78.2743 -1.1658 -3.99748 0
M  V30 816 H 80.8713 1.35515 -5.17242 0
M  V30 817 H 81.2143 2.06575 -3.61431 0
M  V30 818 H 81.7473 0.402032 -3.95763 0
M  V30 819 H 78.4863 -1.30076 -6.42464 0
M  V30 820 H 78.0063 0.355094 -5.98748 0
M  V30 821 H 79.6853 0.00800157 -6.47 0
M  V30 822 N 79.8174 1.5752 -0.0501392 0
M  V30 823 C 81.0644 1.9265 0.623874 0
M  V30 824 C 81.3924 0.928411 1.70912 0
M  V30 825 O 80.6474 -0.0594525 1.9561 0
M  V30 826 C 80.9464 3.34467 1.25963 0
M  V30 827 C 80.6124 4.49883 0.302689 0
M  V30 828 C 79.2744 4.81184 0.0393636 0
M  V30 829 C 81.6264 5.20002 -0.353205 0
M  V30 830 C 78.9544 5.79951 -0.887308 0
M  V30 831 C 81.3064 6.1976 -1.26806 0
M  V30 832 C 79.9704 6.49491 -1.54007 0
M  V30 833 H 79.2404 0.704957 0.228292 0
M  V30 834 H 81.8874 1.91146 -0.116398 0
M  V30 835 H 80.1924 3.32333 2.07514 0
M  V30 836 H 81.8894 3.58928 1.78806 0
M  V30 837 H 78.4794 4.25457 0.518109 0
M  V30 838 H 82.6634 4.96033 -0.162854 0
M  V30 839 H 77.9194 6.01322 -1.10553 0
M  V30 840 H 82.0934 6.73205 -1.78236 0
M  V30 841 H 79.7204 7.25837 -2.25976 0
M  V30 842 N 81.2955 -0.223234 1.56011 0
M  V30 843 C 82.5445 -0.945912 1.78144 0
M  V30 844 C 82.8575 -1.85567 0.618396 0
M  V30 845 O 84.0635 -2.61688 0.723318 0
M  V30 846 C 82.5195 -1.73216 3.15475 0
M  V30 847 C 82.1275 -0.868619 4.39499 0
M  V30 848 C 83.8715 -2.44615 3.46935 0
M  V30 849 C 81.7785 -1.65212 5.67855 0
M  V30 850 H 80.7085 -0.356929 0.664167 0
M  V30 851 H 83.3595 -0.199845 1.82409 0
M  V30 852 H 81.7415 -2.52107 3.05382 0
M  V30 853 H 82.9155 -0.120366 4.60643 0
M  V30 854 H 81.2305 -0.26683 4.15544 0
M  V30 855 H 83.8275 -3.03732 4.40058 0
M  V30 856 H 84.1705 -3.17417 2.69355 0
M  V30 857 H 84.7035 -1.72715 3.58349 0
M  V30 858 H 81.4425 -0.967407 6.48322 0
M  V30 859 H 80.9625 -2.37503 5.50774 0
M  V30 860 H 82.6415 -2.21322 6.07968 0
M  V30 861 N 82.7736 -1.49793 -0.48987 0
M  V30 862 C 83.7366 -1.66752 -1.57246 0
M  V30 863 C 84.7366 -0.538867 -1.51502 0
M  V30 864 O 85.9266 -0.805545 -1.54456 0
M  V30 865 C 83.0586 -1.67528 -2.96896 0
M  V30 866 H 84.2516 -2.63321 -1.43534 0
M  V30 867 H 81.8046 -1.38992 -0.714914 0
M  V30 868 H 82.5396 -0.725837 -3.16073 0
M  V30 869 H 82.3246 -2.49504 -3.02473 0
M  V30 870 H 83.8146 -1.82667 -3.7553 0
M  V30 871 N 84.2517 0.741722 -1.39055 0
M  V30 872 C 85.5287 1.49252 -1.26425 0
M  V30 873 C 85.9087 2.10705 0.129144 0
M  V30 874 O 85.2567 1.98045 1.13976 0
M  V30 875 C 85.4667 2.54934 -2.38347 0
M  V30 876 C 86.8147 3.21506 -2.77343 0
M  V30 877 O 87.8387 2.65245 -2.37747 0
M  V30 878 O 86.6977 4.23294 -3.45665 0
M  V30 879 H 83.7917 0.662451 -0.495064 0
M  V30 880 H 86.3377 0.776121 -1.50912 0
M  V30 881 H 85.1097 2.07857 -3.31529 0
M  V30 882 H 84.7327 3.34141 -2.15489 0
M  V30 883 N 85.7298 1.2412 0.971189 0
M  V30 884 C 86.9778 1.07668 1.71032 0
M  V30 885 C 87.2988 -0.385797 1.91146 0
M  V30 886 O 86.5688 -1.27569 1.4867 0
M  V30 887 H 85.1488 0.395429 0.633755 0
M  V30 888 H 87.8108 1.55984 1.16855 0
M  V30 889 H 86.9068 1.57195 2.69622 0
M  V30 890 N 87.2079 -1.17134 1.05439 0
M  V30 891 C 88.1379 -2.2342 0.678649 0
M  V30 892 C 89.1189 -1.66971 -0.32476 0
M  V30 893 O 90.3039 -1.93149 -0.201802 0
M  V30 894 C 87.4339 -3.47256 0.0552099 0
M  V30 895 C 86.3879 -4.16543 0.98365 0
M  V30 896 C 85.7139 -5.34231 0.223961 0
M  V30 897 C 87.0139 -4.68495 2.3089 0
M  V30 898 H 88.7079 -2.55105 1.56722 0
M  V30 899 H 86.2539 -1.2262 0.754998 0
M  V30 900 H 88.2069 -4.20828 -0.21946 0
M  V30 901 H 86.9309 -3.14846 -0.868319 0
M  V30 902 H 85.5899 -3.44887 1.24293 0
M  V30 903 H 85.2379 -4.98071 -0.702412 0
M  V30 904 H 84.9379 -5.81527 0.842627 0
M  V30 905 H 86.4619 -6.10585 -0.0433671 0
M  V30 906 H 87.8759 -5.33691 2.09396 0
M  V30 907 H 86.2729 -5.26379 2.88176 0
M  V30 908 H 87.3429 -3.85169 2.94572 0
M  V30 909 N 88.686 -0.835752 -1.33615 0
M  V30 910 C 89.933 -0.429959 -1.97883 0
M  V30 911 C 90.261 1.01006 -1.66217 0
M  V30 912 O 89.516 1.72047 -0.93265 0
M  V30 913 C 89.815 -0.593925 -3.52431 0
M  V30 914 C 89.481 -2.00158 -4.04039 0
M  V30 915 C 88.143 -2.38662 -4.17844 0
M  V30 916 C 90.495 -2.92117 -4.31644 0
M  V30 917 C 87.823 -3.68435 -4.56588 0
M  V30 918 C 90.175 -4.21368 -4.71838 0
M  V30 919 C 88.839 -4.59833 -4.83849 0
M  V30 920 H 88.109 -0.157333 -0.724104 0
M  V30 921 H 90.756 -1.06217 -1.59343 0
M  V30 922 H 89.061 0.121619 -3.91611 0
M  V30 923 H 90.758 -0.260282 -4.00154 0
M  V30 924 H 87.348 -1.69252 -3.93766 0
M  V30 925 H 91.532 -2.63608 -4.20505 0
M  V30 926 H 86.788 -3.98046 -4.64079 0
M  V30 927 H 90.962 -4.92703 -4.92155 0
M  V30 928 H 88.589 -5.60438 -5.13627 0
M  V30 929 N 90.1641 1.46063 -0.591896 0
M  V30 930 C 91.4131 2.01547 -0.0786637 0
M  V30 931 C 91.7261 1.46796 1.29268 0
M  V30 932 O 92.9321 1.94157 1.89777 0
M  V30 933 C 91.3881 3.59787 -0.0900024 0
M  V30 934 C 90.9961 4.23534 -1.46023 0
M  V30 935 C 92.7401 4.22895 0.368806 0
M  V30 936 C 90.6471 5.73881 -1.4288 0
M  V30 937 H 89.5771 0.753564 -0.0256388 0
M  V30 938 H 92.2281 1.677 -0.744905 0
M  V30 939 H 90.6101 3.90752 0.642586 0
M  V30 940 H 91.7841 4.04167 -2.21328 0
M  V30 941 H 90.0991 3.72558 -1.85982 0
M  V30 942 H 92.6961 5.33116 0.411258 0
M  V30 943 H 93.0391 3.9247 1.38827 0
M  V30 944 H 93.5721 3.9659 -0.31001 0
M  V30 945 H 90.3111 6.0898 -2.42536 0
M  V30 946 H 89.8311 5.95486 -0.718095 0
M  V30 947 H 91.5101 6.36776 -1.14565 0
M  V30 948 N 91.6422 0.330177 1.54103 0
M  V30 949 C 92.8672 -0.274893 2.0557 0
M  V30 950 C 93.2922 -1.44487 1.20437 0
M  V30 951 O 92.6502 -1.80021 0.214991 0
M  V30 952 C 92.6982 -0.68079 3.54115 0
M  V30 953 O 91.8022 -1.7824 3.71893 0
M  V30 954 H 91.1432 -0.0483849 0.662235 0
M  V30 955 H 93.6732 0.480508 1.98878 0
M  V30 956 H 93.6832 -0.961635 3.96505 0
M  V30 957 H 92.3582 0.174903 4.15532 0
M  V30 958 H 90.9352 -1.49985 3.41407 0
M  V30 959 N 93.1203 -1.57491 0.0584922 0
M  V30 960 C 94.0303 -2.15448 -0.928414 0
M  V30 961 C 95.0463 -1.11416 -1.3365 0
M  V30 962 O 96.2223 -1.4362 -1.41193 0
M  V30 963 C 93.2873 -2.69393 -2.18239 0
M  V30 964 C 92.3483 -3.88249 -1.83196 0
M  V30 965 C 91.5813 -4.39613 -3.02616 0
M  V30 966 O 91.8043 -3.90023 -4.16219 0
M  V30 967 O 90.7383 -5.31111 -2.83204 0
M  V30 968 H 94.5643 -3.00112 -0.465483 0
M  V30 969 H 92.1493 -1.48499 -0.163826 0
M  V30 970 H 94.0313 -3.04026 -2.91798 0
M  V30 971 H 92.7063 -1.87796 -2.63656 0
M  V30 972 H 91.6133 -3.58492 -1.06931 0
M  V30 973 H 92.9463 -4.71098 -1.42573 0
M  V30 974 N 94.5984 0.214957 -1.56127 0
M  V30 975 C 95.5454 1.26642 -1.92952 0
M  V30 976 C 96.5154 1.46244 -0.78753 0
M  V30 977 O 97.7004 1.59704 -1.04399 0
M  V30 978 C 94.8404 2.6104 -2.25726 0
M  V30 979 C 93.9534 2.49183 -3.52891 0
M  V30 980 C 93.0884 3.76149 -3.7508 0
M  V30 981 C 92.1274 3.59041 -4.95738 0
M  V30 982 N 91.2644 4.77972 -5.14283 0
M  V30 983 H 96.1044 0.945384 -2.82607 0
M  V30 984 H 93.6414 0.455489 -1.3987 0
M  V30 985 H 95.5994 3.39313 -2.42739 0
M  V30 986 H 94.2294 2.91227 -1.39236 0
M  V30 987 H 93.2814 1.6231 -3.44034 0
M  V30 988 H 94.5934 2.32466 -4.41318 0
M  V30 989 H 93.7474 4.62865 -3.92226 0
M  V30 990 H 92.4864 3.95799 -2.84947 0
M  V30 991 H 91.4914 2.7071 -4.78535 0
M  V30 992 H 92.7164 3.40856 -5.87362 0
M  V30 993 H 90.6624 4.97923 -4.27093 0
M  V30 994 H 90.5794 4.64006 -5.96853 0
M  V30 995 H 91.8474 5.66096 -5.35869 0
M  V30 996 N 96.0765 1.50051 0.48192 0
M  V30 997 C 97.3015 1.64508 1.26301 0
M  V30 998 C 97.7265 0.323851 1.85291 0
M  V30 999 O 97.0845 -0.710969 1.66778 0
M  V30 1000 C 97.1325 2.7305 2.35533 0
M  V30 1001 O 96.2365 2.3355 3.39895 0
M  V30 1002 H 95.5775 0.549978 0.372048 0
M  V30 1003 H 98.1075 1.9636 0.574786 0
M  V30 1004 H 98.1175 2.95799 2.8101 0
M  V30 1005 H 96.7925 3.68946 1.91967 0
M  V30 1006 H 95.3695 2.21205 3.00204 0
M  V30 1007 N 97.5546 -0.734337 1.39446 0
M  V30 1008 C 98.8036 -1.48937 1.36017 0
M  V30 1009 C 99.1166 -1.95557 -0.0409005 0
M  V30 1010 O 100.323 -2.70779 -0.19778 0
M  V30 1011 C 98.7786 -2.69125 2.38955 0
M  V30 1012 C 98.3866 -2.29452 3.8478 0
M  V30 1013 C 100.131 -3.46944 2.44603 0
M  V30 1014 C 98.0376 -3.46366 4.79358 0
M  V30 1015 H 96.9676 -0.559296 0.505672 0
M  V30 1016 H 99.6186 -0.800983 1.65095 0
M  V30 1017 H 98.0006 -3.40041 2.02948 0
M  V30 1018 H 99.1746 -1.66077 4.29831 0
M  V30 1019 H 97.4896 -1.64723 3.82433 0
M  V30 1020 H 100.087 -4.33907 3.12456 0
M  V30 1021 H 100.43 -3.89454 1.47076 0
M  V30 1022 H 100.963 -2.83056 2.79507 0
M  V30 1023 H 97.7016 -3.08905 5.78151 0
M  V30 1024 H 97.2216 -4.08719 4.38986 0
M  V30 1025 H 98.9006 -4.12691 4.98292 0
M  V30 1026 N 99.0327 -1.24633 -0.964593 0
M  V30 1027 C 100.444 -1.08045 -1.5226 0
M  V30 1028 C 100.795 0.347116 -1.93105 0
M  V30 1029 O 99.9197 1.23588 -1.77637 0
M  V30 1030 C 100.515 -1.95514 -2.76695 0
M  V30 1031 C 99.0737 -1.8314 -3.28841 0
M  V30 1032 C 98.2207 -1.90262 -2.01732 0
M  V30 1033 H 101.172 -1.38064 -0.782553 0
M  V30 1034 H 101.193 -1.48925 -3.50145 0
M  V30 1035 H 100.705 -2.99407 -2.46936 0
M  V30 1036 H 98.8057 -0.82092 -3.63444 0
M  V30 1037 H 98.9187 -2.67406 -3.97531 0
M  V30 1038 H 97.2827 -1.34027 -2.16584 0
M  V30 1039 H 98.0657 -2.9574 -1.74334 0
M  V30 1040 N 100.511 1.16574 -1.06058 0
M  V30 1041 C 101.461 2.18854 -0.63929 0
M  V30 1042 C 102.445 1.57505 0.328798 0
M  V30 1043 O 103.637 1.76408 0.144623 0
M  V30 1044 C 100.766 3.43291 -0.0247203 0
M  V30 1045 C 99.8518 4.11722 -1.01716 0
M  V30 1046 N 100.243 4.55841 -2.19186 0
M  V30 1047 C 98.5408 4.37872 -0.847569 0
M  V30 1048 C 99.2418 5.08751 -2.82042 0
M  V30 1049 N 98.2178 5.01489 -2.09784 0
M  V30 1050 H 102.02 2.5068 -1.53417 0
M  V30 1051 H 99.5338 1.32999 -0.931935 0
M  V30 1052 H 101.531 4.15856 0.294915 0
M  V30 1053 H 100.191 3.12954 0.865448 0
M  V30 1054 H 101.202 4.49649 -2.56975 0
M  V30 1055 H 97.8788 4.17499 -0.00918848 0
M  V30 1056 H 99.2688 5.52944 -3.81709 0
M  V30 1057 N 101.989 0.842826 1.3317 0
M  V30 1058 C 103.236 0.440447 1.97652 0
M  V30 1059 C 103.564 -1.00123 1.6675 0
M  V30 1060 O 102.819 -1.7155 0.941761 0
M  V30 1061 C 103.118 0.612607 3.52111 0
M  V30 1062 C 102.784 2.02297 4.02972 0
M  V30 1063 C 101.446 2.40874 4.16573 0
M  V30 1064 C 103.798 2.94402 4.30089 0
M  V30 1065 C 101.126 3.70852 4.54627 0
M  V30 1066 C 103.478 4.23865 4.69597 0
M  V30 1067 C 102.142 4.62392 4.81404 0
M  V30 1068 H 101.412 0.161171 0.72326 0
M  V30 1069 H 104.059 1.07061 1.58777 0
M  V30 1070 H 102.364 -0.100849 3.9167 0
M  V30 1071 H 104.061 0.2815 4.00011 0
M  V30 1072 H 100.651 1.71338 3.92863 0
M  V30 1073 H 104.835 2.65835 4.19101 0
M  V30 1074 H 100.091 4.00501 4.61962 0
M  V30 1075 H 104.265 4.95306 4.89536 0
M  V30 1076 H 101.892 5.63154 5.10648 0
M  V30 1077 N 103.467 -1.45747 0.599634 0
M  V30 1078 C 104.397 -2.33235 -0.111306 0
M  V30 1079 C 105.378 -1.46359 -0.866781 0
M  V30 1080 O 106.563 -1.75146 -0.838904 0
M  V30 1081 C 103.693 -3.28932 -1.11451 0
M  V30 1082 C 102.647 -4.25381 -0.472772 0
M  V30 1083 C 101.973 -5.1071 -1.58365 0
M  V30 1084 C 103.273 -5.18831 0.600948 0
M  V30 1085 H 104.967 -2.92927 0.61919 0
M  V30 1086 H 102.513 -1.40857 0.299215 0
M  V30 1087 H 104.466 -3.89002 -1.62036 0
M  V30 1088 H 103.19 -2.67381 -1.8755 0
M  V30 1089 H 101.849 -3.66598 0.0121472 0
M  V30 1090 H 101.497 -4.45533 -2.33473 0
M  V30 1091 H 101.197 -5.7604 -1.15982 0
M  V30 1092 H 102.721 -5.73647 -2.09194 0
M  V30 1093 H 104.135 -5.73019 0.179491 0
M  V30 1094 H 102.532 -5.92595 0.946076 0
M  V30 1095 H 103.602 -4.6174 1.48068 0
M  V30 1096 N 104.945 -0.338344 -1.53925 0
M  V30 1097 C 105.893 0.536231 -2.26335 0
M  V30 1098 C 106.887 1.1063 -1.28286 0
M  V30 1099 O 108.093 1.05264 -1.46012 0
M  V30 1100 H 104.468 0.191602 -0.727181 0
M  V30 1101 H 106.439 -0.0965747 -2.98244 0
M  V30 1102 C 105.188 1.67803 -3.04528 0
M  V30 1103 H 104.511 1.24864 -3.79801 0
M  V30 1104 H 105.951 2.26526 -3.58416 0
M  V30 1105 C 104.41 2.60439 -2.13712 0
M  V30 1106 O 104.94 3.6255 -1.72975 0
M  V30 1107 N 103.146 2.29006 -1.78898 0
M  V30 1108 H 102.693 1.46011 -2.12223 0
M  V30 1109 H 102.651 2.91248 -1.18416 0
M  V30 1110 N 106.423 1.57458 -0.0668435 0
M  V30 1111 C 107.839 1.56947 0.289772 0
M  V30 1112 C 108.039 1.07584 1.70376 0
M  V30 1113 O 107.095 0.739486 2.41429 0
M  V30 1114 C 108.408 3.0052 0.103943 0
M  V30 1115 C 109.956 3.12517 0.173857 0
M  V30 1116 C 110.431 4.57997 0.0163682 0
M  V30 1117 N 111.922 4.63144 0.0721352 0
M  V30 1118 C 112.657 5.73394 -0.0253794 0
M  V30 1119 N 112.153 6.92576 -0.176133 0
M  V30 1120 N 113.946 5.62091 0.0313305 0
M  V30 1121 H 106.097 1.87863 -0.991027 0
M  V30 1122 H 108.36 0.86583 -0.38606 0
M  V30 1123 H 108.066 3.40729 -0.871572 0
M  V30 1124 H 107.94 3.67304 0.858366 0
M  V30 1125 H 110.327 2.72197 1.13985 0
M  V30 1126 H 110.408 2.48381 -0.611586 0
M  V30 1127 H 110.052 4.99005 -0.946374 0
M  V30 1128 H 109.982 5.20158 0.821153 0
M  V30 1129 H 112.473 3.77436 0.187263 0
M  V30 1130 H 112.786 7.72418 -0.242821 0
M  V30 1131 H 111.131 6.94678 -0.211429 0
M  V30 1132 H 114.322 4.67867 0.147773 0
M  V30 1133 H 114.495 6.47982 -0.048121 0
M  V30 1134 N 107.901 -0.206675 1.56239 0
M  V30 1135 C 109.148 -0.928842 1.79941 0
M  V30 1136 C 109.476 -1.83734 0.638131 0
M  V30 1137 O 108.731 -1.92039 -0.376746 0
M  V30 1138 C 109.03 -1.78675 3.09532 0
M  V30 1139 C 108.696 -1.03022 4.38973 0
M  V30 1140 C 107.358 -0.821302 4.74139 0
M  V30 1141 C 109.71 -0.497081 5.18824 0
M  V30 1142 C 107.038 -0.0675719 5.86661 0
M  V30 1143 C 109.39 0.24338 6.32132 0
M  V30 1144 C 108.054 0.463422 6.65889 0
M  V30 1145 H 107.324 -0.339887 0.658451 0
M  V30 1146 H 109.971 -0.195977 1.90495 0
M  V30 1147 H 108.276 -2.58794 2.94165 0
M  V30 1148 H 109.973 -2.34792 3.25075 0
M  V30 1149 H 106.563 -1.20306 4.11369 0
M  V30 1150 H 110.747 -0.645921 4.92079 0
M  V30 1151 H 106.003 0.112995 6.11296 0
M  V30 1152 H 110.177 0.66393 6.93228 0
M  V30 1153 H 107.804 1.04938 7.52922 0
M  V30 1154 N 109.379 -1.50304 -0.473955 0
M  V30 1155 C 110.289 -1.7174 -1.5982 0
M  V30 1156 C 111.305 -0.600457 -1.63311 0
M  V30 1157 O 112.481 -0.878441 -1.81233 0
M  V30 1158 C 109.546 -1.80427 -2.96052 0
M  V30 1159 C 108.607 -3.04148 -3.02972 0
M  V30 1160 C 107.84 -3.12411 -4.32706 0
M  V30 1161 O 108.063 -2.27542 -5.23049 0
M  V30 1162 O 106.997 -4.05113 -4.45159 0
M  V30 1163 H 110.823 -2.67035 -1.44657 0
M  V30 1164 H 108.408 -1.34366 -0.653148 0
M  V30 1165 H 110.29 -1.88338 -3.7697 0
M  V30 1166 H 108.965 -0.883156 -3.11419 0
M  V30 1167 H 107.872 -3.0174 -2.21142 0
M  V30 1168 H 109.205 -3.95829 -2.92541 0
M  V30 1169 N 110.857 0.726932 -1.39834 0
M  V30 1170 C 112.268 1.30558 -1.3346 0
M  V30 1171 C 112.619 1.962 -0.00273003 0
M  V30 1172 O 111.744 1.96826 0.899371 0
M  V30 1173 C 112.339 2.37404 -2.41713 0
M  V30 1174 C 110.898 2.90921 -2.38835 0
M  V30 1175 C 110.045 1.64578 -2.2318 0
M  V30 1176 H 112.996 0.523862 -1.49804 0
M  V30 1177 H 113.017 3.17984 -2.08966 0
M  V30 1178 H 112.529 1.89599 -3.38635 0
M  V30 1179 H 110.63 3.42985 -1.45575 0
M  V30 1180 H 110.743 3.43487 -3.33997 0
M  V30 1181 H 109.107 1.89219 -1.70494 0
M  V30 1182 H 109.89 1.18814 -3.22084 0
M  V30 1183 N 112.336 1.25143 0.95797 0
M  V30 1184 C 113.585 1.0909 1.69654 0
M  V30 1185 C 113.898 -0.368548 1.92097 0
M  V30 1186 O 115.104 -0.649455 2.63618 0
M  V30 1187 C 113.56 1.90395 3.05414 0
M  V30 1188 C 113.168 3.4081 2.90779 0
M  V30 1189 C 114.912 1.82901 3.83076 0
M  V30 1190 C 112.819 4.14423 4.21909 0
M  V30 1191 H 111.749 0.404625 0.636235 0
M  V30 1192 H 114.4 1.4931 1.06672 0
M  V30 1193 H 112.782 1.42996 3.69281 0
M  V30 1194 H 113.956 3.95859 2.35865 0
M  V30 1195 H 112.271 3.49361 2.26575 0
M  V30 1196 H 114.868 2.35196 4.80195 0
M  V30 1197 H 115.211 0.796224 4.08615 0
M  V30 1198 H 115.744 2.28033 3.25954 0
M  V30 1199 H 112.483 5.18102 4.01561 0
M  V30 1200 H 112.003 3.64159 4.76601 0
M  V30 1201 H 113.682 4.21956 4.90471 0
M  V30 1202 N 113.814 -1.1601 1.06675 0
M  V30 1203 C 115.042 -1.90527 0.806667 0
M  V30 1204 C 115.457 -1.77643 -0.639396 0
M  V30 1205 O 114.814 -1.12369 -1.43803 0
M  V30 1206 C 114.865 -3.41106 1.19705 0
M  V30 1207 O 114.586 -3.53608 2.58636 0
M  V30 1208 C 116.087 -4.32663 0.965266 0
M  V30 1209 H 113.307 -0.604053 0.292166 0
M  V30 1210 H 115.851 -1.47026 1.4214 0
M  V30 1211 H 114.006 -3.82296 0.626774 0
M  V30 1212 H 114.42 -4.47011 2.74375 0
M  V30 1213 H 115.894 -5.36763 1.288 0
M  V30 1214 H 116.371 -4.39089 -0.0987936 0
M  V30 1215 H 116.977 -3.97206 1.52011 0
M  V30 1216 N 115.292 -0.849877 -1.32721 0
M  V30 1217 C 116.541 -0.447175 -1.96681 0
M  V30 1218 C 116.854 1.00135 -1.68025 0
M  V30 1219 O 118.06 1.50926 -2.25685 0
M  V30 1220 C 116.516 -0.7487 -3.52026 0
M  V30 1221 C 116.124 -2.21264 -3.89546 0
M  V30 1222 C 117.868 -0.413487 -4.22481 0
M  V30 1223 C 115.775 -2.45763 -5.37917 0
M  V30 1224 H 114.705 -0.163486 -0.736063 0
M  V30 1225 H 117.356 -1.03999 -1.51183 0
M  V30 1226 H 115.738 -0.0853727 -3.95908 0
M  V30 1227 H 116.912 -2.91736 -3.56689 0
M  V30 1228 H 115.227 -2.5119 -3.32103 0
M  V30 1229 H 117.824 -0.574017 -5.3161 0
M  V30 1230 H 118.167 0.644492 -4.11281 0
M  V30 1231 H 118.7 -1.03251 -3.84167 0
M  V30 1232 H 115.439 -3.50168 -5.54132 0
M  V30 1233 H 114.959 -1.79864 -5.72197 0
M  V30 1234 H 116.638 -2.29471 -6.0494 0
M  V30 1235 N 116.77 1.45427 -0.607355 0
M  V30 1236 C 117.7 2.3329 0.0989352 0
M  V30 1237 C 118.681 1.46816 0.859007 0
M  V30 1238 O 119.866 1.75588 0.829604 0
M  V30 1239 C 116.996 3.29518 1.09705 0
M  V30 1240 C 115.95 4.25626 0.450206 0
M  V30 1241 C 115.276 5.11542 1.55655 0
M  V30 1242 C 116.576 5.18505 -0.628455 0
M  V30 1243 H 118.27 2.92595 -0.634716 0
M  V30 1244 H 115.816 1.40696 -0.306681 0
M  V30 1245 H 117.769 3.89855 1.59971 0
M  V30 1246 H 116.493 2.68372 1.86129 0
M  V30 1247 H 115.152 3.66586 -0.0315886 0
M  V30 1248 H 114.8 4.46765 2.31107 0
M  V30 1249 H 114.5 5.76647 1.12925 0
M  V30 1250 H 116.024 5.74748 2.06148 0
M  V30 1251 H 117.438 5.72916 -0.209877 0
M  V30 1252 H 115.835 5.92085 -0.977489 0
M  V30 1253 H 116.905 4.60948 -1.50514 0
M  V30 1254 N 118.248 0.346503 1.53744 0
M  V30 1255 C 119.473 -0.253074 2.0585 0
M  V30 1256 C 119.898 -1.43202 1.21962 0
M  V30 1257 O 119.256 -1.79783 0.234073 0
M  V30 1258 C 119.304 -0.643193 3.54817 0
M  V30 1259 O 118.408 -1.74286 3.73762 0
M  V30 1260 H 117.749 -0.0413583 0.662711 0
M  V30 1261 H 120.279 0.501574 1.98357 0
M  V30 1262 H 120.289 -0.919526 3.97503 0
M  V30 1263 H 118.964 0.218966 4.15323 0
M  V30 1264 H 117.541 -1.46356 3.42979 0
M  V30 1265 N 119.726 -1.57421 0.075193 0
M  V30 1266 C 120.689 -2.11791 -0.876203 0
M  V30 1267 C 121.689 -1.04268 -1.22412 0
M  V30 1268 O 122.879 -1.30242 -1.15684 0
M  V30 1269 C 120.011 -2.62207 -2.17854 0
M  V30 1270 H 121.204 -2.9716 -0.40444 0
M  V30 1271 H 118.757 -1.55333 -0.173557 0
M  V30 1272 H 119.492 -1.803 -2.6956 0
M  V30 1273 H 119.277 -3.40802 -1.93897 0
M  V30 1274 H 120.767 -3.04335 -2.85955 0
M  V30 1275 N 121.204 0.198386 -1.56346 0
M  V30 1276 C 122.134 1.24865 -1.9731 0
M  V30 1277 C 123.115 1.47651 -0.844576 0
M  V30 1278 O 124.3 1.59444 -1.10866 0
M  V30 1279 C 121.43 2.59358 -2.30977 0
M  V30 1280 C 120.384 2.5119 -3.46537 0
M  V30 1281 C 119.71 3.89926 -3.65871 0
M  V30 1282 C 121.01 2.03977 -4.80823 0
M  V30 1283 H 122.704 0.908252 -2.85291 0
M  V30 1284 H 120.25 0.435462 -1.37258 0
M  V30 1285 H 122.203 3.33011 -2.58228 0
M  V30 1286 H 120.927 2.95132 -1.39874 0
M  V30 1287 H 119.586 1.79993 -3.19371 0
M  V30 1288 H 119.234 4.23046 -2.72105 0
M  V30 1289 H 118.934 3.85336 -4.4361 0
M  V30 1290 H 120.458 4.65205 -3.95495 0
M  V30 1291 H 121.872 2.67386 -5.07127 0
M  V30 1292 H 120.269 2.10397 -5.62008 0
M  V30 1293 H 121.339 0.992861 -4.74626 0
M  V30 1294 N 122.682 1.50554 0.465978 0
M  V30 1295 C 123.645 1.69233 1.54574 0
M  V30 1296 C 124.645 0.562901 1.50626 0
M  V30 1297 O 125.835 0.830016 1.53155 0
M  V30 1298 C 122.967 1.7223 2.94193 0
M  V30 1299 H 124.16 2.65571 1.39327 0
M  V30 1300 H 121.713 1.40111 0.692711 0
M  V30 1301 H 122.448 0.77603 3.14878 0
M  V30 1302 H 122.233 2.54285 2.98466 0
M  V30 1303 H 123.723 1.88618 3.72576 0
M  V30 1304 N 124.16 -0.719506 1.40217 0
M  V30 1305 C 125.385 -1.51371 1.4178 0
M  V30 1306 C 125.81 -1.88091 0.0182355 0
M  V30 1307 O 125.168 -1.52997 -0.972707 0
M  V30 1308 C 125.216 -2.768 2.31115 0
M  V30 1309 O 124.32 -3.73349 1.7517 0
M  V30 1310 H 123.661 -0.456529 0.482159 0
M  V30 1311 H 126.191 -0.88644 1.844 0
M  V30 1312 H 126.201 -3.25371 2.46167 0
M  V30 1313 H 124.876 -2.49407 3.3282 0
M  V30 1314 H 123.453 -3.32179 1.69444 0
M  V30 1315 N 125.638 -1.25649 -0.95132 0
M  V30 1316 C 126.884 -1.10757 -1.69884 0
M  V30 1317 C 127.217 0.350061 -1.91019 0
M  V30 1318 O 126.492 1.25783 -1.48354 0
M  V30 1319 C 126.775 -1.86606 -3.07978 0
M  V30 1320 C 126.628 -3.40217 -2.94232 0
M  V30 1321 C 127.947 -1.65182 -4.07925 0
M  V30 1322 H 125.066 -0.40374 -0.616574 0
M  V30 1323 H 127.708 -1.54521 -1.10558 0
M  V30 1324 H 125.858 -1.49409 -3.58621 0
M  V30 1325 H 127.53 -3.87108 -2.50889 0
M  V30 1326 H 125.773 -3.67759 -2.30078 0
M  V30 1327 H 126.444 -3.88505 -3.92133 0
M  V30 1328 H 128.92 -1.9757 -3.66204 0
M  V30 1329 H 127.796 -2.20683 -5.02583 0
M  V30 1330 H 128.057 -0.593933 -4.38092 0
M  V30 1331 N 127.117 1.15442 -1.07289 0
M  V30 1332 C 128.345 1.90096 -0.81676 0
M  V30 1333 C 128.76 1.7798 0.629966 0
M  V30 1334 O 128.117 1.1313 1.43206 0
M  V30 1335 C 128.168 3.40466 -1.21512 0
M  V30 1336 O 127.889 3.52232 -2.60508 0
M  V30 1337 C 129.39 4.32145 -0.988198 0
M  V30 1338 H 126.61 0.602495 -0.295366 0
M  V30 1339 H 129.154 1.4627 -1.42918 0
M  V30 1340 H 127.309 3.81958 -0.647039 0
M  V30 1341 H 127.723 4.45549 -2.76742 0
M  V30 1342 H 129.197 5.36072 -1.31645 0
M  V30 1343 H 129.674 4.39135 0.0755063 0
M  V30 1344 H 130.28 3.96395 -1.54115 0
M  V30 1345 N 128.595 0.856903 1.32268 0
M  V30 1346 C 129.542 0.301172 2.28827 0
M  V30 1347 C 130.512 -0.593104 1.5515 0
M  V30 1348 O 131.697 -0.527537 1.83362 0
M  V30 1349 C 128.837 -0.502523 3.41422 0
M  V30 1350 C 127.95 0.417797 4.29975 0
M  V30 1351 C 127.085 -0.398749 5.29701 0
M  V30 1352 C 126.124 0.518827 6.09897 0
M  V30 1353 N 125.261 -0.260674 7.01616 0
M  V30 1354 H 130.101 1.12983 2.75751 0
M  V30 1355 H 127.638 0.568582 1.35667 0
M  V30 1356 H 129.596 -0.984141 4.05426 0
M  V30 1357 H 128.226 -1.29599 2.95642 0
M  V30 1358 H 127.278 1.01781 3.66531 0
M  V30 1359 H 128.59 1.12191 4.86019 0
M  V30 1360 H 127.744 -0.943435 5.9932 0
M  V30 1361 H 126.483 -1.13622 4.7428 0
M  V30 1362 H 125.488 1.07538 5.39181 0
M  V30 1363 H 126.713 1.25495 6.67404 0
M  V30 1364 H 124.659 -0.981198 6.4862 0
M  V30 1365 H 124.576 0.384364 7.55022 0
M  V30 1366 H 125.844 -0.787014 7.75517 0
M  V30 1367 N 130.073 -1.45103 0.615059 0
M  V30 1368 C 131.021 -2.32331 -0.111791 0
M  V30 1369 C 132.015 -1.46409 -0.852102 0
M  V30 1370 O 133.221 -1.62849 -0.766821 0
M  V30 1371 H 129.596 -0.749993 -0.0549072 0
M  V30 1372 H 131.567 -2.91407 0.642225 0
M  V30 1373 C 130.316 -3.3015 -1.09071 0
M  V30 1374 H 129.639 -3.96265 -0.530485 0
M  V30 1375 H 131.079 -3.93898 -1.56908 0
M  V30 1376 C 129.538 -2.57875 -2.168 0
M  V30 1377 O 130.068 -2.36567 -3.24652 0
M  V30 1378 N 128.274 -2.17884 -1.92289 0
M  V30 1379 H 127.821 -2.35413 -1.04587 0
M  V30 1380 H 127.779 -1.6985 -2.64572 0
M  V30 1381 N 131.551 -0.354651 -1.53558 0
M  V30 1382 C 132.8 0.239504 -2.00273 0
M  V30 1383 C 133.113 1.50759 -1.24623 0
M  V30 1384 O 134.319 2.17968 -1.61871 0
M  V30 1385 C 132.775 0.477341 -3.5672 0
M  V30 1386 C 132.383 -0.775488 -4.41237 0
M  V30 1387 C 134.127 1.02975 -4.11821 0
M  V30 1388 C 132.034 -0.507838 -5.89216 0
M  V30 1389 H 130.964 0.0932743 -0.748208 0
M  V30 1390 H 133.615 -0.471701 -1.77334 0
M  V30 1391 H 131.997 1.24953 -3.7577 0
M  V30 1392 H 133.171 -1.54963 -4.33962 0
M  V30 1393 H 131.486 -1.25033 -3.97185 0
M  V30 1394 H 134.083 1.24513 -5.2 0
M  V30 1395 H 134.426 1.98862 -3.65731 0
M  V30 1396 H 134.959 0.317994 -3.96527 0
M  V30 1397 H 131.698 -1.43674 -6.39561 0
M  V30 1398 H 131.218 0.228011 -5.99366 0
M  V30 1399 H 132.897 -0.129238 -6.46871 0
M  V30 1400 N 133.029 1.57378 -0.0835403 0
M  V30 1401 C 134.277 1.93547 0.581718 0
M  V30 1402 C 134.598 0.96524 1.69435 0
M  V30 1403 O 133.868 0.0153369 1.95894 0
M  V30 1404 H 132.448 0.714521 0.217874 0
M  V30 1405 H 135.11 1.94366 -0.144158 0
M  V30 1406 H 134.206 2.95665 0.999423 0
M  V30 1407 N 134.507 -0.190092 1.56449 0
M  V30 1408 C 135.437 -1.23816 1.97969 0
M  V30 1409 C 136.418 -1.47201 0.852395 0
M  V30 1410 O 137.603 -1.58854 1.1171 0
M  V30 1411 C 134.733 -2.5813 2.3235 0
M  V30 1412 C 133.687 -2.49348 3.47864 0
M  V30 1413 C 133.013 -3.8798 3.67934 0
M  V30 1414 C 134.313 -2.01424 4.81898 0
M  V30 1415 H 136.007 -0.89311 2.85769 0
M  V30 1416 H 133.553 -0.428177 1.37487 0
M  V30 1417 H 135.506 -3.31637 2.59991 0
M  V30 1418 H 134.23 -2.94386 1.41438 0
M  V30 1419 H 132.889 -1.78297 3.20321 0
M  V30 1420 H 132.537 -4.21597 2.74344 0
M  V30 1421 H 132.237 -3.82978 4.45648 0
M  V30 1422 H 133.761 -4.63101 3.97957 0
M  V30 1423 H 135.175 -2.64693 5.08538 0
M  V30 1424 H 133.572 -2.07413 5.63116 0
M  V30 1425 H 134.642 -0.967677 4.75146 0
M  V30 1426 N 135.985 -1.50799 -0.457987 0
M  V30 1427 C 137.231 -1.62683 -1.21088 0
M  V30 1428 C 137.564 -0.332268 -1.91336 0
M  V30 1429 O 136.839 0.667043 -1.82704 0
M  V30 1430 C 137.122 -2.81615 -2.24422 0
M  V30 1431 C 136.975 -4.20989 -1.58392 0
M  V30 1432 C 138.294 -2.96085 -3.2561 0
M  V30 1433 H 135.413 -0.592087 -0.438864 0
M  V30 1434 H 138.055 -1.83225 -0.50286 0
M  V30 1435 H 136.205 -2.64231 -2.84806 0
M  V30 1436 H 137.877 -4.49994 -1.01504 0
M  V30 1437 H 136.12 -4.24641 -0.886704 0
M  V30 1438 H 136.791 -5.0016 -2.33547 0
M  V30 1439 H 139.267 -3.12042 -2.75262 0
M  V30 1440 H 138.143 -3.80902 -3.95228 0
M  V30 1441 H 138.404 -2.0726 -3.90507 0
M  V30 1442 N 137.463 0.71206 -1.40597 0
M  V30 1443 C 138.711 1.46907 -1.38791 0
M  V30 1444 C 139.032 1.94998 0.00780391 0
M  V30 1445 O 138.302 1.70587 0.963174 0
M  V30 1446 H 136.882 0.545043 -0.51082 0
M  V30 1447 H 139.544 0.843882 -1.75683 0
M  V30 1448 H 138.64 2.34021 -2.06496 0
M  V30 1449 N 138.941 1.26152 0.944643 0
M  V30 1450 C 140.169 1.14259 1.72489 0
M  V30 1451 C 140.584 -0.302555 1.8636 0
M  V30 1452 O 139.941 -1.20741 1.36849 0
M  V30 1453 C 139.992 1.80266 3.13347 0
M  V30 1454 O 139.713 3.19133 3.00143 0
M  V30 1455 C 141.214 1.74283 4.07603 0
M  V30 1456 H 138.434 0.398051 0.540181 0
M  V30 1457 H 140.978 1.66706 1.18446 0
M  V30 1458 H 139.133 1.31766 3.64303 0
M  V30 1459 H 139.547 3.51744 3.89071 0
M  V30 1460 H 141.021 2.25111 5.04013 0
M  V30 1461 H 141.498 0.708631 4.33446 0
M  V30 1462 H 142.104 2.22319 3.62567 0
M  V30 1463 N 140.419 -1.14872 1.07899 0
M  V30 1464 C 141.666 -1.85789 0.805532 0
M  V30 1465 C 141.994 -1.82649 -0.668561 0
M  V30 1466 O 141.249 -1.24858 -1.50695 0
M  V30 1467 C 141.548 -3.34223 1.26609 0
M  V30 1468 C 141.214 -3.57555 2.74709 0
M  V30 1469 C 139.876 -3.63631 3.1516 0
M  V30 1470 C 142.228 -3.66803 3.70277 0
M  V30 1471 C 139.556 -3.76473 4.49983 0
M  V30 1472 C 141.908 -3.8117 5.04869 0
M  V30 1473 C 140.572 -3.85494 5.44932 0
M  V30 1474 H 139.842 -0.679849 0.294765 0
M  V30 1475 H 142.489 -1.3572 1.35101 0
M  V30 1476 H 140.794 -3.86536 0.640103 0
M  V30 1477 H 142.491 -3.87511 1.03132 0
M  V30 1478 H 139.081 -3.5347 2.42398 0
M  V30 1479 H 143.265 -3.61404 3.40149 0
M  V30 1480 H 138.521 -3.7808 4.80484 0
M  V30 1481 H 142.695 -3.87268 5.78789 0
M  V30 1482 H 140.322 -3.95197 6.49403 0
M  V30 1483 N 141.898 -0.863906 -1.31812 0
M  V30 1484 C 143.123 -0.48527 -2.01643 0
M  V30 1485 C 143.548 0.913058 -1.64453 0
M  V30 1486 O 142.906 1.6014 -0.849985 0
M  V30 1487 C 142.954 -0.642625 -3.54828 0
M  V30 1488 O 142.058 0.320659 -4.11151 0
M  V30 1489 H 141.399 -0.193793 -0.635091 0
M  V30 1490 H 143.929 -1.16565 -1.68148 0
M  V30 1491 H 143.939 -0.533628 -4.04495 0
M  V30 1492 H 142.614 -1.66227 -3.81237 0
M  V30 1493 H 141.191 0.167126 -3.72525 0
M  V30 1494 N 143.376 1.44774 -0.622745 0
M  V30 1495 C 144.604 2.06487 -0.130722 0
M  V30 1496 C 145.019 1.46476 1.19123 0
M  V30 1497 O 144.376 0.584502 1.72887 0
M  V30 1498 C 144.427 3.615 -0.000807207 0
M  V30 1499 O 144.148 4.19274 -1.27048 0
M  V30 1500 C 145.649 4.40229 0.520898 0
M  V30 1501 H 142.869 0.666704 -0.0758106 0
M  V30 1502 H 145.413 1.85779 -0.854774 0
M  V30 1503 H 143.568 3.81498 0.673643 0
M  V30 1504 H 143.982 5.12622 -1.1099 0
M  V30 1505 H 145.456 5.49144 0.560838 0
M  V30 1506 H 145.933 4.1108 1.54627 0
M  V30 1507 H 146.539 4.25131 -0.120018 0
M  V30 1508 N 144.854 0.36279 1.53368 0
M  V30 1509 C 146.079 -0.231226 2.06107 0
M  V30 1510 C 146.504 -1.419 1.23474 0
M  V30 1511 O 145.862 -1.79524 0.253128 0
M  V30 1512 C 145.91 -0.605523 3.5548 0
M  V30 1513 O 145.014 -1.70312 3.7559 0
M  V30 1514 H 144.355 -0.034327 0.663112 0
M  V30 1515 H 146.885 0.522584 1.97814 0
M  V30 1516 H 146.895 -0.877314 3.98456 0
M  V30 1517 H 145.57 0.263004 4.15068 0
M  V30 1518 H 144.147 -1.4271 3.44512 0
M  V30 1519 N 146.332 -1.57332 0.0918853 0
M  V30 1520 C 147.579 -1.94236 -0.572577 0
M  V30 1521 C 147.907 -0.973398 -1.6839 0
M  V30 1522 O 147.162 0.00756912 -1.95699 0
M  V30 1523 C 147.461 -3.37689 -1.17051 0
M  V30 1524 C 147.127 -4.50527 -0.183304 0
M  V30 1525 C 145.789 -4.81119 0.0882276 0
M  V30 1526 C 148.141 -5.18883 0.49095 0
M  V30 1527 C 145.469 -5.77395 1.04076 0
M  V30 1528 C 147.821 -6.1618 1.43193 0
M  V30 1529 C 146.485 -6.45179 1.71173 0
M  V30 1530 H 145.755 -0.710762 -0.209521 0
M  V30 1531 H 148.402 -1.9077 0.167036 0
M  V30 1532 H 146.707 -3.37718 -1.9863 0
M  V30 1533 H 148.404 -3.63543 -1.69227 0
M  V30 1534 H 144.994 -4.26681 -0.405124 0
M  V30 1535 H 149.178 -4.95427 0.294312 0
M  V30 1536 H 144.434 -5.98179 1.26457 0
M  V30 1537 H 148.608 -6.68243 1.96023 0
M  V30 1538 H 146.235 -7.1959 2.4514 0
M  V30 1539 N 147.81 0.181792 -1.56548 0
M  V30 1540 C 149.038 0.915947 -1.85521 0
M  V30 1541 C 149.453 1.76282 -0.676016 0
M  V30 1542 O 148.81 1.79012 0.355077 0
M  V30 1543 C 148.861 1.80126 -3.13427 0
M  V30 1544 O 148.582 0.988562 -4.26801 0
M  V30 1545 C 150.083 2.64597 -3.55673 0
M  V30 1546 H 147.303 0.26661 -0.61576 0
M  V30 1547 H 149.847 0.185039 -2.03661 0
M  V30 1548 H 148.002 2.48563 -2.97145 0
M  V30 1549 H 148.416 1.59308 -4.99721 0
M  V30 1550 H 149.89 3.2235 -4.48101 0
M  V30 1551 H 150.367 3.38958 -2.79292 0
M  V30 1552 H 150.973 2.0151 -3.74532 0
M  V30 1553 N 149.288 1.51039 0.449983 0
M  V30 1554 C 150.198 1.74261 1.57067 0
M  V30 1555 C 151.214 0.626363 1.62335 0
M  V30 1556 O 152.39 0.907162 1.79812 0
M  V30 1557 C 149.455 1.85114 2.93144 0
M  V30 1558 C 148.516 3.0893 2.98095 0
M  V30 1559 C 147.749 3.19256 4.27681 0
M  V30 1560 O 147.972 2.35835 5.19363 0
M  V30 1561 O 146.906 4.12144 4.38658 0
M  V30 1562 H 150.732 2.69303 1.40391 0
M  V30 1563 H 148.317 1.35389 0.631688 0
M  V30 1564 H 150.199 1.94311 3.73926 0
M  V30 1565 H 148.874 0.932588 3.09975 0
M  V30 1566 H 147.781 3.0522 2.16314 0
M  V30 1567 H 149.114 4.00433 2.86206 0
M  V30 1568 N 150.766 -0.704594 1.40972 0
M  V30 1569 C 152.177 -1.28418 1.3552 0
M  V30 1570 C 152.528 -1.96171 0.0339434 0
M  V30 1571 O 151.653 -1.98231 -0.867944 0
M  V30 1572 C 152.248 -2.33528 2.45459 0
M  V30 1573 C 150.807 -2.87085 2.43433 0
M  V30 1574 C 149.954 -1.61007 2.2577 0
M  V30 1575 H 152.905 -0.499963 1.50619 0
M  V30 1576 H 152.926 -3.14619 2.13998 0
M  V30 1577 H 152.438 -1.84187 3.41609 0
M  V30 1578 H 150.539 -3.40626 1.51013 0
M  V30 1579 H 150.652 -3.3813 3.39419 0
M  V30 1580 H 149.016 -1.86482 1.73483 0
M  V30 1581 H 149.799 -1.13675 3.23933 0
M  V30 1582 N 152.244 -1.26651 -0.937939 0
M  V30 1583 C 153.491 -1.12387 -1.6845 0
M  V30 1584 C 153.819 0.332208 -1.91642 0
M  V30 1585 O 153.074 1.2602 -1.49725 0
M  V30 1586 C 153.373 -1.84168 -3.06295 0
M  V30 1587 C 153.039 -3.34056 -3.02849 0
M  V30 1588 C 151.701 -3.74942 -3.01616 0
M  V30 1589 C 154.053 -4.29741 -2.9491 0
M  V30 1590 C 151.381 -5.09894 -2.90215 0
M  V30 1591 C 153.733 -5.64738 -2.8505 0
M  V30 1592 C 152.397 -6.0493 -2.82162 0
M  V30 1593 H 151.667 -0.411252 -0.616403 0
M  V30 1594 H 154.314 -1.57134 -1.09459 0
M  V30 1595 H 152.619 -1.319 -3.6893 0
M  V30 1596 H 154.316 -1.70569 -3.62915 0
M  V30 1597 H 150.906 -3.01534 -3.0459 0
M  V30 1598 H 155.09 -3.99133 -2.94969 0
M  V30 1599 H 150.346 -5.40194 -2.86358 0
M  V30 1600 H 154.52 -6.38561 -2.77872 0
M  V30 1601 H 152.147 -7.09457 -2.73084 0
M  V30 1602 N 153.722 1.14298 -1.08507 0
M  V30 1603 C 154.95 1.89219 -0.836876 0
M  V30 1604 C 155.365 1.78638 0.611054 0
M  V30 1605 O 154.722 1.14643 1.41998 0
M  V30 1606 C 154.773 3.39158 -1.25116 0
M  V30 1607 O 154.494 3.49449 -2.64229 0
M  V30 1608 C 155.995 4.31073 -1.03398 0
M  V30 1609 H 153.215 0.599328 -0.301739 0
M  V30 1610 H 155.759 1.44746 -1.44461 0
M  V30 1611 H 153.914 3.81251 -0.687514 0
M  V30 1612 H 154.328 4.42589 -2.81452 0
M  V30 1613 H 155.802 5.34646 -1.37323 0
M  V30 1614 H 156.279 4.3919 0.0289259 0
M  V30 1615 H 156.885 3.94738 -1.58311 0
M  V30 1616 N 155.201 0.870884 1.31352 0
M  V30 1617 C 156.45 0.478408 1.95944 0
M  V30 1618 C 156.763 -0.974493 1.69597 0
M  V30 1619 O 157.969 -1.47316 2.28058 0
M  V30 1620 C 156.425 0.804609 3.50791 0
M  V30 1621 C 156.033 2.27433 3.85977 0
M  V30 1622 C 157.777 0.480648 4.2177 0
M  V30 1623 C 155.684 2.5429 5.33939 0
M  V30 1624 H 154.614 0.175175 0.733369 0
M  V30 1625 H 157.265 1.06391 1.4951 0
M  V30 1626 H 155.647 0.148347 3.95722 0
M  V30 1627 H 156.821 2.97373 3.52002 0
M  V30 1628 H 155.136 2.56442 3.28065 0
M  V30 1629 H 157.733 0.658519 5.30629 0
M  V30 1630 H 158.076 -0.578979 4.12254 0
M  V30 1631 H 158.609 1.09349 3.82476 0
M  V30 1632 H 155.348 3.58939 5.48491 0
M  V30 1633 H 154.868 1.88945 5.69263 0
M  V30 1634 H 156.547 2.39066 6.01212 0
M  V30 1635 N 156.679 -1.44442 0.630414 0
M  V30 1636 C 157.904 -2.06927 0.139944 0
M  V30 1637 C 158.329 -1.46795 -1.17613 0
M  V30 1638 O 157.687 -0.569144 -1.72135 0
M  V30 1639 C 157.735 -3.6058 0.0379581 0
M  V30 1640 O 156.839 -3.99937 -1.0062 0
M  V30 1641 H 156.18 -0.658608 0.0844483 0
M  V30 1642 H 158.71 -1.85327 0.866891 0
M  V30 1643 H 158.72 -4.07714 -0.152856 0
M  V30 1644 H 157.395 -4.03728 0.998809 0
M  V30 1645 H 155.972 -3.64436 -0.79001 0
M  V30 1646 N 158.157 -0.370918 -1.53173 0
M  V30 1647 C 159.573 -0.0200818 -1.59587 0
M  V30 1648 C 159.773 1.46279 -1.38581 0
M  V30 1649 O 158.829 2.22506 -1.19363 0
M  V30 1650 C 160.142 -0.4808 -2.96831 0
M  V30 1651 C 161.69 -0.435477 -3.09956 0
M  V30 1652 C 162.165 -0.872092 -4.4962 0
M  V30 1653 N 163.656 -0.827364 -4.55751 0
M  V30 1654 C 164.391 -1.13683 -5.62018 0
M  V30 1655 N 163.887 -1.51584 -6.76014 0
M  V30 1656 N 165.68 -1.05927 -5.52029 0
M  V30 1657 H 157.831 -1.33652 -1.65079 0
M  V30 1658 H 160.094 -0.546634 -0.774529 0
M  V30 1659 H 159.8 -1.51577 -3.1736 0
M  V30 1660 H 159.674 0.129796 -3.76977 0
M  V30 1661 H 162.061 0.590371 -2.89134 0
M  V30 1662 H 162.142 -1.08164 -2.31806 0
M  V30 1663 H 161.786 -1.89608 -4.71181 0
M  V30 1664 H 161.716 -0.203127 -5.26208 0
M  V30 1665 H 164.207 -0.548216 -3.73902 0
M  V30 1666 H 164.52 -1.73609 -7.53047 0
M  V30 1667 H 162.865 -1.55454 -6.77391 0
M  V30 1668 H 166.056 -0.762321 -4.61851 0
M  V30 1669 H 166.229 -1.30378 -6.34749 0
M  V30 1670 N 159.635 1.57281 -0.100228 0
M  V30 1671 C 160.567 2.11342 0.886972 0
M  V30 1672 C 161.58 1.05182 1.24261 0
M  V30 1673 O 162.769 1.32613 1.19483 0
M  V30 1674 C 159.869 2.5825 2.19454 0
M  V30 1675 C 159.042 3.88302 2.01346 0
M  V30 1676 C 158.101 4.21004 3.15661 0
M  V30 1677 O 157.127 4.9014 2.89398 0
M  V30 1678 N 158.329 3.76818 4.41575 0
M  V30 1679 H 161.094 2.96668 0.425216 0
M  V30 1680 H 158.655 1.61678 0.0847334 0
M  V30 1681 H 160.647 2.7717 2.94888 0
M  V30 1682 H 159.217 1.77907 2.57037 0
M  V30 1683 H 158.437 3.7848 1.10212 0
M  V30 1684 H 159.725 4.73375 1.8653 0
M  V30 1685 H 159.123 3.2102 4.65792 0
M  V30 1686 H 157.68 4.00882 5.13942 0
M  V30 1687 N 161.113 -0.173488 1.56642 0
M  V30 1688 C 162.043 -1.2171 1.99271 0
M  V30 1689 C 163.024 -1.46289 0.867959 0
M  V30 1690 O 164.209 -1.5766 1.13388 0
M  V30 1691 C 161.339 -2.55651 2.35074 0
M  V30 1692 C 160.293 -2.45645 3.50489 0
M  V30 1693 C 159.619 -3.84056 3.72028 0
M  V30 1694 C 160.919 -1.96302 4.84007 0
M  V30 1695 H 162.613 -0.86275 2.867 0
M  V30 1696 H 160.159 -0.413571 1.37933 0
M  V30 1697 H 162.112 -3.2886 2.63494 0
M  V30 1698 H 160.836 -2.92869 1.44552 0
M  V30 1699 H 159.495 -1.7489 3.22194 0
M  V30 1700 H 159.143 -4.18664 2.788 0
M  V30 1701 H 158.843 -3.7823 4.49684 0
M  V30 1702 H 160.367 -4.58854 4.02846 0
M  V30 1703 H 161.781 -2.59284 5.11317 0
M  V30 1704 H 160.178 -2.01429 5.65284 0
M  V30 1705 H 161.248 -0.917226 4.76146 0
M  V30 1706 N 162.591 -1.51276 -0.441967 0
M  V30 1707 C 163.524 -1.66933 -1.55591 0
M  V30 1708 C 164.502 -0.516958 -1.54163 0
M  V30 1709 O 165.686 -0.740209 -1.73358 0
M  V30 1710 C 162.813 -1.67866 -2.94174 0
M  V30 1711 C 161.859 -2.89013 -3.13646 0
M  V30 1712 S 162.692 -4.49897 -2.90436 0
M  V30 1713 C 163.848 -4.53568 -4.31308 0
M  V30 1714 H 164.081 -2.61155 -1.42076 0
M  V30 1715 H 161.614 -1.40902 -0.631341 0
M  V30 1716 H 163.572 -1.69089 -3.74058 0
M  V30 1717 H 162.233 -0.748296 -3.05056 0
M  V30 1718 H 161.426 -2.86054 -4.14957 0
M  V30 1719 H 161.028 -2.85509 -2.4158 0
M  V30 1720 H 163.32 -4.28924 -5.24434 0
M  V30 1721 H 164.263 -5.55355 -4.39303 0
M  V30 1722 H 164.671 -3.82943 -4.14747 0
M  V30 1723 N 164.069 0.697108 -1.41344 0
M  V30 1724 C 165.294 1.49096 -1.44171 0
M  V30 1725 C 165.719 1.88038 -0.0481568 0
M  V30 1726 O 165.077 1.54525 0.948243 0
M  V30 1727 C 165.125 2.73088 -2.3549 0
M  V30 1728 O 164.229 3.70514 -1.81088 0
M  V30 1729 H 163.57 0.448801 -0.489361 0
M  V30 1730 H 166.1 0.856992 -1.85787 0
M  V30 1731 H 166.11 3.21413 -2.51312 0
M  V30 1732 H 164.785 2.44081 -3.36745 0
M  V30 1733 H 163.362 3.29441 -1.74708 0
M  V30 1734 N 165.547 1.27147 0.931209 0
M  V30 1735 C 166.477 1.12081 2.04842 0
M  V30 1736 C 167.458 0.0232364 1.70084 0
M  V30 1737 O 168.643 0.197085 1.93197 0
M  V30 1738 C 165.773 0.76354 3.38803 0
M  V30 1739 C 164.727 1.81396 3.87659 0
M  V30 1740 C 164.053 1.31075 5.18385 0
M  V30 1741 C 165.353 3.21739 4.11438 0
M  V30 1742 H 167.047 2.05537 2.17703 0
M  V30 1743 H 164.593 0.989603 1.04608 0
M  V30 1744 H 166.546 0.644982 4.16435 0
M  V30 1745 H 165.27 -0.206727 3.25945 0
M  V30 1746 H 163.929 1.92136 3.12217 0
M  V30 1747 H 163.577 0.330037 5.01916 0
M  V30 1748 H 163.277 2.013 5.52044 0
M  V30 1749 H 164.801 1.20506 5.98591 0
M  V30 1750 H 166.215 3.14019 4.79651 0
M  V30 1751 H 164.612 3.89644 4.56397 0
M  V30 1752 H 165.682 3.67054 3.16859 0
M  V30 1753 N 167.025 -1.13721 1.09112 0
M  V30 1754 C 168.302 -1.81155 0.737706 0
M  V30 1755 C 168.682 -1.96253 -0.777683 0
M  V30 1756 O 168.03 -1.52807 -1.69889 0
M  V30 1757 C 168.24 -3.16392 1.47299 0
M  V30 1758 C 169.588 -3.91787 1.63671 0
M  V30 1759 O 170.612 -3.26005 1.43524 0
M  V30 1760 O 169.471 -5.0977 1.96969 0
M  V30 1761 H 166.565 -0.783518 0.26463 0
M  V30 1762 H 169.111 -1.20676 1.19312 0
M  V30 1763 H 167.883 -3.0061 2.50498 0
M  V30 1764 H 167.506 -3.8457 1.00953 0
M  V30 1765 N 168.503 -0.877838 -1.30888 0
M  V30 1766 C 169.453 -0.310872 -2.25871 0
M  V30 1767 C 170.437 0.556596 -1.50966 0
M  V30 1768 O 171.629 0.402187 -1.7237 0
M  V30 1769 C 168.758 0.479821 -3.3993 0
M  V30 1770 C 167.844 -0.401333 -4.22197 0
M  V30 1771 N 168.235 -1.49848 -4.83093 0
M  V30 1772 C 166.533 -0.195167 -4.45573 0
M  V30 1773 C 167.234 -2.0425 -5.44662 0
M  V30 1774 N 166.21 -1.33843 -5.26865 0
M  V30 1775 H 170.012 -1.1493 -2.70496 0
M  V30 1776 H 167.526 -0.726458 -1.45246 0
M  V30 1777 H 169.523 0.902582 -4.07012 0
M  V30 1778 H 168.183 1.31577 -2.96846 0
M  V30 1779 H 169.194 -1.88137 -4.82519 0
M  V30 1780 H 165.871 0.604192 -4.13105 0
M  V30 1781 H 167.261 -2.96345 -6.03017 0
M  V30 1782 N 169.982 1.44106 -0.638065 0
M  V30 1783 C 171.231 2.01194 -0.142744 0
M  V30 1784 C 171.544 1.50835 1.24532 0
M  V30 1785 O 172.75 2.00096 1.83504 0
M  V30 1786 C 171.206 3.59319 -0.20442 0
M  V30 1787 C 170.814 4.18674 -1.59423 0
M  V30 1788 C 172.558 4.23854 0.234079 0
M  V30 1789 C 170.465 5.69045 -1.61065 0
M  V30 1790 H 169.395 0.752367 -0.0495998 0
M  V30 1791 H 172.046 1.65246 -0.797881 0
M  V30 1792 H 170.428 3.92598 0.517946 0
M  V30 1793 H 171.602 3.96921 -2.34074 0
M  V30 1794 H 169.917 3.66453 -1.97741 0
M  V30 1795 H 172.514 5.34155 0.241443 0
M  V30 1796 H 172.857 3.96688 1.2627 0
M  V30 1797 H 173.39 3.95403 -0.436025 0
M  V30 1798 H 170.129 6.00956 -2.61787 0
M  V30 1799 H 169.649 5.929 -0.90718 0
M  V30 1800 H 171.328 6.32809 -1.34766 0
M  V30 1801 N 171.46 0.379036 1.52974 0
M  V30 1802 C 172.685 -0.209353 2.06341 0
M  V30 1803 C 173.11 -1.40583 1.24972 0
M  V30 1804 O 172.468 -1.79246 0.272155 0
M  V30 1805 C 172.516 -0.567786 3.56102 0
M  V30 1806 O 171.62 -1.66318 3.77375 0
M  V30 1807 H 170.961 -0.0272919 0.663439 0
M  V30 1808 H 173.491 0.543536 1.97248 0
M  V30 1809 H 173.501 -0.835003 3.99364 0
M  V30 1810 H 172.176 0.307013 4.14765 0
M  V30 1811 H 170.753 -1.39048 3.46006 0
M  V30 1812 N 172.938 -1.57226 0.108567 0
M  V30 1813 C 174.186 -1.94448 -0.550853 0
M  V30 1814 C 174.507 -0.992074 -1.67878 0
M  V30 1815 O 173.777 -0.0465 -1.95845 0
M  V30 1816 H 172.357 -0.717897 -0.206479 0
M  V30 1817 H 175.019 -1.94112 0.175062 0
M  V30 1818 H 174.115 -2.97218 -0.952259 0
M  V30 1819 N 174.416 0.165178 -1.56732 0
M  V30 1820 C 175.664 0.879068 -1.8198 0
M  V30 1821 C 175.985 1.82514 -0.686561 0
M  V30 1822 O 175.255 1.93694 0.293146 0
M  V30 1823 H 173.835 0.327608 -0.671329 0
M  V30 1824 H 176.497 0.163526 -1.94213 0
M  V30 1825 H 175.593 1.45228 -2.76252 0
M  V30 1826 N 175.894 1.51508 0.433938 0
M  V30 1827 C 177.31 1.39759 0.770682 0
M  V30 1828 C 177.51 0.482594 1.95636 0
M  V30 1829 O 176.566 -0.0609691 2.52426 0
M  V30 1830 C 177.879 2.81851 1.04787 0
M  V30 1831 C 179.427 2.91025 1.1521 0
M  V30 1832 C 179.902 4.34032 1.46219 0
M  V30 1833 N 181.393 4.37154 1.53136 0
M  V30 1834 C 182.128 5.4484 1.78709 0
M  V30 1835 N 181.624 6.62682 2.02051 0
M  V30 1836 N 183.417 5.32324 1.80519 0
M  V30 1837 H 175.568 2.09548 -0.346892 0
M  V30 1838 H 177.831 0.943446 -0.0928074 0
M  V30 1839 H 177.537 3.50815 0.249304 0
M  V30 1840 H 177.411 3.21386 1.97461 0
M  V30 1841 H 179.798 2.22257 1.94128 0
M  V30 1842 H 179.879 2.54983 0.204281 0
M  V30 1843 H 179.523 5.03351 0.678274 0
M  V30 1844 H 179.453 4.6759 2.42212 0
M  V30 1845 H 181.944 3.52197 1.36987 0
M  V30 1846 H 182.257 7.40543 2.20943 0
M  V30 1847 H 180.602 6.65791 1.99366 0
M  V30 1848 H 183.793 4.39246 1.61805 0
M  V30 1849 H 183.966 6.16328 2.00111 0
M  V30 1850 N 177.372 -0.689602 1.41712 0
M  V30 1851 C 178.335 -1.78521 1.43746 0
M  V30 1852 C 179.335 -1.57436 0.327191 0
M  V30 1853 O 180.525 -1.64 0.587348 0
M  V30 1854 C 177.657 -3.16971 1.25467 0
M  V30 1855 H 178.85 -1.78108 2.41283 0
M  V30 1856 H 176.403 -0.89781 1.27942 0
M  V30 1857 H 177.138 -3.23019 0.287948 0
M  V30 1858 H 176.923 -3.33678 2.05917 0
M  V30 1859 H 178.413 -3.96935 1.2974 0
M  V30 1860 N 178.85 -1.27639 -0.924453 0
M  V30 1861 C 180.098 -1.13941 -1.66918 0
M  V30 1862 C 180.419 0.314589 -1.92446 0
M  V30 1863 O 179.689 1.21964 -1.53303 0
M  V30 1864 H 178.269 -0.418678 -0.618642 0
M  V30 1865 H 180.931 -1.60213 -1.10985 0
M  V30 1866 H 180.027 -1.67094 -2.63602 0
M  V30 1867 N 180.328 1.1314 -1.09713 0
M  V30 1868 C 181.574 1.84967 -0.846104 0
M  V30 1869 C 181.929 1.82082 0.621601 0
M  V30 1870 O 181.222 1.2501 1.452 0
M  V30 1871 C 181.416 3.32167 -1.3191 0
M  V30 1872 C 181.245 3.49386 -2.83125 0
M  V30 1873 C 180.015 3.63456 -3.51038 0
M  V30 1874 C 182.213 3.45179 -3.81256 0
M  V30 1875 N 180.195 3.68966 -4.9065 0
M  V30 1876 C 181.566 3.57094 -5.06837 0
M  V30 1877 C 183.621 3.28598 -3.74069 0
M  V30 1878 C 182.324 3.5414 -6.26081 0
M  V30 1879 C 184.35 3.26953 -4.92804 0
M  V30 1880 C 183.712 3.39422 -6.17229 0
M  V30 1881 H 179.811 0.692899 -0.362512 0
M  V30 1882 H 182.395 1.35506 -1.39808 0
M  V30 1883 H 180.566 3.80186 -0.794535 0
M  V30 1884 H 182.298 3.91815 -1.01308 0
M  V30 1885 H 179.053 3.65256 -3.01471 0
M  V30 1886 H 179.477 3.75404 -5.63383 0
M  V30 1887 H 184.119 3.17858 -2.78794 0
M  V30 1888 H 181.837 3.63653 -7.21653 0
M  V30 1889 H 185.423 3.15316 -4.88945 0
M  V30 1890 H 184.303 3.38114 -7.07565 0
M  V30 1891 N 181.806 0.884767 1.30421 0
M  V30 1892 C 182.754 0.340869 2.30089 0
M  V30 1893 C 183.748 -0.55201 1.60154 0
M  V30 1894 O 184.954 -0.436467 1.74628 0
M  V30 1895 H 181.329 0.0915739 0.746404 0
M  V30 1896 H 183.3 1.19513 2.73421 0
M  V30 1897 C 182.049 -0.429779 3.45034 0
M  V30 1898 H 181.372 0.248024 3.9903 0
M  V30 1899 H 182.812 -0.775445 4.16849 0
M  V30 1900 C 181.271 -1.62677 2.95022 0
M  V30 1901 O 181.801 -2.72614 2.95033 0
M  V30 1902 N 180.007 -1.46387 2.51036 0
M  V30 1903 H 179.554 -0.569506 2.51226 0
M  V30 1904 H 179.512 -2.26612 2.17932 0
M  V30 1905 N 183.284 -1.43765 0.645699 0
M  V30 1906 C 184.214 -2.33471 -0.0370477 0
M  V30 1907 C 185.195 -1.49042 -0.819779 0
M  V30 1908 O 186.38 -1.77726 -0.782758 0
M  V30 1909 C 183.51 -3.32311 -1.0093 0
M  V30 1910 C 182.464 -4.2667 -0.337201 0
M  V30 1911 C 181.79 -5.1549 -1.42037 0
M  V30 1912 C 183.09 -5.16657 0.765706 0
M  V30 1913 H 184.784 -2.90809 0.712069 0
M  V30 1914 H 182.33 -1.39834 0.343876 0
M  V30 1915 H 184.283 -3.9396 -1.49578 0
M  V30 1916 H 183.007 -2.73213 -1.78948 0
M  V30 1917 H 181.666 -3.66374 0.128771 0
M  V30 1918 H 181.314 -4.52735 -2.1918 0
M  V30 1919 H 181.014 -5.79438 -0.975966 0
M  V30 1920 H 182.538 -5.80012 -1.90838 0
M  V30 1921 H 183.952 -5.72158 0.361702 0
M  V30 1922 H 182.349 -5.89286 1.13413 0
M  V30 1923 H 183.419 -4.56796 1.62683 0
M  V30 1924 N 184.763 -0.387143 -1.52771 0
M  V30 1925 C 186.009 0.196025 -2.0185 0
M  V30 1926 C 186.342 1.46641 -1.27319 0
M  V30 1927 O 185.617 1.90889 -0.373032 0
M  V30 1928 C 185.9 0.466136 -3.5707 0
M  V30 1929 C 185.753 -0.819385 -4.42274 0
M  V30 1930 C 187.072 1.25768 -4.21747 0
M  V30 1931 H 184.191 0.0697708 -0.73369 0
M  V30 1932 H 186.833 -0.516286 -1.82851 0
M  V30 1933 H 184.983 1.07293 -3.7339 0
M  V30 1934 H 186.655 -1.4563 -4.37709 0
M  V30 1935 H 184.898 -1.43517 -4.09372 0
M  V30 1936 H 185.569 -0.585065 -5.48891 0
M  V30 1937 H 188.045 0.744167 -4.09391 0
M  V30 1938 H 186.921 1.41541 -5.30337 0
M  V30 1939 H 187.182 2.27228 -3.79236 0
M  V30 1940 N 186.241 1.57166 -0.116904 0
M  V30 1941 C 187.469 1.99473 0.549383 0
M  V30 1942 C 187.884 0.996541 1.60357 0
M  V30 1943 O 187.241 -0.0108731 1.82497 0
M  V30 1944 C 187.292 3.41788 1.17741 0
M  V30 1945 O 187.013 4.37788 0.165362 0
M  V30 1946 C 188.514 3.99216 1.92722 0
M  V30 1947 H 185.734 0.655009 0.145616 0
M  V30 1948 H 188.278 2.03494 -0.202625 0
M  V30 1949 H 186.433 3.38713 1.88021 0
M  V30 1950 H 186.847 5.20806 0.621403 0
M  V30 1951 H 188.321 5.00882 2.31995 0
M  V30 1952 H 188.798 3.3824 2.80161 0
M  V30 1953 H 189.404 4.0583 1.27209 0
M  V30 1954 N 187.719 -0.156864 1.56817 0
M  V30 1955 C 188.944 -0.890331 1.87318 0
M  V30 1956 C 189.369 -1.74394 0.704855 0
M  V30 1957 O 188.727 -1.77972 -0.345786 0
M  V30 1958 C 188.775 -1.73102 3.16336 0
M  V30 1959 O 187.879 -2.83422 2.99576 0
M  V30 1960 H 187.22 -0.24857 0.615718 0
M  V30 1961 H 189.75 -0.150649 2.04045 0
M  V30 1962 H 189.76 -2.12803 3.48107 0
M  V30 1963 H 188.435 -1.10412 4.00976 0
M  V30 1964 H 187.012 -2.47199 2.7919 0
M  V30 1965 N 189.197 -1.51736 -0.425897 0
M  V30 1966 C 190.608 -1.5732 -1.00536 0
M  V30 1967 C 190.959 -0.403537 -1.92005 0
M  V30 1968 O 190.084 0.478256 -2.11049 0
M  V30 1969 C 190.679 -2.85119 -1.8301 0
M  V30 1970 C 189.238 -2.93236 -2.35987 0
M  V30 1971 C 188.385 -2.52098 -1.15508 0
M  V30 1972 H 191.336 -1.57348 -0.206739 0
M  V30 1973 H 191.357 -2.69526 -2.68581 0
M  V30 1974 H 190.869 -3.7023 -1.16411 0
M  V30 1975 H 188.97 -2.12581 -3.06007 0
M  V30 1976 H 189.083 -3.9713 -2.68001 0
M  V30 1977 H 187.447 -2.05558 -1.50393 0
M  V30 1978 H 188.23 -3.39565 -0.505014 0
M  V30 1979 N 190.675 0.682077 -1.42076 0
M  V30 1980 C 191.607 1.80755 -1.40926 0
M  V30 1981 C 192.62 1.59833 -0.309398 0
M  V30 1982 O 193.809 1.69087 -0.572014 0
M  V30 1983 C 190.909 3.17744 -1.17865 0
M  V30 1984 C 190.082 3.65578 -2.40149 0
M  V30 1985 C 189.141 4.81277 -2.12742 0
M  V30 1986 O 188.167 4.92197 -2.85887 0
M  V30 1987 N 189.369 5.69474 -1.12602 0
M  V30 1988 H 192.134 1.82229 -2.37935 0
M  V30 1989 H 189.695 0.864903 -1.36861 0
M  V30 1990 H 191.687 3.9279 -0.9746 0
M  V30 1991 H 190.257 3.11214 -0.294068 0
M  V30 1992 H 189.477 2.81291 -2.76169 0
M  V30 1993 H 190.765 3.94278 -3.21593 0
M  V30 1994 H 190.163 5.63297 -0.520899 0
M  V30 1995 H 188.72 6.44363 -0.981842 0
M  V30 1996 N 192.153 1.28127 0.917671 0
M  V30 1997 C 193.063 1.13556 2.05286 0
M  V30 1998 C 194.079 0.0630914 1.73886 0
M  V30 1999 O 195.255 0.271598 1.9956 0
M  V30 2000 C 192.32 0.794676 3.3747 0
M  V30 2001 C 191.381 1.94909 3.82504 0
M  V30 2002 C 190.614 1.62437 5.0838 0
M  V30 2003 O 190.837 0.536905 5.67867 0
M  V30 2004 O 189.771 2.46677 5.4903 0
M  V30 2005 H 193.597 2.08844 2.20495 0
M  V30 2006 H 191.182 1.07409 1.03845 0
M  V30 2007 H 193.064 0.618344 4.16839 0
M  V30 2008 H 191.739 -0.128581 3.23445 0
M  V30 2009 H 190.646 2.18055 3.03978 0
M  V30 2010 H 191.979 2.85291 4.01086 0
M  V30 2011 N 193.631 -1.12557 1.10312 0
M  V30 2012 C 194.879 -1.83675 0.843091 0
M  V30 2013 C 195.2 -1.84435 -0.633131 0
M  V30 2014 O 194.47 -1.30657 -1.45964 0
M  V30 2015 H 193.05 -0.680138 0.308904 0
M  V30 2016 H 195.712 -1.36301 1.39313 0
M  V30 2017 H 194.808 -2.87908 1.2048 0
M  V30 2018 N 195.109 -0.891671 -1.2995 0
M  V30 2019 C 196.072 -0.36828 -2.26222 0
M  V30 2020 C 197.072 0.493014 -1.53056 0
M  V30 2021 O 198.262 0.299213 -1.71611 0
M  V30 2022 C 195.394 0.47442 -3.37583 0
M  V30 2023 H 196.587 -1.21844 -2.74033 0
M  V30 2024 H 194.14 -0.669107 -1.41254 0
M  V30 2025 H 194.875 1.34489 -2.95099 0
M  V30 2026 H 194.66 -0.142615 -3.91841 0
M  V30 2027 H 196.15 0.83218 -4.09224 0
M  V30 2028 N 196.587 1.43421 -0.653314 0
M  V30 2029 C 197.55 2.29182 0.0287951 0
M  V30 2030 C 198.55 1.42213 0.750465 0
M  V30 2031 O 199.74 1.63843 0.591701 0
M  V30 2032 C 196.872 3.24278 1.05151 0
M  V30 2033 H 198.065 2.90985 -0.725786 0
M  V30 2034 H 195.618 1.50702 -0.414545 0
M  V30 2035 H 196.353 2.6737 1.83532 0
M  V30 2036 H 196.138 3.88396 0.537687 0
M  V30 2037 H 197.628 3.88647 1.52786 0
M  V30 2038 N 198.065 0.39524 1.52563 0
M  V30 2039 C 199.481 0.0454682 1.59535 0
M  V30 2040 C 199.681 -1.44056 1.4089 0
M  V30 2041 O 198.737 -2.20579 1.22888 0
M  V30 2042 C 200.05 0.527963 2.96029 0
M  V30 2043 C 201.598 0.484733 3.09224 0
M  V30 2044 C 202.073 0.943512 4.48176 0
M  V30 2045 N 203.564 0.899765 4.54377 0
M  V30 2046 C 204.299 1.22609 5.60138 0
M  V30 2047 N 203.795 1.62319 6.73516 0
M  V30 2048 N 205.588 1.14696 5.50274 0
M  V30 2049 H 197.739 1.36261 1.62931 0
M  V30 2050 H 200.002 0.558887 0.765735 0
M  V30 2051 H 199.708 1.56607 3.14908 0
M  V30 2052 H 199.582 -0.0698056 3.77135 0
M  V30 2053 H 201.969 -0.544298 2.90037 0
M  V30 2054 H 202.05 1.11838 2.30056 0
M  V30 2055 H 201.694 1.9708 4.68104 0
M  V30 2056 H 201.624 0.286817 5.25818 0
M  V30 2057 H 204.115 0.607632 3.72983 0
M  V30 2058 H 204.428 1.85567 7.5019 0
M  V30 2059 H 202.773 1.66211 6.74833 0
M  V30 2060 H 205.964 0.835701 4.6058 0
M  V30 2061 H 206.137 1.40459 6.32594 0
M  V30 2062 N 199.544 -1.57102 0.125237 0
M  V30 2063 C 200.492 -2.16905 -0.839927 0
M  V30 2064 C 201.486 -1.11998 -1.27094 0
M  V30 2065 O 202.692 -1.3029 -1.24195 0
M  V30 2066 H 199.067 -0.694252 -0.288995 0
M  V30 2067 H 201.038 -2.96774 -0.311115 0
M  V30 2068 C 199.787 -2.78795 -2.07771 0
M  V30 2069 H 199.11 -3.59221 -1.755 0
M  V30 2070 H 200.55 -3.2417 -2.73295 0
M  V30 2071 C 199.009 -1.76193 -2.87155 0
M  V30 2072 O 199.539 -1.21909 -3.82755 0
M  V30 2073 N 197.745 -1.45991 -2.51267 0
M  V30 2074 H 197.292 -1.90325 -1.73592 0
M  V30 2075 H 197.25 -0.775844 -3.04677 0
M  V30 2076 N 201.022 0.148545 -1.56898 0
M  V30 2077 C 201.972 1.1886 -1.94567 0
M  V30 2078 C 202.956 1.3863 -0.816735 0
M  V30 2079 O 204.148 1.40218 -1.08018 0
M  V30 2080 C 201.277 2.52262 -2.32849 0
M  V30 2081 C 200.363 2.36092 -3.52309 0
M  V30 2082 N 200.754 1.89674 -4.6889 0
M  V30 2083 C 199.052 2.66848 -3.57363 0
M  V30 2084 C 199.753 1.86511 -5.50989 0
M  V30 2085 N 198.729 2.29766 -4.92655 0
M  V30 2086 H 202.531 0.821793 -2.82177 0
M  V30 2087 H 200.045 0.356615 -1.58436 0
M  V30 2088 H 202.042 3.27447 -2.58039 0
M  V30 2089 H 200.702 2.89727 -1.46589 0
M  V30 2090 H 201.713 1.59663 -4.92674 0
M  V30 2091 H 198.39 3.08198 -2.81639 0
M  V30 2092 H 199.78 1.52128 -6.54452 0
M  V30 2093 N 202.5 1.5196 0.417844 0
M  V30 2094 C 203.725 1.69717 1.1921 0
M  V30 2095 C 204.15 0.402148 1.83751 0
M  V30 2096 O 203.508 -0.639593 1.69643 0
M  V30 2097 C 203.556 2.82794 2.2374 0
M  V30 2098 O 202.66 2.47756 3.29683 0
M  V30 2099 H 202.001 0.565263 0.348387 0
M  V30 2100 H 204.531 1.98621 0.490985 0
M  V30 2101 H 204.541 3.07452 2.68212 0
M  V30 2102 H 203.216 3.76756 1.76146 0
M  V30 2103 H 201.793 2.33739 2.90552 0
M  V30 2104 N 203.978 -0.674533 1.42435 0
M  V30 2105 C 204.925 -1.78807 1.45934 0
M  V30 2106 C 205.895 -1.63157 0.311271 0
M  V30 2107 O 207.08 -1.83707 0.515383 0
M  V30 2108 C 204.22 -3.16839 1.36773 0
M  V30 2109 C 203.333 -3.43774 2.61617 0
M  V30 2110 C 202.468 -4.71536 2.44597 0
M  V30 2111 C 201.507 -4.91505 3.64814 0
M  V30 2112 N 200.644 -6.10508 3.46734 0
M  V30 2113 H 205.484 -1.75151 2.41093 0
M  V30 2114 H 203.021 -0.85504 1.19697 0
M  V30 2115 H 204.979 -3.96606 1.29459 0
M  V30 2116 H 203.609 -3.19619 0.452089 0
M  V30 2117 H 202.661 -2.58259 2.79297 0
M  V30 2118 H 203.973 -3.54423 3.50978 0
M  V30 2119 H 203.127 -5.59393 2.3487 0
M  V30 2120 H 201.866 -4.6317 1.52726 0
M  V30 2121 H 200.871 -4.0209 3.74972 0
M  V30 2122 H 202.096 -5.01716 4.57665 0
M  V30 2123 H 200.042 -6.03315 2.5758 0
M  V30 2124 H 199.959 -6.2202 4.29682 0
M  V30 2125 H 201.227 -7.01044 3.40819 0
M  V30 2126 N 205.456 -1.28612 -0.910864 0
M  V30 2127 C 206.681 -1.1891 -1.69927 0
M  V30 2128 C 207.106 0.248372 -1.86453 0
M  V30 2129 O 206.464 1.17961 -1.37676 0
M  V30 2130 C 206.512 -1.89578 -3.06745 0
M  V30 2131 O 205.616 -1.20521 -3.94396 0
M  V30 2132 H 204.957 -0.412632 -0.520222 0
M  V30 2133 H 207.487 -1.69985 -1.1387 0
M  V30 2134 H 207.497 -1.97597 -3.56958 0
M  V30 2135 H 206.172 -2.94136 -2.94035 0
M  V30 2136 H 204.749 -1.20684 -3.52831 0
M  V30 2137 N 206.934 1.1197 -1.10907 0
M  V30 2138 C 207.882 2.19927 -0.757303 0
M  V30 2139 C 208.876 1.67564 0.248747 0
M  V30 2140 O 210.082 1.79672 0.108605 0
M  V30 2141 H 206.457 0.716925 -0.226987 0
M  V30 2142 H 208.428 2.46847 -1.67658 0
M  V30 2143 C 207.177 3.47061 -0.210671 0
M  V30 2144 H 206.5 3.87703 -0.976049 0
M  V30 2145 H 207.94 4.24 -0.0026584 0
M  V30 2146 C 206.399 3.19864 1.05777 0
M  V30 2147 O 206.929 3.40049 2.13845 0
M  V30 2148 N 205.135 2.73636 0.978349 0
M  V30 2149 H 204.682 2.5741 0.0988246 0
M  V30 2150 H 204.64 2.55815 1.82773 0
M  V30 2151 N 208.412 0.89855 1.29475 0
M  V30 2152 C 209.342 0.39201 2.30186 0
M  V30 2153 C 210.323 -0.532359 1.61555 0
M  V30 2154 O 211.508 -0.443331 1.89072 0
M  V30 2155 C 208.638 -0.382353 3.45189 0
M  V30 2156 C 207.592 0.451483 4.25612 0
M  V30 2157 C 206.918 -0.450307 5.328 0
M  V30 2158 C 208.218 1.70079 4.93832 0
M  V30 2159 H 209.912 1.23362 2.72804 0
M  V30 2160 H 207.458 0.594638 1.31149 0
M  V30 2161 H 209.411 -0.747451 4.14718 0
M  V30 2162 H 208.135 -1.25774 3.01411 0
M  V30 2163 H 206.794 0.798897 3.57789 0
M  V30 2164 H 206.442 -1.32379 4.85268 0
M  V30 2165 H 206.142 0.103902 5.87508 0
M  V30 2166 H 207.666 -0.811623 6.05182 0
M  V30 2167 H 209.08 1.40549 5.55805 0
M  V30 2168 H 207.477 2.19623 5.58467 0
M  V30 2169 H 208.547 2.43744 4.19186 0
M  V30 2170 N 209.89 -1.43072 0.660911 0
M  V30 2171 C 211.301 -1.84932 0.256348 0
M  V30 2172 C 211.652 -1.55325 -1.19868 0
M  V30 2173 O 210.777 -1.00607 -1.91591 0
M  V30 2174 C 211.372 -3.35684 0.458475 0
M  V30 2175 C 209.931 -3.76245 0.108161 0
M  V30 2176 C 209.078 -2.66749 0.757641 0
M  V30 2177 H 212.029 -1.33116 0.864051 0
M  V30 2178 H 212.05 -3.79365 -0.293683 0
M  V30 2179 H 211.562 -3.572 1.51755 0
M  V30 2180 H 209.663 -3.60338 -0.948014 0
M  V30 2181 H 209.776 -4.76058 0.538992 0
M  V30 2182 H 208.14 -2.53989 0.190185 0
M  V30 2183 H 208.923 -2.91092 1.81989 0
M  V30 2184 N 211.368 -0.403325 -1.52352 0
M  V30 2185 C 212.278 0.432009 -2.30588 0
M  V30 2186 C 213.294 1.05884 -1.38075 0
M  V30 2187 O 214.47 1.06161 -1.71148 0
M  V30 2188 C 211.535 1.53669 -3.10784 0
M  V30 2189 C 210.596 0.933525 -4.19027 0
M  V30 2190 C 209.829 1.98557 -4.9539 0
M  V30 2191 O 210.052 3.20283 -4.71991 0
M  V30 2192 O 208.986 1.59504 -5.80381 0
M  V30 2193 H 212.812 -0.205739 -3.03002 0
M  V30 2194 H 210.397 -0.166675 -1.48467 0
M  V30 2195 H 212.279 2.17814 -3.60742 0
M  V30 2196 H 210.954 2.15915 -2.41169 0
M  V30 2197 H 209.861 0.254954 -3.7323 0
M  V30 2198 H 211.194 0.35508 -4.90918 0
M  V30 2199 N 212.846 1.57033 -0.133567 0
M  V30 2200 C 213.796 2.12641 0.822671 0
M  V30 2201 C 214.78 1.05081 1.21847 0
M  V30 2202 O 215.972 1.31287 1.18713 0
M  V30 2203 C 213.101 2.74094 2.06706 0
M  V30 2204 C 212.187 3.88757 1.69497 0
M  V30 2205 N 212.578 4.95194 1.03037 0
M  V30 2206 C 210.876 3.99213 1.98859 0
M  V30 2207 C 211.577 5.75414 0.852873 0
M  V30 2208 N 210.553 5.25726 1.3825 0
M  V30 2209 H 214.355 2.92308 0.305537 0
M  V30 2210 H 211.869 1.62256 0.0684276 0
M  V30 2211 H 213.866 3.12285 2.76195 0
M  V30 2212 H 212.526 1.95896 2.5895 0
M  V30 2213 H 213.537 5.13247 0.692669 0
M  V30 2214 H 210.214 3.32075 2.53047 0
M  V30 2215 H 211.604 6.71089 0.330091 0
M  V30 2216 N 214.325 -0.140222 1.56975 0
M  V30 2217 C 215.553 -0.866437 1.87884 0
M  V30 2218 C 215.968 -1.74428 0.722517 0
M  V30 2219 O 215.325 -1.79891 -0.30749 0
M  V30 2220 C 215.376 -1.71753 3.18093 0
M  V30 2221 O 215.097 -0.875056 4.29272 0
M  V30 2222 C 216.598 -2.55074 3.62563 0
M  V30 2223 H 213.818 -0.25019 0.622612 0
M  V30 2224 H 216.362 -0.130977 2.0408 0
M  V30 2225 H 214.517 -2.40598 3.03631 0
M  V30 2226 H 214.931 -1.46002 5.03769 0
M  V30 2227 H 216.405 -3.10356 4.5649 0
M  V30 2228 H 216.882 -3.31434 2.88181 0
M  V30 2229 H 217.488 -1.91509 3.79743 0
M  V30 2230 N 215.803 -1.52179 -0.40978 0
M  V30 2231 C 216.713 -1.78364 -1.52392 0
M  V30 2232 C 217.729 -0.669183 -1.60617 0
M  V30 2233 O 218.905 -0.954518 -1.77344 0
M  V30 2234 C 215.97 -1.92822 -2.88133 0
M  V30 2235 C 215.031 -3.16725 -2.898 0
M  V30 2236 C 214.264 -3.30483 -4.19067 0
M  V30 2237 O 214.487 -2.49522 -5.12928 0
M  V30 2238 O 213.421 -4.2363 -4.27576 0
M  V30 2239 H 217.247 -2.72931 -1.33201 0
M  V30 2240 H 214.832 -1.37016 -0.59557 0
M  V30 2241 H 216.714 -2.04157 -3.68643 0
M  V30 2242 H 215.389 -1.01444 -3.07393 0
M  V30 2243 H 214.296 -3.10848 -2.08146 0
M  V30 2244 H 215.629 -4.07881 -2.75489 0
M  V30 2245 N 217.281 0.66697 -1.42791 0
M  V30 2246 C 218.697 0.981027 -1.25889 0
M  V30 2247 C 218.897 2.00793 -0.168695 0
M  V30 2248 O 217.953 2.48321 0.45747 0
M  V30 2249 C 219.266 1.47838 -2.61848 0
M  V30 2250 C 220.814 1.59575 -2.69267 0
M  V30 2251 C 221.289 2.12704 -4.05612 0
M  V30 2252 N 222.78 2.20026 -4.07606 0
M  V30 2253 C 223.515 2.62227 -5.09926 0
M  V30 2254 N 223.011 3.03824 -6.22626 0
M  V30 2255 N 224.804 2.62045 -4.97281 0
M  V30 2256 H 216.955 -0.0127891 -2.12396 0
M  V30 2257 H 219.218 0.0568258 -0.946295 0
M  V30 2258 H 218.924 0.798299 -3.4252 0
M  V30 2259 H 218.798 2.45579 -2.86305 0
M  V30 2260 H 221.185 2.26687 -1.88936 0
M  V30 2261 H 221.266 0.60302 -2.48591 0
M  V30 2262 H 220.91 1.46198 -4.86404 0
M  V30 2263 H 220.84 3.12782 -4.23645 0
M  V30 2264 H 223.331 1.90708 -3.2625 0
M  V30 2265 H 223.644 3.34734 -6.96544 0
M  V30 2266 H 221.989 3.01662 -6.26119 0
M  V30 2267 H 225.18 2.28916 -4.08308 0
M  V30 2268 H 225.353 2.94613 -5.77154 0
M  V30 2269 N 218.759 1.29093 0.90403 0
M  V30 2270 C 219.989 1.19516 1.68522 0
M  V30 2271 C 220.397 -0.24738 1.87576 0
M  V30 2272 O 219.74 -1.17798 1.40959 0
M  V30 2273 C 219.802 1.83249 3.0929 0
M  V30 2274 C 219.466 3.32531 3.13484 0
M  V30 2275 C 220.463 4.28821 2.93953 0
M  V30 2276 C 218.148 3.73656 3.35688 0
M  V30 2277 C 220.142 5.64212 2.96553 0
M  V30 2278 C 217.829 5.0917 3.37919 0
M  V30 2279 C 218.827 6.04258 3.18373 0
M  V30 2280 O 218.515 7.37298 3.20385 0
M  V30 2281 H 218.247 0.415467 0.533257 0
M  V30 2282 H 220.801 1.70912 1.13922 0
M  V30 2283 H 219.031 1.26358 3.65473 0
M  V30 2284 H 220.72 1.68054 3.69476 0
M  V30 2285 H 221.486 3.98382 2.76616 0
M  V30 2286 H 217.365 3.00101 3.49943 0
M  V30 2287 H 220.909 6.38407 2.81216 0
M  V30 2288 H 216.806 5.39256 3.54787 0
M  V30 2289 H 217.574 7.46048 3.36681 0
M  V30 2290 N 220.237 -1.11381 1.11499 0
M  V30 2291 C 221.147 -2.21019 0.786628 0
M  V30 2292 C 222.163 -1.72597 -0.220507 0
M  V30 2293 O 223.339 -2.01321 -0.0565251 0
M  V30 2294 C 220.404 -3.459 0.235333 0
M  V30 2295 C 219.465 -4.09107 1.30115 0
M  V30 2296 C 218.698 -5.28027 0.776068 0
M  V30 2297 O 218.921 -5.6904 -0.393661 0
M  V30 2298 O 217.855 -5.81835 1.54114 0
M  V30 2299 H 221.681 -2.51521 1.70209 0
M  V30 2300 H 219.266 -1.19928 0.890928 0
M  V30 2301 H 221.148 -4.21346 -0.067715 0
M  V30 2302 H 219.823 -3.17049 -0.652828 0
M  V30 2303 H 218.73 -3.35391 1.65722 0
M  V30 2304 H 220.063 -4.42139 2.16273 0
M  V30 2305 N 221.715 -0.905404 -1.28997 0
M  V30 2306 C 222.964 -0.530191 -1.94607 0
M  V30 2307 C 223.277 0.929185 -1.72121 0
M  V30 2308 O 224.483 1.41218 -2.31883 0
M  V30 2309 C 222.939 -0.897333 -3.48534 0
M  V30 2310 C 222.547 -2.37587 -3.79811 0
M  V30 2311 C 224.291 -0.592304 -4.20347 0
M  V30 2312 C 222.198 -2.68357 -5.27009 0
M  V30 2313 H 221.128 -0.194558 -0.728466 0
M  V30 2314 H 223.779 -1.10318 -1.46636 0
M  V30 2315 H 222.161 -0.253214 -3.9519 0
M  V30 2316 H 223.335 -3.06602 -3.43994 0
M  V30 2317 H 221.65 -2.6505 -3.2115 0
M  V30 2318 H 224.247 -0.798975 -5.28697 0
M  V30 2319 H 224.59 0.469474 -4.13644 0
M  V30 2320 H 225.123 -1.19452 -3.79442 0
M  V30 2321 H 221.862 -3.73355 -5.38782 0
M  V30 2322 H 221.382 -2.03971 -5.64053 0
M  V30 2323 H 223.061 -2.54922 -5.94663 0
M  V30 2324 N 223.193 1.4272 -0.668489 0
M  V30 2325 C 224.156 2.292 0.00448567 0
M  V30 2326 C 225.156 1.43001 0.735339 0
M  V30 2327 O 226.346 1.64461 0.57429 0
M  V30 2328 C 223.478 3.25375 1.01705 0
M  V30 2329 H 224.671 2.90199 -0.756608 0
M  V30 2330 H 222.224 1.50254 -0.430506 0
M  V30 2331 H 222.959 2.69301 1.80686 0
M  V30 2332 H 222.744 3.88944 0.496463 0
M  V30 2333 H 224.234 3.90245 1.48655 0
M  V30 2334 N 224.671 0.411399 1.52136 0
M  V30 2335 C 225.603 -0.448386 2.24771 0
M  V30 2336 C 226.616 -1.00828 1.27818 0
M  V30 2337 O 227.805 -0.906841 1.53749 0
M  V30 2338 C 224.905 -1.63636 2.96777 0
M  V30 2339 C 224.078 -1.19995 4.20618 0
M  V30 2340 C 223.137 -2.25509 4.75428 0
M  V30 2341 O 222.163 -1.86007 5.3795 0
M  V30 2342 N 223.365 -3.577 4.57199 0
M  V30 2343 H 226.13 0.174025 2.99194 0
M  V30 2344 H 223.691 0.238897 1.60128 0
M  V30 2345 H 225.683 -2.33793 3.30338 0
M  V30 2346 H 224.253 -2.16465 2.25526 0
M  V30 2347 H 223.473 -0.326421 3.92846 0
M  V30 2348 H 224.761 -0.885365 5.01038 0
M  V30 2349 H 224.159 -3.92543 4.07341 0
M  V30 2350 H 222.716 -4.23827 4.95191 0
M  V30 2351 N 226.149 -1.5696 0.141893 0
M  V30 2352 C 227.059 -2.20066 -0.812905 0
M  V30 2353 C 228.075 -1.18344 -1.27557 0
M  V30 2354 O 229.251 -1.50902 -1.33381 0
M  V30 2355 C 226.316 -2.80583 -2.03652 0
M  V30 2356 C 225.377 -3.97414 -1.62359 0
M  V30 2357 C 224.61 -4.55036 -2.78887 0
M  V30 2358 O 224.833 -4.11538 -3.94959 0
M  V30 2359 O 223.767 -5.45376 -2.54653 0
M  V30 2360 H 227.593 -3.02157 -0.305746 0
M  V30 2361 H 225.178 -1.49159 -0.0848799 0
M  V30 2362 H 227.06 -3.19067 -2.75272 0
M  V30 2363 H 225.735 -2.01508 -2.5333 0
M  V30 2364 H 224.642 -3.63656 -0.877775 0
M  V30 2365 H 225.975 -4.77994 -1.17401 0
M  V30 2366 N 227.627 0.131896 -1.57047 0
M  V30 2367 C 228.577 1.1679 -1.95816 0
M  V30 2368 C 229.561 1.37756 -0.831393 0
M  V30 2369 O 230.753 1.39065 -1.09499 0
M  V30 2370 C 227.882 2.49778 -2.35512 0
M  V30 2371 C 226.968 2.32342 -3.54793 0
M  V30 2372 N 227.359 1.8469 -4.70875 0
M  V30 2373 C 225.657 2.63043 -3.60173 0
M  V30 2374 C 226.358 1.80656 -5.52936 0
M  V30 2375 N 225.334 2.24528 -4.95064 0
M  V30 2376 H 229.136 0.791818 -2.83033 0
M  V30 2377 H 226.65 0.339791 -1.58805 0
M  V30 2378 H 228.647 3.24692 -2.61498 0
M  V30 2379 H 227.307 2.88156 -1.49654 0
M  V30 2380 H 228.318 1.54429 -4.9434 0
M  V30 2381 H 224.995 3.05193 -2.84892 0
M  V30 2382 H 226.385 1.45178 -6.56028 0
M  V30 2383 N 229.106 1.52395 0.401703 0
M  V30 2384 C 230.036 1.79231 1.49661 0
M  V30 2385 C 231.017 0.643654 1.57452 0
M  V30 2386 O 232.202 0.889989 1.72606 0
M  V30 2387 C 229.332 1.94971 2.87409 0
M  V30 2388 C 228.286 3.10604 2.94465 0
M  V30 2389 C 227.612 3.11577 4.34538 0
M  V30 2390 C 228.912 4.49921 2.6527 0
M  V30 2391 H 230.606 2.70917 1.27454 0
M  V30 2392 H 228.152 1.30362 0.6117 0
M  V30 2393 H 230.105 2.12328 3.63999 0
M  V30 2394 H 228.829 0.999632 3.10926 0
M  V30 2395 H 227.488 2.93009 2.20321 0
M  V30 2396 H 227.136 2.14277 4.55076 0
M  V30 2397 H 226.836 3.89247 4.40183 0
M  V30 2398 H 228.36 3.31073 5.13053 0
M  V30 2399 H 229.774 4.67683 3.31581 0
M  V30 2400 H 228.171 5.29564 2.82281 0
M  V30 2401 H 229.241 4.57507 1.60671 0
M  V30 2402 N 230.584 -0.659388 1.43143 0
M  V30 2403 C 231.861 -1.41627 1.34912 0
M  V30 2404 C 232.241 -2.11099 -0.00607785 0
M  V30 2405 O 231.589 -2.04353 -1.02236 0
M  V30 2406 C 231.799 -2.40604 2.52805 0
M  V30 2407 C 233.147 -3.04789 2.95616 0
M  V30 2408 O 234.171 -2.50932 2.52807 0
M  V30 2409 O 233.03 -4.02421 3.69756 0
M  V30 2410 H 230.124 -0.63246 0.532844 0
M  V30 2411 H 232.67 -0.686814 1.5518 0
M  V30 2412 H 231.442 -1.88174 3.43083 0
M  V30 2413 H 231.065 -3.21009 2.34604 0
M  V30 2414 N 232.062 -1.29571 -0.897171 0
M  V30 2415 C 233.308 -1.17863 -1.65034 0
M  V30 2416 C 233.641 0.268729 -1.92332 0
M  V30 2417 O 232.916 1.19378 -1.53555 0
M  V30 2418 C 233.199 -1.995 -2.99786 0
M  V30 2419 C 233.052 -3.5239 -2.79538 0
M  V30 2420 C 234.371 -1.82335 -4.00552 0
M  V30 2421 H 231.49 -0.429528 -0.598895 0
M  V30 2422 H 234.132 -1.59072 -1.03905 0
M  V30 2423 H 232.282 -1.64485 -3.51962 0
M  V30 2424 H 233.954 -3.97401 -2.34244 0
M  V30 2425 H 232.197 -3.77187 -2.14273 0
M  V30 2426 H 232.868 -4.04787 -3.75302 0
M  V30 2427 H 235.344 -2.12924 -3.57495 0
M  V30 2428 H 234.22 -2.41801 -4.92771 0
M  V30 2429 H 234.481 -0.779209 -4.35179 0
M  V30 2430 N 233.54 1.10788 -1.12088 0
M  V30 2431 C 234.786 1.82942 -0.875226 0
M  V30 2432 C 235.119 1.84779 0.597538 0
M  V30 2433 O 234.394 1.30578 1.44152 0
M  V30 2434 C 234.677 3.29789 -1.44606 0
M  V30 2435 C 234.53 3.36307 -2.98693 0
M  V30 2436 C 235.849 4.26064 -1.10261 0
M  V30 2437 H 232.968 0.664195 -0.319397 0
M  V30 2438 H 235.61 1.29867 -1.38689 0
M  V30 2439 H 233.76 3.75118 -1.01089 0
M  V30 2440 H 235.432 2.99487 -3.50864 0
M  V30 2441 H 233.675 2.76318 -3.34411 0
M  V30 2442 H 234.346 4.39694 -3.33726 0
M  V30 2443 H 236.822 3.88951 -1.4784 0
M  V30 2444 H 235.698 5.27183 -1.52869 0
M  V30 2445 H 235.959 4.42098 -0.0142953 0
M  V30 2446 N 235.018 0.912232 1.28515 0
M  V30 2447 C 236.434 0.610159 1.47476 0
M  V30 2448 C 236.634 -0.844955 1.82928 0
M  V30 2449 O 235.69 -1.62416 1.93332 0
M  V30 2450 C 237.003 1.54675 2.57868 0
M  V30 2451 C 238.551 1.55331 2.71738 0
M  V30 2452 C 239.026 2.47649 3.85272 0
M  V30 2453 N 240.517 2.45767 3.92623 0
M  V30 2454 C 241.252 3.13896 4.79851 0
M  V30 2455 N 240.748 3.9135 5.71679 0
M  V30 2456 N 242.541 3.02991 4.73448 0
M  V30 2457 H 234.692 1.85318 1.03783 0
M  V30 2458 H 236.955 0.794777 0.516753 0
M  V30 2459 H 236.661 2.5841 2.38574 0
M  V30 2460 H 236.535 1.27671 3.54937 0
M  V30 2461 H 238.922 0.52335 2.90422 0
M  V30 2462 H 239.003 1.86378 1.75205 0
M  V30 2463 H 238.647 3.50745 3.67342 0
M  V30 2464 H 238.577 2.13904 4.81199 0
M  V30 2465 H 241.068 1.89503 3.26951 0
M  V30 2466 H 241.381 4.40359 6.35062 0
M  V30 2467 H 239.726 3.95455 5.71524 0
M  V30 2468 H 242.917 2.41987 4.007 0
M  V30 2469 H 243.09 3.5636 5.41213 0
M  V30 2470 N 236.496 -1.42363 0.676048 0
M  V30 2471 C 237.744 -2.01123 0.198437 0
M  V30 2472 C 238.065 -1.53731 -1.19966 0
M  V30 2473 O 237.335 -0.759518 -1.80577 0
M  V30 2474 H 235.915 -0.743678 0.0703721 0
M  V30 2475 H 238.577 -1.74263 0.872837 0
M  V30 2476 H 237.673 -3.11454 0.200686 0
M  V30 2477 N 237.974 -0.419461 -1.51915 0
M  V30 2478 C 238.904 0.391813 -2.30189 0
M  V30 2479 C 239.885 1.03699 -1.34836 0
M  V30 2480 O 241.07 1.04403 -1.63748 0
M  V30 2481 C 238.2 1.50312 -3.13087 0
M  V30 2482 C 237.154 0.9824 -4.16573 0
M  V30 2483 C 236.48 2.18809 -4.8788 0
M  V30 2484 C 237.78 0.0292356 -5.22292 0
M  V30 2485 H 239.474 -0.26135 -2.98257 0
M  V30 2486 H 237.02 -0.127134 -1.43438 0
M  V30 2487 H 238.973 2.07773 -3.66617 0
M  V30 2488 H 237.697 2.18431 -2.42807 0
M  V30 2489 H 236.356 0.430119 -3.64068 0
M  V30 2490 H 236.004 2.85507 -4.14119 0
M  V30 2491 H 235.704 1.84615 -5.57845 0
M  V30 2492 H 237.228 2.76858 -5.44226 0
M  V30 2493 H 238.642 0.512976 -5.71 0
M  V30 2494 H 237.039 -0.2244 -5.9968 0
M  V30 2495 H 238.109 -0.912931 -4.76228 0
M  V30 2496 N 239.452 1.56882 -0.150215 0
M  V30 2497 C 240.698 1.97299 0.494427 0
M  V30 2498 C 241.053 1.0338 1.62266 0
M  V30 2499 O 240.346 0.0694497 1.91474 0
M  V30 2500 C 240.54 3.41801 1.04437 0
M  V30 2501 C 240.369 4.49691 -0.0290451 0
M  V30 2502 C 239.139 5.03095 -0.47156 0
M  V30 2503 C 241.337 5.07693 -0.821703 0
M  V30 2504 N 239.319 5.94593 -1.52749 0
M  V30 2505 C 240.69 5.95431 -1.72805 0
M  V30 2506 C 242.745 4.90256 -0.869134 0
M  V30 2507 C 241.448 6.67599 -2.67777 0
M  V30 2508 C 243.474 5.63127 -1.8067 0
M  V30 2509 C 242.836 6.50576 -2.70057 0
M  V30 2510 H 238.935 0.76755 0.149639 0
M  V30 2511 H 241.519 1.93145 -0.24556 0
M  V30 2512 H 239.69 3.46541 1.75396 0
M  V30 2513 H 241.422 3.69272 1.6559 0
M  V30 2514 H 238.177 4.73543 -0.0732101 0
M  V30 2515 H 238.601 6.45047 -2.05531 0
M  V30 2516 H 243.243 4.22363 -0.192134 0
M  V30 2517 H 240.961 7.34717 -3.36476 0
M  V30 2518 H 244.547 5.51629 -1.84924 0
M  V30 2519 H 243.427 7.05974 -3.41424 0
M  V30 2520 N 240.93 -0.123565 1.57115 0
M  V30 2521 C 241.878 -1.17082 2.00984 0
M  V30 2522 C 242.872 -1.43136 0.906009 0
M  V30 2523 O 244.078 -1.43152 1.09121 0
M  V30 2524 H 240.453 -0.394653 0.64012 0
M  V30 2525 H 242.424 -0.774292 2.88179 0
M  V30 2526 C 241.173 -2.49057 2.42623 0
M  V30 2527 H 240.496 -2.29846 3.27125 0
M  V30 2528 H 241.936 -3.20906 2.7712 0
M  V30 2529 C 240.395 -3.11305 1.28805 0
M  V30 2530 O 240.925 -3.97171 0.60153 0
M  V30 2531 N 239.131 -2.71111 1.04628 0
M  V30 2532 H 238.678 -2.01382 1.60634 0
M  V30 2533 H 238.636 -3.1309 0.286685 0
M  V30 2534 N 242.408 -1.52605 -0.393616 0
M  V30 2535 C 243.633 -1.71592 -1.16495 0
M  V30 2536 C 244.058 -0.43133 -1.83088 0
M  V30 2537 O 243.416 0.612523 -1.7064 0
M  V30 2538 C 243.464 -2.86318 -2.19213 0
M  V30 2539 O 242.568 -2.52969 -3.257 0
M  V30 2540 H 241.909 -0.570734 -0.33935 0
M  V30 2541 H 244.439 -1.99377 -0.459324 0
M  V30 2542 H 244.449 -3.1168 -2.63286 0
M  V30 2543 H 243.124 -3.79511 -1.7013 0
M  V30 2544 H 241.701 -2.38332 -2.86797 0
M  V30 2545 N 243.887 0.651787 -1.4349 0
M  V30 2546 C 245.133 1.4121 -1.46395 0
M  V30 2547 C 245.488 1.92202 -0.087366 0
M  V30 2548 O 244.781 1.69452 0.894231 0
M  V30 2549 C 244.975 2.60914 -2.44251 0
M  V30 2550 C 244.804 2.21639 -3.91288 0
M  V30 2551 C 243.574 2.09897 -4.59643 0
M  V30 2552 C 245.772 1.81835 -4.81083 0
M  V30 2553 N 243.754 1.63967 -5.91598 0
M  V30 2554 C 245.125 1.46998 -6.02322 0
M  V30 2555 C 247.18 1.69031 -4.6833 0
M  V30 2556 C 245.883 1.00638 -7.12225 0
M  V30 2557 C 247.909 1.24077 -5.78238 0
M  V30 2558 C 247.271 0.901772 -6.98604 0
M  V30 2559 H 243.37 0.512322 -0.590805 0
M  V30 2560 H 245.954 0.74989 -1.7968 0
M  V30 2561 H 244.125 3.24792 -2.1299 0
M  V30 2562 H 245.857 3.27622 -2.37584 0
M  V30 2563 H 242.612 2.297 -4.14168 0
M  V30 2564 H 243.036 1.43359 -6.61647 0
M  V30 2565 H 247.678 1.93878 -3.75727 0
M  V30 2566 H 245.396 0.745399 -8.04655 0
M  V30 2567 H 248.982 1.14657 -5.7039 0
M  V30 2568 H 247.862 0.559226 -7.82203 0
M  V30 2569 N 245.365 1.30045 0.890287 0
M  V30 2570 C 246.275 1.17885 2.02831 0
M  V30 2571 C 247.291 0.0999609 1.73713 0
M  V30 2572 O 248.467 0.313867 1.98939 0
M  V30 2573 C 245.532 0.866079 3.35708 0
M  V30 2574 C 244.593 2.02979 3.78283 0
M  V30 2575 C 243.826 1.73184 5.0482 0
M  V30 2576 O 244.049 0.657237 5.66601 0
M  V30 2577 O 242.983 2.58267 5.43674 0
M  V30 2578 H 246.809 2.13474 2.16015 0
M  V30 2579 H 244.394 1.09587 1.01543 0
M  V30 2580 H 246.276 0.706623 4.15433 0
M  V30 2581 H 244.951 -0.0599443 3.23644 0
M  V30 2582 H 243.858 2.24454 2.99285 0
M  V30 2583 H 245.191 2.93734 3.94944 0
M  V30 2584 N 246.843 -1.10192 1.12674 0
M  V30 2585 C 247.793 -2.14754 0.765801 0
M  V30 2586 C 248.777 -1.59154 -0.236409 0
M  V30 2587 O 249.969 -1.76951 -0.0415261 0
M  V30 2588 C 247.098 -3.42563 0.224827 0
M  V30 2589 C 246.184 -4.05091 1.25548 0
M  V30 2590 N 246.575 -4.42287 2.4539 0
M  V30 2591 C 244.873 -4.32186 1.10142 0
M  V30 2592 C 245.574 -4.91441 3.11224 0
M  V30 2593 N 244.55 -4.88405 2.38666 0
M  V30 2594 H 248.352 -2.41309 1.67772 0
M  V30 2595 H 245.866 -1.27339 1.00789 0
M  V30 2596 H 247.863 -4.16868 -0.0519578 0
M  V30 2597 H 246.523 -3.17467 -0.681515 0
M  V30 2598 H 247.534 -4.33902 2.82754 0
M  V30 2599 H 244.211 -4.16735 0.252587 0
M  V30 2600 H 245.601 -5.29749 4.13298 0
M  V30 2601 N 248.321 -0.919034 -1.28029 0
M  V30 2602 C 249.598 -0.473668 -1.89778 0
M  V30 2603 C 249.978 1.04783 -1.83259 0
M  V30 2604 O 249.326 1.8982 -1.27202 0
M  V30 2605 C 249.536 -1.00998 -3.34066 0
M  V30 2606 C 250.884 -1.06525 -4.1102 0
M  V30 2607 O 251.908 -0.958996 -3.43048 0
M  V30 2608 O 250.767 -1.22776 -5.3253 0
M  V30 2609 H 247.861 -0.15098 -0.813101 0
M  V30 2610 H 250.407 -1.01016 -1.36359 0
M  V30 2611 H 249.179 -2.05392 -3.33061 0
M  V30 2612 H 248.802 -0.454626 -3.94992 0
M  V30 2613 N 249.799 1.42003 -0.683588 0
M  V30 2614 C 250.762 2.29191 -0.0198243 0
M  V30 2615 C 251.762 1.43773 0.72013 0
M  V30 2616 O 252.952 1.65061 0.556815 0
M  V30 2617 C 250.084 3.26435 0.982487 0
M  V30 2618 H 251.277 2.8938 -0.787345 0
M  V30 2619 H 248.83 1.49789 -0.446418 0
M  V30 2620 H 249.565 2.71203 1.77819 0
M  V30 2621 H 249.35 3.89449 0.455182 0
M  V30 2622 H 250.84 3.918 1.44508 0
M  V30 2623 N 251.277 0.427512 1.51691 0
M  V30 2624 C 252.524 -0.142229 2.02 0
M  V30 2625 C 252.852 -1.43566 1.31221 0
M  V30 2626 O 252.107 -1.91298 0.412744 0
M  V30 2627 C 252.406 -0.418249 3.54944 0
M  V30 2628 C 252.072 0.788187 4.43958 0
M  V30 2629 C 250.734 1.11906 4.68007 0
M  V30 2630 C 253.086 1.59347 4.96244 0
M  V30 2631 C 250.414 2.25608 5.41588 0
M  V30 2632 C 252.766 2.7214 5.71072 0
M  V30 2633 C 251.43 3.05692 5.93387 0
M  V30 2634 H 250.7 -0.0520451 0.73917 0
M  V30 2635 H 253.347 0.572697 1.82736 0
M  V30 2636 H 251.652 -1.21496 3.72486 0
M  V30 2637 H 253.349 -0.872339 3.91397 0
M  V30 2638 H 249.939 0.520344 4.2543 0
M  V30 2639 H 254.123 1.35106 4.77556 0
M  V30 2640 H 249.379 2.51929 5.57083 0
M  V30 2641 H 253.553 3.34914 6.10578 0
M  V30 2642 H 251.18 3.9391 6.50184 0
M  V30 2643 N 252.755 -1.56801 0.158532 0
M  V30 2644 C 254.004 -1.95665 -0.489702 0
M  V30 2645 C 254.317 -1.04654 -1.65248 0
M  V30 2646 O 255.523 -1.33146 -2.3661 0
M  V30 2647 C 253.979 -3.47874 -0.922582 0
M  V30 2648 C 253.587 -4.47489 0.213893 0
M  V30 2649 C 255.331 -3.95583 -1.53996 0
M  V30 2650 C 253.238 -5.90921 -0.237903 0
M  V30 2651 H 252.168 -0.730516 -0.186716 0
M  V30 2652 H 254.819 -1.81861 0.244722 0
M  V30 2653 H 253.201 -3.57051 -1.71261 0
M  V30 2654 H 254.375 -4.50017 0.991036 0
M  V30 2655 H 252.69 -4.09764 0.740407 0
M  V30 2656 H 255.287 -5.0019 -1.8898 0
M  V30 2657 H 255.63 -3.37789 -2.43319 0
M  V30 2658 H 256.163 -3.8937 -0.814611 0
M  V30 2659 H 252.902 -6.52559 0.620236 0
M  V30 2660 H 252.422 -5.91729 -0.980676 0
M  V30 2661 H 254.101 -6.43352 -0.686067 0
M  V30 2662 N 254.233 0.115231 -1.57178 0
M  V30 2663 C 255.183 1.14707 -1.97044 0
M  V30 2664 C 256.167 1.36866 -0.845957 0
M  V30 2665 O 257.359 1.37895 -1.10968 0
M  V30 2666 C 254.488 2.47266 -2.38148 0
M  V30 2667 C 253.574 2.28566 -3.57237 0
M  V30 2668 N 253.965 1.79685 -4.72807 0
M  V30 2669 C 252.263 2.59208 -3.62943 0
M  V30 2670 C 252.964 1.74781 -5.54821 0
M  V30 2671 N 251.94 2.19264 -4.97417 0
M  V30 2672 H 255.742 0.761754 -2.83857 0
M  V30 2673 H 253.256 0.322928 -1.59157 0
M  V30 2674 H 255.253 3.219 -2.64927 0
M  V30 2675 H 253.913 2.86552 -1.52702 0
M  V30 2676 H 254.924 1.49177 -4.9595 0
M  V30 2677 H 251.601 3.02154 -2.88113 0
M  V30 2678 H 252.991 1.38212 -6.57531 0
M  V30 2679 N 255.711 1.52812 0.385517 0
M  V30 2680 C 256.659 1.78482 1.49155 0
M  V30 2681 C 257.653 0.652914 1.56312 0
M  V30 2682 O 258.859 0.835464 1.59436 0
M  V30 2683 H 255.234 0.5648 0.496493 0
M  V30 2684 H 257.205 2.71095 1.24699 0
M  V30 2685 C 255.954 1.97378 2.86247 0
M  V30 2686 H 255.277 2.83907 2.81491 0
M  V30 2687 H 256.717 2.19327 3.62866 0
M  V30 2688 C 255.176 0.74728 3.28508 0
M  V30 2689 O 255.706 -0.0736232 4.01633 0
M  V30 2690 N 253.912 0.576396 2.84826 0
M  V30 2691 H 253.459 1.24555 2.25486 0
M  V30 2692 H 253.417 -0.24288 3.1346 0
M  V30 2693 N 257.189 -0.644168 1.43834 0
M  V30 2694 C 258.136 -1.75671 1.49694 0
M  V30 2695 C 259.106 -1.6246 0.345809 0
M  V30 2696 O 260.291 -1.82573 0.554234 0
M  V30 2697 C 257.431 -3.13867 1.43463 0
M  V30 2698 C 256.544 -3.38147 2.6885 0
M  V30 2699 C 255.679 -4.66241 2.54544 0
M  V30 2700 C 254.718 -4.83657 3.75157 0
M  V30 2701 N 253.855 -6.03016 3.59605 0
M  V30 2702 H 258.695 -1.69998 2.44754 0
M  V30 2703 H 256.232 -0.829458 1.21484 0
M  V30 2704 H 258.19 -3.9377 1.37843 0
M  V30 2705 H 256.82 -3.18588 0.519783 0
M  V30 2706 H 255.872 -2.52276 2.84712 0
M  V30 2707 H 257.184 -3.46899 3.58417 0
M  V30 2708 H 256.338 -5.54285 2.46683 0
M  V30 2709 H 255.077 -4.59826 1.62516 0
M  V30 2710 H 254.082 -3.94046 3.83416 0
M  V30 2711 H 255.307 -4.91896 4.68204 0
M  V30 2712 H 253.253 -5.97715 2.7032 0
M  V30 2713 H 253.17 -6.12766 4.42779 0
M  V30 2714 H 254.438 -6.93657 3.55613 0
M  V30 2715 N 258.668 -1.30515 -0.883378 0
M  V30 2716 C 259.615 -1.17032 -1.98927 0
M  V30 2717 C 260.585 -0.0594241 -1.65994 0
M  V30 2718 O 261.77 -0.229895 -1.8941 0
M  V30 2719 C 258.91 -0.869777 -3.33959 0
M  V30 2720 C 258.023 -2.06271 -3.79574 0
M  V30 2721 C 257.158 -1.70011 -5.03259 0
M  V30 2722 C 256.197 -2.8579 -5.41286 0
M  V30 2723 N 255.334 -2.49816 -6.56153 0
M  V30 2724 H 260.174 -2.1164 -2.09792 0
M  V30 2725 H 257.711 -1.05296 -1.02719 0
M  V30 2726 H 259.669 -0.676138 -4.11685 0
M  V30 2727 H 258.299 0.0394332 -3.22776 0
M  V30 2728 H 257.351 -2.36755 -2.97744 0
M  V30 2729 H 258.663 -2.92971 -4.03694 0
M  V30 2730 H 257.817 -1.47032 -5.88614 0
M  V30 2731 H 256.556 -0.804829 -4.81013 0
M  V30 2732 H 255.561 -3.09434 -4.54456 0
M  V30 2733 H 256.786 -3.76008 -5.65504 0
M  V30 2734 H 254.732 -1.62795 -6.35479 0
M  V30 2735 H 254.649 -3.30048 -6.8015 0
M  V30 2736 H 255.917 -2.30197 -7.44735 0
M  V30 2737 N 260.146 1.09593 -1.13257 0
M  V30 2738 C 261.374 1.855 -0.916378 0
M  V30 2739 C 261.789 1.81069 0.534738 0
M  V30 2740 O 261.146 1.20562 1.37007 0
M  V30 2741 C 261.197 3.33546 -1.39388 0
M  V30 2742 O 260.918 3.37927 -2.78813 0
M  V30 2743 C 262.419 4.26299 -1.21588 0
M  V30 2744 H 259.639 0.585991 -0.326887 0
M  V30 2745 H 262.183 1.38488 -1.5047 0
M  V30 2746 H 260.338 3.77992 -0.848597 0
M  V30 2747 H 260.752 4.30254 -2.9997 0
M  V30 2748 H 262.226 5.28341 -1.59876 0
M  V30 2749 H 262.703 4.38918 -0.157376 0
M  V30 2750 H 263.309 3.87668 -1.7491 0
M  V30 2751 N 261.624 0.925811 1.2754 0
M  V30 2752 C 262.872 0.564138 1.94067 0
M  V30 2753 C 263.193 -0.897188 1.73134 0
M  V30 2754 O 262.463 -1.63573 1.07799 0
M  V30 2755 H 261.043 0.205645 0.718136 0
M  V30 2756 H 263.705 1.1778 1.55287 0
M  V30 2757 H 262.801 0.76881 3.02483 0
M  V30 2758 N 263.102 -1.41638 0.69111 0
M  V30 2759 C 264.034 -2.29194 -0.0161523 0
M  V30 2760 C 265.047 -1.44549 -0.748955 0
M  V30 2761 O 266.236 -1.681 -0.6004 0
M  V30 2762 C 263.336 -3.22325 -1.0469 0
M  V30 2763 C 262.509 -4.35706 -0.384621 0
M  V30 2764 C 261.568 -5.09443 -1.31737 0
M  V30 2765 O 260.594 -5.63386 -0.811451 0
M  V30 2766 N 261.796 -5.16487 -2.64993 0
M  V30 2767 H 264.561 -2.90534 0.735523 0
M  V30 2768 H 262.122 -1.52742 0.53679 0
M  V30 2769 H 264.114 -3.68522 -1.67252 0
M  V30 2770 H 262.684 -2.62323 -1.70015 0
M  V30 2771 H 261.904 -3.91948 0.420804 0
M  V30 2772 H 263.192 -5.08743 0.0760765 0
M  V30 2773 H 262.59 -4.741 -3.08619 0
M  V30 2774 H 261.147 -5.66276 -3.22761 0
M  V30 2775 N 264.58 -0.43555 -1.51462 0
M  V30 2776 C 265.827 0.131514 -2.02072 0
M  V30 2777 C 266.155 1.42868 -1.31981 0
M  V30 2778 O 265.41 1.91076 -0.422883 0
M  V30 2779 C 265.709 0.39942 -3.55161 0
M  V30 2780 C 265.375 -0.81172 -4.43533 0
M  V30 2781 C 264.037 -1.14387 -4.67407 0
M  V30 2782 C 266.389 -1.61976 -4.95392 0
M  V30 2783 C 263.717 -2.28477 -5.40384 0
M  V30 2784 C 266.069 -2.75164 -5.6962 0
M  V30 2785 C 264.733 -3.08835 -5.91758 0
M  V30 2786 H 264.003 0.0481244 -0.739436 0
M  V30 2787 H 266.65 -0.58238 -1.8243 0
M  V30 2788 H 264.955 1.19519 -3.73125 0
M  V30 2789 H 266.652 0.85157 -3.91854 0
M  V30 2790 H 263.242 -0.542898 -4.25148 0
M  V30 2791 H 267.426 -1.37637 -4.76833 0
M  V30 2792 H 262.682 -2.5488 -5.55739 0
M  V30 2793 H 266.856 -3.38147 -6.08793 0
M  V30 2794 H 264.483 -3.97353 -6.48086 0
M  V30 2795 N 266.058 1.56714 -0.166846 0
M  V30 2796 C 267.305 1.96747 0.479252 0
M  V30 2797 C 267.633 1.05263 1.63554 0
M  V30 2798 O 266.888 0.0858098 1.95512 0
M  V30 2799 C 267.187 3.42889 1.00806 0
M  V30 2800 C 266.853 4.50889 -0.0318574 0
M  V30 2801 C 265.515 4.8015 -0.317675 0
M  V30 2802 C 267.867 5.15949 -0.737956 0
M  V30 2803 C 265.195 5.71772 -1.31506 0
M  V30 2804 C 267.547 6.08647 -1.72429 0
M  V30 2805 C 266.211 6.36277 -2.0176 0
M  V30 2806 H 265.481 0.719949 0.175371 0
M  V30 2807 H 268.128 1.89756 -0.257864 0
M  V30 2808 H 266.433 3.4681 1.82291 0
M  V30 2809 H 268.13 3.71203 1.51689 0
M  V30 2810 H 264.72 4.28128 0.201088 0
M  V30 2811 H 268.904 4.93458 -0.530351 0
M  V30 2812 H 264.16 5.91465 -1.54853 0
M  V30 2813 H 268.334 6.58129 -2.27682 0
M  V30 2814 H 265.961 7.07075 -2.79194 0
M  V30 2815 N 267.536 -0.106894 1.57237 0
M  V30 2816 C 268.813 -0.843526 1.76477 0
M  V30 2817 C 269.193 -1.97499 0.745464 0
M  V30 2818 O 268.541 -2.27357 -0.228306 0
M  V30 2819 C 268.751 -1.34903 3.21873 0
M  V30 2820 C 270.099 -1.79654 3.8472 0
M  V30 2821 O 271.123 -1.44554 3.2555 0
M  V30 2822 O 269.982 -2.44515 4.88748 0
M  V30 2823 H 267.076 -0.401468 0.723016 0
M  V30 2824 H 269.622 -0.0896927 1.69463 0
M  V30 2825 H 268.394 -0.53781 3.87586 0
M  V30 2826 H 268.017 -2.16522 3.33473 0
M  V30 2827 N 269.014 -1.53014 -0.377408 0
M  V30 2828 C 269.946 -1.74884 -1.48149 0
M  V30 2829 C 270.959 -0.629433 -1.5014 0
M  V30 2830 O 272.148 -0.905416 -1.53833 0
M  V30 2831 C 269.248 -1.80299 -2.86959 0
M  V30 2832 C 268.421 -3.09776 -3.08801 0
M  V30 2833 C 267.48 -3.06586 -4.27658 0
M  V30 2834 O 266.506 -3.80419 -4.23403 0
M  V30 2835 N 267.708 -2.26578 -5.34455 0
M  V30 2836 H 270.473 -2.70147 -1.29771 0
M  V30 2837 H 268.034 -1.51646 -0.56703 0
M  V30 2838 H 270.026 -1.75657 -3.64591 0
M  V30 2839 H 268.596 -0.92372 -2.98641 0
M  V30 2840 H 267.816 -3.27815 -2.18931 0
M  V30 2841 H 269.104 -3.95366 -3.20255 0
M  V30 2842 H 268.502 -1.66081 -5.40771 0
M  V30 2843 H 267.059 -2.27766 -6.10709 0
M  V30 2844 N 270.492 0.636531 -1.44174 0
M  V30 2845 C 271.455 1.73063 -1.50273 0
M  V30 2846 C 272.455 1.56113 -0.385397 0
M  V30 2847 O 273.645 1.61707 -0.64781 0
M  V30 2848 C 270.777 3.12096 -1.37145 0
M  V30 2849 H 271.97 1.69031 -2.47727 0
M  V30 2850 H 269.523 0.849706 -1.31186 0
M  V30 2851 H 270.258 3.21728 -0.407636 0
M  V30 2852 H 270.043 3.25805 -2.18159 0
M  V30 2853 H 271.533 3.91846 -1.44382 0
M  V30 2854 N 271.97 1.30982 0.876444 0
M  V30 2855 C 272.917 1.18085 1.98304 0
M  V30 2856 C 273.887 0.0682263 1.6596 0
M  V30 2857 O 275.072 0.239937 1.89285 0
M  V30 2858 C 272.212 0.887475 3.33493 0
M  V30 2859 C 271.325 2.08281 3.78475 0
M  V30 2860 C 270.46 1.72678 5.0235 0
M  V30 2861 C 269.499 2.88657 5.39762 0
M  V30 2862 N 268.636 2.53292 6.54819 0
M  V30 2863 H 273.476 2.1275 2.08666 0
M  V30 2864 H 271.013 1.05839 1.02159 0
M  V30 2865 H 272.971 0.697961 4.1132 0
M  V30 2866 H 271.601 -0.022315 3.22792 0
M  V30 2867 H 270.653 2.3833 2.96484 0
M  V30 2868 H 271.965 2.95108 4.02135 0
M  V30 2869 H 271.119 1.50151 5.87826 0
M  V30 2870 H 269.858 0.830327 4.8058 0
M  V30 2871 H 268.863 3.1184 4.52809 0
M  V30 2872 H 270.088 3.79002 5.63502 0
M  V30 2873 H 268.034 1.66163 6.34607 0
M  V30 2874 H 267.951 3.3365 6.7839 0
M  V30 2875 H 269.219 2.34143 7.43503 0
M  V30 2876 N 273.449 -1.08991 1.13837 0
M  V30 2877 C 274.379 -2.17771 0.842507 0
M  V30 2878 C 275.36 -1.6892 -0.20001 0
M  V30 2879 O 276.545 -1.94113 -0.0579731 0
M  V30 2880 C 273.675 -3.4589 0.312644 0
M  V30 2881 C 272.629 -4.08099 1.28992 0
M  V30 2882 C 271.955 -5.31098 0.619623 0
M  V30 2883 C 273.255 -4.50077 2.65005 0
M  V30 2884 H 274.949 -2.42777 1.75213 0
M  V30 2885 H 272.495 -1.16682 0.843875 0
M  V30 2886 H 274.448 -4.21297 0.0933043 0
M  V30 2887 H 273.172 -3.20419 -0.632382 0
M  V30 2888 H 271.831 -3.34717 1.49533 0
M  V30 2889 H 271.479 -5.0191 -0.33102 0
M  V30 2890 H 271.179 -5.73674 1.27167 0
M  V30 2891 H 272.703 -6.09224 0.409669 0
M  V30 2892 H 274.117 -5.16688 2.48407 0
M  V30 2893 H 272.514 -5.03553 3.26427 0
M  V30 2894 H 273.584 -3.62257 3.22332 0
M  V30 2895 N 274.927 -0.932562 -1.27047 0
M  V30 2896 C 275.877 -0.406392 -2.24349 0
M  V30 2897 C 276.861 0.492066 -1.53191 0
M  V30 2898 O 278.053 0.328717 -1.73921 0
M  V30 2899 C 275.182 0.335214 -3.41659 0
M  V30 2900 C 274.268 -0.58004 -4.20115 0
M  V30 2901 N 274.659 -1.70203 -4.76303 0
M  V30 2902 C 272.957 -0.383974 -4.44344 0
M  V30 2903 C 273.658 -2.27167 -5.35509 0
M  V30 2904 N 272.634 -1.56068 -5.20715 0
M  V30 2905 H 276.436 -1.26299 -2.65378 0
M  V30 2906 H 273.95 -0.787408 -1.42034 0
M  V30 2907 H 275.947 0.729142 -4.10474 0
M  V30 2908 H 274.607 1.18868 -3.0216 0
M  V30 2909 H 275.618 -2.08433 -4.74106 0
M  V30 2910 H 272.295 0.428436 -4.15296 0
M  V30 2911 H 273.685 -3.21654 -5.89905 0
M  V30 2912 N 276.405 1.4127 -0.698611 0
M  V30 2913 C 277.821 1.55241 -0.370462 0
M  V30 2914 C 278.021 1.67351 1.12231 0
M  V30 2915 O 277.077 1.65363 1.90818 0
M  V30 2916 C 278.39 2.78997 -1.12165 0
M  V30 2917 C 279.938 2.92797 -1.1063 0
M  V30 2918 C 280.413 4.19445 -1.8393 0
M  V30 2919 N 281.904 4.26409 -1.80914 0
M  V30 2920 C 282.639 5.23271 -2.34467 0
M  V30 2921 N 282.135 6.26145 -2.96504 0
M  V30 2922 N 283.928 5.15232 -2.24706 0
M  V30 2923 H 276.079 1.31654 -1.66676 0
M  V30 2924 H 278.342 0.635393 -0.703548 0
M  V30 2925 H 278.048 2.76268 -2.17644 0
M  V30 2926 H 277.922 3.70606 -0.702209 0
M  V30 2927 H 280.309 2.95039 -0.0597713 0
M  V30 2928 H 280.39 2.02353 -1.56483 0
M  V30 2929 H 280.034 4.17964 -2.88563 0
M  V30 2930 H 279.964 5.08866 -1.35509 0
M  V30 2931 H 282.455 3.527 -1.35687 0
M  V30 2932 H 282.768 6.96451 -3.34927 0
M  V30 2933 H 281.113 6.26638 -3.00583 0
M  V30 2934 H 284.304 4.33789 -1.7591 0
M  V30 2935 H 284.477 5.90552 -2.66745 0
M  V30 2936 N 277.883 0.443576 1.51229 0
M  V30 2937 C 278.813 -0.355142 2.30783 0
M  V30 2938 C 279.794 -1.0154 1.36468 0
M  V30 2939 O 280.979 -1.01785 1.65389 0
M  V30 2940 C 278.109 -1.45312 3.15439 0
M  V30 2941 C 277.063 -0.916002 4.18083 0
M  V30 2942 C 276.389 -2.1102 4.91299 0
M  V30 2943 C 277.689 0.0538602 5.22272 0
M  V30 2944 H 279.383 0.308767 2.97804 0
M  V30 2945 H 276.929 0.149937 1.43217 0
M  V30 2946 H 278.882 -2.01914 3.69876 0
M  V30 2947 H 277.606 -2.14541 2.46252 0
M  V30 2948 H 276.265 -0.372145 3.64706 0
M  V30 2949 H 275.913 -2.78882 4.18609 0
M  V30 2950 H 275.613 -1.75717 5.60712 0
M  V30 2951 H 277.137 -2.68164 5.48562 0
M  V30 2952 H 278.551 -0.422069 5.71744 0
M  V30 2953 H 276.948 0.319776 5.99247 0
M  V30 2954 H 278.018 0.98858 4.74716 0
M  V30 2955 N 279.361 -1.56624 0.175154 0
M  V30 2956 C 280.309 -2.19468 -0.770495 0
M  V30 2957 C 281.303 -1.15985 -1.23466 0
M  V30 2958 O 282.509 -1.34176 -1.19987 0
M  V30 2959 H 278.884 -0.703095 -0.266761 0
M  V30 2960 H 280.855 -2.97613 -0.216542 0
M  V30 2961 C 279.604 -2.85264 -1.98796 0
M  V30 2962 H 278.927 -3.64623 -1.63983 0
M  V30 2963 H 280.367 -3.327 -2.62843 0
M  V30 2964 C 278.826 -1.85239 -2.81404 0
M  V30 2965 O 279.356 -1.34024 -3.78682 0
M  V30 2966 N 277.562 -1.53911 -2.46495 0
M  V30 2967 H 277.109 -1.95751 -1.67449 0
M  V30 2968 H 277.067 -0.872382 -3.02054 0
M  V30 2969 N 280.839 0.0985539 -1.57292 0
M  V30 2970 C 281.789 1.1261 -1.9825 0
M  V30 2971 C 282.773 1.35961 -0.860426 0
M  V30 2972 O 283.965 1.36711 -1.12424 0
M  V30 2973 C 281.094 2.44727 -2.40757 0
M  V30 2974 C 280.18 2.24764 -3.59642 0
M  V30 2975 N 280.571 1.74661 -4.74687 0
M  V30 2976 C 278.869 2.55344 -3.65672 0
M  V30 2977 C 279.57 1.68887 -5.56644 0
M  V30 2978 N 278.546 2.13976 -4.99715 0
M  V30 2979 H 282.348 0.731604 -2.84648 0
M  V30 2980 H 279.862 0.306029 -1.59491 0
M  V30 2981 H 281.859 3.19072 -2.68326 0
M  V30 2982 H 280.519 2.84917 -1.55733 0
M  V30 2983 H 281.53 1.43908 -4.97505 0
M  V30 2984 H 278.207 2.99081 -2.91302 0
M  V30 2985 H 279.597 1.3123 -6.5896 0
M  V30 2986 N 282.317 1.53212 0.369288 0
M  V30 2987 C 283.264 1.79388 1.45219 0
M  V30 2988 C 284.234 0.638059 1.53356 0
M  V30 2989 O 285.419 0.879852 1.69302 0
M  V30 2990 C 282.559 1.98623 2.82211 0
M  V30 2991 C 281.672 3.26337 2.8307 0
M  V30 2992 C 280.807 3.35779 4.11614 0
M  V30 2993 C 279.846 4.5754 4.06601 0
M  V30 2994 N 278.983 4.64155 5.26787 0
M  V30 2995 H 283.823 2.71794 1.22198 0
M  V30 2996 H 281.36 1.34642 0.592444 0
M  V30 2997 H 283.318 2.07761 3.61789 0
M  V30 2998 H 281.948 1.09558 3.03639 0
M  V30 2999 H 281 3.26171 1.95747 0
M  V30 3000 H 282.312 4.15988 2.75237 0
M  V30 3001 H 281.466 3.44208 4.99606 0
M  V30 3002 H 280.205 2.44137 4.22195 0
M  V30 3003 H 279.21 4.49215 3.16996 0
M  V30 3004 H 280.435 5.50519 3.97625 0
M  V30 3005 H 278.381 3.75413 5.3796 0
M  V30 3006 H 278.298 5.47706 5.21109 0
M  V30 3007 H 279.566 4.76863 6.16621 0
M  V30 3008 N 283.795 -0.628877 1.44509 0
M  V30 3009 C 285.043 -1.38565 1.4712 0
M  V30 3010 C 285.364 -1.94712 0.105899 0
M  V30 3011 O 284.634 -1.75912 -0.862079 0
M  V30 3012 H 283.214 -0.514333 0.541729 0
M  V30 3013 H 285.876 -0.740018 1.80305 0
M  V30 3014 H 284.972 -2.21583 2.19789 0
M  V30 3015 N 285.273 -1.31445 -0.869486 0
M  V30 3016 C 286.22 -1.19135 -1.97675 0
M  V30 3017 C 287.19 -0.0770266 -1.65921 0
M  V30 3018 O 288.375 -0.249972 -1.89155 0
M  V30 3019 C 285.515 -0.905149 -3.33018 0
M  V30 3020 C 284.628 -2.10285 -3.77365 0
M  V30 3021 C 283.763 -1.75339 -5.01427 0
M  V30 3022 C 282.802 -2.91515 -5.38224 0
M  V30 3023 N 281.939 -2.56762 -6.53466 0
M  V30 3024 H 286.779 -2.13853 -2.07535 0
M  V30 3025 H 284.316 -1.06379 -1.01597 0
M  V30 3026 H 286.274 -0.719765 -4.10944 0
M  V30 3027 H 284.904 0.00519624 -3.228 0
M  V30 3028 H 283.956 -2.39899 -2.95216 0
M  V30 3029 H 285.268 -2.97237 -4.00564 0
M  V30 3030 H 284.422 -1.53266 -5.87022 0
M  V30 3031 H 283.161 -0.855801 -4.80133 0
M  V30 3032 H 282.166 -3.14237 -4.51149 0
M  V30 3033 H 283.391 -3.81985 -5.61484 0
M  V30 3034 H 281.337 -1.69526 -6.33717 0
M  V30 3035 H 281.254 -3.37243 -6.76612 0
M  V30 3036 H 282.522 -2.38083 -7.42251 0
M  V30 3037 N 286.751 1.08385 -1.14413 0
M  V30 3038 C 287.981 1.8425 -0.934644 0
M  V30 3039 C 288.389 1.81907 0.520234 0
M  V30 3040 O 287.732 1.22126 1.37226 0
M  V30 3041 C 287.794 3.32853 -1.35828 0
M  V30 3042 C 287.458 3.5893 -2.82875 0
M  V30 3043 C 288.455 3.53756 -3.80989 0
M  V30 3044 C 286.14 3.86934 -3.20293 0
M  V30 3045 C 288.134 3.76216 -5.14529 0
M  V30 3046 C 285.821 4.09047 -4.54008 0
M  V30 3047 C 286.819 4.03682 -5.50936 0
M  V30 3048 O 286.507 4.25214 -6.82238 0
M  V30 3049 H 286.239 0.588502 -0.332628 0
M  V30 3050 H 288.793 1.37792 -1.52324 0
M  V30 3051 H 287.023 3.8007 -0.713019 0
M  V30 3052 H 288.712 3.90154 -1.11957 0
M  V30 3053 H 289.478 3.32135 -3.53428 0
M  V30 3054 H 285.357 3.9023 -2.45442 0
M  V30 3055 H 288.901 3.71943 -5.90173 0
M  V30 3056 H 284.798 4.30151 -4.8129 0
M  V30 3057 H 285.566 4.42619 -6.88499 0
M  V30 3058 N 288.23 0.939286 1.26551 0
M  V30 3059 C 289.477 0.585847 1.9384 0
M  V30 3060 C 289.805 -0.874784 1.73718 0
M  V30 3061 O 289.06 -1.64092 1.06642 0
M  V30 3062 C 289.359 0.872106 3.46596 0
M  V30 3063 C 289.025 2.31632 3.86856 0
M  V30 3064 C 287.687 2.71111 3.97558 0
M  V30 3065 C 290.039 3.25494 4.07066 0
M  V30 3066 C 287.367 4.03553 4.25866 0
M  V30 3067 C 289.719 4.57531 4.36862 0
M  V30 3068 C 288.383 4.96828 4.45778 0
M  V30 3069 H 287.653 0.214377 0.709312 0
M  V30 3070 H 290.3 1.18544 1.50398 0
M  V30 3071 H 288.605 0.18996 3.91339 0
M  V30 3072 H 290.302 0.577442 3.96821 0
M  V30 3073 H 286.892 2.00008 3.79071 0
M  V30 3074 H 291.076 2.9619 3.98227 0
M  V30 3075 H 286.332 4.33665 4.30981 0
M  V30 3076 H 290.506 5.30254 4.51446 0
M  V30 3077 H 288.133 5.99482 4.67468 0
M  V30 3078 N 289.708 -1.40897 0.706093 0
M  V30 3079 C 290.64 -2.29199 0.00815776 0
M  V30 3080 C 291.653 -1.45336 -0.733582 0
M  V30 3081 O 292.842 -1.68727 -0.582537 0
M  V30 3082 C 289.942 -3.23417 -1.01265 0
M  V30 3083 C 289.115 -4.36089 -0.338387 0
M  V30 3084 C 288.174 -5.10811 -1.26326 0
M  V30 3085 O 287.2 -5.64215 -0.751651 0
M  V30 3086 N 288.402 -5.19269 -2.595 0
M  V30 3087 H 291.167 -2.89738 0.766297 0
M  V30 3088 H 288.728 -1.52164 0.55296 0
M  V30 3089 H 290.72 -3.70276 -1.63334 0
M  V30 3090 H 289.29 -2.64112 -1.67223 0
M  V30 3091 H 288.51 -3.91479 0.462352 0
M  V30 3092 H 289.798 -5.08634 0.130031 0
M  V30 3093 H 289.196 -4.77347 -3.03573 0
M  V30 3094 H 287.753 -5.69667 -3.16737 0
M  V30 3095 N 291.186 -0.45159 -1.50991 0
M  V30 3096 C 292.432 0.110237 -2.025 0
M  V30 3097 C 292.765 1.41109 -1.33424 0
M  V30 3098 O 292.04 1.89135 -0.453659 0
M  V30 3099 C 292.323 0.314271 -3.58726 0
M  V30 3100 C 292.176 -1.00623 -4.38401 0
M  V30 3101 C 293.495 1.07767 -4.26702 0
M  V30 3102 H 290.614 0.0385897 -0.735989 0
M  V30 3103 H 293.256 -0.593374 -1.80497 0
M  V30 3104 H 291.406 0.913601 -3.77605 0
M  V30 3105 H 293.078 -1.64064 -4.31139 0
M  V30 3106 H 291.321 -1.6075 -4.02917 0
M  V30 3107 H 291.992 -0.817341 -5.45915 0
M  V30 3108 H 294.468 0.56986 -4.12179 0
M  V30 3109 H 293.344 1.18921 -5.35863 0
M  V30 3110 H 293.605 2.10939 -3.88532 0
M  V30 3111 N 292.664 1.56529 -0.183458 0
M  V30 3112 C 293.574 2.22144 0.754272 0
M  V30 3113 C 294.59 1.21684 1.24374 0
M  V30 3114 O 295.766 1.54385 1.29333 0
M  V30 3115 C 292.831 2.85884 1.96141 0
M  V30 3116 C 291.892 4.01579 1.51765 0
M  V30 3117 C 291.125 4.6227 2.66725 0
M  V30 3118 O 291.348 4.21865 3.83909 0
M  V30 3119 O 290.282 5.51936 2.40104 0
M  V30 3120 H 294.108 3.02861 0.225527 0
M  V30 3121 H 291.693 1.49331 0.0453032 0
M  V30 3122 H 293.575 3.26253 2.66715 0
M  V30 3123 H 292.25 2.08154 2.47899 0
M  V30 3124 H 291.157 3.65856 0.781049 0
M  V30 3125 H 292.49 4.80938 1.04686 0
M  V30 3126 N 294.142 -0.090211 1.57342 0
M  V30 3127 C 295.39 -0.791241 1.85967 0
M  V30 3128 C 295.711 -1.7903 0.772859 0
M  V30 3129 O 294.981 -1.94872 -0.200398 0
M  V30 3130 H 293.561 -0.295205 0.686195 0
M  V30 3131 H 296.223 -0.0706782 1.94772 0
M  V30 3132 H 295.319 -1.31882 2.82867 0
M  V30 3133 N 295.62 -1.53406 -0.361157 0
M  V30 3134 C 297.031 -1.61442 -0.937728 0
M  V30 3135 C 297.382 -0.48461 -1.90121 0
M  V30 3136 O 296.507 0.388312 -2.12888 0
M  V30 3137 C 297.102 -2.92624 -1.70753 0
M  V30 3138 C 295.661 -3.02981 -2.23337 0
M  V30 3139 C 294.808 -2.5677 -1.04712 0
M  V30 3140 H 297.759 -1.58083 -0.139816 0
M  V30 3141 H 297.78 -2.80675 -2.56908 0
M  V30 3142 H 297.292 -3.74834 -1.00604 0
M  V30 3143 H 295.393 -2.25368 -2.96715 0
M  V30 3144 H 295.506 -4.0814 -2.50916 0
M  V30 3145 H 293.87 -2.11752 -1.41539 0
M  V30 3146 H 294.653 -3.41402 -0.360539 0
M  V30 3147 N 297.098 0.621204 -1.44841 0
M  V30 3148 C 298.028 1.74366 -1.55303 0
M  V30 3149 C 299.009 1.65199 -0.405385 0
M  V30 3150 O 300.194 1.83807 -0.626787 0
M  V30 3151 C 297.324 3.12931 -1.50637 0
M  V30 3152 C 296.278 3.36896 -2.63979 0
M  V30 3153 C 295.604 4.75594 -2.44366 0
M  V30 3154 C 296.904 3.28483 -4.06074 0
M  V30 3155 H 298.598 1.65867 -2.49256 0
M  V30 3156 H 296.144 0.796558 -1.19962 0
M  V30 3157 H 298.097 3.9124 -1.56555 0
M  V30 3158 H 296.821 3.22237 -0.532057 0
M  V30 3159 H 295.48 2.60972 -2.57467 0
M  V30 3160 H 295.128 4.81616 -1.45105 0
M  V30 3161 H 294.828 4.92586 -3.20364 0
M  V30 3162 H 296.352 5.5612 -2.52117 0
M  V30 3163 H 297.766 3.96684 -4.13902 0
M  V30 3164 H 296.163 3.57008 -4.82354 0
M  V30 3165 H 297.233 2.26133 -4.28943 0
M  V30 3166 N 298.576 1.31904 0.862503 0
M  V30 3167 C 299.524 1.20125 1.9918 0
M  V30 3168 C 300.518 0.107824 1.69056 0
M  V30 3169 O 301.724 0.270223 1.7796 0
M  V30 3170 H 298.099 0.372148 0.65346 0
M  V30 3171 H 300.07 2.15652 2.06244 0
M  V30 3172 C 298.819 0.933099 3.34946 0
M  V30 3173 H 298.142 1.76664 3.5865 0
M  V30 3174 H 299.582 0.890892 4.14535 0
M  V30 3175 C 298.041 -0.364172 3.34926 0
M  V30 3176 O 298.571 -1.37858 3.77304 0
M  V30 3177 N 296.777 -0.383362 2.8806 0
M  V30 3178 H 296.324 0.442651 2.53768 0
M  V30 3179 H 296.282 -1.25123 2.8843 0
M  V30 3180 N 300.054 -1.07777 1.14986 0
M  V30 3181 C 301.303 -1.79669 0.916617 0
M  V30 3182 C 301.616 -1.87474 -0.557917 0
M  V30 3183 O 302.822 -2.55845 -0.908617 0
M  V30 3184 C 301.278 -3.22848 1.59051 0
M  V30 3185 C 300.886 -3.23257 3.10176 0
M  V30 3186 C 302.63 -3.99379 1.43864 0
M  V30 3187 C 300.537 -4.61063 3.70372 0
M  V30 3188 H 299.467 -0.673349 0.33929 0
M  V30 3189 H 302.118 -1.21003 1.37951 0
M  V30 3190 H 300.5 -3.8168 1.0553 0
M  V30 3191 H 301.674 -2.74095 3.70417 0
M  V30 3192 H 299.989 -2.60222 3.25074 0
M  V30 3193 H 302.586 -5.0122 1.86232 0
M  V30 3194 H 302.929 -4.14511 0.385564 0
M  V30 3195 H 303.462 -3.47032 1.94457 0
M  V30 3196 H 300.201 -4.51135 4.7556 0
M  V30 3197 H 299.721 -5.1048 3.14913 0
M  V30 3198 H 301.4 -5.30034 3.71043 0
M  V30 3199 N 301.532 -0.945985 -1.26051 0
M  V30 3200 C 302.78 -0.594941 -1.93145 0
M  V30 3201 C 303.101 0.86953 -1.7454 0
M  V30 3202 O 302.371 1.61838 -1.10387 0
M  V30 3203 H 300.951 -0.217044 -0.714773 0
M  V30 3204 H 303.613 -1.20235 -1.53393 0
M  V30 3205 H 302.709 -0.816835 -3.01221 0
M  V30 3206 N 303.011 1.40521 -0.713556 0
M  V30 3207 C 304.427 1.54839 -0.386907 0
M  V30 3208 C 304.627 1.68532 1.1045 0
M  V30 3209 O 303.683 1.67377 1.89053 0
M  V30 3210 C 304.996 2.77792 -1.15118 0
M  V30 3211 C 306.544 2.91607 -1.13729 0
M  V30 3212 C 307.019 4.1747 -1.88368 0
M  V30 3213 N 308.51 4.24466 -1.85427 0
M  V30 3214 C 309.245 5.20755 -2.40004 0
M  V30 3215 N 308.741 6.22965 -3.03129 0
M  V30 3216 N 310.534 5.1282 -2.30158 0
M  V30 3217 H 302.685 1.29879 -1.68063 0
M  V30 3218 H 304.948 0.627896 -0.710247 0
M  V30 3219 H 304.654 2.73944 -2.20561 0
M  V30 3220 H 304.528 3.6984 -0.741477 0
M  V30 3221 H 306.915 2.94959 -0.0910608 0
M  V30 3222 H 306.996 2.00682 -1.5862 0
M  V30 3223 H 306.64 4.1488 -2.9298 0
M  V30 3224 H 306.57 5.074 -1.40898 0
M  V30 3225 H 309.061 3.51241 -1.3942 0
M  V30 3226 H 309.374 6.92859 -3.42295 0
M  V30 3227 H 307.719 6.23415 -3.07212 0
M  V30 3228 H 310.91 4.31899 -1.80501 0
M  V30 3229 H 311.083 5.87689 -2.72993 0
M  V30 3230 N 304.489 0.459591 1.5075 0
M  V30 3231 C 305.714 -0.0996819 2.0716 0
M  V30 3232 C 306.139 -1.33761 1.32249 0
M  V30 3233 O 305.497 -1.77551 0.366786 0
M  V30 3234 C 305.545 -0.378226 3.58611 0
M  V30 3235 O 304.649 -1.46081 3.85661 0
M  V30 3236 H 303.99 0.00791392 0.663953 0
M  V30 3237 H 306.52 0.647329 1.9409 0
M  V30 3238 H 306.53 -0.622135 4.03229 0
M  V30 3239 H 305.205 0.526439 4.12555 0
M  V30 3240 H 303.782 -1.20511 3.5289 0
M  V30 3241 N 305.967 -1.56429 0.191757 0
M  V30 3242 C 306.914 -2.18936 -0.730454 0
M  V30 3243 C 307.884 -1.13557 -1.21219 0
M  V30 3244 O 309.069 -1.41794 -1.27668 0
M  V30 3245 C 306.209 -2.85013 -1.9458 0
M  V30 3246 C 305.322 -4.04909 -1.50574 0
M  V30 3247 C 304.457 -4.58853 -2.67634 0
M  V30 3248 C 303.496 -5.71114 -2.20217 0
M  V30 3249 N 302.633 -6.19478 -3.30442 0
M  V30 3250 H 307.473 -2.97389 -0.190664 0
M  V30 3251 H 305.01 -1.46869 -0.0823694 0
M  V30 3252 H 306.968 -3.21492 -2.65893 0
M  V30 3253 H 305.598 -2.09129 -2.45896 0
M  V30 3254 H 304.65 -3.74115 -0.688605 0
M  V30 3255 H 305.962 -4.86113 -1.11784 0
M  V30 3256 H 305.116 -4.97619 -3.47074 0
M  V30 3257 H 303.855 -3.76749 -3.09696 0
M  V30 3258 H 302.86 -5.31879 -1.3923 0
M  V30 3259 H 304.085 -6.55033 -1.79189 0
M  V30 3260 H 302.031 -5.40297 -3.72041 0
M  V30 3261 H 301.948 -6.95725 -2.9581 0
M  V30 3262 H 303.216 -6.62898 -4.10106 0
M  V30 3263 N 307.445 0.0818655 -1.57387 0
M  V30 3264 C 308.377 1.12484 -1.997 0
M  V30 3265 C 309.39 1.35564 -0.90146 0
M  V30 3266 O 310.579 1.33982 -1.17945 0
M  V30 3267 C 307.679 2.47778 -2.31213 0
M  V30 3268 C 306.852 2.44793 -3.62485 0
M  V30 3269 C 305.911 3.62117 -3.81782 0
M  V30 3270 O 304.937 3.44005 -4.53486 0
M  V30 3271 N 306.139 4.82094 -3.23367 0
M  V30 3272 H 308.904 0.764585 -2.89783 0
M  V30 3273 H 306.465 0.270664 -1.59621 0
M  V30 3274 H 308.457 3.24891 -2.41304 0
M  V30 3275 H 307.027 2.75843 -1.4707 0
M  V30 3276 H 306.247 1.53134 -3.6324 0
M  V30 3277 H 307.535 2.39889 -4.48699 0
M  V30 3278 H 306.933 4.99713 -2.65148 0
M  V30 3279 H 305.49 5.56753 -3.38923 0
M  V30 3280 N 308.923 1.53595 0.353017 0
M  V30 3281 C 310.171 1.70049 1.09215 0
M  V30 3282 C 310.492 0.461406 1.89463 0
M  V30 3283 O 309.762 -0.524633 1.88744 0
M  V30 3284 H 308.342 0.626912 0.40619 0
M  V30 3285 H 311.004 1.90822 0.396585 0
M  V30 3286 H 310.1 2.56718 1.77488 0
M  V30 3287 N 310.401 -0.613514 1.45168 0
M  V30 3288 C 311.311 -1.75296 1.55912 0
M  V30 3289 C 312.327 -1.68244 0.443856 0
M  V30 3290 O 313.503 -1.88706 0.70371 0
M  V30 3291 C 310.568 -3.1174 1.5172 0
M  V30 3292 C 309.629 -3.30291 2.74238 0
M  V30 3293 C 308.862 -4.60226 2.70236 0
M  V30 3294 O 309.085 -5.42168 1.77229 0
M  V30 3295 O 308.019 -4.81361 3.61352 0
M  V30 3296 H 311.845 -1.69183 2.52212 0
M  V30 3297 H 309.43 -0.776886 1.27612 0
M  V30 3298 H 311.312 -3.93044 1.51968 0
M  V30 3299 H 309.987 -3.18357 0.585697 0
M  V30 3300 H 308.894 -2.48598 2.79553 0
M  V30 3301 H 310.227 -3.28547 3.66494 0
M  V30 3302 N 311.879 -1.3236 -0.855495 0
M  V30 3303 C 313.29 -1.2056 -1.42556 0
M  V30 3304 C 313.641 0.182209 -1.95352 0
M  V30 3305 O 312.766 1.08088 -1.87472 0
M  V30 3306 C 313.361 -2.1826 -2.59129 0
M  V30 3307 C 311.92 -2.10351 -3.12137 0
M  V30 3308 C 311.067 -2.06674 -1.84882 0
M  V30 3309 H 314.018 -1.442 -0.662727 0
M  V30 3310 H 314.039 -1.78064 -3.36264 0
M  V30 3311 H 313.551 -3.19257 -2.20673 0
M  V30 3312 H 311.652 -1.12599 -3.55179 0
M  V30 3313 H 311.765 -3.00135 -3.73438 0
M  V30 3314 H 310.129 -1.51901 -2.04446 0
M  V30 3315 H 310.912 -3.09451 -1.48643 0
M  V30 3316 N 313.357 1.07166 -1.15556 0
M  V30 3317 C 314.603 1.80065 -0.932984 0
M  V30 3318 C 314.936 1.86586 0.53845 0
M  V30 3319 O 314.211 1.35098 1.39924 0
M  V30 3320 C 314.494 3.25022 -1.55025 0
M  V30 3321 C 314.347 3.26634 -3.09242 0
M  V30 3322 C 315.666 4.22341 -1.2376 0
M  V30 3323 H 312.785 0.653697 -0.340366 0
M  V30 3324 H 315.427 1.25389 -1.4275 0
M  V30 3325 H 313.577 3.71712 -1.12972 0
M  V30 3326 H 315.249 2.88173 -3.60214 0
M  V30 3327 H 313.492 2.65539 -3.43033 0
M  V30 3328 H 314.163 4.28854 -3.47546 0
M  V30 3329 H 316.639 3.8405 -1.60139 0
M  V30 3330 H 315.515 5.22053 -1.69564 0
M  V30 3331 H 315.776 4.41828 -0.154938 0
M  V30 3332 N 314.835 0.952656 1.25548 0
M  V30 3333 C 316.081 0.607272 1.93494 0
M  V30 3334 C 316.414 -0.853245 1.74452 0
M  V30 3335 O 315.689 -1.61194 1.08843 0
M  V30 3336 C 315.972 0.96435 3.46947 0
M  V30 3337 C 315.825 2.48045 3.75225 0
M  V30 3338 C 317.144 0.487987 4.37386 0
M  V30 3339 H 314.263 0.222096 0.702739 0
M  V30 3340 H 316.905 1.18895 1.48203 0
M  V30 3341 H 315.055 0.469361 3.85654 0
M  V30 3342 H 316.727 3.04905 3.46166 0
M  V30 3343 H 314.97 2.919 3.209 0
M  V30 3344 H 315.641 2.6808 4.82532 0
M  V30 3345 H 318.117 0.912558 4.0597 0
M  V30 3346 H 316.993 0.766547 5.43521 0
M  V30 3347 H 317.254 -0.612063 4.37843 0
M  V30 3348 N 316.313 -1.40141 0.720998 0
M  V30 3349 C 317.56 -2.00787 0.262842 0
M  V30 3350 C 317.888 -1.5718 -1.14563 0
M  V30 3351 O 317.143 -0.785391 -1.79249 0
M  V30 3352 C 317.442 -3.56165 0.296892 0
M  V30 3353 C 317.108 -4.19373 1.65641 0
M  V30 3354 C 315.77 -4.36352 2.02855 0
M  V30 3355 C 318.122 -4.54578 2.54968 0
M  V30 3356 C 315.45 -4.8582 3.28931 0
M  V30 3357 C 317.802 -5.05447 3.80402 0
M  V30 3358 C 316.466 -5.20635 4.17726 0
M  V30 3359 H 315.736 -0.734731 0.0961807 0
M  V30 3360 H 318.383 -1.67673 0.925093 0
M  V30 3361 H 316.688 -3.8922 -0.448932 0
M  V30 3362 H 318.385 -4.00929 -0.0755208 0
M  V30 3363 H 314.975 -4.06549 1.35704 0
M  V30 3364 H 319.159 -4.41091 2.27491 0
M  V30 3365 H 314.415 -4.95764 3.57811 0
M  V30 3366 H 318.589 -5.31663 4.49786 0
M  V30 3367 H 316.216 -5.58728 5.15487 0
M  V30 3368 N 317.792 -0.46758 -1.50504 0
M  V30 3369 C 318.724 0.364655 -2.26281 0
M  V30 3370 C 319.737 0.960151 -1.31472 0
M  V30 3371 O 320.926 0.849153 -1.57008 0
M  V30 3372 C 318.026 1.52509 -3.02645 0
M  V30 3373 C 317.199 1.04302 -4.24782 0
M  V30 3374 C 316.258 2.07709 -4.8347 0
M  V30 3375 O 315.284 1.65913 -5.44483 0
M  V30 3376 N 316.486 3.40485 -4.70159 0
M  V30 3377 H 319.251 -0.28495 -2.98342 0
M  V30 3378 H 316.812 -0.298163 -1.59131 0
M  V30 3379 H 318.804 2.21371 -3.38787 0
M  V30 3380 H 317.374 2.07945 -2.33404 0
M  V30 3381 H 316.594 0.180393 -3.93787 0
M  V30 3382 H 317.882 0.698798 -5.03978 0
M  V30 3383 H 317.28 3.77155 -4.21629 0
M  V30 3384 H 315.837 4.05156 -5.1058 0
M  V30 3385 N 319.27 1.56325 -0.20005 0
M  V30 3386 C 320.233 2.18084 0.705132 0
M  V30 3387 C 321.233 1.13666 1.1374 0
M  V30 3388 O 322.423 1.39023 1.04968 0
M  V30 3389 C 319.555 2.78689 1.96329 0
M  V30 3390 H 320.748 2.99435 0.167023 0
M  V30 3391 H 318.301 1.56221 0.0495725 0
M  V30 3392 H 319.036 2.0115 2.5438 0
M  V30 3393 H 318.821 3.55133 1.66202 0
M  V30 3394 H 320.311 3.26096 2.60866 0
M  V30 3395 N 320.748 -0.0735177 1.57428 0
M  V30 3396 C 321.996 -0.771472 1.86796 0
M  V30 3397 C 322.317 -1.78201 0.791804 0
M  V30 3398 O 321.587 -1.95074 -0.179718 0
M  V30 3399 H 320.167 -0.28791 0.689287 0
M  V30 3400 H 322.829 -0.0500161 1.94836 0
M  V30 3401 H 321.925 -1.28874 2.8425 0
M  V30 3402 N 322.226 -1.5378 -0.344866 0
M  V30 3403 C 323.451 -1.75211 -1.10977 0
M  V30 3404 C 323.876 -0.48936 -1.81623 0
M  V30 3405 O 323.234 0.557925 -1.72502 0
M  V30 3406 C 323.282 -2.93147 -2.09993 0
M  V30 3407 O 322.386 -2.63203 -3.17487 0
M  V30 3408 H 321.727 -0.581241 -0.321021 0
M  V30 3409 H 324.257 -2.00738 -0.395661 0
M  V30 3410 H 324.267 -3.19898 -2.53237 0
M  V30 3411 H 322.942 -3.84731 -1.5797 0
M  V30 3412 H 321.519 -2.47336 -2.79069 0
M  V30 3413 N 323.704 0.605807 -1.45491 0
M  V30 3414 C 324.929 1.39625 -1.53361 0
M  V30 3415 C 325.354 1.87351 -0.167645 0
M  V30 3416 O 324.712 1.60243 0.848051 0
M  V30 3417 C 324.76 2.57559 -2.5238 0
M  V30 3418 O 323.864 3.58248 -2.04285 0
M  V30 3419 H 323.205 0.416771 -0.516912 0
M  V30 3420 H 325.735 0.737103 -1.90861 0
M  V30 3421 H 325.745 3.0478 -2.71244 0
M  V30 3422 H 324.42 2.22171 -3.51586 0
M  V30 3423 H 322.997 3.17664 -1.95305 0
M  V30 3424 N 325.182 1.32811 0.848464 0
M  V30 3425 C 326.092 1.24278 1.98978 0
M  V30 3426 C 327.108 0.155176 1.73307 0
M  V30 3427 O 328.284 0.376999 1.9784 0
M  V30 3428 C 325.349 0.972444 3.32783 0
M  V30 3429 C 324.41 2.14911 3.71634 0
M  V30 3430 C 323.643 1.89157 4.99054 0
M  V30 3431 O 323.866 0.837165 5.64223 0
M  V30 3432 O 322.8 2.75433 5.35183 0
M  V30 3433 H 326.626 2.20238 2.09115 0
M  V30 3434 H 324.211 1.12762 0.980052 0
M  V30 3435 H 326.093 0.838432 4.12975 0
M  V30 3436 H 324.768 0.043051 3.23671 0
M  V30 3437 H 323.675 2.33862 2.91992 0
M  V30 3438 H 325.008 3.06151 3.85399 0
M  V30 3439 N 326.66 -1.06551 1.16123 0
M  V30 3440 C 327.888 -1.83005 0.965237 0
M  V30 3441 C 328.303 -1.82423 -0.486542 0
M  V30 3442 O 327.66 -1.24152 -1.33763 0
M  V30 3443 C 327.711 -3.29733 1.48183 0
M  V30 3444 O 327.432 -3.30416 2.87674 0
M  V30 3445 C 328.933 -4.22926 1.32848 0
M  V30 3446 H 326.153 -0.577118 0.342309 0
M  V30 3447 H 328.697 -1.3445 1.54089 0
M  V30 3448 H 326.852 -3.75609 0.948517 0
M  V30 3449 H 327.266 -4.22149 3.11272 0
M  V30 3450 H 328.74 -5.23916 1.73827 0
M  V30 3451 H 329.217 -4.38346 0.273692 0
M  V30 3452 H 329.823 -3.82894 1.85127 0
M  V30 3453 N 328.138 -0.959301 -1.25041 0
M  V30 3454 C 329.386 -0.615393 -1.92503 0
M  V30 3455 C 329.707 0.850969 -1.75452 0
M  V30 3456 O 328.977 1.60658 -1.12098 0
M  V30 3457 H 327.557 -0.224613 -0.712431 0
M  V30 3458 H 330.219 -1.21855 -1.5211 0
M  V30 3459 H 329.315 -0.848738 -3.00338 0
M  V30 3460 N 329.616 1.39756 -0.72842 0
M  V30 3461 C 331.032 1.5442 -0.403308 0
M  V30 3462 C 331.232 1.69694 1.08656 0
M  V30 3463 O 330.288 1.69373 1.87267 0
M  V30 3464 C 331.601 2.76555 -1.18058 0
M  V30 3465 C 333.149 2.90384 -1.16815 0
M  V30 3466 C 333.624 4.15449 -1.92785 0
M  V30 3467 N 335.115 4.22475 -1.89918 0
M  V30 3468 C 335.85 5.1818 -2.45514 0
M  V30 3469 N 335.346 6.19714 -3.09719 0
M  V30 3470 N 337.139 5.1035 -2.35584 0
M  V30 3471 H 329.29 1.28089 -1.69431 0
M  V30 3472 H 331.553 0.620327 -0.716867 0
M  V30 3473 H 331.259 2.7159 -2.23455 0
M  V30 3474 H 331.133 3.69033 -0.780662 0
M  V30 3475 H 333.52 2.94846 -0.12234 0
M  V30 3476 H 333.601 1.98988 -1.6074 0
M  V30 3477 H 333.245 4.11749 -2.97364 0
M  V30 3478 H 333.175 5.05877 -1.46272 0
M  V30 3479 H 335.666 3.49743 -1.43138 0
M  V30 3480 H 335.979 6.8919 -3.49625 0
M  V30 3481 H 334.324 6.20121 -3.13807 0
M  V30 3482 H 337.515 4.2996 -1.85072 0
M  V30 3483 H 337.688 5.84761 -2.79211 0
M  V30 3484 N 331.094 0.475555 1.50254 0
M  V30 3485 C 332.026 -0.352649 2.26471 0
M  V30 3486 C 333.039 -0.953165 1.3198 0
M  V30 3487 O 334.228 -0.840815 1.57457 0
M  V30 3488 C 331.328 -1.50902 3.0345 0
M  V30 3489 C 330.501 -1.02047 4.25329 0
M  V30 3490 C 329.56 -2.05142 4.84565 0
M  V30 3491 O 328.586 -1.63023 5.45355 0
M  V30 3492 N 329.788 -3.37987 4.71959 0
M  V30 3493 H 332.553 0.300767 2.98187 0
M  V30 3494 H 330.114 0.306598 1.5897 0
M  V30 3495 H 332.106 -2.19572 3.39956 0
M  V30 3496 H 330.676 -2.06705 2.34504 0
M  V30 3497 H 329.896 -0.159507 3.93877 0
M  V30 3498 H 331.184 -0.672061 5.04342 0
M  V30 3499 H 330.582 -3.74913 4.23623 0
M  V30 3500 H 329.139 -4.02443 5.12721 0
M  V30 3501 N 332.573 -1.56217 0.208337 0
M  V30 3502 C 333.82 -1.97949 -0.42692 0
M  V30 3503 C 334.148 -1.09562 -1.60706 0
M  V30 3504 O 333.403 -0.137616 -1.95216 0
M  V30 3505 C 333.702 -3.45441 -0.916797 0
M  V30 3506 C 333.368 -4.50646 0.151391 0
M  V30 3507 C 332.03 -4.79139 0.444867 0
M  V30 3508 C 334.382 -5.13811 0.874492 0
M  V30 3509 C 331.71 -5.68084 1.46619 0
M  V30 3510 C 334.062 -6.03861 1.88506 0
M  V30 3511 C 332.726 -6.30704 2.18559 0
M  V30 3512 H 331.996 -0.724345 -0.156221 0
M  V30 3513 H 334.643 -1.89006 0.308084 0
M  V30 3514 H 332.948 -3.51521 -1.73032 0
M  V30 3515 H 334.645 -3.75094 -1.41794 0
M  V30 3516 H 331.235 -4.28511 -0.0875068 0
M  V30 3517 H 335.419 -4.91879 0.660996 0
M  V30 3518 H 330.675 -5.87151 1.7048 0
M  V30 3519 H 334.849 -6.51861 2.45051 0
M  V30 3520 H 332.476 -6.99424 2.97843 0
M  V30 3521 N 334.051 0.0651679 -1.57465 0
M  V30 3522 C 335.014 1.06117 -2.03155 0
M  V30 3523 C 336.014 1.31204 -0.929632 0
M  V30 3524 O 337.204 1.26813 -1.19432 0
M  V30 3525 C 334.336 2.4032 -2.41783 0
M  V30 3526 H 335.529 0.667231 -2.92383 0
M  V30 3527 H 333.082 0.311075 -1.53173 0
M  V30 3528 H 333.817 2.84532 -1.55601 0
M  V30 3529 H 333.602 2.23451 -3.22199 0
M  V30 3530 H 335.092 3.11898 -2.77685 0
M  V30 3531 N 335.529 1.53961 0.336706 0
M  V30 3532 C 336.492 1.81724 1.39675 0
M  V30 3533 C 337.492 0.688532 1.45313 0
M  V30 3534 O 338.682 0.956829 1.45569 0
M  V30 3535 C 335.814 1.96543 2.78538 0
M  V30 3536 H 337.007 2.76424 1.16318 0
M  V30 3537 H 334.56 1.45478 0.571474 0
M  V30 3538 H 335.295 1.0401 3.07168 0
M  V30 3539 H 335.08 2.78665 2.75841 0
M  V30 3540 H 336.57 2.19516 3.5525 0
M  V30 3541 N 337.007 -0.598083 1.45811 0
M  V30 3542 C 337.954 -1.7082 1.55207 0
M  V30 3543 C 338.924 -1.61278 0.39732 0
M  V30 3544 O 340.109 -1.80717 0.612038 0
M  V30 3545 C 337.249 -3.09144 1.53376 0
M  V30 3546 C 336.362 -3.29423 2.79472 0
M  V30 3547 C 335.497 -4.57907 2.69248 0
M  V30 3548 C 334.536 -4.71476 3.90354 0
M  V30 3549 N 333.673 -5.9127 3.78608 0
M  V30 3550 H 338.513 -1.62125 2.50039 0
M  V30 3551 H 336.05 -0.790389 1.24062 0
M  V30 3552 H 338.008 -3.89186 1.50301 0
M  V30 3553 H 336.638 -3.16773 0.620876 0
M  V30 3554 H 335.69 -2.43091 2.92594 0
M  V30 3555 H 337.002 -3.3532 3.69272 0
M  V30 3556 H 336.156 -5.46157 2.64192 0
M  V30 3557 H 334.895 -4.54423 1.77063 0
M  V30 3558 H 333.9 -3.81648 3.95759 0
M  V30 3559 H 335.125 -4.76751 4.83617 0
M  V30 3560 H 333.071 -5.88813 2.89199 0
M  V30 3561 H 332.988 -5.98369 4.6205 0
M  V30 3562 H 334.256 -6.81992 3.77501 0
M  V30 3563 N 338.485 -1.33259 -0.841409 0
M  V30 3564 C 339.433 -1.23279 -1.97244 0
M  V30 3565 C 340.427 -0.134706 -1.68864 0
M  V30 3566 O 341.633 -0.298501 -1.77508 0
M  V30 3567 H 338.008 -0.382497 -0.647457 0
M  V30 3568 H 339.979 -2.18906 -2.02787 0
M  V30 3569 C 338.728 -0.986268 -3.33419 0
M  V30 3570 H 338.051 -1.82347 -3.55794 0
M  V30 3571 H 339.491 -0.956728 -4.13065 0
M  V30 3572 C 337.95 0.310842 -3.35463 0
M  V30 3573 O 338.48 1.31838 -3.79449 0
M  V30 3574 N 336.686 0.337485 -2.88634 0
M  V30 3575 H 336.233 -0.482967 -2.53032 0
M  V30 3576 H 336.191 1.20518 -2.90384 0
M  V30 3577 N 339.963 1.05934 -1.16686 0
M  V30 3578 C 340.926 2.11669 -0.879144 0
M  V30 3579 C 341.926 1.60294 0.127445 0
M  V30 3580 O 343.116 1.7389 -0.103865 0
M  V30 3581 C 340.248 3.39438 -0.315425 0
M  V30 3582 H 341.441 2.38626 -1.81653 0
M  V30 3583 H 338.994 1.22058 -0.976299 0
M  V30 3584 H 339.729 3.18132 0.629468 0
M  V30 3585 H 339.514 3.78034 -1.04079 0
M  V30 3586 H 341.004 4.17391 -0.132189 0
M  V30 3587 N 341.441 0.965919 1.2453 0
M  V30 3588 C 342.718 0.543777 1.87889 0
M  V30 3589 C 343.098 -0.97909 1.87021 0
M  V30 3590 O 342.446 -1.84969 1.3416 0
M  V30 3591 C 342.656 1.13327 3.30088 0
M  V30 3592 C 344.004 1.21707 4.06783 0
M  V30 3593 O 345.028 1.08566 3.39252 0
M  V30 3594 O 343.887 1.42456 5.27606 0
M  V30 3595 H 340.981 0.181054 0.806938 0
M  V30 3596 H 343.527 1.06007 1.32516 0
M  V30 3597 H 342.299 2.17612 3.25209 0
M  V30 3598 H 341.922 0.600911 3.93033 0
M  V30 3599 N 342.919 -1.39368 0.735821 0
M  V30 3600 C 343.882 -2.2896 0.104874 0
M  V30 3601 C 344.882 -1.46347 -0.666274 0
M  V30 3602 O 346.072 -1.67014 -0.49517 0
M  V30 3603 C 343.204 -3.29857 -0.860656 0
M  V30 3604 H 344.397 -2.86259 0.894205 0
M  V30 3605 H 341.95 -1.48029 0.501704 0
M  V30 3606 H 342.685 -2.77615 -1.67631 0
M  V30 3607 H 342.47 -3.9087 -0.310327 0
M  V30 3608 H 343.96 -3.96893 -1.29867 0
M  V30 3609 N 344.397 -0.483516 -1.5 0
M  V30 3610 C 345.646 0.0689102 -2.01582 0
M  V30 3611 C 345.959 1.39655 -1.36952 0
M  V30 3612 O 347.165 2.03465 -1.79762 0
M  V30 3613 C 345.621 0.173302 -3.59483 0
M  V30 3614 C 345.229 -1.14665 -4.33077 0
M  V30 3615 C 346.973 0.677024 -4.19066 0
M  V30 3616 C 344.88 -1.00537 -5.82792 0
M  V30 3617 H 343.81 0.0295277 -0.753422 0
M  V30 3618 H 346.461 -0.620295 -1.72698 0
M  V30 3619 H 344.843 0.926569 -3.85007 0
M  V30 3620 H 346.017 -1.91184 -4.19268 0
M  V30 3621 H 344.332 -1.58244 -3.85159 0
M  V30 3622 H 346.929 0.799952 -5.28682 0
M  V30 3623 H 347.272 1.67151 -3.81269 0
M  V30 3624 H 347.805 -0.0192083 -3.97795 0
M  V30 3625 H 344.544 -1.9736 -6.25083 0
M  V30 3626 H 344.064 -0.280776 -5.99142 0
M  V30 3627 H 345.743 -0.677 -6.43448 0
M  V30 3628 N 345.875 1.56104 -0.216619 0
M  V30 3629 C 347.122 1.98172 0.416416 0
M  V30 3630 C 347.45 1.10413 1.60122 0
M  V30 3631 O 346.705 0.147967 1.9514 0
M  V30 3632 C 347.004 3.45923 0.898464 0
M  V30 3633 C 346.67 4.50559 -0.175288 0
M  V30 3634 C 345.332 4.78897 -0.470271 0
M  V30 3635 C 347.684 5.1334 -0.901728 0
M  V30 3636 C 345.012 5.67299 -1.4963 0
M  V30 3637 C 347.364 6.02853 -1.91705 0
M  V30 3638 C 346.028 6.29537 -2.21901 0
M  V30 3639 H 345.298 0.725164 0.152377 0
M  V30 3640 H 347.945 1.88839 -0.318103 0
M  V30 3641 H 346.25 3.52434 1.71165 0
M  V30 3642 H 347.947 3.75841 1.39803 0
M  V30 3643 H 344.537 4.28551 0.0647806 0
M  V30 3644 H 348.721 4.91521 -0.687072 0
M  V30 3645 H 343.977 5.86239 -1.73592 0
M  V30 3646 H 348.151 6.50552 -2.48505 0
M  V30 3647 H 345.778 6.97835 -3.01548 0
M  V30 3648 N 347.353 -0.0568162 1.57498 0
M  V30 3649 C 348.581 -0.765626 1.92213 0
M  V30 3650 C 348.996 -1.70353 0.813961 0
M  V30 3651 O 348.353 -1.81268 -0.211701 0
M  V30 3652 C 348.404 -1.5465 3.2675 0
M  V30 3653 O 348.125 -0.646278 4.33307 0
M  V30 3654 C 349.626 -2.35497 3.75574 0
M  V30 3655 H 346.846 -0.216835 0.634999 0
M  V30 3656 H 349.39 -0.0226146 2.04487 0
M  V30 3657 H 347.545 -2.24165 3.15957 0
M  V30 3658 H 347.959 -1.19093 5.108 0
M  V30 3659 H 349.433 -2.85722 4.72299 0
M  V30 3660 H 349.91 -3.15692 3.05344 0
M  V30 3661 H 350.516 -1.7111 3.8936 0
M  V30 3662 N 348.832 -1.54138 -0.328536 0
M  V30 3663 C 349.782 -1.79557 -1.4051 0
M  V30 3664 C 350.766 -0.651373 -1.47126 0
M  V30 3665 O 351.958 -0.911226 -1.51742 0
M  V30 3666 C 349.087 -2.02196 -2.77438 0
M  V30 3667 C 348.173 -3.22724 -2.75155 0
M  V30 3668 N 348.564 -4.43881 -2.42494 0
M  V30 3669 C 346.862 -3.24196 -3.06289 0
M  V30 3670 C 347.563 -5.25797 -2.48822 0
M  V30 3671 N 346.539 -4.62862 -2.8506 0
M  V30 3672 H 350.341 -2.70814 -1.1418 0
M  V30 3673 H 347.855 -1.53265 -0.536991 0
M  V30 3674 H 349.852 -2.18546 -3.55026 0
M  V30 3675 H 348.512 -1.12191 -3.04702 0
M  V30 3676 H 349.523 -4.70969 -2.15428 0
M  V30 3677 H 346.2 -2.44208 -3.38627 0
M  V30 3678 H 347.59 -6.32535 -2.26603 0
M  V30 3679 N 350.31 0.590341 -1.46126 0
M  V30 3680 C 351.535 1.37991 -1.54833 0
M  V30 3681 C 351.96 1.87163 -0.187506 0
M  V30 3682 O 351.318 1.61133 0.831008 0
M  V30 3683 C 351.366 2.54867 -2.55098 0
M  V30 3684 O 350.47 3.56061 -2.08073 0
M  V30 3685 H 349.811 0.411265 -0.521303 0
M  V30 3686 H 352.341 0.716819 -1.91632 0
M  V30 3687 H 352.351 3.01886 -2.74461 0
M  V30 3688 H 351.026 2.18429 -3.53923 0
M  V30 3689 H 349.603 3.15574 -1.98664 0
M  V30 3690 N 351.788 1.33704 0.83433 0
M  V30 3691 C 352.736 1.24323 1.96587 0
M  V30 3692 C 353.73 0.143659 1.6879 0
M  V30 3693 O 354.936 0.30791 1.77347 0
M  V30 3694 H 351.311 0.385925 0.645419 0
M  V30 3695 H 353.282 2.19978 2.01624 0
M  V30 3696 C 352.031 1.00394 3.32891 0
M  V30 3697 H 351.354 1.84231 3.54822 0
M  V30 3698 H 352.794 0.97862 4.12552 0
M  V30 3699 C 351.253 -0.293047 3.35623 0
M  V30 3700 O 351.783 -1.29823 3.80143 0
M  V30 3701 N 349.989 -0.322174 2.88809 0
M  V30 3702 H 349.536 0.496379 2.52772 0
M  V30 3703 H 349.494 -1.18977 2.91019 0
M  V30 3704 N 353.266 -1.05314 1.17247 0
M  V30 3705 C 354.491 -1.82509 0.985148 0
M  V30 3706 C 354.916 -1.82343 -0.461788 0
M  V30 3707 O 354.274 -1.23151 -1.33055 0
M  V30 3708 C 354.322 -3.26566 1.52929 0
M  V30 3709 O 353.426 -4.05666 0.742225 0
M  V30 3710 H 352.767 -0.564347 0.349869 0
M  V30 3711 H 355.297 -1.32718 1.55715 0
M  V30 3712 H 355.307 -3.77369 1.55103 0
M  V30 3713 H 353.982 -3.26001 2.58256 0
M  V30 3714 H 352.559 -3.64397 0.791794 0
M  V30 3715 N 354.744 -0.972509 -1.24016 0
M  V30 3716 C 355.674 -0.525548 -2.27509 0
M  V30 3717 C 356.655 0.437262 -1.64384 0
M  V30 3718 O 357.84 0.332343 -1.91335 0
M  V30 3719 C 354.97 0.180448 -3.46831 0
M  V30 3720 C 353.924 -0.698859 -4.22256 0
M  V30 3721 C 353.25 0.138903 -5.3452 0
M  V30 3722 C 354.55 -1.98582 -4.83076 0
M  V30 3723 H 356.244 -1.39058 -2.65148 0
M  V30 3724 H 353.79 -0.67009 -1.27459 0
M  V30 3725 H 355.743 0.504387 -4.18371 0
M  V30 3726 H 354.467 1.07987 -3.08231 0
M  V30 3727 H 353.126 -1.00614 -3.52523 0
M  V30 3728 H 352.774 1.03862 -4.9216 0
M  V30 3729 H 352.474 -0.446259 -5.85903 0
M  V30 3730 H 353.998 0.457404 -6.08884 0
M  V30 3731 H 355.412 -1.72715 -5.46665 0
M  V30 3732 H 353.809 -2.5181 -5.44713 0
M  V30 3733 H 354.879 -2.67769 -4.04262 0
M  V30 3734 N 356.222 1.38976 -0.743202 0
M  V30 3735 C 357.132 2.3434 -0.110399 0
M  V30 3736 C 358.148 1.58741 0.712559 0
M  V30 3737 O 359.324 1.9099 0.639125 0
M  V30 3738 C 356.389 3.37812 0.780012 0
M  V30 3739 C 355.45 4.29263 -0.0561319 0
M  V30 3740 C 354.683 5.27793 0.791875 0
M  V30 3741 O 354.906 5.33043 2.03031 0
M  V30 3742 O 353.84 6.01512 0.216183 0
M  V30 3743 H 357.666 2.90129 -0.897714 0
M  V30 3744 H 355.251 1.40643 -0.503966 0
M  V30 3745 H 357.133 4.01194 1.28923 0
M  V30 3746 H 355.808 2.84395 1.546 0
M  V30 3747 H 354.715 3.69076 -0.611056 0
M  V30 3748 H 356.048 4.85907 -0.784531 0
M  V30 3749 N 357.7 0.491464 1.49741 0
M  V30 3750 C 358.61 -0.296835 2.32715 0
M  V30 3751 C 359.626 -0.976536 1.44013 0
M  V30 3752 O 360.802 -0.960023 1.77047 0
M  V30 3753 C 357.867 -1.35288 3.19215 0
M  V30 3754 C 356.928 -0.687632 4.23757 0
M  V30 3755 C 356.161 -1.69336 5.06123 0
M  V30 3756 O 356.384 -2.92219 4.89861 0
M  V30 3757 O 355.318 -1.25394 5.88693 0
M  V30 3758 H 359.144 0.382048 3.01287 0
M  V30 3759 H 356.729 0.252953 1.47243 0
M  V30 3760 H 358.611 -1.96411 3.72828 0
M  V30 3761 H 357.286 -2.01487 2.53347 0
M  V30 3762 H 356.193 -0.0369159 3.74082 0
M  V30 3763 H 357.526 -0.0682566 4.92153 0
M  V30 3764 N 359.178 -1.55987 0.224894 0
M  V30 3765 C 360.406 -2.02784 -0.410665 0
M  V30 3766 C 360.821 -1.10464 -1.53112 0
M  V30 3767 O 360.178 -0.114871 -1.82138 0
M  V30 3768 C 360.229 -3.49087 -0.939165 0
M  V30 3769 O 359.95 -4.37887 0.136614 0
M  V30 3770 C 361.451 -4.11543 -1.64763 0
M  V30 3771 H 358.671 -0.663484 -0.100148 0
M  V30 3772 H 361.215 -2.01614 0.342326 0
M  V30 3773 H 359.37 -3.50861 -1.64242 0
M  V30 3774 H 359.784 -5.23849 -0.261155 0
M  V30 3775 H 361.258 -5.15673 -1.96939 0
M  V30 3776 H 361.735 -3.56736 -2.56195 0
M  V30 3777 H 362.341 -4.13629 -0.989503 0
M  V30 3778 N 360.656 0.0484629 -1.57525 0
M  V30 3779 C 361.603 1.05504 -2.05275 0
M  V30 3780 C 362.573 1.37084 -0.937927 0
M  V30 3781 O 363.758 1.47754 -1.2072 0
M  V30 3782 C 360.898 2.35676 -2.52093 0
M  V30 3783 C 360.011 2.10423 -3.77288 0
M  V30 3784 C 359.146 3.34327 -4.12794 0
M  V30 3785 C 358.185 3.04542 -5.30962 0
M  V30 3786 N 357.322 4.20841 -5.61994 0
M  V30 3787 H 362.162 0.640885 -2.91027 0
M  V30 3788 H 359.699 0.304854 -1.43906 0
M  V30 3789 H 361.657 3.11709 -2.77297 0
M  V30 3790 H 360.287 2.7485 -1.69285 0
M  V30 3791 H 359.339 1.24976 -3.59284 0
M  V30 3792 H 360.651 1.84438 -4.63448 0
M  V30 3793 H 359.805 4.1874 -4.39024 0
M  V30 3794 H 358.544 3.63408 -3.25247 0
M  V30 3795 H 357.549 2.18528 -5.04505 0
M  V30 3796 H 358.774 2.76758 -6.20146 0
M  V30 3797 H 356.72 4.4991 -4.77406 0
M  V30 3798 H 356.637 3.98212 -6.42622 0
M  V30 3799 H 357.905 5.06184 -5.92789 0
M  V30 3800 N 362.134 1.5431 0.320358 0
M  V30 3801 C 363.097 1.83195 1.3774 0
M  V30 3802 C 364.097 0.703906 1.44575 0
M  V30 3803 O 365.287 0.972214 1.44546 0
M  V30 3804 C 362.419 1.99487 2.76438 0
M  V30 3805 H 363.612 2.77642 1.1338 0
M  V30 3806 H 361.165 1.46076 0.556012 0
M  V30 3807 H 361.9 1.07262 3.06048 0
M  V30 3808 H 361.685 2.81575 2.7287 0
M  V30 3809 H 363.175 2.23271 3.52902 0
M  V30 3810 N 363.613 -0.582584 1.46437 0
M  V30 3811 C 364.86 -1.34079 1.51753 0
M  V30 3812 C 365.188 -1.93762 0.169299 0
M  V30 3813 O 364.443 -1.76989 -0.835062 0
M  V30 3814 C 364.742 -2.48964 2.56421 0
M  V30 3815 C 364.408 -2.07273 4.00436 0
M  V30 3816 C 363.07 -1.95618 4.39644 0
M  V30 3817 C 365.422 -1.75111 4.90903 0
M  V30 3818 C 362.75 -1.5006 5.67185 0
M  V30 3819 C 365.102 -1.31032 6.18881 0
M  V30 3820 C 363.766 -1.17954 6.56996 0
M  V30 3821 H 363.036 -0.49063 0.555304 0
M  V30 3822 H 365.683 -0.656007 1.79913 0
M  V30 3823 H 363.988 -3.22889 2.21923 0
M  V30 3824 H 365.685 -3.07178 2.57765 0
M  V30 3825 H 362.275 -2.17279 3.69443 0
M  V30 3826 H 366.459 -1.83001 4.61329 0
M  V30 3827 H 361.715 -1.38577 5.95488 0
M  V30 3828 H 365.889 -1.052 6.88408 0
M  V30 3829 H 363.516 -0.824279 7.55718 0
M  V30 3830 N 365.091 -1.34144 -0.827227 0
M  V30 3831 C 366.321 -1.29138 -1.61267 0
M  V30 3832 C 366.729 0.137597 -1.88699 0
M  V30 3833 O 366.072 1.09379 -1.47587 0
M  V30 3834 C 366.134 -2.0097 -2.9808 0
M  V30 3835 C 365.798 -3.50242 -2.93563 0
M  V30 3836 C 366.795 -4.4523 -2.68452 0
M  V30 3837 C 364.48 -3.92592 -3.13331 0
M  V30 3838 C 366.474 -5.80542 -2.63154 0
M  V30 3839 C 364.161 -5.28005 -3.07658 0
M  V30 3840 C 365.159 -6.21792 -2.82602 0
M  V30 3841 O 364.847 -7.54723 -2.76853 0
M  V30 3842 H 364.579 -0.445851 -0.508127 0
M  V30 3843 H 367.133 -1.77263 -1.03763 0
M  V30 3844 H 365.363 -1.47451 -3.57484 0
M  V30 3845 H 367.052 -1.89309 -3.5905 0
M  V30 3846 H 367.818 -4.13832 -2.52919 0
M  V30 3847 H 363.697 -3.19994 -3.31851 0
M  V30 3848 H 367.241 -6.53717 -2.43516 0
M  V30 3849 H 363.138 -5.59023 -3.22743 0
M  V30 3850 H 363.906 -7.64409 -2.92611 0
M  V30 3851 N 366.569 1.04691 -1.17803 0
M  V30 3852 C 367.532 2.10724 -0.901545 0
M  V30 3853 C 368.532 1.6042 0.110437 0
M  V30 3854 O 369.722 1.7377 -0.122303 0
M  V30 3855 C 366.854 3.39084 -0.351409 0
M  V30 3856 H 368.047 2.36686 -1.84174 0
M  V30 3857 H 365.6 1.21015 -0.98919 0
M  V30 3858 H 366.335 3.18782 0.59569 0
M  V30 3859 H 366.12 3.76909 -1.08083 0
M  V30 3860 H 367.61 4.17227 -0.176451 0
M  V30 3861 N 368.047 0.979072 1.23499 0
M  V30 3862 C 369.324 0.563674 1.87302 0
M  V30 3863 C 369.704 -0.959199 1.88049 0
M  V30 3864 O 369.052 -1.83535 1.36114 0
M  V30 3865 C 369.262 1.16822 3.28867 0
M  V30 3866 C 370.61 1.26014 4.0547 0
M  V30 3867 O 371.634 1.12158 3.38082 0
M  V30 3868 O 370.493 1.48044 5.26066 0
M  V30 3869 H 367.587 0.189602 0.804972 0
M  V30 3870 H 370.133 1.07407 1.31384 0
M  V30 3871 H 368.905 2.21049 3.22883 0
M  V30 3872 H 368.528 0.642564 3.92373 0
M  V30 3873 N 369.525 -1.3858 0.750561 0
M  V30 3874 C 370.771 -2.00481 0.305825 0
M  V30 3875 C 371.104 -1.5944 -1.10872 0
M  V30 3876 O 370.379 -0.83052 -1.75877 0
M  V30 3877 C 370.662 -3.5758 0.425287 0
M  V30 3878 C 370.515 -4.08594 1.88072 0
M  V30 3879 C 371.834 -4.39719 -0.183122 0
M  V30 3880 H 368.953 -0.728348 0.112598 0
M  V30 3881 H 371.595 -1.64566 0.949638 0
M  V30 3882 H 369.745 -3.88306 -0.122828 0
M  V30 3883 H 371.417 -3.88523 2.48691 0
M  V30 3884 H 369.66 -3.61574 2.39681 0
M  V30 3885 H 370.331 -5.177 1.91548 0
M  V30 3886 H 372.807 -4.15128 0.284303 0
M  V30 3887 H 371.683 -5.48856 -0.0692757 0
M  V30 3888 H 371.944 -4.23434 -1.27106 0
M  V30 3889 N 371.003 -0.499398 -1.49478 0
M  V30 3890 C 371.95 0.279881 -2.29097 0
M  V30 3891 C 372.92 0.961805 -1.3542 0
M  V30 3892 O 374.105 0.968777 -1.64376 0
M  V30 3893 C 371.245 1.33932 -3.18051 0
M  V30 3894 C 370.358 0.669333 -4.26783 0
M  V30 3895 C 369.493 1.70907 -5.02955 0
M  V30 3896 C 368.532 1.02087 -6.03527 0
M  V30 3897 N 367.669 2.00474 -6.7287 0
M  V30 3898 H 372.509 -0.405317 -2.95231 0
M  V30 3899 H 370.046 -0.211726 -1.45568 0
M  V30 3900 H 372.004 1.96553 -3.67998 0
M  V30 3901 H 370.634 1.9933 -2.53904 0
M  V30 3902 H 369.686 -0.0701234 -3.80335 0
M  V30 3903 H 370.998 0.127503 -4.98637 0
M  V30 3904 H 370.152 2.41037 -5.56764 0
M  V30 3905 H 368.891 2.28476 -4.30871 0
M  V30 3906 H 367.896 0.305338 -5.48951 0
M  V30 3907 H 369.121 0.451708 -6.77596 0
M  V30 3908 H 367.067 2.57007 -6.03559 0
M  V30 3909 H 366.984 1.51353 -7.40694 0
M  V30 3910 H 368.252 2.69897 -7.31284 0
M  V30 3911 N 372.481 1.55866 -0.233164 0
M  V30 3912 C 373.706 2.03449 0.402906 0
M  V30 3913 C 374.131 1.11166 1.51736 0
M  V30 3914 O 373.489 0.101996 1.81013 0
M  V30 3915 C 373.537 3.49165 0.9009 0
M  V30 3916 O 372.641 3.60019 2.01147 0
M  V30 3917 H 371.982 0.657913 0.0897025 0
M  V30 3918 H 374.512 2.01493 -0.355201 0
M  V30 3919 H 374.522 3.89716 1.2077 0
M  V30 3920 H 373.197 4.15813 0.0852889 0
M  V30 3921 H 371.774 3.3136 1.71042 0
M  V30 3922 N 373.959 -0.0401083 1.57549 0
M  V30 3923 C 375.375 -0.395556 1.54621 0
M  V30 3924 C 375.575 -1.77281 0.957799 0
M  V30 3925 O 374.631 -2.45888 0.574031 0
M  V30 3926 C 375.944 -0.307535 2.99123 0
M  V30 3927 C 377.492 -0.385425 3.10618 0
M  V30 3928 C 377.967 -0.326973 4.56831 0
M  V30 3929 N 379.458 -0.386102 4.61588 0
M  V30 3930 C 380.193 -0.363591 5.72246 0
M  V30 3931 N 379.689 -0.29402 6.92176 0
M  V30 3932 N 381.482 -0.412503 5.60584 0
M  V30 3933 H 373.633 0.861325 1.94152 0
M  V30 3934 H 375.896 0.326445 0.890021 0
M  V30 3935 H 375.602 0.638461 3.45856 0
M  V30 3936 H 375.476 -1.10552 3.60636 0
M  V30 3937 H 377.863 -1.32185 2.63839 0
M  V30 3938 H 377.944 0.44171 2.51957 0
M  V30 3939 H 377.588 0.605738 5.04275 0
M  V30 3940 H 377.518 -1.17207 5.13391 0
M  V30 3941 H 380.009 -0.442832 3.75296 0
M  V30 3942 H 380.322 -0.28164 7.72287 0
M  V30 3943 H 378.667 -0.260232 6.94513 0
M  V30 3944 H 381.858 -0.464769 4.65787 0
M  V30 3945 H 382.031 -0.391492 6.46816 0
M  V30 3946 N 375.437 -1.54477 -0.31217 0
M  V30 3947 C 376.4 -1.83923 -1.36766 0
M  V30 3948 C 377.4 -0.711563 -1.44199 0
M  V30 3949 O 378.59 -0.979866 -1.44029 0
M  V30 3950 C 375.722 -2.0095 -2.75376 0
M  V30 3951 H 376.915 -2.78239 -1.11906 0
M  V30 3952 H 374.468 -1.46369 -0.548257 0
M  V30 3953 H 375.203 -1.08883 -3.05475 0
M  V30 3954 H 374.988 -2.83018 -2.71373 0
M  V30 3955 H 376.478 -2.2514 -3.51713 0
M  V30 3956 N 376.915 0.57481 -1.46744 0
M  V30 3957 C 377.878 1.66533 -1.57478 0
M  V30 3958 C 378.878 1.54338 -0.451263 0
M  V30 3959 O 380.068 1.58814 -0.715813 0
M  V30 3960 C 377.2 3.05999 -1.50259 0
M  V30 3961 H 378.393 1.58372 -2.54673 0
M  V30 3962 H 375.946 0.793301 -1.34672 0
M  V30 3963 H 376.681 3.19709 -0.543725 0
M  V30 3964 H 376.466 3.16259 -2.31781 0
M  V30 3965 H 377.956 3.8537 -1.60872 0
M  V30 3966 N 378.394 1.34581 0.820102 0
M  V30 3967 C 379.671 1.17675 1.56244 0
M  V30 3968 C 380.051 -0.249541 2.0962 0
M  V30 3969 O 379.399 -1.25125 1.91196 0
M  V30 3970 C 379.609 2.23364 2.6816 0
M  V30 3971 C 380.957 2.58485 3.36854 0
M  V30 3972 O 381.981 2.22175 2.78418 0
M  V30 3973 O 380.84 3.20868 4.42386 0
M  V30 3974 H 377.934 0.456333 0.689702 0
M  V30 3975 H 380.48 1.46222 0.861231 0
M  V30 3976 H 379.252 3.19087 2.26493 0
M  V30 3977 H 378.875 1.96009 3.45928 0
M  V30 3978 N 379.872 -1.04064 1.18357 0
M  V30 3979 C 380.782 -2.15569 0.925596 0
M  V30 3980 C 381.798 -1.7365 -0.110295 0
M  V30 3981 O 382.974 -2.01273 0.0716218 0
M  V30 3982 C 380.039 -3.43704 0.454836 0
M  V30 3983 C 379.1 -4.00004 1.55869 0
M  V30 3984 C 378.333 -5.22023 1.1103 0
M  V30 3985 O 378.556 -5.70392 -0.0309756 0
M  V30 3986 O 377.49 -5.70856 1.90805 0
M  V30 3987 H 381.316 -2.40187 1.8586 0
M  V30 3988 H 378.901 -1.1402 0.965394 0
M  V30 3989 H 380.783 -4.20923 0.200382 0
M  V30 3990 H 379.458 -3.20559 -0.449876 0
M  V30 3991 H 378.365 -3.24172 1.86716 0
M  V30 3992 H 379.698 -4.2749 2.43953 0
M  V30 3993 N 381.35 -0.985608 -1.22978 0
M  V30 3994 C 382.598 -0.656087 -1.91154 0
M  V30 3995 C 382.919 0.813561 -1.77218 0
M  V30 3996 O 382.189 1.58244 -1.1548 0
M  V30 3997 H 380.769 -0.239674 -0.707506 0
M  V30 3998 H 383.431 -1.25054 -1.49491 0
M  V30 3999 H 382.527 -0.912253 -2.9847 0
M  V30 4000 N 382.828 1.3818 -0.7579 0
M  V30 4001 C 384.244 1.5353 -0.435972 0
M  V30 4002 C 384.444 1.71961 1.05032 0
M  V30 4003 O 383.5 1.73307 1.83633 0
M  V30 4004 C 384.813 2.73989 -1.23898 0
M  V30 4005 C 386.361 2.87841 -1.22949 0
M  V30 4006 C 386.836 4.11266 -2.01554 0
M  V30 4007 N 388.327 4.18352 -1.98837 0
M  V30 4008 C 389.062 5.12856 -2.5645 0
M  V30 4009 N 388.558 6.13005 -3.22794 0
M  V30 4010 N 390.351 5.05238 -2.46356 0
M  V30 4011 H 382.502 1.24467 -1.7211 0
M  V30 4012 H 384.765 0.604982 -0.729864 0
M  V30 4013 H 384.471 2.66789 -2.29165 0
M  V30 4014 H 384.345 3.67294 -0.858764 0
M  V30 4015 H 386.732 2.9452 -0.184854 0
M  V30 4016 H 386.813 1.95534 -1.64924 0
M  V30 4017 H 386.457 4.05349 -3.06031 0
M  V30 4018 H 386.387 5.02661 -1.5697 0
M  V30 4019 H 388.878 3.46628 -1.50524 0
M  V30 4020 H 389.191 6.81619 -3.64165 0
M  V30 4021 H 387.536 6.13325 -3.2689 0
M  V30 4022 H 390.727 4.25938 -1.9415 0
M  V30 4023 H 390.9 5.78707 -2.91552 0
M  V30 4024 N 384.306 0.507319 1.49211 0
M  V30 4025 C 385.583 -0.0982702 1.95353 0
M  V30 4026 C 385.963 -1.53516 1.449 0
M  V30 4027 O 385.311 -2.18594 0.66551 0
M  V30 4028 C 385.521 -0.00440283 3.49 0
M  V30 4029 C 386.869 -0.175147 4.24239 0
M  V30 4030 O 387.893 -0.0792891 3.56112 0
M  V30 4031 O 386.752 -0.37276 5.45227 0
M  V30 4032 H 383.846 -0.0918236 0.821887 0
M  V30 4033 H 386.392 0.570307 1.5983 0
M  V30 4034 H 385.164 0.997402 3.78375 0
M  V30 4035 H 384.787 -0.712845 3.91158 0
M  V30 4036 N 385.784 -1.5574 0.241426 0
M  V30 4037 C 387.195 -1.84842 -0.262755 0
M  V30 4038 C 387.546 -1.16317 -1.58003 0
M  V30 4039 O 386.671 -0.439653 -2.11887 0
M  V30 4040 C 387.266 -3.35332 -0.483523 0
M  V30 4041 C 385.825 -3.6468 -0.931977 0
M  V30 4042 C 384.972 -2.77299 -0.0061151 0
M  V30 4043 H 387.923 -1.51761 0.464129 0
M  V30 4044 H 387.944 -3.56615 -1.32688 0
M  V30 4045 H 387.456 -3.85178 0.47537 0
M  V30 4046 H 385.557 -3.20307 -1.90353 0
M  V30 4047 H 385.67 -4.72498 -0.792628 0
M  V30 4048 H 384.034 -2.49408 -0.516503 0
M  V30 4049 H 384.817 -3.2995 0.948052 0
M  V30 4050 N 387.262 0.0317525 -1.57568 0
M  V30 4051 C 388.487 0.738664 -1.938 0
M  V30 4052 C 388.912 1.68242 -0.841208 0
M  V30 4053 O 388.27 1.80157 0.203267 0
M  V30 4054 C 388.318 1.47417 -3.29091 0
M  V30 4055 O 387.422 2.5872 -3.2115 0
M  V30 4056 H 386.763 0.198856 -0.633524 0
M  V30 4057 H 389.293 -0.0119713 -2.04596 0
M  V30 4058 H 389.303 1.84468 -3.63917 0
M  V30 4059 H 387.978 0.781988 -4.08482 0
M  V30 4060 H 386.555 2.24231 -2.97951 0
M  V30 4061 N 388.74 1.54641 0.303973 0
M  V30 4062 C 389.965 1.78092 1.06292 0
M  V30 4063 C 390.39 0.537342 1.80262 0
M  V30 4064 O 389.748 -0.511993 1.7392 0
M  V30 4065 C 389.796 2.98612 2.02147 0
M  V30 4066 O 388.9 2.71528 3.10397 0
M  V30 4067 H 388.241 0.589548 0.305497 0
M  V30 4068 H 390.771 2.01716 0.3423 0
M  V30 4069 H 390.781 3.265 2.44667 0
M  V30 4070 H 389.456 3.88785 1.47714 0
M  V30 4071 H 388.033 2.54648 2.72413 0
M  V30 4072 N 390.218 -0.567019 1.47046 0
M  V30 4073 C 391.464 -1.32658 1.53394 0
M  V30 4074 C 391.797 -1.93254 0.19148 0
M  V30 4075 O 391.072 -1.77338 -0.798844 0
M  V30 4076 C 391.355 -2.44412 2.64452 0
M  V30 4077 C 391.208 -1.88749 4.08282 0
M  V30 4078 C 392.527 -3.46387 2.71485 0
M  V30 4079 H 389.646 -0.48098 0.558415 0
M  V30 4080 H 392.288 -0.635481 1.79058 0
M  V30 4081 H 390.438 -3.03363 2.427 0
M  V30 4082 H 392.11 -1.34134 4.41368 0
M  V30 4083 H 390.353 -1.19481 4.17021 0
M  V30 4084 H 391.024 -2.69491 4.81745 0
M  V30 4085 H 393.5 -2.9734 2.91081 0
M  V30 4086 H 392.376 -4.2202 3.50985 0
M  V30 4087 H 392.637 -4.04616 1.78153 0
M  V30 4088 N 391.696 -1.35014 -0.812953 0
M  V30 4089 C 393.112 -1.14914 -1.10757 0
M  V30 4090 C 393.312 0.0426818 -2.01455 0
M  V30 4091 O 392.368 0.715212 -2.42159 0
M  V30 4092 C 393.681 -2.44911 -1.74468 0
M  V30 4093 C 395.229 -2.5106 -1.86917 0
M  V30 4094 C 395.704 -3.81085 -2.54044 0
M  V30 4095 N 397.195 -3.82301 -2.61535 0
M  V30 4096 C 397.93 -4.79634 -3.14227 0
M  V30 4097 N 397.426 -5.87353 -3.67407 0
M  V30 4098 N 399.219 -4.67078 -3.12721 0
M  V30 4099 H 391.37 -2.1136 -0.20989 0
M  V30 4100 H 393.633 -0.935128 -0.155692 0
M  V30 4101 H 393.339 -3.32267 -1.15289 0
M  V30 4102 H 393.213 -2.58989 -2.74234 0
M  V30 4103 H 395.6 -1.64137 -2.45241 0
M  V30 4104 H 395.681 -2.40901 -0.860242 0
M  V30 4105 H 395.325 -4.68402 -1.96372 0
M  V30 4106 H 395.255 -3.88529 -3.55461 0
M  V30 4107 H 397.746 -3.04465 -2.23851 0
M  V30 4108 H 398.059 -6.57624 -4.05894 0
M  V30 4109 H 396.404 -5.91054 -3.65623 0
M  V30 4110 H 399.595 -3.82067 -2.70449 0
M  V30 4111 H 399.768 -5.43098 -3.53481 0
M  V30 4112 N 393.175 1.03435 -1.18907 0
M  V30 4113 C 394.424 1.76143 -0.982669 0
M  V30 4114 C 394.737 1.89416 0.487953 0
M  V30 4115 O 395.943 2.59041 0.813036 0
M  V30 4116 C 394.399 3.16722 -1.70924 0
M  V30 4117 C 394.007 3.11522 -3.21959 0
M  V30 4118 C 395.751 3.93764 -1.58588 0
M  V30 4119 C 393.658 4.46999 -3.87228 0
M  V30 4120 H 392.588 0.660292 -0.364047 0
M  V30 4121 H 395.239 1.158 -1.42347 0
M  V30 4122 H 393.621 3.775 -1.19623 0
M  V30 4123 H 394.795 2.60158 -3.80335 0
M  V30 4124 H 393.11 2.47978 -3.34508 0
M  V30 4125 H 395.707 4.93963 -2.04707 0
M  V30 4126 H 396.05 4.12794 -0.539142 0
M  V30 4127 H 396.583 3.39576 -2.07203 0
M  V30 4128 H 393.322 4.33174 -4.91976 0
M  V30 4129 H 392.842 4.98441 -3.33642 0
M  V30 4130 H 394.521 5.15898 -3.90459 0
M  V30 4131 N 394.653 0.992116 1.22453 0
M  V30 4132 C 395.9 0.667534 1.91181 0
M  V30 4133 C 396.228 -0.800317 1.77271 0
M  V30 4134 O 395.483 -1.59421 1.13505 0
M  V30 4135 C 395.782 1.01832 3.42586 0
M  V30 4136 C 395.448 2.47831 3.76684 0
M  V30 4137 C 394.11 2.87729 3.85701 0
M  V30 4138 C 396.462 3.42466 3.92895 0
M  V30 4139 C 393.79 4.21252 4.08367 0
M  V30 4140 C 396.142 4.75648 4.17064 0
M  V30 4141 C 394.806 5.15288 4.24305 0
M  V30 4142 H 394.076 0.244268 0.699581 0
M  V30 4143 H 396.723 1.24816 1.45235 0
M  V30 4144 H 395.028 0.355769 3.90181 0
M  V30 4145 H 396.725 0.745228 3.94014 0
M  V30 4146 H 393.315 2.15905 3.70247 0
M  V30 4147 H 397.499 3.12814 3.85307 0
M  V30 4148 H 392.755 4.51554 4.122 0
M  V30 4149 H 396.929 5.48924 4.2855 0
M  V30 4150 H 394.556 6.18769 4.41621 0
M  V30 4151 N 396.131 -1.37776 0.765217 0
M  V30 4152 C 397.542 -1.82521 0.392819 0
M  V30 4153 C 397.893 -1.63789 -1.08017 0
M  V30 4154 O 397.018 -1.14542 -1.83601 0
M  V30 4155 C 397.613 -3.31358 0.706214 0
M  V30 4156 C 396.172 -3.74406 0.386952 0
M  V30 4157 C 395.319 -2.60394 0.953422 0
M  V30 4158 H 398.27 -1.2634 0.960412 0
M  V30 4159 H 398.291 -3.80498 -0.0114706 0
M  V30 4160 H 397.803 -3.44959 1.77833 0
M  V30 4161 H 395.904 -3.66377 -0.678112 0
M  V30 4162 H 396.017 -4.70749 0.890636 0
M  V30 4163 H 394.381 -2.51878 0.378064 0
M  V30 4164 H 395.164 -2.76791 2.03081 0
M  V30 4165 N 397.609 -0.515225 -1.4894 0
M  V30 4166 C 398.857 0.0241671 -2.02086 0
M  V30 4167 C 399.178 1.3616 -1.3959 0
M  V30 4168 O 398.448 1.87841 -0.556121 0
M  V30 4169 H 397.028 0.0119203 -0.746905 0
M  V30 4170 H 399.69 -0.675702 -1.82812 0
M  V30 4171 H 398.786 0.143385 -3.1177 0
M  V30 4172 N 399.087 1.5561 -0.249682 0
M  V30 4173 C 400.336 1.98187 0.37479 0
M  V30 4174 C 400.649 1.14111 1.58865 0
M  V30 4175 O 401.855 1.46714 2.28445 0
M  V30 4176 C 400.311 3.52661 0.718192 0
M  V30 4177 C 399.919 4.45481 -0.474428 0
M  V30 4178 C 401.663 4.03888 1.3067 0
M  V30 4179 C 399.57 5.91303 -0.107026 0
M  V30 4180 H 398.5 0.740159 0.143808 0
M  V30 4181 H 401.151 1.80125 -0.350336 0
M  V30 4182 H 399.533 3.66429 1.50152 0
M  V30 4183 H 400.707 4.43473 -1.25172 0
M  V30 4184 H 399.022 4.04751 -0.978052 0
M  V30 4185 H 401.619 5.10358 1.59496 0
M  V30 4186 H 401.962 3.51401 2.23211 0
M  V30 4187 H 402.495 3.93457 0.586211 0
M  V30 4188 H 399.234 6.47833 -0.999642 0
M  V30 4189 H 398.754 5.9644 0.634013 0
M  V30 4190 H 400.433 6.46258 0.309807 0
M  V30 4191 N 400.565 -0.0233959 1.57583 0
M  V30 4192 C 401.79 -0.728376 1.94189 0
M  V30 4193 C 402.215 -1.67793 0.850119 0
M  V30 4194 O 401.573 -1.80262 -0.19371 0
M  V30 4195 C 401.621 -1.45669 3.29868 0
M  V30 4196 O 400.725 -2.57013 3.22518 0
M  V30 4197 H 400.066 -0.195493 0.63457 0
M  V30 4198 H 402.596 0.0228214 2.04587 0
M  V30 4199 H 402.606 -1.82535 3.6489 0
M  V30 4200 H 401.281 -0.760314 4.08891 0
M  V30 4201 H 399.858 -2.22648 2.99136 0
M  V30 4202 N 402.043 -1.548 -0.295768 0
M  V30 4203 C 403.454 -1.65274 -0.868411 0
M  V30 4204 C 403.805 -0.56481 -1.87894 0
M  V30 4205 O 402.93 0.29767 -2.14343 0
M  V30 4206 C 403.525 -2.99603 -1.58188 0
M  V30 4207 C 402.084 -3.12181 -2.10286 0
M  V30 4208 C 401.231 -2.6098 -0.93727 0
M  V30 4209 H 404.182 -1.58534 -0.0726422 0
M  V30 4210 H 404.203 -2.91319 -2.44772 0
M  V30 4211 H 403.715 -3.78764 -0.846151 0
M  V30 4212 H 401.816 -2.3775 -2.8689 0
M  V30 4213 H 401.929 -4.18415 -2.33379 0
M  V30 4214 H 400.293 -2.17564 -1.32431 0
M  V30 4215 H 401.076 -3.42623 -0.215414 0
M  V30 4216 N 403.521 0.559213 -1.47345 0
M  V30 4217 C 404.77 1.31281 -1.53128 0
M  V30 4218 C 405.083 1.94602 -0.197344 0
M  V30 4219 O 406.289 2.71173 -0.133154 0
M  V30 4220 C 404.745 2.38051 -2.69925 0
M  V30 4221 C 404.353 1.8093 -4.0984 0
M  V30 4222 C 406.097 3.14604 -2.84999 0
M  V30 4223 C 404.004 2.85468 -5.1794 0
M  V30 4224 H 402.934 0.493614 -0.569966 0
M  V30 4225 H 405.585 0.594155 -1.73615 0
M  V30 4226 H 403.967 3.12822 -2.42814 0
M  V30 4227 H 405.141 1.12544 -4.46845 0
M  V30 4228 H 403.456 1.16967 -3.99634 0
M  V30 4229 H 406.053 3.92666 -3.62929 0
M  V30 4230 H 406.396 3.68665 -1.93369 0
M  V30 4231 H 406.929 2.46945 -3.1187 0
M  V30 4232 H 403.668 2.36264 -6.1144 0
M  V30 4233 H 403.188 3.52269 -4.85455 0
M  V30 4234 H 404.867 3.48996 -5.44803 0
M  V30 4235 N 404.999 1.35443 0.805782 0
M  V30 4236 C 406.245 1.28952 1.56522 0
M  V30 4237 C 406.578 -0.135597 1.93726 0
M  V30 4238 O 405.853 -1.08516 1.61414 0
M  V30 4239 C 406.136 2.19678 2.85331 0
M  V30 4240 C 405.989 3.7081 2.54598 0
M  V30 4241 C 407.308 2.09495 3.8704 0
M  V30 4242 H 404.427 0.469764 0.567883 0
M  V30 4243 H 407.069 1.65851 0.927001 0
M  V30 4244 H 405.219 1.8834 3.39795 0
M  V30 4245 H 406.891 4.12593 2.06312 0
M  V30 4246 H 405.134 3.91051 1.8778 0
M  V30 4247 H 405.805 4.29679 3.46525 0
M  V30 4248 H 408.281 2.37045 3.41978 0
M  V30 4249 H 407.157 2.75173 4.74943 0
M  V30 4250 H 407.418 1.07714 4.28777 0
M  V30 4251 N 406.477 -1.02803 1.19454 0
M  V30 4252 C 407.44 -2.09264 0.934955 0
M  V30 4253 C 408.44 -1.60576 -0.0849015 0
M  V30 4254 O 409.63 -1.73554 0.149933 0
M  V30 4255 C 406.762 -3.38482 0.40531 0
M  V30 4256 H 407.955 -2.33726 1.87916 0
M  V30 4257 H 405.508 -1.19426 1.00832 0
M  V30 4258 H 406.243 -3.19689 -0.544899 0
M  V30 4259 H 406.028 -3.75142 1.14065 0
M  V30 4260 H 407.518 -4.16894 0.242806 0
M  V30 4261 N 407.956 -0.998596 -1.21925 0
M  V30 4262 C 409.233 -0.593401 -1.86382 0
M  V30 4263 C 409.613 0.92916 -1.89552 0
M  V30 4264 O 408.961 1.81347 -1.39017 0
M  V30 4265 C 409.171 -1.22039 -3.26967 0
M  V30 4266 C 410.519 -1.32449 -4.03413 0
M  V30 4267 O 411.543 -1.17522 -3.36254 0
M  V30 4268 O 410.402 -1.56395 -5.23644 0
M  V30 4269 H 407.496 -0.202385 -0.801854 0
M  V30 4270 H 410.042 -1.09484 -1.29659 0
M  V30 4271 H 408.814 -2.26158 -3.19325 0
M  V30 4272 H 408.437 -0.704906 -3.91301 0
M  V30 4273 N 409.434 1.37368 -0.772513 0
M  V30 4274 C 410.662 2.03942 -0.348588 0
M  V30 4275 C 411.077 1.58264 1.02947 0
M  V30 4276 O 410.434 0.764246 1.65727 0
M  V30 4277 C 410.485 3.5946 -0.38351 0
M  V30 4278 O 410.206 4.03468 -1.70721 0
M  V30 4279 C 411.707 4.4327 0.0519152 0
M  V30 4280 H 408.927 0.654931 -0.145966 0
M  V30 4281 H 411.471 1.75686 -1.04665 0
M  V30 4282 H 409.626 3.86486 0.265978 0
M  V30 4283 H 410.04 4.97991 -1.64636 0
M  V30 4284 H 411.514 5.51995 -0.0236733 0
M  V30 4285 H 411.991 4.2514 1.10238 0
M  V30 4286 H 412.597 4.21471 -0.569415 0
M  V30 4287 N 410.912 0.523116 1.48665 0
M  V30 4288 C 411.822 -0.247406 2.33292 0
M  V30 4289 C 412.838 -0.945769 1.46052 0
M  V30 4290 O 414.014 -0.922253 1.79043 0
M  V30 4291 C 411.079 -1.28487 3.22012 0
M  V30 4292 C 410.14 -0.597592 4.2512 0
M  V30 4293 C 409.373 -1.58563 5.09601 0
M  V30 4294 O 409.596 -2.81763 4.95949 0
M  V30 4295 O 408.53 -1.12879 5.91221 0
M  V30 4296 H 412.356 0.445869 3.00409 0
M  V30 4297 H 409.941 0.284128 1.46673 0
M  V30 4298 H 411.823 -1.88459 3.7691 0
M  V30 4299 H 410.498 -1.96068 2.57564 0
M  V30 4300 H 409.405 0.0424407 3.74076 0
M  V30 4301 H 410.738 0.0361517 4.92187 0
M  V30 4302 N 412.39 -1.55475 0.257931 0
M  V30 4303 C 413.3 -2.2549 -0.647425 0
M  V30 4304 C 414.316 -1.2748 -1.18427 0
M  V30 4305 O 415.492 -1.6038 -1.2182 0
M  V30 4306 C 412.557 -2.94916 -1.82278 0
M  V30 4307 C 411.618 -4.08363 -1.32432 0
M  V30 4308 C 410.851 -4.74469 -2.44366 0
M  V30 4309 O 411.074 -4.39701 -3.63344 0
M  V30 4310 O 410.008 -5.62763 -2.13497 0
M  V30 4311 H 413.834 -3.03593 -0.0807707 0
M  V30 4312 H 411.419 -1.49377 0.0259962 0
M  V30 4313 H 413.301 -3.38606 -2.50846 0
M  V30 4314 H 411.976 -2.19744 -2.37685 0
M  V30 4315 H 410.883 -3.69166 -0.605605 0
M  V30 4316 H 412.216 -4.85385 -0.816211 0
M  V30 4317 N 413.868 0.0150385 -1.57593 0
M  V30 4318 C 414.778 1.02791 -2.10882 0
M  V30 4319 C 415.794 1.38702 -1.0506 0
M  V30 4320 O 416.97 1.47739 -1.36877 0
M  V30 4321 C 414.035 2.30568 -2.58919 0
M  V30 4322 C 413.096 2.01108 -3.79281 0
M  V30 4323 C 412.329 3.22794 -4.25018 0
M  V30 4324 O 412.552 4.33959 -3.70183 0
M  V30 4325 O 411.486 3.07672 -5.17322 0
M  V30 4326 H 415.312 0.604973 -2.97613 0
M  V30 4327 H 412.897 0.23292 -1.47573 0
M  V30 4328 H 414.779 3.05662 -2.90084 0
M  V30 4329 H 413.454 2.72129 -1.75293 0
M  V30 4330 H 412.361 1.23537 -3.53114 0
M  V30 4331 H 413.694 1.64394 -4.63935 0
M  V30 4332 N 415.346 1.54954 0.287554 0
M  V30 4333 C 416.309 1.86076 1.33823 0
M  V30 4334 C 417.309 0.734414 1.43049 0
M  V30 4335 O 418.499 1.00266 1.42452 0
M  V30 4336 C 415.631 2.05305 2.72144 0
M  V30 4337 H 416.824 2.79984 1.07465 0
M  V30 4338 H 414.377 1.47223 0.524902 0
M  V30 4339 H 415.112 1.1373 3.03704 0
M  V30 4340 H 414.897 2.873 2.66836 0
M  V30 4341 H 416.387 2.30706 3.48087 0
M  V30 4342 N 416.824 -0.551391 1.4764 0
M  V30 4343 C 417.734 -1.68525 1.63207 0
M  V30 4344 C 418.75 -1.6621 0.514815 0
M  V30 4345 O 419.926 -1.85551 0.783113 0
M  V30 4346 C 416.991 -3.05025 1.64805 0
M  V30 4347 C 416.052 -3.18362 2.88 0
M  V30 4348 C 415.285 -4.4835 2.89513 0
M  V30 4349 O 415.508 -5.34163 2.00065 0
M  V30 4350 O 414.442 -4.65602 3.81443 0
M  V30 4351 H 418.268 -1.58333 2.59161 0
M  V30 4352 H 415.853 -0.722063 1.30792 0
M  V30 4353 H 417.735 -3.86245 1.68502 0
M  V30 4354 H 416.41 -3.15587 0.720197 0
M  V30 4355 H 415.317 -2.36518 2.89845 0
M  V30 4356 H 416.65 -3.12707 3.80099 0
M  V30 4357 N 418.302 -1.35869 -0.798587 0
M  V30 4358 C 419.249 -1.29446 -1.91082 0
M  V30 4359 C 420.219 -0.16487 -1.6528 0
M  V30 4360 O 421.404 -0.349888 -1.87564 0
M  V30 4361 C 418.544 -1.0804 -3.27752 0
M  V30 4362 C 417.657 -2.29993 -3.65687 0
M  V30 4363 C 416.792 -2.01673 -4.91428 0
M  V30 4364 C 415.831 -3.19636 -5.22015 0
M  V30 4365 N 414.968 -2.91039 -6.38937 0
M  V30 4366 H 419.808 -2.24553 -1.95907 0
M  V30 4367 H 417.345 -1.11615 -0.958148 0
M  V30 4368 H 419.303 -0.936586 -4.06551 0
M  V30 4369 H 417.933 -0.16592 -3.22373 0
M  V30 4370 H 416.985 -2.55211 -2.82085 0
M  V30 4371 H 418.297 -3.18052 -3.84245 0
M  V30 4372 H 417.451 -1.84168 -5.78072 0
M  V30 4373 H 416.19 -1.10911 -4.74921 0
M  V30 4374 H 415.195 -3.37709 -4.33858 0
M  V30 4375 H 416.42 -4.11211 -5.40447 0
M  V30 4376 H 414.366 -2.0288 -6.2384 0
M  V30 4377 H 414.283 -3.72635 -6.57784 0
M  V30 4378 H 415.551 -2.77093 -7.28587 0
M  V30 4379 N 419.78 1.02168 -1.19998 0
M  V30 4380 C 420.727 2.10601 -0.944228 0
M  V30 4381 C 421.697 1.65639 0.123664 0
M  V30 4382 O 422.882 1.9079 -0.0199941 0
M  V30 4383 C 420.022 3.41504 -0.496865 0
M  V30 4384 C 419.135 3.99973 -1.63234 0
M  V30 4385 C 418.27 5.18915 -1.13579 0
M  V30 4386 C 417.309 5.69456 -2.24468 0
M  V30 4387 N 416.446 6.79665 -1.76068 0
M  V30 4388 H 421.286 2.31814 -1.8726 0
M  V30 4389 H 418.823 1.13686 -0.933483 0
M  V30 4390 H 420.781 4.16626 -0.218843 0
M  V30 4391 H 419.411 3.2038 0.394508 0
M  V30 4392 H 418.463 3.21997 -2.0254 0
M  V30 4393 H 419.775 4.33492 -2.46752 0
M  V30 4394 H 418.929 6.01222 -0.813429 0
M  V30 4395 H 417.668 4.8695 -0.270434 0
M  V30 4396 H 416.673 4.85757 -2.57526 0
M  V30 4397 H 417.898 6.03459 -3.11472 0
M  V30 4398 H 415.844 6.49538 -0.918516 0
M  V30 4399 H 415.761 7.12349 -2.5317 0
M  V30 4400 H 417.029 7.65549 -1.46817 0
M  V30 4401 N 421.258 1.00505 1.21394 0
M  V30 4402 C 422.488 0.705584 1.94178 0
M  V30 4403 C 422.896 -0.735846 1.74304 0
M  V30 4404 O 422.239 -1.50954 1.04683 0
M  V30 4405 C 422.301 0.94689 3.46806 0
M  V30 4406 C 421.965 2.37517 3.90429 0
M  V30 4407 C 422.962 3.35539 3.97127 0
M  V30 4408 C 420.647 2.71284 4.22742 0
M  V30 4409 C 422.641 4.65395 4.3553 0
M  V30 4410 C 420.328 4.01356 4.60822 0
M  V30 4411 C 421.326 4.98223 4.67186 0
M  V30 4412 O 421.014 6.25969 5.04399 0
M  V30 4413 H 420.746 0.259216 0.624326 0
M  V30 4414 H 423.3 1.34592 1.55159 0
M  V30 4415 H 421.53 0.249386 3.85895 0
M  V30 4416 H 423.219 0.640804 4.0081 0
M  V30 4417 H 423.985 3.10786 3.7234 0
M  V30 4418 H 419.864 1.96581 4.16985 0
M  V30 4419 H 423.408 5.41002 4.40412 0
M  V30 4420 H 419.305 4.25893 4.85063 0
M  V30 4421 H 420.073 6.30085 5.22431 0
M  V30 4422 N 422.737 -1.36956 0.779787 0
M  V30 4423 C 424.153 -1.52817 0.460342 0
M  V30 4424 C 424.353 -1.7361 -1.02283 0
M  V30 4425 O 423.409 -1.76207 -1.80852 0
M  V30 4426 C 424.722 -2.71983 1.28241 0
M  V30 4427 C 426.27 -2.85849 1.27512 0
M  V30 4428 C 426.745 -4.08008 2.08072 0
M  V30 4429 N 428.236 -4.15135 2.05467 0
M  V30 4430 C 428.971 -5.08711 2.64577 0
M  V30 4431 N 428.467 -6.07792 3.32506 0
M  V30 4432 N 430.26 -5.01254 2.54363 0
M  V30 4433 H 422.411 -1.21713 1.74068 0
M  V30 4434 H 424.674 -0.593294 0.739396 0
M  V30 4435 H 424.38 -2.63109 2.33381 0
M  V30 4436 H 424.254 -3.65882 0.917088 0
M  V30 4437 H 426.641 -2.94189 0.231686 0
M  V30 4438 H 426.722 -1.92886 1.68014 0
M  V30 4439 H 426.366 -4.00429 3.12441 0
M  V30 4440 H 426.296 -5.001 1.64947 0
M  V30 4441 H 428.787 -3.44189 1.5602 0
M  V30 4442 H 429.1 -6.75739 3.74963 0
M  V30 4443 H 427.445 -6.08047 3.36606 0
M  V30 4444 H 430.636 -4.22795 2.00902 0
M  V30 4445 H 430.809 -5.73995 3.00722 0
M  V30 4446 N 424.215 -0.530993 -1.48385 0
M  V30 4447 C 425.125 0.23503 -2.3342 0
M  V30 4448 C 426.141 0.93801 -1.46552 0
M  V30 4449 O 427.317 0.912745 -1.7953 0
M  V30 4450 C 424.382 1.26778 -3.22689 0
M  V30 4451 C 423.443 0.575038 -4.25431 0
M  V30 4452 C 422.676 1.55858 -5.10435 0
M  V30 4453 O 422.899 2.79129 -4.97437 0
M  V30 4454 O 421.833 1.09742 -5.91811 0
M  V30 4455 H 425.659 -0.461794 -3.00169 0
M  V30 4456 H 423.244 -0.291903 -1.46521 0
M  V30 4457 H 425.126 1.86457 -3.77904 0
M  V30 4458 H 423.801 1.94699 -2.586 0
M  V30 4459 H 422.708 -0.0622782 -3.74048 0
M  V30 4460 H 424.041 -0.062253 -4.92161 0
M  V30 4461 N 425.693 1.55336 -0.266172 0
M  V30 4462 C 426.94 1.99397 0.353158 0
M  V30 4463 C 427.268 1.15451 1.56529 0
M  V30 4464 O 426.523 0.209974 1.9457 0
M  V30 4465 C 426.822 3.48606 0.787957 0
M  V30 4466 C 426.488 4.49773 -0.318541 0
M  V30 4467 C 425.15 4.77158 -0.62239 0
M  V30 4468 C 427.502 5.10212 -1.06459 0
M  V30 4469 C 424.83 5.62251 -1.67602 0
M  V30 4470 C 427.182 5.96449 -2.10788 0
M  V30 4471 C 425.846 6.22158 -2.41817 0
M  V30 4472 H 425.116 0.729644 0.12923 0
M  V30 4473 H 427.763 1.87732 -0.37802 0
M  V30 4474 H 426.068 3.57701 1.59866 0
M  V30 4475 H 427.765 3.80098 1.27775 0
M  V30 4476 H 424.355 4.2854 -0.0715925 0
M  V30 4477 H 428.539 4.89086 -0.843098 0
M  V30 4478 H 423.795 5.80419 -1.92155 0
M  V30 4479 H 427.969 6.42317 -2.69076 0
M  V30 4480 H 425.596 6.87888 -3.23596 0
M  V30 4481 N 427.171 -0.0066808 1.57599 0
M  V30 4482 C 428.134 -0.985035 2.06953 0
M  V30 4483 C 429.134 -1.27663 0.977687 0
M  V30 4484 O 430.324 -1.22293 1.24057 0
M  V30 4485 C 427.456 -2.3118 2.50536 0
M  V30 4486 H 428.649 -0.558255 2.94658 0
M  V30 4487 H 426.202 -0.254011 1.54222 0
M  V30 4488 H 426.937 -2.78561 1.66054 0
M  V30 4489 H 426.722 -2.11338 3.3027 0
M  V30 4490 H 428.212 -3.01377 2.8907 0
M  V30 4491 N 428.649 -1.55105 -0.279332 0
M  V30 4492 C 429.559 -1.90638 -1.36727 0
M  V30 4493 C 430.575 -0.802899 -1.54368 0
M  V30 4494 O 431.751 -1.10138 -1.68616 0
M  V30 4495 C 428.816 -2.16547 -2.70755 0
M  V30 4496 C 427.877 -3.40146 -2.61915 0
M  V30 4497 C 427.11 -3.6481 -3.8955 0
M  V30 4498 O 427.333 -2.92095 -4.89935 0
M  V30 4499 O 426.267 -4.58343 -3.90135 0
M  V30 4500 H 430.093 -2.83237 -1.09591 0
M  V30 4501 H 427.678 -1.4157 -0.477306 0
M  V30 4502 H 429.56 -2.34665 -3.50014 0
M  V30 4503 H 428.235 -1.27131 -2.9769 0
M  V30 4504 H 427.142 -3.2737 -1.81052 0
M  V30 4505 H 428.475 -4.29761 -2.3993 0
M  V30 4506 N 430.127 0.543554 -1.4793 0
M  V30 4507 C 431.057 1.65888 -1.64327 0
M  V30 4508 C 432.038 1.62818 -0.492383 0
M  V30 4509 O 433.223 1.80226 -0.723338 0
M  V30 4510 C 430.353 3.04506 -1.67013 0
M  V30 4511 C 429.307 3.2243 -2.81466 0
M  V30 4512 C 428.633 4.61972 -2.69233 0
M  V30 4513 C 429.933 3.06496 -4.22915 0
M  V30 4514 H 431.627 1.52421 -2.57698 0
M  V30 4515 H 429.173 0.731849 -1.24016 0
M  V30 4516 H 431.126 3.82391 -1.77074 0
M  V30 4517 H 429.85 3.18964 -0.70212 0
M  V30 4518 H 428.509 2.46957 -2.70938 0
M  V30 4519 H 428.157 4.73247 -1.7043 0
M  V30 4520 H 427.857 4.74911 -3.46025 0
M  V30 4521 H 429.381 5.41974 -2.81242 0
M  V30 4522 H 430.795 3.74186 -4.34348 0
M  V30 4523 H 429.192 3.30938 -5.006 0
M  V30 4524 H 430.262 2.03077 -4.40327 0
M  V30 4525 N 431.605 1.3629 0.791371 0
M  V30 4526 C 432.854 1.29742 1.54434 0
M  V30 4527 C 433.167 -0.121729 1.95221 0
M  V30 4528 O 434.373 -0.309579 2.69729 0
M  V30 4529 C 432.829 2.27623 2.78776 0
M  V30 4530 C 432.437 3.74963 2.45166 0
M  V30 4531 C 434.181 2.30047 3.56761 0
M  V30 4532 C 432.088 4.64626 3.65891 0
M  V30 4533 H 431.018 0.482113 0.579727 0
M  V30 4534 H 433.669 1.61642 0.868565 0
M  V30 4535 H 432.051 1.88714 3.48142 0
M  V30 4536 H 433.225 4.22596 1.83709 0
M  V30 4537 H 431.54 3.75295 1.80396 0
M  V30 4538 H 434.137 2.94247 4.46456 0
M  V30 4539 H 434.48 1.30846 3.95203 0
M  V30 4540 H 435.013 2.67563 2.94372 0
M  V30 4541 H 431.752 5.64883 3.32547 0
M  V30 4542 H 431.272 4.2171 4.26521 0
M  V30 4543 H 432.951 4.80801 4.32943 0
M  V30 4544 N 433.083 -1.0153 1.20538 0
M  V30 4545 C 434.494 -1.56598 1.01657 0
M  V30 4546 C 434.845 -1.91505 -0.426668 0
M  V30 4547 O 433.97 -1.72375 -1.30827 0
M  V30 4548 C 434.565 -2.84542 1.83905 0
M  V30 4549 C 433.124 -3.36133 1.69386 0
M  V30 4550 C 432.271 -2.09427 1.81757 0
M  V30 4551 H 435.222 -0.838974 1.34711 0
M  V30 4552 H 435.243 -3.56004 1.34319 0
M  V30 4553 H 434.755 -2.59105 2.8894 0
M  V30 4554 H 432.856 -3.66528 0.669933 0
M  V30 4555 H 432.969 -4.08248 2.50739 0
M  V30 4556 H 431.333 -2.21941 1.24957 0
M  V30 4557 H 432.116 -1.86414 2.88279 0
M  V30 4558 N 434.561 -1.01147 -1.20859 0
M  V30 4559 C 435.81 -0.693214 -1.89413 0
M  V30 4560 C 436.123 0.779969 -1.79376 0
M  V30 4561 O 437.329 1.21057 -2.43017 0
M  V30 4562 C 435.785 -1.18949 -3.39675 0
M  V30 4563 C 435.393 -2.68921 -3.58309 0
M  V30 4564 C 437.137 -0.94642 -4.13815 0
M  V30 4565 C 435.044 -3.12056 -5.0237 0
M  V30 4566 H 433.974 -0.255595 -0.709357 0
M  V30 4567 H 436.625 -1.22349 -1.36759 0
M  V30 4568 H 435.007 -0.587228 -3.91622 0
M  V30 4569 H 436.181 -3.34652 -3.16772 0
M  V30 4570 H 434.496 -2.91314 -2.97532 0
M  V30 4571 H 437.093 -1.24417 -5.20023 0
M  V30 4572 H 437.436 0.117219 -4.16135 0
M  V30 4573 H 437.969 -1.5118 -3.67953 0
M  V30 4574 H 434.708 -4.17674 -5.05202 0
M  V30 4575 H 434.228 -2.51041 -5.44737 0
M  V30 4576 H 435.907 -3.04403 -5.70918 0
M  V30 4577 N 436.039 1.36541 -0.78704 0
M  V30 4578 C 436.949 2.3387 -0.184896 0
M  V30 4579 C 437.965 1.60927 0.661697 0
M  V30 4580 O 439.141 1.92927 0.57804 0
M  V30 4581 C 436.206 3.40122 0.672145 0
M  V30 4582 C 435.267 4.28867 -0.19267 0
M  V30 4583 C 434.5 5.30045 0.623561 0
M  V30 4584 O 434.723 5.39232 1.8597 0
M  V30 4585 O 433.657 6.01895 0.0247068 0
M  V30 4586 H 437.483 2.87126 -0.989562 0
M  V30 4587 H 435.068 1.38969 -0.548455 0
M  V30 4588 H 436.95 4.05093 1.16094 0
M  V30 4589 H 435.625 2.89169 1.45474 0
M  V30 4590 H 434.532 3.66945 -0.728166 0
M  V30 4591 H 435.865 4.83165 -0.938722 0
M  V30 4592 N 437.518 0.538854 1.48102 0
M  V30 4593 C 438.466 -0.232325 2.31437 0
M  V30 4594 C 439.46 -0.927004 1.41785 0
M  V30 4595 O 440.666 -0.850378 1.58646 0
M  V30 4596 H 437.041 -0.0937916 0.746128 0
M  V30 4597 H 439.012 0.489986 2.9435 0
M  V30 4598 C 437.761 -1.26074 3.24038 0
M  V30 4599 H 437.084 -0.735609 3.92974 0
M  V30 4600 H 438.524 -1.77157 3.85216 0
M  V30 4601 C 436.983 -2.29902 2.46265 0
M  V30 4602 O 437.513 -3.36502 2.19384 0
M  V30 4603 N 435.719 -2.03348 2.07601 0
M  V30 4604 H 435.266 -1.16675 2.29662 0
M  V30 4605 H 435.224 -2.73038 1.55877 0
M  V30 4606 N 438.996 -1.55193 0.274407 0
M  V30 4607 C 439.959 -2.212 -0.600279 0
M  V30 4608 C 440.959 -1.18963 -1.08187 0
M  V30 4609 O 442.149 -1.43873 -0.982158 0
M  V30 4610 C 439.281 -2.87739 -1.82809 0
M  V30 4611 H 440.474 -2.9989 -0.0239682 0
M  V30 4612 H 438.027 -1.5628 0.0250192 0
M  V30 4613 H 438.762 -2.13058 -2.44493 0
M  V30 4614 H 438.547 -3.62658 -1.49069 0
M  V30 4615 H 440.037 -3.38171 -2.45011 0
M  V30 4616 N 440.474 -0.00167713 -1.576 0
M  V30 4617 C 441.72 0.683832 -1.90923 0
M  V30 4618 C 442.053 1.7333 -0.875799 0
M  V30 4619 O 441.328 1.94215 0.10525 0
M  V30 4620 C 441.611 1.32543 -3.3482 0
M  V30 4621 C 441.464 0.287387 -4.48881 0
M  V30 4622 C 442.783 2.25114 -3.78169 0
M  V30 4623 H 439.902 0.247125 -0.694333 0
M  V30 4624 H 442.544 -0.0533149 -1.89925 0
M  V30 4625 H 440.694 1.95372 -3.35801 0
M  V30 4626 H 442.366 -0.341346 -4.60035 0
M  V30 4627 H 440.609 -0.39017 -4.32042 0
M  V30 4628 H 441.28 0.775393 -5.46527 0
M  V30 4629 H 443.756 1.723 -3.7875 0
M  V30 4630 H 442.632 2.66971 -4.79602 0
M  V30 4631 H 442.893 3.13092 -3.12131 0
M  V30 4632 N 441.952 1.55251 0.271103 0
M  V30 4633 C 443.18 1.79974 1.02064 0
M  V30 4634 C 443.595 0.574003 1.79863 0
M  V30 4635 O 442.952 -0.456962 1.76686 0
M  V30 4636 C 443.003 3.02603 1.97772 0
M  V30 4637 O 442.724 4.20443 1.23124 0
M  V30 4638 C 444.225 3.39944 2.84522 0
M  V30 4639 H 441.445 0.599489 0.301419 0
M  V30 4640 H 443.989 2.02268 0.301313 0
M  V30 4641 H 442.144 2.8243 2.65165 0
M  V30 4642 H 442.558 4.89783 1.87651 0
M  V30 4643 H 444.032 4.28915 3.47471 0
M  V30 4644 H 444.509 2.59432 3.54389 0
M  V30 4645 H 445.115 3.62383 2.22618 0
M  V30 4646 N 443.43 -0.535701 1.48216 0
M  V30 4647 C 444.66 -1.3148 1.59363 0
M  V30 4648 C 445.068 -1.8753 0.250844 0
M  V30 4649 O 444.411 -1.66821 -0.769174 0
M  V30 4650 C 444.473 -2.50731 2.57632 0
M  V30 4651 C 444.137 -2.15811 4.02833 0
M  V30 4652 C 445.134 -1.71822 4.90686 0
M  V30 4653 C 442.819 -2.26509 4.48329 0
M  V30 4654 C 444.813 -1.3899 6.22062 0
M  V30 4655 C 442.5 -1.93289 5.79726 0
M  V30 4656 C 443.498 -1.49599 6.66415 0
M  V30 4657 O 443.186 -1.16812 7.95368 0
M  V30 4658 H 442.918 -0.406315 0.540263 0
M  V30 4659 H 445.472 -0.653569 1.94725 0
M  V30 4660 H 443.702 -3.19817 2.1738 0
M  V30 4661 H 445.391 -3.12797 2.58675 0
M  V30 4662 H 446.157 -1.63031 4.56778 0
M  V30 4663 H 442.036 -2.59471 3.81045 0
M  V30 4664 H 445.58 -1.04816 6.89681 0
M  V30 4665 H 441.477 -2.01718 6.13172 0
M  V30 4666 H 442.245 -1.30259 8.08069 0
M  V30 4667 N 444.908 -1.36708 -0.784132 0
M  V30 4668 C 445.838 -1.34153 -1.91116 0
M  V30 4669 C 446.819 -0.212121 -1.68772 0
M  V30 4670 O 448.004 -0.410581 -1.8981 0
M  V30 4671 C 445.134 -1.13535 -3.28218 0
M  V30 4672 C 444.088 -2.23356 -3.65097 0
M  V30 4673 C 443.414 -1.87875 -5.00607 0
M  V30 4674 C 444.714 -3.65473 -3.73131 0
M  V30 4675 H 446.408 -2.28459 -1.93512 0
M  V30 4676 H 443.954 -1.09973 -0.929618 0
M  V30 4677 H 445.907 -1.10381 -4.06687 0
M  V30 4678 H 444.631 -0.156804 -3.26223 0
M  V30 4679 H 443.29 -2.25645 -2.88929 0
M  V30 4680 H 442.938 -0.885814 -4.95139 0
M  V30 4681 H 442.638 -2.61406 -5.26252 0
M  V30 4682 H 444.162 -1.86286 -5.81489 0
M  V30 4683 H 445.576 -3.65382 -4.41779 0
M  V30 4684 H 443.973 -4.37953 -4.10265 0
M  V30 4685 H 445.043 -3.99995 -2.74102 0
M  V30 4686 N 446.386 1.0089 -1.21074 0
M  V30 4687 C 447.349 2.0775 -0.968129 0
M  V30 4688 C 448.349 1.6069 0.0593445 0
M  V30 4689 O 449.539 1.73293 -0.177525 0
M  V30 4690 C 446.671 3.37794 -0.459108 0
M  V30 4691 H 447.864 2.30707 -1.9161 0
M  V30 4692 H 445.417 1.17807 -1.02719 0
M  V30 4693 H 446.152 3.20516 0.49397 0
M  V30 4694 H 445.937 3.7328 -1.20019 0
M  V30 4695 H 447.427 4.16454 -0.309099 0
M  V30 4696 N 447.864 1.01787 1.20321 0
M  V30 4697 C 449.28 0.732951 1.41774 0
M  V30 4698 C 449.48 -0.686883 1.89431 0
M  V30 4699 O 448.536 -1.45446 2.06402 0
M  V30 4700 C 449.849 1.75973 2.43832 0
M  V30 4701 C 451.397 1.77802 2.57596 0
M  V30 4702 C 451.872 2.7941 3.62897 0
M  V30 4703 N 453.363 2.78157 3.70382 0
M  V30 4704 C 454.098 3.53434 4.51521 0
M  V30 4705 N 453.594 4.38392 5.36455 0
M  V30 4706 N 455.387 3.42026 4.46066 0
M  V30 4707 H 447.538 1.93447 0.877035 0
M  V30 4708 H 449.801 0.835712 0.447536 0
M  V30 4709 H 449.507 2.77699 2.15815 0
M  V30 4710 H 449.381 1.57292 3.4284 0
M  V30 4711 H 451.768 0.767602 2.84942 0
M  V30 4712 H 451.849 2.00557 1.58779 0
M  V30 4713 H 451.493 3.80616 3.36295 0
M  V30 4714 H 451.423 2.53916 4.61339 0
M  V30 4715 H 453.914 2.16531 3.09714 0
M  V30 4716 H 454.227 4.92596 5.95457 0
M  V30 4717 H 452.572 4.4247 5.35953 0
M  V30 4718 H 455.763 2.75075 3.78749 0
M  V30 4719 H 455.936 4.00946 5.09064 0
M  V30 4720 N 449.342 -1.36122 0.79427 0
M  V30 4721 C 450.589 -1.99111 0.368905 0
M  V30 4722 C 450.917 -1.63032 -1.0607 0
M  V30 4723 O 450.172 -0.879303 -1.74833 0
M  V30 4724 C 450.471 -3.5409 0.48527 0
M  V30 4725 C 450.137 -4.10003 1.87638 0
M  V30 4726 C 448.799 -4.24986 2.257 0
M  V30 4727 C 451.151 -4.40423 2.78706 0
M  V30 4728 C 448.479 -4.67701 3.54221 0
M  V30 4729 C 450.831 -4.84573 4.0666 0
M  V30 4730 C 449.495 -4.97761 4.44737 0
M  V30 4731 H 448.765 -0.7286 0.134992 0
M  V30 4732 H 451.412 -1.62534 1.01267 0
M  V30 4733 H 449.717 -3.91052 -0.241984 0
M  V30 4734 H 451.414 -4.00766 0.137109 0
M  V30 4735 H 448.004 -3.98784 1.57064 0
M  V30 4736 H 452.188 -4.28412 2.50553 0
M  V30 4737 H 447.444 -4.761 3.83587 0
M  V30 4738 H 451.618 -5.07074 4.77336 0
M  V30 4739 H 449.245 -5.30618 5.44379 0
M  V30 4740 N 450.82 -0.546701 -1.47814 0
M  V30 4741 C 452.067 -0.0187407 -2.02491 0
M  V30 4742 C 452.395 1.32685 -1.42215 0
M  V30 4743 O 451.65 1.87413 -0.563454 0
M  V30 4744 C 451.949 0.134869 -3.57145 0
M  V30 4745 C 451.615 -1.13849 -4.3629 0
M  V30 4746 C 450.277 -1.48743 -4.57634 0
M  V30 4747 C 452.629 -1.98277 -4.82012 0
M  V30 4748 C 449.957 -2.67932 -5.21948 0
M  V30 4749 C 452.309 -3.16659 -5.4764 0
M  V30 4750 C 450.973 -3.51879 -5.67219 0
M  V30 4751 H 450.243 -0.0068577 -0.740968 0
M  V30 4752 H 452.89 -0.716097 -1.77607 0
M  V30 4753 H 451.195 0.915118 -3.80963 0
M  V30 4754 H 452.892 0.558556 -3.97091 0
M  V30 4755 H 449.482 -0.856767 -4.19949 0
M  V30 4756 H 453.666 -1.72628 -4.6531 0
M  V30 4757 H 448.922 -2.95401 -5.35302 0
M  V30 4758 H 453.096 -3.82374 -5.82033 0
M  V30 4759 H 450.723 -4.44331 -6.16825 0
M  V30 4760 N 452.299 1.55045 -0.282633 0
M  V30 4761 C 453.576 1.9179 0.384166 0
M  V30 4762 C 453.956 1.20778 1.73136 0
M  V30 4763 O 453.304 0.33719 2.25998 0
M  V30 4764 C 453.514 3.45149 0.517014 0
M  V30 4765 C 454.862 4.17064 0.796427 0
M  V30 4766 O 455.886 3.51084 0.601535 0
M  V30 4767 O 454.745 5.33837 1.16962 0
M  V30 4768 H 451.839 0.799483 0.211558 0
M  V30 4769 H 454.385 1.66474 -0.32934 0
M  V30 4770 H 453.157 3.88922 -0.430772 0
M  V30 4771 H 452.78 3.76443 1.2797 0
M  V30 4772 N 453.777 0.010035 1.57597 0
M  V30 4773 C 455.054 -0.710296 1.82248 0
M  V30 4774 C 455.434 -1.91426 0.889911 0
M  V30 4775 O 454.782 -2.28424 -0.0590292 0
M  V30 4776 C 454.992 -1.10655 3.30993 0
M  V30 4777 C 456.34 -1.50621 3.96987 0
M  V30 4778 O 457.364 -1.20007 3.35375 0
M  V30 4779 O 456.223 -2.07587 5.05539 0
M  V30 4780 H 453.317 -0.34673 0.750804 0
M  V30 4781 H 455.863 0.0362578 1.69661 0
M  V30 4782 H 454.635 -0.248826 3.90508 0
M  V30 4783 H 454.258 -1.91189 3.48615 0
M  V30 4784 N 455.255 -1.55392 -0.262866 0
M  V30 4785 C 456.485 -1.80251 -1.00961 0
M  V30 4786 C 456.893 -0.58117 -1.80053 0
M  V30 4787 O 456.236 0.459427 -1.77862 0
M  V30 4788 C 456.298 -2.98207 -2.00781 0
M  V30 4789 C 455.962 -4.34856 -1.40533 0
M  V30 4790 C 456.959 -5.13459 -0.815853 0
M  V30 4791 C 454.644 -4.8153 -1.42948 0
M  V30 4792 C 456.638 -6.36875 -0.258562 0
M  V30 4793 C 454.325 -6.04899 -0.868334 0
M  V30 4794 C 455.323 -6.8241 -0.283884 0
M  V30 4795 O 455.011 -8.03451 0.268644 0
M  V30 4796 H 454.743 -0.604049 -0.303482 0
M  V30 4797 H 457.297 -2.03257 -0.295926 0
M  V30 4798 H 455.527 -2.70917 -2.75936 0
M  V30 4799 H 457.216 -3.10299 -2.61667 0
M  V30 4800 H 457.982 -4.78526 -0.789812 0
M  V30 4801 H 453.861 -4.21201 -1.87378 0
M  V30 4802 H 457.405 -6.97318 0.198257 0
M  V30 4803 H 453.302 -6.39312 -0.891649 0
M  V30 4804 H 454.07 -8.18346 0.158974 0
M  V30 4805 N 456.733 0.527833 -1.48498 0
M  V30 4806 C 458.01 1.28905 -1.47115 0
M  V30 4807 C 458.39 2.10297 -0.184007 0
M  V30 4808 O 457.738 2.12728 0.834218 0
M  V30 4809 C 457.948 2.16866 -2.73441 0
M  V30 4810 C 459.296 2.76936 -3.21857 0
M  V30 4811 O 460.32 2.27152 -2.74373 0
M  V30 4812 O 459.179 3.67496 -4.04486 0
M  V30 4813 H 456.273 0.581918 -0.587623 0
M  V30 4814 H 458.819 0.544311 -1.60734 0
M  V30 4815 H 457.591 1.56521 -3.58632 0
M  V30 4816 H 457.214 2.98583 -2.62553 0
M  V30 4817 N 458.211 1.37122 0.776871 0
M  V30 4818 C 459.141 1.35164 1.90402 0
M  V30 4819 C 460.122 0.221069 1.68657 0
M  V30 4820 O 461.307 0.420642 1.8959 0
M  V30 4821 C 458.437 1.15274 3.27611 0
M  V30 4822 C 457.391 2.25289 3.63908 0
M  V30 4823 C 456.717 1.90527 4.99603 0
M  V30 4824 C 458.017 3.67446 3.71188 0
M  V30 4825 H 459.711 2.29482 1.92297 0
M  V30 4826 H 457.257 1.10465 0.923773 0
M  V30 4827 H 459.21 1.12536 4.06096 0
M  V30 4828 H 457.934 0.174102 3.26136 0
M  V30 4829 H 456.593 2.27174 2.87728 0
M  V30 4830 H 456.241 0.91206 4.94662 0
M  V30 4831 H 455.941 2.64193 5.24858 0
M  V30 4832 H 457.465 1.89367 5.80493 0
M  V30 4833 H 458.879 3.67719 4.39836 0
M  V30 4834 H 457.276 4.40123 4.07936 0
M  V30 4835 H 458.346 4.01443 2.71977 0
M  V30 4836 N 459.689 -1.00246 1.21608 0
M  V30 4837 C 460.914 -1.78167 1.06167 0
M  V30 4838 C 461.339 -1.84138 -0.384035 0
M  V30 4839 O 460.697 -1.28683 -1.27712 0
M  V30 4840 C 460.745 -3.19786 1.66642 0
M  V30 4841 O 459.849 -4.02153 0.913613 0
M  V30 4842 H 459.19 -0.549 0.37349 0
M  V30 4843 H 461.72 -1.25994 1.61204 0
M  V30 4844 H 461.73 -3.70451 1.70969 0
M  V30 4845 H 460.405 -3.14754 2.7185 0
M  V30 4846 H 458.982 -3.60711 0.945635 0
M  V30 4847 N 461.167 -1.02423 -1.1978 0
M  V30 4848 C 462.413 -0.719051 -1.89625 0
M  V30 4849 C 462.746 0.750083 -1.7913 0
M  V30 4850 O 462.021 1.54574 -1.18056 0
M  V30 4851 C 462.304 -1.16499 -3.40735 0
M  V30 4852 C 462.157 -2.695 -3.60125 0
M  V30 4853 C 463.476 -0.742166 -4.33797 0
M  V30 4854 H 460.595 -0.26269 -0.688595 0
M  V30 4855 H 463.237 -1.27333 -1.41018 0
M  V30 4856 H 461.387 -0.69341 -3.82262 0
M  V30 4857 H 463.059 -3.24569 -3.278 0
M  V30 4858 H 461.302 -3.10113 -3.03336 0
M  V30 4859 H 461.973 -2.95757 -4.66081 0
M  V30 4860 H 464.449 -1.1477 -3.99959 0
M  V30 4861 H 463.325 -1.08213 -5.38127 0
M  V30 4862 H 463.586 0.355747 -4.40666 0
M  V30 4863 N 462.645 1.35699 -0.801477 0
M  V30 4864 C 463.875 2.02862 -0.3912 0
M  V30 4865 C 464.283 1.60552 1.00099 0
M  V30 4866 O 463.626 0.796215 1.65548 0
M  V30 4867 C 463.688 3.57386 -0.389299 0
M  V30 4868 C 463.352 4.22943 -1.73113 0
M  V30 4869 C 464.349 4.44984 -2.68859 0
M  V30 4870 C 462.034 4.60167 -2.01373 0
M  V30 4871 C 464.028 5.03345 -3.91053 0
M  V30 4872 C 461.715 5.18243 -3.23832 0
M  V30 4873 C 462.713 5.39773 -4.1849 0
M  V30 4874 O 462.401 5.96626 -5.38788 0
M  V30 4875 H 462.133 0.657341 -0.157732 0
M  V30 4876 H 464.687 1.74407 -1.08496 0
M  V30 4877 H 462.917 3.85011 0.361031 0
M  V30 4878 H 464.606 4.059 -0.0020365 0
M  V30 4879 H 465.372 4.1661 -2.48316 0
M  V30 4880 H 461.251 4.42726 -1.28508 0
M  V30 4881 H 464.795 5.20065 -4.64949 0
M  V30 4882 H 460.692 5.46044 -3.44248 0
M  V30 4883 H 461.46 6.15082 -5.40015 0
M  V30 4884 N 464.123 0.554532 1.47522 0
M  V30 4885 C 465.534 0.120446 1.86311 0
M  V30 4886 C 465.885 -1.30904 1.46145 0
M  V30 4887 O 465.01 -1.98434 0.863294 0
M  V30 4888 C 465.605 0.211808 3.38137 0
M  V30 4889 C 464.164 -0.167224 3.76028 0
M  V30 4890 C 463.311 0.560576 2.71575 0
M  V30 4891 H 466.262 0.764408 1.39077 0
M  V30 4892 H 466.283 -0.570275 3.76202 0
M  V30 4893 H 465.795 1.25232 3.6734 0
M  V30 4894 H 463.896 -1.20894 3.52442 0
M  V30 4895 H 464.009 0.189473 4.78725 0
M  V30 4896 H 462.373 0.00396836 2.547 0
M  V30 4897 H 463.156 1.60219 3.0362 0
M  V30 4898 N 465.601 -1.54893 0.290851 0
M  V30 4899 C 466.531 -2.26103 -0.583084 0
M  V30 4900 C 467.512 -1.25684 -1.14619 0
M  V30 4901 O 468.697 -1.54436 -1.17741 0
M  V30 4902 C 465.827 -2.99409 -1.75987 0
M  V30 4903 C 464.781 -4.0689 -1.32758 0
M  V30 4904 C 464.107 -4.67856 -2.58872 0
M  V30 4905 C 465.407 -5.20215 -0.46624 0
M  V30 4906 H 467.101 -2.99398 0.0108214 0
M  V30 4907 H 464.647 -1.43998 0.00664468 0
M  V30 4908 H 466.6 -3.47943 -2.37727 0
M  V30 4909 H 465.324 -2.23675 -2.37985 0
M  V30 4910 H 463.983 -3.59191 -0.733299 0
M  V30 4911 H 463.631 -3.88772 -3.19163 0
M  V30 4912 H 463.331 -5.40438 -2.30653 0
M  V30 4913 H 464.855 -5.19147 -3.21433 0
M  V30 4914 H 466.269 -5.64704 -0.989047 0
M  V30 4915 H 464.666 -5.99455 -0.27826 0
M  V30 4916 H 465.736 -4.82198 0.511173 0
M  V30 4917 N 467.08 -0.0183926 -1.57589 0
M  V30 4918 C 468.357 0.700621 -1.82622 0
M  V30 4919 C 468.737 1.90951 -0.90005 0
M  V30 4920 O 468.085 2.28452 0.0469145 0
M  V30 4921 C 468.295 1.08899 -3.31575 0
M  V30 4922 C 469.643 1.48514 -3.9778 0
M  V30 4923 O 470.667 1.18227 -3.36007 0
M  V30 4924 O 469.526 2.04903 -5.06633 0
M  V30 4925 H 466.62 0.342743 -0.752633 0
M  V30 4926 H 469.166 -0.0452548 -1.6964 0
M  V30 4927 H 467.938 0.228113 -3.90635 0
M  V30 4928 H 467.561 1.89338 -3.49624 0
M  V30 4929 N 468.558 1.5553 0.254621 0
M  V30 4930 C 469.468 1.92789 1.33677 0
M  V30 4931 C 470.484 0.827356 1.53071 0
M  V30 4932 O 471.66 1.12807 1.66843 0
M  V30 4933 C 468.725 2.20827 2.67275 0
M  V30 4934 C 467.786 3.4427 2.5647 0
M  V30 4935 C 467.019 3.70961 3.83697 0
M  V30 4936 O 467.242 2.99852 4.85227 0
M  V30 4937 O 466.176 4.64491 3.82794 0
M  V30 4938 H 470.002 2.84945 1.05071 0
M  V30 4939 H 467.587 1.42312 0.454723 0
M  V30 4940 H 469.469 2.40204 3.46237 0
M  V30 4941 H 468.144 1.31851 2.9563 0
M  V30 4942 H 467.051 3.30209 1.75821 0
M  V30 4943 H 468.384 4.33524 2.33062 0
M  V30 4944 N 470.036 -0.519951 1.48776 0
M  V30 4945 C 471.447 -1.10177 1.50725 0
M  V30 4946 C 471.798 -1.94153 0.282678 0
M  V30 4947 O 470.923 -2.07645 -0.609298 0
M  V30 4948 C 471.518 -2.00482 2.73116 0
M  V30 4949 C 470.077 -2.53862 2.77905 0
M  V30 4950 C 469.224 -1.31047 2.44381 0
M  V30 4951 H 472.175 -0.30473 1.55747 0
M  V30 4952 H 472.196 -2.8491 2.52203 0
M  V30 4953 H 471.708 -1.39335 3.62225 0
M  V30 4954 H 469.809 -3.18702 1.93029 0
M  V30 4955 H 469.922 -2.9231 3.79594 0
M  V30 4956 H 468.286 -1.62953 1.95751 0
M  V30 4957 H 469.069 -0.71637 3.35743 0
M  V30 4958 N 471.514 -1.37532 -0.769588 0
M  V30 4959 C 472.761 -1.3286 -1.52822 0
M  V30 4960 C 473.089 0.0862597 -1.94309 0
M  V30 4961 O 472.344 1.05995 -1.6451 0
M  V30 4962 C 472.643 -2.21558 -2.8044 0
M  V30 4963 C 472.309 -3.69796 -2.57996 0
M  V30 4964 C 470.971 -4.10194 -2.51583 0
M  V30 4965 C 473.323 -4.63699 -2.37976 0
M  V30 4966 C 470.651 -5.42608 -2.23144 0
M  V30 4967 C 473.003 -5.96353 -2.1106 0
M  V30 4968 C 471.667 -6.35853 -2.03093 0
M  V30 4969 H 470.937 -0.486168 -0.559215 0
M  V30 4970 H 473.584 -1.69757 -0.886277 0
M  V30 4971 H 471.889 -1.77663 -3.49204 0
M  V30 4972 H 473.586 -2.15256 -3.38328 0
M  V30 4973 H 470.176 -3.37759 -2.63851 0
M  V30 4974 H 474.36 -4.33346 -2.41919 0
M  V30 4975 H 469.616 -5.72173 -2.15472 0
M  V30 4976 H 473.79 -6.68667 -1.94568 0
M  V30 4977 H 471.417 -7.38382 -1.8082 0
M  V30 4978 N 472.992 0.995999 -1.22138 0
M  V30 4979 C 474.403 1.54961 -1.04135 0
M  V30 4980 C 474.754 1.92159 0.396147 0
M  V30 4981 O 473.879 1.74435 1.28069 0
M  V30 4982 C 474.474 2.81581 -1.88408 0
M  V30 4983 C 473.033 3.33396 -1.74712 0
M  V30 4984 C 472.18 2.06509 -1.85066 0
M  V30 4985 H 475.131 0.817436 -1.36028 0
M  V30 4986 H 475.152 3.53822 -1.39966 0
M  V30 4987 H 474.664 2.54476 -2.93025 0
M  V30 4988 H 472.765 3.65416 -0.728159 0
M  V30 4989 H 472.878 4.04208 -2.57202 0
M  V30 4990 H 471.242 2.19925 -1.28472 0
M  V30 4991 H 472.025 1.81804 -2.91208 0
M  V30 4992 N 474.47 1.03057 1.19235 0
M  V30 4993 C 475.747 0.642608 1.84743 0
M  V30 4994 C 476.127 -0.878577 1.91948 0
M  V30 4995 O 475.475 -1.77597 1.43776 0
M  V30 4996 C 475.685 1.30665 3.23616 0
M  V30 4997 C 477.033 1.43098 3.9976 0
M  V30 4998 O 478.057 1.26396 3.3302 0
M  V30 4999 O 476.916 1.70223 5.19313 0
M  V30 5000 H 474.01 0.223573 0.796206 0
M  V30 5001 H 476.556 1.12883 1.26711 0
M  V30 5002 H 475.328 2.34544 3.13217 0
M  V30 5003 H 474.951 0.808405 3.89295 0
M  V30 5004 N 475.948 -1.35272 0.808662 0
M  V30 5005 C 477.197 -1.97963 0.386483 0
M  V30 5006 C 477.51 -1.64866 -1.05255 0
M  V30 5007 O 478.716 -2.20937 -1.57794 0
M  V30 5008 C 477.172 -3.54162 0.640096 0
M  V30 5009 C 476.78 -3.96166 2.0918 0
M  V30 5010 C 478.524 -4.23553 0.283376 0
M  V30 5011 C 476.431 -5.4522 2.29106 0
M  V30 5012 H 475.361 -0.740742 0.140774 0
M  V30 5013 H 478.012 -1.5431 0.993012 0
M  V30 5014 H 476.394 -3.95983 -0.0364117 0
M  V30 5015 H 477.568 -3.65491 2.80629 0
M  V30 5016 H 475.883 -3.3967 2.40859 0
M  V30 5017 H 478.48 -5.33124 0.410273 0
M  V30 5018 H 478.823 -4.09105 -0.770659 0
M  V30 5019 H 479.356 -3.8716 0.913884 0
M  V30 5020 H 476.095 -5.64638 3.32962 0
M  V30 5021 H 475.615 -5.77457 1.62184 0
M  V30 5022 H 477.294 -6.1171 2.1076 0
M  V30 5023 N 477.426 -0.562348 -1.47226 0
M  V30 5024 C 478.674 -0.0401371 -2.0206 0
M  V30 5025 C 478.995 1.3165 -1.43852 0
M  V30 5026 O 478.265 1.85976 -0.615599 0
M  V30 5027 H 476.845 -0.0118479 -0.746906 0
M  V30 5028 H 479.507 -0.73352 -1.8057 0
M  V30 5029 H 478.603 0.0441254 -3.12069 0
M  V30 5030 N 478.904 1.54736 -0.299062 0
M  V30 5031 C 480.181 1.92187 0.363802 0
M  V30 5032 C 480.561 1.22607 1.71845 0
M  V30 5033 O 479.909 0.361141 2.25628 0
M  V30 5034 C 480.119 3.45678 0.480377 0
M  V30 5035 C 481.467 4.17885 0.752147 0
M  V30 5036 O 482.491 3.51702 0.564264 0
M  V30 5037 O 481.35 5.35048 1.11294 0
M  V30 5038 H 478.444 0.801681 0.203066 0
M  V30 5039 H 480.99 1.66115 -0.346978 0
M  V30 5040 H 479.762 3.88443 -0.471999 0
M  V30 5041 H 479.385 3.77779 1.2397 0
M  V30 5042 N 480.382 0.0267497 1.57577 0
M  V30 5043 C 481.628 -0.653371 1.91987 0
M  V30 5044 C 481.961 -1.71915 0.903263 0
M  V30 5045 O 481.236 -1.94358 -0.0743387 0
M  V30 5046 C 481.519 -1.272 3.36886 0
M  V30 5047 C 481.372 -0.215938 4.49281 0
M  V30 5048 C 482.691 -2.19069 3.81703 0
M  V30 5049 H 479.81 -0.236047 0.698177 0
M  V30 5050 H 482.452 0.0835236 1.89816 0
M  V30 5051 H 480.602 -1.90005 3.38866 0
M  V30 5052 H 482.274 0.41449 4.59434 0
M  V30 5053 H 480.517 0.458855 4.31366 0
M  V30 5054 H 481.188 -0.688347 5.47691 0
M  V30 5055 H 483.664 -1.66253 3.81444 0
M  V30 5056 H 482.54 -2.59307 4.83788 0
M  V30 5057 H 482.801 -3.08087 3.17072 0
M  V30 5058 N 481.861 -1.55662 -0.24637 0
M  V30 5059 C 483.109 -1.77168 -0.972411 0
M  V30 5060 C 483.43 -0.590827 -1.85834 0
M  V30 5061 O 482.7 0.393365 -1.9191 0
M  V30 5062 H 481.28 -0.653405 -0.362038 0
M  V30 5063 H 483.942 -1.93101 -0.264189 0
M  V30 5064 H 483.038 -2.68335 -1.59382 0
M  V30 5065 N 483.339 0.512053 -1.4905 0
M  V30 5066 C 484.286 1.6148 -1.64902 0
M  V30 5067 C 485.256 1.58687 -0.490673 0
M  V30 5068 O 486.441 1.76842 -0.71636 0
M  V30 5069 C 483.581 2.99676 -1.71139 0
M  V30 5070 C 482.694 3.12568 -2.98203 0
M  V30 5071 C 481.829 4.4143 -2.95487 0
M  V30 5072 C 480.868 4.47916 -4.17179 0
M  V30 5073 N 480.005 5.68191 -4.12437 0
M  V30 5074 H 484.845 1.47271 -2.59066 0
M  V30 5075 H 482.382 0.716713 -1.28459 0
M  V30 5076 H 484.34 3.79761 -1.72736 0
M  V30 5077 H 482.97 3.12614 -0.804508 0
M  V30 5078 H 482.022 2.25618 -3.06269 0
M  V30 5079 H 483.334 3.1322 -3.88194 0
M  V30 5080 H 482.488 5.29825 -2.95585 0
M  V30 5081 H 481.227 4.43326 -2.03256 0
M  V30 5082 H 480.232 3.57925 -4.17337 0
M  V30 5083 H 481.457 4.47744 -5.1059 0
M  V30 5084 H 479.403 5.7095 -3.23036 0
M  V30 5085 H 479.32 5.70413 -4.96151 0
M  V30 5086 H 480.588 6.58823 -4.16621 0
M  V30 5087 N 484.817 1.37938 0.762283 0
M  V30 5088 C 485.765 1.34569 1.89721 0
M  V30 5089 C 486.759 0.232929 1.67791 0
M  V30 5090 O 487.965 0.401485 1.75465 0
M  V30 5091 H 484.34 0.419594 0.624055 0
M  V30 5092 H 486.311 2.30357 1.8968 0
M  V30 5093 C 485.06 1.17898 3.27101 0
M  V30 5094 H 484.383 2.02781 3.44558 0
M  V30 5095 H 485.823 1.19593 4.06784 0
M  V30 5096 C 484.282 -0.114728 3.36705 0
M  V30 5097 O 484.812 -1.0949 3.8649 0
M  V30 5098 N 483.018 -0.16863 2.9011 0
M  V30 5099 H 482.565 0.62967 2.49786 0
M  V30 5100 H 482.523 -1.03383 2.96916 0
M  V30 5101 N 486.295 -0.989507 1.22664 0
M  V30 5102 C 487.258 -2.06183 1.00106 0
M  V30 5103 C 488.258 -1.60765 -0.0337726 0
M  V30 5104 O 489.448 -1.72989 0.205072 0
M  V30 5105 C 486.58 -3.37021 0.51279 0
M  V30 5106 H 487.773 -2.27629 1.95256 0
M  V30 5107 H 485.326 -1.16158 1.0458 0
M  V30 5108 H 486.061 -3.21261 -0.442917 0
M  V30 5109 H 485.846 -3.71323 1.25942 0
M  V30 5110 H 487.336 -4.1591 0.375315 0
M  V30 5111 N 487.773 -1.03688 -1.18687 0
M  V30 5112 C 489.02 -0.73803 -1.88572 0
M  V30 5113 C 489.348 0.733973 -1.8012 0
M  V30 5114 O 488.603 1.55098 -1.19344 0
M  V30 5115 C 488.902 -1.14477 -3.3857 0
M  V30 5116 C 488.568 -2.61641 -3.67226 0
M  V30 5117 C 487.23 -3.01846 -3.74757 0
M  V30 5118 C 489.582 -3.56812 -3.79914 0
M  V30 5119 C 486.91 -4.36118 -3.92451 0
M  V30 5120 C 489.262 -4.90799 -3.99123 0
M  V30 5121 C 487.926 -5.3068 -4.04888 0
M  V30 5122 H 487.196 -0.270064 -0.690034 0
M  V30 5123 H 489.843 -1.3012 -1.40503 0
M  V30 5124 H 488.148 -0.500337 -3.88592 0
M  V30 5125 H 489.845 -0.89095 -3.90977 0
M  V30 5126 H 486.435 -2.29498 -3.61979 0
M  V30 5127 H 490.619 -3.26899 -3.73431 0
M  V30 5128 H 485.875 -4.66542 -3.95157 0
M  V30 5129 H 490.049 -5.64451 -4.07882 0
M  V30 5130 H 487.676 -6.34733 -4.18351 0
M  V30 5131 N 489.251 1.34841 -0.815825 0
M  V30 5132 C 490.183 2.28409 -0.190265 0
M  V30 5133 C 491.196 1.50705 0.615771 0
M  V30 5134 O 492.385 1.72822 0.446616 0
M  V30 5135 C 489.485 3.30441 0.752446 0
M  V30 5136 C 488.658 4.37399 -0.00922152 0
M  V30 5137 C 487.717 5.19234 0.853351 0
M  V30 5138 O 486.743 5.68404 0.300919 0
M  V30 5139 N 487.945 5.38248 2.17416 0
M  V30 5140 H 490.71 2.82732 -0.994114 0
M  V30 5141 H 488.271 1.47289 -0.672129 0
M  V30 5142 H 490.263 3.82084 1.33394 0
M  V30 5143 H 488.833 2.76565 1.45707 0
M  V30 5144 H 488.053 3.86567 -0.771979 0
M  V30 5145 H 489.341 5.05992 -0.533807 0
M  V30 5146 H 488.739 4.99961 2.6468 0
M  V30 5147 H 487.296 5.93035 2.70467 0
M  V30 5148 N 490.729 0.570148 1.46925 0
M  V30 5149 C 491.954 0.0542592 2.07329 0
M  V30 5150 C 492.379 -1.23582 1.41806 0
M  V30 5151 O 491.737 -1.74341 0.497479 0
M  V30 5152 C 491.785 -0.111175 3.60429 0
M  V30 5153 O 490.889 -1.17071 3.95434 0
M  V30 5154 H 490.23 0.0571425 0.661537 0
M  V30 5155 H 492.76 0.789516 1.88753 0
M  V30 5156 H 492.77 -0.321315 4.06733 0
M  V30 5157 H 491.445 0.831012 4.07513 0
M  V30 5158 H 490.022 -0.940029 3.60857 0
M  V30 5159 N 492.207 -1.54576 0.307264 0
M  V30 5160 C 493.435 -2.04675 -0.302597 0
M  V30 5161 C 493.85 -1.18425 -1.47041 0
M  V30 5162 O 493.207 -0.211257 -1.81273 0
M  V30 5163 C 493.258 -3.53575 -0.752801 0
M  V30 5164 O 492.979 -4.36547 0.368536 0
M  V30 5165 C 494.48 -4.19699 -1.42717 0
M  V30 5166 H 491.7 -0.66786 -0.0648374 0
M  V30 5167 H 494.244 -1.99516 0.448716 0
M  V30 5168 H 492.399 -3.59074 -1.45412 0
M  V30 5169 H 492.813 -5.24497 0.0168937 0
M  V30 5170 H 494.287 -5.25388 -1.69327 0
M  V30 5171 H 494.764 -3.69815 -2.36925 0
M  V30 5172 H 495.37 -4.18293 -0.768856 0
M  V30 5173 N 493.685 -0.035106 -1.57561 0
M  V30 5174 C 494.913 0.652258 -1.9635 0
M  V30 5175 C 495.328 1.65317 -0.911897 0
M  V30 5176 O 494.685 1.82194 0.105657 0
M  V30 5177 C 494.736 1.35337 -3.35211 0
M  V30 5178 O 494.457 0.392548 -4.36338 0
M  V30 5179 C 495.958 2.13199 -3.88666 0
M  V30 5180 H 493.178 0.179444 -0.646561 0
M  V30 5181 H 495.722 -0.0966459 -2.04271 0
M  V30 5182 H 493.877 2.05362 -3.28489 0
M  V30 5183 H 494.291 0.891097 -5.16875 0
M  V30 5184 H 495.765 2.577 -4.88154 0
M  V30 5185 H 496.242 2.97353 -3.23231 0
M  V30 5186 H 496.848 1.48118 -3.98674 0
M  V30 5187 N 495.163 1.55791 0.238111 0
M  V30 5188 C 496.44 1.68798 0.98826 0
M  V30 5189 C 496.82 0.577562 2.03045 0
M  V30 5190 O 496.168 -0.41778 2.24648 0
M  V30 5191 C 496.378 3.09454 1.61367 0
M  V30 5192 C 497.726 3.68335 2.11221 0
M  V30 5193 O 498.75 3.1231 1.71292 0
M  V30 5194 O 497.609 4.6657 2.84561 0
M  V30 5195 H 494.703 0.686881 0.460568 0
M  V30 5196 H 497.249 1.68118 0.231202 0
M  V30 5197 H 496.021 3.81726 0.860295 0
M  V30 5198 H 495.644 3.14182 2.4367 0
M  V30 5199 N 496.642 -0.504142 1.49319 0
M  V30 5200 C 498.058 -0.835039 1.36012 0
M  V30 5201 C 498.258 -1.97674 0.390808 0
M  V30 5202 O 497.314 -2.51867 -0.178655 0
M  V30 5203 C 498.627 -1.17821 2.76656 0
M  V30 5204 C 500.175 -1.2866 2.85334 0
M  V30 5205 C 500.65 -1.66307 4.26739 0
M  V30 5206 N 502.141 -1.73362 4.29534 0
M  V30 5207 C 502.876 -2.0393 5.35911 0
M  V30 5208 N 502.372 -2.32744 6.52535 0
M  V30 5209 N 504.165 -2.05155 5.23324 0
M  V30 5210 H 496.316 0.248764 2.10938 0
M  V30 5211 H 498.579 0.0486962 0.946748 0
M  V30 5212 H 498.285 -0.412682 3.4927 0
M  V30 5213 H 498.159 -2.12239 3.11825 0
M  V30 5214 H 500.546 -2.04285 2.1296 0
M  V30 5215 H 500.627 -0.323004 2.53752 0
M  V30 5216 H 500.271 -0.91234 4.99639 0
M  V30 5217 H 500.201 -2.63761 4.55782 0
M  V30 5218 H 502.692 -1.53268 3.45424 0
M  V30 5219 H 503.005 -2.55248 7.2943 0
M  V30 5220 H 501.35 -2.30207 6.55767 0
M  V30 5221 H 504.541 -1.82119 4.3122 0
M  V30 5222 H 504.714 -2.28644 6.06322 0
M  V30 5223 N 498.12 -1.38341 -0.754957 0
M  V30 5224 C 499.369 -1.33791 -1.5094 0
M  V30 5225 C 499.682 0.0699267 -1.95475 0
M  V30 5226 O 500.888 0.237956 -2.70455 0
M  V30 5227 C 499.344 -2.34934 -2.72643 0
M  V30 5228 C 498.952 -3.81332 -2.35138 0
M  V30 5229 C 500.696 -2.39425 -3.50536 0
M  V30 5230 C 498.603 -4.74164 -3.53444 0
M  V30 5231 H 497.533 -0.497314 -0.566741 0
M  V30 5232 H 500.184 -1.63888 -0.825403 0
M  V30 5233 H 498.566 -1.97878 -3.43017 0
M  V30 5234 H 499.74 -4.27319 -1.7244 0
M  V30 5235 H 498.055 -3.79946 -1.70382 0
M  V30 5236 H 500.652 -3.0598 -4.38498 0
M  V30 5237 H 500.995 -1.41278 -3.91594 0
M  V30 5238 H 501.528 -2.75274 -2.87174 0
M  V30 5239 H 498.267 -5.73501 -3.17453 0
M  V30 5240 H 497.787 -4.3287 -4.15191 0
M  V30 5241 H 499.466 -4.92111 -4.20043 0
M  V30 5242 N 499.598 0.982988 -1.23187 0
M  V30 5243 C 500.545 2.07491 -1.01075 0
M  V30 5244 C 501.515 1.65949 0.070905 0
M  V30 5245 O 502.7 1.90629 -0.0806822 0
M  V30 5246 C 499.84 3.39751 -0.605261 0
M  V30 5247 C 498.953 3.94578 -1.75876 0
M  V30 5248 C 498.088 5.15039 -1.3003 0
M  V30 5249 C 497.127 5.62027 -2.42472 0
M  V30 5250 N 496.264 6.73719 -1.97602 0
M  V30 5251 H 501.104 2.25739 -1.9454 0
M  V30 5252 H 498.641 1.10659 -0.969179 0
M  V30 5253 H 500.599 4.15719 -0.351279 0
M  V30 5254 H 499.229 3.21473 0.292382 0
M  V30 5255 H 498.281 3.1539 -2.12681 0
M  V30 5256 H 499.593 4.25422 -2.60418 0
M  V30 5257 H 498.747 5.9833 -1.00429 0
M  V30 5258 H 497.486 4.85843 -0.425216 0
M  V30 5259 H 496.491 4.77318 -2.7285 0
M  V30 5260 H 497.716 5.93244 -3.30512 0
M  V30 5261 H 495.662 6.46287 -1.1247 0
M  V30 5262 H 495.579 7.03934 -2.75705 0
M  V30 5263 H 496.847 7.6049 -1.71098 0
M  V30 5264 N 501.076 1.04316 1.18135 0
M  V30 5265 C 502.492 0.762858 1.40188 0
M  V30 5266 C 502.692 -0.646547 1.90846 0
M  V30 5267 O 501.748 -1.41036 2.0944 0
M  V30 5268 C 503.061 1.81106 2.40044 0
M  V30 5269 C 504.609 1.83226 2.53766 0
M  V30 5270 C 505.084 2.87044 3.56889 0
M  V30 5271 N 506.575 2.85951 3.64398 0
M  V30 5272 C 507.31 3.62932 4.43923 0
M  V30 5273 N 506.806 4.49672 5.27036 0
M  V30 5274 N 508.599 3.51411 4.38711 0
M  V30 5275 H 500.75 1.95264 0.835805 0
M  V30 5276 H 503.013 0.845017 0.429709 0
M  V30 5277 H 502.719 2.82214 2.09876 0
M  V30 5278 H 502.593 1.64529 3.39426 0
M  V30 5279 H 504.98 0.827869 2.8325 0
M  V30 5280 H 505.061 2.03879 1.54489 0
M  V30 5281 H 504.705 3.87663 3.28145 0
M  V30 5282 H 504.635 2.63645 4.5585 0
M  V30 5283 H 507.126 2.23051 3.05052 0
M  V30 5284 H 507.439 5.05116 5.84874 0
M  V30 5285 H 505.784 4.53738 5.26447 0
M  V30 5286 H 508.975 2.83047 3.72829 0
M  V30 5287 H 509.148 4.11654 5.00445 0
M  V30 5288 N 502.554 -1.34406 0.822964 0
M  V30 5289 C 503.464 -2.33298 0.246838 0
M  V30 5290 C 504.48 -1.62625 -0.618797 0
M  V30 5291 O 505.656 -1.94391 -0.526685 0
M  V30 5292 C 502.721 -3.41785 -0.581731 0
M  V30 5293 C 501.782 -4.28206 0.306309 0
M  V30 5294 C 501.015 -5.31512 -0.48281 0
M  V30 5295 O 501.238 -5.43973 -1.71607 0
M  V30 5296 O 500.172 -6.01749 0.134884 0
M  V30 5297 H 503.998 -2.84401 1.06534 0
M  V30 5298 H 501.583 -1.37466 0.585108 0
M  V30 5299 H 503.465 -4.08028 -1.05313 0
M  V30 5300 H 502.14 -2.92925 -1.37756 0
M  V30 5301 H 501.047 -3.64885 0.825199 0
M  V30 5302 H 502.38 -4.80507 1.06649 0
M  V30 5303 N 504.032 -0.577932 -1.46621 0
M  V30 5304 C 504.995 0.147805 -2.28723 0
M  V30 5305 C 505.995 0.823325 -1.38123 0
M  V30 5306 O 507.185 0.676011 -1.60548 0
M  V30 5307 C 504.317 1.21853 -3.18378 0
M  V30 5308 H 505.51 -0.573654 -2.94362 0
M  V30 5309 H 503.063 -0.335703 -1.52652 0
M  V30 5310 H 503.798 1.97173 -2.57475 0
M  V30 5311 H 503.583 0.738714 -3.85078 0
M  V30 5312 H 505.073 1.72768 -3.80186 0
M  V30 5313 N 505.51 1.54411 -0.315457 0
M  V30 5314 C 506.457 2.24048 0.554166 0
M  V30 5315 C 507.427 1.2283 1.11812 0
M  V30 5316 O 508.612 1.51491 1.15997 0
M  V30 5317 C 505.752 2.99574 1.71316 0
M  V30 5318 C 504.865 4.15594 1.17922 0
M  V30 5319 C 504 4.78669 2.30324 0
M  V30 5320 C 503.039 5.86807 1.74137 0
M  V30 5321 N 502.176 6.43777 2.8017 0
M  V30 5322 H 507.016 2.97964 -0.0462602 0
M  V30 5323 H 504.553 1.47059 -0.0346009 0
M  V30 5324 H 506.511 3.41604 2.39505 0
M  V30 5325 H 505.141 2.28008 2.285 0
M  V30 5326 H 504.193 3.78404 0.389136 0
M  V30 5327 H 505.505 4.93459 0.728012 0
M  V30 5328 H 504.659 5.23626 3.06433 0
M  V30 5329 H 503.398 4.00168 2.78778 0
M  V30 5330 H 502.403 5.41261 0.965236 0
M  V30 5331 H 503.628 6.67201 1.2657 0
M  V30 5332 H 501.574 5.68153 3.2793 0
M  V30 5333 H 501.491 7.17031 2.39588 0
M  V30 5334 H 502.759 6.9339 3.56132 0
M  V30 5335 N 506.988 0.0434614 1.5754 0
M  V30 5336 C 507.951 -0.918696 2.09982 0
M  V30 5337 C 508.951 -1.24488 1.01781 0
M  V30 5338 O 510.141 -1.18284 1.27885 0
M  V30 5339 C 507.273 -2.23093 2.57764 0
M  V30 5340 H 508.466 -0.464229 2.96285 0
M  V30 5341 H 506.019 -0.204818 1.54952 0
M  V30 5342 H 506.754 -2.73137 1.74832 0
M  V30 5343 H 506.539 -2.00724 3.36827 0
M  V30 5344 H 508.029 -2.92028 2.98512 0
M  V30 5345 N 508.466 -1.55915 -0.229846 0
M  V30 5346 C 509.882 -1.48721 -0.579166 0
M  V30 5347 C 510.082 -0.736976 -1.87539 0
M  V30 5348 O 509.138 -0.273258 -2.51017 0
M  V30 5349 C 510.451 -2.9323 -0.666082 0
M  V30 5350 C 511.999 -3.03701 -0.757267 0
M  V30 5351 C 512.474 -4.49552 -0.8756 0
M  V30 5352 N 513.965 -4.53561 -0.940035 0
M  V30 5353 C 514.7 -5.63683 -1.05116 0
M  V30 5354 N 514.196 -6.83576 -1.12675 0
M  V30 5355 N 515.989 -5.51516 -1.08565 0
M  V30 5356 H 508.14 -2.03123 0.620857 0
M  V30 5357 H 510.403 -0.922898 0.21671 0
M  V30 5358 H 510.109 -3.51032 0.21664 0
M  V30 5359 H 509.983 -3.44668 -1.53243 0
M  V30 5360 H 512.37 -2.45969 -1.63043 0
M  V30 5361 H 512.451 -2.55446 0.134583 0
M  V30 5362 H 512.095 -5.079 -0.00692351 0
M  V30 5363 H 512.025 -4.95506 -1.78274 0
M  V30 5364 H 514.516 -3.67215 -0.892269 0
M  V30 5365 H 514.829 -7.63251 -1.21109 0
M  V30 5366 H 513.174 -6.86303 -1.09603 0
M  V30 5367 H 516.365 -4.5678 -1.02319 0
M  V30 5368 H 516.538 -6.37372 -1.1688 0
M  V30 5369 N 509.944 0.496216 -1.49584 0
M  V30 5370 C 510.892 1.61805 -1.67098 0
M  V30 5371 C 511.886 1.60667 -0.536877 0
M  V30 5372 O 513.092 1.65118 -0.716654 0
M  V30 5373 H 509.467 0.53646 -0.526986 0
M  V30 5374 H 511.438 1.44187 -2.61252 0
M  V30 5375 C 510.187 2.99912 -1.75921 0
M  V30 5376 H 509.51 3.01496 -2.62565 0
M  V30 5377 H 510.95 3.77931 -1.92209 0
M  V30 5378 C 509.409 3.33092 -0.505088 0
M  V30 5379 O 509.939 4.00019 0.367085 0
M  V30 5380 N 508.145 2.88278 -0.366599 0
M  V30 5381 H 507.692 2.33989 -1.07735 0
M  V30 5382 H 507.65 3.10846 0.47142 0
M  V30 5383 N 511.423 1.38739 0.74761 0
M  V30 5384 C 512.353 1.39173 1.87492 0
M  V30 5385 C 513.334 0.256794 1.6815 0
M  V30 5386 O 514.519 0.460762 1.88655 0
M  V30 5387 C 511.649 1.22197 3.25093 0
M  V30 5388 C 510.603 2.32957 3.59047 0
M  V30 5389 C 509.929 2.01082 4.95449 0
M  V30 5390 C 511.229 3.75237 3.6331 0
M  V30 5391 H 512.923 2.3351 1.87386 0
M  V30 5392 H 510.469 1.12399 0.900134 0
M  V30 5393 H 512.422 1.21124 4.03617 0
M  V30 5394 H 511.146 0.243241 3.25693 0
M  V30 5395 H 509.805 2.33226 2.82845 0
M  V30 5396 H 509.453 1.01678 4.92616 0
M  V30 5397 H 509.153 2.75267 5.19136 0
M  V30 5398 H 510.677 2.01638 5.76346 0
M  V30 5399 H 512.091 3.76966 4.31937 0
M  V30 5400 H 510.488 4.48677 3.98509 0
M  V30 5401 H 511.558 4.07122 2.634 0
M  V30 5402 N 512.901 -0.976442 1.23707 0
M  V30 5403 C 514.129 -1.75341 1.09833 0
M  V30 5404 C 514.544 -1.8553 -0.349885 0
M  V30 5405 O 513.901 -1.33732 -1.24185 0
M  V30 5406 C 513.952 -3.17833 1.72233 0
M  V30 5407 O 513.673 -3.08167 3.11391 0
M  V30 5408 C 515.174 -4.11906 1.63853 0
M  V30 5409 H 512.394 -0.550137 0.384175 0
M  V30 5410 H 514.938 -1.2265 1.63638 0
M  V30 5411 H 513.093 -3.67538 1.22452 0
M  V30 5412 H 513.507 -3.97897 3.41729 0
M  V30 5413 H 514.981 -5.09579 2.12211 0
M  V30 5414 H 515.458 -4.35109 0.598092 0
M  V30 5415 H 516.064 -3.68107 2.13019 0
M  V30 5416 N 514.379 -1.04941 -1.1758 0
M  V30 5417 C 515.309 -0.669172 -2.23706 0
M  V30 5418 C 516.29 0.331835 -1.66832 0
M  V30 5419 O 517.475 0.209988 -1.93061 0
M  V30 5420 C 514.605 -0.0404889 -3.47276 0
M  V30 5421 C 513.559 -0.965983 -4.16957 0
M  V30 5422 C 512.885 -0.201312 -5.34321 0
M  V30 5423 C 514.185 -2.28902 -4.69469 0
M  V30 5424 H 515.879 -1.55639 -2.55767 0
M  V30 5425 H 513.425 -0.749793 -1.22939 0
M  V30 5426 H 515.378 0.237298 -4.20731 0
M  V30 5427 H 514.102 0.881658 -3.14475 0
M  V30 5428 H 512.761 -1.22829 -3.45411 0
M  V30 5429 H 512.409 0.723519 -4.97769 0
M  V30 5430 H 512.109 -0.817968 -5.81879 0
M  V30 5431 H 513.633 0.0692499 -6.10561 0
M  V30 5432 H 515.047 -2.07132 -5.34574 0
M  V30 5433 H 513.444 -2.85942 -5.27596 0
M  V30 5434 H 514.514 -2.92937 -3.86414 0
M  V30 5435 N 515.857 1.33968 -0.830081 0
M  V30 5436 C 517.273 1.51003 -0.516742 0
M  V30 5437 C 517.473 1.77286 0.957694 0
M  V30 5438 O 516.529 1.82797 1.74188 0
M  V30 5439 C 517.842 2.67036 -1.38247 0
M  V30 5440 C 519.39 2.80919 -1.38034 0
M  V30 5441 C 519.865 4.00004 -2.23071 0
M  V30 5442 N 521.356 4.07224 -2.20733 0
M  V30 5443 C 522.091 4.98541 -2.83275 0
M  V30 5444 N 521.587 5.95033 -3.54835 0
M  V30 5445 N 523.38 4.91469 -2.72791 0
M  V30 5446 H 515.531 1.15168 -1.78466 0
M  V30 5447 H 517.794 0.565443 -0.760906 0
M  V30 5448 H 517.5 2.54266 -2.42985 0
M  V30 5449 H 517.374 3.62226 -1.05225 0
M  V30 5450 H 519.761 2.93127 -0.340713 0
M  V30 5451 H 519.842 1.86517 -1.75057 0
M  V30 5452 H 519.486 3.88557 -3.27087 0
M  V30 5453 H 519.416 4.93634 -1.83394 0
M  V30 5454 H 521.907 3.38162 -1.68687 0
M  V30 5455 H 522.22 6.61357 -3.99784 0
M  V30 5456 H 520.565 5.95135 -3.58942 0
M  V30 5457 H 523.756 4.15048 -2.16456 0
M  V30 5458 H 523.929 5.62439 -3.21818 0
M  V30 5459 N 517.335 0.585699 1.46312 0
M  V30 5460 C 518.245 -0.148236 2.34131 0
M  V30 5461 C 519.261 -0.882972 1.49932 0
M  V30 5462 O 520.437 -0.845484 1.82794 0
M  V30 5463 C 517.502 -1.14714 3.27172 0
M  V30 5464 C 516.563 -0.416746 4.27272 0
M  V30 5465 C 515.796 -1.36806 5.15868 0
M  V30 5466 O 516.019 -2.60475 5.07454 0
M  V30 5467 O 514.953 -0.877018 5.95476 0
M  V30 5468 H 518.779 0.572882 2.98248 0
M  V30 5469 H 516.364 0.346082 1.45336 0
M  V30 5470 H 518.246 -1.72303 3.84564 0
M  V30 5471 H 516.921 -1.84967 2.65648 0
M  V30 5472 H 515.828 0.201061 3.73559 0
M  V30 5473 H 517.161 0.244872 4.9159 0
M  V30 5474 N 518.813 -1.54241 0.323641 0
M  V30 5475 C 520.059 -2.00867 -0.279323 0
M  V30 5476 C 520.392 -1.21146 -1.5178 0
M  V30 5477 O 519.667 -0.29378 -1.92269 0
M  V30 5478 C 519.95 -3.54837 -0.613387 0
M  V30 5479 C 519.803 -4.45284 0.635803 0
M  V30 5480 C 521.122 -4.16186 -1.43099 0
M  V30 5481 H 518.241 -0.730177 -0.100049 0
M  V30 5482 H 520.883 -1.84829 0.440235 0
M  V30 5483 H 519.033 -3.68634 -1.22641 0
M  V30 5484 H 520.705 -4.43357 1.27406 0
M  V30 5485 H 518.948 -4.14956 1.26466 0
M  V30 5486 H 519.619 -5.5084 0.357597 0
M  V30 5487 H 522.095 -4.05964 -0.912814 0
M  V30 5488 H 520.971 -5.24031 -1.6335 0
M  V30 5489 H 521.232 -3.69516 -2.42715 0
M  V30 5490 N 520.291 -0.0518155 -1.57515 0
M  V30 5491 C 521.254 0.907547 -2.10467 0
M  V30 5492 C 522.254 1.23947 -1.02439 0
M  V30 5493 O 523.444 1.17604 -1.2851 0
M  V30 5494 C 520.576 2.21723 -2.58944 0
M  V30 5495 H 521.769 0.44851 -2.96527 0
M  V30 5496 H 519.322 0.196598 -1.55059 0
M  V30 5497 H 520.057 2.72206 -1.76279 0
M  V30 5498 H 519.842 1.98935 -3.37886 0
M  V30 5499 H 521.332 2.90441 -3.00056 0
M  V30 5500 N 521.769 1.56035 0.221574 0
M  V30 5501 C 522.701 1.889 1.29805 0
M  V30 5502 C 523.714 0.777269 1.43047 0
M  V30 5503 O 524.903 1.05557 1.43945 0
M  V30 5504 C 522.003 2.0825 2.67367 0
M  V30 5505 C 521.176 3.39267 2.76073 0
M  V30 5506 C 520.235 3.48049 3.94649 0
M  V30 5507 O 519.261 4.2108 3.82988 0
M  V30 5508 N 520.463 2.79191 5.08953 0
M  V30 5509 H 523.228 2.81831 1.01938 0
M  V30 5510 H 520.789 1.5658 0.411612 0
M  V30 5511 H 522.781 2.11441 3.45072 0
M  V30 5512 H 521.351 1.21944 2.87834 0
M  V30 5513 H 520.571 3.48175 1.84846 0
M  V30 5514 H 521.859 4.25575 2.7886 0
M  V30 5515 H 521.257 2.19635 5.21322 0
M  V30 5516 H 519.814 2.88043 5.84701 0
M  V30 5517 N 523.247 -0.488276 1.49845 0
M  V30 5518 C 524.157 -1.61451 1.70207 0
M  V30 5519 C 525.173 -1.63877 0.584846 0
M  V30 5520 O 526.349 -1.82063 0.861107 0
M  V30 5521 C 523.414 -2.9776 1.77594 0
M  V30 5522 C 522.475 -3.05861 3.01243 0
M  V30 5523 C 521.708 -4.35668 3.08268 0
M  V30 5524 O 521.931 -5.25197 2.22541 0
M  V30 5525 O 520.865 -4.49005 4.00847 0
M  V30 5526 H 524.691 -1.47199 2.65643 0
M  V30 5527 H 522.276 -0.665939 1.33737 0
M  V30 5528 H 524.158 -3.7875 1.84732 0
M  V30 5529 H 522.833 -3.12248 0.8534 0
M  V30 5530 H 521.74 -2.24012 2.99616 0
M  V30 5531 H 523.073 -2.96304 3.9302 0
M  V30 5532 N 524.725 -1.39134 -0.740242 0
M  V30 5533 C 525.658 -1.3182 -1.86276 0
M  V30 5534 C 526.636 -0.192794 -1.61453 0
M  V30 5535 O 527.82 -0.372365 -1.84786 0
M  V30 5536 C 524.947 -1.04564 -3.22155 0
M  V30 5537 C 523.993 -2.19224 -3.65846 0
M  V30 5538 S 524.826 -3.81466 -3.75824 0
M  V30 5539 C 525.982 -3.56425 -5.14502 0
M  V30 5540 H 526.215 -2.26822 -1.92195 0
M  V30 5541 H 523.748 -1.25127 -0.904576 0
M  V30 5542 H 525.706 -0.895228 -4.00619 0
M  V30 5543 H 524.367 -0.112578 -3.13898 0
M  V30 5544 H 523.56 -1.95732 -4.6444 0
M  V30 5545 H 523.162 -2.30441 -2.94572 0
M  V30 5546 H 525.454 -3.13366 -6.00673 0
M  V30 5547 H 526.397 -4.54462 -5.43019 0
M  V30 5548 H 526.805 -2.90641 -4.8393 0
M  V30 5549 N 526.204 0.969867 -1.24223 0
M  V30 5550 C 527.167 2.04564 -1.03373 0
M  V30 5551 C 528.167 1.60798 0.00819206 0
M  V30 5552 O 529.357 1.72641 -0.232567 0
M  V30 5553 C 526.489 3.36163 -0.566343 0
M  V30 5554 H 527.682 2.24494 -1.98853 0
M  V30 5555 H 525.235 1.1448 -1.06415 0
M  V30 5556 H 525.97 3.21925 0.391751 0
M  V30 5557 H 525.755 3.69273 -1.31834 0
M  V30 5558 H 527.245 4.1526 -0.441435 0
M  V30 5559 N 527.682 1.05563 1.17022 0
M  V30 5560 C 528.929 0.767937 1.87374 0
M  V30 5561 C 529.257 -0.705224 1.81265 0
M  V30 5562 O 528.512 -1.5318 1.21796 0
M  V30 5563 C 528.811 1.19849 3.36706 0
M  V30 5564 C 528.477 2.6745 3.63017 0
M  V30 5565 C 527.139 3.0777 3.69907 0
M  V30 5566 C 529.491 3.62811 3.74189 0
M  V30 5567 C 526.819 4.42307 3.85463 0
M  V30 5568 C 529.171 4.97087 3.91264 0
M  V30 5569 C 527.835 5.37055 3.96394 0
M  V30 5570 H 527.105 0.281008 0.68565 0
M  V30 5571 H 529.752 1.32339 1.38415 0
M  V30 5572 H 528.057 0.562096 3.87747 0
M  V30 5573 H 529.754 0.953038 3.8951 0
M  V30 5574 H 526.344 2.35228 3.58282 0
M  V30 5575 H 530.528 3.32798 3.68183 0
M  V30 5576 H 525.784 4.72769 3.87684 0
M  V30 5577 H 529.958 5.70869 3.9885 0
M  V30 5578 H 527.585 6.41308 4.082 0
M  V30 5579 N 529.16 -1.33526 0.837174 0
M  V30 5580 C 530.571 -1.80182 0.489017 0
M  V30 5581 C 530.922 -1.69285 -0.991826 0
M  V30 5582 O 530.047 -1.24113 -1.77271 0
M  V30 5583 C 530.642 -3.27149 0.880866 0
M  V30 5584 C 529.201 -3.71828 0.584872 0
M  V30 5585 C 528.348 -2.54974 1.09011 0
M  V30 5586 H 531.299 -1.21071 1.02603 0
M  V30 5587 H 531.32 -3.80024 0.190239 0
M  V30 5588 H 530.832 -3.35048 1.95869 0
M  V30 5589 H 528.933 -3.69457 -0.48295 0
M  V30 5590 H 529.046 -4.65366 1.13892 0
M  V30 5591 H 527.41 -2.4952 0.511047 0
M  V30 5592 H 528.193 -2.65637 2.17467 0
M  V30 5593 N 530.638 -0.59345 -1.46 0
M  V30 5594 C 532.054 -0.255965 -1.57534 0
M  V30 5595 C 532.254 1.24167 -1.58697 0
M  V30 5596 O 531.31 2.02398 -1.50968 0
M  V30 5597 C 532.623 -0.91466 -2.86451 0
M  V30 5598 C 534.171 -0.889253 -3.00102 0
M  V30 5599 C 534.646 -1.52769 -4.3177 0
M  V30 5600 N 536.137 -1.49253 -4.38495 0
M  V30 5601 C 536.872 -1.9558 -5.39014 0
M  V30 5602 N 536.368 -2.49929 -6.46148 0
M  V30 5603 N 538.161 -1.86432 -5.30282 0
M  V30 5604 H 530.312 -1.56604 -1.43489 0
M  V30 5605 H 532.575 -0.655207 -0.685133 0
M  V30 5606 H 532.281 -1.96861 -2.91442 0
M  V30 5607 H 532.155 -0.429356 -3.74748 0
M  V30 5608 H 534.542 0.156111 -2.94687 0
M  V30 5609 H 534.623 -1.41268 -2.13253 0
M  V30 5610 H 534.267 -2.57231 -4.37944 0
M  V30 5611 H 534.197 -0.979398 -5.17412 0
M  V30 5612 H 536.688 -1.09536 -3.61677 0
M  V30 5613 H 537.001 -2.83109 -7.19075 0
M  V30 5614 H 535.346 -2.53961 -6.46938 0
M  V30 5615 H 538.537 -1.43722 -4.4549 0
M  V30 5616 H 538.71 -2.22852 -6.08474 0
M  V30 5617 N 532.116 1.54067 -0.331816 0
M  V30 5618 C 533.344 2.05131 0.269996 0
M  V30 5619 C 533.759 1.20749 1.45138 0
M  V30 5620 O 533.116 0.240069 1.80914 0
M  V30 5621 C 533.167 3.54728 0.696456 0
M  V30 5622 O 532.888 4.35906 -0.43794 0
M  V30 5623 C 534.389 4.21916 1.36021 0
M  V30 5624 H 531.609 0.668807 0.0542042 0
M  V30 5625 H 534.153 1.98777 -0.4804 0
M  V30 5626 H 532.308 3.61342 1.39681 0
M  V30 5627 H 532.722 5.24404 -0.100334 0
M  V30 5628 H 534.196 5.28015 1.60947 0
M  V30 5629 H 534.673 3.73538 2.31011 0
M  V30 5630 H 535.279 4.19463 0.702212 0
M  V30 5631 N 533.594 0.0601682 1.57485 0
M  V30 5632 C 534.524 -0.90889 2.15085 0
M  V30 5633 C 535.505 -1.31838 1.07484 0
M  V30 5634 O 536.69 -1.3915 1.35466 0
M  V30 5635 C 533.82 -2.18059 2.7031 0
M  V30 5636 C 532.774 -1.91088 3.82974 0
M  V30 5637 C 532.1 -3.24789 4.24754 0
M  V30 5638 C 533.4 -1.22535 5.07723 0
M  V30 5639 H 535.094 -0.429093 2.96309 0
M  V30 5640 H 532.64 -0.204952 1.42534 0
M  V30 5641 H 534.593 -2.86258 3.09248 0
M  V30 5642 H 533.317 -2.6826 1.8629 0
M  V30 5643 H 531.976 -1.25297 3.44523 0
M  V30 5644 H 531.624 -3.72809 3.37672 0
M  V30 5645 H 531.324 -3.07538 5.00694 0
M  V30 5646 H 532.848 -3.94205 4.66299 0
M  V30 5647 H 534.262 -1.80783 5.4405 0
M  V30 5648 H 532.659 -1.1558 5.88864 0
M  V30 5649 H 533.729 -0.202692 4.84476 0
M  V30 5650 N 535.072 -1.5615 -0.213296 0
M  V30 5651 C 536.319 -1.79546 -0.936462 0
M  V30 5652 C 536.647 -0.630337 -1.84003 0
M  V30 5653 O 535.902 0.384883 -1.91878 0
M  V30 5654 C 536.201 -3.08772 -1.79985 0
M  V30 5655 C 535.867 -4.38532 -1.04882 0
M  V30 5656 C 534.529 -4.73787 -0.841393 0
M  V30 5657 C 536.881 -5.18609 -0.51907 0
M  V30 5658 C 534.209 -5.86627 -0.0924403 0
M  V30 5659 C 536.561 -6.32229 0.216581 0
M  V30 5660 C 535.225 -6.6608 0.435191 0
M  V30 5661 H 534.495 -0.657004 -0.342676 0
M  V30 5662 H 537.142 -1.9041 -0.204051 0
M  V30 5663 H 535.447 -2.93065 -2.60038 0
M  V30 5664 H 537.144 -3.24077 -2.36168 0
M  V30 5665 H 533.734 -4.10855 -1.22048 0
M  V30 5666 H 537.918 -4.91801 -0.666775 0
M  V30 5667 H 533.174 -6.11338 0.087081 0
M  V30 5668 H 537.348 -6.93503 0.634538 0
M  V30 5669 H 534.975 -7.5336 1.01746 0
M  V30 5670 N 536.55 0.480323 -1.50102 0
M  V30 5671 C 537.799 1.22979 -1.59872 0
M  V30 5672 C 538.112 1.93282 -0.30022 0
M  V30 5673 O 539.318 2.70086 -0.276709 0
M  V30 5674 C 537.774 2.23408 -2.82164 0
M  V30 5675 C 537.382 1.5895 -4.18854 0
M  V30 5676 C 539.126 2.99055 -3.01275 0
M  V30 5677 C 537.033 2.57611 -5.32344 0
M  V30 5678 H 535.963 0.462707 -0.59533 0
M  V30 5679 H 538.614 0.501291 -1.7652 0
M  V30 5680 H 536.996 2.99511 -2.59055 0
M  V30 5681 H 538.17 0.887 -4.52182 0
M  V30 5682 H 536.485 0.956191 -4.05273 0
M  V30 5683 H 539.082 3.72876 -3.83233 0
M  V30 5684 H 539.425 3.57897 -2.12639 0
M  V30 5685 H 539.958 2.30066 -3.24522 0
M  V30 5686 H 536.697 2.03521 -6.23105 0
M  V30 5687 H 536.217 3.26041 -5.03445 0
M  V30 5688 H 537.896 3.19627 -5.62537 0
M  V30 5689 N 538.028 1.39524 0.732853 0
M  V30 5690 C 539.276 1.36594 1.48951 0
M  V30 5691 C 539.597 -0.0367507 1.94965 0
M  V30 5692 O 538.867 -0.988391 1.69138 0
M  V30 5693 H 537.447 0.502673 0.552566 0
M  V30 5694 H 540.109 1.74411 0.869869 0
M  V30 5695 H 539.205 2.03 2.3706 0
M  V30 5696 N 539.506 -0.963266 1.24736 0
M  V30 5697 C 540.734 -1.74166 1.11686 0
M  V30 5698 C 541.149 -1.8589 -0.330187 0
M  V30 5699 O 540.506 -1.35042 -1.2276 0
M  V30 5700 C 540.557 -3.15989 1.75595 0
M  V30 5701 O 540.278 -3.04847 3.14642 0
M  V30 5702 C 541.779 -4.10145 1.68213 0
M  V30 5703 H 538.999 -0.546031 0.389989 0
M  V30 5704 H 541.543 -1.20907 1.64929 0
M  V30 5705 H 539.698 -3.66219 1.26343 0
M  V30 5706 H 540.112 -3.9425 3.4593 0
M  V30 5707 H 541.586 -5.07299 2.17604 0
M  V30 5708 H 542.063 -4.3445 0.644208 0
M  V30 5709 H 542.669 -3.65827 2.16912 0
M  V30 5710 N 540.985 -1.06182 -1.16461 0
M  V30 5711 C 542.396 -0.802426 -1.68576 0
M  V30 5712 C 542.747 0.67412 -1.84255 0
M  V30 5713 O 541.872 1.52303 -1.5373 0
M  V30 5714 C 542.467 -1.45002 -3.06202 0
M  V30 5715 C 541.026 -1.23843 -3.55443 0
M  V30 5716 C 540.173 -1.52724 -2.31454 0
M  V30 5717 H 543.124 -1.22545 -1.00839 0
M  V30 5718 H 543.145 -0.864731 -3.70544 0
M  V30 5719 H 542.657 -2.52466 -2.94759 0
M  V30 5720 H 540.758 -0.183487 -3.72148 0
M  V30 5721 H 540.871 -1.95036 -4.37604 0
M  V30 5722 H 539.235 -0.947726 -2.36411 0
M  V30 5723 H 540.018 -2.61343 -2.22609 0
M  V30 5724 N 542.463 1.3308 -0.844243 0
M  V30 5725 C 543.373 2.32876 -0.283922 0
M  V30 5726 C 544.389 1.63589 0.592846 0
M  V30 5727 O 545.565 1.95205 0.495693 0
M  V30 5728 C 542.63 3.42667 0.527283 0
M  V30 5729 C 541.691 4.27664 -0.374394 0
M  V30 5730 C 540.924 5.32212 0.39819 0
M  V30 5731 O 541.147 5.46635 1.62932 0
M  V30 5732 O 540.081 6.01458 -0.2306 0
M  V30 5733 H 543.907 2.82671 -1.11045 0
M  V30 5734 H 541.492 1.36518 -0.606903 0
M  V30 5735 H 543.374 4.09652 0.988078 0
M  V30 5736 H 542.049 2.95079 1.33078 0
M  V30 5737 H 540.956 3.63526 -0.883144 0
M  V30 5738 H 542.289 4.78749 -1.1428 0
M  V30 5739 N 543.941 0.601185 1.45683 0
M  V30 5740 C 545.357 0.264315 1.57396 0
M  V30 5741 C 545.557 -1.23324 1.59353 0
M  V30 5742 O 544.613 -2.01594 1.52039 0
M  V30 5743 C 545.926 0.929839 2.85962 0
M  V30 5744 C 547.474 0.905156 2.99626 0
M  V30 5745 C 547.949 1.55057 4.30954 0
M  V30 5746 N 549.44 1.51576 4.37697 0
M  V30 5747 C 550.175 1.98436 5.37969 0
M  V30 5748 N 549.671 2.53352 6.44813 0
M  V30 5749 N 551.464 1.89242 5.29286 0
M  V30 5750 H 543.615 1.57363 1.42656 0
M  V30 5751 H 545.878 0.658831 0.681649 0
M  V30 5752 H 545.584 1.98404 2.90394 0
M  V30 5753 H 545.458 0.449224 3.74515 0
M  V30 5754 H 547.845 -0.14048 2.94765 0
M  V30 5755 H 547.926 1.42397 2.12501 0
M  V30 5756 H 547.57 2.5955 4.36573 0
M  V30 5757 H 547.5 1.00682 5.16886 0
M  V30 5758 H 549.991 1.11452 3.61091 0
M  V30 5759 H 550.304 2.86918 7.17564 0
M  V30 5760 H 548.649 2.57388 6.45582 0
M  V30 5761 H 551.84 1.46083 4.44722 0
M  V30 5762 H 552.013 2.26075 6.07284 0
M  V30 5763 N 545.419 -1.53889 0.339982 0
M  V30 5764 C 546.665 -2.01152 -0.258003 0
M  V30 5765 C 546.998 -1.22749 -1.50487 0
M  V30 5766 O 546.273 -0.314156 -1.91946 0
M  V30 5767 C 546.556 -3.55468 -0.575717 0
M  V30 5768 C 546.409 -4.44584 0.682996 0
M  V30 5769 C 547.728 -4.1768 -1.38677 0
M  V30 5770 H 544.847 -0.731198 -0.0922992 0
M  V30 5771 H 547.489 -1.84352 0.459814 0
M  V30 5772 H 545.639 -3.69914 -1.18725 0
M  V30 5773 H 547.311 -4.41981 1.32102 0
M  V30 5774 H 545.554 -4.13592 1.3086 0
M  V30 5775 H 546.225 -5.5043 0.416001 0
M  V30 5776 H 548.701 -4.0691 -0.869705 0
M  V30 5777 H 547.577 -5.25734 -1.57783 0
M  V30 5778 H 547.838 -3.72069 -2.38782 0
M  V30 5779 N 546.897 -0.0685191 -1.57451 0
M  V30 5780 C 547.86 0.885173 -2.11417 0
M  V30 5781 C 548.86 1.22853 -1.03748 0
M  V30 5782 O 550.05 1.16235 -1.2975 0
M  V30 5783 C 547.182 2.18964 -2.61281 0
M  V30 5784 H 548.375 0.417034 -2.96986 0
M  V30 5785 H 545.928 0.18014 -1.55258 0
M  V30 5786 H 546.663 2.70321 -1.79156 0
M  V30 5787 H 546.448 1.9534 -3.39977 0
M  V30 5788 H 547.938 2.87242 -3.0312 0
M  V30 5789 N 548.375 1.56261 0.205012 0
M  V30 5790 C 549.6 1.84491 0.947512 0
M  V30 5791 C 550.025 0.650894 1.76479 0
M  V30 5792 O 549.383 -0.40035 1.76824 0
M  V30 5793 C 549.431 3.10863 1.82747 0
M  V30 5794 O 548.535 2.90719 2.925 0
M  V30 5795 H 547.876 0.607783 0.267386 0
M  V30 5796 H 550.406 2.03485 0.213323 0
M  V30 5797 H 550.416 3.41399 2.23407 0
M  V30 5798 H 549.091 3.97392 1.2269 0
M  V30 5799 H 547.668 2.71457 2.55667 0
M  V30 5800 N 549.853 -0.472356 1.50355 0
M  V30 5801 C 550.783 -1.57859 1.72055 0
M  V30 5802 C 551.764 -1.60283 0.569505 0
M  V30 5803 O 552.949 -1.7657 0.808503 0
M  V30 5804 C 550.079 -2.96191 1.81351 0
M  V30 5805 C 549.033 -3.08633 2.96529 0
M  V30 5806 C 548.359 -4.486 2.90968 0
M  V30 5807 C 549.659 -2.85969 4.37057 0
M  V30 5808 H 551.353 -1.39953 2.64676 0
M  V30 5809 H 548.899 -0.671846 1.27367 0
M  V30 5810 H 550.852 -3.73507 1.95117 0
M  V30 5811 H 549.576 -3.15251 0.853502 0
M  V30 5812 H 548.235 -2.33749 2.82413 0
M  V30 5813 H 547.883 -4.64577 1.92815 0
M  V30 5814 H 547.583 -4.57861 3.68289 0
M  V30 5815 H 549.107 -5.27938 3.0678 0
M  V30 5816 H 550.521 -3.53036 4.51706 0
M  V30 5817 H 548.918 -3.06677 5.15819 0
M  V30 5818 H 549.988 -1.81838 4.49514 0
M  V30 5819 N 551.331 -1.39911 -0.725443 0
M  V30 5820 C 552.58 -1.36963 -1.48068 0
M  V30 5821 C 552.893 0.0284478 -1.95579 0
M  V30 5822 O 554.099 0.180535 -2.70899 0
M  V30 5823 C 552.555 -2.40664 -2.67598 0
M  V30 5824 C 552.163 -3.86234 -2.26997 0
M  V30 5825 C 553.907 -2.46807 -3.45379 0
M  V30 5826 C 551.814 -4.81554 -3.43307 0
M  V30 5827 H 550.744 -0.509223 -0.556065 0
M  V30 5828 H 553.395 -1.65602 -0.790454 0
M  V30 5829 H 551.777 -2.05109 -3.38742 0
M  V30 5830 H 552.951 -4.3088 -1.63337 0
M  V30 5831 H 551.266 -3.83475 -1.62284 0
M  V30 5832 H 553.863 -3.15213 -4.31909 0
M  V30 5833 H 554.206 -1.49552 -3.8851 0
M  V30 5834 H 554.739 -2.81303 -2.81271 0
M  V30 5835 H 551.478 -5.80106 -3.05217 0
M  V30 5836 H 550.998 -4.4158 -4.05915 0
M  V30 5837 H 552.677 -5.0091 -4.0951 0
M  V30 5838 N 552.809 0.956637 -1.25245 0
M  V30 5839 C 553.719 2.0868 -1.0719 0
M  V30 5840 C 554.735 1.73997 -0.00959074 0
M  V30 5841 O 555.911 2.00301 -0.210104 0
M  V30 5842 C 552.976 3.39754 -0.690526 0
M  V30 5843 C 552.037 3.88316 -1.83055 0
M  V30 5844 C 551.27 5.13134 -1.46728 0
M  V30 5845 O 551.493 5.6925 -0.362029 0
M  V30 5846 O 550.427 5.56356 -2.29677 0
M  V30 5847 H 554.253 2.26813 -2.01965 0
M  V30 5848 H 551.838 1.07098 -1.04165 0
M  V30 5849 H 553.72 4.18543 -0.489871 0
M  V30 5850 H 552.395 3.22896 0.227981 0
M  V30 5851 H 551.302 3.1054 -2.08604 0
M  V30 5852 H 552.635 4.09669 -2.72822 0
M  V30 5853 N 554.287 1.06798 1.15896 0
M  V30 5854 C 555.515 0.808694 1.90441 0
M  V30 5855 C 555.93 -0.637506 1.77711 0
M  V30 5856 O 555.287 -1.43684 1.12522 0
M  V30 5857 C 555.338 1.20068 3.40978 0
M  V30 5858 O 555.059 2.59013 3.53333 0
M  V30 5859 C 556.56 0.96987 4.3256 0
M  V30 5860 H 553.78 0.292809 0.603742 0
M  V30 5861 H 556.324 1.42296 1.46874 0
M  V30 5862 H 554.479 0.630842 3.82229 0
M  V30 5863 H 554.893 2.7485 4.46719 0
M  V30 5864 H 556.367 1.29371 5.36626 0
M  V30 5865 H 556.844 -0.0941209 4.39099 0
M  V30 5866 H 557.45 1.52433 3.97044 0
M  V30 5867 N 555.766 -1.3263 0.851289 0
M  V30 5868 C 557.012 -1.98061 0.462963 0
M  V30 5869 C 557.367 -1.66162 -0.969948 0
M  V30 5870 O 556.66 -0.937723 -1.67085 0
M  V30 5871 C 556.854 -3.51713 0.635015 0
M  V30 5872 C 556.683 -3.98544 2.0831 0
M  V30 5873 C 555.453 -4.25787 2.72091 0
M  V30 5874 C 557.651 -4.13858 3.0533 0
M  V30 5875 N 555.633 -4.58842 4.07845 0
M  V30 5876 C 557.004 -4.50412 4.26063 0
M  V30 5877 C 559.059 -3.96182 3.0157 0
M  V30 5878 C 557.762 -4.71136 5.43529 0
M  V30 5879 C 559.788 -4.18088 4.18278 0
M  V30 5880 C 559.15 -4.54956 5.37768 0
M  V30 5881 H 555.249 -0.750976 0.218082 0
M  V30 5882 H 557.833 -1.60514 1.10197 0
M  V30 5883 H 556.004 -3.88391 0.0257298 0
M  V30 5884 H 557.736 -4.04118 0.216915 0
M  V30 5885 H 554.491 -4.17734 2.23149 0
M  V30 5886 H 554.915 -4.7956 4.77862 0
M  V30 5887 H 559.557 -3.66783 2.1031 0
M  V30 5888 H 557.275 -4.9939 6.35323 0
M  V30 5889 H 560.861 -4.05918 4.168 0
M  V30 5890 H 559.741 -4.71567 6.26573 0
M  V30 5891 N 557.244 -0.608902 -1.45362 0
M  V30 5892 C 558.491 -0.104607 -2.0223 0
M  V30 5893 C 558.819 1.26534 -1.47714 0
M  V30 5894 O 558.074 1.84855 -0.642435 0
M  V30 5895 C 558.373 -0.0167296 -3.57396 0
M  V30 5896 C 558.039 -1.32251 -4.31069 0
M  V30 5897 C 556.701 -1.68019 -4.50914 0
M  V30 5898 C 559.053 -2.18542 -4.73169 0
M  V30 5899 C 556.381 -2.89828 -5.10114 0
M  V30 5900 C 558.733 -3.39602 -5.33717 0
M  V30 5901 C 557.397 -3.7562 -5.51784 0
M  V30 5902 H 556.667 -0.0382785 -0.740011 0
M  V30 5903 H 559.314 -0.790782 -1.7441 0
M  V30 5904 H 557.619 0.752715 -3.84502 0
M  V30 5905 H 559.316 0.389634 -3.99103 0
M  V30 5906 H 555.906 -1.03411 -4.15938 0
M  V30 5907 H 560.09 -1.92208 -4.5757 0
M  V30 5908 H 555.346 -3.17839 -5.22291 0
M  V30 5909 H 559.52 -4.06716 -5.65292 0
M  V30 5910 H 557.147 -4.70093 -5.97425 0
M  V30 5911 N 558.722 1.53707 -0.348139 0
M  V30 5912 C 559.67 2.26671 0.521808 0
M  V30 5913 C 560.664 1.28988 1.09811 0
M  V30 5914 O 561.87 1.4668 1.04332 0
M  V30 5915 H 558.245 0.728387 0.186968 0
M  V30 5916 H 560.216 2.98176 -0.115563 0
M  V30 5917 C 558.965 3.05591 1.6586 0
M  V30 5918 H 558.288 3.80589 1.22443 0
M  V30 5919 H 559.728 3.59851 2.24239 0
M  V30 5920 C 558.187 2.15366 2.59073 0
M  V30 5921 O 558.717 1.7528 3.61441 0
M  V30 5922 N 556.923 1.80352 2.27863 0
M  V30 5923 H 556.47 2.13149 1.44656 0
M  V30 5924 H 556.428 1.20268 2.90488 0
M  V30 5925 N 560.2 0.0768682 1.57412 0
M  V30 5926 C 561.163 -0.873949 2.11884 0
M  V30 5927 C 562.163 -1.22301 1.04398 0
M  V30 5928 O 563.353 -1.15545 1.30365 0
M  V30 5929 C 560.485 -2.17575 2.62438 0
M  V30 5930 H 561.678 -0.401278 2.97203 0
M  V30 5931 H 559.231 -0.171904 1.55352 0
M  V30 5932 H 559.966 -2.69368 1.80587 0
M  V30 5933 H 559.751 -1.93534 3.41009 0
M  V30 5934 H 561.241 -2.85631 3.04639 0
M  V30 5935 N 561.678 -1.56367 -0.196722 0
M  V30 5936 C 562.588 -1.97617 -1.2643 0
M  V30 5937 C 563.604 -0.883598 -1.49895 0
M  V30 5938 O 564.78 -1.18921 -1.62541 0
M  V30 5939 C 561.845 -2.30595 -2.58895 0
M  V30 5940 C 560.906 -3.53551 -2.43516 0
M  V30 5941 C 560.139 -3.84946 -3.69665 0
M  V30 5942 O 560.362 -3.17655 -4.73763 0
M  V30 5943 O 559.296 -4.78379 -3.65291 0
M  V30 5944 H 563.122 -2.88648 -0.944233 0
M  V30 5945 H 560.707 -1.43901 -0.401592 0
M  V30 5946 H 562.589 -2.52889 -3.37083 0
M  V30 5947 H 561.264 -1.42732 -2.90533 0
M  V30 5948 H 560.171 -3.36507 -1.63445 0
M  V30 5949 H 561.504 -4.41875 -2.16812 0
M  V30 5950 N 563.156 0.464375 -1.50603 0
M  V30 5951 C 564.119 1.54393 -1.69397 0
M  V30 5952 C 565.119 1.50566 -0.564504 0
M  V30 5953 O 566.309 1.53066 -0.831645 0
M  V30 5954 C 563.441 2.9401 -1.72543 0
M  V30 5955 H 564.634 1.39044 -2.65719 0
M  V30 5956 H 562.187 0.69122 -1.40185 0
M  V30 5957 H 562.922 3.14795 -0.77938 0
M  V30 5958 H 562.707 2.98195 -2.54602 0
M  V30 5959 H 564.197 3.72375 -1.89015 0
M  V30 5960 N 564.634 1.40294 0.718013 0
M  V30 5961 C 565.597 1.4012 1.81381 0
M  V30 5962 C 566.597 0.295405 1.58063 0
M  V30 5963 O 567.787 0.554187 1.6515 0
M  V30 5964 C 564.919 1.19056 3.19435 0
M  V30 5965 H 566.112 2.37645 1.82933 0
M  V30 5966 H 563.665 1.26107 0.923405 0
M  V30 5967 H 564.4 0.222809 3.23534 0
M  V30 5968 H 564.185 1.99152 3.37758 0
M  V30 5969 H 565.675 1.21716 3.99468 0
M  V30 5970 N 566.112 -0.949982 1.2575 0
M  V30 5971 C 567.389 -1.6718 1.01539 0
M  V30 5972 C 567.769 -2.06095 -0.456942 0
M  V30 5973 O 567.117 -1.77792 -1.43534 0
M  V30 5974 C 567.327 -2.8906 1.95564 0
M  V30 5975 C 568.675 -3.60909 2.23673 0
M  V30 5976 O 569.699 -2.9915 1.9336 0
M  V30 5977 O 568.558 -4.72127 2.75243 0
M  V30 5978 H 565.652 -0.731697 0.385419 0
M  V30 5979 H 568.198 -1.00249 1.36924 0
M  V30 5980 H 566.97 -2.57128 2.94959 0
M  V30 5981 H 566.593 -3.63719 1.60605 0
M  V30 5982 N 567.59 -1.07411 -1.15328 0
M  V30 5983 C 568.838 -0.796073 -1.85761 0
M  V30 5984 C 569.159 0.679864 -1.82764 0
M  V30 5985 O 568.429 1.49242 -1.269 0
M  V30 5986 H 567.009 -0.291495 -0.687779 0
M  V30 5987 H 569.671 -1.35799 -1.39802 0
M  V30 5988 H 568.767 -1.13114 -2.90881 0
M  V30 5989 N 569.068 1.32177 -0.85831 0
M  V30 5990 C 570.315 1.97125 -0.463484 0
M  V30 5991 C 570.643 1.67907 0.981705 0
M  V30 5992 O 569.898 0.961717 1.70439 0
M  V30 5993 C 570.197 3.51372 -0.653658 0
M  V30 5994 C 569.863 4.00584 -2.06987 0
M  V30 5995 C 568.525 4.13733 -2.4572 0
M  V30 5996 C 570.877 4.26624 -2.99402 0
M  V30 5997 C 568.205 4.50268 -3.76132 0
M  V30 5998 C 570.557 4.64618 -4.29316 0
M  V30 5999 C 569.221 4.75975 -4.67979 0
M  V30 6000 H 568.491 0.72133 -0.169601 0
M  V30 6001 H 571.138 1.57517 -1.08907 0
M  V30 6002 H 569.443 3.91761 0.0551328 0
M  V30 6003 H 571.14 3.99655 -0.328163 0
M  V30 6004 H 567.73 3.90837 -1.75911 0
M  V30 6005 H 571.914 4.1597 -2.70708 0
M  V30 6006 H 567.17 4.57256 -4.05865 0
M  V30 6007 H 571.344 4.83722 -5.00985 0
M  V30 6008 H 568.971 5.04041 -5.69076 0
M  V30 6009 N 570.547 0.616602 1.45037 0
M  V30 6010 C 571.796 0.112861 2.01384 0
M  V30 6011 C 572.109 -1.26758 1.48969 0
M  V30 6012 O 573.315 -1.86454 1.9735 0
M  V30 6013 C 571.771 0.151057 3.59583 0
M  V30 6014 C 571.379 1.53191 4.20995 0
M  V30 6015 C 573.123 -0.296974 4.2346 0
M  V30 6016 C 571.03 1.526 5.71373 0
M  V30 6017 H 569.96 0.0384254 0.75302 0
M  V30 6018 H 572.611 0.773262 1.66412 0
M  V30 6019 H 570.993 -0.57617 3.91786 0
M  V30 6020 H 572.167 2.28156 4.00352 0
M  V30 6021 H 570.482 1.92279 3.69348 0
M  V30 6022 H 573.079 -0.320712 5.33737 0
M  V30 6023 H 573.422 -1.32145 3.9477 0
M  V30 6024 H 573.955 0.377279 3.96007 0
M  V30 6025 H 570.694 2.52837 6.04776 0
M  V30 6026 H 570.214 0.819064 5.94181 0
M  V30 6027 H 571.893 1.25357 6.3474 0
M  V30 6028 N 572.025 -1.5352 0.356285 0
M  V30 6029 C 573.271 -2.01414 -0.236653 0
M  V30 6030 C 573.604 -1.24339 -1.49176 0
M  V30 6031 O 572.879 -0.334496 -1.91602 0
M  V30 6032 C 573.162 -3.56059 -0.537982 0
M  V30 6033 C 573.015 -4.43835 0.730112 0
M  V30 6034 C 574.334 -4.19127 -1.34239 0
M  V30 6035 H 571.453 -0.732135 -0.0845386 0
M  V30 6036 H 574.095 -1.83854 0.479341 0
M  V30 6037 H 572.245 -3.71153 -1.14795 0
M  V30 6038 H 573.917 -4.40555 1.36782 0
M  V30 6039 H 572.16 -4.1218 1.3524 0
M  V30 6040 H 572.831 -5.49958 0.474358 0
M  V30 6041 H 575.307 -4.07809 -0.826498 0
M  V30 6042 H 574.183 -5.27378 -1.52198 0
M  V30 6043 H 574.444 -3.74581 -2.34822 0
M  V30 6044 N 573.503 -0.0852151 -1.57369 0
M  V30 6045 C 574.751 0.579658 -1.93609 0
M  V30 6046 C 575.072 1.69332 -0.967043 0
M  V30 6047 O 574.342 1.95892 -0.0174215 0
M  V30 6048 H 572.922 0.217113 -0.714752 0
M  V30 6049 H 575.584 -0.146226 -1.94351 0
M  V30 6050 H 574.68 0.996276 -2.95771 0
M  V30 6051 N 574.981 1.5647 0.188427 0
M  V30 6052 C 576.206 1.85486 0.927891 0
M  V30 6053 C 576.631 0.669575 1.75779 0
M  V30 6054 O 575.989 -0.381573 1.77239 0
M  V30 6055 C 576.037 3.12784 1.7944 0
M  V30 6056 O 575.141 2.93805 2.894 0
M  V30 6057 H 574.482 0.610585 0.260925 0
M  V30 6058 H 577.012 2.037 0.191729 0
M  V30 6059 H 577.022 3.43749 2.19774 0
M  V30 6060 H 575.697 3.98671 1.18468 0
M  V30 6061 H 574.274 2.74153 2.52774 0
M  V30 6062 N 576.459 -0.456382 1.50847 0
M  V30 6063 C 577.736 -1.21739 1.53098 0
M  V30 6064 C 578.116 -2.09179 0.284132 0
M  V30 6065 O 577.464 -2.16466 -0.731773 0
M  V30 6066 C 577.674 -2.03573 2.83477 0
M  V30 6067 C 579.022 -2.61264 3.34703 0
M  V30 6068 O 580.046 -2.13802 2.84898 0
M  V30 6069 O 578.905 -3.47779 4.21559 0
M  V30 6070 H 575.999 -0.553219 0.614718 0
M  V30 6071 H 578.545 -0.467003 1.63148 0
M  V30 6072 H 577.317 -1.39232 3.65691 0
M  V30 6073 H 576.94 -2.85716 2.76499 0
M  V30 6074 N 577.937 -1.40673 -0.710563 0
M  V30 6075 C 579.186 -1.38525 -1.46607 0
M  V30 6076 C 579.499 0.0077024 -1.95598 0
M  V30 6077 O 580.705 0.151792 -2.71075 0
M  V30 6078 C 579.161 -2.43489 -2.6503 0
M  V30 6079 C 578.769 -3.88619 -2.22888 0
M  V30 6080 C 580.513 -2.50456 -3.42742 0
M  V30 6081 C 578.42 -4.85168 -3.3818 0
M  V30 6082 H 577.35 -0.515092 -0.550632 0
M  V30 6083 H 580.001 -1.66431 -0.772846 0
M  V30 6084 H 578.383 -2.0869 -3.36548 0
M  V30 6085 H 579.557 -4.32588 -1.58758 0
M  V30 6086 H 577.872 -3.85174 -1.58208 0
M  V30 6087 H 580.469 -3.19776 -4.28541 0
M  V30 6088 H 580.812 -1.53665 -3.86902 0
M  V30 6089 H 581.345 -2.84271 -2.78271 0
M  V30 6090 H 578.084 -5.8331 -2.99047 0
M  V30 6091 H 577.604 -4.4586 -4.01209 0
M  V30 6092 H 579.283 -5.05225 -4.04174 0
M  V30 6093 N 579.415 0.9433 -1.26252 0
M  V30 6094 C 580.826 1.50404 -1.10614 0
M  V30 6095 C 581.177 1.93666 0.31429 0
M  V30 6096 O 580.302 1.79709 1.20555 0
M  V30 6097 C 580.897 2.73336 -2.00182 0
M  V30 6098 C 579.456 3.25686 -1.88695 0
M  V30 6099 C 578.603 1.98474 -1.93658 0
M  V30 6100 H 581.554 0.759006 -1.39373 0
M  V30 6101 H 581.575 3.47567 -1.54847 0
M  V30 6102 H 581.087 2.41818 -3.03555 0
M  V30 6103 H 579.188 3.61998 -0.882489 0
M  V30 6104 H 579.301 3.92935 -2.74115 0
M  V30 6105 H 577.665 2.14278 -1.37684 0
M  V30 6106 H 578.448 1.6929 -2.98657 0
M  V30 6107 N 580.893 1.08022 1.14757 0
M  V30 6108 C 582.141 0.805913 1.85336 0
M  V30 6109 C 582.462 -0.670162 1.83122 0
M  V30 6110 O 581.732 -1.48567 1.2769 0
M  V30 6111 H 580.312 0.295138 0.686223 0
M  V30 6112 H 582.974 1.36538 1.3908 0
M  V30 6113 H 582.07 1.14655 2.90277 0
M  V30 6114 N 582.371 -1.3172 0.865308 0
M  V30 6115 C 583.599 -2.01057 0.488251 0
M  V30 6116 C 584.014 -1.64979 -0.918 0
M  V30 6117 O 583.371 -0.876597 -1.60069 0
M  V30 6118 C 583.422 -3.55964 0.630224 0
M  V30 6119 O 583.143 -3.90749 1.98109 0
M  V30 6120 C 584.644 -4.42574 0.253567 0
M  V30 6121 H 581.864 -0.64332 0.190736 0
M  V30 6122 H 584.408 -1.68058 1.16519 0
M  V30 6123 H 582.563 -3.874 0.000895422 0
M  V30 6124 H 582.977 -4.85467 1.9855 0
M  V30 6125 H 584.451 -5.50521 0.403875 0
M  V30 6126 H 584.928 -4.31724 -0.806895 0
M  V30 6127 H 585.534 -4.16547 0.858404 0
M  V30 6128 N 583.85 -0.624285 -1.44708 0
M  V30 6129 C 584.779 0.0717025 -2.3339 0
M  V30 6130 C 585.76 0.841814 -1.47809 0
M  V30 6131 O 586.946 0.809056 -1.76544 0
M  V30 6132 C 584.076 1.05852 -3.30776 0
M  V30 6133 C 583.029 0.400503 -4.26122 0
M  V30 6134 C 582.356 1.49674 -5.13324 0
M  V30 6135 C 583.656 -0.688924 -5.17737 0
M  V30 6136 H 585.35 -0.668819 -2.91834 0
M  V30 6137 H 582.896 -0.32308 -1.40329 0
M  V30 6138 H 584.849 1.5541 -3.91696 0
M  V30 6139 H 583.572 1.82984 -2.70526 0
M  V30 6140 H 582.231 -0.0743687 -3.66525 0
M  V30 6141 H 581.88 2.25877 -4.49431 0
M  V30 6142 H 581.58 1.06188 -5.77926 0
M  V30 6143 H 583.104 1.99427 -5.77115 0
M  V30 6144 H 584.518 -0.276724 -5.72632 0
M  V30 6145 H 582.915 -1.04652 -5.90904 0
M  V30 6146 H 583.985 -1.55884 -4.5916 0
M  V30 6147 N 585.328 1.53329 -0.364422 0
M  V30 6148 C 586.605 1.93557 0.281962 0
M  V30 6149 C 586.985 1.29786 1.6649 0
M  V30 6150 O 586.333 0.456512 2.23893 0
M  V30 6151 C 586.543 3.47405 0.333331 0
M  V30 6152 C 587.891 4.20699 0.574231 0
M  V30 6153 O 588.915 3.53779 0.414588 0
M  V30 6154 O 587.774 5.39287 0.885002 0
M  V30 6155 H 584.868 0.809573 0.168881 0
M  V30 6156 H 587.414 1.64494 -0.417121 0
M  V30 6157 H 586.186 3.86091 -0.636326 0
M  V30 6158 H 585.809 3.82697 1.07836 0
M  V30 6159 N 586.806 0.0935595 1.57322 0
M  V30 6160 C 587.769 -0.851426 2.12799 0
M  V30 6161 C 588.769 -1.21187 1.0569 0
M  V30 6162 O 589.959 -1.14156 1.31583 0
M  V30 6163 C 587.091 -2.14779 2.64731 0
M  V30 6164 H 588.284 -0.369733 2.97612 0
M  V30 6165 H 585.837 -0.155417 1.55525 0
M  V30 6166 H 586.572 -2.67437 1.83434 0
M  V30 6167 H 586.357 -1.89907 3.43042 0
M  V30 6168 H 587.847 -2.82383 3.07651 0
M  V30 6169 N 588.284 -1.56567 -0.180126 0
M  V30 6170 C 589.531 -1.81492 -0.898167 0
M  V30 6171 C 589.859 -0.669225 -1.82624 0
M  V30 6172 O 589.114 0.344096 -1.92651 0
M  V30 6173 C 589.413 -3.1252 -1.73395 0
M  V30 6174 C 589.079 -4.40658 -0.955567 0
M  V30 6175 C 587.741 -4.75465 -0.740707 0
M  V30 6176 C 590.093 -5.19593 -0.408948 0
M  V30 6177 C 587.421 -5.86691 0.0320128 0
M  V30 6178 C 589.773 -6.31627 0.350638 0
M  V30 6179 C 588.437 -6.65007 0.576378 0
M  V30 6180 H 587.707 -0.664125 -0.328662 0
M  V30 6181 H 590.354 -1.908 -0.163616 0
M  V30 6182 H 588.659 -2.98515 -2.53763 0
M  V30 6183 H 590.356 -3.29013 -2.29241 0
M  V30 6184 H 586.946 -4.13352 -1.13306 0
M  V30 6185 H 591.13 -4.93104 -0.562307 0
M  V30 6186 H 586.386 -6.11016 0.216735 0
M  V30 6187 H 590.56 -6.92001 0.781497 0
M  V30 6188 H 588.187 -7.51033 1.17703 0
M  V30 6189 N 589.762 0.448376 -1.51087 0
M  V30 6190 C 591.008 1.20049 -1.6345 0
M  V30 6191 C 591.341 1.91121 -0.344444 0
M  V30 6192 O 590.616 1.83125 0.655396 0
M  V30 6193 C 590.899 2.22624 -2.83038 0
M  V30 6194 C 590.752 1.55708 -4.21989 0
M  V30 6195 C 592.071 3.23718 -2.98152 0
M  V30 6196 H 589.19 0.435085 -0.59487 0
M  V30 6197 H 591.832 0.491183 -1.83541 0
M  V30 6198 H 589.982 2.83117 -2.66039 0
M  V30 6199 H 591.654 0.986367 -4.50631 0
M  V30 6200 H 589.897 0.859647 -4.25197 0
M  V30 6201 H 590.568 2.30357 -5.01637 0
M  V30 6202 H 593.044 2.73269 -3.13788 0
M  V30 6203 H 591.92 3.92795 -3.83411 0
M  V30 6204 H 592.181 3.89179 -2.09743 0
M  V30 6205 N 591.24 1.41047 0.703093 0
M  V30 6206 C 592.15 1.44645 1.84703 0
M  V30 6207 C 593.166 0.337778 1.7069 0
M  V30 6208 O 594.342 0.584327 1.92737 0
M  V30 6209 C 591.407 1.31928 3.20618 0
M  V30 6210 C 590.468 2.53047 3.46794 0
M  V30 6211 C 589.701 2.40927 4.76224 0
M  V30 6212 O 589.924 1.42978 5.5219 0
M  V30 6213 O 588.858 3.30543 5.03016 0
M  V30 6214 H 592.684 2.41139 1.84624 0
M  V30 6215 H 590.269 1.22504 0.855167 0
M  V30 6216 H 592.151 1.27092 4.01778 0
M  V30 6217 H 590.826 0.385469 3.21397 0
M  V30 6218 H 589.733 2.6346 2.65593 0
M  V30 6219 H 591.066 3.45231 3.50822 0
M  V30 6220 N 592.718 -0.936591 1.26751 0
M  V30 6221 C 593.665 -2.03597 1.08706 0
M  V30 6222 C 594.635 -1.66097 -0.00926542 0
M  V30 6223 O 595.82 -1.90199 0.151377 0
M  V30 6224 C 592.96 -3.3727 0.73094 0
M  V30 6225 C 592.073 -3.87778 1.90399 0
M  V30 6226 C 591.208 -5.09859 1.49056 0
M  V30 6227 C 590.247 -5.5264 2.63164 0
M  V30 6228 N 589.384 -6.65921 2.22471 0
M  V30 6229 H 594.224 -2.18364 2.02784 0
M  V30 6230 H 591.761 -1.06985 1.00958 0
M  V30 6231 H 593.719 -4.14128 0.505328 0
M  V30 6232 H 592.349 -3.22337 -0.172868 0
M  V30 6233 H 591.401 -3.07279 2.2424 0
M  V30 6234 H 592.713 -4.15464 2.76028 0
M  V30 6235 H 591.867 -5.9419 1.22567 0
M  V30 6236 H 590.606 -4.8393 0.60524 0
M  V30 6237 H 589.611 -4.66863 2.90377 0
M  V30 6238 H 590.836 -5.80568 3.52303 0
M  V30 6239 H 588.782 -6.41667 1.36379 0
M  V30 6240 H 588.699 -6.93216 3.01641 0
M  V30 6241 H 589.967 -7.53616 1.99205 0
M  V30 6242 N 594.196 -1.08629 -1.14182 0
M  V30 6243 C 595.442 -0.818556 -1.85546 0
M  V30 6244 C 595.775 0.654076 -1.82854 0
M  V30 6245 O 595.05 1.48099 -1.26083 0
M  V30 6246 C 595.333 -1.34397 -3.3408 0
M  V30 6247 C 595.186 -2.8821 -3.45333 0
M  V30 6248 C 596.505 -0.971069 -4.29253 0
M  V30 6249 H 593.624 -0.298821 -0.673702 0
M  V30 6250 H 596.266 -1.34629 -1.34071 0
M  V30 6251 H 594.416 -0.895064 -3.78049 0
M  V30 6252 H 596.088 -3.41488 -3.10134 0
M  V30 6253 H 594.331 -3.25756 -2.86471 0
M  V30 6254 H 595.002 -3.20047 -4.49749 0
M  V30 6255 H 597.478 -1.35809 -3.93313 0
M  V30 6256 H 596.354 -1.36586 -5.31635 0
M  V30 6257 H 596.615 0.121659 -4.41933 0
M  V30 6258 N 595.674 1.31259 -0.872281 0
M  V30 6259 C 596.923 1.95893 -0.480493 0
M  V30 6260 C 597.236 1.697 0.972688 0
M  V30 6261 O 598.442 2.28214 1.47073 0
M  V30 6262 C 596.898 3.50705 -0.808342 0
M  V30 6263 C 596.506 3.85735 -2.27844 0
M  V30 6264 C 598.25 4.21719 -0.485136 0
M  V30 6265 C 596.157 5.33668 -2.54858 0
M  V30 6266 H 595.087 0.733182 -0.175955 0
M  V30 6267 H 597.738 1.49396 -1.0655 0
M  V30 6268 H 596.12 3.95706 -0.152558 0
M  V30 6269 H 597.294 3.51686 -2.97748 0
M  V30 6270 H 595.609 3.27792 -2.56791 0
M  V30 6271 H 598.206 5.30559 -0.664166 0
M  V30 6272 H 598.549 4.12316 0.574592 0
M  V30 6273 H 599.082 3.82359 -1.09756 0
M  V30 6274 H 595.821 5.48109 -3.59523 0
M  V30 6275 H 595.341 5.69061 -1.8955 0
M  V30 6276 H 597.02 6.00958 -2.39706 0
M  V30 6277 N 597.152 0.631951 1.44375 0
M  V30 6278 C 598.563 0.219036 1.85411 0
M  V30 6279 C 598.914 -1.22974 1.52879 0
M  V30 6280 O 598.039 -1.93579 0.967266 0
M  V30 6281 C 598.634 0.39075 3.36539 0
M  V30 6282 C 597.193 0.0323351 3.76386 0
M  V30 6283 C 596.34 0.703744 2.68221 0
M  V30 6284 H 599.291 0.837056 1.3483 0
M  V30 6285 H 599.312 -0.370056 3.78696 0
M  V30 6286 H 598.824 1.44527 3.60185 0
M  V30 6287 H 596.925 -1.02042 3.58355 0
M  V30 6288 H 597.038 0.442969 4.77048 0
M  V30 6289 H 595.402 0.138974 2.54321 0
M  V30 6290 H 596.185 1.76088 2.947 0
M  V30 6291 N 598.631 -1.53133 0.372548 0
M  V30 6292 C 599.88 -2.00539 -0.216115 0
M  V30 6293 C 600.193 -1.26374 -1.49295 0
M  V30 6294 O 601.399 -1.64404 -2.16064 0
M  V30 6295 C 599.855 -3.57253 -0.435678 0
M  V30 6296 C 599.463 -4.40302 0.82693 0
M  V30 6297 C 601.207 -4.12995 -0.981618 0
M  V30 6298 C 599.114 -5.88583 0.576567 0
M  V30 6299 H 598.044 -0.749246 -0.084536 0
M  V30 6300 H 600.695 -1.76771 0.492364 0
M  V30 6301 H 599.077 -3.77202 -1.20559 0
M  V30 6302 H 600.251 -4.32124 1.60017 0
M  V30 6303 H 598.566 -3.95699 1.29659 0
M  V30 6304 H 601.163 -5.21418 -1.18436 0
M  V30 6305 H 601.506 -3.68027 -1.94581 0
M  V30 6306 H 602.039 -3.96871 -0.271696 0
M  V30 6307 H 598.778 -6.37841 1.51128 0
M  V30 6308 H 598.298 -5.99592 -0.158047 0
M  V30 6309 H 599.977 -6.46676 0.204722 0
M  V30 6310 N 600.109 -0.101901 -1.5727 0
M  V30 6311 C 601.039 0.851544 -2.17419 0
M  V30 6312 C 602.02 1.28942 -1.10941 0
M  V30 6313 O 603.205 1.35509 -1.39107 0
M  V30 6314 C 600.335 2.10816 -2.75996 0
M  V30 6315 C 599.289 1.80867 -3.87906 0
M  V30 6316 C 598.615 3.13413 -4.33216 0
M  V30 6317 C 599.915 1.0903 -5.10793 0
M  V30 6318 H 601.609 0.350381 -2.97343 0
M  V30 6319 H 599.155 0.16709 -1.43027 0
M  V30 6320 H 601.108 2.77959 -3.16729 0
M  V30 6321 H 599.832 2.63227 -1.93337 0
M  V30 6322 H 598.491 1.16119 -3.47724 0
M  V30 6323 H 598.139 3.63725 -3.47438 0
M  V30 6324 H 597.839 2.94155 -5.08671 0
M  V30 6325 H 599.363 3.81704 -4.76586 0
M  V30 6326 H 600.777 1.66295 -5.48652 0
M  V30 6327 H 599.174 0.99927 -5.91722 0
M  V30 6328 H 600.244 0.0741704 -4.84843 0
M  V30 6329 N 601.587 1.56661 0.17182 0
M  V30 6330 C 602.519 1.92934 1.2373 0
M  V30 6331 C 603.532 0.822385 1.40502 0
M  V30 6332 O 604.721 1.10083 1.40514 0
M  V30 6333 C 601.821 2.16651 2.60607 0
M  V30 6334 C 600.994 3.47878 2.6514 0
M  V30 6335 C 600.053 3.60429 3.83377 0
M  V30 6336 O 599.079 4.33051 3.69398 0
M  V30 6337 N 600.281 2.95241 4.99813 0
M  V30 6338 H 603.046 2.84931 0.929205 0
M  V30 6339 H 600.607 1.5781 0.361588 0
M  V30 6340 H 602.599 2.22312 3.38171 0
M  V30 6341 H 601.169 1.3104 2.83809 0
M  V30 6342 H 600.389 3.53879 1.73675 0
M  V30 6343 H 601.677 4.34232 2.6518 0
M  V30 6344 H 601.075 2.3611 5.14071 0
M  V30 6345 H 599.632 3.06499 5.75241 0
M  V30 6346 N 603.065 -0.440357 1.51323 0
M  V30 6347 C 603.975 -1.55955 1.75258 0
M  V30 6348 C 604.991 -1.61933 0.636687 0
M  V30 6349 O 606.167 -1.79231 0.918593 0
M  V30 6350 C 603.232 -2.9196 1.86977 0
M  V30 6351 C 602.293 -2.96122 3.10822 0
M  V30 6352 C 601.526 -4.2564 3.21973 0
M  V30 6353 O 601.749 -5.17851 2.39137 0
M  V30 6354 O 600.683 -4.36025 4.14929 0
M  V30 6355 H 604.509 -1.38673 2.70191 0
M  V30 6356 H 602.094 -0.623055 1.35788 0
M  V30 6357 H 603.976 -3.72682 1.96688 0
M  V30 6358 H 602.651 -3.09375 0.952307 0
M  V30 6359 H 601.558 -2.14366 3.06591 0
M  V30 6360 H 602.891 -2.83651 4.02247 0
M  V30 6361 N 604.543 -1.41418 -0.695603 0
M  V30 6362 C 605.959 -1.23887 -1.00619 0
M  V30 6363 C 606.159 -0.128206 -2.01092 0
M  V30 6364 O 605.215 0.507408 -2.47349 0
M  V30 6365 C 606.528 -2.58816 -1.53083 0
M  V30 6366 C 608.076 -2.65998 -1.64967 0
M  V30 6367 C 608.551 -4.01244 -2.20833 0
M  V30 6368 N 610.042 -4.0309 -2.28194 0
M  V30 6369 C 610.777 -5.04539 -2.72448 0
M  V30 6370 N 610.273 -6.16378 -3.16306 0
M  V30 6371 N 612.066 -4.91901 -2.72011 0
M  V30 6372 H 604.217 -2.12379 -0.0300061 0
M  V30 6373 H 606.48 -0.944958 -0.0758797 0
M  V30 6374 H 606.186 -3.40842 -0.867147 0
M  V30 6375 H 606.06 -2.81299 -2.51298 0
M  V30 6376 H 608.447 -1.84331 -2.30448 0
M  V30 6377 H 608.528 -2.47325 -0.652982 0
M  V30 6378 H 608.172 -4.83359 -1.55968 0
M  V30 6379 H 608.102 -4.17257 -3.21254 0
M  V30 6380 H 610.593 -3.22341 -1.97242 0
M  V30 6381 H 610.906 -6.89658 -3.487 0
M  V30 6382 H 609.251 -6.19914 -3.14215 0
M  V30 6383 H 612.442 -4.03613 -2.37095 0
M  V30 6384 H 612.615 -5.71102 -3.06181 0
M  V30 6385 N 606.021 0.929856 -1.27246 0
M  V30 6386 C 607.269 1.674 -1.13233 0
M  V30 6387 C 607.59 1.92311 0.322744 0
M  V30 6388 O 606.86 1.52784 1.22612 0
M  V30 6389 H 605.44 0.620411 -0.416052 0
M  V30 6390 H 608.102 1.11663 -1.59741 0
M  V30 6391 H 607.198 2.64308 -1.65975 0
M  V30 6392 N 607.499 1.09233 1.13605 0
M  V30 6393 C 608.429 0.751738 2.21068 0
M  V30 6394 C 609.41 -0.269688 1.67948 0
M  V30 6395 O 610.595 -0.13819 1.93708 0
M  V30 6396 C 607.725 0.16935 3.46887 0
M  V30 6397 C 606.679 1.12007 4.13084 0
M  V30 6398 C 606.005 0.399483 5.33206 0
M  V30 6399 C 607.305 2.46168 4.6065 0
M  V30 6400 H 608.999 1.65024 2.49815 0
M  V30 6401 H 606.545 0.794905 1.20072 0
M  V30 6402 H 608.498 -0.0809824 4.21322 0
M  V30 6403 H 607.222 -0.764335 3.1753 0
M  V30 6404 H 605.881 1.35564 3.40614 0
M  V30 6405 H 605.529 -0.538277 5.00112 0
M  V30 6406 H 605.229 1.03337 5.78442 0
M  V30 6407 H 606.753 0.157403 6.10397 0
M  V30 6408 H 608.167 2.26829 5.26518 0
M  V30 6409 H 606.564 3.05326 5.1662 0
M  V30 6410 H 607.634 3.07076 3.75276 0
M  V30 6411 N 608.977 -1.30795 0.87923 0
M  V30 6412 C 610.207 -2.00237 0.50881 0
M  V30 6413 C 610.615 -1.66115 -0.905682 0
M  V30 6414 O 609.958 -0.89138 -1.60624 0
M  V30 6415 C 610.02 -3.54508 0.597003 0
M  V30 6416 C 609.684 -4.12131 1.97477 0
M  V30 6417 C 610.681 -4.28552 2.94346 0
M  V30 6418 C 608.366 -4.47644 2.2786 0
M  V30 6419 C 610.36 -4.79689 4.19735 0
M  V30 6420 C 608.047 -4.98481 3.53496 0
M  V30 6421 C 609.045 -5.14456 4.49248 0
M  V30 6422 O 608.733 -5.64199 5.72656 0
M  V30 6423 H 608.465 -0.647026 0.195788 0
M  V30 6424 H 611.019 -1.67785 1.1848 0
M  V30 6425 H 609.249 -3.86461 -0.135945 0
M  V30 6426 H 610.938 -4.05198 0.238684 0
M  V30 6427 H 611.704 -4.01424 2.72183 0
M  V30 6428 H 607.583 -4.34481 1.54102 0
M  V30 6429 H 611.127 -4.92073 4.9448 0
M  V30 6430 H 607.024 -5.25044 3.75498 0
M  V30 6431 H 607.792 -5.82551 5.74957 0
M  V30 6432 N 610.455 -0.639598 -1.44038 0
M  V30 6433 C 611.871 -0.305953 -1.5664 0
M  V30 6434 C 612.071 1.19055 -1.62567 0
M  V30 6435 O 611.127 1.97492 -1.57331 0
M  V30 6436 C 612.44 -1.00533 -2.83397 0
M  V30 6437 C 613.988 -0.984278 -2.97121 0
M  V30 6438 C 614.463 -1.66428 -4.26691 0
M  V30 6439 N 615.954 -1.63127 -4.33525 0
M  V30 6440 C 616.689 -2.12629 -5.32519 0
M  V30 6441 N 616.185 -2.70359 -6.3787 0
M  V30 6442 N 617.978 -2.03208 -5.24083 0
M  V30 6443 H 610.129 -1.6109 -1.38434 0
M  V30 6444 H 612.392 -0.676672 -0.663942 0
M  V30 6445 H 612.098 -2.06034 -2.85032 0
M  V30 6446 H 611.972 -0.548362 -3.73193 0
M  V30 6447 H 614.359 0.0622792 -2.95034 0
M  V30 6448 H 614.44 -1.47981 -2.08651 0
M  V30 6449 H 614.084 -2.71034 -4.29538 0
M  V30 6450 H 614.014 -1.14351 -5.14034 0
M  V30 6451 H 616.505 -1.20987 -3.58009 0
M  V30 6452 H 616.818 -3.05842 -7.09704 0
M  V30 6453 H 615.163 -2.74414 -6.38531 0
M  V30 6454 H 618.354 -1.57823 -4.40692 0
M  V30 6455 H 618.527 -2.42097 -6.01077 0
M  V30 6456 N 611.933 1.52934 -0.380664 0
M  V30 6457 C 612.865 2.23822 0.493581 0
M  V30 6458 C 613.878 1.25761 1.03383 0
M  V30 6459 O 615.067 1.5189 0.937633 0
M  V30 6460 C 612.167 2.9342 1.69582 0
M  V30 6461 C 611.34 4.18115 1.28445 0
M  V30 6462 C 610.399 4.70788 2.35042 0
M  V30 6463 O 609.425 5.34093 1.96807 0
M  V30 6464 N 610.627 4.49899 3.66839 0
M  V30 6465 H 613.392 2.99484 -0.11371 0
M  V30 6466 H 610.953 1.60577 -0.206587 0
M  V30 6467 H 612.945 3.2556 2.40401 0
M  V30 6468 H 611.515 2.21119 2.20965 0
M  V30 6469 H 610.735 3.92109 0.405503 0
M  V30 6470 H 612.023 4.99152 0.986132 0
M  V30 6471 H 611.421 3.99349 4.0067 0
M  V30 6472 H 609.978 4.86551 4.33718 0
M  V30 6473 N 613.412 0.11024 1.57214 0
M  V30 6474 C 614.689 -0.592956 1.86396 0
M  V30 6475 C 615.069 -1.85379 1.00985 0
M  V30 6476 O 614.417 -2.28337 0.0863592 0
M  V30 6477 C 614.627 -0.893816 3.3736 0
M  V30 6478 C 615.975 -1.25069 4.05762 0
M  V30 6479 O 616.999 -0.984356 3.42329 0
M  V30 6480 O 615.858 -1.75017 5.17718 0
M  V30 6481 H 612.952 -0.29828 0.771335 0
M  V30 6482 H 615.498 0.144083 1.69087 0
M  V30 6483 H 614.27 2.6031e-05 3.913 0
M  V30 6484 H 613.893 -1.68631 3.60068 0
M  V30 6485 N 614.89 -1.56749 -0.16351 0
M  V30 6486 C 616.12 -1.86307 -0.892936 0
M  V30 6487 C 616.528 -0.6945 -1.75992 0
M  V30 6488 O 615.871 0.345384 -1.80424 0
M  V30 6489 C 615.933 -3.10372 -1.81409 0
M  V30 6490 C 615.597 -4.42913 -1.12593 0
M  V30 6491 C 616.594 -5.17608 -0.487661 0
M  V30 6492 C 614.279 -4.89646 -1.12035 0
M  V30 6493 C 616.273 -6.3723 0.14699 0
M  V30 6494 C 613.96 -6.09197 -0.481883 0
M  V30 6495 C 614.958 -6.82834 0.150678 0
M  V30 6496 O 614.646 -8.00116 0.779065 0
M  V30 6497 H 614.378 -0.622126 -0.264452 0
M  V30 6498 H 616.932 -2.04728 -0.166063 0
M  V30 6499 H 615.162 -2.87917 -2.58148 0
M  V30 6500 H 616.851 -3.26312 -2.41403 0
M  V30 6501 H 617.617 -4.8258 -0.483888 0
M  V30 6502 H 613.496 -4.32265 -1.60212 0
M  V30 6503 H 617.04 -6.94646 0.641325 0
M  V30 6504 H 612.937 -6.43688 -0.483266 0
M  V30 6505 H 613.705 -8.15678 0.679089 0
M  V30 6506 N 616.368 0.432326 -1.51554 0
M  V30 6507 C 617.784 0.769195 -1.39841 0
M  V30 6508 C 617.984 1.95584 -0.484675 0
M  V30 6509 O 617.04 2.52433 0.0582829 0
M  V30 6510 C 618.353 1.04487 -2.81963 0
M  V30 6511 C 619.901 1.149 -2.91148 0
M  V30 6512 C 620.376 1.45758 -4.34187 0
M  V30 6513 N 621.867 1.52671 -4.37317 0
M  V30 6514 C 622.602 1.78129 -5.4503 0
M  V30 6515 N 622.098 2.01345 -6.62897 0
M  V30 6516 N 623.891 1.79953 -5.32516 0
M  V30 6517 H 616.042 -0.349122 -2.09511 0
M  V30 6518 H 618.305 -0.0938113 -0.943347 0
M  V30 6519 H 618.011 0.24557 -3.50842 0
M  V30 6520 H 617.885 1.97119 -3.21596 0
M  V30 6521 H 620.272 1.93891 -2.22464 0
M  V30 6522 H 620.353 0.201568 -2.55005 0
M  V30 6523 H 619.997 0.672917 -5.03423 0
M  V30 6524 H 619.927 2.41715 -4.67848 0
M  V30 6525 H 622.418 1.36612 -3.52343 0
M  V30 6526 H 622.731 2.20155 -7.40778 0
M  V30 6527 H 621.076 1.98657 -6.66003 0
M  V30 6528 H 624.267 1.61337 -4.39418 0
M  V30 6529 H 624.44 1.99455 -6.1654 0
M  V30 6530 N 617.846 1.41785 0.688094 0
M  V30 6531 C 619.094 1.41264 1.4453 0
M  V30 6532 C 619.415 0.0252946 1.94984 0
M  V30 6533 O 618.685 -0.934081 1.72197 0
M  V30 6534 H 617.265 0.519998 0.536294 0
M  V30 6535 H 619.927 1.7709 0.813941 0
M  V30 6536 H 619.023 2.10439 2.30482 0
M  V30 6537 N 619.324 -0.923095 1.27737 0
M  V30 6538 C 620.572 -1.66797 1.14119 0
M  V30 6539 C 620.893 -1.92479 -0.312541 0
M  V30 6540 O 620.163 -1.53432 -1.218 0
M  V30 6541 H 618.743 -0.618196 0.419336 0
M  V30 6542 H 621.405 -1.10815 1.60331 0
M  V30 6543 H 620.501 -2.63424 1.67374 0
M  V30 6544 N 620.802 -1.09834 -1.13024 0
M  V30 6545 C 622.03 -0.858902 -1.8823 0
M  V30 6546 C 622.445 0.590164 -1.79339 0
M  V30 6547 O 621.802 1.4065 -1.16292 0
M  V30 6548 C 621.853 -1.29066 -3.37675 0
M  V30 6549 O 621.574 -2.6829 -3.46341 0
M  V30 6550 C 623.075 -1.08421 -4.29837 0
M  V30 6551 H 620.295 -0.308713 -0.595766 0
M  V30 6552 H 622.839 -1.4614 -1.4305 0
M  V30 6553 H 620.994 -0.731961 -3.80422 0
M  V30 6554 H 621.408 -2.86598 -4.39274 0
M  V30 6555 H 622.882 -1.43553 -5.33007 0
M  V30 6556 H 623.359 -0.0223315 -4.39194 0
M  V30 6557 H 623.965 -1.62907 -3.92863 0
M  V30 6558 N 622.28 1.30327 -0.886154 0
M  V30 6559 C 623.21 2.30549 -0.370028 0
M  V30 6560 C 624.191 1.61039 0.547751 0
M  V30 6561 O 625.376 1.8864 0.461353 0
M  V30 6562 C 622.506 3.44808 0.415275 0
M  V30 6563 C 621.46 4.26024 -0.41085 0
M  V30 6564 C 620.786 5.32347 0.501128 0
M  V30 6565 C 622.086 4.95433 -1.65359 0
M  V30 6566 H 623.78 2.73969 -1.20754 0
M  V30 6567 H 621.326 1.3171 -0.582097 0
M  V30 6568 H 623.279 4.13986 0.78699 0
M  V30 6569 H 622.003 3.00197 1.28644 0
M  V30 6570 H 620.662 3.58535 -0.764719 0
M  V30 6571 H 620.31 4.83982 1.37004 0
M  V30 6572 H 620.01 5.87581 -0.0478356 0
M  V30 6573 H 621.534 6.0438 0.869333 0
M  V30 6574 H 622.948 5.5712 -1.35239 0
M  V30 6575 H 621.345 5.60537 -2.14284 0
M  V30 6576 H 622.415 4.21493 -2.39733 0
M  V30 6577 N 623.758 0.647228 1.43697 0
M  V30 6578 C 625.174 0.314256 1.56476 0
M  V30 6579 C 625.374 -1.18191 1.63196 0
M  V30 6580 O 624.43 -1.96655 1.58376 0
M  V30 6581 C 625.743 1.02034 2.82859 0
M  V30 6582 C 627.291 1.00002 2.96595 0
M  V30 6583 C 627.766 1.68689 4.25803 0
M  V30 6584 N 629.257 1.65424 4.32654 0
M  V30 6585 C 629.992 2.1545 5.31384 0
M  V30 6586 N 629.488 2.73738 6.36427 0
M  V30 6587 N 631.281 2.05985 5.22998 0
M  V30 6588 H 623.432 1.61821 1.37578 0
M  V30 6589 H 625.695 0.680184 0.660344 0
M  V30 6590 H 625.401 2.07542 2.83935 0
M  V30 6591 H 625.275 0.568146 3.72897 0
M  V30 6592 H 627.662 -0.0466319 2.95063 0
M  V30 6593 H 627.743 1.49086 2.07863 0
M  V30 6594 H 627.387 2.73308 4.28095 0
M  V30 6595 H 627.317 1.17076 5.13421 0
M  V30 6596 H 629.808 1.22884 3.57363 0
M  V30 6597 H 630.121 3.09602 7.08072 0
M  V30 6598 H 628.466 2.77796 6.37067 0
M  V30 6599 H 631.657 1.60157 4.39849 0
M  V30 6600 H 631.83 2.45281 5.99784 0
M  V30 6601 N 625.236 -1.5273 0.388769 0
M  V30 6602 C 626.146 -2.30165 -0.453993 0
M  V30 6603 C 627.162 -1.37058 -1.07197 0
M  V30 6604 O 628.338 -1.70127 -1.0779 0
M  V30 6605 C 625.403 -3.09303 -1.56628 0
M  V30 6606 C 624.464 -4.18117 -0.973467 0
M  V30 6607 C 623.697 -4.93472 -2.03275 0
M  V30 6608 O 623.92 -4.68913 -3.24772 0
M  V30 6609 O 622.854 -5.78833 -1.65034 0
M  V30 6610 H 626.68 -3.03185 0.176816 0
M  V30 6611 H 624.265 -1.4862 0.152501 0
M  V30 6612 H 626.147 -3.58648 -2.21246 0
M  V30 6613 H 624.822 -2.39098 -2.18206 0
M  V30 6614 H 623.729 -3.7297 -0.290556 0
M  V30 6615 H 625.062 -4.90556 -0.401908 0
M  V30 6616 N 626.714 -0.118576 -1.57153 0
M  V30 6617 C 627.662 0.849114 -2.16547 0
M  V30 6618 C 628.656 1.27567 -1.11458 0
M  V30 6619 O 629.862 1.24746 -1.29763 0
M  V30 6620 H 626.237 0.291935 -0.693021 0
M  V30 6621 H 628.208 0.323693 -2.96639 0
M  V30 6622 C 626.957 2.08951 -2.77912 0
M  V30 6623 H 626.28 1.77021 -3.58474 0
M  V30 6624 H 627.72 2.74666 -3.23008 0
M  V30 6625 C 626.179 2.87899 -1.74974 0
M  V30 6626 O 626.709 3.83268 -1.20285 0
M  V30 6627 N 624.915 2.51884 -1.44924 0
M  V30 6628 H 624.462 1.74397 -1.89587 0
M  V30 6629 H 624.42 3.05003 -0.762921 0
M  V30 6630 N 628.193 1.56834 0.155195 0
M  V30 6631 C 629.123 2.00678 1.19376 0
M  V30 6632 C 630.104 0.884973 1.45266 0
M  V30 6633 O 631.289 1.1522 1.56326 0
M  V30 6634 C 628.419 2.38042 2.5289 0
M  V30 6635 C 627.373 3.53332 2.41538 0
M  V30 6636 C 626.699 3.76485 3.79688 0
M  V30 6637 C 627.999 4.86265 1.9064 0
M  V30 6638 H 629.693 2.87688 0.829232 0
M  V30 6639 H 627.239 1.38407 0.397445 0
M  V30 6640 H 629.192 2.67314 3.25763 0
M  V30 6641 H 627.916 1.4796 2.91162 0
M  V30 6642 H 626.575 3.24213 1.71117 0
M  V30 6643 H 626.223 2.83667 4.15382 0
M  V30 6644 H 625.923 4.54068 3.72956 0
M  V30 6645 H 627.447 4.08174 4.54122 0
M  V30 6646 H 628.861 5.14308 2.53299 0
M  V30 6647 H 627.258 5.67597 1.94818 0
M  V30 6648 H 628.328 4.77184 0.861596 0
M  V30 6649 N 629.671 -0.424282 1.51781 0
M  V30 6650 C 630.919 -1.17028 1.64769 0
M  V30 6651 C 631.24 -1.91409 0.372523 0
M  V30 6652 O 630.51 -1.86091 -0.612108 0
M  V30 6653 H 629.09 -0.434992 0.607282 0
M  V30 6654 H 631.752 -0.485169 1.88765 0
M  V30 6655 H 630.848 -1.8927 2.4816 0
M  V30 6656 N 631.149 -1.42148 -0.680565 0
M  V30 6657 C 632.079 -1.4796 -1.80638 0
M  V30 6658 C 633.06 -0.336728 -1.66734 0
M  V30 6659 O 634.245 -0.550247 -1.86242 0
M  V30 6660 C 631.375 -1.37569 -3.18892 0
M  V30 6661 C 630.329 -2.49823 -3.47524 0
M  V30 6662 C 629.655 -2.24491 -4.85291 0
M  V30 6663 C 630.955 -3.92144 -3.44994 0
M  V30 6664 H 632.649 -2.42184 -1.76032 0
M  V30 6665 H 630.195 -1.16566 -0.845481 0
M  V30 6666 H 632.148 -1.40243 -3.97379 0
M  V30 6667 H 630.872 -0.398357 -3.24162 0
M  V30 6668 H 629.531 -2.46455 -2.71395 0
M  V30 6669 H 629.179 -1.25066 -4.87204 0
M  V30 6670 H 628.879 -2.99722 -5.05411 0
M  V30 6671 H 630.403 -2.28906 -5.66069 0
M  V30 6672 H 631.817 -3.97145 -4.13459 0
M  V30 6673 H 630.214 -4.67179 -3.76648 0
M  V30 6674 H 631.284 -4.19225 -2.43676 0
M  V30 6675 N 632.627 0.916307 -1.28225 0
M  V30 6676 C 633.875 1.6619 -1.15002 0
M  V30 6677 C 634.196 1.92642 0.302329 0
M  V30 6678 O 633.466 1.54076 1.20985 0
M  V30 6679 H 632.046 0.615964 -0.422608 0
M  V30 6680 H 634.708 1.09963 -1.60917 0
M  V30 6681 H 633.804 2.62533 -1.68769 0
M  V30 6682 N 634.105 1.10431 1.1244 0
M  V30 6683 C 635.354 0.841539 1.83306 0
M  V30 6684 C 635.667 -0.634961 1.85007 0
M  V30 6685 O 636.873 -1.01363 2.51869 0
M  V30 6686 C 635.329 1.45565 3.29149 0
M  V30 6687 C 634.937 2.96544 3.35806 0
M  V30 6688 C 636.681 1.27227 4.04986 0
M  V30 6689 C 634.588 3.5099 4.75983 0
M  V30 6690 H 633.518 0.311156 0.686803 0
M  V30 6691 H 636.169 1.32829 1.26604 0
M  V30 6692 H 634.551 0.896574 3.85717 0
M  V30 6693 H 635.725 3.58766 2.89177 0
M  V30 6694 H 634.04 3.14036 2.73442 0
M  V30 6695 H 636.637 1.65348 5.08492 0
M  V30 6696 H 636.98 0.213834 4.1575 0
M  V30 6697 H 637.513 1.79941 3.54776 0
M  V30 6698 H 634.252 4.56499 4.70413 0
M  V30 6699 H 633.772 2.93535 5.23065 0
M  V30 6700 H 635.451 3.48808 5.44924 0
M  V30 6701 N 635.583 -1.29855 0.893053 0
M  V30 6702 C 636.994 -1.77946 0.564998 0
M  V30 6703 C 637.345 -1.73339 -0.919134 0
M  V30 6704 O 636.47 -1.3152 -1.71847 0
M  V30 6705 C 637.065 -3.23118 1.01883 0
M  V30 6706 C 635.624 -3.69013 0.742051 0
M  V30 6707 C 634.771 -2.50121 1.19727 0
M  V30 6708 H 637.722 -1.16611 1.07646 0
M  V30 6709 H 637.743 -3.78875 0.351249 0
M  V30 6710 H 637.255 -3.26439 2.09903 0
M  V30 6711 H 635.356 -3.71173 -0.325816 0
M  V30 6712 H 635.469 -4.60117 1.33527 0
M  V30 6713 H 633.833 -2.47128 0.616418 0
M  V30 6714 H 634.616 -2.56174 2.28538 0
M  V30 6715 N 637.061 -0.65484 -1.43351 0
M  V30 6716 C 637.993 0.0744757 -2.29079 0
M  V30 6717 C 639.006 0.7855 -1.42596 0
M  V30 6718 O 640.195 0.642986 -1.66517 0
M  V30 6719 C 637.295 1.12859 -3.19556 0
M  V30 6720 C 636.468 0.495381 -4.34586 0
M  V30 6721 C 635.527 1.44659 -5.05925 0
M  V30 6722 O 634.553 0.954567 -5.61139 0
M  V30 6723 N 635.755 2.78051 -5.09576 0
M  V30 6724 H 638.52 -0.661346 -2.92312 0
M  V30 6725 H 636.081 -0.497744 -1.54059 0
M  V30 6726 H 638.073 1.76577 -3.64147 0
M  V30 6727 H 636.643 1.76636 -2.57912 0
M  V30 6728 H 635.863 -0.32092 -3.92892 0
M  V30 6729 H 637.151 0.0534203 -5.08772 0
M  V30 6730 H 636.549 3.20584 -4.66093 0
M  V30 6731 H 635.106 3.37068 -5.57878 0
M  V30 6732 N 638.539 1.52521 -0.396863 0
M  V30 6733 C 639.489 2.2348 0.451722 0
M  V30 6734 C 640.473 1.2415 1.0235 0
M  V30 6735 O 641.665 1.4945 0.948348 0
M  V30 6736 C 638.794 3.05067 1.57445 0
M  V30 6737 C 637.88 4.11799 1.01404 0
M  V30 6738 N 638.271 5.05482 0.179234 0
M  V30 6739 C 636.569 4.27064 1.28578 0
M  V30 6740 C 637.27 5.81552 -0.131202 0
M  V30 6741 N 636.246 5.41523 0.474735 0
M  V30 6742 H 640.048 2.93269 -0.192534 0
M  V30 6743 H 637.562 1.61081 -0.206591 0
M  V30 6744 H 639.559 3.54446 2.19485 0
M  V30 6745 H 638.219 2.36816 2.22145 0
M  V30 6746 H 639.23 5.17573 -0.18411 0
M  V30 6747 H 635.907 3.70042 1.93327 0
M  V30 6748 H 637.297 6.67023 -0.808061 0
M  V30 6749 N 640.017 0.126909 1.57088 0
M  V30 6750 C 640.949 -0.850973 2.12817 0
M  V30 6751 C 641.962 -1.22457 1.07276 0
M  V30 6752 O 643.151 -1.17215 1.34622 0
M  V30 6753 C 640.251 -2.15039 2.61938 0
M  V30 6754 C 639.424 -1.94726 3.91664 0
M  V30 6755 C 638.483 -3.0847 4.26301 0
M  V30 6756 O 637.509 -2.81038 4.94981 0
M  V30 6757 N 638.711 -4.35116 3.84259 0
M  V30 6758 H 641.476 -0.3748 2.97347 0
M  V30 6759 H 639.037 -0.0572793 1.61799 0
M  V30 6760 H 641.029 -2.90141 2.82135 0
M  V30 6761 H 639.599 -2.5398 1.82244 0
M  V30 6762 H 638.819 -1.03772 3.80296 0
M  V30 6763 H 640.107 -1.78469 4.76473 0
M  V30 6764 H 639.505 -4.60276 3.2888 0
M  V30 6765 H 638.062 -5.07064 4.09548 0
M  V30 6766 N 641.495 -1.56914 -0.146875 0
M  V30 6767 C 642.72 -1.87881 -0.878386 0
M  V30 6768 C 643.145 -0.715945 -1.73942 0
M  V30 6769 O 642.503 0.334447 -1.78189 0
M  V30 6770 C 642.551 -3.17431 -1.71084 0
M  V30 6771 O 641.655 -3.01374 -2.81509 0
M  V30 6772 H 640.996 -0.617289 -0.244644 0
M  V30 6773 H 643.526 -2.04136 -0.137654 0
M  V30 6774 H 643.536 -3.49455 -2.10582 0
M  V30 6775 H 642.211 -4.01671 -1.07856 0
M  V30 6776 H 640.788 -2.80758 -2.45416 0
M  V30 6777 N 642.974 0.416227 -1.52004 0
M  V30 6778 C 644.22 1.16555 -1.6596 0
M  V30 6779 C 644.553 1.90347 -0.384906 0
M  V30 6780 O 643.828 1.84474 0.616405 0
M  V30 6781 C 644.111 2.1657 -2.87696 0
M  V30 6782 C 643.964 1.46722 -4.25197 0
M  V30 6783 C 645.283 3.17321 -3.04951 0
M  V30 6784 H 642.402 0.422369 -0.603965 0
M  V30 6785 H 645.044 0.452141 -1.84542 0
M  V30 6786 H 643.194 2.77411 -2.71985 0
M  V30 6787 H 644.866 0.89056 -4.52622 0
M  V30 6788 H 643.109 0.769263 -4.26925 0
M  V30 6789 H 643.78 2.19665 -5.0641 0
M  V30 6790 H 646.256 2.66552 -3.19514 0
M  V30 6791 H 645.132 3.84573 -3.91656 0
M  V30 6792 H 645.393 3.84643 -2.17951 0
M  V30 6793 N 644.452 1.42507 0.673017 0
M  V30 6794 C 645.382 1.48916 1.79851 0
M  V30 6795 C 646.363 0.345566 1.66553 0
M  V30 6796 O 647.548 0.560116 1.85947 0
M  V30 6797 C 644.678 1.39258 3.18158 0
M  V30 6798 C 643.632 2.51662 3.46194 0
M  V30 6799 C 642.958 2.27062 4.84094 0
M  V30 6800 C 644.258 3.93968 3.42909 0
M  V30 6801 H 645.952 2.43114 1.74745 0
M  V30 6802 H 643.498 1.17013 0.839288 0
M  V30 6803 H 645.451 1.42349 3.96629 0
M  V30 6804 H 644.175 0.415542 3.23946 0
M  V30 6805 H 642.834 2.47891 2.70084 0
M  V30 6806 H 642.482 1.27648 4.86534 0
M  V30 6807 H 642.182 3.02398 5.03815 0
M  V30 6808 H 643.706 2.31905 5.64847 0
M  V30 6809 H 645.12 3.99332 4.11347 0
M  V30 6810 H 643.517 4.6917 3.74165 0
M  V30 6811 H 644.587 4.20512 2.41449 0
M  V30 6812 N 645.93 -0.909495 1.28709 0
M  V30 6813 C 646.88 -1.9991 1.09636 0
M  V30 6814 C 647.864 -1.60889 0.01872 0
M  V30 6815 O 649.056 -1.75374 0.239338 0
M  V30 6816 C 646.185 -3.34675 0.764702 0
M  V30 6817 C 645.271 -3.80085 1.8814 0
M  V30 6818 N 645.662 -3.97824 3.12361 0
M  V30 6819 C 643.96 -4.09278 1.77221 0
M  V30 6820 C 644.661 -4.35928 3.85151 0
M  V30 6821 N 643.637 -4.44426 3.13028 0
M  V30 6822 H 647.439 -2.11681 2.03883 0
M  V30 6823 H 644.953 -1.09763 1.1969 0
M  V30 6824 H 646.95 -4.12426 0.609132 0
M  V30 6825 H 645.61 -3.24255 -0.169952 0
M  V30 6826 H 646.621 -3.83626 3.47925 0
M  V30 6827 H 643.298 -4.0747 0.909621 0
M  V30 6828 H 644.688 -4.57581 4.92006 0
M  V30 6829 N 647.408 -1.11026 -1.11852 0
M  V30 6830 C 648.633 -0.879064 -1.87849 0
M  V30 6831 C 649.058 0.565406 -1.79401 0
M  V30 6832 O 648.416 1.39886 -1.15333 0
M  V30 6833 C 648.464 -1.33985 -3.34784 0
M  V30 6834 O 647.568 -0.508803 -4.09249 0
M  V30 6835 H 646.909 -0.316992 -0.583448 0
M  V30 6836 H 649.439 -1.47863 -1.41413 0
M  V30 6837 H 649.449 -1.33248 -3.85628 0
M  V30 6838 H 648.124 -2.39172 -3.40249 0
M  V30 6839 H 646.701 -0.581913 -3.68332 0
M  V30 6840 N 648.886 1.2938 -0.899927 0
M  V30 6841 C 650.111 2.00228 -0.540692 0
M  V30 6842 C 650.536 1.66909 0.867359 0
M  V30 6843 O 649.894 0.893824 1.57735 0
M  V30 6844 C 649.942 3.52921 -0.740232 0
M  V30 6845 O 649.046 4.11879 0.207154 0
M  V30 6846 H 648.387 0.629505 -0.211233 0
M  V30 6847 H 650.917 1.6487 -1.21158 0
M  V30 6848 H 650.927 4.0287 -0.644973 0
M  V30 6849 H 649.602 3.76508 -1.76677 0
M  V30 6850 H 648.179 3.72845 0.0643315 0
M  V30 6851 N 650.364 0.662433 1.43002 0
M  V30 6852 C 651.314 -0.0460442 2.27954 0
M  V30 6853 C 652.298 -0.785753 1.40409 0
M  V30 6854 O 653.49 -0.666701 1.63964 0
M  V30 6855 C 650.619 -1.00532 3.2825 0
M  V30 6856 C 649.705 -0.263604 4.2328 0
M  V30 6857 N 650.096 0.724855 5.00579 0
M  V30 6858 C 648.394 -0.503778 4.43146 0
M  V30 6859 C 649.095 1.16594 5.69895 0
M  V30 6860 N 648.071 0.498345 5.41311 0
M  V30 6861 H 651.873 0.712314 2.85137 0
M  V30 6862 H 649.387 0.490469 1.54817 0
M  V30 6863 H 651.384 -1.52775 3.87899 0
M  V30 6864 H 650.044 -1.76364 2.72628 0
M  V30 6865 H 651.055 1.10393 5.05998 0
M  V30 6866 H 647.732 -1.24255 3.98581 0
M  V30 6867 H 649.122 1.98434 6.4193 0
M  V30 6868 N 651.842 -1.52309 0.404946 0
M  V30 6869 C 652.792 -2.23717 -0.439864 0
M  V30 6870 C 653.776 -1.24692 -1.0169 0
M  V30 6871 O 654.968 -1.49951 -0.940409 0
M  V30 6872 C 652.097 -3.05898 -1.55825 0
M  V30 6873 C 651.183 -4.12331 -0.992188 0
M  V30 6874 N 651.574 -5.0557 -0.152424 0
M  V30 6875 C 649.872 -4.2774 -1.26312 0
M  V30 6876 C 650.573 -5.81474 0.162041 0
M  V30 6877 N 649.549 -5.41767 -0.44601 0
M  V30 6878 H 653.351 -2.93162 0.208084 0
M  V30 6879 H 650.865 -1.60969 0.215131 0
M  V30 6880 H 652.862 -3.55605 -2.17603 0
M  V30 6881 H 651.522 -2.37991 -2.20886 0
M  V30 6882 H 652.533 -5.17468 0.211556 0
M  V30 6883 H 649.21 -3.71062 -1.91362 0
M  V30 6884 H 650.6 -6.66585 0.843423 0
M  V30 6885 O 653.359 -0.275866 -1.59126 0
M  V30 6886 H 654.05 0.293949 -1.91457 0
M  V30 END ATOM
M  V30 BEGIN BOND
M  V30 END BOND
M  V30 END CTAB
M  END
$$$$
